# generated using pymatgen
data_SrCeN2
_symmetry_space_group_name_H-M   'P 1'
_cell_length_a   6.34097075
_cell_length_b   6.34097075
_cell_length_c   6.34097075
_cell_angle_alpha   131.33228734
_cell_angle_beta   131.33228734
_cell_angle_gamma   71.28567312
_symmetry_Int_Tables_number   1
_chemical_formula_structural   SrCeN2
_chemical_formula_sum   'Sr2 Ce2 N4'
_cell_volume   140.71642317
_cell_formula_units_Z   2
loop_
 _symmetry_equiv_pos_site_id
 _symmetry_equiv_pos_as_xyz
  1  'x, y, z'
loop_
 _atom_site_type_symbol
 _atom_site_label
 _atom_site_symmetry_multiplicity
 _atom_site_fract_x
 _atom_site_fract_y
 _atom_site_fract_z
 _atom_site_occupancy
  Sr  Sr0  1  0.00000000  0.00000000  0.00000000  1
  Sr  Sr1  1  0.75000000  0.25000000  0.50000000  1
  Ce  Ce0  1  0.25000000  0.75000000  0.50000000  1
  Ce  Ce1  1  0.50000000  0.50000000  0.00000000  1
  N  N0  1  0.72054200  0.72054200  0.00000000  1
  N  N1  1  0.47054200  0.97054200  0.50000000  1
  N  N2  1  0.27945800  0.27945800  0.00000000  1
  N  N3  1  0.02945800  0.52945800  0.50000000  1
loop_
_geom_bond_atom_site_label_1
_geom_bond_atom_site_label_2
_geom_bond_distance
_geom_bond_site_symmetry_2
Ce0 N1 2.272944 1_555
Ce0 N3 2.272944 1_555
Ce0 N2 2.630394 1_555
Ce0 N2 2.630394 1_566
Ce0 N0 2.630394 1_455
Ce0 N0 2.630394 1_556
Ce1 N2 2.272944 1_555
Ce1 N0 2.272944 1_555
Ce1 N3 2.630394 1_655
Ce1 N3 2.630394 1_554
Ce1 N1 2.630394 1_544
Ce1 N1 2.630394 1_555
N0 Sr1 2.630394 1_554
N0 Sr1 2.630394 1_565
N0 Sr0 2.880143 1_665
N1 Sr0 2.630394 1_565
N1 Sr0 2.630394 1_666
N1 Sr1 2.880143 1_565
N2 Sr1 2.630394 1_555
N2 Sr1 2.630394 1_454
N2 Sr0 2.880143 1_555
N3 Sr0 2.630394 1_566
N3 Sr0 2.630394 1_555
N3 Sr1 2.880143 1_455
