# generated using pymatgen
data_YbZnRh
_symmetry_space_group_name_H-M   'P 1'
_cell_length_a   4.09787200
_cell_length_b   6.89655000
_cell_length_c   7.82247600
_cell_angle_alpha   90.00000000
_cell_angle_beta   90.00000000
_cell_angle_gamma   90.00000000
_symmetry_Int_Tables_number   1
_chemical_formula_structural   YbZnRh
_chemical_formula_sum   'Yb4 Zn4 Rh4'
_cell_volume   221.07239557
_cell_formula_units_Z   4
loop_
 _symmetry_equiv_pos_site_id
 _symmetry_equiv_pos_as_xyz
  1  'x, y, z'
loop_
 _atom_site_type_symbol
 _atom_site_label
 _atom_site_symmetry_multiplicity
 _atom_site_fract_x
 _atom_site_fract_y
 _atom_site_fract_z
 _atom_site_occupancy
  Yb  Yb0  1  0.25000000  0.52617900  0.18029500  1
  Yb  Yb1  1  0.75000000  0.47382100  0.81970500  1
  Yb  Yb2  1  0.75000000  0.97382100  0.68029500  1
  Yb  Yb3  1  0.25000000  0.02617900  0.31970500  1
  Zn  Zn0  1  0.25000000  0.64295600  0.56165900  1
  Zn  Zn1  1  0.75000000  0.35704400  0.43834100  1
  Zn  Zn2  1  0.75000000  0.85704400  0.06165900  1
  Zn  Zn3  1  0.25000000  0.14295600  0.93834100  1
  Rh  Rh0  1  0.25000000  0.77273700  0.87388700  1
  Rh  Rh1  1  0.75000000  0.22726300  0.12611300  1
  Rh  Rh2  1  0.75000000  0.72726300  0.37388700  1
  Rh  Rh3  1  0.25000000  0.27273700  0.62611300  1
loop_
_geom_bond_atom_site_label_1
_geom_bond_atom_site_label_2
_geom_bond_distance
_geom_bond_site_symmetry_2
Rh0 Zn2 2.587217 1_556
Rh0 Zn2 2.587217 1_456
Rh0 Zn0 2.601230 1_555
Rh0 Zn3 2.602539 1_565
Rh0 Yb2 2.900798 1_455
Rh0 Yb2 2.900798 1_555
Rh0 Yb1 2.937263 1_455
Rh0 Yb1 2.937263 1_555
Rh0 Yb0 2.938765 1_556
Rh1 Zn3 2.587217 1_654
Rh1 Zn3 2.587217 1_554
Rh1 Zn1 2.601230 1_555
Rh1 Zn2 2.602539 1_545
Rh1 Yb3 2.900798 1_555
Rh1 Yb3 2.900798 1_655
Rh1 Yb0 2.937263 1_555
Rh1 Yb0 2.937263 1_655
Rh1 Yb1 2.938765 1_554
Rh2 Zn0 2.587217 1_555
Rh2 Zn0 2.587217 1_655
Rh2 Zn2 2.601230 1_555
Rh2 Zn1 2.602539 1_555
Rh2 Yb0 2.900798 1_555
Rh2 Yb0 2.900798 1_655
Rh2 Yb3 2.937263 1_565
Rh2 Yb3 2.937263 1_665
Rh2 Yb2 2.938765 1_555
Rh3 Zn1 2.587217 1_555
Rh3 Zn1 2.587217 1_455
Rh3 Zn3 2.601230 1_555
Rh3 Zn0 2.602539 1_555
Rh3 Yb1 2.900798 1_555
Rh3 Yb1 2.900798 1_455
Rh3 Yb2 2.937263 1_445
Rh3 Yb2 2.937263 1_545
Rh3 Yb3 2.938765 1_555
