# generated using pymatgen
data_Co(N2O5)2
_symmetry_space_group_name_H-M   'P 1'
_cell_length_a   9.91040000
_cell_length_b   10.51645400
_cell_length_c   14.41024390
_cell_angle_alpha   48.16574114
_cell_angle_beta   90.00000000
_cell_angle_gamma   90.00000000
_symmetry_Int_Tables_number   1
_chemical_formula_structural   Co(N2O5)2
_chemical_formula_sum   'Co4 N16 O40'
_cell_volume   1119.00799460
_cell_formula_units_Z   4
loop_
 _symmetry_equiv_pos_site_id
 _symmetry_equiv_pos_as_xyz
  1  'x, y, z'
loop_
 _atom_site_type_symbol
 _atom_site_label
 _atom_site_symmetry_multiplicity
 _atom_site_fract_x
 _atom_site_fract_y
 _atom_site_fract_z
 _atom_site_occupancy
  Co  Co0  1  0.46815100  0.83530100  0.50798600  1
  Co  Co1  1  0.53184900  0.16469900  0.49201400  1
  Co  Co2  1  0.96815100  0.16469900  0.99201400  1
  Co  Co3  1  0.03184900  0.83530100  0.00798600  1
  N  N0  1  0.95809200  0.68517800  0.02977100  1
  N  N1  1  0.04190800  0.31482200  0.97022900  1
  N  N2  1  0.45809200  0.31482200  0.47022900  1
  N  N3  1  0.54190800  0.68517800  0.52977100  1
  N  N4  1  0.68854600  0.16420000  0.50255500  1
  N  N5  1  0.31145400  0.83580000  0.49744500  1
  N  N6  1  0.18854600  0.83580000  0.99744500  1
  N  N7  1  0.81145400  0.16420000  0.00255500  1
  N  N8  1  0.80736600  0.53609600  0.44127200  1
  N  N9  1  0.19263400  0.46390400  0.55872800  1
  N  N10  1  0.30736600  0.46390400  0.05872800  1
  N  N11  1  0.69263400  0.53609600  0.94127200  1
  N  N12  1  0.53752400  0.14430500  0.81815100  1
  N  N13  1  0.46247600  0.85569500  0.18184900  1
  N  N14  1  0.03752400  0.85569500  0.68184900  1
  N  N15  1  0.96247600  0.14430500  0.31815100  1
  O  O0  1  0.68773500  0.40807500  0.22805200  1
  O  O1  1  0.31226500  0.59192500  0.77194800  1
  O  O2  1  0.18773500  0.59192500  0.27194800  1
  O  O3  1  0.81226500  0.40807500  0.72805200  1
  O  O4  1  0.43460800  0.18366300  0.75346900  1
  O  O5  1  0.56539200  0.81633700  0.24653100  1
  O  O6  1  0.93460800  0.81633700  0.74653100  1
  O  O7  1  0.06539200  0.18366300  0.25346900  1
  O  O8  1  0.67270800  0.55858500  0.17356600  1
  O  O9  1  0.32729200  0.44141500  0.82643400  1
  O  O10  1  0.17270800  0.44141500  0.32643400  1
  O  O11  1  0.82729200  0.55858500  0.67356600  1
  O  O12  1  0.83571600  0.50396900  0.37390900  1
  O  O13  1  0.16428400  0.49603100  0.62609100  1
  O  O14  1  0.33571600  0.49603100  0.12609100  1
  O  O15  1  0.66428400  0.50396900  0.87390900  1
  O  O16  1  0.62534500  0.04851600  0.83071000  1
  O  O17  1  0.37465500  0.95148400  0.16929000  1
  O  O18  1  0.12534500  0.95148400  0.66929000  1
  O  O19  1  0.87465500  0.04851600  0.33071000  1
  O  O20  1  0.94742600  0.20193400  0.37089500  1
  O  O21  1  0.05257400  0.79806600  0.62910500  1
  O  O22  1  0.44742600  0.79806600  0.12910500  1
  O  O23  1  0.55257400  0.20193400  0.87089500  1
  O  O24  1  0.96682700  0.04701400  0.87254200  1
  O  O25  1  0.03317300  0.95298600  0.12745800  1
  O  O26  1  0.46682700  0.95298600  0.62745800  1
  O  O27  1  0.53317300  0.04701400  0.37254200  1
  O  O28  1  0.71277200  0.45793700  0.51840200  1
  O  O29  1  0.28722800  0.54206300  0.48159800  1
  O  O30  1  0.21277200  0.54206300  0.98159800  1
  O  O31  1  0.78722800  0.45793700  0.01840200  1
  O  O32  1  0.48050900  0.16926400  0.36602600  1
  O  O33  1  0.51949100  0.83073600  0.63397400  1
  O  O34  1  0.98050900  0.83073600  0.13397400  1
  O  O35  1  0.01949100  0.16926400  0.86602600  1
  O  O36  1  0.62607200  0.64618300  0.93112800  1
  O  O37  1  0.37392800  0.35381700  0.06887200  1
  O  O38  1  0.12607200  0.35381700  0.56887200  1
  O  O39  1  0.87392800  0.64618300  0.43112800  1
loop_
_geom_bond_atom_site_label_1
_geom_bond_atom_site_label_2
_geom_bond_distance
_geom_bond_site_symmetry_2
Co0 N5 1.560009 1_555
Co0 N3 1.569781 1_555
Co0 O27 1.839849 1_565
Co0 O33 1.854999 1_555
Co1 N4 1.560009 1_555
Co1 N2 1.569781 1_555
Co1 O26 1.839849 1_545
Co1 O32 1.854999 1_555
Co2 N7 1.560009 1_556
Co2 N1 1.569781 1_655
Co2 O25 1.839849 1_646
Co2 O35 1.854999 1_655
Co3 N6 1.560009 1_554
Co3 N0 1.569781 1_455
Co3 O24 1.839849 1_464
Co3 O34 1.854999 1_455
N8 O39 1.253432 1_555
N8 O28 1.253448 1_555
N8 O12 1.254144 1_555
N9 O38 1.253432 1_555
N9 O29 1.253448 1_555
N9 O13 1.254144 1_555
N10 O37 1.253432 1_555
N10 O30 1.253448 1_554
N10 O14 1.254144 1_555
N11 O36 1.253432 1_555
N11 O31 1.253448 1_556
N11 O15 1.254144 1_555
N12 O16 1.249731 1_555
N12 O4 1.251295 1_555
N12 O23 1.257653 1_555
N13 O17 1.249731 1_555
N13 O5 1.251295 1_555
N13 O22 1.257653 1_555
N14 O18 1.249731 1_555
N14 O6 1.251295 1_455
N14 O21 1.257653 1_555
N15 O19 1.249731 1_555
N15 O7 1.251295 1_655
N15 O20 1.257653 1_555
O0 O8 1.219099 1_555
O1 O9 1.219099 1_555
O10 O2 1.219099 1_555
O11 O3 1.219099 1_555
O24 O35 1.331558 1_655
O25 O34 1.331558 1_455
O26 O33 1.331558 1_555
O27 O32 1.331558 1_555
