# generated using pymatgen
data_RbGeB3O7
_symmetry_space_group_name_H-M   'P 1'
_cell_length_a   6.98405858
_cell_length_b   9.38745139
_cell_length_c   9.46468027
_cell_angle_alpha   90.00000000
_cell_angle_beta   90.00000000
_cell_angle_gamma   90.00000000
_symmetry_Int_Tables_number   1
_chemical_formula_structural   RbGeB3O7
_chemical_formula_sum   'Rb4 Ge4 B12 O28'
_cell_volume   620.52819887
_cell_formula_units_Z   4
loop_
 _symmetry_equiv_pos_site_id
 _symmetry_equiv_pos_as_xyz
  1  'x, y, z'
loop_
 _atom_site_type_symbol
 _atom_site_label
 _atom_site_symmetry_multiplicity
 _atom_site_fract_x
 _atom_site_fract_y
 _atom_site_fract_z
 _atom_site_occupancy
  Rb  Rb0  1  0.75359061  0.51789999  0.17361532  1
  Rb  Rb1  1  0.25359061  0.48210001  0.82638468  1
  Rb  Rb2  1  0.25359061  0.98210001  0.67361532  1
  Rb  Rb3  1  0.75359061  0.01789999  0.32638468  1
  Ge  Ge0  1  0.27081484  0.75728726  0.09952361  1
  Ge  Ge1  1  0.77081484  0.24271274  0.90047639  1
  Ge  Ge2  1  0.77081484  0.74271274  0.59952361  1
  Ge  Ge3  1  0.27081484  0.25728726  0.40047639  1
  B  B0  1  0.30622727  0.52482878  0.27525530  1
  B  B1  1  0.80622727  0.47517122  0.72474470  1
  B  B2  1  0.80622727  0.97517122  0.77525530  1
  B  B3  1  0.30622727  0.02482878  0.22474470  1
  B  B4  1  0.89618817  0.82279838  0.98217554  1
  B  B5  1  0.39618817  0.17720162  0.01782446  1
  B  B6  1  0.39618817  0.67720162  0.48217554  1
  B  B7  1  0.89618817  0.32279838  0.51782446  1
  B  B8  1  0.56480469  0.84872631  0.92438380  1
  B  B9  1  0.06480469  0.15127369  0.07561620  1
  B  B10  1  0.06480469  0.65127369  0.42438380  1
  B  B11  1  0.56480469  0.34872631  0.57561620  1
  O  O0  1  0.60937890  0.93841184  0.81792221  1
  O  O1  1  0.10937890  0.06158816  0.18207779  1
  O  O2  1  0.10937890  0.56158816  0.31792221  1
  O  O3  1  0.60937890  0.43841184  0.68207779  1
  O  O4  1  0.70384662  0.79521716  0.01418625  1
  O  O5  1  0.20384662  0.20478284  0.98581375  1
  O  O6  1  0.20384662  0.70478284  0.51418625  1
  O  O7  1  0.70384662  0.29521716  0.48581375  1
  O  O8  1  0.44554842  0.58413550  0.37979996  1
  O  O9  1  0.94554842  0.41586450  0.62020004  1
  O  O10  1  0.94554842  0.91586450  0.87979996  1
  O  O11  1  0.44554842  0.08413550  0.12020004  1
  O  O12  1  0.02261581  0.74943079  0.06562400  1
  O  O13  1  0.52261581  0.25056921  0.93437600  1
  O  O14  1  0.52261581  0.75056921  0.56562400  1
  O  O15  1  0.02261581  0.24943079  0.43437600  1
  O  O16  1  0.37654372  0.80746828  0.93725542  1
  O  O17  1  0.87654372  0.19253172  0.06274458  1
  O  O18  1  0.87654372  0.69253172  0.43725542  1
  O  O19  1  0.37654372  0.30746828  0.56274458  1
  O  O20  1  0.34594745  0.58417551  0.13425090  1
  O  O21  1  0.84594745  0.41582449  0.86574910  1
  O  O22  1  0.84594745  0.91582449  0.63425090  1
  O  O23  1  0.34594745  0.08417551  0.36574910  1
  O  O24  1  0.33027350  0.87121698  0.23689313  1
  O  O25  1  0.83027350  0.12878302  0.76310687  1
  O  O26  1  0.83027350  0.62878302  0.73689313  1
  O  O27  1  0.33027350  0.37121698  0.26310687  1
loop_
_geom_bond_atom_site_label_1
_geom_bond_atom_site_label_2
_geom_bond_distance
_geom_bond_site_symmetry_2
Ge0 O24 1.733986 1_555
Ge0 O20 1.739038 1_555
Ge0 O12 1.764422 1_555
Ge0 O16 1.768022 1_554
Ge1 O25 1.733986 1_555
Ge1 O21 1.739038 1_555
Ge1 O13 1.764422 1_555
Ge1 O17 1.768022 1_556
Ge2 O26 1.733986 1_555
Ge2 O22 1.739038 1_555
Ge2 O14 1.764422 1_555
Ge2 O18 1.768022 1_555
Ge3 O27 1.733986 1_555
Ge3 O23 1.739038 1_555
Ge3 O15 1.764422 1_555
Ge3 O19 1.768022 1_555
B0 O27 1.456316 1_555
B0 O20 1.472544 1_555
B0 O2 1.473849 1_555
B0 O8 1.495264 1_555
B1 O26 1.456316 1_555
B1 O21 1.472544 1_555
B1 O3 1.473849 1_555
B1 O9 1.495264 1_555
B2 O25 1.456316 1_565
B2 O22 1.472544 1_555
B2 O0 1.473849 1_555
B2 O10 1.495264 1_555
B3 O24 1.456316 1_545
B3 O23 1.472544 1_555
B3 O1 1.473849 1_555
B3 O11 1.495264 1_555
B4 O10 1.349437 1_555
B4 O12 1.370332 1_656
B4 O4 1.401196 1_556
B5 O11 1.349437 1_555
B5 O13 1.370332 1_554
B5 O5 1.401196 1_554
B6 O8 1.349437 1_555
B6 O14 1.370332 1_555
B6 O6 1.401196 1_555
B7 O9 1.349437 1_555
B7 O15 1.370332 1_655
B7 O7 1.401196 1_555
B8 O0 1.349462 1_555
B8 O16 1.376087 1_555
B8 O4 1.384821 1_556
B9 O1 1.349462 1_555
B9 O17 1.376087 1_455
B9 O5 1.384821 1_554
B10 O2 1.349462 1_555
B10 O18 1.376087 1_455
B10 O6 1.384821 1_555
B11 O3 1.349462 1_555
B11 O19 1.376087 1_555
B11 O7 1.384821 1_555
O0 Rb2 2.864982 1_555
O1 Rb3 2.864982 1_455
O2 Rb0 2.864982 1_455
O3 Rb1 2.864982 1_555
O4 Rb0 3.028992 1_555
O5 Rb1 3.028992 1_555
O6 Rb2 3.028992 1_555
O7 Rb3 3.028992 1_555
O8 Rb0 2.970406 1_555
O9 Rb1 2.970406 1_655
O10 Rb2 2.970406 1_655
O11 Rb3 2.970406 1_555
O12 Rb0 3.049418 1_455
O13 Rb1 3.049418 1_555
O14 Rb2 3.049418 1_555
O15 Rb3 3.049418 1_455
O16 Rb2 3.106640 1_555
O16 Rb1 3.341820 1_555
O17 Rb3 3.106640 1_555
O17 Rb0 3.341820 1_555
O18 Rb0 3.106640 1_555
O18 Rb3 3.341820 1_565
O19 Rb1 3.106640 1_555
O19 Rb2 3.341820 1_545
O20 Rb0 2.937911 1_555
O20 Rb1 3.134456 1_554
O21 Rb1 2.937911 1_655
O21 Rb0 3.134456 1_556
O22 Rb2 2.937911 1_655
O22 Rb3 3.134456 1_565
O23 Rb3 2.937911 1_555
O23 Rb2 3.134456 1_545
