# generated using pymatgen
data_Ba4LiCu(CO5)2
_symmetry_space_group_name_H-M   'P 1'
_cell_length_a   8.79005495
_cell_length_b   8.79005495
_cell_length_c   8.79005495
_cell_angle_alpha   141.21939894
_cell_angle_beta   141.21939894
_cell_angle_gamma   56.00641035
_symmetry_Int_Tables_number   1
_chemical_formula_structural   Ba4LiCu(CO5)2
_chemical_formula_sum   'Ba4 Li1 Cu1 C2 O10'
_cell_volume   264.38495277
_cell_formula_units_Z   1
loop_
 _symmetry_equiv_pos_site_id
 _symmetry_equiv_pos_as_xyz
  1  'x, y, z'
loop_
 _atom_site_type_symbol
 _atom_site_label
 _atom_site_symmetry_multiplicity
 _atom_site_fract_x
 _atom_site_fract_y
 _atom_site_fract_z
 _atom_site_occupancy
  Ba  Ba0  1  0.61748500  0.11748500  0.50000000  1
  Ba  Ba1  1  0.88251500  0.38251500  0.50000000  1
  Ba  Ba2  1  0.38251500  0.88251500  0.50000000  1
  Ba  Ba3  1  0.11748500  0.61748500  0.50000000  1
  Li  Li0  1  0.50000000  0.50000000  0.00000000  1
  Cu  Cu0  1  0.00000000  0.00000000  0.00000000  1
  C  C0  1  0.27159400  0.27159400  0.00000000  1
  C  C1  1  0.72840600  0.72840600  0.00000000  1
  O  O0  1  0.09385200  0.36913200  0.00000000  1
  O  O1  1  0.35646300  0.35646300  0.00000000  1
  O  O2  1  0.63086800  0.63086800  0.72472000  1
  O  O3  1  0.36913200  0.09385200  0.00000000  1
  O  O4  1  0.90614800  0.90614800  0.27528000  1
  O  O5  1  0.22594000  0.77020500  0.00000000  1
  O  O6  1  0.22979500  0.22979500  0.45573500  1
  O  O7  1  0.77406000  0.77406000  0.54426500  1
  O  O8  1  0.77020500  0.22594000  0.00000000  1
  O  O9  1  0.64353700  0.64353700  0.00000000  1
loop_
_geom_bond_atom_site_label_1
_geom_bond_atom_site_label_2
_geom_bond_distance
_geom_bond_site_symmetry_2
Ba0 O7 2.740234 1_545
Ba0 O6 2.740234 1_555
Ba0 O8 2.779770 1_556
Ba0 O5 2.779770 1_545
Ba0 O0 2.872265 1_656
Ba0 O3 2.872265 1_555
Ba0 O9 2.946194 1_545
Ba0 O9 2.946194 1_556
Ba0 O4 3.257836 1_545
Ba0 O2 3.257836 1_555
Ba1 O5 2.740234 1_656
Ba1 O8 2.740234 1_555
Ba1 O7 2.779770 1_555
Ba1 O6 2.779770 1_655
Ba1 O2 2.872265 1_555
Ba1 O4 2.872265 1_545
Ba1 O1 2.946194 1_555
Ba1 O1 2.946194 1_656
Ba1 O3 3.257836 1_555
Ba1 O0 3.257836 1_656
Ba2 O8 2.740234 1_566
Ba2 O5 2.740234 1_555
Ba2 O7 2.779770 1_555
Ba2 O6 2.779770 1_565
Ba2 O2 2.872265 1_555
Ba2 O4 2.872265 1_455
Ba2 O1 2.946194 1_555
Ba2 O1 2.946194 1_566
Ba2 O0 3.257836 1_555
Ba2 O3 3.257836 1_566
Ba3 O7 2.740234 1_455
Ba3 O6 2.740234 1_555
Ba3 O5 2.779770 1_556
Ba3 O8 2.779770 1_455
Ba3 O3 2.872265 1_566
Ba3 O0 2.872265 1_555
Ba3 O9 2.946194 1_455
Ba3 O9 2.946194 1_556
Ba3 O4 3.257836 1_455
Ba3 O2 3.257836 1_555
Li0 O1 2.227960 1_555
Li0 O9 2.227960 1_555
Li0 O8 2.246443 1_555
Li0 O5 2.246443 1_555
Li0 O6 2.246443 1_554
Li0 O7 2.246443 1_555
Cu0 O6 1.881109 1_555
Cu0 O7 1.881109 1_444
Cu0 O5 1.881109 1_545
Cu0 O8 1.881109 1_455
C0 O0 1.295455 1_555
C0 O3 1.295455 1_555
C0 O1 1.317324 1_555
C1 O4 1.295455 1_555
C1 O2 1.295455 1_554
C1 O9 1.317324 1_555
