# generated using pymatgen
data_Yb(FeP3)4
_symmetry_space_group_name_H-M   'P 1'
_cell_length_a   6.73867530
_cell_length_b   6.73867530
_cell_length_c   6.73867530
_cell_angle_alpha   109.47122063
_cell_angle_beta   109.47122063
_cell_angle_gamma   109.47122063
_symmetry_Int_Tables_number   1
_chemical_formula_structural   Yb(FeP3)4
_chemical_formula_sum   'Yb1 Fe4 P12'
_cell_volume   235.56008456
_cell_formula_units_Z   1
loop_
 _symmetry_equiv_pos_site_id
 _symmetry_equiv_pos_as_xyz
  1  'x, y, z'
loop_
 _atom_site_type_symbol
 _atom_site_label
 _atom_site_symmetry_multiplicity
 _atom_site_fract_x
 _atom_site_fract_y
 _atom_site_fract_z
 _atom_site_occupancy
  Yb  Yb0  1  0.00000000  0.00000000  0.00000000  1
  Fe  Fe0  1  0.50000000  0.00000000  0.00000000  1
  Fe  Fe1  1  0.50000000  0.50000000  0.50000000  1
  Fe  Fe2  1  0.00000000  0.50000000  0.00000000  1
  Fe  Fe3  1  0.00000000  0.00000000  0.50000000  1
  P  P0  1  0.15028600  0.79686400  0.64657800  1
  P  P1  1  0.15028600  0.50370800  0.35342200  1
  P  P2  1  0.84971400  0.49629200  0.64657800  1
  P  P3  1  0.35342200  0.15028600  0.50370800  1
  P  P4  1  0.79686400  0.64657800  0.15028600  1
  P  P5  1  0.84971400  0.20313600  0.35342200  1
  P  P6  1  0.64657800  0.15028600  0.79686400  1
  P  P7  1  0.49629200  0.64657800  0.84971400  1
  P  P8  1  0.64657800  0.84971400  0.49629200  1
  P  P9  1  0.50370800  0.35342200  0.15028600  1
  P  P10  1  0.35342200  0.84971400  0.20313600  1
  P  P11  1  0.20313600  0.35342200  0.84971400  1
loop_
_geom_bond_atom_site_label_1
_geom_bond_atom_site_label_2
_geom_bond_distance
_geom_bond_site_symmetry_2
Fe0 P5 2.243604 1_555
Fe0 P0 2.243604 1_544
Fe0 P9 2.243604 1_555
Fe0 P10 2.243604 1_545
Fe0 P7 2.243604 1_544
Fe0 P6 2.243604 1_554
Fe1 P8 2.243604 1_555
Fe1 P2 2.243604 1_555
Fe1 P1 2.243604 1_555
Fe1 P9 2.243604 1_555
Fe1 P3 2.243604 1_555
Fe1 P7 2.243604 1_555
Fe2 P1 2.243604 1_555
Fe2 P4 2.243604 1_455
Fe2 P6 2.243604 1_454
Fe2 P11 2.243604 1_554
Fe2 P10 2.243604 1_555
Fe2 P2 2.243604 1_454
Fe3 P3 2.243604 1_555
Fe3 P11 2.243604 1_555
Fe3 P5 2.243604 1_455
Fe3 P4 2.243604 1_445
Fe3 P8 2.243604 1_445
Fe3 P0 2.243604 1_545
P0 P1 2.281091 1_555
P0 P2 2.338796 1_455
P0 Yb0 2.988337 1_566
P1 P5 2.338796 1_455
P1 Yb0 2.988337 1_555
P2 P5 2.281091 1_555
P2 Yb0 2.988337 1_666
P3 P6 2.281091 1_555
P3 Yb0 2.988337 1_555
P4 P9 2.281091 1_555
P4 P7 2.338796 1_554
P4 Yb0 2.988337 1_665
P5 Yb0 2.988337 1_655
P6 P8 2.338796 1_545
P6 Yb0 2.988337 1_656
P7 Yb0 2.988337 1_666
P8 Yb0 2.988337 1_666
P9 Yb0 2.988337 1_555
P10 P8 2.281091 1_555
P10 P3 2.338796 1_565
P10 Yb0 2.988337 1_565
P11 P7 2.281091 1_555
P11 P9 2.338796 1_556
P11 Yb0 2.988337 1_556
