# generated using pymatgen
data_NaY(Te2O5)2
_symmetry_space_group_name_H-M   'P 1'
_cell_length_a   9.11071300
_cell_length_b   9.11071300
_cell_length_c   13.65067200
_cell_angle_alpha   90.00000000
_cell_angle_beta   90.00000000
_cell_angle_gamma   90.00000000
_symmetry_Int_Tables_number   1
_chemical_formula_structural   NaY(Te2O5)2
_chemical_formula_sum   'Na4 Y4 Te16 O40'
_cell_volume   1133.07527660
_cell_formula_units_Z   4
loop_
 _symmetry_equiv_pos_site_id
 _symmetry_equiv_pos_as_xyz
  1  'x, y, z'
loop_
 _atom_site_type_symbol
 _atom_site_label
 _atom_site_symmetry_multiplicity
 _atom_site_fract_x
 _atom_site_fract_y
 _atom_site_fract_z
 _atom_site_occupancy
  Na  Na0  1  0.50000000  0.00000000  0.00000000  1
  Na  Na1  1  0.00000000  0.50000000  0.00000000  1
  Na  Na2  1  0.00000000  0.50000000  0.50000000  1
  Na  Na3  1  0.50000000  0.00000000  0.50000000  1
  Y  Y0  1  0.50000000  0.00000000  0.25000000  1
  Y  Y1  1  0.00000000  0.50000000  0.25000000  1
  Y  Y2  1  0.00000000  0.50000000  0.75000000  1
  Y  Y3  1  0.50000000  0.00000000  0.75000000  1
  Te  Te0  1  0.30551000  0.71699700  0.12927700  1
  Te  Te1  1  0.19449000  0.21699700  0.12927700  1
  Te  Te2  1  0.80551000  0.78300300  0.12927700  1
  Te  Te3  1  0.69449000  0.28300300  0.12927700  1
  Te  Te4  1  0.71699700  0.30551000  0.62927700  1
  Te  Te5  1  0.78300300  0.80551000  0.62927700  1
  Te  Te6  1  0.21699700  0.19449000  0.62927700  1
  Te  Te7  1  0.28300300  0.69449000  0.62927700  1
  Te  Te8  1  0.19449000  0.78300300  0.37072300  1
  Te  Te9  1  0.30551000  0.28300300  0.37072300  1
  Te  Te10  1  0.69449000  0.71699700  0.37072300  1
  Te  Te11  1  0.80551000  0.21699700  0.37072300  1
  Te  Te12  1  0.78300300  0.19449000  0.87072300  1
  Te  Te13  1  0.71699700  0.69449000  0.87072300  1
  Te  Te14  1  0.28300300  0.30551000  0.87072300  1
  Te  Te15  1  0.21699700  0.80551000  0.87072300  1
  O  O0  1  0.34308100  0.92046200  0.12266800  1
  O  O1  1  0.15691900  0.42046200  0.12266800  1
  O  O2  1  0.84308100  0.57953800  0.12266800  1
  O  O3  1  0.65691900  0.07953800  0.12266800  1
  O  O4  1  0.92046200  0.34308100  0.62266800  1
  O  O5  1  0.57953800  0.84308100  0.62266800  1
  O  O6  1  0.42046200  0.15691900  0.62266800  1
  O  O7  1  0.07953800  0.65691900  0.62266800  1
  O  O8  1  0.15691900  0.57953800  0.37733200  1
  O  O9  1  0.34308100  0.07953800  0.37733200  1
  O  O10  1  0.65691900  0.92046200  0.37733200  1
  O  O11  1  0.84308100  0.42046200  0.37733200  1
  O  O12  1  0.57953800  0.15691900  0.87733200  1
  O  O13  1  0.92046200  0.65691900  0.87733200  1
  O  O14  1  0.07953800  0.34308100  0.87733200  1
  O  O15  1  0.42046200  0.84308100  0.87733200  1
  O  O16  1  0.12402100  0.72030200  0.19722200  1
  O  O17  1  0.37597900  0.22030200  0.19722200  1
  O  O18  1  0.62402100  0.77969800  0.19722200  1
  O  O19  1  0.87597900  0.27969800  0.19722200  1
  O  O20  1  0.72030200  0.12402100  0.69722200  1
  O  O21  1  0.77969800  0.62402100  0.69722200  1
  O  O22  1  0.22030200  0.37597900  0.69722200  1
  O  O23  1  0.27969800  0.87597900  0.69722200  1
  O  O24  1  0.37597900  0.77969800  0.30277800  1
  O  O25  1  0.12402100  0.27969800  0.30277800  1
  O  O26  1  0.87597900  0.72030200  0.30277800  1
  O  O27  1  0.62402100  0.22030200  0.30277800  1
  O  O28  1  0.77969800  0.37597900  0.80277800  1
  O  O29  1  0.72030200  0.87597900  0.80277800  1
  O  O30  1  0.27969800  0.12402100  0.80277800  1
  O  O31  1  0.22030200  0.62402100  0.80277800  1
  O  O32  1  0.20345600  0.70345600  0.00000000  1
  O  O33  1  0.29654400  0.20345600  0.00000000  1
  O  O34  1  0.70345600  0.79654400  0.00000000  1
  O  O35  1  0.79654400  0.29654400  0.00000000  1
  O  O36  1  0.70345600  0.20345600  0.50000000  1
  O  O37  1  0.79654400  0.70345600  0.50000000  1
  O  O38  1  0.20345600  0.29654400  0.50000000  1
  O  O39  1  0.29654400  0.79654400  0.50000000  1
loop_
_geom_bond_atom_site_label_1
_geom_bond_atom_site_label_2
_geom_bond_distance
_geom_bond_site_symmetry_2
Na0 O0 2.317962 1_545
Na0 O15 2.317962 1_544
Na0 O12 2.317962 1_554
Na0 O3 2.317962 1_555
Na0 O34 2.621428 1_545
Na0 O33 2.621428 1_555
Na1 O13 2.317962 1_454
Na1 O2 2.317962 1_455
Na1 O14 2.317962 1_554
Na1 O1 2.317962 1_555
Na1 O32 2.621428 1_555
Na1 O35 2.621428 1_455
Na2 O4 2.317962 1_455
Na2 O7 2.317962 1_555
Na2 O11 2.317962 1_455
Na2 O8 2.317962 1_555
Na2 O37 2.621428 1_455
Na2 O38 2.621428 1_555
Na3 O9 2.317962 1_555
Na3 O6 2.317962 1_555
Na3 O5 2.317962 1_545
Na3 O10 2.317962 1_545
Na3 O36 2.621428 1_555
Na3 O39 2.621428 1_545
O0 Te0 1.887208 1_555
O0 Y0 2.364365 1_565
O1 Te1 1.887208 1_555
O1 Y1 2.364365 1_555
O2 Te2 1.887208 1_555
O2 Y1 2.364365 1_655
O3 Te3 1.887208 1_555
O3 Y0 2.364365 1_555
O4 Te4 1.887208 1_555
O4 Y2 2.364365 1_655
O5 Te5 1.887208 1_555
O5 Y3 2.364365 1_565
O6 Te6 1.887208 1_555
O6 Y3 2.364365 1_555
O7 Te7 1.887208 1_555
O7 Y2 2.364365 1_555
O8 Te8 1.887208 1_555
O8 Y1 2.364365 1_555
O9 Te9 1.887208 1_555
O9 Y0 2.364365 1_555
O10 Te10 1.887208 1_555
O10 Y0 2.364365 1_565
O11 Te11 1.887208 1_555
O11 Y1 2.364365 1_655
O12 Te12 1.887208 1_555
O12 Y3 2.364365 1_555
O13 Te13 1.887208 1_555
O13 Y2 2.364365 1_655
O14 Te14 1.887208 1_555
O14 Y2 2.364365 1_555
O15 Te15 1.887208 1_555
O15 Y3 2.364365 1_565
O16 Te0 1.896100 1_555
O16 Y1 2.413350 1_555
O16 Te8 2.519497 1_555
O17 Te1 1.896100 1_555
O17 Y0 2.413350 1_555
O17 Te9 2.519497 1_555
O18 Te2 1.896100 1_555
O18 Y0 2.413350 1_565
O18 Te10 2.519497 1_555
O19 Te3 1.896100 1_555
O19 Y1 2.413350 1_655
O19 Te11 2.519497 1_555
O20 Te4 1.896100 1_555
O20 Y3 2.413350 1_555
O20 Te12 2.519497 1_555
O21 Te5 1.896100 1_555
O21 Y2 2.413350 1_655
O21 Te13 2.519497 1_555
O22 Te6 1.896100 1_555
O22 Y2 2.413350 1_555
O22 Te14 2.519497 1_555
O23 Te7 1.896100 1_555
O23 Y3 2.413350 1_565
O23 Te15 2.519497 1_555
O24 Te8 1.896100 1_555
O24 Y0 2.413350 1_565
O24 Te0 2.519497 1_555
O25 Te9 1.896100 1_555
O25 Y1 2.413350 1_555
O25 Te1 2.519497 1_555
O26 Te10 1.896100 1_555
O26 Y1 2.413350 1_655
O26 Te2 2.519497 1_555
O27 Te11 1.896100 1_555
O27 Y0 2.413350 1_555
O27 Te3 2.519497 1_555
O28 Te12 1.896100 1_555
O28 Y2 2.413350 1_655
O28 Te4 2.519497 1_555
O29 Te13 1.896100 1_555
O29 Y3 2.413350 1_565
O29 Te5 2.519497 1_555
O30 Te14 1.896100 1_555
O30 Y3 2.413350 1_555
O30 Te6 2.519497 1_555
O31 Te15 1.896100 1_555
O31 Y2 2.413350 1_555
O31 Te7 2.519497 1_555
O32 Te15 1.998487 1_554
O32 Te0 1.998487 1_555
O33 Te14 1.998487 1_554
O33 Te1 1.998487 1_555
O34 Te13 1.998487 1_554
O34 Te2 1.998487 1_555
O35 Te12 1.998487 1_554
O35 Te3 1.998487 1_555
O36 Te11 1.998487 1_555
O36 Te4 1.998487 1_555
O37 Te10 1.998487 1_555
O37 Te5 1.998487 1_555
O38 Te6 1.998487 1_555
O38 Te9 1.998487 1_555
O39 Te7 1.998487 1_555
O39 Te8 1.998487 1_555
