# generated using pymatgen
data_LiErSe2
_symmetry_space_group_name_H-M   'P 1'
_cell_length_a   4.05157700
_cell_length_b   4.05157700
_cell_length_c   5.52568700
_cell_angle_alpha   90.00000000
_cell_angle_beta   90.00000000
_cell_angle_gamma   90.00000000
_symmetry_Int_Tables_number   1
_chemical_formula_structural   LiErSe2
_chemical_formula_sum   'Li1 Er1 Se2'
_cell_volume   90.70567823
_cell_formula_units_Z   1
loop_
 _symmetry_equiv_pos_site_id
 _symmetry_equiv_pos_as_xyz
  1  'x, y, z'
loop_
 _atom_site_type_symbol
 _atom_site_label
 _atom_site_symmetry_multiplicity
 _atom_site_fract_x
 _atom_site_fract_y
 _atom_site_fract_z
 _atom_site_occupancy
  Li  Li0  1  0.00000000  0.00000000  0.00000000  1
  Er  Er0  1  0.50000000  0.50000000  0.50000000  1
  Se  Se0  1  0.00000000  0.00000000  0.50000000  1
  Se  Se1  1  0.50000000  0.50000000  0.00000000  1
loop_
_geom_bond_atom_site_label_1
_geom_bond_atom_site_label_2
_geom_bond_distance
_geom_bond_site_symmetry_2
Li0 Se0 2.762843 1_555
Li0 Se0 2.762843 1_554
Li0 Se1 2.864898 1_445
Li0 Se1 2.864898 1_455
Li0 Se1 2.864898 1_555
Li0 Se1 2.864898 1_545
Er0 Se1 2.762843 1_556
Er0 Se1 2.762843 1_555
Er0 Se0 2.864898 1_655
Er0 Se0 2.864898 1_665
Er0 Se0 2.864898 1_565
Er0 Se0 2.864898 1_555
