# generated using pymatgen
data_Pr2Sb4Ir3
_symmetry_space_group_name_H-M   'P 1'
_cell_length_a   4.60053200
_cell_length_b   11.09165200
_cell_length_c   16.34323400
_cell_angle_alpha   90.00000000
_cell_angle_beta   90.00000000
_cell_angle_gamma   90.00000000
_symmetry_Int_Tables_number   1
_chemical_formula_structural   Pr2Sb4Ir3
_chemical_formula_sum   'Pr8 Sb16 Ir12'
_cell_volume   833.95437226
_cell_formula_units_Z   4
loop_
 _symmetry_equiv_pos_site_id
 _symmetry_equiv_pos_as_xyz
  1  'x, y, z'
loop_
 _atom_site_type_symbol
 _atom_site_label
 _atom_site_symmetry_multiplicity
 _atom_site_fract_x
 _atom_site_fract_y
 _atom_site_fract_z
 _atom_site_occupancy
  Pr  Pr0  1  0.25000000  0.74851200  0.50670600  1
  Pr  Pr1  1  0.25000000  0.75148800  0.00670600  1
  Pr  Pr2  1  0.75000000  0.25148800  0.49329400  1
  Pr  Pr3  1  0.75000000  0.24851200  0.99329400  1
  Pr  Pr4  1  0.25000000  0.58952400  0.75133700  1
  Pr  Pr5  1  0.25000000  0.91047600  0.25133700  1
  Pr  Pr6  1  0.75000000  0.41047600  0.24866300  1
  Pr  Pr7  1  0.75000000  0.08952400  0.74866300  1
  Sb  Sb0  1  0.25000000  0.27557300  0.64967000  1
  Sb  Sb1  1  0.25000000  0.22442700  0.14967000  1
  Sb  Sb2  1  0.75000000  0.72442700  0.35033000  1
  Sb  Sb3  1  0.75000000  0.77557300  0.85033000  1
  Sb  Sb4  1  0.25000000  0.88673900  0.71020500  1
  Sb  Sb5  1  0.25000000  0.61326100  0.21020500  1
  Sb  Sb6  1  0.75000000  0.11326100  0.28979500  1
  Sb  Sb7  1  0.75000000  0.38673900  0.78979500  1
  Sb  Sb8  1  0.25000000  0.06283500  0.89455100  1
  Sb  Sb9  1  0.25000000  0.43716500  0.39455100  1
  Sb  Sb10  1  0.75000000  0.93716500  0.10544900  1
  Sb  Sb11  1  0.75000000  0.56283500  0.60544900  1
  Sb  Sb12  1  0.25000000  0.44764200  0.93151500  1
  Sb  Sb13  1  0.25000000  0.05235800  0.43151500  1
  Sb  Sb14  1  0.75000000  0.55235800  0.06848500  1
  Sb  Sb15  1  0.75000000  0.94764200  0.56848500  1
  Ir  Ir0  1  0.25000000  0.46632100  0.55627000  1
  Ir  Ir1  1  0.25000000  0.03367900  0.05627000  1
  Ir  Ir2  1  0.75000000  0.53367900  0.44373000  1
  Ir  Ir3  1  0.75000000  0.96632100  0.94373000  1
  Ir  Ir4  1  0.25000000  0.05645200  0.59215500  1
  Ir  Ir5  1  0.25000000  0.44354800  0.09215500  1
  Ir  Ir6  1  0.75000000  0.94354800  0.40784500  1
  Ir  Ir7  1  0.75000000  0.55645200  0.90784500  1
  Ir  Ir8  1  0.25000000  0.27742400  0.81763800  1
  Ir  Ir9  1  0.25000000  0.22257600  0.31763800  1
  Ir  Ir10  1  0.75000000  0.72257600  0.18236200  1
  Ir  Ir11  1  0.75000000  0.77742400  0.68236200  1
loop_
_geom_bond_atom_site_label_1
_geom_bond_atom_site_label_2
_geom_bond_distance
_geom_bond_site_symmetry_2
Pr0 Sb15 3.344985 1_455
Pr0 Sb15 3.344985 1_555
Pr0 Sb2 3.448788 1_455
Pr0 Sb2 3.448788 1_555
Pr0 Sb11 3.483806 1_455
Pr0 Sb11 3.483806 1_555
Pr0 Sb13 3.587206 1_565
Pr0 Sb4 3.662206 1_555
Pr0 Sb9 3.909660 1_555
Pr1 Sb14 3.344985 1_455
Pr1 Sb14 3.344985 1_555
Pr1 Sb3 3.448788 1_454
Pr1 Sb3 3.448788 1_554
Pr1 Sb10 3.483806 1_455
Pr1 Sb10 3.483806 1_555
Pr1 Sb12 3.587206 1_554
Pr1 Sb5 3.662206 1_555
Pr1 Sb8 3.909660 1_564
Pr2 Sb13 3.344985 1_555
Pr2 Sb13 3.344985 1_655
Pr2 Sb0 3.448788 1_555
Pr2 Sb0 3.448788 1_655
Pr2 Sb9 3.483806 1_555
Pr2 Sb9 3.483806 1_655
Pr2 Sb15 3.587206 1_545
Pr2 Sb6 3.662206 1_555
Pr2 Sb11 3.909660 1_555
Pr3 Sb12 3.344985 1_655
Pr3 Sb12 3.344985 1_555
Pr3 Sb1 3.448788 1_656
Pr3 Sb1 3.448788 1_556
Pr3 Sb8 3.483806 1_555
Pr3 Sb8 3.483806 1_655
Pr3 Sb14 3.587206 1_556
Pr3 Sb7 3.662206 1_555
Pr3 Sb10 3.909660 1_546
Pr4 Sb7 3.277997 1_455
Pr4 Sb7 3.277997 1_555
Pr4 Sb11 3.326207 1_555
Pr4 Sb11 3.326207 1_455
Pr4 Sb12 3.338826 1_555
Pr4 Sb4 3.364446 1_555
Pr4 Sb3 3.488140 1_555
Pr4 Sb3 3.488140 1_455
Pr4 Sb0 3.858338 1_555
Pr5 Sb6 3.277997 1_465
Pr5 Sb6 3.277997 1_565
Pr5 Sb10 3.326207 1_455
Pr5 Sb10 3.326207 1_555
Pr5 Sb13 3.338826 1_565
Pr5 Sb5 3.364446 1_555
Pr5 Sb2 3.488140 1_455
Pr5 Sb2 3.488140 1_555
Pr5 Sb1 3.858338 1_565
Pr6 Sb5 3.277997 1_655
Pr6 Sb5 3.277997 1_555
Pr6 Sb9 3.326207 1_555
Pr6 Sb9 3.326207 1_655
Pr6 Sb14 3.338826 1_555
Pr6 Sb6 3.364446 1_555
Pr6 Sb1 3.488140 1_555
Pr6 Sb1 3.488140 1_655
Pr6 Sb2 3.858338 1_555
Pr7 Sb4 3.277997 1_545
Pr7 Sb4 3.277997 1_645
Pr7 Sb8 3.326207 1_555
Pr7 Sb8 3.326207 1_655
Pr7 Sb15 3.338826 1_545
Pr7 Sb7 3.364446 1_555
Pr7 Sb0 3.488140 1_555
Pr7 Sb0 3.488140 1_655
Pr7 Sb3 3.858338 1_545
Ir0 Sb0 2.608890 1_555
Ir0 Sb11 2.661428 1_455
Ir0 Sb11 2.661428 1_555
Ir0 Sb9 2.662722 1_555
Ir0 Ir2 3.038471 1_555
Ir0 Ir2 3.038471 1_455
Ir0 Pr0 3.233084 1_555
Ir0 Pr2 3.468217 1_455
Ir0 Pr2 3.468217 1_555
Ir0 Pr4 3.468558 1_555
Ir1 Sb1 2.608890 1_555
Ir1 Sb10 2.661428 1_445
Ir1 Sb10 2.661428 1_545
Ir1 Sb8 2.662722 1_554
Ir1 Ir3 3.038471 1_544
Ir1 Ir3 3.038471 1_444
Ir1 Pr1 3.233084 1_545
Ir1 Pr3 3.468217 1_554
Ir1 Pr3 3.468217 1_454
Ir1 Pr5 3.468558 1_545
Ir2 Sb2 2.608890 1_555
Ir2 Sb9 2.661428 1_655
Ir2 Sb9 2.661428 1_555
Ir2 Sb11 2.662722 1_555
Ir2 Pr2 3.233084 1_555
Ir2 Pr0 3.468217 1_655
Ir2 Pr0 3.468217 1_555
Ir2 Pr6 3.468558 1_555
Ir3 Sb3 2.608890 1_555
Ir3 Sb8 2.661428 1_565
Ir3 Sb8 2.661428 1_665
Ir3 Sb10 2.662722 1_556
Ir3 Pr3 3.233084 1_565
Ir3 Pr1 3.468217 1_556
Ir3 Pr1 3.468217 1_656
Ir3 Pr7 3.468558 1_565
Ir4 Sb0 2.605854 1_555
Ir4 Sb13 2.625770 1_555
Ir4 Sb15 2.626297 1_545
Ir4 Sb15 2.626297 1_445
Ir4 Sb4 2.695495 1_545
Ir4 Pr7 3.459532 1_555
Ir4 Pr7 3.459532 1_455
Ir4 Pr2 3.547038 1_455
Ir4 Pr2 3.547038 1_555
Ir4 Pr0 3.690030 1_545
Ir5 Sb1 2.605854 1_555
Ir5 Sb12 2.625770 1_554
Ir5 Sb14 2.626297 1_455
Ir5 Sb14 2.626297 1_555
Ir5 Sb5 2.695495 1_555
Ir5 Pr6 3.459532 1_555
Ir5 Pr6 3.459532 1_455
Ir5 Pr3 3.547038 1_454
Ir5 Pr3 3.547038 1_554
Ir5 Pr1 3.690030 1_555
Ir6 Sb2 2.605854 1_555
Ir6 Sb15 2.625770 1_555
Ir6 Sb13 2.626297 1_565
Ir6 Sb13 2.626297 1_665
Ir6 Sb6 2.695495 1_565
Ir6 Pr5 3.459532 1_555
Ir6 Pr5 3.459532 1_655
Ir6 Pr0 3.547038 1_555
Ir6 Pr0 3.547038 1_655
Ir6 Pr2 3.690030 1_565
Ir7 Sb3 2.605854 1_555
Ir7 Sb14 2.625770 1_556
Ir7 Sb12 2.626297 1_555
Ir7 Sb12 2.626297 1_655
Ir7 Sb7 2.695495 1_555
Ir7 Pr4 3.459532 1_555
Ir7 Pr4 3.459532 1_655
Ir7 Pr1 3.547038 1_556
Ir7 Pr1 3.547038 1_656
Ir7 Pr3 3.690030 1_555
Ir8 Sb7 2.639774 1_455
Ir8 Sb7 2.639774 1_555
Ir8 Sb12 2.651094 1_555
Ir8 Sb8 2.691684 1_555
Ir8 Sb0 2.745217 1_555
Ir8 Pr7 3.302353 1_555
Ir8 Pr7 3.302353 1_455
Ir8 Pr4 3.627331 1_555
Ir8 Pr3 3.692625 1_455
Ir8 Pr3 3.692625 1_555
Ir9 Sb6 2.639774 1_455
Ir9 Sb6 2.639774 1_555
Ir9 Sb13 2.651094 1_555
Ir9 Sb9 2.691684 1_555
Ir9 Sb1 2.745217 1_555
Ir9 Pr6 3.302353 1_455
Ir9 Pr6 3.302353 1_555
Ir9 Pr5 3.627331 1_545
Ir9 Pr2 3.692625 1_455
Ir9 Pr2 3.692625 1_555
Ir10 Sb5 2.639774 1_555
Ir10 Sb5 2.639774 1_655
Ir10 Sb14 2.651094 1_555
Ir10 Sb10 2.691684 1_555
Ir10 Sb2 2.745217 1_555
Ir10 Pr5 3.302353 1_655
Ir10 Pr5 3.302353 1_555
Ir10 Pr6 3.627331 1_555
Ir10 Pr1 3.692625 1_655
Ir10 Pr1 3.692625 1_555
Ir11 Sb4 2.639774 1_655
Ir11 Sb4 2.639774 1_555
Ir11 Sb15 2.651094 1_555
Ir11 Sb11 2.691684 1_555
Ir11 Sb3 2.745217 1_555
Ir11 Pr4 3.302353 1_555
Ir11 Pr4 3.302353 1_655
Ir11 Pr7 3.627331 1_565
Ir11 Pr0 3.692625 1_555
Ir11 Pr0 3.692625 1_655
