# generated using pymatgen
data_NaCoO2
_symmetry_space_group_name_H-M   'P 1'
_cell_length_a   2.84700259
_cell_length_b   6.33607649
_cell_length_c   9.42767710
_cell_angle_alpha   90.01211375
_cell_angle_beta   89.98914686
_cell_angle_gamma   90.07531066
_symmetry_Int_Tables_number   1
_chemical_formula_structural   NaCoO2
_chemical_formula_sum   'Na4 Co4 O8'
_cell_volume   170.06407464
_cell_formula_units_Z   4
loop_
 _symmetry_equiv_pos_site_id
 _symmetry_equiv_pos_as_xyz
  1  'x, y, z'
loop_
 _atom_site_type_symbol
 _atom_site_label
 _atom_site_symmetry_multiplicity
 _atom_site_fract_x
 _atom_site_fract_y
 _atom_site_fract_z
 _atom_site_occupancy
  Na  Na0  1  0.24971600  0.12486300  0.12389500  1
  Na  Na1  1  0.25057500  0.12303600  0.62328800  1
  Na  Na2  1  0.75022400  0.87831100  0.37434100  1
  Na  Na3  1  0.74928700  0.87358000  0.87391800  1
  Co  Co0  1  0.25052700  0.62154900  0.62218300  1
  Co  Co1  1  0.74935800  0.37784000  0.86991100  1
  Co  Co2  1  0.24996000  0.62046000  0.12747900  1
  Co  Co3  1  0.75021000  0.37981100  0.37501900  1
  O  O0  1  0.25048800  0.58260800  0.38027400  1
  O  O1  1  0.24947000  0.57948900  0.87479500  1
  O  O2  1  0.75000300  0.41973700  0.13378000  1
  O  O3  1  0.74986700  0.41877500  0.62591500  1
  O  O4  1  0.24989300  0.17851700  0.37363200  1
  O  O5  1  0.24929200  0.17737200  0.87414100  1
  O  O6  1  0.74964500  0.82172600  0.12350300  1
  O  O7  1  0.75148400  0.82232500  0.62392300  1
loop_
_geom_bond_atom_site_label_1
_geom_bond_atom_site_label_2
_geom_bond_distance
_geom_bond_site_symmetry_2
Na0 O2 2.349693 1_555
Na0 O2 2.351657 1_455
Na0 O5 2.378059 1_554
Na0 O4 2.378785 1_555
Na0 O6 2.389318 1_445
Na0 O6 2.392083 1_545
Na1 O3 2.350627 1_555
Na1 O3 2.356039 1_455
Na1 O7 2.375329 1_445
Na1 O4 2.379858 1_555
Na1 O7 2.381426 1_545
Na1 O5 2.389819 1_555
Na2 O0 2.351748 1_555
Na2 O0 2.355648 1_655
Na2 O4 2.373752 1_665
Na2 O4 2.377879 1_565
Na2 O7 2.379646 1_555
Na2 O6 2.391769 1_555
Na3 O1 2.343111 1_555
Na3 O1 2.346719 1_655
Na3 O6 2.375903 1_556
Na3 O7 2.379081 1_555
Na3 O5 2.392539 1_665
Na3 O5 2.395530 1_565
Co0 O7 1.908384 1_455
Co0 O7 1.909958 1_555
Co0 O3 1.917753 1_555
Co0 O3 1.918026 1_455
Co0 O0 2.293896 1_555
Co0 O1 2.396465 1_555
Co1 O5 1.907115 1_555
Co1 O5 1.909336 1_655
Co1 O1 1.912335 1_655
Co1 O1 1.914347 1_555
Co1 O3 2.314946 1_555
Co1 O2 2.501741 1_556
Co2 O2 1.908466 1_455
Co2 O6 1.909625 1_555
Co2 O2 1.911157 1_555
Co2 O6 1.913468 1_455
Co2 O0 2.395358 1_555
Co2 O1 2.396272 1_554
Co3 O4 1.910760 1_555
Co3 O4 1.911909 1_655
Co3 O0 1.917633 1_655
Co3 O0 1.918951 1_555
Co3 O2 2.288403 1_555
Co3 O3 2.378163 1_555
