# generated using pymatgen
data_Co21(GeB3)2
_symmetry_space_group_name_H-M   'P 1'
_cell_length_a   7.34048890
_cell_length_b   7.34048431
_cell_length_c   7.34046471
_cell_angle_alpha   59.99968380
_cell_angle_beta   59.99974004
_cell_angle_gamma   59.99936170
_symmetry_Int_Tables_number   1
_chemical_formula_structural   Co21(GeB3)2
_chemical_formula_sum   'Co21 Ge2 B6'
_cell_volume   279.67540248
_cell_formula_units_Z   1
loop_
 _symmetry_equiv_pos_site_id
 _symmetry_equiv_pos_as_xyz
  1  'x, y, z'
loop_
 _atom_site_type_symbol
 _atom_site_label
 _atom_site_symmetry_multiplicity
 _atom_site_fract_x
 _atom_site_fract_y
 _atom_site_fract_z
 _atom_site_occupancy
  Co  Co0  1  -0.00000057  0.00000458  -0.00000178  1
  Co  Co1  1  0.61976070  0.61974591  0.14073526  1
  Co  Co2  1  0.61975300  0.14073726  0.61975260  1
  Co  Co3  1  0.14073532  0.61974939  0.61975818  1
  Co  Co4  1  0.61975636  0.61975302  0.61975752  1
  Co  Co5  1  0.38024364  0.38024324  0.85925882  1
  Co  Co6  1  0.38024244  0.85926058  0.38024799  1
  Co  Co7  1  0.85926033  0.38024234  0.38024279  1
  Co  Co8  1  0.38024972  0.38024219  0.38025140  1
  Co  Co9  1  -0.00000376  0.00000388  0.33943279  1
  Co  Co10  1  0.66057432  0.00000607  0.33943093  1
  Co  Co11  1  0.00000395  0.66056831  0.33943221  1
  Co  Co12  1  0.66057378  0.33943269  0.00000097  1
  Co  Co13  1  -0.00000170  0.33943182  0.00000056  1
  Co  Co14  1  0.00000217  0.33943181  0.66057283  1
  Co  Co15  1  0.33942878  0.66056833  0.00000477  1
  Co  Co16  1  0.33942697  0.00000855  0.66057151  1
  Co  Co17  1  0.33942782  0.00000795  -0.00000391  1
  Co  Co18  1  0.99999217  -0.00000141  0.66057262  1
  Co  Co19  1  -0.00000386  0.66056952  -0.00000309  1
  Co  Co20  1  0.66057513  -0.00000009  0.99998822  1
  Ge  Ge0  1  0.75000586  0.74999985  0.75000097  1
  Ge  Ge1  1  0.24999653  0.25000647  0.24999869  1
  B  B0  1  0.72125587  0.72124821  0.27874581  1
  B  B1  1  0.27874659  0.72124681  0.27875122  1
  B  B2  1  0.72125111  0.27874948  0.27874824  1
  B  B3  1  0.27875082  0.27874872  0.72124894  1
  B  B4  1  0.72125061  0.27874491  0.72125252  1
  B  B5  1  0.27874488  0.72125164  0.72125341  1
loop_
_geom_bond_atom_site_label_1
_geom_bond_atom_site_label_2
_geom_bond_distance
_geom_bond_site_symmetry_2
Co0 Co12 2.491534 1_455
Co0 Co14 2.491538 1_554
Co0 Co16 2.491547 1_554
Co0 Co10 2.491560 1_455
Co0 Co13 2.491565 1_555
Co0 Co17 2.491575 1_555
Co0 Co15 2.491578 1_545
Co0 Co18 2.491590 1_454
Co0 Co9 2.491593 1_555
Co0 Co20 2.491594 1_454
Co0 Co11 2.491603 1_545
Co0 Co19 2.491635 1_545
Co1 Ge0 2.341846 1_554
Co2 Ge0 2.341862 1_545
Co3 Ge0 2.341817 1_455
Co4 Ge0 2.341897 1_555
Co5 Ge1 2.341879 1_556
Co6 Ge1 2.341912 1_565
Co7 Ge1 2.341857 1_655
Co8 Ge1 2.341908 1_555
B0 Co7 2.049644 1_555
B0 Co1 2.049678 1_555
B0 Co4 2.049688 1_555
B0 Co6 2.049694 1_555
B0 Co19 2.094033 1_655
B0 Co11 2.094092 1_655
B0 Co20 2.094104 1_564
B0 Co10 2.094151 1_565
B1 Co8 2.049638 1_555
B1 Co3 2.049657 1_555
B1 Co6 2.049671 1_555
B1 Co1 2.049701 1_555
B1 Co11 2.094021 1_555
B1 Co15 2.094036 1_555
B1 Co9 2.094095 1_565
B1 Co17 2.094136 1_565
B2 Co1 2.049594 1_555
B2 Co7 2.049612 1_555
B2 Co8 2.049624 1_555
B2 Co2 2.049642 1_555
B2 Co10 2.094013 1_555
B2 Co12 2.094033 1_555
B2 Co9 2.094034 1_655
B2 Co13 2.094058 1_655
B3 Co8 2.049600 1_555
B3 Co5 2.049615 1_555
B3 Co3 2.049619 1_555
B3 Co2 2.049628 1_555
B3 Co16 2.094006 1_555
B3 Co17 2.094022 1_556
B3 Co14 2.094042 1_555
B3 Co13 2.094086 1_556
B4 Co5 2.049655 1_555
B4 Co2 2.049661 1_555
B4 Co4 2.049667 1_555
B4 Co7 2.049673 1_555
B4 Co20 2.094002 1_555
B4 Co18 2.094021 1_555
B4 Co12 2.094106 1_556
B4 Co14 2.094126 1_655
B5 Co6 2.049647 1_555
B5 Co5 2.049660 1_555
B5 Co3 2.049673 1_555
B5 Co4 2.049688 1_555
B5 Co19 2.094052 1_556
B5 Co18 2.094065 1_465
B5 Co15 2.094091 1_556
B5 Co16 2.094136 1_565
