# generated using pymatgen
data_HgSb2Xe5F22
_symmetry_space_group_name_H-M   'P 1'
_cell_length_a   17.17892300
_cell_length_b   9.08521000
_cell_length_c   16.92306298
_cell_angle_alpha   77.96868600
_cell_angle_beta   90.00000000
_cell_angle_gamma   90.00000000
_symmetry_Int_Tables_number   1
_chemical_formula_structural   HgSb2Xe5F22
_chemical_formula_sum   'Hg4 Sb8 Xe20 F88'
_cell_volume   2583.23400256
_cell_formula_units_Z   4
loop_
 _symmetry_equiv_pos_site_id
 _symmetry_equiv_pos_as_xyz
  1  'x, y, z'
loop_
 _atom_site_type_symbol
 _atom_site_label
 _atom_site_symmetry_multiplicity
 _atom_site_fract_x
 _atom_site_fract_y
 _atom_site_fract_z
 _atom_site_occupancy
  Hg  Hg0  1  0.12154400  0.26245300  0.25329100  1
  Hg  Hg1  1  0.62154400  0.73754700  0.24670900  1
  Hg  Hg2  1  0.87845600  0.73754700  0.74670900  1
  Hg  Hg3  1  0.37845600  0.26245300  0.75329100  1
  Sb  Sb0  1  0.23615900  0.48962400  0.02583300  1
  Sb  Sb1  1  0.73615900  0.51037600  0.47416700  1
  Sb  Sb2  1  0.76384100  0.51037600  0.97416700  1
  Sb  Sb3  1  0.26384100  0.48962400  0.52583300  1
  Sb  Sb4  1  0.89423100  0.02186000  0.29669200  1
  Sb  Sb5  1  0.39423100  0.97814000  0.20330800  1
  Sb  Sb6  1  0.10576900  0.97814000  0.70330800  1
  Sb  Sb7  1  0.60576900  0.02186000  0.79669200  1
  Xe  Xe0  1  0.35252300  0.41813200  0.26705900  1
  Xe  Xe1  1  0.85252300  0.58186800  0.23294100  1
  Xe  Xe2  1  0.64747700  0.58186800  0.73294100  1
  Xe  Xe3  1  0.14747700  0.41813200  0.76705900  1
  Xe  Xe4  1  0.02227200  0.23397500  0.03943700  1
  Xe  Xe5  1  0.52227200  0.76602500  0.46056300  1
  Xe  Xe6  1  0.97772800  0.76602500  0.96056300  1
  Xe  Xe7  1  0.47772800  0.23397500  0.53943700  1
  Xe  Xe8  1  0.25211300  0.99470900  0.43580300  1
  Xe  Xe9  1  0.75211300  0.00529100  0.06419700  1
  Xe  Xe10  1  0.74788700  0.00529100  0.56419700  1
  Xe  Xe11  1  0.24788700  0.99470900  0.93580300  1
  Xe  Xe12  1  0.99981300  0.28485100  0.46485900  1
  Xe  Xe13  1  0.49981300  0.71514900  0.03514100  1
  Xe  Xe14  1  0.00018700  0.71514900  0.53514100  1
  Xe  Xe15  1  0.50018700  0.28485100  0.96485900  1
  Xe  Xe16  1  0.12920800  0.79745300  0.21590400  1
  Xe  Xe17  1  0.62920800  0.20254700  0.28409600  1
  Xe  Xe18  1  0.87079200  0.20254700  0.78409600  1
  Xe  Xe19  1  0.37079200  0.79745300  0.71590400  1
  F  F0  1  0.24238400  0.32105700  0.30541400  1
  F  F1  1  0.74238400  0.67894300  0.19458600  1
  F  F2  1  0.75761600  0.67894300  0.69458600  1
  F  F3  1  0.25761600  0.32105700  0.80541400  1
  F  F4  1  0.11646400  0.03341700  0.19203900  1
  F  F5  1  0.61646400  0.96658300  0.30796100  1
  F  F6  1  0.88353600  0.96658300  0.80796100  1
  F  F7  1  0.38353600  0.03341700  0.69203900  1
  F  F8  1  0.08941200  0.33397200  0.37596900  1
  F  F9  1  0.58941200  0.66602800  0.12403100  1
  F  F10  1  0.91058800  0.66602800  0.62403100  1
  F  F11  1  0.41058800  0.33397200  0.87596900  1
  F  F12  1  0.01280600  0.16490500  0.93268100  1
  F  F13  1  0.51280600  0.83509500  0.56731900  1
  F  F14  1  0.98719400  0.83509500  0.06731900  1
  F  F15  1  0.48719400  0.16490500  0.43268100  1
  F  F16  1  0.34384500  0.94792100  0.51403400  1
  F  F17  1  0.84384500  0.05207900  0.98596600  1
  F  F18  1  0.65615500  0.05207900  0.48596600  1
  F  F19  1  0.15615500  0.94792100  0.01403400  1
  F  F20  1  0.99284300  0.12411500  0.30530500  1
  F  F21  1  0.49284300  0.87588500  0.19469500  1
  F  F22  1  0.00715700  0.87588500  0.69469500  1
  F  F23  1  0.50715700  0.12411500  0.80530500  1
  F  F24  1  0.26030600  0.60952300  0.92209700  1
  F  F25  1  0.76030600  0.39047700  0.57790300  1
  F  F26  1  0.73969400  0.39047700  0.07790300  1
  F  F27  1  0.23969400  0.60952300  0.42209700  1
  F  F28  1  0.46035100  0.50326200  0.23346900  1
  F  F29  1  0.96035100  0.49673800  0.26653100  1
  F  F30  1  0.53964900  0.49673800  0.76653100  1
  F  F31  1  0.03964900  0.50326200  0.73346900  1
  F  F32  1  0.20518600  0.32627000  0.97664300  1
  F  F33  1  0.70518600  0.67373000  0.52335700  1
  F  F34  1  0.79481400  0.67373000  0.02335700  1
  F  F35  1  0.29481400  0.32627000  0.47664300  1
  F  F36  1  0.91527400  0.24333500  0.55084900  1
  F  F37  1  0.41527400  0.75666500  0.94915100  1
  F  F38  1  0.08472600  0.75666500  0.44915100  1
  F  F39  1  0.58472600  0.24333500  0.05084900  1
  F  F40  1  0.03332200  0.31810700  0.14876500  1
  F  F41  1  0.53332200  0.68189300  0.35123500  1
  F  F42  1  0.96667800  0.68189300  0.85123500  1
  F  F43  1  0.46667800  0.31810700  0.64876500  1
  F  F44  1  0.79740700  0.92276500  0.28713700  1
  F  F45  1  0.29740700  0.07723500  0.21286300  1
  F  F46  1  0.20259300  0.07723500  0.71286300  1
  F  F47  1  0.70259300  0.92276500  0.78713700  1
  F  F48  1  0.87907700  0.01116100  0.41010100  1
  F  F49  1  0.37907700  0.98883900  0.08989900  1
  F  F50  1  0.12092300  0.98883900  0.58989900  1
  F  F51  1  0.62092300  0.01116100  0.91010100  1
  F  F52  1  0.15803400  0.04355500  0.35279300  1
  F  F53  1  0.65803400  0.95644500  0.14720700  1
  F  F54  1  0.84196600  0.95644500  0.64720700  1
  F  F55  1  0.34196600  0.04355500  0.85279300  1
  F  F56  1  0.14097200  0.56656200  0.23504000  1
  F  F57  1  0.64097200  0.43343800  0.26496000  1
  F  F58  1  0.85902800  0.43343800  0.76496000  1
  F  F59  1  0.35902800  0.56656200  0.73504000  1
  F  F60  1  0.20722600  0.36297500  0.13039900  1
  F  F61  1  0.70722600  0.63702500  0.36960100  1
  F  F62  1  0.79277400  0.63702500  0.86960100  1
  F  F63  1  0.29277400  0.36297500  0.63039900  1
  F  F64  1  0.94767600  0.83243500  0.32081200  1
  F  F65  1  0.44767600  0.16756500  0.17918800  1
  F  F66  1  0.05232400  0.16756500  0.67918800  1
  F  F67  1  0.55232400  0.83243500  0.82081200  1
  F  F68  1  0.91384800  0.03317500  0.18397400  1
  F  F69  1  0.41384800  0.96682500  0.31602600  1
  F  F70  1  0.08615200  0.96682500  0.81602600  1
  F  F71  1  0.58615200  0.03317500  0.68397400  1
  F  F72  1  0.33987000  0.41127500  0.04155800  1
  F  F73  1  0.83987000  0.58872500  0.45844200  1
  F  F74  1  0.66013000  0.58872500  0.95844200  1
  F  F75  1  0.16013000  0.41127500  0.54155800  1
  F  F76  1  0.13104600  0.56265600  0.01593300  1
  F  F77  1  0.63104600  0.43734400  0.48406700  1
  F  F78  1  0.86895400  0.43734400  0.98406700  1
  F  F79  1  0.36895400  0.56265600  0.51593300  1
  F  F80  1  0.84247300  0.21240600  0.27272400  1
  F  F81  1  0.34247300  0.78759400  0.22727600  1
  F  F82  1  0.15752700  0.78759400  0.72727600  1
  F  F83  1  0.65752700  0.21240600  0.77272400  1
  F  F84  1  0.26475700  0.64775400  0.07906700  1
  F  F85  1  0.76475700  0.35224600  0.42093300  1
  F  F86  1  0.73524300  0.35224600  0.92093300  1
  F  F87  1  0.23524300  0.64775400  0.57906700  1
loop_
_geom_bond_atom_site_label_1
_geom_bond_atom_site_label_2
_geom_bond_distance
_geom_bond_site_symmetry_2
F0 Xe0 2.130825 1_555
F0 Hg0 2.359387 1_555
F1 Xe1 2.130825 1_555
F1 Hg1 2.359387 1_555
F2 Xe2 2.130825 1_555
F2 Hg2 2.359387 1_555
F3 Xe3 2.130825 1_555
F3 Hg3 2.359387 1_555
F4 Xe16 2.108529 1_545
F4 Hg0 2.512211 1_555
F5 Xe17 2.108529 1_565
F5 Hg1 2.512211 1_555
F6 Xe18 2.108529 1_565
F6 Hg2 2.512211 1_555
F7 Xe19 2.108529 1_545
F7 Hg3 2.512211 1_555
F8 Xe12 2.133392 1_455
F8 Hg0 2.366306 1_555
F9 Xe13 2.133392 1_555
F9 Hg1 2.366306 1_555
F10 Xe14 2.133392 1_655
F10 Hg2 2.366306 1_555
F11 Xe15 2.133392 1_555
F11 Hg3 2.366306 1_555
F12 Xe4 2.038821 1_556
F13 Xe5 2.038821 1_555
F14 Xe6 2.038821 1_554
F15 Xe7 2.038821 1_555
F16 Xe8 2.045027 1_555
F17 Xe9 2.045027 1_556
F18 Xe10 2.045027 1_555
F19 Xe11 2.045027 1_554
F20 Sb4 1.952063 1_555
F20 Hg0 2.604132 1_655
F21 Sb5 1.952063 1_555
F21 Hg1 2.604132 1_555
F22 Sb6 1.952063 1_555
F22 Hg2 2.604132 1_455
F23 Sb7 1.952063 1_555
F23 Hg3 2.604132 1_555
F24 Sb0 1.908750 1_556
F25 Sb1 1.908750 1_555
F26 Sb2 1.908750 1_554
F27 Sb3 1.908750 1_555
F28 Xe0 2.041886 1_555
F29 Xe1 2.041886 1_555
F30 Xe2 2.041886 1_555
F31 Xe3 2.041886 1_555
F32 Sb0 1.921898 1_556
F33 Sb1 1.921898 1_555
F34 Sb2 1.921898 1_554
F35 Sb3 1.921898 1_555
F36 Xe12 2.034756 1_555
F37 Xe13 2.034756 1_556
F38 Xe14 2.034756 1_555
F39 Xe15 2.034756 1_554
F40 Xe4 2.152429 1_555
F40 Hg0 2.304065 1_555
F41 Xe5 2.152429 1_555
F41 Hg1 2.304065 1_555
F42 Xe6 2.152429 1_555
F42 Hg2 2.304065 1_555
F43 Xe7 2.152429 1_555
F43 Hg3 2.304065 1_555
F44 Sb4 1.914171 1_565
F45 Sb5 1.914171 1_545
F46 Sb6 1.914171 1_545
F47 Sb7 1.914171 1_565
F48 Sb4 1.919084 1_555
F49 Sb5 1.919084 1_555
F50 Sb6 1.919084 1_555
F51 Sb7 1.919084 1_555
F52 Xe8 2.126613 1_545
F52 Hg0 2.405697 1_555
F53 Xe9 2.126613 1_565
F53 Hg1 2.405697 1_555
F54 Xe10 2.126613 1_565
F54 Hg2 2.405697 1_555
F55 Xe11 2.126613 1_545
F55 Hg3 2.405697 1_555
F56 Xe16 2.064662 1_555
F57 Xe17 2.064662 1_555
F58 Xe18 2.064662 1_555
F59 Xe19 2.064662 1_555
F60 Sb0 1.963048 1_555
F60 Hg0 2.556167 1_555
F61 Sb1 1.963048 1_555
F61 Hg1 2.556167 1_555
F62 Sb2 1.963048 1_555
F62 Hg2 2.556167 1_555
F63 Sb3 1.963048 1_555
F63 Hg3 2.556167 1_555
F64 Sb4 1.917926 1_565
F65 Sb5 1.917926 1_545
F66 Sb6 1.917926 1_545
F67 Sb7 1.917926 1_565
F68 Sb4 1.918612 1_555
F69 Sb5 1.918612 1_555
F70 Sb6 1.918612 1_555
F71 Sb7 1.918612 1_555
F72 Sb0 1.916451 1_555
F73 Sb1 1.916451 1_555
F74 Sb2 1.916451 1_555
F75 Sb3 1.916451 1_555
F76 Sb0 1.919017 1_555
F77 Sb1 1.919017 1_555
F78 Sb2 1.919017 1_555
F79 Sb3 1.919017 1_555
F80 Sb4 1.912917 1_555
F81 Sb5 1.912917 1_555
F82 Sb6 1.912917 1_555
F83 Sb7 1.912917 1_555
F84 Sb0 1.912186 1_555
F85 Sb1 1.912186 1_555
F86 Sb2 1.912186 1_555
F87 Sb3 1.912186 1_555
