# generated using pymatgen
data_Li9Mn2Co5O16
_symmetry_space_group_name_H-M   'P 1'
_cell_length_a   5.16691900
_cell_length_b   7.66225506
_cell_length_c   7.74419868
_cell_angle_alpha   94.13327807
_cell_angle_beta   108.73643619
_cell_angle_gamma   96.65878041
_symmetry_Int_Tables_number   1
_chemical_formula_structural   Li9Mn2Co5O16
_chemical_formula_sum   'Li9 Mn2 Co5 O16'
_cell_volume   286.43411527
_cell_formula_units_Z   1
loop_
 _symmetry_equiv_pos_site_id
 _symmetry_equiv_pos_as_xyz
  1  'x, y, z'
loop_
 _atom_site_type_symbol
 _atom_site_label
 _atom_site_symmetry_multiplicity
 _atom_site_fract_x
 _atom_site_fract_y
 _atom_site_fract_z
 _atom_site_occupancy
  Li  Li0  1  0.56691300  0.18891900  0.06597700  1
  Li  Li1  1  0.92951400  0.31457900  0.43605400  1
  Li  Li2  1  0.31351400  0.44067300  0.81295100  1
  Li  Li3  1  0.69147800  0.56613900  0.19136700  1
  Li  Li4  1  0.06201300  0.68853500  0.56099000  1
  Li  Li5  1  0.43550400  0.80979400  0.92792000  1
  Li  Li6  1  0.81725900  0.93356500  0.32435900  1
  Li  Li7  1  0.17696700  0.05518400  0.67700000  1
  Li  Li8  1  0.62675400  0.87422000  0.62092600  1
  Mn  Mn0  1  0.99257300  0.00026000  0.99800800  1
  Mn  Mn1  1  0.75450700  0.24360000  0.74456500  1
  Co  Co0  1  0.38249200  0.12197500  0.37816700  1
  Co  Co1  1  0.12277800  0.38072900  0.13001300  1
  Co  Co2  1  0.50531000  0.50976500  0.50592100  1
  Co  Co3  1  0.86823400  0.62924500  0.86935400  1
  Co  Co4  1  0.25951500  0.75503500  0.25895100  1
  O  O0  1  0.12587100  0.21070300  0.90359100  1
  O  O1  1  0.50584900  0.33666600  0.29432800  1
  O  O2  1  0.89388700  0.45935600  0.66258500  1
  O  O3  1  0.26281200  0.58777100  0.04264000  1
  O  O4  1  0.63694800  0.71292300  0.39778000  1
  O  O5  1  0.03081100  0.84095800  0.80325600  1
  O  O6  1  0.36931100  0.97975600  0.15430100  1
  O  O7  1  0.78590800  0.10399600  0.54362800  1
  O  O8  1  0.97143200  0.15937800  0.19962000  1
  O  O9  1  0.38497100  0.26583800  0.59693300  1
  O  O10  1  0.73310900  0.40624200  0.95547200  1
  O  O11  1  0.10926700  0.53148600  0.34779400  1
  O  O12  1  0.47707500  0.64386900  0.71287300  1
  O  O13  1  0.84992900  0.79456900  0.08390300  1
  O  O14  1  0.22660900  0.91348300  0.45107000  1
  O  O15  1  0.63088300  0.04078300  0.84769900  1
loop_
_geom_bond_atom_site_label_1
_geom_bond_atom_site_label_2
_geom_bond_distance
_geom_bond_site_symmetry_2
Li0 O8 2.060280 1_555
Li0 O6 2.075089 1_545
Li0 O15 2.103419 1_554
Li0 O10 2.142077 1_554
Li0 O1 2.158948 1_555
Li0 O0 2.253837 1_554
Li1 O7 2.039931 1_555
Li1 O11 2.074999 1_655
Li1 O2 2.077579 1_555
Li1 O1 2.143447 1_555
Li1 O8 2.194136 1_555
Li1 O9 2.370039 1_655
Li2 O12 2.007114 1_555
Li2 O2 2.133423 1_455
Li2 O3 2.140515 1_556
Li2 O10 2.150682 1_555
Li2 O0 2.181049 1_555
Li2 O9 2.217639 1_555
Li3 O4 2.000801 1_555
Li3 O11 2.167307 1_655
Li3 O3 2.175672 1_555
Li3 O13 2.177557 1_555
Li3 O10 2.208054 1_554
Li3 O1 2.224759 1_555
Li4 O11 2.067433 1_555
Li4 O12 2.169700 1_555
Li4 O2 2.177554 1_455
Li4 O14 2.180677 1_555
Li4 O4 2.191335 1_455
Li4 O5 2.198197 1_555
Li5 O5 2.052694 1_555
Li5 O12 2.103297 1_555
Li5 O13 2.115296 1_556
Li5 O15 2.164401 1_565
Li5 O3 2.203322 1_556
Li5 O6 2.246289 1_556
Li6 O4 2.040356 1_555
Li6 O14 2.055244 1_655
Li6 O7 2.126289 1_565
Li6 O13 2.141979 1_555
Li6 O8 2.230944 1_565
Li6 O6 2.348526 1_555
Li7 O7 2.044407 1_455
Li7 O9 2.077230 1_555
Li7 O14 2.094028 1_545
Li7 O0 2.153608 1_555
Li7 O5 2.153810 1_545
Li7 O15 2.312918 1_555
Li8 O7 2.065598 1_565
Li8 O4 2.069348 1_555
Li8 O15 2.088046 1_565
Li8 O12 2.106841 1_555
Li8 O14 2.132965 1_555
Li8 O5 2.167667 1_655
Mn0 O13 1.914769 1_546
Mn0 O15 1.932101 1_555
Mn0 O5 1.945655 1_645
Mn0 O8 1.949914 1_556
Mn0 O0 1.960861 1_655
Mn0 O6 1.965590 1_646
Mn1 O7 1.885331 1_555
Mn1 O9 1.919101 1_555
Mn1 O15 1.933236 1_555
Mn1 O2 1.955405 1_555
Mn1 O0 1.975053 1_655
Mn1 O10 2.021753 1_555
Co0 O14 1.908738 1_545
Co0 O1 1.926275 1_555
Co0 O9 1.949113 1_555
Co0 O6 1.957629 1_545
Co0 O7 2.093285 1_555
Co0 O8 2.194686 1_455
Co1 O3 1.923824 1_555
Co1 O8 1.968167 1_455
Co1 O11 1.999284 1_555
Co1 O1 2.061478 1_555
Co1 O10 2.073646 1_454
Co1 O0 2.113206 1_554
Co2 O12 1.895593 1_555
Co2 O4 1.973687 1_555
Co2 O1 2.033401 1_555
Co2 O11 2.052613 1_555
Co2 O2 2.081992 1_555
Co2 O9 2.139761 1_555
Co3 O5 1.918097 1_655
Co3 O10 2.009638 1_555
Co3 O12 2.016064 1_555
Co3 O2 2.037646 1_555
Co3 O13 2.049284 1_556
Co3 O3 2.124251 1_656
Co4 O14 1.914795 1_555
Co4 O4 1.977910 1_555
Co4 O3 2.040317 1_555
Co4 O6 2.052671 1_555
Co4 O11 2.052965 1_555
Co4 O13 2.184711 1_455
