# generated using pymatgen
data_SrGe3
_symmetry_space_group_name_H-M   'P 1'
_cell_length_a   8.22501468
_cell_length_b   8.22501468
_cell_length_c   8.22501468
_cell_angle_alpha   123.28384848
_cell_angle_beta   123.28384848
_cell_angle_gamma   84.40049113
_symmetry_Int_Tables_number   1
_chemical_formula_structural   SrGe3
_chemical_formula_sum   'Sr4 Ge12'
_cell_volume   371.98330402
_cell_formula_units_Z   4
loop_
 _symmetry_equiv_pos_site_id
 _symmetry_equiv_pos_as_xyz
  1  'x, y, z'
loop_
 _atom_site_type_symbol
 _atom_site_label
 _atom_site_symmetry_multiplicity
 _atom_site_fract_x
 _atom_site_fract_y
 _atom_site_fract_z
 _atom_site_occupancy
  Sr  Sr0  1  0.17050800  0.17050800  0.00000000  1
  Sr  Sr1  1  0.82949200  0.82949200  0.00000000  1
  Sr  Sr2  1  0.75000000  0.25000000  0.50000000  1
  Sr  Sr3  1  0.25000000  0.75000000  0.50000000  1
  Ge  Ge0  1  0.00000000  0.33694700  0.33694700  1
  Ge  Ge1  1  0.00000000  0.66305300  0.66305300  1
  Ge  Ge2  1  0.33694700  0.00000000  0.33694700  1
  Ge  Ge3  1  0.66305300  0.00000000  0.66305300  1
  Ge  Ge4  1  0.78747000  0.42570900  0.00000000  1
  Ge  Ge5  1  0.42570900  0.78747000  0.00000000  1
  Ge  Ge6  1  0.78747000  0.78747000  0.36176200  1
  Ge  Ge7  1  0.42570900  0.42570900  0.63823800  1
  Ge  Ge8  1  0.21253000  0.57429100  0.00000000  1
  Ge  Ge9  1  0.57429100  0.21253000  0.00000000  1
  Ge  Ge10  1  0.21253000  0.21253000  0.63823800  1
  Ge  Ge11  1  0.57429100  0.57429100  0.36176200  1
loop_
_geom_bond_atom_site_label_1
_geom_bond_atom_site_label_2
_geom_bond_distance
_geom_bond_site_symmetry_2
Ge0 Ge1 2.548010 1_555
Ge0 Ge10 2.814910 1_555
Ge0 Ge7 2.814916 1_555
Ge0 Ge9 2.814916 1_455
Ge0 Ge4 2.814916 1_455
Ge0 Sr3 3.302207 1_555
Ge0 Sr2 3.302207 1_455
Ge0 Sr0 3.353899 1_555
Ge0 Sr1 3.353899 1_445
Ge1 Ge6 2.814910 1_455
Ge1 Ge11 2.814916 1_455
Ge1 Ge8 2.814916 1_556
Ge1 Ge5 2.814916 1_556
Ge1 Sr2 3.302207 1_455
Ge1 Sr3 3.302207 1_555
Ge1 Sr0 3.353899 1_566
Ge1 Sr1 3.353899 1_456
Ge2 Ge3 2.548010 1_555
Ge2 Ge7 2.814916 1_555
Ge2 Ge8 2.814916 1_545
Ge2 Ge5 2.814916 1_545
Ge2 Sr2 3.302207 1_555
Ge2 Sr3 3.302207 1_545
Ge2 Sr0 3.353899 1_555
Ge2 Sr1 3.353899 1_445
Ge3 Ge6 2.814910 1_545
Ge3 Ge4 2.814916 1_556
Ge3 Ge9 2.814916 1_556
Ge3 Sr3 3.302207 1_545
Ge3 Sr2 3.302207 1_555
Ge3 Sr1 3.353899 1_546
Ge3 Sr0 3.353899 1_656
Ge4 Ge9 2.597844 1_555
Ge4 Ge6 2.826602 1_555
Ge4 Ge7 2.826602 1_554
Ge4 Sr3 3.356900 1_655
Ge4 Sr2 3.356900 1_554
Ge4 Sr1 3.372435 1_555
Ge4 Sr0 3.611236 1_655
Ge5 Ge8 2.597844 1_555
Ge5 Ge6 2.826602 1_555
Ge5 Ge7 2.826602 1_554
Ge5 Sr3 3.356900 1_554
Ge5 Sr2 3.356900 1_565
Ge5 Sr1 3.372435 1_555
Ge5 Sr0 3.611236 1_565
Ge6 Sr2 3.356902 1_565
Ge6 Sr3 3.356902 1_655
Ge6 Sr1 3.372443 1_555
Ge6 Sr0 3.611232 1_666
Ge7 Sr2 3.356896 1_555
Ge7 Sr3 3.356896 1_555
Ge7 Sr1 3.372433 1_556
Ge7 Sr0 3.611229 1_555
Ge8 Sr3 3.356900 1_555
Ge8 Sr2 3.356900 1_454
Ge8 Sr0 3.372435 1_555
Ge8 Sr1 3.611236 1_455
Ge9 Sr2 3.356900 1_555
Ge9 Sr3 3.356900 1_544
Ge9 Sr0 3.372435 1_555
Ge9 Sr1 3.611236 1_545
Ge10 Ge7 2.597844 1_555
Ge10 Ge2 2.814910 1_555
Ge10 Ge9 2.826602 1_556
Ge10 Ge8 2.826602 1_556
Ge10 Sr3 3.356902 1_545
Ge10 Sr2 3.356902 1_455
Ge10 Sr0 3.372443 1_556
Ge10 Sr1 3.611232 1_445
Ge11 Ge6 2.597844 1_555
Ge11 Ge3 2.814916 1_565
Ge11 Ge9 2.826602 1_555
Ge11 Ge8 2.826602 1_555
Ge11 Sr2 3.356896 1_555
Ge11 Sr3 3.356896 1_555
Ge11 Sr0 3.372433 1_555
Ge11 Sr1 3.611229 1_556
