# generated using pymatgen
data_SmMgGa
_symmetry_space_group_name_H-M   'P 1'
_cell_length_a   7.36408804
_cell_length_b   7.36408984
_cell_length_c   4.49721481
_cell_angle_alpha   90.00000000
_cell_angle_beta   90.00000000
_cell_angle_gamma   120.00000444
_symmetry_Int_Tables_number   1
_chemical_formula_structural   SmMgGa
_chemical_formula_sum   'Sm3 Mg3 Ga3'
_cell_volume   211.20893879
_cell_formula_units_Z   3
loop_
 _symmetry_equiv_pos_site_id
 _symmetry_equiv_pos_as_xyz
  1  'x, y, z'
loop_
 _atom_site_type_symbol
 _atom_site_label
 _atom_site_symmetry_multiplicity
 _atom_site_fract_x
 _atom_site_fract_y
 _atom_site_fract_z
 _atom_site_occupancy
  Sm  Sm0  1  1.00000000  0.57612530  0.00000000  1
  Sm  Sm1  1  0.42387470  0.42387470  0.00000000  1
  Sm  Sm2  1  0.57612530  0.00000000  -0.00000000  1
  Mg  Mg0  1  1.00000000  0.24340813  0.50000000  1
  Mg  Mg1  1  0.75659187  0.75659187  0.50000000  1
  Mg  Mg2  1  0.24340813  0.00000000  0.50000000  1
  Ga  Ga0  1  0.33333300  0.66666700  0.50000000  1
  Ga  Ga1  1  0.66666700  0.33333300  0.50000000  1
  Ga  Ga2  1  -0.00000000  -0.00000000  0.00000000  1
loop_
_geom_bond_atom_site_label_1
_geom_bond_atom_site_label_2
_geom_bond_distance
_geom_bond_site_symmetry_2
Ga0 Mg2 2.844220 1_565
Ga0 Mg0 2.844224 1_455
Ga0 Mg1 2.844226 1_555
Ga0 Sm0 3.144779 1_456
Ga0 Sm0 3.144779 1_455
Ga0 Sm2 3.144781 1_565
Ga0 Sm2 3.144781 1_566
Ga0 Sm1 3.144785 1_556
Ga0 Sm1 3.144785 1_555
Ga1 Mg0 2.844219 1_555
Ga1 Mg2 2.844224 1_555
Ga1 Mg1 2.844227 1_555
Ga1 Sm2 3.144780 1_555
Ga1 Sm2 3.144780 1_556
Ga1 Sm0 3.144781 1_556
Ga1 Sm0 3.144781 1_555
Ga1 Sm1 3.144784 1_556
Ga1 Sm1 3.144784 1_555
Ga2 Mg2 2.875624 1_554
Ga2 Mg2 2.875624 1_555
Ga2 Mg1 2.875624 1_444
Ga2 Mg1 2.875624 1_445
Ga2 Mg0 2.875625 1_455
Ga2 Mg0 2.875625 1_454
Ga2 Sm2 3.121451 1_455
Ga2 Sm1 3.121451 1_555
Ga2 Sm0 3.121451 1_445
