# generated using pymatgen
data_BaMgIn3
_symmetry_space_group_name_H-M   'P 1'
_cell_length_a   7.18260924
_cell_length_b   7.18260924
_cell_length_c   7.18260924
_cell_angle_alpha   140.58295030
_cell_angle_beta   140.58295030
_cell_angle_gamma   56.96923230
_symmetry_Int_Tables_number   1
_chemical_formula_structural   BaMgIn3
_chemical_formula_sum   'Ba1 Mg1 In3'
_cell_volume   148.16125568
_cell_formula_units_Z   1
loop_
 _symmetry_equiv_pos_site_id
 _symmetry_equiv_pos_as_xyz
  1  'x, y, z'
loop_
 _atom_site_type_symbol
 _atom_site_label
 _atom_site_symmetry_multiplicity
 _atom_site_fract_x
 _atom_site_fract_y
 _atom_site_fract_z
 _atom_site_occupancy
  Ba  Ba0  1  0.00000000  -0.00000000  0.00000000  1
  Mg  Mg0  1  0.75000000  0.25000000  0.50000000  1
  In  In0  1  0.38600994  0.38600994  0.00000000  1
  In  In1  1  0.61399006  0.61399006  -0.00000000  1
  In  In2  1  0.25000000  0.75000000  0.50000000  1
loop_
_geom_bond_atom_site_label_1
_geom_bond_atom_site_label_2
_geom_bond_distance
_geom_bond_site_symmetry_2
Ba0 In0 3.715626 1_444
Ba0 In0 3.715626 1_556
Ba0 In0 3.715626 1_545
Ba0 In1 3.715626 1_444
Ba0 In1 3.715626 1_455
Ba0 In1 3.715626 1_545
Ba0 In1 3.715626 1_556
Ba0 In0 3.715626 1_455
Ba0 In2 3.978827 1_555
Ba0 Mg0 3.978827 1_455
Ba0 Mg0 3.978827 1_444
Ba0 Mg0 3.978827 1_454
Ba0 In2 3.978827 1_544
Ba0 In2 3.978827 1_545
Ba0 In2 3.978827 1_444
Ba0 Mg0 3.978827 1_555
In0 In1 2.878532 1_555
In0 Mg0 2.969225 1_454
In0 In2 2.969225 1_544
In0 In2 2.969225 1_555
In0 Mg0 2.969225 1_555
In1 In2 2.969225 1_655
In1 Mg0 2.969225 1_554
In1 Mg0 2.969225 1_565
In1 In2 2.969225 1_554
