# generated using pymatgen
data_Na5H7(Se2O9)2
_symmetry_space_group_name_H-M   'P 1'
_cell_length_a   11.27431839
_cell_length_b   11.27431839
_cell_length_c   7.24974539
_cell_angle_alpha   81.08972122
_cell_angle_beta   81.08972122
_cell_angle_gamma   73.24478521
_symmetry_Int_Tables_number   1
_chemical_formula_structural   Na5H7(Se2O9)2
_chemical_formula_sum   'Na10 H14 Se8 O36'
_cell_volume   865.80640792
_cell_formula_units_Z   2
loop_
 _symmetry_equiv_pos_site_id
 _symmetry_equiv_pos_as_xyz
  1  'x, y, z'
loop_
 _atom_site_type_symbol
 _atom_site_label
 _atom_site_symmetry_multiplicity
 _atom_site_fract_x
 _atom_site_fract_y
 _atom_site_fract_z
 _atom_site_occupancy
  Na  Na0  1  0.75288100  0.43309200  0.06241600  1
  Na  Na1  1  0.43309200  0.75288100  0.56241600  1
  Na  Na2  1  0.25033800  0.55741900  0.93072500  1
  Na  Na3  1  0.55741900  0.25033800  0.43072500  1
  Na  Na4  1  0.99974300  0.00084800  0.74995900  1
  Na  Na5  1  0.00084800  0.99974300  0.24995900  1
  Na  Na6  1  0.37396300  0.03484600  0.18763900  1
  Na  Na7  1  0.03484600  0.37396300  0.68763900  1
  Na  Na8  1  0.62483400  0.97232000  0.81266200  1
  Na  Na9  1  0.97232000  0.62483400  0.31266200  1
  H  H0  1  0.19626400  0.92235300  0.48913900  1
  H  H1  1  0.92235300  0.19626400  0.98913900  1
  H  H2  1  0.80297000  0.07707300  0.51211800  1
  H  H3  1  0.07707300  0.80297000  0.01211800  1
  H  H4  1  0.28799900  0.30040600  0.06826200  1
  H  H5  1  0.30040600  0.28799900  0.56826200  1
  H  H6  1  0.71772000  0.69602300  0.93409300  1
  H  H7  1  0.69602300  0.71772000  0.43409300  1
  H  H8  1  0.16117000  0.79685900  0.50784100  1
  H  H9  1  0.79685900  0.16117000  0.00784100  1
  H  H10  1  0.84106600  0.20043000  0.49167600  1
  H  H11  1  0.20043000  0.84106600  0.99167600  1
  H  H12  1  0.53282100  0.48484900  0.71919400  1
  H  H13  1  0.48484900  0.53282100  0.21919400  1
  Se  Se0  1  0.07869100  0.30001400  0.17425700  1
  Se  Se1  1  0.30001400  0.07869100  0.67425700  1
  Se  Se2  1  0.92194300  0.69945000  0.82546100  1
  Se  Se3  1  0.69945000  0.92194300  0.32546100  1
  Se  Se4  1  0.72928800  0.46823400  0.53539300  1
  Se  Se5  1  0.46823400  0.72928800  0.03539300  1
  Se  Se6  1  0.27742900  0.52770900  0.45180400  1
  Se  Se7  1  0.52770900  0.27742900  0.95180400  1
  O  O0  1  0.19762700  0.35920600  0.04285600  1
  O  O1  1  0.35920600  0.19762700  0.54285600  1
  O  O2  1  0.80401900  0.63791300  0.96133300  1
  O  O3  1  0.63791300  0.80401900  0.46133300  1
  O  O4  1  0.97307100  0.33035400  0.02257000  1
  O  O5  1  0.33035400  0.97307100  0.52257000  1
  O  O6  1  0.02855000  0.66911700  0.97473400  1
  O  O7  1  0.66911700  0.02855000  0.47473400  1
  O  O8  1  0.02273100  0.38200200  0.35366900  1
  O  O9  1  0.38200200  0.02273100  0.85366900  1
  O  O10  1  0.97426500  0.61702600  0.64656800  1
  O  O11  1  0.61702600  0.97426500  0.14656800  1
  O  O12  1  0.57584800  0.54381800  0.61546000  1
  O  O13  1  0.54381800  0.57584800  0.11546000  1
  O  O14  1  0.42249600  0.45887200  0.35435500  1
  O  O15  1  0.45887200  0.42249600  0.85435500  1
  O  O16  1  0.13891300  0.14904200  0.23120600  1
  O  O17  1  0.14904200  0.13891300  0.73120600  1
  O  O18  1  0.85937000  0.85007200  0.77040100  1
  O  O19  1  0.85007200  0.85937000  0.27040100  1
  O  O20  1  0.80619300  0.41039900  0.71937100  1
  O  O21  1  0.41039900  0.80619300  0.21937100  1
  O  O22  1  0.18920800  0.59099200  0.27991600  1
  O  O23  1  0.59099200  0.18920800  0.77991600  1
  O  O24  1  0.72830100  0.35808600  0.40756900  1
  O  O25  1  0.35808600  0.72830100  0.90756900  1
  O  O26  1  0.27831500  0.63561200  0.58580900  1
  O  O27  1  0.63561200  0.27831500  0.08580900  1
  O  O28  1  0.12453600  0.88777600  0.49213900  1
  O  O29  1  0.88777600  0.12453600  0.99213900  1
  O  O30  1  0.87624900  0.10960100  0.50848200  1
  O  O31  1  0.10960100  0.87624900  0.00848200  1
  O  O32  1  0.77306400  0.58474700  0.39884000  1
  O  O33  1  0.58474700  0.77306400  0.89884000  1
  O  O34  1  0.22953200  0.41303000  0.59458400  1
  O  O35  1  0.41303000  0.22953200  0.09458400  1
loop_
_geom_bond_atom_site_label_1
_geom_bond_atom_site_label_2
_geom_bond_distance
_geom_bond_site_symmetry_2
Na0 O4 2.410701 1_555
Na0 O27 2.447632 1_555
Na0 O13 2.453085 1_555
Na0 O20 2.501445 1_554
Na0 O2 2.512856 1_554
Na0 O24 2.513580 1_555
Na1 O5 2.410701 1_555
Na1 O26 2.447632 1_555
Na1 O12 2.453085 1_555
Na1 O21 2.501445 1_555
Na1 O3 2.512856 1_555
Na1 O25 2.513580 1_555
Na2 O15 2.437970 1_555
Na2 O6 2.449893 1_555
Na2 O0 2.461965 1_556
Na2 O26 2.522409 1_555
Na2 O25 2.530141 1_555
Na2 O22 2.575449 1_556
Na3 O14 2.437970 1_555
Na3 O7 2.449893 1_555
Na3 O1 2.461965 1_555
Na3 O27 2.522409 1_555
Na3 O24 2.530141 1_555
Na3 O23 2.575449 1_555
Na4 O30 2.369073 1_555
Na4 O29 2.382794 1_555
Na4 O31 2.433207 1_646
Na4 O28 2.446970 1_645
Na4 O17 2.578564 1_655
Na4 O18 2.610880 1_545
Na5 O31 2.369073 1_555
Na5 O28 2.382794 1_555
Na5 O30 2.433207 1_465
Na5 O29 2.446970 1_464
Na5 O16 2.578564 1_565
Na5 O19 2.610880 1_455
Na6 O35 2.339571 1_555
Na6 O9 2.432365 1_554
Na6 O5 2.434445 1_545
Na6 O21 2.470276 1_545
Na6 O16 2.584481 1_555
Na6 O11 2.606887 1_545
Na7 O34 2.339571 1_555
Na7 O8 2.432365 1_555
Na7 O4 2.434445 1_456
Na7 O20 2.470276 1_455
Na7 O17 2.584481 1_555
Na7 O10 2.606887 1_455
Na8 O23 2.343408 1_565
Na8 O33 2.388387 1_555
Na8 O11 2.411949 1_556
Na8 O7 2.444505 1_565
Na8 O18 2.600775 1_555
Na8 O9 2.609565 1_565
Na9 O22 2.343408 1_655
Na9 O32 2.388387 1_555
Na9 O10 2.411949 1_555
Na9 O6 2.444505 1_654
Na9 O19 2.600775 1_555
Na9 O8 2.609565 1_655
H0 O28 0.990000 1_555
H1 O29 0.990000 1_555
H2 O30 0.991309 1_555
H3 O31 0.991309 1_555
H4 O0 1.068827 1_555
H4 O35 1.431310 1_555
H5 O1 1.068827 1_555
H5 O34 1.431310 1_555
H6 O2 1.032858 1_555
H6 O33 1.538323 1_555
H7 O3 1.032858 1_555
H7 O32 1.538323 1_555
H8 O28 0.984150 1_555
H9 O29 0.984150 1_554
H10 O30 0.981303 1_555
H11 O31 0.981303 1_556
H12 O12 1.077476 1_555
H12 O15 1.421592 1_555
H13 O13 1.077476 1_555
H13 O14 1.421592 1_555
O0 Se0 1.753348 1_555
O1 Se1 1.753348 1_555
O2 Se2 1.770220 1_555
O3 Se3 1.770220 1_555
O4 Se0 1.672900 1_655
O5 Se1 1.672900 1_565
O6 Se2 1.668531 1_455
O7 Se3 1.668531 1_545
O8 Se0 1.651144 1_555
O9 Se1 1.651144 1_555
O10 Se2 1.647374 1_555
O11 Se3 1.647374 1_555
O12 Se4 1.745846 1_555
O13 Se5 1.745846 1_555
O14 Se6 1.690106 1_555
O15 Se7 1.690106 1_555
O16 Se0 1.652707 1_555
O17 Se1 1.652707 1_555
O18 Se2 1.651453 1_555
O19 Se3 1.651453 1_555
O20 Se4 1.648884 1_555
O21 Se5 1.648884 1_555
O22 Se6 1.658490 1_555
O23 Se7 1.658490 1_555
O24 Se4 1.663944 1_555
O25 Se5 1.663944 1_556
O26 Se6 1.673318 1_555
O27 Se7 1.673318 1_554
O32 Se4 1.663970 1_555
O33 Se5 1.663970 1_556
O34 Se6 1.688062 1_555
O35 Se7 1.688062 1_554
