# generated using pymatgen
data_Sr2PrO4
_symmetry_space_group_name_H-M   'P 1'
_cell_length_a   3.73472000
_cell_length_b   6.28152600
_cell_length_c   10.38793700
_cell_angle_alpha   90.00000000
_cell_angle_beta   90.00000000
_cell_angle_gamma   90.00000000
_symmetry_Int_Tables_number   1
_chemical_formula_structural   Sr2PrO4
_chemical_formula_sum   'Sr4 Pr2 O8'
_cell_volume   243.69830929
_cell_formula_units_Z   2
loop_
 _symmetry_equiv_pos_site_id
 _symmetry_equiv_pos_as_xyz
  1  'x, y, z'
loop_
 _atom_site_type_symbol
 _atom_site_label
 _atom_site_symmetry_multiplicity
 _atom_site_fract_x
 _atom_site_fract_y
 _atom_site_fract_z
 _atom_site_occupancy
  Sr  Sr0  1  0.50000000  0.06397600  0.32295800  1
  Sr  Sr1  1  0.50000000  0.93602400  0.67704200  1
  Sr  Sr2  1  0.50000000  0.43602400  0.82295800  1
  Sr  Sr3  1  0.50000000  0.56397600  0.17704200  1
  Pr  Pr0  1  0.00000000  0.00000000  0.00000000  1
  Pr  Pr1  1  0.00000000  0.50000000  0.50000000  1
  O  O0  1  0.00000000  0.15215800  0.79423200  1
  O  O1  1  0.00000000  0.84784200  0.20576800  1
  O  O2  1  0.00000000  0.65215800  0.70576800  1
  O  O3  1  0.00000000  0.34784200  0.29423200  1
  O  O4  1  0.50000000  0.26347900  0.54391600  1
  O  O5  1  0.50000000  0.73652100  0.45608400  1
  O  O6  1  0.50000000  0.23652100  0.04391600  1
  O  O7  1  0.50000000  0.76347900  0.95608400  1
loop_
_geom_bond_atom_site_label_1
_geom_bond_atom_site_label_2
_geom_bond_distance
_geom_bond_site_symmetry_2
O0 Pr0 2.341464 1_556
O0 Sr2 2.599147 1_455
O0 Sr2 2.599147 1_555
O0 Sr1 2.610023 1_445
O0 Sr1 2.610023 1_545
O1 Pr0 2.341464 1_565
O1 Sr3 2.599147 1_555
O1 Sr3 2.599147 1_455
O1 Sr0 2.610023 1_565
O1 Sr0 2.610023 1_465
O2 Pr1 2.341464 1_555
O2 Sr1 2.599147 1_455
O2 Sr1 2.599147 1_555
O2 Sr2 2.610023 1_555
O2 Sr2 2.610023 1_455
O3 Pr1 2.341464 1_555
O3 Sr0 2.599147 1_555
O3 Sr0 2.599147 1_455
O3 Sr3 2.610023 1_455
O3 Sr3 2.610023 1_555
O4 Pr1 2.429504 1_555
O4 Pr1 2.429504 1_655
O4 Sr1 2.478575 1_545
O4 Sr0 2.615121 1_555
O4 Sr2 3.094675 1_555
O5 Pr1 2.429504 1_555
O5 Pr1 2.429504 1_655
O5 Sr0 2.478575 1_565
O5 Sr1 2.615121 1_555
O5 Sr3 3.094675 1_555
O6 Pr0 2.429504 1_555
O6 Pr0 2.429504 1_655
O6 Sr3 2.478575 1_555
O6 Sr2 2.615121 1_554
O6 Sr0 3.094675 1_555
O7 Pr0 2.429504 1_566
O7 Pr0 2.429504 1_666
O7 Sr2 2.478575 1_555
O7 Sr3 2.615121 1_556
O7 Sr1 3.094675 1_555
