# generated using pymatgen
data_Rb2In3F11
_symmetry_space_group_name_H-M   'P 1'
_cell_length_a   8.41503700
_cell_length_b   6.80808400
_cell_length_c   19.47577406
_cell_angle_alpha   89.35239165
_cell_angle_beta   90.00000000
_cell_angle_gamma   90.00000000
_symmetry_Int_Tables_number   1
_chemical_formula_structural   Rb2In3F11
_chemical_formula_sum   'Rb8 In12 F44'
_cell_volume   1115.70125240
_cell_formula_units_Z   4
loop_
 _symmetry_equiv_pos_site_id
 _symmetry_equiv_pos_as_xyz
  1  'x, y, z'
loop_
 _atom_site_type_symbol
 _atom_site_label
 _atom_site_symmetry_multiplicity
 _atom_site_fract_x
 _atom_site_fract_y
 _atom_site_fract_z
 _atom_site_occupancy
  Rb  Rb0  1  0.25000000  0.26164700  0.85269300  1
  Rb  Rb1  1  0.75000000  0.73835300  0.14730700  1
  Rb  Rb2  1  0.75000000  0.24902800  0.84754500  1
  Rb  Rb3  1  0.25000000  0.75097200  0.15245500  1
  Rb  Rb4  1  0.25000000  0.25064000  0.65405200  1
  Rb  Rb5  1  0.75000000  0.74936000  0.34594800  1
  Rb  Rb6  1  0.75000000  0.23668200  0.64950300  1
  Rb  Rb7  1  0.25000000  0.76331800  0.35049700  1
  In  In0  1  0.49818700  0.75054200  0.96853200  1
  In  In1  1  0.99818700  0.24945800  0.03146800  1
  In  In2  1  0.50181300  0.24945800  0.03146800  1
  In  In3  1  0.00181300  0.75054200  0.96853200  1
  In  In4  1  0.50019300  0.74353200  0.75066000  1
  In  In5  1  0.00019300  0.25646800  0.24934000  1
  In  In6  1  0.49980700  0.25646800  0.24934000  1
  In  In7  1  0.99980700  0.74353200  0.75066000  1
  In  In8  1  0.50070900  0.74889900  0.53148000  1
  In  In9  1  0.00070900  0.25110100  0.46852000  1
  In  In10  1  0.49929100  0.25110100  0.46852000  1
  In  In11  1  0.99929100  0.74889900  0.53148000  1
  F  F0  1  0.25000000  0.74624800  0.97811900  1
  F  F1  1  0.75000000  0.25375200  0.02188100  1
  F  F2  1  0.75000000  0.75414800  0.97135400  1
  F  F3  1  0.25000000  0.24585200  0.02864600  1
  F  F4  1  0.25000000  0.80212600  0.73991300  1
  F  F5  1  0.75000000  0.19787400  0.26008700  1
  F  F6  1  0.75000000  0.67633500  0.76394600  1
  F  F7  1  0.25000000  0.32366500  0.23605400  1
  F  F8  1  0.25000000  0.74754000  0.51956400  1
  F  F9  1  0.75000000  0.25246000  0.48043600  1
  F  F10  1  0.75000000  0.74873800  0.52850000  1
  F  F11  1  0.25000000  0.25126200  0.47150000  1
  F  F12  1  0.47309700  0.74927600  0.85945900  1
  F  F13  1  0.97309700  0.25072400  0.14054100  1
  F  F14  1  0.52690300  0.25072400  0.14054100  1
  F  F15  1  0.02690300  0.74927600  0.85945900  1
  F  F16  1  0.51773900  0.74128300  0.64186200  1
  F  F17  1  0.01773900  0.25871700  0.35813800  1
  F  F18  1  0.48226100  0.25871700  0.35813800  1
  F  F19  1  0.98226100  0.74128300  0.64186200  1
  F  F20  1  0.50199100  0.44018000  0.93936200  1
  F  F21  1  0.00199100  0.55982000  0.06063800  1
  F  F22  1  0.49800900  0.55982000  0.06063800  1
  F  F23  1  0.99800900  0.44018000  0.93936200  1
  F  F24  1  0.50035700  0.06056200  0.93887500  1
  F  F25  1  0.00035700  0.93943800  0.06112500  1
  F  F26  1  0.49964300  0.93943800  0.06112500  1
  F  F27  1  0.99964300  0.06056200  0.93887500  1
  F  F28  1  0.46368000  0.44401500  0.75185500  1
  F  F29  1  0.96368000  0.55598500  0.24814500  1
  F  F30  1  0.53632000  0.55598500  0.24814500  1
  F  F31  1  0.03632000  0.44401500  0.75185500  1
  F  F32  1  0.54195400  0.03980700  0.74992800  1
  F  F33  1  0.04195400  0.96019300  0.25007200  1
  F  F34  1  0.45804600  0.96019300  0.25007200  1
  F  F35  1  0.95804600  0.03980700  0.74992800  1
  F  F36  1  0.49148900  0.43717300  0.56060000  1
  F  F37  1  0.99148900  0.56282700  0.43940000  1
  F  F38  1  0.50851100  0.56282700  0.43940000  1
  F  F39  1  0.00851100  0.43717300  0.56060000  1
  F  F40  1  0.48640800  0.05649400  0.56084100  1
  F  F41  1  0.98640800  0.94350600  0.43915900  1
  F  F42  1  0.51359200  0.94350600  0.43915900  1
  F  F43  1  0.01359200  0.05649400  0.56084100  1
loop_
_geom_bond_atom_site_label_1
_geom_bond_atom_site_label_2
_geom_bond_distance
_geom_bond_site_symmetry_2
F0 In3 2.097007 1_555
F0 In0 2.097007 1_555
F0 Rb3 3.395844 1_556
F1 In1 2.097007 1_555
F1 In2 2.097007 1_555
F1 Rb2 3.395844 1_554
F2 In0 2.119878 1_555
F2 In3 2.119878 1_655
F3 In2 2.119878 1_555
F3 In1 2.119878 1_455
F4 In7 2.152601 1_455
F4 In4 2.152601 1_555
F5 In6 2.152601 1_555
F5 In5 2.152601 1_655
F6 In7 2.166227 1_555
F6 In4 2.166227 1_555
F6 Rb2 3.317669 1_555
F7 In5 2.166227 1_555
F7 In6 2.166227 1_555
F7 Rb3 3.317669 1_555
F8 In8 2.122483 1_555
F8 In11 2.122483 1_455
F8 Rb7 3.293249 1_555
F9 In10 2.122483 1_555
F9 In9 2.122483 1_655
F9 Rb6 3.293249 1_555
F10 In11 2.098596 1_555
F10 In8 2.098596 1_555
F11 In9 2.098596 1_555
F11 In10 2.098596 1_555
F12 In4 2.131975 1_555
F12 In0 2.134862 1_555
F13 In5 2.131975 1_655
F13 In1 2.134862 1_555
F14 In6 2.131975 1_555
F14 In2 2.134862 1_555
F15 In7 2.131975 1_455
F15 In3 2.134862 1_555
F16 In4 2.124291 1_555
F16 In8 2.154585 1_555
F17 In5 2.124291 1_555
F17 In9 2.154585 1_555
F18 In6 2.124291 1_555
F18 In10 2.154585 1_555
F19 In7 2.124291 1_555
F19 In11 2.154585 1_555
F20 In0 2.194437 1_555
F20 In2 2.202538 1_556
F20 Rb0 2.978167 1_555
F20 Rb2 3.049503 1_555
F21 In1 2.194437 1_455
F21 In3 2.202538 1_554
F21 Rb1 2.978167 1_455
F21 Rb3 3.049503 1_555
F22 In2 2.194437 1_555
F22 In0 2.202538 1_554
F22 Rb1 2.978167 1_555
F22 Rb3 3.049503 1_555
F23 In3 2.194437 1_655
F23 In1 2.202538 1_556
F23 Rb0 2.978167 1_655
F23 Rb2 3.049503 1_555
F24 In0 2.182017 1_545
F24 In2 2.226743 1_556
F24 Rb0 3.012957 1_555
F24 Rb2 3.028491 1_555
F25 In1 2.182017 1_465
F25 In3 2.226743 1_554
F25 Rb1 3.012957 1_455
F25 Rb3 3.028491 1_555
F26 In2 2.182017 1_565
F26 In0 2.226743 1_554
F26 Rb1 3.012957 1_555
F26 Rb3 3.028491 1_555
F27 In3 2.182017 1_645
F27 In1 2.226743 1_556
F27 Rb0 3.012957 1_655
F27 Rb2 3.028491 1_555
F28 In4 2.062027 1_555
F28 Rb0 2.928574 1_555
F28 Rb4 2.941321 1_555
F28 Rb2 3.314305 1_555
F28 Rb6 3.440176 1_555
F29 In5 2.062027 1_655
F29 Rb1 2.928574 1_555
F29 Rb5 2.941321 1_555
F29 Rb3 3.314305 1_655
F29 Rb7 3.440176 1_655
F30 In6 2.062027 1_555
F30 Rb1 2.928574 1_555
F30 Rb5 2.941321 1_555
F30 Rb3 3.314305 1_555
F30 Rb7 3.440176 1_555
F31 In7 2.062027 1_455
F31 Rb0 2.928574 1_555
F31 Rb4 2.941321 1_555
F31 Rb2 3.314305 1_455
F31 Rb6 3.440176 1_455
F32 In4 2.047340 1_545
F32 Rb6 2.937282 1_555
F32 Rb2 2.961343 1_555
F33 In5 2.047340 1_565
F33 Rb7 2.937282 1_555
F33 Rb3 2.961343 1_555
F34 In6 2.047340 1_565
F34 Rb7 2.937282 1_555
F34 Rb3 2.961343 1_555
F35 In7 2.047340 1_545
F35 Rb6 2.937282 1_555
F35 Rb2 2.961343 1_555
F36 In8 2.191900 1_555
F36 In10 2.208271 1_555
F36 Rb4 3.000442 1_555
F36 Rb6 3.088673 1_555
F37 In9 2.191900 1_655
F37 In11 2.208271 1_555
F37 Rb5 3.000442 1_555
F37 Rb7 3.088673 1_655
F38 In10 2.191900 1_555
F38 In8 2.208271 1_555
F38 Rb5 3.000442 1_555
F38 Rb7 3.088673 1_555
F39 In11 2.191900 1_455
F39 In9 2.208271 1_555
F39 Rb4 3.000442 1_555
F39 Rb6 3.088673 1_455
F40 In8 2.180351 1_545
F40 In10 2.223994 1_555
F40 Rb4 3.009062 1_555
F40 Rb6 3.074833 1_555
F41 In9 2.180351 1_665
F41 In11 2.223994 1_555
F41 Rb5 3.009062 1_555
F41 Rb7 3.074833 1_655
F42 In10 2.180351 1_565
F42 In8 2.223994 1_555
F42 Rb5 3.009062 1_555
F42 Rb7 3.074833 1_555
F43 In11 2.180351 1_445
F43 In9 2.223994 1_555
F43 Rb4 3.009062 1_555
F43 Rb6 3.074833 1_455
