# generated using pymatgen
data_Mn6C
_symmetry_space_group_name_H-M   'P 1'
_cell_length_a   7.41882010
_cell_length_b   7.41882010
_cell_length_c   7.41882010
_cell_angle_alpha   60.00000000
_cell_angle_beta   60.00000000
_cell_angle_gamma   60.00000000
_symmetry_Int_Tables_number   1
_chemical_formula_structural   Mn6C
_chemical_formula_sum   'Mn24 C4'
_cell_volume   288.72841164
_cell_formula_units_Z   4
loop_
 _symmetry_equiv_pos_site_id
 _symmetry_equiv_pos_as_xyz
  1  'x, y, z'
loop_
 _atom_site_type_symbol
 _atom_site_label
 _atom_site_symmetry_multiplicity
 _atom_site_fract_x
 _atom_site_fract_y
 _atom_site_fract_z
 _atom_site_occupancy
  Mn  Mn0  1  0.62500000  0.62500000  0.12500000  1
  Mn  Mn1  1  0.62500000  0.12500000  0.62500000  1
  Mn  Mn2  1  0.12500000  0.62500000  0.62500000  1
  Mn  Mn3  1  0.62500000  0.62500000  0.62500000  1
  Mn  Mn4  1  0.41394000  0.41394000  0.75818100  1
  Mn  Mn5  1  0.41394000  0.75818100  0.41394000  1
  Mn  Mn6  1  0.75818100  0.41394000  0.41394000  1
  Mn  Mn7  1  0.41394000  0.41394000  0.41394000  1
  Mn  Mn8  1  0.83606000  0.83606000  0.49181900  1
  Mn  Mn9  1  0.83606000  0.49181900  0.83606000  1
  Mn  Mn10  1  0.49181900  0.83606000  0.83606000  1
  Mn  Mn11  1  0.83606000  0.83606000  0.83606000  1
  Mn  Mn12  1  0.05534500  0.05534500  0.44465500  1
  Mn  Mn13  1  0.44465500  0.05534500  0.44465500  1
  Mn  Mn14  1  0.05534500  0.44465500  0.44465500  1
  Mn  Mn15  1  0.44465500  0.44465500  0.05534500  1
  Mn  Mn16  1  0.05534500  0.44465500  0.05534500  1
  Mn  Mn17  1  0.44465500  0.05534500  0.05534500  1
  Mn  Mn18  1  0.19465500  0.19465500  0.80534500  1
  Mn  Mn19  1  0.80534500  0.19465500  0.80534500  1
  Mn  Mn20  1  0.19465500  0.80534500  0.80534500  1
  Mn  Mn21  1  0.80534500  0.80534500  0.19465500  1
  Mn  Mn22  1  0.19465500  0.80534500  0.19465500  1
  Mn  Mn23  1  0.80534500  0.19465500  0.19465500  1
  C  C0  1  0.12500000  0.12500000  0.62500000  1
  C  C1  1  0.12500000  0.62500000  0.12500000  1
  C  C2  1  0.62500000  0.12500000  0.12500000  1
  C  C3  1  0.12500000  0.12500000  0.12500000  1
loop_
_geom_bond_atom_site_label_1
_geom_bond_atom_site_label_2
_geom_bond_distance
_geom_bond_site_symmetry_2
Mn0 Mn7 2.288534 1_555
Mn0 Mn11 2.288534 1_554
Mn0 Mn6 2.288538 1_555
Mn0 Mn5 2.288538 1_555
Mn0 Mn9 2.288538 1_554
Mn0 Mn10 2.288538 1_554
Mn0 Mn21 2.649554 1_555
Mn0 Mn16 2.649554 1_655
Mn0 Mn23 2.649554 1_555
Mn0 Mn17 2.649554 1_565
Mn0 Mn22 2.649554 1_555
Mn0 Mn15 2.649554 1_555
Mn1 Mn7 2.288534 1_555
Mn1 Mn11 2.288534 1_545
Mn1 Mn6 2.288538 1_555
Mn1 Mn4 2.288538 1_555
Mn1 Mn10 2.288538 1_545
Mn1 Mn8 2.288538 1_545
Mn1 Mn17 2.649554 1_556
Mn1 Mn19 2.649554 1_555
Mn1 Mn23 2.649554 1_555
Mn1 Mn18 2.649554 1_555
Mn1 Mn12 2.649554 1_655
Mn1 Mn13 2.649554 1_555
Mn2 Mn7 2.288534 1_555
Mn2 Mn4 2.288538 1_555
Mn2 Mn5 2.288538 1_555
Mn2 Mn8 2.288538 1_455
Mn2 Mn9 2.288538 1_455
Mn2 Mn20 2.649554 1_555
Mn2 Mn22 2.649554 1_555
Mn3 Mn8 2.288532 1_555
Mn3 Mn9 2.288532 1_555
Mn3 Mn5 2.288532 1_555
Mn3 Mn6 2.288532 1_555
Mn3 Mn4 2.288532 1_555
Mn4 Mn7 2.553862 1_555
Mn4 Mn5 2.553862 1_555
Mn4 Mn6 2.553862 1_555
Mn5 Mn7 2.553862 1_555
Mn5 Mn6 2.553862 1_555
Mn6 Mn7 2.553862 1_555
Mn8 Mn9 2.553862 1_555
Mn10 Mn3 2.288532 1_555
Mn10 Mn20 2.453729 1_555
Mn10 Mn18 2.453733 1_565
Mn10 Mn22 2.453733 1_556
Mn10 Mn11 2.553862 1_555
Mn10 Mn9 2.553862 1_555
Mn10 Mn8 2.553862 1_555
Mn10 Mn15 2.631296 1_556
Mn10 Mn13 2.631296 1_565
Mn10 Mn17 2.631302 1_566
Mn11 Mn2 2.288534 1_655
Mn11 Mn21 2.453736 1_556
Mn11 Mn20 2.453736 1_655
Mn11 Mn19 2.453736 1_565
Mn11 Mn9 2.553862 1_555
Mn11 Mn8 2.553862 1_555
Mn11 Mn17 2.631299 1_566
Mn11 Mn12 2.631299 1_665
Mn11 Mn16 2.631299 1_656
Mn12 Mn6 2.453733 1_455
Mn12 Mn5 2.453733 1_545
Mn12 Mn8 2.631302 1_445
Mn12 Mn2 2.649554 1_545
Mn13 Mn5 2.453729 1_545
Mn13 Mn7 2.453736 1_555
Mn13 Mn8 2.631296 1_545
Mn13 Mn3 2.649554 1_545
Mn14 Mn6 2.453729 1_455
Mn14 Mn7 2.453736 1_555
Mn14 Mn9 2.631296 1_455
Mn14 Mn8 2.631296 1_455
Mn14 Mn3 2.649554 1_455
Mn14 Mn2 2.649554 1_555
Mn15 Mn4 2.453729 1_554
Mn15 Mn7 2.453736 1_555
Mn15 Mn9 2.631296 1_554
Mn15 Mn3 2.649554 1_554
Mn16 Mn6 2.453733 1_455
Mn16 Mn4 2.453733 1_554
Mn16 Mn9 2.631302 1_454
Mn16 Mn2 2.649554 1_554
Mn17 Mn4 2.453733 1_554
Mn17 Mn5 2.453733 1_545
Mn18 Mn9 2.453733 1_455
Mn18 Mn7 2.631299 1_555
Mn18 Mn4 2.631302 1_555
Mn18 Mn2 2.649554 1_555
Mn19 Mn9 2.453729 1_555
Mn19 Mn6 2.631296 1_555
Mn19 Mn4 2.631296 1_555
Mn19 Mn3 2.649554 1_555
Mn20 Mn5 2.631296 1_555
Mn20 Mn4 2.631296 1_555
Mn20 Mn3 2.649554 1_555
Mn21 Mn8 2.453729 1_555
Mn21 Mn5 2.631296 1_555
Mn21 Mn6 2.631296 1_555
Mn21 Mn3 2.649554 1_555
Mn22 Mn8 2.453733 1_455
Mn22 Mn7 2.631299 1_555
Mn22 Mn5 2.631302 1_555
Mn23 Mn8 2.453733 1_545
Mn23 Mn9 2.453733 1_554
Mn23 Mn7 2.631299 1_555
Mn23 Mn6 2.631302 1_555
C0 Mn13 1.993491 1_555
C0 Mn14 1.993491 1_555
C0 Mn18 1.993491 1_555
C0 Mn20 1.993491 1_545
C0 Mn19 1.993491 1_455
C0 Mn12 1.993491 1_555
C1 Mn15 1.993491 1_555
C1 Mn14 1.993491 1_555
C1 Mn22 1.993491 1_555
C1 Mn20 1.993491 1_554
C1 Mn21 1.993491 1_455
C1 Mn16 1.993491 1_555
C2 Mn15 1.993491 1_555
C2 Mn13 1.993491 1_555
C2 Mn23 1.993491 1_555
C2 Mn19 1.993491 1_554
C2 Mn21 1.993491 1_545
C2 Mn17 1.993491 1_555
C3 Mn16 1.993491 1_555
C3 Mn17 1.993491 1_555
C3 Mn12 1.993491 1_555
C3 Mn23 1.993491 1_455
C3 Mn18 1.993491 1_554
C3 Mn22 1.993491 1_545
