# generated using pymatgen
data_YCrO2
_symmetry_space_group_name_H-M   'P 1'
_cell_length_a   7.31018642
_cell_length_b   7.31018642
_cell_length_c   7.31018642
_cell_angle_alpha   130.45366208
_cell_angle_beta   130.45366208
_cell_angle_gamma   72.68254555
_symmetry_Int_Tables_number   1
_chemical_formula_structural   YCrO2
_chemical_formula_sum   'Y4 Cr4 O8'
_cell_volume   221.00171487
_cell_formula_units_Z   4
loop_
 _symmetry_equiv_pos_site_id
 _symmetry_equiv_pos_as_xyz
  1  'x, y, z'
loop_
 _atom_site_type_symbol
 _atom_site_label
 _atom_site_symmetry_multiplicity
 _atom_site_fract_x
 _atom_site_fract_y
 _atom_site_fract_z
 _atom_site_occupancy
  Y  Y0  1  0.87500000  0.62500000  0.25000000  1
  Y  Y1  1  0.37500000  0.62500000  0.75000000  1
  Y  Y2  1  0.37500000  0.62500000  0.25000000  1
  Y  Y3  1  0.37500000  0.12500000  0.75000000  1
  Cr  Cr0  1  0.37500000  0.12500000  0.25000000  1
  Cr  Cr1  1  0.87500000  0.12500000  0.75000000  1
  Cr  Cr2  1  0.87500000  0.12500000  0.25000000  1
  Cr  Cr3  1  0.87500000  0.62500000  0.75000000  1
  O  O0  1  0.17205300  0.39353300  0.22148000  1
  O  O1  1  0.17205300  0.95057300  0.77852000  1
  O  O2  1  0.14353300  0.42205300  0.72148000  1
  O  O3  1  0.57794700  0.85646700  0.27852000  1
  O  O4  1  0.70057300  0.42205300  0.27852000  1
  O  O5  1  0.57794700  0.29942700  0.72148000  1
  O  O6  1  0.60646700  0.82794700  0.77852000  1
  O  O7  1  0.04942700  0.82794700  0.22148000  1
loop_
_geom_bond_atom_site_label_1
_geom_bond_atom_site_label_2
_geom_bond_distance
_geom_bond_site_symmetry_2
Cr0 O3 2.119876 1_545
Cr0 O5 2.119876 1_555
Cr0 O0 2.119876 1_555
Cr0 O1 2.119876 1_544
Cr1 O3 2.119876 1_545
Cr1 O5 2.119876 1_555
Cr1 O1 2.119876 1_645
Cr1 O0 2.119876 1_656
Cr2 O2 2.119876 1_655
Cr2 O4 2.119876 1_555
Cr2 O6 2.119876 1_544
Cr2 O7 2.119876 1_645
Cr3 O2 2.119876 1_655
Cr3 O6 2.119876 1_555
Cr3 O4 2.119876 1_555
Cr3 O7 2.119876 1_656
O0 Y0 2.358873 1_455
O0 Y1 2.358873 1_555
O0 Y2 2.396431 1_555
O1 Y1 2.358873 1_555
O1 Y0 2.358873 1_455
O1 Y3 2.396431 1_565
O2 Y3 2.358873 1_555
O2 Y2 2.358873 1_556
O2 Y1 2.396431 1_555
O3 Y0 2.358873 1_555
O3 Y1 2.358873 1_554
O3 Y2 2.396431 1_555
O4 Y3 2.358873 1_554
O4 Y2 2.358873 1_555
O4 Y0 2.396431 1_555
O5 Y1 2.358873 1_555
O5 Y0 2.358873 1_556
O5 Y3 2.396431 1_555
O6 Y3 2.358873 1_565
O6 Y2 2.358873 1_555
O6 Y1 2.396431 1_555
O7 Y3 2.358873 1_565
O7 Y2 2.358873 1_555
O7 Y0 2.396431 1_455
