# generated using pymatgen
data_Ce4SnO10
_symmetry_space_group_name_H-M   'P 1'
_cell_length_a   10.15541097
_cell_length_b   10.15541097
_cell_length_c   10.15541097
_cell_angle_alpha   158.35067461
_cell_angle_beta   149.05586932
_cell_angle_gamma   38.08204603
_symmetry_Int_Tables_number   1
_chemical_formula_structural   Ce4SnO10
_chemical_formula_sum   'Ce4 Sn1 O10'
_cell_volume   198.40612297
_cell_formula_units_Z   1
loop_
 _symmetry_equiv_pos_site_id
 _symmetry_equiv_pos_as_xyz
  1  'x, y, z'
loop_
 _atom_site_type_symbol
 _atom_site_label
 _atom_site_symmetry_multiplicity
 _atom_site_fract_x
 _atom_site_fract_y
 _atom_site_fract_z
 _atom_site_occupancy
  Ce  Ce0  1  0.59782400  0.59782400  0.00000000  1
  Ce  Ce1  1  0.19866300  0.19866300  0.00000000  1
  Ce  Ce2  1  0.80133700  0.80133700  0.00000000  1
  Ce  Ce3  1  0.40217600  0.40217600  0.00000000  1
  Sn  Sn0  1  0.00000000  0.00000000  0.00000000  1
  O  O0  1  0.54944800  0.30089100  0.24855700  1
  O  O1  1  0.14847400  0.90499100  0.24348300  1
  O  O2  1  0.76527800  0.50000000  0.26527800  1
  O  O3  1  0.33849200  0.09500900  0.24348300  1
  O  O4  1  0.94766600  0.69910900  0.24855700  1
  O  O5  1  0.05233400  0.30089100  0.75144300  1
  O  O6  1  0.66150800  0.90499100  0.75651700  1
  O  O7  1  0.23472200  0.50000000  0.73472200  1
  O  O8  1  0.85152600  0.09500900  0.75651700  1
  O  O9  1  0.45055200  0.69910900  0.75144300  1
loop_
_geom_bond_atom_site_label_1
_geom_bond_atom_site_label_2
_geom_bond_distance
_geom_bond_site_symmetry_2
Ce0 O8 2.360554 1_554
Ce0 O8 2.360554 1_565
Ce0 O3 2.360554 1_565
Ce0 O3 2.360554 1_554
Ce0 O2 2.365062 1_555
Ce0 O7 2.365062 1_554
Ce0 O9 2.365440 1_554
Ce0 O4 2.365440 1_555
Ce1 O9 2.343864 1_544
Ce1 O4 2.343864 1_444
Ce1 O9 2.343864 1_555
Ce1 O4 2.343864 1_455
Ce1 O0 2.380346 1_555
Ce1 O5 2.380346 1_554
Ce1 O3 2.387672 1_555
Ce1 O8 2.387672 1_454
Ce2 O0 2.343864 1_554
Ce2 O5 2.343864 1_665
Ce2 O0 2.343864 1_565
Ce2 O5 2.343864 1_654
Ce2 O4 2.380346 1_555
Ce2 O9 2.380346 1_554
Ce2 O6 2.387672 1_554
Ce2 O1 2.387672 1_655
Ce3 O6 2.360554 1_544
Ce3 O6 2.360554 1_555
Ce3 O1 2.360554 1_555
Ce3 O1 2.360554 1_544
Ce3 O7 2.365062 1_554
Ce3 O2 2.365062 1_555
Ce3 O5 2.365440 1_554
Ce3 O0 2.365440 1_555
O1 Sn0 2.251197 1_565
O2 Sn0 2.292373 1_655
O2 Sn0 2.292373 1_666
O3 Sn0 2.251197 1_555
O6 Sn0 2.251197 1_666
O7 Sn0 2.292373 1_566
O7 Sn0 2.292373 1_555
O8 Sn0 2.251197 1_656
