# generated using pymatgen
data_BaMn2O5
_symmetry_space_group_name_H-M   'P 1'
_cell_length_a   4.14713800
_cell_length_b   3.85014500
_cell_length_c   6.46183980
_cell_angle_alpha   90.00000000
_cell_angle_beta   108.71703046
_cell_angle_gamma   90.00000000
_symmetry_Int_Tables_number   1
_chemical_formula_structural   BaMn2O5
_chemical_formula_sum   'Ba1 Mn2 O5'
_cell_volume   97.72022227
_cell_formula_units_Z   1
loop_
 _symmetry_equiv_pos_site_id
 _symmetry_equiv_pos_as_xyz
  1  'x, y, z'
loop_
 _atom_site_type_symbol
 _atom_site_label
 _atom_site_symmetry_multiplicity
 _atom_site_fract_x
 _atom_site_fract_y
 _atom_site_fract_z
 _atom_site_occupancy
  Ba  Ba0  1  0.99139000  0.00000000  0.00000000  1
  Mn  Mn0  1  0.65617600  0.50000000  0.32854500  1
  Mn  Mn1  1  0.32763100  0.50000000  0.67145500  1
  O  O0  1  0.49139000  0.50000000  0.00000000  1
  O  O1  1  0.81494300  0.50000000  0.64203600  1
  O  O2  1  0.17290700  0.50000000  0.35796400  1
  O  O3  1  0.63812100  0.00000000  0.29068000  1
  O  O4  1  0.34744100  0.00000000  0.70932000  1
loop_
_geom_bond_atom_site_label_1
_geom_bond_atom_site_label_2
_geom_bond_distance
_geom_bond_site_symmetry_2
Ba0 O4 2.727748 1_554
Ba0 O3 2.727748 1_555
Ba0 O3 2.736505 1_655
Ba0 O4 2.736505 1_654
Ba0 O0 2.829416 1_655
Ba0 O0 2.829416 1_645
Ba0 O0 2.829416 1_555
Ba0 O0 2.829416 1_545
Ba0 O2 2.916422 1_645
Ba0 O2 2.916422 1_655
Ba0 O1 2.916422 1_554
Ba0 O1 2.916422 1_544
Mn0 O1 1.918616 1_555
Mn0 O3 1.938974 1_555
Mn0 O3 1.938974 1_565
Mn0 O0 2.010731 1_555
Mn0 O2 2.073019 1_555
Mn0 O2 2.089723 1_655
Mn1 O2 1.918616 1_555
Mn1 O4 1.938974 1_555
Mn1 O4 1.938974 1_565
Mn1 O0 2.010731 1_556
Mn1 O1 2.073019 1_455
Mn1 O1 2.089723 1_555
