# generated using pymatgen
data_LiV2O5
_symmetry_space_group_name_H-M   'P 1'
_cell_length_a   3.64214200
_cell_length_b   9.89108000
_cell_length_c   11.11862700
_cell_angle_alpha   90.00000000
_cell_angle_beta   90.00000000
_cell_angle_gamma   90.00000000
_symmetry_Int_Tables_number   1
_chemical_formula_structural   LiV2O5
_chemical_formula_sum   'Li4 V8 O20'
_cell_volume   400.54540104
_cell_formula_units_Z   4
loop_
 _symmetry_equiv_pos_site_id
 _symmetry_equiv_pos_as_xyz
  1  'x, y, z'
loop_
 _atom_site_type_symbol
 _atom_site_label
 _atom_site_symmetry_multiplicity
 _atom_site_fract_x
 _atom_site_fract_y
 _atom_site_fract_z
 _atom_site_occupancy
  Li  Li0  1  0.25000000  0.17702100  0.77834900  1
  Li  Li1  1  0.75000000  0.82297900  0.22165100  1
  Li  Li2  1  0.75000000  0.32297900  0.27834900  1
  Li  Li3  1  0.25000000  0.67702100  0.72165100  1
  V  V0  1  0.25000000  0.37682200  0.50412200  1
  V  V1  1  0.75000000  0.62317800  0.49587800  1
  V  V2  1  0.75000000  0.12317800  0.00412200  1
  V  V3  1  0.25000000  0.87682200  0.99587800  1
  V  V4  1  0.25000000  0.06726700  0.40318200  1
  V  V5  1  0.75000000  0.93273300  0.59681800  1
  V  V6  1  0.75000000  0.43273300  0.90318200  1
  V  V7  1  0.25000000  0.56726700  0.09681800  1
  O  O0  1  0.25000000  0.24083600  0.36915600  1
  O  O1  1  0.75000000  0.75916400  0.63084400  1
  O  O2  1  0.75000000  0.25916400  0.86915600  1
  O  O3  1  0.25000000  0.74083600  0.13084400  1
  O  O4  1  0.25000000  0.48106300  0.22254400  1
  O  O5  1  0.75000000  0.51893700  0.77745600  1
  O  O6  1  0.75000000  0.01893700  0.72254400  1
  O  O7  1  0.25000000  0.98106300  0.27745600  1
  O  O8  1  0.25000000  0.28098000  0.62653900  1
  O  O9  1  0.75000000  0.71902000  0.37346100  1
  O  O10  1  0.75000000  0.21902000  0.12653900  1
  O  O11  1  0.25000000  0.78098000  0.87346100  1
  O  O12  1  0.25000000  0.57211500  0.54927200  1
  O  O13  1  0.75000000  0.42788500  0.45072800  1
  O  O14  1  0.75000000  0.92788500  0.04927200  1
  O  O15  1  0.25000000  0.07211500  0.95072800  1
  O  O16  1  0.25000000  0.44088300  0.95599900  1
  O  O17  1  0.75000000  0.55911700  0.04400100  1
  O  O18  1  0.75000000  0.05911700  0.45599900  1
  O  O19  1  0.25000000  0.94088300  0.54400100  1
loop_
_geom_bond_atom_site_label_1
_geom_bond_atom_site_label_2
_geom_bond_distance
_geom_bond_site_symmetry_2
Li0 O8 1.976462 1_555
Li0 O15 2.179474 1_555
Li0 O2 2.235133 1_555
Li0 O2 2.235133 1_455
Li0 O6 2.479153 1_555
Li0 O6 2.479153 1_455
Li1 O9 1.976462 1_555
Li1 O14 2.179474 1_555
Li1 O3 2.235133 1_555
Li1 O3 2.235133 1_655
Li1 O7 2.479153 1_655
Li1 O7 2.479153 1_555
Li2 O10 1.976462 1_555
Li2 O13 2.179474 1_555
Li2 O0 2.235133 1_555
Li2 O0 2.235133 1_655
Li2 O4 2.479153 1_555
Li2 O4 2.479153 1_655
Li3 O11 1.976462 1_555
Li3 O12 2.179474 1_555
Li3 O1 2.235133 1_555
Li3 O1 2.235133 1_455
Li3 O5 2.479153 1_455
Li3 O5 2.479153 1_555
O0 V4 1.757976 1_555
O0 V0 2.015209 1_555
O1 V5 1.757976 1_555
O1 V1 2.015209 1_555
O2 V6 1.757976 1_555
O2 V2 2.015209 1_556
O3 V7 1.757976 1_555
O3 V3 2.015209 1_554
O4 V7 1.637418 1_555
O5 V6 1.637418 1_555
O6 V5 1.637418 1_545
O7 V4 1.637418 1_565
O8 V0 1.658700 1_555
O9 V1 1.658700 1_555
O10 V2 1.658700 1_555
O11 V3 1.658700 1_555
O12 V1 1.980867 1_555
O12 V1 1.980867 1_455
O12 V0 1.995824 1_555
O13 V0 1.980867 1_555
O13 V0 1.980867 1_655
O13 V1 1.995824 1_555
O14 V3 1.980867 1_554
O14 V3 1.980867 1_654
O14 V2 1.995824 1_565
O15 V2 1.980867 1_456
O15 V2 1.980867 1_556
O15 V3 1.995824 1_545
O16 V6 1.915114 1_455
O16 V6 1.915114 1_555
O16 V7 2.003533 1_556
O17 V7 1.915114 1_555
O17 V7 1.915114 1_655
O17 V6 2.003533 1_554
O18 V4 1.915114 1_555
O18 V4 1.915114 1_655
O18 V5 2.003533 1_545
O19 V5 1.915114 1_555
O19 V5 1.915114 1_455
O19 V4 2.003533 1_565
