# generated using pymatgen
data_Te2Mo3WSe6
_symmetry_space_group_name_H-M   'P 1'
_cell_length_a   3.38085138
_cell_length_b   3.38085138
_cell_length_c   38.46378700
_cell_angle_alpha   90.00000000
_cell_angle_beta   90.00000000
_cell_angle_gamma   119.99998782
_symmetry_Int_Tables_number   1
_chemical_formula_structural   Te2Mo3WSe6
_chemical_formula_sum   'Te2 Mo3 W1 Se6'
_cell_volume   380.74559298
_cell_formula_units_Z   1
loop_
 _symmetry_equiv_pos_site_id
 _symmetry_equiv_pos_as_xyz
  1  'x, y, z'
loop_
 _atom_site_type_symbol
 _atom_site_label
 _atom_site_symmetry_multiplicity
 _atom_site_fract_x
 _atom_site_fract_y
 _atom_site_fract_z
 _atom_site_occupancy
  Te  Te0  1  0.66666700  0.33333300  0.42080900  1
  Te  Te1  1  0.66666700  0.33333300  0.51850500  1
  Mo  Mo0  1  0.33333300  0.66666700  0.09392800  1
  Mo  Mo1  1  0.33333300  0.66666700  0.46965900  1
  Mo  Mo2  1  0.66666700  0.33333300  0.28178900  1
  W  W0  1  0.66666700  0.33333300  0.65755400  1
  Se  Se0  1  0.33333300  0.66666700  0.32483400  1
  Se  Se1  1  0.33333300  0.66666700  0.70072900  1
  Se  Se2  1  0.66666700  0.33333300  0.05088000  1
  Se  Se3  1  0.66666700  0.33333300  0.13696900  1
  Se  Se4  1  0.33333300  0.66666700  0.23874700  1
  Se  Se5  1  0.33333300  0.66666700  0.61434500  1
loop_
_geom_bond_atom_site_label_1
_geom_bond_atom_site_label_2
_geom_bond_distance
_geom_bond_site_symmetry_2
Mo0 Se3 2.559451 1_455
Mo0 Se3 2.559451 1_565
Mo0 Se3 2.559456 1_555
Mo0 Se2 2.559626 1_455
Mo0 Se2 2.559626 1_565
Mo0 Se2 2.559630 1_555
Mo1 Te1 2.709233 1_455
Mo1 Te1 2.709233 1_565
Mo1 Te1 2.709237 1_555
Mo1 Te0 2.709340 1_455
Mo1 Te0 2.709340 1_565
Mo1 Te0 2.709344 1_555
Mo2 Se4 2.559476 1_545
Mo2 Se4 2.559476 1_655
Mo2 Se4 2.559480 1_555
Mo2 Se0 2.559551 1_545
Mo2 Se0 2.559551 1_655
Mo2 Se0 2.559555 1_555
Se1 W0 2.562788 1_455
Se1 W0 2.562788 1_565
Se1 W0 2.562792 1_555
Se5 W0 2.563636 1_455
Se5 W0 2.563636 1_565
Se5 W0 2.563640 1_555
