# generated using pymatgen
data_SrMgP3N5O2
_symmetry_space_group_name_H-M   'P 1'
_cell_length_a   6.66258800
_cell_length_b   7.02225100
_cell_length_c   14.14207096
_cell_angle_alpha   61.29003555
_cell_angle_beta   90.00000000
_cell_angle_gamma   90.00000000
_symmetry_Int_Tables_number   1
_chemical_formula_structural   SrMgP3N5O2
_chemical_formula_sum   'Sr4 Mg4 P12 N20 O8'
_cell_volume   580.31383917
_cell_formula_units_Z   4
loop_
 _symmetry_equiv_pos_site_id
 _symmetry_equiv_pos_as_xyz
  1  'x, y, z'
loop_
 _atom_site_type_symbol
 _atom_site_label
 _atom_site_symmetry_multiplicity
 _atom_site_fract_x
 _atom_site_fract_y
 _atom_site_fract_z
 _atom_site_occupancy
  Sr  Sr0  1  0.74524500  0.51662400  0.60902800  1
  Sr  Sr1  1  0.24524500  0.48337600  0.89097200  1
  Sr  Sr2  1  0.25475500  0.48337600  0.39097200  1
  Sr  Sr3  1  0.75475500  0.51662400  0.10902800  1
  Mg  Mg0  1  0.50606400  0.98006100  0.88475800  1
  Mg  Mg1  1  0.00606400  0.01993900  0.61524200  1
  Mg  Mg2  1  0.49393600  0.01993900  0.11524200  1
  Mg  Mg3  1  0.99393600  0.98006100  0.38475800  1
  P  P0  1  0.01611700  0.93725200  0.88063100  1
  P  P1  1  0.51611700  0.06274800  0.61936900  1
  P  P2  1  0.98388300  0.06274800  0.11936900  1
  P  P3  1  0.48388300  0.93725200  0.38063100  1
  P  P4  1  0.27603800  0.74029200  0.58863300  1
  P  P5  1  0.77603800  0.25970800  0.91136700  1
  P  P6  1  0.72396200  0.25970800  0.41136700  1
  P  P7  1  0.22396200  0.74029200  0.08863300  1
  P  P8  1  0.75779400  0.72528700  0.79064100  1
  P  P9  1  0.25779400  0.27471300  0.70935900  1
  P  P10  1  0.24220600  0.27471300  0.20935900  1
  P  P11  1  0.74220600  0.72528700  0.29064100  1
  N  N0  1  0.31063300  0.94320100  0.61279600  1
  N  N1  1  0.81063300  0.05679900  0.88720400  1
  N  N2  1  0.68936700  0.05679900  0.38720400  1
  N  N3  1  0.18936700  0.94320100  0.11279600  1
  N  N4  1  0.70569500  0.89347600  0.66291400  1
  N  N5  1  0.20569500  0.10652400  0.83708600  1
  N  N6  1  0.29430500  0.10652400  0.33708600  1
  N  N7  1  0.79430500  0.89347600  0.16291400  1
  N  N8  1  0.97450300  0.82188700  0.80543500  1
  N  N9  1  0.47450300  0.17811300  0.69456500  1
  N  N10  1  0.02549700  0.17811300  0.19456500  1
  N  N11  1  0.52549700  0.82188700  0.30543500  1
  N  N12  1  0.79814900  0.48791600  0.79974100  1
  N  N13  1  0.29814900  0.51208400  0.70025900  1
  N  N14  1  0.20185100  0.51208400  0.20025900  1
  N  N15  1  0.70185100  0.48791600  0.29974100  1
  N  N16  1  0.57900800  0.26795800  0.50192800  1
  N  N17  1  0.07900800  0.73204200  0.99807200  1
  N  N18  1  0.42099200  0.73204200  0.49807200  1
  N  N19  1  0.92099200  0.26795800  0.00192800  1
  O  O0  1  0.05055500  0.77927800  0.54943000  1
  O  O1  1  0.55055500  0.22072200  0.95057000  1
  O  O2  1  0.94944500  0.22072200  0.45057000  1
  O  O3  1  0.44944500  0.77927800  0.04943000  1
  O  O4  1  0.58809800  0.71383600  0.86968600  1
  O  O5  1  0.08809800  0.28616400  0.63031400  1
  O  O6  1  0.41190200  0.28616400  0.13031400  1
  O  O7  1  0.91190200  0.71383600  0.36968600  1
loop_
_geom_bond_atom_site_label_1
_geom_bond_atom_site_label_2
_geom_bond_distance
_geom_bond_site_symmetry_2
Mg0 O4 2.054757 1_555
Mg0 O3 2.097369 1_556
Mg0 N1 2.104095 1_565
Mg0 N5 2.161687 1_565
Mg0 O1 2.306796 1_565
Mg0 N9 2.370464 1_565
Mg1 O5 2.054757 1_555
Mg1 O2 2.097369 1_455
Mg1 N0 2.104095 1_545
Mg1 N4 2.161687 1_445
Mg1 O0 2.306796 1_545
Mg1 N8 2.370464 1_445
Mg2 O6 2.054757 1_555
Mg2 O1 2.097369 1_554
Mg2 N3 2.104095 1_545
Mg2 N7 2.161687 1_545
Mg2 O3 2.306796 1_545
Mg2 N11 2.370464 1_545
Mg3 O7 2.054757 1_555
Mg3 O0 2.097369 1_655
Mg3 N2 2.104095 1_565
Mg3 N6 2.161687 1_665
Mg3 O2 2.306796 1_565
Mg3 N10 2.370464 1_665
N0 P1 1.631768 1_565
N0 P4 1.633391 1_555
N1 P0 1.631768 1_645
N1 P5 1.633391 1_555
N2 P3 1.631768 1_545
N2 P6 1.633391 1_555
N3 P2 1.631768 1_465
N3 P7 1.633391 1_555
N4 P1 1.638373 1_565
N4 P8 1.651834 1_555
N4 Sr0 3.096911 1_555
N5 P0 1.638373 1_545
N5 P9 1.651834 1_555
N5 Sr1 3.096911 1_555
N6 P3 1.638373 1_545
N6 P10 1.651834 1_555
N6 Sr2 3.096911 1_555
N7 P2 1.638373 1_565
N7 P11 1.651834 1_555
N7 Sr3 3.096911 1_555
N8 P0 1.640652 1_655
N8 P8 1.650747 1_555
N8 Sr1 2.757741 1_655
N9 P1 1.640652 1_555
N9 P9 1.650747 1_555
N9 Sr0 2.757741 1_555
N10 P2 1.640652 1_455
N10 P10 1.650747 1_555
N10 Sr3 2.757741 1_455
N11 P3 1.640652 1_555
N11 P11 1.650747 1_555
N11 Sr2 2.757741 1_555
N12 P5 1.628300 1_555
N12 P8 1.631331 1_555
N12 Sr0 2.629967 1_555
N12 Sr1 3.240285 1_655
N13 P4 1.628300 1_555
N13 P9 1.631331 1_555
N13 Sr1 2.629967 1_555
N13 Sr0 3.240285 1_555
N14 P7 1.628300 1_555
N14 P10 1.631331 1_555
N14 Sr2 2.629967 1_555
N14 Sr3 3.240285 1_455
N15 P6 1.628300 1_555
N15 P11 1.631331 1_555
N15 Sr3 2.629967 1_555
N15 Sr2 3.240285 1_555
N16 P6 1.627143 1_555
N16 P1 1.646569 1_555
N16 Sr2 2.671554 1_555
N16 Sr0 3.018440 1_555
N17 P7 1.627143 1_556
N17 P0 1.646569 1_555
N17 Sr3 2.671554 1_456
N17 Sr1 3.018440 1_555
N18 P4 1.627143 1_555
N18 P3 1.646569 1_555
N18 Sr0 2.671554 1_555
N18 Sr2 3.018440 1_555
N19 P5 1.627143 1_554
N19 P2 1.646569 1_555
N19 Sr1 2.671554 1_654
N19 Sr3 3.018440 1_555
O0 P4 1.579052 1_555
O0 Sr0 2.599330 1_455
O1 P5 1.579052 1_555
O1 Sr1 2.599330 1_555
O2 P6 1.579052 1_555
O2 Sr2 2.599330 1_655
O3 P7 1.579052 1_555
O3 Sr3 2.599330 1_555
O4 P8 1.564610 1_555
O4 Sr1 2.731226 1_555
O4 Sr3 3.178690 1_556
O5 P9 1.564610 1_555
O5 Sr0 2.731226 1_455
O5 Sr2 3.178690 1_555
O6 P10 1.564610 1_555
O6 Sr3 2.731226 1_555
O6 Sr1 3.178690 1_554
O7 P11 1.564610 1_555
O7 Sr2 2.731226 1_655
O7 Sr0 3.178690 1_555
