# generated using pymatgen
data_Ta2VZn2O8
_symmetry_space_group_name_H-M   'P 1'
_cell_length_a   5.31989459
_cell_length_b   5.95425093
_cell_length_c   19.54878245
_cell_angle_alpha   89.97427758
_cell_angle_beta   89.91729640
_cell_angle_gamma   90.00200817
_symmetry_Int_Tables_number   1
_chemical_formula_structural   Ta2VZn2O8
_chemical_formula_sum   'Ta8 V4 Zn8 O32'
_cell_volume   619.22627718
_cell_formula_units_Z   4
loop_
 _symmetry_equiv_pos_site_id
 _symmetry_equiv_pos_as_xyz
  1  'x, y, z'
loop_
 _atom_site_type_symbol
 _atom_site_label
 _atom_site_symmetry_multiplicity
 _atom_site_fract_x
 _atom_site_fract_y
 _atom_site_fract_z
 _atom_site_occupancy
  Ta  Ta0  1  0.73102800  0.15352700  0.11553500  1
  Ta  Ta1  1  0.73102600  0.65352200  0.61553600  1
  Ta  Ta2  1  0.76699800  0.65405300  0.38383000  1
  Ta  Ta3  1  0.76699600  0.15405900  0.88383100  1
  Ta  Ta4  1  0.26698500  0.34377000  0.38374800  1
  Ta  Ta5  1  0.26698900  0.84377400  0.88374800  1
  Ta  Ta6  1  0.23101500  0.84364700  0.11554200  1
  Ta  Ta7  1  0.23101700  0.34364400  0.61554100  1
  V  V0  1  0.74931100  0.64199600  0.99965300  1
  V  V1  1  0.24938500  0.85582600  0.49964300  1
  V  V2  1  0.74931000  0.14196500  0.49965300  1
  V  V3  1  0.24938600  0.35584800  0.99964300  1
  Zn  Zn0  1  0.77074200  0.15175200  0.28210200  1
  Zn  Zn1  1  0.77074100  0.65175200  0.78210000  1
  Zn  Zn2  1  0.72668700  0.65132300  0.21744900  1
  Zn  Zn3  1  0.72668600  0.15132300  0.71744700  1
  Zn  Zn4  1  0.22659400  0.34541100  0.21725200  1
  Zn  Zn5  1  0.22659400  0.84541200  0.71725400  1
  Zn  Zn6  1  0.27080400  0.84566700  0.28194100  1
  Zn  Zn7  1  0.27080500  0.34566700  0.78194300  1
  O  O0  1  0.06555000  0.11315000  0.07043600  1
  O  O1  1  0.06555000  0.61315300  0.57043900  1
  O  O2  1  0.43260400  0.61307000  0.42892000  1
  O  O3  1  0.43260600  0.11306700  0.92892300  1
  O  O4  1  0.93277100  0.38497000  0.42901100  1
  O  O5  1  0.93277000  0.88496800  0.92900700  1
  O  O6  1  0.56539600  0.88464300  0.07032800  1
  O  O7  1  0.56539400  0.38464500  0.57032500  1
  O  O8  1  0.59572900  0.37267900  0.05937600  1
  O  O9  1  0.59571400  0.87266300  0.55937600  1
  O  O10  1  0.90318600  0.87300300  0.43984200  1
  O  O11  1  0.90317400  0.37301800  0.93984200  1
  O  O12  1  0.40322700  0.12503800  0.43987600  1
  O  O13  1  0.40323800  0.62505100  0.93987600  1
  O  O14  1  0.09570400  0.62498100  0.05927700  1
  O  O15  1  0.09571600  0.12496700  0.55927800  1
  O  O16  1  0.42817600  0.10301400  0.17681500  1
  O  O17  1  0.42818000  0.60301500  0.67681500  1
  O  O18  1  0.06931500  0.60324100  0.32244100  1
  O  O19  1  0.06932000  0.10324000  0.82244100  1
  O  O20  1  0.92807100  0.89358200  0.17671600  1
  O  O21  1  0.92806600  0.39358400  0.67671600  1
  O  O22  1  0.56956700  0.39447700  0.32249800  1
  O  O23  1  0.56956300  0.89447400  0.82249800  1
  O  O24  1  0.35635900  0.64845900  0.19377600  1
  O  O25  1  0.35635900  0.14846300  0.69377600  1
  O  O26  1  0.14129000  0.14868300  0.30558000  1
  O  O27  1  0.14129000  0.64867800  0.80558000  1
  O  O28  1  0.64117300  0.84878200  0.30551800  1
  O  O29  1  0.64117300  0.34877700  0.80551700  1
  O  O30  1  0.85619300  0.34824000  0.19388200  1
  O  O31  1  0.85619300  0.84824400  0.69388200  1
loop_
_geom_bond_atom_site_label_1
_geom_bond_atom_site_label_2
_geom_bond_distance
_geom_bond_site_symmetry_2
O0 Ta0 1.999454 1_455
O0 Ta6 2.031861 1_545
O0 V3 2.225793 1_554
O1 Ta1 1.999441 1_455
O1 Ta7 2.031860 1_555
O1 V1 2.225731 1_555
O2 Ta2 1.999097 1_555
O2 Ta4 2.032400 1_555
O2 V1 2.224581 1_555
O3 Ta3 1.999102 1_555
O3 Ta5 2.032388 1_545
O3 V3 2.224644 1_555
O4 Ta4 2.000006 1_655
O4 Ta2 2.031237 1_555
O4 V2 2.224275 1_555
O5 Ta5 1.999991 1_655
O5 Ta3 2.031234 1_565
O5 V0 2.224191 1_555
O6 Ta6 2.000112 1_555
O6 Ta0 2.030775 1_565
O6 V0 2.225199 1_554
O7 Ta7 2.000114 1_555
O7 Ta1 2.030776 1_555
O7 V2 2.225293 1_555
O8 Ta0 1.851248 1_555
O8 V0 2.144198 1_554
O8 V3 2.185114 1_554
O9 Ta1 1.851240 1_555
O9 V2 2.144159 1_565
O9 V1 2.185053 1_555
O10 Ta2 1.851204 1_555
O10 V2 2.144976 1_565
O10 V1 2.185233 1_655
O11 Ta3 1.851209 1_555
O11 V0 2.145021 1_555
O11 V3 2.185289 1_655
O12 Ta4 1.851090 1_555
O12 V1 2.144724 1_545
O12 V2 2.184434 1_555
O13 Ta5 1.851067 1_555
O13 V3 2.144705 1_555
O13 V0 2.184395 1_555
O14 Ta6 1.851126 1_555
O14 V3 2.143461 1_554
O14 V0 2.184206 1_454
O15 Ta7 1.851128 1_555
O15 V1 2.143481 1_545
O15 V2 2.184271 1_455
O16 Zn4 1.963846 1_555
O16 Ta0 2.028642 1_555
O16 Ta6 2.219244 1_545
O17 Zn5 1.963873 1_555
O17 Ta1 2.028600 1_555
O17 Ta7 2.219276 1_555
O18 Zn6 1.963621 1_555
O18 Ta2 2.028085 1_455
O18 Ta4 2.220620 1_555
O19 Zn7 1.963598 1_555
O19 Ta3 2.028132 1_455
O19 Ta5 2.220597 1_545
O20 Zn2 1.964422 1_555
O20 Ta6 2.027478 1_655
O20 Ta0 2.219676 1_565
O21 Zn3 1.964404 1_555
O21 Ta7 2.027523 1_655
O21 Ta1 2.219629 1_555
O22 Zn0 1.963781 1_555
O22 Ta4 2.027328 1_555
O22 Ta2 2.221414 1_555
O23 Zn1 1.963792 1_555
O23 Ta5 2.027288 1_555
O23 Ta3 2.221467 1_565
O24 Zn4 1.985290 1_555
O24 Zn2 2.024453 1_555
O24 Ta6 2.033655 1_555
O24 Zn6 2.134495 1_555
O25 Zn5 1.985316 1_545
O25 Zn3 2.024438 1_555
O25 Ta7 2.033643 1_555
O25 Zn7 2.134512 1_555
O26 Zn6 1.985811 1_545
O26 Zn0 2.024727 1_455
O26 Ta4 2.033714 1_555
O26 Zn4 2.134347 1_555
O27 Zn7 1.985777 1_555
O27 Zn1 2.024742 1_455
O27 Ta5 2.033751 1_555
O27 Zn5 2.134335 1_555
O28 Zn0 1.984236 1_565
O28 Zn6 2.024247 1_555
O28 Ta2 2.034087 1_555
O28 Zn2 2.133757 1_555
O29 Zn1 1.984266 1_555
O29 Zn7 2.024229 1_555
O29 Ta3 2.034076 1_555
O29 Zn3 2.133755 1_555
O30 Zn2 1.985832 1_555
O30 Zn4 2.023473 1_655
O30 Ta0 2.034149 1_555
O30 Zn0 2.132023 1_555
O31 Zn3 1.985803 1_565
O31 Zn5 2.023482 1_655
O31 Ta1 2.034168 1_555
O31 Zn1 2.132005 1_555
