# generated using pymatgen
data_Lu3CrS6
_symmetry_space_group_name_H-M   'P 1'
_cell_length_a   3.68271924
_cell_length_b   13.08619279
_cell_length_c   15.65805516
_cell_angle_alpha   90.00000000
_cell_angle_beta   90.00000000
_cell_angle_gamma   90.00000000
_symmetry_Int_Tables_number   1
_chemical_formula_structural   Lu3CrS6
_chemical_formula_sum   'Lu12 Cr4 S24'
_cell_volume   754.60511307
_cell_formula_units_Z   4
loop_
 _symmetry_equiv_pos_site_id
 _symmetry_equiv_pos_as_xyz
  1  'x, y, z'
loop_
 _atom_site_type_symbol
 _atom_site_label
 _atom_site_symmetry_multiplicity
 _atom_site_fract_x
 _atom_site_fract_y
 _atom_site_fract_z
 _atom_site_occupancy
  Lu  Lu0  1  0.00000000  0.54812490  0.27816260  1
  Lu  Lu1  1  0.00000000  0.45187510  0.72183740  1
  Lu  Lu2  1  0.50000000  0.95187510  0.77816260  1
  Lu  Lu3  1  0.50000000  0.04812490  0.22183740  1
  Lu  Lu4  1  -0.00000000  0.75834961  0.09988060  1
  Lu  Lu5  1  -0.00000000  0.24165039  0.90011940  1
  Lu  Lu6  1  0.50000000  0.74165039  0.59988060  1
  Lu  Lu7  1  0.50000000  0.25834961  0.40011940  1
  Lu  Lu8  1  -0.00000000  0.31754398  0.14720163  1
  Lu  Lu9  1  0.00000000  0.68245602  0.85279837  1
  Lu  Lu10  1  0.50000000  0.18245602  0.64720163  1
  Lu  Lu11  1  0.50000000  0.81754398  0.35279837  1
  Cr  Cr0  1  -0.00000000  -0.00000000  0.50000000  1
  Cr  Cr1  1  0.50000000  0.50000000  0.00000000  1
  Cr  Cr2  1  0.00000000  -0.00000000  0.00000000  1
  Cr  Cr3  1  0.50000000  0.50000000  0.50000000  1
  S  S0  1  0.00000000  0.11904857  0.11023500  1
  S  S1  1  -0.00000000  0.88095143  0.88976500  1
  S  S2  1  0.50000000  0.38095143  0.61023500  1
  S  S3  1  0.50000000  0.61904857  0.38976500  1
  S  S4  1  0.00000000  0.18852031  0.28980341  1
  S  S5  1  -0.00000000  0.81147969  0.71019659  1
  S  S6  1  0.50000000  0.31147969  0.78980341  1
  S  S7  1  0.50000000  0.68852031  0.21019659  1
  S  S8  1  -0.00000000  0.18281903  0.51983008  1
  S  S9  1  0.00000000  0.81718097  0.48016992  1
  S  S10  1  0.50000000  0.31718097  0.01983008  1
  S  S11  1  0.50000000  0.68281903  0.98016992  1
  S  S12  1  -0.00000000  0.51911112  0.09976331  1
  S  S13  1  0.00000000  0.48088888  0.90023669  1
  S  S14  1  0.50000000  0.98088888  0.59976331  1
  S  S15  1  0.50000000  0.01911112  0.40023669  1
  S  S16  1  0.00000000  0.10513019  0.75298322  1
  S  S17  1  -0.00000000  0.89486981  0.24701678  1
  S  S18  1  0.50000000  0.39486981  0.25298322  1
  S  S19  1  0.50000000  0.60513019  0.74701678  1
  S  S20  1  0.00000000  0.41574618  0.42414055  1
  S  S21  1  -0.00000000  0.58425382  0.57585945  1
  S  S22  1  0.50000000  0.08425382  0.92414055  1
  S  S23  1  0.50000000  0.91574618  0.07585945  1
loop_
_geom_bond_atom_site_label_1
_geom_bond_atom_site_label_2
_geom_bond_distance
_geom_bond_site_symmetry_2
Lu0 S3 2.702904 1_455
Lu0 S3 2.702904 1_555
Lu0 S18 2.751032 1_455
Lu0 S18 2.751032 1_555
Lu0 S7 2.810448 1_455
Lu0 S7 2.810448 1_555
Lu0 S12 2.819071 1_555
Lu0 S20 2.868021 1_555
Lu1 S2 2.702904 1_455
Lu1 S2 2.702904 1_555
Lu1 S19 2.751032 1_455
Lu1 S19 2.751032 1_555
Lu1 S6 2.810448 1_455
Lu1 S6 2.810448 1_555
Lu1 S13 2.819071 1_555
Lu1 S21 2.868021 1_555
Lu2 S1 2.702904 1_555
Lu2 S1 2.702904 1_655
Lu2 S16 2.751032 1_565
Lu2 S16 2.751032 1_665
Lu2 S5 2.810448 1_555
Lu2 S5 2.810448 1_655
Lu2 S14 2.819071 1_555
Lu2 S22 2.868021 1_565
Lu3 S0 2.702904 1_555
Lu3 S0 2.702904 1_655
Lu3 S17 2.751032 1_645
Lu3 S17 2.751032 1_545
Lu3 S4 2.810448 1_655
Lu3 S4 2.810448 1_555
Lu3 S15 2.819071 1_555
Lu3 S23 2.868021 1_545
Lu4 S7 2.685017 1_555
Lu4 S7 2.685017 1_455
Lu4 S23 2.788284 1_455
Lu4 S23 2.788284 1_555
Lu4 S11 2.807324 1_454
Lu4 S11 2.807324 1_554
Lu4 S17 2.915388 1_555
Lu4 S12 3.130722 1_555
Lu5 S6 2.685017 1_555
Lu5 S6 2.685017 1_455
Lu5 S22 2.788284 1_455
Lu5 S22 2.788284 1_555
Lu5 S10 2.807324 1_456
Lu5 S10 2.807324 1_556
Lu5 S16 2.915388 1_555
Lu5 S13 3.130722 1_555
Lu6 S5 2.685017 1_555
Lu6 S5 2.685017 1_655
Lu6 S21 2.788284 1_555
Lu6 S21 2.788284 1_655
Lu6 S9 2.807324 1_555
Lu6 S9 2.807324 1_655
Lu6 S19 2.915388 1_555
Lu6 S14 3.130722 1_555
Lu7 S4 2.685017 1_655
Lu7 S4 2.685017 1_555
Lu7 S20 2.788284 1_555
Lu7 S20 2.788284 1_655
Lu7 S8 2.807324 1_555
Lu7 S8 2.807324 1_655
Lu7 S18 2.915388 1_555
Lu7 S15 3.130722 1_555
Lu8 S0 2.661259 1_555
Lu8 S18 2.675442 1_455
Lu8 S18 2.675442 1_555
Lu8 S10 2.714447 1_455
Lu8 S10 2.714447 1_555
Lu8 S12 2.740337 1_555
Lu8 S4 2.799372 1_555
Lu9 S1 2.661259 1_555
Lu9 S19 2.675442 1_555
Lu9 S19 2.675442 1_455
Lu9 S11 2.714447 1_555
Lu9 S11 2.714447 1_455
Lu9 S13 2.740337 1_555
Lu9 S5 2.799372 1_555
Lu10 S2 2.661259 1_555
Lu10 S16 2.675442 1_555
Lu10 S16 2.675442 1_655
Lu10 S8 2.714447 1_655
Lu10 S8 2.714447 1_555
Lu10 S14 2.740337 1_545
Lu10 S6 2.799372 1_555
Lu11 S3 2.661259 1_555
Lu11 S17 2.675442 1_555
Lu11 S17 2.675442 1_655
Lu11 S9 2.714447 1_655
Lu11 S9 2.714447 1_555
Lu11 S15 2.740337 1_565
Lu11 S7 2.799372 1_555
Cr0 S9 2.412470 1_545
Cr0 S8 2.412470 1_555
Cr0 S15 2.427613 1_555
Cr0 S15 2.427613 1_455
Cr0 S14 2.427613 1_445
Cr0 S14 2.427613 1_545
Cr1 S10 2.412470 1_555
Cr1 S11 2.412470 1_554
Cr1 S12 2.427613 1_655
Cr1 S12 2.427613 1_555
Cr1 S13 2.427613 1_554
Cr1 S13 2.427613 1_654
Cr2 S1 2.325152 1_544
Cr2 S0 2.325152 1_555
Cr2 S22 2.452987 1_554
Cr2 S23 2.452987 1_445
Cr2 S23 2.452987 1_545
Cr2 S22 2.452987 1_454
Cr3 S2 2.325152 1_555
Cr3 S3 2.325152 1_555
Cr3 S20 2.452987 1_655
Cr3 S20 2.452987 1_555
Cr3 S21 2.452987 1_555
Cr3 S21 2.452987 1_655
