# generated using pymatgen
data_Pr5Te7WCl3O23
_symmetry_space_group_name_H-M   'P 1'
_cell_length_a   10.08550719
_cell_length_b   10.08550719
_cell_length_c   18.62880302
_cell_angle_alpha   87.28896233
_cell_angle_beta   87.28896233
_cell_angle_gamma   134.68883544
_symmetry_Int_Tables_number   1
_chemical_formula_structural   Pr5Te7WCl3O23
_chemical_formula_sum   'Pr10 Te14 W2 Cl6 O46'
_cell_volume   1336.94066733
_cell_formula_units_Z   2
loop_
 _symmetry_equiv_pos_site_id
 _symmetry_equiv_pos_as_xyz
  1  'x, y, z'
loop_
 _atom_site_type_symbol
 _atom_site_label
 _atom_site_symmetry_multiplicity
 _atom_site_fract_x
 _atom_site_fract_y
 _atom_site_fract_z
 _atom_site_occupancy
  Pr  Pr0  1  0.23787900  0.76212100  0.50000000  1
  Pr  Pr1  1  0.75858000  0.24142000  0.50000000  1
  Pr  Pr2  1  0.18078400  0.70051800  0.73806000  1
  Pr  Pr3  1  0.70049500  0.18336400  0.73817700  1
  Pr  Pr4  1  0.81663600  0.29950500  0.26182300  1
  Pr  Pr5  1  0.29948200  0.81921600  0.26194000  1
  Pr  Pr6  1  0.74453500  0.52181900  0.86296400  1
  Pr  Pr7  1  0.52168400  0.74438600  0.86334100  1
  Pr  Pr8  1  0.25561400  0.47831600  0.13665900  1
  Pr  Pr9  1  0.47818100  0.25546500  0.13703600  1
  Te  Te0  1  0.29951400  0.95886400  0.88971700  1
  Te  Te1  1  0.95891300  0.29928000  0.88969100  1
  Te  Te2  1  0.70072000  0.04108700  0.11030900  1
  Te  Te3  1  0.04113600  0.70048600  0.11028300  1
  Te  Te4  1  0.99569600  0.99569600  0.76238100  1
  Te  Te5  1  0.00430400  0.00430400  0.23761900  1
  Te  Te6  1  0.84968700  0.63761900  0.64249000  1
  Te  Te7  1  0.63446100  0.84698800  0.64392700  1
  Te  Te8  1  0.15301200  0.36553900  0.35607300  1
  Te  Te9  1  0.36238100  0.15031300  0.35751000  1
  Te  Te10  1  0.40772300  0.16407500  0.61459500  1
  Te  Te11  1  0.16542300  0.40968300  0.61528500  1
  Te  Te12  1  0.59031700  0.83457700  0.38471500  1
  Te  Te13  1  0.83592500  0.59227700  0.38540500  1
  W  W0  1  0.26401800  0.26397100  0.97685700  1
  W  W1  1  0.73603000  0.73598200  0.02314300  1
  Cl  Cl0  1  0.43750800  0.43850900  0.71393000  1
  Cl  Cl1  1  0.56149100  0.56249200  0.28607000  1
  Cl  Cl2  1  0.49938900  0.50061100  0.50000000  1
  Cl  Cl3  1  0.69788800  0.30211200  0.00000000  1
  Cl  Cl4  1  0.30212600  0.69787400  0.00000000  1
  Cl  Cl5  1  0.03976100  0.96023900  0.50000000  1
  O  O0  1  0.07371100  0.70344100  0.61451600  1
  O  O1  1  0.70615900  0.07279900  0.61308300  1
  O  O2  1  0.92720100  0.29384100  0.38691700  1
  O  O3  1  0.29655900  0.92628900  0.38548400  1
  O  O4  1  0.03801000  0.89081900  0.69276400  1
  O  O5  1  0.89036700  0.03690500  0.69227400  1
  O  O6  1  0.96309500  0.10963300  0.30772600  1
  O  O7  1  0.10918100  0.96199000  0.30723600  1
  O  O8  1  0.41409600  0.89657100  0.83653100  1
  O  O9  1  0.89629500  0.41377900  0.83659300  1
  O  O10  1  0.58622100  0.10370500  0.16340700  1
  O  O11  1  0.10342900  0.58590400  0.16346900  1
  O  O12  1  0.40499000  0.02816500  0.69054100  1
  O  O13  1  0.02813100  0.40492000  0.69091000  1
  O  O14  1  0.59508000  0.97186900  0.30909000  1
  O  O15  1  0.97183500  0.59501000  0.30945900  1
  O  O16  1  0.48437600  0.48437900  0.92297900  1
  O  O17  1  0.51562100  0.51562400  0.07702100  1
  O  O18  1  0.47824400  0.20436200  0.84120500  1
  O  O19  1  0.20440300  0.47822400  0.84129300  1
  O  O20  1  0.52177600  0.79559700  0.15870700  1
  O  O21  1  0.79563800  0.52175600  0.15879500  1
  O  O22  1  0.09773500  0.81724400  0.83037600  1
  O  O23  1  0.81706000  0.09772200  0.83021700  1
  O  O24  1  0.90227800  0.18294000  0.16978300  1
  O  O25  1  0.18275600  0.90226500  0.16962400  1
  O  O26  1  0.68452400  0.35827000  0.60955700  1
  O  O27  1  0.35891700  0.68508500  0.60984600  1
  O  O28  1  0.31491500  0.64108300  0.39015400  1
  O  O29  1  0.64173000  0.31547600  0.39044300  1
  O  O30  1  0.10977800  0.10976100  0.91334000  1
  O  O31  1  0.89023900  0.89022200  0.08666000  1
  O  O32  1  0.82515800  0.51835900  0.73359200  1
  O  O33  1  0.51748400  0.82432000  0.73399200  1
  O  O34  1  0.17568000  0.48251600  0.26600800  1
  O  O35  1  0.48164100  0.17484200  0.26640800  1
  O  O36  1  0.14616300  0.30804700  0.03051400  1
  O  O37  1  0.30806900  0.14617600  0.03053800  1
  O  O38  1  0.85382400  0.69193100  0.96946200  1
  O  O39  1  0.69195300  0.85383700  0.96948600  1
  O  O40  1  0.43293300  0.06869800  0.53582500  1
  O  O41  1  0.06804900  0.42851500  0.53535300  1
  O  O42  1  0.57148500  0.93195100  0.46464700  1
  O  O43  1  0.93130200  0.56706700  0.46417500  1
  O  O44  1  0.76588500  0.76607000  0.81102600  1
  O  O45  1  0.23393000  0.23411500  0.18897400  1
loop_
_geom_bond_atom_site_label_1
_geom_bond_atom_site_label_2
_geom_bond_distance
_geom_bond_site_symmetry_2
Cl3 Pr6 3.087598 1_554
Cl3 Pr9 3.087598 1_555
Cl4 Pr8 3.081757 1_555
Cl4 Pr7 3.081757 1_554
O0 Te6 1.887698 1_455
O0 Pr0 2.410564 1_555
O0 Pr2 2.595628 1_555
O1 Te7 1.886876 1_545
O1 Pr1 2.429105 1_555
O1 Pr3 2.645766 1_555
O2 Te8 1.886876 1_655
O2 Pr1 2.429105 1_555
O2 Pr4 2.645766 1_555
O3 Te9 1.887698 1_565
O3 Pr0 2.410564 1_555
O3 Pr5 2.595628 1_555
O4 Te4 1.922275 1_455
O4 Te6 2.139699 1_455
O5 Te4 1.925551 1_545
O5 Te7 2.138019 1_545
O6 Te5 1.925551 1_655
O6 Te8 2.138019 1_655
O7 Te5 1.922275 1_565
O7 Te9 2.139699 1_565
O8 Te0 1.919260 1_555
O8 Pr7 2.470600 1_555
O8 Pr2 2.649338 1_555
O8 Pr3 2.704354 1_565
O9 Te1 1.920302 1_555
O9 Pr6 2.469123 1_555
O9 Pr3 2.636697 1_555
O9 Pr2 2.700718 1_655
O10 Te2 1.920302 1_555
O10 Pr9 2.469123 1_555
O10 Pr4 2.636697 1_555
O10 Pr5 2.700718 1_545
O11 Te3 1.919260 1_555
O11 Pr8 2.470600 1_555
O11 Pr5 2.649338 1_555
O11 Pr4 2.704354 1_455
O12 Te10 1.908132 1_555
O12 Pr2 2.416731 1_545
O12 Pr3 2.437223 1_555
O13 Te11 1.902584 1_555
O13 Pr3 2.416751 1_455
O13 Pr2 2.439179 1_555
O14 Te12 1.902584 1_555
O14 Pr4 2.416751 1_565
O14 Pr5 2.439179 1_555
O15 Te13 1.908132 1_555
O15 Pr5 2.416731 1_655
O15 Pr4 2.437223 1_555
O16 W0 1.875448 1_555
O16 Pr7 2.559179 1_555
O16 Pr6 2.562436 1_555
O17 W1 1.875452 1_555
O17 Pr8 2.559179 1_555
O17 Pr9 2.562436 1_555
O18 Te0 1.884996 1_545
O18 Pr6 2.399920 1_555
O18 Pr3 3.008662 1_555
O19 Te1 1.884180 1_455
O19 Pr7 2.400229 1_555
O20 Te2 1.884180 1_565
O20 Pr8 2.400229 1_555
O21 Te3 1.884996 1_655
O21 Pr9 2.399920 1_555
O21 Pr4 3.008662 1_555
O22 Te0 1.917654 1_555
O22 Pr2 2.546977 1_555
O22 Pr6 2.575159 1_455
O23 Te1 1.918102 1_555
O23 Pr3 2.558665 1_555
O23 Pr7 2.577012 1_545
O24 Te2 1.918102 1_555
O24 Pr4 2.558665 1_555
O24 Pr8 2.577012 1_655
O25 Te3 1.917654 1_555
O25 Pr5 2.546977 1_555
O25 Pr9 2.575159 1_565
O26 Te10 1.976288 1_555
O26 Te6 2.179007 1_555
O26 Pr1 2.726422 1_555
O26 Pr3 2.985802 1_555
O27 Te11 1.965778 1_555
O27 Te7 2.162121 1_555
O27 Pr0 2.775080 1_555
O27 Pr2 2.996535 1_555
O28 Te12 1.965778 1_555
O28 Te8 2.162121 1_555
O28 Pr0 2.775080 1_555
O28 Pr5 2.996535 1_555
O29 Te13 1.976288 1_555
O29 Te9 2.179007 1_555
O29 Pr1 2.726422 1_555
O29 Pr4 2.985802 1_555
O30 W0 1.784420 1_555
O31 W1 1.784417 1_555
O32 Te6 1.933082 1_555
O32 Pr6 2.516583 1_555
O32 Pr3 2.644018 1_555
O32 Pr2 2.649729 1_655
O33 Te7 1.912134 1_555
O33 Pr7 2.516325 1_555
O33 Pr2 2.664440 1_555
O33 Pr3 2.676771 1_565
O34 Te8 1.912134 1_555
O34 Pr8 2.516325 1_555
O34 Pr5 2.664440 1_555
O34 Pr4 2.676771 1_455
O35 Te9 1.933082 1_555
O35 Pr9 2.516583 1_555
O35 Pr4 2.644018 1_555
O35 Pr5 2.649729 1_545
O36 W0 1.811735 1_554
O36 Pr8 2.436984 1_555
O37 W0 1.811303 1_554
O37 Pr9 2.442018 1_555
O38 W1 1.811295 1_556
O38 Pr6 2.442018 1_555
O39 W1 1.811743 1_556
O39 Pr7 2.436984 1_555
O40 Te10 1.893519 1_555
O40 Pr0 2.374835 1_545
O40 Pr1 2.429470 1_555
O41 Te11 1.895175 1_555
O41 Pr1 2.400899 1_455
O41 Pr0 2.503191 1_555
O42 Te12 1.895175 1_555
O42 Pr1 2.400899 1_565
O42 Pr0 2.503191 1_555
O43 Te13 1.893519 1_555
O43 Pr0 2.374835 1_655
O43 Pr1 2.429470 1_555
O44 Te4 1.899905 1_555
O44 Pr7 2.461431 1_555
O44 Pr6 2.461622 1_555
O45 Te5 1.899905 1_555
O45 Pr8 2.461431 1_555
O45 Pr9 2.461622 1_555
