# generated using pymatgen
data_RbMg14GaO16
_symmetry_space_group_name_H-M   'P 1'
_cell_length_a   8.71411619
_cell_length_b   8.55732578
_cell_length_c   4.48188969
_cell_angle_alpha   90.00000000
_cell_angle_beta   90.00000000
_cell_angle_gamma   90.00000000
_symmetry_Int_Tables_number   1
_chemical_formula_structural   RbMg14GaO16
_chemical_formula_sum   'Rb1 Mg14 Ga1 O16'
_cell_volume   334.21241273
_cell_formula_units_Z   1
loop_
 _symmetry_equiv_pos_site_id
 _symmetry_equiv_pos_as_xyz
  1  'x, y, z'
loop_
 _atom_site_type_symbol
 _atom_site_label
 _atom_site_symmetry_multiplicity
 _atom_site_fract_x
 _atom_site_fract_y
 _atom_site_fract_z
 _atom_site_occupancy
  Rb  Rb0  1  0.00000000  0.00000000  0.00000000  1
  Mg  Mg0  1  0.50000000  0.00000000  0.00000000  1
  Mg  Mg1  1  0.50000000  0.50000000  0.00000000  1
  Mg  Mg2  1  0.00000000  0.24929778  0.50000000  1
  Mg  Mg3  1  0.00000000  0.75070222  0.50000000  1
  Mg  Mg4  1  0.50000000  0.24869204  0.50000000  1
  Mg  Mg5  1  0.50000000  0.75130796  0.50000000  1
  Mg  Mg6  1  0.25481839  0.00000000  0.50000000  1
  Mg  Mg7  1  0.25207526  0.50000000  0.50000000  1
  Mg  Mg8  1  0.74518161  0.00000000  0.50000000  1
  Mg  Mg9  1  0.74792474  0.50000000  0.50000000  1
  Mg  Mg10  1  0.25763474  0.24894401  0.00000000  1
  Mg  Mg11  1  0.25763474  0.75105599  0.00000000  1
  Mg  Mg12  1  0.74236526  0.24894401  -0.00000000  1
  Mg  Mg13  1  0.74236526  0.75105599  0.00000000  1
  Ga  Ga0  1  0.00000000  0.50000000  0.00000000  1
  O  O0  1  0.28020213  0.00000000  0.00000000  1
  O  O1  1  0.24951935  0.50000000  0.00000000  1
  O  O2  1  0.71979787  0.00000000  -0.00000000  1
  O  O3  1  0.75048065  0.50000000  -0.00000000  1
  O  O4  1  0.24866821  0.25099723  0.50000000  1
  O  O5  1  0.24866821  0.74900277  0.50000000  1
  O  O6  1  0.75133179  0.25099723  0.50000000  1
  O  O7  1  0.75133179  0.74900277  0.50000000  1
  O  O8  1  0.00000000  0.00000000  0.50000000  1
  O  O9  1  0.00000000  0.50000000  0.50000000  1
  O  O10  1  0.50000000  0.00000000  0.50000000  1
  O  O11  1  0.50000000  0.50000000  0.50000000  1
  O  O12  1  0.00000000  0.28668864  0.00000000  1
  O  O13  1  0.00000000  0.71331136  -0.00000000  1
  O  O14  1  0.50000000  0.25842350  -0.00000000  1
  O  O15  1  0.50000000  0.74157650  0.00000000  1
loop_
_geom_bond_atom_site_label_1
_geom_bond_atom_site_label_2
_geom_bond_distance
_geom_bond_site_symmetry_2
Mg0 O2 1.915344 1_555
Mg0 O0 1.915344 1_555
Mg0 O14 2.211414 1_555
Mg0 O15 2.211414 1_545
Mg0 O10 2.240945 1_555
Mg0 O10 2.240945 1_554
Mg1 O15 2.067249 1_555
Mg1 O14 2.067249 1_555
Mg1 O3 2.182717 1_555
Mg1 O1 2.182717 1_555
Mg1 O11 2.240945 1_555
Mg1 O11 2.240945 1_554
Mg2 O8 2.133322 1_555
Mg2 O9 2.145341 1_555
Mg2 O6 2.166972 1_455
Mg2 O4 2.166972 1_555
Mg2 O12 2.263672 1_555
Mg2 O12 2.263672 1_556
Mg3 O8 2.133322 1_565
Mg3 O9 2.145341 1_555
Mg3 O7 2.166972 1_455
Mg3 O5 2.166972 1_555
Mg3 O13 2.263672 1_555
Mg3 O13 2.263672 1_556
Mg4 O10 2.128139 1_555
Mg4 O11 2.150524 1_555
Mg4 O4 2.190223 1_555
Mg4 O6 2.190223 1_555
Mg4 O14 2.242492 1_556
Mg4 O14 2.242492 1_555
Mg5 O10 2.128139 1_565
Mg5 O11 2.150524 1_555
Mg5 O5 2.190223 1_555
Mg5 O7 2.190223 1_555
Mg5 O15 2.242492 1_556
Mg5 O15 2.242492 1_555
Mg6 O10 2.136541 1_555
Mg6 O5 2.148534 1_545
Mg6 O4 2.148534 1_555
Mg6 O8 2.220517 1_555
Mg6 O0 2.251835 1_555
Mg6 O0 2.251835 1_556
Mg7 O4 2.131005 1_555
Mg7 O5 2.131005 1_555
Mg7 O11 2.160445 1_555
Mg7 O9 2.196613 1_555
Mg7 O1 2.241056 1_555
Mg7 O1 2.241056 1_556
Mg8 O10 2.136541 1_555
Mg8 O7 2.148534 1_545
Mg8 O6 2.148534 1_555
Mg8 O8 2.220517 1_655
Mg8 O2 2.251835 1_556
Mg8 O2 2.251835 1_555
Mg9 O6 2.131005 1_555
Mg9 O7 2.131005 1_555
Mg9 O11 2.160445 1_555
Mg9 O9 2.196613 1_655
Mg9 O3 2.241056 1_556
Mg9 O3 2.241056 1_555
Mg10 O14 2.113556 1_555
Mg10 O0 2.139353 1_555
Mg10 O1 2.149532 1_555
Mg10 O4 2.242375 1_555
Mg10 O4 2.242375 1_554
Mg10 O12 2.268174 1_555
Mg11 O15 2.113556 1_555
Mg11 O0 2.139353 1_565
Mg11 O1 2.149532 1_555
Mg11 O5 2.242375 1_555
Mg11 O5 2.242375 1_554
Mg11 O13 2.268174 1_555
Mg12 O14 2.113556 1_555
Mg12 O2 2.139353 1_555
Mg12 O3 2.149532 1_555
Mg12 O6 2.242375 1_555
Mg12 O6 2.242375 1_554
Mg12 O12 2.268174 1_655
Mg13 O15 2.113556 1_555
Mg13 O2 2.139353 1_565
Mg13 O3 2.149532 1_555
Mg13 O7 2.242375 1_555
Mg13 O7 2.242375 1_554
Mg13 O13 2.268174 1_655
Ga0 O13 1.825375 1_555
Ga0 O12 1.825375 1_555
Ga0 O1 2.174341 1_555
Ga0 O3 2.174341 1_455
Ga0 O9 2.240945 1_554
Ga0 O9 2.240945 1_555
O0 Rb0 2.441714 1_555
O2 Rb0 2.441714 1_655
O8 Rb0 2.240945 1_555
O8 Rb0 2.240945 1_556
O12 Rb0 2.453288 1_555
O13 Rb0 2.453288 1_565
