# generated using pymatgen
data_Li2FeWO6
_symmetry_space_group_name_H-M   'P 1'
_cell_length_a   5.06845315
_cell_length_b   7.59158752
_cell_length_c   5.38823690
_cell_angle_alpha   85.50660838
_cell_angle_beta   90.03800890
_cell_angle_gamma   89.20639115
_symmetry_Int_Tables_number   1
_chemical_formula_structural   Li2FeWO6
_chemical_formula_sum   'Li4 Fe2 W2 O12'
_cell_volume   206.66906680
_cell_formula_units_Z   2
loop_
 _symmetry_equiv_pos_site_id
 _symmetry_equiv_pos_as_xyz
  1  'x, y, z'
loop_
 _atom_site_type_symbol
 _atom_site_label
 _atom_site_symmetry_multiplicity
 _atom_site_fract_x
 _atom_site_fract_y
 _atom_site_fract_z
 _atom_site_occupancy
  Li  Li0  1  0.99849500  0.28673400  0.58150800  1
  Li  Li1  1  0.49849500  0.78673400  0.08149700  1
  Li  Li2  1  0.49971300  0.28631600  0.07301500  1
  Li  Li3  1  0.99969100  0.78632800  0.57304000  1
  Fe  Fe0  1  0.50130900  0.50466300  0.50433800  1
  Fe  Fe1  1  0.00130100  0.00464000  0.00428200  1
  W  W0  1  0.50149200  0.00293500  0.50503700  1
  W  W1  1  0.00146800  0.50292500  0.00501600  1
  O  O0  1  0.19850800  0.92793500  0.29586300  1
  O  O1  1  0.69847900  0.42791400  0.79583800  1
  O  O2  1  0.18235400  0.55209300  0.67691100  1
  O  O3  1  0.68234500  0.05213000  0.17690700  1
  O  O4  1  0.11580900  0.25564200  0.98057600  1
  O  O5  1  0.61583700  0.75564800  0.48057000  1
  O  O6  1  0.37456900  0.23785500  0.47911700  1
  O  O7  1  0.87458200  0.73787300  0.97912000  1
  O  O8  1  0.30830000  0.93140900  0.80024900  1
  O  O9  1  0.80828000  0.43141100  0.30021200  1
  O  O10  1  0.31950000  0.54999200  0.17465800  1
  O  O11  1  0.81947300  0.05001700  0.67464000  1
loop_
_geom_bond_atom_site_label_1
_geom_bond_atom_site_label_2
_geom_bond_distance
_geom_bond_site_symmetry_2
Li0 O6 2.022182 1_655
Li0 O9 2.034946 1_555
Li0 O11 2.051590 1_555
Li0 O1 2.223920 1_555
Li0 O4 2.224371 1_655
Li0 O2 2.324753 1_655
Li1 O7 2.022196 1_554
Li1 O8 2.034710 1_554
Li1 O10 2.051719 1_555
Li1 O0 2.224010 1_555
Li1 O5 2.224433 1_555
Li1 O3 2.324995 1_565
Li2 O4 2.029258 1_554
Li2 O3 2.031928 1_555
Li2 O1 2.044853 1_554
Li2 O6 2.282091 1_555
Li2 O10 2.294106 1_555
Li2 O9 2.326882 1_555
Li3 O5 2.029064 1_555
Li3 O2 2.032289 1_655
Li3 O0 2.045015 1_655
Li3 O7 2.281925 1_555
Li3 O11 2.294132 1_565
Li3 O8 2.327007 1_655
Fe0 O1 1.908815 1_555
Fe0 O2 1.909464 1_555
Fe0 O5 1.994069 1_555
Fe0 O9 2.003458 1_555
Fe0 O10 2.004096 1_555
Fe0 O6 2.147745 1_555
Fe1 O0 1.909183 1_545
Fe1 O3 1.909707 1_455
Fe1 O4 1.994165 1_554
Fe1 O8 2.003233 1_544
Fe1 O11 2.003996 1_454
Fe1 O7 2.147371 1_444
O0 W0 2.018716 1_565
O1 W1 2.018776 1_656
O2 W1 2.003397 1_556
O3 W0 2.003462 1_555
O4 W1 1.971305 1_556
O5 W0 1.971360 1_565
O6 W0 1.882283 1_555
O7 W1 1.882420 1_656
O8 W0 1.914509 1_565
O9 W1 1.914408 1_655
O10 W1 1.904388 1_555
O11 W0 1.904092 1_555
