# generated using pymatgen
data_KEuDyBiO6
_symmetry_space_group_name_H-M   'P 1'
_cell_length_a   6.11546303
_cell_length_b   6.11546303
_cell_length_c   6.11546303
_cell_angle_alpha   60.00000000
_cell_angle_beta   60.00000000
_cell_angle_gamma   60.00000000
_symmetry_Int_Tables_number   1
_chemical_formula_structural   KEuDyBiO6
_chemical_formula_sum   'K1 Eu1 Dy1 Bi1 O6'
_cell_volume   161.72346502
_cell_formula_units_Z   1
loop_
 _symmetry_equiv_pos_site_id
 _symmetry_equiv_pos_as_xyz
  1  'x, y, z'
loop_
 _atom_site_type_symbol
 _atom_site_label
 _atom_site_symmetry_multiplicity
 _atom_site_fract_x
 _atom_site_fract_y
 _atom_site_fract_z
 _atom_site_occupancy
  K  K0  1  0.25000000  0.25000000  0.25000000  1
  Eu  Eu0  1  0.75000000  0.75000000  0.75000000  1
  Dy  Dy0  1  0.50000000  0.50000000  0.50000000  1
  Bi  Bi0  1  0.00000000  0.00000000  -0.00000000  1
  O  O0  1  0.75584582  0.24415418  0.24415418  1
  O  O1  1  0.24415418  0.75584582  0.75584582  1
  O  O2  1  0.75584582  0.24415418  0.75584582  1
  O  O3  1  0.24415418  0.75584582  0.24415418  1
  O  O4  1  0.75584582  0.75584582  0.24415418  1
  O  O5  1  0.24415418  0.24415418  0.75584582  1
loop_
_geom_bond_atom_site_label_1
_geom_bond_atom_site_label_2
_geom_bond_distance
_geom_bond_site_symmetry_2
K0 O4 3.058149 1_545
K0 O4 3.058149 1_455
K0 O5 3.058149 1_555
K0 O5 3.058149 1_554
K0 O1 3.058149 1_554
K0 O3 3.058149 1_545
K0 O2 3.058149 1_455
K0 O2 3.058149 1_554
K0 O1 3.058149 1_545
K0 O0 3.058149 1_455
K0 O3 3.058149 1_555
K0 O0 3.058149 1_555
Eu0 O5 3.058149 1_565
Eu0 O4 3.058149 1_555
Eu0 O4 3.058149 1_556
Eu0 O5 3.058149 1_655
Eu0 O1 3.058149 1_555
Eu0 O3 3.058149 1_655
Eu0 O0 3.058149 1_565
Eu0 O1 3.058149 1_655
Eu0 O3 3.058149 1_556
Eu0 O2 3.058149 1_555
Eu0 O2 3.058149 1_565
Eu0 O0 3.058149 1_556
Dy0 O0 2.212701 1_555
Dy0 O2 2.212701 1_555
Dy0 O4 2.212701 1_555
Dy0 O1 2.212701 1_555
Dy0 O5 2.212701 1_555
Dy0 O3 2.212701 1_555
Bi0 O4 2.111585 1_445
Bi0 O3 2.111585 1_545
Bi0 O5 2.111585 1_554
Bi0 O2 2.111585 1_454
Bi0 O1 2.111585 1_544
Bi0 O0 2.111585 1_455
