# generated using pymatgen
data_Tb4Fe34C3
_symmetry_space_group_name_H-M   'P 1'
_cell_length_a   6.45006200
_cell_length_b   6.48296100
_cell_length_c   12.92834652
_cell_angle_alpha   83.75081554
_cell_angle_beta   83.28270268
_cell_angle_gamma   83.91156195
_symmetry_Int_Tables_number   1
_chemical_formula_structural   Tb4Fe34C3
_chemical_formula_sum   'Tb4 Fe34 C3'
_cell_volume   531.31363434
_cell_formula_units_Z   1
loop_
 _symmetry_equiv_pos_site_id
 _symmetry_equiv_pos_as_xyz
  1  'x, y, z'
loop_
 _atom_site_type_symbol
 _atom_site_label
 _atom_site_symmetry_multiplicity
 _atom_site_fract_x
 _atom_site_fract_y
 _atom_site_fract_z
 _atom_site_occupancy
  Tb  Tb0  1  0.34825700  0.33550500  0.42349300  1
  Tb  Tb1  1  0.33931800  0.33890000  0.92543500  1
  Tb  Tb2  1  0.65174300  0.66449500  0.57650700  1
  Tb  Tb3  1  0.66068200  0.66110000  0.07456500  1
  Fe  Fe0  1  0.28473600  0.71410600  0.25003600  1
  Fe  Fe1  1  0.28526800  0.71458900  0.75059800  1
  Fe  Fe2  1  0.99878900  0.28595800  0.60758900  1
  Fe  Fe3  1  0.99859800  0.28760200  0.10532200  1
  Fe  Fe4  1  0.71322500  0.99826700  0.39335100  1
  Fe  Fe5  1  0.71117200  0.00218600  0.89447300  1
  Fe  Fe6  1  0.00121100  0.71404200  0.39241100  1
  Fe  Fe7  1  0.00140200  0.71239800  0.89467800  1
  Fe  Fe8  1  0.28677500  0.00173300  0.60664900  1
  Fe  Fe9  1  0.28882800  0.99781400  0.10552700  1
  Fe  Fe10  1  0.71526400  0.28589400  0.74996400  1
  Fe  Fe11  1  0.71473200  0.28541100  0.24940200  1
  Fe  Fe12  1  0.09645200  0.09722200  0.29816100  1
  Fe  Fe13  1  0.09579800  0.09574100  0.79940000  1
  Fe  Fe14  1  0.90354800  0.90277800  0.70183900  1
  Fe  Fe15  1  0.90420200  0.90425900  0.20060000  1
  Fe  Fe16  1  0.00000000  0.00000000  0.50000000  1
  Fe  Fe17  1  0.00000000  0.00000000  0.00000000  1
  Fe  Fe18  1  0.50015000  0.00088100  0.24954300  1
  Fe  Fe19  1  0.49985000  0.99911900  0.75045700  1
  Fe  Fe20  1  0.00216900  0.49921100  0.75114200  1
  Fe  Fe21  1  0.99783100  0.50078900  0.24885800  1
  Fe  Fe22  1  0.65461700  0.14648800  0.57715500  1
  Fe  Fe23  1  0.65512400  0.15020500  0.07671800  1
  Fe  Fe24  1  0.65511000  0.65890300  0.32302400  1
  Fe  Fe25  1  0.65769100  0.65700800  0.82561900  1
  Fe  Fe26  1  0.14813500  0.65824800  0.57831200  1
  Fe  Fe27  1  0.14941100  0.65558700  0.07674200  1
  Fe  Fe28  1  0.34538300  0.85351200  0.42284500  1
  Fe  Fe29  1  0.34487600  0.84979500  0.92328200  1
  Fe  Fe30  1  0.34489000  0.34109700  0.67697600  1
  Fe  Fe31  1  0.34230900  0.34299200  0.17438100  1
  Fe  Fe32  1  0.85186500  0.34175200  0.42168800  1
  Fe  Fe33  1  0.85058900  0.34441300  0.92325800  1
  C  C0  1  0.50049900  0.50065700  0.75078900  1
  C  C1  1  0.49950100  0.49934300  0.24921100  1
  C  C2  1  0.00000000  0.50000000  0.50000000  1
loop_
_geom_bond_atom_site_label_1
_geom_bond_atom_site_label_2
_geom_bond_distance
_geom_bond_site_symmetry_2
Fe0 Fe21 2.427204 1_455
Fe0 Fe18 2.435224 1_565
Fe0 Fe9 2.474810 1_555
Fe0 Fe27 2.576428 1_555
Fe0 Fe28 2.584606 1_555
Fe0 Fe15 2.739743 1_455
Fe0 Fe12 2.747851 1_565
Fe1 Fe20 2.412399 1_555
Fe1 Fe19 2.420419 1_555
Fe1 Fe7 2.454423 1_555
Fe1 Fe8 2.484801 1_565
Fe1 Fe29 2.568772 1_555
Fe1 Fe14 2.739765 1_455
Fe1 Fe13 2.741504 1_565
Fe2 Fe20 2.435290 1_655
Fe2 Fe8 2.473731 1_655
Fe2 Fe22 2.570606 1_555
Fe3 Fe9 2.507568 1_645
Fe3 Fe31 2.557868 1_655
Fe3 Fe33 2.617196 1_554
Fe3 Tb1 3.023231 1_654
Fe3 Tb3 3.105697 1_555
Fe4 Fe6 2.473731 1_655
Fe4 Tb2 3.048488 1_555
Fe4 Tb0 3.058188 1_565
Fe5 Fe7 2.507568 1_645
Fe5 Tb3 3.044856 1_546
Fe5 Tb1 3.087558 1_555
Fe7 Tb3 3.023231 1_456
Fe7 Tb1 3.105697 1_555
Fe8 Tb0 3.048488 1_555
Fe8 Tb2 3.058188 1_545
Fe9 Tb1 3.044856 1_564
Fe9 Tb3 3.087558 1_555
Fe10 Fe20 2.427204 1_655
Fe10 Fe19 2.435224 1_545
Fe10 Fe5 2.474810 1_555
Fe10 Fe33 2.576428 1_555
Fe10 Fe22 2.584606 1_555
Fe10 Fe13 2.739743 1_655
Fe10 Fe14 2.747851 1_545
Fe11 Fe21 2.412399 1_555
Fe11 Fe18 2.420419 1_555
Fe11 Fe3 2.454423 1_555
Fe11 Fe4 2.484801 1_545
Fe11 Fe23 2.568772 1_555
Fe11 Fe12 2.739765 1_655
Fe11 Fe15 2.741504 1_545
Fe12 Fe15 2.394146 1_445
Fe12 Fe18 2.631148 1_555
Fe12 Fe16 2.634167 1_555
Fe12 Fe32 2.642648 1_455
Fe12 Fe31 2.646030 1_555
Fe12 Fe21 2.652312 1_455
Fe12 Fe28 2.680598 1_545
Fe12 Fe4 2.736584 1_445
Fe12 Fe6 2.742752 1_545
Fe12 Fe9 2.759373 1_545
Fe12 Fe3 2.769506 1_455
Fe12 Tb0 3.056555 1_555
Fe13 Fe14 2.394146 1_445
Fe13 Fe17 2.617048 1_556
Fe13 Fe19 2.634204 1_545
Fe13 Fe20 2.644527 1_555
Fe13 Fe30 2.648710 1_555
Fe13 Fe33 2.663308 1_455
Fe13 Fe29 2.681615 1_545
Fe13 Fe5 2.734380 1_455
Fe13 Fe7 2.746506 1_545
Fe13 Fe8 2.748070 1_555
Fe13 Fe2 2.755938 1_455
Fe13 Tb1 3.048011 1_555
Fe14 Fe19 2.631148 1_555
Fe14 Fe16 2.634167 1_665
Fe14 Fe26 2.642648 1_655
Fe14 Fe25 2.646030 1_555
Fe14 Fe20 2.652312 1_655
Fe14 Fe22 2.680598 1_565
Fe14 Fe8 2.736584 1_665
Fe14 Fe2 2.742752 1_565
Fe14 Fe5 2.759373 1_565
Fe14 Fe7 2.769506 1_655
Fe14 Tb2 3.056555 1_555
Fe15 Fe17 2.617048 1_665
Fe15 Fe18 2.634204 1_565
Fe15 Fe21 2.644527 1_555
Fe15 Fe24 2.648710 1_555
Fe15 Fe27 2.663308 1_655
Fe15 Fe23 2.681615 1_565
Fe15 Fe9 2.734380 1_655
Fe15 Fe3 2.746506 1_565
Fe15 Fe4 2.748070 1_555
Fe15 Fe6 2.755938 1_655
Fe15 Tb3 3.048011 1_555
Fe16 Fe8 2.434558 1_555
Fe16 Fe4 2.434558 1_445
Fe16 Fe6 2.434613 1_545
Fe16 Fe2 2.434613 1_455
Fe16 Fe28 2.469270 1_545
Fe16 Fe22 2.469270 1_455
Fe16 Fe26 2.477019 1_545
Fe16 Fe32 2.477019 1_455
Fe16 Tb0 3.286836 1_555
Fe16 Tb2 3.286836 1_445
Fe17 Fe3 2.424212 1_455
Fe17 Fe7 2.424212 1_544
Fe17 Fe5 2.432464 1_454
Fe17 Fe9 2.432464 1_545
Fe17 Fe23 2.472827 1_455
Fe17 Fe29 2.472827 1_544
Fe17 Fe33 2.486667 1_454
Fe17 Fe27 2.486667 1_545
Fe17 Tb1 3.257585 1_554
Fe17 Tb3 3.257585 1_445
Fe18 Fe4 2.435509 1_545
Fe18 Fe9 2.435655 1_545
Fe18 Fe24 2.471893 1_545
Fe18 Fe23 2.478002 1_555
Fe18 Fe28 2.478351 1_545
Fe18 Fe31 2.486573 1_555
Fe18 Tb0 3.289264 1_555
Fe18 Tb3 3.330900 1_545
Fe19 Fe8 2.435509 1_565
Fe19 Fe5 2.435655 1_565
Fe19 Fe30 2.471893 1_565
Fe19 Fe29 2.478002 1_555
Fe19 Fe22 2.478351 1_565
Fe19 Fe25 2.486573 1_555
Fe19 Tb2 3.289264 1_555
Fe19 Tb1 3.330900 1_565
Fe20 Fe7 2.430739 1_555
Fe20 Fe30 2.468639 1_555
Fe20 Fe33 2.475367 1_455
Fe20 Fe25 2.478360 1_455
Fe20 Fe26 2.480774 1_555
Fe20 Tb1 3.323205 1_555
Fe20 Tb2 3.392311 1_455
Fe21 Fe3 2.430739 1_555
Fe21 Fe6 2.435290 1_655
Fe21 Fe24 2.468639 1_555
Fe21 Fe27 2.475367 1_655
Fe21 Fe31 2.478360 1_655
Fe21 Fe32 2.480774 1_555
Fe21 Tb3 3.323205 1_555
Fe21 Tb0 3.392311 1_655
Fe22 Fe32 2.539772 1_555
Fe22 Fe30 2.542616 1_555
Fe22 Fe8 2.614972 1_555
Fe22 Fe4 2.631135 1_545
Fe22 Tb0 3.037699 1_555
Fe22 Tb2 3.127691 1_545
Fe22 Tb2 3.355407 1_555
Fe23 Fe33 2.513692 1_554
Fe23 Fe31 2.537705 1_555
Fe23 Fe3 2.553482 1_555
Fe23 Fe5 2.611939 1_554
Fe23 Fe9 2.627918 1_545
Fe23 Tb1 3.058361 1_554
Fe23 Tb3 3.170364 1_545
Fe23 Tb3 3.313160 1_555
Fe24 Fe28 2.542616 1_555
Fe24 Fe4 2.549058 1_555
Fe25 Fe29 2.537705 1_555
Fe25 Fe33 2.554209 1_555
Fe25 Fe7 2.557868 1_655
Fe25 Fe5 2.566766 1_565
Fe26 Fe28 2.539772 1_555
Fe26 Fe8 2.563037 1_565
Fe27 Fe29 2.513692 1_554
Fe27 Fe31 2.554209 1_555
Fe27 Fe9 2.559448 1_555
Fe27 Fe7 2.617196 1_554
Fe27 Fe3 2.643917 1_455
Fe27 Tb1 3.053251 1_554
Fe27 Tb3 3.152127 1_455
Fe27 Tb3 3.298509 1_555
Fe28 Fe6 2.570606 1_555
Fe28 Fe4 2.614972 1_555
Fe28 Fe8 2.631135 1_565
Fe28 Tb2 3.037699 1_555
Fe28 Tb0 3.127691 1_565
Fe28 Tb0 3.355407 1_555
Fe29 Fe7 2.553482 1_555
Fe29 Fe9 2.611939 1_556
Fe29 Fe5 2.627918 1_565
Fe29 Tb3 3.058361 1_556
Fe29 Tb1 3.170364 1_565
Fe29 Tb1 3.313160 1_555
Fe30 Fe8 2.549058 1_555
Fe31 Fe9 2.566766 1_545
Fe32 Fe4 2.563037 1_545
Fe33 Fe5 2.559448 1_555
Fe33 Fe7 2.643917 1_655
Fe33 Tb3 3.053251 1_556
Fe33 Tb1 3.152127 1_655
Fe33 Tb1 3.298509 1_555
C0 Fe1 1.855373 1_555
C0 Fe10 1.856926 1_555
C0 Fe30 1.909784 1_555
C0 Fe25 1.911094 1_555
C0 Tb2 2.518177 1_555
C0 Tb1 2.538742 1_555
C1 Fe11 1.855373 1_555
C1 Fe0 1.856926 1_555
C1 Fe24 1.909784 1_555
C1 Fe31 1.911094 1_555
C1 Tb0 2.518177 1_555
C1 Tb3 2.538742 1_555
C2 Fe6 1.854687 1_555
C2 Fe2 1.854687 1_455
C2 Fe32 1.910722 1_455
C2 Fe26 1.910722 1_555
C2 Tb0 2.522512 1_555
C2 Tb2 2.522512 1_455
