# generated using pymatgen
data_Na5Fe2P2(CO7)2
_symmetry_space_group_name_H-M   'P 1'
_cell_length_a   8.42724900
_cell_length_b   8.50017892
_cell_length_c   9.00153918
_cell_angle_alpha   89.79188579
_cell_angle_beta   89.19908406
_cell_angle_gamma   76.60581797
_symmetry_Int_Tables_number   1
_chemical_formula_structural   Na5Fe2P2(CO7)2
_chemical_formula_sum   'Na10 Fe4 P4 C4 O28'
_cell_volume   627.20786882
_cell_formula_units_Z   2
loop_
 _symmetry_equiv_pos_site_id
 _symmetry_equiv_pos_as_xyz
  1  'x, y, z'
loop_
 _atom_site_type_symbol
 _atom_site_label
 _atom_site_symmetry_multiplicity
 _atom_site_fract_x
 _atom_site_fract_y
 _atom_site_fract_z
 _atom_site_occupancy
  Na  Na0  1  0.49913400  0.26965200  0.92414300  1
  Na  Na1  1  0.00380400  0.75865600  0.91266000  1
  Na  Na2  1  0.61524300  0.88011900  0.73802000  1
  Na  Na3  1  0.13923900  0.38023800  0.73390400  1
  Na  Na4  1  0.87789600  0.11824300  0.73205100  1
  Na  Na5  1  0.12210400  0.88175700  0.26794900  1
  Na  Na6  1  0.38475700  0.11988100  0.26198000  1
  Na  Na7  1  0.86076100  0.61976200  0.26609600  1
  Na  Na8  1  0.99619600  0.24134400  0.08734000  1
  Na  Na9  1  0.50086600  0.73034800  0.07585700  1
  Fe  Fe0  1  0.72423400  0.51789300  0.64528500  1
  Fe  Fe1  1  0.23997700  0.00397000  0.65686200  1
  Fe  Fe2  1  0.76002300  0.99603000  0.34313800  1
  Fe  Fe3  1  0.27576600  0.48210700  0.35471500  1
  P  P0  1  0.52054300  0.23009500  0.58498000  1
  P  P1  1  0.01813000  0.72480500  0.57657500  1
  P  P2  1  0.47945700  0.76990500  0.41502000  1
  P  P3  1  0.98187000  0.27519500  0.42342500  1
  C  C0  1  0.25839500  0.99362300  0.94804000  1
  C  C1  1  0.76916400  0.49352500  0.92675300  1
  C  C2  1  0.74160500  0.00637700  0.05196000  1
  C  C3  1  0.23083600  0.50647500  0.07324700  1
  O  O0  1  0.73449100  0.01540700  0.90874500  1
  O  O1  1  0.20994900  0.51251600  0.93372500  1
  O  O2  1  0.14065600  0.09767700  0.88302400  1
  O  O3  1  0.65488900  0.60455200  0.86453200  1
  O  O4  1  0.36645600  0.89856500  0.86502600  1
  O  O5  1  0.85856800  0.38832300  0.83481200  1
  O  O6  1  0.58958000  0.35551700  0.67465700  1
  O  O7  1  0.07563900  0.85002800  0.67416000  1
  O  O8  1  0.39271000  0.17876700  0.68836100  1
  O  O9  1  0.89190300  0.66103000  0.67532400  1
  O  O10  1  0.05626700  0.20177700  0.57015200  1
  O  O11  1  0.55757400  0.69698200  0.56289900  1
  O  O12  1  0.66246300  0.08146200  0.55060100  1
  O  O13  1  0.16357300  0.57745600  0.53845600  1
  O  O14  1  0.33753700  0.91853800  0.44939900  1
  O  O15  1  0.83642700  0.42254400  0.46154400  1
  O  O16  1  0.94373300  0.79822300  0.42984800  1
  O  O17  1  0.44242600  0.30301800  0.43710100  1
  O  O18  1  0.60729000  0.82123300  0.31163900  1
  O  O19  1  0.92436100  0.14997200  0.32584000  1
  O  O20  1  0.10809700  0.33897000  0.32467600  1
  O  O21  1  0.41042000  0.64448300  0.32534300  1
  O  O22  1  0.63354400  0.10143500  0.13497400  1
  O  O23  1  0.14143200  0.61167700  0.16518800  1
  O  O24  1  0.34511100  0.39544800  0.13546800  1
  O  O25  1  0.85934400  0.90232300  0.11697600  1
  O  O26  1  0.26550900  0.98459300  0.09125500  1
  O  O27  1  0.79005100  0.48748400  0.06627500  1
loop_
_geom_bond_atom_site_label_1
_geom_bond_atom_site_label_2
_geom_bond_distance
_geom_bond_site_symmetry_2
Na0 O24 2.397799 1_556
Na0 O22 2.493840 1_556
Na0 O8 2.508364 1_555
Na0 O6 2.520928 1_555
Na0 O0 2.575309 1_555
Na0 O1 2.805858 1_555
Na1 O25 2.370829 1_456
Na1 O7 2.397526 1_555
Na1 O1 2.398700 1_555
Na1 O9 2.563948 1_455
Na1 O23 2.730380 1_556
Na1 O0 2.760808 1_465
Na2 O0 2.299014 1_565
Na2 O4 2.347187 1_555
Na2 O11 2.352477 1_555
Na2 O12 2.491861 1_565
Na2 O3 2.554187 1_555
Na2 O9 2.679871 1_555
Na2 O8 2.823224 1_565
Na3 O1 2.282479 1_555
Na3 O10 2.345051 1_555
Na3 O8 2.439150 1_555
Na3 O13 2.464821 1_555
Na3 O5 2.507874 1_455
Na3 O2 2.744888 1_555
Na3 O9 2.834795 1_455
Na4 O0 2.275944 1_555
Na4 O10 2.305058 1_655
Na4 O5 2.447552 1_555
Na4 O12 2.532027 1_555
Na4 O7 2.543726 1_645
Na4 O2 2.585303 1_655
Na4 O6 2.827604 1_555
Na5 O26 2.275944 1_555
Na5 O16 2.305058 1_455
Na5 O23 2.447552 1_555
Na5 O14 2.532027 1_555
Na5 O19 2.543726 1_465
Na5 O25 2.585303 1_455
Na5 O21 2.827604 1_555
Na6 O26 2.299014 1_545
Na6 O22 2.347187 1_555
Na6 O17 2.352477 1_555
Na6 O14 2.491861 1_545
Na6 O24 2.554187 1_555
Na6 O20 2.679871 1_555
Na6 O18 2.823224 1_545
Na7 O27 2.282479 1_555
Na7 O16 2.345051 1_555
Na7 O18 2.439150 1_555
Na7 O15 2.464821 1_555
Na7 O23 2.507874 1_655
Na7 O25 2.744888 1_555
Na7 O20 2.834795 1_655
Na8 O2 2.370829 1_654
Na8 O19 2.397526 1_555
Na8 O27 2.398700 1_555
Na8 O20 2.563948 1_655
Na8 O5 2.730380 1_554
Na8 O26 2.760808 1_645
Na9 O3 2.397799 1_554
Na9 O4 2.493840 1_554
Na9 O18 2.508364 1_555
Na9 O21 2.520928 1_555
Na9 O26 2.575309 1_555
Na9 O27 2.805858 1_555
Fe0 O11 1.967304 1_555
Fe0 O15 1.974175 1_555
Fe0 O6 1.994293 1_555
Fe0 O9 2.087952 1_555
Fe0 O3 2.134932 1_555
Fe0 O5 2.206317 1_555
Fe1 O14 2.093113 1_545
Fe1 O7 2.118157 1_545
Fe1 O10 2.156706 1_555
Fe1 O8 2.200902 1_555
Fe1 O4 2.247474 1_545
Fe1 O2 2.266009 1_555
Fe2 O12 2.093113 1_565
Fe2 O19 2.118157 1_565
Fe2 O16 2.156706 1_555
Fe2 O18 2.200902 1_555
Fe2 O22 2.247474 1_565
Fe2 O25 2.266009 1_555
Fe3 O17 1.967304 1_555
Fe3 O13 1.974175 1_555
Fe3 O21 1.994293 1_555
Fe3 O20 2.087952 1_555
Fe3 O24 2.134932 1_555
Fe3 O23 2.206317 1_555
C0 O26 1.292562 1_556
C0 O4 1.298084 1_555
C0 O2 1.309653 1_565
C1 O27 1.269827 1_556
C1 O3 1.312228 1_555
C1 O5 1.314554 1_555
C2 O0 1.292562 1_554
C2 O22 1.298084 1_555
C2 O25 1.309653 1_545
C3 O1 1.269827 1_554
C3 O24 1.312228 1_555
C3 O23 1.314554 1_555
O6 P0 1.559948 1_555
O7 P1 1.548279 1_555
O8 P0 1.550375 1_555
O9 P1 1.566138 1_655
O10 P3 1.537160 1_455
O11 P2 1.555307 1_555
O12 P0 1.553965 1_555
O13 P1 1.571275 1_555
O14 P2 1.553965 1_555
O15 P3 1.571275 1_555
O16 P1 1.537160 1_655
O17 P0 1.555307 1_555
O18 P2 1.550375 1_555
O19 P3 1.548279 1_555
O20 P3 1.566138 1_455
O21 P2 1.559948 1_555
