# generated using pymatgen
data_Co(WCl5)2
_symmetry_space_group_name_H-M   'P 1'
_cell_length_a   8.85540042
_cell_length_b   8.85540042
_cell_length_c   12.30284670
_cell_angle_alpha   86.65266729
_cell_angle_beta   86.65266729
_cell_angle_gamma   139.36822068
_symmetry_Int_Tables_number   1
_chemical_formula_structural   Co(WCl5)2
_chemical_formula_sum   'Co2 W4 Cl20'
_cell_volume   619.30327414
_cell_formula_units_Z   2
loop_
 _symmetry_equiv_pos_site_id
 _symmetry_equiv_pos_as_xyz
  1  'x, y, z'
loop_
 _atom_site_type_symbol
 _atom_site_label
 _atom_site_symmetry_multiplicity
 _atom_site_fract_x
 _atom_site_fract_y
 _atom_site_fract_z
 _atom_site_occupancy
  Co  Co0  1  0.55666244  0.44333756  0.25000000  1
  Co  Co1  1  0.44333756  0.55666244  0.75000000  1
  W  W0  1  0.93229917  0.06770083  0.25000000  1
  W  W1  1  0.06770083  0.93229917  0.75000000  1
  W  W2  1  0.77317648  0.22682352  0.25000000  1
  W  W3  1  0.22682352  0.77317648  0.75000000  1
  Cl  Cl0  1  0.01764513  0.72403643  0.61447672  1
  Cl  Cl1  1  0.27596357  0.98235487  0.88552328  1
  Cl  Cl2  1  0.98235487  0.27596357  0.38552328  1
  Cl  Cl3  1  0.72403643  0.01764513  0.11447672  1
  Cl  Cl4  1  0.70084004  0.59631305  0.85904100  1
  Cl  Cl5  1  0.40368695  0.29915996  0.64095900  1
  Cl  Cl6  1  0.29915996  0.40368695  0.14095900  1
  Cl  Cl7  1  0.59631305  0.70084004  0.35904100  1
  Cl  Cl8  1  0.90097699  0.41764027  0.85653632  1
  Cl  Cl9  1  0.58235973  0.09902301  0.64346368  1
  Cl  Cl10  1  0.09902301  0.58235973  0.14346368  1
  Cl  Cl11  1  0.41764027  0.90097699  0.35653632  1
  Cl  Cl12  1  0.82603788  0.90974336  0.64333656  1
  Cl  Cl13  1  0.09025664  0.17396212  0.85666344  1
  Cl  Cl14  1  0.17396212  0.09025664  0.35666344  1
  Cl  Cl15  1  0.90974336  0.82603788  0.14333656  1
  Cl  Cl16  1  0.22695896  0.55017695  0.63856527  1
  Cl  Cl17  1  0.44982305  0.77304104  0.86143473  1
  Cl  Cl18  1  0.77304104  0.44982305  0.36143473  1
  Cl  Cl19  1  0.55017695  0.22695896  0.13856527  1
loop_
_geom_bond_atom_site_label_1
_geom_bond_atom_site_label_2
_geom_bond_distance
_geom_bond_site_symmetry_2
Cl0 W1 2.362688 1_555
Cl0 W3 2.371179 1_555
Cl1 W1 2.362688 1_555
Cl1 W3 2.371179 1_555
Cl2 W0 2.362688 1_555
Cl2 W2 2.371179 1_555
Cl3 W0 2.362688 1_555
Cl3 W2 2.371179 1_555
Cl4 W1 2.357973 1_655
Cl4 Co1 2.513889 1_555
Cl5 W1 2.357973 1_545
Cl5 Co1 2.513889 1_555
Cl6 W0 2.357973 1_455
Cl6 Co0 2.513889 1_555
Cl7 W0 2.357973 1_565
Cl7 Co0 2.513889 1_555
Cl8 W3 2.289976 1_655
Cl9 W3 2.289976 1_545
Cl10 W2 2.289976 1_455
Cl11 W2 2.289976 1_565
Cl12 Co1 2.429325 1_555
Cl12 W1 2.459957 1_655
Cl13 Co1 2.429325 1_555
Cl13 W1 2.459957 1_545
Cl14 Co0 2.429325 1_555
Cl14 W0 2.459957 1_455
Cl15 Co0 2.429325 1_555
Cl15 W0 2.459957 1_565
Cl16 Co1 2.388155 1_555
Cl16 W3 2.469562 1_555
Cl17 Co1 2.388155 1_555
Cl17 W3 2.469562 1_555
Cl18 Co0 2.388155 1_555
Cl18 W2 2.469562 1_555
Cl19 Co0 2.388155 1_555
Cl19 W2 2.469562 1_555
