# generated using pymatgen
data_BaCa(AgO2)4
_symmetry_space_group_name_H-M   'P 1'
_cell_length_a   5.86152650
_cell_length_b   5.86152650
_cell_length_c   7.79371100
_cell_angle_alpha   90.00000000
_cell_angle_beta   90.00000000
_cell_angle_gamma   120.00000566
_symmetry_Int_Tables_number   1
_chemical_formula_structural   BaCa(AgO2)4
_chemical_formula_sum   'Ba1 Ca1 Ag4 O8'
_cell_volume   231.89766211
_cell_formula_units_Z   1
loop_
 _symmetry_equiv_pos_site_id
 _symmetry_equiv_pos_as_xyz
  1  'x, y, z'
loop_
 _atom_site_type_symbol
 _atom_site_label
 _atom_site_symmetry_multiplicity
 _atom_site_fract_x
 _atom_site_fract_y
 _atom_site_fract_z
 _atom_site_occupancy
  Ba  Ba0  1  0.00000000  0.00000000  0.00000000  1
  Ca  Ca0  1  0.00000000  0.00000000  0.50000000  1
  Ag  Ag0  1  0.33333300  0.66666700  0.73718800  1
  Ag  Ag1  1  0.66666700  0.33333300  0.73718800  1
  Ag  Ag2  1  0.33333300  0.66666700  0.26281200  1
  Ag  Ag3  1  0.66666700  0.33333300  0.26281200  1
  O  O0  1  0.29352100  0.29352100  0.70524000  1
  O  O1  1  0.70647900  0.00000000  0.70524000  1
  O  O2  1  0.00000000  0.70647900  0.70524000  1
  O  O3  1  0.70647900  0.70647900  0.29476000  1
  O  O4  1  0.00000000  0.29352100  0.29476000  1
  O  O5  1  0.29352100  0.00000000  0.29476000  1
  O  O6  1  0.33333300  0.66666700  0.00000000  1
  O  O7  1  0.66666700  0.33333300  0.00000000  1
loop_
_geom_bond_atom_site_label_1
_geom_bond_atom_site_label_2
_geom_bond_distance
_geom_bond_site_symmetry_2
Ba0 O0 2.870109 1_554
Ba0 O3 2.870109 1_445
Ba0 O1 2.870109 1_454
Ba0 O2 2.870109 1_544
Ba0 O4 2.870109 1_555
Ba0 O5 2.870109 1_555
Ba0 O6 3.384151 1_545
Ba0 O7 3.384151 1_455
Ba0 O6 3.384155 1_555
Ba0 O6 3.384155 1_445
Ba0 O7 3.384155 1_555
Ba0 O7 3.384155 1_445
Ca0 O3 2.349195 1_445
Ca0 O0 2.349195 1_555
Ca0 O5 2.349195 1_555
Ca0 O4 2.349195 1_555
Ca0 O2 2.349195 1_545
Ca0 O1 2.349195 1_455
Ag0 O6 2.048281 1_556
Ag0 O2 2.095207 1_555
Ag0 O1 2.095210 1_565
Ag0 O0 2.095213 1_555
Ag1 O7 2.048281 1_556
Ag1 O1 2.095207 1_555
Ag1 O2 2.095210 1_655
Ag1 O0 2.095213 1_555
Ag2 O6 2.048281 1_555
Ag2 O5 2.095207 1_565
Ag2 O4 2.095210 1_555
Ag2 O3 2.095213 1_555
Ag3 O7 2.048281 1_555
Ag3 O4 2.095207 1_655
Ag3 O5 2.095210 1_555
Ag3 O3 2.095213 1_555
