# generated using pymatgen
data_K4Ta3NbO12
_symmetry_space_group_name_H-M   'P 1'
_cell_length_a   9.87996803
_cell_length_b   9.87996803
_cell_length_c   9.87996753
_cell_angle_alpha   33.55683996
_cell_angle_beta   33.55683996
_cell_angle_gamma   33.55683611
_symmetry_Int_Tables_number   1
_chemical_formula_structural   K4Ta3NbO12
_chemical_formula_sum   'K4 Ta3 Nb1 O12'
_cell_volume   262.47540132
_cell_formula_units_Z   1
loop_
 _symmetry_equiv_pos_site_id
 _symmetry_equiv_pos_as_xyz
  1  'x, y, z'
loop_
 _atom_site_type_symbol
 _atom_site_label
 _atom_site_symmetry_multiplicity
 _atom_site_fract_x
 _atom_site_fract_y
 _atom_site_fract_z
 _atom_site_occupancy
  K  K0  1  0.37501400  0.37501400  0.37501400  1
  K  K1  1  0.12501400  0.12501400  0.12501400  1
  K  K2  1  0.87498600  0.87498600  0.87498600  1
  K  K3  1  0.62498600  0.62498600  0.62498600  1
  Ta  Ta0  1  0.25018500  0.25018500  0.25018500  1
  Ta  Ta1  1  0.00000000  0.00000000  0.00000000  1
  Ta  Ta2  1  0.74981500  0.74981500  0.74981500  1
  Nb  Nb0  1  0.50000000  0.50000000  0.50000000  1
  O  O0  1  0.12492900  0.62520600  0.12492900  1
  O  O1  1  0.87507100  0.37479400  0.87507100  1
  O  O2  1  0.62555500  0.12334400  0.62555500  1
  O  O3  1  0.37444500  0.87665600  0.37444500  1
  O  O4  1  0.87507100  0.87507100  0.37479400  1
  O  O5  1  0.62555500  0.62555500  0.12334400  1
  O  O6  1  0.37444500  0.37444500  0.87665600  1
  O  O7  1  0.12492900  0.12492900  0.62520600  1
  O  O8  1  0.37479400  0.87507100  0.87507100  1
  O  O9  1  0.12334400  0.62555500  0.62555500  1
  O  O10  1  0.87665600  0.37444500  0.37444500  1
  O  O11  1  0.62520600  0.12492900  0.12492900  1
loop_
_geom_bond_atom_site_label_1
_geom_bond_atom_site_label_2
_geom_bond_distance
_geom_bond_site_symmetry_2
K0 O2 2.851838 1_555
K0 O9 2.851838 1_555
K0 O5 2.851838 1_555
K0 O4 2.852062 1_545
K0 O4 2.852062 1_455
K0 O8 2.852063 1_554
K0 O1 2.852063 1_554
K0 O8 2.852063 1_545
K0 O1 2.852063 1_455
K0 O11 2.852451 1_555
K0 O0 2.852451 1_555
K0 O7 2.852451 1_555
K1 O3 2.851734 1_545
K1 O10 2.851734 1_455
K1 O6 2.851734 1_554
K1 O5 2.852077 1_455
K1 O5 2.852077 1_545
K1 O9 2.852077 1_554
K1 O2 2.852077 1_554
K1 O9 2.852077 1_545
K1 O2 2.852077 1_455
K1 O1 2.852371 1_454
K1 O8 2.852371 1_544
K1 O4 2.852371 1_445
K2 O9 2.851734 1_655
K2 O2 2.851734 1_565
K2 O5 2.851734 1_556
K2 O6 2.852077 1_565
K2 O6 2.852077 1_655
K2 O10 2.852077 1_556
K2 O3 2.852077 1_556
K2 O10 2.852077 1_565
K2 O3 2.852077 1_655
K2 O0 2.852371 1_656
K2 O11 2.852371 1_566
K2 O7 2.852371 1_665
K3 O10 2.851838 1_555
K3 O3 2.851838 1_555
K3 O6 2.851838 1_555
K3 O7 2.852062 1_655
K3 O7 2.852062 1_565
K3 O0 2.852063 1_556
K3 O11 2.852063 1_556
K3 O0 2.852063 1_655
K3 O11 2.852063 1_565
K3 O8 2.852451 1_555
K3 O1 2.852451 1_555
K3 O4 2.852451 1_555
Nb0 O6 2.025604 1_555
Nb0 O5 2.025604 1_555
Nb0 O10 2.025604 1_555
Nb0 O3 2.025604 1_555
Nb0 O9 2.025604 1_555
Nb0 O2 2.025604 1_555
O0 Ta0 2.014832 1_555
O0 Ta1 2.015634 1_565
O1 Ta2 2.014832 1_555
O1 Ta1 2.015634 1_656
O2 Ta2 2.010831 1_545
O3 Ta0 2.010831 1_565
O4 Ta2 2.014831 1_555
O4 Ta1 2.015634 1_665
O5 Ta2 2.010830 1_554
O6 Ta0 2.010830 1_556
O7 Ta0 2.014831 1_555
O7 Ta1 2.015634 1_556
O8 Ta2 2.014832 1_555
O8 Ta1 2.015634 1_566
O9 Ta2 2.010831 1_455
O10 Ta0 2.010831 1_655
O11 Ta0 2.014832 1_555
O11 Ta1 2.015634 1_655
