# generated using pymatgen
data_YbIn7Cu5
_symmetry_space_group_name_H-M   'P 1'
_cell_length_a   7.26278321
_cell_length_b   7.26278321
_cell_length_c   7.26278321
_cell_angle_alpha   134.54386183
_cell_angle_beta   99.12399013
_cell_angle_gamma   98.04630899
_symmetry_Int_Tables_number   1
_chemical_formula_structural   YbIn7Cu5
_chemical_formula_sum   'Yb1 In7 Cu5'
_cell_volume   251.82197825
_cell_formula_units_Z   1
loop_
 _symmetry_equiv_pos_site_id
 _symmetry_equiv_pos_as_xyz
  1  'x, y, z'
loop_
 _atom_site_type_symbol
 _atom_site_label
 _atom_site_symmetry_multiplicity
 _atom_site_fract_x
 _atom_site_fract_y
 _atom_site_fract_z
 _atom_site_occupancy
  Yb  Yb0  1  0.00277900  0.00277900  0.00000000  1
  In  In0  1  0.65894800  0.65894800  0.00000000  1
  In  In1  1  0.33196300  0.33196300  0.00000000  1
  In  In2  1  0.32804000  0.98749800  0.34054200  1
  In  In3  1  0.64695500  0.98749800  0.65945800  1
  In  In4  1  0.77327700  0.27327700  0.50000000  1
  In  In5  1  0.81052900  0.51221400  0.29831600  1
  In  In6  1  0.21389800  0.51221400  0.70168400  1
  Cu  Cu0  1  0.49437500  0.49697000  0.48776200  1
  Cu  Cu1  1  0.49437500  0.00661300  0.99740400  1
  Cu  Cu2  1  0.00920800  0.49697000  0.00259600  1
  Cu  Cu3  1  0.00920800  0.00661300  0.51223800  1
  Cu  Cu4  1  0.22644400  0.72644400  0.50000000  1
loop_
_geom_bond_atom_site_label_1
_geom_bond_atom_site_label_2
_geom_bond_distance
_geom_bond_site_symmetry_2
In0 In4 3.009944 1_554
In0 In4 3.009944 1_565
In0 In1 3.114597 1_555
In0 In5 3.138964 1_555
In0 In6 3.138966 1_554
In0 Yb0 3.275058 1_665
In1 Yb0 3.135543 1_555
In1 In5 3.293542 1_555
In1 In6 3.293548 1_554
In2 In3 3.004708 1_555
In2 In6 3.104968 1_565
In2 In6 3.104968 1_554
In2 In4 3.109166 1_565
In2 Yb0 3.211765 1_565
In3 In5 3.104968 1_566
In3 In5 3.104968 1_555
In3 In4 3.109168 1_565
In3 Yb0 3.211770 1_666
In4 In5 2.964888 1_555
In4 In6 2.964888 1_655
In4 Yb0 3.557056 1_666
In4 Yb0 3.557056 1_655
In5 Yb0 3.390080 1_666
In5 Yb0 3.390085 1_655
In6 Yb0 3.390080 1_555
In6 Yb0 3.390080 1_566
Cu0 Cu4 2.706858 1_555
Cu0 In6 2.720521 1_555
Cu0 Cu1 2.751920 1_554
Cu0 In3 2.774740 1_555
Cu0 In1 2.774904 1_555
Cu0 In4 2.795918 1_555
Cu0 Cu1 2.860148 1_565
Cu0 In5 2.884823 1_555
Cu0 In0 2.951137 1_556
Cu0 In2 3.013736 1_545
Cu0 Yb0 3.569708 1_555
Cu0 Yb0 3.693590 1_666
Cu1 Cu4 2.706853 1_545
Cu1 In6 2.720523 1_545
Cu1 In3 2.774731 1_545
Cu1 In1 2.774901 1_556
Cu1 In4 2.795924 1_556
Cu1 In5 2.884824 1_556
Cu1 In0 2.951141 1_546
Cu1 In2 3.013743 1_546
Cu1 Yb0 3.569709 1_556
Cu1 Yb0 3.693589 1_656
Cu2 Cu4 2.706852 1_555
Cu2 In5 2.720519 1_455
Cu2 Cu3 2.751920 1_554
Cu2 In2 2.774742 1_555
Cu2 In1 2.774903 1_555
Cu2 In4 2.795924 1_454
Cu2 Cu3 2.860148 1_565
Cu2 In6 2.884836 1_554
Cu2 In0 2.951138 1_455
Cu2 In3 3.013739 1_444
Cu2 Yb0 3.569702 1_555
Cu2 Yb0 3.693595 1_565
Cu3 Cu4 2.706858 1_545
Cu3 In5 2.720523 1_445
Cu3 In2 2.774741 1_545
Cu3 In1 2.774904 1_556
Cu3 In4 2.795918 1_455
Cu3 In6 2.884829 1_555
Cu3 In0 2.951137 1_445
Cu3 In3 3.013743 1_445
Cu3 Yb0 3.569708 1_556
Cu3 Yb0 3.693590 1_555
Cu4 In6 2.788319 1_555
Cu4 In5 2.788325 1_455
Cu4 In3 2.905197 1_555
Cu4 In2 2.905204 1_555
Cu4 In1 2.980609 1_555
Cu4 In1 2.980609 1_566
Cu4 Yb0 3.523160 1_566
Cu4 Yb0 3.523160 1_555
