# generated using pymatgen
data_V2O5
_symmetry_space_group_name_H-M   'P 1'
_cell_length_a   12.85314555
_cell_length_b   12.62298509
_cell_length_c   11.88196947
_cell_angle_alpha   96.87905816
_cell_angle_beta   94.10522171
_cell_angle_gamma   88.04617877
_symmetry_Int_Tables_number   1
_chemical_formula_structural   V2O5
_chemical_formula_sum   'V30 O75'
_cell_volume   1908.36847846
_cell_formula_units_Z   15
loop_
 _symmetry_equiv_pos_site_id
 _symmetry_equiv_pos_as_xyz
  1  'x, y, z'
loop_
 _atom_site_type_symbol
 _atom_site_label
 _atom_site_symmetry_multiplicity
 _atom_site_fract_x
 _atom_site_fract_y
 _atom_site_fract_z
 _atom_site_occupancy
  V  V0  1  0.05965395  0.02803322  0.11030565  1
  V  V1  1  0.97414407  0.72704917  0.75186000  1
  V  V2  1  0.97523891  0.08804459  0.75974492  1
  V  V3  1  0.74850319  0.10061177  0.29897502  1
  V  V4  1  0.84762303  0.95609259  0.96141979  1
  V  V5  1  0.21673546  0.59407209  0.87580714  1
  V  V6  1  0.32302896  0.66683444  0.09214932  1
  V  V7  1  0.56867543  0.97960794  0.36853268  1
  V  V8  1  0.68899711  0.60852776  0.54415468  1
  V  V9  1  0.03837422  0.66006814  0.07246638  1
  V  V10  1  0.60744299  0.20334167  0.52677450  1
  V  V11  1  0.05588326  0.78192557  0.34184820  1
  V  V12  1  0.25842958  0.86963756  0.99100545  1
  V  V13  1  0.27934112  0.07094672  0.81641689  1
  V  V14  1  0.94298199  0.59792311  0.49396232  1
  V  V15  1  0.05422143  0.24056907  0.29495350  1
  V  V16  1  0.13908915  0.99260097  0.54438453  1
  V  V17  1  0.36727992  0.13170938  0.28725945  1
  V  V18  1  0.37224955  0.63950163  0.65186096  1
  V  V19  1  0.74691609  0.25567343  0.79091691  1
  V  V20  1  0.47909186  0.55264657  0.86437797  1
  V  V21  1  0.36356290  0.83322298  0.57124418  1
  V  V22  1  0.29641609  0.41621042  0.68257388  1
  V  V23  1  0.66807808  0.15199878  0.02958226  1
  V  V24  1  0.62526409  0.87811870  0.61775768  1
  V  V25  1  0.14483618  0.47883880  0.44242899  1
  V  V26  1  0.96912533  0.44965249  0.19216265  1
  V  V27  1  0.73117436  0.74645547  0.81767285  1
  V  V28  1  0.47862735  0.44884989  0.45835694  1
  V  V29  1  0.29362306  0.34543265  0.27310450  1
  O  O0  1  0.16479255  0.32229942  0.34609686  1
  O  O1  1  0.14743178  0.91541345  0.06310598  1
  O  O2  1  0.98245253  0.53705748  0.07567364  1
  O  O3  1  0.18564742  0.62920759  0.04627535  1
  O  O4  1  0.72385182  0.51731827  0.62303849  1
  O  O5  1  0.38867917  0.12677498  0.80548709  1
  O  O6  1  0.42814395  0.43968906  0.79149637  1
  O  O7  1  0.96420619  0.70597528  0.39550636  1
  O  O8  1  0.54541213  0.32504278  0.50371477  1
  O  O9  1  0.06602056  0.11572393  0.02351029  1
  O  O10  1  0.81791330  0.82595177  0.94820405  1
  O  O11  1  0.72323460  0.17169706  0.17445061  1
  O  O12  1  0.26073118  0.50045998  0.39891573  1
  O  O13  1  0.42711477  0.40397422  0.32216177  1
  O  O14  1  0.79566405  0.62849894  0.46680211  1
  O  O15  1  0.48384995  0.63670911  0.74327239  1
  O  O16  1  0.50224185  0.07667847  0.28621477  1
  O  O17  1  0.65869217  0.92133339  0.49352202  1
  O  O18  1  0.85245427  0.46854204  0.23485552  1
  O  O19  1  0.92776922  0.97904420  0.09030864  1
  O  O20  1  0.18172778  0.17515557  0.86099134  1
  O  O21  1  0.02199625  0.02238968  0.63344633  1
  O  O22  1  0.28515521  0.03407406  0.28032993  1
  O  O23  1  0.09842189  0.60001097  0.50415574  1
  O  O24  1  0.34891736  0.22577351  0.39863892  1
  O  O25  1  0.30405649  0.97198544  0.92513481  1
  O  O26  1  0.36992852  0.60358340  0.95783879  1
  O  O27  1  0.72685297  0.02525512  0.97582674  1
  O  O28  1  0.05966002  0.80243307  0.70908807  1
  O  O29  1  0.37858466  0.62333094  0.20290097  1
  O  O30  1  0.70287155  0.23879913  0.92987944  1
  O  O31  1  0.22240573  0.46006042  0.82758539  1
  O  O32  1  0.57047894  0.55411161  0.46315504  1
  O  O33  1  0.19004597  0.42460232  0.57837057  1
  O  O34  1  0.17017604  0.72449062  0.34884473  1
  O  O35  1  0.31617684  0.28992105  0.67162586  1
  O  O36  1  0.48317118  0.89829986  0.60815946  1
  O  O37  1  0.68487721  0.97597171  0.28460415  1
  O  O38  1  0.05984847  0.49622125  0.29782282  1
  O  O39  1  0.94605659  0.61691700  0.64331220  1
  O  O40  1  0.66734582  0.73673495  0.64153057  1
  O  O41  1  0.76877613  0.37988296  0.79160878  1
  O  O42  1  0.54330934  0.14179790  0.02655351  1
  O  O43  1  -0.00051924  0.30621216  0.17727203  1
  O  O44  1  0.61596540  0.77923269  0.86779858  1
  O  O45  1  0.49834449  0.87513983  0.33728258  1
  O  O46  1  0.87070527  0.06948829  0.31477643  1
  O  O47  1  0.25030391  0.41773996  0.17496078  1
  O  O48  1  0.85662519  0.79507528  0.74329460  1
  O  O49  1  0.34383169  0.80772942  0.09545030  1
  O  O50  1  0.38896084  0.69668467  0.51633576  1
  O  O51  1  0.86464245  0.18262943  0.76090977  1
  O  O52  1  0.15427452  0.10225168  0.49321721  1
  O  O53  1  0.02612687  0.76647961  0.18057237  1
  O  O54  1  0.07495577  0.09790261  0.24743566  1
  O  O55  1  0.22412666  0.01229383  0.68825874  1
  O  O56  1  0.92357245  0.99586244  0.85776423  1
  O  O57  1  0.94711171  0.46809302  0.46610782  1
  O  O58  1  0.06745441  0.90912086  0.42696441  1
  O  O59  1  0.32025847  0.22460344  0.18280203  1
  O  O60  1  0.33171380  0.79012887  0.69583879  1
  O  O61  1  0.70822507  0.17715527  0.43081842  1
  O  O62  1  0.26711544  0.60690324  0.72293147  1
  O  O63  1  0.97455173  0.25575913  0.39429916  1
  O  O64  1  0.65541915  0.21270613  0.67045506  1
  O  O65  1  0.08065673  0.17962857  0.80906624  1
  O  O66  1  0.22927842  0.76263367  0.89623382  1
  O  O67  1  0.53389665  0.09225997  0.50034523  1
  O  O68  1  0.26412022  0.90145720  0.50527886  1
  O  O69  1  0.38987451  0.49240677  0.58398566  1
  O  O70  1  0.67894107  0.95476125  0.72455072  1
  O  O71  1  0.76308750  0.62483038  0.84097533  1
  O  O72  1  0.06574452  0.62200140  0.84198215  1
  O  O73  1  0.58616862  0.52365101  0.93352861  1
  O  O74  1  0.01243459  0.70234838  0.92057197  1
loop_
_geom_bond_atom_site_label_1
_geom_bond_atom_site_label_2
_geom_bond_distance
_geom_bond_site_symmetry_2
O0 V15 1.810956 1_555
O0 V29 1.969430 1_555
O0 V25 2.178570 1_555
O1 V12 1.761648 1_554
O1 V0 1.843527 1_565
O2 V9 1.738779 1_655
O2 V26 1.890787 1_555
O3 V6 1.870310 1_555
O3 V9 1.958770 1_555
O3 V5 2.085093 1_554
O4 V8 1.602501 1_555
O5 V13 1.613708 1_555
O6 V20 1.702499 1_555
O6 V22 2.063509 1_555
O7 V11 1.745031 1_655
O7 V14 1.938193 1_555
O8 V10 1.748367 1_555
O8 V28 1.874497 1_555
O9 V0 1.608497 1_555
O10 V4 1.685690 1_555
O10 V27 2.027633 1_555
O11 V23 1.806138 1_555
O11 V3 1.824612 1_555
O12 V25 1.653042 1_555
O12 V29 2.361400 1_555
O13 V28 1.740868 1_555
O13 V29 1.915686 1_555
O14 V8 1.745693 1_555
O14 V14 1.931570 1_555
O15 V18 1.738150 1_555
O15 V20 1.892922 1_555
O16 V7 1.812007 1_545
O16 V17 1.846803 1_555
O17 V24 1.720732 1_555
O17 V7 2.010715 1_555
O18 V26 1.618182 1_555
O19 V4 1.782876 1_554
O19 V0 1.814098 1_665
O20 V13 1.844096 1_555
O21 V2 1.759911 1_455
O21 V16 1.902741 1_545
O22 V17 1.640693 1_555
O23 V25 1.721933 1_555
O23 V14 1.993769 1_455
O24 V17 1.692971 1_555
O24 V29 2.307847 1_555
O25 V12 1.727773 1_555
O25 V13 1.905473 1_565
O26 V6 1.829577 1_556
O26 V20 1.898900 1_555
O26 V5 2.134189 1_555
O27 V4 1.763773 1_545
O27 V23 1.811123 1_556
O28 V1 1.624512 1_455
O29 V6 1.598436 1_555
O30 V23 1.795589 1_556
O30 V19 1.821661 1_555
O31 V5 1.720639 1_555
O31 V22 2.037254 1_555
O32 V28 1.800470 1_555
O32 V8 1.849789 1_555
O33 V22 1.786785 1_555
O33 V25 1.875849 1_555
O34 V11 1.617063 1_555
O35 V22 1.596931 1_555
O36 V21 1.770275 1_555
O36 V24 1.832713 1_555
O37 V3 1.782329 1_565
O37 V7 1.850653 1_555
O38 V26 1.715167 1_455
O38 V25 1.999716 1_555
O39 V14 1.759782 1_555
O39 V1 1.806794 1_555
O40 V24 1.894863 1_555
O40 V8 1.897909 1_555
O40 V27 2.183557 1_555
O41 V19 1.601227 1_555
O42 V23 1.610696 1_555
O43 V15 1.798271 1_555
O43 V26 1.829464 1_455
O44 V27 1.656546 1_555
O45 V7 1.615531 1_555
O46 V3 1.609350 1_555
O47 V29 1.621830 1_555
O48 V1 1.714574 1_555
O48 V27 2.039383 1_555
O49 V6 1.802876 1_555
O49 V12 1.826059 1_554
O50 V21 1.795970 1_555
O50 V18 1.870503 1_555
O51 V19 1.780524 1_555
O51 V2 1.824697 1_555
O52 V16 1.600156 1_545
O53 V9 1.755060 1_555
O53 V11 1.914954 1_555
O54 V0 1.758722 1_555
O54 V15 1.837990 1_555
O55 V13 1.726748 1_555
O55 V16 1.956545 1_545
O56 V4 1.753725 1_555
O56 V2 1.907747 1_565
O57 V14 1.632426 1_555
O57 V25 2.586735 1_655
O58 V11 1.796834 1_555
O58 V16 1.853311 1_555
O59 V29 1.794365 1_555
O59 V17 1.863772 1_555
O60 V21 1.717563 1_555
O60 V18 1.973100 1_555
O61 V10 1.783019 1_555
O61 V3 1.837145 1_555
O62 V18 1.730026 1_555
O62 V5 1.997779 1_555
O62 V22 2.419402 1_555
O63 V15 1.607548 1_655
O64 V10 1.764847 1_555
O64 V19 1.828227 1_555
O65 V2 1.829382 1_455
O66 V12 1.685999 1_555
O66 V5 2.122805 1_555
O67 V10 1.703152 1_555
O67 V7 2.048968 1_545
O68 V21 1.712628 1_555
O68 V16 1.993723 1_555
O69 V18 1.946311 1_555
O69 V28 1.958636 1_555
O69 V22 2.071342 1_555
O70 V24 1.627327 1_555
O71 V27 1.626222 1_555
O72 O74 1.479012 1_555
O72 V5 1.981864 1_555
O72 V1 2.084307 1_455
O73 V20 1.605920 1_555
O74 V9 1.945706 1_556
O74 V1 2.087099 1_455
