# generated using pymatgen
data_TlV3Cd4O12
_symmetry_space_group_name_H-M   'P 1'
_cell_length_a   9.43174675
_cell_length_b   9.43174675
_cell_length_c   7.08902914
_cell_angle_alpha   72.81849555
_cell_angle_beta   72.81849555
_cell_angle_gamma   92.16796051
_symmetry_Int_Tables_number   1
_chemical_formula_structural   TlV3Cd4O12
_chemical_formula_sum   'Tl2 V6 Cd8 O24'
_cell_volume   570.16467684
_cell_formula_units_Z   2
loop_
 _symmetry_equiv_pos_site_id
 _symmetry_equiv_pos_as_xyz
  1  'x, y, z'
loop_
 _atom_site_type_symbol
 _atom_site_label
 _atom_site_symmetry_multiplicity
 _atom_site_fract_x
 _atom_site_fract_y
 _atom_site_fract_z
 _atom_site_occupancy
  Tl  Tl0  1  0.97743963  0.02898704  0.74876099  1
  Tl  Tl1  1  0.02898704  0.97743963  0.24876099  1
  V  V0  1  0.70307605  0.29933090  0.74953468  1
  V  V1  1  0.29933090  0.70307605  0.24953468  1
  V  V2  1  0.12442378  0.35206734  0.85927258  1
  V  V3  1  0.64978583  0.87123385  0.63765584  1
  V  V4  1  0.87123385  0.64978583  0.13765584  1
  V  V5  1  0.35206734  0.12442378  0.35927258  1
  Cd  Cd0  1  0.94011440  0.62049636  0.64048358  1
  Cd  Cd1  1  0.38006346  0.06509873  0.85178766  1
  Cd  Cd2  1  0.06509873  0.38006346  0.35178766  1
  Cd  Cd3  1  0.62049636  0.94011440  0.14048358  1
  Cd  Cd4  1  0.26149307  0.73584939  0.75617649  1
  Cd  Cd5  1  0.73584939  0.26149307  0.25617649  1
  Cd  Cd6  1  0.51484718  0.52718988  0.53670797  1
  Cd  Cd7  1  0.52718988  0.51484718  0.03670797  1
  O  O0  1  0.71404243  0.48008336  0.76757876  1
  O  O1  1  0.52576670  0.28606874  0.72734271  1
  O  O2  1  0.28606874  0.52576770  0.22734271  1
  O  O3  1  0.48008336  0.71404243  0.26757876  1
  O  O4  1  0.28008634  0.48625057  0.78696885  1
  O  O5  1  0.52063220  0.70635467  0.70927223  1
  O  O6  1  0.70635467  0.52063220  0.20927223  1
  O  O7  1  0.48625057  0.28008634  0.28696885  1
  O  O8  1  0.99143023  0.33363978  0.09796017  1
  O  O9  1  0.67063998  0.00365634  0.39978377  1
  O  O10  1  0.00365634  0.67063998  0.89978377  1
  O  O11  1  0.33363978  0.99143023  0.59796017  1
  O  O12  1  0.81959737  0.27051051  0.53014779  1
  O  O13  1  0.73016128  0.18213321  0.96869564  1
  O  O14  1  0.18213321  0.73016128  0.46869564  1
  O  O15  1  0.27051051  0.81959737  0.03014779  1
  O  O16  1  0.03465675  0.39638806  0.67660962  1
  O  O17  1  0.59940736  0.95803204  0.82188995  1
  O  O18  1  0.95803204  0.59940736  0.32188995  1
  O  O19  1  0.39638806  0.03465675  0.17660962  1
  O  O20  1  0.17655481  0.17920950  0.87093011  1
  O  O21  1  0.82158403  0.82155786  0.63164162  1
  O  O22  1  0.82155786  0.82158403  0.13164162  1
  O  O23  1  0.17920950  0.17655481  0.37093011  1
loop_
_geom_bond_atom_site_label_1
_geom_bond_atom_site_label_2
_geom_bond_distance
_geom_bond_site_symmetry_2
Cd0 O21 2.231926 1_555
Cd0 O0 2.249125 1_555
Cd0 O10 2.259381 1_655
Cd0 O14 2.279977 1_655
Cd0 O18 2.282868 1_555
Cd0 O16 2.299192 1_655
Cd1 O20 2.224795 1_555
Cd1 O1 2.234102 1_555
Cd1 O11 2.256859 1_545
Cd1 O19 2.287061 1_556
Cd1 O15 2.312003 1_546
Cd1 O17 2.317336 1_545
Cd2 O23 2.224795 1_555
Cd2 O2 2.234106 1_555
Cd2 O8 2.256859 1_455
Cd2 O16 2.287061 1_555
Cd2 O12 2.312003 1_455
Cd2 O18 2.317336 1_455
Cd3 O22 2.231926 1_555
Cd3 O3 2.249125 1_555
Cd3 O9 2.259381 1_565
Cd3 O13 2.279977 1_564
Cd3 O17 2.282868 1_554
Cd3 O19 2.299192 1_565
Cd4 O11 2.315067 1_555
Cd4 O4 2.317474 1_555
Cd4 O10 2.320095 1_555
Cd4 O15 2.324247 1_556
Cd4 O14 2.383104 1_555
Cd4 O5 2.405763 1_555
Cd5 O8 2.315067 1_555
Cd5 O7 2.317474 1_555
Cd5 O9 2.320095 1_555
Cd5 O12 2.324247 1_555
Cd5 O13 2.383104 1_554
Cd5 O6 2.405763 1_555
Cd6 O3 2.297860 1_555
Cd6 O1 2.300671 1_555
Cd6 O4 2.325737 1_555
Cd6 O5 2.368286 1_555
Cd6 O6 2.504114 1_555
Cd7 O0 2.297860 1_554
Cd7 O2 2.300673 1_555
Cd7 O7 2.325737 1_555
Cd7 O6 2.368286 1_555
Cd7 O5 2.504114 1_554
O0 V0 1.748358 1_555
O1 V0 1.728682 1_555
O2 V1 1.728672 1_555
O3 V1 1.748358 1_555
O4 V2 1.746861 1_555
O5 V3 1.784606 1_555
O6 V4 1.784606 1_555
O7 V5 1.746861 1_555
O8 V2 1.738540 1_654
O9 V3 1.727234 1_545
O10 V4 1.727234 1_456
O11 V5 1.738540 1_565
O12 V0 1.721345 1_555
O13 V0 1.715270 1_555
O14 V1 1.715270 1_555
O15 V1 1.721345 1_555
O16 V2 1.709692 1_555
O17 V3 1.701822 1_555
O18 V4 1.701822 1_555
O19 V5 1.709692 1_555
O20 V2 1.706366 1_555
O20 Tl1 2.705286 1_546
O20 Tl0 2.787295 1_455
O21 V3 1.695678 1_555
O21 Tl1 2.764645 1_655
O21 Tl0 2.853229 1_565
O22 V4 1.695678 1_555
O22 Tl0 2.764645 1_564
O22 Tl1 2.853229 1_655
O23 V5 1.706366 1_555
O23 Tl0 2.705286 1_455
O23 Tl1 2.787295 1_545
