# generated using pymatgen
data_Mo2Rh2C
_symmetry_space_group_name_H-M   'P 1'
_cell_length_a   5.77694078
_cell_length_b   5.77694078
_cell_length_c   18.72233394
_cell_angle_alpha   81.12499396
_cell_angle_beta   98.87500604
_cell_angle_gamma   120.00000000
_symmetry_Int_Tables_number   1
_chemical_formula_structural   Mo2Rh2C
_chemical_formula_sum   'Mo16 Rh16 C8'
_cell_volume   532.45548243
_cell_formula_units_Z   8
loop_
 _symmetry_equiv_pos_site_id
 _symmetry_equiv_pos_as_xyz
  1  'x, y, z'
loop_
 _atom_site_type_symbol
 _atom_site_label
 _atom_site_symmetry_multiplicity
 _atom_site_fract_x
 _atom_site_fract_y
 _atom_site_fract_z
 _atom_site_occupancy
  Mo  Mo0_0  1  0.49696650  0.00303350  0.49090000  1
  Mo  Mo0_1  1  0.49696650  0.00303350  0.99090000  1
  Mo  Mo0_2  1  0.49696650  0.50303350  0.49090000  1
  Mo  Mo0_3  1  0.49696650  0.50303350  0.99090000  1
  Mo  Mo0_4  1  0.99696650  0.00303350  0.49090000  1
  Mo  Mo0_5  1  0.99696650  0.00303350  0.99090000  1
  Mo  Mo0_6  1  0.99696650  0.50303350  0.49090000  1
  Mo  Mo0_7  1  0.99696650  0.50303350  0.99090000  1
  Mo  Mo1_0  1  0.37803350  0.12196650  0.13410000  1
  Mo  Mo1_1  1  0.37803350  0.12196650  0.63410000  1
  Mo  Mo1_2  1  0.37803350  0.62196650  0.13410000  1
  Mo  Mo1_3  1  0.37803350  0.62196650  0.63410000  1
  Mo  Mo1_4  1  0.87803350  0.12196650  0.13410000  1
  Mo  Mo1_5  1  0.87803350  0.12196650  0.63410000  1
  Mo  Mo1_6  1  0.87803350  0.62196650  0.13410000  1
  Mo  Mo1_7  1  0.87803350  0.62196650  0.63410000  1
  Rh  Rh0_0  1  0.24968650  0.25031350  0.24906000  1
  Rh  Rh0_1  1  0.24968650  0.25031350  0.74906000  1
  Rh  Rh0_2  1  0.24968650  0.75031350  0.24906000  1
  Rh  Rh0_3  1  0.24968650  0.75031350  0.74906000  1
  Rh  Rh0_4  1  0.74968650  0.25031350  0.24906000  1
  Rh  Rh0_5  1  0.74968650  0.25031350  0.74906000  1
  Rh  Rh0_6  1  0.74968650  0.75031350  0.24906000  1
  Rh  Rh0_7  1  0.74968650  0.75031350  0.74906000  1
  Rh  Rh1_0  1  0.12531350  0.37468650  0.37594000  1
  Rh  Rh1_1  1  0.12531350  0.37468650  0.87594000  1
  Rh  Rh1_2  1  0.12531350  0.87468650  0.37594000  1
  Rh  Rh1_3  1  0.12531350  0.87468650  0.87594000  1
  Rh  Rh1_4  1  0.62531350  0.37468650  0.37594000  1
  Rh  Rh1_5  1  0.62531350  0.37468650  0.87594000  1
  Rh  Rh1_6  1  0.62531350  0.87468650  0.37594000  1
  Rh  Rh1_7  1  0.62531350  0.87468650  0.87594000  1
  C  C0_0  1  0.18750000  0.31250000  0.06250000  1
  C  C0_1  1  0.18750000  0.31250000  0.56250000  1
  C  C0_2  1  0.18750000  0.81250000  0.06250000  1
  C  C0_3  1  0.18750000  0.81250000  0.56250000  1
  C  C0_4  1  0.68750000  0.31250000  0.06250000  1
  C  C0_5  1  0.68750000  0.31250000  0.56250000  1
  C  C0_6  1  0.68750000  0.81250000  0.06250000  1
  C  C0_7  1  0.68750000  0.81250000  0.56250000  1
loop_
_geom_bond_atom_site_label_1
_geom_bond_atom_site_label_2
_geom_bond_distance
_geom_bond_site_symmetry_2
Mo0_0 Rh1_2 2.695653 1_545
Mo0_0 Rh1_4 2.695653 1_555
Mo0_0 Rh1_6 2.695656 1_545
Mo0_1 Rh1_3 2.695653 1_545
Mo0_1 Rh1_5 2.695653 1_555
Mo0_1 Rh1_7 2.695656 1_545
Mo0_2 Rh1_0 2.695653 1_555
Mo0_2 Rh1_6 2.695653 1_555
Mo0_2 Rh1_4 2.695656 1_555
Mo0_3 Rh1_7 2.695653 1_555
Mo0_3 Rh1_1 2.695653 1_555
Mo0_3 Rh1_5 2.695656 1_555
Mo0_4 Rh1_6 2.695653 1_545
Mo0_4 Rh1_0 2.695653 1_655
Mo0_4 Rh1_2 2.695656 1_645
Mo0_5 Rh1_7 2.695653 1_545
Mo0_5 Rh1_1 2.695653 1_655
Mo0_5 Rh1_3 2.695656 1_645
Mo0_6 Rh1_2 2.695653 1_655
Mo0_6 Rh1_4 2.695653 1_555
Mo0_6 Rh1_0 2.695656 1_655
Mo0_7 Rh1_3 2.695653 1_655
Mo0_7 Rh1_5 2.695653 1_555
Mo0_7 Rh1_1 2.695656 1_655
Mo1_0 Rh0_4 2.695653 1_555
Mo1_0 Rh0_2 2.695653 1_545
Mo1_0 Rh0_0 2.695656 1_555
Mo1_1 Rh0_3 2.695653 1_545
Mo1_1 Rh0_5 2.695653 1_555
Mo1_1 Rh0_1 2.695656 1_555
Mo1_2 Rh0_6 2.695653 1_555
Mo1_2 Rh0_0 2.695653 1_555
Mo1_2 Rh0_2 2.695656 1_555
Mo1_3 Rh0_1 2.695653 1_555
Mo1_3 Rh0_7 2.695653 1_555
Mo1_3 Rh0_3 2.695656 1_555
Mo1_4 Rh0_0 2.695653 1_655
Mo1_4 Rh0_6 2.695653 1_545
Mo1_4 Rh0_4 2.695656 1_555
Mo1_5 Rh0_1 2.695653 1_655
Mo1_5 Rh0_7 2.695653 1_545
Mo1_5 Rh0_5 2.695656 1_555
Mo1_6 Rh0_2 2.695653 1_655
Mo1_6 Rh0_4 2.695653 1_555
Mo1_6 Rh0_6 2.695656 1_555
Mo1_7 Rh0_5 2.695653 1_555
Mo1_7 Rh0_3 2.695653 1_655
Mo1_7 Rh0_7 2.695656 1_555
Rh0_0 Rh1_0 2.871401 1_555
Rh0_0 Rh1_4 2.871404 1_555
Rh0_0 Rh1_2 2.871404 1_545
Rh0_0 Rh0_2 2.888470 1_555
Rh0_0 Rh0_6 2.888470 1_555
Rh0_0 Rh0_4 2.888470 1_555
Rh0_0 Rh0_4 2.888470 1_455
Rh0_0 Rh0_6 2.888470 1_445
Rh0_0 Rh0_2 2.888470 1_545
Rh0_1 Rh1_1 2.871401 1_555
Rh0_1 Rh1_5 2.871404 1_555
Rh0_1 Rh1_3 2.871404 1_545
Rh0_1 Rh0_7 2.888470 1_555
Rh0_1 Rh0_3 2.888470 1_545
Rh0_1 Rh0_3 2.888470 1_555
Rh0_1 Rh0_5 2.888470 1_555
Rh0_1 Rh0_7 2.888470 1_445
Rh0_1 Rh0_5 2.888470 1_455
Rh0_2 Rh1_2 2.871401 1_555
Rh0_2 Rh1_6 2.871404 1_555
Rh0_2 Rh1_0 2.871404 1_555
Rh0_2 Rh0_4 2.888470 1_455
Rh0_2 Rh0_6 2.888470 1_555
Rh0_2 Rh0_6 2.888470 1_455
Rh0_2 Rh0_4 2.888470 1_565
Rh0_3 Rh1_3 2.871401 1_555
Rh0_3 Rh1_7 2.871404 1_555
Rh0_3 Rh1_1 2.871404 1_555
Rh0_3 Rh0_5 2.888470 1_565
Rh0_3 Rh0_7 2.888470 1_555
Rh0_3 Rh0_7 2.888470 1_455
Rh0_3 Rh0_5 2.888470 1_455
Rh0_4 Rh1_4 2.871401 1_555
Rh0_4 Rh1_6 2.871404 1_545
Rh0_4 Rh1_0 2.871404 1_655
Rh0_4 Rh0_6 2.888470 1_555
Rh0_4 Rh0_6 2.888470 1_545
Rh0_5 Rh1_5 2.871401 1_555
Rh0_5 Rh1_7 2.871404 1_545
Rh0_5 Rh1_1 2.871404 1_655
Rh0_5 Rh0_7 2.888470 1_545
Rh0_5 Rh0_7 2.888470 1_555
Rh0_6 Rh1_6 2.871401 1_555
Rh0_6 Rh1_4 2.871404 1_555
Rh0_6 Rh1_2 2.871404 1_655
Rh0_7 Rh1_7 2.871401 1_555
Rh0_7 Rh1_3 2.871404 1_655
Rh0_7 Rh1_5 2.871404 1_555
Rh1_0 Rh1_4 2.888470 1_555
Rh1_0 Rh1_6 2.888470 1_445
Rh1_0 Rh1_2 2.888470 1_545
Rh1_0 Rh1_2 2.888470 1_555
Rh1_0 Rh1_4 2.888470 1_455
Rh1_0 Rh1_6 2.888470 1_555
Rh1_1 Rh1_5 2.888470 1_455
Rh1_1 Rh1_3 2.888470 1_545
Rh1_1 Rh1_7 2.888470 1_555
Rh1_1 Rh1_3 2.888470 1_555
Rh1_1 Rh1_7 2.888470 1_445
Rh1_1 Rh1_5 2.888470 1_555
Rh1_2 Rh1_6 2.888470 1_555
Rh1_2 Rh1_4 2.888470 1_565
Rh1_2 Rh1_6 2.888470 1_455
Rh1_2 Rh1_4 2.888470 1_455
Rh1_3 Rh1_5 2.888470 1_455
Rh1_3 Rh1_7 2.888470 1_455
Rh1_3 Rh1_5 2.888470 1_565
Rh1_3 Rh1_7 2.888470 1_555
Rh1_4 Rh1_6 2.888470 1_545
Rh1_4 Rh1_6 2.888470 1_555
Rh1_5 Rh1_7 2.888470 1_545
Rh1_5 Rh1_7 2.888470 1_555
C0_0 Mo1_4 2.126275 1_455
C0_0 Mo0_3 2.126275 1_554
C0_0 Mo0_5 2.126275 1_454
C0_0 Mo1_2 2.126275 1_555
C0_0 Mo0_7 2.126277 1_454
C0_0 Mo1_0 2.126277 1_555
C0_1 Mo0_4 2.126275 1_455
C0_1 Mo0_2 2.126275 1_555
C0_1 Mo1_3 2.126275 1_555
C0_1 Mo1_5 2.126275 1_455
C0_1 Mo0_6 2.126277 1_455
C0_1 Mo1_1 2.126277 1_555
C0_2 Mo1_6 2.126275 1_455
C0_2 Mo0_7 2.126275 1_454
C0_2 Mo0_1 2.126275 1_564
C0_2 Mo1_0 2.126275 1_565
C0_2 Mo0_5 2.126277 1_464
C0_2 Mo1_2 2.126277 1_555
C0_3 Mo1_7 2.126275 1_455
C0_3 Mo1_1 2.126275 1_565
C0_3 Mo0_6 2.126275 1_455
C0_3 Mo0_0 2.126275 1_565
C0_3 Mo1_3 2.126277 1_555
C0_3 Mo0_4 2.126277 1_465
C0_4 Mo1_0 2.126275 1_555
C0_4 Mo0_7 2.126275 1_554
C0_4 Mo0_1 2.126275 1_554
C0_4 Mo1_6 2.126275 1_555
C0_4 Mo0_3 2.126277 1_554
C0_4 Mo1_4 2.126277 1_555
C0_5 Mo0_6 2.126275 1_555
C0_5 Mo0_0 2.126275 1_555
C0_5 Mo1_7 2.126275 1_555
C0_5 Mo1_1 2.126275 1_555
C0_5 Mo0_2 2.126277 1_555
C0_5 Mo1_5 2.126277 1_555
C0_6 Mo0_3 2.126275 1_554
C0_6 Mo0_5 2.126275 1_564
C0_6 Mo1_2 2.126275 1_555
C0_6 Mo1_4 2.126275 1_565
C0_6 Mo0_1 2.126277 1_564
C0_6 Mo1_6 2.126277 1_555
C0_7 Mo0_2 2.126275 1_555
C0_7 Mo0_4 2.126275 1_565
C0_7 Mo1_3 2.126275 1_555
C0_7 Mo1_5 2.126275 1_565
C0_7 Mo0_0 2.126277 1_565
C0_7 Mo1_7 2.126277 1_555
