# generated using pymatgen
data_Er6TeO12
_symmetry_space_group_name_H-M   'P 1'
_cell_length_a   9.71264139
_cell_length_b   6.41445164
_cell_length_c   6.57156865
_cell_angle_alpha   118.13396552
_cell_angle_beta   104.44120384
_cell_angle_gamma   79.81532954
_symmetry_Int_Tables_number   1
_chemical_formula_structural   Er6TeO12
_chemical_formula_sum   'Er6 Te1 O12'
_cell_volume   348.79402723
_cell_formula_units_Z   1
loop_
 _symmetry_equiv_pos_site_id
 _symmetry_equiv_pos_as_xyz
  1  'x, y, z'
loop_
 _atom_site_type_symbol
 _atom_site_label
 _atom_site_symmetry_multiplicity
 _atom_site_fract_x
 _atom_site_fract_y
 _atom_site_fract_z
 _atom_site_occupancy
  Er  Er0  1  0.00120200  0.70400800  0.30418400  1
  Er  Er1  1  0.99879800  0.29599200  0.69581600  1
  Er  Er2  1  0.66116900  0.05826000  0.20111500  1
  Er  Er3  1  0.33883100  0.94174000  0.79888500  1
  Er  Er4  1  0.72927900  0.73931700  0.60330300  1
  Er  Er5  1  0.27072100  0.26068300  0.39669700  1
  Te  Te0  1  0.00000000  0.00000000  0.00000000  1
  O  O0  1  0.95876400  0.92710700  0.67188100  1
  O  O1  1  0.04123600  0.07289300  0.32811900  1
  O  O2  1  0.99522600  0.67260000  0.93509400  1
  O  O3  1  0.00477400  0.32740000  0.06490600  1
  O  O4  1  0.79984300  0.02859500  0.96902400  1
  O  O5  1  0.20015700  0.97140500  0.03097600  1
  O  O6  1  0.55765000  0.83905100  0.78791000  1
  O  O7  1  0.44235000  0.16094900  0.21209000  1
  O  O8  1  0.79069800  0.37095300  0.50529600  1
  O  O9  1  0.20930200  0.62904700  0.49470400  1
  O  O10  1  0.75252000  0.78946500  0.30631900  1
  O  O11  1  0.24748000  0.21053500  0.69368100  1
loop_
_geom_bond_atom_site_label_1
_geom_bond_atom_site_label_2
_geom_bond_distance
_geom_bond_site_symmetry_2
Er0 O3 2.173652 1_555
Er0 O9 2.201332 1_555
Er0 O0 2.254695 1_455
Er0 O2 2.323810 1_454
Er0 O10 2.382449 1_455
Er0 O1 2.391378 1_565
Er1 O2 2.173652 1_555
Er1 O8 2.201332 1_555
Er1 O1 2.254695 1_655
Er1 O3 2.323810 1_656
Er1 O11 2.382449 1_655
Er1 O0 2.391378 1_545
Er2 O7 2.119576 1_555
Er2 O10 2.124894 1_545
Er2 O4 2.199283 1_554
Er2 O8 2.336341 1_555
Er2 O6 2.428769 1_544
Er3 O6 2.119576 1_555
Er3 O11 2.124894 1_565
Er3 O5 2.199283 1_556
Er3 O9 2.336341 1_555
Er3 O7 2.428769 1_566
Er4 O6 2.135280 1_555
Er4 O8 2.147493 1_555
Er4 O10 2.191080 1_555
Er4 O4 2.260851 1_565
Er4 O0 2.560982 1_555
Er5 O7 2.135280 1_555
Er5 O9 2.147493 1_555
Er5 O11 2.191080 1_555
Er5 O5 2.260851 1_545
Er5 O1 2.560982 1_555
O0 Te0 1.926955 1_666
O1 Te0 1.926955 1_555
O2 Te0 1.942749 1_666
O3 Te0 1.942749 1_555
O4 Te0 1.888426 1_656
O5 Te0 1.888426 1_565
