# generated using pymatgen
data_CrNiSb2
_symmetry_space_group_name_H-M   'P 1'
_cell_length_a   4.02716235
_cell_length_b   4.02716235
_cell_length_c   5.44407800
_cell_angle_alpha   90.00000000
_cell_angle_beta   90.00000000
_cell_angle_gamma   120.00000573
_symmetry_Int_Tables_number   1
_chemical_formula_structural   CrNiSb2
_chemical_formula_sum   'Cr1 Ni1 Sb2'
_cell_volume   76.46333239
_cell_formula_units_Z   1
loop_
 _symmetry_equiv_pos_site_id
 _symmetry_equiv_pos_as_xyz
  1  'x, y, z'
loop_
 _atom_site_type_symbol
 _atom_site_label
 _atom_site_symmetry_multiplicity
 _atom_site_fract_x
 _atom_site_fract_y
 _atom_site_fract_z
 _atom_site_occupancy
  Cr  Cr0  1  0.00000000  0.00000000  0.00000000  1
  Ni  Ni0  1  0.00000000  0.00000000  0.50000000  1
  Sb  Sb0  1  0.33333300  0.66666700  0.26984800  1
  Sb  Sb1  1  0.66666700  0.33333300  0.73015200  1
loop_
_geom_bond_atom_site_label_1
_geom_bond_atom_site_label_2
_geom_bond_distance
_geom_bond_site_symmetry_2
Cr0 Ni0 2.722039 1_555
Cr0 Ni0 2.722039 1_554
Cr0 Sb0 2.750305 1_545
Cr0 Sb1 2.750305 1_454
Cr0 Sb0 2.750308 1_445
Cr0 Sb0 2.750308 1_555
Cr0 Sb1 2.750308 1_444
Cr0 Sb1 2.750308 1_554
Ni0 Sb1 2.641197 1_455
Ni0 Sb0 2.641197 1_545
Ni0 Sb1 2.641200 1_555
Ni0 Sb1 2.641200 1_445
Ni0 Sb0 2.641200 1_555
Ni0 Sb0 2.641200 1_445
