# generated using pymatgen
data_ZnFe2S5
_symmetry_space_group_name_H-M   'P 1'
_cell_length_a   3.66105200
_cell_length_b   5.92466200
_cell_length_c   13.47083300
_cell_angle_alpha   90.00000000
_cell_angle_beta   90.00000000
_cell_angle_gamma   90.00000000
_symmetry_Int_Tables_number   1
_chemical_formula_structural   ZnFe2S5
_chemical_formula_sum   'Zn2 Fe4 S10'
_cell_volume   292.18904478
_cell_formula_units_Z   2
loop_
 _symmetry_equiv_pos_site_id
 _symmetry_equiv_pos_as_xyz
  1  'x, y, z'
loop_
 _atom_site_type_symbol
 _atom_site_label
 _atom_site_symmetry_multiplicity
 _atom_site_fract_x
 _atom_site_fract_y
 _atom_site_fract_z
 _atom_site_occupancy
  Zn  Zn0  1  0.00000000  0.05490400  0.50000000  1
  Zn  Zn1  1  0.50000000  0.94509600  0.00000000  1
  Fe  Fe0  1  0.50000000  0.56573400  0.64524900  1
  Fe  Fe1  1  0.00000000  0.43426600  0.85475100  1
  Fe  Fe2  1  0.00000000  0.43426600  0.14524900  1
  Fe  Fe3  1  0.50000000  0.56573400  0.35475100  1
  S  S0  1  0.00000000  0.59905800  0.00000000  1
  S  S1  1  0.50000000  0.40094200  0.50000000  1
  S  S2  1  0.00000000  0.38831000  0.68954400  1
  S  S3  1  0.50000000  0.61169000  0.81045600  1
  S  S4  1  0.00000000  0.38831000  0.31045600  1
  S  S5  1  0.50000000  0.61169000  0.18954400  1
  S  S6  1  0.50000000  0.90570800  0.39250000  1
  S  S7  1  0.00000000  0.09429200  0.10750000  1
  S  S8  1  0.00000000  0.09429200  0.89250000  1
  S  S9  1  0.50000000  0.90570800  0.60750000  1
loop_
_geom_bond_atom_site_label_1
_geom_bond_atom_site_label_2
_geom_bond_distance
_geom_bond_site_symmetry_2
Fe0 S9 2.077429 1_555
Fe0 S1 2.186690 1_555
Fe0 S2 2.193590 1_655
Fe0 S2 2.193590 1_555
Fe0 S3 2.242070 1_555
Fe1 S8 2.077429 1_555
Fe1 S0 2.186690 1_556
Fe1 S3 2.193590 1_555
Fe1 S3 2.193590 1_455
Fe1 S2 2.242070 1_555
Fe2 S7 2.077429 1_555
Fe2 S0 2.186690 1_555
Fe2 S5 2.193590 1_555
Fe2 S5 2.193590 1_455
Fe2 S4 2.242070 1_555
Fe3 S6 2.077429 1_555
Fe3 S1 2.186690 1_555
Fe3 S4 2.193590 1_555
Fe3 S4 2.193590 1_655
Fe3 S5 2.242070 1_555
S0 Zn1 2.748449 1_555
S0 Zn1 2.748449 1_455
S1 Zn0 2.748449 1_555
S1 Zn0 2.748449 1_655
S6 Zn0 2.495837 1_665
S6 Zn0 2.495837 1_565
S7 Zn1 2.495837 1_445
S7 Zn1 2.495837 1_545
S8 Zn1 2.495837 1_546
S8 Zn1 2.495837 1_446
S9 Zn0 2.495837 1_665
S9 Zn0 2.495837 1_565
