# generated using pymatgen
data_Bi3(AsO5)2
_symmetry_space_group_name_H-M   'P 1'
_cell_length_a   7.05289500
_cell_length_b   7.36888090
_cell_length_c   9.55780453
_cell_angle_alpha   110.37384773
_cell_angle_beta   106.78816272
_cell_angle_gamma   91.90552698
_symmetry_Int_Tables_number   1
_chemical_formula_structural   Bi3(AsO5)2
_chemical_formula_sum   'Bi6 As4 O20'
_cell_volume   440.83266954
_cell_formula_units_Z   2
loop_
 _symmetry_equiv_pos_site_id
 _symmetry_equiv_pos_as_xyz
  1  'x, y, z'
loop_
 _atom_site_type_symbol
 _atom_site_label
 _atom_site_symmetry_multiplicity
 _atom_site_fract_x
 _atom_site_fract_y
 _atom_site_fract_z
 _atom_site_occupancy
  Bi  Bi0  1  0.22781500  0.59002100  0.47781100  1
  Bi  Bi1  1  0.77218500  0.40997900  0.52218900  1
  Bi  Bi2  1  0.26789300  0.24251600  0.69978900  1
  Bi  Bi3  1  0.73210700  0.75748400  0.30021100  1
  Bi  Bi4  1  0.20584400  0.83398400  0.92442400  1
  Bi  Bi5  1  0.79415600  0.16601600  0.07557600  1
  As  As0  1  0.22727300  0.97929100  0.30311800  1
  As  As1  1  0.77272700  0.02070900  0.69688200  1
  As  As2  1  0.69304700  0.62646600  0.90447700  1
  As  As3  1  0.30695300  0.37353400  0.09552300  1
  O  O0  1  0.10215800  0.46998100  0.62822700  1
  O  O1  1  0.89784200  0.53001900  0.37177300  1
  O  O2  1  0.20004500  0.83376900  0.68616800  1
  O  O3  1  0.79995500  0.16623100  0.31383200  1
  O  O4  1  0.04405700  0.96667200  0.13127800  1
  O  O5  1  0.95594300  0.03332800  0.86872200  1
  O  O6  1  0.31570300  0.20807900  0.45025300  1
  O  O7  1  0.68429700  0.79192100  0.54974700  1
  O  O8  1  0.12233200  0.84429100  0.38515000  1
  O  O9  1  0.87766800  0.15570900  0.61485000  1
  O  O10  1  0.41081700  0.88451500  0.22787100  1
  O  O11  1  0.58918300  0.11548500  0.77212900  1
  O  O12  1  0.50097500  0.48370700  0.73551600  1
  O  O13  1  0.49902500  0.51629300  0.26448400  1
  O  O14  1  0.73787800  0.53738700  0.05412400  1
  O  O15  1  0.26212200  0.46261300  0.94587600  1
  O  O16  1  0.61015100  0.84934300  0.97632900  1
  O  O17  1  0.38984900  0.15065700  0.02367100  1
  O  O18  1  0.88490300  0.62839600  0.82863900  1
  O  O19  1  0.11509700  0.37160400  0.17136100  1
loop_
_geom_bond_atom_site_label_1
_geom_bond_atom_site_label_2
_geom_bond_distance
_geom_bond_site_symmetry_2
Bi0 O1 2.212657 1_455
Bi0 O2 2.233489 1_555
Bi0 O0 2.281237 1_555
Bi0 O8 2.390823 1_555
Bi0 O19 2.662483 1_555
Bi0 O6 2.840616 1_555
Bi1 O0 2.212657 1_655
Bi1 O3 2.233489 1_555
Bi1 O1 2.281237 1_555
Bi1 O9 2.390823 1_555
Bi1 O18 2.662483 1_555
Bi1 O7 2.840616 1_555
Bi2 O12 2.244257 1_555
Bi2 O0 2.260621 1_555
Bi2 O15 2.359620 1_555
Bi2 O6 2.432130 1_555
Bi2 O11 2.485117 1_555
Bi2 O9 2.621750 1_455
Bi3 O13 2.244257 1_555
Bi3 O1 2.260621 1_555
Bi3 O14 2.359620 1_555
Bi3 O7 2.432130 1_555
Bi3 O10 2.485117 1_555
Bi3 O8 2.621750 1_655
Bi4 O2 2.265175 1_555
Bi4 O17 2.361262 1_566
Bi4 O5 2.392150 1_465
Bi4 O18 2.422000 1_455
Bi4 O4 2.489630 1_556
Bi4 O10 2.725881 1_556
Bi4 O16 2.740880 1_555
Bi4 O15 2.846825 1_555
Bi5 O3 2.265175 1_555
Bi5 O16 2.361262 1_544
Bi5 O4 2.392150 1_645
Bi5 O19 2.422000 1_655
Bi5 O5 2.489630 1_554
Bi5 O11 2.725881 1_554
Bi5 O17 2.740880 1_555
Bi5 O14 2.846825 1_555
As0 O10 1.711425 1_555
As0 O8 1.726701 1_555
As0 O6 1.726709 1_565
As0 O4 1.742304 1_555
As1 O11 1.711425 1_555
As1 O9 1.726701 1_555
As1 O7 1.726709 1_545
As1 O5 1.742304 1_555
As2 O18 1.711454 1_555
As2 O14 1.727101 1_556
As2 O12 1.734438 1_555
As2 O16 1.738171 1_555
As3 O19 1.711454 1_555
As3 O15 1.727101 1_554
As3 O13 1.734438 1_555
As3 O17 1.738171 1_555
