# generated using pymatgen
data_ScBe5
_symmetry_space_group_name_H-M   'P 1'
_cell_length_a   4.53656047
_cell_length_b   4.53656051
_cell_length_c   3.53031121
_cell_angle_alpha   90.00000000
_cell_angle_beta   90.00000000
_cell_angle_gamma   119.99999976
_symmetry_Int_Tables_number   1
_chemical_formula_structural   ScBe5
_chemical_formula_sum   'Sc1 Be5'
_cell_volume   62.92120584
_cell_formula_units_Z   1
loop_
 _symmetry_equiv_pos_site_id
 _symmetry_equiv_pos_as_xyz
  1  'x, y, z'
loop_
 _atom_site_type_symbol
 _atom_site_label
 _atom_site_symmetry_multiplicity
 _atom_site_fract_x
 _atom_site_fract_y
 _atom_site_fract_z
 _atom_site_occupancy
  Sc  Sc0  1  -0.00000000  -0.00000000  0.00000000  1
  Be  Be0  1  0.33333300  0.66666700  0.00000000  1
  Be  Be1  1  0.66666700  0.33333300  -0.00000000  1
  Be  Be2  1  0.50000000  -0.00000000  0.50000000  1
  Be  Be3  1  0.50000000  0.50000000  0.50000000  1
  Be  Be4  1  -0.00000000  0.50000000  0.50000000  1
loop_
_geom_bond_atom_site_label_1
_geom_bond_atom_site_label_2
_geom_bond_distance
_geom_bond_site_symmetry_2
Be0 Be4 2.197909 1_555
Be0 Be4 2.197909 1_554
Be0 Be2 2.197909 1_564
Be0 Be2 2.197909 1_565
Be0 Be3 2.197911 1_554
Be0 Be3 2.197911 1_555
Be0 Sc0 2.619182 1_565
Be0 Sc0 2.619186 1_665
Be0 Sc0 2.619186 1_555
Be1 Be4 2.197909 1_654
Be1 Be4 2.197909 1_655
Be1 Be2 2.197909 1_555
Be1 Be2 2.197909 1_554
Be1 Be3 2.197911 1_554
Be1 Be3 2.197911 1_555
Be1 Sc0 2.619182 1_655
Be1 Sc0 2.619186 1_555
Be1 Sc0 2.619186 1_665
Be2 Be4 2.268280 1_655
Be2 Be4 2.268280 1_545
Be2 Be3 2.268280 1_545
Be2 Be3 2.268280 1_555
Be2 Sc0 2.874173 1_556
Be2 Sc0 2.874173 1_655
Be2 Sc0 2.874173 1_555
Be2 Sc0 2.874173 1_656
Be3 Be4 2.268280 1_555
Be3 Be4 2.268280 1_655
Be3 Sc0 2.874173 1_555
Be3 Sc0 2.874173 1_666
Be3 Sc0 2.874173 1_556
Be3 Sc0 2.874173 1_665
Be4 Sc0 2.874173 1_555
Be4 Sc0 2.874173 1_556
Be4 Sc0 2.874173 1_565
Be4 Sc0 2.874173 1_566
