# generated using pymatgen
data_Ta6Bi2O19
_symmetry_space_group_name_H-M   'P 1'
_cell_length_a   6.34050577
_cell_length_b   6.34050577
_cell_length_c   20.58786800
_cell_angle_alpha   90.00000000
_cell_angle_beta   90.00000000
_cell_angle_gamma   119.99999757
_symmetry_Int_Tables_number   1
_chemical_formula_structural   Ta6Bi2O19
_chemical_formula_sum   'Ta12 Bi4 O38'
_cell_volume   716.78650665
_cell_formula_units_Z   2
loop_
 _symmetry_equiv_pos_site_id
 _symmetry_equiv_pos_as_xyz
  1  'x, y, z'
loop_
 _atom_site_type_symbol
 _atom_site_label
 _atom_site_symmetry_multiplicity
 _atom_site_fract_x
 _atom_site_fract_y
 _atom_site_fract_z
 _atom_site_occupancy
  Ta  Ta0  1  0.35433900  0.00000000  0.65720700  1
  Ta  Ta1  1  0.64566100  0.00000000  0.34279300  1
  Ta  Ta2  1  0.00000000  0.35433900  0.65720700  1
  Ta  Ta3  1  0.64566100  0.00000000  0.15720700  1
  Ta  Ta4  1  0.00000000  0.35433900  0.84279300  1
  Ta  Ta5  1  0.00000000  0.64566100  0.34279300  1
  Ta  Ta6  1  0.35433900  0.00000000  0.84279300  1
  Ta  Ta7  1  0.00000000  0.64566100  0.15720700  1
  Ta  Ta8  1  0.64566100  0.64566100  0.65720700  1
  Ta  Ta9  1  0.35433900  0.35433900  0.34279300  1
  Ta  Ta10  1  0.35433900  0.35433900  0.15720700  1
  Ta  Ta11  1  0.64566100  0.64566100  0.84279300  1
  Bi  Bi0  1  0.33333300  0.66666700  0.50000000  1
  Bi  Bi1  1  0.66666700  0.33333300  0.50000000  1
  Bi  Bi2  1  0.66666700  0.33333300  0.00000000  1
  Bi  Bi3  1  0.33333300  0.66666700  0.00000000  1
  O  O0  1  0.40010800  0.00000000  0.55841500  1
  O  O1  1  0.59989200  0.00000000  0.44158500  1
  O  O2  1  0.00000000  0.40010800  0.55841500  1
  O  O3  1  0.59989200  0.00000000  0.05841500  1
  O  O4  1  0.00000000  0.40010800  0.94158500  1
  O  O5  1  0.00000000  0.59989200  0.44158500  1
  O  O6  1  0.40010800  0.00000000  0.94158500  1
  O  O7  1  0.00000000  0.59989200  0.05841500  1
  O  O8  1  0.59989200  0.59989200  0.55841500  1
  O  O9  1  0.40010800  0.40010800  0.44158500  1
  O  O10  1  0.40010800  0.40010800  0.05841500  1
  O  O11  1  0.59989200  0.59989200  0.94158500  1
  O  O12  1  0.33333300  0.66666700  0.65004800  1
  O  O13  1  0.66666700  0.33333300  0.34995200  1
  O  O14  1  0.66666700  0.33333300  0.15004800  1
  O  O15  1  0.66666700  0.33333300  0.84995200  1
  O  O16  1  0.33333300  0.66666700  0.84995200  1
  O  O17  1  0.33333300  0.66666700  0.15004800  1
  O  O18  1  0.33333300  0.66666700  0.34995200  1
  O  O19  1  0.66666700  0.33333300  0.65004800  1
  O  O20  1  0.24076100  0.00000000  0.15476700  1
  O  O21  1  0.75923900  0.00000000  0.84523300  1
  O  O22  1  0.00000000  0.24076100  0.15476700  1
  O  O23  1  0.75923900  0.00000000  0.65476700  1
  O  O24  1  0.00000000  0.24076100  0.34523300  1
  O  O25  1  0.00000000  0.75923900  0.84523300  1
  O  O26  1  0.24076100  0.00000000  0.34523300  1
  O  O27  1  0.00000000  0.75923900  0.65476700  1
  O  O28  1  0.75923900  0.75923900  0.15476700  1
  O  O29  1  0.24076100  0.24076100  0.84523300  1
  O  O30  1  0.24076100  0.24076100  0.65476700  1
  O  O31  1  0.75923900  0.75923900  0.34523300  1
  O  O32  1  0.39541800  0.00000000  0.75000000  1
  O  O33  1  0.60458200  0.00000000  0.25000000  1
  O  O34  1  0.00000000  0.39541800  0.75000000  1
  O  O35  1  0.00000000  0.60458200  0.25000000  1
  O  O36  1  0.60458200  0.60458200  0.75000000  1
  O  O37  1  0.39541800  0.39541800  0.25000000  1
loop_
_geom_bond_atom_site_label_1
_geom_bond_atom_site_label_2
_geom_bond_distance
_geom_bond_site_symmetry_2
Bi0 O5 2.279836 1_555
Bi0 O0 2.279836 1_565
Bi0 O1 2.279838 1_565
Bi0 O2 2.279838 1_555
Bi0 O8 2.279841 1_555
Bi0 O9 2.279841 1_555
Bi1 O1 2.279836 1_555
Bi1 O2 2.279836 1_655
Bi1 O5 2.279838 1_655
Bi1 O0 2.279838 1_555
Bi1 O8 2.279841 1_555
Bi1 O9 2.279841 1_555
Bi2 O3 2.279836 1_555
Bi2 O4 2.279836 1_654
Bi2 O7 2.279838 1_655
Bi2 O6 2.279838 1_554
Bi2 O10 2.279841 1_555
Bi2 O11 2.279841 1_554
Bi3 O7 2.279836 1_555
Bi3 O6 2.279836 1_564
Bi3 O3 2.279838 1_565
Bi3 O4 2.279838 1_554
Bi3 O10 2.279841 1_555
Bi3 O11 2.279841 1_554
O0 Ta0 2.054515 1_555
O1 Ta1 2.054515 1_555
O2 Ta2 2.054515 1_555
O3 Ta3 2.054515 1_555
O4 Ta4 2.054515 1_555
O5 Ta5 2.054515 1_555
O6 Ta6 2.054515 1_555
O7 Ta7 2.054515 1_555
O8 Ta8 2.054515 1_555
O9 Ta9 2.054515 1_555
O10 Ta10 2.054515 1_555
O11 Ta11 2.054515 1_555
O12 Ta0 2.055444 1_565
O12 Ta2 2.055447 1_555
O12 Ta8 2.055450 1_555
O13 Ta1 2.055444 1_555
O13 Ta5 2.055447 1_655
O13 Ta9 2.055450 1_555
O14 Ta3 2.055444 1_555
O14 Ta7 2.055447 1_655
O14 Ta10 2.055450 1_555
O15 Ta4 2.055444 1_655
O15 Ta6 2.055447 1_555
O15 Ta11 2.055450 1_555
O16 Ta6 2.055444 1_565
O16 Ta4 2.055447 1_555
O16 Ta11 2.055450 1_555
O17 Ta7 2.055444 1_555
O17 Ta3 2.055447 1_565
O17 Ta10 2.055450 1_555
O18 Ta5 2.055444 1_555
O18 Ta1 2.055447 1_565
O18 Ta9 2.055450 1_555
O19 Ta2 2.055444 1_655
O19 Ta0 2.055447 1_555
O19 Ta8 2.055450 1_555
O20 Ta10 1.987663 1_555
O20 Ta7 1.987663 1_545
O21 Ta11 1.987663 1_545
O21 Ta4 1.987663 1_655
O22 Ta10 1.987663 1_555
O22 Ta3 1.987663 1_455
O23 Ta8 1.987663 1_545
O23 Ta2 1.987663 1_655
O24 Ta9 1.987663 1_555
O24 Ta1 1.987663 1_455
O25 Ta11 1.987663 1_455
O25 Ta6 1.987663 1_565
O26 Ta9 1.987663 1_555
O26 Ta5 1.987663 1_545
O27 Ta8 1.987663 1_455
O27 Ta0 1.987663 1_565
O28 Ta7 1.987663 1_655
O28 Ta3 1.987663 1_565
O29 Ta6 1.987663 1_555
O29 Ta4 1.987663 1_555
O30 Ta0 1.987663 1_555
O30 Ta2 1.987663 1_555
O31 Ta1 1.987663 1_565
O31 Ta5 1.987663 1_655
O32 Ta6 1.928084 1_555
O32 Ta0 1.928084 1_555
O33 Ta1 1.928084 1_555
O33 Ta3 1.928084 1_555
O34 Ta2 1.928084 1_555
O34 Ta4 1.928084 1_555
O35 Ta5 1.928084 1_555
O35 Ta7 1.928084 1_555
O36 Ta8 1.928084 1_555
O36 Ta11 1.928084 1_555
O37 Ta9 1.928084 1_555
O37 Ta10 1.928084 1_555
