# generated using pymatgen
data_Co2PO5
_symmetry_space_group_name_H-M   'P 1'
_cell_length_a   5.41166629
_cell_length_b   5.35539090
_cell_length_c   7.35005307
_cell_angle_alpha   111.46016563
_cell_angle_beta   111.63652396
_cell_angle_gamma   89.97461617
_symmetry_Int_Tables_number   1
_chemical_formula_structural   Co2PO5
_chemical_formula_sum   'Co4 P2 O10'
_cell_volume   182.04072241
_cell_formula_units_Z   2
loop_
 _symmetry_equiv_pos_site_id
 _symmetry_equiv_pos_as_xyz
  1  'x, y, z'
loop_
 _atom_site_type_symbol
 _atom_site_label
 _atom_site_symmetry_multiplicity
 _atom_site_fract_x
 _atom_site_fract_y
 _atom_site_fract_z
 _atom_site_occupancy
  Co  Co0  1  0.00000000  0.00000000  0.00000000  1
  Co  Co1  1  0.00000000  0.50000000  0.00000000  1
  Co  Co2  1  0.00000000  0.00000000  0.50000000  1
  Co  Co3  1  0.50000000  0.00000000  0.50000000  1
  P  P0  1  0.62925600  0.37894200  0.25865200  1
  P  P1  1  0.37074400  0.62105800  0.74134800  1
  O  O0  1  0.80455200  0.31202700  0.12476500  1
  O  O1  1  0.30335400  0.79450400  0.60683700  1
  O  O2  1  0.30355600  0.31258700  0.60683800  1
  O  O3  1  0.32012600  0.31195300  0.12479600  1
  O  O4  1  0.19544800  0.68797300  0.87523500  1
  O  O5  1  0.69664500  0.20549600  0.39316300  1
  O  O6  1  0.69644400  0.68741300  0.39316300  1
  O  O7  1  0.67987400  0.68804700  0.87520400  1
  O  O8  1  0.11225400  0.86198400  0.22443400  1
  O  O9  1  0.88774600  0.13801600  0.77556600  1
loop_
_geom_bond_atom_site_label_1
_geom_bond_atom_site_label_2
_geom_bond_distance
_geom_bond_site_symmetry_2
Co0 O8 1.946612 1_545
Co0 O9 1.946612 1_454
Co0 O7 2.084008 1_444
Co0 O3 2.084008 1_555
Co0 O0 2.084334 1_455
Co0 O4 2.084334 1_544
Co1 O8 1.941755 1_555
Co1 O9 1.941755 1_454
Co1 O7 2.087901 1_454
Co1 O3 2.087901 1_555
Co1 O0 2.089195 1_455
Co1 O4 2.089195 1_554
Co2 O1 2.050088 1_545
Co2 O5 2.050092 1_455
Co2 O2 2.051071 1_555
Co2 O6 2.051073 1_445
Co2 O9 2.197552 1_455
Co2 O8 2.197552 1_545
Co3 O6 2.049713 1_545
Co3 O2 2.049715 1_555
Co3 O5 2.051789 1_555
Co3 O1 2.051792 1_545
Co3 O8 2.196263 1_545
Co3 O9 2.196263 1_555
O0 P0 1.557830 1_555
O1 P1 1.542409 1_555
O2 P1 1.542426 1_555
O3 P0 1.556862 1_555
O4 P1 1.557830 1_555
O5 P0 1.542409 1_555
O6 P0 1.542427 1_555
O7 P1 1.556862 1_555
