# generated using pymatgen
data_ThV2H4O9
_symmetry_space_group_name_H-M   'P 1'
_cell_length_a   7.12569581
_cell_length_b   7.48832630
_cell_length_c   7.83941776
_cell_angle_alpha   77.81671806
_cell_angle_beta   74.59833351
_cell_angle_gamma   85.04881059
_symmetry_Int_Tables_number   1
_chemical_formula_structural   ThV2H4O9
_chemical_formula_sum   'Th2 V4 H8 O18'
_cell_volume   393.99904617
_cell_formula_units_Z   2
loop_
 _symmetry_equiv_pos_site_id
 _symmetry_equiv_pos_as_xyz
  1  'x, y, z'
loop_
 _atom_site_type_symbol
 _atom_site_label
 _atom_site_symmetry_multiplicity
 _atom_site_fract_x
 _atom_site_fract_y
 _atom_site_fract_z
 _atom_site_occupancy
  Th  Th0  1  0.64177600  0.75534600  0.91698400  1
  Th  Th1  1  0.35822400  0.24465400  0.08301600  1
  V  V0  1  0.20631200  0.66423500  0.74586800  1
  V  V1  1  0.79368800  0.33576500  0.25413200  1
  V  V2  1  0.27212000  0.70744900  0.29270500  1
  V  V3  1  0.72788000  0.29255100  0.70729500  1
  H  H0  1  0.60206200  0.82659200  0.50886600  1
  H  H1  1  0.39793800  0.17340800  0.49113400  1
  H  H2  1  0.82978800  0.78912300  0.48721000  1
  H  H3  1  0.17021200  0.21087700  0.51279000  1
  H  H4  1  0.76663000  0.00885200  0.13422700  1
  H  H5  1  0.23337000  0.99114800  0.86577300  1
  H  H6  1  0.90456200  0.82390300  0.15701300  1
  H  H7  1  0.09543800  0.17609700  0.84298700  1
  O  O0  1  0.38272100  0.54718200  0.15802100  1
  O  O1  1  0.61727900  0.45281800  0.84197900  1
  O  O2  1  0.34326600  0.80417200  0.81419600  1
  O  O3  1  0.65673400  0.19582800  0.18580400  1
  O  O4  1  0.39315800  0.90394100  0.15888000  1
  O  O5  1  0.60684200  0.09605900  0.84112000  1
  O  O6  1  0.97136600  0.74897600  0.76521800  1
  O  O7  1  0.02863400  0.25102400  0.23478200  1
  O  O8  1  0.20954000  0.45547900  0.88092000  1
  O  O9  1  0.79046000  0.54452100  0.11908000  1
  O  O10  1  0.32696200  0.65758700  0.51020000  1
  O  O11  1  0.67303800  0.34241300  0.48980000  1
  O  O12  1  0.03158500  0.72869600  0.31801400  1
  O  O13  1  0.96841500  0.27130400  0.68198600  1
  O  O14  1  0.70624000  0.82577600  0.56897500  1
  O  O15  1  0.29376000  0.17422400  0.43102500  1
  O  O16  1  0.81134600  0.89231500  0.09022500  1
  O  O17  1  0.18865400  0.10768500  0.90977500  1
loop_
_geom_bond_atom_site_label_1
_geom_bond_atom_site_label_2
_geom_bond_distance
_geom_bond_site_symmetry_2
H0 O14 0.978244 1_555
H1 O15 0.978244 1_555
H2 O14 0.997022 1_555
H3 O15 0.997022 1_555
H4 O16 1.001371 1_545
H4 O3 1.618209 1_555
H5 O17 1.001371 1_565
H5 O2 1.618209 1_555
H6 O16 0.995267 1_555
H7 O17 0.995267 1_555
O0 V2 1.762333 1_555
O0 Th1 2.488652 1_555
O0 Th0 2.609335 1_554
O1 V3 1.762333 1_555
O1 Th0 2.488652 1_555
O1 Th1 2.609335 1_556
O2 V0 1.740250 1_555
O2 Th0 2.441176 1_555
O3 V1 1.740250 1_555
O3 Th1 2.441176 1_555
O4 V2 1.759659 1_555
O4 Th1 2.500743 1_565
O4 Th0 2.595880 1_554
O5 V3 1.759659 1_555
O5 Th0 2.500743 1_545
O5 Th1 2.595880 1_556
O6 V0 1.717799 1_655
O6 Th0 2.335367 1_555
O7 V1 1.717799 1_455
O7 Th1 2.335367 1_555
O8 V0 1.695082 1_555
O8 Th1 2.381615 1_556
O9 V1 1.695082 1_555
O9 Th0 2.381615 1_554
O10 V2 1.805352 1_555
O10 V0 1.828280 1_555
O11 V3 1.805352 1_555
O11 V1 1.828280 1_555
O12 V2 1.669738 1_555
O13 V3 1.669738 1_555
O14 Th0 2.588632 1_555
O15 Th1 2.588632 1_555
O16 Th0 2.455600 1_554
O17 Th1 2.455600 1_556
