# generated using pymatgen
data_Cr2CdO4
_symmetry_space_group_name_H-M   'P 1'
_cell_length_a   6.10413593
_cell_length_b   6.10413352
_cell_length_c   6.10413163
_cell_angle_alpha   59.99999919
_cell_angle_beta   60.00001221
_cell_angle_gamma   60.00000670
_symmetry_Int_Tables_number   1
_chemical_formula_structural   Cr2CdO4
_chemical_formula_sum   'Cr4 Cd2 O8'
_cell_volume   160.82633768
_cell_formula_units_Z   2
loop_
 _symmetry_equiv_pos_site_id
 _symmetry_equiv_pos_as_xyz
  1  'x, y, z'
loop_
 _atom_site_type_symbol
 _atom_site_label
 _atom_site_symmetry_multiplicity
 _atom_site_fract_x
 _atom_site_fract_y
 _atom_site_fract_z
 _atom_site_occupancy
  Cr  Cr0  1  0.50000000  0.00000000  0.50000000  1
  Cr  Cr1  1  0.00000000  0.50000000  0.50000000  1
  Cr  Cr2  1  0.50000000  0.50000000  0.00000000  1
  Cr  Cr3  1  0.50000000  0.50000000  0.50000000  1
  Cd  Cd0  1  0.12500000  0.12500000  0.12500000  1
  Cd  Cd1  1  0.87500000  0.87500000  0.87500000  1
  O  O0  1  0.73120550  0.73120650  0.73120850  1
  O  O1  1  0.26879350  0.26879250  0.69362151  1
  O  O2  1  0.26879450  0.69362051  0.26879250  1
  O  O3  1  0.69362051  0.26879350  0.26879250  1
  O  O4  1  0.73120550  0.30637949  0.73120750  1
  O  O5  1  0.30637949  0.73120650  0.73120750  1
  O  O6  1  0.26879450  0.26879350  0.26879150  1
  O  O7  1  0.73120650  0.73120750  0.30637849  1
loop_
_geom_bond_atom_site_label_1
_geom_bond_atom_site_label_2
_geom_bond_distance
_geom_bond_site_symmetry_2
Cr0 O7 2.009049 1_545
Cr0 O1 2.009049 1_555
Cr0 O6 2.009049 1_555
Cr0 O0 2.009049 1_545
Cr0 O3 2.009050 1_555
Cr0 O5 2.009050 1_545
Cr1 O7 2.009053 1_455
Cr1 O1 2.009053 1_555
Cr1 O6 2.009054 1_555
Cr1 O0 2.009054 1_455
Cr1 O2 2.009054 1_555
Cr1 O4 2.009054 1_455
Cr2 O0 2.009040 1_554
Cr2 O6 2.009040 1_555
Cr2 O5 2.009044 1_554
Cr2 O3 2.009044 1_555
Cr2 O4 2.009045 1_554
Cr2 O2 2.009045 1_555
Cr3 O4 2.009045 1_555
Cr3 O2 2.009045 1_555
Cr3 O7 2.009049 1_555
Cr3 O1 2.009049 1_555
Cr3 O5 2.009049 1_555
Cr3 O3 2.009049 1_555
Cd0 O1 2.149992 1_554
Cd0 O6 2.149997 1_555
Cd0 O2 2.149997 1_545
Cd0 O3 2.149998 1_455
Cd1 O7 2.149992 1_556
Cd1 O0 2.149997 1_555
Cd1 O4 2.149997 1_565
Cd1 O5 2.149998 1_655
