# generated using pymatgen
data_Mn8Si8Mo3
_symmetry_space_group_name_H-M   'P 1'
_cell_length_a   4.83947500
_cell_length_b   12.76596600
_cell_length_c   15.23396900
_cell_angle_alpha   90.00000000
_cell_angle_beta   90.00000000
_cell_angle_gamma   90.00000000
_symmetry_Int_Tables_number   1
_chemical_formula_structural   Mn8Si8Mo3
_chemical_formula_sum   'Mn32 Si32 Mo12'
_cell_volume   941.16333857
_cell_formula_units_Z   4
loop_
 _symmetry_equiv_pos_site_id
 _symmetry_equiv_pos_as_xyz
  1  'x, y, z'
loop_
 _atom_site_type_symbol
 _atom_site_label
 _atom_site_symmetry_multiplicity
 _atom_site_fract_x
 _atom_site_fract_y
 _atom_site_fract_z
 _atom_site_occupancy
  Mn  Mn0  1  0.98797100  0.86516200  0.82593300  1
  Mn  Mn1  1  0.51202900  0.36516200  0.67406700  1
  Mn  Mn2  1  0.48797100  0.13483800  0.17406700  1
  Mn  Mn3  1  0.01202900  0.63483800  0.32593300  1
  Mn  Mn4  1  0.01202900  0.13483800  0.17406700  1
  Mn  Mn5  1  0.48797100  0.63483800  0.32593300  1
  Mn  Mn6  1  0.51202900  0.86516200  0.82593300  1
  Mn  Mn7  1  0.98797100  0.36516200  0.67406700  1
  Mn  Mn8  1  0.00405400  0.56005400  0.87843500  1
  Mn  Mn9  1  0.49594600  0.06005400  0.62156500  1
  Mn  Mn10  1  0.50405400  0.43994600  0.12156500  1
  Mn  Mn11  1  0.99594600  0.93994600  0.37843500  1
  Mn  Mn12  1  0.99594600  0.43994600  0.12156500  1
  Mn  Mn13  1  0.50405400  0.93994600  0.37843500  1
  Mn  Mn14  1  0.49594600  0.56005400  0.87843500  1
  Mn  Mn15  1  0.00405400  0.06005400  0.62156500  1
  Mn  Mn16  1  0.25000000  0.63600200  0.15603500  1
  Mn  Mn17  1  0.25000000  0.13600200  0.34396500  1
  Mn  Mn18  1  0.75000000  0.36399800  0.84396500  1
  Mn  Mn19  1  0.75000000  0.86399800  0.65603500  1
  Mn  Mn20  1  0.25000000  0.95283500  0.09344700  1
  Mn  Mn21  1  0.25000000  0.45283500  0.40655300  1
  Mn  Mn22  1  0.75000000  0.04716500  0.90655300  1
  Mn  Mn23  1  0.75000000  0.54716500  0.59344700  1
  Mn  Mn24  1  0.25000000  0.62236500  0.49576400  1
  Mn  Mn25  1  0.25000000  0.12236500  0.00423600  1
  Mn  Mn26  1  0.75000000  0.37763500  0.50423600  1
  Mn  Mn27  1  0.75000000  0.87763500  0.99576400  1
  Mn  Mn28  1  0.25000000  0.81212300  0.24859900  1
  Mn  Mn29  1  0.25000000  0.31212300  0.25140100  1
  Mn  Mn30  1  0.75000000  0.18787700  0.75140100  1
  Mn  Mn31  1  0.75000000  0.68787700  0.74859900  1
  Si  Si0  1  0.00180800  0.71374900  0.61863600  1
  Si  Si1  1  0.49819200  0.21374900  0.88136400  1
  Si  Si2  1  0.50180800  0.28625100  0.38136400  1
  Si  Si3  1  0.99819200  0.78625100  0.11863600  1
  Si  Si4  1  0.99819200  0.28625100  0.38136400  1
  Si  Si5  1  0.50180800  0.78625100  0.11863600  1
  Si  Si6  1  0.49819200  0.71374900  0.61863600  1
  Si  Si7  1  0.00180800  0.21374900  0.88136400  1
  Si  Si8  1  0.25000000  0.70951400  0.80518200  1
  Si  Si9  1  0.25000000  0.20951400  0.69481800  1
  Si  Si10  1  0.75000000  0.29048600  0.19481800  1
  Si  Si11  1  0.75000000  0.79048600  0.30518200  1
  Si  Si12  1  0.25000000  0.91117100  0.69871900  1
  Si  Si13  1  0.25000000  0.41117100  0.80128100  1
  Si  Si14  1  0.75000000  0.08882900  0.30128100  1
  Si  Si15  1  0.75000000  0.58882900  0.19871900  1
  Si  Si16  1  0.25000000  0.55189000  0.01789000  1
  Si  Si17  1  0.25000000  0.05189000  0.48211000  1
  Si  Si18  1  0.75000000  0.44811000  0.98211000  1
  Si  Si19  1  0.75000000  0.94811000  0.51789000  1
  Si  Si20  1  0.25000000  0.94889100  0.93965200  1
  Si  Si21  1  0.25000000  0.44889100  0.56034800  1
  Si  Si22  1  0.75000000  0.05110900  0.06034800  1
  Si  Si23  1  0.75000000  0.55110900  0.43965200  1
  Si  Si24  1  0.25000000  0.77437500  0.39729600  1
  Si  Si25  1  0.25000000  0.27437500  0.10270400  1
  Si  Si26  1  0.75000000  0.22562500  0.60270400  1
  Si  Si27  1  0.75000000  0.72562500  0.89729600  1
  Si  Si28  1  0.25000000  0.99522500  0.24721700  1
  Si  Si29  1  0.25000000  0.49522500  0.25278300  1
  Si  Si30  1  0.75000000  0.00477500  0.75278300  1
  Si  Si31  1  0.75000000  0.50477500  0.74721700  1
  Mo  Mo0  1  0.25000000  0.56637800  0.69597500  1
  Mo  Mo1  1  0.25000000  0.06637800  0.80402500  1
  Mo  Mo2  1  0.75000000  0.43362200  0.30402500  1
  Mo  Mo3  1  0.75000000  0.93362200  0.19597500  1
  Mo  Mo4  1  0.25000000  0.86521800  0.54229600  1
  Mo  Mo5  1  0.25000000  0.36521800  0.95770400  1
  Mo  Mo6  1  0.75000000  0.13478200  0.45770400  1
  Mo  Mo7  1  0.75000000  0.63478200  0.04229600  1
  Mo  Mo8  1  0.25000000  0.74769700  0.97193900  1
  Mo  Mo9  1  0.25000000  0.24769700  0.52806100  1
  Mo  Mo10  1  0.75000000  0.25230300  0.02806100  1
  Mo  Mo11  1  0.75000000  0.75230300  0.47193900  1
loop_
_geom_bond_atom_site_label_1
_geom_bond_atom_site_label_2
_geom_bond_distance
_geom_bond_site_symmetry_2
Mn0 Si8 2.378261 1_655
Mn0 Si27 2.383548 1_555
Mn0 Si12 2.389301 1_655
Mn0 Si30 2.396809 1_565
Mn0 Si20 2.398275 1_655
Mn0 Mo1 2.884047 1_665
Mn1 Si9 2.378261 1_555
Mn1 Si26 2.383548 1_555
Mn1 Si13 2.389301 1_555
Mn1 Si31 2.396809 1_555
Mn1 Si21 2.398275 1_555
Mn1 Mo0 2.884047 1_555
Mn2 Si10 2.378261 1_555
Mn2 Si25 2.383548 1_555
Mn2 Si14 2.389301 1_555
Mn2 Si28 2.396809 1_545
Mn2 Si22 2.398275 1_555
Mn2 Mo3 2.884047 1_545
Mn3 Si11 2.378261 1_455
Mn3 Si24 2.383548 1_555
Mn3 Si15 2.389301 1_455
Mn3 Si29 2.396809 1_555
Mn3 Si23 2.398275 1_455
Mn3 Mo2 2.884047 1_455
Mn4 Si10 2.378261 1_455
Mn4 Si25 2.383548 1_555
Mn4 Si14 2.389301 1_455
Mn4 Si28 2.396809 1_545
Mn4 Si22 2.398275 1_455
Mn4 Mo3 2.884047 1_445
Mn5 Si11 2.378261 1_555
Mn5 Si24 2.383548 1_555
Mn5 Si15 2.389301 1_555
Mn5 Si29 2.396809 1_555
Mn5 Si23 2.398275 1_555
Mn5 Mo2 2.884047 1_555
Mn6 Si8 2.378261 1_555
Mn6 Si27 2.383548 1_555
Mn6 Si12 2.389301 1_555
Mn6 Si30 2.396809 1_565
Mn6 Si20 2.398275 1_555
Mn6 Mo1 2.884047 1_565
Mn7 Si9 2.378261 1_655
Mn7 Si26 2.383548 1_555
Mn7 Si13 2.389301 1_655
Mn7 Si31 2.396809 1_555
Mn7 Si21 2.398275 1_655
Mn7 Mo0 2.884047 1_655
Mn8 Si16 2.437387 1_556
Mn8 Si31 2.450617 1_455
Mn8 Si18 2.459337 1_455
Mn8 Si27 2.462075 1_455
Mn8 Si8 2.510472 1_555
Mn8 Si13 2.531913 1_555
Mn8 Mo0 3.024786 1_555
Mn9 Si17 2.437387 1_555
Mn9 Si30 2.450617 1_555
Mn9 Si19 2.459337 1_545
Mn9 Si26 2.462075 1_555
Mn9 Si9 2.510472 1_555
Mn9 Si12 2.531913 1_545
Mn9 Mo1 3.024786 1_555
Mn10 Si18 2.437387 1_554
Mn10 Si29 2.450617 1_555
Mn10 Si16 2.459337 1_555
Mn10 Si25 2.462075 1_555
Mn10 Si10 2.510472 1_555
Mn10 Si15 2.531913 1_555
Mn10 Mo2 3.024786 1_555
Mn11 Si19 2.437387 1_555
Mn11 Si28 2.450617 1_655
Mn11 Si17 2.459337 1_665
Mn11 Si24 2.462075 1_655
Mn11 Si11 2.510472 1_555
Mn11 Si14 2.531913 1_565
Mn11 Mo3 3.024786 1_555
Mn12 Si18 2.437387 1_554
Mn12 Si29 2.450617 1_655
Mn12 Si16 2.459337 1_655
Mn12 Si25 2.462075 1_655
Mn12 Si10 2.510472 1_555
Mn12 Si15 2.531913 1_555
Mn12 Mo2 3.024786 1_555
Mn13 Si19 2.437387 1_555
Mn13 Si28 2.450617 1_555
Mn13 Si17 2.459337 1_565
Mn13 Si24 2.462075 1_555
Mn13 Si11 2.510472 1_555
Mn13 Si14 2.531913 1_565
Mn13 Mo3 3.024786 1_555
Mn14 Si16 2.437387 1_556
Mn14 Si31 2.450617 1_555
Mn14 Si18 2.459337 1_555
Mn14 Si27 2.462075 1_555
Mn14 Si8 2.510472 1_555
Mn14 Si13 2.531913 1_555
Mn14 Mo0 3.024786 1_555
Mn15 Si17 2.437387 1_555
Mn15 Si30 2.450617 1_455
Mn15 Si19 2.459337 1_445
Mn15 Si26 2.462075 1_455
Mn15 Si9 2.510472 1_555
Mn15 Si12 2.531913 1_545
Mn15 Mo1 3.024786 1_555
Mn16 Si29 2.324224 1_555
Mn16 Si3 2.342784 1_455
Mn16 Si5 2.342784 1_555
Mn16 Si16 2.362602 1_555
Mn16 Si15 2.576937 1_455
Mn16 Si15 2.576937 1_555
Mn17 Si28 2.324224 1_545
Mn17 Si4 2.342784 1_455
Mn17 Si2 2.342784 1_555
Mn17 Si17 2.362602 1_555
Mn17 Si14 2.576937 1_455
Mn17 Si14 2.576937 1_555
Mn18 Si31 2.324224 1_555
Mn18 Si1 2.342784 1_555
Mn18 Si7 2.342784 1_655
Mn18 Si18 2.362602 1_555
Mn18 Si13 2.576937 1_655
Mn18 Si13 2.576937 1_555
Mn19 Si30 2.324224 1_565
Mn19 Si6 2.342784 1_555
Mn19 Si0 2.342784 1_655
Mn19 Si19 2.362602 1_555
Mn19 Si12 2.576937 1_555
Mn19 Si12 2.576937 1_655
Mn20 Si20 2.343449 1_554
Mn20 Si28 2.404221 1_555
Mn20 Si3 2.480873 1_455
Mn20 Si5 2.480873 1_555
Mn20 Si22 2.771877 1_565
Mn20 Si22 2.771877 1_465
Mn20 Mo3 2.890475 1_555
Mn20 Mo3 2.890475 1_455
Mn21 Si21 2.343449 1_555
Mn21 Si29 2.404221 1_555
Mn21 Si4 2.480873 1_455
Mn21 Si2 2.480873 1_555
Mn21 Si23 2.771877 1_455
Mn21 Si23 2.771877 1_555
Mn21 Mo2 2.890475 1_555
Mn21 Mo2 2.890475 1_455
Mn22 Si22 2.343449 1_556
Mn22 Si30 2.404221 1_555
Mn22 Si7 2.480873 1_655
Mn22 Si1 2.480873 1_555
Mn22 Si20 2.771877 1_645
Mn22 Si20 2.771877 1_545
Mn22 Mo1 2.890475 1_655
Mn22 Mo1 2.890475 1_555
Mn23 Si23 2.343449 1_555
Mn23 Si31 2.404221 1_555
Mn23 Si6 2.480873 1_555
Mn23 Si0 2.480873 1_655
Mn23 Si21 2.771877 1_655
Mn23 Si21 2.771877 1_555
Mn23 Mo0 2.890475 1_555
Mn23 Mo0 2.890475 1_655
Mn24 Si21 2.423281 1_555
Mn24 Si24 2.452739 1_555
Mn24 Si0 2.511453 1_555
Mn24 Si6 2.511453 1_555
Mn24 Si23 2.722736 1_555
Mn24 Si23 2.722736 1_455
Mn24 Mo0 3.132632 1_555
Mn25 Si20 2.423281 1_544
Mn25 Si25 2.452739 1_555
Mn25 Si7 2.511453 1_554
Mn25 Si1 2.511453 1_554
Mn25 Si22 2.722736 1_455
Mn25 Si22 2.722736 1_555
Mn25 Mo1 3.132632 1_554
Mn26 Si23 2.423281 1_555
Mn26 Si26 2.452739 1_555
Mn26 Si4 2.511453 1_555
Mn26 Si2 2.511453 1_555
Mn26 Si21 2.722736 1_555
Mn26 Si21 2.722736 1_655
Mn26 Mo2 3.132632 1_555
Mn27 Si22 2.423281 1_566
Mn27 Si27 2.452739 1_555
Mn27 Si3 2.511453 1_556
Mn27 Si5 2.511453 1_556
Mn27 Si20 2.722736 1_655
Mn27 Si20 2.722736 1_555
Mn27 Mo3 3.132632 1_556
Mn28 Si24 2.315935 1_555
Mn28 Si28 2.337569 1_555
Mn28 Si3 2.348176 1_455
Mn28 Si5 2.348176 1_555
Mn28 Si11 2.583494 1_455
Mn28 Si11 2.583494 1_555
Mn28 Mo3 2.983885 1_555
Mn28 Mo3 2.983885 1_455
Mn29 Si25 2.315935 1_555
Mn29 Si29 2.337569 1_555
Mn29 Si4 2.348176 1_455
Mn29 Si2 2.348176 1_555
Mn29 Si10 2.583494 1_455
Mn29 Si10 2.583494 1_555
Mn29 Mo2 2.983885 1_555
Mn29 Mo2 2.983885 1_455
Mn30 Si26 2.315935 1_555
Mn30 Si30 2.337569 1_555
Mn30 Si1 2.348176 1_555
Mn30 Si7 2.348176 1_655
Mn30 Si9 2.583494 1_555
Mn30 Si9 2.583494 1_655
Mn30 Mo1 2.983885 1_655
Mn30 Mo1 2.983885 1_555
Mn31 Si27 2.315935 1_555
Mn31 Si31 2.337569 1_555
Mn31 Si6 2.348176 1_555
Mn31 Si0 2.348176 1_655
Mn31 Si8 2.583494 1_555
Mn31 Si8 2.583494 1_655
Mn31 Mo0 2.983885 1_655
Mn31 Mo0 2.983885 1_555
Si0 Si6 2.402238 1_555
Si0 Si6 2.437237 1_455
Si1 Si7 2.402238 1_555
Si1 Si7 2.437237 1_655
Si2 Si4 2.402238 1_555
Si2 Si4 2.437237 1_455
Si3 Si5 2.402238 1_555
Si3 Si5 2.437237 1_655
Mo0 Si8 2.471167 1_555
Mo0 Si0 2.523927 1_555
Mo0 Si6 2.523927 1_555
Mo0 Si13 2.549385 1_555
Mo0 Si21 2.553122 1_555
Mo0 Si31 2.661382 1_455
Mo0 Si31 2.661382 1_555
Mo1 Si9 2.471167 1_555
Mo1 Si1 2.523927 1_555
Mo1 Si7 2.523927 1_555
Mo1 Si12 2.549385 1_545
Mo1 Si20 2.553122 1_545
Mo1 Si30 2.661382 1_455
Mo1 Si30 2.661382 1_555
Mo2 Si10 2.471167 1_555
Mo2 Si4 2.523927 1_555
Mo2 Si2 2.523927 1_555
Mo2 Si15 2.549385 1_555
Mo2 Si23 2.553122 1_555
Mo2 Si29 2.661382 1_655
Mo2 Si29 2.661382 1_555
Mo3 Si11 2.471167 1_555
Mo3 Si5 2.523927 1_555
Mo3 Si3 2.523927 1_555
Mo3 Si14 2.549385 1_565
Mo3 Si22 2.553122 1_565
Mo3 Si28 2.661382 1_655
Mo3 Si28 2.661382 1_555
Mo4 Si12 2.454090 1_555
Mo4 Si24 2.494845 1_555
Mo4 Si17 2.553346 1_565
Mo4 Si6 2.556200 1_555
Mo4 Si0 2.556200 1_555
Mo4 Si19 2.667048 1_555
Mo4 Si19 2.667048 1_455
Mo5 Si13 2.454090 1_555
Mo5 Si25 2.494845 1_556
Mo5 Si16 2.553346 1_556
Mo5 Si7 2.556200 1_555
Mo5 Si1 2.556200 1_555
Mo5 Si18 2.667048 1_555
Mo5 Si18 2.667048 1_455
Mo6 Si14 2.454090 1_555
Mo6 Si26 2.494845 1_555
Mo6 Si19 2.553346 1_545
Mo6 Si4 2.556200 1_555
Mo6 Si2 2.556200 1_555
Mo6 Si17 2.667048 1_555
Mo6 Si17 2.667048 1_655
Mo7 Si15 2.454090 1_555
Mo7 Si27 2.494845 1_554
Mo7 Si18 2.553346 1_554
Mo7 Si5 2.556200 1_555
Mo7 Si3 2.556200 1_555
Mo7 Si16 2.667048 1_555
Mo7 Si16 2.667048 1_655
Mo8 Si8 2.586713 1_555
Mo8 Si3 2.592586 1_456
Mo8 Si5 2.592586 1_556
Mo8 Si16 2.595833 1_556
Mo8 Si20 2.615108 1_555
Mo8 Si27 2.688409 1_555
Mo8 Si27 2.688409 1_455
Mo9 Si9 2.586713 1_555
Mo9 Si4 2.592586 1_455
Mo9 Si2 2.592586 1_555
Mo9 Si17 2.595833 1_555
Mo9 Si21 2.615108 1_555
Mo9 Si26 2.688409 1_555
Mo9 Si26 2.688409 1_455
Mo10 Si10 2.586713 1_555
Mo10 Si7 2.592586 1_654
Mo10 Si1 2.592586 1_554
Mo10 Si18 2.595833 1_554
Mo10 Si22 2.615108 1_555
Mo10 Si25 2.688409 1_655
Mo10 Si25 2.688409 1_555
Mo11 Si11 2.586713 1_555
Mo11 Si6 2.592586 1_555
Mo11 Si0 2.592586 1_655
Mo11 Si19 2.595833 1_555
Mo11 Si23 2.615108 1_555
Mo11 Si24 2.688409 1_555
Mo11 Si24 2.688409 1_655
