# generated using pymatgen
data_MgTa4(AsO5)4
_symmetry_space_group_name_H-M   'P 1'
_cell_length_a   5.53576400
_cell_length_b   12.15735259
_cell_length_c   6.98975794
_cell_angle_alpha   85.16880729
_cell_angle_beta   90.00000000
_cell_angle_gamma   90.00000000
_symmetry_Int_Tables_number   1
_chemical_formula_structural   MgTa4(AsO5)4
_chemical_formula_sum   'Mg1 Ta4 As4 O20'
_cell_volume   468.74104883
_cell_formula_units_Z   1
loop_
 _symmetry_equiv_pos_site_id
 _symmetry_equiv_pos_as_xyz
  1  'x, y, z'
loop_
 _atom_site_type_symbol
 _atom_site_label
 _atom_site_symmetry_multiplicity
 _atom_site_fract_x
 _atom_site_fract_y
 _atom_site_fract_z
 _atom_site_occupancy
  Mg  Mg0  1  0.25000000  0.65504300  0.86936600  1
  Ta  Ta0  1  0.75000000  0.95395800  0.86111400  1
  Ta  Ta1  1  0.25000000  0.05328600  0.18490200  1
  Ta  Ta2  1  0.25000000  0.52278300  0.27570400  1
  Ta  Ta3  1  0.75000000  0.45227800  0.64283700  1
  As  As0  1  0.75000000  0.16205300  0.47242800  1
  As  As1  1  0.25000000  0.85665200  0.57215700  1
  As  As2  1  0.25000000  0.32726700  0.93768200  1
  As  As3  1  0.75000000  0.69749300  0.17589100  1
  O  O0  1  0.75000000  0.79940900  0.98327300  1
  O  O1  1  0.25000000  0.19097300  0.99567200  1
  O  O2  1  0.25000000  0.71602800  0.60406600  1
  O  O3  1  0.75000000  0.29987800  0.48021000  1
  O  O4  1  0.50198400  0.90474400  0.67434200  1
  O  O5  1  0.49822200  0.11798200  0.35440500  1
  O  O6  1  0.47540900  0.62206800  0.09815100  1
  O  O7  1  0.00177800  0.11798200  0.35440500  1
  O  O8  1  0.49787600  0.37288200  0.81697200  1
  O  O9  1  0.99801600  0.90474400  0.67434200  1
  O  O10  1  0.00212400  0.37288200  0.81697200  1
  O  O11  1  0.02459100  0.62206800  0.09815100  1
  O  O12  1  0.75000000  0.57562900  0.76145400  1
  O  O13  1  0.25000000  0.38854100  0.15610700  1
  O  O14  1  0.25000000  0.90295700  0.33337700  1
  O  O15  1  0.75000000  0.09981100  0.70331400  1
  O  O16  1  0.99957200  0.99938200  0.02769800  1
  O  O17  1  0.00006700  0.50314500  0.45189500  1
  O  O18  1  0.50042800  0.99938200  0.02769800  1
  O  O19  1  0.49993300  0.50314500  0.45189500  1
loop_
_geom_bond_atom_site_label_1
_geom_bond_atom_site_label_2
_geom_bond_distance
_geom_bond_site_symmetry_2
Mg0 O2 1.938259 1_555
Mg0 O11 2.041334 1_556
Mg0 O6 2.041334 1_556
As0 O3 1.681042 1_555
As0 O15 1.723765 1_555
As0 O5 1.727627 1_555
As0 O7 1.727627 1_655
As1 O9 1.693560 1_455
As1 O4 1.693560 1_555
As1 O2 1.705375 1_555
As1 O14 1.715884 1_555
As2 O1 1.672343 1_555
As2 O8 1.680325 1_555
As2 O10 1.680325 1_555
As2 O13 1.754257 1_556
As3 O0 1.751249 1_554
As3 O6 1.879000 1_555
As3 O11 1.879000 1_655
O0 Ta0 1.997282 1_555
O1 Ta1 2.044138 1_556
O3 Ta3 2.253816 1_555
O4 Ta0 2.019620 1_555
O5 Ta1 2.016794 1_555
O6 Ta2 2.074095 1_555
O7 Ta1 2.016794 1_555
O8 Ta3 2.040407 1_555
O9 Ta0 2.019620 1_555
O10 Ta3 2.040407 1_455
O11 Ta2 2.074095 1_555
O12 Ta3 1.773614 1_555
O13 Ta2 1.895293 1_555
O14 Ta1 2.024275 1_565
O15 Ta0 2.007817 1_545
O16 Ta0 1.917759 1_554
O16 Ta1 1.918334 1_665
O17 Ta2 1.854296 1_555
O17 Ta3 1.985191 1_455
O18 Ta0 1.917759 1_554
O18 Ta1 1.918334 1_565
O19 Ta2 1.854296 1_555
O19 Ta3 1.985191 1_555
