# generated using pymatgen
data_MgPd2
_symmetry_space_group_name_H-M   'P 1'
_cell_length_a   4.13586205
_cell_length_b   5.48632926
_cell_length_c   8.09777583
_cell_angle_alpha   90.00000000
_cell_angle_beta   90.00000000
_cell_angle_gamma   90.00000000
_symmetry_Int_Tables_number   1
_chemical_formula_structural   MgPd2
_chemical_formula_sum   'Mg4 Pd8'
_cell_volume   183.74420996
_cell_formula_units_Z   4
loop_
 _symmetry_equiv_pos_site_id
 _symmetry_equiv_pos_as_xyz
  1  'x, y, z'
loop_
 _atom_site_type_symbol
 _atom_site_label
 _atom_site_symmetry_multiplicity
 _atom_site_fract_x
 _atom_site_fract_y
 _atom_site_fract_z
 _atom_site_occupancy
  Mg  Mg0  1  0.75000000  0.66513063  0.90238397  1
  Mg  Mg1  1  0.25000000  0.33486937  0.09761603  1
  Mg  Mg2  1  0.75000000  0.16513063  0.59761603  1
  Mg  Mg3  1  0.25000000  0.83486937  0.40238397  1
  Pd  Pd0  1  0.75000000  0.65547315  0.57323814  1
  Pd  Pd1  1  0.25000000  0.34452685  0.42676186  1
  Pd  Pd2  1  0.75000000  0.15547315  0.92676186  1
  Pd  Pd3  1  0.25000000  0.84452685  0.07323814  1
  Pd  Pd4  1  0.75000000  0.57069308  0.23639100  1
  Pd  Pd5  1  0.25000000  0.42930692  0.76360900  1
  Pd  Pd6  1  0.75000000  0.07069308  0.26360900  1
  Pd  Pd7  1  0.25000000  0.92930692  0.73639100  1
loop_
_geom_bond_atom_site_label_1
_geom_bond_atom_site_label_2
_geom_bond_distance
_geom_bond_site_symmetry_2
Mg0 Pd0 2.665876 1_555
Mg0 Pd3 2.675672 1_556
Mg0 Pd3 2.675672 1_656
Mg0 Pd5 2.685727 1_555
Mg0 Pd5 2.685727 1_655
Mg0 Pd2 2.697414 1_565
Mg0 Pd4 2.753892 1_556
Mg0 Pd2 2.803108 1_555
Mg0 Pd7 2.860731 1_555
Mg0 Pd7 2.860731 1_655
Mg1 Pd1 2.665876 1_555
Mg1 Pd2 2.675672 1_554
Mg1 Pd2 2.675672 1_454
Mg1 Pd4 2.685727 1_455
Mg1 Pd4 2.685727 1_555
Mg1 Pd3 2.697414 1_545
Mg1 Pd5 2.753892 1_554
Mg1 Pd3 2.803108 1_555
Mg1 Pd6 2.860731 1_555
Mg1 Pd6 2.860731 1_455
Mg2 Pd2 2.665876 1_555
Mg2 Pd1 2.675672 1_655
Mg2 Pd1 2.675672 1_555
Mg2 Pd7 2.685727 1_545
Mg2 Pd7 2.685727 1_645
Mg2 Pd0 2.697414 1_555
Mg2 Pd6 2.753892 1_555
Mg2 Pd0 2.803108 1_545
Mg2 Pd5 2.860731 1_555
Mg2 Pd5 2.860731 1_655
Mg3 Pd3 2.665876 1_555
Mg3 Pd0 2.675672 1_455
Mg3 Pd0 2.675672 1_555
Mg3 Pd6 2.685727 1_465
Mg3 Pd6 2.685727 1_565
Mg3 Pd1 2.697414 1_555
Mg3 Pd7 2.753892 1_555
Mg3 Pd1 2.803108 1_565
Mg3 Pd4 2.860731 1_455
Mg3 Pd4 2.860731 1_555
