# generated using pymatgen
data_MgNi9O13
_symmetry_space_group_name_H-M   'P 1'
_cell_length_a   2.90730702
_cell_length_b   5.11264233
_cell_length_c   16.04405470
_cell_angle_alpha   99.04276564
_cell_angle_beta   89.98590864
_cell_angle_gamma   106.51759202
_symmetry_Int_Tables_number   1
_chemical_formula_structural   MgNi9O13
_chemical_formula_sum   'Mg1 Ni9 O13'
_cell_volume   225.54720705
_cell_formula_units_Z   1
loop_
 _symmetry_equiv_pos_site_id
 _symmetry_equiv_pos_as_xyz
  1  'x, y, z'
loop_
 _atom_site_type_symbol
 _atom_site_label
 _atom_site_symmetry_multiplicity
 _atom_site_fract_x
 _atom_site_fract_y
 _atom_site_fract_z
 _atom_site_occupancy
  Mg  Mg0  1  0.78834700  0.57673400  0.76970600  1
  Ni  Ni0  1  0.49921800  0.99866800  0.49805700  1
  Ni  Ni1  1  0.64984900  0.29957400  0.04825200  1
  Ni  Ni2  1  0.35311400  0.70647400  0.96171800  1
  Ni  Ni3  1  0.74951200  0.49897700  0.41172700  1
  Ni  Ni4  1  0.24983900  0.50020700  0.57962400  1
  Ni  Ni5  1  0.94089900  0.88096400  0.12534900  1
  Ni  Ni6  1  0.06506600  0.12960600  0.87695500  1
  Ni  Ni7  1  0.99551400  0.99231000  0.33360200  1
  Ni  Ni8  1  0.00703600  0.01523500  0.66651100  1
  O  O0  1  0.99969600  0.99900800  0.01005200  1
  O  O1  1  0.88082300  0.76034300  0.22822400  1
  O  O2  1  0.13969700  0.27945000  0.77186500  1
  O  O3  1  0.30069700  0.60294500  0.07624800  1
  O  O4  1  0.70473900  0.40998900  0.93293000  1
  O  O5  1  0.56921300  0.13670000  0.15174200  1
  O  O6  1  0.41796500  0.83513200  0.85438900  1
  O  O7  1  0.60976800  0.22252800  0.30868000  1
  O  O8  1  0.37303000  0.74766300  0.68941300  1
  O  O9  1  0.38544500  0.76940900  0.38250800  1
  O  O10  1  0.61920500  0.23962000  0.61108900  1
  O  O11  1  0.12449500  0.24906500  0.45415000  1
  O  O12  1  0.86849800  0.73689800  0.53220800  1
loop_
_geom_bond_atom_site_label_1
_geom_bond_atom_site_label_2
_geom_bond_distance
_geom_bond_site_symmetry_2
Mg0 O2 2.062553 1_655
Mg0 O2 2.062607 1_555
Mg0 O8 2.195642 1_655
Mg0 O8 2.199049 1_555
Mg0 O6 2.234892 1_555
Mg0 O6 2.236937 1_655
Ni0 O10 1.995425 1_565
Ni0 O9 2.004224 1_555
Ni0 O12 2.070838 1_455
Ni0 O12 2.071671 1_555
Ni0 O11 2.097357 1_565
Ni0 O11 2.097460 1_665
Ni1 O5 1.956714 1_555
Ni1 O4 2.011083 1_554
Ni1 O3 2.073767 1_655
Ni1 O3 2.076990 1_555
Ni1 O0 2.088720 1_445
Ni1 O0 2.089003 1_545
Ni2 O6 1.928434 1_555
Ni2 O3 1.984848 1_556
Ni2 O4 2.053515 1_555
Ni2 O4 2.054255 1_455
Ni2 O0 2.098294 1_456
Ni2 O0 2.099859 1_556
Ni3 O7 1.958410 1_555
Ni3 O9 2.070716 1_555
Ni3 O9 2.073510 1_655
Ni3 O11 2.085694 1_655
Ni3 O11 2.085736 1_555
Ni3 O12 2.087523 1_555
Ni4 O8 1.968190 1_555
Ni4 O10 2.051395 1_555
Ni4 O10 2.052651 1_455
Ni4 O12 2.079651 1_455
Ni4 O12 2.080689 1_555
Ni4 O11 2.180790 1_555
Ni5 O1 1.842184 1_555
Ni5 O5 1.919809 1_565
Ni5 O5 1.921960 1_665
Ni5 O0 2.026683 1_555
Ni5 O3 2.056277 1_655
Ni5 O3 2.061478 1_555
Ni6 O2 1.946318 1_555
Ni6 O6 2.038513 1_445
Ni6 O6 2.038916 1_545
Ni6 O4 2.097683 1_555
Ni6 O4 2.099434 1_455
Ni6 O0 2.327613 1_446
Ni7 O1 1.876501 1_555
Ni7 O7 1.920106 1_665
Ni7 O7 1.923987 1_565
Ni7 O9 2.047270 1_555
Ni7 O9 2.053214 1_655
Ni7 O11 2.127635 1_665
Ni8 O2 1.953706 1_555
Ni8 O8 2.030900 1_545
Ni8 O8 2.031716 1_445
Ni8 O10 2.105515 1_555
Ni8 O10 2.105886 1_455
Ni8 O12 2.353915 1_445
