# generated using pymatgen
data_La7SmCo6(CuO10)2
_symmetry_space_group_name_H-M   'P 1'
_cell_length_a   10.81082907
_cell_length_b   11.46135785
_cell_length_c   17.85788487
_cell_angle_alpha   108.64212585
_cell_angle_beta   107.57064480
_cell_angle_gamma   89.99599747
_symmetry_Int_Tables_number   1
_chemical_formula_structural   La7SmCo6(CuO10)2
_chemical_formula_sum   'La28 Sm4 Co24 Cu8 O80'
_cell_volume   1987.38223447
_cell_formula_units_Z   4
loop_
 _symmetry_equiv_pos_site_id
 _symmetry_equiv_pos_as_xyz
  1  'x, y, z'
loop_
 _atom_site_type_symbol
 _atom_site_label
 _atom_site_symmetry_multiplicity
 _atom_site_fract_x
 _atom_site_fract_y
 _atom_site_fract_z
 _atom_site_occupancy
  La  La0  1  0.30204500  0.06522200  0.11106600  1
  La  La1  1  0.30835300  0.06527600  0.61024600  1
  La  La2  1  0.30788400  0.56550800  0.61068700  1
  La  La3  1  0.80443900  0.06635400  0.61090600  1
  La  La4  1  0.80530500  0.56790800  0.11089500  1
  La  La5  1  0.80762100  0.56539100  0.61107700  1
  La  La6  1  0.19713300  0.43343000  0.38866500  1
  La  La7  1  0.19306500  0.43544400  0.89047800  1
  La  La8  1  0.19725900  0.93394000  0.38726700  1
  La  La9  1  0.19425900  0.93269700  0.88891200  1
  La  La10  1  0.69671200  0.43476800  0.38915100  1
  La  La11  1  0.69310900  0.93338700  0.38872200  1
  La  La12  1  0.69487100  0.93267800  0.88962500  1
  La  La13  1  0.05382100  0.29479700  0.11163400  1
  La  La14  1  0.05773600  0.29494900  0.61097900  1
  La  La15  1  0.05731000  0.79648200  0.61085900  1
  La  La16  1  0.56018000  0.29423100  0.11153700  1
  La  La17  1  0.55909500  0.29596000  0.61310100  1
  La  La18  1  0.55379800  0.79533600  0.11194100  1
  La  La19  1  0.55768800  0.79604100  0.61061800  1
  La  La20  1  0.44707500  0.20400600  0.38911500  1
  La  La21  1  0.44907800  0.20660800  0.88921100  1
  La  La22  1  0.44572300  0.70410900  0.38674300  1
  La  La23  1  0.44530800  0.70445700  0.88874400  1
  La  La24  1  0.94534200  0.20235700  0.38711600  1
  La  La25  1  0.94167900  0.20604600  0.88875900  1
  La  La26  1  0.94640400  0.70489900  0.38807400  1
  La  La27  1  0.94404200  0.70439800  0.88937200  1
  Sm  Sm0  1  0.30042900  0.56934700  0.10902800  1
  Sm  Sm1  1  0.80274400  0.06747200  0.10873100  1
  Sm  Sm2  1  0.69365200  0.43303500  0.89202600  1
  Sm  Sm3  1  0.05342100  0.79097900  0.10951500  1
  Co  Co0  1  0.00489000  0.99978200  0.49944400  1
  Co  Co1  1  0.00548600  0.49985900  0.49986400  1
  Co  Co2  1  0.50530800  0.50002100  0.49985300  1
  Co  Co3  1  0.25569300  0.25152900  0.00137700  1
  Co  Co4  1  0.25502700  0.24946900  0.49929200  1
  Co  Co5  1  0.25553300  0.75010100  0.49983600  1
  Co  Co6  1  0.75487200  0.24972000  0.49957900  1
  Co  Co7  1  0.75507000  0.75006600  0.50011000  1
  Co  Co8  1  0.10505100  0.09292600  0.25015900  1
  Co  Co9  1  0.10891800  0.09659200  0.75114900  1
  Co  Co10  1  0.11054400  0.59677700  0.25100000  1
  Co  Co11  1  0.10718800  0.59284900  0.74820900  1
  Co  Co12  1  0.61056700  0.09511300  0.25159900  1
  Co  Co13  1  0.60881600  0.09588900  0.75137700  1
  Co  Co14  1  0.60581100  0.59544300  0.25065900  1
  Co  Co15  1  0.60820900  0.59303200  0.74953600  1
  Co  Co16  1  0.35716000  0.40531600  0.24773300  1
  Co  Co17  1  0.35875500  0.40427900  0.74836200  1
  Co  Co18  1  0.35405600  0.90373500  0.24738200  1
  Co  Co19  1  0.35721800  0.90427400  0.74793600  1
  Co  Co20  1  0.85929100  0.40526600  0.25166200  1
  Co  Co21  1  0.85488400  0.40437200  0.74899600  1
  Co  Co22  1  0.85988300  0.90656400  0.24985900  1
  Co  Co23  1  0.85743100  0.90444000  0.74829000  1
  Cu  Cu0  1  0.00344700  0.99951400  0.00190100  1
  Cu  Cu1  1  0.00272600  0.50044100  0.00058700  1
  Cu  Cu2  1  0.50373900  0.00033000  0.00103600  1
  Cu  Cu3  1  0.50368600  0.99989400  0.49970400  1
  Cu  Cu4  1  0.50312500  0.50081900  0.00064300  1
  Cu  Cu5  1  0.25336100  0.75065700  0.00122400  1
  Cu  Cu6  1  0.75380800  0.24989700  0.00022700  1
  Cu  Cu7  1  0.75396100  0.75070500  0.00143200  1
  O  O0  1  0.12006500  0.11892900  0.48361800  1
  O  O1  1  0.11817200  0.11896800  0.98560700  1
  O  O2  1  0.11971100  0.61871500  0.48336800  1
  O  O3  1  0.12101500  0.62290000  0.99101300  1
  O  O4  1  0.62009100  0.12012700  0.48608800  1
  O  O5  1  0.62306200  0.12070500  0.98962800  1
  O  O6  1  0.62043400  0.61925000  0.48406100  1
  O  O7  1  0.62048900  0.61625600  0.98481600  1
  O  O8  1  0.13572200  0.38538400  0.01659300  1
  O  O9  1  0.13624700  0.38118500  0.51572700  1
  O  O10  1  0.13186400  0.87801800  0.01650600  1
  O  O11  1  0.13645900  0.88111900  0.51564000  1
  O  O12  1  0.63261000  0.37903600  0.01025600  1
  O  O13  1  0.63609100  0.38061200  0.51543500  1
  O  O14  1  0.63639100  0.88398500  0.01552800  1
  O  O15  1  0.63387700  0.87970400  0.51352500  1
  O  O16  1  0.37092100  0.11533600  0.48546800  1
  O  O17  1  0.37203100  0.11524200  0.98599900  1
  O  O18  1  0.37010200  0.61504300  0.48392800  1
  O  O19  1  0.37020800  0.61580200  0.98901700  1
  O  O20  1  0.87002700  0.11519600  0.48413100  1
  O  O21  1  0.86988400  0.11483300  0.99064000  1
  O  O22  1  0.87074800  0.61490800  0.48425000  1
  O  O23  1  0.86908400  0.61269400  0.98578600  1
  O  O24  1  0.38543200  0.39057900  0.01773100  1
  O  O25  1  0.38557900  0.38405600  0.51466700  1
  O  O26  1  0.38273400  0.88346600  0.01186700  1
  O  O27  1  0.38553800  0.88415200  0.51389200  1
  O  O28  1  0.88005000  0.38424000  0.00988300  1
  O  O29  1  0.88666500  0.38505500  0.51587000  1
  O  O30  1  0.88647000  0.88722900  0.01884800  1
  O  O31  1  0.88595400  0.88447600  0.51557600  1
  O  O32  1  0.10104400  0.11895400  0.14814100  1
  O  O33  1  0.08992800  0.10903100  0.64102800  1
  O  O34  1  0.10602800  0.61909500  0.14780200  1
  O  O35  1  0.08785800  0.60848800  0.63914100  1
  O  O36  1  0.60690100  0.11611800  0.14815900  1
  O  O37  1  0.59666000  0.11653900  0.64677500  1
  O  O38  1  0.60261600  0.61794300  0.14767700  1
  O  O39  1  0.58797900  0.60772700  0.63968300  1
  O  O40  1  0.44710100  0.39103700  0.35821500  1
  O  O41  1  0.45860800  0.38441600  0.85224800  1
  O  O42  1  0.44710900  0.88400500  0.35245700  1
  O  O43  1  0.45162700  0.88250200  0.85221900  1
  O  O44  1  0.94837300  0.39095400  0.36098400  1
  O  O45  1  0.95374600  0.38435400  0.85313200  1
  O  O46  1  0.95002300  0.89252600  0.35981100  1
  O  O47  1  0.95035200  0.88253100  0.85283500  1
  O  O48  1  0.33982100  0.28028500  0.13862900  1
  O  O49  1  0.33734400  0.28085600  0.63865500  1
  O  O50  1  0.34635900  0.77932900  0.14324800  1
  O  O51  1  0.33751500  0.78155300  0.63827800  1
  O  O52  1  0.84539000  0.27996700  0.14612000  1
  O  O53  1  0.83631500  0.28225000  0.63922200  1
  O  O54  1  0.85697300  0.78102800  0.14621200  1
  O  O55  1  0.83665100  0.78134200  0.63867200  1
  O  O56  1  0.19718900  0.21584000  0.36019300  1
  O  O57  1  0.20182500  0.21905700  0.86201000  1
  O  O58  1  0.19839300  0.72000500  0.36096200  1
  O  O59  1  0.20012200  0.71635700  0.85429100  1
  O  O60  1  0.69815600  0.21863800  0.36138200  1
  O  O61  1  0.70059000  0.22136100  0.85643300  1
  O  O62  1  0.69721000  0.71747000  0.36049600  1
  O  O63  1  0.70105900  0.71880000  0.85490000  1
  O  O64  1  0.42030300  0.07114800  0.24993000  1
  O  O65  1  0.41889400  0.07084100  0.74988800  1
  O  O66  1  0.41454400  0.56950000  0.24436400  1
  O  O67  1  0.41865500  0.57095200  0.74900900  1
  O  O68  1  0.91382600  0.07186800  0.24535800  1
  O  O69  1  0.92058300  0.07107700  0.75000500  1
  O  O70  1  0.92156200  0.56971700  0.25011300  1
  O  O71  1  0.91886400  0.57002600  0.74953400  1
  O  O72  1  0.17023700  0.42990100  0.25069400  1
  O  O73  1  0.17063700  0.42794700  0.75018500  1
  O  O74  1  0.16332300  0.92434100  0.24456300  1
  O  O75  1  0.16954300  0.93020500  0.74983700  1
  O  O76  1  0.66942200  0.42986700  0.25072900  1
  O  O77  1  0.67004100  0.42998100  0.75566900  1
  O  O78  1  0.67128800  0.92870200  0.25061600  1
  O  O79  1  0.66959700  0.92918600  0.74971600  1
loop_
_geom_bond_atom_site_label_1
_geom_bond_atom_site_label_2
_geom_bond_distance
_geom_bond_site_symmetry_2
La0 O48 2.363890 1_555
La0 O64 2.401410 1_555
La0 O32 2.479367 1_555
La0 O10 2.578466 1_545
La0 O26 2.610013 1_545
La0 O1 2.746574 1_554
La0 O17 2.779973 1_554
La0 O36 3.174296 1_555
La1 O49 2.358681 1_555
La1 O65 2.397883 1_555
La1 O27 2.559199 1_545
La1 O11 2.566689 1_545
La1 O33 2.595567 1_555
La1 O16 2.734837 1_555
La1 O0 2.782953 1_555
La1 O37 3.002177 1_555
La2 O51 2.366774 1_555
La2 O67 2.378036 1_555
La2 O25 2.561320 1_555
La2 O9 2.567522 1_555
La2 O35 2.593927 1_555
La2 O18 2.764021 1_555
La2 O2 2.788087 1_555
La2 O39 2.926561 1_555
La3 O53 2.364822 1_555
La3 O69 2.404319 1_555
La3 O37 2.533738 1_555
La3 O31 2.580101 1_545
La3 O15 2.585885 1_545
La3 O4 2.741549 1_555
La3 O20 2.778671 1_555
La3 O33 2.980593 1_655
La4 O54 2.340703 1_555
La4 O70 2.416908 1_555
La4 O38 2.487939 1_555
La4 O28 2.605844 1_555
La4 O12 2.624711 1_555
La4 O23 2.719151 1_554
La4 O7 2.729436 1_554
La4 O34 3.131672 1_655
La5 O55 2.365244 1_555
La5 O71 2.383977 1_555
La5 O29 2.554068 1_555
La5 O13 2.572321 1_555
La5 O39 2.590067 1_555
La5 O22 2.769922 1_555
La5 O6 2.782937 1_555
La5 O35 2.932377 1_655
La6 O72 2.379198 1_555
La6 O56 2.380646 1_555
La6 O18 2.557253 1_555
La6 O2 2.574644 1_555
La6 O44 2.599500 1_455
La6 O25 2.753166 1_555
La6 O9 2.776851 1_555
La6 O40 2.924490 1_555
La7 O57 2.375128 1_555
La7 O73 2.416299 1_555
La7 O45 2.488016 1_455
La7 O19 2.584082 1_555
La7 O3 2.612297 1_555
La7 O8 2.730344 1_556
La7 O24 2.765326 1_556
La7 O41 3.158653 1_555
La8 O58 2.345239 1_555
La8 O74 2.428432 1_555
La8 O16 2.569890 1_565
La8 O46 2.582607 1_455
La8 O0 2.585879 1_565
La8 O27 2.761851 1_555
La8 O11 2.801977 1_555
La8 O42 2.965796 1_555
La9 O59 2.361779 1_555
La9 O75 2.407155 1_555
La9 O47 2.536983 1_455
La9 O1 2.591662 1_565
La9 O17 2.597422 1_565
La9 O26 2.716977 1_556
La9 O10 2.807228 1_556
La9 O43 3.059642 1_555
La10 O60 2.366797 1_555
La10 O76 2.381496 1_555
La10 O22 2.552756 1_555
La10 O6 2.564356 1_555
La10 O40 2.600272 1_555
La10 O29 2.771464 1_555
La10 O13 2.772694 1_555
La10 O44 2.927759 1_555
La11 O62 2.365628 1_555
La11 O78 2.388544 1_555
La11 O42 2.557049 1_555
La11 O20 2.581956 1_565
La11 O4 2.583899 1_565
La11 O15 2.737552 1_555
La11 O31 2.784374 1_555
La11 O46 2.985154 1_555
La12 O63 2.334791 1_555
La12 O79 2.417138 1_555
La12 O43 2.527083 1_555
La12 O21 2.593208 1_565
La12 O5 2.610074 1_565
La12 O14 2.725208 1_556
La12 O30 2.787374 1_556
La12 O47 3.040454 1_555
La13 O32 2.320861 1_555
La13 O72 2.409044 1_555
La13 O52 2.527921 1_455
La13 O8 2.603176 1_555
La13 O28 2.647906 1_455
La13 O21 2.726622 1_454
La13 O1 2.766913 1_554
La13 O48 2.995189 1_555
La14 O33 2.359630 1_555
La14 O73 2.395599 1_555
La14 O9 2.556823 1_555
La14 O29 2.568313 1_455
La14 O53 2.604128 1_455
La14 O0 2.772835 1_555
La14 O20 2.781259 1_455
La14 O49 2.925168 1_555
La15 O35 2.366780 1_555
La15 O75 2.393971 1_555
La15 O11 2.549056 1_555
La15 O31 2.556928 1_455
La15 O55 2.595759 1_455
La15 O22 2.783874 1_455
La15 O2 2.784115 1_555
La15 O51 2.933143 1_555
La16 O36 2.346092 1_555
La16 O76 2.397392 1_555
La16 O48 2.584600 1_555
La16 O12 2.609258 1_555
La16 O24 2.620351 1_555
La16 O5 2.698592 1_554
La16 O17 2.771078 1_554
La16 O52 2.971532 1_555
La17 O37 2.323441 1_555
La17 O77 2.436470 1_555
La17 O13 2.575772 1_555
La17 O49 2.587739 1_555
La17 O25 2.602274 1_555
La17 O4 2.760687 1_555
La17 O16 2.793505 1_555
La17 O53 2.902912 1_555
La18 O38 2.333573 1_555
La18 O78 2.400764 1_555
La18 O50 2.489586 1_555
La18 O26 2.606238 1_555
La18 O14 2.615464 1_555
La18 O19 2.733942 1_554
La18 O7 2.809878 1_554
La18 O54 3.161792 1_555
La19 O39 2.376662 1_555
La19 O79 2.392717 1_555
La19 O15 2.555290 1_555
La19 O27 2.577041 1_555
La19 O51 2.588342 1_555
La19 O6 2.769729 1_555
La19 O18 2.786500 1_555
La19 O55 2.918256 1_555
La20 O40 2.378226 1_555
La20 O64 2.393006 1_555
La20 O4 2.555413 1_555
La20 O16 2.577722 1_555
La20 O56 2.604888 1_555
La20 O13 2.767623 1_555
La20 O25 2.769346 1_555
La20 O60 2.916529 1_555
La21 O41 2.345321 1_555
La21 O65 2.398507 1_555
La21 O57 2.581010 1_555
La21 O17 2.608511 1_555
La21 O5 2.610542 1_555
La21 O12 2.682334 1_556
La21 O24 2.836602 1_556
La21 O61 2.964583 1_555
La22 O42 2.332159 1_555
La22 O66 2.435857 1_555
La22 O6 2.575305 1_555
La22 O58 2.589382 1_555
La22 O18 2.590720 1_555
La22 O15 2.760599 1_555
La22 O27 2.780920 1_555
La22 O62 2.906935 1_555
La23 O43 2.339267 1_555
La23 O67 2.403357 1_555
La23 O59 2.547964 1_555
La23 O7 2.588208 1_555
La23 O19 2.634243 1_555
La23 O26 2.741393 1_556
La23 O14 2.797456 1_556
La23 O63 3.018172 1_555
La24 O44 2.354867 1_555
La24 O68 2.412503 1_555
La24 O0 2.557336 1_655
La24 O20 2.573068 1_555
La24 O60 2.588516 1_555
La24 O9 2.804372 1_655
La24 O29 2.806447 1_555
La24 O56 2.916487 1_655
La25 O45 2.340877 1_555
La25 O69 2.406884 1_555
La25 O61 2.512674 1_555
La25 O1 2.595901 1_655
La25 O21 2.659733 1_555
La25 O28 2.709132 1_556
La25 O8 2.818923 1_656
La25 O57 3.002780 1_655
La26 O46 2.363594 1_555
La26 O70 2.388024 1_555
La26 O2 2.555659 1_655
La26 O22 2.581350 1_555
La26 O62 2.600994 1_555
La26 O11 2.779121 1_655
La26 O31 2.783842 1_555
La26 O58 2.921593 1_655
La27 O47 2.340348 1_555
La27 O71 2.411003 1_555
La27 O63 2.528855 1_555
La27 O23 2.593310 1_555
La27 O3 2.610456 1_655
La27 O10 2.750669 1_656
La27 O30 2.809934 1_556
La27 O59 3.029453 1_655
Co0 O20 1.985085 1_465
Co0 O31 1.987480 1_455
Co0 O0 1.988594 1_565
Co0 O11 1.989805 1_555
Co0 O46 2.286527 1_455
Co0 O33 2.319169 1_565
Co1 O29 1.981287 1_455
Co1 O22 1.981877 1_455
Co1 O9 1.983165 1_555
Co1 O2 1.985907 1_555
Co1 O44 2.277412 1_455
Co1 O35 2.283074 1_555
Co2 O25 1.985875 1_555
Co2 O18 1.985897 1_555
Co2 O6 1.988593 1_555
Co2 O13 1.988759 1_555
Co2 O39 2.289111 1_555
Co2 O40 2.318006 1_555
Co3 O17 2.007790 1_554
Co3 O24 2.011930 1_555
Co3 O8 2.013864 1_555
Co3 O1 2.017914 1_554
Co3 O48 2.254117 1_555
Co3 O57 2.281350 1_554
Co4 O0 1.982848 1_555
Co4 O16 1.984441 1_555
Co4 O25 1.985547 1_555
Co4 O9 1.989502 1_555
Co4 O56 2.271571 1_555
Co4 O49 2.281582 1_555
Co5 O27 1.984849 1_555
Co5 O11 1.984902 1_555
Co5 O18 1.985442 1_555
Co5 O2 1.991639 1_555
Co5 O51 2.266048 1_555
Co5 O58 2.275772 1_555
Co6 O13 1.981775 1_555
Co6 O20 1.984521 1_555
Co6 O4 1.986681 1_555
Co6 O29 1.995545 1_555
Co6 O60 2.262250 1_555
Co6 O53 2.283178 1_555
Co7 O6 1.980507 1_555
Co7 O15 1.985790 1_555
Co7 O31 1.985939 1_555
Co7 O22 1.994225 1_555
Co7 O55 2.268146 1_555
Co7 O62 2.282519 1_555
Co8 O32 1.926064 1_555
Co8 O56 1.971459 1_555
Co8 O74 2.013626 1_545
Co8 O68 2.054060 1_455
Co9 O33 1.966008 1_555
Co9 O57 1.980268 1_555
Co9 O75 2.011807 1_545
Co9 O69 2.050028 1_455
Co10 O34 1.926431 1_555
Co10 O58 1.963138 1_555
Co10 O72 2.017398 1_555
Co10 O70 2.061046 1_455
Co11 O59 1.933558 1_555
Co11 O35 1.961344 1_555
Co11 O73 2.017845 1_555
Co11 O71 2.060861 1_455
Co12 O36 1.926618 1_555
Co12 O60 1.961999 1_555
Co12 O78 2.013550 1_545
Co12 O64 2.065199 1_555
Co13 O37 1.922765 1_555
Co13 O61 1.929678 1_555
Co13 O79 2.014589 1_545
Co13 O65 2.064232 1_555
Co14 O38 1.927332 1_555
Co14 O62 1.963654 1_555
Co14 O76 2.018686 1_555
Co14 O66 2.053055 1_555
Co15 O63 1.936922 1_555
Co15 O39 1.968964 1_555
Co15 O77 2.009393 1_555
Co15 O67 2.061651 1_555
Co16 O48 1.969611 1_555
Co16 O40 1.978131 1_555
Co16 O66 2.006145 1_555
Co16 O72 2.054436 1_555
Co17 O41 1.928649 1_555
Co17 O49 1.961464 1_555
Co17 O67 2.012527 1_555
Co17 O73 2.060310 1_555
Co18 O50 1.926029 1_555
Co18 O42 1.927596 1_555
Co18 O64 2.030125 1_565
Co18 O74 2.062751 1_555
Co19 O43 1.929123 1_555
Co19 O51 1.961076 1_555
Co19 O65 2.008481 1_565
Co19 O75 2.059383 1_555
Co20 O52 1.932838 1_555
Co20 O44 1.958380 1_555
Co20 O70 2.012786 1_555
Co20 O76 2.067702 1_555
Co21 O45 1.930272 1_555
Co21 O53 1.962290 1_555
Co21 O71 2.016873 1_555
Co21 O77 2.053024 1_555
Co22 O54 1.938904 1_555
Co22 O46 1.969158 1_555
Co22 O68 2.015416 1_565
Co22 O78 2.058136 1_555
Co23 O47 1.930037 1_555
Co23 O55 1.960066 1_555
Co23 O69 2.016155 1_565
Co23 O79 2.056968 1_555
Cu0 O30 1.956363 1_455
Cu0 O21 1.966375 1_464
Cu0 O10 1.986900 1_555
Cu0 O1 1.992538 1_564
Cu0 O32 2.420408 1_565
Cu0 O47 2.451365 1_454
Cu1 O23 1.949129 1_454
Cu1 O28 1.958242 1_455
Cu1 O8 1.969908 1_555
Cu1 O3 1.979944 1_554
Cu1 O45 2.429601 1_454
Cu1 O34 2.439245 1_555
Cu2 O17 1.956815 1_554
Cu2 O26 1.965041 1_545
Cu2 O14 1.974331 1_545
Cu2 O5 1.986863 1_554
Cu2 O36 2.430996 1_555
Cu2 O43 2.450604 1_544
Cu3 O27 1.966190 1_555
Cu3 O16 1.967191 1_565
Cu3 O4 1.985186 1_565
Cu3 O15 1.986673 1_555
Cu3 O42 2.418448 1_555
Cu3 O37 2.420133 1_565
Cu4 O24 1.946687 1_555
Cu4 O19 1.959388 1_554
Cu4 O7 1.973844 1_554
Cu4 O12 1.986228 1_555
Cu4 O38 2.427951 1_555
Cu4 O41 2.450293 1_554
Cu5 O10 1.972815 1_555
Cu5 O3 1.973958 1_554
Cu5 O26 1.991014 1_555
Cu5 O19 1.995684 1_554
Cu5 O50 2.340729 1_555
Cu5 O59 2.408212 1_554
Cu6 O5 1.971253 1_554
Cu6 O12 1.977749 1_555
Cu6 O28 1.987879 1_555
Cu6 O21 1.990073 1_554
Cu6 O61 2.367063 1_554
Cu6 O52 2.399048 1_555
Cu7 O14 1.989829 1_555
Cu7 O7 1.998548 1_554
Cu7 O30 2.004373 1_555
Cu7 O23 2.014009 1_554
Cu7 O54 2.394327 1_555
Cu7 O63 2.406847 1_554
O3 Sm0 2.634234 1_556
O3 Sm3 2.655286 1_556
O5 Sm1 2.646580 1_556
O7 Sm2 2.519457 1_555
O8 Sm0 2.518303 1_555
O10 Sm3 2.526442 1_555
O12 Sm2 2.636845 1_554
O14 Sm1 2.526405 1_565
O19 Sm0 2.674193 1_556
O21 Sm1 2.631509 1_556
O23 Sm2 2.553346 1_555
O23 Sm3 2.735778 1_656
O24 Sm0 2.543494 1_555
O28 Sm2 2.644771 1_554
O30 Sm1 2.533848 1_565
O30 Sm3 2.544274 1_655
O32 Sm1 3.099635 1_455
O34 Sm3 2.301764 1_555
O34 Sm0 2.418153 1_555
O36 Sm1 2.436837 1_555
O38 Sm0 3.138839 1_555
O41 Sm2 2.435002 1_555
O45 Sm2 3.103434 1_555
O50 Sm0 2.299742 1_555
O50 Sm3 3.051152 1_555
O52 Sm1 2.316165 1_555
O54 Sm3 2.416808 1_655
O61 Sm2 2.310490 1_555
O66 Sm0 2.357983 1_555
O68 Sm1 2.355848 1_555
O74 Sm3 2.340454 1_555
O77 Sm2 2.359253 1_555
