# generated using pymatgen
data_CaV4(CoO4)3
_symmetry_space_group_name_H-M   'P 1'
_cell_length_a   6.45709080
_cell_length_b   6.43308303
_cell_length_c   6.47381726
_cell_angle_alpha   70.50932687
_cell_angle_beta   70.24719178
_cell_angle_gamma   109.14413074
_symmetry_Int_Tables_number   1
_chemical_formula_structural   CaV4(CoO4)3
_chemical_formula_sum   'Ca1 V4 Co3 O12'
_cell_volume   207.07367559
_cell_formula_units_Z   1
loop_
 _symmetry_equiv_pos_site_id
 _symmetry_equiv_pos_as_xyz
  1  'x, y, z'
loop_
 _atom_site_type_symbol
 _atom_site_label
 _atom_site_symmetry_multiplicity
 _atom_site_fract_x
 _atom_site_fract_y
 _atom_site_fract_z
 _atom_site_occupancy
  Ca  Ca0  1  0.99999800  0.99999800  0.00000000  1
  V  V0  1  0.00000100  0.50000200  0.99999800  1
  V  V1  1  0.49999600  0.49999400  0.49999700  1
  V  V2  1  0.49999500  0.99999500  0.00000400  1
  V  V3  1  0.00000300  0.00000100  0.49999900  1
  Co  Co0  1  0.50000100  0.00000100  0.50000000  1
  Co  Co1  1  0.50000100  0.50000000  0.00000000  1
  Co  Co2  1  0.00000000  0.50000000  0.50000000  1
  O  O0  1  0.30343900  0.11314800  0.17967100  1
  O  O1  1  0.69656200  0.88685400  0.82032800  1
  O  O2  1  0.29605000  0.48459500  0.81906700  1
  O  O3  1  0.70395100  0.51540600  0.18093300  1
  O  O4  1  0.81602000  0.70607500  0.48314900  1
  O  O5  1  0.18398000  0.29392400  0.51685500  1
  O  O6  1  0.18341200  0.69818600  0.11953200  1
  O  O7  1  0.81658900  0.30181500  0.88046900  1
  O  O8  1  0.88457400  0.18130200  0.30049700  1
  O  O9  1  0.11542700  0.81870300  0.69949900  1
  O  O10  1  0.51530900  0.80923100  0.30485000  1
  O  O11  1  0.48469200  0.19077000  0.69515100  1
loop_
_geom_bond_atom_site_label_1
_geom_bond_atom_site_label_2
_geom_bond_distance
_geom_bond_site_symmetry_2
Ca0 O9 2.608525 1_654
Ca0 O8 2.608544 1_565
Ca0 O5 2.614998 1_664
Ca0 O4 2.615020 1_555
Ca0 O10 2.624042 1_555
Ca0 O11 2.624061 1_664
Ca0 O3 2.624072 1_555
Ca0 O2 2.624104 1_664
Ca0 O1 2.625198 1_554
Ca0 O0 2.625226 1_665
Ca0 O7 2.626064 1_564
Ca0 O6 2.626066 1_655
Co0 O8 2.030307 1_555
Co0 O9 2.030312 1_545
Co0 O10 2.035132 1_545
Co0 O11 2.035132 1_555
Co1 O3 2.037309 1_555
Co1 O2 2.037314 1_554
Co1 O0 2.038625 1_555
Co1 O1 2.038635 1_554
Co2 O6 2.009289 1_555
Co2 O7 2.009294 1_455
Co2 O4 2.050540 1_455
Co2 O5 2.050546 1_555
O0 V2 1.914860 1_545
O0 V3 1.995022 1_555
O1 V2 1.914870 1_556
O1 V3 1.995043 1_665
O2 V0 1.929857 1_555
O2 V1 1.987457 1_555
O3 V0 1.929859 1_654
O3 V1 1.987400 1_555
O4 V3 1.936605 1_665
O4 V1 1.977927 1_555
O5 V3 1.936600 1_555
O5 V1 1.977830 1_555
O6 V2 1.967808 1_555
O6 V0 1.978470 1_554
O7 V2 1.967873 1_546
O7 V0 1.978459 1_655
O8 V3 1.949243 1_655
O8 V0 1.974737 1_654
O9 V3 1.949199 1_565
O9 V0 1.974743 1_555
O10 V1 1.916449 1_555
O10 V2 2.001479 1_555
O11 V1 1.916425 1_555
O11 V2 2.001495 1_546
