# generated using pymatgen
data_Na5LuH4(C2O7)2
_symmetry_space_group_name_H-M   'P 1'
_cell_length_a   7.64563400
_cell_length_b   7.64563400
_cell_length_c   11.67003300
_cell_angle_alpha   90.00000000
_cell_angle_beta   90.00000000
_cell_angle_gamma   90.00000000
_symmetry_Int_Tables_number   1
_chemical_formula_structural   Na5LuH4(C2O7)2
_chemical_formula_sum   'Na10 Lu2 H8 C8 O28'
_cell_volume   682.18017283
_cell_formula_units_Z   2
loop_
 _symmetry_equiv_pos_site_id
 _symmetry_equiv_pos_as_xyz
  1  'x, y, z'
loop_
 _atom_site_type_symbol
 _atom_site_label
 _atom_site_symmetry_multiplicity
 _atom_site_fract_x
 _atom_site_fract_y
 _atom_site_fract_z
 _atom_site_occupancy
  Na  Na0  1  0.00000000  0.00000000  0.50000000  1
  Na  Na1  1  0.50000000  0.50000000  0.00000000  1
  Na  Na2  1  0.31866000  0.82380700  0.70775800  1
  Na  Na3  1  0.81866000  0.67619300  0.79224200  1
  Na  Na4  1  0.68134000  0.17619300  0.70775800  1
  Na  Na5  1  0.18134000  0.32380700  0.79224200  1
  Na  Na6  1  0.82380700  0.68134000  0.29224200  1
  Na  Na7  1  0.67619300  0.18134000  0.20775800  1
  Na  Na8  1  0.17619300  0.31866000  0.29224200  1
  Na  Na9  1  0.32380700  0.81866000  0.20775800  1
  Lu  Lu0  1  0.50000000  0.50000000  0.50000000  1
  Lu  Lu1  1  0.00000000  0.00000000  0.00000000  1
  H  H0  1  0.57900700  0.93484500  0.88297100  1
  H  H1  1  0.07900700  0.56515500  0.61702900  1
  H  H2  1  0.42099300  0.06515500  0.88297100  1
  H  H3  1  0.92099300  0.43484500  0.61702900  1
  H  H4  1  0.93484500  0.42099300  0.11702900  1
  H  H5  1  0.56515500  0.92099300  0.38297100  1
  H  H6  1  0.06515500  0.57900700  0.11702900  1
  H  H7  1  0.43484500  0.07900700  0.38297100  1
  C  C0  1  0.31991000  0.21575400  0.57807200  1
  C  C1  1  0.81991000  0.28424600  0.92192800  1
  C  C2  1  0.68009000  0.78424600  0.57807200  1
  C  C3  1  0.18009000  0.71575400  0.92192800  1
  C  C4  1  0.21575400  0.68009000  0.42192800  1
  C  C5  1  0.28424600  0.18009000  0.07807200  1
  C  C6  1  0.78424600  0.31991000  0.42192800  1
  C  C7  1  0.71575400  0.81991000  0.07807200  1
  O  O0  1  0.50000000  0.00000000  0.83080000  1
  O  O1  1  0.00000000  0.50000000  0.66920000  1
  O  O2  1  0.00000000  0.50000000  0.16920000  1
  O  O3  1  0.50000000  0.00000000  0.33080000  1
  O  O4  1  0.24885800  0.66441700  0.53286800  1
  O  O5  1  0.74885800  0.83558300  0.96713200  1
  O  O6  1  0.75114200  0.33558300  0.53286800  1
  O  O7  1  0.25114200  0.16441700  0.96713200  1
  O  O8  1  0.66441700  0.75114200  0.46713200  1
  O  O9  1  0.83558300  0.25114200  0.03286800  1
  O  O10  1  0.33558300  0.24885800  0.46713200  1
  O  O11  1  0.16441700  0.74885800  0.03286800  1
  O  O12  1  0.40650300  0.32345100  0.64572700  1
  O  O13  1  0.90650300  0.17654900  0.85427300  1
  O  O14  1  0.59349700  0.67654900  0.64572700  1
  O  O15  1  0.09349700  0.82345100  0.85427300  1
  O  O16  1  0.32345100  0.59349700  0.35427300  1
  O  O17  1  0.17654900  0.09349700  0.14572700  1
  O  O18  1  0.67654900  0.40650300  0.35427300  1
  O  O19  1  0.82345100  0.90650300  0.14572700  1
  O  O20  1  0.22734600  0.09224100  0.61764900  1
  O  O21  1  0.72734600  0.40775900  0.88235100  1
  O  O22  1  0.77265400  0.90775900  0.61764900  1
  O  O23  1  0.27265400  0.59224100  0.88235100  1
  O  O24  1  0.09224100  0.77265400  0.38235100  1
  O  O25  1  0.40775900  0.27265400  0.11764900  1
  O  O26  1  0.90775900  0.22734600  0.38235100  1
  O  O27  1  0.59224100  0.72734600  0.11764900  1
loop_
_geom_bond_atom_site_label_1
_geom_bond_atom_site_label_2
_geom_bond_distance
_geom_bond_site_symmetry_2
Na0 O20 2.324599 1_555
Na0 O24 2.324599 1_545
Na0 O22 2.324599 1_445
Na0 O26 2.324599 1_455
Na1 O23 2.324599 1_554
Na1 O25 2.324599 1_555
Na1 O21 2.324599 1_554
Na1 O27 2.324599 1_555
Na2 O0 2.408067 1_565
Na2 O20 2.409432 1_565
Na2 O15 2.426346 1_555
Na2 O4 2.436280 1_555
Na2 O14 2.491409 1_555
Na2 O23 2.722079 1_555
Na3 O1 2.408067 1_655
Na3 O21 2.409432 1_555
Na3 O14 2.426346 1_555
Na3 O5 2.436280 1_555
Na3 O15 2.491409 1_655
Na3 O22 2.722079 1_555
Na4 O0 2.408067 1_555
Na4 O22 2.409432 1_545
Na4 O13 2.426346 1_555
Na4 O6 2.436280 1_555
Na4 O12 2.491409 1_555
Na4 O21 2.722079 1_555
Na5 O1 2.408067 1_555
Na5 O23 2.409432 1_555
Na5 O12 2.426346 1_555
Na5 O7 2.436280 1_555
Na5 O13 2.491409 1_455
Na5 O20 2.722079 1_555
Na6 O2 2.408067 1_655
Na6 O24 2.409432 1_655
Na6 O19 2.426346 1_555
Na6 O8 2.436280 1_555
Na6 O18 2.491409 1_555
Na6 O27 2.722079 1_555
Na7 O3 2.408067 1_555
Na7 O25 2.409432 1_555
Na7 O18 2.426346 1_555
Na7 O9 2.436280 1_555
Na7 O19 2.491409 1_545
Na7 O26 2.722079 1_555
Na8 O2 2.408067 1_555
Na8 O26 2.409432 1_455
Na8 O17 2.426346 1_555
Na8 O10 2.436280 1_555
Na8 O16 2.491409 1_555
Na8 O25 2.722079 1_555
Na9 O3 2.408067 1_565
Na9 O27 2.409432 1_555
Na9 O16 2.426346 1_555
Na9 O11 2.436280 1_555
Na9 O17 2.491409 1_565
Na9 O24 2.722079 1_555
Lu0 O18 2.285872 1_555
Lu0 O16 2.285872 1_555
Lu0 O12 2.285872 1_555
Lu0 O14 2.285872 1_555
Lu0 O6 2.326864 1_555
Lu0 O4 2.326864 1_555
Lu0 O10 2.326864 1_555
Lu0 O8 2.326864 1_555
Lu1 O19 2.285872 1_445
Lu1 O15 2.285872 1_544
Lu1 O17 2.285872 1_555
Lu1 O13 2.285872 1_454
Lu1 O5 2.326864 1_444
Lu1 O9 2.326864 1_455
Lu1 O11 2.326864 1_545
Lu1 O7 2.326864 1_554
H0 O0 0.991829 1_565
H1 O1 0.991829 1_555
H2 O0 0.991829 1_555
H3 O1 0.991829 1_655
H4 O2 0.991829 1_655
H5 O3 0.991829 1_565
H6 O2 0.991829 1_555
H7 O3 0.991829 1_555
C0 O20 1.267258 1_555
C0 O12 1.318975 1_555
C0 O10 1.324613 1_555
C1 O21 1.267258 1_555
C1 O13 1.318975 1_555
C1 O9 1.324613 1_556
C2 O22 1.267258 1_555
C2 O14 1.318975 1_555
C2 O8 1.324613 1_555
C3 O23 1.267258 1_555
C3 O15 1.318975 1_555
C3 O11 1.324613 1_556
C4 O24 1.267258 1_555
C4 O16 1.318975 1_555
C4 O4 1.324613 1_555
C5 O25 1.267258 1_555
C5 O17 1.318975 1_555
C5 O7 1.324613 1_554
C6 O26 1.267258 1_555
C6 O18 1.318975 1_555
C6 O6 1.324613 1_555
C7 O27 1.267258 1_555
C7 O19 1.318975 1_555
C7 O5 1.324613 1_554
