# generated using pymatgen
data_LuAlB14
_symmetry_space_group_name_H-M   'P 1'
_cell_length_a   5.90436800
_cell_length_b   7.26098431
_cell_length_c   7.26098431
_cell_angle_alpha   68.71541283
_cell_angle_beta   66.00971170
_cell_angle_gamma   66.00971170
_symmetry_Int_Tables_number   1
_chemical_formula_structural   LuAlB14
_chemical_formula_sum   'Lu2 Al2 B28'
_cell_volume   252.43779044
_cell_formula_units_Z   2
loop_
 _symmetry_equiv_pos_site_id
 _symmetry_equiv_pos_as_xyz
  1  'x, y, z'
loop_
 _atom_site_type_symbol
 _atom_site_label
 _atom_site_symmetry_multiplicity
 _atom_site_fract_x
 _atom_site_fract_y
 _atom_site_fract_z
 _atom_site_occupancy
  Lu  Lu0  1  0.75000000  0.59660300  0.90339700  1
  Lu  Lu1  1  0.25000000  0.40339700  0.09660300  1
  Al  Al0  1  0.50000000  0.00000000  0.50000000  1
  Al  Al1  1  0.00000000  0.00000000  0.50000000  1
  B  B0  1  0.16762100  0.79844100  0.86631700  1
  B  B1  1  0.83237900  0.20155900  0.13368300  1
  B  B2  1  0.66762100  0.36631700  0.29844100  1
  B  B3  1  0.33237900  0.63368300  0.70155900  1
  B  B4  1  0.64486800  0.97879000  0.73147400  1
  B  B5  1  0.35513200  0.02121000  0.26852600  1
  B  B6  1  0.14486800  0.23147400  0.47879000  1
  B  B7  1  0.85513200  0.76852600  0.52121000  1
  B  B8  1  0.59037200  0.24179900  0.57745700  1
  B  B9  1  0.40962800  0.75820100  0.42254300  1
  B  B10  1  0.09037200  0.07745700  0.74179900  1
  B  B11  1  0.90962800  0.92254300  0.25820100  1
  B  B12  1  0.89953200  0.77565900  0.10111000  1
  B  B13  1  0.77630100  0.22434100  0.89889000  1
  B  B14  1  0.39953200  0.60111000  0.27565900  1
  B  B15  1  0.27630100  0.39889000  0.72434100  1
  B  B16  1  0.10046800  0.22434100  0.89889000  1
  B  B17  1  0.22369900  0.77565900  0.10111000  1
  B  B18  1  0.60046800  0.39889000  0.72434100  1
  B  B19  1  0.72369900  0.60111000  0.27565900  1
  B  B20  1  0.33270300  0.37188500  0.46780400  1
  B  B21  1  0.17239200  0.62811500  0.53219600  1
  B  B22  1  0.83270300  0.96780400  0.87188500  1
  B  B23  1  0.67239200  0.03219600  0.12811500  1
  B  B24  1  0.66729700  0.62811500  0.53219600  1
  B  B25  1  0.82760800  0.37188500  0.46780400  1
  B  B26  1  0.16729700  0.03219600  0.12811500  1
  B  B27  1  0.32760800  0.96780400  0.87188500  1
loop_
_geom_bond_atom_site_label_1
_geom_bond_atom_site_label_2
_geom_bond_distance
_geom_bond_site_symmetry_2
Al0 B6 2.110493 1_555
Al0 B4 2.110493 1_545
Al0 B5 2.110493 1_555
Al0 B7 2.110493 1_545
Al0 B9 2.325124 1_545
Al0 B10 2.325124 1_555
Al0 B11 2.325124 1_545
Al0 B8 2.325124 1_555
Al0 B20 2.425343 1_555
Al0 B27 2.425343 1_545
Al0 B24 2.425343 1_545
Al0 B23 2.425343 1_555
Al1 B6 2.110493 1_555
Al1 B4 2.110493 1_445
Al1 B5 2.110493 1_555
Al1 B7 2.110493 1_445
Al1 B11 2.325124 1_445
Al1 B8 2.325124 1_455
Al1 B9 2.325124 1_545
Al1 B10 2.325124 1_555
Al1 B22 2.425343 1_445
Al1 B25 2.425343 1_455
Al1 B21 2.425343 1_545
Al1 B26 2.425343 1_555
B0 B3 1.719006 1_555
B0 B17 1.803654 1_556
B0 B12 1.803654 1_456
B0 B10 1.839563 1_565
B0 B27 1.848774 1_555
B0 B22 1.848774 1_455
B0 Lu1 2.702779 1_556
B1 B2 1.719006 1_555
B1 B16 1.803654 1_654
B1 B13 1.803654 1_554
B1 B11 1.839563 1_545
B1 B26 1.848774 1_655
B1 B23 1.848774 1_555
B1 Lu0 2.702779 1_554
B2 B8 1.839563 1_555
B2 B25 1.848774 1_555
B2 B20 1.848774 1_555
B2 Lu0 2.702779 1_554
B3 B9 1.839563 1_555
B3 Lu1 2.702779 1_556
B4 B8 1.800995 1_565
B4 B7 2.193794 1_555
B4 Lu0 2.521693 1_555
B5 B9 1.800995 1_545
B5 B6 2.193794 1_555
B5 Lu1 2.521693 1_555
B6 Lu1 2.521693 1_555
B7 Lu0 2.521693 1_555
B10 B27 1.763843 1_545
B10 B22 1.763843 1_445
B10 B6 1.800995 1_555
B10 B16 1.852633 1_555
B10 B13 1.852633 1_455
B11 B26 1.763843 1_665
B11 B23 1.763843 1_565
B11 B7 1.800995 1_555
B11 B17 1.852633 1_655
B11 B12 1.852633 1_555
B12 B19 1.767553 1_555
B12 B22 1.809125 1_554
B12 B23 1.823923 1_565
B12 B17 1.914001 1_655
B12 Lu1 2.655202 1_655
B12 Lu0 2.801758 1_554
B13 B18 1.767553 1_555
B13 B23 1.809125 1_556
B13 B22 1.823923 1_545
B13 B16 1.914001 1_655
B13 Lu0 2.655202 1_555
B13 Lu1 2.801758 1_556
B14 B17 1.767553 1_555
B14 B2 1.803654 1_555
B14 B20 1.809125 1_555
B14 B21 1.823923 1_555
B14 B9 1.852633 1_555
B14 B19 1.914001 1_555
B14 Lu0 2.655202 1_554
B14 Lu1 2.801758 1_555
B15 B16 1.767553 1_555
B15 B3 1.803654 1_555
B15 B21 1.809125 1_555
B15 B20 1.823923 1_555
B15 B8 1.852633 1_555
B15 B18 1.914001 1_555
B15 Lu1 2.655202 1_556
B15 Lu0 2.801758 1_455
B16 B26 1.809125 1_556
B16 B27 1.823923 1_545
B16 Lu0 2.655202 1_455
B16 Lu1 2.801758 1_556
B17 B27 1.809125 1_554
B17 B26 1.823923 1_565
B17 Lu1 2.655202 1_555
B17 Lu0 2.801758 1_554
B18 B3 1.803654 1_555
B18 B24 1.809125 1_555
B18 B25 1.823923 1_555
B18 B8 1.852633 1_555
B18 Lu1 2.655202 1_556
B18 Lu0 2.801758 1_555
B19 B2 1.803654 1_555
B19 B25 1.809125 1_555
B19 B24 1.823923 1_555
B19 B9 1.852633 1_555
B19 Lu0 2.655202 1_554
B19 Lu1 2.801758 1_655
B20 B6 1.750495 1_555
B20 B8 1.763843 1_555
B20 B21 1.848132 1_555
B20 Lu1 2.843766 1_555
B21 B7 1.750495 1_455
B21 B9 1.763843 1_555
B21 B3 1.848774 1_555
B21 Lu0 2.843766 1_455
B22 B4 1.750495 1_555
B22 B23 1.848132 1_566
B22 Lu0 2.843766 1_555
B23 B5 1.750495 1_555
B23 Lu1 2.843766 1_555
B24 B7 1.750495 1_555
B24 B9 1.763843 1_555
B24 B25 1.848132 1_555
B24 B3 1.848774 1_555
B24 Lu0 2.843766 1_555
B25 B6 1.750495 1_655
B25 B8 1.763843 1_555
B25 Lu1 2.843766 1_655
B26 B5 1.750495 1_555
B26 B27 1.848132 1_544
B26 Lu1 2.843766 1_555
B27 B4 1.750495 1_555
B27 Lu0 2.843766 1_555
