# generated using pymatgen
data_Pr5Si3
_symmetry_space_group_name_H-M   'P 1'
_cell_length_a   7.89319300
_cell_length_b   7.89319300
_cell_length_c   8.93677103
_cell_angle_alpha   116.20686178
_cell_angle_beta   116.20686178
_cell_angle_gamma   90.00000000
_symmetry_Int_Tables_number   1
_chemical_formula_structural   Pr5Si3
_chemical_formula_sum   'Pr10 Si6'
_cell_volume   434.84562700
_cell_formula_units_Z   2
loop_
 _symmetry_equiv_pos_site_id
 _symmetry_equiv_pos_as_xyz
  1  'x, y, z'
loop_
 _atom_site_type_symbol
 _atom_site_label
 _atom_site_symmetry_multiplicity
 _atom_site_fract_x
 _atom_site_fract_y
 _atom_site_fract_z
 _atom_site_occupancy
  Pr  Pr0  1  0.50000000  0.50000000  0.00000000  1
  Pr  Pr1  1  0.00000000  0.00000000  0.00000000  1
  Pr  Pr2  1  0.96782600  0.82422900  0.29205500  1
  Pr  Pr3  1  0.32422900  0.46782600  0.29205500  1
  Pr  Pr4  1  0.82422900  0.32422900  0.29205500  1
  Pr  Pr5  1  0.46782600  0.96782600  0.29205500  1
  Pr  Pr6  1  0.03217400  0.17577100  0.70794500  1
  Pr  Pr7  1  0.67577100  0.53217400  0.70794500  1
  Pr  Pr8  1  0.17577100  0.67577100  0.70794500  1
  Pr  Pr9  1  0.53217400  0.03217400  0.70794500  1
  Si  Si0  1  0.75000000  0.75000000  0.50000000  1
  Si  Si1  1  0.25000000  0.25000000  0.50000000  1
  Si  Si2  1  0.61449100  0.88550900  0.00000000  1
  Si  Si3  1  0.38550900  0.11449100  0.00000000  1
  Si  Si4  1  0.88550900  0.38550900  0.00000000  1
  Si  Si5  1  0.11449100  0.61449100  0.00000000  1
loop_
_geom_bond_atom_site_label_1
_geom_bond_atom_site_label_2
_geom_bond_distance
_geom_bond_site_symmetry_2
Pr0 Si5 3.174255 1_555
Pr0 Si4 3.174255 1_555
Pr0 Si2 3.174255 1_555
Pr0 Si3 3.174255 1_555
Pr0 Si1 3.489793 1_554
Pr0 Si0 3.489793 1_555
Pr1 Si5 3.174255 1_545
Pr1 Si4 3.174255 1_455
Pr1 Si2 3.174255 1_445
Pr1 Si3 3.174255 1_555
Pr1 Si0 3.489793 1_444
Pr1 Si1 3.489793 1_555
Pr2 Si2 3.083868 1_555
Pr2 Si4 3.121769 1_555
Pr2 Si5 3.121769 1_655
Pr2 Si1 3.246017 1_665
Pr2 Si0 3.246017 1_555
Pr3 Si3 3.083868 1_555
Pr3 Si4 3.121769 1_455
Pr3 Si5 3.121769 1_555
Pr3 Si0 3.246017 1_555
Pr3 Si1 3.246017 1_555
Pr4 Si4 3.083868 1_555
Pr4 Si2 3.121769 1_545
Pr4 Si3 3.121769 1_555
Pr4 Si1 3.246017 1_655
Pr4 Si0 3.246017 1_555
Pr5 Si5 3.083868 1_555
Pr5 Si2 3.121769 1_555
Pr5 Si3 3.121769 1_565
Pr5 Si0 3.246017 1_555
Pr5 Si1 3.246017 1_565
Pr6 Si3 3.083868 1_556
Pr6 Si5 3.121769 1_556
Pr6 Si4 3.121769 1_456
Pr6 Si0 3.246017 1_445
Pr6 Si1 3.246017 1_555
Pr7 Si2 3.083868 1_556
Pr7 Si5 3.121769 1_656
Pr7 Si4 3.121769 1_556
Pr7 Si1 3.246017 1_555
Pr7 Si0 3.246017 1_555
Pr8 Si5 3.083868 1_556
Pr8 Si3 3.121769 1_566
Pr8 Si2 3.121769 1_556
Pr8 Si0 3.246017 1_455
Pr8 Si1 3.246017 1_555
Pr9 Si4 3.083868 1_556
Pr9 Si2 3.121769 1_546
Pr9 Si3 3.121769 1_556
Pr9 Si0 3.246017 1_545
Pr9 Si1 3.246017 1_555
Si2 Si3 2.556048 1_565
Si4 Si5 2.556048 1_655
