# generated using pymatgen
data_Mg2TiNi3S8
_symmetry_space_group_name_H-M   'P 1'
_cell_length_a   7.15548332
_cell_length_b   7.06948522
_cell_length_c   7.14731188
_cell_angle_alpha   59.71831096
_cell_angle_beta   59.96559916
_cell_angle_gamma   59.76297111
_symmetry_Int_Tables_number   1
_chemical_formula_structural   Mg2TiNi3S8
_chemical_formula_sum   'Mg2 Ti1 Ni3 S8'
_cell_volume   254.58248988
_cell_formula_units_Z   1
loop_
 _symmetry_equiv_pos_site_id
 _symmetry_equiv_pos_as_xyz
  1  'x, y, z'
loop_
 _atom_site_type_symbol
 _atom_site_label
 _atom_site_symmetry_multiplicity
 _atom_site_fract_x
 _atom_site_fract_y
 _atom_site_fract_z
 _atom_site_occupancy
  Mg  Mg0  1  0.87469100  0.87634500  0.87440600  1
  Mg  Mg1  1  0.12531100  0.12365400  0.12559700  1
  Ti  Ti0  1  0.49999300  0.99999700  0.50000900  1
  Ni  Ni0  1  0.50000000  0.50001800  0.49997900  1
  Ni  Ni1  1  0.50000400  0.49999300  0.00000400  1
  Ni  Ni2  1  0.99999900  0.49999400  0.50000800  1
  S  S0  1  0.74159800  0.72473000  0.74133500  1
  S  S1  1  0.25863300  0.27514500  0.70805300  1
  S  S2  1  0.26781800  0.69642900  0.26802900  1
  S  S3  1  0.70820400  0.27501600  0.25876300  1
  S  S4  1  0.73217200  0.30357300  0.73196000  1
  S  S5  1  0.29179600  0.72497600  0.74123900  1
  S  S6  1  0.25840000  0.27526000  0.25867700  1
  S  S7  1  0.74138500  0.72486400  0.29194100  1
loop_
_geom_bond_atom_site_label_1
_geom_bond_atom_site_label_2
_geom_bond_distance
_geom_bond_site_symmetry_2
Mg0 S7 2.432840 1_556
Mg0 S0 2.433777 1_555
Mg0 S5 2.434263 1_655
Mg0 S4 2.456570 1_565
Mg1 S1 2.432893 1_554
Mg1 S6 2.433753 1_555
Mg1 S3 2.434273 1_455
Mg1 S2 2.456553 1_545
Ni0 S3 2.351554 1_555
Ni0 S5 2.351566 1_555
Ni0 S7 2.351916 1_555
Ni0 S1 2.351938 1_555
Ni0 S2 2.355586 1_555
Ni0 S4 2.355671 1_555
Ni1 S2 2.351957 1_555
Ni1 S4 2.351987 1_554
Ni1 S0 2.352713 1_554
Ni1 S6 2.352746 1_555
Ni1 S3 2.361066 1_555
Ni1 S5 2.361136 1_554
Ni2 S4 2.351053 1_555
Ni2 S2 2.351073 1_655
Ni2 S0 2.351706 1_555
Ni2 S6 2.351716 1_655
Ni2 S7 2.360266 1_555
Ni2 S1 2.360273 1_655
S0 Ti0 2.441785 1_555
S1 Ti0 2.437248 1_545
S3 Ti0 2.436744 1_545
S5 Ti0 2.436689 1_555
S6 Ti0 2.441754 1_545
S7 Ti0 2.437282 1_555
