# generated using pymatgen
data_Na3Nb12O31
_symmetry_space_group_name_H-M   'P 1'
_cell_length_a   3.95776000
_cell_length_b   17.98338263
_cell_length_c   17.89580864
_cell_angle_alpha   89.96952437
_cell_angle_beta   90.00000000
_cell_angle_gamma   90.00000000
_symmetry_Int_Tables_number   1
_chemical_formula_structural   Na3Nb12O31
_chemical_formula_sum   'Na6 Nb24 O62'
_cell_volume   1273.71453688
_cell_formula_units_Z   2
loop_
 _symmetry_equiv_pos_site_id
 _symmetry_equiv_pos_as_xyz
  1  'x, y, z'
loop_
 _atom_site_type_symbol
 _atom_site_label
 _atom_site_symmetry_multiplicity
 _atom_site_fract_x
 _atom_site_fract_y
 _atom_site_fract_z
 _atom_site_occupancy
  Na  Na0  1  0.53821900  0.57663600  0.26042200  1
  Na  Na1  1  0.53821900  0.42336400  0.73957800  1
  Na  Na2  1  0.53649900  0.73618800  0.56589500  1
  Na  Na3  1  0.53649900  0.26381200  0.43410500  1
  Na  Na4  1  0.57828900  0.00000000  0.50000000  1
  Na  Na5  1  0.57562300  0.50000000  0.00000000  1
  Nb  Nb0  1  0.06175700  0.63060100  0.07017400  1
  Nb  Nb1  1  0.06175700  0.36939900  0.92982600  1
  Nb  Nb2  1  0.09379100  0.93231300  0.63149200  1
  Nb  Nb3  1  0.09379100  0.06768700  0.36850800  1
  Nb  Nb4  1  0.12015000  0.73696800  0.24841400  1
  Nb  Nb5  1  0.12015000  0.26303200  0.75158600  1
  Nb  Nb6  1  0.09934100  0.75148900  0.73800400  1
  Nb  Nb7  1  0.09934100  0.24851100  0.26199600  1
  Nb  Nb8  1  0.03300700  0.92369800  0.24984700  1
  Nb  Nb9  1  0.03300700  0.07630200  0.75015300  1
  Nb  Nb10  1  0.03746600  0.74891900  0.92494900  1
  Nb  Nb11  1  0.03746600  0.25108100  0.07505100  1
  Nb  Nb12  1  0.03126300  0.85960800  0.06996000  1
  Nb  Nb13  1  0.03126300  0.14039200  0.93004000  1
  Nb  Nb14  1  0.03093000  0.93023400  0.86035800  1
  Nb  Nb15  1  0.03093000  0.06976600  0.13964200  1
  Nb  Nb16  1  0.10170300  0.85251300  0.43142100  1
  Nb  Nb17  1  0.10170300  0.14748700  0.56857900  1
  Nb  Nb18  1  0.10096000  0.56808500  0.85372900  1
  Nb  Nb19  1  0.10096000  0.43191500  0.14627100  1
  Nb  Nb20  1  0.04596800  0.63986800  0.43921800  1
  Nb  Nb21  1  0.04596800  0.36013200  0.56078200  1
  Nb  Nb22  1  0.05657500  0.55980400  0.63978300  1
  Nb  Nb23  1  0.05657500  0.44019600  0.36021700  1
  O  O0  1  0.06585800  0.95830200  0.36326300  1
  O  O1  1  0.06585800  0.04169800  0.63673700  1
  O  O2  1  0.07594500  0.63928100  0.95648700  1
  O  O3  1  0.07594500  0.36071900  0.04351300  1
  O  O4  1  0.08259400  0.75650600  0.47340000  1
  O  O5  1  0.08259400  0.24349400  0.52660000  1
  O  O6  1  0.09051900  0.52743800  0.75657700  1
  O  O7  1  0.09051900  0.47256200  0.24342300  1
  O  O8  1  0.57383200  0.92556200  0.24786600  1
  O  O9  1  0.57383200  0.07443800  0.75213400  1
  O  O10  1  0.57717600  0.75382900  0.92076300  1
  O  O11  1  0.57717600  0.24617100  0.07923700  1
  O  O12  1  0.06770400  0.75075500  0.04370800  1
  O  O13  1  0.06770400  0.24924500  0.95629200  1
  O  O14  1  0.06778300  0.95766100  0.75168900  1
  O  O15  1  0.06778300  0.04233900  0.24831100  1
  O  O16  1  0.06938700  0.82870100  0.32121100  1
  O  O17  1  0.06938700  0.17129900  0.67878900  1
  O  O18  1  0.07120400  0.68045400  0.82611000  1
  O  O19  1  0.07120400  0.31954600  0.17389000  1
  O  O20  1  0.07763000  0.52198800  0.08024800  1
  O  O21  1  0.07763000  0.47801200  0.91975200  1
  O  O22  1  0.06920200  0.92001000  0.52416400  1
  O  O23  1  0.06920200  0.07999000  0.47583600  1
  O  O24  1  0.58161300  0.65181900  0.44601300  1
  O  O25  1  0.58161300  0.34818100  0.55398700  1
  O  O26  1  0.59158000  0.55961000  0.65224000  1
  O  O27  1  0.59158000  0.44039000  0.34776000  1
  O  O28  1  0.57728400  0.62600600  0.06480500  1
  O  O29  1  0.57728400  0.37399400  0.93519500  1
  O  O30  1  0.56748800  0.92709500  0.63126600  1
  O  O31  1  0.56748800  0.07290500  0.36873400  1
  O  O32  1  0.09363100  0.54133800  0.39566500  1
  O  O33  1  0.09363100  0.45866200  0.60433500  1
  O  O34  1  0.09256400  0.60724700  0.54333500  1
  O  O35  1  0.09256400  0.39275300  0.45666400  1
  O  O36  1  0.07144000  0.95989200  0.12946000  1
  O  O37  1  0.07144000  0.04010800  0.87054000  1
  O  O38  1  0.07422200  0.86785400  0.95877600  1
  O  O39  1  0.07422200  0.13214600  0.04122400  1
  O  O40  1  0.57398200  0.86402400  0.43611500  1
  O  O41  1  0.57398200  0.13597600  0.56388500  1
  O  O42  1  0.57804300  0.56790400  0.86346800  1
  O  O43  1  0.57804300  0.43209600  0.13653200  1
  O  O44  1  0.08258000  0.67282300  0.33276800  1
  O  O45  1  0.08258000  0.32717700  0.66723200  1
  O  O46  1  0.11781300  0.66994900  0.67469600  1
  O  O47  1  0.11781300  0.33005100  0.32530400  1
  O  O48  1  0.57221200  0.87202300  0.06724100  1
  O  O49  1  0.57221200  0.12797700  0.93275900  1
  O  O50  1  0.57105200  0.93070200  0.87132700  1
  O  O51  1  0.57105200  0.06929800  0.12867300  1
  O  O52  1  0.07157200  0.82965900  0.18045200  1
  O  O53  1  0.07157200  0.17034100  0.81954800  1
  O  O54  1  0.07311800  0.81977300  0.82572500  1
  O  O55  1  0.07311800  0.18022700  0.17427500  1
  O  O56  1  0.07521700  0.65480900  0.17560700  1
  O  O57  1  0.07521700  0.34519100  0.82439300  1
  O  O58  1  0.06149600  0.82336100  0.66166400  1
  O  O59  1  0.06149600  0.17663900  0.33833600  1
  O  O60  1  0.58327900  0.73597300  0.24236300  1
  O  O61  1  0.58327900  0.26402700  0.75763700  1
loop_
_geom_bond_atom_site_label_1
_geom_bond_atom_site_label_2
_geom_bond_distance
_geom_bond_site_symmetry_2
Na0 O7 2.595311 1_555
Na0 O56 2.763284 1_555
Na0 O44 2.814716 1_555
Na0 O60 2.888925 1_555
Na0 O7 2.893800 1_655
Na0 O27 2.913203 1_555
Na0 O56 2.965603 1_655
Na0 O44 3.051615 1_655
Na0 O32 3.058623 1_555
Na1 O6 2.595311 1_555
Na1 O57 2.763284 1_555
Na1 O45 2.814716 1_555
Na1 O61 2.888925 1_555
Na1 O6 2.893800 1_655
Na1 O26 2.913203 1_555
Na1 O57 2.965603 1_655
Na1 O45 3.051615 1_655
Na1 O33 3.058623 1_555
Na2 O4 2.469821 1_555
Na2 O24 2.634395 1_555
Na2 O4 2.746646 1_655
Na2 O46 2.820189 1_555
Na3 O5 2.469821 1_555
Na3 O25 2.634395 1_555
Na3 O5 2.746646 1_655
Na3 O47 2.820189 1_555
Na4 O22 2.455711 1_645
Na4 O23 2.455711 1_655
Na4 O22 2.513004 1_545
Na4 O23 2.513004 1_555
Na4 O30 2.689944 1_545
Na4 O31 2.689944 1_555
Na4 O41 2.699976 1_555
Na4 O40 2.699976 1_545
Na5 O20 2.470616 1_555
Na5 O21 2.470616 1_554
Na5 O20 2.483308 1_655
Na5 O21 2.483308 1_654
Na5 O28 2.546105 1_555
Na5 O29 2.546105 1_554
Na5 O42 2.730947 1_554
Na5 O43 2.730947 1_555
Nb0 O28 1.921613 1_455
Nb0 O56 1.937339 1_555
Nb0 O20 1.962442 1_555
Nb0 O2 2.041190 1_554
Nb0 O28 2.044266 1_555
Nb0 O12 2.211954 1_555
Nb1 O29 1.921613 1_455
Nb1 O57 1.937339 1_555
Nb1 O21 1.962442 1_555
Nb1 O3 2.041190 1_556
Nb1 O29 2.044266 1_555
Nb1 O13 2.211954 1_555
Nb2 O30 1.877130 1_555
Nb2 O22 1.935987 1_555
Nb2 O1 1.972501 1_565
Nb2 O58 2.036103 1_555
Nb2 O30 2.085098 1_455
Nb2 O14 2.201438 1_555
Nb3 O31 1.877130 1_555
Nb3 O23 1.935987 1_555
Nb3 O0 1.972501 1_545
Nb3 O59 2.036103 1_555
Nb3 O31 2.085098 1_455
Nb3 O15 2.201438 1_555
Nb4 O60 1.836237 1_555
Nb4 O44 1.905193 1_555
Nb4 O56 1.978465 1_555
Nb4 O52 2.071855 1_555
Nb4 O16 2.112166 1_555
Nb4 O60 2.127640 1_455
Nb5 O61 1.836237 1_555
Nb5 O45 1.905193 1_555
Nb5 O57 1.978465 1_555
Nb5 O53 2.071855 1_555
Nb5 O17 2.112166 1_555
Nb5 O61 2.127640 1_455
Nb6 O46 1.854969 1_555
Nb6 O58 1.886141 1_555
Nb6 O54 1.996282 1_555
Nb6 O18 2.031799 1_555
Nb7 O47 1.854969 1_555
Nb7 O59 1.886141 1_555
Nb7 O55 1.996282 1_555
Nb7 O19 2.031799 1_555
Nb8 O8 1.817959 1_455
Nb8 O52 2.104221 1_555
Nb8 O0 2.127220 1_555
Nb8 O16 2.137278 1_555
Nb8 O15 2.138163 1_565
Nb8 O8 2.141011 1_555
Nb8 O36 2.255403 1_555
Nb9 O9 1.817959 1_455
Nb9 O53 2.104221 1_555
Nb9 O1 2.127220 1_555
Nb9 O17 2.137278 1_555
Nb9 O14 2.138163 1_545
Nb9 O9 2.141011 1_555
Nb9 O37 2.255403 1_555
Nb10 O10 1.825392 1_455
Nb10 O2 2.056211 1_555
Nb10 O12 2.128929 1_556
Nb10 O10 2.139177 1_555
Nb10 O18 2.159802 1_555
Nb10 O54 2.189558 1_555
Nb10 O38 2.227936 1_555
Nb11 O11 1.825392 1_455
Nb11 O3 2.056211 1_555
Nb11 O13 2.128929 1_554
Nb11 O11 2.139177 1_555
Nb11 O19 2.159802 1_555
Nb11 O55 2.189558 1_555
Nb11 O39 2.227936 1_555
Nb12 O48 1.831124 1_455
Nb12 O38 2.002398 1_554
Nb12 O12 2.018533 1_555
Nb12 O52 2.055305 1_555
Nb12 O36 2.100844 1_555
Nb12 O48 2.153103 1_555
Nb13 O49 1.831124 1_455
Nb13 O39 2.002398 1_556
Nb13 O13 2.018533 1_555
Nb13 O53 2.055305 1_555
Nb13 O37 2.100844 1_555
Nb13 O49 2.153103 1_555
Nb14 O50 1.830662 1_455
Nb14 O37 1.990853 1_565
Nb14 O14 2.011334 1_555
Nb14 O54 2.087907 1_555
Nb14 O38 2.094700 1_555
Nb14 O50 2.146684 1_555
Nb15 O51 1.830662 1_455
Nb15 O36 1.990853 1_545
Nb15 O15 2.011334 1_555
Nb15 O55 2.087907 1_555
Nb15 O39 2.094700 1_555
Nb15 O51 2.146684 1_555
Nb16 O40 1.882475 1_555
Nb16 O4 1.884044 1_555
Nb16 O16 2.022519 1_555
Nb16 O22 2.060752 1_555
Nb16 O40 2.100511 1_455
Nb16 O0 2.263785 1_555
Nb17 O41 1.882475 1_555
Nb17 O5 1.884044 1_555
Nb17 O17 2.022519 1_555
Nb17 O23 2.060752 1_555
Nb17 O41 2.100511 1_455
Nb17 O1 2.263785 1_555
Nb18 O6 1.886837 1_555
Nb18 O42 1.896209 1_555
Nb18 O21 2.006570 1_555
Nb18 O42 2.076908 1_455
Nb18 O18 2.083419 1_555
Nb18 O2 2.243497 1_555
Nb19 O7 1.886837 1_555
Nb19 O43 1.896209 1_555
Nb19 O20 2.006570 1_555
Nb19 O43 2.076908 1_455
Nb19 O19 2.083419 1_555
Nb19 O3 2.243497 1_555
Nb20 O24 1.854329 1_455
Nb20 O32 1.945298 1_555
Nb20 O34 1.961815 1_555
Nb20 O44 2.000020 1_555
Nb20 O24 2.134294 1_555
Nb20 O4 2.190039 1_555
Nb21 O25 1.854329 1_455
Nb21 O33 1.945298 1_555
Nb21 O35 1.961832 1_555
Nb21 O45 2.000020 1_555
Nb21 O25 2.134294 1_555
Nb21 O5 2.190039 1_555
Nb22 O26 1.853795 1_455
Nb22 O34 1.930227 1_555
Nb22 O33 1.932219 1_555
Nb22 O46 2.091391 1_555
Nb22 O26 2.129127 1_555
Nb22 O6 2.173511 1_555
Nb23 O27 1.853795 1_455
Nb23 O35 1.930211 1_555
Nb23 O32 1.932219 1_555
Nb23 O47 2.091391 1_555
Nb23 O27 2.129127 1_555
Nb23 O7 2.173511 1_555
