# generated using pymatgen
data_NdH3(SeO4)3
_symmetry_space_group_name_H-M   'P 1'
_cell_length_a   6.24948991
_cell_length_b   9.47914192
_cell_length_c   9.47909392
_cell_angle_alpha   120.00044845
_cell_angle_beta   90.00000000
_cell_angle_gamma   90.00000000
_symmetry_Int_Tables_number   1
_chemical_formula_structural   NdH3(SeO4)3
_chemical_formula_sum   'Nd2 H6 Se6 O24'
_cell_volume   486.30540045
_cell_formula_units_Z   2
loop_
 _symmetry_equiv_pos_site_id
 _symmetry_equiv_pos_as_xyz
  1  'x, y, z'
loop_
 _atom_site_type_symbol
 _atom_site_label
 _atom_site_symmetry_multiplicity
 _atom_site_fract_x
 _atom_site_fract_y
 _atom_site_fract_z
 _atom_site_occupancy
  Nd  Nd0  1  0.75000000  0.33332838  0.66664319  1
  Nd  Nd1  1  0.25000000  0.66667162  0.33335681  1
  H  H0  1  0.25000000  0.05479357  0.16353803  1
  H  H1  1  0.25000000  0.83640991  0.89124693  1
  H  H2  1  0.25000000  0.10875110  0.94519968  1
  H  H3  1  0.75000000  0.94520643  0.83646197  1
  H  H4  1  0.75000000  0.16359009  0.10875307  1
  H  H5  1  0.75000000  0.89124890  0.05480032  1
  Se  Se0  1  0.75000000  0.89382804  0.29367625  1
  Se  Se1  1  0.75000000  0.70632158  0.60015149  1
  Se  Se2  1  0.75000000  0.39984613  0.10613328  1
  Se  Se3  1  0.25000000  0.10617196  0.70632375  1
  Se  Se4  1  0.25000000  0.29367842  0.39984851  1
  Se  Se5  1  0.25000000  0.60015387  0.89386672  1
  O  O0  1  0.75000000  0.03919348  0.48112358  1
  O  O1  1  0.75000000  0.51888616  0.55807784  1
  O  O2  1  0.75000000  0.44192334  0.96077819  1
  O  O3  1  0.25000000  0.96080652  0.51887642  1
  O  O4  1  0.25000000  0.48111384  0.44192216  1
  O  O5  1  0.25000000  0.55807666  0.03922181  1
  O  O6  1  0.53377457  0.78339815  0.23772126  1
  O  O7  1  0.53377260  0.76227983  0.54566860  1
  O  O8  1  0.53377395  0.45433120  0.21656683  1
  O  O9  1  0.03377457  0.21660185  0.76227874  1
  O  O10  1  0.03377260  0.23772017  0.45433140  1
  O  O11  1  0.03377395  0.54566880  0.78343317  1
  O  O12  1  0.46622543  0.21660185  0.76227874  1
  O  O13  1  0.46622740  0.23772017  0.45433140  1
  O  O14  1  0.46622605  0.54566880  0.78343317  1
  O  O15  1  0.96622543  0.78339815  0.23772126  1
  O  O16  1  0.96622740  0.76227983  0.54566860  1
  O  O17  1  0.96622605  0.45433120  0.21656683  1
  O  O18  1  0.25000000  0.16750360  0.18494431  1
  O  O19  1  0.25000000  0.81504042  0.98257113  1
  O  O20  1  0.25000000  0.01743784  0.83249517  1
  O  O21  1  0.75000000  0.83249640  0.81505569  1
  O  O22  1  0.75000000  0.18495958  0.01742887  1
  O  O23  1  0.75000000  0.98256216  0.16750483  1
loop_
_geom_bond_atom_site_label_1
_geom_bond_atom_site_label_2
_geom_bond_distance
_geom_bond_site_symmetry_2
Nd0 O1 2.441929 1_555
Nd0 O0 2.441947 1_555
Nd0 O2 2.441970 1_555
Nd0 O10 2.488519 1_655
Nd0 O13 2.488519 1_555
Nd0 O14 2.488722 1_555
Nd0 O11 2.488722 1_655
Nd0 O9 2.488827 1_655
Nd0 O12 2.488827 1_555
Nd1 O4 2.441929 1_555
Nd1 O3 2.441947 1_555
Nd1 O5 2.441970 1_555
Nd1 O7 2.488519 1_555
Nd1 O16 2.488519 1_455
Nd1 O17 2.488722 1_455
Nd1 O8 2.488722 1_555
Nd1 O15 2.488827 1_455
Nd1 O6 2.488827 1_555
H0 O18 0.982775 1_555
H1 O19 0.982738 1_555
H2 O20 0.982763 1_555
H3 O21 0.982775 1_555
H4 O22 0.982738 1_555
H5 O23 0.982763 1_555
O0 Se0 1.614759 1_545
O1 Se1 1.614686 1_555
O2 Se2 1.614645 1_556
O3 Se3 1.614759 1_565
O4 Se4 1.614686 1_555
O5 Se5 1.614645 1_554
O6 Se0 1.627225 1_555
O7 Se1 1.627289 1_555
O8 Se2 1.627242 1_555
O9 Se3 1.627225 1_555
O10 Se4 1.627289 1_555
O11 Se5 1.627242 1_555
O12 Se3 1.627225 1_555
O13 Se4 1.627289 1_555
O14 Se5 1.627242 1_555
O15 Se0 1.627225 1_555
O16 Se1 1.627289 1_555
O17 Se2 1.627242 1_555
O18 Se4 1.773074 1_555
O19 Se5 1.772956 1_555
O20 Se3 1.773097 1_555
O21 Se1 1.773074 1_555
O22 Se2 1.772956 1_555
O23 Se0 1.773097 1_555
