# generated using pymatgen
data_HfCrCuS4
_symmetry_space_group_name_H-M   'P 1'
_cell_length_a   6.98261900
_cell_length_b   7.06326700
_cell_length_c   12.27250600
_cell_angle_alpha   90.00000000
_cell_angle_beta   90.00000000
_cell_angle_gamma   90.00000000
_symmetry_Int_Tables_number   1
_chemical_formula_structural   HfCrCuS4
_chemical_formula_sum   'Hf4 Cr4 Cu4 S16'
_cell_volume   605.28125209
_cell_formula_units_Z   4
loop_
 _symmetry_equiv_pos_site_id
 _symmetry_equiv_pos_as_xyz
  1  'x, y, z'
loop_
 _atom_site_type_symbol
 _atom_site_label
 _atom_site_symmetry_multiplicity
 _atom_site_fract_x
 _atom_site_fract_y
 _atom_site_fract_z
 _atom_site_occupancy
  Hf  Hf0  1  0.97089600  0.75000000  0.32015400  1
  Hf  Hf1  1  0.02910400  0.25000000  0.67984600  1
  Hf  Hf2  1  0.52910400  0.25000000  0.82015400  1
  Hf  Hf3  1  0.47089600  0.75000000  0.17984600  1
  Cr  Cr0  1  0.15244200  0.25000000  0.92588300  1
  Cr  Cr1  1  0.84755800  0.75000000  0.07411700  1
  Cr  Cr2  1  0.34755800  0.75000000  0.42588300  1
  Cr  Cr3  1  0.65244200  0.25000000  0.57411700  1
  Cu  Cu0  1  0.22772000  0.25000000  0.39879300  1
  Cu  Cu1  1  0.77228000  0.75000000  0.60120700  1
  Cu  Cu2  1  0.27228000  0.75000000  0.89879300  1
  Cu  Cu3  1  0.72772000  0.25000000  0.10120700  1
  S  S0  1  0.23463000  0.47806900  0.80089000  1
  S  S1  1  0.76537000  0.52193100  0.19911000  1
  S  S2  1  0.26537000  0.52193100  0.30089000  1
  S  S3  1  0.73463000  0.47806900  0.69911000  1
  S  S4  1  0.73463000  0.02193100  0.69911000  1
  S  S5  1  0.26537000  0.97806900  0.30089000  1
  S  S6  1  0.76537000  0.97806900  0.19911000  1
  S  S7  1  0.23463000  0.02193100  0.80089000  1
  S  S8  1  0.92331200  0.25000000  0.48145100  1
  S  S9  1  0.07668800  0.75000000  0.51854900  1
  S  S10  1  0.57668800  0.75000000  0.98145100  1
  S  S11  1  0.42331200  0.25000000  0.01854900  1
  S  S12  1  0.16232300  0.75000000  0.07524900  1
  S  S13  1  0.83767700  0.25000000  0.92475100  1
  S  S14  1  0.33767700  0.25000000  0.57524900  1
  S  S15  1  0.66232300  0.75000000  0.42475100  1
loop_
_geom_bond_atom_site_label_1
_geom_bond_atom_site_label_2
_geom_bond_distance
_geom_bond_site_symmetry_2
Hf0 S15 2.508049 1_555
Hf0 S9 2.544397 1_655
Hf0 S6 2.619414 1_555
Hf0 S1 2.619414 1_555
Hf0 S5 2.622764 1_655
Hf0 S2 2.622764 1_655
Hf1 S14 2.508049 1_555
Hf1 S8 2.544397 1_455
Hf1 S7 2.619414 1_555
Hf1 S0 2.619414 1_555
Hf1 S4 2.622764 1_455
Hf1 S3 2.622764 1_455
Hf2 S13 2.508049 1_555
Hf2 S11 2.544397 1_556
Hf2 S4 2.619414 1_555
Hf2 S3 2.619414 1_555
Hf2 S0 2.622764 1_555
Hf2 S7 2.622764 1_555
Hf3 S12 2.508049 1_555
Hf3 S10 2.544397 1_554
Hf3 S5 2.619414 1_555
Hf3 S2 2.619414 1_555
Hf3 S1 2.622764 1_555
Hf3 S6 2.622764 1_555
Cr0 S13 2.197928 1_455
Cr0 S11 2.206955 1_556
Cr0 S7 2.297275 1_555
Cr0 S0 2.297275 1_555
Cr1 S12 2.197928 1_655
Cr1 S10 2.206955 1_554
Cr1 S6 2.297275 1_555
Cr1 S1 2.297275 1_555
Cr2 S15 2.197928 1_555
Cr2 S9 2.206955 1_555
Cr2 S5 2.297275 1_555
Cr2 S2 2.297275 1_555
Cr3 S14 2.197928 1_555
Cr3 S8 2.206955 1_555
Cr3 S4 2.297275 1_555
Cr3 S3 2.297275 1_555
Cu0 S5 2.280772 1_545
Cu0 S2 2.280772 1_555
Cu0 S14 2.297637 1_555
Cu0 S8 2.355223 1_455
Cu1 S4 2.280772 1_565
Cu1 S3 2.280772 1_555
Cu1 S15 2.297637 1_555
Cu1 S9 2.355223 1_655
Cu2 S7 2.280772 1_565
Cu2 S0 2.280772 1_555
Cu2 S12 2.297637 1_556
Cu2 S10 2.355223 1_555
Cu3 S1 2.280772 1_555
Cu3 S6 2.280772 1_545
Cu3 S13 2.297637 1_554
Cu3 S11 2.355223 1_555
