# generated using pymatgen
data_La2Sb4Ir3
_symmetry_space_group_name_H-M   'P 1'
_cell_length_a   4.63807200
_cell_length_b   11.09499300
_cell_length_c   16.43001100
_cell_angle_alpha   90.00000000
_cell_angle_beta   90.00000000
_cell_angle_gamma   90.00000000
_symmetry_Int_Tables_number   1
_chemical_formula_structural   La2Sb4Ir3
_chemical_formula_sum   'La8 Sb16 Ir12'
_cell_volume   845.47811987
_cell_formula_units_Z   4
loop_
 _symmetry_equiv_pos_site_id
 _symmetry_equiv_pos_as_xyz
  1  'x, y, z'
loop_
 _atom_site_type_symbol
 _atom_site_label
 _atom_site_symmetry_multiplicity
 _atom_site_fract_x
 _atom_site_fract_y
 _atom_site_fract_z
 _atom_site_occupancy
  La  La0  1  0.25000000  0.74884000  0.50584200  1
  La  La1  1  0.25000000  0.75116000  0.00584200  1
  La  La2  1  0.75000000  0.25116000  0.49415800  1
  La  La3  1  0.75000000  0.24884000  0.99415800  1
  La  La4  1  0.25000000  0.58764900  0.75033500  1
  La  La5  1  0.25000000  0.91235100  0.25033500  1
  La  La6  1  0.75000000  0.41235100  0.24966500  1
  La  La7  1  0.75000000  0.08764900  0.74966500  1
  Sb  Sb0  1  0.25000000  0.27551200  0.65121100  1
  Sb  Sb1  1  0.25000000  0.22448800  0.15121100  1
  Sb  Sb2  1  0.75000000  0.72448800  0.34878900  1
  Sb  Sb3  1  0.75000000  0.77551200  0.84878900  1
  Sb  Sb4  1  0.25000000  0.88459700  0.70809600  1
  Sb  Sb5  1  0.25000000  0.61540300  0.20809600  1
  Sb  Sb6  1  0.75000000  0.11540300  0.29190400  1
  Sb  Sb7  1  0.75000000  0.38459700  0.79190400  1
  Sb  Sb8  1  0.25000000  0.06229900  0.89578600  1
  Sb  Sb9  1  0.25000000  0.43770100  0.39578600  1
  Sb  Sb10  1  0.75000000  0.93770100  0.10421400  1
  Sb  Sb11  1  0.75000000  0.56229900  0.60421400  1
  Sb  Sb12  1  0.25000000  0.44963100  0.93187100  1
  Sb  Sb13  1  0.25000000  0.05036900  0.43187100  1
  Sb  Sb14  1  0.75000000  0.55036900  0.06812900  1
  Sb  Sb15  1  0.75000000  0.94963100  0.56812900  1
  Ir  Ir0  1  0.25000000  0.46537300  0.55657100  1
  Ir  Ir1  1  0.25000000  0.03462700  0.05657100  1
  Ir  Ir2  1  0.75000000  0.53462700  0.44342900  1
  Ir  Ir3  1  0.75000000  0.96537300  0.94342900  1
  Ir  Ir4  1  0.25000000  0.05680500  0.59221300  1
  Ir  Ir5  1  0.25000000  0.44319500  0.09221300  1
  Ir  Ir6  1  0.75000000  0.94319500  0.40778700  1
  Ir  Ir7  1  0.75000000  0.55680500  0.90778700  1
  Ir  Ir8  1  0.25000000  0.27707800  0.81931400  1
  Ir  Ir9  1  0.25000000  0.22292200  0.31931400  1
  Ir  Ir10  1  0.75000000  0.72292200  0.18068600  1
  Ir  Ir11  1  0.75000000  0.77707800  0.68068600  1
loop_
_geom_bond_atom_site_label_1
_geom_bond_atom_site_label_2
_geom_bond_distance
_geom_bond_site_symmetry_2
La0 Sb15 3.374642 1_455
La0 Sb15 3.374642 1_555
La0 Sb2 3.479842 1_555
La0 Sb2 3.479842 1_455
La0 Sb11 3.503390 1_455
La0 Sb11 3.503390 1_555
La0 Sb13 3.559379 1_565
La0 Sb4 3.648462 1_555
La0 Sb9 3.896993 1_555
La1 Sb14 3.374642 1_455
La1 Sb14 3.374642 1_555
La1 Sb3 3.479842 1_454
La1 Sb3 3.479842 1_554
La1 Sb10 3.503390 1_455
La1 Sb10 3.503390 1_555
La1 Sb12 3.559379 1_554
La1 Sb5 3.648462 1_555
La1 Sb8 3.896993 1_564
La2 Sb13 3.374642 1_555
La2 Sb13 3.374642 1_655
La2 Sb0 3.479842 1_555
La2 Sb0 3.479842 1_655
La2 Sb9 3.503390 1_555
La2 Sb9 3.503390 1_655
La2 Sb15 3.559379 1_545
La2 Sb6 3.648462 1_555
La2 Sb11 3.896993 1_555
La3 Sb12 3.374642 1_555
La3 Sb12 3.374642 1_655
La3 Sb1 3.479842 1_656
La3 Sb1 3.479842 1_556
La3 Sb8 3.503390 1_555
La3 Sb8 3.503390 1_655
La3 Sb14 3.559379 1_556
La3 Sb7 3.648462 1_555
La3 Sb10 3.896993 1_546
La4 Sb7 3.304507 1_455
La4 Sb7 3.304507 1_555
La4 Sb11 3.349736 1_455
La4 Sb11 3.349736 1_555
La4 Sb12 3.352766 1_555
La4 Sb4 3.366934 1_555
La4 Sb3 3.512695 1_555
La4 Sb3 3.512695 1_455
La4 Sb0 3.826987 1_555
La5 Sb6 3.304507 1_465
La5 Sb6 3.304507 1_565
La5 Sb10 3.349736 1_455
La5 Sb10 3.349736 1_555
La5 Sb13 3.352766 1_565
La5 Sb5 3.366934 1_555
La5 Sb2 3.512695 1_455
La5 Sb2 3.512695 1_555
La5 Sb1 3.826987 1_565
La6 Sb5 3.304507 1_555
La6 Sb5 3.304507 1_655
La6 Sb9 3.349736 1_555
La6 Sb9 3.349736 1_655
La6 Sb14 3.352766 1_555
La6 Sb6 3.366934 1_555
La6 Sb1 3.512695 1_555
La6 Sb1 3.512695 1_655
La6 Sb2 3.826987 1_555
La7 Sb4 3.304507 1_645
La7 Sb4 3.304507 1_545
La7 Sb8 3.349736 1_555
La7 Sb8 3.349736 1_655
La7 Sb15 3.352766 1_545
La7 Sb7 3.366934 1_555
La7 Sb0 3.512695 1_555
La7 Sb0 3.512695 1_655
La7 Sb3 3.826987 1_545
Ir0 Sb0 2.618243 1_555
Ir0 Sb9 2.659481 1_555
Ir0 Sb11 2.673413 1_455
Ir0 Sb11 2.673413 1_555
Ir0 La0 3.253631 1_555
Ir0 La4 3.460558 1_555
Ir0 La2 3.475361 1_455
Ir0 La2 3.475361 1_555
Ir1 Sb1 2.618243 1_555
Ir1 Sb8 2.659481 1_554
Ir1 Sb10 2.673413 1_545
Ir1 Sb10 2.673413 1_445
Ir1 La1 3.253631 1_545
Ir1 La5 3.460558 1_545
Ir1 La3 3.475361 1_554
Ir1 La3 3.475361 1_454
Ir2 Sb2 2.618243 1_555
Ir2 Sb11 2.659481 1_555
Ir2 Sb9 2.673413 1_655
Ir2 Sb9 2.673413 1_555
Ir2 La2 3.253631 1_555
Ir2 La6 3.460558 1_555
Ir2 La0 3.475361 1_555
Ir2 La0 3.475361 1_655
Ir3 Sb3 2.618243 1_555
Ir3 Sb10 2.659481 1_556
Ir3 Sb8 2.673413 1_565
Ir3 Sb8 2.673413 1_665
Ir3 La3 3.253631 1_565
Ir3 La7 3.460558 1_565
Ir3 La1 3.475361 1_656
Ir3 La1 3.475361 1_556
Ir4 Sb0 2.613001 1_555
Ir4 Sb13 2.635388 1_555
Ir4 Sb15 2.635992 1_545
Ir4 Sb15 2.635992 1_445
Ir4 Sb4 2.697338 1_545
Ir4 La7 3.491030 1_555
Ir4 La7 3.491030 1_455
Ir4 La2 3.552930 1_455
Ir4 La2 3.552930 1_555
Ir4 La0 3.699835 1_545
Ir5 Sb1 2.613001 1_555
Ir5 Sb12 2.635388 1_554
Ir5 Sb14 2.635992 1_455
Ir5 Sb14 2.635992 1_555
Ir5 Sb5 2.697338 1_555
Ir5 La6 3.491030 1_455
Ir5 La6 3.491030 1_555
Ir5 La3 3.552930 1_454
Ir5 La3 3.552930 1_554
Ir5 La1 3.699835 1_555
Ir6 Sb2 2.613001 1_555
Ir6 Sb15 2.635388 1_555
Ir6 Sb13 2.635992 1_665
Ir6 Sb13 2.635992 1_565
Ir6 Sb6 2.697338 1_565
Ir6 La5 3.491030 1_655
Ir6 La5 3.491030 1_555
Ir6 La0 3.552930 1_655
Ir6 La0 3.552930 1_555
Ir6 La2 3.699835 1_565
Ir7 Sb3 2.613001 1_555
Ir7 Sb14 2.635388 1_556
Ir7 Sb12 2.635992 1_555
Ir7 Sb12 2.635992 1_655
Ir7 Sb7 2.697338 1_555
Ir7 La4 3.491030 1_555
Ir7 La4 3.491030 1_655
Ir7 La1 3.552930 1_556
Ir7 La1 3.552930 1_656
Ir7 La3 3.699835 1_555
Ir8 Sb7 2.646470 1_455
Ir8 Sb7 2.646470 1_555
Ir8 Sb12 2.661798 1_555
Ir8 Sb8 2.693916 1_555
Ir8 Sb0 2.761989 1_555
Ir8 La7 3.332361 1_555
Ir8 La7 3.332361 1_455
Ir8 La4 3.627375 1_555
Ir8 La3 3.705189 1_455
Ir8 La3 3.705189 1_555
Ir9 Sb6 2.646470 1_455
Ir9 Sb6 2.646470 1_555
Ir9 Sb13 2.661798 1_555
Ir9 Sb9 2.693916 1_555
Ir9 Sb1 2.761989 1_555
Ir9 La6 3.332361 1_455
Ir9 La6 3.332361 1_555
Ir9 La5 3.627375 1_545
Ir9 La2 3.705189 1_555
Ir9 La2 3.705189 1_455
Ir10 Sb5 2.646470 1_655
Ir10 Sb5 2.646470 1_555
Ir10 Sb14 2.661798 1_555
Ir10 Sb10 2.693916 1_555
Ir10 Sb2 2.761989 1_555
Ir10 La5 3.332361 1_555
Ir10 La5 3.332361 1_655
Ir10 La6 3.627375 1_555
Ir10 La1 3.705189 1_555
Ir10 La1 3.705189 1_655
Ir11 Sb4 2.646470 1_555
Ir11 Sb4 2.646470 1_655
Ir11 Sb15 2.661798 1_555
Ir11 Sb11 2.693916 1_555
Ir11 Sb3 2.761989 1_555
Ir11 La4 3.332361 1_655
Ir11 La4 3.332361 1_555
Ir11 La7 3.627375 1_565
Ir11 La0 3.705189 1_555
Ir11 La0 3.705189 1_655
