# generated using pymatgen
data_Ba(NiO2)4
_symmetry_space_group_name_H-M   'P 1'
_cell_length_a   5.48453866
_cell_length_b   5.48453866
_cell_length_c   7.73908300
_cell_angle_alpha   90.00000000
_cell_angle_beta   90.00000000
_cell_angle_gamma   120.00000798
_symmetry_Int_Tables_number   1
_chemical_formula_structural   Ba(NiO2)4
_chemical_formula_sum   'Ba1 Ni4 O8'
_cell_volume   201.60453897
_cell_formula_units_Z   1
loop_
 _symmetry_equiv_pos_site_id
 _symmetry_equiv_pos_as_xyz
  1  'x, y, z'
loop_
 _atom_site_type_symbol
 _atom_site_label
 _atom_site_symmetry_multiplicity
 _atom_site_fract_x
 _atom_site_fract_y
 _atom_site_fract_z
 _atom_site_occupancy
  Ba  Ba0  1  0.00000000  0.00000000  0.00000000  1
  Ni  Ni0  1  0.33333300  0.66666700  0.76474800  1
  Ni  Ni1  1  0.66666700  0.33333300  0.76474800  1
  Ni  Ni2  1  0.33333300  0.66666700  0.23525200  1
  Ni  Ni3  1  0.66666700  0.33333300  0.23525200  1
  O  O0  1  0.35977400  0.35977400  0.70717000  1
  O  O1  1  0.64022600  0.00000000  0.70717000  1
  O  O2  1  0.00000000  0.64022600  0.70717000  1
  O  O3  1  0.64022600  0.64022600  0.29283000  1
  O  O4  1  0.00000000  0.35977400  0.29283000  1
  O  O5  1  0.35977400  0.00000000  0.29283000  1
  O  O6  1  0.33333300  0.66666700  0.00000000  1
  O  O7  1  0.66666700  0.33333300  0.00000000  1
loop_
_geom_bond_atom_site_label_1
_geom_bond_atom_site_label_2
_geom_bond_distance
_geom_bond_site_symmetry_2
Ba0 O0 3.004883 1_554
Ba0 O3 3.004883 1_445
Ba0 O5 3.004883 1_555
Ba0 O4 3.004883 1_555
Ba0 O1 3.004883 1_454
Ba0 O2 3.004883 1_544
Ba0 O7 3.166497 1_455
Ba0 O6 3.166497 1_545
Ba0 O6 3.166501 1_445
Ba0 O7 3.166501 1_555
Ba0 O7 3.166501 1_445
Ba0 O6 3.166501 1_555
Ni0 O2 1.815684 1_555
Ni0 O1 1.815686 1_565
Ni0 O0 1.815689 1_555
Ni0 O6 1.820635 1_556
Ni1 O1 1.815684 1_555
Ni1 O2 1.815686 1_655
Ni1 O0 1.815689 1_555
Ni1 O7 1.820635 1_556
Ni2 O5 1.815684 1_565
Ni2 O4 1.815686 1_555
Ni2 O3 1.815689 1_555
Ni2 O6 1.820635 1_555
Ni3 O4 1.815684 1_655
Ni3 O5 1.815686 1_555
Ni3 O3 1.815689 1_555
Ni3 O7 1.820635 1_555
