# generated using pymatgen
data_Ca2TiIrO6
_symmetry_space_group_name_H-M   'P 1'
_cell_length_a   5.57839200
_cell_length_b   5.40240800
_cell_length_c   9.43069203
_cell_angle_alpha   54.93144572
_cell_angle_beta   90.00000000
_cell_angle_gamma   90.00000000
_symmetry_Int_Tables_number   1
_chemical_formula_structural   Ca2TiIrO6
_chemical_formula_sum   'Ca4 Ti2 Ir2 O12'
_cell_volume   232.61631793
_cell_formula_units_Z   2
loop_
 _symmetry_equiv_pos_site_id
 _symmetry_equiv_pos_as_xyz
  1  'x, y, z'
loop_
 _atom_site_type_symbol
 _atom_site_label
 _atom_site_symmetry_multiplicity
 _atom_site_fract_x
 _atom_site_fract_y
 _atom_site_fract_z
 _atom_site_occupancy
  Ca  Ca0  1  0.94556700  0.23592100  0.74997800  1
  Ca  Ca1  1  0.44556700  0.76407900  0.75002200  1
  Ca  Ca2  1  0.55443300  0.23592100  0.24997800  1
  Ca  Ca3  1  0.05443300  0.76407900  0.25002200  1
  Ti  Ti0  1  0.50000000  0.00000000  0.00000000  1
  Ti  Ti1  1  0.00000000  0.00000000  0.50000000  1
  Ir  Ir0  1  0.50000000  0.50000000  0.50000000  1
  Ir  Ir1  1  0.00000000  0.50000000  0.00000000  1
  O  O0  1  0.47637900  0.66583600  0.24756800  1
  O  O1  1  0.21010200  0.84607200  0.95372900  1
  O  O2  1  0.20274400  0.25091500  0.54429600  1
  O  O3  1  0.70274400  0.74908500  0.95570400  1
  O  O4  1  0.71010200  0.15392800  0.54627100  1
  O  O5  1  0.97637900  0.33416400  0.25243200  1
  O  O6  1  0.02362100  0.66583600  0.74756800  1
  O  O7  1  0.28989800  0.84607200  0.45372900  1
  O  O8  1  0.29725600  0.25091500  0.04429600  1
  O  O9  1  0.78989800  0.15392800  0.04627100  1
  O  O10  1  0.79725600  0.74908500  0.45570400  1
  O  O11  1  0.52362100  0.33416400  0.75243200  1
loop_
_geom_bond_atom_site_label_1
_geom_bond_atom_site_label_2
_geom_bond_distance
_geom_bond_site_symmetry_2
Ca0 O6 2.350278 1_655
Ca0 O2 2.376281 1_655
Ca0 O1 2.378068 1_645
Ca0 O11 2.415911 1_555
Ca0 O4 2.567102 1_555
Ca0 O3 2.579287 1_545
Ca0 O10 2.689057 1_555
Ca0 O9 2.708472 1_556
Ca1 O11 2.350278 1_555
Ca1 O3 2.376281 1_555
Ca1 O4 2.378068 1_565
Ca1 O6 2.415911 1_555
Ca1 O1 2.567102 1_555
Ca1 O2 2.579287 1_565
Ca1 O8 2.689057 1_556
Ca1 O7 2.708472 1_555
Ca2 O0 2.350278 1_555
Ca2 O8 2.376281 1_555
Ca2 O7 2.378068 1_545
Ca2 O5 2.415911 1_555
Ca2 O9 2.567102 1_555
Ca2 O10 2.579287 1_545
Ca2 O3 2.689057 1_554
Ca2 O4 2.708472 1_555
Ca3 O5 2.350278 1_455
Ca3 O10 2.376281 1_455
Ca3 O9 2.378068 1_465
Ca3 O0 2.415911 1_555
Ca3 O7 2.567102 1_555
Ca3 O8 2.579287 1_565
Ca3 O2 2.689057 1_555
Ca3 O1 2.708472 1_554
Ir0 O11 2.009097 1_555
Ir0 O0 2.009097 1_555
Ir0 O10 2.022130 1_555
Ir0 O2 2.022130 1_555
Ir0 O7 2.030287 1_555
Ir0 O4 2.030287 1_555
Ir1 O5 2.009097 1_455
Ir1 O6 2.009097 1_554
Ir1 O8 2.022130 1_555
Ir1 O3 2.022130 1_454
Ir1 O1 2.030287 1_554
Ir1 O9 2.030287 1_455
O0 Ti0 1.970803 1_565
O1 Ti0 1.978421 1_566
O2 Ti1 1.985408 1_555
O3 Ti0 1.985408 1_566
O4 Ti1 1.978421 1_655
O5 Ti1 1.970803 1_655
O6 Ti1 1.970803 1_565
O7 Ti1 1.978421 1_565
O8 Ti0 1.985408 1_555
O9 Ti0 1.978421 1_555
O10 Ti1 1.985408 1_665
O11 Ti0 1.970803 1_556
