# generated using pymatgen
data_BaInO3
_symmetry_space_group_name_H-M   'P 1'
_cell_length_a   4.28183972
_cell_length_b   4.28183972
_cell_length_c   8.64993200
_cell_angle_alpha   90.00000000
_cell_angle_beta   90.00000000
_cell_angle_gamma   90.68375703
_symmetry_Int_Tables_number   1
_chemical_formula_structural   BaInO3
_chemical_formula_sum   'Ba2 In2 O6'
_cell_volume   158.57786982
_cell_formula_units_Z   2
loop_
 _symmetry_equiv_pos_site_id
 _symmetry_equiv_pos_as_xyz
  1  'x, y, z'
loop_
 _atom_site_type_symbol
 _atom_site_label
 _atom_site_symmetry_multiplicity
 _atom_site_fract_x
 _atom_site_fract_y
 _atom_site_fract_z
 _atom_site_occupancy
  Ba  Ba0  1  0.00135400  0.99864600  0.26555600  1
  Ba  Ba1  1  0.00135400  0.99864600  0.73444400  1
  In  In0  1  0.50428800  0.49571200  0.50000000  1
  In  In1  1  0.47606200  0.52393800  0.00000000  1
  O  O0  1  0.51329400  0.48670600  0.24662300  1
  O  O1  1  0.51329400  0.48670600  0.75337700  1
  O  O2  1  0.00433400  0.50588700  0.50000000  1
  O  O3  1  0.49411300  0.99566600  0.50000000  1
  O  O4  1  0.37088400  0.02317700  0.00000000  1
  O  O5  1  0.97682300  0.62911600  0.00000000  1
loop_
_geom_bond_atom_site_label_1
_geom_bond_atom_site_label_2
_geom_bond_distance
_geom_bond_site_symmetry_2
Ba0 O4 2.790526 1_565
Ba0 O5 2.790526 1_455
Ba0 O2 2.926606 1_555
Ba0 O3 2.926606 1_555
Ba0 O3 2.971403 1_455
Ba0 O2 2.971403 1_565
Ba0 O0 2.977505 1_465
Ba0 O0 3.014928 1_455
Ba0 O0 3.014928 1_565
Ba0 O0 3.122759 1_555
Ba1 O4 2.790526 1_566
Ba1 O5 2.790526 1_456
Ba1 O2 2.926606 1_555
Ba1 O3 2.926606 1_555
Ba1 O3 2.971403 1_455
Ba1 O2 2.971403 1_565
Ba1 O1 2.977505 1_465
Ba1 O1 3.014928 1_455
Ba1 O1 3.014928 1_565
Ba1 O1 3.122759 1_555
In0 O3 2.141040 1_545
In0 O2 2.141040 1_655
In0 O2 2.141686 1_555
In0 O3 2.141686 1_555
In0 O1 2.192380 1_555
In0 O0 2.192380 1_555
In1 O1 2.145294 1_554
In1 O0 2.145294 1_555
In1 O4 2.185698 1_555
In1 O5 2.185698 1_555
In1 O4 2.189839 1_565
In1 O5 2.189839 1_455
