# generated using pymatgen
data_Li5Mn2CoO8
_symmetry_space_group_name_H-M   'P 1'
_cell_length_a   2.89305385
_cell_length_b   9.79530369
_cell_length_c   10.06197443
_cell_angle_alpha   101.25183461
_cell_angle_beta   89.59135275
_cell_angle_gamma   90.57945947
_symmetry_Int_Tables_number   1
_chemical_formula_structural   Li5Mn2CoO8
_chemical_formula_sum   'Li10 Mn4 Co2 O16'
_cell_volume   279.64083233
_cell_formula_units_Z   2
loop_
 _symmetry_equiv_pos_site_id
 _symmetry_equiv_pos_as_xyz
  1  'x, y, z'
loop_
 _atom_site_type_symbol
 _atom_site_label
 _atom_site_symmetry_multiplicity
 _atom_site_fract_x
 _atom_site_fract_y
 _atom_site_fract_z
 _atom_site_occupancy
  Li  Li0  1  0.99999800  0.49999800  0.25000100  1
  Li  Li1  1  0.49999500  0.99999700  0.75000200  1
  Li  Li2  1  0.00191400  0.24022400  0.86579100  1
  Li  Li3  1  0.50114000  0.74079300  0.36482600  1
  Li  Li4  1  0.49885200  0.25920700  0.13516600  1
  Li  Li5  1  0.99807800  0.75977400  0.63420300  1
  Li  Li6  1  0.48809800  0.75973700  0.87089800  1
  Li  Li7  1  0.98950800  0.25678400  0.36777000  1
  Li  Li8  1  0.01048500  0.74321700  0.13222300  1
  Li  Li9  1  0.51189200  0.24026500  0.62909500  1
  Mn  Mn0  1  0.99802100  0.99989800  0.99648900  1
  Mn  Mn1  1  0.00200400  0.00010200  0.50351100  1
  Mn  Mn2  1  0.49042400  0.49795600  0.48989600  1
  Mn  Mn3  1  0.50957700  0.50203800  0.01010000  1
  Co  Co0  1  0.49999800  0.00000000  0.25000200  1
  Co  Co1  1  0.99999700  0.50000100  0.75000500  1
  O  O0  1  0.50257000  0.11378000  0.95106200  1
  O  O1  1  0.99387200  0.61282400  0.44652200  1
  O  O2  1  0.00613200  0.38717400  0.05348200  1
  O  O3  1  0.49744000  0.88622100  0.54894400  1
  O  O4  1  0.01468900  0.60923400  0.94422100  1
  O  O5  1  0.50526000  0.10480500  0.43375200  1
  O  O6  1  0.49474700  0.89519700  0.06625200  1
  O  O7  1  0.98531600  0.39076300  0.55577900  1
  O  O8  1  0.50597700  0.61866300  0.17484100  1
  O  O9  1  0.00515300  0.11738700  0.66959000  1
  O  O10  1  0.49402300  0.38133500  0.32515700  1
  O  O11  1  0.99484900  0.88262400  0.83041900  1
  O  O12  1  0.47568300  0.61336200  0.68535500  1
  O  O13  1  0.00269800  0.10754600  0.19018700  1
  O  O14  1  0.52431300  0.38663500  0.81464600  1
  O  O15  1  0.99729700  0.89245700  0.30981600  1
loop_
_geom_bond_atom_site_label_1
_geom_bond_atom_site_label_2
_geom_bond_distance
_geom_bond_site_symmetry_2
Li0 O2 2.068515 1_655
Li0 O1 2.068539 1_555
Li0 O10 2.087502 1_655
Li0 O8 2.087526 1_555
Li0 O10 2.087693 1_555
Li0 O8 2.087732 1_655
Li1 O11 2.103442 1_455
Li1 O9 2.103544 1_665
Li1 O11 2.106892 1_555
Li1 O9 2.106948 1_565
Li1 O3 2.110684 1_555
Li1 O0 2.110725 1_565
Li2 O9 2.101946 1_555
Li2 O14 2.137521 1_455
Li2 O2 2.139580 1_556
Li2 O0 2.172087 1_455
Li2 O0 2.199279 1_555
Li2 O14 2.199724 1_555
Li3 O8 2.047720 1_555
Li3 O3 2.105136 1_555
Li3 O1 2.175773 1_555
Li3 O1 2.179077 1_455
Li3 O15 2.200044 1_555
Li3 O15 2.239262 1_455
Li4 O10 2.047761 1_555
Li4 O0 2.105026 1_554
Li4 O2 2.175677 1_555
Li4 O2 2.179029 1_655
Li4 O13 2.200059 1_555
Li4 O13 2.239289 1_655
Li5 O11 2.102120 1_555
Li5 O12 2.137562 1_655
Li5 O1 2.139504 1_555
Li5 O3 2.172080 1_655
Li5 O3 2.199202 1_555
Li5 O12 2.199748 1_555
Li6 O11 1.971167 1_455
Li6 O11 1.977691 1_555
Li6 O12 2.120797 1_555
Li6 O6 2.146376 1_556
Li6 O4 2.227697 1_555
Li6 O4 2.350418 1_655
Li7 O10 1.990446 1_655
Li7 O10 1.993836 1_555
Li7 O13 2.076538 1_655
Li7 O7 2.081415 1_555
Li7 O5 2.224830 1_555
Li7 O5 2.308259 1_655
Li8 O8 1.990467 1_455
Li8 O8 1.993887 1_555
Li8 O15 2.076621 1_455
Li8 O4 2.081378 1_554
Li8 O6 2.224815 1_555
Li8 O6 2.308193 1_455
Li9 O9 1.971188 1_655
Li9 O9 1.977661 1_555
Li9 O14 2.120833 1_555
Li9 O5 2.146288 1_555
Li9 O7 2.227656 1_555
Li9 O7 2.350325 1_455
Mn0 O11 1.833797 1_555
Mn0 O0 1.934037 1_665
Mn0 O0 1.936102 1_565
Mn0 O6 1.975004 1_556
Mn0 O6 1.983637 1_656
Mn0 O13 2.026987 1_666
Mn1 O9 1.833917 1_555
Mn1 O3 1.934084 1_445
Mn1 O3 1.936085 1_545
Mn1 O5 1.974959 1_555
Mn1 O5 1.983668 1_455
Mn1 O15 2.026952 1_445
Mn2 O10 1.820367 1_555
Mn2 O1 1.930618 1_555
Mn2 O1 1.937374 1_455
Mn2 O7 1.975884 1_455
Mn2 O7 1.976717 1_555
Mn2 O12 2.068769 1_555
Mn3 O8 1.820400 1_555
Mn3 O2 1.930614 1_555
Mn3 O2 1.937383 1_655
Mn3 O4 1.975892 1_654
Mn3 O4 1.976708 1_554
Mn3 O14 2.068716 1_554
Co0 O6 1.931805 1_545
Co0 O5 1.931812 1_555
Co0 O15 1.947037 1_445
Co0 O13 1.947056 1_655
Co0 O15 1.957605 1_545
Co0 O13 1.957630 1_555
Co1 O14 1.946329 1_555
Co1 O12 1.946343 1_655
Co1 O4 2.037111 1_655
Co1 O7 2.037213 1_555
Co1 O14 2.070521 1_655
Co1 O12 2.070526 1_555
