# generated using pymatgen
data_Li3Ti2(FeO4)2
_symmetry_space_group_name_H-M   'P 1'
_cell_length_a   5.93920600
_cell_length_b   5.98868142
_cell_length_c   6.02911094
_cell_angle_alpha   119.51325183
_cell_angle_beta   89.68553790
_cell_angle_gamma   119.67186111
_symmetry_Int_Tables_number   1
_chemical_formula_structural   Li3Ti2(FeO4)2
_chemical_formula_sum   'Li3 Ti2 Fe2 O8'
_cell_volume   153.87882820
_cell_formula_units_Z   1
loop_
 _symmetry_equiv_pos_site_id
 _symmetry_equiv_pos_as_xyz
  1  'x, y, z'
loop_
 _atom_site_type_symbol
 _atom_site_label
 _atom_site_symmetry_multiplicity
 _atom_site_fract_x
 _atom_site_fract_y
 _atom_site_fract_z
 _atom_site_occupancy
  Li  Li0  1  0.50000000  0.50000000  0.00000000  1
  Li  Li1  1  0.50000000  0.00000000  0.50000000  1
  Li  Li2  1  0.50000000  0.50000000  0.50000000  1
  Ti  Ti0  1  0.50000000  0.00000000  0.00000000  1
  Ti  Ti1  1  0.00000000  0.00000000  0.00000000  1
  Fe  Fe0  1  0.00000000  0.50000000  0.00000000  1
  Fe  Fe1  1  0.00000000  0.00000000  0.50000000  1
  O  O0  1  0.25903700  0.76667700  0.77799700  1
  O  O1  1  0.74291800  0.77988000  0.21422100  1
  O  O2  1  0.77471500  0.75423400  0.78054400  1
  O  O3  1  0.75333400  0.22988600  0.77903800  1
  O  O4  1  0.24666600  0.77011400  0.22096200  1
  O  O5  1  0.22528500  0.24576600  0.21945600  1
  O  O6  1  0.25708200  0.22012000  0.78577900  1
  O  O7  1  0.74096300  0.23332300  0.22200300  1
loop_
_geom_bond_atom_site_label_1
_geom_bond_atom_site_label_2
_geom_bond_distance
_geom_bond_site_symmetry_2
Li0 O1 1.432620 1_555
Li0 O6 1.432620 1_554
Li1 O4 1.638439 1_545
Li1 O3 1.638439 1_555
Li2 O2 1.695489 1_555
Li2 O5 1.695489 1_555
Fe0 O4 1.445557 1_555
Fe0 O3 1.445557 1_454
Fe1 O6 1.684063 1_555
Fe1 O1 1.684063 1_445
O0 Ti0 1.410891 1_566
O2 Ti1 1.363158 1_666
O5 Ti1 1.363158 1_555
O7 Ti0 1.410891 1_555
