# generated using pymatgen
data_SbRhS
_symmetry_space_group_name_H-M   'P 1'
_cell_length_a   6.07087734
_cell_length_b   6.07087734
_cell_length_c   6.07087734
_cell_angle_alpha   90.00000000
_cell_angle_beta   90.00000000
_cell_angle_gamma   90.00000000
_symmetry_Int_Tables_number   1
_chemical_formula_structural   SbRhS
_chemical_formula_sum   'Sb4 Rh4 S4'
_cell_volume   223.74553353
_cell_formula_units_Z   4
loop_
 _symmetry_equiv_pos_site_id
 _symmetry_equiv_pos_as_xyz
  1  'x, y, z'
loop_
 _atom_site_type_symbol
 _atom_site_label
 _atom_site_symmetry_multiplicity
 _atom_site_fract_x
 _atom_site_fract_y
 _atom_site_fract_z
 _atom_site_occupancy
  Sb  Sb0  1  0.87928328  0.37928328  0.12071672  1
  Sb  Sb1  1  0.37928328  0.12071672  0.87928328  1
  Sb  Sb2  1  0.12071672  0.87928328  0.37928328  1
  Sb  Sb3  1  0.62071672  0.62071672  0.62071672  1
  Rh  Rh0  1  0.51092123  0.01092123  0.48907877  1
  Rh  Rh1  1  0.01092123  0.48907877  0.51092123  1
  Rh  Rh2  1  0.48907877  0.51092123  0.01092123  1
  Rh  Rh3  1  0.98907877  0.98907877  0.98907877  1
  S  S0  1  0.11750169  0.61750169  0.88249831  1
  S  S1  1  0.61750169  0.88249831  0.11750169  1
  S  S2  1  0.88249831  0.11750169  0.61750169  1
  S  S3  1  0.38249831  0.38249831  0.38249831  1
loop_
_geom_bond_atom_site_label_1
_geom_bond_atom_site_label_2
_geom_bond_distance
_geom_bond_site_symmetry_2
Rh0 S2 2.472878 1_555
Rh0 S1 2.472878 1_545
Rh0 S3 2.472878 1_555
Rh0 Sb1 2.587385 1_555
Rh0 Sb2 2.587385 1_545
Rh0 Sb3 2.587385 1_545
Rh1 S2 2.472878 1_455
Rh1 S0 2.472878 1_555
Rh1 S3 2.472878 1_555
Rh1 Sb2 2.587385 1_555
Rh1 Sb0 2.587385 1_455
Rh1 Sb3 2.587385 1_455
Rh2 S0 2.472878 1_554
Rh2 S3 2.472878 1_555
Rh2 S1 2.472878 1_555
Rh2 Sb3 2.587385 1_554
Rh2 Sb0 2.587385 1_555
Rh2 Sb1 2.587385 1_554
Rh3 S0 2.472878 1_655
Rh3 S2 2.472878 1_565
Rh3 S1 2.472878 1_556
Rh3 Sb0 2.587385 1_566
Rh3 Sb1 2.587385 1_665
Rh3 Sb2 2.587385 1_656
S0 Sb0 2.504883 1_456
S1 Sb1 2.504883 1_564
S2 Sb2 2.504883 1_645
S3 Sb3 2.504883 1_555
