# generated using pymatgen
data_K2Fe2B2O7
_symmetry_space_group_name_H-M   'P 1'
_cell_length_a   8.85979428
_cell_length_b   8.85979428
_cell_length_c   8.70620700
_cell_angle_alpha   90.00000000
_cell_angle_beta   90.00000000
_cell_angle_gamma   120.00000209
_symmetry_Int_Tables_number   1
_chemical_formula_structural   K2Fe2B2O7
_chemical_formula_sum   'K6 Fe6 B6 O21'
_cell_volume   591.84350666
_cell_formula_units_Z   3
loop_
 _symmetry_equiv_pos_site_id
 _symmetry_equiv_pos_as_xyz
  1  'x, y, z'
loop_
 _atom_site_type_symbol
 _atom_site_label
 _atom_site_symmetry_multiplicity
 _atom_site_fract_x
 _atom_site_fract_y
 _atom_site_fract_z
 _atom_site_occupancy
  K  K0  1  0.68104000  0.68104000  0.00000000  1
  K  K1  1  0.00000000  0.31896000  0.00000000  1
  K  K2  1  0.31896000  0.00000000  0.00000000  1
  K  K3  1  0.64766600  0.64766600  0.50000000  1
  K  K4  1  0.00000000  0.35233400  0.50000000  1
  K  K5  1  0.35233400  0.00000000  0.50000000  1
  Fe  Fe0  1  0.00000000  0.00000000  0.28717300  1
  Fe  Fe1  1  0.00000000  0.00000000  0.71282700  1
  Fe  Fe2  1  0.66666700  0.33333300  0.19264700  1
  Fe  Fe3  1  0.33333300  0.66666700  0.80735300  1
  Fe  Fe4  1  0.33333300  0.66666700  0.23496800  1
  Fe  Fe5  1  0.66666700  0.33333300  0.76503200  1
  B  B0  1  0.00151300  0.66559700  0.25897800  1
  B  B1  1  0.66408400  0.99848700  0.25897800  1
  B  B2  1  0.33440300  0.33591600  0.25897800  1
  B  B3  1  0.33591600  0.33440300  0.74102200  1
  B  B4  1  0.99848700  0.66408400  0.74102200  1
  B  B5  1  0.66559700  0.00151300  0.74102200  1
  O  O0  1  0.00000000  0.00000000  0.50000000  1
  O  O1  1  0.33333300  0.66666700  0.02120000  1
  O  O2  1  0.66666700  0.33333300  0.97880000  1
  O  O3  1  0.56486200  0.82518700  0.30177300  1
  O  O4  1  0.26032500  0.43513800  0.30177300  1
  O  O5  1  0.17481300  0.73967500  0.30177300  1
  O  O6  1  0.73967500  0.17481300  0.69822700  1
  O  O7  1  0.43513800  0.26032500  0.69822700  1
  O  O8  1  0.82518700  0.56486200  0.69822700  1
  O  O9  1  0.89911200  0.48617400  0.25845800  1
  O  O10  1  0.58706200  0.10088800  0.25845800  1
  O  O11  1  0.51382600  0.41293800  0.25845800  1
  O  O12  1  0.41293800  0.51382600  0.74154200  1
  O  O13  1  0.10088800  0.58706200  0.74154200  1
  O  O14  1  0.48617400  0.89911200  0.74154200  1
  O  O15  1  0.23017100  0.16284700  0.21777300  1
  O  O16  1  0.93267500  0.76982900  0.21777300  1
  O  O17  1  0.83715300  0.06732500  0.21777300  1
  O  O18  1  0.06732500  0.83715300  0.78222700  1
  O  O19  1  0.76982900  0.93267500  0.78222700  1
  O  O20  1  0.16284700  0.23017100  0.78222700  1
loop_
_geom_bond_atom_site_label_1
_geom_bond_atom_site_label_2
_geom_bond_distance
_geom_bond_site_symmetry_2
K0 O19 2.725828 1_554
K0 O16 2.725828 1_555
K0 O2 3.024593 1_554
K0 O1 3.024593 1_555
K0 O11 3.062894 1_555
K0 O12 3.062894 1_554
K0 O3 3.302688 1_555
K0 O8 3.302688 1_554
K1 O17 2.725829 1_455
K1 O20 2.725834 1_554
K1 O2 3.024585 1_454
K1 O1 3.024589 1_555
K1 O13 3.062894 1_554
K1 O9 3.062894 1_455
K1 O6 3.302688 1_454
K1 O4 3.302688 1_555
K2 O18 2.725829 1_544
K2 O15 2.725834 1_555
K2 O1 3.024585 1_545
K2 O2 3.024589 1_554
K2 O10 3.062894 1_555
K2 O14 3.062894 1_544
K2 O5 3.302688 1_545
K2 O7 3.302688 1_554
K3 O8 2.672856 1_555
K3 O3 2.672856 1_555
K3 O12 2.772587 1_555
K3 O11 2.772587 1_555
K3 O0 3.121607 1_665
K3 O19 3.294257 1_555
K3 O16 3.294257 1_555
K4 O6 2.672856 1_455
K4 O4 2.672856 1_555
K4 O13 2.772587 1_555
K4 O9 2.772587 1_455
K4 O0 3.121607 1_555
K4 O17 3.294257 1_455
K4 O20 3.294262 1_555
K5 O5 2.672856 1_545
K5 O7 2.672856 1_555
K5 O10 2.772587 1_555
K5 O14 2.772587 1_545
K5 O0 3.121607 1_555
K5 O18 3.294257 1_545
K5 O15 3.294262 1_555
Fe0 O0 1.852916 1_555
Fe0 O16 1.913919 1_445
Fe0 O15 1.913921 1_555
Fe0 O17 1.913927 1_455
Fe1 O0 1.852916 1_555
Fe1 O19 1.913919 1_445
Fe1 O20 1.913921 1_555
Fe1 O18 1.913927 1_545
Fe2 O2 1.861796 1_554
Fe2 O10 1.901166 1_555
Fe2 O9 1.901167 1_555
Fe2 O11 1.901174 1_555
Fe3 O1 1.861796 1_556
Fe3 O13 1.901166 1_555
Fe3 O14 1.901167 1_555
Fe3 O12 1.901174 1_555
Fe4 O1 1.861108 1_555
Fe4 O5 1.907255 1_555
Fe4 O3 1.907261 1_555
Fe4 O4 1.907263 1_555
Fe5 O2 1.861108 1_555
Fe5 O6 1.907255 1_555
Fe5 O8 1.907261 1_555
Fe5 O7 1.907263 1_555
B0 O9 1.381268 1_455
B0 O16 1.384443 1_455
B0 O5 1.385395 1_555
B1 O10 1.381268 1_565
B1 O17 1.384435 1_565
B1 O3 1.385395 1_555
B2 O11 1.381268 1_555
B2 O15 1.384436 1_555
B2 O4 1.385395 1_555
B3 O12 1.381268 1_555
B3 O20 1.384436 1_555
B3 O7 1.385395 1_555
B4 O13 1.381268 1_655
B4 O18 1.384435 1_655
B4 O8 1.385395 1_555
B5 O14 1.381268 1_545
B5 O19 1.384443 1_545
B5 O6 1.385395 1_555
