# generated using pymatgen
data_Y5Sb3
_symmetry_space_group_name_H-M   'P 1'
_cell_length_a   6.33570981
_cell_length_b   8.98299852
_cell_length_c   8.98270036
_cell_angle_alpha   120.00055432
_cell_angle_beta   89.99992475
_cell_angle_gamma   90.00013462
_symmetry_Int_Tables_number   1
_chemical_formula_structural   Y5Sb3
_chemical_formula_sum   'Y10 Sb6'
_cell_volume   442.74302132
_cell_formula_units_Z   2
loop_
 _symmetry_equiv_pos_site_id
 _symmetry_equiv_pos_as_xyz
  1  'x, y, z'
loop_
 _atom_site_type_symbol
 _atom_site_label
 _atom_site_symmetry_multiplicity
 _atom_site_fract_x
 _atom_site_fract_y
 _atom_site_fract_z
 _atom_site_occupancy
  Y  Y0  1  0.49999907  0.33332580  0.66667499  1
  Y  Y1  1  0.49999977  0.66666223  0.33334814  1
  Y  Y2  1  0.00000195  0.66666294  0.33334899  1
  Y  Y3  1  0.00000233  0.33332641  0.66667459  1
  Y  Y4  1  0.74999938  0.24789279  -0.00010039  1
  Y  Y5  1  0.75000243  0.75206273  0.75211772  1
  Y  Y6  1  0.75000143  0.00009981  0.24795718  1
  Y  Y7  1  0.25000070  0.75201165  -0.00009904  1
  Y  Y8  1  0.25000150  0.24788222  0.24795114  1
  Y  Y9  1  0.25000219  0.00008772  0.75212576  1
  Sb  Sb0  1  0.74999320  0.61261630  0.00001826  1
  Sb  Sb1  1  0.75000498  0.38737863  0.38734529  1
  Sb  Sb2  1  0.75000088  -0.00000045  0.61262668  1
  Sb  Sb3  1  0.24999102  0.38737039  0.00002491  1
  Sb  Sb4  1  0.25000005  0.61264794  0.61262907  1
  Sb  Sb5  1  0.25000210  -0.00002612  0.38735671  1
loop_
_geom_bond_atom_site_label_1
_geom_bond_atom_site_label_2
_geom_bond_distance
_geom_bond_site_symmetry_2
Sb0 Y5 3.052425 1_554
Sb0 Y6 3.053459 1_565
Sb0 Y1 3.202490 1_555
Sb0 Y2 3.202546 1_655
Sb0 Y0 3.202593 1_554
Sb0 Y3 3.202642 1_654
Sb0 Y4 3.275778 1_555
Sb0 Y7 3.406511 1_555
Sb0 Y7 3.406594 1_655
Sb1 Y6 3.051992 1_555
Sb1 Y4 3.053139 1_555
Sb1 Y2 3.202344 1_655
Sb1 Y1 3.202375 1_555
Sb1 Y3 3.202908 1_655
Sb1 Y0 3.202936 1_555
Sb1 Y5 3.276272 1_555
Sb1 Y8 3.406493 1_655
Sb1 Y8 3.406532 1_555
Sb2 Y4 3.051849 1_556
Sb2 Y5 3.053077 1_545
Sb2 Y3 3.202575 1_655
Sb2 Y2 3.202576 1_645
Sb2 Y0 3.202577 1_555
Sb2 Y1 3.202578 1_545
Sb2 Y6 3.276167 1_555
Sb2 Y9 3.406531 1_555
Sb2 Y9 3.406550 1_655
Sb3 Y9 3.052003 1_554
Sb3 Y8 3.052931 1_555
Sb3 Y2 3.202491 1_555
Sb3 Y1 3.202544 1_555
Sb3 Y3 3.202642 1_554
Sb3 Y0 3.202695 1_554
Sb3 Y7 3.276129 1_555
Sb3 Y4 3.406372 1_455
Sb3 Y4 3.406476 1_555
Sb4 Y7 3.051855 1_556
Sb4 Y9 3.053188 1_565
Sb4 Y2 3.202349 1_555
Sb4 Y1 3.202353 1_555
Sb4 Y3 3.202874 1_555
Sb4 Y0 3.202891 1_555
Sb4 Y8 3.276214 1_555
Sb4 Y5 3.406521 1_455
Sb4 Y5 3.406546 1_555
Sb5 Y8 3.052243 1_555
Sb5 Y7 3.053221 1_545
Sb5 Y2 3.202563 1_545
Sb5 Y1 3.202564 1_545
Sb5 Y0 3.202749 1_555
Sb5 Y3 3.202764 1_555
Sb5 Y9 3.276100 1_555
Sb5 Y6 3.406560 1_555
Sb5 Y6 3.406571 1_455
