# generated using pymatgen
data_Er2MgTiO6
_symmetry_space_group_name_H-M   'P 1'
_cell_length_a   5.61004200
_cell_length_b   5.30308500
_cell_length_c   9.30508651
_cell_angle_alpha   55.78864930
_cell_angle_beta   90.00000000
_cell_angle_gamma   90.00000000
_symmetry_Int_Tables_number   1
_chemical_formula_structural   Er2MgTiO6
_chemical_formula_sum   'Er4 Mg2 Ti2 O12'
_cell_volume   228.93092013
_cell_formula_units_Z   2
loop_
 _symmetry_equiv_pos_site_id
 _symmetry_equiv_pos_as_xyz
  1  'x, y, z'
loop_
 _atom_site_type_symbol
 _atom_site_label
 _atom_site_symmetry_multiplicity
 _atom_site_fract_x
 _atom_site_fract_y
 _atom_site_fract_z
 _atom_site_occupancy
  Er  Er0  1  0.06407500  0.72713400  0.75482200  1
  Er  Er1  1  0.93592500  0.27286600  0.24517800  1
  Er  Er2  1  0.56407500  0.27286600  0.74517800  1
  Er  Er3  1  0.43592500  0.72713400  0.25482200  1
  Mg  Mg0  1  0.50000000  0.50000000  0.00000000  1
  Mg  Mg1  1  0.00000000  0.50000000  0.50000000  1
  Ti  Ti0  1  0.50000000  0.00000000  0.50000000  1
  Ti  Ti1  1  0.00000000  0.00000000  0.00000000  1
  O  O0  1  0.44758200  0.87814500  0.74211000  1
  O  O1  1  0.55241800  0.12185500  0.25789000  1
  O  O2  1  0.94758200  0.12185500  0.75789000  1
  O  O3  1  0.05241800  0.87814500  0.24211000  1
  O  O4  1  0.79533100  0.74749900  0.56880900  1
  O  O5  1  0.20466900  0.25250100  0.43119100  1
  O  O6  1  0.29533100  0.25250100  0.93119100  1
  O  O7  1  0.70466900  0.74749900  0.06880900  1
  O  O8  1  0.31299600  0.64289500  0.55464200  1
  O  O9  1  0.68700400  0.35710500  0.44535800  1
  O  O10  1  0.81299600  0.35710500  0.94535800  1
  O  O11  1  0.18700400  0.64289500  0.05464200  1
loop_
_geom_bond_atom_site_label_1
_geom_bond_atom_site_label_2
_geom_bond_distance
_geom_bond_site_symmetry_2
Er0 O2 2.208340 1_465
Er0 O10 2.250742 1_455
Er0 O4 2.251759 1_455
Er0 O0 2.275457 1_555
Er0 O6 2.463090 1_555
Er0 O8 2.560271 1_555
Er0 O11 2.656497 1_556
Er0 O5 2.831675 1_565
Er1 O3 2.208340 1_645
Er1 O11 2.250742 1_655
Er1 O5 2.251759 1_655
Er1 O1 2.275457 1_555
Er1 O7 2.463090 1_555
Er1 O9 2.560271 1_555
Er1 O10 2.656497 1_554
Er1 O4 2.831675 1_545
Er2 O0 2.208340 1_545
Er2 O8 2.250742 1_555
Er2 O6 2.251759 1_555
Er2 O2 2.275457 1_555
Er2 O4 2.463090 1_555
Er2 O10 2.560271 1_555
Er2 O9 2.656497 1_555
Er2 O7 2.831675 1_546
Er3 O1 2.208340 1_565
Er3 O9 2.250742 1_555
Er3 O7 2.251759 1_555
Er3 O3 2.275457 1_555
Er3 O5 2.463090 1_555
Er3 O11 2.560271 1_555
Er3 O8 2.656497 1_555
Er3 O6 2.831675 1_564
Mg0 O11 2.085492 1_555
Mg0 O10 2.085492 1_554
Mg0 O7 2.096659 1_555
Mg0 O6 2.096659 1_554
Mg0 O0 2.110706 1_554
Mg0 O1 2.110706 1_555
Mg1 O8 2.085492 1_555
Mg1 O9 2.085492 1_455
Mg1 O4 2.096659 1_455
Mg1 O5 2.096659 1_555
Mg1 O3 2.110706 1_555
Mg1 O2 2.110706 1_455
O0 Ti0 1.985538 1_565
O1 Ti0 1.985538 1_555
O2 Ti1 1.985538 1_656
O3 Ti1 1.985538 1_565
O4 Ti0 1.995978 1_565
O5 Ti0 1.995978 1_555
O6 Ti1 1.995978 1_556
O7 Ti1 1.995978 1_665
O8 Ti0 1.965375 1_565
O9 Ti0 1.965375 1_555
O10 Ti1 1.965375 1_656
O11 Ti1 1.965375 1_565
