# generated using pymatgen
data_Mn2HO4
_symmetry_space_group_name_H-M   'P 1'
_cell_length_a   5.47234401
_cell_length_b   5.47234401
_cell_length_c   14.56496679
_cell_angle_alpha   88.96583071
_cell_angle_beta   88.96583071
_cell_angle_gamma   66.71446497
_symmetry_Int_Tables_number   1
_chemical_formula_structural   Mn2HO4
_chemical_formula_sum   'Mn12 H6 O24'
_cell_volume   400.54920529
_cell_formula_units_Z   6
loop_
 _symmetry_equiv_pos_site_id
 _symmetry_equiv_pos_as_xyz
  1  'x, y, z'
loop_
 _atom_site_type_symbol
 _atom_site_label
 _atom_site_symmetry_multiplicity
 _atom_site_fract_x
 _atom_site_fract_y
 _atom_site_fract_z
 _atom_site_occupancy
  Mn  Mn0  1  0.25412600  0.50492500  0.49904600  1
  Mn  Mn1  1  0.74726500  0.00185600  0.49795800  1
  Mn  Mn2  1  0.49139400  0.74490500  0.15047100  1
  Mn  Mn3  1  0.99635500  0.23654700  0.14982000  1
  Mn  Mn4  1  0.51124100  0.76413200  0.84966100  1
  Mn  Mn5  1  0.00089400  0.24912000  0.84354300  1
  Mn  Mn6  1  0.50492500  0.25412600  0.99904600  1
  Mn  Mn7  1  0.00185600  0.74726500  0.99795800  1
  Mn  Mn8  1  0.23654700  0.99635500  0.64982000  1
  Mn  Mn9  1  0.74490500  0.49139400  0.65047100  1
  Mn  Mn10  1  0.24912000  0.00089400  0.34354300  1
  Mn  Mn11  1  0.76413200  0.51124100  0.34966100  1
  H  H0  1  0.31011200  0.51026200  0.30433100  1
  H  H1  1  0.76403200  0.05610700  0.31141900  1
  H  H2  1  0.96163500  0.71087200  0.18649300  1
  H  H3  1  0.51026200  0.31011200  0.80433100  1
  H  H4  1  0.05610700  0.76403200  0.81141900  1
  H  H5  1  0.71087200  0.96163500  0.68649300  1
  O  O0  1  0.36262000  0.61189800  0.94810500  1
  O  O1  1  0.86832100  0.11395800  0.94789900  1
  O  O2  1  0.63675000  0.89087800  0.05153000  1
  O  O3  1  0.14714800  0.38949900  0.04906600  1
  O  O4  1  0.61189800  0.36262000  0.44810500  1
  O  O5  1  0.11395800  0.86832100  0.44789900  1
  O  O6  1  0.38949900  0.14714800  0.54906600  1
  O  O7  1  0.89087800  0.63675000  0.55153000  1
  O  O8  1  0.87877800  0.62853700  0.88543300  1
  O  O9  1  0.38606600  0.13053000  0.88592300  1
  O  O10  1  0.63351600  0.38414500  0.10658300  1
  O  O11  1  0.12124200  0.86170500  0.11247600  1
  O  O12  1  0.62853700  0.87877800  0.38543300  1
  O  O13  1  0.13053000  0.38606600  0.38592300  1
  O  O14  1  0.38414500  0.63351600  0.60658300  1
  O  O15  1  0.86170500  0.12124200  0.61247600  1
  O  O16  1  0.62283700  0.40839800  0.78400100  1
  O  O17  1  0.15336300  0.87607500  0.78926600  1
  O  O18  1  0.85623600  0.60952100  0.21139600  1
  O  O19  1  0.33708300  0.08731700  0.21690700  1
  O  O20  1  0.40839800  0.62283700  0.28400100  1
  O  O21  1  0.87607500  0.15336300  0.28926600  1
  O  O22  1  0.60952100  0.85623600  0.71139600  1
  O  O23  1  0.08731700  0.33708300  0.71690700  1
loop_
_geom_bond_atom_site_label_1
_geom_bond_atom_site_label_2
_geom_bond_distance
_geom_bond_site_symmetry_2
Mn0 O6 1.932385 1_555
Mn0 O4 1.937292 1_555
Mn0 O5 1.964462 1_555
Mn0 O7 1.971668 1_455
Mn0 O14 1.982551 1_555
Mn0 O13 2.005482 1_555
Mn1 O6 1.938393 1_555
Mn1 O4 1.945496 1_555
Mn1 O5 1.974686 1_645
Mn1 O7 1.985653 1_545
Mn1 O12 1.996524 1_545
Mn1 O15 2.000402 1_555
Mn2 O10 1.929931 1_555
Mn2 O2 1.940864 1_555
Mn2 O11 1.954969 1_555
Mn2 O19 1.986317 1_565
Mn2 O18 2.047739 1_555
Mn2 O20 2.143845 1_555
Mn3 O10 1.936567 1_555
Mn3 O11 1.972076 1_645
Mn3 O19 1.982778 1_655
Mn3 O3 1.998260 1_655
Mn3 O18 2.088551 1_555
Mn3 O21 2.218286 1_555
Mn4 O9 1.925537 1_565
Mn4 O8 1.926464 1_555
Mn4 O0 1.965155 1_555
Mn4 O17 2.019582 1_555
Mn4 O16 2.045325 1_555
Mn4 O22 2.176550 1_555
Mn5 O1 1.930676 1_455
Mn5 O23 1.993446 1_555
Mn5 O8 2.015901 1_455
Mn5 O17 2.043608 1_545
Mn5 O9 2.048410 1_555
Mn5 O16 2.098512 1_455
Mn6 O3 1.932385 1_556
Mn6 O0 1.937292 1_555
Mn6 O1 1.964462 1_555
Mn6 O2 1.971668 1_546
Mn6 O10 1.982551 1_556
Mn6 O9 2.005482 1_555
Mn7 O3 1.938393 1_556
Mn7 O0 1.945496 1_555
Mn7 O1 1.974686 1_465
Mn7 O2 1.985653 1_456
Mn7 O8 1.996524 1_455
Mn7 O11 2.000402 1_556
Mn8 O14 1.936567 1_555
Mn8 O15 1.972076 1_465
Mn8 O23 1.982778 1_565
Mn8 O6 1.998260 1_565
Mn8 O22 2.088551 1_555
Mn8 O17 2.218286 1_555
Mn9 O14 1.929931 1_555
Mn9 O7 1.940864 1_555
Mn9 O15 1.954969 1_555
Mn9 O23 1.986317 1_655
Mn9 O22 2.047739 1_555
Mn9 O16 2.143845 1_555
Mn10 O5 1.930676 1_545
Mn10 O19 1.993446 1_555
Mn10 O12 2.015901 1_545
Mn10 O21 2.043608 1_455
Mn10 O13 2.048410 1_555
Mn10 O20 2.098512 1_545
Mn11 O13 1.925537 1_655
Mn11 O12 1.926464 1_555
Mn11 O4 1.965155 1_555
Mn11 O21 2.019582 1_555
Mn11 O20 2.045325 1_555
Mn11 O18 2.176550 1_555
H0 O20 1.003055 1_555
H1 O21 1.003973 1_555
H2 O18 1.004964 1_555
H3 O16 1.003055 1_555
H4 O17 1.003973 1_555
H5 O22 1.004964 1_555
