# generated using pymatgen
data_Ca3HfSi2O9
_symmetry_space_group_name_H-M   'P 1'
_cell_length_a   10.13786068
_cell_length_b   7.35868433
_cell_length_c   10.42241024
_cell_angle_alpha   88.72165510
_cell_angle_beta   90.00000000
_cell_angle_gamma   90.00000000
_symmetry_Int_Tables_number   1
_chemical_formula_structural   Ca3HfSi2O9
_chemical_formula_sum   'Ca12 Hf4 Si8 O36'
_cell_volume   777.33200881
_cell_formula_units_Z   4
loop_
 _symmetry_equiv_pos_site_id
 _symmetry_equiv_pos_as_xyz
  1  'x, y, z'
loop_
 _atom_site_type_symbol
 _atom_site_label
 _atom_site_symmetry_multiplicity
 _atom_site_fract_x
 _atom_site_fract_y
 _atom_site_fract_z
 _atom_site_occupancy
  Ca  Ca0  1  0.92123221  0.36455595  0.11124664  1
  Ca  Ca1  1  0.42123221  0.63544405  0.38875336  1
  Ca  Ca2  1  0.07876779  0.63544405  0.88875336  1
  Ca  Ca3  1  0.57876779  0.36455595  0.61124664  1
  Ca  Ca4  1  0.33124335  0.88182553  0.08690281  1
  Ca  Ca5  1  0.83124335  0.11817447  0.41309719  1
  Ca  Ca6  1  0.66875665  0.11817447  0.91309719  1
  Ca  Ca7  1  0.16875665  0.88182553  0.58690281  1
  Ca  Ca8  1  0.30543961  0.37241051  0.09968960  1
  Ca  Ca9  1  0.80543961  0.62758949  0.40031040  1
  Ca  Ca10  1  0.69456039  0.62758949  0.90031040  1
  Ca  Ca11  1  0.19456039  0.37241051  0.59968960  1
  Hf  Hf0  1  0.56155613  0.87904458  0.61542232  1
  Hf  Hf1  1  0.06155613  0.12095542  0.88457768  1
  Hf  Hf2  1  0.43844387  0.12095542  0.38457768  1
  Hf  Hf3  1  0.93844387  0.87904458  0.11542232  1
  Si  Si0  1  0.13634243  0.59892281  0.30744077  1
  Si  Si1  1  0.63634243  0.40107719  0.19255923  1
  Si  Si2  1  0.86365757  0.40107719  0.69255923  1
  Si  Si3  1  0.36365757  0.59892281  0.80744077  1
  Si  Si4  1  0.12345960  0.16777838  0.31724787  1
  Si  Si5  1  0.62345960  0.83222162  0.18275213  1
  Si  Si6  1  0.87654040  0.83222162  0.68275213  1
  Si  Si7  1  0.37654040  0.16777838  0.81724787  1
  O  O0  1  0.39067344  0.33865946  0.48367564  1
  O  O1  1  0.89067344  0.66134054  0.01632436  1
  O  O2  1  0.60932656  0.66134054  0.51632436  1
  O  O3  1  0.10932656  0.33865946  0.98367564  1
  O  O4  1  0.11173384  0.90793510  0.01121441  1
  O  O5  1  0.61173384  0.09206490  0.48878559  1
  O  O6  1  0.88826616  0.09206490  0.98878559  1
  O  O7  1  0.38826616  0.90793510  0.51121441  1
  O  O8  1  0.16820895  0.62079781  0.45725510  1
  O  O9  1  0.66820895  0.37920219  0.04274490  1
  O  O10  1  0.83179105  0.37920219  0.54274490  1
  O  O11  1  0.33179105  0.62079781  0.95725510  1
  O  O12  1  0.00151459  0.69672268  0.26058366  1
  O  O13  1  0.50151459  0.30327732  0.23941634  1
  O  O14  1  0.88888418  0.85598080  0.53027941  1
  O  O15  1  0.99848541  0.30327732  0.73941634  1
  O  O16  1  0.23278181  0.64400787  0.72340741  1
  O  O17  1  0.73278181  0.35599213  0.77659259  1
  O  O18  1  0.76721819  0.35599213  0.27659259  1
  O  O19  1  0.26721819  0.64400787  0.22340741  1
  O  O20  1  0.76627190  0.89470060  0.23779496  1
  O  O21  1  0.26627190  0.10529940  0.26220504  1
  O  O22  1  0.23372810  0.10529940  0.76220504  1
  O  O23  1  0.73372810  0.89470060  0.73779496  1
  O  O24  1  0.39313637  0.38371631  0.77217633  1
  O  O25  1  0.89313637  0.61628369  0.72782367  1
  O  O26  1  0.60686363  0.61628369  0.22782367  1
  O  O27  1  0.10686363  0.38371631  0.27217633  1
  O  O28  1  0.00261390  0.91567236  0.75608391  1
  O  O29  1  0.50261390  0.08432764  0.74391609  1
  O  O30  1  0.99738610  0.08432764  0.24391609  1
  O  O31  1  0.49738610  0.91567236  0.25608391  1
  O  O32  1  0.61111582  0.85598080  0.03027941  1
  O  O33  1  0.11111582  0.14401920  0.46972059  1
  O  O34  1  0.38888418  0.14401920  0.96972059  1
  O  O35  1  0.49848541  0.69672268  0.76058366  1
loop_
_geom_bond_atom_site_label_1
_geom_bond_atom_site_label_2
_geom_bond_distance
_geom_bond_site_symmetry_2
Ca0 O18 2.325249 1_555
Ca0 O3 2.334870 1_654
Ca0 O1 2.397485 1_555
Ca0 O6 2.423975 1_554
Ca0 O27 2.526906 1_655
Ca0 O30 2.575477 1_555
Ca0 O9 2.664155 1_555
Ca1 O19 2.325249 1_555
Ca1 O2 2.334870 1_555
Ca1 O0 2.397485 1_555
Ca1 O7 2.423975 1_555
Ca1 O26 2.526906 1_555
Ca1 O31 2.575477 1_555
Ca1 O8 2.664155 1_555
Ca2 O16 2.325249 1_555
Ca2 O1 2.334870 1_456
Ca2 O3 2.397485 1_555
Ca2 O4 2.423975 1_556
Ca2 O25 2.526906 1_455
Ca2 O28 2.575477 1_555
Ca2 O11 2.664155 1_555
Ca3 O17 2.325249 1_555
Ca3 O0 2.334870 1_555
Ca3 O2 2.397485 1_555
Ca3 O5 2.423975 1_555
Ca3 O24 2.526906 1_555
Ca3 O29 2.575477 1_555
Ca3 O10 2.664155 1_555
Ca4 O19 2.323122 1_555
Ca4 O34 2.334639 1_564
Ca4 O4 2.367416 1_555
Ca4 O11 2.373024 1_554
Ca4 O31 2.455146 1_555
Ca4 O21 2.571069 1_565
Ca4 O32 2.905129 1_555
Ca5 O18 2.323122 1_555
Ca5 O14 2.334639 1_545
Ca5 O5 2.367416 1_555
Ca5 O10 2.373024 1_555
Ca5 O30 2.455146 1_555
Ca5 O20 2.571069 1_545
Ca5 O33 2.905129 1_655
Ca6 O17 2.323122 1_555
Ca6 O32 2.334639 1_546
Ca6 O6 2.367416 1_555
Ca6 O9 2.373024 1_556
Ca6 O29 2.455146 1_555
Ca6 O23 2.571069 1_545
Ca6 O34 2.905129 1_555
Ca7 O16 2.323122 1_555
Ca7 O33 2.334639 1_565
Ca7 O7 2.367416 1_555
Ca7 O8 2.373024 1_555
Ca7 O28 2.455146 1_555
Ca7 O22 2.571069 1_565
Ca7 O14 2.905129 1_455
Ca8 O34 2.340244 1_554
Ca8 O3 2.343058 1_554
Ca8 O11 2.344128 1_554
Ca8 O19 2.433553 1_555
Ca8 O13 2.509542 1_555
Ca8 O21 2.596462 1_555
Ca8 O27 2.701506 1_555
Ca9 O14 2.340244 1_555
Ca9 O2 2.343058 1_555
Ca9 O10 2.344128 1_555
Ca9 O18 2.433553 1_555
Ca9 O12 2.509542 1_655
Ca9 O20 2.596462 1_555
Ca9 O26 2.701506 1_555
Ca10 O32 2.340244 1_556
Ca10 O1 2.343058 1_556
Ca10 O9 2.344128 1_556
Ca10 O17 2.433553 1_555
Ca10 O35 2.509542 1_555
Ca10 O23 2.596462 1_555
Ca10 O25 2.701506 1_555
Ca11 O33 2.340244 1_555
Ca11 O0 2.343058 1_555
Ca11 O8 2.344128 1_555
Ca11 O16 2.433553 1_555
Ca11 O15 2.509542 1_455
Ca11 O22 2.596462 1_555
Ca11 O24 2.701506 1_555
Hf0 O2 1.985340 1_555
Hf0 O7 2.073840 1_555
Hf0 O5 2.089425 1_565
Hf0 O35 2.099345 1_555
Hf0 O29 2.126682 1_565
Hf0 O23 2.166364 1_555
Hf1 O3 1.985340 1_555
Hf1 O6 2.073840 1_455
Hf1 O4 2.089425 1_546
Hf1 O15 2.099345 1_455
Hf1 O28 2.126682 1_545
Hf1 O22 2.166364 1_555
Hf2 O0 1.985340 1_555
Hf2 O5 2.073840 1_555
Hf2 O7 2.089425 1_545
Hf2 O13 2.099345 1_555
Hf2 O31 2.126682 1_545
Hf2 O21 2.166364 1_555
Hf3 O1 1.985340 1_555
Hf3 O4 2.073840 1_655
Hf3 O6 2.089425 1_564
Hf3 O12 2.099345 1_655
Hf3 O30 2.126682 1_565
Hf3 O20 2.166364 1_555
O8 Si0 1.606096 1_555
O9 Si1 1.606096 1_555
O10 Si2 1.606096 1_555
O11 Si3 1.606096 1_555
O12 Si0 1.615264 1_555
O13 Si1 1.615264 1_555
O14 Si6 1.599742 1_555
O15 Si2 1.615264 1_555
O16 Si3 1.620056 1_555
O17 Si2 1.620056 1_555
O18 Si1 1.620056 1_555
O19 Si0 1.620056 1_555
O20 Si5 1.627395 1_555
O21 Si4 1.627395 1_555
O22 Si7 1.627395 1_555
O23 Si6 1.627395 1_555
O24 Si7 1.655491 1_555
O24 Si3 1.660805 1_555
O25 Si6 1.655491 1_555
O25 Si2 1.660805 1_555
O26 Si5 1.655491 1_555
O26 Si1 1.660805 1_555
O27 Si4 1.655491 1_555
O27 Si0 1.660805 1_555
O28 Si6 1.617334 1_455
O29 Si7 1.617334 1_555
O30 Si4 1.617334 1_655
O31 Si5 1.617334 1_555
O32 Si5 1.599742 1_555
O33 Si4 1.599742 1_555
O34 Si7 1.599742 1_555
O35 Si3 1.615264 1_555
