# generated using pymatgen
data_W7N6
_symmetry_space_group_name_H-M   'P 1'
_cell_length_a   2.88656155
_cell_length_b   2.88656155
_cell_length_c   42.99285901
_cell_angle_alpha   89.99849485
_cell_angle_beta   90.00150515
_cell_angle_gamma   119.99939385
_symmetry_Int_Tables_number   1
_chemical_formula_structural   W7N6
_chemical_formula_sum   'W14 N12'
_cell_volume   310.23533146
_cell_formula_units_Z   2
loop_
 _symmetry_equiv_pos_site_id
 _symmetry_equiv_pos_as_xyz
  1  'x, y, z'
loop_
 _atom_site_type_symbol
 _atom_site_label
 _atom_site_symmetry_multiplicity
 _atom_site_fract_x
 _atom_site_fract_y
 _atom_site_fract_z
 _atom_site_occupancy
  W  W0  1  0.66664700  0.33335300  0.24071200  1
  W  W1  1  0.66666200  0.33333800  0.57158100  1
  W  W2  1  0.66667600  0.33332400  0.90352600  1
  W  W3  1  0.33336600  0.66663400  0.09096000  1
  W  W4  1  0.33331100  0.66668900  0.42700000  1
  W  W5  1  0.33333600  0.66666400  0.75786100  1
  W  W6  1  0.33330900  0.66669100  0.49422400  1
  W  W7  1  0.33332900  0.66667100  0.82572000  1
  W  W8  1  0.33331100  0.66668900  0.02329200  1
  W  W9  1  0.33331900  0.66668100  0.36086600  1
  W  W10  1  0.33331400  0.66668600  0.69061800  1
  W  W11  1  0.66664600  0.33335400  0.30809800  1
  W  W12  1  0.66668100  0.33331900  0.63825800  1
  W  W13  1  0.66668700  0.33331300  0.96984200  1
  N  N0  1  0.66678200  0.33321800  0.11722600  1
  N  N1  1  0.66665300  0.33334700  0.45979000  1
  N  N2  1  0.66667000  0.33333000  0.79118600  1
  N  N3  1  0.33331600  0.66668400  0.21449700  1
  N  N4  1  0.33331500  0.66668500  0.54230400  1
  N  N5  1  0.33334700  0.66665300  0.87428300  1
  N  N6  1  0.33329500  0.66670500  0.27592600  1
  N  N7  1  0.33333200  0.66666800  0.60413700  1
  N  N8  1  0.33333300  0.66666700  0.93669400  1
  N  N9  1  0.66663600  0.33336300  0.05549800  1
  N  N10  1  0.66665400  0.33334600  0.39412100  1
  N  N11  1  0.66667200  0.33332800  0.72511300  1
loop_
_geom_bond_atom_site_label_1
_geom_bond_atom_site_label_2
_geom_bond_distance
_geom_bond_site_symmetry_2
N0 W3 2.012963 1_655
N0 W3 2.012963 1_545
N0 W3 2.013421 1_555
N1 W4 2.182831 1_555
N1 W4 2.182842 1_545
N1 W4 2.182842 1_655
N1 W6 2.229106 1_545
N1 W6 2.229106 1_655
N1 W6 2.229205 1_555
N2 W5 2.197725 1_555
N2 W5 2.197783 1_545
N2 W5 2.197783 1_655
N2 W7 2.231969 1_545
N2 W7 2.231969 1_655
N2 W7 2.232051 1_555
N3 W0 2.011840 1_555
N3 W0 2.011910 1_565
N3 W0 2.011910 1_455
N4 W6 2.067097 1_555
N4 W1 2.088475 1_455
N4 W1 2.088475 1_565
N4 W1 2.088499 1_555
N5 W2 2.087546 1_555
N5 W2 2.087630 1_455
N5 W2 2.087630 1_565
N5 W7 2.087862 1_555
N6 W11 2.165760 1_565
N6 W11 2.165760 1_455
N6 W11 2.165802 1_555
N6 W0 2.251502 1_565
N6 W0 2.251502 1_455
N6 W0 2.251645 1_555
N7 W1 2.176349 1_565
N7 W1 2.176349 1_455
N7 W1 2.176367 1_555
N7 W12 2.220216 1_565
N7 W12 2.220216 1_455
N7 W12 2.220243 1_555
N8 W13 2.192791 1_565
N8 W13 2.192791 1_455
N8 W13 2.192848 1_555
N8 W2 2.193338 1_565
N8 W2 2.193338 1_455
N8 W2 2.193431 1_555
N9 W8 2.166638 1_555
N9 W8 2.166742 1_545
N9 W8 2.166744 1_655
N9 W3 2.258528 1_555
N9 W3 2.258834 1_545
N9 W3 2.258836 1_655
N10 W4 2.185281 1_545
N10 W4 2.185281 1_655
N10 W4 2.185374 1_555
N10 W9 2.195769 1_555
N10 W9 2.195820 1_655
N10 W9 2.195820 1_545
N11 W5 2.181655 1_655
N11 W5 2.181655 1_545
N11 W5 2.181708 1_555
N11 W10 2.230856 1_545
N11 W10 2.230856 1_655
N11 W10 2.230933 1_555
