# generated using pymatgen
data_Na2Ca(CO3)2
_symmetry_space_group_name_H-M   'P 1'
_cell_length_a   8.84748400
_cell_length_b   10.16712100
_cell_length_c   12.36004700
_cell_angle_alpha   90.00000000
_cell_angle_beta   90.00000000
_cell_angle_gamma   90.00000000
_symmetry_Int_Tables_number   1
_chemical_formula_structural   Na2Ca(CO3)2
_chemical_formula_sum   'Na16 Ca8 C16 O48'
_cell_volume   1111.82875083
_cell_formula_units_Z   8
loop_
 _symmetry_equiv_pos_site_id
 _symmetry_equiv_pos_as_xyz
  1  'x, y, z'
loop_
 _atom_site_type_symbol
 _atom_site_label
 _atom_site_symmetry_multiplicity
 _atom_site_fract_x
 _atom_site_fract_y
 _atom_site_fract_z
 _atom_site_occupancy
  Na  Na0  1  0.06039900  0.39489000  0.58252600  1
  Na  Na1  1  0.43960100  0.89489000  0.41747400  1
  Na  Na2  1  0.06039900  0.89489000  0.91747400  1
  Na  Na3  1  0.43960100  0.39489000  0.08252600  1
  Na  Na4  1  0.05813700  0.85074300  0.61307400  1
  Na  Na5  1  0.44186300  0.35074300  0.38692600  1
  Na  Na6  1  0.05813700  0.35074300  0.88692600  1
  Na  Na7  1  0.44186300  0.85074300  0.11307400  1
  Na  Na8  1  0.56039900  0.10511000  0.58252600  1
  Na  Na9  1  0.93960100  0.60511000  0.41747400  1
  Na  Na10  1  0.56039900  0.60511000  0.91747400  1
  Na  Na11  1  0.93960100  0.10511000  0.08252600  1
  Na  Na12  1  0.55813700  0.64925700  0.61307400  1
  Na  Na13  1  0.94186300  0.14925700  0.38692600  1
  Na  Na14  1  0.55813700  0.14925700  0.88692600  1
  Na  Na15  1  0.94186300  0.64925700  0.11307400  1
  Ca  Ca0  1  0.20310100  0.12122700  0.72296200  1
  Ca  Ca1  1  0.29689900  0.62122700  0.27703800  1
  Ca  Ca2  1  0.20310100  0.62122700  0.77703800  1
  Ca  Ca3  1  0.29689900  0.12122700  0.22296200  1
  Ca  Ca4  1  0.70310100  0.37877300  0.72296200  1
  Ca  Ca5  1  0.79689900  0.87877300  0.27703800  1
  Ca  Ca6  1  0.70310100  0.87877300  0.77703800  1
  Ca  Ca7  1  0.79689900  0.37877300  0.22296200  1
  C  C0  1  0.37222700  0.37330000  0.72217400  1
  C  C1  1  0.12777300  0.87330000  0.27782600  1
  C  C2  1  0.37222700  0.87330000  0.77782600  1
  C  C3  1  0.12777300  0.37330000  0.22217400  1
  C  C4  1  0.87222700  0.12670000  0.72217400  1
  C  C5  1  0.62777300  0.62670000  0.27782600  1
  C  C6  1  0.87222700  0.62670000  0.77782600  1
  C  C7  1  0.62777300  0.12670000  0.22217400  1
  C  C8  1  0.74722200  0.88525800  0.50606900  1
  C  C9  1  0.75277800  0.38525800  0.49393100  1
  C  C10  1  0.74722200  0.38525800  0.99393100  1
  C  C11  1  0.75277800  0.88525800  0.00606900  1
  C  C12  1  0.24722200  0.61474200  0.50606900  1
  C  C13  1  0.25277800  0.11474200  0.49393100  1
  C  C14  1  0.24722200  0.11474200  0.99393100  1
  C  C15  1  0.25277800  0.61474200  0.00606900  1
  O  O0  1  0.94797000  0.01812400  0.71568800  1
  O  O1  1  0.55203000  0.51812400  0.28431200  1
  O  O2  1  0.94797000  0.51812400  0.78431200  1
  O  O3  1  0.55203000  0.01812400  0.21568800  1
  O  O4  1  0.94151000  0.23968300  0.71802300  1
  O  O5  1  0.55849000  0.73968300  0.28197700  1
  O  O6  1  0.94151000  0.73968300  0.78197700  1
  O  O7  1  0.55849000  0.23968300  0.21802300  1
  O  O8  1  0.22548100  0.37712900  0.72923200  1
  O  O9  1  0.27451900  0.87712900  0.27076800  1
  O  O10  1  0.22548100  0.87712900  0.77076800  1
  O  O11  1  0.27451900  0.37712900  0.22923200  1
  O  O12  1  0.44151000  0.26031700  0.71802300  1
  O  O13  1  0.05849000  0.76031700  0.28197700  1
  O  O14  1  0.44151000  0.76031700  0.78197700  1
  O  O15  1  0.05849000  0.26031700  0.21802300  1
  O  O16  1  0.13508500  0.18147400  0.52082300  1
  O  O17  1  0.36491500  0.68147400  0.47917700  1
  O  O18  1  0.13508500  0.68147400  0.97917700  1
  O  O19  1  0.36491500  0.18147400  0.02082300  1
  O  O20  1  0.44797000  0.48187600  0.71568800  1
  O  O21  1  0.05203000  0.98187600  0.28431200  1
  O  O22  1  0.44797000  0.98187600  0.78431200  1
  O  O23  1  0.05203000  0.48187600  0.21568800  1
  O  O24  1  0.72548100  0.12287100  0.72923200  1
  O  O25  1  0.77451900  0.62287100  0.27076800  1
  O  O26  1  0.72548100  0.62287100  0.77076800  1
  O  O27  1  0.77451900  0.12287100  0.22923200  1
  O  O28  1  0.67080500  0.85911100  0.59309500  1
  O  O29  1  0.82919500  0.35911100  0.40690500  1
  O  O30  1  0.67080500  0.35911100  0.90690500  1
  O  O31  1  0.82919500  0.85911100  0.09309500  1
  O  O32  1  0.63508500  0.31852600  0.52082300  1
  O  O33  1  0.86491500  0.81852600  0.47917700  1
  O  O34  1  0.63508500  0.81852600  0.97917700  1
  O  O35  1  0.86491500  0.31852600  0.02082300  1
  O  O36  1  0.79824300  0.48202800  0.55603200  1
  O  O37  1  0.70175700  0.98202800  0.44396800  1
  O  O38  1  0.79824300  0.98202800  0.94396800  1
  O  O39  1  0.70175700  0.48202800  0.05603200  1
  O  O40  1  0.17080500  0.64088900  0.59309500  1
  O  O41  1  0.32919500  0.14088900  0.40690500  1
  O  O42  1  0.17080500  0.14088900  0.90690500  1
  O  O43  1  0.32919500  0.64088900  0.09309500  1
  O  O44  1  0.29824300  0.01797200  0.55603200  1
  O  O45  1  0.20175700  0.51797200  0.44396800  1
  O  O46  1  0.29824300  0.51797200  0.94396800  1
  O  O47  1  0.20175700  0.01797200  0.05603200  1
loop_
_geom_bond_atom_site_label_1
_geom_bond_atom_site_label_2
_geom_bond_distance
_geom_bond_site_symmetry_2
Na0 O8 2.335354 1_555
Na0 O16 2.392994 1_555
Na0 O45 2.462331 1_555
Na0 O36 2.504365 1_455
Na0 O4 2.530084 1_455
Na0 O40 2.688260 1_555
Na1 O9 2.335354 1_555
Na1 O17 2.392994 1_555
Na1 O44 2.462331 1_565
Na1 O37 2.504365 1_555
Na1 O5 2.530084 1_555
Na1 O41 2.688260 1_565
Na2 O10 2.335354 1_555
Na2 O18 2.392994 1_555
Na2 O47 2.462331 1_566
Na2 O38 2.504365 1_455
Na2 O6 2.530084 1_455
Na2 O42 2.688260 1_565
Na3 O11 2.335354 1_555
Na3 O19 2.392994 1_555
Na3 O46 2.462331 1_554
Na3 O39 2.504365 1_555
Na3 O7 2.530084 1_555
Na3 O43 2.688260 1_555
Na4 O0 2.335536 1_465
Na4 O40 2.367898 1_555
Na4 O33 2.401815 1_455
Na4 O10 2.462332 1_555
Na4 O6 2.588051 1_455
Na4 O44 2.810816 1_565
Na5 O1 2.335536 1_555
Na5 O41 2.367898 1_555
Na5 O32 2.401815 1_555
Na5 O11 2.462332 1_555
Na5 O7 2.588051 1_555
Na5 O45 2.810816 1_555
Na6 O2 2.335536 1_455
Na6 O42 2.367898 1_555
Na6 O35 2.401815 1_456
Na6 O8 2.462332 1_555
Na6 O4 2.588051 1_455
Na6 O46 2.810816 1_555
Na7 O3 2.335536 1_565
Na7 O43 2.367898 1_555
Na7 O34 2.401815 1_554
Na7 O9 2.462332 1_555
Na7 O5 2.588051 1_555
Na7 O47 2.810816 1_565
Na8 O24 2.335354 1_555
Na8 O32 2.392994 1_555
Na8 O37 2.462331 1_545
Na8 O44 2.504365 1_555
Na8 O12 2.530084 1_555
Na8 O28 2.688260 1_545
Na9 O25 2.335354 1_555
Na9 O33 2.392994 1_555
Na9 O36 2.462331 1_555
Na9 O45 2.504365 1_655
Na9 O13 2.530084 1_655
Na9 O29 2.688260 1_555
Na10 O26 2.335354 1_555
Na10 O34 2.392994 1_555
Na10 O39 2.462331 1_556
Na10 O46 2.504365 1_555
Na10 O14 2.530084 1_555
Na10 O30 2.688260 1_555
Na11 O27 2.335354 1_555
Na11 O35 2.392994 1_555
Na11 O38 2.462331 1_544
Na11 O47 2.504365 1_655
Na11 O15 2.530084 1_655
Na11 O31 2.688260 1_545
Na12 O20 2.335536 1_555
Na12 O28 2.367898 1_555
Na12 O17 2.401815 1_555
Na12 O26 2.462332 1_555
Na12 O14 2.588051 1_555
Na12 O36 2.810816 1_555
Na13 O21 2.335536 1_645
Na13 O29 2.367898 1_555
Na13 O16 2.401815 1_655
Na13 O27 2.462332 1_555
Na13 O15 2.588051 1_655
Na13 O37 2.810816 1_545
Na14 O22 2.335536 1_545
Na14 O30 2.367898 1_555
Na14 O19 2.401815 1_556
Na14 O24 2.462332 1_555
Na14 O12 2.588051 1_555
Na14 O38 2.810816 1_545
Na15 O23 2.335536 1_655
Na15 O31 2.367898 1_555
Na15 O18 2.401815 1_654
Na15 O25 2.462332 1_555
Na15 O13 2.588051 1_655
Na15 O39 2.810816 1_555
Ca0 O42 2.300133 1_555
Ca0 O44 2.463274 1_555
Ca0 O0 2.490420 1_455
Ca0 O12 2.540229 1_555
Ca0 O10 2.558819 1_545
Ca0 O4 2.609742 1_455
Ca0 O8 2.610461 1_555
Ca0 O16 2.641888 1_555
Ca0 O22 2.697394 1_545
Ca1 O43 2.300133 1_555
Ca1 O45 2.463274 1_555
Ca1 O1 2.490420 1_555
Ca1 O13 2.540229 1_555
Ca1 O11 2.558819 1_555
Ca1 O5 2.609742 1_555
Ca1 O9 2.610461 1_555
Ca1 O17 2.641888 1_555
Ca1 O23 2.697394 1_555
Ca2 O40 2.300133 1_555
Ca2 O46 2.463274 1_555
Ca2 O2 2.490420 1_455
Ca2 O14 2.540229 1_555
Ca2 O8 2.558819 1_555
Ca2 O6 2.609742 1_455
Ca2 O10 2.610461 1_555
Ca2 O18 2.641888 1_555
Ca2 O20 2.697394 1_555
Ca3 O41 2.300133 1_555
Ca3 O47 2.463274 1_555
Ca3 O3 2.490420 1_555
Ca3 O15 2.540229 1_555
Ca3 O9 2.558819 1_545
Ca3 O7 2.609742 1_555
Ca3 O11 2.610461 1_555
Ca3 O19 2.641888 1_555
Ca3 O21 2.697394 1_545
Ca4 O30 2.300133 1_555
Ca4 O36 2.463274 1_555
Ca4 O20 2.490420 1_555
Ca4 O4 2.540229 1_555
Ca4 O26 2.558819 1_555
Ca4 O12 2.609742 1_555
Ca4 O24 2.610461 1_555
Ca4 O32 2.641888 1_555
Ca4 O2 2.697394 1_555
Ca5 O31 2.300133 1_555
Ca5 O37 2.463274 1_555
Ca5 O21 2.490420 1_655
Ca5 O5 2.540229 1_555
Ca5 O27 2.558819 1_565
Ca5 O13 2.609742 1_655
Ca5 O25 2.610461 1_555
Ca5 O33 2.641888 1_555
Ca5 O3 2.697394 1_565
Ca6 O28 2.300133 1_555
Ca6 O38 2.463274 1_555
Ca6 O22 2.490420 1_555
Ca6 O6 2.540229 1_555
Ca6 O24 2.558819 1_565
Ca6 O14 2.609742 1_555
Ca6 O26 2.610461 1_555
Ca6 O34 2.641888 1_555
Ca6 O0 2.697394 1_565
Ca7 O29 2.300133 1_555
Ca7 O39 2.463274 1_555
Ca7 O23 2.490420 1_655
Ca7 O7 2.540229 1_555
Ca7 O25 2.558819 1_555
Ca7 O15 2.609742 1_655
Ca7 O27 2.610461 1_555
Ca7 O35 2.641888 1_555
Ca7 O1 2.697394 1_555
C0 O20 1.293876 1_555
C0 O8 1.301843 1_555
C0 O12 1.303041 1_555
C1 O21 1.293876 1_555
C1 O9 1.301843 1_555
C1 O13 1.303041 1_555
C2 O22 1.293876 1_555
C2 O10 1.301843 1_555
C2 O14 1.303041 1_555
C3 O23 1.293876 1_555
C3 O11 1.301843 1_555
C3 O15 1.303041 1_555
C4 O0 1.293876 1_555
C4 O24 1.301843 1_555
C4 O4 1.303041 1_555
C5 O1 1.293876 1_555
C5 O25 1.301843 1_555
C5 O5 1.303041 1_555
C6 O2 1.293876 1_555
C6 O26 1.301843 1_555
C6 O6 1.303041 1_555
C7 O3 1.293876 1_555
C7 O27 1.301843 1_555
C7 O7 1.303041 1_555
C8 O33 1.286501 1_555
C8 O28 1.297996 1_555
C8 O37 1.311097 1_555
C9 O32 1.286501 1_555
C9 O29 1.297996 1_555
C9 O36 1.311097 1_555
C10 O35 1.286501 1_556
C10 O30 1.297996 1_555
C10 O39 1.311097 1_556
C11 O34 1.286501 1_554
C11 O31 1.297996 1_555
C11 O38 1.311097 1_554
C12 O17 1.286501 1_555
C12 O40 1.297996 1_555
C12 O45 1.311097 1_555
C13 O16 1.286501 1_555
C13 O41 1.297996 1_555
C13 O44 1.311097 1_555
C14 O19 1.286501 1_556
C14 O42 1.297996 1_555
C14 O47 1.311097 1_556
C15 O18 1.286501 1_554
C15 O43 1.297996 1_555
C15 O46 1.311097 1_554
