# generated using pymatgen
data_Mg2Sn
_symmetry_space_group_name_H-M   'P 1'
_cell_length_a   15.70773543
_cell_length_b   15.70773543
_cell_length_c   10.92275732
_cell_angle_alpha   90.00000000
_cell_angle_beta   90.00000000
_cell_angle_gamma   154.82156822
_symmetry_Int_Tables_number   1
_chemical_formula_structural   Mg2Sn
_chemical_formula_sum   'Mg32 Sn16'
_cell_volume   1146.55893576
_cell_formula_units_Z   16
loop_
 _symmetry_equiv_pos_site_id
 _symmetry_equiv_pos_as_xyz
  1  'x, y, z'
loop_
 _atom_site_type_symbol
 _atom_site_label
 _atom_site_symmetry_multiplicity
 _atom_site_fract_x
 _atom_site_fract_y
 _atom_site_fract_z
 _atom_site_occupancy
  Mg  Mg0_0  1  0.05689413  0.44310587  0.12500000  1
  Mg  Mg0_1  1  0.05689413  0.44310587  0.62500000  1
  Mg  Mg0_2  1  0.05689412  0.94310587  0.12500000  1
  Mg  Mg0_3  1  0.05689412  0.94310587  0.62500000  1
  Mg  Mg0_4  1  0.55689413  0.44310587  0.12500000  1
  Mg  Mg0_5  1  0.55689413  0.44310587  0.62500000  1
  Mg  Mg0_6  1  0.55689413  0.94310588  0.12500000  1
  Mg  Mg0_7  1  0.55689413  0.94310588  0.62500000  1
  Mg  Mg1_0  1  0.22225616  0.27774384  0.12500000  1
  Mg  Mg1_1  1  0.22225616  0.27774384  0.62500000  1
  Mg  Mg1_2  1  0.22225616  0.77774384  0.12500000  1
  Mg  Mg1_3  1  0.22225616  0.77774384  0.62500000  1
  Mg  Mg1_4  1  0.72225616  0.27774384  0.12500000  1
  Mg  Mg1_5  1  0.72225616  0.27774384  0.62500000  1
  Mg  Mg1_6  1  0.72225616  0.77774385  0.12500000  1
  Mg  Mg1_7  1  0.72225616  0.77774385  0.62500000  1
  Mg  Mg2_0  1  0.27774384  0.22225616  0.37500000  1
  Mg  Mg2_1  1  0.27774384  0.22225616  0.87500000  1
  Mg  Mg2_2  1  0.27774384  0.72225616  0.37500000  1
  Mg  Mg2_3  1  0.27774384  0.72225616  0.87500000  1
  Mg  Mg2_4  1  0.77774384  0.22225616  0.37500000  1
  Mg  Mg2_5  1  0.77774384  0.22225616  0.87500000  1
  Mg  Mg2_6  1  0.77774385  0.72225616  0.37500000  1
  Mg  Mg2_7  1  0.77774385  0.72225616  0.87500000  1
  Mg  Mg3_0  1  0.44310587  0.05689413  0.37500000  1
  Mg  Mg3_1  1  0.44310587  0.05689413  0.87500000  1
  Mg  Mg3_2  1  0.44310587  0.55689413  0.37500000  1
  Mg  Mg3_3  1  0.44310587  0.55689413  0.87500000  1
  Mg  Mg3_4  1  0.94310587  0.05689412  0.37500000  1
  Mg  Mg3_5  1  0.94310587  0.05689412  0.87500000  1
  Mg  Mg3_6  1  0.94310588  0.55689413  0.37500000  1
  Mg  Mg3_7  1  0.94310588  0.55689413  0.87500000  1
  Sn  Sn0_0  1  0.38929235  0.11070765  0.12500000  1
  Sn  Sn0_1  1  0.38929235  0.11070765  0.62500000  1
  Sn  Sn0_2  1  0.38929235  0.61070765  0.12500000  1
  Sn  Sn0_3  1  0.38929235  0.61070765  0.62500000  1
  Sn  Sn0_4  1  0.88929235  0.11070765  0.12500000  1
  Sn  Sn0_5  1  0.88929235  0.11070765  0.62500000  1
  Sn  Sn0_6  1  0.88929235  0.61070765  0.12500000  1
  Sn  Sn0_7  1  0.88929235  0.61070765  0.62500000  1
  Sn  Sn1_0  1  0.11070765  0.38929235  0.37500000  1
  Sn  Sn1_1  1  0.11070765  0.38929235  0.87500000  1
  Sn  Sn1_2  1  0.11070765  0.88929235  0.37500000  1
  Sn  Sn1_3  1  0.11070765  0.88929235  0.87500000  1
  Sn  Sn1_4  1  0.61070765  0.38929235  0.37500000  1
  Sn  Sn1_5  1  0.61070765  0.38929235  0.87500000  1
  Sn  Sn1_6  1  0.61070765  0.88929235  0.37500000  1
  Sn  Sn1_7  1  0.61070765  0.88929235  0.87500000  1
loop_
_geom_bond_atom_site_label_1
_geom_bond_atom_site_label_2
_geom_bond_distance
_geom_bond_site_symmetry_2
Mg0_0 Sn0_2 3.051682 1_555
Mg0_0 Sn0_4 3.051682 1_455
Mg0_0 Mg1_2 3.108770 1_555
Mg0_0 Mg1_4 3.108770 1_455
Mg0_0 Sn1_1 3.190445 1_554
Mg0_0 Sn1_0 3.190445 1_555
Mg0_0 Mg2_2 3.344519 1_555
Mg0_0 Mg2_4 3.344519 1_455
Mg0_0 Mg2_5 3.344519 1_454
Mg0_0 Mg2_3 3.344519 1_554
Mg0_0 Mg0_6 3.423651 1_445
Mg0_0 Mg0_6 3.423651 1_555
Mg0_1 Sn0_3 3.051682 1_555
Mg0_1 Sn0_5 3.051682 1_455
Mg0_1 Mg1_5 3.108770 1_455
Mg0_1 Mg1_3 3.108770 1_555
Mg0_1 Sn1_1 3.190445 1_555
Mg0_1 Sn1_0 3.190445 1_555
Mg0_1 Mg2_3 3.344519 1_555
Mg0_1 Mg2_5 3.344519 1_455
Mg0_1 Mg2_4 3.344519 1_455
Mg0_1 Mg2_2 3.344519 1_555
Mg0_1 Mg0_7 3.423651 1_445
Mg0_1 Mg0_7 3.423651 1_555
Mg0_2 Sn0_0 3.051682 1_565
Mg0_2 Sn0_6 3.051682 1_455
Mg0_2 Mg1_6 3.108770 1_455
Mg0_2 Mg1_0 3.108770 1_565
Mg0_2 Sn1_3 3.190445 1_554
Mg0_2 Sn1_2 3.190445 1_555
Mg0_2 Mg2_7 3.344519 1_454
Mg0_2 Mg2_1 3.344519 1_564
Mg0_2 Mg2_0 3.344519 1_565
Mg0_2 Mg2_6 3.344519 1_455
Mg0_2 Mg0_4 3.423651 1_455
Mg0_2 Mg0_4 3.423651 1_565
Mg0_3 Sn0_1 3.051682 1_565
Mg0_3 Sn0_7 3.051682 1_455
Mg0_3 Mg1_7 3.108770 1_455
Mg0_3 Mg1_1 3.108770 1_565
Mg0_3 Sn1_3 3.190445 1_555
Mg0_3 Sn1_2 3.190445 1_555
Mg0_3 Mg2_1 3.344519 1_565
Mg0_3 Mg2_7 3.344519 1_455
Mg0_3 Mg2_0 3.344519 1_565
Mg0_3 Mg2_6 3.344519 1_455
Mg0_3 Mg0_5 3.423651 1_455
Mg0_3 Mg0_5 3.423651 1_565
Mg0_4 Sn0_6 3.051682 1_555
Mg0_4 Sn0_0 3.051682 1_555
Mg0_4 Mg1_6 3.108770 1_555
Mg0_4 Mg1_0 3.108770 1_555
Mg0_4 Sn1_4 3.190445 1_555
Mg0_4 Sn1_5 3.190445 1_554
Mg0_4 Mg2_1 3.344519 1_554
Mg0_4 Mg2_0 3.344519 1_555
Mg0_4 Mg2_7 3.344519 1_554
Mg0_4 Mg2_6 3.344519 1_555
Mg0_5 Sn0_7 3.051682 1_555
Mg0_5 Sn0_1 3.051682 1_555
Mg0_5 Mg1_7 3.108770 1_555
Mg0_5 Mg1_1 3.108770 1_555
Mg0_5 Sn1_5 3.190445 1_555
Mg0_5 Sn1_4 3.190445 1_555
Mg0_5 Mg2_1 3.344519 1_555
Mg0_5 Mg2_7 3.344519 1_555
Mg0_5 Mg2_0 3.344519 1_555
Mg0_5 Mg2_6 3.344519 1_555
Mg0_6 Sn0_4 3.051682 1_565
Mg0_6 Sn0_2 3.051682 1_555
Mg0_6 Mg1_2 3.108770 1_555
Mg0_6 Mg1_4 3.108770 1_565
Mg0_6 Sn1_7 3.190445 1_554
Mg0_6 Sn1_6 3.190445 1_555
Mg0_6 Mg2_5 3.344519 1_564
Mg0_6 Mg2_4 3.344519 1_565
Mg0_6 Mg2_3 3.344519 1_554
Mg0_6 Mg2_2 3.344519 1_555
Mg0_7 Sn0_5 3.051682 1_565
Mg0_7 Sn0_3 3.051682 1_555
Mg0_7 Mg1_3 3.108770 1_555
Mg0_7 Mg1_5 3.108770 1_565
Mg0_7 Sn1_7 3.190445 1_555
Mg0_7 Sn1_6 3.190445 1_555
Mg0_7 Mg2_5 3.344519 1_565
Mg0_7 Mg2_3 3.344519 1_555
Mg0_7 Mg2_4 3.344519 1_565
Mg0_7 Mg2_2 3.344519 1_555
Mg1_0 Sn0_2 3.066053 1_555
Mg1_0 Sn0_4 3.066053 1_455
Mg1_0 Mg2_1 3.217290 1_554
Mg1_0 Mg2_0 3.217290 1_555
Mg1_0 Mg3_4 3.344519 1_455
Mg1_0 Mg3_2 3.344519 1_555
Mg1_0 Mg3_5 3.344519 1_454
Mg1_0 Mg3_3 3.344519 1_554
Mg1_0 Mg1_6 3.423651 1_445
Mg1_0 Mg1_6 3.423651 1_555
Mg1_1 Sn0_3 3.066053 1_555
Mg1_1 Sn0_5 3.066053 1_455
Mg1_1 Mg2_1 3.217290 1_555
Mg1_1 Mg2_0 3.217290 1_555
Mg1_1 Mg3_5 3.344519 1_455
Mg1_1 Mg3_3 3.344519 1_555
Mg1_1 Mg3_4 3.344519 1_455
Mg1_1 Mg3_2 3.344519 1_555
Mg1_1 Mg1_7 3.423651 1_445
Mg1_1 Mg1_7 3.423651 1_555
Mg1_2 Sn0_0 3.066053 1_565
Mg1_2 Sn0_6 3.066053 1_455
Mg1_2 Mg2_3 3.217290 1_554
Mg1_2 Mg2_2 3.217290 1_555
Mg1_2 Mg3_6 3.344519 1_455
Mg1_2 Mg3_0 3.344519 1_565
Mg1_2 Mg3_7 3.344519 1_454
Mg1_2 Mg3_1 3.344519 1_564
Mg1_2 Mg1_4 3.423651 1_455
Mg1_2 Mg1_4 3.423651 1_565
Mg1_3 Sn0_1 3.066053 1_565
Mg1_3 Sn0_7 3.066053 1_455
Mg1_3 Mg2_3 3.217290 1_555
Mg1_3 Mg2_2 3.217290 1_555
Mg1_3 Mg3_1 3.344519 1_565
Mg1_3 Mg3_7 3.344519 1_455
Mg1_3 Mg3_6 3.344519 1_455
Mg1_3 Mg3_0 3.344519 1_565
Mg1_3 Mg1_5 3.423651 1_455
Mg1_3 Mg1_5 3.423651 1_565
Mg1_4 Sn0_6 3.066053 1_555
Mg1_4 Sn0_0 3.066053 1_555
Mg1_4 Mg2_5 3.217290 1_554
Mg1_4 Mg2_4 3.217290 1_555
Mg1_4 Mg3_1 3.344519 1_554
Mg1_4 Mg3_0 3.344519 1_555
Mg1_4 Mg3_7 3.344519 1_554
Mg1_4 Mg3_6 3.344519 1_555
Mg1_5 Sn0_7 3.066053 1_555
Mg1_5 Sn0_1 3.066053 1_555
Mg1_5 Mg2_5 3.217290 1_555
Mg1_5 Mg2_4 3.217290 1_555
Mg1_5 Mg3_1 3.344519 1_555
Mg1_5 Mg3_7 3.344519 1_555
Mg1_5 Mg3_0 3.344519 1_555
Mg1_5 Mg3_6 3.344519 1_555
Mg1_6 Sn0_4 3.066053 1_565
Mg1_6 Sn0_2 3.066053 1_555
Mg1_6 Mg2_7 3.217290 1_554
Mg1_6 Mg2_6 3.217290 1_555
Mg1_6 Mg3_4 3.344519 1_565
Mg1_6 Mg3_5 3.344519 1_564
Mg1_6 Mg3_3 3.344519 1_554
Mg1_6 Mg3_2 3.344519 1_555
Mg1_7 Sn0_5 3.066053 1_565
Mg1_7 Sn0_3 3.066053 1_555
Mg1_7 Mg2_7 3.217290 1_555
Mg1_7 Mg2_6 3.217290 1_555
Mg1_7 Mg3_5 3.344519 1_565
Mg1_7 Mg3_3 3.344519 1_555
Mg1_7 Mg3_4 3.344519 1_565
Mg1_7 Mg3_2 3.344519 1_555
Mg2_0 Sn1_4 3.066053 1_555
Mg2_0 Sn1_2 3.066053 1_545
Mg2_0 Mg3_2 3.108770 1_555
Mg2_0 Mg3_4 3.108770 1_455
Mg2_0 Mg2_6 3.423651 1_445
Mg2_0 Mg2_6 3.423651 1_555
Mg2_1 Sn1_5 3.066053 1_555
Mg2_1 Sn1_3 3.066053 1_545
Mg2_1 Mg3_3 3.108770 1_555
Mg2_1 Mg3_5 3.108770 1_455
Mg2_1 Mg2_7 3.423651 1_445
Mg2_1 Mg2_7 3.423651 1_555
Mg2_2 Sn1_6 3.066053 1_555
Mg2_2 Sn1_0 3.066053 1_555
Mg2_2 Mg3_0 3.108770 1_565
Mg2_2 Mg3_6 3.108770 1_455
Mg2_2 Mg2_4 3.423651 1_565
Mg2_2 Mg2_4 3.423651 1_455
Mg2_3 Sn1_7 3.066053 1_555
Mg2_3 Sn1_1 3.066053 1_555
Mg2_3 Mg3_1 3.108770 1_565
Mg2_3 Mg3_7 3.108770 1_455
Mg2_3 Mg2_5 3.423651 1_565
Mg2_3 Mg2_5 3.423651 1_455
Mg2_4 Sn1_0 3.066053 1_655
Mg2_4 Sn1_6 3.066053 1_545
Mg2_4 Mg3_6 3.108770 1_555
Mg2_4 Mg3_0 3.108770 1_555
Mg2_5 Sn1_1 3.066053 1_655
Mg2_5 Sn1_7 3.066053 1_545
Mg2_5 Mg3_7 3.108770 1_555
Mg2_5 Mg3_1 3.108770 1_555
Mg2_6 Sn1_2 3.066053 1_655
Mg2_6 Sn1_4 3.066053 1_555
Mg2_6 Mg3_4 3.108770 1_565
Mg2_6 Mg3_2 3.108770 1_555
Mg2_7 Sn1_3 3.066053 1_655
Mg2_7 Sn1_5 3.066053 1_555
Mg2_7 Mg3_5 3.108770 1_565
Mg2_7 Mg3_3 3.108770 1_555
Mg3_0 Sn1_4 3.051682 1_555
Mg3_0 Sn1_2 3.051682 1_545
Mg3_0 Sn0_0 3.190445 1_555
Mg3_0 Sn0_1 3.190445 1_555
Mg3_0 Mg3_6 3.423651 1_445
Mg3_0 Mg3_6 3.423651 1_555
Mg3_1 Sn1_5 3.051682 1_555
Mg3_1 Sn1_3 3.051682 1_545
Mg3_1 Sn0_1 3.190445 1_555
Mg3_1 Sn0_0 3.190445 1_556
Mg3_1 Mg3_7 3.423651 1_445
Mg3_1 Mg3_7 3.423651 1_555
Mg3_2 Sn1_6 3.051682 1_555
Mg3_2 Sn1_0 3.051682 1_555
Mg3_2 Sn0_2 3.190445 1_555
Mg3_2 Sn0_3 3.190445 1_555
Mg3_2 Mg3_4 3.423651 1_565
Mg3_2 Mg3_4 3.423651 1_455
Mg3_3 Sn1_7 3.051682 1_555
Mg3_3 Sn1_1 3.051682 1_555
Mg3_3 Sn0_3 3.190445 1_555
Mg3_3 Sn0_2 3.190445 1_556
Mg3_3 Mg3_5 3.423651 1_565
Mg3_3 Mg3_5 3.423651 1_455
Mg3_4 Sn1_0 3.051682 1_655
Mg3_4 Sn1_6 3.051682 1_545
Mg3_4 Sn0_4 3.190445 1_555
Mg3_4 Sn0_5 3.190445 1_555
Mg3_5 Sn1_1 3.051682 1_655
Mg3_5 Sn1_7 3.051682 1_545
Mg3_5 Sn0_5 3.190445 1_555
Mg3_5 Sn0_4 3.190445 1_556
Mg3_6 Sn1_2 3.051682 1_655
Mg3_6 Sn1_4 3.051682 1_555
Mg3_6 Sn0_6 3.190445 1_555
Mg3_6 Sn0_7 3.190445 1_555
Mg3_7 Sn1_3 3.051682 1_655
Mg3_7 Sn1_5 3.051682 1_555
Mg3_7 Sn0_7 3.190445 1_555
Mg3_7 Sn0_6 3.190445 1_556
Sn0_0 Sn1_3 3.339926 1_544
Sn0_0 Sn1_2 3.339926 1_545
Sn0_0 Sn1_4 3.339926 1_555
Sn0_0 Sn1_5 3.339926 1_554
Sn0_0 Sn0_6 3.423651 1_445
Sn0_0 Sn0_6 3.423651 1_555
Sn0_1 Sn1_3 3.339926 1_545
Sn0_1 Sn1_5 3.339926 1_555
Sn0_1 Sn1_2 3.339926 1_545
Sn0_1 Sn1_4 3.339926 1_555
Sn0_1 Sn0_7 3.423651 1_445
Sn0_1 Sn0_7 3.423651 1_555
Sn0_2 Sn1_0 3.339926 1_555
Sn0_2 Sn1_1 3.339926 1_554
Sn0_2 Sn1_6 3.339926 1_555
Sn0_2 Sn1_7 3.339926 1_554
Sn0_2 Sn0_4 3.423651 1_455
Sn0_2 Sn0_4 3.423651 1_565
Sn0_3 Sn1_7 3.339926 1_555
Sn0_3 Sn1_1 3.339926 1_555
Sn0_3 Sn1_0 3.339926 1_555
Sn0_3 Sn1_6 3.339926 1_555
Sn0_3 Sn0_5 3.423651 1_455
Sn0_3 Sn0_5 3.423651 1_565
Sn0_4 Sn1_1 3.339926 1_654
Sn0_4 Sn1_0 3.339926 1_655
Sn0_4 Sn1_6 3.339926 1_545
Sn0_4 Sn1_7 3.339926 1_544
Sn0_5 Sn1_1 3.339926 1_655
Sn0_5 Sn1_7 3.339926 1_545
Sn0_5 Sn1_0 3.339926 1_655
Sn0_5 Sn1_6 3.339926 1_545
Sn0_6 Sn1_4 3.339926 1_555
Sn0_6 Sn1_3 3.339926 1_654
Sn0_6 Sn1_2 3.339926 1_655
Sn0_6 Sn1_5 3.339926 1_554
Sn0_7 Sn1_3 3.339926 1_655
Sn0_7 Sn1_5 3.339926 1_555
Sn0_7 Sn1_2 3.339926 1_655
Sn0_7 Sn1_4 3.339926 1_555
Sn1_0 Sn1_6 3.423651 1_445
Sn1_0 Sn1_6 3.423651 1_555
Sn1_1 Sn1_7 3.423651 1_555
Sn1_1 Sn1_7 3.423651 1_445
Sn1_2 Sn1_4 3.423651 1_565
Sn1_2 Sn1_4 3.423651 1_455
Sn1_3 Sn1_5 3.423651 1_565
Sn1_3 Sn1_5 3.423651 1_455
