# generated using pymatgen
data_Mn3Ge5
_symmetry_space_group_name_H-M   'P 1'
_cell_length_a   5.70424300
_cell_length_b   5.70424300
_cell_length_c   13.82889000
_cell_angle_alpha   90.00000000
_cell_angle_beta   90.00000000
_cell_angle_gamma   90.00000000
_symmetry_Int_Tables_number   1
_chemical_formula_structural   Mn3Ge5
_chemical_formula_sum   'Mn12 Ge20'
_cell_volume   449.96979124
_cell_formula_units_Z   4
loop_
 _symmetry_equiv_pos_site_id
 _symmetry_equiv_pos_as_xyz
  1  'x, y, z'
loop_
 _atom_site_type_symbol
 _atom_site_label
 _atom_site_symmetry_multiplicity
 _atom_site_fract_x
 _atom_site_fract_y
 _atom_site_fract_z
 _atom_site_occupancy
  Mn  Mn0  1  0.50000000  0.00000000  0.74984000  1
  Mn  Mn1  1  0.00000000  0.50000000  0.25016000  1
  Mn  Mn2  1  0.00000000  0.00000000  0.00000000  1
  Mn  Mn3  1  0.50000000  0.50000000  0.50000000  1
  Mn  Mn4  1  0.50000000  0.00000000  0.08697800  1
  Mn  Mn5  1  0.00000000  0.50000000  0.91302200  1
  Mn  Mn6  1  0.00000000  0.50000000  0.58691000  1
  Mn  Mn7  1  0.50000000  0.00000000  0.41309000  1
  Mn  Mn8  1  0.00000000  0.00000000  0.32784300  1
  Mn  Mn9  1  0.00000000  0.00000000  0.67215700  1
  Mn  Mn10  1  0.50000000  0.50000000  0.82784200  1
  Mn  Mn11  1  0.50000000  0.50000000  0.17215800  1
  Ge  Ge0  1  0.67113000  0.17120200  0.24997300  1
  Ge  Ge1  1  0.82879800  0.67113000  0.75002700  1
  Ge  Ge2  1  0.32887000  0.82879800  0.24997300  1
  Ge  Ge3  1  0.17120200  0.32887000  0.75002700  1
  Ge  Ge4  1  0.15995700  0.19514000  0.15085700  1
  Ge  Ge5  1  0.80486000  0.15995700  0.84914300  1
  Ge  Ge6  1  0.84004300  0.80486000  0.15085700  1
  Ge  Ge7  1  0.19514000  0.84004300  0.84914300  1
  Ge  Ge8  1  0.34018100  0.69465300  0.65084200  1
  Ge  Ge9  1  0.69465300  0.65981900  0.34915800  1
  Ge  Ge10  1  0.65981900  0.30534700  0.65084200  1
  Ge  Ge11  1  0.30534700  0.34018100  0.34915800  1
  Ge  Ge12  1  0.34327400  0.23320500  0.94971400  1
  Ge  Ge13  1  0.76679500  0.34327400  0.05028600  1
  Ge  Ge14  1  0.65672600  0.76679500  0.94971400  1
  Ge  Ge15  1  0.23320500  0.65672600  0.05028600  1
  Ge  Ge16  1  0.15703400  0.73307500  0.44976900  1
  Ge  Ge17  1  0.73307500  0.84296600  0.55023100  1
  Ge  Ge18  1  0.84296600  0.26692500  0.44976900  1
  Ge  Ge19  1  0.26692500  0.15703400  0.55023100  1
loop_
_geom_bond_atom_site_label_1
_geom_bond_atom_site_label_2
_geom_bond_distance
_geom_bond_site_symmetry_2
Ge0 Mn11 2.372456 1_555
Ge0 Mn8 2.373295 1_655
Ge0 Mn4 2.643351 1_555
Ge0 Mn7 2.644789 1_555
Ge0 Mn1 2.652711 1_655
Ge1 Mn10 2.372456 1_555
Ge1 Mn9 2.373295 1_665
Ge1 Mn5 2.643351 1_655
Ge1 Mn6 2.644789 1_655
Ge1 Mn0 2.652711 1_565
Ge2 Mn11 2.372456 1_555
Ge2 Mn8 2.373295 1_565
Ge2 Mn4 2.643351 1_565
Ge2 Mn7 2.644789 1_565
Ge2 Mn1 2.652711 1_555
Ge3 Mn10 2.372456 1_555
Ge3 Mn9 2.373295 1_555
Ge3 Mn5 2.643351 1_555
Ge3 Mn6 2.644789 1_555
Ge3 Mn0 2.652711 1_555
Ge4 Mn1 2.396342 1_555
Ge4 Mn4 2.404536 1_555
Ge4 Mn2 2.534512 1_555
Ge4 Mn11 2.621691 1_555
Ge4 Mn8 2.839355 1_555
Ge5 Mn0 2.396342 1_555
Ge5 Mn5 2.404536 1_655
Ge5 Mn2 2.534512 1_656
Ge5 Mn10 2.621691 1_555
Ge5 Mn9 2.839355 1_655
Ge6 Mn1 2.396342 1_655
Ge6 Mn4 2.404536 1_565
Ge6 Mn2 2.534512 1_665
Ge6 Mn11 2.621691 1_555
Ge6 Mn8 2.839355 1_665
Ge7 Mn0 2.396342 1_565
Ge7 Mn5 2.404536 1_555
Ge7 Mn2 2.534512 1_566
Ge7 Mn10 2.621691 1_555
Ge7 Mn9 2.839355 1_565
Ge8 Mn0 2.395647 1_565
Ge8 Mn6 2.404156 1_555
Ge8 Mn3 2.532839 1_555
Ge8 Mn9 2.624139 1_565
Ge8 Mn10 2.838181 1_555
Ge9 Mn1 2.395647 1_655
Ge9 Mn7 2.404156 1_565
Ge9 Mn3 2.532839 1_555
Ge9 Mn8 2.624139 1_665
Ge9 Mn11 2.838181 1_555
Ge10 Mn0 2.395647 1_555
Ge10 Mn6 2.404156 1_655
Ge10 Mn3 2.532839 1_555
Ge10 Mn9 2.624139 1_655
Ge10 Mn10 2.838181 1_555
Ge11 Mn1 2.395647 1_555
Ge11 Mn7 2.404156 1_555
Ge11 Mn3 2.532839 1_555
Ge11 Mn8 2.624139 1_555
Ge11 Mn11 2.838181 1_555
Ge12 Mn10 2.440436 1_555
Ge12 Mn2 2.467265 1_556
Ge12 Mn4 2.484356 1_556
Ge12 Mn5 2.531355 1_555
Ge13 Mn11 2.440436 1_555
Ge13 Mn2 2.467265 1_655
Ge13 Mn5 2.484356 1_654
Ge13 Mn4 2.531355 1_555
Ge14 Mn10 2.440436 1_555
Ge14 Mn2 2.467265 1_666
Ge14 Mn4 2.484356 1_566
Ge14 Mn5 2.531355 1_655
Ge15 Mn11 2.440436 1_555
Ge15 Mn2 2.467265 1_565
Ge15 Mn5 2.484356 1_554
Ge15 Mn4 2.531355 1_565
Ge16 Mn8 2.442059 1_565
Ge16 Mn3 2.465256 1_555
Ge16 Mn6 2.483293 1_555
Ge16 Mn7 2.530407 1_565
Ge17 Mn9 2.442059 1_665
Ge17 Mn3 2.465256 1_555
Ge17 Mn7 2.483293 1_565
Ge17 Mn6 2.530407 1_655
Ge18 Mn8 2.442059 1_655
Ge18 Mn3 2.465256 1_555
Ge18 Mn6 2.483293 1_655
Ge18 Mn7 2.530407 1_555
Ge19 Mn9 2.442059 1_555
Ge19 Mn3 2.465256 1_555
Ge19 Mn7 2.483293 1_555
Ge19 Mn6 2.530407 1_555
