# generated using pymatgen
data_Ba3SrEr2(MoO6)2
_symmetry_space_group_name_H-M   'P 1'
_cell_length_a   5.94562300
_cell_length_b   5.95395101
_cell_length_c   10.31584809
_cell_angle_alpha   73.97258679
_cell_angle_beta   74.00661620
_cell_angle_gamma   60.68125162
_symmetry_Int_Tables_number   1
_chemical_formula_structural   Ba3SrEr2(MoO6)2
_chemical_formula_sum   'Ba3 Sr1 Er2 Mo2 O12'
_cell_volume   301.70651380
_cell_formula_units_Z   1
loop_
 _symmetry_equiv_pos_site_id
 _symmetry_equiv_pos_as_xyz
  1  'x, y, z'
loop_
 _atom_site_type_symbol
 _atom_site_label
 _atom_site_symmetry_multiplicity
 _atom_site_fract_x
 _atom_site_fract_y
 _atom_site_fract_z
 _atom_site_occupancy
  Ba  Ba0  1  0.37461600  0.37525900  0.87587900  1
  Ba  Ba1  1  0.87497000  0.87527700  0.37417700  1
  Ba  Ba2  1  0.12549400  0.12411800  0.62513400  1
  Sr  Sr0  1  0.62480300  0.62576900  0.12468900  1
  Er  Er0  1  0.99977200  0.99949600  0.00083000  1
  Er  Er1  1  0.50029200  0.50059500  0.49906400  1
  Mo  Mo0  1  0.74937800  0.74984400  0.75110200  1
  Mo  Mo1  1  0.25086600  0.25002900  0.24886500  1
  O  O0  1  0.86446000  0.86478000  0.86977900  1
  O  O1  1  0.36662700  0.36828600  0.36507800  1
  O  O2  1  0.63467300  0.63332100  0.63261200  1
  O  O3  1  0.13420500  0.13354900  0.13263200  1
  O  O4  1  0.65676800  0.09949600  0.62117700  1
  O  O5  1  0.16342200  0.60048300  0.12080300  1
  O  O6  1  0.84033200  0.40306600  0.88296600  1
  O  O7  1  0.34258400  0.89948600  0.37816900  1
  O  O8  1  0.11726800  0.60209100  0.63945700  1
  O  O9  1  0.61838100  0.09707700  0.13880400  1
  O  O10  1  0.38234000  0.89745000  0.86177200  1
  O  O11  1  0.87875000  0.40052700  0.35701100  1
loop_
_geom_bond_atom_site_label_1
_geom_bond_atom_site_label_2
_geom_bond_distance
_geom_bond_site_symmetry_2
Ba0 O10 2.865911 1_545
Ba0 O5 2.869185 1_556
Ba0 O6 2.875267 1_555
Ba0 O8 2.885680 1_555
Ba0 O3 2.992155 1_556
Ba0 O0 3.007510 1_455
Ba0 O0 3.009909 1_545
Ba0 O2 3.018016 1_555
Ba0 O6 3.080181 1_455
Ba0 O9 3.087887 1_556
Ba0 O10 3.094526 1_555
Ba0 O4 3.109565 1_555
Ba1 O7 2.865507 1_655
Ba1 O11 2.869449 1_555
Ba1 O9 2.874800 1_565
Ba1 O4 2.884140 1_565
Ba1 O2 3.003326 1_555
Ba1 O1 3.004913 1_655
Ba1 O3 3.006337 1_665
Ba1 O1 3.012601 1_565
Ba1 O7 3.086525 1_555
Ba1 O11 3.093992 1_565
Ba1 O5 3.097286 1_655
Ba1 O8 3.103169 1_655
Ba2 O8 2.866157 1_555
Ba2 O4 2.873306 1_455
Ba2 O7 2.885161 1_545
Ba2 O10 2.886033 1_545
Ba2 O2 3.008424 1_545
Ba2 O2 3.009017 1_455
Ba2 O1 3.022240 1_555
Ba2 O0 3.032955 1_445
Ba2 O4 3.078903 1_555
Ba2 O8 3.094504 1_545
Ba2 O11 3.141486 1_455
Ba2 O6 3.147044 1_455
Er0 O9 2.212077 1_565
Er0 O5 2.213283 1_655
Er0 O10 2.220488 1_654
Er0 O6 2.223004 1_564
Er0 O3 2.224276 1_665
Er0 O0 2.224479 1_554
Er1 O7 2.214274 1_555
Er1 O11 2.217601 1_555
Er1 O4 2.228068 1_555
Er1 O8 2.228655 1_555
Er1 O1 2.232091 1_555
Er1 O2 2.233129 1_555
Mo0 O0 1.953985 1_555
Mo0 O2 1.957426 1_555
Mo0 O10 2.034931 1_555
Mo0 O6 2.041278 1_555
Mo0 O8 2.042444 1_655
Mo0 O4 2.043725 1_565
Mo1 O3 1.946370 1_555
Mo1 O1 1.949888 1_555
Mo1 O9 2.036693 1_555
Mo1 O5 2.040416 1_555
Mo1 O7 2.044891 1_545
Mo1 O11 2.047644 1_455
O0 Sr0 2.970694 1_556
O1 Sr0 2.993948 1_555
O3 Sr0 3.004004 1_545
O3 Sr0 3.013305 1_455
O5 Sr0 2.831571 1_555
O5 Sr0 3.120933 1_455
O6 Sr0 2.831805 1_556
O7 Sr0 3.092932 1_555
O9 Sr0 2.831031 1_545
O9 Sr0 3.129360 1_555
O10 Sr0 3.082063 1_556
O11 Sr0 2.838684 1_555
