# generated using pymatgen
data_Te2Mo3W(Se2S)2
_symmetry_space_group_name_H-M   'P 1'
_cell_length_a   3.34409816
_cell_length_b   3.34409816
_cell_length_c   38.02701300
_cell_angle_alpha   90.00000000
_cell_angle_beta   90.00000000
_cell_angle_gamma   120.00000307
_symmetry_Int_Tables_number   1
_chemical_formula_structural   Te2Mo3W(Se2S)2
_chemical_formula_sum   'Te2 Mo3 W1 Se4 S2'
_cell_volume   368.28231460
_cell_formula_units_Z   1
loop_
 _symmetry_equiv_pos_site_id
 _symmetry_equiv_pos_as_xyz
  1  'x, y, z'
loop_
 _atom_site_type_symbol
 _atom_site_label
 _atom_site_symmetry_multiplicity
 _atom_site_fract_x
 _atom_site_fract_y
 _atom_site_fract_z
 _atom_site_occupancy
  Te  Te0  1  0.66666700  0.33333300  0.04401500  1
  Te  Te1  1  0.66666700  0.33333300  0.14382300  1
  Mo  Mo0  1  0.33333300  0.66666700  0.09389700  1
  Mo  Mo1  1  0.33333300  0.66666700  0.46965600  1
  Mo  Mo2  1  0.66666700  0.33333300  0.28179900  1
  W  W0  1  0.66666700  0.33333300  0.65755000  1
  Se  Se0  1  0.33333300  0.66666700  0.70158100  1
  Se  Se1  1  0.66666700  0.33333300  0.42581200  1
  Se  Se2  1  0.66666700  0.33333300  0.51351200  1
  Se  Se3  1  0.33333300  0.66666700  0.61349500  1
  S  S0  1  0.33333300  0.66666700  0.32168500  1
  S  S1  1  0.33333300  0.66666700  0.24192300  1
loop_
_geom_bond_atom_site_label_1
_geom_bond_atom_site_label_2
_geom_bond_distance
_geom_bond_site_symmetry_2
Mo0 Te0 2.706612 1_455
Mo0 Te0 2.706612 1_565
Mo0 Te0 2.706616 1_555
Mo0 Te1 2.707785 1_455
Mo0 Te1 2.707785 1_565
Mo0 Te1 2.707789 1_555
Mo1 Se1 2.550961 1_455
Mo1 Se1 2.550961 1_565
Mo1 Se1 2.550965 1_555
Mo1 Se2 2.551259 1_455
Mo1 Se2 2.551259 1_565
Mo1 Se2 2.551263 1_555
Mo2 S1 2.454999 1_545
Mo2 S1 2.454999 1_655
Mo2 S1 2.455004 1_555
Mo2 S0 2.455234 1_545
Mo2 S0 2.455234 1_655
Mo2 S0 2.455238 1_555
Se0 W0 2.555614 1_455
Se0 W0 2.555614 1_565
Se0 W0 2.555618 1_555
Se3 W0 2.556212 1_455
Se3 W0 2.556212 1_565
Se3 W0 2.556216 1_555
