# generated using pymatgen
data_MgPb2
_symmetry_space_group_name_H-M   'P 1'
_cell_length_a   5.00086753
_cell_length_b   6.55112454
_cell_length_c   10.17331070
_cell_angle_alpha   90.00000000
_cell_angle_beta   90.00000000
_cell_angle_gamma   90.00000000
_symmetry_Int_Tables_number   1
_chemical_formula_structural   MgPb2
_chemical_formula_sum   'Mg4 Pb8'
_cell_volume   333.29094485
_cell_formula_units_Z   4
loop_
 _symmetry_equiv_pos_site_id
 _symmetry_equiv_pos_as_xyz
  1  'x, y, z'
loop_
 _atom_site_type_symbol
 _atom_site_label
 _atom_site_symmetry_multiplicity
 _atom_site_fract_x
 _atom_site_fract_y
 _atom_site_fract_z
 _atom_site_occupancy
  Mg  Mg0  1  0.25000000  0.65024707  0.90445487  1
  Mg  Mg1  1  0.75000000  0.34975293  0.09554513  1
  Mg  Mg2  1  0.75000000  0.84975293  0.40445487  1
  Mg  Mg3  1  0.25000000  0.15024707  0.59554513  1
  Pb  Pb0  1  0.25000000  0.65857161  0.56734778  1
  Pb  Pb1  1  0.75000000  0.34142839  0.43265222  1
  Pb  Pb2  1  0.75000000  0.84142839  0.06734778  1
  Pb  Pb3  1  0.25000000  0.15857161  0.93265222  1
  Pb  Pb4  1  0.25000000  0.59404687  0.22650327  1
  Pb  Pb5  1  0.75000000  0.40595313  0.77349673  1
  Pb  Pb6  1  0.75000000  0.90595313  0.72650327  1
  Pb  Pb7  1  0.25000000  0.09404687  0.27349673  1
loop_
_geom_bond_atom_site_label_1
_geom_bond_atom_site_label_2
_geom_bond_distance
_geom_bond_site_symmetry_2
Mg0 Pb3 3.233776 1_555
Mg0 Pb2 3.250690 1_556
Mg0 Pb2 3.250690 1_456
Mg0 Pb5 3.253984 1_555
Mg0 Pb5 3.253984 1_455
Mg0 Pb4 3.296920 1_556
Mg0 Pb3 3.342430 1_565
Mg0 Pb0 3.429929 1_555
Mg0 Pb6 3.512226 1_455
Mg0 Pb6 3.512226 1_555
Mg1 Pb2 3.233776 1_555
Mg1 Pb3 3.250690 1_654
Mg1 Pb3 3.250690 1_554
Mg1 Pb4 3.253984 1_655
Mg1 Pb4 3.253984 1_555
Mg1 Pb5 3.296920 1_554
Mg1 Pb2 3.342430 1_545
Mg1 Pb1 3.429929 1_555
Mg1 Pb7 3.512226 1_555
Mg1 Pb7 3.512226 1_655
Mg2 Pb1 3.233776 1_565
Mg2 Pb0 3.250690 1_555
Mg2 Pb0 3.250690 1_655
Mg2 Pb7 3.253984 1_565
Mg2 Pb7 3.253984 1_665
Mg2 Pb6 3.296920 1_555
Mg2 Pb1 3.342430 1_555
Mg2 Pb2 3.429929 1_555
Mg2 Pb4 3.512226 1_555
Mg2 Pb4 3.512226 1_655
Mg3 Pb0 3.233776 1_545
Mg3 Pb1 3.250690 1_455
Mg3 Pb1 3.250690 1_555
Mg3 Pb6 3.253984 1_545
Mg3 Pb6 3.253984 1_445
Mg3 Pb7 3.296920 1_555
Mg3 Pb0 3.342430 1_555
Mg3 Pb3 3.429929 1_555
Mg3 Pb5 3.512226 1_555
Mg3 Pb5 3.512226 1_455
Pb0 Pb6 3.391196 1_555
Pb0 Pb6 3.391196 1_455
Pb0 Pb4 3.493187 1_555
Pb0 Pb1 3.527959 1_455
Pb0 Pb1 3.527959 1_555
Pb0 Pb5 3.659139 1_455
Pb0 Pb5 3.659139 1_555
Pb1 Pb7 3.391196 1_555
Pb1 Pb7 3.391196 1_655
Pb1 Pb5 3.493187 1_555
Pb1 Pb4 3.659139 1_655
Pb1 Pb4 3.659139 1_555
Pb2 Pb4 3.391196 1_555
Pb2 Pb4 3.391196 1_655
Pb2 Pb6 3.493187 1_554
Pb2 Pb3 3.527959 1_664
Pb2 Pb3 3.527959 1_564
Pb2 Pb7 3.659139 1_565
Pb2 Pb7 3.659139 1_665
Pb3 Pb5 3.391196 1_555
Pb3 Pb5 3.391196 1_455
Pb3 Pb7 3.493187 1_556
Pb3 Pb6 3.659139 1_545
Pb3 Pb6 3.659139 1_445
Pb4 Pb7 3.310267 1_555
Pb4 Pb7 3.310267 1_565
Pb5 Pb6 3.310267 1_555
Pb5 Pb6 3.310267 1_545
