# generated using pymatgen
data_Ba3UFe2O9
_symmetry_space_group_name_H-M   'P 1'
_cell_length_a   10.13923825
_cell_length_b   10.13923825
_cell_length_c   10.13923825
_cell_angle_alpha   146.58099041
_cell_angle_beta   131.86058210
_cell_angle_gamma   59.86855250
_symmetry_Int_Tables_number   1
_chemical_formula_structural   Ba3UFe2O9
_chemical_formula_sum   'Ba6 U2 Fe4 O18'
_cell_volume   423.70066795
_cell_formula_units_Z   2
loop_
 _symmetry_equiv_pos_site_id
 _symmetry_equiv_pos_as_xyz
  1  'x, y, z'
loop_
 _atom_site_type_symbol
 _atom_site_label
 _atom_site_symmetry_multiplicity
 _atom_site_fract_x
 _atom_site_fract_y
 _atom_site_fract_z
 _atom_site_occupancy
  Ba  Ba0  1  0.76424844  0.50000000  0.26424844  1
  Ba  Ba1  1  0.39873867  0.15867241  0.24006626  1
  Ba  Ba2  1  0.08139384  0.84132759  0.24006626  1
  Ba  Ba3  1  0.23575156  0.50000000  0.73575156  1
  Ba  Ba4  1  0.91860616  0.15867241  0.75993374  1
  Ba  Ba5  1  0.60126133  0.84132759  0.75993374  1
  U  U0  1  0.66794465  0.66794465  0.00000000  1
  U  U1  1  0.33205535  0.33205535  -0.00000000  1
  Fe  Fe0  1  0.50000000  0.00000000  0.50000000  1
  Fe  Fe1  1  0.15726607  0.65726607  0.50000000  1
  Fe  Fe2  1  0.84273393  0.34273393  0.50000000  1
  Fe  Fe3  1  0.00000000  0.00000000  0.00000000  1
  O  O0  1  0.74477583  0.00000000  0.74477583  1
  O  O1  1  0.41231932  0.66653247  0.74578685  1
  O  O2  1  0.07925437  0.33346753  0.74578685  1
  O  O3  1  0.58383143  0.83483356  0.25100212  1
  O  O4  1  0.24940783  0.49869307  0.24928524  1
  O  O5  1  0.91661473  0.16792491  0.25131018  1
  O  O6  1  0.41616857  0.66717069  0.25100212  1
  O  O7  1  0.08338527  0.33469546  0.25131018  1
  O  O8  1  0.75059217  -0.00012258  0.24928524  1
  O  O9  1  0.25522417  -0.00000000  0.25522417  1
  O  O10  1  0.92074563  0.66653247  0.25421315  1
  O  O11  1  0.58768068  0.33346753  0.25421315  1
  O  O12  1  0.41616857  0.16516644  0.74899788  1
  O  O13  1  0.08338527  0.83207509  0.74868982  1
  O  O14  1  0.75059217  0.50130693  0.75071476  1
  O  O15  1  0.58383143  0.33282931  0.74899788  1
  O  O16  1  0.24940783  0.00012258  0.75071476  1
  O  O17  1  0.91661473  0.66530454  0.74868982  1
loop_
_geom_bond_atom_site_label_1
_geom_bond_atom_site_label_2
_geom_bond_distance
_geom_bond_site_symmetry_2
Ba0 O13 2.837494 1_655
Ba0 O5 2.837494 1_555
Ba0 O7 2.837494 1_655
Ba0 O17 2.837494 1_555
Ba0 O0 2.919673 1_554
Ba0 O0 2.919673 1_565
Ba0 O11 2.927701 1_555
Ba0 O10 2.927701 1_555
Ba0 O15 3.014682 1_554
Ba0 O6 3.014682 1_555
Ba0 O12 3.014682 1_554
Ba0 O3 3.014682 1_555
Ba1 O9 2.791214 1_555
Ba1 O13 2.799915 1_544
Ba1 O7 2.799915 1_555
Ba1 O3 2.908435 1_545
Ba1 O15 2.908435 1_555
Ba1 O1 2.918882 1_544
Ba1 O1 2.918882 1_555
Ba1 O16 2.932084 1_554
Ba1 O4 2.932084 1_555
Ba1 O14 3.060671 1_555
Ba1 O8 3.060671 1_555
Ba1 O11 3.073954 1_555
Ba2 O9 2.791214 1_565
Ba2 O17 2.799915 1_454
Ba2 O5 2.799915 1_465
Ba2 O12 2.908435 1_565
Ba2 O6 2.908435 1_555
Ba2 O2 2.918882 1_554
Ba2 O2 2.918882 1_565
Ba2 O8 2.932084 1_465
Ba2 O14 2.932084 1_454
Ba2 O4 3.060671 1_555
Ba2 O16 3.060671 1_565
Ba2 O10 3.073954 1_455
Ba3 O5 2.837494 1_455
Ba3 O13 2.837494 1_555
Ba3 O17 2.837494 1_455
Ba3 O7 2.837494 1_555
Ba3 O9 2.919673 1_555
Ba3 O9 2.919673 1_566
Ba3 O1 2.927701 1_555
Ba3 O2 2.927701 1_555
Ba3 O6 3.014682 1_556
Ba3 O15 3.014682 1_555
Ba3 O3 3.014682 1_556
Ba3 O12 3.014682 1_555
Ba4 O0 2.791214 1_555
Ba4 O7 2.799915 1_656
Ba4 O13 2.799915 1_645
Ba4 O3 2.908435 1_545
Ba4 O15 2.908435 1_555
Ba4 O10 2.918882 1_545
Ba4 O10 2.918882 1_556
Ba4 O16 2.932084 1_655
Ba4 O4 2.932084 1_656
Ba4 O14 3.060671 1_555
Ba4 O8 3.060671 1_555
Ba4 O2 3.073954 1_655
Ba5 O0 2.791214 1_565
Ba5 O5 2.799915 1_566
Ba5 O17 2.799915 1_555
Ba5 O12 2.908435 1_565
Ba5 O6 2.908435 1_555
Ba5 O11 2.918882 1_555
Ba5 O11 2.918882 1_566
Ba5 O8 2.932084 1_566
Ba5 O14 2.932084 1_555
Ba5 O4 3.060671 1_555
Ba5 O16 3.060671 1_565
Ba5 O1 3.073954 1_555
Fe0 O0 2.024426 1_555
Fe0 O9 2.024426 1_555
Fe0 O15 2.068318 1_555
Fe0 O6 2.068318 1_545
Fe0 O12 2.068318 1_555
Fe0 O3 2.068318 1_545
Fe1 O7 1.946300 1_555
Fe1 O13 1.946301 1_555
Fe1 O10 2.039300 1_455
Fe1 O1 2.039300 1_555
Fe1 O16 2.181450 1_565
Fe1 O4 2.181450 1_555
Fe2 O17 1.946300 1_555
Fe2 O5 1.946301 1_555
Fe2 O2 2.039300 1_655
Fe2 O11 2.039300 1_555
Fe2 O8 2.181450 1_555
Fe2 O14 2.181450 1_555
Fe3 O5 2.072252 1_455
Fe3 O13 2.072252 1_544
Fe3 O17 2.072252 1_444
Fe3 O7 2.072252 1_555
Fe3 O0 2.110840 1_454
Fe3 O9 2.110840 1_555
O1 U0 2.102624 1_556
O2 U1 2.102625 1_556
O3 U0 2.080053 1_555
O4 U1 2.054736 1_555
O6 U1 2.080053 1_555
O8 U0 2.054736 1_545
O10 U0 2.102625 1_555
O11 U1 2.102624 1_555
O12 U1 2.080053 1_556
O14 U0 2.054736 1_556
O15 U0 2.080053 1_556
O16 U1 2.054736 1_556
