# generated using pymatgen
data_Nb2CrRu
_symmetry_space_group_name_H-M   'P 1'
_cell_length_a   4.43554995
_cell_length_b   4.43554995
_cell_length_c   4.43554995
_cell_angle_alpha   60.00000000
_cell_angle_beta   60.00000000
_cell_angle_gamma   60.00000000
_symmetry_Int_Tables_number   1
_chemical_formula_structural   Nb2CrRu
_chemical_formula_sum   'Nb2 Cr1 Ru1'
_cell_volume   61.70600443
_cell_formula_units_Z   1
loop_
 _symmetry_equiv_pos_site_id
 _symmetry_equiv_pos_as_xyz
  1  'x, y, z'
loop_
 _atom_site_type_symbol
 _atom_site_label
 _atom_site_symmetry_multiplicity
 _atom_site_fract_x
 _atom_site_fract_y
 _atom_site_fract_z
 _atom_site_occupancy
  Nb  Nb0  1  0.25000000  0.25000000  0.25000000  1
  Nb  Nb1  1  0.75000000  0.75000000  0.75000000  1
  Cr  Cr0  1  0.50000000  0.50000000  0.50000000  1
  Ru  Ru0  1  0.00000000  0.00000000  0.00000000  1
loop_
_geom_bond_atom_site_label_1
_geom_bond_atom_site_label_2
_geom_bond_distance
_geom_bond_site_symmetry_2
Nb0 Ru0 2.716209 1_655
Nb0 Ru0 2.716209 1_565
Nb0 Ru0 2.716209 1_556
Nb0 Ru0 2.716209 1_555
Nb1 Ru0 2.716209 1_666
Nb1 Ru0 2.716209 1_656
Nb1 Ru0 2.716209 1_665
Nb1 Ru0 2.716209 1_566
Cr0 Nb0 2.716209 1_655
Cr0 Nb0 2.716209 1_556
Cr0 Nb0 2.716209 1_555
Cr0 Nb1 2.716209 1_455
Cr0 Nb1 2.716209 1_545
Cr0 Nb0 2.716209 1_565
Cr0 Nb1 2.716209 1_554
Cr0 Nb1 2.716209 1_555
Cr0 Ru0 3.136407 1_656
Cr0 Ru0 3.136407 1_665
Cr0 Ru0 3.136407 1_556
Cr0 Ru0 3.136407 1_565
Cr0 Ru0 3.136407 1_566
Cr0 Ru0 3.136407 1_655
