# generated using pymatgen
data_La(GePt)2
_symmetry_space_group_name_H-M   'P 1'
_cell_length_a   4.42720443
_cell_length_b   4.43811100
_cell_length_c   10.11557593
_cell_angle_alpha   90.00000000
_cell_angle_beta   90.01525738
_cell_angle_gamma   90.00000000
_symmetry_Int_Tables_number   1
_chemical_formula_structural   La(GePt)2
_chemical_formula_sum   'La2 Ge4 Pt4'
_cell_volume   198.75512476
_cell_formula_units_Z   2
loop_
 _symmetry_equiv_pos_site_id
 _symmetry_equiv_pos_as_xyz
  1  'x, y, z'
loop_
 _atom_site_type_symbol
 _atom_site_label
 _atom_site_symmetry_multiplicity
 _atom_site_fract_x
 _atom_site_fract_y
 _atom_site_fract_z
 _atom_site_occupancy
  La  La0  1  0.75077413  0.75262134  0.25287377  1
  La  La1  1  0.24922587  0.25262134  0.74712623  1
  Ge  Ge0  1  0.75667021  0.76198561  0.86934159  1
  Ge  Ge1  1  0.24332979  0.26198561  0.13065841  1
  Ge  Ge2  1  0.25176741  0.74405368  0.49940209  1
  Ge  Ge3  1  0.74823259  0.24405368  0.50059791  1
  Pt  Pt0  1  0.75137264  0.74403384  0.62330427  1
  Pt  Pt1  1  0.24862736  0.24403384  0.37669573  1
  Pt  Pt2  1  0.25790032  0.76330553  0.00108203  1
  Pt  Pt3  1  0.74209968  0.26330553  0.99891797  1
loop_
_geom_bond_atom_site_label_1
_geom_bond_atom_site_label_2
_geom_bond_distance
_geom_bond_site_symmetry_2
La0 Pt1 3.343938 1_665
La0 Pt2 3.353796 1_555
La0 Pt1 3.356938 1_565
La0 Pt3 3.364034 1_554
La0 Pt1 3.394144 1_655
La0 Pt2 3.396071 1_655
La0 Pt1 3.406952 1_555
La0 Pt3 3.426021 1_564
La1 Pt0 3.343938 1_455
La1 Pt3 3.353796 1_555
La1 Pt0 3.356938 1_555
La1 Pt2 3.364034 1_546
La1 Pt0 3.394144 1_445
La1 Pt3 3.396071 1_455
La1 Pt0 3.406952 1_545
La1 Pt2 3.426021 1_556
Ge0 Pt0 2.490188 1_555
Ge0 Pt3 2.573031 1_555
Ge0 Pt2 2.579430 1_556
Ge0 Pt3 2.583115 1_565
Ge0 Pt2 2.588153 1_656
Ge0 La1 3.320620 1_665
Ge0 La1 3.363841 1_565
Ge0 La1 3.375709 1_655
Ge0 La1 3.418233 1_555
Ge1 Pt1 2.490188 1_555
Ge1 Pt2 2.573031 1_545
Ge1 Pt3 2.579430 1_554
Ge1 Pt2 2.583115 1_555
Ge1 Pt3 2.588153 1_454
Ge1 La0 3.320620 1_455
Ge1 La0 3.363841 1_555
Ge1 La0 3.375709 1_445
Ge1 La0 3.418233 1_545
Ge2 Pt0 2.541985 1_555
Ge2 Pt1 2.542576 1_565
Ge2 Pt1 2.542729 1_555
Ge2 Pt0 2.545608 1_455
Ge2 La1 3.322113 1_555
Ge2 La0 3.332249 1_555
Ge2 La0 3.337206 1_455
Ge2 La1 3.372528 1_565
Ge3 Pt1 2.541985 1_555
Ge3 Pt0 2.542576 1_555
Ge3 Pt0 2.542729 1_545
Ge3 Pt1 2.545608 1_655
Ge3 La0 3.322113 1_545
Ge3 La1 3.332249 1_555
Ge3 La1 3.337206 1_655
Ge3 La0 3.372528 1_555
