# generated using pymatgen
data_Li9Mn2Co5O16
_symmetry_space_group_name_H-M   'P 1'
_cell_length_a   2.89584300
_cell_length_b   5.90502000
_cell_length_c   16.87432114
_cell_angle_alpha   89.66867431
_cell_angle_beta   90.00000000
_cell_angle_gamma   90.00000000
_symmetry_Int_Tables_number   1
_chemical_formula_structural   Li9Mn2Co5O16
_chemical_formula_sum   'Li9 Mn2 Co5 O16'
_cell_volume   288.54624968
_cell_formula_units_Z   1
loop_
 _symmetry_equiv_pos_site_id
 _symmetry_equiv_pos_as_xyz
  1  'x, y, z'
loop_
 _atom_site_type_symbol
 _atom_site_label
 _atom_site_symmetry_multiplicity
 _atom_site_fract_x
 _atom_site_fract_y
 _atom_site_fract_z
 _atom_site_occupancy
  Li  Li0  1  0.50000000  0.75184700  0.86845200  1
  Li  Li1  1  0.50000000  0.25165100  0.62487500  1
  Li  Li2  1  0.50000000  0.74253600  0.36916400  1
  Li  Li3  1  0.00000000  0.00231100  0.74705100  1
  Li  Li4  1  0.00000000  0.50055600  0.49551000  1
  Li  Li5  1  0.00000000  0.98320500  0.25633800  1
  Li  Li6  1  0.50000000  0.25678200  0.13585700  1
  Li  Li7  1  0.00000000  0.49931200  0.00245900  1
  Li  Li8  1  0.00000000  0.50906300  0.25598700  1
  Mn  Mn0  1  0.00000000  0.00212500  0.00243100  1
  Mn  Mn1  1  0.50000000  0.74637800  0.13640600  1
  Co  Co0  1  0.00000000  0.50375400  0.74681400  1
  Co  Co1  1  0.00000000  0.99543400  0.49558200  1
  Co  Co2  1  0.50000000  0.75279300  0.62208100  1
  Co  Co3  1  0.50000000  0.25409400  0.36824200  1
  Co  Co4  1  0.50000000  0.24920700  0.87081500  1
  O  O0  1  0.50000000  0.77431400  0.01130000  1
  O  O1  1  0.50000000  0.26599900  0.75046700  1
  O  O2  1  0.50000000  0.76206300  0.49964500  1
  O  O3  1  0.00000000  0.01918900  0.87323100  1
  O  O4  1  0.00000000  0.51295400  0.62421300  1
  O  O5  1  0.00000000  0.01371600  0.37670400  1
  O  O6  1  0.50000000  0.24573400  0.26585400  1
  O  O7  1  0.00000000  0.52585500  0.12775800  1
  O  O8  1  0.50000000  0.74164400  0.74431600  1
  O  O9  1  0.50000000  0.23554700  0.48492500  1
  O  O10  1  0.50000000  0.74331300  0.24443500  1
  O  O11  1  0.00000000  0.99479500  0.61706200  1
  O  O12  1  0.00000000  0.47611000  0.37569000  1
  O  O13  1  0.00000000  0.97348700  0.13278300  1
  O  O14  1  0.50000000  0.23054600  0.00108900  1
  O  O15  1  0.00000000  0.48368900  0.87246200  1
loop_
_geom_bond_atom_site_label_1
_geom_bond_atom_site_label_2
_geom_bond_distance
_geom_bond_site_symmetry_2
Li0 O8 2.095925 1_555
Li0 O3 2.143973 1_565
Li0 O3 2.143973 1_665
Li0 O15 2.146444 1_555
Li0 O15 2.146444 1_655
Li0 O0 2.414877 1_556
Li1 O11 2.101588 1_545
Li1 O11 2.101588 1_645
Li1 O4 2.115951 1_655
Li1 O4 2.115951 1_555
Li1 O1 2.121462 1_555
Li1 O9 2.364024 1_555
Li2 O10 2.104696 1_555
Li2 O12 2.140495 1_655
Li2 O12 2.140495 1_555
Li2 O5 2.163159 1_565
Li2 O5 2.163159 1_665
Li2 O2 2.205461 1_555
Li3 O8 2.113930 1_445
Li3 O8 2.113930 1_545
Li3 O1 2.127286 1_555
Li3 O1 2.127286 1_455
Li3 O3 2.132109 1_555
Li3 O11 2.194182 1_545
Li4 O12 2.027860 1_555
Li4 O2 2.118291 1_555
Li4 O2 2.118291 1_455
Li4 O9 2.140204 1_455
Li4 O9 2.140204 1_555
Li4 O4 2.173432 1_555
Li5 O10 2.036363 1_555
Li5 O10 2.036363 1_455
Li5 O5 2.040107 1_565
Li5 O13 2.086028 1_555
Li5 O6 2.127999 1_565
Li5 O6 2.127999 1_465
Li6 O7 2.153413 1_655
Li6 O7 2.153413 1_555
Li6 O6 2.194204 1_555
Li6 O13 2.213287 1_545
Li6 O13 2.213287 1_645
Li6 O14 2.280283 1_555
Li7 O7 2.121041 1_555
Li7 O14 2.148540 1_555
Li7 O14 2.148540 1_455
Li7 O0 2.181413 1_455
Li7 O0 2.181413 1_555
Li7 O15 2.196083 1_554
Li8 O10 2.011154 1_555
Li8 O10 2.011154 1_455
Li8 O12 2.028138 1_555
Li8 O6 2.130520 1_455
Li8 O6 2.130520 1_555
Li8 O7 2.165475 1_555
Mn0 O14 1.978884 1_555
Mn0 O14 1.978884 1_455
Mn0 O0 1.981460 1_545
Mn0 O0 1.981460 1_445
Mn0 O3 2.181907 1_554
Mn0 O13 2.205117 1_545
Mn1 O10 1.822901 1_555
Mn1 O7 1.953375 1_555
Mn1 O7 1.953375 1_655
Mn1 O13 1.974277 1_655
Mn1 O13 1.974277 1_555
Mn1 O0 2.116563 1_555
Co0 O1 2.017510 1_555
Co0 O1 2.017510 1_455
Co0 O8 2.017642 1_555
Co0 O8 2.017642 1_455
Co0 O4 2.069208 1_555
Co0 O15 2.122849 1_555
Co1 O2 1.999784 1_555
Co1 O2 1.999784 1_455
Co1 O5 2.008265 1_565
Co1 O9 2.033772 1_565
Co1 O9 2.033772 1_465
Co1 O11 2.049874 1_555
Co2 O4 2.025576 1_555
Co2 O4 2.025576 1_655
Co2 O11 2.035772 1_555
Co2 O11 2.035772 1_655
Co2 O8 2.063302 1_555
Co2 O2 2.066433 1_555
Co3 O6 1.728718 1_555
Co3 O12 1.957785 1_655
Co3 O12 1.957785 1_555
Co3 O9 1.971358 1_555
Co3 O5 2.032074 1_555
Co3 O5 2.032074 1_655
Co4 O3 1.985540 1_655
Co4 O3 1.985540 1_555
Co4 O15 2.003714 1_655
Co4 O15 2.003714 1_555
Co4 O1 2.032637 1_555
Co4 O14 2.200409 1_556
