# generated using pymatgen
data_LaMg2
_symmetry_space_group_name_H-M   'P 1'
_cell_length_a   12.88707046
_cell_length_b   12.88707046
_cell_length_c   16.15334189
_cell_angle_alpha   76.12543096
_cell_angle_beta   76.12543096
_cell_angle_gamma   30.91362241
_symmetry_Int_Tables_number   1
_chemical_formula_structural   LaMg2
_chemical_formula_sum   'La16 Mg32'
_cell_volume   1334.88341915
_cell_formula_units_Z   16
loop_
 _symmetry_equiv_pos_site_id
 _symmetry_equiv_pos_as_xyz
  1  'x, y, z'
loop_
 _atom_site_type_symbol
 _atom_site_label
 _atom_site_symmetry_multiplicity
 _atom_site_fract_x
 _atom_site_fract_y
 _atom_site_fract_z
 _atom_site_occupancy
  La  La0_0  1  0.32166750  0.32166750  0.22725200  1
  La  La0_1  1  0.32166750  0.32166750  0.72725200  1
  La  La0_2  1  0.32166750  0.82166750  0.22725200  1
  La  La0_3  1  0.32166750  0.82166750  0.72725200  1
  La  La0_4  1  0.82166750  0.32166750  0.22725200  1
  La  La0_5  1  0.82166750  0.32166750  0.72725200  1
  La  La0_6  1  0.82166750  0.82166750  0.22725200  1
  La  La0_7  1  0.82166750  0.82166750  0.72725200  1
  La  La1_0  1  0.17833250  0.17833250  0.27274800  1
  La  La1_1  1  0.17833250  0.17833250  0.77274800  1
  La  La1_2  1  0.17833250  0.67833250  0.27274800  1
  La  La1_3  1  0.17833250  0.67833250  0.77274800  1
  La  La1_4  1  0.67833250  0.17833250  0.27274800  1
  La  La1_5  1  0.67833250  0.17833250  0.77274800  1
  La  La1_6  1  0.67833250  0.67833250  0.27274800  1
  La  La1_7  1  0.67833250  0.67833250  0.77274800  1
  Mg  Mg0_0  1  0.15758300  0.15758300  0.05712250  1
  Mg  Mg0_1  1  0.15758300  0.15758300  0.55712250  1
  Mg  Mg0_2  1  0.15758300  0.65758300  0.05712250  1
  Mg  Mg0_3  1  0.15758300  0.65758300  0.55712250  1
  Mg  Mg0_4  1  0.65758300  0.15758300  0.05712250  1
  Mg  Mg0_5  1  0.65758300  0.15758300  0.55712250  1
  Mg  Mg0_6  1  0.65758300  0.65758300  0.05712250  1
  Mg  Mg0_7  1  0.65758300  0.65758300  0.55712250  1
  Mg  Mg1_0  1  0.01103500  0.01103500  0.09019950  1
  Mg  Mg1_1  1  0.01103500  0.01103500  0.59019950  1
  Mg  Mg1_2  1  0.01103500  0.51103500  0.09019950  1
  Mg  Mg1_3  1  0.01103500  0.51103500  0.59019950  1
  Mg  Mg1_4  1  0.51103500  0.01103500  0.09019950  1
  Mg  Mg1_5  1  0.51103500  0.01103500  0.59019950  1
  Mg  Mg1_6  1  0.51103500  0.51103500  0.09019950  1
  Mg  Mg1_7  1  0.51103500  0.51103500  0.59019950  1
  Mg  Mg2_0  1  0.48896500  0.48896500  0.40980050  1
  Mg  Mg2_1  1  0.48896500  0.48896500  0.90980050  1
  Mg  Mg2_2  1  0.48896500  0.98896500  0.40980050  1
  Mg  Mg2_3  1  0.48896500  0.98896500  0.90980050  1
  Mg  Mg2_4  1  0.98896500  0.48896500  0.40980050  1
  Mg  Mg2_5  1  0.98896500  0.48896500  0.90980050  1
  Mg  Mg2_6  1  0.98896500  0.98896500  0.40980050  1
  Mg  Mg2_7  1  0.98896500  0.98896500  0.90980050  1
  Mg  Mg3_0  1  0.34241700  0.34241700  0.44287750  1
  Mg  Mg3_1  1  0.34241700  0.34241700  0.94287750  1
  Mg  Mg3_2  1  0.34241700  0.84241700  0.44287750  1
  Mg  Mg3_3  1  0.34241700  0.84241700  0.94287750  1
  Mg  Mg3_4  1  0.84241700  0.34241700  0.44287750  1
  Mg  Mg3_5  1  0.84241700  0.34241700  0.94287750  1
  Mg  Mg3_6  1  0.84241700  0.84241700  0.44287750  1
  Mg  Mg3_7  1  0.84241700  0.84241700  0.94287750  1
loop_
_geom_bond_atom_site_label_1
_geom_bond_atom_site_label_2
_geom_bond_distance
_geom_bond_site_symmetry_2
La0_0 La1_2 3.388123 1_555
La0_0 La1_4 3.388123 1_555
La0_0 Mg1_4 3.431936 1_555
La0_0 Mg1_2 3.431936 1_555
La0_0 La0_6 3.434558 1_455
La0_0 La0_6 3.434558 1_545
La0_0 La1_0 3.452058 1_555
La0_0 Mg0_4 3.483980 1_555
La0_0 Mg0_2 3.483980 1_555
La0_0 Mg2_4 3.584787 1_455
La0_0 Mg2_2 3.584787 1_545
La0_0 Mg3_0 3.645662 1_555
La0_1 La1_5 3.388123 1_555
La0_1 La1_3 3.388123 1_555
La0_1 Mg1_5 3.431936 1_555
La0_1 Mg1_3 3.431936 1_555
La0_1 La0_7 3.434558 1_545
La0_1 La0_7 3.434558 1_455
La0_1 La1_1 3.452058 1_555
La0_1 Mg0_3 3.483980 1_555
La0_1 Mg0_5 3.483980 1_555
La0_1 Mg2_3 3.584787 1_545
La0_1 Mg2_5 3.584787 1_455
La0_1 Mg3_1 3.645662 1_555
La0_2 La1_6 3.388123 1_555
La0_2 La1_0 3.388123 1_565
La0_2 Mg1_6 3.431936 1_555
La0_2 Mg1_0 3.431936 1_565
La0_2 La0_4 3.434558 1_555
La0_2 La0_4 3.434558 1_465
La0_2 La1_2 3.452058 1_555
La0_2 Mg0_0 3.483980 1_565
La0_2 Mg0_6 3.483980 1_555
La0_2 Mg2_0 3.584787 1_555
La0_2 Mg2_6 3.584787 1_455
La0_2 Mg3_2 3.645662 1_555
La0_3 La1_1 3.388123 1_565
La0_3 La1_7 3.388123 1_555
La0_3 Mg1_7 3.431936 1_555
La0_3 Mg1_1 3.431936 1_565
La0_3 La0_5 3.434558 1_555
La0_3 La0_5 3.434558 1_465
La0_3 La1_3 3.452058 1_555
La0_3 Mg0_7 3.483980 1_555
La0_3 Mg0_1 3.483980 1_565
La0_3 Mg2_1 3.584787 1_555
La0_3 Mg2_7 3.584787 1_455
La0_3 Mg3_3 3.645662 1_555
La0_4 La1_6 3.388123 1_555
La0_4 La1_0 3.388123 1_655
La0_4 Mg1_6 3.431936 1_555
La0_4 Mg1_0 3.431936 1_655
La0_4 La1_4 3.452058 1_555
La0_4 Mg0_0 3.483980 1_655
La0_4 Mg0_6 3.483980 1_555
La0_4 Mg2_0 3.584787 1_555
La0_4 Mg2_6 3.584787 1_545
La0_4 Mg3_4 3.645662 1_555
La0_5 La1_7 3.388123 1_555
La0_5 La1_1 3.388123 1_655
La0_5 Mg1_7 3.431936 1_555
La0_5 Mg1_1 3.431936 1_655
La0_5 La1_5 3.452058 1_555
La0_5 Mg0_7 3.483980 1_555
La0_5 Mg0_1 3.483980 1_655
La0_5 Mg2_1 3.584787 1_555
La0_5 Mg2_7 3.584787 1_545
La0_5 Mg3_5 3.645662 1_555
La0_6 La1_2 3.388123 1_655
La0_6 La1_4 3.388123 1_565
La0_6 Mg1_4 3.431936 1_565
La0_6 Mg1_2 3.431936 1_655
La0_6 La1_6 3.452058 1_555
La0_6 Mg0_2 3.483980 1_655
La0_6 Mg0_4 3.483980 1_565
La0_6 Mg2_4 3.584787 1_555
La0_6 Mg2_2 3.584787 1_555
La0_6 Mg3_6 3.645662 1_555
La0_7 La1_3 3.388123 1_655
La0_7 La1_5 3.388123 1_565
La0_7 Mg1_3 3.431936 1_655
La0_7 Mg1_5 3.431936 1_565
La0_7 La1_7 3.452058 1_555
La0_7 Mg0_3 3.483980 1_655
La0_7 Mg0_5 3.483980 1_565
La0_7 Mg2_5 3.584787 1_555
La0_7 Mg2_3 3.584787 1_555
La0_7 Mg3_7 3.645662 1_555
La1_0 Mg2_4 3.431936 1_455
La1_0 Mg2_2 3.431936 1_545
La1_0 La1_6 3.434558 1_545
La1_0 La1_6 3.434558 1_455
La1_0 Mg3_4 3.483980 1_455
La1_0 Mg3_2 3.483980 1_545
La1_0 Mg1_4 3.584787 1_555
La1_0 Mg1_2 3.584787 1_555
La1_0 Mg0_0 3.645662 1_555
La1_1 Mg2_5 3.431936 1_455
La1_1 Mg2_3 3.431936 1_545
La1_1 La1_7 3.434558 1_545
La1_1 La1_7 3.434558 1_455
La1_1 Mg3_5 3.483980 1_455
La1_1 Mg3_3 3.483980 1_545
La1_1 Mg1_3 3.584787 1_555
La1_1 Mg1_5 3.584787 1_555
La1_1 Mg0_1 3.645662 1_555
La1_2 Mg2_6 3.431936 1_455
La1_2 Mg2_0 3.431936 1_555
La1_2 La1_4 3.434558 1_555
La1_2 La1_4 3.434558 1_465
La1_2 Mg3_6 3.483980 1_455
La1_2 Mg3_0 3.483980 1_555
La1_2 Mg1_0 3.584787 1_565
La1_2 Mg1_6 3.584787 1_555
La1_2 Mg0_2 3.645662 1_555
La1_3 Mg2_7 3.431936 1_455
La1_3 Mg2_1 3.431936 1_555
La1_3 La1_5 3.434558 1_465
La1_3 La1_5 3.434558 1_555
La1_3 Mg3_1 3.483980 1_555
La1_3 Mg3_7 3.483980 1_455
La1_3 Mg1_1 3.584787 1_565
La1_3 Mg1_7 3.584787 1_555
La1_3 Mg0_3 3.645662 1_555
La1_4 Mg2_0 3.431936 1_555
La1_4 Mg2_6 3.431936 1_545
La1_4 Mg3_6 3.483980 1_545
La1_4 Mg3_0 3.483980 1_555
La1_4 Mg1_0 3.584787 1_655
La1_4 Mg1_6 3.584787 1_555
La1_4 Mg0_4 3.645662 1_555
La1_5 Mg2_7 3.431936 1_545
La1_5 Mg2_1 3.431936 1_555
La1_5 Mg3_1 3.483980 1_555
La1_5 Mg3_7 3.483980 1_545
La1_5 Mg1_1 3.584787 1_655
La1_5 Mg1_7 3.584787 1_555
La1_5 Mg0_5 3.645662 1_555
La1_6 Mg2_4 3.431936 1_555
La1_6 Mg2_2 3.431936 1_555
La1_6 Mg3_4 3.483980 1_555
La1_6 Mg3_2 3.483980 1_555
La1_6 Mg1_4 3.584787 1_565
La1_6 Mg1_2 3.584787 1_655
La1_6 Mg0_6 3.645662 1_555
La1_7 Mg2_5 3.431936 1_555
La1_7 Mg2_3 3.431936 1_555
La1_7 Mg3_3 3.483980 1_555
La1_7 Mg3_5 3.483980 1_555
La1_7 Mg1_5 3.584787 1_565
La1_7 Mg1_3 3.584787 1_655
La1_7 Mg0_7 3.645662 1_555
Mg0_0 Mg2_5 3.210215 1_454
Mg0_0 Mg2_3 3.210215 1_544
Mg0_0 Mg3_3 3.234488 1_544
Mg0_0 Mg3_5 3.234488 1_454
Mg0_0 Mg1_2 3.243828 1_555
Mg0_0 Mg1_4 3.243828 1_555
Mg0_0 Mg0_6 3.434558 1_455
Mg0_0 Mg0_6 3.434558 1_545
Mg0_0 Mg1_0 3.545573 1_555
Mg0_1 Mg2_2 3.210215 1_545
Mg0_1 Mg2_4 3.210215 1_455
Mg0_1 Mg3_4 3.234488 1_455
Mg0_1 Mg3_2 3.234488 1_545
Mg0_1 Mg1_5 3.243828 1_555
Mg0_1 Mg1_3 3.243828 1_555
Mg0_1 Mg0_7 3.434558 1_455
Mg0_1 Mg0_7 3.434558 1_545
Mg0_1 Mg1_1 3.545573 1_555
Mg0_2 Mg2_7 3.210215 1_454
Mg0_2 Mg2_1 3.210215 1_554
Mg0_2 Mg3_1 3.234488 1_554
Mg0_2 Mg3_7 3.234488 1_454
Mg0_2 Mg1_0 3.243828 1_565
Mg0_2 Mg1_6 3.243828 1_555
Mg0_2 Mg0_4 3.434558 1_465
Mg0_2 Mg0_4 3.434558 1_555
Mg0_2 Mg1_2 3.545573 1_555
Mg0_3 Mg2_6 3.210215 1_455
Mg0_3 Mg2_0 3.210215 1_555
Mg0_3 Mg3_6 3.234488 1_455
Mg0_3 Mg3_0 3.234488 1_555
Mg0_3 Mg1_1 3.243828 1_565
Mg0_3 Mg1_7 3.243828 1_555
Mg0_3 Mg0_5 3.434558 1_465
Mg0_3 Mg0_5 3.434558 1_555
Mg0_3 Mg1_3 3.545573 1_555
Mg0_4 Mg2_7 3.210215 1_544
Mg0_4 Mg2_1 3.210215 1_554
Mg0_4 Mg3_1 3.234488 1_554
Mg0_4 Mg3_7 3.234488 1_544
Mg0_4 Mg1_0 3.243828 1_655
Mg0_4 Mg1_6 3.243828 1_555
Mg0_4 Mg1_4 3.545573 1_555
Mg0_5 Mg2_6 3.210215 1_545
Mg0_5 Mg2_0 3.210215 1_555
Mg0_5 Mg3_6 3.234488 1_545
Mg0_5 Mg3_0 3.234488 1_555
Mg0_5 Mg1_1 3.243828 1_655
Mg0_5 Mg1_7 3.243828 1_555
Mg0_5 Mg1_5 3.545573 1_555
Mg0_6 Mg2_3 3.210215 1_554
Mg0_6 Mg2_5 3.210215 1_554
Mg0_6 Mg3_3 3.234488 1_554
Mg0_6 Mg3_5 3.234488 1_554
Mg0_6 Mg1_4 3.243828 1_565
Mg0_6 Mg1_2 3.243828 1_655
Mg0_6 Mg1_6 3.545573 1_555
Mg0_7 Mg2_4 3.210215 1_555
Mg0_7 Mg2_2 3.210215 1_555
Mg0_7 Mg3_4 3.234488 1_555
Mg0_7 Mg3_2 3.234488 1_555
Mg0_7 Mg1_5 3.243828 1_565
Mg0_7 Mg1_3 3.243828 1_655
Mg0_7 Mg1_7 3.545573 1_555
Mg1_0 Mg2_7 3.096327 1_444
Mg1_0 Mg3_3 3.210215 1_544
Mg1_0 Mg3_5 3.210215 1_454
Mg1_0 Mg1_6 3.434558 1_545
Mg1_0 Mg1_6 3.434558 1_455
Mg1_1 Mg2_6 3.096327 1_445
Mg1_1 Mg3_4 3.210215 1_455
Mg1_1 Mg3_2 3.210215 1_545
Mg1_1 Mg1_7 3.434558 1_545
Mg1_1 Mg1_7 3.434558 1_455
Mg1_2 Mg2_5 3.096327 1_454
Mg1_2 Mg3_7 3.210215 1_454
Mg1_2 Mg3_1 3.210215 1_554
Mg1_2 Mg1_4 3.434558 1_465
Mg1_2 Mg1_4 3.434558 1_555
Mg1_3 Mg2_4 3.096327 1_455
Mg1_3 Mg3_6 3.210215 1_455
Mg1_3 Mg3_0 3.210215 1_555
Mg1_3 Mg1_5 3.434558 1_465
Mg1_3 Mg1_5 3.434558 1_555
Mg1_4 Mg2_3 3.096327 1_544
Mg1_4 Mg3_7 3.210215 1_544
Mg1_4 Mg3_1 3.210215 1_554
Mg1_5 Mg2_2 3.096327 1_545
Mg1_5 Mg3_6 3.210215 1_545
Mg1_5 Mg3_0 3.210215 1_555
Mg1_6 Mg2_1 3.096327 1_554
Mg1_6 Mg3_3 3.210215 1_554
Mg1_6 Mg3_5 3.210215 1_554
Mg1_7 Mg2_0 3.096327 1_555
Mg1_7 Mg3_2 3.210215 1_555
Mg1_7 Mg3_4 3.210215 1_555
Mg2_0 Mg3_4 3.243828 1_555
Mg2_0 Mg3_2 3.243828 1_555
Mg2_0 Mg2_6 3.434558 1_455
Mg2_0 Mg2_6 3.434558 1_545
Mg2_0 Mg3_0 3.545573 1_555
Mg2_1 Mg3_5 3.243828 1_555
Mg2_1 Mg3_3 3.243828 1_555
Mg2_1 Mg2_7 3.434558 1_545
Mg2_1 Mg2_7 3.434558 1_455
Mg2_1 Mg3_1 3.545573 1_555
Mg2_2 Mg3_0 3.243828 1_565
Mg2_2 Mg3_6 3.243828 1_555
Mg2_2 Mg2_4 3.434558 1_465
Mg2_2 Mg2_4 3.434558 1_555
Mg2_2 Mg3_2 3.545573 1_555
Mg2_3 Mg3_7 3.243828 1_555
Mg2_3 Mg3_1 3.243828 1_565
Mg2_3 Mg2_5 3.434558 1_555
Mg2_3 Mg2_5 3.434558 1_465
Mg2_3 Mg3_3 3.545573 1_555
Mg2_4 Mg3_0 3.243828 1_655
Mg2_4 Mg3_6 3.243828 1_555
Mg2_4 Mg3_4 3.545573 1_555
Mg2_5 Mg3_7 3.243828 1_555
Mg2_5 Mg3_1 3.243828 1_655
Mg2_5 Mg3_5 3.545573 1_555
Mg2_6 Mg3_4 3.243828 1_565
Mg2_6 Mg3_2 3.243828 1_655
Mg2_6 Mg3_6 3.545573 1_555
Mg2_7 Mg3_5 3.243828 1_565
Mg2_7 Mg3_3 3.243828 1_655
Mg2_7 Mg3_7 3.545573 1_555
Mg3_0 Mg3_6 3.434558 1_455
Mg3_0 Mg3_6 3.434558 1_545
Mg3_1 Mg3_7 3.434558 1_545
Mg3_1 Mg3_7 3.434558 1_455
Mg3_2 Mg3_4 3.434558 1_555
Mg3_2 Mg3_4 3.434558 1_465
Mg3_3 Mg3_5 3.434558 1_465
Mg3_3 Mg3_5 3.434558 1_555
