# generated using pymatgen
data_Li2TiFeO4
_symmetry_space_group_name_H-M   'P 1'
_cell_length_a   4.32595615
_cell_length_b   9.79397019
_cell_length_c   7.81339747
_cell_angle_alpha   101.84494685
_cell_angle_beta   73.80185911
_cell_angle_gamma   89.97562211
_symmetry_Int_Tables_number   1
_chemical_formula_structural   Li2TiFeO4
_chemical_formula_sum   'Li8 Ti4 Fe4 O16'
_cell_volume   310.54314165
_cell_formula_units_Z   4
loop_
 _symmetry_equiv_pos_site_id
 _symmetry_equiv_pos_as_xyz
  1  'x, y, z'
loop_
 _atom_site_type_symbol
 _atom_site_label
 _atom_site_symmetry_multiplicity
 _atom_site_fract_x
 _atom_site_fract_y
 _atom_site_fract_z
 _atom_site_occupancy
  Li  Li0  1  0.30995600  0.43915900  0.37328900  1
  Li  Li1  1  0.05153700  0.68887000  0.87155700  1
  Li  Li2  1  0.81577000  0.93838300  0.37299500  1
  Li  Li3  1  0.56566100  0.18687400  0.87476600  1
  Li  Li4  1  0.75869800  0.22221100  0.52145700  1
  Li  Li5  1  0.50905400  0.47430200  0.01896500  1
  Li  Li6  1  0.24239500  0.72549900  0.51694200  1
  Li  Li7  1  0.98615700  0.97536100  0.01825500  1
  Ti  Ti0  1  0.92209700  0.63713000  0.25141500  1
  Ti  Ti1  1  0.57538600  0.88623600  0.75250800  1
  Ti  Ti2  1  0.41855000  0.13733200  0.25463700  1
  Ti  Ti3  1  0.17304100  0.38636500  0.75358100  1
  Fe  Fe0  1  0.68514500  0.55953200  0.62372900  1
  Fe  Fe1  1  0.43366900  0.81041900  0.12481900  1
  Fe  Fe2  1  0.18584200  0.05902500  0.62481000  1
  Fe  Fe3  1  0.93174200  0.30980300  0.12618700  1
  O  O0  1  0.17626400  0.54226900  0.63451500  1
  O  O1  1  0.92511300  0.79336700  0.13416800  1
  O  O2  1  0.68480200  0.04321100  0.63458900  1
  O  O3  1  0.42199400  0.29278400  0.13617200  1
  O  O4  1  0.81042500  0.46874300  0.35053900  1
  O  O5  1  0.58295300  0.71772700  0.85090400  1
  O  O6  1  0.31141000  0.96765600  0.35141100  1
  O  O7  1  0.06241200  0.21768700  0.85194400  1
  O  O8  1  0.35177500  0.62823900  0.24830700  1
  O  O9  1  0.14912100  0.87759300  0.74842500  1
  O  O10  1  0.84845500  0.12807900  0.25017700  1
  O  O11  1  0.60257400  0.37748800  0.74881600  1
  O  O12  1  0.00278800  0.50227100  0.99518500  1
  O  O13  1  0.75662100  0.75256900  0.49437400  1
  O  O14  1  0.50013600  0.00185500  0.99471900  1
  O  O15  1  0.24845700  0.25196000  0.49584200  1
loop_
_geom_bond_atom_site_label_1
_geom_bond_atom_site_label_2
_geom_bond_distance
_geom_bond_site_symmetry_2
Li0 O0 2.003739 1_555
Li0 O3 2.032392 1_555
Li0 O4 2.147038 1_555
Li0 O15 2.219940 1_555
Li0 O4 2.240573 1_455
Li0 O8 2.249397 1_555
Li1 O1 2.016952 1_456
Li1 O0 2.032990 1_555
Li1 O5 2.101352 1_455
Li1 O12 2.220102 1_555
Li1 O9 2.241492 1_555
Li1 O5 2.281026 1_555
Li2 O2 2.011142 1_565
Li2 O1 2.035198 1_555
Li2 O6 2.127559 1_655
Li2 O13 2.202345 1_555
Li2 O10 2.247002 1_565
Li2 O6 2.257358 1_555
Li3 O3 2.013796 1_556
Li3 O2 2.035384 1_555
Li3 O7 2.132978 1_655
Li3 O14 2.189018 1_555
Li3 O7 2.258420 1_555
Li3 O11 2.268465 1_555
Li4 O11 2.036011 1_555
Li4 O10 2.057131 1_555
Li4 O15 2.098005 1_655
Li4 O2 2.106178 1_555
Li4 O15 2.294972 1_555
Li5 O8 2.038825 1_555
Li5 O11 2.054200 1_554
Li5 O12 2.114589 1_654
Li5 O3 2.148842 1_555
Li5 O12 2.270120 1_554
Li6 O9 2.034525 1_555
Li6 O8 2.039993 1_555
Li6 O0 2.162578 1_555
Li6 O13 2.177815 1_455
Li6 O13 2.202434 1_555
Li7 O10 2.039613 1_565
Li7 O9 2.049435 1_654
Li7 O1 2.144009 1_555
Li7 O14 2.180944 1_564
Li7 O14 2.199281 1_664
Fe0 O5 2.044313 1_555
Fe0 O4 2.053199 1_555
Fe0 O0 2.157517 1_655
Fe0 O11 2.186961 1_555
Fe0 O0 2.187349 1_555
Fe0 O13 2.302624 1_555
Fe1 O6 2.035522 1_555
Fe1 O5 2.062143 1_554
Fe1 O1 2.155065 1_555
Fe1 O8 2.180974 1_555
Fe1 O1 2.188344 1_455
Fe1 O14 2.291533 1_564
Fe2 O7 2.046413 1_555
Fe2 O6 2.055852 1_545
Fe2 O2 2.154189 1_455
Fe2 O9 2.175967 1_545
Fe2 O2 2.187566 1_555
Fe2 O15 2.299829 1_555
Fe3 O4 2.034023 1_555
Fe3 O7 2.062788 1_654
Fe3 O3 2.151523 1_655
Fe3 O10 2.179379 1_555
Fe3 O3 2.192308 1_555
Fe3 O12 2.304898 1_654
O0 Ti3 1.942445 1_555
O1 Ti0 1.936409 1_555
O2 Ti1 1.943030 1_545
O3 Ti2 1.935413 1_555
O4 Ti0 1.967052 1_555
O5 Ti1 1.962331 1_555
O6 Ti2 1.967007 1_565
O7 Ti3 1.966111 1_555
O8 Ti0 1.853915 1_455
O8 Ti0 2.475466 1_555
O9 Ti1 1.854826 1_555
O9 Ti1 2.474431 1_455
O10 Ti2 1.852161 1_555
O10 Ti2 2.477588 1_655
O11 Ti3 1.849748 1_555
O11 Ti3 2.479752 1_655
O12 Ti3 1.933527 1_555
O12 Ti0 2.097294 1_456
O13 Ti0 1.937633 1_555
O13 Ti1 2.104601 1_555
O14 Ti1 1.935449 1_545
O14 Ti2 2.122009 1_556
O15 Ti2 1.926302 1_555
O15 Ti3 2.107014 1_555
