# generated using pymatgen
data_HfSc3Si8
_symmetry_space_group_name_H-M   'P 1'
_cell_length_a   3.67381400
_cell_length_b   3.73359600
_cell_length_c   14.59969300
_cell_angle_alpha   90.00000000
_cell_angle_beta   90.00000000
_cell_angle_gamma   90.00000000
_symmetry_Int_Tables_number   1
_chemical_formula_structural   HfSc3Si8
_chemical_formula_sum   'Hf1 Sc3 Si8'
_cell_volume   200.25723295
_cell_formula_units_Z   1
loop_
 _symmetry_equiv_pos_site_id
 _symmetry_equiv_pos_as_xyz
  1  'x, y, z'
loop_
 _atom_site_type_symbol
 _atom_site_label
 _atom_site_symmetry_multiplicity
 _atom_site_fract_x
 _atom_site_fract_y
 _atom_site_fract_z
 _atom_site_occupancy
  Hf  Hf0  1  0.00000000  0.00000000  0.10424000  1
  Sc  Sc0  1  0.00000000  0.50000000  0.60278100  1
  Sc  Sc1  1  0.50000000  0.50000000  0.39631900  1
  Sc  Sc2  1  0.50000000  0.00000000  0.89810000  1
  Si  Si0  1  0.00000000  0.00000000  0.44869600  1
  Si  Si1  1  0.00000000  0.50000000  0.94513100  1
  Si  Si2  1  0.50000000  0.50000000  0.05280600  1
  Si  Si3  1  0.50000000  0.00000000  0.55275500  1
  Si  Si4  1  0.00000000  0.50000000  0.24894800  1
  Si  Si5  1  0.00000000  0.00000000  0.74952800  1
  Si  Si6  1  0.50000000  0.00000000  0.24996600  1
  Si  Si7  1  0.50000000  0.50000000  0.75073000  1
loop_
_geom_bond_atom_site_label_1
_geom_bond_atom_site_label_2
_geom_bond_distance
_geom_bond_site_symmetry_2
Hf0 Si2 2.724526 1_445
Hf0 Si2 2.724526 1_555
Hf0 Si2 2.724526 1_545
Hf0 Si2 2.724526 1_455
Hf0 Si6 2.810821 1_555
Hf0 Si6 2.810821 1_455
Hf0 Si4 2.819291 1_545
Hf0 Si4 2.819291 1_555
Hf0 Si1 2.980100 1_544
Hf0 Si1 2.980100 1_554
Sc0 Si3 2.718933 1_565
Sc0 Si3 2.718933 1_455
Sc0 Si3 2.718933 1_555
Sc0 Si3 2.718933 1_465
Sc0 Si7 2.835467 1_455
Sc0 Si7 2.835467 1_555
Sc0 Si5 2.841668 1_565
Sc0 Si5 2.841668 1_555
Sc0 Si0 2.923287 1_555
Sc0 Si0 2.923287 1_565
Sc1 Si0 2.728353 1_655
Sc1 Si0 2.728353 1_565
Sc1 Si0 2.728353 1_555
Sc1 Si0 2.728353 1_665
Sc1 Si4 2.829043 1_655
Sc1 Si4 2.829043 1_555
Sc1 Si6 2.837333 1_555
Sc1 Si6 2.837333 1_565
Sc1 Si3 2.949782 1_565
Sc1 Si3 2.949782 1_555
Sc2 Si1 2.707514 1_555
Sc2 Si1 2.707514 1_645
Sc2 Si1 2.707514 1_655
Sc2 Si1 2.707514 1_545
Sc2 Si5 2.842402 1_555
Sc2 Si5 2.842402 1_655
Sc2 Si7 2.848531 1_555
Sc2 Si7 2.848531 1_545
Sc2 Si2 2.930270 1_556
Sc2 Si2 2.930270 1_546
Si0 Si3 2.383754 1_455
Si0 Si3 2.383754 1_555
Si1 Si2 2.417743 1_556
Si1 Si2 2.417743 1_456
Si4 Si6 2.619042 1_455
Si4 Si6 2.619042 1_555
Si4 Si6 2.619042 1_565
Si4 Si6 2.619042 1_465
Si5 Si7 2.619059 1_455
Si5 Si7 2.619059 1_555
Si5 Si7 2.619059 1_545
Si5 Si7 2.619059 1_445
