# generated using pymatgen
data_Ho4In20Ni11
_symmetry_space_group_name_H-M   'P 1'
_cell_length_a   11.50971059
_cell_length_b   11.50971059
_cell_length_c   16.67779687
_cell_angle_alpha   56.48861279
_cell_angle_beta   56.48861279
_cell_angle_gamma   21.65349100
_symmetry_Int_Tables_number   1
_chemical_formula_structural   Ho4In20Ni11
_chemical_formula_sum   'Ho4 In20 Ni11'
_cell_volume   674.25445373
_cell_formula_units_Z   1
loop_
 _symmetry_equiv_pos_site_id
 _symmetry_equiv_pos_as_xyz
  1  'x, y, z'
loop_
 _atom_site_type_symbol
 _atom_site_label
 _atom_site_symmetry_multiplicity
 _atom_site_fract_x
 _atom_site_fract_y
 _atom_site_fract_z
 _atom_site_occupancy
  Ho  Ho0  1  0.11924200  0.11924200  0.66922000  1
  Ho  Ho1  1  0.88075800  0.88075800  0.33078000  1
  Ho  Ho2  1  0.77086500  0.77086500  0.82657500  1
  Ho  Ho3  1  0.22913500  0.22913500  0.17342500  1
  In  In0  1  0.01055000  0.01055000  0.90470400  1
  In  In1  1  0.98945000  0.98945000  0.09529600  1
  In  In2  1  0.06312400  0.06312400  0.20985800  1
  In  In3  1  0.93687600  0.93687600  0.79014200  1
  In  In4  1  0.11512400  0.11512400  0.44843400  1
  In  In5  1  0.88487600  0.88487600  0.55156600  1
  In  In6  1  0.20248000  0.20248000  0.99714000  1
  In  In7  1  0.79752000  0.79752000  0.00286000  1
  In  In8  1  0.24703000  0.24703000  0.70906900  1
  In  In9  1  0.75297000  0.75297000  0.29093100  1
  In  In10  1  0.29673200  0.29673200  0.50241100  1
  In  In11  1  0.70326800  0.70326800  0.49758900  1
  In  In12  1  0.38869300  0.38869300  0.69108500  1
  In  In13  1  0.61130700  0.61130700  0.30891500  1
  In  In14  1  0.39825400  0.39825400  0.99031200  1
  In  In15  1  0.60174600  0.60174600  0.00968800  1
  In  In16  1  0.54103400  0.54103400  0.62246200  1
  In  In17  1  0.45896600  0.45896600  0.37753800  1
  In  In18  1  0.62881500  0.62881500  0.80406200  1
  In  In19  1  0.37118500  0.37118500  0.19593800  1
  Ni  Ni0  1  0.02237400  0.02237400  0.40019300  1
  Ni  Ni1  1  0.97762600  0.97762600  0.59980700  1
  Ni  Ni2  1  0.13681300  0.13681300  0.89742900  1
  Ni  Ni3  1  0.86318700  0.86318700  0.10257100  1
  Ni  Ni4  1  0.25420000  0.25420000  0.38237500  1
  Ni  Ni5  1  0.74580000  0.74580000  0.61762500  1
  Ni  Ni6  1  0.34679900  0.34679900  0.87835200  1
  Ni  Ni7  1  0.65320100  0.65320100  0.12164800  1
  Ni  Ni8  1  0.50750800  0.50750800  0.80486500  1
  Ni  Ni9  1  0.49249200  0.49249200  0.19513500  1
  Ni  Ni10  1  0.50000000  0.50000000  0.50000000  1
loop_
_geom_bond_atom_site_label_1
_geom_bond_atom_site_label_2
_geom_bond_distance
_geom_bond_site_symmetry_2
Ho0 Ni8 3.122344 1_455
Ho0 Ni8 3.122344 1_545
Ho0 In16 3.155824 1_455
Ho0 In16 3.155824 1_545
Ho0 In18 3.213352 1_455
Ho0 In18 3.213352 1_545
Ho0 In11 3.219217 1_455
Ho0 In11 3.219217 1_545
Ho0 In0 3.257770 1_555
Ho0 Ni5 3.291554 1_455
Ho0 Ni5 3.291554 1_545
Ho0 In8 3.308792 1_555
Ho0 In10 3.360462 1_555
Ho0 In3 3.423435 1_445
Ho0 In4 3.735354 1_555
Ho1 Ni9 3.122344 1_565
Ho1 Ni9 3.122344 1_655
Ho1 In17 3.155824 1_565
Ho1 In17 3.155824 1_655
Ho1 In19 3.213352 1_655
Ho1 In19 3.213352 1_565
Ho1 In10 3.219217 1_565
Ho1 In10 3.219217 1_655
Ho1 In1 3.257770 1_555
Ho1 Ni4 3.291554 1_655
Ho1 Ni4 3.291554 1_565
Ho1 In9 3.308792 1_555
Ho1 In11 3.360462 1_555
Ho1 In2 3.423435 1_665
Ho1 In5 3.735354 1_555
Ho2 In8 3.161085 1_565
Ho2 In8 3.161085 1_655
Ho2 Ni6 3.167663 1_655
Ho2 Ni6 3.167663 1_565
Ho2 In12 3.179592 1_655
Ho2 In12 3.179592 1_565
Ho2 In6 3.195650 1_565
Ho2 In6 3.195650 1_655
Ho2 In15 3.289290 1_556
Ho2 In7 3.316476 1_556
Ho2 Ni2 3.351164 1_655
Ho2 Ni2 3.351164 1_565
Ho2 In18 3.436815 1_555
Ho2 In3 3.448715 1_555
Ho2 In5 3.793364 1_555
Ho3 In9 3.161085 1_455
Ho3 In9 3.161085 1_545
Ho3 Ni7 3.167663 1_545
Ho3 Ni7 3.167663 1_455
Ho3 In13 3.179592 1_455
Ho3 In13 3.179592 1_545
Ho3 In7 3.195650 1_455
Ho3 In7 3.195650 1_545
Ho3 In14 3.289290 1_554
Ho3 In6 3.316476 1_554
Ho3 Ni3 3.351164 1_545
Ho3 Ni3 3.351164 1_455
Ho3 In19 3.436815 1_555
Ho3 In2 3.448715 1_555
Ho3 In4 3.793364 1_555
In0 Ni8 2.753214 1_455
In0 Ni8 2.753214 1_545
In0 Ni2 2.788370 1_555
In0 In1 2.937116 1_446
In0 In14 3.013921 1_545
In0 In14 3.013921 1_455
In0 In18 3.097698 1_545
In0 In18 3.097698 1_455
In0 Ni3 3.103262 1_446
In0 In3 3.162789 1_445
In1 Ni9 2.753214 1_655
In1 Ni9 2.753214 1_565
In1 Ni3 2.788370 1_555
In1 In15 3.013921 1_655
In1 In15 3.013921 1_565
In1 In19 3.097698 1_565
In1 In19 3.097698 1_655
In1 Ni2 3.103262 1_664
In1 In2 3.162789 1_665
In2 Ni7 2.760054 1_455
In2 Ni7 2.760054 1_545
In2 Ni0 2.763604 1_555
In2 Ni9 2.779496 1_545
In2 Ni9 2.779496 1_455
In2 In6 3.153884 1_554
In3 Ni6 2.760054 1_565
In3 Ni6 2.760054 1_655
In3 Ni1 2.763604 1_555
In3 Ni8 2.779496 1_655
In3 Ni8 2.779496 1_565
In3 In7 3.153884 1_556
In4 Ni0 2.634706 1_555
In4 Ni4 2.684546 1_555
In4 Ni1 2.686029 1_445
In4 Ni10 3.110042 1_455
In4 Ni10 3.110042 1_545
In4 In9 3.476206 1_455
In4 In9 3.476206 1_545
In5 Ni1 2.634706 1_555
In5 Ni5 2.684546 1_555
In5 Ni0 2.686029 1_665
In5 Ni10 3.110042 1_655
In5 Ni10 3.110042 1_565
In5 In8 3.476206 1_655
In5 In8 3.476206 1_565
In6 Ni6 2.702711 1_555
In6 Ni7 2.761610 1_456
In6 Ni7 2.761610 1_546
In6 Ni2 2.783074 1_555
In6 In7 3.087258 1_456
In6 In7 3.087258 1_546
In7 Ni7 2.702711 1_555
In7 Ni6 2.761610 1_564
In7 Ni6 2.761610 1_654
In7 Ni3 2.783074 1_555
In8 Ni5 2.654902 1_545
In8 Ni5 2.654902 1_455
In8 Ni2 2.697728 1_555
In9 Ni4 2.654902 1_655
In9 Ni4 2.654902 1_565
In9 Ni3 2.697728 1_555
In10 Ni4 2.663973 1_555
In10 Ni5 2.684190 1_455
In10 Ni5 2.684190 1_545
In10 In8 2.964397 1_555
In10 In17 3.033787 1_555
In10 In11 3.055693 1_545
In10 In11 3.055693 1_455
In10 In5 3.339855 1_455
In10 In5 3.339855 1_545
In11 Ni5 2.663973 1_555
In11 Ni4 2.684190 1_565
In11 Ni4 2.684190 1_655
In11 In9 2.964397 1_555
In11 In16 3.033787 1_555
In11 In4 3.339855 1_565
In11 In4 3.339855 1_655
In12 Ni6 2.706620 1_555
In12 Ni10 2.733707 1_555
In12 Ni1 2.755629 1_455
In12 Ni1 2.755629 1_545
In12 In16 2.956669 1_555
In12 In8 3.044481 1_555
In12 In5 3.212739 1_455
In12 In5 3.212739 1_545
In12 In3 3.257844 1_455
In12 In3 3.257844 1_545
In13 Ni7 2.706620 1_555
In13 Ni10 2.733707 1_555
In13 Ni0 2.755629 1_565
In13 Ni0 2.755629 1_655
In13 In17 2.956669 1_555
In13 In9 3.044481 1_555
In13 In4 3.212739 1_655
In13 In4 3.212739 1_565
In13 In2 3.257844 1_565
In13 In2 3.257844 1_655
In14 Ni8 2.660569 1_555
In14 Ni3 2.671936 1_546
In14 Ni3 2.671936 1_456
In14 Ni6 2.698559 1_555
In14 In7 3.060950 1_456
In14 In7 3.060950 1_546
In14 In19 3.126612 1_556
In15 Ni9 2.660569 1_555
In15 Ni2 2.671936 1_564
In15 Ni2 2.671936 1_654
In15 Ni7 2.698559 1_555
In15 In6 3.060950 1_564
In15 In6 3.060950 1_654
In15 In18 3.126612 1_554
In16 Ni10 2.676260 1_555
In16 Ni8 2.690068 1_555
In16 Ni1 2.735177 1_545
In16 Ni1 2.735177 1_455
In16 In4 3.230842 1_565
In16 In4 3.230842 1_655
In16 In3 3.261418 1_455
In16 In3 3.261418 1_545
In17 Ni10 2.676260 1_555
In17 Ni9 2.690068 1_555
In17 Ni0 2.735177 1_655
In17 Ni0 2.735177 1_565
In17 In5 3.230842 1_545
In17 In5 3.230842 1_455
In17 In2 3.261418 1_655
In17 In2 3.261418 1_565
In18 Ni5 2.723651 1_555
In18 Ni2 2.729132 1_655
In18 Ni2 2.729132 1_565
In18 Ni8 2.735206 1_555
In18 In8 3.093141 1_565
In18 In8 3.093141 1_655
In19 Ni4 2.723651 1_555
In19 Ni3 2.729132 1_455
In19 Ni3 2.729132 1_545
In19 Ni9 2.735206 1_555
In19 In9 3.093141 1_455
In19 In9 3.093141 1_545
Ni0 Ni10 2.598882 1_545
Ni0 Ni10 2.598882 1_455
Ni0 Ni1 2.884455 1_445
Ni1 Ni10 2.598882 1_565
Ni1 Ni10 2.598882 1_655
Ni6 Ni8 3.114239 1_555
Ni7 Ni9 3.114239 1_555
