# generated using pymatgen
data_Pr3(AgGe)4
_symmetry_space_group_name_H-M   'P 1'
_cell_length_a   4.46712064
_cell_length_b   7.15104096
_cell_length_c   8.54372480
_cell_angle_alpha   114.73456446
_cell_angle_beta   105.15494225
_cell_angle_gamma   89.99761179
_symmetry_Int_Tables_number   1
_chemical_formula_structural   Pr3(AgGe)4
_chemical_formula_sum   'Pr3 Ag4 Ge4'
_cell_volume   237.39694579
_cell_formula_units_Z   1
loop_
 _symmetry_equiv_pos_site_id
 _symmetry_equiv_pos_as_xyz
  1  'x, y, z'
loop_
 _atom_site_type_symbol
 _atom_site_label
 _atom_site_symmetry_multiplicity
 _atom_site_fract_x
 _atom_site_fract_y
 _atom_site_fract_z
 _atom_site_occupancy
  Pr  Pr0  1  0.87046634  0.37063005  0.74085704  1
  Pr  Pr1  1  0.12953359  0.62936984  0.25914281  1
  Pr  Pr2  1  -0.00000002  -0.00000031  -0.00000018  1
  Ag  Ag0  1  0.33250232  0.63845023  0.66465352  1
  Ag  Ag1  1  0.66749750  0.36155021  0.33534708  1
  Ag  Ag2  1  0.33208879  0.02621105  0.66471361  1
  Ag  Ag3  1  0.66791096  0.97378893  0.33528667  1
  Ge  Ge0  1  0.21647716  0.21645137  0.43278557  1
  Ge  Ge1  1  0.78352279  0.78354878  0.56721482  1
  Ge  Ge2  1  0.50017971  0.68030052  0.99992638  1
  Ge  Ge3  1  0.49981986  0.31969934  0.00007370  1
loop_
_geom_bond_atom_site_label_1
_geom_bond_atom_site_label_2
_geom_bond_distance
_geom_bond_site_symmetry_2
Ag0 Ge2 2.648896 1_555
Ag0 Ge1 2.725607 1_555
Ag0 Ge1 2.727436 1_455
Ag0 Ag2 2.772679 1_565
Ag0 Ge0 2.785736 1_555
Ag0 Pr0 3.176787 1_555
Ag0 Pr0 3.177768 1_455
Ag0 Pr1 3.316451 1_555
Ag0 Pr2 3.622066 1_666
Ag0 Pr2 3.622911 1_566
Ag1 Ge3 2.648898 1_555
Ag1 Ge0 2.725607 1_555
Ag1 Ge0 2.727437 1_655
Ag1 Ag3 2.772682 1_545
Ag1 Ge1 2.785734 1_555
Ag1 Pr1 3.176786 1_555
Ag1 Pr1 3.177769 1_655
Ag1 Pr0 3.316447 1_555
Ag1 Pr2 3.622070 1_555
Ag1 Pr2 3.622919 1_655
Ag2 Ge3 2.649739 1_556
Ag2 Ge1 2.726450 1_445
Ag2 Ge1 2.727678 1_545
Ag2 Ge0 2.786508 1_555
Ag2 Pr0 3.178346 1_455
Ag2 Pr0 3.180406 1_555
Ag2 Pr1 3.318263 1_545
Ag2 Pr2 3.621190 1_556
Ag2 Pr2 3.622646 1_656
Ag3 Ge2 2.649740 1_554
Ag3 Ge0 2.726451 1_665
Ag3 Ge0 2.727678 1_565
Ag3 Ge1 2.786508 1_555
Ag3 Pr1 3.178347 1_655
Ag3 Pr1 3.180405 1_555
Ag3 Pr0 3.318260 1_565
Ag3 Pr2 3.621194 1_665
Ag3 Pr2 3.622648 1_565
Ge0 Pr0 3.198371 1_555
Ge0 Pr0 3.198609 1_455
Ge0 Pr2 3.216260 1_555
Ge1 Pr1 3.198373 1_555
Ge1 Pr1 3.198613 1_655
Ge1 Pr2 3.216254 1_666
Ge2 Ge3 2.579201 1_556
Ge2 Pr2 3.195360 1_666
Ge2 Pr2 3.196578 1_566
Ge2 Pr0 3.217364 1_555
Ge2 Pr0 3.218591 1_455
Ge2 Pr1 3.218819 1_656
Ge2 Pr1 3.220426 1_556
Ge3 Pr2 3.195360 1_555
Ge3 Pr2 3.196582 1_655
Ge3 Pr1 3.217362 1_555
Ge3 Pr1 3.218592 1_655
Ge3 Pr0 3.218819 1_454
Ge3 Pr0 3.220429 1_554
