# generated using pymatgen
data_SrCa3Zr16(PO4)24
_symmetry_space_group_name_H-M   'P 1'
_cell_length_a   8.93387794
_cell_length_b   9.25744456
_cell_length_c   29.73032162
_cell_angle_alpha   97.10044853
_cell_angle_beta   81.35992972
_cell_angle_gamma   118.85052247
_symmetry_Int_Tables_number   1
_chemical_formula_structural   SrCa3Zr16(PO4)24
_chemical_formula_sum   'Sr1 Ca3 Zr16 P24 O96'
_cell_volume   2125.50074299
_cell_formula_units_Z   1
loop_
 _symmetry_equiv_pos_site_id
 _symmetry_equiv_pos_as_xyz
  1  'x, y, z'
loop_
 _atom_site_type_symbol
 _atom_site_label
 _atom_site_symmetry_multiplicity
 _atom_site_fract_x
 _atom_site_fract_y
 _atom_site_fract_z
 _atom_site_occupancy
  Sr  Sr0  1  0.75000000  0.25000000  0.75000000  1
  Ca  Ca0  1  0.99997254  -0.00001666  0.00000073  1
  Ca  Ca1  1  0.25000000  0.75000000  0.25000000  1
  Ca  Ca2  1  0.50002746  0.50001666  0.49999927  1
  Zr  Zr0  1  0.69953806  0.73897075  0.33990781  1
  Zr  Zr1  1  0.94954047  0.48899421  0.58985440  1
  Zr  Zr2  1  0.19944831  0.23876913  0.83994052  1
  Zr  Zr3  1  0.44954145  0.98896405  0.08990561  1
  Zr  Zr4  1  0.05045755  0.51103495  0.41009339  1
  Zr  Zr5  1  0.30055069  0.26122987  0.66005948  1
  Zr  Zr6  1  0.55045953  0.01100479  0.91014460  1
  Zr  Zr7  1  0.80046094  0.76102825  0.16009119  1
  Zr  Zr8  1  0.06359661  0.33993155  0.21272120  1
  Zr  Zr9  1  0.31361549  0.08994116  0.46271690  1
  Zr  Zr10  1  0.56332723  0.83869490  0.71245946  1
  Zr  Zr11  1  0.81341146  0.59015810  0.96289227  1
  Zr  Zr12  1  0.68658854  0.90984190  0.53710773  1
  Zr  Zr13  1  0.93667277  0.66130510  0.78754054  1
  Zr  Zr14  1  0.18638451  0.41005884  0.03728310  1
  Zr  Zr15  1  0.43640339  0.16006845  0.28727880  1
  P  P0  1  0.39484391  0.87841909  0.36349839  1
  P  P1  1  0.64487943  0.62823452  0.61342826  1
  P  P2  1  0.89582109  0.37954529  0.86397390  1
  P  P3  1  0.14486695  0.12843657  0.11350255  1
  P  P4  1  0.01440353  0.98407085  0.25783436  1
  P  P5  1  0.26441389  0.73408446  0.50783980  1
  P  P6  1  0.51365759  0.48521509  0.75798636  1
  P  P7  1  0.76441313  0.23412345  0.00784883  1
  P  P8  1  0.89317318  0.80275784  0.43912358  1
  P  P9  1  0.14443990  0.55433438  0.68895692  1
  P  P10  1  0.39313572  0.30277345  0.93914299  1
  P  P11  1  0.64312353  0.05275891  0.18914439  1
  P  P12  1  0.35513305  0.37156343  0.38649745  1
  P  P13  1  0.60417891  0.12045471  0.63602610  1
  P  P14  1  0.85512057  0.87176548  0.88657174  1
  P  P15  1  0.10515609  0.62158091  0.13650161  1
  P  P16  1  0.73558687  0.26587655  0.49215117  1
  P  P17  1  0.98634241  0.01478491  0.74201364  1
  P  P18  1  0.23558611  0.76591554  0.99216020  1
  P  P19  1  0.48559647  0.51592915  0.24216564  1
  P  P20  1  0.85687647  0.44724109  0.31085561  1
  P  P21  1  0.10686428  0.19722655  0.56085701  1
  P  P22  1  0.35556010  0.94566562  0.81104308  1
  P  P23  1  0.60682682  0.69724216  0.06087642  1
  O  O0  1  0.08081640  0.35074787  0.56581306  1
  O  O1  1  0.33182710  0.10066906  0.81563175  1
  O  O2  1  0.58083619  0.85079830  0.06581630  1
  O  O3  1  0.83086246  0.60081816  0.31581436  1
  O  O4  1  0.76653241  0.28710145  0.62901941  1
  O  O5  1  0.01713212  0.03797222  0.87875449  1
  O  O6  1  0.26706891  0.78785606  0.12875787  1
  O  O7  1  0.51705772  0.53784494  0.37875598  1
  O  O8  1  0.79783081  0.38196540  0.53457320  1
  O  O9  1  0.04699690  0.13195716  0.78438255  1
  O  O10  1  0.29790089  0.88206431  0.03457034  1
  O  O11  1  0.54785503  0.63207917  0.28457427  1
  O  O12  1  0.66913754  0.89918184  0.18418564  1
  O  O13  1  0.91916381  0.64920170  0.43418370  1
  O  O14  1  0.16817290  0.39933094  0.68436825  1
  O  O15  1  0.41918360  0.14925213  0.93418694  1
  O  O16  1  0.98294228  0.96215506  0.12124402  1
  O  O17  1  0.23293109  0.71214394  0.37124213  1
  O  O18  1  0.48286788  0.46202778  0.62124551  1
  O  O19  1  0.73346759  0.21289855  0.87098059  1
  O  O20  1  0.95214497  0.86792083  0.21542573  1
  O  O21  1  0.20209911  0.61793569  0.46542966  1
  O  O22  1  0.45300310  0.36804284  0.71561745  1
  O  O23  1  0.70216919  0.11803460  0.96542680  1
  O  O24  1  0.84505717  0.83196418  0.39493176  1
  O  O25  1  0.09537577  0.58187462  0.64467797  1
  O  O26  1  0.34507851  0.33190227  0.89492753  1
  O  O27  1  0.59504320  0.08191916  0.14493604  1
  O  O28  1  0.55955361  0.86433786  0.36253332  1
  O  O29  1  0.80956796  0.61408079  0.61249272  1
  O  O30  1  0.05977605  0.36408672  0.86274502  1
  O  O31  1  0.30957295  0.11436097  0.11253320  1
  O  O32  1  0.87899931  0.92762760  0.29925981  1
  O  O33  1  0.12900490  0.67765390  0.54925590  1
  O  O34  1  0.37793678  0.42728959  0.79928979  1
  O  O35  1  0.62898186  0.17758275  0.04926432  1
  O  O36  1  0.90495680  0.41808084  0.35506396  1
  O  O37  1  0.15492149  0.16809773  0.60507247  1
  O  O38  1  0.40462423  0.91812538  0.85532203  1
  O  O39  1  0.65494283  0.66803582  0.10506824  1
  O  O40  1  0.19042705  0.38563903  0.38746680  1
  O  O41  1  0.44022395  0.13591328  0.63725498  1
  O  O42  1  0.69043204  0.88591921  0.88750728  1
  O  O43  1  0.94044639  0.63566214  0.13746668  1
  O  O44  1  0.87101814  0.32241725  0.45073568  1
  O  O45  1  0.12206322  0.07271041  0.70071021  1
  O  O46  1  0.37099510  0.82234610  0.95074410  1
  O  O47  1  0.62100069  0.57237240  0.20074019  1
  O  O48  1  0.35973320  0.31504204  0.43350663  1
  O  O49  1  0.60575726  0.05891158  0.68234808  1
  O  O50  1  0.85975763  0.81527240  0.93358586  1
  O  O51  1  0.10976193  0.56506259  0.18350611  1
  O  O52  1  0.56984923  0.26700969  0.48156088  1
  O  O53  1  0.81925596  0.01057303  0.73081003  1
  O  O54  1  0.06990514  0.76707509  0.98157439  1
  O  O55  1  0.31984289  0.51699232  0.23156049  1
  O  O56  1  0.00609342  0.47651134  0.27206570  1
  O  O57  1  0.25613818  0.22649821  0.52207091  1
  O  O58  1  0.50179839  0.96927014  0.77205952  1
  O  O59  1  0.75609857  0.72661459  0.02211676  1
  O  O60  1  0.39023807  0.93493741  0.31649389  1
  O  O61  1  0.64024237  0.68472760  0.56641414  1
  O  O62  1  0.89424274  0.44108842  0.81765192  1
  O  O63  1  0.14026680  0.18495796  0.06649337  1
  O  O64  1  0.18015711  0.98300768  0.26843951  1
  O  O65  1  0.43009486  0.73292491  0.51842561  1
  O  O66  1  0.68074404  0.48942697  0.76918997  1
  O  O67  1  0.93015077  0.23299031  0.01843912  1
  O  O68  1  0.74390143  0.77338541  0.47788324  1
  O  O69  1  0.99820161  0.53072986  0.72794048  1
  O  O70  1  0.24386182  0.27350179  0.97792909  1
  O  O71  1  0.49390658  0.02348866  0.22793430  1
  O  O72  1  0.14642347  0.25861469  0.15191487  1
  O  O73  1  0.39642894  0.00859390  0.40191821  1
  O  O74  1  0.64668326  0.75822538  0.65169513  1
  O  O75  1  0.89667963  0.50856132  0.90257823  1
  O  O76  1  0.05696517  0.16187444  0.24861861  1
  O  O77  1  0.30693421  0.91187955  0.49862775  1
  O  O78  1  0.55520753  0.66187364  0.74858577  1
  O  O79  1  0.80690212  0.41185782  0.99867341  1
  O  O80  1  0.80973489  0.20841973  0.20208662  1
  O  O81  1  0.05972344  0.95843058  0.45208754  1
  O  O82  1  0.31111743  0.70887601  0.70162974  1
  O  O83  1  0.55967041  0.45846439  0.95208934  1
  O  O84  1  0.60332037  0.99143868  0.59742177  1
  O  O85  1  0.85331674  0.74177462  0.84830487  1
  O  O86  1  0.10357106  0.49140610  0.09808179  1
  O  O87  1  0.35357653  0.24138531  0.34808513  1
  O  O88  1  0.69309788  0.08814218  0.50132659  1
  O  O89  1  0.94479247  0.83812636  0.75141423  1
  O  O90  1  0.19306579  0.58812045  0.00137225  1
  O  O91  1  0.44303483  0.33812556  0.25138139  1
  O  O92  1  0.94032959  0.04153561  0.54791066  1
  O  O93  1  0.18888257  0.79112399  0.79837026  1
  O  O94  1  0.44027656  0.54156942  0.04791246  1
  O  O95  1  0.69026511  0.29158027  0.29791338  1
loop_
_geom_bond_atom_site_label_1
_geom_bond_atom_site_label_2
_geom_bond_distance
_geom_bond_site_symmetry_2
Ca0 O50 2.496639 1_544
Ca0 O59 2.498714 1_545
Ca0 O54 2.498906 1_644
Ca0 O67 2.499180 1_555
Ca0 O70 2.499287 1_654
Ca0 O63 2.499494 1_655
Ca1 O56 2.499123 1_555
Ca1 O71 2.499123 1_565
Ca1 O60 2.499259 1_555
Ca1 O51 2.499259 1_555
Ca1 O55 2.499308 1_555
Ca1 O64 2.499308 1_555
Ca2 O61 2.496639 1_555
Ca2 O68 2.498714 1_555
Ca2 O65 2.498906 1_555
Ca2 O52 2.499180 1_555
Ca2 O57 2.499287 1_555
Ca2 O48 2.499494 1_555
O0 P21 1.533889 1_555
O0 Zr1 2.120084 1_455
O1 P22 1.535948 1_545
O1 Zr2 2.128224 1_555
O2 P23 1.533928 1_555
O2 Zr3 2.119855 1_555
O3 P20 1.534219 1_555
O3 Zr0 2.119987 1_555
O4 P13 1.535061 1_555
O4 Zr1 2.130533 1_555
O5 P14 1.534450 1_445
O5 Zr2 2.117459 1_555
O6 P15 1.534133 1_555
O6 Zr3 2.120093 1_555
O7 P12 1.534203 1_555
O7 Zr0 2.120141 1_555
O8 P16 1.534198 1_555
O8 Zr1 2.119107 1_555
O9 P17 1.535249 1_455
O9 Zr2 2.129203 1_555
O10 P18 1.534247 1_554
O10 Zr3 2.120013 1_555
O11 P19 1.534142 1_555
O11 Zr0 2.120167 1_555
O12 P11 1.534219 1_565
O12 Zr7 2.119993 1_555
O13 P8 1.533928 1_555
O13 Zr4 2.119861 1_655
O14 P9 1.535948 1_555
O14 Zr5 2.128225 1_555
O15 P10 1.533889 1_555
O15 Zr6 2.120097 1_555
O16 P3 1.534203 1_665
O16 Zr7 2.120133 1_555
O17 P0 1.534133 1_555
O17 Zr4 2.120085 1_555
O18 P1 1.534450 1_555
O18 Zr5 2.117467 1_555
O19 P2 1.535061 1_555
O19 Zr6 2.130522 1_555
O20 P4 1.534142 1_655
O20 Zr7 2.120197 1_555
O21 P5 1.534247 1_555
O21 Zr4 2.120042 1_555
O22 P6 1.535249 1_555
O22 Zr5 2.129209 1_555
O23 P7 1.534198 1_556
O23 Zr6 2.119131 1_555
O24 P8 1.534184 1_555
O24 Zr0 2.078003 1_555
O25 P9 1.534376 1_555
O25 Zr1 2.074587 1_455
O26 P10 1.534273 1_555
O26 Zr2 2.077652 1_555
O27 P11 1.534301 1_555
O27 Zr3 2.078074 1_545
O28 P0 1.534478 1_555
O28 Zr0 2.078071 1_555
O29 P1 1.534775 1_555
O29 Zr1 2.075946 1_555
O30 P2 1.533700 1_455
O30 Zr2 2.076290 1_555
O31 P3 1.534399 1_555
O31 Zr3 2.078188 1_545
O32 P4 1.534488 1_655
O32 Zr0 2.078106 1_555
O33 P5 1.534301 1_555
O33 Zr1 2.077290 1_455
O34 P6 1.534145 1_555
O34 Zr2 2.075062 1_555
O35 P7 1.534449 1_555
O35 Zr3 2.077749 1_545
O36 P20 1.534301 1_555
O36 Zr4 2.078044 1_655
O37 P21 1.534273 1_555
O37 Zr5 2.077647 1_555
O38 P22 1.534376 1_555
O38 Zr6 2.074562 1_565
O39 P23 1.534184 1_555
O39 Zr7 2.077974 1_555
O40 P12 1.534399 1_555
O40 Zr4 2.078183 1_555
O41 P13 1.533700 1_555
O41 Zr5 2.076290 1_555
O42 P14 1.534775 1_555
O42 Zr6 2.075934 1_565
O43 P15 1.534478 1_655
O43 Zr7 2.078066 1_555
O44 P16 1.534449 1_555
O44 Zr4 2.077759 1_655
O45 P17 1.534145 1_455
O45 Zr5 2.075055 1_555
O46 P18 1.534301 1_555
O46 Zr6 2.077302 1_565
O47 P19 1.534488 1_555
O47 Zr7 2.078115 1_555
O48 P12 1.564465 1_555
O48 Zr9 2.185798 1_555
O49 P13 1.558507 1_555
O49 Zr10 2.169017 1_545
O49 Sr0 2.556270 1_555
O50 P14 1.564589 1_555
O50 Zr11 2.186629 1_555
O51 P15 1.564337 1_555
O51 Zr8 2.185981 1_555
O52 P16 1.564459 1_555
O52 Zr9 2.185896 1_555
O53 P17 1.559076 1_555
O53 Zr10 2.169437 1_545
O53 Sr0 2.554583 1_555
O54 P18 1.564036 1_555
O54 Zr11 2.185740 1_455
O55 P19 1.564434 1_555
O55 Zr8 2.185917 1_555
O56 P20 1.564367 1_455
O56 Zr8 2.185970 1_555
O57 P21 1.564628 1_555
O57 Zr9 2.185952 1_555
O58 P22 1.558861 1_555
O58 Zr10 2.173051 1_555
O58 Sr0 2.554234 1_565
O59 P23 1.563983 1_555
O59 Zr11 2.182128 1_554
O60 P0 1.564337 1_555
O60 Zr15 2.185981 1_565
O61 P1 1.564589 1_555
O61 Zr12 2.186629 1_555
O62 P2 1.558507 1_555
O62 Zr13 2.169017 1_555
O62 Sr0 2.556270 1_555
O63 P3 1.564465 1_555
O63 Zr14 2.185798 1_555
O64 P4 1.564434 1_555
O64 Zr15 2.185917 1_565
O65 P5 1.564036 1_555
O65 Zr12 2.185740 1_555
O66 P6 1.559076 1_555
O66 Zr13 2.169437 1_555
O66 Sr0 2.554583 1_555
O67 P7 1.564459 1_555
O67 Zr14 2.185896 1_655
O68 P8 1.563983 1_555
O68 Zr12 2.182128 1_555
O69 P9 1.558861 1_655
O69 Zr13 2.173051 1_555
O69 Sr0 2.554234 1_555
O70 P10 1.564628 1_555
O70 Zr14 2.185952 1_556
O71 P11 1.564367 1_555
O71 Zr15 2.185970 1_555
O72 P3 1.550823 1_555
O72 Zr8 2.044887 1_555
O73 P0 1.550880 1_545
O73 Zr9 2.044782 1_555
O74 P1 1.546303 1_555
O74 Zr10 2.042441 1_555
O75 P2 1.548784 1_555
O75 Zr11 2.036184 1_555
O76 P4 1.550863 1_545
O76 Zr8 2.044810 1_555
O77 P5 1.550865 1_555
O77 Zr9 2.044898 1_565
O78 P6 1.544808 1_555
O78 Zr10 2.033460 1_555
O79 P7 1.550110 1_556
O79 Zr11 2.045088 1_555
O80 P11 1.550874 1_555
O80 Zr8 2.044866 1_655
O81 P8 1.550802 1_455
O81 Zr9 2.045056 1_565
O82 P9 1.544503 1_555
O82 Zr10 2.033220 1_555
O83 P10 1.550654 1_555
O83 Zr11 2.045270 1_555
O84 P13 1.548784 1_565
O84 Zr12 2.036184 1_555
O85 P14 1.546303 1_555
O85 Zr13 2.042441 1_555
O86 P15 1.550880 1_555
O86 Zr14 2.044782 1_555
O87 P12 1.550823 1_555
O87 Zr15 2.044887 1_555
O88 P16 1.550110 1_555
O88 Zr12 2.045088 1_545
O89 P17 1.544808 1_565
O89 Zr13 2.033460 1_555
O90 P18 1.550865 1_554
O90 Zr14 2.044898 1_555
O91 P19 1.550863 1_555
O91 Zr15 2.044810 1_555
O92 P21 1.550654 1_655
O92 Zr12 2.045270 1_545
O93 P22 1.544503 1_555
O93 Zr13 2.033220 1_455
O94 P23 1.550802 1_555
O94 Zr14 2.045056 1_555
O95 P20 1.550874 1_555
O95 Zr15 2.044866 1_555
