# generated using pymatgen
data_Mg149Ni
_symmetry_space_group_name_H-M   'P 1'
_cell_length_a   15.90547325
_cell_length_b   15.90547806
_cell_length_c   15.63717289
_cell_angle_alpha   90.00000000
_cell_angle_beta   90.00000000
_cell_angle_gamma   120.00001001
_symmetry_Int_Tables_number   1
_chemical_formula_structural   Mg149Ni
_chemical_formula_sum   'Mg149 Ni1'
_cell_volume   3425.95889680
_cell_formula_units_Z   1
loop_
 _symmetry_equiv_pos_site_id
 _symmetry_equiv_pos_as_xyz
  1  'x, y, z'
loop_
 _atom_site_type_symbol
 _atom_site_label
 _atom_site_symmetry_multiplicity
 _atom_site_fract_x
 _atom_site_fract_y
 _atom_site_fract_z
 _atom_site_occupancy
  Mg  Mg0  1  0.60193446  0.00014282  -0.00000000  1
  Mg  Mg1  1  0.39820836  0.00014382  -0.00000000  1
  Mg  Mg2  1  0.80963970  0.00172726  -0.00000000  1
  Mg  Mg3  1  0.19208856  0.00172826  -0.00000000  1
  Mg  Mg4  1  0.19208856  0.19036030  -0.00000000  1
  Mg  Mg5  1  0.99827274  0.19036130  -0.00000000  1
  Mg  Mg6  1  0.80107532  0.19892468  -0.00000000  1
  Mg  Mg7  1  0.39784935  0.19892468  -0.00000000  1
  Mg  Mg8  1  0.59974832  0.19949665  -0.00000000  1
  Mg  Mg9  1  0.19838189  0.39676377  -0.00000000  1
  Mg  Mg10  1  0.99985618  0.39806454  -0.00000000  1
  Mg  Mg11  1  0.39820836  0.39806454  -0.00000000  1
  Mg  Mg12  1  0.80050235  0.40025168  -0.00000000  1
  Mg  Mg13  1  0.59974832  0.40025168  -0.00000000  1
  Mg  Mg14  1  0.19969484  0.59984742  -0.00000000  1
  Mg  Mg15  1  0.40015258  0.59984742  -0.00000000  1
  Mg  Mg16  1  0.99985618  0.60179064  -0.00000000  1
  Mg  Mg17  1  0.60193446  0.60179064  -0.00000000  1
  Mg  Mg18  1  0.80107532  0.60215165  -0.00000000  1
  Mg  Mg19  1  0.40015258  0.80030516  -0.00000000  1
  Mg  Mg20  1  0.19838189  0.80161811  -0.00000000  1
  Mg  Mg21  1  0.60323623  0.80161811  -0.00000000  1
  Mg  Mg22  1  0.99827274  0.80791144  -0.00000000  1
  Mg  Mg23  1  0.80963970  0.80791144  -0.00000000  1
  Mg  Mg24  1  0.06378191  0.12756281  0.15878976  1
  Mg  Mg25  1  0.06378191  0.93621809  0.15878976  1
  Mg  Mg26  1  0.87243619  0.93621809  0.15878976  1
  Mg  Mg27  1  0.06590174  0.33085373  0.16542541  1
  Mg  Mg28  1  0.26495299  0.33085473  0.16542541  1
  Mg  Mg29  1  0.66914627  0.73504801  0.16542541  1
  Mg  Mg30  1  0.06590174  0.73504801  0.16542541  1
  Mg  Mg31  1  0.66914627  0.93409826  0.16542541  1
  Mg  Mg32  1  0.26495299  0.93409926  0.16542541  1
  Mg  Mg33  1  0.46676453  0.53323547  0.16603862  1
  Mg  Mg34  1  0.06647094  0.53323547  0.16603862  1
  Mg  Mg35  1  0.46676453  0.93352906  0.16603862  1
  Mg  Mg36  1  0.26622015  0.53244030  0.16596193  1
  Mg  Mg37  1  0.26622015  0.73377985  0.16596193  1
  Mg  Mg38  1  0.46756070  0.73377985  0.16596193  1
  Mg  Mg39  1  0.46714112  0.13363633  0.16658805  1
  Mg  Mg40  1  0.66649521  0.13363633  0.16658805  1
  Mg  Mg41  1  0.46714112  0.33350479  0.16658805  1
  Mg  Mg42  1  0.86636367  0.33350479  0.16658805  1
  Mg  Mg43  1  0.66649521  0.53285888  0.16658805  1
  Mg  Mg44  1  0.86636367  0.53285888  0.16658805  1
  Mg  Mg45  1  0.66666600  0.33333300  0.16662332  1
  Mg  Mg46  1  0.86599656  0.13400344  0.16710042  1
  Mg  Mg47  1  0.26800589  0.13400344  0.16710042  1
  Mg  Mg48  1  0.86599656  0.73199311  0.16710042  1
  Mg  Mg49  1  -0.00000000  0.00000000  0.33109243  1
  Mg  Mg50  1  0.19869184  0.19904774  0.33165185  1
  Mg  Mg51  1  0.00035589  0.19904874  0.33165185  1
  Mg  Mg52  1  0.00035589  0.80130816  0.33165185  1
  Mg  Mg53  1  0.80095226  0.80130816  0.33165185  1
  Mg  Mg54  1  0.19869184  0.99964311  0.33165185  1
  Mg  Mg55  1  0.80095226  0.99964411  0.33165185  1
  Mg  Mg56  1  0.00023516  0.39963902  0.33269688  1
  Mg  Mg57  1  0.39940485  0.39964002  0.33269688  1
  Mg  Mg58  1  0.60035998  0.60059415  0.33269688  1
  Mg  Mg59  1  0.00023516  0.60059515  0.33269688  1
  Mg  Mg60  1  0.39940485  0.99976484  0.33269688  1
  Mg  Mg61  1  0.60035998  0.99976484  0.33269688  1
  Mg  Mg62  1  0.19987667  0.39975233  0.33280468  1
  Mg  Mg63  1  0.19987667  0.80012333  0.33280468  1
  Mg  Mg64  1  0.60024667  0.80012333  0.33280468  1
  Mg  Mg65  1  0.20000471  0.60000186  0.33303315  1
  Mg  Mg66  1  0.39999814  0.60000286  0.33303315  1
  Mg  Mg67  1  0.39999814  0.79999529  0.33303315  1
  Mg  Mg68  1  0.59980445  0.19960691  0.33340136  1
  Mg  Mg69  1  0.80039209  0.40019655  0.33340136  1
  Mg  Mg70  1  0.59980445  0.40019655  0.33340136  1
  Mg  Mg71  1  0.80016774  0.19983226  0.33358789  1
  Mg  Mg72  1  0.39966451  0.19983226  0.33358789  1
  Mg  Mg73  1  0.80016774  0.60033549  0.33358789  1
  Mg  Mg74  1  0.06655977  0.13312054  0.50000000  1
  Mg  Mg75  1  0.86693712  0.13306288  0.50000000  1
  Mg  Mg76  1  0.26612576  0.13306288  0.50000000  1
  Mg  Mg77  1  0.46668827  0.13327160  0.50000000  1
  Mg  Mg78  1  0.66658333  0.13327260  0.50000000  1
  Mg  Mg79  1  0.26632253  0.33267104  0.50000000  1
  Mg  Mg80  1  0.06634851  0.33267104  0.50000000  1
  Mg  Mg81  1  0.66666600  0.33333300  0.50000000  1
  Mg  Mg82  1  0.86672840  0.33341667  0.50000000  1
  Mg  Mg83  1  0.46668827  0.33341667  0.50000000  1
  Mg  Mg84  1  0.26645185  0.53290271  0.50000000  1
  Mg  Mg85  1  0.06644327  0.53322163  0.50000000  1
  Mg  Mg86  1  0.46677837  0.53322163  0.50000000  1
  Mg  Mg87  1  0.66658333  0.53331173  0.50000000  1
  Mg  Mg88  1  0.86672840  0.53331173  0.50000000  1
  Mg  Mg89  1  0.26645185  0.73354815  0.50000000  1
  Mg  Mg90  1  0.46709729  0.73354815  0.50000000  1
  Mg  Mg91  1  0.06634851  0.73367747  0.50000000  1
  Mg  Mg92  1  0.66732896  0.73367747  0.50000000  1
  Mg  Mg93  1  0.86693712  0.73387424  0.50000000  1
  Mg  Mg94  1  0.46677837  0.93355573  0.50000000  1
  Mg  Mg95  1  0.86687946  0.93344023  0.50000000  1
  Mg  Mg96  1  0.06655977  0.93344023  0.50000000  1
  Mg  Mg97  1  0.26632253  0.93365149  0.50000000  1
  Mg  Mg98  1  0.66732896  0.93365149  0.50000000  1
  Mg  Mg99  1  0.80016774  0.19983226  0.66641111  1
  Mg  Mg100  1  0.39966451  0.19983226  0.66641111  1
  Mg  Mg101  1  0.80016774  0.60033549  0.66641111  1
  Mg  Mg102  1  0.59980445  0.19960691  0.66659764  1
  Mg  Mg103  1  0.80039209  0.40019655  0.66659764  1
  Mg  Mg104  1  0.59980445  0.40019655  0.66659764  1
  Mg  Mg105  1  0.20000471  0.60000186  0.66696585  1
  Mg  Mg106  1  0.39999814  0.60000286  0.66696585  1
  Mg  Mg107  1  0.39999814  0.79999529  0.66696585  1
  Mg  Mg108  1  0.19987667  0.39975233  0.66719532  1
  Mg  Mg109  1  0.19987667  0.80012333  0.66719532  1
  Mg  Mg110  1  0.60024667  0.80012333  0.66719532  1
  Mg  Mg111  1  0.00023516  0.39963902  0.66730312  1
  Mg  Mg112  1  0.39940485  0.39964002  0.66730312  1
  Mg  Mg113  1  0.60035998  0.60059415  0.66730312  1
  Mg  Mg114  1  0.00023516  0.60059515  0.66730312  1
  Mg  Mg115  1  0.39940485  0.99976484  0.66730312  1
  Mg  Mg116  1  0.60035998  0.99976484  0.66730312  1
  Mg  Mg117  1  0.19869184  0.19904774  0.66834815  1
  Mg  Mg118  1  0.00035589  0.19904874  0.66834815  1
  Mg  Mg119  1  0.00035589  0.80130816  0.66834815  1
  Mg  Mg120  1  0.80095226  0.80130816  0.66834815  1
  Mg  Mg121  1  0.19869184  0.99964311  0.66834815  1
  Mg  Mg122  1  0.80095226  0.99964411  0.66834815  1
  Mg  Mg123  1  -0.00000000  0.00000000  0.66890757  1
  Mg  Mg124  1  0.86599656  0.13400344  0.83289958  1
  Mg  Mg125  1  0.26800589  0.13400344  0.83289958  1
  Mg  Mg126  1  0.86599656  0.73199311  0.83289958  1
  Mg  Mg127  1  0.66666600  0.33333300  0.83337668  1
  Mg  Mg128  1  0.46714112  0.13363633  0.83341195  1
  Mg  Mg129  1  0.66649521  0.13363633  0.83341195  1
  Mg  Mg130  1  0.46714112  0.33350479  0.83341195  1
  Mg  Mg131  1  0.86636367  0.33350479  0.83341195  1
  Mg  Mg132  1  0.66649521  0.53285888  0.83341195  1
  Mg  Mg133  1  0.86636367  0.53285888  0.83341195  1
  Mg  Mg134  1  0.26622015  0.53244030  0.83403707  1
  Mg  Mg135  1  0.26622015  0.73377985  0.83403707  1
  Mg  Mg136  1  0.46756070  0.73377985  0.83403707  1
  Mg  Mg137  1  0.46676453  0.53323547  0.83396138  1
  Mg  Mg138  1  0.06647094  0.53323547  0.83396138  1
  Mg  Mg139  1  0.46676453  0.93352906  0.83396138  1
  Mg  Mg140  1  0.06590174  0.33085373  0.83457459  1
  Mg  Mg141  1  0.26495299  0.33085473  0.83457459  1
  Mg  Mg142  1  0.66914627  0.73504801  0.83457459  1
  Mg  Mg143  1  0.06590174  0.73504801  0.83457459  1
  Mg  Mg144  1  0.66914627  0.93409826  0.83457459  1
  Mg  Mg145  1  0.26495299  0.93409926  0.83457459  1
  Mg  Mg146  1  0.06378191  0.12756281  0.84121024  1
  Mg  Mg147  1  0.06378191  0.93621809  0.84121024  1
  Mg  Mg148  1  0.87243619  0.93621809  0.84121024  1
  Ni  Ni0  1  -0.00000000  0.00000000  -0.00000000  1
loop_
_geom_bond_atom_site_label_1
_geom_bond_atom_site_label_2
_geom_bond_distance
_geom_bond_site_symmetry_2
Mg0 Mg6 3.164578 1_555
Mg0 Mg21 3.168034 1_545
Mg0 Mg31 3.171873 1_545
Mg0 Mg144 3.171873 1_544
Mg0 Mg8 3.188346 1_555
Mg0 Mg129 3.188776 1_554
Mg0 Mg40 3.188776 1_555
Mg0 Mg19 3.194087 1_545
Mg0 Mg35 3.195010 1_545
Mg0 Mg139 3.195010 1_544
Mg0 Mg1 3.240368 1_555
Mg0 Mg2 3.291122 1_555
Mg1 Mg7 3.164564 1_555
Mg1 Mg20 3.168041 1_545
Mg1 Mg32 3.171864 1_545
Mg1 Mg145 3.171864 1_544
Mg1 Mg8 3.188337 1_555
Mg1 Mg39 3.188768 1_555
Mg1 Mg128 3.188768 1_554
Mg1 Mg19 3.194104 1_545
Mg1 Mg35 3.195018 1_545
Mg1 Mg139 3.195018 1_544
Mg1 Mg3 3.291106 1_555
Mg2 Mg5 3.000306 1_555
Mg2 Ni0 3.041600 1_655
Mg2 Mg26 3.047852 1_545
Mg2 Mg23 3.082733 1_545
Mg2 Mg46 3.189311 1_555
Mg2 Mg6 3.206800 1_555
Mg2 Mg31 3.230839 1_545
Mg2 Mg21 3.234050 1_545
Mg3 Mg4 3.000283 1_555
Mg3 Ni0 3.041608 1_555
Mg3 Mg47 3.189302 1_555
Mg3 Mg7 3.206783 1_555
Mg3 Mg32 3.230839 1_545
Mg4 Ni0 3.041608 1_555
Mg4 Mg5 3.082740 1_455
Mg4 Mg47 3.189294 1_555
Mg4 Mg7 3.206783 1_555
Mg4 Mg9 3.234059 1_555
Mg5 Ni0 3.041617 1_655
Mg5 Mg6 3.206791 1_555
Mg5 Mg9 3.234042 1_655
Mg6 Mg8 3.206760 1_555
Mg7 Mg8 3.206760 1_555
Mg10 Mg6 3.164563 1_555
Mg10 Mg9 3.168041 1_655
Mg10 Mg140 3.171873 1_654
Mg10 Mg27 3.171873 1_655
Mg10 Mg12 3.188353 1_555
Mg10 Mg131 3.188767 1_554
Mg10 Mg42 3.188767 1_555
Mg10 Mg14 3.194103 1_655
Mg10 Mg34 3.195018 1_655
Mg10 Mg138 3.195018 1_654
Mg10 Mg16 3.240361 1_555
Mg10 Mg5 3.291099 1_555
Mg11 Mg7 3.164563 1_555
Mg11 Mg9 3.168041 1_555
Mg11 Mg28 3.171864 1_555
Mg11 Mg141 3.171864 1_554
Mg11 Mg13 3.188337 1_555
Mg11 Mg130 3.188768 1_554
Mg11 Mg41 3.188768 1_555
Mg11 Mg15 3.194104 1_555
Mg11 Mg33 3.195018 1_555
Mg11 Mg137 3.195018 1_554
Mg11 Mg17 3.240360 1_555
Mg11 Mg4 3.291106 1_555
Mg12 Mg44 3.181569 1_555
Mg12 Mg133 3.181569 1_554
Mg12 Mg131 3.181577 1_554
Mg12 Mg42 3.181577 1_555
Mg12 Mg16 3.188337 1_555
Mg12 Mg45 3.191762 1_555
Mg12 Mg127 3.191762 1_554
Mg12 Mg13 3.193088 1_555
Mg12 Mg8 3.193096 1_555
Mg12 Mg18 3.206769 1_555
Mg12 Mg6 3.206769 1_555
Mg13 Mg130 3.181569 1_554
Mg13 Mg41 3.181569 1_555
Mg13 Mg43 3.181569 1_555
Mg13 Mg132 3.181569 1_554
Mg13 Mg17 3.188330 1_555
Mg13 Mg45 3.191762 1_555
Mg13 Mg8 3.193105 1_555
Mg13 Mg7 3.206760 1_555
Mg13 Mg18 3.206768 1_555
Mg14 Mg34 3.179426 1_555
Mg14 Mg37 3.184099 1_555
Mg14 Mg36 3.184099 1_555
Mg14 Mg15 3.188375 1_555
Mg14 Mg19 3.188375 1_555
Mg14 Mg16 3.194095 1_455
Mg14 Mg20 3.219752 1_555
Mg14 Mg9 3.219752 1_555
Mg15 Mg33 3.179426 1_555
Mg15 Mg36 3.184099 1_555
Mg15 Mg38 3.184099 1_555
Mg15 Mg19 3.188376 1_555
Mg15 Mg17 3.194095 1_555
Mg15 Mg21 3.219751 1_555
Mg15 Mg9 3.219751 1_555
Mg16 Mg18 3.164579 1_555
Mg16 Mg20 3.168049 1_655
Mg16 Mg30 3.171881 1_655
Mg16 Mg44 3.188767 1_555
Mg16 Mg34 3.195010 1_655
Mg16 Mg22 3.291115 1_555
Mg17 Mg18 3.164563 1_555
Mg17 Mg21 3.168050 1_555
Mg17 Mg29 3.171881 1_555
Mg17 Mg43 3.188767 1_555
Mg17 Mg33 3.195009 1_555
Mg17 Mg23 3.291122 1_555
Mg18 Mg48 3.166451 1_555
Mg18 Mg43 3.197399 1_555
Mg18 Mg44 3.197407 1_555
Mg18 Mg23 3.206768 1_555
Mg18 Mg22 3.206782 1_555
Mg19 Mg35 3.179426 1_555
Mg19 Mg37 3.184099 1_555
Mg19 Mg38 3.184107 1_555
Mg19 Mg20 3.219751 1_555
Mg19 Mg21 3.219751 1_555
Mg20 Mg30 3.165688 1_555
Mg20 Mg32 3.165696 1_555
Mg20 Mg37 3.198071 1_555
Mg20 Mg22 3.234042 1_455
Mg20 Mg3 3.234059 1_565
Mg21 Mg29 3.165688 1_555
Mg21 Mg31 3.165688 1_555
Mg21 Mg38 3.198063 1_555
Mg21 Mg23 3.234058 1_555
Mg22 Mg23 3.000298 1_555
Mg22 Ni0 3.041617 1_665
Mg22 Mg25 3.047860 1_655
Mg22 Mg3 3.082740 1_665
Mg22 Mg48 3.189310 1_555
Mg22 Mg30 3.230831 1_655
Mg23 Ni0 3.041608 1_665
Mg23 Mg26 3.047860 1_555
Mg23 Mg48 3.189303 1_555
Mg23 Mg29 3.230839 1_555
Mg24 Ni0 3.041854 1_555
Mg24 Mg25 3.043429 1_545
Mg24 Mg26 3.043436 1_445
Mg24 Mg4 3.047860 1_555
Mg24 Mg5 3.047868 1_455
Mg24 Mg47 3.200928 1_555
Mg24 Mg46 3.200960 1_455
Mg24 Mg49 3.216655 1_555
Mg24 Mg27 3.218386 1_555
Mg24 Mg28 3.218394 1_555
Mg24 Mg50 3.280866 1_555
Mg24 Mg51 3.280882 1_555
Mg25 Ni0 3.041862 1_565
Mg25 Mg26 3.043444 1_455
Mg25 Mg3 3.047860 1_565
Mg25 Mg47 3.200943 1_565
Mg25 Mg48 3.200952 1_455
Mg25 Mg49 3.216662 1_565
Mg25 Mg30 3.218370 1_555
Mg25 Mg32 3.218377 1_555
Mg25 Mg54 3.280866 1_555
Mg25 Mg52 3.280866 1_555
Mg26 Ni0 3.041861 1_665
Mg26 Mg46 3.200953 1_565
Mg26 Mg48 3.200953 1_555
Mg26 Mg49 3.216662 1_665
Mg26 Mg29 3.218370 1_555
Mg26 Mg31 3.218370 1_555
Mg26 Mg53 3.280866 1_555
Mg26 Mg55 3.280866 1_555
Mg27 Mg46 3.155681 1_455
Mg27 Mg9 3.165688 1_555
Mg27 Mg28 3.165996 1_555
Mg27 Mg51 3.170598 1_555
Mg27 Mg42 3.195091 1_455
Mg27 Mg36 3.196303 1_555
Mg27 Mg62 3.202662 1_555
Mg27 Mg56 3.205029 1_555
Mg27 Mg34 3.214475 1_555
Mg27 Mg5 3.230831 1_455
Mg28 Mg47 3.155682 1_555
Mg28 Mg9 3.165688 1_555
Mg28 Mg50 3.170613 1_555
Mg28 Mg41 3.195083 1_555
Mg28 Mg36 3.196296 1_555
Mg28 Mg62 3.202655 1_555
Mg28 Mg57 3.205028 1_555
Mg28 Mg33 3.214459 1_555
Mg28 Mg4 3.230847 1_555
Mg29 Mg48 3.155681 1_555
Mg29 Mg31 3.165989 1_555
Mg29 Mg53 3.170605 1_555
Mg29 Mg43 3.195092 1_555
Mg29 Mg38 3.196287 1_555
Mg29 Mg64 3.202663 1_555
Mg29 Mg58 3.205045 1_555
Mg29 Mg33 3.214475 1_555
Mg30 Mg48 3.155681 1_455
Mg30 Mg32 3.166004 1_555
Mg30 Mg52 3.170606 1_555
Mg30 Mg44 3.195091 1_455
Mg30 Mg37 3.196303 1_555
Mg30 Mg63 3.202663 1_555
Mg30 Mg59 3.205037 1_555
Mg30 Mg34 3.214475 1_555
Mg31 Mg46 3.155681 1_565
Mg31 Mg55 3.170605 1_555
Mg31 Mg40 3.195092 1_565
Mg31 Mg38 3.196295 1_555
Mg31 Mg64 3.202663 1_555
Mg31 Mg61 3.205037 1_555
Mg31 Mg35 3.214475 1_555
Mg32 Mg47 3.155682 1_565
Mg32 Mg54 3.170598 1_555
Mg32 Mg39 3.195075 1_565
Mg32 Mg37 3.196312 1_555
Mg32 Mg63 3.202671 1_555
Mg32 Mg60 3.205028 1_555
Mg32 Mg35 3.214467 1_555
Mg33 Mg43 3.179822 1_555
Mg33 Mg41 3.179823 1_555
Mg33 Mg38 3.183442 1_555
Mg33 Mg36 3.183449 1_555
Mg33 Mg58 3.190305 1_555
Mg33 Mg57 3.190305 1_555
Mg33 Mg66 3.194100 1_555
Mg34 Mg44 3.179822 1_455
Mg34 Mg42 3.179822 1_455
Mg34 Mg37 3.183449 1_555
Mg34 Mg36 3.183449 1_555
Mg34 Mg59 3.190305 1_555
Mg34 Mg56 3.190313 1_555
Mg34 Mg65 3.194100 1_555
Mg35 Mg40 3.179822 1_565
Mg35 Mg39 3.179823 1_565
Mg35 Mg37 3.183449 1_555
Mg35 Mg38 3.183458 1_555
Mg35 Mg61 3.190305 1_555
Mg35 Mg60 3.190305 1_555
Mg35 Mg67 3.194100 1_555
Mg36 Mg62 3.185461 1_555
Mg36 Mg65 3.197029 1_555
Mg36 Mg66 3.197036 1_555
Mg36 Mg9 3.198071 1_555
Mg36 Mg37 3.202402 1_555
Mg36 Mg38 3.202409 1_555
Mg37 Mg63 3.185453 1_555
Mg37 Mg67 3.197036 1_555
Mg37 Mg65 3.197036 1_555
Mg37 Mg38 3.202417 1_555
Mg38 Mg64 3.185445 1_555
Mg38 Mg66 3.197028 1_555
Mg38 Mg67 3.197036 1_555
Mg39 Mg47 3.170274 1_555
Mg39 Mg40 3.170821 1_555
Mg39 Mg45 3.174905 1_555
Mg39 Mg41 3.179003 1_555
Mg39 Mg8 3.181569 1_555
Mg39 Mg68 3.184894 1_555
Mg39 Mg60 3.185503 1_545
Mg39 Mg72 3.195285 1_555
Mg39 Mg7 3.197399 1_555
Mg40 Mg46 3.170258 1_555
Mg40 Mg45 3.174914 1_555
Mg40 Mg42 3.179002 1_555
Mg40 Mg8 3.181569 1_555
Mg40 Mg68 3.184879 1_555
Mg40 Mg61 3.185503 1_545
Mg40 Mg71 3.195285 1_555
Mg40 Mg6 3.197399 1_555
Mg41 Mg47 3.170266 1_555
Mg41 Mg43 3.170821 1_555
Mg41 Mg45 3.174905 1_555
Mg41 Mg70 3.184894 1_555
Mg41 Mg57 3.185503 1_555
Mg41 Mg72 3.195285 1_555
Mg41 Mg7 3.197399 1_555
Mg42 Mg46 3.170259 1_555
Mg42 Mg44 3.170822 1_555
Mg42 Mg45 3.174921 1_555
Mg42 Mg69 3.184895 1_555
Mg42 Mg56 3.185503 1_655
Mg42 Mg71 3.195285 1_555
Mg42 Mg6 3.197399 1_555
Mg43 Mg48 3.170258 1_555
Mg43 Mg45 3.174914 1_555
Mg43 Mg44 3.179002 1_555
Mg43 Mg70 3.184887 1_555
Mg43 Mg58 3.185495 1_555
Mg43 Mg73 3.195285 1_555
Mg44 Mg48 3.170259 1_555
Mg44 Mg45 3.174921 1_555
Mg44 Mg69 3.184887 1_555
Mg44 Mg59 3.185503 1_655
Mg44 Mg73 3.195285 1_555
Mg45 Mg8 3.191762 1_555
Mg45 Mg70 3.192853 1_555
Mg45 Mg69 3.192860 1_555
Mg45 Mg68 3.192861 1_555
Mg46 Mg6 3.166459 1_555
Mg46 Mg51 3.169752 1_655
Mg46 Mg55 3.169752 1_545
Mg46 Mg71 3.172779 1_555
Mg46 Mg5 3.189310 1_555
Mg47 Mg7 3.166466 1_555
Mg47 Mg50 3.169744 1_555
Mg47 Mg54 3.169760 1_545
Mg47 Mg72 3.172787 1_555
Mg48 Mg52 3.169752 1_655
Mg48 Mg53 3.169753 1_555
Mg48 Mg73 3.172779 1_555
Mg49 Mg53 3.163134 1_445
Mg49 Mg50 3.163134 1_555
Mg49 Mg55 3.163134 1_445
Mg49 Mg52 3.163135 1_545
Mg49 Mg54 3.163142 1_545
Mg49 Mg51 3.163151 1_555
Mg49 Mg96 3.215345 1_545
Mg49 Mg95 3.215353 1_445
Mg49 Mg74 3.215353 1_555
Mg50 Mg51 3.154635 1_555
Mg50 Mg54 3.171626 1_545
Mg50 Mg62 3.182973 1_555
Mg50 Mg72 3.190488 1_555
Mg50 Mg57 3.191518 1_555
Mg50 Mg74 3.200409 1_555
Mg50 Mg76 3.210542 1_555
Mg50 Mg79 3.212161 1_555
Mg51 Mg55 3.171617 1_445
Mg51 Mg62 3.182972 1_555
Mg51 Mg71 3.190480 1_455
Mg51 Mg56 3.191487 1_555
Mg51 Mg74 3.200409 1_555
Mg51 Mg75 3.210541 1_455
Mg51 Mg80 3.212153 1_555
Mg52 Mg54 3.154619 1_555
Mg52 Mg53 3.171609 1_455
Mg52 Mg63 3.182988 1_555
Mg52 Mg73 3.190488 1_455
Mg52 Mg59 3.191519 1_555
Mg52 Mg96 3.200409 1_555
Mg52 Mg93 3.210541 1_455
Mg52 Mg91 3.212161 1_555
Mg53 Mg55 3.154628 1_555
Mg53 Mg64 3.182988 1_555
Mg53 Mg73 3.190489 1_555
Mg53 Mg58 3.191526 1_555
Mg53 Mg95 3.200409 1_555
Mg53 Mg93 3.210542 1_555
Mg53 Mg92 3.212161 1_555
Mg54 Mg63 3.182973 1_555
Mg54 Mg72 3.190496 1_565
Mg54 Mg60 3.191510 1_555
Mg54 Mg96 3.200409 1_555
Mg54 Mg76 3.210550 1_565
Mg54 Mg97 3.212153 1_555
Mg55 Mg64 3.182988 1_555
Mg55 Mg71 3.190489 1_565
Mg55 Mg61 3.191518 1_555
Mg55 Mg95 3.200402 1_555
Mg55 Mg75 3.210542 1_565
Mg55 Mg98 3.212161 1_555
Mg56 Mg62 3.174492 1_555
Mg56 Mg71 3.180127 1_455
Mg56 Mg65 3.182162 1_555
Mg56 Mg69 3.183061 1_455
Mg56 Mg80 3.194473 1_555
Mg56 Mg59 3.196303 1_555
Mg56 Mg82 3.197843 1_455
Mg56 Mg85 3.198447 1_555
Mg57 Mg62 3.174484 1_555
Mg57 Mg72 3.180135 1_555
Mg57 Mg66 3.182163 1_555
Mg57 Mg70 3.183053 1_555
Mg57 Mg79 3.194481 1_555
Mg57 Mg58 3.196278 1_555
Mg57 Mg83 3.197844 1_555
Mg57 Mg86 3.198439 1_555
Mg58 Mg64 3.174509 1_555
Mg58 Mg73 3.180127 1_555
Mg58 Mg66 3.182162 1_555
Mg58 Mg70 3.183030 1_555
Mg58 Mg92 3.194489 1_555
Mg58 Mg87 3.197836 1_555
Mg58 Mg86 3.198439 1_555
Mg59 Mg63 3.174492 1_555
Mg59 Mg73 3.180135 1_455
Mg59 Mg65 3.182162 1_555
Mg59 Mg69 3.183045 1_455
Mg59 Mg91 3.194481 1_555
Mg59 Mg88 3.197843 1_455
Mg59 Mg85 3.198439 1_555
Mg60 Mg63 3.174492 1_555
Mg60 Mg72 3.180135 1_565
Mg60 Mg67 3.182163 1_555
Mg60 Mg68 3.183045 1_565
Mg60 Mg97 3.194481 1_555
Mg60 Mg61 3.196286 1_555
Mg60 Mg77 3.197844 1_565
Mg60 Mg94 3.198447 1_555
Mg61 Mg64 3.174493 1_555
Mg61 Mg71 3.180135 1_565
Mg61 Mg67 3.182154 1_555
Mg61 Mg68 3.183030 1_565
Mg61 Mg98 3.194481 1_555
Mg61 Mg78 3.197852 1_565
Mg61 Mg94 3.198439 1_555
Mg62 Mg65 3.184049 1_555
Mg62 Mg66 3.184056 1_555
Mg62 Mg84 3.193632 1_555
Mg62 Mg79 3.196619 1_555
Mg62 Mg80 3.196627 1_555
Mg63 Mg67 3.184047 1_555
Mg63 Mg65 3.184048 1_555
Mg63 Mg89 3.193632 1_555
Mg63 Mg91 3.196627 1_555
Mg63 Mg97 3.196627 1_555
Mg64 Mg66 3.184032 1_555
Mg64 Mg67 3.184032 1_555
Mg64 Mg90 3.193624 1_555
Mg64 Mg92 3.196627 1_555
Mg64 Mg98 3.196627 1_555
Mg65 Mg66 3.180982 1_555
Mg65 Mg67 3.180990 1_555
Mg65 Mg89 3.193850 1_555
Mg65 Mg84 3.193850 1_555
Mg65 Mg85 3.193966 1_555
Mg66 Mg67 3.180975 1_555
Mg66 Mg90 3.193842 1_555
Mg66 Mg84 3.193850 1_555
Mg66 Mg86 3.193966 1_555
Mg67 Mg89 3.193850 1_555
Mg67 Mg90 3.193850 1_555
Mg67 Mg94 3.193958 1_555
Mg68 Mg71 3.185084 1_555
Mg68 Mg72 3.185115 1_555
Mg68 Mg78 3.185705 1_555
Mg68 Mg77 3.185728 1_555
Mg68 Mg69 3.190457 1_555
Mg68 Mg70 3.190474 1_555
Mg68 Mg81 3.190570 1_555
Mg69 Mg73 3.185093 1_555
Mg69 Mg71 3.185108 1_555
Mg69 Mg88 3.185721 1_555
Mg69 Mg82 3.185729 1_555
Mg69 Mg70 3.190441 1_555
Mg69 Mg81 3.190569 1_555
Mg70 Mg73 3.185092 1_555
Mg70 Mg72 3.185107 1_555
Mg70 Mg87 3.185721 1_555
Mg70 Mg83 3.185728 1_555
Mg70 Mg81 3.190562 1_555
Mg71 Mg75 3.186698 1_555
Mg71 Mg78 3.187063 1_555
Mg71 Mg82 3.187064 1_555
Mg72 Mg76 3.186698 1_555
Mg72 Mg83 3.187064 1_555
Mg72 Mg77 3.187064 1_555
Mg73 Mg93 3.186698 1_555
Mg73 Mg87 3.187063 1_555
Mg73 Mg88 3.187064 1_555
Mg74 Mg75 3.174634 1_455
Mg74 Mg76 3.174650 1_555
Mg74 Mg80 3.175628 1_555
Mg74 Mg79 3.175635 1_555
Mg74 Mg95 3.176010 1_445
Mg74 Mg96 3.176011 1_545
Mg75 Mg98 3.173299 1_545
Mg75 Mg80 3.173299 1_655
Mg75 Mg95 3.174635 1_545
Mg75 Mg99 3.186686 1_555
Mg75 Mg82 3.188384 1_555
Mg75 Mg78 3.188391 1_555
Mg76 Mg97 3.173300 1_545
Mg76 Mg79 3.173300 1_555
Mg76 Mg96 3.174642 1_545
Mg76 Mg77 3.188383 1_555
Mg76 Mg83 3.188383 1_555
Mg77 Mg94 3.177293 1_545
Mg77 Mg78 3.179418 1_555
Mg77 Mg97 3.180999 1_545
Mg77 Mg81 3.181406 1_555
Mg77 Mg83 3.183403 1_555
Mg78 Mg94 3.177292 1_545
Mg78 Mg98 3.181016 1_545
Mg78 Mg81 3.181399 1_555
Mg78 Mg82 3.183394 1_555
Mg78 Mg99 3.187050 1_555
Mg79 Mg80 3.180681 1_555
Mg79 Mg83 3.180999 1_555
Mg79 Mg84 3.183752 1_555
Mg79 Mg86 3.189099 1_555
Mg80 Mg82 3.180999 1_455
Mg80 Mg84 3.183759 1_555
Mg80 Mg85 3.189100 1_555
Mg81 Mg83 3.181406 1_555
Mg81 Mg87 3.181415 1_555
Mg81 Mg82 3.181422 1_555
Mg81 Mg88 3.181422 1_555
Mg82 Mg85 3.177276 1_655
Mg82 Mg88 3.179426 1_555
Mg82 Mg99 3.187051 1_555
Mg83 Mg86 3.177277 1_555
Mg83 Mg87 3.179426 1_555
Mg84 Mg86 3.183755 1_555
Mg84 Mg85 3.183770 1_555
Mg84 Mg90 3.191361 1_555
Mg84 Mg89 3.191362 1_555
Mg85 Mg88 3.177276 1_455
Mg85 Mg89 3.183763 1_555
Mg85 Mg91 3.189100 1_555
Mg86 Mg87 3.177276 1_555
Mg86 Mg90 3.183756 1_555
Mg86 Mg92 3.189099 1_555
Mg87 Mg92 3.181000 1_555
Mg87 Mg88 3.183402 1_555
Mg87 Mg93 3.188383 1_555
Mg88 Mg91 3.180999 1_655
Mg88 Mg93 3.188384 1_555
Mg89 Mg94 3.183755 1_555
Mg89 Mg91 3.183767 1_555
Mg89 Mg97 3.183768 1_555
Mg89 Mg90 3.191361 1_555
Mg90 Mg92 3.183752 1_555
Mg90 Mg94 3.183755 1_555
Mg90 Mg98 3.183759 1_555
Mg91 Mg93 3.173299 1_455
Mg91 Mg96 3.175643 1_555
Mg91 Mg97 3.180681 1_555
Mg92 Mg93 3.173299 1_555
Mg92 Mg95 3.175635 1_555
Mg92 Mg98 3.180682 1_555
Mg93 Mg96 3.174642 1_655
Mg93 Mg95 3.174651 1_555
Mg94 Mg98 3.189091 1_555
Mg94 Mg97 3.189107 1_555
Mg95 Mg98 3.175627 1_555
Mg95 Mg96 3.176010 1_655
Mg96 Mg97 3.175642 1_555
Mg100 Mg125 3.172799 1_555
Mg100 Mg112 3.180136 1_555
Mg100 Mg115 3.180136 1_545
Mg100 Mg104 3.185107 1_555
Mg100 Mg102 3.185115 1_555
Mg100 Mg76 3.186685 1_555
Mg100 Mg83 3.187051 1_555
Mg100 Mg77 3.187051 1_555
Mg100 Mg117 3.190488 1_555
Mg100 Mg121 3.190496 1_545
Mg100 Mg130 3.195298 1_555
Mg100 Mg128 3.195298 1_555
Mg101 Mg126 3.172792 1_555
Mg101 Mg113 3.180127 1_555
Mg101 Mg114 3.180135 1_655
Mg101 Mg104 3.185092 1_555
Mg101 Mg103 3.185093 1_555
Mg101 Mg93 3.186686 1_555
Mg101 Mg87 3.187050 1_555
Mg101 Mg88 3.187051 1_555
Mg101 Mg119 3.190488 1_655
Mg101 Mg120 3.190489 1_555
Mg101 Mg132 3.195298 1_555
Mg101 Mg133 3.195298 1_555
Mg102 Mg116 3.183030 1_545
Mg102 Mg115 3.183045 1_545
Mg102 Mg129 3.184892 1_555
Mg102 Mg128 3.184907 1_555
Mg102 Mg99 3.185084 1_555
Mg102 Mg78 3.185692 1_555
Mg102 Mg77 3.185716 1_555
Mg102 Mg103 3.190457 1_555
Mg102 Mg104 3.190474 1_555
Mg102 Mg81 3.190557 1_555
Mg102 Mg127 3.192873 1_555
Mg103 Mg114 3.183045 1_655
Mg103 Mg111 3.183061 1_655
Mg103 Mg133 3.184899 1_555
Mg103 Mg131 3.184907 1_555
Mg103 Mg99 3.185108 1_555
Mg103 Mg88 3.185708 1_555
Mg103 Mg82 3.185716 1_555
Mg103 Mg104 3.190441 1_555
Mg103 Mg81 3.190557 1_555
Mg103 Mg127 3.192873 1_555
Mg104 Mg113 3.183030 1_555
Mg104 Mg112 3.183053 1_555
Mg104 Mg132 3.184899 1_555
Mg104 Mg130 3.184907 1_555
Mg104 Mg87 3.185708 1_555
Mg104 Mg83 3.185716 1_555
Mg104 Mg81 3.190549 1_555
Mg104 Mg127 3.192866 1_555
Mg105 Mg106 3.180982 1_555
Mg105 Mg107 3.180990 1_555
Mg105 Mg114 3.182162 1_555
Mg105 Mg111 3.182162 1_555
Mg105 Mg109 3.184048 1_555
Mg105 Mg108 3.184049 1_555
Mg105 Mg84 3.193837 1_555
Mg105 Mg89 3.193837 1_555
Mg105 Mg85 3.193953 1_555
Mg105 Mg138 3.194113 1_555
Mg105 Mg134 3.197029 1_555
Mg105 Mg135 3.197036 1_555
Mg106 Mg107 3.180975 1_555
Mg106 Mg113 3.182162 1_555
Mg106 Mg112 3.182163 1_555
Mg106 Mg110 3.184032 1_555
Mg106 Mg108 3.184056 1_555
Mg106 Mg90 3.193829 1_555
Mg106 Mg84 3.193837 1_555
Mg106 Mg86 3.193953 1_555
Mg106 Mg137 3.194113 1_555
Mg106 Mg136 3.197028 1_555
Mg106 Mg134 3.197036 1_555
Mg107 Mg116 3.182154 1_555
Mg107 Mg115 3.182163 1_555
Mg107 Mg110 3.184032 1_555
Mg107 Mg109 3.184047 1_555
Mg107 Mg89 3.193837 1_555
Mg107 Mg90 3.193837 1_555
Mg107 Mg94 3.193945 1_555
Mg107 Mg139 3.194113 1_555
Mg107 Mg135 3.197036 1_555
Mg107 Mg136 3.197036 1_555
Mg108 Mg112 3.174484 1_555
Mg108 Mg111 3.174492 1_555
Mg108 Mg118 3.182972 1_555
Mg108 Mg117 3.182973 1_555
Mg108 Mg134 3.185448 1_555
Mg108 Mg84 3.193632 1_555
Mg108 Mg79 3.196619 1_555
Mg108 Mg80 3.196627 1_555
Mg108 Mg141 3.202655 1_555
Mg108 Mg140 3.202662 1_555
Mg109 Mg114 3.174492 1_555
Mg109 Mg115 3.174492 1_555
Mg109 Mg121 3.182973 1_555
Mg109 Mg119 3.182988 1_555
Mg109 Mg135 3.185440 1_555
Mg109 Mg89 3.193632 1_555
Mg109 Mg91 3.196627 1_555
Mg109 Mg97 3.196627 1_555
Mg109 Mg143 3.202663 1_555
Mg109 Mg145 3.202671 1_555
Mg110 Mg116 3.174493 1_555
Mg110 Mg113 3.174509 1_555
Mg110 Mg120 3.182988 1_555
Mg110 Mg122 3.182988 1_555
Mg110 Mg136 3.185432 1_555
Mg110 Mg90 3.193624 1_555
Mg110 Mg92 3.196627 1_555
Mg110 Mg98 3.196627 1_555
Mg110 Mg142 3.202663 1_555
Mg110 Mg144 3.202663 1_555
Mg111 Mg99 3.180127 1_455
Mg111 Mg131 3.185503 1_455
Mg111 Mg138 3.190313 1_555
Mg111 Mg118 3.191487 1_555
Mg111 Mg80 3.194473 1_555
Mg111 Mg114 3.196303 1_555
Mg111 Mg82 3.197843 1_455
Mg111 Mg85 3.198447 1_555
Mg111 Mg140 3.205029 1_555
Mg112 Mg130 3.185503 1_555
Mg112 Mg137 3.190305 1_555
Mg112 Mg117 3.191518 1_555
Mg112 Mg79 3.194481 1_555
Mg112 Mg113 3.196278 1_555
Mg112 Mg83 3.197844 1_555
Mg112 Mg86 3.198439 1_555
Mg112 Mg141 3.205028 1_555
Mg113 Mg132 3.185495 1_555
Mg113 Mg137 3.190305 1_555
Mg113 Mg120 3.191526 1_555
Mg113 Mg92 3.194489 1_555
Mg113 Mg87 3.197836 1_555
Mg113 Mg86 3.198439 1_555
Mg113 Mg142 3.205045 1_555
Mg114 Mg133 3.185503 1_455
Mg114 Mg138 3.190305 1_555
Mg114 Mg119 3.191519 1_555
Mg114 Mg91 3.194481 1_555
Mg114 Mg88 3.197843 1_455
Mg114 Mg85 3.198439 1_555
Mg114 Mg143 3.205037 1_555
Mg115 Mg128 3.185503 1_565
Mg115 Mg139 3.190305 1_555
Mg115 Mg121 3.191510 1_555
Mg115 Mg97 3.194481 1_555
Mg115 Mg116 3.196286 1_555
Mg115 Mg77 3.197844 1_565
Mg115 Mg94 3.198447 1_555
Mg115 Mg145 3.205028 1_555
Mg116 Mg99 3.180135 1_565
Mg116 Mg129 3.185503 1_565
Mg116 Mg139 3.190305 1_555
Mg116 Mg122 3.191518 1_555
Mg116 Mg98 3.194481 1_555
Mg116 Mg78 3.197852 1_565
Mg116 Mg94 3.198439 1_555
Mg116 Mg144 3.205037 1_555
Mg117 Mg118 3.154635 1_555
Mg117 Mg123 3.163134 1_555
Mg117 Mg125 3.169744 1_555
Mg117 Mg141 3.170613 1_555
Mg117 Mg121 3.171626 1_545
Mg117 Mg74 3.200409 1_555
Mg117 Mg76 3.210542 1_555
Mg117 Mg79 3.212161 1_555
Mg117 Mg146 3.280866 1_555
Mg118 Mg123 3.163151 1_555
Mg118 Mg124 3.169752 1_455
Mg118 Mg140 3.170598 1_555
Mg118 Mg122 3.171617 1_445
Mg118 Mg99 3.190480 1_455
Mg118 Mg74 3.200409 1_555
Mg118 Mg75 3.210541 1_455
Mg118 Mg80 3.212153 1_555
Mg118 Mg146 3.280882 1_555
Mg119 Mg121 3.154619 1_555
Mg119 Mg123 3.163135 1_565
Mg119 Mg126 3.169752 1_455
Mg119 Mg143 3.170606 1_555
Mg119 Mg120 3.171609 1_455
Mg119 Mg96 3.200409 1_555
Mg119 Mg93 3.210541 1_455
Mg119 Mg91 3.212161 1_555
Mg119 Mg147 3.280866 1_555
Mg120 Mg122 3.154628 1_555
Mg120 Mg123 3.163134 1_665
Mg120 Mg126 3.169753 1_555
Mg120 Mg142 3.170605 1_555
Mg120 Mg95 3.200409 1_555
Mg120 Mg93 3.210542 1_555
Mg120 Mg92 3.212161 1_555
Mg120 Mg148 3.280866 1_555
Mg121 Mg123 3.163142 1_565
Mg121 Mg125 3.169760 1_565
Mg121 Mg145 3.170598 1_555
Mg121 Mg96 3.200409 1_555
Mg121 Mg76 3.210550 1_565
Mg121 Mg97 3.212153 1_555
Mg121 Mg147 3.280866 1_555
Mg122 Mg123 3.163134 1_665
Mg122 Mg124 3.169752 1_565
Mg122 Mg144 3.170605 1_555
Mg122 Mg99 3.190489 1_565
Mg122 Mg95 3.200402 1_555
Mg122 Mg75 3.210542 1_565
Mg122 Mg98 3.212161 1_555
Mg122 Mg148 3.280866 1_555
Mg123 Mg96 3.215345 1_545
Mg123 Mg95 3.215353 1_445
Mg123 Mg74 3.215353 1_555
Mg123 Mg146 3.216655 1_555
Mg123 Mg148 3.216662 1_445
Mg123 Mg147 3.216662 1_545
Mg124 Mg140 3.155681 1_655
Mg124 Mg144 3.155681 1_545
Mg124 Mg6 3.166459 1_556
Mg124 Mg129 3.170258 1_555
Mg124 Mg131 3.170259 1_555
Mg124 Mg99 3.172792 1_555
Mg124 Mg5 3.189310 1_556
Mg124 Mg2 3.189311 1_556
Mg124 Mg148 3.200953 1_545
Mg124 Mg146 3.200960 1_655
Mg125 Mg145 3.155682 1_545
Mg125 Mg141 3.155682 1_555
Mg125 Mg7 3.166466 1_556
Mg125 Mg130 3.170266 1_555
Mg125 Mg128 3.170274 1_555
Mg125 Mg4 3.189294 1_556
Mg125 Mg3 3.189302 1_556
Mg125 Mg146 3.200928 1_555
Mg125 Mg147 3.200943 1_545
Mg126 Mg143 3.155681 1_655
Mg126 Mg142 3.155681 1_555
Mg126 Mg18 3.166451 1_556
Mg126 Mg132 3.170258 1_555
Mg126 Mg133 3.170259 1_555
Mg126 Mg23 3.189303 1_556
Mg126 Mg22 3.189310 1_556
Mg126 Mg147 3.200952 1_655
Mg126 Mg148 3.200953 1_555
Mg127 Mg130 3.174905 1_555
Mg127 Mg128 3.174905 1_555
Mg127 Mg129 3.174914 1_555
Mg127 Mg132 3.174914 1_555
Mg127 Mg131 3.174921 1_555
Mg127 Mg133 3.174921 1_555
Mg127 Mg8 3.191762 1_556
Mg127 Mg13 3.191762 1_556
Mg128 Mg129 3.170821 1_555
Mg128 Mg130 3.179003 1_555
Mg128 Mg139 3.179823 1_545
Mg128 Mg8 3.181569 1_556
Mg128 Mg145 3.195075 1_545
Mg128 Mg7 3.197399 1_556
Mg129 Mg131 3.179002 1_555
Mg129 Mg139 3.179822 1_545
Mg129 Mg8 3.181569 1_556
Mg129 Mg144 3.195092 1_545
Mg129 Mg99 3.195298 1_555
Mg129 Mg6 3.197399 1_556
Mg130 Mg132 3.170821 1_555
Mg130 Mg137 3.179823 1_555
Mg130 Mg141 3.195083 1_555
Mg130 Mg7 3.197399 1_556
Mg131 Mg133 3.170822 1_555
Mg131 Mg138 3.179822 1_655
Mg131 Mg140 3.195091 1_655
Mg131 Mg99 3.195298 1_555
Mg131 Mg6 3.197399 1_556
Mg132 Mg133 3.179002 1_555
Mg132 Mg137 3.179822 1_555
Mg132 Mg17 3.188767 1_556
Mg132 Mg142 3.195092 1_555
Mg132 Mg18 3.197399 1_556
Mg133 Mg138 3.179822 1_655
Mg133 Mg16 3.188767 1_556
Mg133 Mg143 3.195091 1_655
Mg133 Mg18 3.197407 1_556
Mg134 Mg137 3.183449 1_555
Mg134 Mg138 3.183449 1_555
Mg134 Mg15 3.184112 1_556
Mg134 Mg14 3.184112 1_556
Mg134 Mg141 3.196296 1_555
Mg134 Mg140 3.196303 1_555
Mg134 Mg9 3.198084 1_556
Mg134 Mg135 3.202402 1_555
Mg134 Mg136 3.202409 1_555
Mg135 Mg139 3.183449 1_555
Mg135 Mg138 3.183449 1_555
Mg135 Mg19 3.184112 1_556
Mg135 Mg14 3.184112 1_556
Mg135 Mg143 3.196303 1_555
Mg135 Mg145 3.196312 1_555
Mg135 Mg20 3.198084 1_556
Mg135 Mg136 3.202417 1_555
Mg136 Mg137 3.183442 1_555
Mg136 Mg139 3.183458 1_555
Mg136 Mg15 3.184112 1_556
Mg136 Mg19 3.184120 1_556
Mg136 Mg142 3.196287 1_555
Mg136 Mg144 3.196295 1_555
Mg136 Mg21 3.198075 1_556
Mg137 Mg15 3.179426 1_556
Mg137 Mg17 3.195009 1_556
Mg137 Mg141 3.214459 1_555
Mg137 Mg142 3.214475 1_555
Mg138 Mg14 3.179426 1_556
Mg138 Mg16 3.195010 1_456
Mg138 Mg143 3.214475 1_555
Mg138 Mg140 3.214475 1_555
Mg139 Mg19 3.179426 1_556
Mg139 Mg145 3.214467 1_555
Mg139 Mg144 3.214475 1_555
Mg140 Mg9 3.165688 1_556
Mg140 Mg141 3.165996 1_555
Mg140 Mg146 3.218386 1_555
Mg140 Mg5 3.230831 1_456
Mg141 Mg9 3.165688 1_556
Mg141 Mg146 3.218394 1_555
Mg141 Mg4 3.230847 1_556
Mg142 Mg21 3.165688 1_556
Mg142 Mg144 3.165989 1_555
Mg142 Mg17 3.171881 1_556
Mg142 Mg148 3.218370 1_555
Mg142 Mg23 3.230839 1_556
Mg143 Mg20 3.165688 1_556
Mg143 Mg145 3.166004 1_555
Mg143 Mg16 3.171881 1_456
Mg143 Mg147 3.218370 1_555
Mg143 Mg22 3.230831 1_456
Mg144 Mg21 3.165688 1_556
Mg144 Mg148 3.218370 1_555
Mg144 Mg2 3.230839 1_566
Mg145 Mg20 3.165696 1_556
Mg145 Mg147 3.218377 1_555
Mg145 Mg3 3.230839 1_566
Mg146 Ni0 3.041854 1_556
Mg146 Mg147 3.043429 1_545
Mg146 Mg148 3.043436 1_445
Mg146 Mg4 3.047860 1_556
Mg146 Mg5 3.047868 1_456
Mg147 Ni0 3.041862 1_566
Mg147 Mg148 3.043444 1_455
Mg147 Mg3 3.047860 1_566
Mg147 Mg22 3.047860 1_456
Mg148 Ni0 3.041861 1_666
Mg148 Mg2 3.047852 1_566
Mg148 Mg23 3.047860 1_556
