# generated using pymatgen
data_Zr4FeCo
_symmetry_space_group_name_H-M   'P 1'
_cell_length_a   5.27659738
_cell_length_b   5.27659738
_cell_length_c   5.27659557
_cell_angle_alpha   106.85655871
_cell_angle_beta   106.85655871
_cell_angle_gamma   114.83753358
_symmetry_Int_Tables_number   1
_chemical_formula_structural   Zr4FeCo
_chemical_formula_sum   'Zr4 Fe1 Co1'
_cell_volume   112.34296232
_cell_formula_units_Z   1
loop_
 _symmetry_equiv_pos_site_id
 _symmetry_equiv_pos_as_xyz
  1  'x, y, z'
loop_
 _atom_site_type_symbol
 _atom_site_label
 _atom_site_symmetry_multiplicity
 _atom_site_fract_x
 _atom_site_fract_y
 _atom_site_fract_z
 _atom_site_occupancy
  Zr  Zr0  1  0.92696535  0.42696535  0.85393071  1
  Zr  Zr1  1  0.57303465  0.07303465  0.14606929  1
  Zr  Zr2  1  0.07303465  0.92696535  0.50000000  1
  Zr  Zr3  1  0.42696535  0.57303465  0.50000000  1
  Fe  Fe0  1  0.50000000  0.50000000  -0.00000000  1
  Co  Co0  1  -0.00000000  -0.00000000  -0.00000000  1
loop_
_geom_bond_atom_site_label_1
_geom_bond_atom_site_label_2
_geom_bond_distance
_geom_bond_site_symmetry_2
Zr0 Zr1 3.124233 1_556
Zr0 Zr1 3.124234 1_666
Zr0 Zr1 3.147302 1_555
Zr0 Zr2 3.275360 1_656
Zr0 Zr3 3.275360 1_656
Zr0 Zr3 3.275361 1_555
Zr0 Zr2 3.275361 1_645
Zr0 Zr2 3.609214 1_655
Zr0 Zr3 3.609214 1_655
Zr0 Zr3 3.609214 1_545
Zr0 Zr2 3.609214 1_545
Zr1 Zr2 3.275360 1_544
Zr1 Zr3 3.275360 1_544
Zr1 Zr3 3.275361 1_555
Zr1 Zr2 3.275361 1_645
Zr1 Zr2 3.609214 1_545
Zr1 Zr3 3.609214 1_545
Zr1 Zr2 3.609214 1_655
Zr1 Zr3 3.609214 1_655
Zr2 Zr3 3.124234 1_565
Zr2 Zr3 3.124234 1_455
Zr2 Zr3 3.147303 1_555
Fe0 Zr3 2.717059 1_554
Fe0 Zr3 2.717059 1_555
Fe0 Zr2 2.717059 1_544
Fe0 Zr2 2.717059 1_655
Fe0 Zr0 2.717059 1_554
Fe0 Zr1 2.717059 1_555
Fe0 Zr0 2.717059 1_454
Fe0 Zr1 2.717059 1_565
Co0 Zr2 2.717059 1_545
Co0 Zr2 2.717059 1_544
Co0 Zr3 2.717059 1_555
Co0 Zr3 2.717059 1_444
Co0 Zr1 2.717059 1_455
Co0 Zr0 2.717059 1_454
Co0 Zr1 2.717059 1_555
Co0 Zr0 2.717059 1_444
Co0 Fe0 2.841420 1_445
Co0 Fe0 2.841420 1_555
