# generated using pymatgen
data_CaTiBiO5
_symmetry_space_group_name_H-M   'P 1'
_cell_length_a   10.88526100
_cell_length_b   5.88465200
_cell_length_c   8.66964525
_cell_angle_alpha   72.18396439
_cell_angle_beta   90.00000000
_cell_angle_gamma   90.00000000
_symmetry_Int_Tables_number   1
_chemical_formula_structural   CaTiBiO5
_chemical_formula_sum   'Ca4 Ti4 Bi4 O20'
_cell_volume   528.71044183
_cell_formula_units_Z   4
loop_
 _symmetry_equiv_pos_site_id
 _symmetry_equiv_pos_as_xyz
  1  'x, y, z'
loop_
 _atom_site_type_symbol
 _atom_site_label
 _atom_site_symmetry_multiplicity
 _atom_site_fract_x
 _atom_site_fract_y
 _atom_site_fract_z
 _atom_site_occupancy
  Ca  Ca0  1  0.09695600  0.53392800  0.82273600  1
  Ca  Ca1  1  0.90304400  0.46607200  0.17726400  1
  Ca  Ca2  1  0.59695600  0.46607200  0.67726400  1
  Ca  Ca3  1  0.40304400  0.53392800  0.32273600  1
  Ti  Ti0  1  0.38029300  0.12610600  0.05242600  1
  Ti  Ti1  1  0.61970700  0.87389400  0.94757400  1
  Ti  Ti2  1  0.88029300  0.87389400  0.44757400  1
  Ti  Ti3  1  0.11970700  0.12610600  0.55242600  1
  Bi  Bi0  1  0.89894400  0.02328100  0.84479100  1
  Bi  Bi1  1  0.10105600  0.97671900  0.15520900  1
  Bi  Bi2  1  0.60105600  0.02328100  0.34479100  1
  Bi  Bi3  1  0.39894400  0.97671900  0.65520900  1
  O  O0  1  0.95717700  0.85300500  0.64693500  1
  O  O1  1  0.03674300  0.27573100  0.68049100  1
  O  O2  1  0.79423700  0.15823500  0.33874900  1
  O  O3  1  0.46399400  0.77351800  0.49198400  1
  O  O4  1  0.73437600  0.71263500  0.49473100  1
  O  O5  1  0.76562400  0.71263500  0.99473100  1
  O  O6  1  0.46325700  0.27573100  0.18049100  1
  O  O7  1  0.53674300  0.72426900  0.81950900  1
  O  O8  1  0.53600600  0.22648200  0.50801600  1
  O  O9  1  0.45717700  0.14699500  0.85306500  1
  O  O10  1  0.26562400  0.28736500  0.50526900  1
  O  O11  1  0.04282300  0.14699500  0.35306500  1
  O  O12  1  0.54282300  0.85300500  0.14693500  1
  O  O13  1  0.23437600  0.28736500  0.00526900  1
  O  O14  1  0.96399400  0.22648200  0.00801600  1
  O  O15  1  0.03600600  0.77351800  0.99198400  1
  O  O16  1  0.20576300  0.84176500  0.66125100  1
  O  O17  1  0.96325700  0.72426900  0.31950900  1
  O  O18  1  0.29423700  0.84176500  0.16125100  1
  O  O19  1  0.70576300  0.15823500  0.83874900  1
loop_
_geom_bond_atom_site_label_1
_geom_bond_atom_site_label_2
_geom_bond_distance
_geom_bond_site_symmetry_2
Ca0 O16 2.256654 1_555
Ca0 O1 2.324989 1_555
Ca0 O13 2.332820 1_556
Ca0 O15 2.418050 1_555
Ca0 O14 2.483927 1_456
Ca0 O0 2.532278 1_455
Ca1 O2 2.256654 1_555
Ca1 O17 2.324989 1_555
Ca1 O5 2.332820 1_554
Ca1 O14 2.418050 1_555
Ca1 O15 2.483927 1_654
Ca1 O11 2.532278 1_655
Ca2 O19 2.256654 1_555
Ca2 O7 2.324989 1_555
Ca2 O4 2.332820 1_555
Ca2 O8 2.418050 1_555
Ca2 O3 2.483927 1_555
Ca2 O9 2.532278 1_555
Ca3 O18 2.256654 1_555
Ca3 O6 2.324989 1_555
Ca3 O10 2.332820 1_555
Ca3 O3 2.418050 1_555
Ca3 O8 2.483927 1_555
Ca3 O12 2.532278 1_555
Bi0 O15 2.206104 1_645
Bi0 O14 2.229174 1_556
Bi0 O19 2.242733 1_555
Bi0 O1 2.278371 1_655
Bi0 O0 2.323792 1_545
Bi0 O5 2.384004 1_545
Bi1 O14 2.206104 1_465
Bi1 O15 2.229174 1_554
Bi1 O18 2.242733 1_555
Bi1 O17 2.278371 1_455
Bi1 O11 2.323792 1_565
Bi1 O13 2.384004 1_565
Bi2 O3 2.206104 1_545
Bi2 O8 2.229174 1_555
Bi2 O2 2.242733 1_555
Bi2 O6 2.278371 1_555
Bi2 O12 2.323792 1_545
Bi2 O4 2.384004 1_545
Bi3 O8 2.206104 1_565
Bi3 O3 2.229174 1_555
Bi3 O16 2.242733 1_555
Bi3 O7 2.278371 1_555
Bi3 O9 2.323792 1_565
Bi3 O10 2.384004 1_565
O0 Ti2 1.890194 1_555
O0 Ti3 2.361855 1_665
O1 Ti3 1.849798 1_555
O2 Ti2 1.897726 1_545
O4 Ti2 1.831145 1_555
O5 Ti1 1.831145 1_555
O6 Ti0 1.849798 1_555
O7 Ti1 1.849798 1_555
O9 Ti0 1.890194 1_556
O9 Ti1 2.361855 1_545
O10 Ti3 1.831145 1_555
O11 Ti3 1.890194 1_555
O11 Ti2 2.361855 1_445
O12 Ti1 1.890194 1_554
O12 Ti0 2.361855 1_565
O13 Ti0 1.831145 1_555
O16 Ti3 1.897726 1_565
O17 Ti2 1.849798 1_555
O18 Ti0 1.897726 1_565
O19 Ti1 1.897726 1_545
