# generated using pymatgen
data_MgZn2Bi6Ru8O27
_symmetry_space_group_name_H-M   'P 1'
_cell_length_a   7.29696462
_cell_length_b   10.39562551
_cell_length_c   7.34891527
_cell_angle_alpha   91.08488246
_cell_angle_beta   90.15256478
_cell_angle_gamma   90.03061818
_symmetry_Int_Tables_number   1
_chemical_formula_structural   MgZn2Bi6Ru8O27
_chemical_formula_sum   'Mg1 Zn2 Bi6 Ru8 O27'
_cell_volume   557.36107557
_cell_formula_units_Z   1
loop_
 _symmetry_equiv_pos_site_id
 _symmetry_equiv_pos_as_xyz
  1  'x, y, z'
loop_
 _atom_site_type_symbol
 _atom_site_label
 _atom_site_symmetry_multiplicity
 _atom_site_fract_x
 _atom_site_fract_y
 _atom_site_fract_z
 _atom_site_occupancy
  Mg  Mg0  1  0.19370176  0.01305488  0.28472657  1
  Zn  Zn0  1  0.81650265  0.27056850  0.72193222  1
  Zn  Zn1  1  0.97055524  0.97507363  0.57591730  1
  Bi  Bi0  1  0.28452730  0.72941167  0.27116588  1
  Bi  Bi1  1  0.76284441  0.24586647  0.24735807  1
  Bi  Bi2  1  0.24285194  0.75949850  0.76120368  1
  Bi  Bi3  1  0.50549377  0.47968900  0.97395454  1
  Bi  Bi4  1  0.99929990  0.49789222  0.98977061  1
  Bi  Bi5  1  0.52916248  0.00808565  0.53721644  1
  Ru  Ru0  1  0.25169399  0.26493134  0.24209787  1
  Ru  Ru1  1  0.74873226  0.74352953  0.75486254  1
  Ru  Ru2  1  0.76127626  0.75815890  0.25321625  1
  Ru  Ru3  1  0.24528728  0.24903435  0.73518603  1
  Ru  Ru4  1  0.49304033  0.99992258  0.00170263  1
  Ru  Ru5  1  0.00097190  0.50430158  0.49406632  1
  Ru  Ru6  1  0.98242394  0.00344048  0.99143313  1
  Ru  Ru7  1  0.50778954  0.49426631  0.50049477  1
  O  O0  1  0.24099973  0.92251314  0.00419977  1
  O  O1  1  0.75728765  0.40653257  0.50584885  1
  O  O2  1  0.25164319  0.33682427  0.98997167  1
  O  O3  1  0.75778500  0.83954617  0.50869691  1
  O  O4  1  0.55838097  0.62846579  0.30781884  1
  O  O5  1  0.00815689  0.12423245  0.76157704  1
  O  O6  1  0.95807168  0.62434920  0.70738921  1
  O  O7  1  0.43005182  0.11834110  0.20658347  1
  O  O8  1  0.55952577  0.61492464  0.70248644  1
  O  O9  1  0.03574047  0.14748087  0.17661122  1
  O  O10  1  0.94550253  0.62908355  0.30585926  1
  O  O11  1  0.41689346  0.10790076  0.79473814  1
  O  O12  1  0.73692818  0.05999022  0.01847065  1
  O  O13  1  0.25708883  0.57366624  0.49516036  1
  O  O14  1  0.75587007  0.67996032  0.00371412  1
  O  O15  1  0.24782560  0.18184923  0.48391696  1
  O  O16  1  0.45073680  0.36934905  0.69828251  1
  O  O17  1  0.95816260  0.89118224  0.21358381  1
  O  O18  1  0.03843678  0.38418185  0.28149056  1
  O  O19  1  0.54201461  0.87322634  0.79032722  1
  O  O20  1  0.46576181  0.37857196  0.28020826  1
  O  O21  1  0.95813805  0.86497340  0.80316036  1
  O  O22  1  0.05514377  0.38294240  0.69951227  1
  O  O23  1  0.53568058  0.87303030  0.21239121  1
  O  O24  1  0.75948950  0.34095194  0.97784358  1
  O  O25  1  0.24417361  0.90681051  0.50208230  1
  O  O26  1  0.25984009  0.62364391  0.00028517  1
loop_
_geom_bond_atom_site_label_1
_geom_bond_atom_site_label_2
_geom_bond_distance
_geom_bond_site_symmetry_2
Mg0 O9 1.987860 1_555
Mg0 O25 1.992755 1_545
Mg0 O7 2.128188 1_555
Mg0 O17 2.190957 1_445
Mg0 O0 2.277227 1_545
Mg0 O15 2.297118 1_555
Bi0 O26 2.262565 1_555
Bi0 O4 2.275317 1_555
Bi0 O13 2.339553 1_555
Bi0 O23 2.408313 1_555
Bi0 O25 2.500434 1_555
Bi0 O10 2.698780 1_455
Bi1 O24 2.230362 1_554
Bi1 O9 2.295489 1_655
Bi1 O18 2.480935 1_655
Bi1 O1 2.506035 1_555
Bi1 O12 2.544358 1_555
Bi1 O20 2.579572 1_555
Bi1 O7 2.778837 1_555
Bi2 O26 2.278144 1_556
Bi2 O21 2.367822 1_455
Bi2 O0 2.438539 1_556
Bi2 O25 2.466171 1_555
Bi2 O19 2.488804 1_555
Bi2 O6 2.533771 1_455
Bi2 O13 2.724631 1_555
Bi2 O8 2.787307 1_555
Bi3 O26 2.341764 1_556
Bi3 O16 2.342395 1_555
Bi3 O24 2.349499 1_555
Bi3 O2 2.378146 1_555
Bi3 O8 2.494334 1_555
Bi3 O20 2.519347 1_556
Bi3 O14 2.774306 1_556
Bi4 O26 2.306954 1_656
Bi4 O24 2.392128 1_555
Bi4 O22 2.460221 1_655
Bi4 O18 2.483535 1_656
Bi4 O2 2.489484 1_655
Bi4 O6 2.495099 1_555
Bi4 O14 2.597174 1_556
Bi4 O10 2.701012 1_556
Bi5 O11 2.294385 1_555
Bi5 O25 2.341825 1_545
Bi5 O19 2.352051 1_545
Bi5 O3 2.426485 1_545
Bi5 O23 2.746909 1_545
O0 Ru4 2.007354 1_555
O0 Ru6 2.068912 1_464
O1 Ru7 2.037311 1_555
O1 Ru5 2.050503 1_655
O1 Zn0 2.188186 1_555
O2 Ru0 2.010987 1_556
O2 Ru3 2.067778 1_555
O3 Ru2 2.044906 1_555
O3 Ru1 2.083814 1_555
O3 Zn1 2.146329 1_555
O4 Ru7 2.040717 1_555
O4 Ru2 2.047493 1_555
O5 Zn1 2.063652 1_445
O5 Zn0 2.090878 1_455
O5 Ru6 2.132415 1_455
O5 Ru3 2.173433 1_555
O6 Ru1 1.994643 1_555
O6 Ru5 2.010480 1_655
O7 Ru4 1.981866 1_545
O7 Ru0 2.018186 1_555
O8 Ru1 1.953814 1_555
O8 Ru7 1.960954 1_555
O9 Ru6 2.040800 1_454
O9 Ru0 2.043818 1_555
O10 Ru2 1.943215 1_555
O10 Ru5 1.955775 1_655
O11 Ru3 1.983810 1_555
O11 Ru4 1.985672 1_546
O12 Ru4 1.888641 1_545
O12 Ru6 1.895439 1_554
O13 Ru5 2.002746 1_555
O13 Ru7 2.007943 1_555
O14 Ru1 1.956831 1_554
O14 Ru2 1.991863 1_555
O15 Ru3 1.961957 1_555
O15 Ru0 1.990787 1_555
O16 Ru3 1.974436 1_555
O16 Ru7 2.011595 1_555
O17 Ru2 2.019039 1_555
O17 Ru6 2.032721 1_564
O18 Ru5 2.000820 1_555
O18 Ru0 2.008242 1_555
O19 Ru1 2.037658 1_555
O19 Ru4 2.049732 1_556
O20 Ru0 1.974137 1_555
O20 Ru7 2.021024 1_555
O21 Ru6 1.985140 1_565
O21 Ru1 2.008182 1_555
O21 Zn1 2.044546 1_555
O22 Ru3 1.986347 1_555
O22 Ru5 2.024079 1_555
O22 Zn0 2.104945 1_455
O23 Ru2 2.058864 1_555
O23 Ru4 2.075921 1_555
O24 Zn0 2.048838 1_555
O25 Zn1 2.185648 1_455
