# generated using pymatgen
data_Li7Co5O12
_symmetry_space_group_name_H-M   'P 1'
_cell_length_a   6.48122476
_cell_length_b   10.01814541
_cell_length_c   6.49189312
_cell_angle_alpha   97.47536128
_cell_angle_beta   83.36889683
_cell_angle_gamma   97.04700170
_symmetry_Int_Tables_number   1
_chemical_formula_structural   Li7Co5O12
_chemical_formula_sum   'Li14 Co10 O24'
_cell_volume   412.65141967
_cell_formula_units_Z   2
loop_
 _symmetry_equiv_pos_site_id
 _symmetry_equiv_pos_as_xyz
  1  'x, y, z'
loop_
 _atom_site_type_symbol
 _atom_site_label
 _atom_site_symmetry_multiplicity
 _atom_site_fract_x
 _atom_site_fract_y
 _atom_site_fract_z
 _atom_site_occupancy
  Li  Li0  1  0.83514800  0.25395000  0.16883100  1
  Li  Li1  1  0.83269700  0.74591000  0.16530000  1
  Li  Li2  1  0.07062400  0.12793900  0.40972400  1
  Li  Li3  1  0.07204300  0.62480800  0.41441600  1
  Li  Li4  1  0.59338600  0.37505900  0.92563300  1
  Li  Li5  1  0.59117100  0.86994200  0.92319200  1
  Li  Li6  1  0.75147000  0.12642400  0.74851400  1
  Li  Li7  1  0.75249400  0.61813600  0.75859800  1
  Li  Li8  1  0.42141000  0.12898600  0.08519200  1
  Li  Li9  1  0.42499800  0.62151900  0.08016300  1
  Li  Li10  1  0.24111600  0.37905100  0.25407100  1
  Li  Li11  1  0.24814000  0.87379800  0.24664100  1
  Li  Li12  1  0.91678700  0.37554800  0.57319200  1
  Li  Li13  1  0.91867900  0.87633300  0.58292800  1
  Co  Co0  1  0.33556900  0.00207400  0.66705400  1
  Co  Co1  1  0.33097800  0.50193400  0.66764600  1
  Co  Co2  1  0.67296600  0.99811100  0.32966500  1
  Co  Co3  1  0.66768800  0.49927000  0.33239300  1
  Co  Co4  1  0.16096500  0.74911900  0.84127900  1
  Co  Co5  1  0.99806200  0.50282900  0.00308600  1
  Co  Co6  1  0.99629200  0.00081700  0.00482000  1
  Co  Co7  1  0.50831900  0.25376600  0.48344800  1
  Co  Co8  1  0.51900100  0.74865800  0.48868100  1
  Co  Co9  1  0.15059400  0.25263400  0.83964500  1
  O  O0  1  0.44061400  0.18386100  0.77638400  1
  O  O1  1  0.42939000  0.68120800  0.78313700  1
  O  O2  1  0.22097700  0.32789900  0.55484800  1
  O  O3  1  0.22188400  0.81220700  0.56695300  1
  O  O4  1  0.94689300  0.44676000  0.27916300  1
  O  O5  1  0.94143700  0.94528700  0.27998500  1
  O  O6  1  0.72840800  0.04951000  0.05045100  1
  O  O7  1  0.71949100  0.55548000  0.05676400  1
  O  O8  1  0.12071400  0.16932200  0.10712400  1
  O  O9  1  0.12324100  0.68283800  0.09711400  1
  O  O10  1  0.77435100  0.17394600  0.44972200  1
  O  O11  1  0.77310000  0.67839200  0.46233100  1
  O  O12  1  0.89397900  0.32161400  0.87602600  1
  O  O13  1  0.90523400  0.81953900  0.87844100  1
  O  O14  1  0.54056300  0.31909400  0.22344700  1
  O  O15  1  0.54748000  0.82558400  0.22355600  1
  O  O16  1  0.60570200  0.44202900  0.61541100  1
  O  O17  1  0.62240800  0.93740900  0.60478600  1
  O  O18  1  0.27990700  0.44407800  0.93663800  1
  O  O19  1  0.26487700  0.93004200  0.95347700  1
  O  O20  1  0.39995400  0.05814700  0.37673900  1
  O  O21  1  0.38541500  0.55935200  0.39669500  1
  O  O22  1  0.04474400  0.06114600  0.72899700  1
  O  O23  1  0.05863700  0.56863800  0.72769800  1
loop_
_geom_bond_atom_site_label_1
_geom_bond_atom_site_label_2
_geom_bond_distance
_geom_bond_site_symmetry_2
Li0 O4 2.045774 1_555
Li0 O10 2.063907 1_555
Li0 O14 2.070297 1_555
Li0 O12 2.079091 1_554
Li0 O8 2.104805 1_655
Li0 O6 2.151635 1_555
Li1 O7 2.024973 1_555
Li1 O9 2.041532 1_655
Li1 O13 2.074428 1_554
Li1 O15 2.078297 1_555
Li1 O11 2.104351 1_555
Li1 O5 2.104616 1_555
Li2 O10 2.009461 1_455
Li2 O5 2.035845 1_445
Li2 O8 2.041549 1_555
Li2 O22 2.241642 1_555
Li2 O2 2.256570 1_555
Li2 O20 2.304844 1_555
Li3 O4 2.003118 1_455
Li3 O11 2.052184 1_455
Li3 O23 2.169215 1_555
Li3 O3 2.177003 1_555
Li3 O9 2.190349 1_555
Li3 O21 2.195800 1_555
Li4 O7 2.014334 1_556
Li4 O14 2.061937 1_556
Li4 O12 2.062059 1_555
Li4 O16 2.194017 1_555
Li4 O0 2.204866 1_555
Li4 O18 2.215724 1_555
Li5 O6 2.024906 1_566
Li5 O15 2.036409 1_556
Li5 O13 2.135446 1_555
Li5 O1 2.188041 1_555
Li5 O17 2.236929 1_555
Li5 O19 2.249240 1_555
Li6 O10 2.041497 1_555
Li6 O22 2.069900 1_655
Li6 O17 2.118451 1_545
Li6 O0 2.143861 1_555
Li6 O12 2.162020 1_555
Li6 O6 2.180664 1_556
Li7 O16 2.060953 1_555
Li7 O11 2.074714 1_555
Li7 O23 2.084880 1_655
Li7 O7 2.091440 1_556
Li7 O13 2.221635 1_555
Li7 O1 2.243069 1_555
Li8 O8 2.023825 1_555
Li8 O20 2.090397 1_555
Li8 O14 2.093705 1_555
Li8 O0 2.132857 1_554
Li8 O6 2.209559 1_555
Li8 O19 2.234604 1_544
Li9 O18 2.067279 1_554
Li9 O7 2.078592 1_555
Li9 O1 2.088000 1_554
Li9 O9 2.107593 1_555
Li9 O21 2.201889 1_555
Li9 O15 2.225623 1_555
Li10 O2 2.068192 1_555
Li10 O14 2.081540 1_555
Li10 O4 2.083244 1_455
Li10 O21 2.084450 1_555
Li10 O18 2.218945 1_554
Li10 O8 2.276332 1_555
Li11 O15 2.040504 1_555
Li11 O19 2.041504 1_554
Li11 O20 2.105338 1_565
Li11 O9 2.139086 1_555
Li11 O5 2.172734 1_455
Li11 O3 2.227124 1_555
Li12 O2 2.071439 1_655
Li12 O12 2.090095 1_555
Li12 O4 2.103502 1_555
Li12 O16 2.176734 1_555
Li12 O23 2.205669 1_655
Li12 O10 2.205900 1_555
Li13 O13 2.060333 1_555
Li13 O17 2.069890 1_555
Li13 O22 2.084634 1_665
Li13 O3 2.128520 1_655
Li13 O5 2.151338 1_555
Li13 O11 2.177852 1_555
Co0 O0 1.937774 1_555
Co0 O3 2.007066 1_545
Co0 O20 2.019428 1_555
Co0 O17 2.023122 1_545
Co0 O22 2.025217 1_555
Co0 O19 2.063830 1_545
Co1 O2 1.888836 1_555
Co1 O18 1.891495 1_555
Co1 O21 1.902507 1_555
Co1 O1 1.916650 1_555
Co1 O16 1.927511 1_555
Co1 O23 1.943409 1_555
Co2 O5 1.861092 1_555
Co2 O15 1.896845 1_555
Co2 O10 1.902444 1_565
Co2 O20 1.916901 1_565
Co2 O6 1.930522 1_565
Co2 O17 1.940550 1_555
Co3 O7 1.925788 1_555
Co3 O4 1.926815 1_555
Co3 O11 1.958792 1_555
Co3 O14 1.968426 1_555
Co3 O21 1.977869 1_555
Co3 O16 1.978167 1_555
Co4 O9 1.847285 1_556
Co4 O13 1.858309 1_455
Co4 O1 1.924555 1_555
Co4 O23 1.929903 1_555
Co4 O19 1.933797 1_555
Co4 O3 1.948379 1_555
Co5 O7 1.923526 1_555
Co5 O4 1.927867 1_555
Co5 O9 1.936980 1_655
Co5 O23 1.966229 1_654
Co5 O12 1.967142 1_554
Co5 O18 1.971065 1_654
Co6 O6 1.841627 1_555
Co6 O8 1.854465 1_655
Co6 O5 1.921006 1_545
Co6 O19 1.936859 1_644
Co6 O22 1.943026 1_654
Co6 O13 1.944397 1_544
Co7 O14 1.869067 1_555
Co7 O10 1.966176 1_555
Co7 O16 2.025296 1_555
Co7 O20 2.057948 1_555
Co7 O2 2.070052 1_555
Co7 O0 2.092344 1_555
Co8 O11 1.850684 1_555
Co8 O15 1.956334 1_555
Co8 O17 2.006935 1_555
Co8 O21 2.030947 1_555
Co8 O3 2.088640 1_555
Co8 O1 2.105099 1_555
Co9 O12 1.856966 1_455
Co9 O8 2.002283 1_556
Co9 O22 2.024611 1_555
Co9 O18 2.047081 1_555
Co9 O0 2.059714 1_555
Co9 O2 2.068457 1_555
