# generated using pymatgen
data_SmMg2Ti3S8
_symmetry_space_group_name_H-M   'P 1'
_cell_length_a   7.61928645
_cell_length_b   7.61902768
_cell_length_c   7.61879216
_cell_angle_alpha   58.01167041
_cell_angle_beta   58.00828437
_cell_angle_gamma   58.00804886
_symmetry_Int_Tables_number   1
_chemical_formula_structural   SmMg2Ti3S8
_chemical_formula_sum   'Sm1 Mg2 Ti3 S8'
_cell_volume   298.46095121
_cell_formula_units_Z   1
loop_
 _symmetry_equiv_pos_site_id
 _symmetry_equiv_pos_as_xyz
  1  'x, y, z'
loop_
 _atom_site_type_symbol
 _atom_site_label
 _atom_site_symmetry_multiplicity
 _atom_site_fract_x
 _atom_site_fract_y
 _atom_site_fract_z
 _atom_site_occupancy
  Sm  Sm0  1  0.50000047  0.50000022  0.49999177  1
  Mg  Mg0  1  0.87161110  0.87162125  0.87161215  1
  Mg  Mg1  1  0.12839385  0.12838161  0.12839196  1
  Ti  Ti0  1  0.50000334  0.50000051  0.99999488  1
  Ti  Ti1  1  0.99999359  0.50000204  0.50000568  1
  Ti  Ti2  1  0.50000262  0.99999249  0.50000661  1
  S  S0  1  0.74028963  0.74030255  0.74032775  1
  S  S1  1  0.24327513  0.24329511  0.72898735  1
  S  S2  1  0.24332992  0.72897979  0.24327100  1
  S  S3  1  0.72897279  0.24333209  0.24326833  1
  S  S4  1  0.75666829  0.27102258  0.75672002  1
  S  S5  1  0.27102875  0.75666172  0.75673219  1
  S  S6  1  0.25971248  0.25969792  0.25967872  1
  S  S7  1  0.75672205  0.75670411  0.27101457  1
loop_
_geom_bond_atom_site_label_1
_geom_bond_atom_site_label_2
_geom_bond_distance
_geom_bond_site_symmetry_2
Mg0 S7 2.441181 1_556
Mg0 S4 2.441229 1_565
Mg0 S5 2.441355 1_655
Mg0 S0 2.486794 1_555
Mg1 S1 2.441205 1_554
Mg1 S2 2.441249 1_545
Mg1 S3 2.441388 1_455
Mg1 S6 2.486776 1_555
S0 Ti1 2.548319 1_555
S0 Ti0 2.548361 1_555
S0 Ti2 2.548420 1_555
S1 Ti2 2.504868 1_545
S1 Ti1 2.504933 1_455
S1 Sm0 2.741858 1_555
S2 Ti0 2.504709 1_554
S2 Ti1 2.505252 1_455
S2 Sm0 2.741586 1_555
S3 Ti0 2.504819 1_554
S3 Ti2 2.505232 1_545
S3 Sm0 2.741405 1_555
S4 Ti0 2.504694 1_555
S4 Ti1 2.505199 1_555
S4 Sm0 2.741615 1_555
S5 Ti0 2.504787 1_555
S5 Ti2 2.505202 1_555
S5 Sm0 2.741465 1_555
S6 Ti1 2.548365 1_455
S6 Ti0 2.548390 1_554
S6 Ti2 2.548474 1_545
S7 Ti2 2.504849 1_555
S7 Ti1 2.504928 1_555
S7 Sm0 2.741846 1_555
