# generated using pymatgen
data_Ti3Al5
_symmetry_space_group_name_H-M   'P 1'
_cell_length_a   3.90101378
_cell_length_b   4.01393894
_cell_length_c   8.08329050
_cell_angle_alpha   90.00000000
_cell_angle_beta   90.00000000
_cell_angle_gamma   90.00000000
_symmetry_Int_Tables_number   1
_chemical_formula_structural   Ti3Al5
_chemical_formula_sum   'Ti3 Al5'
_cell_volume   126.57164749
_cell_formula_units_Z   1
loop_
 _symmetry_equiv_pos_site_id
 _symmetry_equiv_pos_as_xyz
  1  'x, y, z'
loop_
 _atom_site_type_symbol
 _atom_site_label
 _atom_site_symmetry_multiplicity
 _atom_site_fract_x
 _atom_site_fract_y
 _atom_site_fract_z
 _atom_site_occupancy
  Ti  Ti0  1  0.00000000  0.50000000  0.26506523  1
  Ti  Ti1  1  0.00000000  0.50000000  0.73493477  1
  Ti  Ti2  1  0.50000000  0.50000000  0.00000000  1
  Al  Al0  1  0.00000000  0.00000000  -0.00000000  1
  Al  Al1  1  0.00000000  0.00000000  0.50000000  1
  Al  Al2  1  0.50000000  0.50000000  0.50000000  1
  Al  Al3  1  0.50000000  -0.00000000  0.24223368  1
  Al  Al4  1  0.50000000  -0.00000000  0.75776632  1
loop_
_geom_bond_atom_site_label_1
_geom_bond_atom_site_label_2
_geom_bond_distance
_geom_bond_site_symmetry_2
Ti0 Ti2 2.897449 1_455
Ti0 Ti2 2.897449 1_555
Ti1 Ti2 2.897449 1_456
Ti1 Ti2 2.897449 1_556
Al0 Al3 2.763769 1_455
Al0 Al4 2.763769 1_554
Al0 Al3 2.763769 1_555
Al0 Al4 2.763769 1_454
Al0 Ti2 2.798643 1_555
Al0 Ti2 2.798643 1_445
Al0 Ti2 2.798643 1_545
Al0 Ti2 2.798643 1_455
Al0 Ti1 2.935755 1_544
Al0 Ti1 2.935755 1_554
Al0 Ti0 2.935755 1_555
Al0 Ti0 2.935755 1_545
Al1 Ti1 2.763024 1_545
Al1 Ti1 2.763024 1_555
Al1 Ti0 2.763024 1_555
Al1 Ti0 2.763024 1_545
Al1 Al2 2.798643 1_455
Al1 Al2 2.798643 1_445
Al1 Al2 2.798643 1_545
Al1 Al2 2.798643 1_555
Al1 Al4 2.854096 1_555
Al1 Al3 2.854096 1_455
Al1 Al4 2.854096 1_455
Al1 Al3 2.854096 1_555
Al2 Ti1 2.722288 1_555
Al2 Ti1 2.722288 1_655
Al2 Ti0 2.722288 1_555
Al2 Ti0 2.722288 1_655
Al2 Al3 2.892977 1_565
Al2 Al3 2.892977 1_555
Al2 Al4 2.892977 1_565
Al2 Al4 2.892977 1_555
Al3 Ti2 2.803902 1_545
Al3 Ti2 2.803902 1_555
Al3 Ti0 2.804722 1_645
Al3 Ti0 2.804722 1_545
Al3 Ti0 2.804722 1_655
Al3 Ti0 2.804722 1_555
Al4 Ti2 2.803902 1_546
Al4 Ti2 2.803902 1_556
Al4 Ti1 2.804722 1_545
Al4 Ti1 2.804722 1_645
Al4 Ti1 2.804722 1_555
Al4 Ti1 2.804722 1_655
