# generated using pymatgen
data_Mg
_symmetry_space_group_name_H-M   'P 1'
_cell_length_a   6.08967514
_cell_length_b   6.10059844
_cell_length_c   6.10059844
_cell_angle_alpha   119.99997486
_cell_angle_beta   90.00000000
_cell_angle_gamma   90.00000000
_symmetry_Int_Tables_number   1
_chemical_formula_structural   Mg
_chemical_formula_sum   Mg8
_cell_volume   196.27715126
_cell_formula_units_Z   8
loop_
 _symmetry_equiv_pos_site_id
 _symmetry_equiv_pos_as_xyz
  1  'x, y, z'
loop_
 _atom_site_type_symbol
 _atom_site_label
 _atom_site_symmetry_multiplicity
 _atom_site_fract_x
 _atom_site_fract_y
 _atom_site_fract_z
 _atom_site_occupancy
  Mg  Mg0_0  1  0.00000000  0.00000000  0.00000000  1
  Mg  Mg0_1  1  0.00000000  0.00000000  0.50000000  1
  Mg  Mg0_2  1  0.00000000  0.50000000  0.00000000  1
  Mg  Mg0_3  1  0.00000000  0.50000000  0.50000000  1
  Mg  Mg0_4  1  0.50000000  0.00000000  0.00000000  1
  Mg  Mg0_5  1  0.50000000  0.00000000  0.50000000  1
  Mg  Mg0_6  1  0.50000000  0.50000000  0.00000000  1
  Mg  Mg0_7  1  0.50000000  0.50000000  0.50000000  1
loop_
_geom_bond_atom_site_label_1
_geom_bond_atom_site_label_2
_geom_bond_distance
_geom_bond_site_symmetry_2
Mg0_0 Mg0_4 3.044838 1_455
Mg0_0 Mg0_4 3.044838 1_555
Mg0_0 Mg0_2 3.050299 1_545
Mg0_0 Mg0_1 3.050299 1_555
Mg0_0 Mg0_2 3.050299 1_555
Mg0_0 Mg0_1 3.050299 1_554
Mg0_0 Mg0_3 3.050300 1_555
Mg0_0 Mg0_3 3.050300 1_544
Mg0_1 Mg0_5 3.044838 1_555
Mg0_1 Mg0_5 3.044838 1_455
Mg0_1 Mg0_3 3.050299 1_545
Mg0_1 Mg0_3 3.050299 1_555
Mg0_1 Mg0_2 3.050300 1_545
Mg0_1 Mg0_2 3.050300 1_556
Mg0_2 Mg0_6 3.044838 1_455
Mg0_2 Mg0_6 3.044838 1_555
Mg0_2 Mg0_3 3.050299 1_555
Mg0_2 Mg0_3 3.050299 1_554
Mg0_3 Mg0_7 3.044838 1_455
Mg0_3 Mg0_7 3.044838 1_555
Mg0_4 Mg0_5 3.050299 1_555
Mg0_4 Mg0_5 3.050299 1_554
Mg0_4 Mg0_6 3.050299 1_545
Mg0_4 Mg0_6 3.050299 1_555
Mg0_4 Mg0_7 3.050300 1_555
Mg0_4 Mg0_7 3.050300 1_544
Mg0_5 Mg0_7 3.050299 1_545
Mg0_5 Mg0_7 3.050299 1_555
Mg0_5 Mg0_6 3.050300 1_556
Mg0_5 Mg0_6 3.050300 1_545
Mg0_6 Mg0_7 3.050299 1_555
Mg0_6 Mg0_7 3.050299 1_554
