# generated using pymatgen
data_CaEu3
_symmetry_space_group_name_H-M   'P 1'
_cell_length_a   7.99831827
_cell_length_b   7.99827321
_cell_length_c   6.37768675
_cell_angle_alpha   90.00000000
_cell_angle_beta   90.00000000
_cell_angle_gamma   119.99980883
_symmetry_Int_Tables_number   1
_chemical_formula_structural   CaEu3
_chemical_formula_sum   'Ca2 Eu6'
_cell_volume   353.33736756
_cell_formula_units_Z   2
loop_
 _symmetry_equiv_pos_site_id
 _symmetry_equiv_pos_as_xyz
  1  'x, y, z'
loop_
 _atom_site_type_symbol
 _atom_site_label
 _atom_site_symmetry_multiplicity
 _atom_site_fract_x
 _atom_site_fract_y
 _atom_site_fract_z
 _atom_site_occupancy
  Ca  Ca0  1  0.33333962  0.66667031  0.75000000  1
  Ca  Ca1  1  0.66664279  0.33332089  0.25000000  1
  Eu  Eu0  1  0.16603076  0.33199946  0.25000000  1
  Eu  Eu1  1  0.66798354  0.83399177  0.25000000  1
  Eu  Eu2  1  0.16603076  0.83403130  0.25000000  1
  Eu  Eu3  1  0.83397994  0.66799984  0.75000000  1
  Eu  Eu4  1  0.33201265  0.16600633  0.75000000  1
  Eu  Eu5  1  0.83397994  0.16598010  0.75000000  1
loop_
_geom_bond_atom_site_label_1
_geom_bond_atom_site_label_2
_geom_bond_distance
_geom_bond_site_symmetry_2
Ca0 Eu1 3.942314 1_556
Ca0 Eu1 3.942314 1_555
Ca0 Eu2 3.942412 1_556
Ca0 Eu2 3.942412 1_555
Ca0 Eu0 3.942416 1_555
Ca0 Eu0 3.942416 1_556
Ca0 Eu5 3.998971 1_565
Ca0 Eu3 3.998974 1_555
Ca0 Eu4 3.999143 1_565
Ca0 Eu4 3.999151 1_555
Ca0 Eu3 3.999365 1_455
Ca0 Eu5 3.999370 1_455
Ca1 Eu4 3.942258 1_555
Ca1 Eu4 3.942258 1_554
Ca1 Eu5 3.942445 1_555
Ca1 Eu5 3.942445 1_554
Ca1 Eu3 3.942449 1_555
Ca1 Eu3 3.942449 1_554
Ca1 Eu2 3.998777 1_545
Ca1 Eu0 3.998780 1_555
Ca1 Eu1 3.999143 1_545
Ca1 Eu1 3.999151 1_555
Ca1 Eu0 3.999559 1_655
Ca1 Eu2 3.999563 1_655
Eu0 Eu4 3.931465 1_555
Eu0 Eu4 3.931465 1_554
Eu0 Eu5 3.931779 1_454
Eu0 Eu5 3.931779 1_455
Eu0 Eu2 3.982885 1_545
Eu0 Eu1 3.983382 1_445
Eu0 Eu1 4.014936 1_555
Eu0 Eu2 4.015388 1_555
Eu1 Eu3 3.931519 1_555
Eu1 Eu3 3.931519 1_554
Eu1 Eu5 3.931519 1_565
Eu1 Eu5 3.931519 1_564
Eu1 Eu2 3.983382 1_655
Eu1 Eu2 4.014936 1_555
Eu2 Eu4 3.931465 1_565
Eu2 Eu4 3.931465 1_564
Eu2 Eu3 3.931779 1_454
Eu2 Eu3 3.931779 1_455
Eu3 Eu5 3.982982 1_565
Eu3 Eu4 3.983320 1_665
Eu3 Eu4 4.014999 1_555
Eu3 Eu5 4.015291 1_555
Eu4 Eu5 3.983319 1_455
Eu4 Eu5 4.014999 1_555
