# generated using pymatgen
data_NdMg2TaO6
_symmetry_space_group_name_H-M   'P 1'
_cell_length_a   7.30148105
_cell_length_b   6.74958171
_cell_length_c   7.61019572
_cell_angle_alpha   90.00000000
_cell_angle_beta   58.59121142
_cell_angle_gamma   117.52957071
_symmetry_Int_Tables_number   1
_chemical_formula_structural   NdMg2TaO6
_chemical_formula_sum   'Nd2 Mg4 Ta2 O12'
_cell_volume   269.08752342
_cell_formula_units_Z   2
loop_
 _symmetry_equiv_pos_site_id
 _symmetry_equiv_pos_as_xyz
  1  'x, y, z'
loop_
 _atom_site_type_symbol
 _atom_site_label
 _atom_site_symmetry_multiplicity
 _atom_site_fract_x
 _atom_site_fract_y
 _atom_site_fract_z
 _atom_site_occupancy
  Nd  Nd0  1  0.00000000  0.00000000  0.50000000  1
  Nd  Nd1  1  0.00000000  0.00000000  0.00000000  1
  Mg  Mg0  1  0.50000000  0.00000000  0.50000000  1
  Mg  Mg1  1  0.50000000  0.50000000  0.50000000  1
  Mg  Mg2  1  0.50000000  0.50000000  0.00000000  1
  Mg  Mg3  1  0.50000000  0.00000000  0.00000000  1
  Ta  Ta0  1  0.00000000  0.50000000  0.00000000  1
  Ta  Ta1  1  0.00000000  0.50000000  0.50000000  1
  O  O0  1  0.72310400  0.86155200  0.38844800  1
  O  O1  1  0.16180600  0.58090300  0.66909700  1
  O  O2  1  0.24044600  0.83516300  0.94626300  1
  O  O3  1  0.24044600  0.40528300  0.31329000  1
  O  O4  1  0.24044600  0.40528300  0.94626300  1
  O  O5  1  0.24044600  0.83516300  0.31329000  1
  O  O6  1  0.27689600  0.13844800  0.61155200  1
  O  O7  1  0.83819400  0.41909700  0.33090300  1
  O  O8  1  0.75955400  0.16483700  0.05373700  1
  O  O9  1  0.75955400  0.59471700  0.68671000  1
  O  O10  1  0.75955400  0.59471700  0.05373700  1
  O  O11  1  0.75955400  0.16483700  0.68671000  1
loop_
_geom_bond_atom_site_label_1
_geom_bond_atom_site_label_2
_geom_bond_distance
_geom_bond_site_symmetry_2
Nd0 O9 2.354690 1_445
Nd0 O3 2.354690 1_555
Nd0 O5 2.354690 1_545
Nd0 O11 2.354690 1_455
Nd0 O6 2.392454 1_555
Nd0 O0 2.392454 1_445
Nd1 O10 2.354688 1_445
Nd1 O2 2.354688 1_544
Nd1 O4 2.354688 1_554
Nd1 O8 2.354688 1_455
Nd1 O6 2.392454 1_554
Nd1 O0 2.392454 1_445
Mg0 O6 2.052638 1_555
Mg0 O0 2.052638 1_545
Mg0 O1 2.446666 1_545
Mg0 O7 2.446666 1_555
Mg1 O0 2.052638 1_555
Mg1 O6 2.052638 1_555
Mg1 O1 2.446666 1_555
Mg1 O7 2.446666 1_555
Mg2 O9 1.963476 1_554
Mg2 O3 1.963476 1_555
Mg2 O10 1.963481 1_555
Mg2 O4 1.963481 1_554
Mg3 O11 1.963476 1_554
Mg3 O5 1.963476 1_545
Mg3 O8 1.963481 1_555
Mg3 O2 1.963481 1_544
O1 Ta0 2.082834 1_556
O1 Ta1 2.082834 1_555
O2 Ta0 1.986789 1_556
O3 Ta1 1.986791 1_555
O4 Ta0 1.986789 1_556
O5 Ta1 1.986791 1_555
O7 Ta0 2.082834 1_655
O7 Ta1 2.082834 1_655
O8 Ta0 1.986789 1_655
O9 Ta1 1.986791 1_655
O10 Ta0 1.986789 1_655
O11 Ta1 1.986791 1_655
