# generated using pymatgen
data_Nb2CrMo2
_symmetry_space_group_name_H-M   'P 1'
_cell_length_a   22.78954882
_cell_length_b   22.56070310
_cell_length_c   5.52906986
_cell_angle_alpha   85.35750717
_cell_angle_beta   80.64861076
_cell_angle_gamma   13.99388207
_symmetry_Int_Tables_number   1
_chemical_formula_structural   Nb2CrMo2
_chemical_formula_sum   'Nb16 Cr8 Mo16'
_cell_volume   642.26866548
_cell_formula_units_Z   8
loop_
 _symmetry_equiv_pos_site_id
 _symmetry_equiv_pos_as_xyz
  1  'x, y, z'
loop_
 _atom_site_type_symbol
 _atom_site_label
 _atom_site_symmetry_multiplicity
 _atom_site_fract_x
 _atom_site_fract_y
 _atom_site_fract_z
 _atom_site_occupancy
  Nb  Nb0_0  1  0.39910350  0.39910350  0.10089650  1
  Nb  Nb0_1  1  0.39910350  0.39910350  0.60089650  1
  Nb  Nb0_2  1  0.39910350  0.89910350  0.10089650  1
  Nb  Nb0_3  1  0.39910350  0.89910350  0.60089650  1
  Nb  Nb0_4  1  0.89910350  0.39910350  0.10089650  1
  Nb  Nb0_5  1  0.89910350  0.39910350  0.60089650  1
  Nb  Nb0_6  1  0.89910350  0.89910350  0.10089650  1
  Nb  Nb0_7  1  0.89910350  0.89910350  0.60089650  1
  Nb  Nb1_0  1  0.20451750  0.20451750  0.29548250  1
  Nb  Nb1_1  1  0.20451750  0.20451750  0.79548250  1
  Nb  Nb1_2  1  0.20451750  0.70451750  0.29548250  1
  Nb  Nb1_3  1  0.20451750  0.70451750  0.79548250  1
  Nb  Nb1_4  1  0.70451750  0.20451750  0.29548250  1
  Nb  Nb1_5  1  0.70451750  0.20451750  0.79548250  1
  Nb  Nb1_6  1  0.70451750  0.70451750  0.29548250  1
  Nb  Nb1_7  1  0.70451750  0.70451750  0.79548250  1
  Cr  Cr0_0  1  0.00222400  0.00222400  0.49777600  1
  Cr  Cr0_1  1  0.00222400  0.00222400  0.99777600  1
  Cr  Cr0_2  1  0.00222400  0.50222400  0.49777600  1
  Cr  Cr0_3  1  0.00222400  0.50222400  0.99777600  1
  Cr  Cr0_4  1  0.50222400  0.00222400  0.49777600  1
  Cr  Cr0_5  1  0.50222400  0.00222400  0.99777600  1
  Cr  Cr0_6  1  0.50222400  0.50222400  0.49777600  1
  Cr  Cr0_7  1  0.50222400  0.50222400  0.99777600  1
  Mo  Mo0_0  1  0.29717700  0.29717700  0.20282300  1
  Mo  Mo0_1  1  0.29717700  0.29717700  0.70282300  1
  Mo  Mo0_2  1  0.29717700  0.79717700  0.20282300  1
  Mo  Mo0_3  1  0.29717700  0.79717700  0.70282300  1
  Mo  Mo0_4  1  0.79717700  0.29717700  0.20282300  1
  Mo  Mo0_5  1  0.79717700  0.29717700  0.70282300  1
  Mo  Mo0_6  1  0.79717700  0.79717700  0.20282300  1
  Mo  Mo0_7  1  0.79717700  0.79717700  0.70282300  1
  Mo  Mo1_0  1  0.09697800  0.09697800  0.40302200  1
  Mo  Mo1_1  1  0.09697800  0.09697800  0.90302200  1
  Mo  Mo1_2  1  0.09697800  0.59697800  0.40302200  1
  Mo  Mo1_3  1  0.09697800  0.59697800  0.90302200  1
  Mo  Mo1_4  1  0.59697800  0.09697800  0.40302200  1
  Mo  Mo1_5  1  0.59697800  0.09697800  0.90302200  1
  Mo  Mo1_6  1  0.59697800  0.59697800  0.40302200  1
  Mo  Mo1_7  1  0.59697800  0.59697800  0.90302200  1
loop_
_geom_bond_atom_site_label_1
_geom_bond_atom_site_label_2
_geom_bond_distance
_geom_bond_site_symmetry_2
Nb0_0 Nb0_6 2.764535 1_545
Nb0_0 Nb0_1 2.764535 1_555
Nb0_0 Nb0_1 2.764535 1_554
Nb0_0 Nb0_6 2.764535 1_455
Nb0_0 Nb1_5 2.941399 1_554
Nb0_0 Nb1_2 2.941399 1_555
Nb0_1 Nb0_7 2.764535 1_455
Nb0_1 Nb0_7 2.764535 1_545
Nb0_1 Nb1_3 2.941399 1_555
Nb0_1 Nb1_4 2.941399 1_555
Nb0_2 Nb0_3 2.764535 1_555
Nb0_2 Nb0_4 2.764535 1_555
Nb0_2 Nb0_3 2.764535 1_554
Nb0_2 Nb0_4 2.764535 1_465
Nb0_2 Nb1_7 2.941399 1_554
Nb0_2 Nb1_0 2.941399 1_565
Nb0_3 Nb0_5 2.764535 1_465
Nb0_3 Nb0_5 2.764535 1_555
Nb0_3 Nb1_1 2.941399 1_565
Nb0_3 Nb1_6 2.941399 1_555
Nb0_4 Nb0_5 2.764535 1_554
Nb0_4 Nb0_5 2.764535 1_555
Nb0_4 Nb1_6 2.941399 1_555
Nb0_4 Nb1_1 2.941399 1_654
Nb0_5 Nb1_7 2.941399 1_555
Nb0_5 Nb1_0 2.941399 1_655
Nb0_6 Nb0_7 2.764535 1_554
Nb0_6 Nb0_7 2.764535 1_555
Nb0_6 Nb1_3 2.941399 1_654
Nb0_6 Nb1_4 2.941399 1_565
Nb0_7 Nb1_5 2.941399 1_565
Nb0_7 Nb1_2 2.941399 1_655
Nb1_0 Nb1_1 2.764535 1_555
Nb1_0 Nb1_6 2.764535 1_545
Nb1_0 Nb1_1 2.764535 1_554
Nb1_0 Nb1_6 2.764535 1_455
Nb1_1 Nb1_7 2.764535 1_455
Nb1_1 Nb1_7 2.764535 1_545
Nb1_2 Nb1_3 2.764535 1_555
Nb1_2 Nb1_4 2.764535 1_465
Nb1_2 Nb1_4 2.764535 1_555
Nb1_2 Nb1_3 2.764535 1_554
Nb1_3 Nb1_5 2.764535 1_465
Nb1_3 Nb1_5 2.764535 1_555
Nb1_4 Nb1_5 2.764535 1_554
Nb1_4 Nb1_5 2.764535 1_555
Nb1_6 Nb1_7 2.764535 1_554
Nb1_6 Nb1_7 2.764535 1_555
Cr0_0 Mo0_5 2.560589 1_455
Cr0_0 Mo0_2 2.560589 1_545
Cr0_0 Nb1_2 2.658149 1_545
Cr0_0 Nb1_5 2.658149 1_455
Cr0_0 Cr0_6 2.764535 1_455
Cr0_0 Cr0_1 2.764535 1_555
Cr0_0 Cr0_6 2.764535 1_545
Cr0_0 Cr0_1 2.764535 1_554
Cr0_1 Mo0_3 2.560589 1_545
Cr0_1 Mo0_4 2.560589 1_456
Cr0_1 Nb1_4 2.658149 1_456
Cr0_1 Nb1_3 2.658149 1_545
Cr0_1 Cr0_7 2.764535 1_455
Cr0_1 Cr0_7 2.764535 1_545
Cr0_2 Mo0_7 2.560589 1_455
Cr0_2 Mo0_0 2.560589 1_555
Cr0_2 Nb1_0 2.658149 1_555
Cr0_2 Nb1_7 2.658149 1_455
Cr0_2 Cr0_3 2.764535 1_555
Cr0_2 Cr0_4 2.764535 1_555
Cr0_2 Cr0_3 2.764535 1_554
Cr0_2 Cr0_4 2.764535 1_465
Cr0_3 Mo0_6 2.560589 1_456
Cr0_3 Mo0_1 2.560589 1_555
Cr0_3 Nb1_6 2.658149 1_456
Cr0_3 Nb1_1 2.658149 1_555
Cr0_3 Cr0_5 2.764535 1_465
Cr0_3 Cr0_5 2.764535 1_555
Cr0_4 Mo0_1 2.560589 1_555
Cr0_4 Mo0_6 2.560589 1_545
Cr0_4 Nb1_1 2.658149 1_555
Cr0_4 Nb1_6 2.658149 1_545
Cr0_4 Cr0_5 2.764535 1_554
Cr0_4 Cr0_5 2.764535 1_555
Cr0_5 Mo0_7 2.560589 1_545
Cr0_5 Mo0_0 2.560589 1_556
Cr0_5 Nb1_0 2.658149 1_556
Cr0_5 Nb1_7 2.658149 1_545
Cr0_6 Mo0_3 2.560589 1_555
Cr0_6 Mo0_4 2.560589 1_555
Cr0_6 Nb1_4 2.658149 1_555
Cr0_6 Nb1_3 2.658149 1_555
Cr0_6 Cr0_7 2.764535 1_554
Cr0_6 Cr0_7 2.764535 1_555
Cr0_7 Mo0_5 2.560589 1_555
Cr0_7 Mo0_2 2.560589 1_556
Cr0_7 Nb1_2 2.658149 1_556
Cr0_7 Nb1_5 2.658149 1_555
Mo0_0 Mo1_5 2.733735 1_554
Mo0_0 Mo1_2 2.733735 1_555
Mo0_0 Mo0_6 2.764535 1_545
Mo0_0 Mo0_1 2.764535 1_555
Mo0_0 Mo0_6 2.764535 1_455
Mo0_0 Mo0_1 2.764535 1_554
Mo0_1 Mo1_3 2.733735 1_555
Mo0_1 Mo1_4 2.733735 1_555
Mo0_1 Mo0_7 2.764535 1_455
Mo0_1 Mo0_7 2.764535 1_545
Mo0_2 Mo1_7 2.733735 1_554
Mo0_2 Mo1_0 2.733735 1_565
Mo0_2 Mo0_4 2.764535 1_555
Mo0_2 Mo0_3 2.764535 1_554
Mo0_2 Mo0_3 2.764535 1_555
Mo0_2 Mo0_4 2.764535 1_465
Mo0_3 Mo1_6 2.733735 1_555
Mo0_3 Mo1_1 2.733735 1_565
Mo0_3 Mo0_5 2.764535 1_465
Mo0_3 Mo0_5 2.764535 1_555
Mo0_4 Mo1_1 2.733735 1_654
Mo0_4 Mo1_6 2.733735 1_555
Mo0_4 Mo0_5 2.764535 1_554
Mo0_4 Mo0_5 2.764535 1_555
Mo0_5 Mo1_7 2.733735 1_555
Mo0_5 Mo1_0 2.733735 1_655
Mo0_6 Mo1_3 2.733735 1_654
Mo0_6 Mo1_4 2.733735 1_565
Mo0_6 Mo0_7 2.764535 1_554
Mo0_6 Mo0_7 2.764535 1_555
Mo0_7 Mo1_2 2.733735 1_655
Mo0_7 Mo1_5 2.733735 1_565
Mo1_0 Mo1_6 2.764535 1_455
Mo1_0 Mo1_6 2.764535 1_545
Mo1_0 Mo1_1 2.764535 1_555
Mo1_0 Mo1_1 2.764535 1_554
Mo1_0 Nb0_5 2.818885 1_455
Mo1_0 Nb0_2 2.818885 1_545
Mo1_1 Mo1_7 2.764535 1_455
Mo1_1 Mo1_7 2.764535 1_545
Mo1_1 Nb0_3 2.818885 1_545
Mo1_1 Nb0_4 2.818885 1_456
Mo1_2 Mo1_3 2.764535 1_555
Mo1_2 Mo1_4 2.764535 1_555
Mo1_2 Mo1_3 2.764535 1_554
Mo1_2 Mo1_4 2.764535 1_465
Mo1_2 Nb0_7 2.818885 1_455
Mo1_2 Nb0_0 2.818885 1_555
Mo1_3 Mo1_5 2.764535 1_465
Mo1_3 Mo1_5 2.764535 1_555
Mo1_3 Nb0_6 2.818885 1_456
Mo1_3 Nb0_1 2.818885 1_555
Mo1_4 Mo1_5 2.764535 1_554
Mo1_4 Mo1_5 2.764535 1_555
Mo1_4 Nb0_6 2.818885 1_545
Mo1_4 Nb0_1 2.818885 1_555
Mo1_5 Nb0_7 2.818885 1_545
Mo1_5 Nb0_0 2.818885 1_556
Mo1_6 Mo1_7 2.764535 1_554
Mo1_6 Mo1_7 2.764535 1_555
Mo1_6 Nb0_3 2.818885 1_555
Mo1_6 Nb0_4 2.818885 1_555
Mo1_7 Nb0_5 2.818885 1_555
Mo1_7 Nb0_2 2.818885 1_556
