# generated using pymatgen
data_Li3Fe2CoO6
_symmetry_space_group_name_H-M   'P 1'
_cell_length_a   5.10785799
_cell_length_b   5.11959766
_cell_length_c   9.88763778
_cell_angle_alpha   94.88487944
_cell_angle_beta   85.44804214
_cell_angle_gamma   60.38461712
_symmetry_Int_Tables_number   1
_chemical_formula_structural   Li3Fe2CoO6
_chemical_formula_sum   'Li6 Fe4 Co2 O12'
_cell_volume   221.75670224
_cell_formula_units_Z   2
loop_
 _symmetry_equiv_pos_site_id
 _symmetry_equiv_pos_as_xyz
  1  'x, y, z'
loop_
 _atom_site_type_symbol
 _atom_site_label
 _atom_site_symmetry_multiplicity
 _atom_site_fract_x
 _atom_site_fract_y
 _atom_site_fract_z
 _atom_site_occupancy
  Li  Li0  1  0.67347400  0.65969400  0.99812900  1
  Li  Li1  1  0.15987400  0.17364600  0.50187200  1
  Li  Li2  1  0.32302600  0.33132800  0.00074800  1
  Li  Li3  1  0.83044700  0.82399500  0.49897100  1
  Li  Li4  1  0.51032100  0.50204800  0.49925800  1
  Li  Li5  1  0.00292600  0.00934700  0.00102500  1
  Fe  Fe0  1  0.24717500  0.74818900  0.24998900  1
  Fe  Fe1  1  0.75158500  0.25209400  0.74996200  1
  Fe  Fe2  1  0.58620900  0.08517900  0.25001200  1
  Fe  Fe3  1  0.08172500  0.58119700  0.75003600  1
  Co  Co0  1  0.41664900  0.91664800  0.74999800  1
  Co  Co1  1  0.91666400  0.41667900  0.24999900  1
  O  O0  1  0.26724800  0.06597600  0.14121900  1
  O  O1  1  0.79969700  0.53389700  0.63185900  1
  O  O2  1  0.56610000  0.76737900  0.35878400  1
  O  O3  1  0.03359500  0.29939300  0.86814200  1
  O  O4  1  0.61824000  0.38218900  0.13442600  1
  O  O5  1  0.13682400  0.87549800  0.63907600  1
  O  O6  1  0.95096800  0.71776400  0.13318500  1
  O  O7  1  0.45819300  0.19764700  0.63842900  1
  O  O8  1  0.21514200  0.45113600  0.36557300  1
  O  O9  1  0.69649300  0.95778300  0.86091600  1
  O  O10  1  0.88233500  0.11564200  0.36682000  1
  O  O11  1  0.37509200  0.63565300  0.86157300  1
loop_
_geom_bond_atom_site_label_1
_geom_bond_atom_site_label_2
_geom_bond_distance
_geom_bond_site_symmetry_2
Li0 O3 2.074963 1_655
Li0 O6 2.128369 1_556
Li0 O4 2.139177 1_556
Li0 O11 2.155186 1_555
Li0 O9 2.165203 1_555
Li0 O0 2.323952 1_566
Li1 O1 2.074975 1_455
Li1 O10 2.128383 1_455
Li1 O8 2.139202 1_555
Li1 O7 2.154867 1_555
Li1 O5 2.165435 1_545
Li1 O2 2.323912 1_545
Li2 O3 2.107489 1_554
Li2 O0 2.120582 1_555
Li2 O6 2.165227 1_455
Li2 O9 2.175616 1_544
Li2 O4 2.175880 1_555
Li2 O11 2.260181 1_554
Li3 O2 2.108071 1_555
Li3 O1 2.118266 1_555
Li3 O10 2.162273 1_565
Li3 O8 2.167325 1_655
Li3 O7 2.171594 1_565
Li3 O5 2.264361 1_655
Li4 O1 2.107071 1_555
Li4 O2 2.120523 1_555
Li4 O10 2.165081 1_555
Li4 O5 2.175417 1_555
Li4 O8 2.175890 1_555
Li4 O7 2.260596 1_555
Li5 O0 2.108049 1_555
Li5 O3 2.117869 1_554
Li5 O6 2.162216 1_445
Li5 O4 2.167286 1_455
Li5 O11 2.171474 1_544
Li5 O9 2.264741 1_444
Fe0 O6 2.031465 1_455
Fe0 O8 2.039104 1_555
Fe0 O10 2.041943 1_465
Fe0 O4 2.047079 1_555
Fe0 O2 2.058855 1_555
Fe0 O0 2.063847 1_565
Fe1 O3 2.015627 1_655
Fe1 O1 2.024175 1_555
Fe1 O7 2.040223 1_555
Fe1 O9 2.050524 1_545
Fe1 O11 2.081792 1_555
Fe1 O5 2.083091 1_645
Fe2 O10 2.031224 1_555
Fe2 O4 2.038929 1_555
Fe2 O6 2.041674 1_545
Fe2 O8 2.046985 1_555
Fe2 O0 2.059027 1_555
Fe2 O2 2.063989 1_545
Fe3 O1 2.015686 1_455
Fe3 O3 2.024237 1_555
Fe3 O11 2.040160 1_555
Fe3 O5 2.050532 1_555
Fe3 O7 2.081704 1_555
Fe3 O9 2.083032 1_455
Co0 O5 1.948653 1_555
Co0 O9 1.948677 1_555
Co0 O7 1.966314 1_565
Co0 O11 1.966362 1_555
Co0 O1 2.119081 1_555
Co0 O3 2.119100 1_565
Co1 O2 1.942886 1_555
Co1 O0 1.942916 1_655
Co1 O4 2.041738 1_555
Co1 O8 2.041905 1_655
Co1 O10 2.068419 1_555
Co1 O6 2.068529 1_555
