# generated using pymatgen
data_Na3CoBAsO7
_symmetry_space_group_name_H-M   'P 1'
_cell_length_a   5.25550745
_cell_length_b   9.05105479
_cell_length_c   13.85605747
_cell_angle_alpha   89.98167244
_cell_angle_beta   89.96913795
_cell_angle_gamma   88.35665930
_symmetry_Int_Tables_number   1
_chemical_formula_structural   Na3CoBAsO7
_chemical_formula_sum   'Na12 Co4 B4 As4 O28'
_cell_volume   658.83215091
_cell_formula_units_Z   4
loop_
 _symmetry_equiv_pos_site_id
 _symmetry_equiv_pos_as_xyz
  1  'x, y, z'
loop_
 _atom_site_type_symbol
 _atom_site_label
 _atom_site_symmetry_multiplicity
 _atom_site_fract_x
 _atom_site_fract_y
 _atom_site_fract_z
 _atom_site_occupancy
  Na  Na0  1  0.75884300  0.07971900  0.12753600  1
  Na  Na1  1  0.76651900  0.07950700  0.62238900  1
  Na  Na2  1  0.24137000  0.91991400  0.37238500  1
  Na  Na3  1  0.23360300  0.92053600  0.87763600  1
  Na  Na4  1  0.25365400  0.25444900  0.00408900  1
  Na  Na5  1  0.24204500  0.24621800  0.49846800  1
  Na  Na6  1  0.24297100  0.24632900  0.25076800  1
  Na  Na7  1  0.25413000  0.25433900  0.74691800  1
  Na  Na8  1  0.75672200  0.75342800  0.24929500  1
  Na  Na9  1  0.74583900  0.74569300  0.75311600  1
  Na  Na10  1  0.74626300  0.74560200  0.49588600  1
  Na  Na11  1  0.75825300  0.75358600  0.00145600  1
  Co  Co0  1  0.78636400  0.32861500  0.87542700  1
  Co  Co1  1  0.21352700  0.67136300  0.62465900  1
  Co  Co2  1  0.77225300  0.33400600  0.37479700  1
  Co  Co3  1  0.22802400  0.66613700  0.12518900  1
  B  B0  1  0.73851100  0.06230100  0.37535700  1
  B  B1  1  0.72393500  0.06778100  0.87462000  1
  B  B2  1  0.26181900  0.93779500  0.12470300  1
  B  B3  1  0.27610600  0.93221100  0.62537400  1
  As  As0  1  0.71488300  0.42122700  0.12608100  1
  As  As1  1  0.71472100  0.42423900  0.62380500  1
  As  As2  1  0.28481700  0.57874700  0.37387900  1
  As  As3  1  0.28529600  0.57581800  0.87624600  1
  O  O0  1  0.30806900  0.08319500  0.12512500  1
  O  O1  1  0.30879200  0.07862200  0.62499700  1
  O  O2  1  0.69170600  0.91697100  0.37488400  1
  O  O3  1  0.69138400  0.92131600  0.87503100  1
  O  O4  1  0.97568600  0.12580700  0.37541600  1
  O  O5  1  0.95964800  0.13626800  0.87405900  1
  O  O6  1  0.02480900  0.87403500  0.12482400  1
  O  O7  1  0.04035200  0.86375800  0.62598100  1
  O  O8  1  0.54055000  0.17291500  0.37591000  1
  O  O9  1  0.53073500  0.17794200  0.87479400  1
  O  O10  1  0.46001700  0.82737000  0.12400100  1
  O  O11  1  0.46919100  0.82196400  0.62515300  1
  O  O12  1  0.38909700  0.46150600  0.12454800  1
  O  O13  1  0.39095300  0.47132500  0.62478600  1
  O  O14  1  0.61057300  0.53865200  0.37526900  1
  O  O15  1  0.60901900  0.52867900  0.87518800  1
  O  O16  1  0.12993300  0.41437200  0.37476000  1
  O  O17  1  0.12555100  0.41275600  0.87531700  1
  O  O18  1  0.86994900  0.58553700  0.12518900  1
  O  O19  1  0.87434700  0.58736000  0.62476400  1
  O  O20  1  0.78903900  0.30692500  0.03062200  1
  O  O21  1  0.78428500  0.31321800  0.52548300  1
  O  O22  1  0.78562900  0.31196900  0.22506200  1
  O  O23  1  0.78502000  0.30836800  0.71902900  1
  O  O24  1  0.21384200  0.68795500  0.27488400  1
  O  O25  1  0.21492300  0.69163700  0.78099600  1
  O  O26  1  0.21035400  0.69297200  0.46933900  1
  O  O27  1  0.21608200  0.68704500  0.97451300  1
loop_
_geom_bond_atom_site_label_1
_geom_bond_atom_site_label_2
_geom_bond_distance
_geom_bond_site_symmetry_2
Na0 O6 2.296023 1_645
Na0 O0 2.368606 1_555
Na0 O20 2.464578 1_555
Na0 O22 2.506741 1_555
Na0 O10 2.809176 1_545
Na0 O0 2.887710 1_655
Na1 O7 2.392836 1_645
Na1 O1 2.406083 1_555
Na1 O23 2.471196 1_555
Na1 O21 2.509115 1_555
Na1 O11 2.843543 1_545
Na1 O1 2.849950 1_655
Na2 O4 2.296734 1_465
Na2 O2 2.366402 1_555
Na2 O26 2.463266 1_555
Na2 O24 2.504658 1_555
Na2 O8 2.815151 1_565
Na2 O2 2.889839 1_455
Na3 O5 2.393079 1_465
Na3 O3 2.406336 1_555
Na3 O25 2.471545 1_555
Na3 O27 2.507141 1_555
Na3 O9 2.841931 1_565
Na3 O3 2.849690 1_455
Na4 O0 2.295737 1_555
Na4 O17 2.373660 1_554
Na4 O9 2.397858 1_554
Na4 O20 2.501141 1_455
Na4 O5 2.622371 1_454
Na4 O12 2.623838 1_555
Na4 O20 2.890614 1_555
Na5 O1 2.337997 1_555
Na5 O16 2.355780 1_555
Na5 O8 2.392331 1_555
Na5 O4 2.479051 1_455
Na5 O21 2.492197 1_455
Na5 O13 2.814662 1_555
Na5 O21 2.954544 1_555
Na6 O0 2.302178 1_555
Na6 O16 2.359379 1_555
Na6 O8 2.415916 1_555
Na6 O22 2.485124 1_455
Na6 O4 2.496044 1_455
Na6 O12 2.742934 1_555
Na6 O22 2.951164 1_555
Na7 O1 2.332563 1_555
Na7 O17 2.371183 1_555
Na7 O9 2.382266 1_555
Na7 O23 2.529521 1_455
Na7 O5 2.594511 1_455
Na7 O13 2.704720 1_555
Na7 O23 2.872295 1_555
Na8 O2 2.303918 1_555
Na8 O18 2.359885 1_555
Na8 O10 2.415724 1_555
Na8 O24 2.483452 1_655
Na8 O6 2.497125 1_655
Na8 O14 2.738193 1_555
Na8 O24 2.951758 1_555
Na9 O3 2.331814 1_555
Na9 O19 2.370141 1_555
Na9 O11 2.382989 1_555
Na9 O25 2.529410 1_655
Na9 O7 2.594531 1_655
Na9 O15 2.704381 1_555
Na9 O25 2.872461 1_555
Na10 O2 2.296171 1_555
Na10 O19 2.374388 1_555
Na10 O11 2.397184 1_555
Na10 O26 2.498722 1_655
Na10 O7 2.623157 1_655
Na10 O14 2.624913 1_555
Na10 O26 2.893600 1_555
Na11 O3 2.337783 1_554
Na11 O18 2.354919 1_555
Na11 O10 2.392419 1_555
Na11 O6 2.482820 1_655
Na11 O27 2.491503 1_654
Na11 O15 2.813419 1_554
Na11 O27 2.953100 1_554
Co0 O5 1.941565 1_555
Co0 O9 1.941618 1_555
Co0 O17 1.958445 1_655
Co0 O15 2.012676 1_555
Co0 O20 2.159288 1_556
Co0 O23 2.174885 1_555
Co1 O11 1.941269 1_555
Co1 O7 1.941689 1_555
Co1 O19 1.957893 1_455
Co1 O13 2.012652 1_555
Co1 O26 2.160960 1_555
Co1 O25 2.174065 1_555
Co2 O8 1.926334 1_555
Co2 O14 2.015603 1_555
Co2 O16 2.034979 1_655
Co2 O22 2.085320 1_555
Co2 O21 2.097139 1_555
Co2 O4 2.139773 1_555
Co3 O10 1.928335 1_555
Co3 O12 2.014231 1_555
Co3 O18 2.037732 1_455
Co3 O24 2.084715 1_555
Co3 O27 2.097085 1_554
Co3 O6 2.136858 1_555
B0 O2 1.345127 1_545
B0 O4 1.387511 1_555
B0 O8 1.423047 1_555
B1 O3 1.341522 1_545
B1 O5 1.401051 1_555
B1 O9 1.402518 1_555
B2 O0 1.345135 1_565
B2 O6 1.387734 1_555
B2 O10 1.422779 1_555
B3 O1 1.341146 1_565
B3 O7 1.401104 1_555
B3 O11 1.402632 1_555
As0 O18 1.716243 1_555
As0 O20 1.717230 1_555
As0 O22 1.725031 1_555
As0 O12 1.740437 1_555
As1 O23 1.718923 1_555
As1 O19 1.718961 1_555
As1 O21 1.725885 1_555
As1 O13 1.742275 1_555
As2 O16 1.716282 1_555
As2 O26 1.717164 1_555
As2 O24 1.725169 1_555
As2 O14 1.739958 1_555
As3 O17 1.718813 1_555
As3 O25 1.718992 1_555
As3 O27 1.726002 1_555
As3 O15 1.742158 1_555
