# generated using pymatgen
data_Tl3S
_symmetry_space_group_name_H-M   'P 1'
_cell_length_a   6.12393027
_cell_length_b   6.12393027
_cell_length_c   6.12393027
_cell_angle_alpha   134.84920269
_cell_angle_beta   134.84920269
_cell_angle_gamma   65.76459493
_symmetry_Int_Tables_number   1
_chemical_formula_structural   Tl3S
_chemical_formula_sum   'Tl3 S1'
_cell_volume   113.69827756
_cell_formula_units_Z   1
loop_
 _symmetry_equiv_pos_site_id
 _symmetry_equiv_pos_as_xyz
  1  'x, y, z'
loop_
 _atom_site_type_symbol
 _atom_site_label
 _atom_site_symmetry_multiplicity
 _atom_site_fract_x
 _atom_site_fract_y
 _atom_site_fract_z
 _atom_site_occupancy
  Tl  Tl0  1  0.75000000  0.25000000  0.50000000  1
  Tl  Tl1  1  0.25000000  0.75000000  0.50000000  1
  Tl  Tl2  1  0.50000000  0.50000000  0.00000000  1
  S  S0  1  0.00000000  0.00000000  0.00000000  1
loop_
_geom_bond_atom_site_label_1
_geom_bond_atom_site_label_2
_geom_bond_distance
_geom_bond_site_symmetry_2
Tl0 Tl1 3.324774 1_656
Tl0 Tl1 3.324774 1_544
Tl0 Tl1 3.324774 1_645
Tl0 Tl1 3.324774 1_555
Tl0 Tl2 3.484130 1_656
Tl0 Tl2 3.484130 1_545
Tl0 Tl2 3.484130 1_556
Tl0 Tl2 3.484130 1_555
Tl1 Tl2 3.484130 1_455
Tl1 Tl2 3.484130 1_556
Tl1 Tl2 3.484130 1_555
Tl1 Tl2 3.484130 1_566
