# generated using pymatgen
data_Li3Mg
_symmetry_space_group_name_H-M   'P 1'
_cell_length_a   11.70273843
_cell_length_b   11.70273843
_cell_length_c   11.70273843
_cell_angle_alpha   149.31735696
_cell_angle_beta   126.48619113
_cell_angle_gamma   62.95848850
_symmetry_Int_Tables_number   1
_chemical_formula_structural   Li3Mg
_chemical_formula_sum   'Li24 Mg8'
_cell_volume   651.22984116
_cell_formula_units_Z   8
loop_
 _symmetry_equiv_pos_site_id
 _symmetry_equiv_pos_as_xyz
  1  'x, y, z'
loop_
 _atom_site_type_symbol
 _atom_site_label
 _atom_site_symmetry_multiplicity
 _atom_site_fract_x
 _atom_site_fract_y
 _atom_site_fract_z
 _atom_site_occupancy
  Li  Li0_0  1  0.41708174  0.25000000  0.16708173  1
  Li  Li0_1  1  0.41708174  0.25000000  0.66708173  1
  Li  Li0_2  1  0.41708174  0.75000000  0.16708173  1
  Li  Li0_3  1  0.41708174  0.75000000  0.66708173  1
  Li  Li0_4  1  0.91708174  0.25000000  0.16708174  1
  Li  Li0_5  1  0.91708174  0.25000000  0.66708174  1
  Li  Li0_6  1  0.91708174  0.75000000  0.16708173  1
  Li  Li0_7  1  0.91708174  0.75000000  0.66708173  1
  Li  Li1_0  1  0.12402532  0.12513197  0.49889235  1
  Li  Li1_1  1  0.12402532  0.12513196  0.99889235  1
  Li  Li1_2  1  0.12402532  0.62513197  0.49889235  1
  Li  Li1_3  1  0.12402532  0.62513197  0.99889235  1
  Li  Li1_4  1  0.62402532  0.12513197  0.49889236  1
  Li  Li1_5  1  0.62402532  0.12513197  0.99889235  1
  Li  Li1_6  1  0.62402532  0.62513197  0.49889235  1
  Li  Li1_7  1  0.62402532  0.62513197  0.99889235  1
  Li  Li2_0  1  0.37376039  0.37486803  0.49889235  1
  Li  Li2_1  1  0.37376039  0.37486803  0.99889235  1
  Li  Li2_2  1  0.37376039  0.87486803  0.49889235  1
  Li  Li2_3  1  0.37376039  0.87486803  0.99889235  1
  Li  Li2_4  1  0.87376039  0.37486803  0.49889236  1
  Li  Li2_5  1  0.87376039  0.37486803  0.99889235  1
  Li  Li2_6  1  0.87376039  0.87486803  0.49889235  1
  Li  Li2_7  1  0.87376039  0.87486803  0.99889235  1
  Mg  Mg0_0  1  0.16846606  0.00000000  0.16846606  1
  Mg  Mg0_1  1  0.16846606  0.00000000  0.66846606  1
  Mg  Mg0_2  1  0.16846606  0.50000000  0.16846606  1
  Mg  Mg0_3  1  0.16846606  0.50000000  0.66846606  1
  Mg  Mg0_4  1  0.66846606  0.00000000  0.16846606  1
  Mg  Mg0_5  1  0.66846606  0.00000000  0.66846606  1
  Mg  Mg0_6  1  0.66846606  0.50000000  0.16846606  1
  Mg  Mg0_7  1  0.66846606  0.50000000  0.66846606  1
loop_
_geom_bond_atom_site_label_1
_geom_bond_atom_site_label_2
_geom_bond_distance
_geom_bond_site_symmetry_2
Li0_0 Mg0_1 3.042957 1_554
Li0_0 Mg0_2 3.042957 1_555
Li0_0 Li1_1 3.058312 1_554
Li0_0 Li2_1 3.058323 1_554
Li0_0 Li2_0 3.062426 1_555
Li0_0 Li2_3 3.062426 1_544
Li0_0 Li1_6 3.062434 1_555
Li0_0 Li1_5 3.062437 1_554
Li0_0 Mg0_4 3.068110 1_555
Li0_0 Mg0_7 3.068110 1_555
Li0_0 Li0_3 3.096177 1_544
Li0_0 Li0_3 3.096177 1_555
Li0_1 Mg0_0 3.042957 1_555
Li0_1 Mg0_3 3.042957 1_555
Li0_1 Li1_0 3.058312 1_555
Li0_1 Li2_0 3.058323 1_555
Li0_1 Li2_2 3.062426 1_545
Li0_1 Li2_1 3.062426 1_555
Li0_1 Li1_7 3.062434 1_555
Li0_1 Li1_4 3.062437 1_555
Li0_1 Mg0_5 3.068110 1_555
Li0_1 Mg0_6 3.068110 1_556
Li0_1 Li0_2 3.096177 1_556
Li0_1 Li0_2 3.096177 1_545
Li0_2 Mg0_0 3.042957 1_565
Li0_2 Mg0_3 3.042957 1_554
Li0_2 Li1_3 3.058312 1_554
Li0_2 Li2_3 3.058323 1_554
Li0_2 Li2_2 3.062426 1_555
Li0_2 Li2_1 3.062426 1_554
Li0_2 Li1_4 3.062434 1_565
Li0_2 Li1_7 3.062437 1_554
Li0_2 Mg0_6 3.068110 1_555
Li0_2 Mg0_5 3.068110 1_565
Li0_3 Mg0_2 3.042957 1_555
Li0_3 Mg0_1 3.042957 1_565
Li0_3 Li1_2 3.058312 1_555
Li0_3 Li2_2 3.058323 1_555
Li0_3 Li2_0 3.062426 1_555
Li0_3 Li2_3 3.062426 1_555
Li0_3 Li1_5 3.062434 1_565
Li0_3 Li1_6 3.062437 1_555
Li0_3 Mg0_7 3.068110 1_555
Li0_3 Mg0_4 3.068110 1_566
Li0_4 Mg0_6 3.042957 1_555
Li0_4 Mg0_5 3.042957 1_554
Li0_4 Li1_5 3.058312 1_554
Li0_4 Li2_5 3.058323 1_554
Li0_4 Li2_7 3.062426 1_544
Li0_4 Li2_4 3.062426 1_555
Li0_4 Li1_2 3.062434 1_655
Li0_4 Li1_1 3.062437 1_654
Li0_4 Mg0_3 3.068110 1_655
Li0_4 Mg0_0 3.068110 1_655
Li0_4 Li0_7 3.096177 1_544
Li0_4 Li0_7 3.096177 1_555
Li0_5 Mg0_4 3.042957 1_555
Li0_5 Mg0_7 3.042957 1_555
Li0_5 Li1_4 3.058312 1_555
Li0_5 Li2_4 3.058323 1_555
Li0_5 Li2_6 3.062426 1_545
Li0_5 Li2_5 3.062426 1_555
Li0_5 Li1_3 3.062434 1_655
Li0_5 Li1_0 3.062437 1_655
Li0_5 Mg0_2 3.068110 1_656
Li0_5 Mg0_1 3.068110 1_655
Li0_5 Li0_6 3.096177 1_545
Li0_5 Li0_6 3.096177 1_556
Li0_6 Mg0_4 3.042957 1_565
Li0_6 Mg0_7 3.042957 1_554
Li0_6 Li1_7 3.058312 1_554
Li0_6 Li2_7 3.058323 1_554
Li0_6 Li2_6 3.062426 1_555
Li0_6 Li2_5 3.062426 1_554
Li0_6 Li1_0 3.062434 1_665
Li0_6 Li1_3 3.062437 1_654
Li0_6 Mg0_1 3.068110 1_665
Li0_6 Mg0_2 3.068110 1_655
Li0_7 Mg0_6 3.042957 1_555
Li0_7 Mg0_5 3.042957 1_565
Li0_7 Li1_6 3.058312 1_555
Li0_7 Li2_6 3.058323 1_555
Li0_7 Li2_4 3.062426 1_555
Li0_7 Li2_7 3.062426 1_555
Li0_7 Li1_1 3.062434 1_665
Li0_7 Li1_2 3.062437 1_655
Li0_7 Mg0_3 3.068110 1_655
Li0_7 Mg0_0 3.068110 1_666
Li1_0 Mg0_0 3.054043 1_555
Li1_0 Mg0_3 3.054046 1_555
Li1_0 Li2_2 3.055523 1_545
Li1_0 Li2_1 3.055526 1_555
Li1_0 Li2_7 3.055532 1_444
Li1_0 Li2_4 3.055535 1_455
Li1_0 Mg0_1 3.071087 1_555
Li1_0 Li1_3 3.096177 1_555
Li1_0 Li1_3 3.096177 1_544
Li1_1 Mg0_1 3.054043 1_555
Li1_1 Mg0_2 3.054046 1_556
Li1_1 Li2_3 3.055523 1_545
Li1_1 Li2_0 3.055526 1_556
Li1_1 Li2_6 3.055532 1_445
Li1_1 Li2_5 3.055535 1_455
Li1_1 Mg0_0 3.071087 1_556
Li1_1 Li1_2 3.096177 1_545
Li1_1 Li1_2 3.096177 1_556
Li1_2 Mg0_2 3.054043 1_555
Li1_2 Mg0_1 3.054046 1_565
Li1_2 Li2_0 3.055523 1_555
Li1_2 Li2_3 3.055526 1_555
Li1_2 Li2_5 3.055532 1_454
Li1_2 Li2_6 3.055535 1_455
Li1_2 Mg0_3 3.071087 1_555
Li1_3 Mg0_3 3.054043 1_555
Li1_3 Mg0_0 3.054046 1_566
Li1_3 Li2_1 3.055523 1_555
Li1_3 Li2_2 3.055526 1_556
Li1_3 Li2_4 3.055532 1_455
Li1_3 Li2_7 3.055535 1_455
Li1_3 Mg0_2 3.071087 1_556
Li1_4 Mg0_4 3.054043 1_555
Li1_4 Mg0_7 3.054046 1_555
Li1_4 Li2_6 3.055523 1_545
Li1_4 Li2_5 3.055526 1_555
Li1_4 Li2_3 3.055532 1_544
Li1_4 Li2_0 3.055535 1_555
Li1_4 Mg0_5 3.071087 1_555
Li1_4 Li1_7 3.096177 1_555
Li1_4 Li1_7 3.096177 1_544
Li1_5 Mg0_5 3.054043 1_555
Li1_5 Mg0_6 3.054046 1_556
Li1_5 Li2_7 3.055523 1_545
Li1_5 Li2_4 3.055526 1_556
Li1_5 Li2_2 3.055532 1_545
Li1_5 Li2_1 3.055535 1_555
Li1_5 Mg0_4 3.071087 1_556
Li1_5 Li1_6 3.096177 1_556
Li1_5 Li1_6 3.096177 1_545
Li1_6 Mg0_6 3.054043 1_555
Li1_6 Mg0_5 3.054046 1_565
Li1_6 Li2_4 3.055523 1_555
Li1_6 Li2_7 3.055526 1_555
Li1_6 Li2_1 3.055532 1_554
Li1_6 Li2_2 3.055535 1_555
Li1_6 Mg0_7 3.071087 1_555
Li1_7 Mg0_7 3.054043 1_555
Li1_7 Mg0_4 3.054046 1_566
Li1_7 Li2_5 3.055523 1_555
Li1_7 Li2_6 3.055526 1_556
Li1_7 Li2_0 3.055532 1_555
Li1_7 Li2_3 3.055535 1_555
Li1_7 Mg0_6 3.071087 1_556
Li2_0 Mg0_3 3.054051 1_555
Li2_0 Mg0_0 3.054051 1_555
Li2_0 Mg0_7 3.071082 1_555
Li2_0 Li2_3 3.096177 1_555
Li2_0 Li2_3 3.096177 1_544
Li2_1 Mg0_2 3.054051 1_556
Li2_1 Mg0_1 3.054051 1_555
Li2_1 Mg0_6 3.071082 1_556
Li2_1 Li2_2 3.096177 1_556
Li2_1 Li2_2 3.096177 1_545
Li2_2 Mg0_2 3.054051 1_555
Li2_2 Mg0_1 3.054051 1_565
Li2_2 Mg0_5 3.071082 1_565
Li2_3 Mg0_3 3.054051 1_555
Li2_3 Mg0_0 3.054051 1_566
Li2_3 Mg0_4 3.071082 1_566
Li2_4 Mg0_4 3.054051 1_555
Li2_4 Mg0_7 3.054051 1_555
Li2_4 Mg0_3 3.071082 1_655
Li2_4 Li2_7 3.096177 1_544
Li2_4 Li2_7 3.096177 1_555
Li2_5 Mg0_5 3.054051 1_555
Li2_5 Mg0_6 3.054051 1_556
Li2_5 Mg0_2 3.071082 1_656
Li2_5 Li2_6 3.096177 1_545
Li2_5 Li2_6 3.096177 1_556
Li2_6 Mg0_6 3.054051 1_555
Li2_6 Mg0_5 3.054051 1_565
Li2_6 Mg0_1 3.071082 1_665
Li2_7 Mg0_7 3.054051 1_555
Li2_7 Mg0_4 3.054051 1_566
Li2_7 Mg0_0 3.071082 1_666
Mg0_0 Mg0_3 3.096177 1_555
Mg0_0 Mg0_3 3.096177 1_544
Mg0_1 Mg0_2 3.096177 1_556
Mg0_1 Mg0_2 3.096177 1_545
Mg0_4 Mg0_7 3.096177 1_555
Mg0_4 Mg0_7 3.096177 1_544
Mg0_5 Mg0_6 3.096177 1_545
Mg0_5 Mg0_6 3.096177 1_556
