# generated using pymatgen
data_LiMnCrO4
_symmetry_space_group_name_H-M   'P 1'
_cell_length_a   5.91695266
_cell_length_b   5.91695266
_cell_length_c   5.91695266
_cell_angle_alpha   120.58872895
_cell_angle_beta   119.23259621
_cell_angle_gamma   90.15880814
_symmetry_Int_Tables_number   1
_chemical_formula_structural   LiMnCrO4
_chemical_formula_sum   'Li2 Mn2 Cr2 O8'
_cell_volume   146.65191713
_cell_formula_units_Z   2
loop_
 _symmetry_equiv_pos_site_id
 _symmetry_equiv_pos_as_xyz
  1  'x, y, z'
loop_
 _atom_site_type_symbol
 _atom_site_label
 _atom_site_symmetry_multiplicity
 _atom_site_fract_x
 _atom_site_fract_y
 _atom_site_fract_z
 _atom_site_occupancy
  Li  Li0  1  0.86870700  0.11870700  0.75000000  1
  Li  Li1  1  0.13129300  0.88129300  0.25000000  1
  Mn  Mn0  1  0.50000000  0.50000000  0.50000000  1
  Mn  Mn1  1  0.50000000  0.00000000  0.00000000  1
  Cr  Cr0  1  0.50000000  0.50000000  0.00000000  1
  Cr  Cr1  1  0.00000000  0.50000000  0.50000000  1
  O  O0  1  0.71030300  0.74267000  0.96763400  1
  O  O1  1  0.27503600  0.74267000  0.53236600  1
  O  O2  1  0.26900000  0.29034800  0.52134900  1
  O  O3  1  0.26900000  0.74765100  0.97865100  1
  O  O4  1  0.73100000  0.70965200  0.47865100  1
  O  O5  1  0.73100000  0.25234900  0.02134900  1
  O  O6  1  0.72496400  0.25733000  0.46763400  1
  O  O7  1  0.28969700  0.25733000  0.03236600  1
loop_
_geom_bond_atom_site_label_1
_geom_bond_atom_site_label_2
_geom_bond_distance
_geom_bond_site_symmetry_2
Li0 O4 1.963720 1_545
Li0 O5 1.963725 1_556
Li0 O6 2.048953 1_555
Li0 O7 2.048958 1_656
Li1 O2 1.963720 1_565
Li1 O3 1.963725 1_554
Li1 O1 2.048953 1_555
Li1 O0 2.048958 1_454
Mn0 O2 1.934349 1_555
Mn0 O4 1.934349 1_555
Mn0 O6 1.962125 1_555
Mn0 O1 1.962125 1_555
Mn0 O0 1.962126 1_555
Mn0 O7 1.962126 1_555
Mn1 O5 1.934345 1_555
Mn1 O3 1.934345 1_544
Mn1 O0 1.962121 1_544
Mn1 O7 1.962121 1_555
Mn1 O6 1.962125 1_555
Mn1 O1 1.962125 1_544
Cr0 O4 2.015493 1_555
Cr0 O2 2.015493 1_554
Cr0 O3 2.015494 1_554
Cr0 O5 2.015494 1_555
Cr0 O0 2.037035 1_554
Cr0 O7 2.037035 1_555
Cr1 O3 2.015494 1_555
Cr1 O5 2.015494 1_455
Cr1 O2 2.015498 1_555
Cr1 O4 2.015498 1_455
Cr1 O6 2.037039 1_455
Cr1 O1 2.037039 1_555
