# generated using pymatgen
data_SmErFe17C2
_symmetry_space_group_name_H-M   'P 1'
_cell_length_a   6.47495091
_cell_length_b   6.47495060
_cell_length_c   6.50948543
_cell_angle_alpha   83.55163808
_cell_angle_beta   83.55164264
_cell_angle_gamma   82.97028599
_symmetry_Int_Tables_number   1
_chemical_formula_structural   SmErFe17C2
_chemical_formula_sum   'Sm1 Er1 Fe17 C2'
_cell_volume   267.79745413
_cell_formula_units_Z   1
loop_
 _symmetry_equiv_pos_site_id
 _symmetry_equiv_pos_as_xyz
  1  'x, y, z'
loop_
 _atom_site_type_symbol
 _atom_site_label
 _atom_site_symmetry_multiplicity
 _atom_site_fract_x
 _atom_site_fract_y
 _atom_site_fract_z
 _atom_site_occupancy
  Sm  Sm0  1  0.34537500  0.34537500  0.33296500  1
  Er  Er0  1  0.65664600  0.65664600  0.66865100  1
  Fe  Fe0  1  0.90429200  0.90429200  0.90341400  1
  Fe  Fe1  1  0.09448500  0.09448500  0.09519900  1
  Fe  Fe2  1  0.71539400  0.99932300  0.28499000  1
  Fe  Fe3  1  0.99912100  0.28568500  0.71553100  1
  Fe  Fe4  1  0.29225200  0.70878800  0.99840200  1
  Fe  Fe5  1  0.99932300  0.71539400  0.28499000  1
  Fe  Fe6  1  0.70878800  0.29225200  0.99840200  1
  Fe  Fe7  1  0.28568500  0.99912100  0.71553100  1
  Fe  Fe8  1  0.34572100  0.85124500  0.34251700  1
  Fe  Fe9  1  0.85124500  0.34572100  0.34251700  1
  Fe  Fe10  1  0.34430200  0.34430200  0.84898400  1
  Fe  Fe11  1  0.65567800  0.14670000  0.65817700  1
  Fe  Fe12  1  0.14670000  0.65567800  0.65817700  1
  Fe  Fe13  1  0.65734300  0.65734300  0.14774600  1
  Fe  Fe14  1  0.99981500  0.50046700  0.99936700  1
  Fe  Fe15  1  0.50046700  0.99981500  0.99936700  1
  Fe  Fe16  1  0.00031500  0.00031500  0.50025400  1
  C  C0  1  0.50259700  0.99445600  0.50240900  1
  C  C1  1  0.99445600  0.50259700  0.50240900  1
loop_
_geom_bond_atom_site_label_1
_geom_bond_atom_site_label_2
_geom_bond_distance
_geom_bond_site_symmetry_2
Er0 Fe6 3.019708 1_555
Er0 Fe4 3.019708 1_555
Er0 Fe0 3.034454 1_555
Er0 Fe10 3.081059 1_555
Er0 Fe13 3.119683 1_556
Er0 Fe14 3.260352 1_555
Er0 Fe15 3.260352 1_555
Er0 Fe16 3.349809 1_665
Er0 Fe13 3.389816 1_555
Fe0 Fe1 2.377721 1_666
Fe0 Fe14 2.633186 1_555
Fe0 Fe15 2.633187 1_555
Fe0 Fe11 2.645613 1_565
Fe0 Fe12 2.645613 1_655
Fe0 Fe16 2.649912 1_665
Fe0 Fe13 2.669542 1_556
Fe0 Fe3 2.737755 1_565
Fe0 Fe7 2.737755 1_655
Fe0 Fe5 2.742422 1_556
Fe0 Fe2 2.742422 1_556
Fe0 Fe6 2.773041 1_565
Fe0 Fe4 2.773041 1_655
Fe1 Fe14 2.645407 1_454
Fe1 Fe15 2.645407 1_544
Fe1 Fe16 2.657919 1_555
Fe1 Fe8 2.666503 1_545
Fe1 Fe9 2.666503 1_455
Fe1 Fe10 2.697685 1_554
Fe1 Fe5 2.729301 1_445
Fe1 Fe2 2.729301 1_445
Fe1 Fe3 2.736859 1_454
Fe1 Fe7 2.736859 1_544
Fe1 Fe4 2.768230 1_544
Fe1 Fe6 2.768230 1_454
Fe1 Sm0 3.073911 1_555
Fe2 Fe6 2.506559 1_564
Fe3 Fe6 2.479286 1_555
Fe4 Fe7 2.479286 1_555
Fe4 Fe5 2.506559 1_456
Fe4 Fe8 2.589362 1_556
Fe4 Sm0 3.036008 1_556
Fe6 Fe9 2.589362 1_556
Fe6 Sm0 3.036008 1_556
Fe10 Fe15 2.477063 1_545
Fe10 Fe14 2.477063 1_455
Fe10 Fe12 2.531332 1_555
Fe10 Fe11 2.531332 1_555
Fe10 Fe7 2.571356 1_545
Fe10 Fe3 2.571356 1_455
Fe10 Fe4 2.622330 1_555
Fe10 Fe6 2.622330 1_555
Fe10 Sm0 3.152045 1_556
Fe10 Sm0 3.357473 1_555
Fe11 Fe15 2.470909 1_545
Fe11 Fe16 2.474001 1_655
Fe11 Fe6 2.574979 1_555
Fe12 Fe14 2.470909 1_455
Fe12 Fe16 2.474001 1_565
Fe12 Fe4 2.574979 1_555
Fe13 Fe15 2.463717 1_554
Fe13 Fe14 2.463717 1_554
Fe13 Fe9 2.533355 1_555
Fe13 Fe8 2.533355 1_555
Fe13 Fe2 2.562432 1_555
Fe13 Fe5 2.562432 1_555
Fe13 Fe6 2.625832 1_554
Fe13 Fe4 2.625832 1_554
Fe13 Sm0 3.085277 1_555
Fe14 Fe3 2.434819 1_555
Fe14 Fe5 2.443825 1_556
Fe14 Fe6 2.448456 1_555
Fe14 Fe4 2.454684 1_655
Fe14 Fe9 2.483840 1_556
Fe14 Sm0 3.283593 1_656
Fe15 Fe7 2.434818 1_555
Fe15 Fe2 2.443825 1_556
Fe15 Fe4 2.448456 1_555
Fe15 Fe6 2.454684 1_565
Fe15 Fe8 2.483840 1_556
Fe15 Sm0 3.283594 1_566
Fe16 Fe2 2.439797 1_445
Fe16 Fe5 2.439797 1_445
Fe16 Fe7 2.440021 1_545
Fe16 Fe3 2.440021 1_455
Fe16 Fe9 2.483191 1_455
Fe16 Fe8 2.483191 1_545
Fe16 Sm0 3.361313 1_555
C0 Fe7 1.859981 1_555
C0 Fe2 1.861477 1_555
C0 Fe8 1.913041 1_555
C0 Fe11 1.916185 1_565
C0 Er0 2.475285 1_555
C0 Sm0 2.557118 1_565
C1 Fe3 1.859981 1_555
C1 Fe5 1.861477 1_555
C1 Fe9 1.913041 1_555
C1 Fe12 1.916185 1_655
C1 Er0 2.475285 1_555
C1 Sm0 2.557118 1_655
