# generated using pymatgen
data_Ti2ZnO4
_symmetry_space_group_name_H-M   'P 1'
_cell_length_a   6.12795509
_cell_length_b   6.12795509
_cell_length_c   20.08475362
_cell_angle_alpha   80.40921074
_cell_angle_beta   80.40921074
_cell_angle_gamma   58.18849997
_symmetry_Int_Tables_number   1
_chemical_formula_structural   Ti2ZnO4
_chemical_formula_sum   'Ti16 Zn8 O32'
_cell_volume   629.16758145
_cell_formula_units_Z   8
loop_
 _symmetry_equiv_pos_site_id
 _symmetry_equiv_pos_as_xyz
  1  'x, y, z'
loop_
 _atom_site_type_symbol
 _atom_site_label
 _atom_site_symmetry_multiplicity
 _atom_site_fract_x
 _atom_site_fract_y
 _atom_site_fract_z
 _atom_site_occupancy
  Ti  Ti0  1  0.61314800  0.13618500  0.12748500  1
  Ti  Ti1  1  0.25572500  0.25572500  0.24510200  1
  Ti  Ti2  1  0.13618500  0.61314800  0.12748500  1
  Ti  Ti3  1  0.15345400  0.15345400  0.53501100  1
  Ti  Ti4  1  0.90277500  0.36254000  0.37121100  1
  Ti  Ti5  1  0.59934700  0.59934700  0.22072700  1
  Ti  Ti6  1  0.40442800  0.40442800  0.78389300  1
  Ti  Ti7  1  0.36254000  0.90277500  0.37121100  1
  Ti  Ti8  1  0.11097100  0.63785700  0.62486700  1
  Ti  Ti9  1  0.84673800  0.84673800  0.46256700  1
  Ti  Ti10  1  0.63785700  0.11097100  0.62486700  1
  Ti  Ti11  1  0.88987100  0.34703500  0.88073300  1
  Ti  Ti12  1  0.34703500  0.88987100  0.88073300  1
  Ti  Ti13  1  0.09775100  0.09775100  0.71744000  1
  Ti  Ti14  1  0.00536100  0.00536100  0.99706500  1
  Ti  Ti15  1  0.34837500  0.34837500  0.97276000  1
  Zn  Zn0  1  0.66306700  0.66306700  0.03179600  1
  Zn  Zn1  1  0.11634300  0.11634300  0.12271800  1
  Zn  Zn2  1  0.90729000  0.90729000  0.27973300  1
  Zn  Zn3  1  0.38127800  0.38127800  0.37187000  1
  Zn  Zn4  1  0.62312900  0.62312900  0.62538100  1
  Zn  Zn5  1  0.50187200  0.50187200  0.49795500  1
  Zn  Zn6  1  0.86403800  0.86403800  0.87669800  1
  Zn  Zn7  1  0.74239700  0.74239700  0.75356000  1
  O  O0  1  0.28691800  0.80811000  0.06247300  1
  O  O1  1  0.93146900  0.93146900  0.18022500  1
  O  O2  1  0.80811000  0.28691800  0.06247300  1
  O  O3  1  0.82676800  0.82676800  0.06538500  1
  O  O4  1  0.44516500  0.44516500  0.18971500  1
  O  O5  1  0.53653300  0.07171400  0.31301900  1
  O  O6  1  0.43585400  0.94958200  0.18618200  1
  O  O7  1  0.18159000  0.18159000  0.43846400  1
  O  O8  1  0.07171400  0.53653300  0.31301900  1
  O  O9  1  0.30910600  0.30910600  0.06802100  1
  O  O10  1  0.07173000  0.07173000  0.31023900  1
  O  O11  1  0.94958200  0.43585400  0.18618200  1
  O  O12  1  0.79606300  0.31514200  0.56528300  1
  O  O13  1  0.68771200  0.68771200  0.43275200  1
  O  O14  1  0.69095800  0.20238300  0.43319200  1
  O  O15  1  0.43164100  0.43164100  0.68758200  1
  O  O16  1  0.31514200  0.79606300  0.56528300  1
  O  O17  1  0.56874200  0.56874200  0.31655500  1
  O  O18  1  0.31294600  0.31294600  0.56596300  1
  O  O19  1  0.20238300  0.69095800  0.43319200  1
  O  O20  1  0.94123700  0.94123700  0.68550000  1
  O  O21  1  0.05285700  0.55475200  0.81454200  1
  O  O22  1  0.93595600  0.45275300  0.68504000  1
  O  O23  1  0.68001400  0.68001400  0.92961200  1
  O  O24  1  0.55475200  0.05285700  0.81454200  1
  O  O25  1  0.81837500  0.81837500  0.55926700  1
  O  O26  1  0.55850900  0.55850900  0.81677900  1
  O  O27  1  0.45275300  0.93595600  0.68504000  1
  O  O28  1  0.19475800  0.19475800  0.94233000  1
  O  O29  1  0.18021000  0.69713700  0.93743800  1
  O  O30  1  0.06228800  0.06228800  0.81440200  1
  O  O31  1  0.69713700  0.18021000  0.93743800  1
loop_
_geom_bond_atom_site_label_1
_geom_bond_atom_site_label_2
_geom_bond_distance
_geom_bond_site_symmetry_2
O0 Zn0 2.008010 1_555
O0 Ti14 2.047256 1_564
O0 Ti2 2.056020 1_555
O0 Zn1 2.093580 1_565
O1 Zn2 1.965726 1_555
O1 Ti0 2.041261 1_565
O1 Ti2 2.041261 1_655
O1 Zn1 2.093329 1_665
O2 Zn0 2.008010 1_555
O2 Ti14 2.047256 1_654
O2 Ti0 2.056020 1_555
O2 Zn1 2.093580 1_655
O3 Zn0 1.994913 1_555
O3 Ti2 2.119361 1_655
O3 Ti0 2.119361 1_565
O3 Ti14 2.130790 1_664
O4 Ti5 1.872606 1_555
O4 Ti1 2.119648 1_555
O4 Ti0 2.124123 1_555
O4 Ti2 2.124123 1_555
O5 Ti7 1.979862 1_545
O5 Zn2 1.982169 1_545
O5 Ti1 2.077818 1_555
O5 Zn3 2.090602 1_555
O6 Ti5 1.886784 1_555
O6 Ti1 2.063901 1_565
O6 Ti0 2.076424 1_565
O6 Zn1 2.188789 1_565
O7 Ti3 1.904777 1_555
O7 Ti7 2.060559 1_545
O7 Ti4 2.060559 1_455
O7 Zn3 2.296000 1_555
O8 Ti4 1.979862 1_455
O8 Zn2 1.982169 1_455
O8 Ti1 2.077818 1_555
O8 Zn3 2.090602 1_555
O9 Ti15 1.879020 1_554
O9 Ti2 2.063729 1_555
O9 Ti0 2.063729 1_555
O9 Zn1 2.145634 1_555
O10 Zn2 1.971859 1_445
O10 Ti4 2.026557 1_455
O10 Ti7 2.026557 1_545
O10 Ti1 2.147398 1_555
O11 Ti5 1.886784 1_555
O11 Ti1 2.063901 1_655
O11 Ti2 2.076424 1_655
O11 Zn1 2.188789 1_655
O12 Ti3 1.901884 1_655
O12 Ti10 2.081026 1_555
O12 Zn4 2.089575 1_555
O12 Zn5 2.123667 1_555
O13 Ti9 1.909973 1_555
O13 Zn5 2.163836 1_555
O13 Ti4 2.178208 1_555
O13 Ti7 2.178208 1_555
O14 Ti9 1.890751 1_545
O14 Zn5 2.110464 1_555
O14 Zn3 2.110847 1_555
O14 Ti4 2.143644 1_555
O15 Ti6 1.900472 1_555
O15 Ti8 2.172882 1_555
O15 Ti10 2.172882 1_555
O15 Zn4 2.188441 1_555
O16 Ti3 1.901884 1_565
O16 Ti8 2.081026 1_555
O16 Zn4 2.089575 1_555
O16 Zn5 2.123667 1_555
O17 Ti5 1.889779 1_555
O17 Zn3 2.101037 1_555
O17 Ti4 2.133403 1_555
O17 Ti7 2.133403 1_555
O18 Ti3 1.925852 1_555
O18 Ti8 2.143544 1_555
O18 Ti10 2.143544 1_555
O18 Zn5 2.214857 1_555
O19 Ti9 1.890751 1_455
O19 Zn5 2.110464 1_555
O19 Zn3 2.110847 1_555
O19 Ti7 2.143644 1_555
O20 Ti13 1.905561 1_665
O20 Ti10 2.077228 1_565
O20 Ti8 2.077228 1_655
O20 Zn7 2.300697 1_555
O21 Ti6 1.877169 1_555
O21 Zn7 2.107766 1_455
O21 Zn6 2.117674 1_455
O21 Ti11 2.172352 1_455
O22 Ti13 1.899573 1_655
O22 Ti8 2.071548 1_655
O22 Zn4 2.106938 1_555
O22 Zn7 2.121724 1_555
O23 Zn0 2.025586 1_556
O23 Zn6 2.053001 1_555
O23 Ti11 2.064347 1_555
O23 Ti12 2.064347 1_555
O24 Ti6 1.877169 1_555
O24 Zn7 2.107766 1_545
O24 Zn6 2.117674 1_545
O24 Ti12 2.172352 1_545
O25 Ti9 1.907727 1_555
O25 Ti10 2.094049 1_565
O25 Ti8 2.094049 1_655
O25 Zn4 2.253146 1_555
O26 Ti6 1.890718 1_555
O26 Zn7 2.130022 1_555
O26 Ti12 2.234456 1_555
O26 Ti11 2.234456 1_555
O27 Ti13 1.899573 1_565
O27 Ti10 2.071548 1_565
O27 Zn4 2.106938 1_555
O27 Zn7 2.121724 1_555
O28 Ti15 1.861051 1_555
O28 Ti11 2.107015 1_455
O28 Ti12 2.107015 1_545
O28 Ti14 2.114804 1_555
O29 Ti15 1.883973 1_555
O29 Ti12 2.042994 1_555
O29 Ti14 2.083835 1_565
O29 Zn6 2.137972 1_455
O30 Ti13 1.911749 1_555
O30 Ti11 2.073131 1_455
O30 Ti12 2.073131 1_545
O30 Zn6 2.249502 1_445
O31 Ti15 1.883973 1_555
O31 Ti11 2.042994 1_555
O31 Ti14 2.083835 1_655
O31 Zn6 2.137972 1_545
