# generated using pymatgen
data_SrCa3Ti4O12
_symmetry_space_group_name_H-M   'P 1'
_cell_length_a   7.76219800
_cell_length_b   5.46883800
_cell_length_c   5.50869025
_cell_angle_alpha   89.87431445
_cell_angle_beta   90.00000000
_cell_angle_gamma   90.00000000
_symmetry_Int_Tables_number   1
_chemical_formula_structural   SrCa3Ti4O12
_chemical_formula_sum   'Sr1 Ca3 Ti4 O12'
_cell_volume   233.84445904
_cell_formula_units_Z   1
loop_
 _symmetry_equiv_pos_site_id
 _symmetry_equiv_pos_as_xyz
  1  'x, y, z'
loop_
 _atom_site_type_symbol
 _atom_site_label
 _atom_site_symmetry_multiplicity
 _atom_site_fract_x
 _atom_site_fract_y
 _atom_site_fract_z
 _atom_site_occupancy
  Sr  Sr0  1  0.50000000  0.49538400  0.52279000  1
  Ca  Ca0  1  0.50000000  0.00500700  0.03405400  1
  Ca  Ca1  1  0.00000000  0.50569300  0.46383400  1
  Ca  Ca2  1  0.00000000  0.99846800  0.97014400  1
  Ti  Ti0  1  0.24779100  0.00232300  0.50235500  1
  Ti  Ti1  1  0.75251900  0.50210200  0.99880200  1
  Ti  Ti2  1  0.75220900  0.00232300  0.50235500  1
  Ti  Ti3  1  0.24748100  0.50210200  0.99880200  1
  O  O0  1  0.28571500  0.20847000  0.78995500  1
  O  O1  1  0.72634100  0.28002400  0.28125200  1
  O  O2  1  0.78895100  0.78274400  0.21534900  1
  O  O3  1  0.21241500  0.71081400  0.71190700  1
  O  O4  1  0.21104900  0.78274400  0.21534900  1
  O  O5  1  0.78758500  0.71081400  0.71190700  1
  O  O6  1  0.71428500  0.20847000  0.78995500  1
  O  O7  1  0.27365900  0.28002400  0.28125200  1
  O  O8  1  0.50000000  0.56939700  0.99698000  1
  O  O9  1  0.50000000  0.94929000  0.48046200  1
  O  O10  1  0.00000000  0.43106000  0.00921000  1
  O  O11  1  0.00000000  0.07275000  0.52328500  1
loop_
_geom_bond_atom_site_label_1
_geom_bond_atom_site_label_2
_geom_bond_distance
_geom_bond_site_symmetry_2
Ca0 O8 2.391465 1_544
Ca0 O6 2.409630 1_554
Ca0 O0 2.409630 1_554
Ca0 O9 2.477266 1_545
Ca0 O7 2.685537 1_555
Ca0 O1 2.685537 1_555
Ca0 O4 2.738638 1_545
Ca0 O2 2.738638 1_545
Ca1 O11 2.389526 1_555
Ca1 O3 2.418914 1_555
Ca1 O5 2.418914 1_455
Ca1 O10 2.538308 1_555
Ca1 O4 2.616098 1_555
Ca1 O2 2.616098 1_455
Ca1 O1 2.655632 1_455
Ca1 O7 2.655632 1_555
Ca2 O10 2.376013 1_566
Ca2 O4 2.427571 1_556
Ca2 O2 2.427571 1_456
Ca2 O11 2.494024 1_565
Ca2 O6 2.686591 1_465
Ca2 O0 2.686591 1_565
Ca2 O3 2.688266 1_555
Ca2 O5 2.688266 1_455
O0 Ti0 1.968627 1_555
O0 Ti3 1.999612 1_555
O0 Sr0 2.717449 1_555
O1 Ti2 1.955032 1_555
O1 Ti1 1.982157 1_554
O1 Sr0 2.500222 1_555
O2 Ti1 1.966357 1_554
O2 Ti2 2.007819 1_565
O2 Sr0 3.218208 1_555
O3 Ti3 1.966395 1_555
O3 Ti0 1.985294 1_565
O3 Sr0 2.731643 1_555
O4 Ti3 1.966357 1_554
O4 Ti0 2.007819 1_565
O4 Sr0 3.218208 1_555
O5 Ti1 1.966395 1_555
O5 Ti2 1.985294 1_565
O5 Sr0 2.731643 1_555
O6 Ti2 1.968627 1_555
O6 Ti1 1.999612 1_555
O6 Sr0 2.717449 1_555
O7 Ti0 1.955032 1_555
O7 Ti3 1.982157 1_554
O7 Sr0 2.500222 1_555
O8 Ti1 1.994374 1_555
O8 Ti3 1.994374 1_555
O8 Sr0 2.644217 1_555
O8 Sr0 2.923789 1_556
O9 Ti2 1.982773 1_565
O9 Ti0 1.982773 1_565
O9 Sr0 2.492756 1_555
O9 Sr0 2.996098 1_565
O10 Ti3 1.960705 1_554
O10 Ti1 1.960705 1_454
O11 Ti0 1.965022 1_555
O11 Ti2 1.965022 1_455
