# generated using pymatgen
data_FeSe2NO8
_symmetry_space_group_name_H-M   'P 1'
_cell_length_a   5.21865492
_cell_length_b   5.21865492
_cell_length_c   9.05809800
_cell_angle_alpha   90.00000000
_cell_angle_beta   90.00000000
_cell_angle_gamma   120.00001166
_symmetry_Int_Tables_number   1
_chemical_formula_structural   FeSe2NO8
_chemical_formula_sum   'Fe1 Se2 N1 O8'
_cell_volume   213.64107591
_cell_formula_units_Z   1
loop_
 _symmetry_equiv_pos_site_id
 _symmetry_equiv_pos_as_xyz
  1  'x, y, z'
loop_
 _atom_site_type_symbol
 _atom_site_label
 _atom_site_symmetry_multiplicity
 _atom_site_fract_x
 _atom_site_fract_y
 _atom_site_fract_z
 _atom_site_occupancy
  Fe  Fe0  1  0.00000000  0.00000000  0.00000000  1
  Se  Se0  1  0.66666700  0.33333300  0.79652300  1
  Se  Se1  1  0.33333300  0.66666700  0.20347700  1
  N  N0  1  0.00000000  0.00000000  0.50000000  1
  O  O0  1  0.92590600  0.26152900  0.86175900  1
  O  O1  1  0.33562400  0.07409400  0.86175900  1
  O  O2  1  0.66437600  0.73847100  0.13824100  1
  O  O3  1  0.73847100  0.66437600  0.86175900  1
  O  O4  1  0.26152900  0.92590600  0.13824100  1
  O  O5  1  0.07409400  0.33562400  0.13824100  1
  O  O6  1  0.66666700  0.33333300  0.61456600  1
  O  O7  1  0.33333300  0.66666700  0.38543400  1
loop_
_geom_bond_atom_site_label_1
_geom_bond_atom_site_label_2
_geom_bond_distance
_geom_bond_site_symmetry_2
Fe0 O4 2.026825 1_545
Fe0 O0 2.026825 1_454
Fe0 O2 2.026828 1_445
Fe0 O3 2.026828 1_444
Fe0 O5 2.026829 1_555
Fe0 O1 2.026829 1_554
O0 Se0 1.681317 1_555
O1 Se0 1.681317 1_555
O2 Se1 1.681317 1_555
O3 Se0 1.681317 1_555
O4 Se1 1.681317 1_555
O5 Se1 1.681317 1_555
O6 Se0 1.648184 1_555
O7 Se1 1.648184 1_555
