# generated using pymatgen
data_Li(CoO2)2
_symmetry_space_group_name_H-M   'P 1'
_cell_length_a   8.06780100
_cell_length_b   8.05765500
_cell_length_c   8.06588210
_cell_angle_alpha   89.97014410
_cell_angle_beta   90.00000000
_cell_angle_gamma   90.00000000
_symmetry_Int_Tables_number   1
_chemical_formula_structural   Li(CoO2)2
_chemical_formula_sum   'Li8 Co16 O32'
_cell_volume   524.34321940
_cell_formula_units_Z   8
loop_
 _symmetry_equiv_pos_site_id
 _symmetry_equiv_pos_as_xyz
  1  'x, y, z'
loop_
 _atom_site_type_symbol
 _atom_site_label
 _atom_site_symmetry_multiplicity
 _atom_site_fract_x
 _atom_site_fract_y
 _atom_site_fract_z
 _atom_site_occupancy
  Li  Li0  1  0.00035300  0.50077200  0.74666400  1
  Li  Li1  1  0.24791100  0.24800800  0.00036700  1
  Li  Li2  1  0.74880100  0.24770300  0.49911600  1
  Li  Li3  1  0.50149000  0.00057000  0.74560900  1
  Li  Li4  1  0.00149000  0.99943000  0.25439100  1
  Li  Li5  1  0.74791100  0.75199200  0.99963300  1
  Li  Li6  1  0.24880100  0.75229700  0.50088400  1
  Li  Li7  1  0.50035300  0.49922800  0.25333600  1
  Co  Co0  1  0.62441700  0.37550400  0.87483700  1
  Co  Co1  1  0.87547200  0.37634000  0.12580800  1
  Co  Co2  1  0.37224400  0.37299800  0.62352900  1
  Co  Co3  1  0.12555800  0.37408100  0.37500000  1
  Co  Co4  1  0.62428400  0.12504800  0.12403000  1
  Co  Co5  1  0.87761000  0.12456300  0.87258200  1
  Co  Co6  1  0.37484500  0.12396800  0.37470600  1
  Co  Co7  1  0.12473100  0.12399800  0.62385500  1
  Co  Co8  1  0.37761000  0.87543700  0.12741800  1
  Co  Co9  1  0.12428400  0.87495200  0.87597000  1
  Co  Co10  1  0.62473100  0.87600200  0.37614500  1
  Co  Co11  1  0.87484500  0.87603200  0.62529400  1
  Co  Co12  1  0.37547200  0.62366000  0.87419200  1
  Co  Co13  1  0.12441700  0.62449600  0.12516300  1
  Co  Co14  1  0.62555800  0.62591900  0.62500000  1
  Co  Co15  1  0.87224400  0.62700200  0.37647100  1
  O  O0  1  0.38727400  0.39031600  0.86147500  1
  O  O1  1  0.60915100  0.38281700  0.64220400  1
  O  O2  1  0.88877300  0.38419500  0.35674700  1
  O  O3  1  0.86099300  0.36564000  0.89057800  1
  O  O4  1  0.11188200  0.39146500  0.13630000  1
  O  O5  1  0.63809100  0.36472900  0.10791400  1
  O  O6  1  0.36180200  0.36016000  0.39167100  1
  O  O7  1  0.14118200  0.36375900  0.61101500  1
  O  O8  1  0.64114800  0.14297500  0.88328000  1
  O  O9  1  0.86255200  0.14261400  0.11035300  1
  O  O10  1  0.13993800  0.13861700  0.38818300  1
  O  O11  1  0.61398100  0.10907900  0.35819000  1
  O  O12  1  0.36245100  0.14051400  0.61071000  1
  O  O13  1  0.38847700  0.10841800  0.13565800  1
  O  O14  1  0.10810300  0.10899500  0.86461800  1
  O  O15  1  0.88593800  0.11177400  0.64164900  1
  O  O16  1  0.60810300  0.89100500  0.13538200  1
  O  O17  1  0.38593800  0.88822600  0.35835100  1
  O  O18  1  0.11398100  0.89092100  0.64181000  1
  O  O19  1  0.14114800  0.85702500  0.11672000  1
  O  O20  1  0.88847700  0.89158200  0.86434200  1
  O  O21  1  0.36255200  0.85738600  0.88964700  1
  O  O22  1  0.63993800  0.86138300  0.61181700  1
  O  O23  1  0.86245100  0.85948600  0.38929000  1
  O  O24  1  0.36099300  0.63436000  0.10942200  1
  O  O25  1  0.13809100  0.63527100  0.89208600  1
  O  O26  1  0.86180200  0.63984000  0.60832900  1
  O  O27  1  0.38877300  0.61580500  0.64325300  1
  O  O28  1  0.64118200  0.63624100  0.38898500  1
  O  O29  1  0.61188200  0.60853500  0.86370000  1
  O  O30  1  0.88727400  0.60968400  0.13852500  1
  O  O31  1  0.10915100  0.61718300  0.35779600  1
loop_
_geom_bond_atom_site_label_1
_geom_bond_atom_site_label_2
_geom_bond_distance
_geom_bond_site_symmetry_2
Li0 O7 1.925644 1_555
Li0 O26 1.936190 1_455
Li0 O25 1.945898 1_555
Li0 O3 1.948288 1_455
Li1 O14 1.930566 1_554
Li1 O13 1.934094 1_555
Li1 O4 1.934950 1_555
Li1 O0 1.957734 1_554
Li2 O11 1.929803 1_555
Li2 O15 1.934972 1_555
Li2 O1 1.946274 1_555
Li2 O2 1.949914 1_555
Li3 O22 1.916053 1_545
Li3 O12 1.926776 1_555
Li3 O8 1.954628 1_555
Li3 O21 1.983917 1_545
Li4 O10 1.916053 1_565
Li4 O23 1.926776 1_455
Li4 O19 1.954628 1_555
Li4 O9 1.983917 1_465
Li5 O16 1.930566 1_556
Li5 O20 1.934094 1_555
Li5 O29 1.934950 1_555
Li5 O30 1.957734 1_556
Li6 O18 1.929803 1_555
Li6 O17 1.934972 1_555
Li6 O31 1.946274 1_555
Li6 O27 1.949914 1_555
Li7 O28 1.925644 1_555
Li7 O6 1.936190 1_555
Li7 O5 1.945898 1_555
Li7 O24 1.948288 1_555
Co0 O8 1.879693 1_555
Co0 O1 1.881321 1_555
Co0 O29 1.882503 1_555
Co0 O5 1.885161 1_556
Co0 O3 1.914514 1_555
Co0 O0 1.919965 1_555
Co1 O2 1.866921 1_555
Co1 O30 1.885460 1_555
Co1 O9 1.890346 1_555
Co1 O3 1.902929 1_554
Co1 O4 1.913074 1_655
Co1 O5 1.922855 1_555
Co2 O7 1.868379 1_555
Co2 O6 1.874945 1_555
Co2 O12 1.877844 1_555
Co2 O1 1.918880 1_555
Co2 O0 1.928200 1_555
Co2 O27 1.967520 1_555
Co3 O10 1.903748 1_555
Co3 O7 1.909607 1_555
Co3 O6 1.913993 1_555
Co3 O2 1.917728 1_455
Co3 O4 1.933493 1_555
Co3 O31 1.968125 1_555
Co4 O16 1.892519 1_545
Co4 O11 1.894842 1_555
Co4 O13 1.909459 1_555
Co4 O9 1.930653 1_555
Co4 O5 1.938772 1_555
Co4 O8 1.951899 1_554
Co5 O14 1.864907 1_655
Co5 O15 1.866790 1_555
Co5 O20 1.880536 1_545
Co5 O8 1.915436 1_555
Co5 O9 1.927249 1_556
Co5 O3 1.952614 1_555
Co6 O10 1.901968 1_555
Co6 O17 1.906273 1_545
Co6 O12 1.910931 1_555
Co6 O6 1.911037 1_555
Co6 O13 1.935392 1_555
Co6 O11 1.937617 1_555
Co7 O18 1.885550 1_545
Co7 O10 1.908435 1_555
Co7 O12 1.925407 1_555
Co7 O15 1.934379 1_455
Co7 O7 1.939179 1_555
Co7 O14 1.950281 1_555
Co8 O16 1.864907 1_555
Co8 O17 1.866790 1_555
Co8 O13 1.880536 1_565
Co8 O19 1.915436 1_555
Co8 O21 1.927249 1_554
Co8 O24 1.952614 1_555
Co9 O14 1.892519 1_565
Co9 O18 1.894842 1_555
Co9 O20 1.909459 1_455
Co9 O21 1.930653 1_555
Co9 O25 1.938772 1_555
Co9 O19 1.951899 1_556
Co10 O11 1.885550 1_565
Co10 O22 1.908435 1_555
Co10 O23 1.925407 1_555
Co10 O17 1.934379 1_555
Co10 O28 1.939179 1_555
Co10 O16 1.950281 1_555
Co11 O22 1.901968 1_555
Co11 O15 1.906273 1_565
Co11 O23 1.910931 1_555
Co11 O26 1.911037 1_555
Co11 O20 1.935392 1_555
Co11 O18 1.937617 1_655
Co12 O27 1.866921 1_555
Co12 O0 1.885460 1_555
Co12 O21 1.890346 1_555
Co12 O24 1.902929 1_556
Co12 O29 1.913074 1_555
Co12 O25 1.922855 1_555
Co13 O19 1.879693 1_555
Co13 O31 1.881321 1_555
Co13 O4 1.882503 1_555
Co13 O25 1.885161 1_554
Co13 O24 1.914514 1_555
Co13 O30 1.919965 1_455
Co14 O22 1.903748 1_555
Co14 O28 1.909607 1_555
Co14 O26 1.913993 1_555
Co14 O27 1.917728 1_555
Co14 O29 1.933493 1_555
Co14 O1 1.968125 1_555
Co15 O28 1.868379 1_555
Co15 O26 1.874945 1_555
Co15 O23 1.877844 1_555
Co15 O31 1.918880 1_655
Co15 O30 1.928200 1_555
Co15 O2 1.967520 1_555
