# generated using pymatgen
data_CrFe3N
_symmetry_space_group_name_H-M   'P 1'
_cell_length_a   3.80931000
_cell_length_b   3.80931000
_cell_length_c   3.80931000
_cell_angle_alpha   90.00000000
_cell_angle_beta   90.00000000
_cell_angle_gamma   90.00000000
_symmetry_Int_Tables_number   1
_chemical_formula_structural   CrFe3N
_chemical_formula_sum   'Cr1 Fe3 N1'
_cell_volume   55.27629811
_cell_formula_units_Z   1
loop_
 _symmetry_equiv_pos_site_id
 _symmetry_equiv_pos_as_xyz
  1  'x, y, z'
loop_
 _atom_site_type_symbol
 _atom_site_label
 _atom_site_symmetry_multiplicity
 _atom_site_fract_x
 _atom_site_fract_y
 _atom_site_fract_z
 _atom_site_occupancy
  Cr  Cr0  1  0.50000000  0.50000000  0.50000000  1
  Fe  Fe0  1  0.50000000  0.00000000  0.00000000  1
  Fe  Fe1  1  0.00000000  0.50000000  0.00000000  1
  Fe  Fe2  1  0.00000000  0.00000000  0.50000000  1
  N  N0  1  0.00000000  0.00000000  0.00000000  1
loop_
_geom_bond_atom_site_label_1
_geom_bond_atom_site_label_2
_geom_bond_distance
_geom_bond_site_symmetry_2
Cr0 Fe1 2.693589 1_655
Cr0 Fe2 2.693589 1_555
Cr0 Fe2 2.693589 1_565
Cr0 Fe0 2.693589 1_556
Cr0 Fe2 2.693589 1_655
Cr0 Fe2 2.693589 1_665
Cr0 Fe0 2.693589 1_555
Cr0 Fe0 2.693589 1_565
Cr0 Fe1 2.693589 1_555
Cr0 Fe1 2.693589 1_556
Cr0 Fe1 2.693589 1_656
Cr0 Fe0 2.693589 1_566
Fe0 N0 1.904655 1_555
Fe0 N0 1.904655 1_655
Fe1 N0 1.904655 1_555
Fe1 N0 1.904655 1_565
Fe2 N0 1.904655 1_555
Fe2 N0 1.904655 1_556
