# generated using pymatgen
data_LuZnCuAs2
_symmetry_space_group_name_H-M   'P 1'
_cell_length_a   4.08826135
_cell_length_b   4.08826135
_cell_length_c   6.66013200
_cell_angle_alpha   90.00000000
_cell_angle_beta   90.00000000
_cell_angle_gamma   119.99998950
_symmetry_Int_Tables_number   1
_chemical_formula_structural   LuZnCuAs2
_chemical_formula_sum   'Lu1 Zn1 Cu1 As2'
_cell_volume   96.40305944
_cell_formula_units_Z   1
loop_
 _symmetry_equiv_pos_site_id
 _symmetry_equiv_pos_as_xyz
  1  'x, y, z'
loop_
 _atom_site_type_symbol
 _atom_site_label
 _atom_site_symmetry_multiplicity
 _atom_site_fract_x
 _atom_site_fract_y
 _atom_site_fract_z
 _atom_site_occupancy
  Lu  Lu0  1  0.33333300  0.66666700  0.98322500  1
  Zn  Zn0  1  0.00000000  0.00000000  0.37912400  1
  Cu  Cu0  1  0.66666700  0.33333300  0.63652800  1
  As  As0  1  0.66666700  0.33333300  0.24571000  1
  As  As1  1  0.00000000  0.00000000  0.75541300  1
loop_
_geom_bond_atom_site_label_1
_geom_bond_atom_site_label_2
_geom_bond_distance
_geom_bond_site_symmetry_2
Cu0 Zn0 2.917235 1_655
Cu0 Zn0 2.917238 1_665
Cu0 Zn0 2.917238 1_555
Cu0 Lu0 3.301967 1_545
Cu0 Lu0 3.301967 1_655
Cu0 Lu0 3.301972 1_555
As0 Zn0 2.522065 1_655
As0 Zn0 2.522069 1_555
As0 Zn0 2.522069 1_665
As0 Cu0 2.602899 1_555
As0 Lu0 2.937249 1_544
As0 Lu0 2.937249 1_654
As0 Lu0 2.937255 1_554
As1 Cu0 2.489621 1_455
As1 Cu0 2.489625 1_445
As1 Cu0 2.489625 1_555
As1 Zn0 2.506134 1_555
As1 Lu0 2.805950 1_545
As1 Lu0 2.805953 1_445
As1 Lu0 2.805953 1_555
