# generated using pymatgen
data_Fe(ClO7)2
_symmetry_space_group_name_H-M   'P 1'
_cell_length_a   7.78259837
_cell_length_b   7.78259837
_cell_length_c   4.93124900
_cell_angle_alpha   90.00000000
_cell_angle_beta   90.00000000
_cell_angle_gamma   120.00000313
_symmetry_Int_Tables_number   1
_chemical_formula_structural   Fe(ClO7)2
_chemical_formula_sum   'Fe1 Cl2 O14'
_cell_volume   258.66447559
_cell_formula_units_Z   1
loop_
 _symmetry_equiv_pos_site_id
 _symmetry_equiv_pos_as_xyz
  1  'x, y, z'
loop_
 _atom_site_type_symbol
 _atom_site_label
 _atom_site_symmetry_multiplicity
 _atom_site_fract_x
 _atom_site_fract_y
 _atom_site_fract_z
 _atom_site_occupancy
  Fe  Fe0  1  0.33333300  0.66666700  0.74866100  1
  Cl  Cl0  1  0.66666700  0.33333300  0.49534100  1
  Cl  Cl1  1  0.00000000  0.00000000  0.99783400  1
  O  O0  1  0.13475400  0.56737700  0.99504400  1
  O  O1  1  0.43262300  0.56737700  0.99504400  1
  O  O2  1  0.43262300  0.86524600  0.99504400  1
  O  O3  1  0.53185600  0.76592800  0.50228400  1
  O  O4  1  0.23407200  0.76592800  0.50228400  1
  O  O5  1  0.23407200  0.46814400  0.50228400  1
  O  O6  1  0.46184000  0.23092000  0.40525400  1
  O  O7  1  0.76908000  0.23092000  0.40525400  1
  O  O8  1  0.76908000  0.53816000  0.40525400  1
  O  O9  1  0.20455900  0.10228000  0.90450300  1
  O  O10  1  0.89772000  0.10228000  0.90450300  1
  O  O11  1  0.89772000  0.79544100  0.90450300  1
  O  O12  1  0.66666700  0.33333300  0.79509500  1
  O  O13  1  0.00000000  0.00000000  0.29516100  1
loop_
_geom_bond_atom_site_label_1
_geom_bond_atom_site_label_2
_geom_bond_distance
_geom_bond_site_symmetry_2
Fe0 O4 1.807319 1_555
Fe0 O5 1.807324 1_555
Fe0 O3 1.807324 1_555
Fe0 O2 1.807624 1_555
Fe0 O0 1.807624 1_555
Fe0 O1 1.807629 1_555
Cl0 O7 1.450229 1_555
Cl0 O6 1.450236 1_555
Cl0 O8 1.450236 1_555
Cl0 O12 1.478162 1_555
Cl1 O9 1.453502 1_555
Cl1 O11 1.453502 1_445
Cl1 O10 1.453509 1_455
Cl1 O13 1.466193 1_556
