# generated using pymatgen
data_Y(Al3Fe)3
_symmetry_space_group_name_H-M   'P 1'
_cell_length_a   5.04853409
_cell_length_b   6.75586306
_cell_length_c   6.74922071
_cell_angle_alpha   98.26611700
_cell_angle_beta   112.63032666
_cell_angle_gamma   68.05966489
_symmetry_Int_Tables_number   1
_chemical_formula_structural   Y(Al3Fe)3
_chemical_formula_sum   'Y1 Al9 Fe3'
_cell_volume   197.08470154
_cell_formula_units_Z   1
loop_
 _symmetry_equiv_pos_site_id
 _symmetry_equiv_pos_as_xyz
  1  'x, y, z'
loop_
 _atom_site_type_symbol
 _atom_site_label
 _atom_site_symmetry_multiplicity
 _atom_site_fract_x
 _atom_site_fract_y
 _atom_site_fract_z
 _atom_site_occupancy
  Y  Y0  1  0.00000000  0.00000000  0.00000000  1
  Al  Al0  1  0.72998600  0.77522500  0.21374500  1
  Al  Al1  1  0.27001400  0.22477500  0.78625500  1
  Al  Al2  1  0.49478900  0.77522500  0.78625500  1
  Al  Al3  1  0.50521100  0.22477500  0.21374500  1
  Al  Al4  1  0.66328400  0.35349300  0.66260100  1
  Al  Al5  1  0.33671600  0.64650700  0.33739900  1
  Al  Al6  1  0.98322400  0.35349300  0.33739900  1
  Al  Al7  1  0.01677600  0.64650700  0.66260100  1
  Al  Al8  1  0.50000000  0.00000000  0.50000000  1
  Fe  Fe0  1  0.00000000  0.00000000  0.50000000  1
  Fe  Fe1  1  0.50000000  0.50000000  0.00000000  1
  Fe  Fe2  1  0.00000000  0.50000000  0.00000000  1
loop_
_geom_bond_atom_site_label_1
_geom_bond_atom_site_label_2
_geom_bond_distance
_geom_bond_site_symmetry_2
Al0 Fe2 2.498931 1_655
Al0 Fe1 2.537629 1_555
Al0 Fe0 2.563862 1_665
Al0 Al8 2.636640 1_565
Al0 Al5 2.661982 1_655
Al0 Al2 2.664200 1_554
Al0 Al6 2.754871 1_555
Al0 Al3 2.817132 1_565
Al0 Al5 2.858098 1_555
Al0 Al7 2.910515 1_655
Al0 Y0 3.152074 1_665
Al0 Y0 3.213313 1_565
Al1 Fe2 2.498931 1_556
Al1 Fe1 2.537629 1_556
Al1 Fe0 2.563862 1_555
Al1 Al8 2.636640 1_555
Al1 Al4 2.661982 1_455
Al1 Al3 2.664200 1_556
Al1 Al7 2.754871 1_555
Al1 Al2 2.817132 1_545
Al1 Al4 2.858098 1_555
Al1 Al6 2.910515 1_455
Al1 Y0 3.152074 1_556
Al1 Y0 3.213313 1_656
Al2 Fe1 2.498931 1_556
Al2 Fe2 2.537629 1_656
Al2 Fe0 2.563862 1_565
Al2 Al8 2.636640 1_565
Al2 Al7 2.661986 1_555
Al2 Al4 2.754871 1_555
Al2 Al7 2.858093 1_655
Al2 Al5 2.910515 1_555
Al2 Y0 3.152074 1_566
Al2 Y0 3.213312 1_666
Al3 Fe1 2.498931 1_555
Al3 Fe2 2.537629 1_555
Al3 Fe0 2.563862 1_655
Al3 Al8 2.636640 1_555
Al3 Al6 2.661986 1_555
Al3 Al5 2.754871 1_555
Al3 Al6 2.858093 1_455
Al3 Al4 2.910515 1_555
Al3 Y0 3.152074 1_655
Al3 Y0 3.213312 1_555
Al4 Fe2 2.585571 1_656
Al4 Fe1 2.651710 1_556
Al4 Fe0 2.728681 1_655
Al4 Al5 2.734941 1_555
Al4 Al8 2.758352 1_555
Al4 Y0 3.054429 1_656
Al5 Fe2 2.585571 1_555
Al5 Fe1 2.651710 1_555
Al5 Fe0 2.728681 1_565
Al5 Al8 2.758352 1_565
Al5 Y0 3.054429 1_565
Al6 Fe1 2.585574 1_555
Al6 Fe2 2.651707 1_655
Al6 Fe0 2.728683 1_655
Al6 Al7 2.734941 1_655
Al6 Al8 2.758350 1_655
Al6 Y0 3.054429 1_655
Al7 Fe1 2.585574 1_556
Al7 Fe2 2.651707 1_556
Al7 Fe0 2.728683 1_565
Al7 Al8 2.758350 1_465
Al7 Y0 3.054429 1_566
Al8 Fe0 2.524267 1_655
Al8 Fe0 2.524267 1_555
Al8 Y0 3.347300 1_656
Al8 Y0 3.347300 1_555
Fe0 Y0 3.374610 1_556
Fe0 Y0 3.374610 1_555
Fe1 Fe2 2.524267 1_655
Fe1 Fe2 2.524267 1_555
Fe1 Y0 3.377932 1_565
Fe1 Y0 3.377932 1_655
Fe2 Y0 3.377932 1_555
Fe2 Y0 3.377932 1_565
