# generated using pymatgen
data_Li9Mn2Co5O16
_symmetry_space_group_name_H-M   'P 1'
_cell_length_a   6.64162589
_cell_length_b   6.64162589
_cell_length_c   15.35251548
_cell_angle_alpha   87.75038641
_cell_angle_beta   87.75038641
_cell_angle_gamma   25.21826659
_symmetry_Int_Tables_number   1
_chemical_formula_structural   Li9Mn2Co5O16
_chemical_formula_sum   'Li9 Mn2 Co5 O16'
_cell_volume   288.30714564
_cell_formula_units_Z   1
loop_
 _symmetry_equiv_pos_site_id
 _symmetry_equiv_pos_as_xyz
  1  'x, y, z'
loop_
 _atom_site_type_symbol
 _atom_site_label
 _atom_site_symmetry_multiplicity
 _atom_site_fract_x
 _atom_site_fract_y
 _atom_site_fract_z
 _atom_site_occupancy
  Li  Li0  1  0.69290000  0.69290000  0.93532300  1
  Li  Li1  1  0.05863100  0.05863100  0.81572600  1
  Li  Li2  1  0.43587900  0.43587900  0.69275200  1
  Li  Li3  1  0.31426500  0.31426500  0.05778200  1
  Li  Li4  1  0.93522900  0.93522900  0.18843700  1
  Li  Li5  1  0.56265700  0.56265700  0.30900800  1
  Li  Li6  1  0.81295600  0.81295600  0.56195300  1
  Li  Li7  1  0.18911600  0.18911600  0.43481100  1
  Li  Li8  1  0.37437100  0.37437100  0.87801700  1
  Mn  Mn0  1  0.99402800  0.99402800  0.99690600  1
  Mn  Mn1  1  0.12832900  0.12832900  0.62621200  1
  Co  Co0  1  0.76492600  0.76492600  0.75974400  1
  Co  Co1  1  0.49998200  0.49998200  0.49861300  1
  Co  Co2  1  0.87142200  0.87142200  0.37520000  1
  Co  Co3  1  0.24871300  0.24871300  0.24953600  1
  Co  Co4  1  0.62608100  0.62608100  0.12377400  1
  O  O0  1  0.52849000  0.52849000  0.91729800  1
  O  O1  1  0.90103100  0.90103100  0.77540200  1
  O  O2  1  0.26763800  0.26763800  0.65923600  1
  O  O3  1  0.14547400  0.14547400  0.03618200  1
  O  O4  1  0.77573000  0.77573000  0.16055200  1
  O  O5  1  0.40171100  0.40171100  0.28795600  1
  O  O6  1  0.65545000  0.65545000  0.54278000  1
  O  O7  1  0.02544400  0.02544400  0.41608600  1
  O  O8  1  0.85699000  0.85699000  0.97217900  1
  O  O9  1  0.21685000  0.21685000  0.83672700  1
  O  O10  1  0.59534600  0.59534600  0.70591000  1
  O  O11  1  0.47422300  0.47422300  0.08429600  1
  O  O12  1  0.09654100  0.09654100  0.21286000  1
  O  O13  1  0.72090800  0.72090800  0.34129800  1
  O  O14  1  0.98255300  0.98255300  0.58375200  1
  O  O15  1  0.34613500  0.34613500  0.46369200  1
loop_
_geom_bond_atom_site_label_1
_geom_bond_atom_site_label_2
_geom_bond_distance
_geom_bond_site_symmetry_2
Li0 O9 2.109964 1_655
Li0 O9 2.109964 1_565
Li0 O0 2.160129 1_555
Li0 O3 2.191147 1_566
Li0 O3 2.191147 1_656
Li0 O8 2.222939 1_555
Li1 O9 2.088935 1_555
Li1 O0 2.153467 1_455
Li1 O0 2.153467 1_545
Li1 O1 2.158390 1_445
Li1 O10 2.259754 1_545
Li1 O10 2.259754 1_455
Li2 O1 1.967260 1_545
Li2 O1 1.967260 1_455
Li2 O10 2.085071 1_555
Li2 O2 2.260823 1_555
Li2 O14 2.277510 1_545
Li2 O14 2.277510 1_455
Li3 O8 2.019270 1_544
Li3 O8 2.019270 1_454
Li3 O11 2.129101 1_555
Li3 O4 2.185771 1_545
Li3 O4 2.185771 1_455
Li3 O3 2.226154 1_555
Li4 O4 2.128219 1_555
Li4 O5 2.138188 1_655
Li4 O5 2.138188 1_565
Li4 O12 2.139214 1_665
Li4 O11 2.202005 1_565
Li4 O11 2.202005 1_655
Li5 O12 2.102801 1_655
Li5 O12 2.102801 1_565
Li5 O5 2.124019 1_555
Li5 O13 2.129732 1_555
Li5 O7 2.230125 1_655
Li5 O7 2.230125 1_565
Li6 O6 2.074527 1_555
Li6 O15 2.123820 1_655
Li6 O15 2.123820 1_565
Li6 O2 2.146454 1_655
Li6 O2 2.146454 1_565
Li6 O14 2.237062 1_555
Li7 O13 2.070134 1_545
Li7 O13 2.070134 1_455
Li7 O15 2.100508 1_555
Li7 O7 2.152477 1_555
Li7 O6 2.232033 1_545
Li7 O6 2.232033 1_455
Li8 O8 2.053407 1_455
Li8 O8 2.053407 1_545
Li8 O0 2.109957 1_555
Li8 O1 2.158612 1_455
Li8 O1 2.158612 1_545
Li8 O9 2.162274 1_555
Mn0 O8 1.831390 1_555
Mn0 O0 1.936870 1_655
Mn0 O0 1.936870 1_565
Mn0 O11 1.985027 1_566
Mn0 O11 1.985027 1_656
Mn0 O3 2.076749 1_666
Mn1 O2 1.895201 1_555
Mn1 O10 1.933887 1_455
Mn1 O10 1.933887 1_545
Mn1 O6 1.957076 1_455
Mn1 O6 1.957076 1_545
Mn1 O14 2.023588 1_445
Co0 O1 1.790170 1_555
Co0 O9 1.956545 1_655
Co0 O9 1.956545 1_565
Co0 O2 2.116594 1_565
Co0 O2 2.116594 1_655
Co0 O10 2.379396 1_555
Co1 O7 1.944909 1_565
Co1 O7 1.944909 1_655
Co1 O14 1.959052 1_545
Co1 O14 1.959052 1_455
Co1 O15 2.085828 1_555
Co1 O6 2.152024 1_555
Co2 O5 2.001993 1_565
Co2 O5 2.001993 1_655
Co2 O15 2.004854 1_655
Co2 O15 2.004854 1_565
Co2 O13 2.039453 1_555
Co2 O7 2.116866 1_665
Co3 O4 2.013097 1_545
Co3 O4 2.013097 1_455
Co3 O13 2.043480 1_455
Co3 O13 2.043480 1_545
Co3 O12 2.073042 1_555
Co3 O5 2.091766 1_555
Co4 O3 1.986571 1_565
Co4 O3 1.986571 1_655
Co4 O12 2.019202 1_655
Co4 O12 2.019202 1_565
Co4 O4 2.042076 1_555
Co4 O11 2.082879 1_555
