# generated using pymatgen
data_TiNbN2
_symmetry_space_group_name_H-M   'P 1'
_cell_length_a   5.37473849
_cell_length_b   5.37473849
_cell_length_c   5.37473888
_cell_angle_alpha   33.12806947
_cell_angle_beta   33.12806947
_cell_angle_gamma   33.12807428
_symmetry_Int_Tables_number   1
_chemical_formula_structural   TiNbN2
_chemical_formula_sum   'Ti1 Nb1 N2'
_cell_volume   41.27719036
_cell_formula_units_Z   1
loop_
 _symmetry_equiv_pos_site_id
 _symmetry_equiv_pos_as_xyz
  1  'x, y, z'
loop_
 _atom_site_type_symbol
 _atom_site_label
 _atom_site_symmetry_multiplicity
 _atom_site_fract_x
 _atom_site_fract_y
 _atom_site_fract_z
 _atom_site_occupancy
  Ti  Ti0  1  0.50000000  0.50000000  0.50000000  1
  Nb  Nb0  1  0.00000000  0.00000000  0.00000000  1
  N  N0  1  0.24358200  0.24358200  0.24358200  1
  N  N1  1  0.75641800  0.75641800  0.75641800  1
loop_
_geom_bond_atom_site_label_1
_geom_bond_atom_site_label_2
_geom_bond_distance
_geom_bond_site_symmetry_2
N0 Ti0 2.121762 1_455
N0 Ti0 2.121762 1_545
N0 Ti0 2.121762 1_554
N0 Nb0 2.235577 1_655
N0 Nb0 2.235577 1_565
N0 Nb0 2.235577 1_556
N1 Ti0 2.121762 1_565
N1 Ti0 2.121762 1_655
N1 Ti0 2.121762 1_556
N1 Nb0 2.235577 1_656
N1 Nb0 2.235577 1_566
N1 Nb0 2.235577 1_665
