# generated using pymatgen
data_CaLa2(FeO3)3
_symmetry_space_group_name_H-M   'P 1'
_cell_length_a   5.54440600
_cell_length_b   7.84792800
_cell_length_c   16.66323600
_cell_angle_alpha   90.00000000
_cell_angle_beta   90.00000000
_cell_angle_gamma   90.00000000
_symmetry_Int_Tables_number   1
_chemical_formula_structural   CaLa2(FeO3)3
_chemical_formula_sum   'Ca4 La8 Fe12 O36'
_cell_volume   725.05237600
_cell_formula_units_Z   4
loop_
 _symmetry_equiv_pos_site_id
 _symmetry_equiv_pos_as_xyz
  1  'x, y, z'
loop_
 _atom_site_type_symbol
 _atom_site_label
 _atom_site_symmetry_multiplicity
 _atom_site_fract_x
 _atom_site_fract_y
 _atom_site_fract_z
 _atom_site_occupancy
  Ca  Ca0  1  0.00648000  0.75000000  0.34455800  1
  Ca  Ca1  1  0.49352000  0.75000000  0.84455800  1
  Ca  Ca2  1  0.99352000  0.25000000  0.65544200  1
  Ca  Ca3  1  0.50648000  0.25000000  0.15544200  1
  La  La0  1  0.00311600  0.75000000  0.00840600  1
  La  La1  1  0.00765300  0.75000000  0.67758700  1
  La  La2  1  0.49234700  0.75000000  0.17758700  1
  La  La3  1  0.49688400  0.75000000  0.50840600  1
  La  La4  1  0.99234700  0.25000000  0.32241300  1
  La  La5  1  0.99688400  0.25000000  0.99159400  1
  La  La6  1  0.50311600  0.25000000  0.49159400  1
  La  La7  1  0.50765300  0.25000000  0.82241300  1
  Fe  Fe0  1  0.49963800  0.50138700  0.33247400  1
  Fe  Fe1  1  0.50000000  0.50000000  0.00000000  1
  Fe  Fe2  1  0.50036200  0.49861300  0.66752600  1
  Fe  Fe3  1  0.00000000  0.00000000  0.50000000  1
  Fe  Fe4  1  0.99963800  0.00138700  0.16752600  1
  Fe  Fe5  1  0.00036200  0.99861300  0.83247400  1
  Fe  Fe6  1  0.49963800  0.99861300  0.33247400  1
  Fe  Fe7  1  0.50000000  0.00000000  0.00000000  1
  Fe  Fe8  1  0.50036200  0.00138700  0.66752600  1
  Fe  Fe9  1  0.00000000  0.50000000  0.50000000  1
  Fe  Fe10  1  0.99963800  0.49861300  0.16752600  1
  Fe  Fe11  1  0.00036200  0.50138700  0.83247400  1
  O  O0  1  0.28728600  0.96547100  0.42889000  1
  O  O1  1  0.28108300  0.96026400  0.09450700  1
  O  O2  1  0.28759300  0.95914900  0.76269900  1
  O  O3  1  0.21240700  0.54085100  0.26269900  1
  O  O4  1  0.21271400  0.53452900  0.92889000  1
  O  O5  1  0.21891700  0.53973600  0.59450700  1
  O  O6  1  0.71240700  0.45914900  0.23730100  1
  O  O7  1  0.71891700  0.46026400  0.90549300  1
  O  O8  1  0.71271400  0.46547100  0.57111000  1
  O  O9  1  0.78108300  0.03973600  0.40549300  1
  O  O10  1  0.78728600  0.03452900  0.07111000  1
  O  O11  1  0.78759300  0.04085100  0.73730100  1
  O  O12  1  0.71240700  0.04085100  0.23730100  1
  O  O13  1  0.71891700  0.03973600  0.90549300  1
  O  O14  1  0.71271400  0.03452900  0.57111000  1
  O  O15  1  0.78108300  0.46026400  0.40549300  1
  O  O16  1  0.78728600  0.46547100  0.07111000  1
  O  O17  1  0.78759300  0.45914900  0.73730100  1
  O  O18  1  0.28728600  0.53452900  0.42889000  1
  O  O19  1  0.28108300  0.53973600  0.09450700  1
  O  O20  1  0.28759300  0.54085100  0.76269900  1
  O  O21  1  0.21240700  0.95914900  0.26269900  1
  O  O22  1  0.21271400  0.96547100  0.92889000  1
  O  O23  1  0.21891700  0.96026400  0.59450700  1
  O  O24  1  0.93047800  0.75000000  0.49648000  1
  O  O25  1  0.92827500  0.75000000  0.16127700  1
  O  O26  1  0.92233600  0.75000000  0.82835100  1
  O  O27  1  0.57766400  0.75000000  0.32835100  1
  O  O28  1  0.56952200  0.75000000  0.99648000  1
  O  O29  1  0.57172500  0.75000000  0.66127700  1
  O  O30  1  0.07766400  0.25000000  0.17164900  1
  O  O31  1  0.07172500  0.25000000  0.83872300  1
  O  O32  1  0.06952200  0.25000000  0.50352000  1
  O  O33  1  0.42827500  0.25000000  0.33872300  1
  O  O34  1  0.43047800  0.25000000  0.00352000  1
  O  O35  1  0.42233600  0.25000000  0.67164900  1
loop_
_geom_bond_atom_site_label_1
_geom_bond_atom_site_label_2
_geom_bond_distance
_geom_bond_site_symmetry_2
Ca0 O27 2.392819 1_455
Ca0 O21 2.420397 1_555
Ca0 O3 2.420397 1_555
Ca0 O24 2.566344 1_455
Ca0 O0 2.694094 1_555
Ca0 O18 2.694094 1_555
Ca0 O15 2.786217 1_455
Ca0 O9 2.786217 1_465
Ca1 O26 2.392819 1_555
Ca1 O2 2.420397 1_555
Ca1 O20 2.420397 1_555
Ca1 O28 2.566344 1_555
Ca1 O22 2.694094 1_555
Ca1 O4 2.694094 1_555
Ca1 O13 2.786217 1_565
Ca1 O7 2.786217 1_555
Ca2 O35 2.392819 1_655
Ca2 O11 2.420397 1_555
Ca2 O17 2.420397 1_555
Ca2 O32 2.566344 1_655
Ca2 O8 2.694094 1_555
Ca2 O14 2.694094 1_555
Ca2 O23 2.786217 1_645
Ca2 O5 2.786217 1_655
Ca3 O30 2.392819 1_555
Ca3 O6 2.420397 1_555
Ca3 O12 2.420397 1_555
Ca3 O34 2.566344 1_555
Ca3 O16 2.694094 1_555
Ca3 O10 2.694094 1_555
Ca3 O1 2.786217 1_545
Ca3 O19 2.786217 1_555
La0 O28 2.412221 1_454
La0 O22 2.442450 1_554
La0 O4 2.442450 1_554
La0 O25 2.580901 1_455
La0 O19 2.675174 1_555
La0 O1 2.675174 1_555
La0 O10 2.740403 1_465
La0 O16 2.740403 1_455
La1 O29 2.432194 1_455
La1 O23 2.451833 1_555
La1 O5 2.451833 1_555
La1 O26 2.556362 1_455
La1 O2 2.667316 1_555
La1 O20 2.667316 1_555
La1 O11 2.772885 1_465
La1 O17 2.772885 1_455
La2 O25 2.432194 1_555
La2 O19 2.451833 1_555
La2 O1 2.451833 1_555
La2 O27 2.556362 1_555
La2 O21 2.667316 1_555
La2 O3 2.667316 1_555
La2 O12 2.772885 1_565
La2 O6 2.772885 1_555
La3 O24 2.412221 1_555
La3 O0 2.442450 1_555
La3 O18 2.442450 1_555
La3 O29 2.580901 1_555
La3 O23 2.675174 1_555
La3 O5 2.675174 1_555
La3 O14 2.740403 1_565
La3 O8 2.740403 1_555
La4 O33 2.432194 1_655
La4 O9 2.451833 1_555
La4 O15 2.451833 1_555
La4 O30 2.556362 1_655
La4 O6 2.667316 1_555
La4 O12 2.667316 1_555
La4 O3 2.772885 1_655
La4 O21 2.772885 1_645
La5 O34 2.412221 1_656
La5 O16 2.442450 1_556
La5 O10 2.442450 1_556
La5 O31 2.580901 1_655
La5 O13 2.675174 1_555
La5 O7 2.675174 1_555
La5 O4 2.740403 1_655
La5 O22 2.740403 1_645
La6 O32 2.412221 1_555
La6 O8 2.442450 1_555
La6 O14 2.442450 1_555
La6 O33 2.580901 1_555
La6 O9 2.675174 1_555
La6 O15 2.675174 1_555
La6 O18 2.740403 1_555
La6 O0 2.740403 1_545
La7 O31 2.432194 1_555
La7 O13 2.451833 1_555
La7 O7 2.451833 1_555
La7 O35 2.556362 1_555
La7 O17 2.667316 1_555
La7 O11 2.667316 1_555
La7 O20 2.772885 1_555
La7 O2 2.772885 1_545
Fe0 O3 1.995965 1_555
Fe0 O27 1.999662 1_555
Fe0 O6 2.004137 1_555
Fe0 O15 2.004890 1_555
Fe0 O18 2.008734 1_555
Fe0 O33 2.014845 1_555
Fe1 O28 2.000348 1_554
Fe1 O34 2.000348 1_555
Fe1 O16 2.003642 1_555
Fe1 O4 2.003642 1_554
Fe1 O7 2.012571 1_554
Fe1 O19 2.012571 1_555
Fe2 O17 1.995965 1_555
Fe2 O35 1.999662 1_555
Fe2 O20 2.004137 1_555
Fe2 O5 2.004890 1_555
Fe2 O8 2.008734 1_555
Fe2 O29 2.014845 1_555
Fe3 O32 2.000348 1_555
Fe3 O24 2.000348 1_445
Fe3 O0 2.003642 1_545
Fe3 O14 2.003642 1_455
Fe3 O23 2.012571 1_545
Fe3 O9 2.012571 1_455
Fe4 O12 1.995965 1_555
Fe4 O30 1.999662 1_655
Fe4 O21 2.004137 1_645
Fe4 O1 2.004890 1_645
Fe4 O10 2.008734 1_555
Fe4 O25 2.014845 1_545
Fe5 O2 1.995965 1_555
Fe5 O26 1.999662 1_455
Fe5 O11 2.004137 1_465
Fe5 O13 2.004890 1_465
Fe5 O22 2.008734 1_555
Fe5 O31 2.014845 1_565
Fe6 O21 1.995965 1_555
Fe6 O27 1.999662 1_555
Fe6 O12 2.004137 1_565
Fe6 O9 2.004890 1_565
Fe6 O0 2.008734 1_555
Fe6 O33 2.014845 1_565
Fe7 O28 2.000348 1_544
Fe7 O34 2.000348 1_555
Fe7 O10 2.003642 1_555
Fe7 O22 2.003642 1_544
Fe7 O13 2.012571 1_554
Fe7 O1 2.012571 1_545
Fe8 O11 1.995965 1_555
Fe8 O35 1.999662 1_555
Fe8 O2 2.004137 1_545
Fe8 O23 2.004890 1_545
Fe8 O14 2.008734 1_555
Fe8 O29 2.014845 1_545
Fe9 O32 2.000348 1_555
Fe9 O24 2.000348 1_455
Fe9 O18 2.003642 1_555
Fe9 O8 2.003642 1_455
Fe9 O5 2.012571 1_555
Fe9 O15 2.012571 1_455
Fe10 O6 1.995965 1_555
Fe10 O30 1.999662 1_655
Fe10 O3 2.004137 1_655
Fe10 O19 2.004890 1_655
Fe10 O16 2.008734 1_555
Fe10 O25 2.014845 1_555
Fe11 O20 1.995965 1_555
Fe11 O26 1.999662 1_455
Fe11 O17 2.004137 1_455
Fe11 O7 2.004890 1_455
Fe11 O4 2.008734 1_555
Fe11 O31 2.014845 1_555
