# generated using pymatgen
data_Fe2SiO4
_symmetry_space_group_name_H-M   'P 1'
_cell_length_a   5.76050999
_cell_length_b   5.76050999
_cell_length_c   5.76050999
_cell_angle_alpha   121.12443029
_cell_angle_beta   111.86709597
_cell_angle_gamma   96.35259836
_symmetry_Int_Tables_number   1
_chemical_formula_structural   Fe2SiO4
_chemical_formula_sum   'Fe4 Si2 O8'
_cell_volume   140.37076740
_cell_formula_units_Z   2
loop_
 _symmetry_equiv_pos_site_id
 _symmetry_equiv_pos_as_xyz
  1  'x, y, z'
loop_
 _atom_site_type_symbol
 _atom_site_label
 _atom_site_symmetry_multiplicity
 _atom_site_fract_x
 _atom_site_fract_y
 _atom_site_fract_z
 _atom_site_occupancy
  Fe  Fe0  1  0.50000000  0.00000000  0.00000000  1
  Fe  Fe1  1  0.50000000  0.50000000  0.50000000  1
  Fe  Fe2  1  0.50000000  0.50000000  0.00000000  1
  Fe  Fe3  1  0.00000000  0.50000000  0.50000000  1
  Si  Si0  1  0.00000000  0.50000000  0.00000000  1
  Si  Si1  1  0.00000000  0.00000000  0.50000000  1
  O  O0  1  0.76672700  0.75525400  0.48852700  1
  O  O1  1  0.23327300  0.24474600  0.51147300  1
  O  O2  1  0.23327300  0.72180000  0.98852700  1
  O  O3  1  0.76672700  0.27820000  0.01147300  1
  O  O4  1  0.18066600  0.23971600  0.94095000  1
  O  O5  1  0.20123500  0.76028400  0.44095000  1
  O  O6  1  0.81933400  0.76028400  0.05905000  1
  O  O7  1  0.79876500  0.23971600  0.55905000  1
loop_
_geom_bond_atom_site_label_1
_geom_bond_atom_site_label_2
_geom_bond_distance
_geom_bond_site_symmetry_2
Fe0 O2 2.050209 1_544
Fe0 O3 2.050209 1_555
Fe0 O7 2.447042 1_555
Fe0 O5 2.447042 1_544
Fe0 O6 2.447043 1_545
Fe0 O4 2.447043 1_554
Fe1 O1 2.050209 1_555
Fe1 O0 2.050209 1_555
Fe1 O7 2.447039 1_555
Fe1 O5 2.447039 1_555
Fe1 O4 2.447043 1_554
Fe1 O6 2.447043 1_556
Fe2 O6 2.035668 1_555
Fe2 O4 2.035668 1_554
Fe2 O2 2.108009 1_554
Fe2 O0 2.108009 1_555
Fe2 O3 2.108009 1_555
Fe2 O1 2.108009 1_554
Fe3 O5 2.035671 1_555
Fe3 O7 2.035671 1_455
Fe3 O1 2.108009 1_555
Fe3 O3 2.108009 1_455
Fe3 O0 2.108009 1_455
Fe3 O2 2.108009 1_555
O0 Si1 1.793340 1_665
O1 Si1 1.793340 1_555
O2 Si0 1.793340 1_556
O3 Si0 1.793340 1_655
O4 Si0 1.878481 1_556
O4 Si1 1.878481 1_555
O5 Si0 1.878481 1_555
O5 Si1 1.878485 1_565
O6 Si0 1.878481 1_655
O6 Si1 1.878481 1_665
O7 Si0 1.878481 1_656
O7 Si1 1.878485 1_655
