# generated using pymatgen
data_Mn20O43
_symmetry_space_group_name_H-M   'P 1'
_cell_length_a   8.29737879
_cell_length_b   10.15386702
_cell_length_c   10.15826784
_cell_angle_alpha   87.82214015
_cell_angle_beta   112.36795447
_cell_angle_gamma   112.33351402
_symmetry_Int_Tables_number   1
_chemical_formula_structural   Mn20O43
_chemical_formula_sum   'Mn20 O43'
_cell_volume   726.36881023
_cell_formula_units_Z   1
loop_
 _symmetry_equiv_pos_site_id
 _symmetry_equiv_pos_as_xyz
  1  'x, y, z'
loop_
 _atom_site_type_symbol
 _atom_site_label
 _atom_site_symmetry_multiplicity
 _atom_site_fract_x
 _atom_site_fract_y
 _atom_site_fract_z
 _atom_site_occupancy
  Mn  Mn0  1  0.81800590  0.20288873  0.68746492  1
  Mn  Mn1  1  0.81766159  0.40317076  0.88756689  1
  Mn  Mn2  1  0.81802354  0.60335715  0.08764651  1
  Mn  Mn3  1  0.81803739  0.80366130  0.28733465  1
  Mn  Mn4  1  0.81838933  0.00336161  0.48770501  1
  Mn  Mn5  1  0.18196261  0.19633870  0.71266535  1
  Mn  Mn6  1  0.18197646  0.39664285  0.91235349  1
  Mn  Mn7  1  0.18233841  0.59682924  0.11243311  1
  Mn  Mn8  1  0.18199410  0.79711127  0.31253508  1
  Mn  Mn9  1  0.18161067  0.99663839  0.51229499  1
  Mn  Mn10  1  0.48405320  0.35360276  0.53643730  1
  Mn  Mn11  1  0.48471610  0.55450825  0.73666108  1
  Mn  Mn12  1  0.48443369  0.75452822  0.93660258  1
  Mn  Mn13  1  0.48534311  0.95427338  0.13699205  1
  Mn  Mn14  1  0.48480112  0.15386341  0.33668105  1
  Mn  Mn15  1  0.51465689  0.04572662  0.86300795  1
  Mn  Mn16  1  0.51556631  0.24547178  0.06339742  1
  Mn  Mn17  1  0.51528390  0.44549175  0.26333892  1
  Mn  Mn18  1  0.51594680  0.64639724  0.46356270  1
  Mn  Mn19  1  0.51519888  0.84613659  0.66331895  1
  O  O0  1  0.04719560  0.79384353  0.43437248  1
  O  O1  1  0.04779011  0.59433059  0.23493531  1
  O  O2  1  0.04762556  0.39464069  0.03435844  1
  O  O3  1  0.04751669  0.19490842  0.83395391  1
  O  O4  1  0.04718924  0.99366270  0.63404384  1
  O  O5  1  0.95280440  0.20615647  0.56562752  1
  O  O6  1  0.95281076  0.00633730  0.36595616  1
  O  O7  1  0.95248331  0.80509158  0.16604609  1
  O  O8  1  0.95237444  0.60535931  0.96564156  1
  O  O9  1  0.95220989  0.40566941  0.76506469  1
  O  O10  1  0.63899700  0.91589671  0.86724557  1
  O  O11  1  0.63974327  0.71629363  0.66791790  1
  O  O12  1  0.64004402  0.51579346  0.46789490  1
  O  O13  1  0.63999667  0.31516875  0.26813501  1
  O  O14  1  0.64001050  0.11566042  0.06759477  1
  O  O15  1  0.36100300  0.08410329  0.13275443  1
  O  O16  1  0.35998950  0.88433958  0.93240523  1
  O  O17  1  0.36000333  0.68483125  0.73186499  1
  O  O18  1  0.35995598  0.48420654  0.53210510  1
  O  O19  1  0.36025673  0.28370637  0.33208210  1
  O  O20  1  0.62012902  0.03894280  0.33379415  1
  O  O21  1  0.62016898  0.83891876  0.13283881  1
  O  O22  1  0.61982293  0.63905781  0.93302430  1
  O  O23  1  0.62073940  0.43984025  0.73250346  1
  O  O24  1  0.61979135  0.23801458  0.53269083  1
  O  O25  1  0.37987098  0.96105720  0.66620585  1
  O  O26  1  0.38020865  0.76198542  0.46730917  1
  O  O27  1  0.37926060  0.56015975  0.26749654  1
  O  O28  1  0.38017707  0.36094219  0.06697570  1
  O  O29  1  0.37983102  0.16108124  0.86716119  1
  O  O30  1  0.29299591  -0.00128888  0.37722281  1
  O  O31  1  0.29330949  0.79871519  0.17779307  1
  O  O32  1  0.29405539  0.59844049  0.97803258  1
  O  O33  1  0.29275635  0.39844855  0.77689050  1
  O  O34  1  0.29383740  0.19777226  0.57802870  1
  O  O35  1  0.70700409  0.00128888  0.62277719  1
  O  O36  1  0.70616260  0.80222774  0.42197130  1
  O  O37  1  0.70724365  0.60155145  0.22310950  1
  O  O38  1  0.70594461  0.40155951  0.02196742  1
  O  O39  1  0.70669051  0.20128481  0.82220693  1
  O  O40  1  0.00005212  0.90289169  0.90296414  1
  O  O41  1  -0.00005212  0.09710831  0.09703586  1
  O  O42  1  0.00000000  0.50000000  0.50000000  1
loop_
_geom_bond_atom_site_label_1
_geom_bond_atom_site_label_2
_geom_bond_distance
_geom_bond_site_symmetry_2
Mn0 O39 1.917260 1_555
Mn0 O35 1.918100 1_555
Mn0 O24 1.933692 1_555
Mn0 O3 1.949032 1_655
Mn0 O5 1.950934 1_555
Mn0 O9 1.952854 1_555
Mn1 O38 1.916637 1_556
Mn1 O39 1.922102 1_555
Mn1 O23 1.936095 1_555
Mn1 O8 1.948902 1_555
Mn1 O2 1.955020 1_656
Mn1 O9 1.956781 1_555
Mn2 O37 1.920095 1_555
Mn2 O38 1.921448 1_555
Mn2 O22 1.935668 1_554
Mn2 O7 1.945701 1_555
Mn2 O8 1.952309 1_554
Mn2 O1 1.957796 1_655
Mn3 O36 1.920136 1_555
Mn3 O37 1.921913 1_555
Mn3 O21 1.931211 1_555
Mn3 O7 1.948105 1_555
Mn3 O6 1.954400 1_565
Mn3 O0 1.956389 1_655
Mn4 O36 1.915463 1_545
Mn4 O35 1.919750 1_555
Mn4 O20 1.931925 1_555
Mn4 O6 1.948308 1_555
Mn4 O4 1.951058 1_645
Mn4 O5 1.953750 1_555
Mn5 O34 1.920136 1_555
Mn5 O33 1.921913 1_555
Mn5 O29 1.931211 1_555
Mn5 O3 1.948105 1_555
Mn5 O4 1.954400 1_545
Mn5 O5 1.956389 1_455
Mn6 O33 1.920095 1_555
Mn6 O32 1.921448 1_555
Mn6 O28 1.935668 1_556
Mn6 O3 1.945701 1_555
Mn6 O2 1.952309 1_556
Mn6 O9 1.957796 1_455
Mn7 O32 1.916637 1_554
Mn7 O31 1.922102 1_555
Mn7 O27 1.936095 1_555
Mn7 O2 1.948902 1_555
Mn7 O8 1.955020 1_454
Mn7 O1 1.956781 1_555
Mn8 O31 1.917260 1_555
Mn8 O30 1.918100 1_565
Mn8 O26 1.933692 1_555
Mn8 O7 1.949032 1_455
Mn8 O0 1.950934 1_555
Mn8 O1 1.952854 1_555
Mn9 O34 1.915463 1_565
Mn9 O30 1.919750 1_565
Mn9 O25 1.931925 1_555
Mn9 O4 1.948308 1_555
Mn9 O6 1.951058 1_465
Mn9 O0 1.953750 1_555
Mn10 O23 1.917924 1_555
Mn10 O24 1.920432 1_555
Mn10 O34 1.931814 1_555
Mn10 O19 1.950167 1_555
Mn10 O18 1.954394 1_555
Mn10 O12 1.962393 1_555
Mn11 O22 1.915568 1_555
Mn11 O23 1.915719 1_555
Mn11 O33 1.934662 1_555
Mn11 O18 1.952675 1_555
Mn11 O17 1.954902 1_555
Mn11 O11 1.957399 1_555
Mn12 O21 1.914170 1_556
Mn12 O22 1.916588 1_555
Mn12 O32 1.933099 1_555
Mn12 O16 1.949854 1_555
Mn12 O17 1.953083 1_555
Mn12 O10 1.956732 1_555
Mn13 O21 1.913303 1_555
Mn13 O20 1.919574 1_565
Mn13 O31 1.935370 1_555
Mn13 O15 1.949263 1_565
Mn13 O16 1.952131 1_554
Mn13 O14 1.957486 1_565
Mn14 O20 1.909653 1_555
Mn14 O24 1.911479 1_555
Mn14 O30 1.930896 1_555
Mn14 O15 1.946063 1_555
Mn14 O19 1.949948 1_555
Mn14 O13 1.954108 1_555
Mn15 O29 1.913303 1_555
Mn15 O25 1.919574 1_545
Mn15 O39 1.935370 1_555
Mn15 O10 1.949263 1_545
Mn15 O14 1.952131 1_556
Mn15 O16 1.957486 1_545
Mn16 O29 1.914170 1_554
Mn16 O28 1.916588 1_555
Mn16 O38 1.933099 1_555
Mn16 O14 1.949854 1_555
Mn16 O13 1.953083 1_555
Mn16 O15 1.956732 1_555
Mn17 O28 1.915568 1_555
Mn17 O27 1.915719 1_555
Mn17 O37 1.934662 1_555
Mn17 O12 1.952675 1_555
Mn17 O13 1.954902 1_555
Mn17 O19 1.957399 1_555
Mn18 O27 1.917924 1_555
Mn18 O26 1.920432 1_555
Mn18 O36 1.931814 1_555
Mn18 O11 1.950167 1_555
Mn18 O12 1.954394 1_555
Mn18 O18 1.962393 1_555
Mn19 O25 1.909653 1_555
Mn19 O26 1.911479 1_555
Mn19 O35 1.930896 1_565
Mn19 O10 1.946063 1_555
Mn19 O11 1.949948 1_555
Mn19 O17 1.954108 1_555
