# generated using pymatgen
data_Sm2Mn3(SbS3)4
_symmetry_space_group_name_H-M   'P 1'
_cell_length_a   10.17014729
_cell_length_b   10.17014729
_cell_length_c   14.89157908
_cell_angle_alpha   54.25950315
_cell_angle_beta   54.25950315
_cell_angle_gamma   21.93045013
_symmetry_Int_Tables_number   1
_chemical_formula_structural   Sm2Mn3(SbS3)4
_chemical_formula_sum   'Sm2 Mn3 Sb4 S12'
_cell_volume   462.36009580
_cell_formula_units_Z   1
loop_
 _symmetry_equiv_pos_site_id
 _symmetry_equiv_pos_as_xyz
  1  'x, y, z'
loop_
 _atom_site_type_symbol
 _atom_site_label
 _atom_site_symmetry_multiplicity
 _atom_site_fract_x
 _atom_site_fract_y
 _atom_site_fract_z
 _atom_site_occupancy
  Sm  Sm0  1  0.24080500  0.24080500  0.86271000  1
  Sm  Sm1  1  0.75919500  0.75919500  0.13729000  1
  Mn  Mn0  1  0.19844900  0.19844900  0.62182300  1
  Mn  Mn1  1  0.80155100  0.80155100  0.37817700  1
  Mn  Mn2  1  0.00000000  0.00000000  0.00000000  1
  Sb  Sb0  1  0.10661000  0.10661000  0.45171000  1
  Sb  Sb1  1  0.89339000  0.89339000  0.54829000  1
  Sb  Sb2  1  0.45920700  0.45920700  0.81626600  1
  Sb  Sb3  1  0.54079300  0.54079300  0.18373400  1
  S  S0  1  0.05729900  0.05729900  0.80242100  1
  S  S1  1  0.94270100  0.94270100  0.19757900  1
  S  S2  1  0.60198200  0.60198200  0.97673800  1
  S  S3  1  0.39801800  0.39801800  0.02326200  1
  S  S4  1  0.82955600  0.82955600  0.89797900  1
  S  S5  1  0.17044400  0.17044400  0.10202100  1
  S  S6  1  0.40975100  0.40975100  0.65268100  1
  S  S7  1  0.59024900  0.59024900  0.34731900  1
  S  S8  1  0.25772800  0.25772800  0.29030600  1
  S  S9  1  0.74227200  0.74227200  0.70969400  1
  S  S10  1  0.34169700  0.34169700  0.45379900  1
  S  S11  1  0.65830300  0.65830300  0.54620100  1
loop_
_geom_bond_atom_site_label_1
_geom_bond_atom_site_label_2
_geom_bond_distance
_geom_bond_site_symmetry_2
Mn0 S10 2.434388 1_555
Mn0 S0 2.481356 1_555
Mn0 S11 2.593724 1_455
Mn0 S11 2.593724 1_545
Mn0 S9 2.753718 1_545
Mn0 S9 2.753718 1_455
Mn1 S11 2.434388 1_555
Mn1 S1 2.481356 1_555
Mn1 S10 2.593724 1_565
Mn1 S10 2.593724 1_655
Mn1 S8 2.753718 1_655
Mn1 S8 2.753718 1_565
Mn2 S1 2.441327 1_445
Mn2 S0 2.441327 1_554
Mn2 S2 2.677693 1_454
Mn2 S2 2.677693 1_544
Mn2 S3 2.677693 1_545
Mn2 S3 2.677693 1_455
S0 Sb2 2.672281 1_455
S0 Sb2 2.672281 1_545
S1 Sb3 2.672281 1_655
S1 Sb3 2.672281 1_565
S2 Sb3 2.552035 1_556
S2 Sm0 2.951108 1_565
S2 Sm0 2.951108 1_655
S3 Sb2 2.552035 1_554
S3 Sm1 2.951108 1_545
S3 Sm1 2.951108 1_455
S4 Sb2 2.859552 1_565
S4 Sb2 2.859552 1_655
S4 Sm0 2.875181 1_565
S4 Sm0 2.875181 1_655
S4 Sm1 2.952276 1_556
S5 Sb3 2.859552 1_545
S5 Sb3 2.859552 1_455
S5 Sm1 2.875181 1_545
S5 Sm1 2.875181 1_455
S5 Sm0 2.952276 1_554
S6 Sb1 2.621068 1_455
S6 Sb1 2.621068 1_545
S6 Sm0 2.933918 1_555
S6 Sb2 3.126083 1_555
S7 Sb0 2.621068 1_565
S7 Sb0 2.621068 1_655
S7 Sm1 2.933918 1_555
S7 Sb3 3.126083 1_555
S8 Sb0 2.500499 1_555
S8 Sm1 2.975894 1_455
S8 Sm1 2.975894 1_545
S9 Sb1 2.500499 1_555
S9 Sm0 2.975894 1_655
S9 Sm0 2.975894 1_565
S10 Sb1 2.918258 1_455
S10 Sb1 2.918258 1_545
S11 Sb0 2.918258 1_565
S11 Sb0 2.918258 1_655
