# generated using pymatgen
data_Dy2YTaO7
_symmetry_space_group_name_H-M   'P 1'
_cell_length_a   6.47430356
_cell_length_b   6.47430356
_cell_length_c   7.52205200
_cell_angle_alpha   90.00000000
_cell_angle_beta   90.00000000
_cell_angle_gamma   109.34407458
_symmetry_Int_Tables_number   1
_chemical_formula_structural   Dy2YTaO7
_chemical_formula_sum   'Dy4 Y2 Ta2 O14'
_cell_volume   297.49914443
_cell_formula_units_Z   2
loop_
 _symmetry_equiv_pos_site_id
 _symmetry_equiv_pos_as_xyz
  1  'x, y, z'
loop_
 _atom_site_type_symbol
 _atom_site_label
 _atom_site_symmetry_multiplicity
 _atom_site_fract_x
 _atom_site_fract_y
 _atom_site_fract_z
 _atom_site_occupancy
  Dy  Dy0  1  0.46515300  0.99940900  0.25000000  1
  Dy  Dy1  1  0.00059100  0.53484700  0.25000000  1
  Dy  Dy2  1  0.53484700  0.00059100  0.75000000  1
  Dy  Dy3  1  0.99940900  0.46515300  0.75000000  1
  Y  Y0  1  0.50000000  0.50000000  0.50000000  1
  Y  Y1  1  0.50000000  0.50000000  0.00000000  1
  Ta  Ta0  1  0.00000000  0.00000000  0.50000000  1
  Ta  Ta1  1  0.00000000  0.00000000  0.00000000  1
  O  O0  1  0.06716500  0.93283500  0.25000000  1
  O  O1  1  0.93283500  0.06716500  0.75000000  1
  O  O2  1  0.32250000  0.07179200  0.53098900  1
  O  O3  1  0.92820800  0.67750000  0.96901100  1
  O  O4  1  0.67750000  0.92820800  0.03098900  1
  O  O5  1  0.07179200  0.32250000  0.46901100  1
  O  O6  1  0.63784900  0.36215100  0.75000000  1
  O  O7  1  0.36215100  0.63784900  0.25000000  1
  O  O8  1  0.62992700  0.37007300  0.25000000  1
  O  O9  1  0.37007300  0.62992700  0.75000000  1
  O  O10  1  0.92820800  0.67750000  0.53098900  1
  O  O11  1  0.32250000  0.07179200  0.96901100  1
  O  O12  1  0.07179200  0.32250000  0.03098900  1
  O  O13  1  0.67750000  0.92820800  0.46901100  1
loop_
_geom_bond_atom_site_label_1
_geom_bond_atom_site_label_2
_geom_bond_distance
_geom_bond_site_symmetry_2
Dy0 O7 2.211364 1_555
Dy0 O8 2.280580 1_565
Dy0 O4 2.288315 1_555
Dy0 O13 2.288315 1_555
Dy0 O11 2.413857 1_564
Dy0 O2 2.413857 1_565
Dy0 O0 2.467667 1_555
Dy1 O7 2.211364 1_555
Dy1 O8 2.280580 1_455
Dy1 O5 2.288315 1_555
Dy1 O12 2.288315 1_555
Dy1 O10 2.413857 1_455
Dy1 O3 2.413857 1_454
Dy1 O0 2.467667 1_555
Dy2 O6 2.211364 1_555
Dy2 O9 2.280580 1_545
Dy2 O11 2.288315 1_555
Dy2 O2 2.288315 1_555
Dy2 O4 2.413857 1_546
Dy2 O13 2.413857 1_545
Dy2 O1 2.467667 1_555
Dy3 O6 2.211364 1_555
Dy3 O9 2.280580 1_655
Dy3 O10 2.288315 1_555
Dy3 O3 2.288315 1_555
Dy3 O12 2.413857 1_656
Dy3 O5 2.413857 1_655
Dy3 O1 2.467667 1_555
O0 Ta1 2.009921 1_565
O0 Ta0 2.009921 1_565
O1 Ta0 2.009921 1_655
O1 Ta1 2.009921 1_656
O2 Ta0 1.996756 1_555
O2 Y0 2.636334 1_555
O3 Ta1 1.996756 1_666
O3 Y1 2.636334 1_556
O4 Ta1 1.996756 1_665
O4 Y1 2.636334 1_555
O5 Ta0 1.996756 1_555
O5 Y0 2.636334 1_555
O6 Y0 2.378452 1_555
O6 Y1 2.378452 1_556
O7 Y1 2.378452 1_555
O7 Y0 2.378452 1_555
O8 Y0 2.328151 1_555
O8 Y1 2.328151 1_555
O9 Y0 2.328151 1_555
O9 Y1 2.328151 1_556
O10 Ta0 1.996756 1_665
O10 Y0 2.636334 1_555
O11 Ta1 1.996756 1_556
O11 Y1 2.636334 1_556
O12 Ta1 1.996756 1_555
O12 Y1 2.636334 1_555
O13 Ta0 1.996756 1_665
O13 Y0 2.636334 1_555
