# generated using pymatgen
data_Mg14ZnCdO16
_symmetry_space_group_name_H-M   'P 1'
_cell_length_a   4.31675500
_cell_length_b   8.60421000
_cell_length_c   8.62557900
_cell_angle_alpha   90.00000000
_cell_angle_beta   90.00000000
_cell_angle_gamma   90.00000000
_symmetry_Int_Tables_number   1
_chemical_formula_structural   Mg14ZnCdO16
_chemical_formula_sum   'Mg14 Zn1 Cd1 O16'
_cell_volume   320.37355427
_cell_formula_units_Z   1
loop_
 _symmetry_equiv_pos_site_id
 _symmetry_equiv_pos_as_xyz
  1  'x, y, z'
loop_
 _atom_site_type_symbol
 _atom_site_label
 _atom_site_symmetry_multiplicity
 _atom_site_fract_x
 _atom_site_fract_y
 _atom_site_fract_z
 _atom_site_occupancy
  Mg  Mg0  1  0.00000000  0.00000000  0.50000000  1
  Mg  Mg1  1  0.00000000  0.50000000  0.50000000  1
  Mg  Mg2  1  0.50000000  0.75608000  0.00000000  1
  Mg  Mg3  1  0.50000000  0.24392000  0.00000000  1
  Mg  Mg4  1  0.50000000  0.75099900  0.50000000  1
  Mg  Mg5  1  0.50000000  0.24900100  0.50000000  1
  Mg  Mg6  1  0.50000000  0.00000000  0.74922900  1
  Mg  Mg7  1  0.50000000  0.50000000  0.74442900  1
  Mg  Mg8  1  0.50000000  0.00000000  0.25077100  1
  Mg  Mg9  1  0.50000000  0.50000000  0.25557100  1
  Mg  Mg10  1  0.00000000  0.75313200  0.74685800  1
  Mg  Mg11  1  0.00000000  0.24686800  0.74685800  1
  Mg  Mg12  1  0.00000000  0.75313200  0.25314200  1
  Mg  Mg13  1  0.00000000  0.24686800  0.25314200  1
  Zn  Zn0  1  0.00000000  0.00000000  0.00000000  1
  Cd  Cd0  1  0.00000000  0.50000000  0.00000000  1
  O  O0  1  0.00000000  0.00000000  0.74187900  1
  O  O1  1  0.00000000  0.50000000  0.73471400  1
  O  O2  1  0.00000000  0.00000000  0.25812100  1
  O  O3  1  0.00000000  0.50000000  0.26528600  1
  O  O4  1  0.50000000  0.74964100  0.75122500  1
  O  O5  1  0.50000000  0.25035900  0.75122500  1
  O  O6  1  0.50000000  0.74964100  0.24877500  1
  O  O7  1  0.50000000  0.25035900  0.24877500  1
  O  O8  1  0.50000000  0.00000000  0.00000000  1
  O  O9  1  0.50000000  0.50000000  0.00000000  1
  O  O10  1  0.50000000  0.00000000  0.50000000  1
  O  O11  1  0.50000000  0.50000000  0.50000000  1
  O  O12  1  0.00000000  0.76412300  0.00000000  1
  O  O13  1  0.00000000  0.23587700  0.00000000  1
  O  O14  1  0.00000000  0.75178200  0.50000000  1
  O  O15  1  0.00000000  0.24821800  0.50000000  1
loop_
_geom_bond_atom_site_label_1
_geom_bond_atom_site_label_2
_geom_bond_distance
_geom_bond_site_symmetry_2
Mg0 O0 2.086346 1_555
Mg0 O2 2.086346 1_555
Mg0 O15 2.135720 1_555
Mg0 O14 2.135720 1_545
Mg0 O10 2.158377 1_455
Mg0 O10 2.158377 1_555
Mg1 O1 2.024544 1_555
Mg1 O3 2.024544 1_555
Mg1 O11 2.158377 1_455
Mg1 O11 2.158377 1_555
Mg1 O14 2.166385 1_555
Mg1 O15 2.166385 1_555
Mg2 O8 2.098739 1_565
Mg2 O6 2.146544 1_555
Mg2 O4 2.146544 1_554
Mg2 O12 2.159487 1_655
Mg2 O12 2.159487 1_555
Mg2 O9 2.203366 1_555
Mg3 O8 2.098739 1_555
Mg3 O7 2.146544 1_555
Mg3 O5 2.146544 1_554
Mg3 O13 2.159487 1_555
Mg3 O13 2.159487 1_655
Mg3 O9 2.203366 1_555
Mg4 O10 2.142457 1_565
Mg4 O14 2.158388 1_555
Mg4 O14 2.158388 1_655
Mg4 O11 2.159648 1_555
Mg4 O4 2.166993 1_555
Mg4 O6 2.166993 1_555
Mg5 O10 2.142457 1_555
Mg5 O15 2.158388 1_555
Mg5 O15 2.158388 1_655
Mg5 O11 2.159648 1_555
Mg5 O5 2.166993 1_555
Mg5 O7 2.166993 1_555
Mg6 O10 2.149744 1_555
Mg6 O5 2.154210 1_555
Mg6 O4 2.154210 1_545
Mg6 O0 2.159308 1_555
Mg6 O0 2.159308 1_655
Mg6 O8 2.163045 1_556
Mg7 O11 2.108342 1_555
Mg7 O4 2.148763 1_555
Mg7 O5 2.148763 1_555
Mg7 O1 2.160004 1_655
Mg7 O1 2.160004 1_555
Mg7 O9 2.204448 1_556
Mg8 O10 2.149744 1_555
Mg8 O7 2.154210 1_555
Mg8 O6 2.154210 1_545
Mg8 O2 2.159308 1_655
Mg8 O2 2.159308 1_555
Mg8 O8 2.163045 1_555
Mg9 O11 2.108342 1_555
Mg9 O6 2.148763 1_555
Mg9 O7 2.148763 1_555
Mg9 O3 2.160004 1_555
Mg9 O3 2.160004 1_655
Mg9 O9 2.204448 1_555
Mg10 O0 2.124538 1_565
Mg10 O14 2.129325 1_555
Mg10 O4 2.158915 1_555
Mg10 O4 2.158915 1_455
Mg10 O1 2.180518 1_555
Mg10 O12 2.185543 1_556
Mg11 O0 2.124538 1_555
Mg11 O15 2.129325 1_555
Mg11 O5 2.158915 1_455
Mg11 O5 2.158915 1_555
Mg11 O1 2.180518 1_555
Mg11 O13 2.185543 1_556
Mg12 O2 2.124538 1_565
Mg12 O14 2.129325 1_555
Mg12 O6 2.158915 1_455
Mg12 O6 2.158915 1_555
Mg12 O3 2.180518 1_555
Mg12 O12 2.185543 1_555
Mg13 O2 2.124538 1_555
Mg13 O15 2.129325 1_555
Mg13 O7 2.158915 1_555
Mg13 O7 2.158915 1_455
Mg13 O3 2.180518 1_555
Mg13 O13 2.185543 1_555
Cd0 O9 2.158377 1_455
Cd0 O9 2.158377 1_555
Cd0 O12 2.272570 1_555
Cd0 O13 2.272570 1_555
Cd0 O3 2.288245 1_555
Cd0 O1 2.288245 1_554
O0 Zn0 2.226443 1_556
O2 Zn0 2.226443 1_555
O8 Zn0 2.158377 1_655
O8 Zn0 2.158377 1_555
O12 Zn0 2.029535 1_565
O13 Zn0 2.029535 1_555
