# generated using pymatgen
data_KNa7V7MoO24
_symmetry_space_group_name_H-M   'P 1'
_cell_length_a   7.61141982
_cell_length_b   7.61141982
_cell_length_c   7.61141978
_cell_angle_alpha   89.98169721
_cell_angle_beta   89.98169721
_cell_angle_gamma   89.98170014
_symmetry_Int_Tables_number   1
_chemical_formula_structural   KNa7V7MoO24
_chemical_formula_sum   'K1 Na7 V7 Mo1 O24'
_cell_volume   440.95773121
_cell_formula_units_Z   1
loop_
 _symmetry_equiv_pos_site_id
 _symmetry_equiv_pos_as_xyz
  1  'x, y, z'
loop_
 _atom_site_type_symbol
 _atom_site_label
 _atom_site_symmetry_multiplicity
 _atom_site_fract_x
 _atom_site_fract_y
 _atom_site_fract_z
 _atom_site_occupancy
  K  K0  1  0.25359500  0.25359500  0.25359500  1
  Na  Na0  1  0.25542400  0.25542400  0.74474600  1
  Na  Na1  1  0.74470700  0.25537600  0.74470700  1
  Na  Na2  1  0.74474600  0.25542400  0.25542400  1
  Na  Na3  1  0.25537600  0.74470700  0.74470700  1
  Na  Na4  1  0.74476400  0.74476400  0.74476400  1
  Na  Na5  1  0.25542400  0.74474600  0.25542300  1
  Na  Na6  1  0.74470700  0.74470700  0.25537600  1
  V  V0  1  0.50067900  0.99944800  0.99944800  1
  V  V1  1  0.99944800  0.99944800  0.50067900  1
  V  V2  1  0.50171100  0.99944000  0.50171100  1
  V  V3  1  0.99944800  0.50067900  0.99944800  1
  V  V4  1  0.50171100  0.50171100  0.99944000  1
  V  V5  1  0.99944000  0.50171100  0.50171100  1
  V  V6  1  0.50178300  0.50178300  0.50178300  1
  Mo  Mo0  1  0.99923000  0.99923000  0.99923000  1
  O  O0  1  0.99705900  0.25182800  0.99705900  1
  O  O1  1  0.50314800  0.24904800  0.99663600  1
  O  O2  1  0.99663600  0.24904800  0.50314800  1
  O  O3  1  0.50351800  0.24970600  0.50351800  1
  O  O4  1  0.99859600  0.74766200  0.99859600  1
  O  O5  1  0.50114500  0.75044700  0.99848000  1
  O  O6  1  0.99848000  0.75044700  0.50114500  1
  O  O7  1  0.50130100  0.74985400  0.50130100  1
  O  O8  1  0.99859600  0.99859600  0.74766200  1
  O  O9  1  0.50114500  0.99848000  0.75044700  1
  O  O10  1  0.99705900  0.99705900  0.25182800  1
  O  O11  1  0.50314800  0.99663600  0.24904800  1
  O  O12  1  0.99848000  0.50114500  0.75044700  1
  O  O13  1  0.50130100  0.50130100  0.74985400  1
  O  O14  1  0.99663600  0.50314800  0.24904800  1
  O  O15  1  0.50351800  0.50351800  0.24970600  1
  O  O16  1  0.25182800  0.99705900  0.99705900  1
  O  O17  1  0.74766200  0.99859600  0.99859600  1
  O  O18  1  0.24904800  0.99663600  0.50314800  1
  O  O19  1  0.75044700  0.99848000  0.50114500  1
  O  O20  1  0.24904800  0.50314800  0.99663600  1
  O  O21  1  0.75044700  0.50114500  0.99848000  1
  O  O22  1  0.24970600  0.50351800  0.50351800  1
  O  O23  1  0.74985400  0.50130100  0.50130100  1
loop_
_geom_bond_atom_site_label_1
_geom_bond_atom_site_label_2
_geom_bond_distance
_geom_bond_site_symmetry_2
K0 O15 2.690793 1_555
K0 O22 2.690794 1_555
K0 O3 2.690794 1_555
K0 O2 2.726167 1_455
K0 O18 2.726167 1_545
K0 O1 2.726167 1_554
K0 O20 2.726167 1_554
K0 O11 2.726168 1_545
K0 O14 2.726168 1_455
K0 O10 2.761878 1_445
K0 O16 2.761878 1_544
K0 O0 2.761878 1_454
Na0 O22 2.633771 1_555
Na0 O3 2.633771 1_555
Na0 O13 2.647388 1_555
Na0 O20 2.689905 1_555
Na0 O1 2.689905 1_555
Na0 O18 2.695598 1_545
Na0 O2 2.695598 1_455
Na0 O9 2.705977 1_545
Na0 O12 2.705977 1_455
Na0 O0 2.748404 1_455
Na0 O16 2.748404 1_545
Na0 O8 2.765062 1_445
Na1 O3 2.596993 1_555
Na1 O23 2.633528 1_555
Na1 O13 2.633528 1_555
Na1 O1 2.656594 1_555
Na1 O2 2.656594 1_555
Na1 O12 2.689727 1_555
Na1 O21 2.689727 1_555
Na1 O9 2.695228 1_545
Na1 O19 2.695228 1_545
Na1 O0 2.716916 1_555
Na1 O17 2.748162 1_545
Na1 O8 2.748162 1_545
Na2 O3 2.633771 1_555
Na2 O15 2.633771 1_555
Na2 O23 2.647388 1_555
Na2 O14 2.689905 1_555
Na2 O2 2.689905 1_555
Na2 O11 2.695598 1_545
Na2 O1 2.695598 1_554
Na2 O21 2.705976 1_554
Na2 O19 2.705976 1_545
Na2 O0 2.748404 1_554
Na2 O10 2.748404 1_545
Na2 O17 2.765062 1_544
Na3 O22 2.596993 1_555
Na3 O7 2.633528 1_555
Na3 O13 2.633528 1_555
Na3 O20 2.656594 1_555
Na3 O18 2.656594 1_555
Na3 O9 2.689727 1_555
Na3 O5 2.689727 1_555
Na3 O12 2.695228 1_455
Na3 O6 2.695228 1_455
Na3 O16 2.716916 1_555
Na3 O4 2.748162 1_455
Na3 O8 2.748162 1_455
Na4 O13 2.621365 1_555
Na4 O23 2.621365 1_555
Na4 O7 2.621365 1_555
Na4 O19 2.677174 1_555
Na4 O6 2.677174 1_555
Na4 O21 2.677174 1_555
Na4 O5 2.677174 1_555
Na4 O12 2.677174 1_555
Na4 O9 2.677174 1_555
Na4 O8 2.732827 1_555
Na4 O4 2.732827 1_555
Na4 O17 2.732827 1_555
Na5 O15 2.633771 1_555
Na5 O22 2.633777 1_555
Na5 O7 2.647394 1_555
Na5 O11 2.689904 1_555
Na5 O18 2.689910 1_555
Na5 O20 2.695592 1_554
Na5 O14 2.695597 1_455
Na5 O5 2.705971 1_554
Na5 O6 2.705982 1_455
Na5 O16 2.748398 1_554
Na5 O10 2.748404 1_455
Na5 O4 2.765056 1_454
Na6 O15 2.596993 1_555
Na6 O23 2.633528 1_555
Na6 O7 2.633528 1_555
Na6 O11 2.656594 1_555
Na6 O14 2.656594 1_555
Na6 O6 2.689727 1_555
Na6 O19 2.689727 1_555
Na6 O5 2.695228 1_554
Na6 O21 2.695228 1_554
Na6 O10 2.716916 1_555
Na6 O4 2.748162 1_554
Na6 O17 2.748162 1_554
Mo0 O8 1.914805 1_555
Mo0 O4 1.914805 1_555
Mo0 O17 1.914805 1_555
Mo0 O10 1.922761 1_556
Mo0 O0 1.922761 1_565
Mo0 O16 1.922761 1_655
O0 V3 1.894296 1_555
O1 V0 1.900023 1_545
O1 V4 1.923277 1_555
O2 V1 1.900023 1_545
O2 V5 1.923277 1_555
O3 V2 1.904988 1_545
O3 V6 1.918746 1_555
O4 V3 1.879910 1_555
O5 V4 1.893249 1_555
O5 V0 1.895270 1_555
O6 V5 1.893249 1_555
O6 V1 1.895270 1_555
O7 V6 1.888177 1_555
O7 V2 1.899711 1_555
O8 V1 1.879910 1_555
O9 V2 1.893249 1_555
O9 V0 1.895270 1_555
O10 V1 1.894296 1_555
O11 V0 1.900023 1_554
O11 V2 1.923277 1_555
O12 V5 1.893249 1_555
O12 V3 1.895270 1_555
O13 V6 1.888177 1_555
O13 V4 1.899711 1_555
O14 V3 1.900023 1_554
O14 V5 1.923277 1_555
O15 V4 1.904988 1_554
O15 V6 1.918746 1_555
O16 V0 1.894296 1_555
O17 V0 1.879910 1_555
O18 V1 1.900023 1_455
O18 V2 1.923277 1_555
O19 V2 1.893249 1_555
O19 V1 1.895270 1_555
O20 V3 1.900023 1_455
O20 V4 1.923277 1_555
O21 V4 1.893249 1_555
O21 V3 1.895270 1_555
O22 V5 1.904988 1_455
O22 V6 1.918746 1_555
O23 V6 1.888177 1_555
O23 V5 1.899711 1_555
