# generated using pymatgen
data_Rb(Nb3Te4)2
_symmetry_space_group_name_H-M   'P 1'
_cell_length_a   3.71123801
_cell_length_b   10.92403513
_cell_length_c   10.93047100
_cell_angle_alpha   60.03587527
_cell_angle_beta   90.00662225
_cell_angle_gamma   90.00628097
_symmetry_Int_Tables_number   1
_chemical_formula_structural   Rb(Nb3Te4)2
_chemical_formula_sum   'Rb1 Nb6 Te8'
_cell_volume   383.90899242
_cell_formula_units_Z   1
loop_
 _symmetry_equiv_pos_site_id
 _symmetry_equiv_pos_as_xyz
  1  'x, y, z'
loop_
 _atom_site_type_symbol
 _atom_site_label
 _atom_site_symmetry_multiplicity
 _atom_site_fract_x
 _atom_site_fract_y
 _atom_site_fract_z
 _atom_site_occupancy
  Rb  Rb0  1  0.50000000  0.00000000  0.00000000  1
  Nb  Nb0  1  0.74796200  0.38781600  0.51155700  1
  Nb  Nb1  1  0.74794800  0.10062400  0.38772500  1
  Nb  Nb2  1  0.74796300  0.51149300  0.10060800  1
  Nb  Nb3  1  0.25203800  0.61218400  0.48844300  1
  Nb  Nb4  1  0.25205200  0.89937600  0.61227500  1
  Nb  Nb5  1  0.25203700  0.48850700  0.89939300  1
  Te  Te0  1  0.75431500  0.06482700  0.65868000  1
  Te  Te1  1  0.75440900  0.27648200  0.06487000  1
  Te  Te2  1  0.75445900  0.65868300  0.27653300  1
  Te  Te3  1  0.24568500  0.93517300  0.34132000  1
  Te  Te4  1  0.24559100  0.72351800  0.93513000  1
  Te  Te5  1  0.24554100  0.34131700  0.72346700  1
  Te  Te6  1  0.75089700  0.66664000  0.66666300  1
  Te  Te7  1  0.24910300  0.33336000  0.33333700  1
loop_
_geom_bond_atom_site_label_1
_geom_bond_atom_site_label_2
_geom_bond_distance
_geom_bond_site_symmetry_2
Rb0 Te4 3.557373 1_544
Rb0 Te1 3.557373 1_555
Rb0 Te2 3.559853 1_545
Rb0 Te5 3.559853 1_554
Rb0 Te0 3.559857 1_554
Rb0 Te3 3.559857 1_545
Nb0 Te2 2.786090 1_555
Nb0 Te5 2.803059 1_655
Nb0 Te5 2.815209 1_555
Nb0 Te7 2.955136 1_555
Nb0 Te7 2.960813 1_655
Nb0 Te0 3.060715 1_555
Nb1 Te0 2.787119 1_555
Nb1 Te3 2.802300 1_645
Nb1 Te3 2.813062 1_545
Nb1 Te7 2.955624 1_555
Nb1 Te7 2.960738 1_655
Nb1 Te1 3.061473 1_555
Nb2 Te1 2.783132 1_555
Nb2 Te4 2.803918 1_654
Nb2 Te4 2.815604 1_554
Nb2 Te7 2.956507 1_555
Nb2 Te7 2.961712 1_655
Nb2 Te2 3.061406 1_555
Nb3 Te5 2.786090 1_555
Nb3 Te2 2.803059 1_455
Nb3 Te2 2.815209 1_555
Nb3 Te6 2.955136 1_555
Nb3 Te6 2.960813 1_455
Nb3 Te3 3.060715 1_555
Nb4 Te3 2.787119 1_555
Nb4 Te0 2.802300 1_465
Nb4 Te0 2.813062 1_565
Nb4 Te6 2.955624 1_555
Nb4 Te6 2.960738 1_455
Nb4 Te4 3.061473 1_555
Nb5 Te4 2.783125 1_555
Nb5 Te1 2.803915 1_456
Nb5 Te1 2.815602 1_556
Nb5 Te6 2.956512 1_555
Nb5 Te6 2.961717 1_455
Nb5 Te5 3.061416 1_555
