# generated using pymatgen
data_Ca2Nb2MoO8
_symmetry_space_group_name_H-M   'P 1'
_cell_length_a   10.08436324
_cell_length_b   10.08436324
_cell_length_c   5.60769712
_cell_angle_alpha   87.73157591
_cell_angle_beta   87.73157591
_cell_angle_gamma   36.63050954
_symmetry_Int_Tables_number   1
_chemical_formula_structural   Ca2Nb2MoO8
_chemical_formula_sum   'Ca4 Nb4 Mo2 O16'
_cell_volume   339.95780500
_cell_formula_units_Z   2
loop_
 _symmetry_equiv_pos_site_id
 _symmetry_equiv_pos_as_xyz
  1  'x, y, z'
loop_
 _atom_site_type_symbol
 _atom_site_label
 _atom_site_symmetry_multiplicity
 _atom_site_fract_x
 _atom_site_fract_y
 _atom_site_fract_z
 _atom_site_occupancy
  Ca  Ca0  1  0.88695400  0.52823200  0.76007800  1
  Ca  Ca1  1  0.47176800  0.11304600  0.73992200  1
  Ca  Ca2  1  0.11304600  0.47176800  0.23992200  1
  Ca  Ca3  1  0.52823200  0.88695400  0.26007800  1
  Nb  Nb0  1  0.03122400  0.74267800  0.76191500  1
  Nb  Nb1  1  0.25732200  0.96877600  0.73808500  1
  Nb  Nb2  1  0.96877600  0.25732200  0.23808500  1
  Nb  Nb3  1  0.74267800  0.03122400  0.26191500  1
  Mo  Mo0  1  0.63423600  0.36576400  0.75000000  1
  Mo  Mo1  1  0.36576400  0.63423600  0.25000000  1
  O  O0  1  0.05973200  0.80313000  0.09464000  1
  O  O1  1  0.19687000  0.94026800  0.40536000  1
  O  O2  1  0.94026800  0.19687000  0.90536000  1
  O  O3  1  0.80313000  0.05973200  0.59464000  1
  O  O4  1  0.30972300  0.57720800  0.59464900  1
  O  O5  1  0.42279200  0.69027700  0.90535100  1
  O  O6  1  0.69027700  0.42279200  0.40535100  1
  O  O7  1  0.57720800  0.30972300  0.09464900  1
  O  O8  1  0.88128400  0.76110900  0.49221400  1
  O  O9  1  0.23889100  0.11871600  0.00778600  1
  O  O10  1  0.46292700  0.16279800  0.34231300  1
  O  O11  1  0.83720200  0.53707300  0.15768700  1
  O  O12  1  0.53707300  0.83720200  0.65768700  1
  O  O13  1  0.16279800  0.46292700  0.84231300  1
  O  O14  1  0.76110900  0.88128400  0.99221400  1
  O  O15  1  0.11871600  0.23889100  0.50778600  1
loop_
_geom_bond_atom_site_label_1
_geom_bond_atom_site_label_2
_geom_bond_distance
_geom_bond_site_symmetry_2
Ca0 O12 2.204779 1_555
Ca0 O11 2.255324 1_556
Ca0 O15 2.257756 1_655
Ca0 O13 2.349797 1_655
Ca0 O8 2.699383 1_555
Ca0 O9 2.827044 1_656
Ca0 O14 2.994185 1_555
Ca1 O13 2.204779 1_555
Ca1 O10 2.255324 1_555
Ca1 O14 2.257756 1_545
Ca1 O12 2.349797 1_545
Ca1 O9 2.699383 1_556
Ca1 O8 2.827044 1_545
Ca1 O15 2.994185 1_555
Ca2 O10 2.204779 1_555
Ca2 O13 2.255324 1_554
Ca2 O8 2.257756 1_455
Ca2 O11 2.349797 1_455
Ca2 O15 2.699383 1_555
Ca2 O14 2.827044 1_454
Ca2 O9 2.994185 1_555
Ca3 O11 2.204779 1_555
Ca3 O12 2.255324 1_555
Ca3 O9 2.257756 1_565
Ca3 O10 2.349797 1_565
Ca3 O14 2.699383 1_554
Ca3 O15 2.827044 1_565
Ca3 O8 2.994185 1_555
Nb0 O13 1.965026 1_555
Nb0 O4 1.986328 1_555
Nb0 O8 2.077477 1_455
Nb0 O0 2.085513 1_556
Nb0 O3 2.126745 1_465
Nb0 O14 2.189735 1_455
Nb1 O12 1.965026 1_555
Nb1 O5 1.986328 1_555
Nb1 O9 2.077477 1_566
Nb1 O1 2.085513 1_555
Nb1 O2 2.126745 1_465
Nb1 O15 2.189735 1_565
Nb2 O11 1.965026 1_555
Nb2 O6 1.986328 1_555
Nb2 O15 2.077477 1_655
Nb2 O2 2.085513 1_554
Nb2 O1 2.126745 1_645
Nb2 O9 2.189735 1_655
Nb3 O10 1.965026 1_555
Nb3 O7 1.986328 1_555
Nb3 O14 2.077477 1_544
Nb3 O3 2.085513 1_555
Nb3 O0 2.126745 1_645
Nb3 O8 2.189735 1_545
Mo0 O7 2.175448 1_556
Mo0 O6 2.175448 1_555
Mo0 O2 2.200720 1_555
Mo0 O3 2.200720 1_555
Mo0 O4 2.212227 1_555
Mo0 O5 2.212227 1_555
Mo1 O4 2.175448 1_555
Mo1 O5 2.175448 1_554
Mo1 O0 2.200720 1_555
Mo1 O1 2.200720 1_555
Mo1 O7 2.212227 1_555
Mo1 O6 2.212227 1_555
