# generated using pymatgen
data_Bi2Pd3PtO8
_symmetry_space_group_name_H-M   'P 1'
_cell_length_a   5.82803100
_cell_length_b   6.19069120
_cell_length_c   6.51582184
_cell_angle_alpha   114.94327965
_cell_angle_beta   95.51734275
_cell_angle_gamma   111.87347717
_symmetry_Int_Tables_number   1
_chemical_formula_structural   Bi2Pd3PtO8
_chemical_formula_sum   'Bi2 Pd3 Pt1 O8'
_cell_volume   188.64174317
_cell_formula_units_Z   1
loop_
 _symmetry_equiv_pos_site_id
 _symmetry_equiv_pos_as_xyz
  1  'x, y, z'
loop_
 _atom_site_type_symbol
 _atom_site_label
 _atom_site_symmetry_multiplicity
 _atom_site_fract_x
 _atom_site_fract_y
 _atom_site_fract_z
 _atom_site_occupancy
  Bi  Bi0  1  0.21745600  0.59322400  0.64480500  1
  Bi  Bi1  1  0.78254400  0.40677600  0.35519500  1
  Pd  Pd0  1  0.00000000  0.00000000  0.50000000  1
  Pd  Pd1  1  0.50000000  0.00000000  0.00000000  1
  Pd  Pd2  1  0.00000000  0.00000000  0.00000000  1
  Pt  Pt0  1  0.50000000  0.50000000  0.00000000  1
  O  O0  1  0.41942300  0.17226200  0.22639500  1
  O  O1  1  0.58057700  0.82773800  0.77360500  1
  O  O2  1  0.88338600  0.65380900  0.99121600  1
  O  O3  1  0.11661400  0.34619100  0.00878400  1
  O  O4  1  0.27523600  0.62146500  0.24198100  1
  O  O5  1  0.72476400  0.37853500  0.75801900  1
  O  O6  1  0.19589500  0.21791200  0.64296800  1
  O  O7  1  0.80410500  0.78208800  0.35703200  1
loop_
_geom_bond_atom_site_label_1
_geom_bond_atom_site_label_2
_geom_bond_distance
_geom_bond_site_symmetry_2
Bi0 O1 1.905833 1_555
Bi0 O6 2.274427 1_555
Bi0 O4 2.747054 1_555
Bi1 O0 1.905833 1_555
Bi1 O7 2.274427 1_555
Bi1 O5 2.747054 1_555
O0 Pd1 1.647230 1_555
O0 Pd2 2.307787 1_555
O1 Pd1 1.647230 1_566
O1 Pd2 2.307787 1_666
O2 O5 1.561898 1_555
O2 Pd2 1.965215 1_666
O2 Pt0 2.094683 1_556
O3 O4 1.561898 1_555
O3 Pd2 1.965215 1_555
O3 Pt0 2.094683 1_555
O4 Pt0 2.213248 1_555
O5 Pt0 2.213248 1_556
O6 Pd0 1.256601 1_555
O6 Pt0 2.253259 1_556
O7 Pd0 1.256601 1_665
O7 Pt0 2.253259 1_555
