# generated using pymatgen
data_Cd2Sb6S11
_symmetry_space_group_name_H-M   'P 1'
_cell_length_a   3.88468800
_cell_length_b   9.36275000
_cell_length_c   13.26977808
_cell_angle_alpha   86.62829368
_cell_angle_beta   90.00000000
_cell_angle_gamma   90.00000000
_symmetry_Int_Tables_number   1
_chemical_formula_structural   Cd2Sb6S11
_chemical_formula_sum   'Cd2 Sb6 S11'
_cell_volume   481.80445669
_cell_formula_units_Z   1
loop_
 _symmetry_equiv_pos_site_id
 _symmetry_equiv_pos_as_xyz
  1  'x, y, z'
loop_
 _atom_site_type_symbol
 _atom_site_label
 _atom_site_symmetry_multiplicity
 _atom_site_fract_x
 _atom_site_fract_y
 _atom_site_fract_z
 _atom_site_occupancy
  Cd  Cd0  1  0.50000000  0.74849700  0.27540700  1
  Cd  Cd1  1  0.00000000  0.28103800  0.81088800  1
  Sb  Sb0  1  0.50000000  0.24599600  0.22187400  1
  Sb  Sb1  1  0.00000000  0.73524800  0.70489500  1
  Sb  Sb2  1  0.00000000  0.55543800  0.99759400  1
  Sb  Sb3  1  0.50000000  0.44498000  0.50708700  1
  Sb  Sb4  1  0.00000000  0.07602500  0.48064000  1
  Sb  Sb5  1  0.50000000  0.94375400  0.97851600  1
  S  S0  1  0.00000000  0.17548000  0.11127100  1
  S  S1  1  0.50000000  0.80567500  0.59074200  1
  S  S2  1  0.00000000  0.65409100  0.37755600  1
  S  S3  1  0.50000000  0.34476800  0.92574000  1
  S  S4  1  0.00000000  0.78088100  0.10529600  1
  S  S5  1  0.50000000  0.18958600  0.59440700  1
  S  S6  1  0.50000000  0.02412900  0.33355400  1
  S  S7  1  0.00000000  0.00051000  0.84437000  1
  S  S8  1  0.00000000  0.32174600  0.39387300  1
  S  S9  1  0.50000000  0.69298300  0.89766600  1
  S  S10  1  0.00000000  0.47217600  0.65642500  1
loop_
_geom_bond_atom_site_label_1
_geom_bond_atom_site_label_2
_geom_bond_distance
_geom_bond_site_symmetry_2
Cd0 S2 2.500083 1_655
Cd0 S2 2.500083 1_555
Cd0 S6 2.736688 1_565
Cd0 S4 2.979880 1_655
Cd0 S4 2.979880 1_555
Cd1 S3 2.560950 1_455
Cd1 S3 2.560950 1_555
Cd1 S7 2.637937 1_555
Cd1 S10 2.640521 1_555
S0 Sb0 2.544927 1_455
S0 Sb0 2.544927 1_555
S1 Sb1 2.526773 1_655
S1 Sb1 2.526773 1_555
S3 Sb2 2.965404 1_555
S3 Sb2 2.965404 1_655
S4 Sb2 2.617773 1_554
S4 Sb5 2.937116 1_454
S4 Sb5 2.937116 1_554
S5 Sb3 2.595093 1_555
S5 Sb4 2.714973 1_655
S5 Sb4 2.714973 1_555
S6 Sb0 2.479765 1_555
S6 Sb4 2.816000 1_655
S6 Sb4 2.816000 1_555
S7 Sb5 2.666932 1_445
S7 Sb5 2.666932 1_545
S8 Sb4 2.511367 1_555
S8 Sb3 2.750427 1_455
S8 Sb3 2.750427 1_555
S8 Sb0 3.110532 1_555
S8 Sb0 3.110532 1_455
S9 Sb5 2.638180 1_555
S9 Sb2 2.643596 1_655
S9 Sb2 2.643596 1_555
S10 Sb1 2.582012 1_555
S10 Sb3 2.797133 1_555
S10 Sb3 2.797133 1_455
