# generated using pymatgen
data_Ce2In8Pt
_symmetry_space_group_name_H-M   'P 1'
_cell_length_a   4.73561084
_cell_length_b   4.73561084
_cell_length_c   12.16539606
_cell_angle_alpha   90.00000000
_cell_angle_beta   90.00000000
_cell_angle_gamma   90.00000000
_symmetry_Int_Tables_number   1
_chemical_formula_structural   Ce2In8Pt
_chemical_formula_sum   'Ce2 In8 Pt1'
_cell_volume   272.82129404
_cell_formula_units_Z   1
loop_
 _symmetry_equiv_pos_site_id
 _symmetry_equiv_pos_as_xyz
  1  'x, y, z'
loop_
 _atom_site_type_symbol
 _atom_site_label
 _atom_site_symmetry_multiplicity
 _atom_site_fract_x
 _atom_site_fract_y
 _atom_site_fract_z
 _atom_site_occupancy
  Ce  Ce0  1  -0.00000000  -0.00000000  0.69179467  1
  Ce  Ce1  1  0.00000000  0.00000000  0.30820533  1
  In  In0  1  0.50000000  -0.00000000  0.87694270  1
  In  In1  1  0.00000000  0.50000000  0.87694270  1
  In  In2  1  0.50000000  0.00000000  0.12305730  1
  In  In3  1  -0.00000000  0.50000000  0.12305730  1
  In  In4  1  0.50000000  -0.00000000  0.50000000  1
  In  In5  1  0.00000000  0.50000000  0.50000000  1
  In  In6  1  0.50000000  0.50000000  0.69488261  1
  In  In7  1  0.50000000  0.50000000  0.30511739  1
  Pt  Pt0  1  0.00000000  -0.00000000  0.00000000  1
loop_
_geom_bond_atom_site_label_1
_geom_bond_atom_site_label_2
_geom_bond_distance
_geom_bond_site_symmetry_2
Ce0 In0 3.267997 1_555
Ce0 In1 3.267997 1_555
Ce0 In1 3.267997 1_545
Ce0 In0 3.267997 1_455
Ce0 In5 3.324244 1_545
Ce0 In4 3.324244 1_455
Ce0 In4 3.324244 1_555
Ce0 In5 3.324244 1_555
Ce0 In6 3.348793 1_455
Ce0 In6 3.348793 1_555
Ce0 In6 3.348793 1_445
Ce0 In6 3.348793 1_545
Ce1 In3 3.267997 1_545
Ce1 In2 3.267997 1_455
Ce1 In2 3.267997 1_555
Ce1 In3 3.267997 1_555
Ce1 In4 3.324244 1_455
Ce1 In4 3.324244 1_555
Ce1 In5 3.324244 1_555
Ce1 In5 3.324244 1_545
Ce1 In7 3.348793 1_455
Ce1 In7 3.348793 1_545
Ce1 In7 3.348793 1_555
Ce1 In7 3.348793 1_445
In0 Pt0 2.801363 1_556
In0 Pt0 2.801363 1_656
In0 In2 2.994082 1_556
In0 In6 3.242220 1_555
In0 In6 3.242220 1_545
In0 In1 3.348583 1_655
In0 In1 3.348583 1_645
In0 In1 3.348583 1_555
In0 In1 3.348583 1_545
In1 Pt0 2.801363 1_556
In1 Pt0 2.801363 1_566
In1 In3 2.994082 1_556
In1 In6 3.242220 1_555
In1 In6 3.242220 1_455
In2 Pt0 2.801363 1_555
In2 Pt0 2.801363 1_655
In2 In7 3.242220 1_555
In2 In7 3.242220 1_545
In2 In3 3.348583 1_645
In2 In3 3.348583 1_555
In2 In3 3.348583 1_545
In2 In3 3.348583 1_655
In3 Pt0 2.801363 1_555
In3 Pt0 2.801363 1_565
In3 In7 3.242220 1_555
In3 In7 3.242220 1_455
In4 In5 3.348583 1_545
In4 In5 3.348583 1_655
In4 In5 3.348583 1_555
In4 In5 3.348583 1_645
In4 In7 3.350718 1_545
In4 In7 3.350718 1_555
In4 In6 3.350718 1_545
In4 In6 3.350718 1_555
In5 In7 3.350718 1_455
In5 In7 3.350718 1_555
In5 In6 3.350718 1_455
In5 In6 3.350718 1_555
