# generated using pymatgen
data_YO2F
_symmetry_space_group_name_H-M   'P 1'
_cell_length_a   3.73007600
_cell_length_b   5.82159000
_cell_length_c   5.97231220
_cell_angle_alpha   64.45782397
_cell_angle_beta   90.00000000
_cell_angle_gamma   90.00000000
_symmetry_Int_Tables_number   1
_chemical_formula_structural   YO2F
_chemical_formula_sum   'Y2 O4 F2'
_cell_volume   117.01389057
_cell_formula_units_Z   2
loop_
 _symmetry_equiv_pos_site_id
 _symmetry_equiv_pos_as_xyz
  1  'x, y, z'
loop_
 _atom_site_type_symbol
 _atom_site_label
 _atom_site_symmetry_multiplicity
 _atom_site_fract_x
 _atom_site_fract_y
 _atom_site_fract_z
 _atom_site_occupancy
  Y  Y0  1  0.00000000  0.63455600  0.68042300  1
  Y  Y1  1  0.50000000  0.36142800  0.31214700  1
  O  O0  1  0.00000000  0.08015500  0.59060500  1
  O  O1  1  0.50000000  0.40102300  0.67071000  1
  O  O2  1  0.50000000  0.67330700  0.88566500  1
  O  O3  1  0.50000000  0.92147300  0.46470400  1
  F  F0  1  0.00000000  0.61772200  0.30232600  1
  F  F1  1  0.00000000  0.31033600  0.09341900  1
loop_
_geom_bond_atom_site_label_1
_geom_bond_atom_site_label_2
_geom_bond_distance
_geom_bond_site_symmetry_2
O0 Y0 2.411864 1_545
O0 Y1 2.564569 1_555
O0 Y1 2.564569 1_455
O1 Y1 2.250469 1_555
O1 Y0 2.323375 1_655
O1 Y0 2.323375 1_555
O2 Y0 2.295698 1_655
O2 Y0 2.295698 1_555
O2 Y1 2.407521 1_556
O3 Y1 2.318987 1_565
O3 Y0 2.464227 1_555
O3 Y0 2.464227 1_655
F0 Y0 2.302068 1_555
F0 Y1 2.373293 1_555
F0 Y1 2.373293 1_455
F1 Y1 2.368195 1_555
F1 Y1 2.368195 1_455
F1 Y0 2.373117 1_554
