# generated using pymatgen
data_Mg7V
_symmetry_space_group_name_H-M   'P 1'
_cell_length_a   6.16838661
_cell_length_b   6.16838661
_cell_length_c   6.16838661
_cell_angle_alpha   60.00000000
_cell_angle_beta   60.00000000
_cell_angle_gamma   60.00000000
_symmetry_Int_Tables_number   1
_chemical_formula_structural   Mg7V
_chemical_formula_sum   'Mg7 V1'
_cell_volume   165.95859871
_cell_formula_units_Z   1
loop_
 _symmetry_equiv_pos_site_id
 _symmetry_equiv_pos_as_xyz
  1  'x, y, z'
loop_
 _atom_site_type_symbol
 _atom_site_label
 _atom_site_symmetry_multiplicity
 _atom_site_fract_x
 _atom_site_fract_y
 _atom_site_fract_z
 _atom_site_occupancy
  Mg  Mg0  1  0.50000000  0.50000000  0.50000000  1
  Mg  Mg1  1  0.00000000  0.00000000  0.50000000  1
  Mg  Mg2  1  0.50000000  0.00000000  0.50000000  1
  Mg  Mg3  1  0.00000000  0.50000000  0.50000000  1
  Mg  Mg4  1  0.50000000  0.50000000  0.00000000  1
  Mg  Mg5  1  0.00000000  0.50000000  0.00000000  1
  Mg  Mg6  1  0.50000000  0.00000000  0.00000000  1
  V  V0  1  0.00000000  0.00000000  0.00000000  1
loop_
_geom_bond_atom_site_label_1
_geom_bond_atom_site_label_2
_geom_bond_distance
_geom_bond_site_symmetry_2
Mg0 Mg2 3.084193 1_555
Mg0 Mg2 3.084193 1_565
Mg0 Mg1 3.084193 1_655
Mg0 Mg1 3.084193 1_565
Mg0 Mg5 3.084193 1_655
Mg0 Mg5 3.084193 1_556
Mg0 Mg6 3.084193 1_565
Mg0 Mg3 3.084193 1_555
Mg0 Mg4 3.084193 1_555
Mg0 Mg4 3.084193 1_556
Mg0 Mg6 3.084193 1_556
Mg0 Mg3 3.084193 1_655
Mg1 Mg2 3.084193 1_555
Mg1 Mg5 3.084193 1_546
Mg1 Mg5 3.084193 1_555
Mg1 Mg6 3.084193 1_555
Mg1 Mg3 3.084193 1_545
Mg1 Mg3 3.084193 1_555
Mg1 V0 3.084193 1_556
Mg1 Mg6 3.084193 1_456
Mg1 Mg2 3.084193 1_455
Mg1 V0 3.084193 1_555
Mg2 Mg4 3.084193 1_546
Mg2 V0 3.084193 1_655
Mg2 Mg3 3.084193 1_645
Mg2 Mg6 3.084193 1_555
Mg2 Mg3 3.084193 1_555
Mg2 V0 3.084193 1_556
Mg2 Mg4 3.084193 1_555
Mg2 Mg6 3.084193 1_556
Mg3 V0 3.084193 1_565
Mg3 Mg5 3.084193 1_556
Mg3 Mg4 3.084193 1_456
Mg3 Mg5 3.084193 1_555
Mg3 V0 3.084193 1_556
Mg3 Mg4 3.084193 1_555
Mg4 V0 3.084193 1_565
Mg4 Mg5 3.084193 1_655
Mg4 Mg6 3.084193 1_565
Mg4 V0 3.084193 1_655
Mg4 Mg5 3.084193 1_555
Mg4 Mg6 3.084193 1_555
Mg5 V0 3.084193 1_565
Mg5 Mg6 3.084193 1_555
Mg5 Mg6 3.084193 1_465
Mg5 V0 3.084193 1_555
Mg6 V0 3.084193 1_655
Mg6 V0 3.084193 1_555
