# generated using pymatgen
data_Ba10Y5Cu15O34
_symmetry_space_group_name_H-M   'P 1'
_cell_length_a   8.65296300
_cell_length_b   8.78372966
_cell_length_c   12.52970649
_cell_angle_alpha   106.43646529
_cell_angle_beta   98.25668868
_cell_angle_gamma   88.86952650
_symmetry_Int_Tables_number   1
_chemical_formula_structural   Ba10Y5Cu15O34
_chemical_formula_sum   'Ba10 Y5 Cu15 O34'
_cell_volume   903.71930709
_cell_formula_units_Z   1
loop_
 _symmetry_equiv_pos_site_id
 _symmetry_equiv_pos_as_xyz
  1  'x, y, z'
loop_
 _atom_site_type_symbol
 _atom_site_label
 _atom_site_symmetry_multiplicity
 _atom_site_fract_x
 _atom_site_fract_y
 _atom_site_fract_z
 _atom_site_occupancy
  Ba  Ba0  1  0.03630100  0.07266300  0.18162100  1
  Ba  Ba1  1  0.24433900  0.47195300  0.18789100  1
  Ba  Ba2  1  0.43601900  0.87293000  0.18131200  1
  Ba  Ba3  1  0.63646100  0.27205900  0.18124100  1
  Ba  Ba4  1  0.83079700  0.67830200  0.18788500  1
  Ba  Ba5  1  0.16920300  0.32169800  0.81211500  1
  Ba  Ba6  1  0.36353900  0.72794100  0.81875900  1
  Ba  Ba7  1  0.56398100  0.12707000  0.81868800  1
  Ba  Ba8  1  0.75566100  0.52804700  0.81210900  1
  Ba  Ba9  1  0.96369900  0.92733700  0.81837900  1
  Y  Y0  1  0.90047100  0.80028300  0.50083600  1
  Y  Y1  1  0.70001600  0.39961000  0.49912600  1
  Y  Y2  1  0.50000000  0.00000000  0.50000000  1
  Y  Y3  1  0.29998400  0.60039000  0.50087400  1
  Y  Y4  1  0.09952900  0.19971700  0.49916400  1
  Cu  Cu0  1  0.17130300  0.84247400  0.35760800  1
  Cu  Cu1  1  0.97179200  0.44355200  0.35741000  1
  Cu  Cu2  1  0.77113800  0.04319000  0.35619500  1
  Cu  Cu3  1  0.57132000  0.64255900  0.35643200  1
  Cu  Cu4  1  0.37116000  0.24169500  0.35617000  1
  Cu  Cu5  1  0.22886200  0.95681000  0.64380500  1
  Cu  Cu6  1  0.02820800  0.55644800  0.64259000  1
  Cu  Cu7  1  0.82869700  0.15752600  0.64239200  1
  Cu  Cu8  1  0.62884000  0.75830500  0.64383000  1
  Cu  Cu9  1  0.42868000  0.35744100  0.64356800  1
  Cu  Cu10  1  0.10665300  0.71294100  0.00007300  1
  Cu  Cu11  1  0.89334700  0.28705900  0.99992700  1
  Cu  Cu12  1  0.69906900  0.89624000  0.00005600  1
  Cu  Cu13  1  0.50000000  0.50000000  0.00000000  1
  Cu  Cu14  1  0.30093100  0.10376000  0.99994400  1
  O  O0  1  0.97578000  0.95183800  0.37956100  1
  O  O1  1  0.77574700  0.55201700  0.37960000  1
  O  O2  1  0.57605200  0.15198500  0.37990800  1
  O  O3  1  0.37590900  0.75179600  0.37960800  1
  O  O4  1  0.17610700  0.35174200  0.37957800  1
  O  O5  1  0.02422000  0.04816200  0.62043900  1
  O  O6  1  0.82389300  0.64825800  0.62042200  1
  O  O7  1  0.62409100  0.24820400  0.62039200  1
  O  O8  1  0.42394800  0.84801500  0.62009200  1
  O  O9  1  0.22425300  0.44798300  0.62040000  1
  O  O10  1  0.07605300  0.65182400  0.37920100  1
  O  O11  1  0.87581300  0.25145300  0.37737200  1
  O  O12  1  0.67587900  0.85108000  0.37787700  1
  O  O13  1  0.47511200  0.45123300  0.37795000  1
  O  O14  1  0.27508500  0.05041400  0.37783600  1
  O  O15  1  0.12418700  0.74854700  0.62262800  1
  O  O16  1  0.92394700  0.34817600  0.62079900  1
  O  O17  1  0.72491500  0.94958600  0.62216400  1
  O  O18  1  0.52488800  0.54876700  0.62205000  1
  O  O19  1  0.32412100  0.14892000  0.62212300  1
  O  O20  1  0.12293100  0.74700700  0.15226400  1
  O  O21  1  0.93806500  0.37476800  0.15226600  1
  O  O22  1  0.73109400  0.96320000  0.15952600  1
  O  O23  1  0.53197300  0.56388700  0.15970000  1
  O  O24  1  0.33271500  0.16424800  0.15954900  1
  O  O25  1  0.26890600  0.03680000  0.84047400  1
  O  O26  1  0.06193500  0.62523200  0.84773400  1
  O  O27  1  0.87706900  0.25299300  0.84773600  1
  O  O28  1  0.66728500  0.83575200  0.84045100  1
  O  O29  1  0.46802700  0.43611300  0.84030000  1
  O  O30  1  0.20580400  0.91201200  0.99999700  1
  O  O31  1  0.39969100  0.30656300  0.00010400  1
  O  O32  1  0.60030900  0.69343700  0.99989600  1
  O  O33  1  0.79419600  0.08798800  0.00000300  1
loop_
_geom_bond_atom_site_label_1
_geom_bond_atom_site_label_2
_geom_bond_distance
_geom_bond_site_symmetry_2
Ba0 O24 2.777262 1_555
Ba0 O22 2.777638 1_445
Ba0 O21 2.876284 1_455
Ba0 O20 2.877269 1_545
Ba0 O33 2.894524 1_455
Ba0 O30 2.894992 1_544
Ba0 O11 3.020427 1_455
Ba0 O14 3.024666 1_555
Ba0 O0 3.071832 1_445
Ba0 O4 3.072311 1_555
Ba1 O23 2.732150 1_555
Ba1 O24 2.733001 1_555
Ba1 O21 2.735922 1_455
Ba1 O20 2.741430 1_555
Ba1 O31 2.889761 1_555
Ba1 O13 2.925188 1_555
Ba1 O3 3.015301 1_555
Ba1 O4 3.016472 1_555
Ba1 O10 3.021770 1_555
Ba2 O22 2.761335 1_555
Ba2 O24 2.766902 1_565
Ba2 O23 2.773291 1_555
Ba2 O20 2.881409 1_555
Ba2 O30 2.891677 1_554
Ba2 O32 2.912934 1_554
Ba2 O14 3.026512 1_565
Ba2 O12 3.032164 1_555
Ba2 O3 3.076506 1_555
Ba2 O2 3.076977 1_565
Ba3 O24 2.761522 1_555
Ba3 O22 2.768245 1_545
Ba3 O23 2.773263 1_555
Ba3 O21 2.882184 1_555
Ba3 O33 2.891226 1_555
Ba3 O31 2.910254 1_555
Ba3 O11 3.022655 1_555
Ba3 O13 3.034369 1_555
Ba3 O2 3.076219 1_555
Ba3 O1 3.078101 1_555
Ba4 O23 2.731310 1_555
Ba4 O22 2.731824 1_555
Ba4 O20 2.736779 1_655
Ba4 O21 2.741730 1_555
Ba4 O32 2.891528 1_554
Ba4 O12 2.925563 1_555
Ba4 O1 3.014130 1_555
Ba4 O0 3.017061 1_555
Ba4 O10 3.023068 1_655
Ba5 O29 2.731310 1_555
Ba5 O25 2.731824 1_555
Ba5 O27 2.736779 1_455
Ba5 O26 2.741730 1_555
Ba5 O31 2.891528 1_556
Ba5 O19 2.925563 1_555
Ba5 O9 3.014130 1_555
Ba5 O5 3.017061 1_555
Ba5 O16 3.023068 1_455
Ba6 O28 2.761522 1_555
Ba6 O25 2.768245 1_565
Ba6 O29 2.773263 1_555
Ba6 O26 2.882184 1_555
Ba6 O30 2.891226 1_555
Ba6 O32 2.910254 1_555
Ba6 O15 3.022655 1_555
Ba6 O18 3.034369 1_555
Ba6 O8 3.076219 1_555
Ba6 O9 3.078101 1_555
Ba7 O25 2.761335 1_555
Ba7 O28 2.766902 1_545
Ba7 O29 2.773291 1_555
Ba7 O27 2.881409 1_555
Ba7 O33 2.891677 1_556
Ba7 O31 2.912934 1_556
Ba7 O17 3.026512 1_545
Ba7 O19 3.032164 1_555
Ba7 O7 3.076506 1_555
Ba7 O8 3.076977 1_545
Ba8 O29 2.732150 1_555
Ba8 O28 2.733001 1_555
Ba8 O26 2.735922 1_655
Ba8 O27 2.741430 1_555
Ba8 O32 2.889761 1_555
Ba8 O18 2.925188 1_555
Ba8 O7 3.015301 1_555
Ba8 O6 3.016472 1_555
Ba8 O16 3.021770 1_555
Ba9 O28 2.777262 1_555
Ba9 O25 2.777638 1_665
Ba9 O26 2.876284 1_655
Ba9 O27 2.877269 1_565
Ba9 O30 2.894524 1_655
Ba9 O33 2.894992 1_566
Ba9 O15 3.020427 1_655
Ba9 O17 3.024666 1_555
Ba9 O5 3.071832 1_665
Ba9 O6 3.072311 1_555
Cu0 O3 1.942500 1_555
Cu0 O0 1.944435 1_455
Cu0 O10 1.982863 1_555
Cu0 O14 1.985981 1_565
Cu0 O20 2.445767 1_555
Cu1 O4 1.944872 1_655
Cu1 O1 1.945367 1_555
Cu1 O10 1.986677 1_655
Cu1 O11 1.988270 1_555
Cu1 O21 2.443317 1_555
Cu2 O2 1.941857 1_555
Cu2 O0 1.947600 1_545
Cu2 O11 1.989695 1_555
Cu2 O12 1.994822 1_545
Cu2 O22 2.338932 1_545
Cu3 O1 1.942530 1_555
Cu3 O3 1.945097 1_555
Cu3 O12 1.990615 1_555
Cu3 O13 1.991500 1_555
Cu3 O23 2.339641 1_555
Cu4 O2 1.943887 1_555
Cu4 O4 1.945860 1_555
Cu4 O14 1.991431 1_555
Cu4 O13 1.995414 1_555
Cu4 O24 2.338356 1_555
Cu5 O8 1.941857 1_555
Cu5 O5 1.947600 1_565
Cu5 O15 1.989695 1_555
Cu5 O19 1.994822 1_565
Cu5 O25 2.338932 1_565
Cu6 O6 1.944872 1_455
Cu6 O9 1.945367 1_555
Cu6 O16 1.986677 1_455
Cu6 O15 1.988270 1_555
Cu6 O26 2.443317 1_555
Cu7 O7 1.942500 1_555
Cu7 O5 1.944435 1_655
Cu7 O16 1.982863 1_555
Cu7 O17 1.985981 1_545
Cu7 O27 2.445767 1_555
Cu8 O8 1.943887 1_555
Cu8 O6 1.945860 1_555
Cu8 O17 1.991431 1_555
Cu8 O18 1.995414 1_555
Cu8 O28 2.338356 1_555
Cu9 O9 1.942530 1_555
Cu9 O7 1.945097 1_555
Cu9 O19 1.990615 1_555
Cu9 O18 1.991500 1_555
Cu9 O29 2.339641 1_555
Cu10 O20 1.829560 1_555
Cu10 O26 1.831416 1_554
Cu10 O30 1.963162 1_554
Cu11 O27 1.829560 1_555
Cu11 O21 1.831416 1_556
Cu11 O33 1.963162 1_556
Cu12 O33 1.889386 1_565
Cu12 O22 1.896713 1_555
Cu12 O28 1.898331 1_554
Cu12 O32 1.990254 1_554
Cu13 O29 1.899237 1_554
Cu13 O23 1.899237 1_555
Cu13 O32 1.923559 1_554
Cu13 O31 1.923559 1_555
Cu14 O30 1.889386 1_545
Cu14 O25 1.896713 1_555
Cu14 O24 1.898331 1_556
Cu14 O31 1.990254 1_556
O0 Y4 2.432621 1_665
O0 Y0 2.443185 1_555
O1 Y1 2.432174 1_555
O1 Y0 2.444403 1_555
O2 Y1 2.430240 1_555
O2 Y2 2.436248 1_555
O3 Y2 2.438769 1_565
O3 Y3 2.444103 1_555
O4 Y4 2.433050 1_555
O4 Y3 2.444368 1_555
O5 Y0 2.432621 1_445
O5 Y4 2.443185 1_555
O6 Y0 2.433050 1_555
O6 Y1 2.444368 1_555
O7 Y2 2.438769 1_555
O7 Y1 2.444103 1_555
O8 Y3 2.430240 1_555
O8 Y2 2.436248 1_565
O9 Y3 2.432174 1_555
O9 Y4 2.444403 1_555
O10 Y3 2.406164 1_555
O10 Y0 2.407009 1_455
O11 Y4 2.406628 1_655
O11 Y1 2.408257 1_555
O12 Y2 2.413745 1_565
O12 Y0 2.417490 1_555
O13 Y1 2.409197 1_555
O13 Y3 2.415610 1_555
O14 Y4 2.407268 1_555
O14 Y2 2.412603 1_555
O15 Y0 2.406628 1_455
O15 Y3 2.408257 1_555
O16 Y1 2.406164 1_555
O16 Y4 2.407009 1_655
O17 Y0 2.407268 1_555
O17 Y2 2.412603 1_565
O18 Y3 2.409197 1_555
O18 Y1 2.415610 1_555
O19 Y2 2.413745 1_555
O19 Y4 2.417490 1_555
