# generated using pymatgen
data_Mn7Ni8Sn
_symmetry_space_group_name_H-M   'P 1'
_cell_length_a   13.88311838
_cell_length_b   13.88311838
_cell_length_c   13.88311829
_cell_angle_alpha   17.15135376
_cell_angle_beta   17.15135376
_cell_angle_gamma   17.15135115
_symmetry_Int_Tables_number   1
_chemical_formula_structural   Mn7Ni8Sn
_chemical_formula_sum   'Mn7 Ni8 Sn1'
_cell_volume   203.03108845
_cell_formula_units_Z   1
loop_
 _symmetry_equiv_pos_site_id
 _symmetry_equiv_pos_as_xyz
  1  'x, y, z'
loop_
 _atom_site_type_symbol
 _atom_site_label
 _atom_site_symmetry_multiplicity
 _atom_site_fract_x
 _atom_site_fract_y
 _atom_site_fract_z
 _atom_site_occupancy
  Mn  Mn0  1  0.37699000  0.37699000  0.37699000  1
  Mn  Mn1  1  0.12585800  0.12585800  0.12585800  1
  Mn  Mn2  1  0.62301000  0.62301000  0.62301000  1
  Mn  Mn3  1  0.87414200  0.87414200  0.87414200  1
  Mn  Mn4  1  0.24806200  0.24806200  0.24806200  1
  Mn  Mn5  1  0.50000000  0.50000000  0.50000000  1
  Mn  Mn6  1  0.75193800  0.75193800  0.75193800  1
  Ni  Ni0  1  0.06511400  0.06511400  0.06511400  1
  Ni  Ni1  1  0.81288600  0.81288600  0.81288600  1
  Ni  Ni2  1  0.30858400  0.30858400  0.30858400  1
  Ni  Ni3  1  0.56185800  0.56185800  0.56185800  1
  Ni  Ni4  1  0.69141600  0.69141600  0.69141600  1
  Ni  Ni5  1  0.43814200  0.43814200  0.43814200  1
  Ni  Ni6  1  0.93488600  0.93488600  0.93488600  1
  Ni  Ni7  1  0.18711400  0.18711400  0.18711400  1
  Sn  Sn0  1  0.00000000  0.00000000  0.00000000  1
loop_
_geom_bond_atom_site_label_1
_geom_bond_atom_site_label_2
_geom_bond_distance
_geom_bond_site_symmetry_2
Mn0 Ni5 2.508902 1_555
Mn0 Ni4 2.513162 1_545
Mn0 Ni4 2.513162 1_455
Mn0 Ni4 2.513162 1_554
Mn0 Ni0 2.547398 1_655
Mn0 Ni0 2.547398 1_565
Mn0 Ni0 2.547398 1_556
Mn0 Ni2 2.806515 1_555
Mn0 Sn0 2.987029 1_655
Mn0 Sn0 2.987029 1_565
Mn0 Sn0 2.987029 1_556
Mn1 Ni0 2.492163 1_555
Mn1 Ni7 2.513169 1_555
Mn1 Ni1 2.532210 1_544
Mn1 Ni1 2.532210 1_454
Mn1 Ni1 2.532210 1_445
Mn1 Ni5 2.541662 1_545
Mn1 Ni5 2.541662 1_455
Mn1 Ni5 2.541662 1_554
Mn2 Ni3 2.508902 1_555
Mn2 Ni2 2.513162 1_655
Mn2 Ni2 2.513162 1_565
Mn2 Ni2 2.513162 1_556
Mn2 Ni6 2.547398 1_455
Mn2 Ni6 2.547398 1_545
Mn2 Ni6 2.547398 1_554
Mn2 Ni4 2.806515 1_555
Mn2 Sn0 2.987029 1_566
Mn2 Sn0 2.987029 1_656
Mn2 Sn0 2.987029 1_665
Mn3 Ni6 2.492163 1_555
Mn3 Ni1 2.513169 1_555
Mn3 Ni7 2.532210 1_566
Mn3 Ni7 2.532210 1_656
Mn3 Ni7 2.532210 1_665
Mn3 Ni3 2.541662 1_655
Mn3 Ni3 2.541662 1_565
Mn3 Ni3 2.541662 1_556
Mn4 Ni2 2.483055 1_555
Mn4 Ni7 2.500533 1_555
Mn4 Ni3 2.521259 1_455
Mn4 Ni3 2.521259 1_545
Mn4 Ni3 2.521260 1_554
Mn4 Ni6 2.529461 1_454
Mn4 Ni6 2.529461 1_544
Mn4 Ni6 2.529462 1_445
Mn5 Ni1 2.533376 1_455
Mn5 Ni1 2.533376 1_545
Mn5 Ni7 2.533376 1_655
Mn5 Ni7 2.533376 1_565
Mn5 Ni7 2.533377 1_556
Mn5 Ni1 2.533377 1_554
Mn5 Ni3 2.537868 1_555
Mn5 Ni5 2.537868 1_555
Mn6 Ni4 2.483055 1_555
Mn6 Ni1 2.500533 1_555
Mn6 Ni5 2.521259 1_565
Mn6 Ni5 2.521259 1_655
Mn6 Ni5 2.521260 1_556
Mn6 Ni0 2.529461 1_656
Mn6 Ni0 2.529461 1_566
Mn6 Ni0 2.529462 1_665
Ni0 Sn0 2.671453 1_555
Ni2 Sn0 2.597167 1_565
Ni2 Sn0 2.597167 1_655
Ni2 Sn0 2.597168 1_556
Ni4 Sn0 2.597167 1_656
Ni4 Sn0 2.597167 1_566
Ni4 Sn0 2.597168 1_665
Ni6 Sn0 2.671453 1_666
