# generated using pymatgen
data_Er9(FeGe)10
_symmetry_space_group_name_H-M   'P 1'
_cell_length_a   5.35241600
_cell_length_b   10.05422363
_cell_length_c   10.05422363
_cell_angle_alpha   83.03075628
_cell_angle_beta   74.56306888
_cell_angle_gamma   74.56306888
_symmetry_Int_Tables_number   1
_chemical_formula_structural   Er9(FeGe)10
_chemical_formula_sum   'Er9 Fe10 Ge10'
_cell_volume   501.98473577
_cell_formula_units_Z   1
loop_
 _symmetry_equiv_pos_site_id
 _symmetry_equiv_pos_as_xyz
  1  'x, y, z'
loop_
 _atom_site_type_symbol
 _atom_site_label
 _atom_site_symmetry_multiplicity
 _atom_site_fract_x
 _atom_site_fract_y
 _atom_site_fract_z
 _atom_site_occupancy
  Er  Er0  1  0.63636900  0.71645500  0.01080700  1
  Er  Er1  1  0.36363100  0.28354500  0.98919300  1
  Er  Er2  1  0.36363100  0.98919300  0.28354500  1
  Er  Er3  1  0.63636900  0.01080700  0.71645500  1
  Er  Er4  1  0.19753300  0.80246700  0.80246700  1
  Er  Er5  1  0.80246700  0.19753300  0.19753300  1
  Er  Er6  1  0.00000000  0.78113200  0.21886800  1
  Er  Er7  1  0.00000000  0.21886800  0.78113200  1
  Er  Er8  1  0.00000000  0.50000000  0.50000000  1
  Fe  Fe0  1  0.10109900  0.51004500  0.79781600  1
  Fe  Fe1  1  0.40895900  0.48995500  0.20218400  1
  Fe  Fe2  1  0.89890100  0.20218400  0.48995500  1
  Fe  Fe3  1  0.59104100  0.79781600  0.51004500  1
  Fe  Fe4  1  0.89890100  0.48995500  0.20218400  1
  Fe  Fe5  1  0.59104100  0.51004500  0.79781600  1
  Fe  Fe6  1  0.10109900  0.79781600  0.51004500  1
  Fe  Fe7  1  0.40895900  0.20218400  0.48995500  1
  Fe  Fe8  1  0.40727800  0.59272200  0.59272200  1
  Fe  Fe9  1  0.59272200  0.40727800  0.40727800  1
  Ge  Ge0  1  0.74939300  0.00000000  0.00000000  1
  Ge  Ge1  1  0.25060700  0.00000000  0.00000000  1
  Ge  Ge2  1  0.20540300  0.58304700  0.00614700  1
  Ge  Ge3  1  0.79459700  0.41695300  0.99385300  1
  Ge  Ge4  1  0.79459700  0.99385300  0.41695300  1
  Ge  Ge5  1  0.20540300  0.00614700  0.58304700  1
  Ge  Ge6  1  0.79182600  0.70817400  0.70817400  1
  Ge  Ge7  1  0.20817400  0.29182600  0.29182600  1
  Ge  Ge8  1  0.50000000  0.67256100  0.32743900  1
  Ge  Ge9  1  0.50000000  0.32743900  0.67256100  1
loop_
_geom_bond_atom_site_label_1
_geom_bond_atom_site_label_2
_geom_bond_distance
_geom_bond_site_symmetry_2
Er0 Ge3 2.916173 1_554
Er0 Ge6 2.938424 1_554
Er0 Ge2 2.973572 1_555
Er0 Ge2 2.973572 1_655
Er0 Ge1 3.051707 1_565
Er0 Ge0 3.051707 1_565
Er0 Ge8 3.075007 1_555
Er0 Fe4 3.087940 1_555
Er0 Fe1 3.087942 1_555
Er0 Fe5 3.251868 1_554
Er0 Fe0 3.251870 1_654
Er1 Ge2 2.916173 1_556
Er1 Ge7 2.938424 1_556
Er1 Ge3 2.973572 1_455
Er1 Ge3 2.973572 1_555
Er1 Ge1 3.051707 1_556
Er1 Ge0 3.051707 1_556
Er1 Ge9 3.075007 1_555
Er1 Fe0 3.087940 1_555
Er1 Fe5 3.087942 1_555
Er1 Fe1 3.251868 1_556
Er1 Fe4 3.251870 1_456
Er2 Ge5 2.916173 1_565
Er2 Ge7 2.938424 1_565
Er2 Ge4 2.973572 1_455
Er2 Ge4 2.973572 1_555
Er2 Ge1 3.051707 1_565
Er2 Ge0 3.051707 1_565
Er2 Ge8 3.075007 1_555
Er2 Fe6 3.087940 1_555
Er2 Fe3 3.087942 1_555
Er2 Fe7 3.251868 1_565
Er2 Fe2 3.251870 1_465
Er3 Ge4 2.916173 1_545
Er3 Ge6 2.938424 1_545
Er3 Ge5 2.973572 1_555
Er3 Ge5 2.973572 1_655
Er3 Ge1 3.051707 1_556
Er3 Ge0 3.051707 1_556
Er3 Ge9 3.075007 1_555
Er3 Fe2 3.087940 1_555
Er3 Fe7 3.087942 1_555
Er3 Fe3 3.251868 1_545
Er3 Fe6 3.251870 1_645
Er4 Ge2 2.821777 1_556
Er4 Ge5 2.821777 1_565
Er4 Fe8 2.951803 1_555
Er4 Ge6 2.987148 1_455
Er4 Ge6 2.987148 1_555
Er4 Ge1 3.086632 1_566
Er4 Ge0 3.086632 1_466
Er4 Fe6 3.125177 1_555
Er4 Fe0 3.125177 1_555
Er4 Fe5 3.125179 1_555
Er4 Fe3 3.125179 1_555
Er5 Ge4 2.821777 1_545
Er5 Ge3 2.821777 1_554
Er5 Fe9 2.951803 1_555
Er5 Ge7 2.987148 1_555
Er5 Ge7 2.987148 1_655
Er5 Ge1 3.086632 1_655
Er5 Ge0 3.086632 1_555
Er5 Fe4 3.125177 1_555
Er5 Fe2 3.125177 1_555
Er5 Fe1 3.125179 1_555
Er5 Fe7 3.125179 1_555
Er6 Ge4 2.892342 1_455
Er6 Ge2 2.892342 1_555
Er6 Ge8 3.042383 1_555
Er6 Ge8 3.042383 1_455
Er6 Fe3 3.146804 1_455
Er6 Fe1 3.146804 1_555
Er6 Fe6 3.146806 1_555
Er6 Fe4 3.146806 1_455
Er6 Ge0 3.210752 1_465
Er6 Ge1 3.210752 1_565
Er7 Ge3 2.892342 1_455
Er7 Ge5 2.892342 1_555
Er7 Ge9 3.042383 1_455
Er7 Ge9 3.042383 1_555
Er7 Fe5 3.146804 1_455
Er7 Fe7 3.146804 1_555
Er7 Fe0 3.146806 1_555
Er7 Fe2 3.146806 1_455
Er7 Ge0 3.210752 1_456
Er7 Ge1 3.210752 1_556
Er8 Ge6 2.929694 1_455
Er8 Ge7 2.929694 1_555
Er8 Fe8 2.977392 1_555
Er8 Fe9 2.977392 1_555
Er8 Fe9 2.977392 1_455
Er8 Fe8 2.977392 1_455
Er8 Fe3 3.199052 1_455
Er8 Fe5 3.199052 1_455
Er8 Fe7 3.199052 1_555
Er8 Fe1 3.199052 1_555
Er8 Fe0 3.199055 1_555
Er8 Fe6 3.199055 1_555
Er8 Fe4 3.199055 1_455
Er8 Fe2 3.199055 1_455
Fe0 Ge3 2.469936 1_455
Fe0 Ge6 2.474633 1_455
Fe0 Fe8 2.477698 1_555
Fe0 Ge2 2.539985 1_556
Fe0 Ge9 2.560893 1_555
Fe0 Fe5 2.622373 1_555
Fe0 Fe5 2.730043 1_455
Fe1 Ge2 2.469933 1_555
Fe1 Ge7 2.474630 1_555
Fe1 Fe9 2.477700 1_555
Fe1 Ge3 2.539987 1_554
Fe1 Ge8 2.560896 1_555
Fe1 Fe4 2.622373 1_555
Fe1 Fe4 2.730043 1_455
Fe2 Ge5 2.469936 1_655
Fe2 Ge7 2.474633 1_655
Fe2 Fe9 2.477698 1_555
Fe2 Ge4 2.539985 1_545
Fe2 Ge9 2.560893 1_555
Fe2 Fe7 2.622373 1_555
Fe2 Fe7 2.730043 1_655
Fe3 Ge4 2.469933 1_555
Fe3 Ge6 2.474630 1_555
Fe3 Fe8 2.477700 1_555
Fe3 Ge5 2.539987 1_565
Fe3 Ge8 2.560896 1_555
Fe3 Fe6 2.622373 1_555
Fe3 Fe6 2.730043 1_655
Fe4 Ge2 2.469936 1_655
Fe4 Ge7 2.474633 1_655
Fe4 Fe9 2.477698 1_555
Fe4 Ge3 2.539985 1_554
Fe4 Ge8 2.560893 1_555
Fe5 Ge3 2.469933 1_555
Fe5 Ge6 2.474630 1_555
Fe5 Fe8 2.477700 1_555
Fe5 Ge2 2.539987 1_556
Fe5 Ge9 2.560896 1_555
Fe6 Ge4 2.469936 1_455
Fe6 Ge6 2.474633 1_455
Fe6 Fe8 2.477698 1_555
Fe6 Ge5 2.539985 1_565
Fe6 Ge8 2.560893 1_555
Fe7 Ge5 2.469933 1_555
Fe7 Ge7 2.474630 1_555
Fe7 Fe9 2.477700 1_555
Fe7 Ge4 2.539987 1_545
Fe7 Ge9 2.560896 1_555
Fe8 Fe9 2.609808 1_555
Fe8 Ge9 2.644338 1_555
Fe8 Ge8 2.644338 1_555
Fe9 Ge9 2.644338 1_555
Fe9 Ge8 2.644338 1_555
Ge0 Ge1 2.669710 1_555
Ge0 Ge1 2.682706 1_655
