# generated using pymatgen
data_V2NiO6
_symmetry_space_group_name_H-M   'P 1'
_cell_length_a   8.06731900
_cell_length_b   9.71663100
_cell_length_c   14.91244400
_cell_angle_alpha   90.00000000
_cell_angle_beta   90.00000000
_cell_angle_gamma   90.00000000
_symmetry_Int_Tables_number   1
_chemical_formula_structural   V2NiO6
_chemical_formula_sum   'V16 Ni8 O48'
_cell_volume   1168.94416189
_cell_formula_units_Z   8
loop_
 _symmetry_equiv_pos_site_id
 _symmetry_equiv_pos_as_xyz
  1  'x, y, z'
loop_
 _atom_site_type_symbol
 _atom_site_label
 _atom_site_symmetry_multiplicity
 _atom_site_fract_x
 _atom_site_fract_y
 _atom_site_fract_z
 _atom_site_occupancy
  V  V0  1  0.35225000  0.72801000  0.38447500  1
  V  V1  1  0.64775000  0.22801000  0.11552500  1
  V  V2  1  0.14775000  0.27199000  0.88447500  1
  V  V3  1  0.85225000  0.77199000  0.61552500  1
  V  V4  1  0.64775000  0.27199000  0.61552500  1
  V  V5  1  0.35225000  0.77199000  0.88447500  1
  V  V6  1  0.85225000  0.72801000  0.11552500  1
  V  V7  1  0.14775000  0.22801000  0.38447500  1
  V  V8  1  0.93916100  0.79966100  0.39294100  1
  V  V9  1  0.06083900  0.29966100  0.10705900  1
  V  V10  1  0.56083900  0.20033900  0.89294200  1
  V  V11  1  0.43916100  0.70033900  0.60705800  1
  V  V12  1  0.06083900  0.20033900  0.60705800  1
  V  V13  1  0.93916100  0.70033900  0.89294200  1
  V  V14  1  0.43916100  0.79966100  0.10705900  1
  V  V15  1  0.56083900  0.29966100  0.39294100  1
  Ni  Ni0  1  0.37739000  0.47722900  0.20864400  1
  Ni  Ni1  1  0.62261000  0.97722900  0.29135600  1
  Ni  Ni2  1  0.12261000  0.52277100  0.70864400  1
  Ni  Ni3  1  0.87739000  0.02277100  0.79135600  1
  Ni  Ni4  1  0.62261000  0.52277100  0.79135600  1
  Ni  Ni5  1  0.37739000  0.02277100  0.70864400  1
  Ni  Ni6  1  0.87739000  0.47722900  0.29135600  1
  Ni  Ni7  1  0.12261000  0.97722900  0.20864400  1
  O  O0  1  0.51051600  0.83569200  0.36154400  1
  O  O1  1  0.48948400  0.33569200  0.13845600  1
  O  O2  1  0.98948400  0.16430800  0.86154400  1
  O  O3  1  0.01051600  0.66430800  0.63845600  1
  O  O4  1  0.48948400  0.16430800  0.63845600  1
  O  O5  1  0.51051600  0.66430800  0.86154400  1
  O  O6  1  0.01051600  0.83569200  0.13845600  1
  O  O7  1  0.98948400  0.33569200  0.36154400  1
  O  O8  1  0.34076700  0.59895700  0.30985500  1
  O  O9  1  0.65923300  0.09895700  0.19014500  1
  O  O10  1  0.15923300  0.40104300  0.80985500  1
  O  O11  1  0.84076700  0.90104300  0.69014500  1
  O  O12  1  0.65923300  0.40104300  0.69014500  1
  O  O13  1  0.34076700  0.90104300  0.80985500  1
  O  O14  1  0.84076700  0.59895700  0.19014500  1
  O  O15  1  0.15923300  0.09895700  0.30985500  1
  O  O16  1  0.84740900  0.90262100  0.31448000  1
  O  O17  1  0.15259100  0.40262100  0.18552000  1
  O  O18  1  0.65259100  0.09737900  0.81448000  1
  O  O19  1  0.34740900  0.59737900  0.68552000  1
  O  O20  1  0.15259100  0.09737900  0.68552000  1
  O  O21  1  0.84740900  0.59737900  0.81448000  1
  O  O22  1  0.34740900  0.90262100  0.18552000  1
  O  O23  1  0.65259100  0.40262100  0.31448000  1
  O  O24  1  0.89829500  0.63227300  0.37581000  1
  O  O25  1  0.10170500  0.13227300  0.12419000  1
  O  O26  1  0.60170500  0.36772700  0.87581000  1
  O  O27  1  0.39829500  0.86772700  0.62419000  1
  O  O28  1  0.10170500  0.36772700  0.62419000  1
  O  O29  1  0.89829500  0.86772700  0.87581000  1
  O  O30  1  0.39829500  0.63227300  0.12419000  1
  O  O31  1  0.60170500  0.13227300  0.37581000  1
  O  O32  1  0.15938600  0.82317600  0.37938100  1
  O  O33  1  0.84061400  0.32317600  0.12061900  1
  O  O34  1  0.34061400  0.17682400  0.87938100  1
  O  O35  1  0.65938600  0.67682400  0.62061900  1
  O  O36  1  0.84061400  0.17682400  0.62061900  1
  O  O37  1  0.15938600  0.67682400  0.87938100  1
  O  O38  1  0.65938600  0.82317600  0.12061900  1
  O  O39  1  0.34061400  0.32317600  0.37938100  1
  O  O40  1  0.37689500  0.65386400  0.49509400  1
  O  O41  1  0.62310500  0.15386400  0.00490600  1
  O  O42  1  0.12310500  0.34613600  0.99509400  1
  O  O43  1  0.87689500  0.84613600  0.50490600  1
  O  O44  1  0.62310500  0.34613600  0.50490600  1
  O  O45  1  0.37689500  0.84613600  0.99509400  1
  O  O46  1  0.87689500  0.65386400  0.00490600  1
  O  O47  1  0.12310500  0.15386400  0.49509400  1
loop_
_geom_bond_atom_site_label_1
_geom_bond_atom_site_label_2
_geom_bond_distance
_geom_bond_site_symmetry_2
Ni0 O8 1.940173 1_555
Ni0 O1 1.950546 1_555
Ni0 O30 1.970819 1_555
Ni0 O17 1.983260 1_555
Ni1 O9 1.940173 1_565
Ni1 O0 1.950546 1_555
Ni1 O31 1.970819 1_565
Ni1 O16 1.983260 1_555
Ni2 O10 1.940173 1_555
Ni2 O3 1.950546 1_555
Ni2 O28 1.970819 1_555
Ni2 O19 1.983260 1_555
Ni3 O11 1.940173 1_545
Ni3 O2 1.950546 1_555
Ni3 O29 1.970819 1_545
Ni3 O18 1.983260 1_555
Ni4 O12 1.940173 1_555
Ni4 O5 1.950546 1_555
Ni4 O26 1.970819 1_555
Ni4 O21 1.983260 1_555
Ni5 O13 1.940173 1_545
Ni5 O4 1.950546 1_555
Ni5 O27 1.970819 1_545
Ni5 O20 1.983260 1_555
Ni6 O14 1.940173 1_555
Ni6 O7 1.950546 1_555
Ni6 O24 1.970819 1_555
Ni6 O23 1.983260 1_555
Ni7 O15 1.940173 1_565
Ni7 O6 1.950546 1_555
Ni7 O25 1.970819 1_565
Ni7 O22 1.983260 1_555
O0 V0 1.685783 1_555
O1 V1 1.685783 1_555
O2 V2 1.685783 1_655
O3 V3 1.685783 1_455
O4 V4 1.685783 1_555
O5 V5 1.685783 1_555
O6 V6 1.685783 1_455
O7 V7 1.685783 1_655
O8 V0 1.679062 1_555
O9 V1 1.679062 1_555
O10 V2 1.679062 1_555
O11 V3 1.679062 1_555
O12 V4 1.679062 1_555
O13 V5 1.679062 1_555
O14 V6 1.679062 1_555
O15 V7 1.679062 1_555
O16 V8 1.708139 1_555
O17 V9 1.708139 1_555
O18 V10 1.708150 1_555
O19 V11 1.708150 1_555
O20 V12 1.708150 1_555
O21 V13 1.708150 1_555
O22 V14 1.708139 1_555
O23 V15 1.708139 1_555
O24 V8 1.679072 1_555
O25 V9 1.679072 1_555
O26 V10 1.679074 1_555
O27 V11 1.679074 1_555
O28 V12 1.679074 1_555
O29 V13 1.679074 1_555
O30 V14 1.679072 1_555
O31 V15 1.679072 1_555
O32 V8 1.802635 1_455
O32 V0 1.811529 1_555
O33 V9 1.802635 1_655
O33 V1 1.811529 1_555
O34 V10 1.802637 1_555
O34 V2 1.811529 1_555
O35 V11 1.802637 1_555
O35 V3 1.811529 1_555
O36 V12 1.802637 1_655
O36 V4 1.811529 1_555
O37 V13 1.802637 1_455
O37 V5 1.811529 1_555
O38 V14 1.802635 1_555
O38 V6 1.811529 1_555
O39 V15 1.802635 1_555
O39 V7 1.811529 1_555
O40 V11 1.801112 1_555
O40 V0 1.811009 1_555
O41 V10 1.801112 1_554
O41 V1 1.811009 1_555
O42 V9 1.801126 1_556
O42 V2 1.811009 1_555
O43 V8 1.801126 1_555
O43 V3 1.811009 1_555
O44 V15 1.801126 1_555
O44 V4 1.811009 1_555
O45 V14 1.801126 1_556
O45 V5 1.811009 1_555
O46 V13 1.801112 1_554
O46 V6 1.811009 1_555
O47 V12 1.801112 1_555
O47 V7 1.811009 1_555
