# generated using pymatgen
data_Er7(TeAu)2
_symmetry_space_group_name_H-M   'P 1'
_cell_length_a   9.18659026
_cell_length_b   9.18659026
_cell_length_c   16.99868514
_cell_angle_alpha   76.06572997
_cell_angle_beta   76.06572997
_cell_angle_gamma   25.14112621
_symmetry_Int_Tables_number   1
_chemical_formula_structural   Er7(TeAu)2
_chemical_formula_sum   'Er14 Te4 Au4'
_cell_volume   590.63788966
_cell_formula_units_Z   2
loop_
 _symmetry_equiv_pos_site_id
 _symmetry_equiv_pos_as_xyz
  1  'x, y, z'
loop_
 _atom_site_type_symbol
 _atom_site_label
 _atom_site_symmetry_multiplicity
 _atom_site_fract_x
 _atom_site_fract_y
 _atom_site_fract_z
 _atom_site_occupancy
  Er  Er0  1  0.00140600  0.00140600  0.66625071  1
  Er  Er1  1  0.99859400  0.99859400  0.33374929  1
  Er  Er2  1  0.17429483  0.17429483  0.47151033  1
  Er  Er3  1  0.82570517  0.82570517  0.52848967  1
  Er  Er4  1  0.19068614  0.19068614  0.67972812  1
  Er  Er5  1  0.80931386  0.80931386  0.32027188  1
  Er  Er6  1  0.33805320  0.33805320  0.98258393  1
  Er  Er7  1  0.66194680  0.66194680  0.01741607  1
  Er  Er8  1  0.57485750  0.57485750  0.83005807  1
  Er  Er9  1  0.42514250  0.42514250  0.16994193  1
  Er  Er10  1  0.77925147  0.77925147  0.80678967  1
  Er  Er11  1  0.22074853  0.22074853  0.19321033  1
  Er  Er12  1  0.50000000  0.50000000  0.50000000  1
  Er  Er13  1  -0.00000000  -0.00000000  0.00000000  1
  Te  Te0  1  0.06562105  0.06562105  0.14962891  1
  Te  Te1  1  0.93437895  0.93437895  0.85037109  1
  Te  Te2  1  0.36586346  0.36586346  0.66144134  1
  Te  Te3  1  0.63413654  0.63413654  0.33855866  1
  Au  Au0  1  0.17024079  0.17024079  0.88789660  1
  Au  Au1  1  0.82975921  0.82975921  0.11210340  1
  Au  Au2  1  0.38285400  0.38285400  0.39774234  1
  Au  Au3  1  0.61714600  0.61714600  0.60225766  1
loop_
_geom_bond_atom_site_label_1
_geom_bond_atom_site_label_2
_geom_bond_distance
_geom_bond_site_symmetry_2
Er0 Te1 3.063349 1_445
Er0 Te2 3.163913 1_455
Er0 Te2 3.163913 1_545
Er1 Te0 3.063349 1_665
Er1 Te3 3.163913 1_565
Er1 Te3 3.163913 1_655
Er2 Te3 3.229068 1_455
Er2 Te3 3.229068 1_545
Er3 Te2 3.229068 1_565
Er3 Te2 3.229068 1_655
Er4 Te2 3.079487 1_555
Er5 Te3 3.079487 1_555
Er6 Te1 3.180685 1_455
Er6 Te1 3.180685 1_545
Er7 Te0 3.180685 1_565
Er7 Te0 3.180685 1_655
Er8 Te1 3.167609 1_455
Er8 Te1 3.167609 1_545
Er9 Te0 3.167609 1_655
Er9 Te0 3.167609 1_565
Er10 Te1 3.050330 1_555
Er10 Te2 3.258965 1_565
Er10 Te2 3.258965 1_655
Er11 Te0 3.050330 1_555
Er11 Te3 3.258965 1_455
Er11 Te3 3.258965 1_545
Er12 Te3 3.171737 1_555
Er12 Te2 3.171737 1_555
Er13 Te1 3.054681 1_444
Er13 Te0 3.054681 1_555
Au0 Er10 2.896540 1_455
Au0 Er10 2.896540 1_545
Au0 Er7 2.950490 1_456
Au0 Er7 2.950490 1_546
Au0 Er8 2.952927 1_455
Au0 Er8 2.952927 1_545
Au0 Er13 3.175026 1_556
Au0 Er4 3.466389 1_555
Au0 Er6 3.746586 1_555
Au1 Er11 2.896540 1_655
Au1 Er11 2.896540 1_565
Au1 Er6 2.950490 1_654
Au1 Er6 2.950490 1_564
Au1 Er9 2.952927 1_565
Au1 Er9 2.952927 1_655
Au1 Er13 3.175026 1_665
Au1 Er5 3.466389 1_555
Au1 Er7 3.746586 1_555
Au2 Er5 2.885809 1_455
Au2 Er5 2.885809 1_545
Au2 Er1 2.893893 1_455
Au2 Er1 2.893893 1_545
Au2 Er3 2.977171 1_545
Au2 Er3 2.977171 1_455
Au2 Er12 3.039165 1_555
Au3 Er4 2.885809 1_655
Au3 Er4 2.885809 1_565
Au3 Er0 2.893893 1_655
Au3 Er0 2.893893 1_565
Au3 Er2 2.977171 1_655
Au3 Er2 2.977171 1_565
Au3 Er12 3.039165 1_555
