# generated using pymatgen
data_LiMg14Cu
_symmetry_space_group_name_H-M   'P 1'
_cell_length_a   6.33045248
_cell_length_b   6.36013745
_cell_length_c   9.88975767
_cell_angle_alpha   90.00000000
_cell_angle_beta   90.00000000
_cell_angle_gamma   120.15524555
_symmetry_Int_Tables_number   1
_chemical_formula_structural   LiMg14Cu
_chemical_formula_sum   'Li1 Mg14 Cu1'
_cell_volume   344.29920256
_cell_formula_units_Z   1
loop_
 _symmetry_equiv_pos_site_id
 _symmetry_equiv_pos_as_xyz
  1  'x, y, z'
loop_
 _atom_site_type_symbol
 _atom_site_label
 _atom_site_symmetry_multiplicity
 _atom_site_fract_x
 _atom_site_fract_y
 _atom_site_fract_z
 _atom_site_occupancy
  Li  Li0  1  0.16348888  0.83174394  0.12500000  1
  Mg  Mg0  1  0.16848499  0.33424199  0.62500000  1
  Mg  Mg1  1  0.16962026  0.83480963  0.62500000  1
  Mg  Mg2  1  0.67180989  0.33936873  0.12500000  1
  Mg  Mg3  1  0.66532958  0.33180005  0.62500000  1
  Mg  Mg4  1  0.67180989  0.83244016  0.12500000  1
  Mg  Mg5  1  0.66532958  0.83352853  0.62500000  1
  Mg  Mg6  1  0.32544948  0.16796348  0.36278111  1
  Mg  Mg7  1  0.32544948  0.16796348  0.88721889  1
  Mg  Mg8  1  0.32544948  0.65748700  0.36278111  1
  Mg  Mg9  1  0.32544948  0.65748700  0.88721889  1
  Mg  Mg10  1  0.84246998  0.17123549  0.36584617  1
  Mg  Mg11  1  0.84246998  0.17123549  0.88415383  1
  Mg  Mg12  1  0.83534733  0.66767416  0.37593252  1
  Mg  Mg13  1  0.83534733  0.66767416  0.87406748  1
  Cu  Cu0  1  0.16669437  0.33334668  0.12500000  1
loop_
_geom_bond_atom_site_label_1
_geom_bond_atom_site_label_2
_geom_bond_distance
_geom_bond_site_symmetry_2
Li0 Mg9 2.991854 1_554
Li0 Mg8 2.991854 1_555
Li0 Mg7 2.991861 1_564
Li0 Mg6 2.991861 1_565
Li0 Mg12 3.063468 1_455
Li0 Mg13 3.063468 1_454
Li0 Mg2 3.114777 1_455
Li0 Mg4 3.114777 1_455
Li0 Mg2 3.215680 1_565
Li0 Mg4 3.215680 1_555
Mg0 Mg10 3.123031 1_455
Mg0 Mg11 3.123031 1_455
Mg0 Mg6 3.144305 1_555
Mg0 Mg7 3.144305 1_555
Mg0 Mg9 3.144311 1_555
Mg0 Mg8 3.144311 1_555
Mg0 Mg5 3.153081 1_555
Mg0 Mg3 3.153082 1_555
Mg0 Mg5 3.177428 1_445
Mg0 Mg3 3.177428 1_455
Mg0 Mg1 3.180075 1_545
Mg0 Mg1 3.180075 1_555
Mg1 Mg12 3.068439 1_455
Mg1 Mg13 3.068439 1_455
Mg1 Mg3 3.142165 1_565
Mg1 Mg5 3.142165 1_555
Mg1 Mg9 3.176147 1_555
Mg1 Mg8 3.176147 1_555
Mg1 Mg7 3.176153 1_565
Mg1 Mg6 3.176153 1_565
Mg1 Mg3 3.188303 1_455
Mg1 Mg5 3.188303 1_455
Mg2 Mg7 3.020682 1_554
Mg2 Mg6 3.020682 1_555
Mg2 Mg4 3.136002 1_555
Mg2 Mg4 3.224135 1_545
Mg3 Mg5 3.169075 1_545
Mg3 Mg5 3.191062 1_555
Mg3 Mg6 3.191826 1_555
Mg3 Mg7 3.191826 1_555
Mg4 Mg9 3.020682 1_554
Mg4 Mg8 3.020682 1_555
Mg5 Mg8 3.191826 1_555
Mg5 Mg9 3.191826 1_555
Mg10 Mg2 3.024049 1_555
Mg10 Mg4 3.024056 1_545
Mg10 Mg3 3.165393 1_555
Mg10 Mg5 3.165399 1_545
Mg10 Mg12 3.181872 1_555
Mg10 Mg12 3.181872 1_545
Mg11 Mg2 3.024049 1_556
Mg11 Mg4 3.024056 1_546
Mg11 Mg3 3.165393 1_555
Mg11 Mg5 3.165399 1_545
Mg11 Mg13 3.181872 1_555
Mg11 Mg13 3.181872 1_545
Mg12 Mg4 3.068968 1_555
Mg12 Mg2 3.068975 1_555
Mg12 Mg5 3.078833 1_555
Mg12 Mg3 3.078840 1_555
Mg12 Mg6 3.138313 1_665
Mg12 Mg8 3.138313 1_655
Mg12 Mg6 3.198473 1_555
Mg12 Mg8 3.198473 1_555
Mg13 Mg4 3.068968 1_556
Mg13 Mg2 3.068975 1_556
Mg13 Mg5 3.078833 1_555
Mg13 Mg3 3.078840 1_555
Mg13 Mg7 3.138313 1_665
Mg13 Mg9 3.138313 1_655
Mg13 Mg7 3.198473 1_555
Mg13 Mg9 3.198473 1_555
Cu0 Mg7 2.951016 1_554
Cu0 Mg6 2.951016 1_555
Cu0 Mg9 2.951023 1_554
Cu0 Mg8 2.951023 1_555
Cu0 Mg11 2.970374 1_454
Cu0 Mg10 2.970374 1_455
Cu0 Mg4 3.152257 1_445
Cu0 Mg2 3.152257 1_455
Cu0 Mg4 3.178542 1_555
Cu0 Mg2 3.178542 1_555
Cu0 Li0 3.180117 1_545
Cu0 Li0 3.180117 1_555
