# generated using pymatgen
data_MgMn6(OF2)4
_symmetry_space_group_name_H-M   'P 1'
_cell_length_a   5.40999028
_cell_length_b   7.87641252
_cell_length_c   5.98055131
_cell_angle_alpha   96.83791937
_cell_angle_beta   87.58541176
_cell_angle_gamma   91.44051417
_symmetry_Int_Tables_number   1
_chemical_formula_structural   MgMn6(OF2)4
_chemical_formula_sum   'Mg1 Mn6 O4 F8'
_cell_volume   252.74979701
_cell_formula_units_Z   1
loop_
 _symmetry_equiv_pos_site_id
 _symmetry_equiv_pos_as_xyz
  1  'x, y, z'
loop_
 _atom_site_type_symbol
 _atom_site_label
 _atom_site_symmetry_multiplicity
 _atom_site_fract_x
 _atom_site_fract_y
 _atom_site_fract_z
 _atom_site_occupancy
  Mg  Mg0  1  0.98954800  0.51969000  0.01779100  1
  Mn  Mn0  1  0.50173100  0.00196200  0.50229200  1
  Mn  Mn1  1  0.53149400  0.68546900  0.14574600  1
  Mn  Mn2  1  0.51132800  0.32111500  0.86220900  1
  Mn  Mn3  1  0.91753300  0.70530400  0.61073800  1
  Mn  Mn4  1  0.07399300  0.29862600  0.41630800  1
  Mn  Mn5  1  0.99556200  0.98727700  0.00150500  1
  O  O0  1  0.84821500  0.74591100  0.95349500  1
  O  O1  1  0.63538500  0.77793300  0.44258100  1
  O  O2  1  0.65371400  0.46289500  0.13800100  1
  O  O3  1  0.36798100  0.22162200  0.56163100  1
  F  F0  1  0.87844900  0.42906700  0.69413900  1
  F  F1  1  0.81788700  0.09465100  0.32113800  1
  F  F2  1  0.70284000  0.07963500  0.80456300  1
  F  F3  1  0.31641000  0.57658800  0.88431200  1
  F  F4  1  0.33464200  0.91054000  0.17496100  1
  F  F5  1  0.12375000  0.56454700  0.33310300  1
  F  F6  1  0.13436400  0.26471600  0.04707700  1
  F  F7  1  0.19294800  0.91078300  0.67174400  1
loop_
_geom_bond_atom_site_label_1
_geom_bond_atom_site_label_2
_geom_bond_distance
_geom_bond_site_symmetry_2
Mg0 O2 1.985849 1_555
Mg0 O0 2.040529 1_554
Mn0 O3 1.880951 1_555
Mn0 O1 1.912149 1_545
Mn1 O2 1.883882 1_555
Mn1 O1 1.937368 1_555
Mn1 O0 2.099492 1_554
Mn2 O2 2.046001 1_556
Mn2 O3 2.049006 1_555
Mn3 O1 1.994697 1_555
Mn3 O0 2.056710 1_555
Mn4 O3 1.985777 1_555
Mn5 O0 2.035969 1_554
F0 Mg0 2.089216 1_556
F0 Mn4 2.106084 1_655
F0 Mn3 2.292119 1_555
F0 Mn2 2.372418 1_555
F1 Mn4 2.135783 1_655
F1 Mn0 2.145142 1_555
F1 Mn5 2.189616 1_545
F2 Mn0 2.166766 1_555
F2 Mn2 2.173187 1_555
F2 Mn5 2.200777 1_546
F3 Mg0 1.972675 1_456
F3 Mn1 2.077946 1_556
F3 Mn2 2.282553 1_555
F4 Mn1 2.076733 1_555
F4 Mn0 2.224551 1_565
F4 Mn5 2.274186 1_455
F5 Mg0 2.037591 1_455
F5 Mn3 2.167599 1_455
F5 Mn4 2.217109 1_555
F5 Mn1 2.639853 1_555
F6 Mg0 2.202747 1_455
F6 Mn4 2.203940 1_555
F6 Mn5 2.281729 1_445
F6 Mn2 2.336700 1_554
F7 Mn0 2.074542 1_565
F7 Mn3 2.180937 1_455
F7 Mn5 2.228153 1_456
