# generated using pymatgen
data_SrZnSb2
_symmetry_space_group_name_H-M   'P 1'
_cell_length_a   4.43220900
_cell_length_b   4.46812500
_cell_length_c   23.06083700
_cell_angle_alpha   90.00000000
_cell_angle_beta   90.00000000
_cell_angle_gamma   90.00000000
_symmetry_Int_Tables_number   1
_chemical_formula_structural   SrZnSb2
_chemical_formula_sum   'Sr4 Zn4 Sb8'
_cell_volume   456.68906377
_cell_formula_units_Z   4
loop_
 _symmetry_equiv_pos_site_id
 _symmetry_equiv_pos_as_xyz
  1  'x, y, z'
loop_
 _atom_site_type_symbol
 _atom_site_label
 _atom_site_symmetry_multiplicity
 _atom_site_fract_x
 _atom_site_fract_y
 _atom_site_fract_z
 _atom_site_occupancy
  Sr  Sr0  1  0.25000000  0.77188000  0.61597200  1
  Sr  Sr1  1  0.75000000  0.22812000  0.38402800  1
  Sr  Sr2  1  0.75000000  0.27188000  0.88402800  1
  Sr  Sr3  1  0.25000000  0.72812000  0.11597200  1
  Zn  Zn0  1  0.25000000  0.27530600  0.75002300  1
  Zn  Zn1  1  0.75000000  0.72469400  0.24997700  1
  Zn  Zn2  1  0.75000000  0.77530600  0.74997700  1
  Zn  Zn3  1  0.25000000  0.22469400  0.25002300  1
  Sb  Sb0  1  0.25000000  0.22425500  0.00112800  1
  Sb  Sb1  1  0.75000000  0.77574500  0.99887200  1
  Sb  Sb2  1  0.75000000  0.72425500  0.49887200  1
  Sb  Sb3  1  0.25000000  0.27574500  0.50112800  1
  Sb  Sb4  1  0.25000000  0.72579400  0.32323000  1
  Sb  Sb5  1  0.75000000  0.27420600  0.67677000  1
  Sb  Sb6  1  0.75000000  0.22579400  0.17677000  1
  Sb  Sb7  1  0.25000000  0.77420600  0.82323000  1
loop_
_geom_bond_atom_site_label_1
_geom_bond_atom_site_label_2
_geom_bond_distance
_geom_bond_site_symmetry_2
Sb0 Sb1 2.988283 1_444
Sb0 Sb1 2.988283 1_544
Sb0 Sb1 3.314475 1_554
Sb0 Sb1 3.314475 1_454
Sb0 Sr3 3.453721 1_545
Sb0 Sr3 3.475991 1_555
Sb0 Sr2 3.499813 1_454
Sb0 Sr2 3.499813 1_554
Sb1 Sr2 3.453721 1_565
Sb1 Sr2 3.475991 1_555
Sb1 Sr3 3.499813 1_556
Sb1 Sr3 3.499813 1_656
Sb2 Sb3 2.988283 1_655
Sb2 Sb3 2.988283 1_555
Sb2 Sb3 3.314475 1_665
Sb2 Sb3 3.314475 1_565
Sb2 Sr1 3.453721 1_555
Sb2 Sr1 3.475991 1_565
Sb2 Sr0 3.499813 1_555
Sb2 Sr0 3.499813 1_655
Sb3 Sr0 3.453721 1_555
Sb3 Sr0 3.475991 1_545
Sb3 Sr1 3.499813 1_455
Sb3 Sr1 3.499813 1_555
Sb4 Zn1 2.786538 1_555
Sb4 Zn1 2.786538 1_455
Sb4 Zn3 2.796277 1_565
Sb4 Zn3 2.804120 1_555
Sb4 Sr1 3.438252 1_455
Sb4 Sr1 3.438252 1_555
Sb4 Sr1 3.451732 1_565
Sb4 Sr1 3.451732 1_465
Sb5 Zn0 2.786538 1_555
Sb5 Zn0 2.786538 1_655
Sb5 Zn2 2.796277 1_545
Sb5 Zn2 2.804120 1_555
Sb5 Sr0 3.438252 1_655
Sb5 Sr0 3.438252 1_555
Sb5 Sr0 3.451732 1_545
Sb5 Sr0 3.451732 1_645
Sb6 Zn3 2.786538 1_555
Sb6 Zn3 2.786538 1_655
Sb6 Zn1 2.796277 1_555
Sb6 Zn1 2.804120 1_545
Sb6 Sr3 3.438252 1_645
Sb6 Sr3 3.438252 1_545
Sb6 Sr3 3.451732 1_555
Sb6 Sr3 3.451732 1_655
Sb7 Zn2 2.786538 1_455
Sb7 Zn2 2.786538 1_555
Sb7 Zn0 2.796277 1_555
Sb7 Zn0 2.804120 1_565
Sb7 Sr2 3.438252 1_565
Sb7 Sr2 3.438252 1_465
Sb7 Sr2 3.451732 1_455
Sb7 Sr2 3.451732 1_555
