# generated using pymatgen
data_Ce
_symmetry_space_group_name_H-M   'P 1'
_cell_length_a   6.73178213
_cell_length_b   6.73178476
_cell_length_c   6.73178356
_cell_angle_alpha   109.47120419
_cell_angle_beta   109.47121203
_cell_angle_gamma   109.47123971
_symmetry_Int_Tables_number   1
_chemical_formula_structural   Ce
_chemical_formula_sum   Ce8
_cell_volume   234.83810021
_cell_formula_units_Z   8
loop_
 _symmetry_equiv_pos_site_id
 _symmetry_equiv_pos_as_xyz
  1  'x, y, z'
loop_
 _atom_site_type_symbol
 _atom_site_label
 _atom_site_symmetry_multiplicity
 _atom_site_fract_x
 _atom_site_fract_y
 _atom_site_fract_z
 _atom_site_occupancy
  Ce  Ce0_0  1  0.00000000  0.00000000  0.00000000  1
  Ce  Ce0_1  1  0.00000000  0.00000000  0.50000000  1
  Ce  Ce0_2  1  0.00000000  0.50000000  0.00000000  1
  Ce  Ce0_3  1  0.00000000  0.50000000  0.50000000  1
  Ce  Ce0_4  1  0.50000000  0.00000000  0.00000000  1
  Ce  Ce0_5  1  0.50000000  0.00000000  0.50000000  1
  Ce  Ce0_6  1  0.50000000  0.50000000  0.00000000  1
  Ce  Ce0_7  1  0.50000000  0.50000000  0.50000000  1
loop_
_geom_bond_atom_site_label_1
_geom_bond_atom_site_label_2
_geom_bond_distance
_geom_bond_site_symmetry_2
Ce0_0 Ce0_4 3.365891 1_455
Ce0_0 Ce0_4 3.365891 1_555
Ce0_0 Ce0_1 3.365892 1_555
Ce0_0 Ce0_1 3.365892 1_554
Ce0_0 Ce0_7 3.365892 1_555
Ce0_0 Ce0_7 3.365892 1_444
Ce0_0 Ce0_2 3.365892 1_555
Ce0_0 Ce0_2 3.365892 1_545
Ce0_1 Ce0_5 3.365891 1_455
Ce0_1 Ce0_5 3.365891 1_555
Ce0_1 Ce0_6 3.365892 1_445
Ce0_1 Ce0_6 3.365892 1_556
Ce0_1 Ce0_3 3.365892 1_555
Ce0_1 Ce0_3 3.365892 1_545
Ce0_2 Ce0_6 3.365891 1_555
Ce0_2 Ce0_6 3.365891 1_455
Ce0_2 Ce0_3 3.365892 1_555
Ce0_2 Ce0_3 3.365892 1_554
Ce0_2 Ce0_5 3.365892 1_565
Ce0_2 Ce0_5 3.365892 1_454
Ce0_3 Ce0_7 3.365891 1_455
Ce0_3 Ce0_7 3.365891 1_555
Ce0_3 Ce0_4 3.365892 1_566
Ce0_3 Ce0_4 3.365892 1_455
Ce0_4 Ce0_5 3.365892 1_554
Ce0_4 Ce0_5 3.365892 1_555
Ce0_4 Ce0_6 3.365892 1_555
Ce0_4 Ce0_6 3.365892 1_545
Ce0_5 Ce0_7 3.365892 1_555
Ce0_5 Ce0_7 3.365892 1_545
Ce0_6 Ce0_7 3.365892 1_555
Ce0_6 Ce0_7 3.365892 1_554
