# generated using pymatgen
data_Mn9(PbO5)4
_symmetry_space_group_name_H-M   'P 1'
_cell_length_a   10.18536263
_cell_length_b   11.55826617
_cell_length_c   14.23812715
_cell_angle_alpha   90.00000000
_cell_angle_beta   90.00000000
_cell_angle_gamma   90.00000000
_symmetry_Int_Tables_number   1
_chemical_formula_structural   Mn9(PbO5)4
_chemical_formula_sum   'Mn36 Pb16 O80'
_cell_volume   1676.18540266
_cell_formula_units_Z   4
loop_
 _symmetry_equiv_pos_site_id
 _symmetry_equiv_pos_as_xyz
  1  'x, y, z'
loop_
 _atom_site_type_symbol
 _atom_site_label
 _atom_site_symmetry_multiplicity
 _atom_site_fract_x
 _atom_site_fract_y
 _atom_site_fract_z
 _atom_site_occupancy
  Mn  Mn0  1  0.66595862  0.25000000  0.17205968  1
  Mn  Mn1  1  0.83404138  0.25000000  0.67205968  1
  Mn  Mn2  1  0.33404138  0.75000000  0.82794032  1
  Mn  Mn3  1  0.16595862  0.75000000  0.32794032  1
  Mn  Mn4  1  0.58410858  0.38023844  0.67499764  1
  Mn  Mn5  1  0.91589142  0.11976156  0.17499764  1
  Mn  Mn6  1  0.41589142  0.88023844  0.32500236  1
  Mn  Mn7  1  0.08410858  0.61976156  0.82500236  1
  Mn  Mn8  1  0.41589142  0.61976156  0.32500236  1
  Mn  Mn9  1  0.08410858  0.88023844  0.82500236  1
  Mn  Mn10  1  0.58410858  0.11976156  0.67499764  1
  Mn  Mn11  1  0.91589142  0.38023844  0.17499764  1
  Mn  Mn12  1  0.57995712  0.61665495  0.83415977  1
  Mn  Mn13  1  0.92004288  0.88334505  0.33415977  1
  Mn  Mn14  1  0.42004288  0.11665495  0.16584023  1
  Mn  Mn15  1  0.07995712  0.38334505  0.66584023  1
  Mn  Mn16  1  0.42004288  0.38334505  0.16584023  1
  Mn  Mn17  1  0.07995712  0.11665495  0.66584023  1
  Mn  Mn18  1  0.57995712  0.88334505  0.83415977  1
  Mn  Mn19  1  0.92004288  0.61665495  0.33415977  1
  Mn  Mn20  1  0.83362499  0.75000000  0.83345503  1
  Mn  Mn21  1  0.66637501  0.75000000  0.33345503  1
  Mn  Mn22  1  0.16637501  0.25000000  0.16654497  1
  Mn  Mn23  1  0.33362499  0.25000000  0.66654497  1
  Mn  Mn24  1  0.67383224  0.48895424  0.32861133  1
  Mn  Mn25  1  0.82616776  0.01104576  0.82861133  1
  Mn  Mn26  1  0.32616776  0.98895424  0.67138867  1
  Mn  Mn27  1  0.17383224  0.51104576  0.17138867  1
  Mn  Mn28  1  0.32616776  0.51104576  0.67138867  1
  Mn  Mn29  1  0.17383224  0.98895424  0.17138867  1
  Mn  Mn30  1  0.67383224  0.01104576  0.32861133  1
  Mn  Mn31  1  0.82616776  0.48895424  0.82861133  1
  Mn  Mn32  1  0.50000000  -0.00000000  0.50000000  1
  Mn  Mn33  1  0.00000000  0.50000000  0.00000000  1
  Mn  Mn34  1  0.50000000  0.50000000  0.50000000  1
  Mn  Mn35  1  0.00000000  -0.00000000  0.00000000  1
  Pb  Pb0  1  0.21471464  0.75000000  0.55920553  1
  Pb  Pb1  1  0.28528536  0.75000000  0.05920553  1
  Pb  Pb2  1  0.78528536  0.25000000  0.44079447  1
  Pb  Pb3  1  0.71471464  0.25000000  0.94079447  1
  Pb  Pb4  1  0.42501113  0.25000000  0.39289691  1
  Pb  Pb5  1  0.07498887  0.25000000  0.89289691  1
  Pb  Pb6  1  0.57498887  0.75000000  0.60710309  1
  Pb  Pb7  1  0.92501113  0.75000000  0.10710309  1
  Pb  Pb8  1  0.14378232  0.05989547  0.42637843  1
  Pb  Pb9  1  0.35621768  0.44010453  0.92637843  1
  Pb  Pb10  1  0.85621768  0.55989547  0.57362157  1
  Pb  Pb11  1  0.64378232  0.94010453  0.07362157  1
  Pb  Pb12  1  0.85621768  0.94010453  0.57362157  1
  Pb  Pb13  1  0.64378232  0.55989547  0.07362157  1
  Pb  Pb14  1  0.14378232  0.44010453  0.42637843  1
  Pb  Pb15  1  0.35621768  0.05989547  0.92637843  1
  O  O0  1  0.57670749  0.62678963  0.40344369  1
  O  O1  1  0.92329251  0.87321037  0.90344369  1
  O  O2  1  0.42329251  0.12678963  0.59655631  1
  O  O3  1  0.07670749  0.37321037  0.09655631  1
  O  O4  1  0.42329251  0.37321037  0.59655631  1
  O  O5  1  0.07670749  0.12678963  0.09655631  1
  O  O6  1  0.57670749  0.87321037  0.40344369  1
  O  O7  1  0.92329251  0.62678963  0.90344369  1
  O  O8  1  0.59623168  0.38181002  0.41858596  1
  O  O9  1  0.90376832  0.11818998  0.91858596  1
  O  O10  1  0.40376832  0.88181002  0.58141404  1
  O  O11  1  0.09623168  0.61818998  0.08141404  1
  O  O12  1  0.40376832  0.61818998  0.58141404  1
  O  O13  1  0.09623168  0.88181002  0.08141404  1
  O  O14  1  0.59623168  0.11818998  0.41858596  1
  O  O15  1  0.90376832  0.38181002  0.91858596  1
  O  O16  1  0.64243906  0.49877456  0.58899143  1
  O  O17  1  0.85756094  0.00122544  0.08899143  1
  O  O18  1  0.35756094  0.99877456  0.41100857  1
  O  O19  1  0.14243906  0.50122544  0.91100857  1
  O  O20  1  0.35756094  0.50122544  0.41100857  1
  O  O21  1  0.14243906  0.99877456  0.91100857  1
  O  O22  1  0.64243906  0.00122544  0.58899143  1
  O  O23  1  0.85756094  0.49877456  0.08899143  1
  O  O24  1  0.67219699  0.75000000  0.90414819  1
  O  O25  1  0.82780301  0.75000000  0.40414819  1
  O  O26  1  0.32780301  0.25000000  0.09585181  1
  O  O27  1  0.17219699  0.25000000  0.59585181  1
  O  O28  1  0.66025954  0.49976069  0.90879949  1
  O  O29  1  0.83974046  0.00023931  0.40879949  1
  O  O30  1  0.33974046  -0.00023931  0.09120051  1
  O  O31  1  0.16025954  0.50023931  0.59120051  1
  O  O32  1  0.33974046  0.50023931  0.09120051  1
  O  O33  1  0.16025954  -0.00023931  0.59120051  1
  O  O34  1  0.66025954  0.00023931  0.90879949  1
  O  O35  1  0.83974046  0.49976069  0.40879949  1
  O  O36  1  0.82692968  0.25000000  0.10150301  1
  O  O37  1  0.67307032  0.25000000  0.60150301  1
  O  O38  1  0.17307032  0.75000000  0.89849699  1
  O  O39  1  0.32692968  0.75000000  0.39849699  1
  O  O40  1  0.91990643  0.36984179  0.59276620  1
  O  O41  1  0.58009357  0.13015821  0.09276620  1
  O  O42  1  0.08009357  0.86984179  0.40723380  1
  O  O43  1  0.41990643  0.63015821  0.90723380  1
  O  O44  1  0.08009357  0.63015821  0.40723380  1
  O  O45  1  0.41990643  0.86984179  0.90723380  1
  O  O46  1  0.91990643  0.13015821  0.59276620  1
  O  O47  1  0.58009357  0.36984179  0.09276620  1
  O  O48  1  0.49689767  0.25000000  0.23791513  1
  O  O49  1  0.00310233  0.25000000  0.73791513  1
  O  O50  1  0.50310233  0.75000000  0.76208487  1
  O  O51  1  0.99689767  0.75000000  0.26208487  1
  O  O52  1  0.50103222  0.75000000  0.25962255  1
  O  O53  1  0.99896778  0.75000000  0.75962255  1
  O  O54  1  0.49896778  0.25000000  0.74037745  1
  O  O55  1  0.00103222  0.25000000  0.24037745  1
  O  O56  1  0.74564216  0.13204548  0.74571612  1
  O  O57  1  0.75435784  0.36795452  0.24571612  1
  O  O58  1  0.25435784  0.63204548  0.25428388  1
  O  O59  1  0.24564216  0.86795452  0.75428388  1
  O  O60  1  0.25435784  0.86795452  0.25428388  1
  O  O61  1  0.24564216  0.63204548  0.75428388  1
  O  O62  1  0.74564216  0.36795452  0.74571612  1
  O  O63  1  0.75435784  0.13204548  0.24571612  1
  O  O64  1  0.50794273  0.50276740  0.25059247  1
  O  O65  1  0.99205727  0.99723260  0.75059247  1
  O  O66  1  0.49205727  0.00276740  0.74940753  1
  O  O67  1  0.00794273  0.49723260  0.24940753  1
  O  O68  1  0.49205727  0.49723260  0.74940753  1
  O  O69  1  0.00794273  0.00276740  0.24940753  1
  O  O70  1  0.50794273  0.99723260  0.25059247  1
  O  O71  1  0.99205727  0.50276740  0.75059247  1
  O  O72  1  0.75304163  0.62355186  0.26342054  1
  O  O73  1  0.74695837  0.87644814  0.76342054  1
  O  O74  1  0.24695837  0.12355186  0.73657946  1
  O  O75  1  0.25304163  0.37644814  0.23657946  1
  O  O76  1  0.24695837  0.37644814  0.73657946  1
  O  O77  1  0.25304163  0.12355186  0.23657946  1
  O  O78  1  0.75304163  0.87644814  0.26342054  1
  O  O79  1  0.74695837  0.62355186  0.76342054  1
loop_
_geom_bond_atom_site_label_1
_geom_bond_atom_site_label_2
_geom_bond_distance
_geom_bond_site_symmetry_2
Mn0 O36 1.922844 1_555
Mn0 O57 1.941452 1_555
Mn0 O63 1.941452 1_555
Mn0 O48 1.960690 1_555
Mn0 O47 1.989514 1_555
Mn0 O41 1.989514 1_555
Mn1 O37 1.922844 1_555
Mn1 O62 1.941452 1_555
Mn1 O56 1.941452 1_555
Mn1 O49 1.960690 1_655
Mn1 O40 1.989514 1_555
Mn1 O46 1.989514 1_555
Mn2 O38 1.922844 1_555
Mn2 O61 1.941452 1_555
Mn2 O59 1.941452 1_555
Mn2 O50 1.960690 1_555
Mn2 O43 1.989514 1_555
Mn2 O45 1.989514 1_555
Mn3 O39 1.922844 1_555
Mn3 O58 1.941452 1_555
Mn3 O60 1.941452 1_555
Mn3 O51 1.960690 1_455
Mn3 O44 1.989514 1_555
Mn3 O42 1.989514 1_555
Mn4 O16 1.931227 1_555
Mn4 O62 1.934152 1_555
Mn4 O68 1.957058 1_555
Mn4 O54 1.970936 1_555
Mn4 O4 1.984166 1_555
Mn4 O37 2.045008 1_555
Mn5 O17 1.931227 1_555
Mn5 O63 1.934152 1_555
Mn5 O69 1.957058 1_655
Mn5 O55 1.970936 1_655
Mn5 O5 1.984166 1_655
Mn5 O36 2.045008 1_555
Mn6 O18 1.931227 1_555
Mn6 O60 1.934152 1_555
Mn6 O70 1.957058 1_555
Mn6 O52 1.970936 1_555
Mn6 O6 1.984166 1_555
Mn6 O39 2.045008 1_555
Mn7 O19 1.931227 1_555
Mn7 O61 1.934152 1_555
Mn7 O71 1.957058 1_455
Mn7 O53 1.970936 1_455
Mn7 O7 1.984166 1_455
Mn7 O38 2.045008 1_555
Mn8 O20 1.931227 1_555
Mn8 O58 1.934152 1_555
Mn8 O64 1.957058 1_555
Mn8 O52 1.970936 1_555
Mn8 O0 1.984166 1_555
Mn8 O39 2.045008 1_555
Mn9 O21 1.931227 1_555
Mn9 O59 1.934152 1_555
Mn9 O65 1.957058 1_455
Mn9 O53 1.970936 1_455
Mn9 O1 1.984166 1_455
Mn9 O38 2.045008 1_555
Mn10 O22 1.931227 1_555
Mn10 O56 1.934152 1_555
Mn10 O66 1.957058 1_555
Mn10 O54 1.970936 1_555
Mn10 O2 1.984166 1_555
Mn10 O37 2.045008 1_555
Mn11 O23 1.931227 1_555
Mn11 O57 1.934152 1_555
Mn11 O67 1.957058 1_655
Mn11 O55 1.970936 1_655
Mn11 O3 1.984166 1_655
Mn11 O36 2.045008 1_555
Mn12 O28 1.903635 1_555
Mn12 O43 1.940190 1_555
Mn12 O79 1.978405 1_555
Mn12 O50 2.010296 1_555
Mn12 O68 2.040337 1_555
Mn12 O24 2.061816 1_555
Mn13 O29 1.903635 1_565
Mn13 O42 1.940190 1_655
Mn13 O78 1.978405 1_555
Mn13 O51 2.010296 1_555
Mn13 O69 2.040337 1_665
Mn13 O25 2.061816 1_555
Mn14 O30 1.903635 1_555
Mn14 O41 1.940190 1_555
Mn14 O77 1.978405 1_555
Mn14 O48 2.010296 1_555
Mn14 O70 2.040337 1_545
Mn14 O26 2.061816 1_555
Mn15 O31 1.903635 1_555
Mn15 O40 1.940190 1_455
Mn15 O76 1.978405 1_555
Mn15 O49 2.010296 1_555
Mn15 O71 2.040337 1_455
Mn15 O27 2.061816 1_555
Mn16 O32 1.903635 1_555
Mn16 O47 1.940190 1_555
Mn16 O75 1.978405 1_555
Mn16 O48 2.010296 1_555
Mn16 O64 2.040337 1_555
Mn16 O26 2.061816 1_555
Mn17 O33 1.903635 1_555
Mn17 O46 1.940190 1_455
Mn17 O74 1.978405 1_555
Mn17 O49 2.010296 1_555
Mn17 O65 2.040337 1_445
Mn17 O27 2.061816 1_555
Mn18 O34 1.903635 1_565
Mn18 O45 1.940190 1_555
Mn18 O73 1.978405 1_555
Mn18 O50 2.010296 1_555
Mn18 O66 2.040337 1_565
Mn18 O24 2.061816 1_555
Mn19 O35 1.903635 1_555
Mn19 O44 1.940190 1_655
Mn19 O72 1.978405 1_555
Mn19 O51 2.010296 1_555
Mn19 O67 2.040337 1_655
Mn19 O25 2.061816 1_555
Mn20 O24 1.927828 1_555
Mn20 O1 1.963465 1_555
Mn20 O7 1.963465 1_555
Mn20 O73 1.977267 1_555
Mn20 O79 1.977267 1_555
Mn20 O53 1.985248 1_555
Mn21 O25 1.927828 1_555
Mn21 O6 1.963465 1_555
Mn21 O0 1.963465 1_555
Mn21 O78 1.977267 1_555
Mn21 O72 1.977267 1_555
Mn21 O52 1.985248 1_555
Mn22 O26 1.927828 1_555
Mn22 O5 1.963465 1_555
Mn22 O3 1.963465 1_555
Mn22 O75 1.977267 1_555
Mn22 O77 1.977267 1_555
Mn22 O55 1.985248 1_555
Mn23 O27 1.927828 1_555
Mn23 O2 1.963465 1_555
Mn23 O4 1.963465 1_555
Mn23 O74 1.977267 1_555
Mn23 O76 1.977267 1_555
Mn23 O54 1.985248 1_555
Mn24 O8 1.949229 1_555
Mn24 O72 1.983099 1_555
Mn24 O57 2.005412 1_555
Mn24 O64 2.028389 1_555
Mn24 O35 2.043206 1_555
Mn24 O0 2.156835 1_555
Mn25 O9 1.949229 1_555
Mn25 O73 1.983099 1_545
Mn25 O56 2.005412 1_555
Mn25 O65 2.028389 1_545
Mn25 O34 2.043206 1_555
Mn25 O1 2.156835 1_545
Mn26 O10 1.949229 1_555
Mn26 O74 1.983099 1_565
Mn26 O59 2.005412 1_555
Mn26 O66 2.028389 1_565
Mn26 O33 2.043206 1_565
Mn26 O2 2.156835 1_565
Mn27 O11 1.949229 1_555
Mn27 O75 1.983099 1_555
Mn27 O58 2.005412 1_555
Mn27 O67 2.028389 1_555
Mn27 O32 2.043206 1_555
Mn27 O3 2.156835 1_555
Mn28 O12 1.949229 1_555
Mn28 O76 1.983099 1_555
Mn28 O61 2.005412 1_555
Mn28 O68 2.028389 1_555
Mn28 O31 2.043206 1_555
Mn28 O4 2.156835 1_555
Mn29 O13 1.949229 1_555
Mn29 O77 1.983099 1_565
Mn29 O60 2.005412 1_555
Mn29 O69 2.028389 1_565
Mn29 O30 2.043206 1_565
Mn29 O5 2.156835 1_565
Mn30 O14 1.949229 1_555
Mn30 O78 1.983099 1_545
Mn30 O63 2.005412 1_555
Mn30 O70 2.028389 1_545
Mn30 O29 2.043206 1_555
Mn30 O6 2.156835 1_545
Mn31 O15 1.949229 1_555
Mn31 O79 1.983099 1_555
Mn31 O62 2.005412 1_555
Mn31 O71 2.028389 1_555
Mn31 O28 2.043206 1_555
Mn31 O7 2.156835 1_555
Mn32 O18 1.926259 1_545
Mn32 O22 1.926259 1_555
Mn32 O14 2.042195 1_555
Mn32 O10 2.042195 1_545
Mn32 O6 2.155931 1_545
Mn32 O2 2.155931 1_555
Mn33 O23 1.926259 1_455
Mn33 O19 1.926259 1_554
Mn33 O15 2.042195 1_454
Mn33 O11 2.042195 1_555
Mn33 O7 2.155931 1_454
Mn33 O3 2.155931 1_555
Mn34 O20 1.926259 1_555
Mn34 O16 1.926259 1_555
Mn34 O8 2.042195 1_555
Mn34 O12 2.042195 1_555
Mn34 O0 2.155931 1_555
Mn34 O4 2.155931 1_555
Mn35 O17 1.926259 1_455
Mn35 O21 1.926259 1_544
Mn35 O9 2.042195 1_454
Mn35 O13 2.042195 1_545
Mn35 O1 2.155931 1_444
Mn35 O5 2.155931 1_555
O8 Pb4 2.344389 1_555
O8 Pb2 2.475658 1_555
O9 Pb5 2.344389 1_655
O9 Pb3 2.475658 1_555
O10 Pb6 2.344389 1_555
O10 Pb0 2.475658 1_555
O11 Pb7 2.344389 1_455
O11 Pb1 2.475658 1_555
O12 Pb6 2.344389 1_555
O12 Pb0 2.475658 1_555
O13 Pb7 2.344389 1_455
O13 Pb1 2.475658 1_555
O14 Pb4 2.344389 1_555
O14 Pb2 2.475658 1_555
O15 Pb5 2.344389 1_655
O15 Pb3 2.475658 1_555
O16 Pb10 2.299585 1_555
O17 Pb11 2.299585 1_545
O18 Pb8 2.299585 1_565
O19 Pb9 2.299585 1_555
O20 Pb14 2.299585 1_555
O21 Pb15 2.299585 1_565
O22 Pb12 2.299585 1_545
O23 Pb13 2.299585 1_555
O28 Pb13 2.453271 1_556
O29 Pb12 2.453271 1_545
O30 Pb15 2.453271 1_554
O31 Pb14 2.453271 1_555
O32 Pb9 2.453271 1_554
O33 Pb8 2.453271 1_555
O34 Pb11 2.453271 1_546
O35 Pb10 2.453271 1_555
O36 Pb3 2.557762 1_554
O37 Pb2 2.557762 1_555
O38 Pb1 2.557762 1_556
O39 Pb0 2.557762 1_555
O40 Pb10 2.306633 1_555
O41 Pb11 2.306633 1_545
O42 Pb8 2.306633 1_565
O43 Pb9 2.306633 1_555
O44 Pb14 2.306633 1_555
O45 Pb15 2.306633 1_565
O46 Pb12 2.306633 1_545
O47 Pb13 2.306633 1_555
O48 Pb4 2.324953 1_555
O49 Pb5 2.324953 1_555
O50 Pb6 2.324953 1_555
O51 Pb7 2.324953 1_555
