# generated using pymatgen
data_Ca5Pt3
_symmetry_space_group_name_H-M   'P 1'
_cell_length_a   8.61543801
_cell_length_b   8.61543801
_cell_length_c   8.61543801
_cell_angle_alpha   96.86450817
_cell_angle_beta   96.86450817
_cell_angle_gamma   139.54857533
_symmetry_Int_Tables_number   1
_chemical_formula_structural   Ca5Pt3
_chemical_formula_sum   'Ca10 Pt6'
_cell_volume   389.31785480
_cell_formula_units_Z   2
loop_
 _symmetry_equiv_pos_site_id
 _symmetry_equiv_pos_as_xyz
  1  'x, y, z'
loop_
 _atom_site_type_symbol
 _atom_site_label
 _atom_site_symmetry_multiplicity
 _atom_site_fract_x
 _atom_site_fract_y
 _atom_site_fract_z
 _atom_site_occupancy
  Ca  Ca0  1  0.71101248  0.58305866  0.29407114  1
  Ca  Ca1  1  0.28898752  0.41694134  0.70592886  1
  Ca  Ca2  1  0.78898752  0.08305866  0.87204618  1
  Ca  Ca3  1  0.21101248  0.91694134  0.12795382  1
  Ca  Ca4  1  0.58305866  0.28898752  0.87204618  1
  Ca  Ca5  1  0.41694134  0.71101248  0.12795382  1
  Ca  Ca6  1  0.08305866  0.21101248  0.29407114  1
  Ca  Ca7  1  0.91694134  0.78898752  0.70592886  1
  Ca  Ca8  1  0.75000000  0.25000000  0.50000000  1
  Ca  Ca9  1  0.25000000  0.75000000  0.50000000  1
  Pt  Pt0  1  0.15551445  0.65551445  0.81102890  1
  Pt  Pt1  1  0.84448555  0.34448555  0.18897110  1
  Pt  Pt2  1  0.34448555  0.15551445  0.50000000  1
  Pt  Pt3  1  0.65551445  0.84448555  0.50000000  1
  Pt  Pt4  1  0.25000000  0.25000000  0.00000000  1
  Pt  Pt5  1  0.75000000  0.75000000  -0.00000000  1
loop_
_geom_bond_atom_site_label_1
_geom_bond_atom_site_label_2
_geom_bond_distance
_geom_bond_site_symmetry_2
Ca0 Pt5 2.989913 1_555
Ca0 Pt4 2.989913 1_555
Ca0 Pt3 3.055441 1_555
Ca0 Pt1 3.125399 1_555
Ca0 Pt2 3.447663 1_555
Ca0 Pt2 3.447663 1_665
Ca1 Pt4 2.989913 1_556
Ca1 Pt5 2.989913 1_556
Ca1 Pt2 3.055441 1_555
Ca1 Pt0 3.125399 1_555
Ca1 Pt3 3.447663 1_555
Ca1 Pt3 3.447663 1_445
Ca2 Pt4 2.989913 1_656
Ca2 Pt5 2.989913 1_546
Ca2 Pt1 3.055441 1_556
Ca2 Pt3 3.125399 1_545
Ca2 Pt0 3.447663 1_655
Ca2 Pt0 3.447663 1_545
Ca3 Pt4 2.989913 1_565
Ca3 Pt5 2.989913 1_455
Ca3 Pt0 3.055441 1_554
Ca3 Pt2 3.125399 1_565
Ca3 Pt1 3.447663 1_565
Ca3 Pt1 3.447663 1_455
Ca4 Pt4 2.989913 1_556
Ca4 Pt5 2.989913 1_556
Ca4 Pt1 3.055441 1_556
Ca4 Pt2 3.125399 1_555
Ca4 Pt0 3.447663 1_545
Ca4 Pt0 3.447663 1_655
Ca5 Pt4 2.989913 1_555
Ca5 Pt5 2.989913 1_555
Ca5 Pt0 3.055441 1_554
Ca5 Pt3 3.125399 1_555
Ca5 Pt1 3.447663 1_565
Ca5 Pt1 3.447663 1_455
Ca6 Pt5 2.989913 1_445
Ca6 Pt4 2.989913 1_555
Ca6 Pt2 3.055441 1_555
Ca6 Pt1 3.125399 1_455
Ca6 Pt3 3.447663 1_555
Ca6 Pt3 3.447663 1_445
Ca7 Pt5 2.989913 1_556
Ca7 Pt4 2.989913 1_666
Ca7 Pt3 3.055441 1_555
Ca7 Pt0 3.125399 1_655
Ca7 Pt2 3.447663 1_665
Ca7 Pt2 3.447663 1_555
Ca8 Pt3 2.922361 1_545
Ca8 Pt1 2.922361 1_555
Ca8 Pt2 2.922361 1_555
Ca8 Pt0 2.922361 1_655
Ca9 Pt3 2.922361 1_555
Ca9 Pt1 2.922361 1_455
Ca9 Pt0 2.922361 1_555
Ca9 Pt2 2.922361 1_565
