# generated using pymatgen
data_BaYCo2O5
_symmetry_space_group_name_H-M   'P 1'
_cell_length_a   3.94777100
_cell_length_b   7.58428100
_cell_length_c   7.85818000
_cell_angle_alpha   90.00000000
_cell_angle_beta   90.00000000
_cell_angle_gamma   90.00000000
_symmetry_Int_Tables_number   1
_chemical_formula_structural   BaYCo2O5
_chemical_formula_sum   'Ba2 Y2 Co4 O10'
_cell_volume   235.28180343
_cell_formula_units_Z   2
loop_
 _symmetry_equiv_pos_site_id
 _symmetry_equiv_pos_as_xyz
  1  'x, y, z'
loop_
 _atom_site_type_symbol
 _atom_site_label
 _atom_site_symmetry_multiplicity
 _atom_site_fract_x
 _atom_site_fract_y
 _atom_site_fract_z
 _atom_site_occupancy
  Ba  Ba0  1  0.00000000  0.00000000  0.50000000  1
  Ba  Ba1  1  0.00000000  0.00000000  0.00000000  1
  Y  Y0  1  0.00000000  0.50000000  0.50000000  1
  Y  Y1  1  0.00000000  0.50000000  0.00000000  1
  Co  Co0  1  0.50000000  0.72793400  0.75000000  1
  Co  Co1  1  0.50000000  0.27206600  0.25000000  1
  Co  Co2  1  0.50000000  0.75116900  0.25000000  1
  Co  Co3  1  0.50000000  0.24883100  0.75000000  1
  O  O0  1  0.00000000  0.68931700  0.75000000  1
  O  O1  1  0.50000000  0.68720700  0.49688500  1
  O  O2  1  0.00000000  0.68545800  0.25000000  1
  O  O3  1  0.50000000  0.00851900  0.75000000  1
  O  O4  1  0.00000000  0.31454200  0.75000000  1
  O  O5  1  0.00000000  0.31068300  0.25000000  1
  O  O6  1  0.50000000  0.31279300  0.99688500  1
  O  O7  1  0.50000000  0.31279300  0.50311500  1
  O  O8  1  0.50000000  0.68720700  0.00311500  1
  O  O9  1  0.50000000  0.99148100  0.25000000  1
loop_
_geom_bond_atom_site_label_1
_geom_bond_atom_site_label_2
_geom_bond_distance
_geom_bond_site_symmetry_2
Ba0 O9 2.785648 1_445
Ba0 O9 2.785648 1_545
Ba0 O3 2.785648 1_455
Ba0 O3 2.785648 1_555
Ba0 O5 3.067836 1_555
Ba0 O0 3.067836 1_545
Ba0 O1 3.086208 1_445
Ba0 O7 3.086208 1_555
Ba0 O1 3.086208 1_545
Ba0 O7 3.086208 1_455
Ba0 O2 3.090373 1_545
Ba0 O4 3.090373 1_555
Ba1 O3 2.785648 1_554
Ba1 O3 2.785648 1_454
Ba1 O9 2.785648 1_445
Ba1 O9 2.785648 1_545
Ba1 O5 3.067836 1_555
Ba1 O0 3.067836 1_544
Ba1 O6 3.086208 1_554
Ba1 O8 3.086208 1_445
Ba1 O8 3.086208 1_545
Ba1 O6 3.086208 1_454
Ba1 O2 3.090373 1_545
Ba1 O4 3.090373 1_554
Co0 O0 1.995496 1_555
Co0 O0 1.995496 1_655
Co0 O8 2.012864 1_556
Co0 O1 2.012864 1_555
Co0 O3 2.128035 1_565
Co1 O5 1.995496 1_655
Co1 O5 1.995496 1_555
Co1 O7 2.012864 1_555
Co1 O6 2.012864 1_554
Co1 O9 2.128035 1_545
Co2 O9 1.822594 1_555
Co2 O1 1.999797 1_555
Co2 O8 1.999797 1_555
Co2 O2 2.035828 1_555
Co2 O2 2.035828 1_655
Co3 O3 1.822594 1_555
Co3 O6 1.999797 1_555
Co3 O7 1.999797 1_555
Co3 O4 2.035828 1_555
Co3 O4 2.035828 1_655
O0 Y1 2.433322 1_556
O0 Y0 2.433322 1_555
O1 Y0 2.431613 1_555
O1 Y0 2.431613 1_655
O2 Y0 2.416167 1_555
O2 Y1 2.416167 1_555
O4 Y1 2.416167 1_556
O4 Y0 2.416167 1_555
O5 Y0 2.433322 1_555
O5 Y1 2.433322 1_555
O6 Y1 2.431613 1_656
O6 Y1 2.431613 1_556
O7 Y0 2.431613 1_555
O7 Y0 2.431613 1_655
O8 Y1 2.431613 1_555
O8 Y1 2.431613 1_655
