# generated using pymatgen
data_CrWO4
_symmetry_space_group_name_H-M   'P 1'
_cell_length_a   9.31325261
_cell_length_b   7.36356843
_cell_length_c   7.22691123
_cell_angle_alpha   79.32580518
_cell_angle_beta   50.98431190
_cell_angle_gamma   49.68988292
_symmetry_Int_Tables_number   1
_chemical_formula_structural   CrWO4
_chemical_formula_sum   'Cr4 W4 O16'
_cell_volume   272.24329204
_cell_formula_units_Z   4
loop_
 _symmetry_equiv_pos_site_id
 _symmetry_equiv_pos_as_xyz
  1  'x, y, z'
loop_
 _atom_site_type_symbol
 _atom_site_label
 _atom_site_symmetry_multiplicity
 _atom_site_fract_x
 _atom_site_fract_y
 _atom_site_fract_z
 _atom_site_occupancy
  Cr  Cr0  1  0.00000000  0.00000000  0.50000000  1
  Cr  Cr1  1  0.00000000  0.50000000  0.00000000  1
  Cr  Cr2  1  0.50000000  0.50000000  0.00000000  1
  Cr  Cr3  1  0.50000000  0.00000000  0.50000000  1
  W  W0  1  0.00000000  0.50000000  0.50000000  1
  W  W1  1  0.00000000  0.00000000  0.00000000  1
  W  W2  1  0.50000000  0.00000000  0.00000000  1
  W  W3  1  0.50000000  0.50000000  0.50000000  1
  O  O0  1  0.34722300  0.34722300  0.15277700  1
  O  O1  1  0.84722300  0.84722300  0.65277700  1
  O  O2  1  0.84544200  0.64693200  0.35306800  1
  O  O3  1  0.15455800  0.35306800  0.64693200  1
  O  O4  1  0.85059700  0.14940300  0.85059700  1
  O  O5  1  0.33028000  0.86588600  0.66972000  1
  O  O6  1  0.86588600  0.33028000  0.13411400  1
  O  O7  1  0.64693200  0.84544200  0.15455800  1
  O  O8  1  0.14940300  0.85059700  0.14940300  1
  O  O9  1  0.66972000  0.13411400  0.33028000  1
  O  O10  1  0.34701100  0.65298900  0.34701100  1
  O  O11  1  0.13411400  0.66972000  0.86588600  1
  O  O12  1  0.15277700  0.15277700  0.34722300  1
  O  O13  1  0.35306800  0.15455800  0.84544200  1
  O  O14  1  0.65298900  0.34701100  0.65298900  1
  O  O15  1  0.65277700  0.65277700  0.84722300  1
loop_
_geom_bond_atom_site_label_1
_geom_bond_atom_site_label_2
_geom_bond_distance
_geom_bond_site_symmetry_2
Cr0 O10 2.014762 1_545
Cr0 O14 2.014762 1_455
Cr0 O12 2.035212 1_555
Cr0 O1 2.035212 1_445
Cr0 O4 2.044350 1_455
Cr0 O8 2.044350 1_545
Cr1 O11 2.026840 1_554
Cr1 O6 2.026840 1_455
Cr1 O2 2.033836 1_455
Cr1 O7 2.033836 1_455
Cr1 O13 2.033836 1_554
Cr1 O3 2.033836 1_554
Cr2 O10 2.014762 1_555
Cr2 O14 2.014762 1_554
Cr2 O15 2.035212 1_554
Cr2 O0 2.035212 1_555
Cr2 O4 2.044350 1_554
Cr2 O8 2.044350 1_555
Cr3 O9 2.026840 1_555
Cr3 O5 2.026840 1_545
Cr3 O13 2.033836 1_555
Cr3 O2 2.033836 1_545
Cr3 O3 2.033836 1_555
Cr3 O7 2.033836 1_545
O0 W2 2.035100 1_555
O0 W0 2.035100 1_555
O1 W0 2.035100 1_655
O1 W2 2.035100 1_566
O2 W0 1.963155 1_655
O3 W0 1.963155 1_555
O4 W1 1.945027 1_656
O5 W1 1.957798 1_566
O5 W3 2.129530 1_555
O6 W1 1.957798 1_655
O6 W3 2.129530 1_555
O7 W2 1.963155 1_565
O8 W1 1.945027 1_565
O9 W1 1.957798 1_655
O9 W3 2.129530 1_555
O10 W3 1.991712 1_555
O11 W1 1.957798 1_566
O11 W3 2.129530 1_555
O12 W2 2.035100 1_555
O12 W0 2.035100 1_555
O13 W2 1.963155 1_556
O14 W3 1.991712 1_555
O15 W0 2.035100 1_655
O15 W2 2.035100 1_566
