# generated using pymatgen
data_SbO2
_symmetry_space_group_name_H-M   'P 1'
_cell_length_a   6.50395500
_cell_length_b   7.42307053
_cell_length_c   15.66415239
_cell_angle_alpha   96.03557678
_cell_angle_beta   89.24015032
_cell_angle_gamma   113.85153573
_symmetry_Int_Tables_number   1
_chemical_formula_structural   SbO2
_chemical_formula_sum   'Sb12 O24'
_cell_volume   687.47766314
_cell_formula_units_Z   12
loop_
 _symmetry_equiv_pos_site_id
 _symmetry_equiv_pos_as_xyz
  1  'x, y, z'
loop_
 _atom_site_type_symbol
 _atom_site_label
 _atom_site_symmetry_multiplicity
 _atom_site_fract_x
 _atom_site_fract_y
 _atom_site_fract_z
 _atom_site_occupancy
  Sb  Sb0  1  0.68828000  0.33583100  0.15435600  1
  Sb  Sb1  1  0.48014600  0.91219800  0.52754600  1
  Sb  Sb2  1  0.40351400  0.23948400  0.31974400  1
  Sb  Sb3  1  0.10990900  0.74108400  0.16305200  1
  Sb  Sb4  1  0.05455600  0.13556800  0.46199000  1
  Sb  Sb5  1  0.18332800  0.34795800  0.16378000  1
  Sb  Sb6  1  0.65087900  0.75576600  0.67754900  1
  Sb  Sb7  1  0.52037400  0.50236200  0.49799300  1
  Sb  Sb8  1  0.33401100  0.66539800  0.84197600  1
  Sb  Sb9  1  0.74287800  0.09300400  0.84539100  1
  Sb  Sb10  1  0.85637000  0.64799300  0.85057600  1
  Sb  Sb11  1  0.26963600  0.19622400  0.94414500  1
  O  O0  1  0.29320800  0.59834800  0.11219800  1
  O  O1  1  0.88568000  0.21067500  0.09781900  1
  O  O2  1  0.99405800  0.49565100  0.23193500  1
  O  O3  1  0.81666100  0.58190600  0.09932800  1
  O  O4  1  0.65347300  0.37339600  0.40862100  1
  O  O5  1  0.56921500  0.12946900  0.23626500  1
  O  O6  1  0.38275400  0.24345400  0.08314700  1
  O  O7  1  0.49965000  0.45805700  0.23709300  1
  O  O8  1  0.22527700  0.01144000  0.38351500  1
  O  O9  1  0.31295700  0.25756700  0.54670500  1
  O  O10  1  0.24824000  0.38587500  0.40383700  1
  O  O11  1  0.12010000  0.14925100  0.24341900  1
  O  O12  1  0.90406900  0.85423500  0.76170000  1
  O  O13  1  0.75215900  0.59088800  0.59108800  1
  O  O14  1  0.60352800  0.75540900  0.44623500  1
  O  O15  1  0.74387400  0.99106000  0.61059500  1
  O  O16  1  0.61672600  0.85419300  0.90967600  1
  O  O17  1  0.48856300  0.54593200  0.75305100  1
  O  O18  1  0.49150100  0.90427000  0.75798400  1
  O  O19  1  0.37155000  0.65641400  0.58658700  1
  O  O20  1  0.28397800  0.45761200  0.91768200  1
  O  O21  1  0.17118400  0.82272000  0.90400200  1
  O  O22  1  0.04147600  0.52837900  0.77955400  1
  O  O23  1  0.56964200  0.23762700  0.90476500  1
loop_
_geom_bond_atom_site_label_1
_geom_bond_atom_site_label_2
_geom_bond_distance
_geom_bond_site_symmetry_2
O0 Sb5 1.960728 1_555
O0 Sb3 1.999328 1_555
O1 Sb0 2.014256 1_555
O1 Sb5 2.022342 1_655
O2 Sb3 2.081537 1_655
O2 Sb5 2.160450 1_655
O2 Sb0 2.166143 1_555
O3 Sb0 1.963490 1_555
O3 Sb3 2.002523 1_655
O4 Sb7 1.995475 1_555
O4 Sb2 2.007816 1_555
O5 Sb2 1.997024 1_555
O5 Sb0 2.004992 1_555
O6 Sb5 2.107999 1_555
O6 Sb0 2.111638 1_555
O6 Sb11 2.253529 1_554
O7 Sb2 2.073489 1_555
O7 Sb0 2.149118 1_555
O7 Sb5 2.173676 1_555
O8 Sb2 1.986220 1_555
O8 Sb4 2.036167 1_555
O9 Sb4 1.995265 1_555
O9 Sb7 1.996455 1_555
O10 Sb4 2.074016 1_555
O10 Sb2 2.118279 1_555
O10 Sb7 2.149179 1_555
O11 Sb5 1.945191 1_555
O11 Sb2 2.041409 1_555
O12 Sb6 1.965974 1_555
O12 Sb10 2.104951 1_555
O12 Sb9 2.633773 1_565
O13 Sb7 1.971438 1_555
O13 Sb6 2.011430 1_555
O14 Sb7 1.991275 1_555
O14 Sb1 2.009288 1_555
O15 Sb6 2.007590 1_555
O15 Sb1 2.015974 1_555
O16 Sb9 2.001716 1_565
O16 Sb8 2.030964 1_555
O16 Sb10 2.687444 1_555
O17 Sb6 1.990926 1_555
O17 Sb8 2.039885 1_555
O17 Sb10 2.649175 1_555
O18 Sb9 2.077006 1_565
O18 Sb6 2.115321 1_555
O18 Sb8 2.215909 1_555
O19 Sb1 2.055874 1_555
O19 Sb6 2.153772 1_555
O19 Sb7 2.167089 1_555
O20 Sb8 1.964612 1_555
O20 Sb11 1.991742 1_555
O21 Sb8 2.040486 1_555
O21 Sb10 2.060205 1_455
O21 Sb11 2.588573 1_565
O22 Sb8 1.971229 1_555
O22 Sb10 2.024034 1_455
O23 Sb11 1.950693 1_555
O23 Sb9 2.006852 1_555
