# generated using pymatgen
data_SrBO3
_symmetry_space_group_name_H-M   'P 1'
_cell_length_a   5.80494300
_cell_length_b   6.84678700
_cell_length_c   7.05723500
_cell_angle_alpha   90.00000000
_cell_angle_beta   90.00000000
_cell_angle_gamma   90.00000000
_symmetry_Int_Tables_number   1
_chemical_formula_structural   SrBO3
_chemical_formula_sum   'Sr4 B4 O12'
_cell_volume   280.49127487
_cell_formula_units_Z   4
loop_
 _symmetry_equiv_pos_site_id
 _symmetry_equiv_pos_as_xyz
  1  'x, y, z'
loop_
 _atom_site_type_symbol
 _atom_site_label
 _atom_site_symmetry_multiplicity
 _atom_site_fract_x
 _atom_site_fract_y
 _atom_site_fract_z
 _atom_site_occupancy
  Sr  Sr0  1  0.25000000  0.15183200  0.33426100  1
  Sr  Sr1  1  0.25000000  0.34816800  0.83426100  1
  Sr  Sr2  1  0.75000000  0.84816800  0.66573900  1
  Sr  Sr3  1  0.75000000  0.65183200  0.16573900  1
  B  B0  1  0.25000000  0.71397400  0.41264600  1
  B  B1  1  0.25000000  0.78602600  0.91264600  1
  B  B2  1  0.75000000  0.28602600  0.58735400  1
  B  B3  1  0.75000000  0.21397400  0.08735400  1
  O  O0  1  0.45696300  0.80648600  0.38770100  1
  O  O1  1  0.04303700  0.69351400  0.88770100  1
  O  O2  1  0.95696300  0.19351400  0.61229900  1
  O  O3  1  0.54303700  0.30648600  0.11229900  1
  O  O4  1  0.54303700  0.19351400  0.61229900  1
  O  O5  1  0.95696300  0.30648600  0.11229900  1
  O  O6  1  0.04303700  0.80648600  0.38770100  1
  O  O7  1  0.45696300  0.69351400  0.88770100  1
  O  O8  1  0.25000000  0.51996200  0.46523700  1
  O  O9  1  0.25000000  0.98003800  0.96523700  1
  O  O10  1  0.75000000  0.48003800  0.53476300  1
  O  O11  1  0.75000000  0.01996200  0.03476300  1
loop_
_geom_bond_atom_site_label_1
_geom_bond_atom_site_label_2
_geom_bond_distance
_geom_bond_site_symmetry_2
B0 O0 1.369519 1_555
B0 O6 1.369519 1_555
B0 O8 1.379234 1_555
B1 O7 1.369519 1_555
B1 O1 1.369519 1_555
B1 O9 1.379234 1_555
B2 O2 1.369519 1_555
B2 O4 1.369519 1_555
B2 O10 1.379234 1_555
B3 O3 1.369519 1_555
B3 O5 1.369519 1_555
B3 O11 1.379234 1_555
O0 Sr3 2.543340 1_555
O0 Sr2 2.612510 1_555
O0 Sr0 2.678904 1_565
O1 Sr2 2.543340 1_455
O1 Sr3 2.612510 1_456
O1 Sr1 2.678904 1_555
O2 Sr1 2.543340 1_655
O2 Sr0 2.612510 1_655
O2 Sr2 2.678904 1_545
O3 Sr0 2.543340 1_555
O3 Sr1 2.612510 1_554
O3 Sr3 2.678904 1_555
O4 Sr1 2.543340 1_555
O4 Sr0 2.612510 1_555
O4 Sr2 2.678904 1_545
O5 Sr0 2.543340 1_655
O5 Sr1 2.612510 1_654
O5 Sr3 2.678904 1_555
O6 Sr3 2.543340 1_455
O6 Sr2 2.612510 1_455
O6 Sr0 2.678904 1_565
O7 Sr2 2.543340 1_555
O7 Sr3 2.612510 1_556
O7 Sr1 2.678904 1_555
O8 Sr0 2.684649 1_555
O8 Sr1 2.857596 1_555
O9 Sr1 2.684649 1_565
O9 Sr0 2.857596 1_566
O10 Sr2 2.684649 1_555
O10 Sr3 2.857596 1_555
O11 Sr3 2.684649 1_545
O11 Sr2 2.857596 1_544
