# generated using pymatgen
data_B2CN
_symmetry_space_group_name_H-M   'P 1'
_cell_length_a   2.50956700
_cell_length_b   2.55155100
_cell_length_c   7.90989900
_cell_angle_alpha   90.00000000
_cell_angle_beta   90.00000000
_cell_angle_gamma   90.00000000
_symmetry_Int_Tables_number   1
_chemical_formula_structural   B2CN
_chemical_formula_sum   'B4 C2 N2'
_cell_volume   50.64936284
_cell_formula_units_Z   2
loop_
 _symmetry_equiv_pos_site_id
 _symmetry_equiv_pos_as_xyz
  1  'x, y, z'
loop_
 _atom_site_type_symbol
 _atom_site_label
 _atom_site_symmetry_multiplicity
 _atom_site_fract_x
 _atom_site_fract_y
 _atom_site_fract_z
 _atom_site_occupancy
  B  B0  1  0.25000000  0.00000000  0.68866300  1
  B  B1  1  0.75000000  0.00000000  0.31133700  1
  B  B2  1  0.25000000  0.50000000  0.08453400  1
  B  B3  1  0.75000000  0.50000000  0.91546600  1
  C  C0  1  0.25000000  0.50000000  0.55163300  1
  C  C1  1  0.75000000  0.50000000  0.44836700  1
  N  N0  1  0.25000000  0.00000000  0.19469000  1
  N  N1  1  0.75000000  0.00000000  0.80531000  1
loop_
_geom_bond_atom_site_label_1
_geom_bond_atom_site_label_2
_geom_bond_distance
_geom_bond_site_symmetry_2
B0 N1 1.557496 1_455
B0 N1 1.557496 1_555
B0 C0 1.674045 1_555
B0 C0 1.674045 1_545
B1 N0 1.557496 1_655
B1 N0 1.557496 1_555
B1 C1 1.674045 1_545
B1 C1 1.674045 1_555
B2 N0 1.544929 1_565
B2 N0 1.544929 1_555
B3 N1 1.544929 1_555
B3 N1 1.544929 1_565
C0 C1 1.497225 1_455
C0 C1 1.497225 1_555
