# generated using pymatgen
data_LiTiFe5O8
_symmetry_space_group_name_H-M   'P 1'
_cell_length_a   6.24117301
_cell_length_b   6.17697220
_cell_length_c   6.16469790
_cell_angle_alpha   90.00416405
_cell_angle_beta   60.28290255
_cell_angle_gamma   119.63851377
_symmetry_Int_Tables_number   1
_chemical_formula_structural   LiTiFe5O8
_chemical_formula_sum   'Li1 Ti1 Fe5 O8'
_cell_volume   169.67951385
_cell_formula_units_Z   1
loop_
 _symmetry_equiv_pos_site_id
 _symmetry_equiv_pos_as_xyz
  1  'x, y, z'
loop_
 _atom_site_type_symbol
 _atom_site_label
 _atom_site_symmetry_multiplicity
 _atom_site_fract_x
 _atom_site_fract_y
 _atom_site_fract_z
 _atom_site_occupancy
  Li  Li0  1  0.21419900  0.12819900  0.65099700  1
  Ti  Ti0  1  0.55754000  0.00407300  0.46845400  1
  Fe  Fe0  1  0.28078800  0.12434200  0.11131800  1
  Fe  Fe1  1  0.71524400  0.85737200  0.88915800  1
  Fe  Fe2  1  0.58017300  0.56208200  0.45815000  1
  Fe  Fe3  1  0.01346800  0.50508200  0.98055600  1
  Fe  Fe4  1  0.01210500  0.50406200  0.50607400  1
  O  O0  1  0.03462200  0.74246400  0.23258900  1
  O  O1  1  0.99038000  0.22443200  0.25441300  1
  O  O2  1  0.51212400  0.24528700  0.72367200  1
  O  O3  1  0.51072700  0.24478900  0.26926500  1
  O  O4  1  0.01305200  0.27718400  0.74333300  1
  O  O5  1  0.05409700  0.77926600  0.72259800  1
  O  O6  1  0.50640500  0.77122800  0.27344900  1
  O  O7  1  0.50507600  0.76972000  0.71597400  1
loop_
_geom_bond_atom_site_label_1
_geom_bond_atom_site_label_2
_geom_bond_distance
_geom_bond_site_symmetry_2
Li0 O4 1.783547 1_555
Li0 O5 1.808749 1_545
Li0 O2 1.917541 1_555
Li0 O3 1.961046 1_555
Fe0 O0 1.939232 1_545
Fe0 O2 1.966254 1_554
Fe0 O3 1.972397 1_555
Fe0 O1 1.992127 1_455
Fe1 O7 1.959445 1_555
Fe1 O6 1.961428 1_556
Fe1 O4 2.136352 1_665
Fe1 O5 2.148440 1_655
Fe1 Li0 2.228578 1_665
Fe2 O0 2.045488 1_655
Fe2 O7 2.060722 1_555
Fe2 O6 2.070177 1_555
Fe2 O3 2.246071 1_555
Fe2 Li0 2.251007 1_555
Fe2 O2 2.275555 1_555
Fe2 O4 2.527093 1_555
Fe3 O4 2.029820 1_555
Fe3 O0 2.143140 1_556
Fe3 O5 2.153454 1_555
Fe3 O7 2.196503 1_555
Fe3 O3 2.252122 1_456
Fe3 O1 2.321285 1_456
Fe4 O4 2.029866 1_555
Fe4 O0 2.142783 1_555
Fe4 O5 2.155459 1_555
Fe4 O6 2.208165 1_555
Fe4 O2 2.238027 1_455
Fe4 O1 2.320614 1_455
O1 Ti0 1.928986 1_555
O2 Ti0 2.179676 1_555
O3 Ti0 2.142355 1_555
O5 Ti0 2.249411 1_565
O6 Ti0 1.881961 1_565
O7 Ti0 1.888711 1_565
