# generated using pymatgen
data_BiTeNO6
_symmetry_space_group_name_H-M   'P 1'
_cell_length_a   9.04492363
_cell_length_b   7.39396633
_cell_length_c   8.19238192
_cell_angle_alpha   65.83183338
_cell_angle_beta   90.00000000
_cell_angle_gamma   90.00000000
_symmetry_Int_Tables_number   1
_chemical_formula_structural   BiTeNO6
_chemical_formula_sum   'Bi4 Te4 N4 O24'
_cell_volume   499.86526315
_cell_formula_units_Z   4
loop_
 _symmetry_equiv_pos_site_id
 _symmetry_equiv_pos_as_xyz
  1  'x, y, z'
loop_
 _atom_site_type_symbol
 _atom_site_label
 _atom_site_symmetry_multiplicity
 _atom_site_fract_x
 _atom_site_fract_y
 _atom_site_fract_z
 _atom_site_occupancy
  Bi  Bi0  1  0.69695830  0.47358426  0.69610495  1
  Bi  Bi1  1  0.19695830  0.02641574  0.30389505  1
  Bi  Bi2  1  0.30304170  0.52641574  0.30389505  1
  Bi  Bi3  1  0.80304170  0.97358426  0.69610495  1
  Te  Te0  1  0.58996470  0.89240276  0.34666768  1
  Te  Te1  1  0.08996470  0.60759724  0.65333232  1
  Te  Te2  1  0.41003530  0.10759724  0.65333232  1
  Te  Te3  1  0.91003530  0.39240276  0.34666768  1
  N  N0  1  0.38742762  0.36805208  0.95059320  1
  N  N1  1  0.88742762  0.13194792  0.04940680  1
  N  N2  1  0.61257238  0.63194792  0.04940680  1
  N  N3  1  0.11257238  0.86805208  0.95059320  1
  O  O0  1  0.39198129  0.80558497  0.35687450  1
  O  O1  1  0.89198129  0.69441503  0.64312550  1
  O  O2  1  0.60801871  0.19441503  0.64312550  1
  O  O3  1  0.10801871  0.30558497  0.35687450  1
  O  O4  1  0.60818525  0.84772927  0.59273863  1
  O  O5  1  0.10818525  0.65227073  0.40726137  1
  O  O6  1  0.39181475  0.15227073  0.40726137  1
  O  O7  1  0.89181475  0.34772927  0.59273863  1
  O  O8  1  0.66431969  0.63594953  0.40389226  1
  O  O9  1  0.16431969  0.86405047  0.59610774  1
  O  O10  1  0.33568031  0.36405047  0.59610774  1
  O  O11  1  0.83568031  0.13594953  0.40389226  1
  O  O12  1  0.77842623  0.13252193  0.95021185  1
  O  O13  1  0.27842623  0.36747807  0.04978815  1
  O  O14  1  0.22157377  0.86747807  0.04978815  1
  O  O15  1  0.72157377  0.63252193  0.95021185  1
  O  O16  1  0.42860483  0.53042490  0.83196582  1
  O  O17  1  0.92860483  0.96957510  0.16803418  1
  O  O18  1  0.57139517  0.46957510  0.16803418  1
  O  O19  1  0.07139517  0.03042490  0.83196582  1
  O  O20  1  0.55058202  0.79159472  0.02762111  1
  O  O21  1  0.05058202  0.70840528  0.97237889  1
  O  O22  1  0.44941798  0.20840528  0.97237889  1
  O  O23  1  0.94941798  0.29159472  0.02762111  1
loop_
_geom_bond_atom_site_label_1
_geom_bond_atom_site_label_2
_geom_bond_distance
_geom_bond_site_symmetry_2
Bi0 O8 2.214941 1_555
Bi0 O7 2.309671 1_555
Bi0 O1 2.320723 1_555
Bi0 O2 2.414520 1_555
Bi0 O12 2.633905 1_555
Bi0 O4 2.663952 1_555
Bi0 O16 2.773079 1_555
Bi0 O15 2.787018 1_555
Bi1 O9 2.214941 1_545
Bi1 O6 2.309671 1_555
Bi1 O0 2.320723 1_545
Bi1 O3 2.414520 1_555
Bi1 O13 2.633905 1_555
Bi1 O5 2.663952 1_545
Bi1 O17 2.773079 1_445
Bi1 O14 2.787018 1_545
Bi2 O10 2.214941 1_555
Bi2 O5 2.309671 1_555
Bi2 O3 2.320723 1_555
Bi2 O0 2.414520 1_555
Bi2 O14 2.633905 1_555
Bi2 O6 2.663952 1_555
Bi2 O18 2.773079 1_555
Bi2 O13 2.787018 1_555
Bi3 O11 2.214941 1_565
Bi3 O4 2.309671 1_555
Bi3 O2 2.320723 1_565
Bi3 O1 2.414520 1_555
Bi3 O15 2.633905 1_555
Bi3 O7 2.663952 1_565
Bi3 O19 2.773079 1_665
Bi3 O12 2.787018 1_565
N0 O22 1.251849 1_555
N0 O16 1.252673 1_555
N0 O13 1.276558 1_556
N1 O23 1.251849 1_555
N1 O17 1.252673 1_545
N1 O12 1.276558 1_554
N2 O20 1.251849 1_555
N2 O18 1.252673 1_555
N2 O15 1.276558 1_554
N3 O21 1.251849 1_555
N3 O19 1.252673 1_565
N3 O14 1.276558 1_556
O0 Te0 1.892585 1_555
O1 Te1 1.892585 1_655
O2 Te2 1.892585 1_555
O3 Te3 1.892585 1_455
O4 Te0 1.911780 1_555
O5 Te1 1.911780 1_555
O6 Te2 1.911780 1_555
O7 Te3 1.911780 1_555
O8 Te0 1.881430 1_555
O9 Te1 1.881430 1_555
O10 Te2 1.881430 1_555
O11 Te3 1.881430 1_555
