# generated using pymatgen
data_Nd3TaO7
_symmetry_space_group_name_H-M   'P 1'
_cell_length_a   6.64323829
_cell_length_b   6.64323829
_cell_length_c   7.67514554
_cell_angle_alpha   90.00000000
_cell_angle_beta   90.00000000
_cell_angle_gamma   111.26212856
_symmetry_Int_Tables_number   1
_chemical_formula_structural   Nd3TaO7
_chemical_formula_sum   'Nd6 Ta2 O14'
_cell_volume   315.66766499
_cell_formula_units_Z   2
loop_
 _symmetry_equiv_pos_site_id
 _symmetry_equiv_pos_as_xyz
  1  'x, y, z'
loop_
 _atom_site_type_symbol
 _atom_site_label
 _atom_site_symmetry_multiplicity
 _atom_site_fract_x
 _atom_site_fract_y
 _atom_site_fract_z
 _atom_site_occupancy
  Nd  Nd0  1  0.00000000  -0.00000000  0.50000000  1
  Nd  Nd1  1  0.00000000  -0.00000000  -0.00000000  1
  Nd  Nd2  1  0.52243707  0.06909562  0.25000000  1
  Nd  Nd3  1  0.93090438  0.47756293  0.75000000  1
  Nd  Nd4  1  0.47756293  0.93090438  0.75000000  1
  Nd  Nd5  1  0.06909562  0.52243707  0.25000000  1
  Ta  Ta0  1  0.50000000  0.50000000  0.50000000  1
  Ta  Ta1  1  0.50000000  0.50000000  -0.00000000  1
  O  O0  1  0.43082397  0.43082397  0.25000000  1
  O  O1  1  0.56917603  0.56917603  0.75000000  1
  O  O2  1  0.43889403  0.18649032  0.53465074  1
  O  O3  1  0.81350968  0.56110597  0.46534926  1
  O  O4  1  0.43889403  0.18649032  0.96534926  1
  O  O5  1  0.81350968  0.56110597  0.03465074  1
  O  O6  1  0.56110597  0.81350968  0.46534926  1
  O  O7  1  0.18649032  0.43889403  0.53465074  1
  O  O8  1  0.56110597  0.81350968  0.03465074  1
  O  O9  1  0.18649032  0.43889403  0.96534926  1
  O  O10  1  0.15411184  0.89192246  0.25000000  1
  O  O11  1  0.10807754  0.84588816  0.75000000  1
  O  O12  1  0.84588816  0.10807754  0.75000000  1
  O  O13  1  0.89192246  0.15411184  0.25000000  1
loop_
_geom_bond_atom_site_label_1
_geom_bond_atom_site_label_2
_geom_bond_distance
_geom_bond_site_symmetry_2
Nd0 O10 2.403860 1_545
Nd0 O11 2.403860 1_545
Nd0 O13 2.403860 1_455
Nd0 O12 2.403860 1_455
Nd0 O6 2.736226 1_445
Nd0 O7 2.736226 1_555
Nd0 O2 2.736226 1_555
Nd0 O3 2.736226 1_445
Nd1 O12 2.403860 1_454
Nd1 O10 2.403860 1_545
Nd1 O11 2.403860 1_544
Nd1 O13 2.403860 1_455
Nd1 O4 2.736226 1_554
Nd1 O9 2.736226 1_554
Nd1 O8 2.736226 1_445
Nd1 O5 2.736226 1_445
Nd2 O10 2.298643 1_545
Nd2 O13 2.310518 1_555
Nd2 O8 2.448904 1_545
Nd2 O6 2.448904 1_545
Nd2 O2 2.450148 1_555
Nd2 O4 2.450148 1_554
Nd2 O0 2.684354 1_555
Nd3 O11 2.298643 1_655
Nd3 O12 2.310518 1_555
Nd3 O9 2.448904 1_655
Nd3 O7 2.448904 1_655
Nd3 O3 2.450148 1_555
Nd3 O5 2.450148 1_556
Nd3 O1 2.684354 1_555
Nd4 O12 2.298643 1_565
Nd4 O11 2.310518 1_555
Nd4 O4 2.448904 1_565
Nd4 O2 2.448904 1_565
Nd4 O8 2.450148 1_556
Nd4 O6 2.450148 1_555
Nd4 O1 2.684354 1_555
Nd5 O13 2.298643 1_455
Nd5 O10 2.310518 1_555
Nd5 O5 2.448904 1_455
Nd5 O3 2.448904 1_455
Nd5 O7 2.450148 1_555
Nd5 O9 2.450148 1_554
Nd5 O0 2.684354 1_555
O0 Ta1 1.987700 1_555
O0 Ta0 1.987700 1_555
O1 Ta0 1.987700 1_555
O1 Ta1 1.987700 1_556
O2 Ta0 1.989987 1_555
O3 Ta0 1.989987 1_555
O4 Ta1 1.989987 1_556
O5 Ta1 1.989987 1_555
O6 Ta0 1.989987 1_555
O7 Ta0 1.989987 1_555
O8 Ta1 1.989987 1_555
O9 Ta1 1.989987 1_556
