# generated using pymatgen
data_Ca5Si(PO6)2
_symmetry_space_group_name_H-M   'P 1'
_cell_length_a   6.79427300
_cell_length_b   10.19719700
_cell_length_c   15.56043100
_cell_angle_alpha   90.00000000
_cell_angle_beta   90.00000000
_cell_angle_gamma   90.00000000
_symmetry_Int_Tables_number   1
_chemical_formula_structural   Ca5Si(PO6)2
_chemical_formula_sum   'Ca20 Si4 P8 O48'
_cell_volume   1078.06618711
_cell_formula_units_Z   4
loop_
 _symmetry_equiv_pos_site_id
 _symmetry_equiv_pos_as_xyz
  1  'x, y, z'
loop_
 _atom_site_type_symbol
 _atom_site_label
 _atom_site_symmetry_multiplicity
 _atom_site_fract_x
 _atom_site_fract_y
 _atom_site_fract_z
 _atom_site_occupancy
  Ca  Ca0  1  0.21033300  0.68574100  0.49781700  1
  Ca  Ca1  1  0.71033300  0.81425900  0.50218300  1
  Ca  Ca2  1  0.28966700  0.31425900  0.99781700  1
  Ca  Ca3  1  0.78966700  0.18574100  0.00218300  1
  Ca  Ca4  1  0.88404400  0.56823600  0.65954000  1
  Ca  Ca5  1  0.38404400  0.93176400  0.34046000  1
  Ca  Ca6  1  0.61595600  0.43176400  0.15954000  1
  Ca  Ca7  1  0.11595600  0.06823600  0.84046000  1
  Ca  Ca8  1  0.61835400  0.43764400  0.84308500  1
  Ca  Ca9  1  0.11835400  0.06235600  0.15691500  1
  Ca  Ca10  1  0.88164600  0.56235600  0.34308500  1
  Ca  Ca11  1  0.38164600  0.93764400  0.65691500  1
  Ca  Ca12  1  0.07737800  0.66146500  0.85683900  1
  Ca  Ca13  1  0.57737800  0.83853500  0.14316100  1
  Ca  Ca14  1  0.42262200  0.33853500  0.35683900  1
  Ca  Ca15  1  0.92262200  0.16146500  0.64316100  1
  Ca  Ca16  1  0.41402300  0.33346800  0.64316500  1
  Ca  Ca17  1  0.91402300  0.16653200  0.35683500  1
  Ca  Ca18  1  0.08597700  0.66653200  0.14316500  1
  Ca  Ca19  1  0.58597700  0.83346800  0.85683500  1
  Si  Si0  1  0.89837600  0.86849500  0.67799100  1
  Si  Si1  1  0.39837600  0.63150500  0.32200900  1
  Si  Si2  1  0.60162400  0.13150500  0.17799100  1
  Si  Si3  1  0.10162400  0.36849500  0.82200900  1
  P  P0  1  0.22357700  0.07828300  0.49902900  1
  P  P1  1  0.72357700  0.42171700  0.50097100  1
  P  P2  1  0.27642300  0.92171700  0.99902900  1
  P  P3  1  0.77642300  0.57828300  0.00097100  1
  P  P4  1  0.60152800  0.13086700  0.82265200  1
  P  P5  1  0.10152800  0.36913300  0.17734800  1
  P  P6  1  0.89847200  0.86913300  0.32265200  1
  P  P7  1  0.39847200  0.63086700  0.67734800  1
  O  O0  1  0.71528600  0.95599600  0.63701500  1
  O  O1  1  0.21528600  0.54400400  0.36298500  1
  O  O2  1  0.78471400  0.04400400  0.13701500  1
  O  O3  1  0.28471400  0.45599600  0.86298500  1
  O  O4  1  0.77450200  0.04823600  0.85933200  1
  O  O5  1  0.27450200  0.45176400  0.14066800  1
  O  O6  1  0.72549800  0.95176400  0.35933200  1
  O  O7  1  0.22549800  0.54823600  0.64066800  1
  O  O8  1  0.29538700  0.14689500  0.58291600  1
  O  O9  1  0.79538700  0.35310500  0.41708400  1
  O  O10  1  0.20461300  0.85310500  0.08291600  1
  O  O11  1  0.70461300  0.64689500  0.91708400  1
  O  O12  1  0.20589600  0.85351800  0.91478400  1
  O  O13  1  0.70589600  0.64648200  0.08521600  1
  O  O14  1  0.29410400  0.14648200  0.41478400  1
  O  O15  1  0.79410400  0.35351800  0.58521600  1
  O  O16  1  0.99573800  0.07987900  0.49921300  1
  O  O17  1  0.49573800  0.42012100  0.50078700  1
  O  O18  1  0.50426200  0.92012100  0.99921300  1
  O  O19  1  0.00426200  0.57987900  0.00078700  1
  O  O20  1  0.06607000  0.97659300  0.70698100  1
  O  O21  1  0.56607000  0.52340700  0.29301900  1
  O  O22  1  0.43393000  0.02340700  0.20698100  1
  O  O23  1  0.93393000  0.47659300  0.79301900  1
  O  O24  1  0.44229000  0.02926600  0.79518200  1
  O  O25  1  0.94229000  0.47073400  0.20481800  1
  O  O26  1  0.05771000  0.97073400  0.29518200  1
  O  O27  1  0.55771000  0.52926600  0.70481800  1
  O  O28  1  0.84059900  0.77130500  0.75878200  1
  O  O29  1  0.34059900  0.72869500  0.24121800  1
  O  O30  1  0.65940100  0.22869500  0.25878200  1
  O  O31  1  0.15940100  0.27130500  0.74121800  1
  O  O32  1  0.65643700  0.22255600  0.74616400  1
  O  O33  1  0.15643700  0.27744400  0.25383600  1
  O  O34  1  0.84356300  0.77744400  0.24616400  1
  O  O35  1  0.34356300  0.72255600  0.75383600  1
  O  O36  1  0.31561000  0.93712700  0.50008600  1
  O  O37  1  0.81561000  0.56287300  0.49991400  1
  O  O38  1  0.18439000  0.06287300  0.00008600  1
  O  O39  1  0.68439000  0.43712700  0.99991400  1
  O  O40  1  0.97549100  0.77286100  0.59859400  1
  O  O41  1  0.47549100  0.72713900  0.40140600  1
  O  O42  1  0.52450900  0.22713900  0.09859400  1
  O  O43  1  0.02450900  0.27286100  0.90140600  1
  O  O44  1  0.52662500  0.22032100  0.89694100  1
  O  O45  1  0.02662500  0.27967900  0.10305900  1
  O  O46  1  0.97337500  0.77967900  0.39694100  1
  O  O47  1  0.47337500  0.72032100  0.60305900  1
loop_
_geom_bond_atom_site_label_1
_geom_bond_atom_site_label_2
_geom_bond_distance
_geom_bond_site_symmetry_2
Ca0 O41 2.382100 1_555
Ca0 O40 2.407102 1_455
Ca0 O46 2.444058 1_455
Ca0 O47 2.449514 1_555
Ca0 O1 2.547915 1_555
Ca0 O7 2.630138 1_555
Ca0 O36 2.661590 1_555
Ca0 O37 2.960270 1_455
Ca1 O40 2.382100 1_555
Ca1 O41 2.407102 1_555
Ca1 O47 2.444058 1_555
Ca1 O46 2.449514 1_555
Ca1 O0 2.547915 1_555
Ca1 O6 2.630138 1_555
Ca1 O37 2.661590 1_555
Ca1 O36 2.960270 1_555
Ca2 O43 2.382100 1_555
Ca2 O42 2.407102 1_556
Ca2 O44 2.444058 1_555
Ca2 O45 2.449514 1_556
Ca2 O3 2.547915 1_555
Ca2 O5 2.630138 1_556
Ca2 O38 2.661590 1_556
Ca2 O39 2.960270 1_555
Ca3 O42 2.382100 1_555
Ca3 O43 2.407102 1_654
Ca3 O45 2.444058 1_655
Ca3 O44 2.449514 1_554
Ca3 O2 2.547915 1_555
Ca3 O4 2.630138 1_554
Ca3 O39 2.661590 1_554
Ca3 O38 2.960270 1_655
Ca4 O23 2.302621 1_555
Ca4 O7 2.347320 1_655
Ca4 O27 2.360145 1_555
Ca4 O40 2.374721 1_555
Ca4 O37 2.527585 1_555
Ca4 O15 2.550479 1_555
Ca4 O28 2.599957 1_555
Ca5 O22 2.302621 1_565
Ca5 O6 2.347320 1_555
Ca5 O26 2.360145 1_555
Ca5 O41 2.374721 1_555
Ca5 O36 2.527585 1_555
Ca5 O14 2.550479 1_565
Ca5 O29 2.599957 1_555
Ca6 O21 2.302621 1_555
Ca6 O5 2.347320 1_555
Ca6 O25 2.360145 1_555
Ca6 O42 2.374721 1_555
Ca6 O39 2.527585 1_554
Ca6 O13 2.550479 1_555
Ca6 O30 2.599957 1_555
Ca7 O20 2.302621 1_545
Ca7 O4 2.347320 1_455
Ca7 O24 2.360145 1_555
Ca7 O43 2.374721 1_555
Ca7 O38 2.527585 1_556
Ca7 O12 2.550479 1_545
Ca7 O31 2.599957 1_555
Ca8 O3 2.295534 1_555
Ca8 O23 2.315570 1_555
Ca8 O27 2.381510 1_555
Ca8 O44 2.449844 1_555
Ca8 O39 2.481234 1_555
Ca8 O11 2.494457 1_555
Ca8 O32 2.674314 1_555
Ca9 O2 2.295534 1_455
Ca9 O22 2.315570 1_555
Ca9 O26 2.381510 1_545
Ca9 O45 2.449844 1_555
Ca9 O38 2.481234 1_555
Ca9 O10 2.494457 1_545
Ca9 O33 2.674314 1_555
Ca10 O1 2.295534 1_655
Ca10 O21 2.315570 1_555
Ca10 O25 2.381510 1_555
Ca10 O46 2.449844 1_555
Ca10 O37 2.481234 1_555
Ca10 O9 2.494457 1_555
Ca10 O34 2.674314 1_555
Ca11 O0 2.295534 1_555
Ca11 O20 2.315570 1_555
Ca11 O24 2.381510 1_565
Ca11 O47 2.449844 1_555
Ca11 O36 2.481234 1_555
Ca11 O8 2.494457 1_565
Ca11 O35 2.674314 1_555
Ca12 O12 2.326105 1_555
Ca12 O23 2.343067 1_455
Ca12 O19 2.440500 1_556
Ca12 O28 2.484085 1_455
Ca12 O35 2.495545 1_555
Ca12 O3 2.526553 1_555
Ca12 O11 2.704675 1_455
Ca13 O13 2.326105 1_555
Ca13 O22 2.343067 1_565
Ca13 O18 2.440500 1_554
Ca13 O29 2.484085 1_555
Ca13 O34 2.495545 1_555
Ca13 O2 2.526553 1_565
Ca13 O10 2.704675 1_555
Ca14 O14 2.326105 1_555
Ca14 O21 2.343067 1_555
Ca14 O17 2.440500 1_555
Ca14 O30 2.484085 1_555
Ca14 O33 2.495545 1_555
Ca14 O1 2.526553 1_555
Ca14 O9 2.704675 1_555
Ca15 O15 2.326105 1_555
Ca15 O20 2.343067 1_645
Ca15 O16 2.440500 1_555
Ca15 O31 2.484085 1_655
Ca15 O32 2.495545 1_555
Ca15 O0 2.526553 1_545
Ca15 O8 2.704675 1_655
Ca16 O8 2.268966 1_555
Ca16 O31 2.392179 1_555
Ca16 O27 2.420699 1_555
Ca16 O17 2.448938 1_555
Ca16 O7 2.537406 1_555
Ca16 O32 2.561350 1_555
Ca16 O15 2.742907 1_555
Ca17 O9 2.268966 1_555
Ca17 O30 2.392179 1_555
Ca17 O26 2.420699 1_645
Ca17 O16 2.448938 1_555
Ca17 O6 2.537406 1_545
Ca17 O33 2.561350 1_655
Ca17 O14 2.742907 1_655
Ca18 O10 2.268966 1_555
Ca18 O29 2.392179 1_555
Ca18 O25 2.420699 1_455
Ca18 O19 2.448938 1_555
Ca18 O5 2.537406 1_555
Ca18 O34 2.561350 1_455
Ca18 O13 2.742907 1_455
Ca19 O11 2.268966 1_555
Ca19 O28 2.392179 1_555
Ca19 O24 2.420699 1_565
Ca19 O18 2.448938 1_555
Ca19 O4 2.537406 1_565
Ca19 O35 2.561350 1_555
Ca19 O12 2.742907 1_555
O0 Si0 1.658349 1_555
O1 Si1 1.658349 1_555
O2 Si2 1.658349 1_555
O3 Si3 1.658349 1_555
O4 P4 1.554644 1_555
O5 P5 1.554644 1_555
O6 P6 1.554644 1_555
O7 P7 1.554644 1_555
O8 P0 1.559297 1_555
O9 P1 1.559297 1_555
O10 P2 1.559297 1_554
O11 P3 1.559297 1_556
O12 P2 1.559383 1_555
O13 P3 1.559383 1_555
O14 P0 1.559383 1_555
O15 P1 1.559383 1_555
O16 P0 1.548089 1_655
O17 P1 1.548089 1_555
O18 P2 1.548089 1_555
O19 P3 1.548089 1_455
O20 Si0 1.648237 1_455
O21 Si1 1.648237 1_555
O22 Si2 1.648237 1_555
O23 Si3 1.648237 1_655
O24 P4 1.557762 1_555
O25 P5 1.557762 1_655
O26 P6 1.557762 1_455
O27 P7 1.557762 1_555
O28 Si0 1.648247 1_555
O29 Si1 1.648247 1_555
O30 Si2 1.648247 1_555
O31 Si3 1.648247 1_555
O32 P4 1.558811 1_555
O33 P5 1.558811 1_555
O34 P6 1.558811 1_555
O35 P7 1.558811 1_555
O36 P0 1.569435 1_565
O37 P1 1.569435 1_555
O38 P2 1.569435 1_544
O39 P3 1.569435 1_556
O40 Si0 1.658875 1_555
O41 Si1 1.658875 1_555
O42 Si2 1.658875 1_555
O43 Si3 1.658875 1_555
O44 P4 1.557988 1_555
O45 P5 1.557988 1_555
O46 P6 1.557988 1_555
O47 P7 1.557988 1_555
