# generated using pymatgen
data_V3Ni(PO4)4
_symmetry_space_group_name_H-M   'P 1'
_cell_length_a   5.86787200
_cell_length_b   4.85479900
_cell_length_c   10.01896986
_cell_angle_alpha   89.66734535
_cell_angle_beta   90.00000000
_cell_angle_gamma   90.00000000
_symmetry_Int_Tables_number   1
_chemical_formula_structural   V3Ni(PO4)4
_chemical_formula_sum   'V3 Ni1 P4 O16'
_cell_volume   285.40898164
_cell_formula_units_Z   1
loop_
 _symmetry_equiv_pos_site_id
 _symmetry_equiv_pos_as_xyz
  1  'x, y, z'
loop_
 _atom_site_type_symbol
 _atom_site_label
 _atom_site_symmetry_multiplicity
 _atom_site_fract_x
 _atom_site_fract_y
 _atom_site_fract_z
 _atom_site_occupancy
  V  V0  1  0.00000000  0.48366100  0.77176700  1
  V  V1  1  0.50000000  0.54066000  0.22283900  1
  V  V2  1  0.50000000  0.97866800  0.72946700  1
  Ni  Ni0  1  0.00000000  0.04154300  0.27566000  1
  P  P0  1  0.50000000  0.09927400  0.39937900  1
  P  P1  1  0.50000000  0.41218100  0.90675700  1
  P  P2  1  0.00000000  0.56321700  0.09595300  1
  P  P3  1  0.00000000  0.91765800  0.59442600  1
  O  O0  1  0.50000000  0.14991500  0.54911200  1
  O  O1  1  0.30041500  0.25376100  0.32477100  1
  O  O2  1  0.69958500  0.25376100  0.32477100  1
  O  O3  1  0.00000000  0.22530700  0.62282000  1
  O  O4  1  0.00000000  0.25450300  0.10998400  1
  O  O5  1  0.29586700  0.26485400  0.83308200  1
  O  O6  1  0.70413300  0.26485400  0.83308200  1
  O  O7  1  0.50000000  0.33552600  0.05643500  1
  O  O8  1  0.00000000  0.65672500  0.95117900  1
  O  O9  1  0.79025700  0.70464500  0.17307100  1
  O  O10  1  0.20974300  0.70464500  0.17307100  1
  O  O11  1  0.50000000  0.72241700  0.88524200  1
  O  O12  1  0.50000000  0.78672200  0.37438400  1
  O  O13  1  0.79579300  0.76867900  0.67223800  1
  O  O14  1  0.20420700  0.76867900  0.67223800  1
  O  O15  1  0.00000000  0.84814600  0.44827000  1
loop_
_geom_bond_atom_site_label_1
_geom_bond_atom_site_label_2
_geom_bond_distance
_geom_bond_site_symmetry_2
Ni0 O4 1.950450 1_555
Ni0 O15 1.963013 1_545
Ni0 O1 2.101645 1_555
Ni0 O2 2.101645 1_455
Ni0 O10 2.294732 1_545
Ni0 O9 2.294732 1_445
O0 P0 1.521590 1_555
O0 V2 1.984660 1_545
O1 P0 1.576804 1_555
O1 V1 2.082788 1_555
O2 P0 1.576804 1_555
O2 V1 2.082788 1_555
O3 P3 1.522046 1_545
O3 V0 1.954953 1_555
O4 P2 1.504510 1_555
O5 P1 1.580301 1_555
O5 V2 2.111773 1_545
O5 V0 2.124214 1_555
O6 P1 1.580301 1_555
O6 V2 2.111773 1_545
O6 V0 2.124214 1_655
O7 P1 1.543007 1_554
O7 V1 1.946949 1_555
O8 P2 1.517349 1_556
O8 V0 1.988605 1_555
O9 P2 1.609129 1_655
O9 V1 1.943881 1_555
O10 P2 1.609129 1_555
O10 V1 1.943881 1_555
O11 P1 1.520241 1_555
O11 V2 1.990203 1_555
O12 P0 1.539337 1_565
O12 V1 1.937368 1_555
O13 P3 1.600050 1_655
O13 V0 2.080579 1_655
O13 V2 2.094613 1_555
O14 P3 1.600050 1_555
O14 V0 2.080579 1_555
O14 V2 2.094613 1_555
O15 P3 1.504623 1_555
