# generated using pymatgen
data_DyInCo4
_symmetry_space_group_name_H-M   'P 1'
_cell_length_a   4.98817731
_cell_length_b   4.98817731
_cell_length_c   4.98817731
_cell_angle_alpha   60.00000000
_cell_angle_beta   60.00000000
_cell_angle_gamma   60.00000000
_symmetry_Int_Tables_number   1
_chemical_formula_structural   DyInCo4
_chemical_formula_sum   'Dy1 In1 Co4'
_cell_volume   87.76283608
_cell_formula_units_Z   1
loop_
 _symmetry_equiv_pos_site_id
 _symmetry_equiv_pos_as_xyz
  1  'x, y, z'
loop_
 _atom_site_type_symbol
 _atom_site_label
 _atom_site_symmetry_multiplicity
 _atom_site_fract_x
 _atom_site_fract_y
 _atom_site_fract_z
 _atom_site_occupancy
  Dy  Dy0  1  0.75000000  0.75000000  0.75000000  1
  In  In0  1  0.00000000  0.00000000  0.00000000  1
  Co  Co0  1  0.37462900  0.37462900  0.37462900  1
  Co  Co1  1  0.87611400  0.37462900  0.37462900  1
  Co  Co2  1  0.37462900  0.87611400  0.37462900  1
  Co  Co3  1  0.37462900  0.37462900  0.87611400  1
loop_
_geom_bond_atom_site_label_1
_geom_bond_atom_site_label_2
_geom_bond_distance
_geom_bond_site_symmetry_2
Dy0 In0 3.054622 1_566
Dy0 In0 3.054622 1_666
Dy0 In0 3.054622 1_656
Dy0 In0 3.054622 1_665
Co0 Co3 2.486681 1_554
Co0 Co1 2.486681 1_455
Co0 Co2 2.486681 1_545
Co0 Co2 2.501496 1_555
Co0 Co1 2.501496 1_555
Co0 Co3 2.501496 1_555
Co0 In0 2.923792 1_655
Co0 In0 2.923792 1_556
Co0 In0 2.923792 1_565
Co0 Dy0 2.925371 1_554
Co0 Dy0 2.925371 1_455
Co0 Dy0 2.925371 1_545
Co1 Co3 2.486681 1_654
Co1 Co2 2.486681 1_645
Co1 Co2 2.501496 1_555
Co1 Co3 2.501496 1_555
Co1 In0 2.923790 1_665
Co1 In0 2.923790 1_656
Co1 In0 2.923795 1_655
Co1 Dy0 2.925369 1_555
Co1 Dy0 2.925373 1_554
Co1 Dy0 2.925373 1_545
Co2 Co3 2.486681 1_564
Co2 Co3 2.501496 1_555
Co2 In0 2.923790 1_665
Co2 In0 2.923790 1_566
Co2 In0 2.923795 1_565
Co2 Dy0 2.925369 1_555
Co2 Dy0 2.925373 1_554
Co2 Dy0 2.925373 1_455
Co3 In0 2.923790 1_656
Co3 In0 2.923790 1_566
Co3 In0 2.923795 1_556
Co3 Dy0 2.925369 1_555
Co3 Dy0 2.925373 1_545
Co3 Dy0 2.925373 1_455
