# generated using pymatgen
data_TaCr3(AgS4)2
_symmetry_space_group_name_H-M   'P 1'
_cell_length_a   6.02363700
_cell_length_b   6.92795900
_cell_length_c   14.95795983
_cell_angle_alpha   62.36883374
_cell_angle_beta   90.00000000
_cell_angle_gamma   90.00000000
_symmetry_Int_Tables_number   1
_chemical_formula_structural   TaCr3(AgS4)2
_chemical_formula_sum   'Ta2 Cr6 Ag4 S16'
_cell_volume   553.02705775
_cell_formula_units_Z   2
loop_
 _symmetry_equiv_pos_site_id
 _symmetry_equiv_pos_as_xyz
  1  'x, y, z'
loop_
 _atom_site_type_symbol
 _atom_site_label
 _atom_site_symmetry_multiplicity
 _atom_site_fract_x
 _atom_site_fract_y
 _atom_site_fract_z
 _atom_site_occupancy
  Ta  Ta0  1  0.50000000  0.00000000  0.50000000  1
  Ta  Ta1  1  0.50000000  0.00000000  0.00000000  1
  Cr  Cr0  1  0.00074400  0.24894200  0.50233600  1
  Cr  Cr1  1  0.00074400  0.75105800  0.99766400  1
  Cr  Cr2  1  0.99925600  0.75105800  0.49766400  1
  Cr  Cr3  1  0.99925600  0.24894200  0.00233600  1
  Cr  Cr4  1  0.50000000  0.50000000  0.50000000  1
  Cr  Cr5  1  0.50000000  0.50000000  0.00000000  1
  Ag  Ag0  1  0.65946300  0.00000000  0.75000000  1
  Ag  Ag1  1  0.34053700  0.00000000  0.25000000  1
  Ag  Ag2  1  0.97891500  0.50000000  0.25000000  1
  Ag  Ag3  1  0.02108500  0.50000000  0.75000000  1
  S  S0  1  0.16121900  0.10471400  0.39444700  1
  S  S1  1  0.16121900  0.89528600  0.10555300  1
  S  S2  1  0.83158700  0.39683600  0.60088400  1
  S  S3  1  0.83158700  0.60316400  0.89911600  1
  S  S4  1  0.83878100  0.89528600  0.60555300  1
  S  S5  1  0.83878100  0.10471400  0.89444700  1
  S  S6  1  0.16841300  0.60316400  0.39911600  1
  S  S7  1  0.16841300  0.39683600  0.10088400  1
  S  S8  1  0.33364000  0.15106000  0.60443100  1
  S  S9  1  0.33364000  0.84894000  0.89556900  1
  S  S10  1  0.66636000  0.84894000  0.39556900  1
  S  S11  1  0.66636000  0.15106000  0.10443100  1
  S  S12  1  0.67028700  0.35770200  0.39691500  1
  S  S13  1  0.67028700  0.64229800  0.10308500  1
  S  S14  1  0.32971300  0.64229800  0.60308500  1
  S  S15  1  0.32971300  0.35770200  0.89691500  1
loop_
_geom_bond_atom_site_label_1
_geom_bond_atom_site_label_2
_geom_bond_distance
_geom_bond_site_symmetry_2
Cr0 S2 2.379471 1_455
Cr0 S4 2.414500 1_445
Cr0 S8 2.419180 1_555
Cr0 S6 2.431401 1_555
Cr0 S12 2.431978 1_455
Cr0 S0 2.456188 1_555
Cr1 S3 2.379471 1_455
Cr1 S5 2.414500 1_465
Cr1 S9 2.419180 1_555
Cr1 S7 2.431401 1_556
Cr1 S13 2.431978 1_456
Cr1 S1 2.456188 1_556
Cr2 S6 2.379471 1_655
Cr2 S0 2.414500 1_665
Cr2 S10 2.419180 1_555
Cr2 S2 2.431401 1_555
Cr2 S14 2.431978 1_655
Cr2 S4 2.456188 1_555
Cr3 S7 2.379471 1_655
Cr3 S1 2.414500 1_645
Cr3 S11 2.419180 1_555
Cr3 S3 2.431401 1_554
Cr3 S15 2.431978 1_654
Cr3 S5 2.456188 1_554
Cr4 S2 2.403542 1_555
Cr4 S6 2.403542 1_555
Cr4 S8 2.405334 1_555
Cr4 S10 2.405334 1_555
Cr4 S14 2.410723 1_555
Cr4 S12 2.410723 1_555
Cr5 S7 2.403542 1_555
Cr5 S3 2.403542 1_554
Cr5 S9 2.405334 1_554
Cr5 S11 2.405334 1_555
Cr5 S13 2.410723 1_555
Cr5 S15 2.410723 1_554
Ag0 S9 2.752211 1_545
Ag0 S8 2.752211 1_555
Ag0 S5 2.795572 1_555
Ag0 S4 2.795572 1_545
Ag0 S2 2.814341 1_555
Ag0 S3 2.814341 1_545
Ag1 S11 2.752211 1_555
Ag1 S10 2.752211 1_545
Ag1 S0 2.795572 1_555
Ag1 S1 2.795572 1_545
Ag1 S7 2.814341 1_555
Ag1 S6 2.814341 1_545
Ag2 S12 2.692161 1_555
Ag2 S13 2.692161 1_555
Ag2 S1 2.808104 1_655
Ag2 S0 2.808104 1_655
Ag2 S6 2.875315 1_655
Ag2 S7 2.875315 1_655
Ag3 S15 2.692161 1_555
Ag3 S14 2.692161 1_555
Ag3 S4 2.808104 1_455
Ag3 S5 2.808104 1_455
Ag3 S3 2.875315 1_455
Ag3 S2 2.875315 1_455
S0 Ta0 2.474084 1_555
S1 Ta1 2.474084 1_565
S4 Ta0 2.474084 1_565
S5 Ta1 2.474084 1_556
S8 Ta0 2.460863 1_555
S9 Ta1 2.460863 1_566
S10 Ta0 2.460863 1_565
S11 Ta1 2.460863 1_555
S12 Ta0 2.454915 1_555
S13 Ta1 2.454915 1_565
S14 Ta0 2.454915 1_565
S15 Ta1 2.454915 1_556
