# generated using pymatgen
data_KRuN2
_symmetry_space_group_name_H-M   'P 1'
_cell_length_a   5.84196600
_cell_length_b   11.61190200
_cell_length_c   16.23604500
_cell_angle_alpha   90.00000000
_cell_angle_beta   90.00000000
_cell_angle_gamma   90.00000000
_symmetry_Int_Tables_number   1
_chemical_formula_structural   KRuN2
_chemical_formula_sum   'K16 Ru16 N32'
_cell_volume   1101.39381496
_cell_formula_units_Z   16
loop_
 _symmetry_equiv_pos_site_id
 _symmetry_equiv_pos_as_xyz
  1  'x, y, z'
loop_
 _atom_site_type_symbol
 _atom_site_label
 _atom_site_symmetry_multiplicity
 _atom_site_fract_x
 _atom_site_fract_y
 _atom_site_fract_z
 _atom_site_occupancy
  K  K0  1  0.24808600  0.00387000  0.43676500  1
  K  K1  1  0.74808600  0.49613000  0.56323500  1
  K  K2  1  0.75191400  0.50387000  0.06323500  1
  K  K3  1  0.25191400  0.99613000  0.93676500  1
  K  K4  1  0.75191400  0.99613000  0.56323500  1
  K  K5  1  0.25191400  0.50387000  0.43676500  1
  K  K6  1  0.24808600  0.49613000  0.93676500  1
  K  K7  1  0.74808600  0.00387000  0.06323500  1
  K  K8  1  0.31956200  0.26047300  0.31353300  1
  K  K9  1  0.81956200  0.23952700  0.68646700  1
  K  K10  1  0.68043800  0.76047300  0.18646700  1
  K  K11  1  0.18043800  0.73952700  0.81353300  1
  K  K12  1  0.68043800  0.73952700  0.68646700  1
  K  K13  1  0.18043800  0.76047300  0.31353300  1
  K  K14  1  0.31956200  0.23952700  0.81353300  1
  K  K15  1  0.81956200  0.26047300  0.18646700  1
  Ru  Ru0  1  0.74227700  0.00649300  0.31186000  1
  Ru  Ru1  1  0.24227700  0.49350700  0.68814000  1
  Ru  Ru2  1  0.25772300  0.50649300  0.18814000  1
  Ru  Ru3  1  0.75772300  0.99350700  0.81186000  1
  Ru  Ru4  1  0.25772300  0.99350700  0.68814000  1
  Ru  Ru5  1  0.75772300  0.50649300  0.31186000  1
  Ru  Ru6  1  0.74227700  0.49350700  0.81186000  1
  Ru  Ru7  1  0.24227700  0.00649300  0.18814000  1
  Ru  Ru8  1  0.79035400  0.26277900  0.43738000  1
  Ru  Ru9  1  0.29035400  0.23722100  0.56262000  1
  Ru  Ru10  1  0.20964600  0.76277900  0.06262000  1
  Ru  Ru11  1  0.70964600  0.73722100  0.93738000  1
  Ru  Ru12  1  0.20964600  0.73722100  0.56262000  1
  Ru  Ru13  1  0.70964600  0.76277900  0.43738000  1
  Ru  Ru14  1  0.79035400  0.23722100  0.93738000  1
  Ru  Ru15  1  0.29035400  0.26277900  0.06262000  1
  N  N0  1  0.09449200  0.27642800  0.47577200  1
  N  N1  1  0.59449200  0.22357200  0.52422800  1
  N  N2  1  0.90550800  0.77642800  0.02422800  1
  N  N3  1  0.40550800  0.72357200  0.97577200  1
  N  N4  1  0.90550800  0.72357200  0.52422800  1
  N  N5  1  0.40550800  0.77642800  0.47577200  1
  N  N6  1  0.09449200  0.22357200  0.97577200  1
  N  N7  1  0.59449200  0.27642800  0.02422800  1
  N  N8  1  0.68740700  0.40779400  0.39942300  1
  N  N9  1  0.18740700  0.09220600  0.60057700  1
  N  N10  1  0.31259300  0.90779400  0.10057700  1
  N  N11  1  0.81259300  0.59220600  0.89942300  1
  N  N12  1  0.31259300  0.59220600  0.60057700  1
  N  N13  1  0.81259300  0.90779400  0.39942300  1
  N  N14  1  0.68740700  0.09220600  0.89942300  1
  N  N15  1  0.18740700  0.40779400  0.10057700  1
  N  N16  1  0.77148200  0.15862900  0.34872100  1
  N  N17  1  0.27148200  0.34137100  0.65127900  1
  N  N18  1  0.22851800  0.65862900  0.15127900  1
  N  N19  1  0.72851800  0.84137100  0.84872100  1
  N  N20  1  0.22851800  0.84137100  0.65127900  1
  N  N21  1  0.72851800  0.65862900  0.34872100  1
  N  N22  1  0.77148200  0.34137100  0.84872100  1
  N  N23  1  0.27148200  0.15862900  0.15127900  1
  N  N24  1  0.56054700  0.47814600  0.22267800  1
  N  N25  1  0.06054700  0.02185400  0.77732200  1
  N  N26  1  0.43945300  0.97814600  0.27732200  1
  N  N27  1  0.93945300  0.52185400  0.72267800  1
  N  N28  1  0.43945300  0.52185400  0.77732200  1
  N  N29  1  0.93945300  0.97814600  0.22267800  1
  N  N30  1  0.56054700  0.02185400  0.72267800  1
  N  N31  1  0.06054700  0.47814600  0.27732200  1
loop_
_geom_bond_atom_site_label_1
_geom_bond_atom_site_label_2
_geom_bond_distance
_geom_bond_site_symmetry_2
K0 N26 2.835586 1_545
K0 N13 2.843383 1_445
K0 N5 2.867389 1_545
K0 N9 2.872561 1_555
K1 N27 2.835586 1_555
K1 N12 2.843383 1_555
K1 N4 2.867389 1_555
K1 N8 2.872561 1_555
K2 N24 2.835586 1_555
K2 N15 2.843383 1_655
K2 N7 2.867389 1_555
K2 N11 2.872561 1_554
K3 N25 2.835586 1_565
K3 N14 2.843383 1_565
K3 N6 2.867389 1_565
K3 N10 2.872561 1_556
K4 N30 2.835586 1_565
K4 N9 2.843383 1_665
K4 N1 2.867389 1_565
K4 N13 2.872561 1_555
K5 N31 2.835586 1_555
K5 N8 2.843383 1_555
K5 N0 2.867389 1_555
K5 N12 2.872561 1_555
K6 N28 2.835586 1_555
K6 N11 2.843383 1_455
K6 N3 2.867389 1_555
K6 N15 2.872561 1_556
K7 N29 2.835586 1_545
K7 N10 2.843383 1_545
K7 N2 2.867389 1_545
K7 N14 2.872561 1_554
K8 N23 2.901261 1_555
K8 N16 2.948743 1_555
K8 N0 2.949872 1_555
K8 N31 3.004005 1_555
K8 N8 3.080425 1_555
K8 N24 3.247571 1_555
K9 N22 2.901261 1_555
K9 N17 2.948743 1_655
K9 N1 2.949872 1_555
K9 N30 3.004005 1_555
K9 N9 3.080425 1_655
K9 N25 3.247571 1_655
K10 N21 2.901261 1_555
K10 N18 2.948743 1_555
K10 N2 2.949872 1_555
K10 N29 3.004005 1_555
K10 N10 3.080425 1_555
K10 N26 3.247571 1_555
K11 N20 2.901261 1_555
K11 N19 2.948743 1_455
K11 N3 2.949872 1_555
K11 N28 3.004005 1_555
K11 N11 3.080425 1_455
K11 N27 3.247571 1_455
K12 N19 2.901261 1_555
K12 N20 2.948743 1_555
K12 N4 2.949872 1_555
K12 N27 3.004005 1_555
K12 N12 3.080425 1_555
K12 N28 3.247571 1_555
K13 N18 2.901261 1_555
K13 N21 2.948743 1_455
K13 N5 2.949872 1_555
K13 N26 3.004005 1_555
K13 N13 3.080425 1_455
K13 N29 3.247571 1_455
K14 N17 2.901261 1_555
K14 N22 2.948743 1_555
K14 N6 2.949872 1_555
K14 N25 3.004005 1_555
K14 N14 3.080425 1_555
K14 N30 3.247571 1_555
K15 N16 2.901261 1_555
K15 N23 2.948743 1_655
K15 N7 2.949872 1_555
K15 N24 3.004005 1_555
K15 N15 3.080425 1_655
K15 N31 3.247571 1_655
N0 Ru9 1.872111 1_555
N0 Ru8 1.889591 1_455
N1 Ru8 1.872111 1_555
N1 Ru9 1.889591 1_555
N2 Ru11 1.872111 1_554
N2 Ru10 1.889591 1_655
N3 Ru10 1.872111 1_556
N3 Ru11 1.889591 1_555
N4 Ru13 1.872111 1_555
N4 Ru12 1.889591 1_655
N5 Ru12 1.872111 1_555
N5 Ru13 1.889591 1_555
N6 Ru15 1.872111 1_556
N6 Ru14 1.889591 1_455
N7 Ru14 1.872111 1_554
N7 Ru15 1.889591 1_555
N8 Ru5 1.871741 1_555
N8 Ru8 1.891298 1_555
N9 Ru4 1.871741 1_545
N9 Ru9 1.891298 1_555
N10 Ru7 1.871741 1_565
N10 Ru10 1.891298 1_555
N11 Ru6 1.871741 1_555
N11 Ru11 1.891298 1_555
N12 Ru1 1.871741 1_555
N12 Ru12 1.891298 1_555
N13 Ru0 1.871741 1_565
N13 Ru13 1.891298 1_555
N14 Ru3 1.871741 1_545
N14 Ru14 1.891298 1_555
N15 Ru2 1.871741 1_555
N15 Ru15 1.891298 1_555
N16 Ru0 1.872997 1_555
N16 Ru8 1.883304 1_555
N17 Ru1 1.872997 1_555
N17 Ru9 1.883304 1_555
N18 Ru2 1.872997 1_555
N18 Ru10 1.883304 1_555
N19 Ru3 1.872997 1_555
N19 Ru11 1.883304 1_555
N20 Ru4 1.872997 1_555
N20 Ru12 1.883304 1_555
N21 Ru5 1.872997 1_555
N21 Ru13 1.883304 1_555
N22 Ru6 1.872997 1_555
N22 Ru14 1.883304 1_555
N23 Ru7 1.872997 1_555
N23 Ru15 1.883304 1_555
N24 Ru5 1.879311 1_555
N24 Ru2 1.884800 1_555
N25 Ru4 1.879311 1_545
N25 Ru3 1.884800 1_445
N26 Ru7 1.879311 1_565
N26 Ru0 1.884800 1_565
N27 Ru6 1.879311 1_555
N27 Ru1 1.884800 1_655
N28 Ru1 1.879311 1_555
N28 Ru6 1.884800 1_555
N29 Ru0 1.879311 1_565
N29 Ru7 1.884800 1_665
N30 Ru3 1.879311 1_545
N30 Ru4 1.884800 1_545
N31 Ru2 1.879311 1_555
N31 Ru5 1.884800 1_455
