# generated using pymatgen
data_MgCu3(SbO3)4
_symmetry_space_group_name_H-M   'P 1'
_cell_length_a   6.76241306
_cell_length_b   6.76241306
_cell_length_c   6.76241306
_cell_angle_alpha   109.47122063
_cell_angle_beta   109.47122063
_cell_angle_gamma   109.47122063
_symmetry_Int_Tables_number   1
_chemical_formula_structural   MgCu3(SbO3)4
_chemical_formula_sum   'Mg1 Cu3 Sb4 O12'
_cell_volume   238.05822614
_cell_formula_units_Z   1
loop_
 _symmetry_equiv_pos_site_id
 _symmetry_equiv_pos_as_xyz
  1  'x, y, z'
loop_
 _atom_site_type_symbol
 _atom_site_label
 _atom_site_symmetry_multiplicity
 _atom_site_fract_x
 _atom_site_fract_y
 _atom_site_fract_z
 _atom_site_occupancy
  Mg  Mg0  1  0.00000000  0.00000000  0.00000000  1
  Cu  Cu0  1  0.50000000  0.00000000  0.50000000  1
  Cu  Cu1  1  0.50000000  0.50000000  0.00000000  1
  Cu  Cu2  1  0.00000000  0.50000000  0.50000000  1
  Sb  Sb0  1  0.00000000  0.50000000  0.00000000  1
  Sb  Sb1  1  0.50000000  0.00000000  0.00000000  1
  Sb  Sb2  1  0.50000000  0.50000000  0.50000000  1
  Sb  Sb3  1  0.00000000  0.00000000  0.50000000  1
  O  O0  1  0.29845300  0.12680500  0.82835100  1
  O  O1  1  0.70154700  0.87319500  0.17164900  1
  O  O2  1  0.70154700  0.52989800  0.82835100  1
  O  O3  1  0.47010200  0.17164900  0.29845300  1
  O  O4  1  0.17164900  0.29845300  0.47010200  1
  O  O5  1  0.82835100  0.29845300  0.12680500  1
  O  O6  1  0.87319500  0.17164900  0.70154700  1
  O  O7  1  0.82835100  0.70154700  0.52989800  1
  O  O8  1  0.29845300  0.47010200  0.17164900  1
  O  O9  1  0.52989800  0.82835100  0.70154700  1
  O  O10  1  0.17164900  0.70154700  0.87319500  1
  O  O11  1  0.12680500  0.82835100  0.29845300  1
loop_
_geom_bond_atom_site_label_1
_geom_bond_atom_site_label_2
_geom_bond_distance
_geom_bond_site_symmetry_2
Mg0 O2 2.688432 1_444
Mg0 O7 2.688432 1_444
Mg0 O8 2.688432 1_555
Mg0 O3 2.688432 1_555
Mg0 O9 2.688432 1_444
Mg0 O4 2.688432 1_555
Mg0 O6 2.688434 1_454
Mg0 O10 2.688434 1_544
Mg0 O1 2.688434 1_445
Mg0 O0 2.688434 1_554
Mg0 O11 2.688434 1_545
Mg0 O5 2.688434 1_455
Cu0 O11 2.067193 1_545
Cu0 O6 2.067193 1_555
Cu0 O3 2.067199 1_555
Cu0 O9 2.067199 1_545
Cu1 O0 2.067193 1_554
Cu1 O1 2.067193 1_555
Cu1 O8 2.067199 1_555
Cu1 O2 2.067199 1_554
Cu2 O5 2.067193 1_455
Cu2 O10 2.067193 1_555
Cu2 O4 2.067199 1_555
Cu2 O7 2.067199 1_455
O0 Sb3 2.080457 1_555
O0 Sb1 2.080465 1_556
O1 Sb3 2.080457 1_665
O1 Sb1 2.080465 1_565
O2 Sb2 2.080459 1_555
O2 Sb0 2.080459 1_656
O3 Sb2 2.080459 1_555
O3 Sb1 2.080459 1_555
O4 Sb3 2.080459 1_555
O4 Sb2 2.080459 1_555
O5 Sb1 2.080457 1_555
O5 Sb0 2.080465 1_655
O6 Sb0 2.080457 1_656
O6 Sb3 2.080465 1_655
O7 Sb2 2.080459 1_555
O7 Sb3 2.080459 1_665
O8 Sb2 2.080459 1_555
O8 Sb0 2.080459 1_555
O9 Sb2 2.080459 1_555
O9 Sb1 2.080459 1_566
O10 Sb1 2.080457 1_566
O10 Sb0 2.080465 1_556
O11 Sb0 2.080457 1_555
O11 Sb3 2.080465 1_565
