# generated using pymatgen
data_Li3ReN2
_symmetry_space_group_name_H-M   'P 1'
_cell_length_a   7.58213053
_cell_length_b   7.20069648
_cell_length_c   11.23631404
_cell_angle_alpha   90.00000356
_cell_angle_beta   137.81440686
_cell_angle_gamma   118.34934724
_symmetry_Int_Tables_number   1
_chemical_formula_structural   Li3ReN2
_chemical_formula_sum   'Li12 Re4 N8'
_cell_volume   291.30159990
_cell_formula_units_Z   4
loop_
 _symmetry_equiv_pos_site_id
 _symmetry_equiv_pos_as_xyz
  1  'x, y, z'
loop_
 _atom_site_type_symbol
 _atom_site_label
 _atom_site_symmetry_multiplicity
 _atom_site_fract_x
 _atom_site_fract_y
 _atom_site_fract_z
 _atom_site_occupancy
  Li  Li0  1  0.00000000  0.50000000  0.36798900  1
  Li  Li1  1  0.00000000  0.00000000  0.88201100  1
  Li  Li2  1  0.00000000  0.50000000  0.13201100  1
  Li  Li3  1  0.00000000  0.00000000  0.11798900  1
  Li  Li4  1  0.51193500  0.50000000  0.50596800  1
  Li  Li5  1  0.48806500  0.50000000  0.99403200  1
  Li  Li6  1  0.51193500  0.00000000  0.25596800  1
  Li  Li7  1  0.48806500  0.00000000  0.74403200  1
  Li  Li8  1  0.48806500  0.98806500  0.99403200  1
  Li  Li9  1  0.51193500  0.01193500  0.50596800  1
  Li  Li10  1  0.48806500  0.48806500  0.74403200  1
  Li  Li11  1  0.51193500  0.51193500  0.25596800  1
  Re  Re0  1  0.00000000  0.50000000  0.63389400  1
  Re  Re1  1  0.00000000  0.00000000  0.61610600  1
  Re  Re2  1  0.00000000  0.50000000  0.86610600  1
  Re  Re3  1  0.00000000  0.00000000  0.38389400  1
  N  N0  1  0.54608800  0.27304400  0.33671600  1
  N  N1  1  0.45391200  0.72695600  0.79063000  1
  N  N2  1  0.54608800  0.77304400  0.45937000  1
  N  N3  1  0.45391200  0.22695600  0.91328400  1
  N  N4  1  0.00000000  0.72695600  0.93632700  1
  N  N5  1  0.00000000  0.27304400  0.93632700  1
  N  N6  1  0.00000000  0.22695600  0.31367300  1
  N  N7  1  0.00000000  0.77304400  0.31367300  1
loop_
_geom_bond_atom_site_label_1
_geom_bond_atom_site_label_2
_geom_bond_distance
_geom_bond_site_symmetry_2
Li0 N6 2.058654 1_555
Li0 N7 2.058654 1_555
Li1 N5 2.058654 1_555
Li1 N4 2.058654 1_545
Li2 N2 2.058651 1_555
Li2 N3 2.058658 1_454
Li3 N1 2.058651 1_444
Li3 N0 2.058658 1_555
Li4 N6 1.980950 1_555
Li4 N2 1.980958 1_555
Li5 N3 1.980945 1_555
Li5 N7 1.980953 1_656
Li6 N0 1.980945 1_555
Li6 N4 1.980953 1_544
Li7 N5 1.980950 1_655
Li7 N1 1.980958 1_545
Li8 N3 1.980945 1_565
Li8 N6 1.980953 1_666
Li9 N7 1.980950 1_545
Li9 N2 1.980958 1_545
Li10 N4 1.980950 1_655
Li10 N1 1.980958 1_555
Li11 N0 1.980945 1_555
Li11 N5 1.980953 1_554
N0 Re0 1.814751 1_655
N1 Re0 1.814742 1_555
N2 Re1 1.814742 1_665
N3 Re1 1.814751 1_555
N4 Re2 1.814747 1_555
N5 Re2 1.814747 1_555
N6 Re3 1.814747 1_555
N7 Re3 1.814747 1_565
