# generated using pymatgen
data_USO6
_symmetry_space_group_name_H-M   'P 1'
_cell_length_a   5.52054200
_cell_length_b   6.90203300
_cell_length_c   11.95274100
_cell_angle_alpha   90.00000000
_cell_angle_beta   90.00000000
_cell_angle_gamma   90.00000000
_symmetry_Int_Tables_number   1
_chemical_formula_structural   USO6
_chemical_formula_sum   'U4 S4 O24'
_cell_volume   455.43484881
_cell_formula_units_Z   4
loop_
 _symmetry_equiv_pos_site_id
 _symmetry_equiv_pos_as_xyz
  1  'x, y, z'
loop_
 _atom_site_type_symbol
 _atom_site_label
 _atom_site_symmetry_multiplicity
 _atom_site_fract_x
 _atom_site_fract_y
 _atom_site_fract_z
 _atom_site_occupancy
  U  U0  1  0.25000000  0.38607600  0.55801200  1
  U  U1  1  0.25000000  0.11392400  0.05801200  1
  U  U2  1  0.75000000  0.61392400  0.44198800  1
  U  U3  1  0.75000000  0.88607600  0.94198800  1
  S  S0  1  0.25000000  0.55885900  0.86454500  1
  S  S1  1  0.25000000  0.94114100  0.36454500  1
  S  S2  1  0.75000000  0.44114100  0.13545500  1
  S  S3  1  0.75000000  0.05885900  0.63545500  1
  O  O0  1  0.99840700  0.10402900  0.92096600  1
  O  O1  1  0.50159300  0.39597100  0.42096600  1
  O  O2  1  0.49840700  0.89597100  0.07903400  1
  O  O3  1  0.00159300  0.60402900  0.57903400  1
  O  O4  1  0.00159300  0.89597100  0.07903400  1
  O  O5  1  0.49840700  0.60402900  0.57903400  1
  O  O6  1  0.50159300  0.10402900  0.92096600  1
  O  O7  1  0.99840700  0.39597100  0.42096600  1
  O  O8  1  0.25000000  0.44763800  0.96812100  1
  O  O9  1  0.25000000  0.05236200  0.46812100  1
  O  O10  1  0.75000000  0.55236200  0.03187900  1
  O  O11  1  0.75000000  0.94763800  0.53187900  1
  O  O12  1  0.25000000  0.43734100  0.76464700  1
  O  O13  1  0.25000000  0.06265900  0.26464700  1
  O  O14  1  0.75000000  0.56265900  0.23535300  1
  O  O15  1  0.75000000  0.93734100  0.73535300  1
  O  O16  1  0.03179500  0.69139400  0.86176600  1
  O  O17  1  0.46820500  0.80860600  0.36176600  1
  O  O18  1  0.53179500  0.30860600  0.13823400  1
  O  O19  1  0.96820500  0.19139400  0.63823400  1
  O  O20  1  0.96820500  0.30860600  0.13823400  1
  O  O21  1  0.53179500  0.19139400  0.63823400  1
  O  O22  1  0.46820500  0.69139400  0.86176600  1
  O  O23  1  0.03179500  0.80860600  0.36176600  1
loop_
_geom_bond_atom_site_label_1
_geom_bond_atom_site_label_2
_geom_bond_distance
_geom_bond_site_symmetry_2
O0 U3 2.051021 1_545
O0 U1 2.148739 1_656
O1 U2 2.051021 1_555
O1 U0 2.148739 1_555
O2 U1 2.051021 1_565
O2 U3 2.148739 1_554
O3 U0 2.051021 1_555
O3 U2 2.148739 1_455
O4 U1 2.051021 1_565
O4 U3 2.148739 1_454
O5 U0 2.051021 1_555
O5 U2 2.148739 1_555
O6 U3 2.051021 1_545
O6 U1 2.148739 1_556
O7 U2 2.051021 1_555
O7 U0 2.148739 1_655
O8 S0 1.456700 1_555
O8 U1 2.541583 1_556
O9 S1 1.456700 1_545
O9 U0 2.541583 1_555
O10 S2 1.456700 1_555
O10 U3 2.541583 1_554
O11 S3 1.456700 1_565
O11 U2 2.541583 1_555
O12 S0 1.459185 1_555
O12 U0 2.495071 1_555
O13 S1 1.459185 1_545
O13 U1 2.495071 1_555
O14 S2 1.459185 1_555
O14 U2 2.495071 1_555
O15 S3 1.459185 1_565
O15 U3 2.495071 1_555
O16 S0 1.512936 1_555
O16 U3 2.268271 1_455
O17 S1 1.512936 1_555
O17 U2 2.268271 1_555
O18 S2 1.512936 1_555
O18 U1 2.268271 1_555
O19 S3 1.512936 1_555
O19 U0 2.268271 1_655
O20 S2 1.512936 1_555
O20 U1 2.268271 1_655
O21 S3 1.512936 1_555
O21 U0 2.268271 1_555
O22 S0 1.512936 1_555
O22 U3 2.268271 1_555
O23 S1 1.512936 1_555
O23 U2 2.268271 1_455
