# generated using pymatgen
data_Li9Mn2Co5O16
_symmetry_space_group_name_H-M   'P 1'
_cell_length_a   5.06243100
_cell_length_b   5.12368667
_cell_length_c   11.47492611
_cell_angle_alpha   80.08464676
_cell_angle_beta   84.50505095
_cell_angle_gamma   80.18205975
_symmetry_Int_Tables_number   1
_chemical_formula_structural   Li9Mn2Co5O16
_chemical_formula_sum   'Li9 Mn2 Co5 O16'
_cell_volume   288.22374276
_cell_formula_units_Z   1
loop_
 _symmetry_equiv_pos_site_id
 _symmetry_equiv_pos_as_xyz
  1  'x, y, z'
loop_
 _atom_site_type_symbol
 _atom_site_label
 _atom_site_symmetry_multiplicity
 _atom_site_fract_x
 _atom_site_fract_y
 _atom_site_fract_z
 _atom_site_occupancy
  Li  Li0  1  0.75186300  0.56410800  0.93697300  1
  Li  Li1  1  0.74455300  0.80778800  0.67531700  1
  Li  Li2  1  0.24742900  0.69137300  0.80768500  1
  Li  Li3  1  0.24534600  0.93974400  0.55695700  1
  Li  Li4  1  0.76126300  0.06322200  0.43831500  1
  Li  Li5  1  0.74324300  0.31323900  0.19613800  1
  Li  Li6  1  0.24903000  0.43764900  0.06536400  1
  Li  Li7  1  0.25804400  0.19016300  0.32371600  1
  Li  Li8  1  0.00074900  0.49926000  0.49917600  1
  Mn  Mn0  1  0.99957500  0.99805700  0.99930800  1
  Mn  Mn1  1  0.50079800  0.37045400  0.62157000  1
  Co  Co0  1  0.99964000  0.25689600  0.74170900  1
  Co  Co1  1  0.99877900  0.74294700  0.25930800  1
  Co  Co2  1  0.49638800  0.63232600  0.38026900  1
  Co  Co3  1  0.50586800  0.87856600  0.12713500  1
  Co  Co4  1  0.49637700  0.12209300  0.87260200  1
  O  O0  1  0.86739700  0.68642200  0.09121600  1
  O  O1  1  0.87854800  0.92587900  0.85321700  1
  O  O2  1  0.35605800  0.80637300  0.96231200  1
  O  O3  1  0.37491200  0.05105700  0.71832900  1
  O  O4  1  0.85276000  0.16282000  0.60342900  1
  O  O5  1  0.86917200  0.43469800  0.33822900  1
  O  O6  1  0.38087800  0.56611700  0.21447700  1
  O  O7  1  0.39414800  0.29098400  0.47970600  1
  O  O8  1  0.61167200  0.44294800  0.77668700  1
  O  O9  1  0.61041500  0.68814000  0.53667800  1
  O  O10  1  0.13653800  0.56309300  0.66267600  1
  O  O11  1  0.14500100  0.83938300  0.39883600  1
  O  O12  1  0.63448000  0.96361200  0.28074200  1
  O  O13  1  0.63761300  0.18919400  0.03007400  1
  O  O14  1  0.11654400  0.31545600  0.90868500  1
  O  O15  1  0.13492200  0.06594100  0.14316000  1
loop_
_geom_bond_atom_site_label_1
_geom_bond_atom_site_label_2
_geom_bond_distance
_geom_bond_site_symmetry_2
Li0 O14 2.088624 1_655
Li0 O1 2.108245 1_555
Li0 O0 2.138397 1_556
Li0 O13 2.172484 1_556
Li0 O2 2.191982 1_555
Li0 O8 2.250653 1_555
Li1 O4 2.006512 1_565
Li1 O9 2.013096 1_555
Li1 O3 2.130360 1_565
Li1 O10 2.165588 1_655
Li1 O8 2.197754 1_555
Li1 O1 2.413310 1_555
Li2 O10 2.048734 1_555
Li2 O8 2.092059 1_555
Li2 O2 2.110756 1_555
Li2 O1 2.113789 1_455
Li2 O3 2.119502 1_565
Li2 O14 2.238623 1_555
Li3 O9 2.083282 1_555
Li3 O7 2.092133 1_565
Li3 O11 2.097985 1_555
Li3 O4 2.184698 1_465
Li3 O3 2.215473 1_565
Li3 O10 2.219834 1_555
Li4 O7 2.079330 1_555
Li4 O11 2.131901 1_645
Li4 O12 2.143261 1_545
Li4 O4 2.155553 1_555
Li4 O5 2.172951 1_555
Li4 O9 2.266910 1_545
Li5 O12 2.022321 1_545
Li5 O5 2.033712 1_555
Li5 O6 2.073070 1_555
Li5 O0 2.229962 1_555
Li5 O13 2.247055 1_555
Li5 O15 2.254845 1_655
Li6 O15 2.109198 1_555
Li6 O6 2.136105 1_555
Li6 O0 2.150793 1_455
Li6 O2 2.172119 1_554
Li6 O13 2.196643 1_555
Li6 O14 2.199085 1_554
Li7 O11 2.005873 1_545
Li7 O12 2.117771 1_545
Li7 O7 2.149796 1_555
Li7 O5 2.154290 1_455
Li7 O6 2.257466 1_555
Li7 O15 2.433718 1_555
Li8 O9 2.086833 1_455
Li8 O7 2.104067 1_555
Li8 O11 2.116106 1_555
Li8 O5 2.117812 1_455
Li8 O4 2.126624 1_455
Li8 O10 2.152778 1_555
Mn0 O14 1.924784 1_665
Mn0 O0 1.938766 1_556
Mn0 O2 1.947829 1_655
Mn0 O1 1.951897 1_555
Mn0 O15 1.952139 1_666
Mn0 O13 1.955661 1_566
Mn1 O9 1.888071 1_555
Mn1 O7 1.891786 1_555
Mn1 O4 1.925784 1_555
Mn1 O3 1.977731 1_555
Mn1 O10 1.992541 1_555
Mn1 O8 2.027655 1_555
Co0 O10 1.877370 1_655
Co0 O4 1.978538 1_555
Co0 O3 2.027312 1_655
Co0 O8 2.066310 1_555
Co0 O1 2.084832 1_545
Co0 O14 2.141772 1_655
Co1 O5 1.868711 1_555
Co1 O11 1.994917 1_655
Co1 O12 2.009427 1_555
Co1 O6 2.049262 1_655
Co1 O15 2.107977 1_665
Co1 O0 2.179555 1_555
Co2 O11 1.922741 1_555
Co2 O9 2.016859 1_555
Co2 O7 2.033951 1_555
Co2 O5 2.040027 1_555
Co2 O12 2.063584 1_555
Co2 O6 2.139933 1_555
Co3 O6 1.907659 1_555
Co3 O13 1.956436 1_565
Co3 O15 1.965146 1_565
Co3 O0 1.967122 1_555
Co3 O12 2.074057 1_555
Co3 O2 2.213694 1_554
Co4 O8 1.958500 1_555
Co4 O2 1.964548 1_545
Co4 O1 2.033364 1_545
Co4 O3 2.037435 1_555
Co4 O14 2.046838 1_555
Co4 O13 2.107087 1_556
