# generated using pymatgen
data_Ba2AlCo3O8
_symmetry_space_group_name_H-M   'P 1'
_cell_length_a   3.75039700
_cell_length_b   3.75039700
_cell_length_c   12.85660300
_cell_angle_alpha   90.00000000
_cell_angle_beta   90.00000000
_cell_angle_gamma   90.00000000
_symmetry_Int_Tables_number   1
_chemical_formula_structural   Ba2AlCo3O8
_chemical_formula_sum   'Ba2 Al1 Co3 O8'
_cell_volume   180.83426225
_cell_formula_units_Z   1
loop_
 _symmetry_equiv_pos_site_id
 _symmetry_equiv_pos_as_xyz
  1  'x, y, z'
loop_
 _atom_site_type_symbol
 _atom_site_label
 _atom_site_symmetry_multiplicity
 _atom_site_fract_x
 _atom_site_fract_y
 _atom_site_fract_z
 _atom_site_occupancy
  Ba  Ba0  1  0.50000000  0.50000000  0.16475500  1
  Ba  Ba1  1  0.50000000  0.50000000  0.83524500  1
  Al  Al0  1  0.50000000  0.50000000  0.50000000  1
  Co  Co0  1  0.00000000  0.00000000  0.35740700  1
  Co  Co1  1  0.00000000  0.00000000  0.00000000  1
  Co  Co2  1  0.00000000  0.00000000  0.64259300  1
  O  O0  1  0.00000000  0.50000000  0.40605300  1
  O  O1  1  0.50000000  0.00000000  0.40605300  1
  O  O2  1  0.50000000  0.00000000  0.00000000  1
  O  O3  1  0.00000000  0.00000000  0.21700800  1
  O  O4  1  0.00000000  0.50000000  0.59394700  1
  O  O5  1  0.50000000  0.00000000  0.59394700  1
  O  O6  1  0.00000000  0.00000000  0.78299200  1
  O  O7  1  0.00000000  0.50000000  0.00000000  1
loop_
_geom_bond_atom_site_label_1
_geom_bond_atom_site_label_2
_geom_bond_distance
_geom_bond_site_symmetry_2
Ba0 O3 2.735699 1_555
Ba0 O3 2.735699 1_565
Ba0 O3 2.735699 1_655
Ba0 O3 2.735699 1_665
Ba0 O2 2.828974 1_565
Ba0 O7 2.828974 1_655
Ba0 O7 2.828974 1_555
Ba0 O2 2.828974 1_555
Ba1 O6 2.735699 1_665
Ba1 O6 2.735699 1_655
Ba1 O6 2.735699 1_555
Ba1 O6 2.735699 1_565
Ba1 O2 2.828974 1_566
Ba1 O7 2.828974 1_656
Ba1 O2 2.828974 1_556
Ba1 O7 2.828974 1_556
Al0 O1 2.230526 1_565
Al0 O5 2.230526 1_555
Al0 O4 2.230526 1_655
Al0 O5 2.230526 1_565
Al0 O0 2.230526 1_655
Al0 O4 2.230526 1_555
Al0 O1 2.230526 1_555
Al0 O0 2.230526 1_555
Co0 O3 1.805054 1_555
Co0 O1 1.976745 1_455
Co0 O0 1.976745 1_545
Co0 O1 1.976745 1_555
Co0 O0 1.976745 1_555
Co1 O7 1.875198 1_555
Co1 O2 1.875198 1_455
Co1 O2 1.875198 1_555
Co1 O7 1.875198 1_545
Co2 O6 1.805054 1_555
Co2 O5 1.976745 1_555
Co2 O5 1.976745 1_455
Co2 O4 1.976745 1_545
Co2 O4 1.976745 1_555
