# generated using pymatgen
data_Zn4CoSe5
_symmetry_space_group_name_H-M   'P 1'
_cell_length_a   6.98199878
_cell_length_b   6.98199878
_cell_length_c   9.87281514
_cell_angle_alpha   61.94085469
_cell_angle_beta   61.94085469
_cell_angle_gamma   33.69575098
_symmetry_Int_Tables_number   1
_chemical_formula_structural   Zn4CoSe5
_chemical_formula_sum   'Zn4 Co1 Se5'
_cell_volume   232.53414265
_cell_formula_units_Z   1
loop_
 _symmetry_equiv_pos_site_id
 _symmetry_equiv_pos_as_xyz
  1  'x, y, z'
loop_
 _atom_site_type_symbol
 _atom_site_label
 _atom_site_symmetry_multiplicity
 _atom_site_fract_x
 _atom_site_fract_y
 _atom_site_fract_z
 _atom_site_occupancy
  Zn  Zn0  1  0.59922600  0.59922600  0.60238400  1
  Zn  Zn1  1  0.20186200  0.20186200  0.19865400  1
  Zn  Zn2  1  0.79901000  0.79901000  0.80165100  1
  Zn  Zn3  1  0.40059500  0.40059500  0.39641700  1
  Co  Co0  1  0.00007700  0.00007700  0.99937800  1
  Se  Se0  1  0.80031600  0.80031600  0.54987200  1
  Se  Se1  1  0.40441800  0.40441800  0.14282900  1
  Se  Se2  1  0.99866800  0.99866800  0.75694700  1
  Se  Se3  1  0.60070700  0.60070700  0.35017500  1
  Se  Se4  1  0.19512100  0.19512100  0.95169100  1
loop_
_geom_bond_atom_site_label_1
_geom_bond_atom_site_label_2
_geom_bond_distance
_geom_bond_site_symmetry_2
Co0 Se2 2.402787 1_445
Co0 Se4 2.410429 1_555
Co0 Se1 2.440378 1_456
Co0 Se1 2.440378 1_546
Se0 Zn0 2.474236 1_555
Se0 Zn2 2.477236 1_555
Se0 Zn3 2.488088 1_565
Se0 Zn3 2.488088 1_655
Se1 Zn3 2.478916 1_555
Se1 Zn1 2.483042 1_555
Se2 Zn2 2.481390 1_555
Se2 Zn0 2.492760 1_655
Se2 Zn0 2.492760 1_565
Se3 Zn0 2.480345 1_555
Se3 Zn3 2.482095 1_555
Se3 Zn1 2.484461 1_655
Se3 Zn1 2.484461 1_565
Se4 Zn1 2.483737 1_556
Se4 Zn2 2.489050 1_455
Se4 Zn2 2.489050 1_545
