# generated using pymatgen
data_Ho2Mn12P7
_symmetry_space_group_name_H-M   'P 1'
_cell_length_a   9.29297884
_cell_length_b   9.29297884
_cell_length_c   3.59100000
_cell_angle_alpha   90.00000000
_cell_angle_beta   90.00000000
_cell_angle_gamma   120.00000601
_symmetry_Int_Tables_number   1
_chemical_formula_structural   Ho2Mn12P7
_chemical_formula_sum   'Ho2 Mn12 P7'
_cell_volume   268.56901569
_cell_formula_units_Z   1
loop_
 _symmetry_equiv_pos_site_id
 _symmetry_equiv_pos_as_xyz
  1  'x, y, z'
loop_
 _atom_site_type_symbol
 _atom_site_label
 _atom_site_symmetry_multiplicity
 _atom_site_fract_x
 _atom_site_fract_y
 _atom_site_fract_z
 _atom_site_occupancy
  Ho  Ho0  1  0.66666700  0.33333300  0.00000000  1
  Ho  Ho1  1  0.33333300  0.66666700  0.50000000  1
  Mn  Mn0  1  0.05004300  0.42633700  0.00000000  1
  Mn  Mn1  1  0.57366300  0.62370600  0.00000000  1
  Mn  Mn2  1  0.37629400  0.94995700  0.00000000  1
  Mn  Mn3  1  0.27686600  0.15545000  0.00000000  1
  Mn  Mn4  1  0.84455000  0.12141600  0.00000000  1
  Mn  Mn5  1  0.87858400  0.72313400  0.00000000  1
  Mn  Mn6  1  0.43495800  0.38850900  0.50000000  1
  Mn  Mn7  1  0.61149100  0.04644900  0.50000000  1
  Mn  Mn8  1  0.95355100  0.56504200  0.50000000  1
  Mn  Mn9  1  0.10284800  0.22534800  0.50000000  1
  Mn  Mn10  1  0.77465200  0.87750100  0.50000000  1
  Mn  Mn11  1  0.12249900  0.89715200  0.50000000  1
  P  P0  1  0.29114300  0.41072900  0.00000000  1
  P  P1  1  0.58927100  0.88041400  0.00000000  1
  P  P2  1  0.11958600  0.70885700  0.00000000  1
  P  P3  1  0.40923100  0.12487300  0.50000000  1
  P  P4  1  0.87512700  0.28435800  0.50000000  1
  P  P5  1  0.71564200  0.59076900  0.50000000  1
  P  P6  1  0.00000000  0.00000000  0.00000000  1
loop_
_geom_bond_atom_site_label_1
_geom_bond_atom_site_label_2
_geom_bond_distance
_geom_bond_site_symmetry_2
Ho0 P4 2.839970 1_554
Ho0 P4 2.839970 1_555
Ho0 P3 2.839974 1_554
Ho0 P3 2.839974 1_555
Ho0 P5 2.839977 1_555
Ho0 P5 2.839977 1_554
Ho1 P2 2.846384 1_555
Ho1 P2 2.846384 1_556
Ho1 P1 2.846388 1_556
Ho1 P1 2.846388 1_555
Ho1 P0 2.846391 1_556
Ho1 P0 2.846391 1_555
Mn0 P0 2.316468 1_555
Mn0 P4 2.337133 1_455
Mn0 P4 2.337133 1_454
Mn0 P2 2.369372 1_555
Mn1 P1 2.316468 1_555
Mn1 P5 2.337133 1_555
Mn1 P5 2.337133 1_554
Mn1 P0 2.369372 1_555
Mn2 P2 2.316468 1_555
Mn2 P3 2.337133 1_565
Mn2 P3 2.337133 1_564
Mn2 P1 2.369372 1_555
Mn3 P6 2.233810 1_555
Mn3 P3 2.273136 1_554
Mn3 P3 2.273136 1_555
Mn3 P0 2.308825 1_555
Mn4 P6 2.233810 1_655
Mn4 P4 2.273136 1_554
Mn4 P4 2.273136 1_555
Mn4 P1 2.308825 1_545
Mn5 P6 2.233810 1_665
Mn5 P5 2.273136 1_554
Mn5 P5 2.273136 1_555
Mn5 P2 2.308825 1_655
Mn6 P0 2.308371 1_556
Mn6 P0 2.308371 1_555
Mn6 P5 2.331065 1_555
Mn6 P3 2.339603 1_555
Mn7 P1 2.308371 1_545
Mn7 P1 2.308371 1_546
Mn7 P3 2.331065 1_555
Mn7 P4 2.339603 1_555
Mn8 P2 2.308371 1_655
Mn8 P2 2.308371 1_656
Mn8 P4 2.331065 1_555
Mn8 P5 2.339603 1_555
Mn9 P4 2.437115 1_455
Mn9 P0 2.497808 1_555
Mn9 P0 2.497808 1_556
Mn9 P6 2.553678 1_555
Mn9 P6 2.553678 1_556
Mn10 P5 2.437124 1_555
Mn10 P1 2.497805 1_556
Mn10 P1 2.497805 1_555
Mn10 P6 2.553677 1_666
Mn10 P6 2.553677 1_665
Mn11 P3 2.437121 1_565
Mn11 P2 2.497811 1_556
Mn11 P2 2.497811 1_555
Mn11 P6 2.553672 1_566
Mn11 P6 2.553672 1_565
