# generated using pymatgen
data_Ca2SiO4
_symmetry_space_group_name_H-M   'P 1'
_cell_length_a   5.53515848
_cell_length_b   5.53515848
_cell_length_c   7.56245100
_cell_angle_alpha   90.00000000
_cell_angle_beta   90.00000000
_cell_angle_gamma   120.00000578
_symmetry_Int_Tables_number   1
_chemical_formula_structural   Ca2SiO4
_chemical_formula_sum   'Ca4 Si2 O8'
_cell_volume   200.65653131
_cell_formula_units_Z   2
loop_
 _symmetry_equiv_pos_site_id
 _symmetry_equiv_pos_as_xyz
  1  'x, y, z'
loop_
 _atom_site_type_symbol
 _atom_site_label
 _atom_site_symmetry_multiplicity
 _atom_site_fract_x
 _atom_site_fract_y
 _atom_site_fract_z
 _atom_site_occupancy
  Ca  Ca0  1  0.66666700  0.33333300  0.31968400  1
  Ca  Ca1  1  0.33333300  0.66666700  0.81968400  1
  Ca  Ca2  1  0.00000000  0.00000000  0.06036000  1
  Ca  Ca3  1  0.00000000  0.00000000  0.56036000  1
  Si  Si0  1  0.66666700  0.33333300  0.83861700  1
  Si  Si1  1  0.33333300  0.66666700  0.33861700  1
  O  O0  1  0.66666700  0.33333300  0.05255300  1
  O  O1  1  0.33333300  0.66666700  0.55255300  1
  O  O2  1  0.83015200  0.66030400  0.77490000  1
  O  O3  1  0.33969600  0.16984800  0.77490000  1
  O  O4  1  0.83015200  0.16984800  0.77490000  1
  O  O5  1  0.16984800  0.33969600  0.27490000  1
  O  O6  1  0.66030400  0.83015200  0.27490000  1
  O  O7  1  0.16984800  0.83015200  0.27490000  1
loop_
_geom_bond_atom_site_label_1
_geom_bond_atom_site_label_2
_geom_bond_distance
_geom_bond_site_symmetry_2
Ca0 O0 2.020165 1_555
Ca0 O6 2.788389 1_545
Ca0 O5 2.788389 1_655
Ca0 O7 2.788391 1_545
Ca0 O7 2.788391 1_655
Ca0 O5 2.788394 1_555
Ca0 O6 2.788394 1_555
Ca1 O1 2.020165 1_555
Ca1 O3 2.788389 1_565
Ca1 O2 2.788389 1_455
Ca1 O4 2.788391 1_565
Ca1 O4 2.788391 1_455
Ca1 O2 2.788394 1_555
Ca1 O3 2.788394 1_555
Ca2 O6 2.298674 1_445
Ca2 O5 2.298674 1_555
Ca2 O7 2.298674 1_545
Ca2 O2 2.704050 1_444
Ca2 O3 2.704050 1_554
Ca2 O4 2.704050 1_454
Ca3 O2 2.298674 1_445
Ca3 O3 2.298674 1_555
Ca3 O4 2.298674 1_455
Ca3 O6 2.704050 1_445
Ca3 O5 2.704050 1_555
Ca3 O7 2.704050 1_545
O0 Si0 1.617881 1_554
O1 Si1 1.617881 1_555
O2 Si0 1.639761 1_555
O3 Si0 1.639761 1_555
O4 Si0 1.639757 1_555
O5 Si1 1.639761 1_555
O6 Si1 1.639761 1_555
O7 Si1 1.639757 1_555
