# generated using pymatgen
data_Li2Fe2(SO4)3
_symmetry_space_group_name_H-M   'P 1'
_cell_length_a   8.75139891
_cell_length_b   8.82016844
_cell_length_c   24.36151486
_cell_angle_alpha   90.00000000
_cell_angle_beta   90.00000000
_cell_angle_gamma   90.00000000
_symmetry_Int_Tables_number   1
_chemical_formula_structural   Li2Fe2(SO4)3
_chemical_formula_sum   'Li16 Fe16 S24 O96'
_cell_volume   1880.43640206
_cell_formula_units_Z   8
loop_
 _symmetry_equiv_pos_site_id
 _symmetry_equiv_pos_as_xyz
  1  'x, y, z'
loop_
 _atom_site_type_symbol
 _atom_site_label
 _atom_site_symmetry_multiplicity
 _atom_site_fract_x
 _atom_site_fract_y
 _atom_site_fract_z
 _atom_site_occupancy
  Li  Li0  1  0.03700827  0.62176163  0.29072647  1
  Li  Li1  1  0.03700827  0.87823837  0.79072647  1
  Li  Li2  1  0.14344810  0.93120480  0.00947095  1
  Li  Li3  1  0.14344810  0.56879520  0.50947095  1
  Li  Li4  1  0.35655190  0.06879520  0.50947095  1
  Li  Li5  1  0.35655190  0.43120480  0.00947095  1
  Li  Li6  1  0.46299173  0.12176163  0.29072647  1
  Li  Li7  1  0.46299173  0.37823837  0.79072647  1
  Li  Li8  1  0.53700827  0.62176163  0.20927353  1
  Li  Li9  1  0.53700827  0.87823837  0.70927353  1
  Li  Li10  1  0.64344810  0.56879520  0.99052905  1
  Li  Li11  1  0.64344810  0.93120480  0.49052905  1
  Li  Li12  1  0.85655190  0.43120480  0.49052905  1
  Li  Li13  1  0.85655190  0.06879520  0.99052905  1
  Li  Li14  1  0.96299173  0.12176163  0.20927353  1
  Li  Li15  1  0.96299173  0.37823837  0.70927353  1
  Fe  Fe0  1  0.00289089  0.40092154  0.06484775  1
  Fe  Fe1  1  0.00289089  0.09907846  0.56484775  1
  Fe  Fe2  1  0.00129009  0.79410406  0.17821000  1
  Fe  Fe3  1  0.00129009  0.70589594  0.67821000  1
  Fe  Fe4  1  0.49870891  0.29410406  0.17821000  1
  Fe  Fe5  1  0.49870891  0.20589594  0.67821000  1
  Fe  Fe6  1  0.49710911  0.59907846  0.56484775  1
  Fe  Fe7  1  0.49710911  0.90092154  0.06484775  1
  Fe  Fe8  1  0.50289089  0.40092154  0.43515225  1
  Fe  Fe9  1  0.50289089  0.09907846  0.93515225  1
  Fe  Fe10  1  0.50129009  0.70589594  0.82179000  1
  Fe  Fe11  1  0.50129009  0.79410406  0.32179000  1
  Fe  Fe12  1  0.99870991  0.29410406  0.32179000  1
  Fe  Fe13  1  0.99870991  0.20589594  0.82179000  1
  Fe  Fe14  1  0.99710911  0.90092154  0.43515225  1
  Fe  Fe15  1  0.99710911  0.59907846  0.93515225  1
  S  S0  1  0.14385198  0.94661802  0.29933329  1
  S  S1  1  0.14385198  0.55338198  0.79933329  1
  S  S2  1  0.14837571  0.25330910  0.44766558  1
  S  S3  1  0.14837571  0.24669090  0.94766558  1
  S  S4  1  0.19540686  0.09362222  0.11630214  1
  S  S5  1  0.19540686  0.40637778  0.61630214  1
  S  S6  1  0.30459314  0.59362222  0.11630214  1
  S  S7  1  0.30459314  0.90637778  0.61630214  1
  S  S8  1  0.35162429  0.75330910  0.44766558  1
  S  S9  1  0.35162429  0.74669090  0.94766558  1
  S  S10  1  0.35614802  0.44661802  0.29933329  1
  S  S11  1  0.35614802  0.05338198  0.79933329  1
  S  S12  1  0.64385198  0.55338198  0.70066671  1
  S  S13  1  0.64385198  0.94661802  0.20066671  1
  S  S14  1  0.64837571  0.25330910  0.05233442  1
  S  S15  1  0.64837571  0.24669090  0.55233442  1
  S  S16  1  0.69540686  0.09362222  0.38369786  1
  S  S17  1  0.69540686  0.40637778  0.88369786  1
  S  S18  1  0.80459314  0.59362222  0.38369786  1
  S  S19  1  0.80459314  0.90637778  0.88369786  1
  S  S20  1  0.85162429  0.75330910  0.05233442  1
  S  S21  1  0.85162429  0.74669090  0.55233442  1
  S  S22  1  0.85614802  0.44661802  0.20066671  1
  S  S23  1  0.85614802  0.05338198  0.70066671  1
  O  O0  1  0.06442217  0.38871199  0.46605620  1
  O  O1  1  0.06442217  0.11128801  0.96605620  1
  O  O2  1  0.08156627  0.09368640  0.27858083  1
  O  O3  1  0.08156627  0.40631360  0.77858083  1
  O  O4  1  0.08466181  0.11090655  0.47531461  1
  O  O5  1  0.08466181  0.38909345  0.97531461  1
  O  O6  1  0.08879747  0.91391104  0.35477810  1
  O  O7  1  0.08879747  0.58608896  0.85477810  1
  O  O8  1  0.09528744  0.19165217  0.08321231  1
  O  O9  1  0.09528744  0.30834783  0.58321231  1
  O  O10  1  0.09280927  0.82204263  0.26166225  1
  O  O11  1  0.09280927  0.67795737  0.76166225  1
  O  O12  1  0.09869154  0.01006506  0.15678925  1
  O  O13  1  0.09869154  0.48993494  0.65678925  1
  O  O14  1  0.13904324  0.23264099  0.38814720  1
  O  O15  1  0.13904324  0.26735901  0.88814720  1
  O  O16  1  0.18527329  0.45394094  0.29804990  1
  O  O17  1  0.18527329  0.04605906  0.79804990  1
  O  O18  1  0.18792240  0.68014678  0.14602567  1
  O  O19  1  0.18792240  0.81985322  0.64602567  1
  O  O20  1  0.18871085  0.76438870  0.46603226  1
  O  O21  1  0.18871085  0.73561130  0.96603226  1
  O  O22  1  0.23071454  0.01718470  0.57766888  1
  O  O23  1  0.23071454  0.48281530  0.07766888  1
  O  O24  1  0.26928546  0.98281530  0.07766888  1
  O  O25  1  0.26928546  0.51718470  0.57766888  1
  O  O26  1  0.31128915  0.23561130  0.96603226  1
  O  O27  1  0.31128915  0.26438870  0.46603226  1
  O  O28  1  0.31207760  0.18014678  0.14602567  1
  O  O29  1  0.31207760  0.31985322  0.64602567  1
  O  O30  1  0.31472671  0.95394094  0.29804990  1
  O  O31  1  0.31472671  0.54605906  0.79804990  1
  O  O32  1  0.36095676  0.73264099  0.38814720  1
  O  O33  1  0.36095676  0.76735901  0.88814720  1
  O  O34  1  0.40130846  0.51006506  0.15678925  1
  O  O35  1  0.40130846  0.98993494  0.65678925  1
  O  O36  1  0.40719073  0.32204263  0.26166225  1
  O  O37  1  0.40719073  0.17795737  0.76166225  1
  O  O38  1  0.40471256  0.69165217  0.08321231  1
  O  O39  1  0.40471256  0.80834783  0.58321231  1
  O  O40  1  0.41120253  0.08608896  0.85477810  1
  O  O41  1  0.41120253  0.41391104  0.35477810  1
  O  O42  1  0.41533819  0.61090655  0.47531461  1
  O  O43  1  0.41533819  0.88909345  0.97531461  1
  O  O44  1  0.41843373  0.59368640  0.27858083  1
  O  O45  1  0.41843373  0.90631360  0.77858083  1
  O  O46  1  0.43557783  0.61128801  0.96605620  1
  O  O47  1  0.43557783  0.88871199  0.46605620  1
  O  O48  1  0.56442217  0.38871199  0.03394380  1
  O  O49  1  0.56442217  0.11128801  0.53394380  1
  O  O50  1  0.58156627  0.09368640  0.22141917  1
  O  O51  1  0.58156627  0.40631360  0.72141917  1
  O  O52  1  0.58466181  0.11090655  0.02468539  1
  O  O53  1  0.58466181  0.38909345  0.52468539  1
  O  O54  1  0.58879747  0.58608896  0.64522190  1
  O  O55  1  0.58879747  0.91391104  0.14522190  1
  O  O56  1  0.59528744  0.19165217  0.41678769  1
  O  O57  1  0.59528744  0.30834783  0.91678769  1
  O  O58  1  0.59280927  0.82204263  0.23833775  1
  O  O59  1  0.59280927  0.67795737  0.73833775  1
  O  O60  1  0.59869154  0.01006506  0.34321075  1
  O  O61  1  0.59869154  0.48993494  0.84321075  1
  O  O62  1  0.63904324  0.23264099  0.11185280  1
  O  O63  1  0.63904324  0.26735901  0.61185280  1
  O  O64  1  0.68527329  0.45394094  0.20195010  1
  O  O65  1  0.68527329  0.04605906  0.70195010  1
  O  O66  1  0.68792240  0.68014678  0.35397433  1
  O  O67  1  0.68792240  0.81985322  0.85397433  1
  O  O68  1  0.68871085  0.76438870  0.03396774  1
  O  O69  1  0.68871085  0.73561130  0.53396774  1
  O  O70  1  0.73071454  0.48281530  0.42233112  1
  O  O71  1  0.73071454  0.01718470  0.92233112  1
  O  O72  1  0.76928546  0.98281530  0.42233112  1
  O  O73  1  0.76928546  0.51718470  0.92233112  1
  O  O74  1  0.81128915  0.26438870  0.03396774  1
  O  O75  1  0.81128915  0.23561130  0.53396774  1
  O  O76  1  0.81207760  0.18014678  0.35397433  1
  O  O77  1  0.81207760  0.31985322  0.85397433  1
  O  O78  1  0.81472671  0.54605906  0.70195010  1
  O  O79  1  0.81472671  0.95394094  0.20195010  1
  O  O80  1  0.86095676  0.73264099  0.11185280  1
  O  O81  1  0.86095676  0.76735901  0.61185280  1
  O  O82  1  0.90130846  0.51006506  0.34321075  1
  O  O83  1  0.90130846  0.98993494  0.84321075  1
  O  O84  1  0.90719073  0.32204263  0.23833775  1
  O  O85  1  0.90719073  0.17795737  0.73833775  1
  O  O86  1  0.90471256  0.69165217  0.41678769  1
  O  O87  1  0.90471256  0.80834783  0.91678769  1
  O  O88  1  0.91120253  0.41391104  0.14522190  1
  O  O89  1  0.91120253  0.08608896  0.64522190  1
  O  O90  1  0.91533819  0.61090655  0.02468539  1
  O  O91  1  0.91533819  0.88909345  0.52468539  1
  O  O92  1  0.91843373  0.59368640  0.22141917  1
  O  O93  1  0.91843373  0.90631360  0.72141917  1
  O  O94  1  0.93557783  0.61128801  0.53394380  1
  O  O95  1  0.93557783  0.88871199  0.03394380  1
loop_
_geom_bond_atom_site_label_1
_geom_bond_atom_site_label_2
_geom_bond_distance
_geom_bond_site_symmetry_2
Li0 O10 1.964783 1_555
Li0 O16 1.976466 1_555
Li0 O92 1.997229 1_455
Li0 O82 2.003921 1_455
Li1 O11 1.964783 1_555
Li1 O17 1.976466 1_565
Li1 O93 1.997229 1_455
Li1 O83 2.003921 1_455
Li2 O95 1.950704 1_455
Li2 O1 2.029733 1_564
Li2 O24 2.044564 1_555
Li2 O21 2.062272 1_554
Li2 O43 2.547937 1_554
Li3 O94 1.950704 1_455
Li3 O0 2.029733 1_555
Li3 O25 2.044564 1_555
Li3 O20 2.062272 1_555
Li3 O42 2.547937 1_555
Li4 O49 1.950704 1_555
Li4 O47 2.029733 1_545
Li4 O22 2.044564 1_555
Li4 O27 2.062272 1_555
Li4 O4 2.547937 1_555
Li5 O48 1.950704 1_555
Li5 O46 2.029733 1_554
Li5 O23 2.044564 1_555
Li5 O26 2.062272 1_554
Li5 O5 2.547937 1_554
Li6 O36 1.964783 1_555
Li6 O30 1.976466 1_545
Li6 O50 1.997229 1_555
Li6 O60 2.003921 1_555
Li7 O37 1.964783 1_555
Li7 O31 1.976466 1_555
Li7 O51 1.997229 1_555
Li7 O61 2.003921 1_555
Li8 O58 1.964783 1_555
Li8 O64 1.976466 1_555
Li8 O44 1.997229 1_555
Li8 O34 2.003921 1_555
Li9 O59 1.964783 1_555
Li9 O65 1.976466 1_565
Li9 O45 1.997229 1_555
Li9 O35 2.003921 1_555
Li10 O46 1.950704 1_555
Li10 O48 2.029733 1_556
Li10 O73 2.044564 1_555
Li10 O68 2.062272 1_556
Li10 O90 2.547937 1_556
Li11 O47 1.950704 1_555
Li11 O49 2.029733 1_565
Li11 O72 2.044564 1_555
Li11 O69 2.062272 1_555
Li11 O91 2.547937 1_555
Li12 O0 1.950704 1_655
Li12 O94 2.029733 1_555
Li12 O70 2.044564 1_555
Li12 O75 2.062272 1_555
Li12 O53 2.547937 1_555
Li13 O1 1.950704 1_655
Li13 O95 2.029733 1_546
Li13 O71 2.044564 1_555
Li13 O74 2.062272 1_556
Li13 O52 2.547937 1_556
Li14 O84 1.964783 1_555
Li14 O79 1.976466 1_545
Li14 O2 1.997229 1_655
Li14 O12 2.003921 1_655
Li15 O85 1.964783 1_555
Li15 O78 1.976466 1_555
Li15 O3 1.997229 1_655
Li15 O13 2.003921 1_655
Fe0 O8 2.064203 1_555
Fe0 O88 2.119170 1_455
Fe0 O23 2.143465 1_555
Fe0 O74 2.197210 1_455
Fe0 O90 2.230394 1_455
Fe0 O5 2.297924 1_554
Fe1 O9 2.064203 1_555
Fe1 O89 2.119170 1_455
Fe1 O22 2.143465 1_555
Fe1 O75 2.197210 1_455
Fe1 O91 2.230394 1_445
Fe1 O4 2.297924 1_555
Fe2 O18 2.071876 1_555
Fe2 O80 2.101291 1_455
Fe2 O12 2.151096 1_565
Fe2 O92 2.181436 1_455
Fe2 O10 2.198950 1_555
Fe2 O79 2.233308 1_455
Fe3 O19 2.071876 1_555
Fe3 O81 2.101291 1_455
Fe3 O13 2.151096 1_555
Fe3 O93 2.181436 1_455
Fe3 O11 2.198950 1_555
Fe3 O78 2.233308 1_455
Fe4 O28 2.071869 1_555
Fe4 O62 2.101296 1_555
Fe4 O34 2.151092 1_555
Fe4 O50 2.181438 1_555
Fe4 O36 2.198947 1_555
Fe4 O64 2.233314 1_555
Fe5 O29 2.071869 1_555
Fe5 O63 2.101296 1_555
Fe5 O35 2.151092 1_545
Fe5 O51 2.181438 1_555
Fe5 O37 2.198947 1_555
Fe5 O65 2.233314 1_555
Fe6 O39 2.064203 1_555
Fe6 O54 2.119170 1_555
Fe6 O25 2.143465 1_555
Fe6 O69 2.197210 1_555
Fe6 O53 2.230394 1_555
Fe6 O42 2.297924 1_555
Fe7 O38 2.064203 1_555
Fe7 O55 2.119170 1_555
Fe7 O24 2.143465 1_555
Fe7 O68 2.197210 1_555
Fe7 O52 2.230394 1_565
Fe7 O43 2.297924 1_554
Fe8 O56 2.064203 1_555
Fe8 O41 2.119170 1_555
Fe8 O70 2.143465 1_555
Fe8 O27 2.197210 1_555
Fe8 O42 2.230394 1_555
Fe8 O53 2.297924 1_555
Fe9 O57 2.064203 1_555
Fe9 O40 2.119170 1_555
Fe9 O71 2.143465 1_555
Fe9 O26 2.197210 1_555
Fe9 O43 2.230394 1_545
Fe9 O52 2.297924 1_556
Fe10 O67 2.071876 1_555
Fe10 O33 2.101291 1_555
Fe10 O61 2.151096 1_555
Fe10 O45 2.181436 1_555
Fe10 O59 2.198950 1_555
Fe10 O31 2.233308 1_555
Fe11 O66 2.071876 1_555
Fe11 O32 2.101291 1_555
Fe11 O60 2.151096 1_565
Fe11 O44 2.181436 1_555
Fe11 O58 2.198950 1_555
Fe11 O30 2.233308 1_555
Fe12 O76 2.071876 1_555
Fe12 O14 2.101291 1_655
Fe12 O82 2.151096 1_555
Fe12 O2 2.181436 1_655
Fe12 O84 2.198950 1_555
Fe12 O16 2.233308 1_655
Fe13 O77 2.071876 1_555
Fe13 O15 2.101291 1_655
Fe13 O83 2.151096 1_545
Fe13 O3 2.181436 1_655
Fe13 O85 2.198950 1_555
Fe13 O17 2.233308 1_655
Fe14 O86 2.064203 1_555
Fe14 O6 2.119170 1_655
Fe14 O72 2.143465 1_555
Fe14 O20 2.197210 1_655
Fe14 O4 2.230394 1_665
Fe14 O91 2.297924 1_555
Fe15 O87 2.064203 1_555
Fe15 O7 2.119170 1_655
Fe15 O73 2.143465 1_555
Fe15 O21 2.197210 1_655
Fe15 O5 2.230394 1_655
Fe15 O90 2.297924 1_556
O0 S2 1.472013 1_555
O1 S3 1.472013 1_555
O2 S0 1.495111 1_545
O3 S1 1.495111 1_555
O4 S2 1.530416 1_555
O5 S3 1.530416 1_555
O6 S0 1.462805 1_555
O7 S1 1.462805 1_555
O8 S4 1.471438 1_555
O9 S5 1.471438 1_555
O10 S0 1.499687 1_555
O11 S1 1.499687 1_555
O12 S4 1.494114 1_555
O13 S5 1.494114 1_555
O14 S2 1.463653 1_555
O15 S3 1.463653 1_555
O16 S10 1.497114 1_555
O17 S11 1.497114 1_555
O18 S6 1.466035 1_555
O19 S7 1.466035 1_555
O20 S8 1.497475 1_555
O21 S9 1.497475 1_555
O22 S7 1.502994 1_545
O23 S6 1.502994 1_555
O24 S4 1.502994 1_565
O25 S5 1.502994 1_555
O26 S3 1.497475 1_555
O27 S2 1.497475 1_555
O28 S4 1.466035 1_555
O29 S5 1.466035 1_555
O30 S0 1.497114 1_555
O31 S1 1.497114 1_555
O32 S8 1.463653 1_555
O33 S9 1.463653 1_555
O34 S6 1.494114 1_555
O35 S7 1.494114 1_555
O36 S10 1.499687 1_555
O37 S11 1.499687 1_555
O38 S6 1.471438 1_555
O39 S7 1.471438 1_555
O40 S11 1.462805 1_555
O41 S10 1.462805 1_555
O42 S8 1.530416 1_555
O43 S9 1.530416 1_555
O44 S10 1.495111 1_555
O45 S11 1.495111 1_565
O46 S9 1.472013 1_555
O47 S8 1.472013 1_555
O48 S14 1.472013 1_555
O49 S15 1.472013 1_555
O50 S13 1.495111 1_545
O51 S12 1.495111 1_555
O52 S14 1.530416 1_555
O53 S15 1.530416 1_555
O54 S12 1.462805 1_555
O55 S13 1.462805 1_555
O56 S16 1.471438 1_555
O57 S17 1.471438 1_555
O58 S13 1.499687 1_555
O59 S12 1.499687 1_555
O60 S16 1.494114 1_555
O61 S17 1.494114 1_555
O62 S14 1.463653 1_555
O63 S15 1.463653 1_555
O64 S22 1.497114 1_555
O65 S23 1.497114 1_555
O66 S18 1.466035 1_555
O67 S19 1.466035 1_555
O68 S20 1.497475 1_555
O69 S21 1.497475 1_555
O70 S18 1.502994 1_555
O71 S19 1.502994 1_545
O72 S16 1.502994 1_565
O73 S17 1.502994 1_555
O74 S14 1.497475 1_555
O75 S15 1.497475 1_555
O76 S16 1.466035 1_555
O77 S17 1.466035 1_555
O78 S12 1.497114 1_555
O79 S13 1.497114 1_555
O80 S20 1.463653 1_555
O81 S21 1.463653 1_555
O82 S18 1.494114 1_555
O83 S19 1.494114 1_555
O84 S22 1.499687 1_555
O85 S23 1.499687 1_555
O86 S18 1.471438 1_555
O87 S19 1.471438 1_555
O88 S22 1.462805 1_555
O89 S23 1.462805 1_555
O90 S20 1.530416 1_555
O91 S21 1.530416 1_555
O92 S22 1.495111 1_555
O93 S23 1.495111 1_565
O94 S21 1.472013 1_555
O95 S20 1.472013 1_555
