# generated using pymatgen
data_Fe2H10Cl6O5
_symmetry_space_group_name_H-M   'P 1'
_cell_length_a   6.29785800
_cell_length_b   13.29313500
_cell_length_c   16.97027100
_cell_angle_alpha   90.00000000
_cell_angle_beta   90.00000000
_cell_angle_gamma   90.00000000
_symmetry_Int_Tables_number   1
_chemical_formula_structural   Fe2H10Cl6O5
_chemical_formula_sum   'Fe8 H40 Cl24 O20'
_cell_volume   1420.72184164
_cell_formula_units_Z   4
loop_
 _symmetry_equiv_pos_site_id
 _symmetry_equiv_pos_as_xyz
  1  'x, y, z'
loop_
 _atom_site_type_symbol
 _atom_site_label
 _atom_site_symmetry_multiplicity
 _atom_site_fract_x
 _atom_site_fract_y
 _atom_site_fract_z
 _atom_site_occupancy
  Fe  Fe0  1  0.55173200  0.24455500  0.75238300  1
  Fe  Fe1  1  0.44826800  0.75544500  0.25238300  1
  Fe  Fe2  1  0.44826800  0.74455500  0.75238300  1
  Fe  Fe3  1  0.55173200  0.25544500  0.25238300  1
  Fe  Fe4  1  0.03666300  0.01571400  0.50135100  1
  Fe  Fe5  1  0.96333700  0.98428600  0.00135100  1
  Fe  Fe6  1  0.96333700  0.51571400  0.50135100  1
  Fe  Fe7  1  0.03666300  0.48428600  0.00135100  1
  H  H0  1  0.00421700  0.30836300  0.78207100  1
  H  H1  1  0.99578300  0.69163700  0.28207100  1
  H  H2  1  0.99578300  0.80836300  0.78207100  1
  H  H3  1  0.00421700  0.19163700  0.28207100  1
  H  H4  1  0.08452800  0.64397400  0.71885100  1
  H  H5  1  0.91547200  0.35602600  0.21885100  1
  H  H6  1  0.91547200  0.14397400  0.71885100  1
  H  H7  1  0.08452800  0.85602600  0.21885100  1
  H  H8  1  0.55676500  0.30169000  0.59494200  1
  H  H9  1  0.44323500  0.69831000  0.09494200  1
  H  H10  1  0.44323500  0.80169000  0.59494200  1
  H  H11  1  0.55676500  0.19831000  0.09494200  1
  H  H12  1  0.25606900  0.56762300  0.68779200  1
  H  H13  1  0.74393100  0.43237700  0.18779200  1
  H  H14  1  0.74393100  0.06762300  0.68779200  1
  H  H15  1  0.25606900  0.93237700  0.18779200  1
  H  H16  1  0.27672200  0.26579900  0.50695500  1
  H  H17  1  0.72327800  0.73420100  0.00695500  1
  H  H18  1  0.72327800  0.76579900  0.50695500  1
  H  H19  1  0.27672200  0.23420100  0.00695500  1
  H  H20  1  0.45876700  0.18797800  0.50456100  1
  H  H21  1  0.54123300  0.81202200  0.00456100  1
  H  H22  1  0.54123300  0.68797800  0.50456100  1
  H  H23  1  0.45876700  0.31202200  0.00456100  1
  H  H24  1  0.17289700  0.87943500  0.81702000  1
  H  H25  1  0.82710300  0.12056500  0.31702000  1
  H  H26  1  0.82710300  0.37943500  0.81702000  1
  H  H27  1  0.17289700  0.62056500  0.31702000  1
  H  H28  1  0.51169900  0.19633500  0.91152000  1
  H  H29  1  0.48830100  0.80366500  0.41152000  1
  H  H30  1  0.48830100  0.69633500  0.91152000  1
  H  H31  1  0.51169900  0.30366500  0.41152000  1
  H  H32  1  0.76097200  0.34957600  0.63903100  1
  H  H33  1  0.23902800  0.65042400  0.13903100  1
  H  H34  1  0.23902800  0.84957600  0.63903100  1
  H  H35  1  0.76097200  0.15042400  0.13903100  1
  H  H36  1  0.68988000  0.12889800  0.86835200  1
  H  H37  1  0.31012000  0.87110200  0.36835200  1
  H  H38  1  0.31012000  0.62889800  0.86835200  1
  H  H39  1  0.68988000  0.37110200  0.36835200  1
  Cl  Cl0  1  0.08739400  0.43139400  0.60674100  1
  Cl  Cl1  1  0.91260600  0.56860600  0.10674100  1
  Cl  Cl2  1  0.91260600  0.93139400  0.60674100  1
  Cl  Cl3  1  0.08739400  0.06860600  0.10674100  1
  Cl  Cl4  1  0.05970600  0.05933800  0.88968900  1
  Cl  Cl5  1  0.94029400  0.94066200  0.38968900  1
  Cl  Cl6  1  0.94029400  0.55933800  0.88968900  1
  Cl  Cl7  1  0.05970600  0.44066200  0.38968900  1
  Cl  Cl8  1  0.38817400  0.37966200  0.80713800  1
  Cl  Cl9  1  0.61182600  0.62033800  0.30713800  1
  Cl  Cl10  1  0.61182600  0.87966200  0.80713800  1
  Cl  Cl11  1  0.38817400  0.12033800  0.30713800  1
  Cl  Cl12  1  0.25988800  0.16559800  0.70020800  1
  Cl  Cl13  1  0.74011200  0.83440200  0.20020800  1
  Cl  Cl14  1  0.74011200  0.66559800  0.70020800  1
  Cl  Cl15  1  0.25988800  0.33440200  0.20020800  1
  Cl  Cl16  1  0.38777300  0.01198100  0.51030600  1
  Cl  Cl17  1  0.61222700  0.98801900  0.01030600  1
  Cl  Cl18  1  0.61222700  0.51198100  0.51030600  1
  Cl  Cl19  1  0.38777300  0.48801900  0.01030600  1
  Cl  Cl20  1  0.07376400  0.67454700  0.50081900  1
  Cl  Cl21  1  0.92623600  0.32545300  0.00081900  1
  Cl  Cl22  1  0.92623600  0.17454700  0.50081900  1
  Cl  Cl23  1  0.07376400  0.82545300  0.00081900  1
  O  O0  1  0.23623900  0.62632700  0.72206800  1
  O  O1  1  0.76376100  0.37367300  0.22206800  1
  O  O2  1  0.76376100  0.12632700  0.72206800  1
  O  O3  1  0.23623900  0.87367300  0.22206800  1
  O  O4  1  0.43212800  0.26092000  0.50313900  1
  O  O5  1  0.56787200  0.73908000  0.00313900  1
  O  O6  1  0.56787200  0.76092000  0.50313900  1
  O  O7  1  0.43212800  0.23908000  0.00313900  1
  O  O8  1  0.56499700  0.17101100  0.85932400  1
  O  O9  1  0.43500300  0.82898900  0.35932400  1
  O  O10  1  0.43500300  0.67101100  0.85932400  1
  O  O11  1  0.56499700  0.32898900  0.35932400  1
  O  O12  1  0.14965200  0.81855400  0.78583500  1
  O  O13  1  0.85034800  0.18144600  0.28583500  1
  O  O14  1  0.85034800  0.31855400  0.78583500  1
  O  O15  1  0.14965200  0.68144600  0.28583500  1
  O  O16  1  0.62582400  0.31420400  0.64680600  1
  O  O17  1  0.37417600  0.68579600  0.14680600  1
  O  O18  1  0.37417600  0.81420400  0.64680600  1
  O  O19  1  0.62582400  0.18579600  0.14680600  1
loop_
_geom_bond_atom_site_label_1
_geom_bond_atom_site_label_2
_geom_bond_distance
_geom_bond_site_symmetry_2
Fe0 O8 2.063081 1_555
Fe0 O16 2.070030 1_555
Fe0 O2 2.125502 1_555
Fe0 O14 2.196977 1_555
Fe1 O9 2.063081 1_555
Fe1 O17 2.070030 1_555
Fe1 O3 2.125502 1_555
Fe1 O15 2.196977 1_555
Fe2 O10 2.063081 1_555
Fe2 O18 2.070030 1_555
Fe2 O0 2.125502 1_555
Fe2 O12 2.196977 1_555
Fe3 O11 2.063081 1_555
Fe3 O19 2.070030 1_555
Fe3 O1 2.125502 1_555
Fe3 O13 2.196977 1_555
H0 O14 0.980551 1_455
H1 O15 0.980551 1_655
H2 O12 0.980551 1_655
H3 O13 0.980551 1_455
H4 O0 0.985344 1_555
H5 O1 0.985344 1_555
H6 O2 0.985344 1_555
H7 O3 0.985344 1_555
H8 O16 0.995735 1_555
H9 O17 0.995735 1_555
H10 O18 0.995735 1_555
H11 O19 0.995735 1_555
H12 O0 0.981276 1_555
H13 O1 0.981276 1_555
H14 O2 0.981276 1_555
H15 O3 0.981276 1_555
H16 O4 0.983007 1_555
H17 O5 0.983007 1_555
H18 O6 0.983007 1_555
H19 O7 0.983007 1_555
H20 O4 0.984331 1_555
H21 O5 0.984331 1_555
H22 O6 0.984331 1_555
H23 O7 0.984331 1_555
H24 O12 0.977992 1_555
H25 O13 0.977992 1_555
H26 O14 0.977992 1_555
H27 O15 0.977992 1_555
H28 O8 1.005286 1_555
H29 O9 1.005286 1_555
H30 O10 1.005286 1_555
H31 O11 1.005286 1_555
H32 O16 0.981298 1_555
H33 O17 0.981298 1_555
H34 O18 0.981298 1_555
H35 O19 0.981298 1_555
H36 O8 0.977466 1_555
H37 O9 0.977466 1_555
H38 O10 0.977466 1_555
H39 O11 0.977466 1_555
Cl0 Fe6 2.250668 1_455
Cl1 Fe7 2.250668 1_655
Cl2 Fe4 2.250668 1_665
Cl3 Fe5 2.250668 1_445
Cl4 Fe5 2.225867 1_446
Cl5 Fe4 2.225867 1_665
Cl6 Fe7 2.225867 1_656
Cl7 Fe6 2.225867 1_455
Cl8 Fe0 2.269374 1_555
Cl9 Fe1 2.269374 1_555
Cl10 Fe2 2.269374 1_555
Cl11 Fe3 2.269374 1_555
Cl12 Fe0 2.294302 1_555
Cl13 Fe1 2.294302 1_555
Cl14 Fe2 2.294302 1_555
Cl15 Fe3 2.294302 1_555
Cl16 Fe4 2.217012 1_555
Cl17 Fe5 2.217012 1_555
Cl18 Fe6 2.217012 1_555
Cl19 Fe7 2.217012 1_555
Cl20 Fe6 2.222993 1_455
Cl21 Fe7 2.222993 1_655
Cl22 Fe4 2.222993 1_655
Cl23 Fe5 2.222993 1_455
