# generated using pymatgen
data_PrFeSb2
_symmetry_space_group_name_H-M   'P 1'
_cell_length_a   4.39334900
_cell_length_b   4.39334900
_cell_length_c   9.93817100
_cell_angle_alpha   90.00000000
_cell_angle_beta   90.00000000
_cell_angle_gamma   90.00000000
_symmetry_Int_Tables_number   1
_chemical_formula_structural   PrFeSb2
_chemical_formula_sum   'Pr2 Fe2 Sb4'
_cell_volume   191.82176096
_cell_formula_units_Z   2
loop_
 _symmetry_equiv_pos_site_id
 _symmetry_equiv_pos_as_xyz
  1  'x, y, z'
loop_
 _atom_site_type_symbol
 _atom_site_label
 _atom_site_symmetry_multiplicity
 _atom_site_fract_x
 _atom_site_fract_y
 _atom_site_fract_z
 _atom_site_occupancy
  Pr  Pr0  1  0.00000000  0.50000000  0.74457000  1
  Pr  Pr1  1  0.50000000  0.00000000  0.25543000  1
  Fe  Fe0  1  0.50000000  0.50000000  0.50000000  1
  Fe  Fe1  1  0.00000000  0.00000000  0.50000000  1
  Sb  Sb0  1  0.50000000  0.50000000  0.00000000  1
  Sb  Sb1  1  0.00000000  0.00000000  0.00000000  1
  Sb  Sb2  1  0.00000000  0.50000000  0.36704900  1
  Sb  Sb3  1  0.50000000  0.00000000  0.63295100  1
loop_
_geom_bond_atom_site_label_1
_geom_bond_atom_site_label_2
_geom_bond_distance
_geom_bond_site_symmetry_2
Pr0 Sb3 3.298678 1_455
Pr0 Sb3 3.298678 1_565
Pr0 Sb3 3.298678 1_465
Pr0 Sb3 3.298678 1_555
Pr0 Sb0 3.356992 1_556
Pr0 Sb1 3.356992 1_556
Pr0 Sb0 3.356992 1_456
Pr0 Sb1 3.356992 1_566
Pr1 Sb2 3.298678 1_545
Pr1 Sb2 3.298678 1_555
Pr1 Sb2 3.298678 1_655
Pr1 Sb2 3.298678 1_645
Pr1 Sb0 3.356992 1_545
Pr1 Sb1 3.356992 1_655
Pr1 Sb1 3.356992 1_555
Pr1 Sb0 3.356992 1_555
Fe0 Sb2 2.563432 1_555
Fe0 Sb2 2.563432 1_655
Fe0 Sb3 2.563432 1_555
Fe0 Sb3 2.563432 1_565
Fe0 Pr0 3.276140 1_555
Fe0 Pr0 3.276140 1_655
Fe0 Pr1 3.276140 1_565
Fe0 Pr1 3.276140 1_555
Fe1 Sb2 2.563432 1_545
Fe1 Sb2 2.563432 1_555
Fe1 Sb3 2.563432 1_555
Fe1 Sb3 2.563432 1_455
Fe1 Pr0 3.276140 1_545
Fe1 Pr0 3.276140 1_555
Fe1 Pr1 3.276140 1_455
Fe1 Pr1 3.276140 1_555
Sb0 Sb1 3.106567 1_665
Sb0 Sb1 3.106567 1_565
Sb0 Sb1 3.106567 1_655
Sb0 Sb1 3.106567 1_555
