# generated using pymatgen
data_Si3P3Rh
_symmetry_space_group_name_H-M   'P 1'
_cell_length_a   4.89228429
_cell_length_b   4.91133594
_cell_length_c   5.50959817
_cell_angle_alpha   108.88857154
_cell_angle_beta   108.25218422
_cell_angle_gamma   94.97019634
_symmetry_Int_Tables_number   1
_chemical_formula_structural   Si3P3Rh
_chemical_formula_sum   'Si3 P3 Rh1'
_cell_volume   116.31843464
_cell_formula_units_Z   1
loop_
 _symmetry_equiv_pos_site_id
 _symmetry_equiv_pos_as_xyz
  1  'x, y, z'
loop_
 _atom_site_type_symbol
 _atom_site_label
 _atom_site_symmetry_multiplicity
 _atom_site_fract_x
 _atom_site_fract_y
 _atom_site_fract_z
 _atom_site_occupancy
  Si  Si0  1  0.58476512  0.60089837  0.36323964  1
  Si  Si1  1  0.40439813  0.41076702  0.63390483  1
  Si  Si2  1  0.71220048  0.15915413  0.15867675  1
  P  P0  1  0.83952649  0.29284967  0.84480508  1
  P  P1  1  0.15077375  0.70833784  0.14727112  1
  P  P2  1  0.29282053  0.83978870  0.85242501  1
  Rh  Rh0  1  0.00111349  0.00260527  0.49967857  1
loop_
_geom_bond_atom_site_label_1
_geom_bond_atom_site_label_2
_geom_bond_distance
_geom_bond_site_symmetry_2
Si0 Si2 2.336080 1_555
Si0 Si1 2.336145 1_555
P0 P1 2.220393 1_656
P0 Si2 2.269088 1_556
P0 Si1 2.305887 1_555
P0 Rh0 2.377934 1_655
P1 P2 2.201617 1_554
P1 Si0 2.284826 1_555
P1 Rh0 2.377339 1_565
P2 Si2 2.253251 1_566
P2 Si1 2.270620 1_555
P2 Rh0 2.433070 1_565
Rh0 Si2 2.361978 1_455
Rh0 Si1 2.428773 1_555
Rh0 Si0 2.447598 1_445
