# generated using pymatgen
data_SiBiO4
_symmetry_space_group_name_H-M   'P 1'
_cell_length_a   10.66553586
_cell_length_b   10.66553586
_cell_length_c   10.66553586
_cell_angle_alpha   109.47122063
_cell_angle_beta   109.47122063
_cell_angle_gamma   109.47122063
_symmetry_Int_Tables_number   1
_chemical_formula_structural   SiBiO4
_chemical_formula_sum   'Si12 Bi12 O48'
_cell_volume   933.95542697
_cell_formula_units_Z   12
loop_
 _symmetry_equiv_pos_site_id
 _symmetry_equiv_pos_as_xyz
  1  'x, y, z'
loop_
 _atom_site_type_symbol
 _atom_site_label
 _atom_site_symmetry_multiplicity
 _atom_site_fract_x
 _atom_site_fract_y
 _atom_site_fract_z
 _atom_site_occupancy
  Si  Si0  1  0.12500000  0.87500000  0.25000000  1
  Si  Si1  1  0.25000000  0.12500000  0.87500000  1
  Si  Si2  1  0.75000000  0.37500000  0.62500000  1
  Si  Si3  1  0.62500000  0.37500000  0.25000000  1
  Si  Si4  1  0.62500000  0.75000000  0.37500000  1
  Si  Si5  1  0.37500000  0.62500000  0.75000000  1
  Si  Si6  1  0.12500000  0.75000000  0.87500000  1
  Si  Si7  1  0.75000000  0.87500000  0.12500000  1
  Si  Si8  1  0.87500000  0.25000000  0.12500000  1
  Si  Si9  1  0.37500000  0.25000000  0.62500000  1
  Si  Si10  1  0.25000000  0.62500000  0.37500000  1
  Si  Si11  1  0.87500000  0.12500000  0.75000000  1
  Bi  Bi0  1  0.87500000  0.62500000  0.25000000  1
  Bi  Bi1  1  0.62500000  0.25000000  0.87500000  1
  Bi  Bi2  1  0.87500000  0.75000000  0.62500000  1
  Bi  Bi3  1  0.75000000  0.62500000  0.87500000  1
  Bi  Bi4  1  0.25000000  0.87500000  0.62500000  1
  Bi  Bi5  1  0.62500000  0.87500000  0.75000000  1
  Bi  Bi6  1  0.12500000  0.37500000  0.75000000  1
  Bi  Bi7  1  0.37500000  0.75000000  0.12500000  1
  Bi  Bi8  1  0.12500000  0.25000000  0.37500000  1
  Bi  Bi9  1  0.25000000  0.37500000  0.12500000  1
  Bi  Bi10  1  0.75000000  0.12500000  0.37500000  1
  Bi  Bi11  1  0.37500000  0.12500000  0.25000000  1
  O  O0  1  0.47814700  0.37310800  0.27435300  1
  O  O1  1  0.29620600  0.89496100  0.02185300  1
  O  O2  1  0.60503900  0.90124500  0.12689200  1
  O  O3  1  0.59875500  0.20379400  0.22564700  1
  O  O4  1  0.12689200  0.02185300  0.22564700  1
  O  O5  1  0.20379400  0.22564700  0.59875500  1
  O  O6  1  0.20379400  0.47814700  0.60503900  1
  O  O7  1  0.22564700  0.59875500  0.20379400  1
  O  O8  1  0.37310800  0.59875500  0.89496100  1
  O  O9  1  0.90124500  0.27435300  0.29620600  1
  O  O10  1  0.27435300  0.29620600  0.90124500  1
  O  O11  1  0.22564700  0.12689200  0.02185300  1
  O  O12  1  0.47814700  0.60503900  0.20379400  1
  O  O13  1  0.89496100  0.37310800  0.59875500  1
  O  O14  1  0.02185300  0.22564700  0.12689200  1
  O  O15  1  0.60503900  0.20379400  0.47814700  1
  O  O16  1  0.59875500  0.89496100  0.37310800  1
  O  O17  1  0.02185300  0.29620600  0.89496100  1
  O  O18  1  0.90124500  0.12689200  0.60503900  1
  O  O19  1  0.62689200  0.40124500  0.10503900  1
  O  O20  1  0.37310800  0.27435300  0.47814700  1
  O  O21  1  0.27435300  0.47814700  0.37310800  1
  O  O22  1  0.89496100  0.02185300  0.29620600  1
  O  O23  1  0.29620600  0.90124500  0.27435300  1
  O  O24  1  0.52185300  0.62689200  0.72564700  1
  O  O25  1  0.70379400  0.10503900  0.97814700  1
  O  O26  1  0.39496100  0.09875500  0.87310800  1
  O  O27  1  0.40124500  0.79620600  0.77435300  1
  O  O28  1  0.87310800  0.97814700  0.77435300  1
  O  O29  1  0.79620600  0.77435300  0.40124500  1
  O  O30  1  0.79620600  0.52185300  0.39496100  1
  O  O31  1  0.77435300  0.40124500  0.79620600  1
  O  O32  1  0.70379400  0.09875500  0.72564700  1
  O  O33  1  0.10503900  0.97814700  0.70379400  1
  O  O34  1  0.72564700  0.52185300  0.62689200  1
  O  O35  1  0.62689200  0.72564700  0.52185300  1
  O  O36  1  0.87310800  0.39496100  0.09875500  1
  O  O37  1  0.09875500  0.87310800  0.39496100  1
  O  O38  1  0.97814700  0.70379400  0.10503900  1
  O  O39  1  0.40124500  0.10503900  0.62689200  1
  O  O40  1  0.39496100  0.79620600  0.52185300  1
  O  O41  1  0.97814700  0.77435300  0.87310800  1
  O  O42  1  0.10503900  0.62689200  0.40124500  1
  O  O43  1  0.52185300  0.39496100  0.79620600  1
  O  O44  1  0.77435300  0.87310800  0.97814700  1
  O  O45  1  0.72564700  0.70379400  0.09875500  1
  O  O46  1  0.09875500  0.72564700  0.70379400  1
  O  O47  1  0.12689200  0.60503900  0.90124500  1
loop_
_geom_bond_atom_site_label_1
_geom_bond_atom_site_label_2
_geom_bond_distance
_geom_bond_site_symmetry_2
Bi0 O38 2.385510 1_555
Bi0 O37 2.385510 1_655
Bi0 O30 2.385510 1_555
Bi0 O19 2.385510 1_555
Bi0 O29 2.434940 1_555
Bi0 O45 2.434940 1_555
Bi0 O42 2.434940 1_655
Bi0 O36 2.434940 1_555
Bi1 O25 2.385510 1_555
Bi1 O36 2.385510 1_556
Bi1 O43 2.385510 1_555
Bi1 O39 2.385510 1_555
Bi1 O31 2.434940 1_555
Bi1 O19 2.434940 1_556
Bi1 O32 2.434940 1_555
Bi1 O26 2.434940 1_555
Bi2 O35 2.385510 1_555
Bi2 O41 2.385510 1_555
Bi2 O46 2.385510 1_655
Bi2 O29 2.385510 1_555
Bi2 O28 2.434940 1_555
Bi2 O30 2.434940 1_555
Bi2 O34 2.434940 1_555
Bi2 O33 2.434940 1_655
Bi3 O34 2.385510 1_555
Bi3 O44 2.385510 1_555
Bi3 O45 2.385510 1_556
Bi3 O31 2.385510 1_555
Bi3 O41 2.434940 1_555
Bi3 O43 2.434940 1_555
Bi3 O24 2.434940 1_555
Bi3 O38 2.434940 1_556
Bi4 O33 2.385510 1_555
Bi4 O26 2.385510 1_565
Bi4 O40 2.385510 1_555
Bi4 O42 2.385510 1_555
Bi4 O27 2.434940 1_555
Bi4 O39 2.434940 1_565
Bi4 O46 2.434940 1_555
Bi4 O37 2.434940 1_555
Bi5 O24 2.385510 1_555
Bi5 O28 2.385510 1_555
Bi5 O32 2.385510 1_565
Bi5 O27 2.385510 1_555
Bi5 O40 2.434940 1_555
Bi5 O44 2.434940 1_555
Bi5 O35 2.434940 1_555
Bi5 O25 2.434940 1_565
Bi6 O8 2.385510 1_555
Bi6 O6 2.385510 1_555
Bi6 O18 2.385510 1_455
Bi6 O17 2.385510 1_555
Bi6 O47 2.434940 1_555
Bi6 O13 2.434940 1_455
Bi6 O5 2.434940 1_555
Bi6 O10 2.434940 1_555
Bi7 O16 2.385510 1_555
Bi7 O12 2.385510 1_555
Bi7 O47 2.385510 1_554
Bi7 O1 2.385510 1_555
Bi7 O2 2.434940 1_555
Bi7 O8 2.434940 1_554
Bi7 O7 2.434940 1_555
Bi7 O23 2.434940 1_555
Bi8 O5 2.385510 1_555
Bi8 O20 2.385510 1_555
Bi8 O14 2.385510 1_555
Bi8 O9 2.385510 1_455
Bi8 O6 2.434940 1_555
Bi8 O21 2.434940 1_555
Bi8 O22 2.434940 1_455
Bi8 O4 2.434940 1_555
Bi9 O7 2.385510 1_555
Bi9 O21 2.385510 1_555
Bi9 O11 2.385510 1_555
Bi9 O10 2.385510 1_554
Bi9 O0 2.434940 1_555
Bi9 O12 2.434940 1_555
Bi9 O17 2.434940 1_554
Bi9 O14 2.434940 1_555
Bi10 O13 2.385510 1_555
Bi10 O15 2.385510 1_555
Bi10 O2 2.385510 1_545
Bi10 O22 2.385510 1_555
Bi10 O18 2.434940 1_555
Bi10 O16 2.434940 1_545
Bi10 O3 2.434940 1_555
Bi10 O9 2.434940 1_555
Bi11 O3 2.385510 1_555
Bi11 O0 2.385510 1_555
Bi11 O4 2.385510 1_555
Bi11 O23 2.385510 1_545
Bi11 O20 2.434940 1_555
Bi11 O15 2.434940 1_555
Bi11 O1 2.434940 1_545
Bi11 O11 2.434940 1_555
O0 Si3 1.665742 1_555
O1 Si6 1.665742 1_554
O2 Si7 1.665742 1_555
O3 Si3 1.665742 1_555
O4 Si0 1.665742 1_545
O5 Si9 1.665742 1_555
O6 Si5 1.665742 1_555
O7 Si10 1.665742 1_555
O8 Si5 1.665742 1_555
O9 Si8 1.665742 1_555
O10 Si1 1.665742 1_555
O11 Si1 1.665742 1_554
O12 Si4 1.665742 1_555
O13 Si2 1.665742 1_555
O14 Si8 1.665742 1_455
O15 Si2 1.665742 1_555
O16 Si4 1.665742 1_555
O17 Si11 1.665742 1_455
O18 Si11 1.665742 1_555
O19 Si3 1.665742 1_555
O20 Si9 1.665742 1_555
O21 Si10 1.665742 1_555
O22 Si7 1.665742 1_545
O23 Si0 1.665742 1_555
O24 Si5 1.665742 1_555
O25 Si8 1.665742 1_556
O26 Si1 1.665742 1_555
O27 Si5 1.665742 1_555
O28 Si11 1.665742 1_565
O29 Si4 1.665742 1_555
O30 Si3 1.665742 1_555
O31 Si2 1.665742 1_555
O32 Si11 1.665742 1_555
O33 Si1 1.665742 1_565
O34 Si2 1.665742 1_555
O35 Si4 1.665742 1_555
O36 Si8 1.665742 1_555
O37 Si0 1.665742 1_555
O38 Si0 1.665742 1_655
O39 Si9 1.665742 1_555
O40 Si10 1.665742 1_555
O41 Si6 1.665742 1_655
O42 Si10 1.665742 1_555
O43 Si9 1.665742 1_555
O44 Si7 1.665742 1_556
O45 Si7 1.665742 1_555
O46 Si6 1.665742 1_555
O47 Si6 1.665742 1_555
