# generated using pymatgen
data_SnH18W3C4(NO2)6
_symmetry_space_group_name_H-M   'P 1'
_cell_length_a   10.46861974
_cell_length_b   13.24298066
_cell_length_c   17.27764803
_cell_angle_alpha   81.25140675
_cell_angle_beta   72.36496512
_cell_angle_gamma   66.71833066
_symmetry_Int_Tables_number   1
_chemical_formula_structural   SnH18W3C4(NO2)6
_chemical_formula_sum   'Sn4 H72 W12 C16 N24 O48'
_cell_volume   2095.42441351
_cell_formula_units_Z   4
loop_
 _symmetry_equiv_pos_site_id
 _symmetry_equiv_pos_as_xyz
  1  'x, y, z'
loop_
 _atom_site_type_symbol
 _atom_site_label
 _atom_site_symmetry_multiplicity
 _atom_site_fract_x
 _atom_site_fract_y
 _atom_site_fract_z
 _atom_site_occupancy
  Sn  Sn0  1  0.13580389  0.18269454  0.90973356  1
  Sn  Sn1  1  0.22823199  0.31730546  0.59026644  1
  Sn  Sn2  1  0.86419611  0.81730546  0.09026644  1
  Sn  Sn3  1  0.77176801  0.68269454  0.40973356  1
  H  H0  1  0.82249061  0.14701289  0.65743114  1
  H  H1  1  0.62693464  0.35298711  0.84256886  1
  H  H2  1  0.17750939  0.85298711  0.34256886  1
  H  H3  1  0.37306536  0.64701289  0.15743114  1
  H  H4  1  0.00858222  0.11292828  0.64889457  1
  H  H5  1  0.77040507  0.38707172  0.85110543  1
  H  H6  1  0.99141778  0.88707172  0.35110543  1
  H  H7  1  0.22959493  0.61292828  0.14889457  1
  H  H8  1  0.70445139  0.02954464  0.74026461  1
  H  H9  1  0.47426064  0.47045536  0.75973539  1
  H  H10  1  0.29554861  0.97045536  0.25973539  1
  H  H11  1  0.52573936  0.52954464  0.24026461  1
  H  H12  1  0.80028169  0.92376199  0.79846809  1
  H  H13  1  0.52251177  0.57623801  0.70153191  1
  H  H14  1  0.19971831  0.07623801  0.20153191  1
  H  H15  1  0.47748823  0.42376199  0.29846809  1
  H  H16  1  0.13057480  0.96531360  0.71965924  1
  H  H17  1  0.81554764  0.53468640  0.78034076  1
  H  H18  1  0.86942520  0.03468640  0.28034076  1
  H  H19  1  0.18445236  0.46531360  0.21965924  1
  H  H20  1  0.04899406  0.87679797  0.77906670  1
  H  H21  1  0.70485873  0.62320203  0.72093330  1
  H  H22  1  0.95100594  0.12320203  0.22093330  1
  H  H23  1  0.29514127  0.37679797  0.27906670  1
  H  H24  1  0.29083989  0.72305995  0.87322538  1
  H  H25  1  0.88712522  0.77694005  0.62677462  1
  H  H26  1  0.70916011  0.27694005  0.12677462  1
  H  H27  1  0.11287478  0.22305995  0.37322538  1
  H  H28  1  0.34041828  0.82247618  0.80665764  1
  H  H29  1  0.96955210  0.67752382  0.69334236  1
  H  H30  1  0.65958172  0.17752382  0.19334236  1
  H  H31  1  0.03044790  0.32247618  0.30665764  1
  H  H32  1  0.42477477  0.63218008  0.96724378  1
  H  H33  1  0.02419863  0.86781992  0.53275622  1
  H  H34  1  0.57522523  0.36781992  0.03275622  1
  H  H35  1  0.97580137  0.13218008  0.46724378  1
  H  H36  1  0.57722455  0.66028609  0.96578025  1
  H  H37  1  0.20329089  0.83971391  0.53421975  1
  H  H38  1  0.42277545  0.33971391  0.03421975  1
  H  H39  1  0.79670911  0.16028609  0.46578025  1
  H  H40  1  0.63459983  0.79950867  0.87604368  1
  H  H41  1  0.31015219  0.70049133  0.62395632  1
  H  H42  1  0.36540017  0.20049133  0.12395632  1
  H  H43  1  0.68984781  0.29950867  0.37604368  1
  H  H44  1  0.53178914  0.86376198  0.80815505  1
  H  H45  1  0.20370617  0.63623802  0.69184495  1
  H  H46  1  0.46821086  0.13623802  0.19184495  1
  H  H47  1  0.79629383  0.36376198  0.30815505  1
  H  H48  1  0.90102827  0.19965865  0.86634567  1
  H  H49  1  0.96703259  0.30034135  0.63365433  1
  H  H50  1  0.09897173  0.80034135  0.13365433  1
  H  H51  1  0.03296741  0.69965865  0.36634567  1
  H  H52  1  0.96376876  0.07442537  0.92295639  1
  H  H53  1  0.96115052  0.42557463  0.57704361  1
  H  H54  1  0.03623124  0.92557463  0.07704361  1
  H  H55  1  0.03884948  0.57442537  0.42295639  1
  H  H56  1  0.85699098  0.20088049  0.97584482  1
  H  H57  1  0.03371628  0.29911951  0.52415518  1
  H  H58  1  0.14300902  0.79911951  0.02415518  1
  H  H59  1  0.96628372  0.70088049  0.47584482  1
  H  H60  1  0.33000585  0.11011129  0.99809894  1
  H  H61  1  0.43821608  0.38988871  0.50190106  1
  H  H62  1  0.66999415  0.88988871  0.00190106  1
  H  H63  1  0.56178392  0.61011129  0.49809894  1
  H  H64  1  0.26716475  0.00362041  0.99490001  1
  H  H65  1  0.26568517  0.49637959  0.50509999  1
  H  H66  1  0.73283525  0.99637959  0.00509999  1
  H  H67  1  0.73431483  0.50362041  0.49490001  1
  H  H68  1  0.39430688  0.03307452  0.90744736  1
  H  H69  1  0.33482876  0.46692548  0.59255264  1
  H  H70  1  0.60569312  0.96692548  0.09255264  1
  H  H71  1  0.66517124  0.53307452  0.40744736  1
  W  W0  1  0.86866643  0.46406298  0.98100772  1
  W  W1  1  0.31373713  0.03593702  0.51899228  1
  W  W2  1  0.13133357  0.53593702  0.01899228  1
  W  W3  1  0.68626287  0.96406298  0.48100772  1
  W  W4  1  0.95826852  0.68389276  0.88261938  1
  W  W5  1  0.52478066  0.81610724  0.61738062  1
  W  W6  1  0.04173148  0.31610724  0.11738062  1
  W  W7  1  0.47521934  0.18389276  0.38261938  1
  W  W8  1  0.13241303  0.43540245  0.79938909  1
  W  W9  1  0.36720458  0.06459755  0.70061091  1
  W  W10  1  0.86758697  0.56459755  0.20061091  1
  W  W11  1  0.63279542  0.93540245  0.29938909  1
  C  C0  1  0.91622313  0.01272467  0.72620770  1
  C  C1  1  0.65515551  0.48727533  0.77379230  1
  C  C2  1  0.08377687  0.98727533  0.27379230  1
  C  C3  1  0.34484449  0.51272467  0.22620770  1
  C  C4  1  0.45908828  0.75567721  0.88867721  1
  C  C5  1  0.10344270  0.74432279  0.61132279  1
  C  C6  1  0.54091172  0.24432279  0.11132279  1
  C  C7  1  0.89655730  0.25567721  0.38867721  1
  C  C8  1  0.93777701  0.16338412  0.92063776  1
  C  C9  1  0.02179890  0.33661588  0.57936224  1
  C  C10  1  0.06222299  0.83661588  0.07936224  1
  C  C11  1  0.97820110  0.66338412  0.42063776  1
  C  C12  1  0.30250064  0.06829720  0.95939672  1
  C  C13  1  0.33019456  0.43170280  0.54060328  1
  C  C14  1  0.69749936  0.93170280  0.04060328  1
  C  C15  1  0.66980544  0.56829720  0.45939672  1
  N  N0  1  0.91463682  0.09950986  0.67413256  1
  N  N1  1  0.68827923  0.40049014  0.82586744  1
  N  N2  1  0.08536318  0.90049014  0.32586744  1
  N  N3  1  0.31172077  0.59950986  0.17413256  1
  N  N4  1  0.79693479  0.99054515  0.75873404  1
  N  N5  1  0.54621398  0.50945485  0.74126596  1
  N  N6  1  0.20306521  0.00945485  0.24126596  1
  N  N7  1  0.45378602  0.49054515  0.25873404  1
  N  N8  1  0.03878811  0.94962158  0.74607424  1
  N  N9  1  0.73448393  0.55037842  0.75392576  1
  N  N10  1  0.96121189  0.05037842  0.25392576  1
  N  N11  1  0.26551607  0.44962158  0.24607424  1
  N  N12  1  0.34888313  0.77285895  0.85777699  1
  N  N13  1  0.97951907  0.72714105  0.64222301  1
  N  N14  1  0.65111687  0.22714105  0.14222301  1
  N  N15  1  0.02048093  0.27285895  0.35777699  1
  N  N16  1  0.48156718  0.68337363  0.95129576  1
  N  N17  1  0.11623657  0.81662637  0.54870424  1
  N  N18  1  0.51843282  0.31662637  0.04870424  1
  N  N19  1  0.88376343  0.18337363  0.45129576  1
  N  N20  1  0.54241926  0.81480116  0.85900430  1
  N  N21  1  0.21622472  0.68519884  0.64099570  1
  N  N22  1  0.45758074  0.18519884  0.14099570  1
  N  N23  1  0.78377528  0.31480116  0.35900430  1
  O  O0  1  0.71103043  0.43349784  0.02348750  1
  O  O1  1  0.16801578  0.06650216  0.47651250  1
  O  O2  1  0.28896957  0.56650216  0.97651250  1
  O  O3  1  0.83198422  0.93349784  0.52348750  1
  O  O4  1  0.10427478  0.72861303  0.83295166  1
  O  O5  1  0.66583947  0.77138697  0.66704834  1
  O  O6  1  0.89572522  0.27138697  0.16704834  1
  O  O7  1  0.33416053  0.22861303  0.33295166  1
  O  O8  1  0.28800530  0.47031017  0.76271948  1
  O  O9  1  0.52103496  0.02968983  0.73728052  1
  O  O10  1  0.71199470  0.52968983  0.23728052  1
  O  O11  1  0.47896504  0.97031017  0.26271948  1
  O  O12  1  0.79279095  0.61267571  0.95417207  1
  O  O13  1  0.35963874  0.88732429  0.54582793  1
  O  O14  1  0.20720905  0.38732429  0.04582793  1
  O  O15  1  0.64036126  0.11267571  0.45417207  1
  O  O16  1  0.93269229  0.41318817  0.87486352  1
  O  O17  1  0.22074398  0.08681183  0.62513648  1
  O  O18  1  0.06730771  0.58681183  0.12513648  1
  O  O19  1  0.77925602  0.91318817  0.37486352  1
  O  O20  1  0.98698949  0.59198998  0.79556487  1
  O  O21  1  0.37454434  0.90801002  0.70443513  1
  O  O22  1  0.01301051  0.40801002  0.20443513  1
  O  O23  1  0.62545566  0.09198998  0.29556487  1
  O  O24  1  0.07832770  0.51038416  0.92124222  1
  O  O25  1  0.50995408  0.98961584  0.57875778  1
  O  O26  1  0.92167230  0.48961584  0.07875778  1
  O  O27  1  0.49004592  0.01038416  0.42124222  1
  O  O28  1  0.02315458  0.31176024  0.00668646  1
  O  O29  1  0.34160128  0.18823976  0.49331354  1
  O  O30  1  0.97684542  0.68823976  0.99331354  1
  O  O31  1  0.65839872  0.81176024  0.50668646  1
  O  O32  1  0.80770575  0.80512076  0.87020644  1
  O  O33  1  0.48303295  0.69487924  0.62979356  1
  O  O34  1  0.19229425  0.19487924  0.12979356  1
  O  O35  1  0.51696705  0.30512076  0.37020644  1
  O  O36  1  0.11173026  0.39804803  0.70807736  1
  O  O37  1  0.21785564  0.10195197  0.79192264  1
  O  O38  1  0.88826974  0.60195197  0.29192264  1
  O  O39  1  0.78214436  0.89804803  0.20807736  1
  O  O40  1  0.21781130  0.29598373  0.84681902  1
  O  O41  1  0.36061405  0.20401627  0.65318098  1
  O  O42  1  0.78218870  0.70401627  0.15318098  1
  O  O43  1  0.63938595  0.79598373  0.34681902  1
  O  O44  1  0.52084975  0.25826949  0.83977509  1
  O  O45  1  0.61889433  0.24173051  0.66022491  1
  O  O46  1  0.47915025  0.74173051  0.16022491  1
  O  O47  1  0.38110567  0.75826949  0.33977509  1
loop_
_geom_bond_atom_site_label_1
_geom_bond_atom_site_label_2
_geom_bond_distance
_geom_bond_site_symmetry_2
H0 N0 1.021410 1_555
H1 N1 1.021410 1_555
H2 N2 1.021410 1_555
H3 N3 1.021410 1_555
H4 N0 1.021611 1_455
H5 N1 1.021611 1_555
H6 N2 1.021611 1_655
H7 N3 1.021611 1_555
H8 N4 1.023579 1_545
H9 N5 1.023579 1_555
H10 N6 1.023579 1_565
H11 N7 1.023579 1_555
H12 N4 1.029604 1_555
H13 N5 1.029604 1_555
H14 N6 1.029604 1_555
H15 N7 1.029604 1_555
H16 N8 1.018848 1_555
H17 N9 1.018848 1_555
H18 N10 1.018848 1_555
H19 N11 1.018848 1_555
H20 N8 1.026958 1_555
H21 N9 1.026958 1_555
H22 N10 1.026958 1_555
H23 N11 1.026958 1_555
H24 N12 1.019972 1_555
H25 N13 1.019972 1_555
H26 N14 1.019972 1_555
H27 N15 1.019972 1_555
H28 N12 1.022028 1_555
H29 N13 1.022028 1_555
H30 N14 1.022028 1_555
H31 N15 1.022028 1_555
H32 N16 1.025459 1_555
H33 N17 1.025459 1_555
H34 N18 1.025459 1_555
H35 N19 1.025459 1_555
H36 N16 1.022472 1_555
H37 N17 1.022472 1_555
H38 N18 1.022472 1_555
H39 N19 1.022472 1_555
H40 N20 1.028799 1_555
H41 N21 1.028799 1_555
H42 N22 1.028799 1_555
H43 N23 1.028799 1_555
H44 N20 1.016644 1_555
H45 N21 1.016644 1_555
H46 N22 1.016644 1_555
H47 N23 1.016644 1_555
C0 N4 1.332696 1_545
C0 N8 1.339575 1_645
C0 N0 1.345394 1_555
C1 N5 1.332696 1_555
C1 N9 1.339575 1_555
C1 N1 1.345394 1_555
C2 N6 1.332696 1_565
C2 N10 1.339575 1_465
C2 N2 1.345394 1_555
C3 N7 1.332696 1_555
C3 N11 1.339575 1_555
C3 N3 1.345394 1_555
C4 N20 1.335573 1_555
C4 N12 1.340355 1_555
C4 N16 1.343031 1_555
C5 N21 1.335573 1_555
C5 N13 1.340355 1_455
C5 N17 1.343031 1_555
C6 N22 1.335573 1_555
C6 N14 1.340355 1_555
C6 N18 1.343031 1_555
C7 N23 1.335573 1_555
C7 N15 1.340355 1_655
C7 N19 1.343031 1_555
C8 H48 1.092782 1_555
C8 H56 1.093148 1_555
C8 H52 1.096523 1_555
C8 Sn0 2.136885 1_655
C9 H49 1.092782 1_455
C9 H57 1.093148 1_555
C9 H53 1.096523 1_455
C9 Sn1 2.136885 1_555
C10 H50 1.092782 1_555
C10 H58 1.093148 1_555
C10 H54 1.096523 1_555
C10 Sn2 2.136885 1_455
C11 H51 1.092782 1_655
C11 H59 1.093148 1_555
C11 H55 1.096523 1_655
C11 Sn3 2.136885 1_555
C12 H60 1.091798 1_555
C12 H68 1.094158 1_555
C12 H64 1.095391 1_555
C12 Sn0 2.121004 1_555
C13 H61 1.091798 1_555
C13 H69 1.094158 1_555
C13 H65 1.095391 1_555
C13 Sn1 2.121004 1_555
C14 H62 1.091798 1_555
C14 H70 1.094158 1_555
C14 H66 1.095391 1_555
C14 Sn2 2.121004 1_555
C15 H63 1.091798 1_555
C15 H71 1.094158 1_555
C15 H67 1.095391 1_555
C15 Sn3 2.121004 1_555
O0 W0 1.769063 1_554
O1 W1 1.769063 1_555
O2 W2 1.769063 1_556
O3 W3 1.769063 1_555
O4 W4 1.785957 1_455
O5 W5 1.785957 1_555
O6 W6 1.785957 1_655
O7 W7 1.785957 1_555
O8 W8 1.774564 1_555
O9 W9 1.774564 1_555
O10 W10 1.774564 1_555
O11 W11 1.774564 1_555
O12 W0 1.851763 1_555
O12 W4 2.249000 1_555
O13 W1 1.851763 1_565
O13 W5 2.249000 1_555
O14 W2 1.851763 1_555
O14 W6 2.249000 1_555
O15 W3 1.851763 1_545
O15 W7 2.249000 1_555
O16 W0 1.881633 1_555
O16 W8 2.208170 1_655
O17 W1 1.881633 1_555
O17 W9 2.208170 1_555
O18 W2 1.881633 1_555
O18 W10 2.208170 1_455
O19 W3 1.881633 1_555
O19 W11 2.208170 1_555
O20 W4 1.956410 1_555
O20 W8 2.036144 1_655
O21 W5 1.956410 1_555
O21 W9 2.036144 1_565
O22 W6 1.956410 1_555
O22 W10 2.036144 1_455
O23 W7 1.956410 1_555
O23 W11 2.036144 1_545
O24 W2 2.040809 1_556
O24 W4 2.250231 1_455
O24 W8 2.282164 1_555
O24 W0 2.399667 1_455
O25 W3 2.040809 1_555
O25 W5 2.250231 1_555
O25 W9 2.282164 1_565
O25 W1 2.399667 1_565
O26 W0 2.040809 1_554
O26 W6 2.250231 1_655
O26 W10 2.282164 1_555
O26 W2 2.399667 1_655
O27 W1 2.040809 1_555
O27 W7 2.250231 1_555
O27 W11 2.282164 1_545
O27 W3 2.399667 1_545
O28 W6 1.991639 1_555
O28 W0 2.112923 1_454
O28 Sn0 2.280088 1_554
O29 W7 1.991639 1_555
O29 W1 2.112923 1_555
O29 Sn1 2.280088 1_555
O30 W4 1.991639 1_555
O30 W2 2.112923 1_656
O30 Sn2 2.280088 1_556
O31 W5 1.991639 1_555
O31 W3 2.112923 1_555
O31 Sn3 2.280088 1_555
O32 W4 1.790946 1_555
O33 W5 1.790946 1_555
O34 W6 1.790946 1_555
O35 W7 1.790946 1_555
O36 W8 1.819239 1_555
O36 Sn1 2.213835 1_555
O37 W9 1.819239 1_555
O37 Sn0 2.213835 1_555
O38 W10 1.819239 1_555
O38 Sn3 2.213835 1_555
O39 W11 1.819239 1_555
O39 Sn2 2.213835 1_555
O40 W8 1.886399 1_555
O40 Sn0 2.031288 1_555
O41 W9 1.886399 1_555
O41 Sn1 2.031288 1_555
O42 W10 1.886399 1_555
O42 Sn2 2.031288 1_555
O43 W11 1.886399 1_555
O43 Sn3 2.031288 1_555
