# generated using pymatgen
data_BaCuF4
_symmetry_space_group_name_H-M   'P 1'
_cell_length_a   4.51453826
_cell_length_b   5.51827938
_cell_length_c   7.32115128
_cell_angle_alpha   90.00000000
_cell_angle_beta   107.95811386
_cell_angle_gamma   90.00000000
_symmetry_Int_Tables_number   1
_chemical_formula_structural   BaCuF4
_chemical_formula_sum   'Ba2 Cu2 F8'
_cell_volume   173.50250899
_cell_formula_units_Z   2
loop_
 _symmetry_equiv_pos_site_id
 _symmetry_equiv_pos_as_xyz
  1  'x, y, z'
loop_
 _atom_site_type_symbol
 _atom_site_label
 _atom_site_symmetry_multiplicity
 _atom_site_fract_x
 _atom_site_fract_y
 _atom_site_fract_z
 _atom_site_occupancy
  Ba  Ba0  1  0.13427380  0.50481078  0.26854860  1
  Ba  Ba1  1  0.86572620  0.00481078  0.73145140  1
  Cu  Cu0  1  0.40667442  0.52917116  0.81335084  1
  Cu  Cu1  1  0.59332558  0.02917116  0.18664916  1
  F  F0  1  0.92817816  0.52510586  0.85635533  1
  F  F1  1  0.07182184  0.02510586  0.14364467  1
  F  F2  1  0.32478818  0.25692981  0.64957737  1
  F  F3  1  0.67521182  0.75692981  0.35042263  1
  F  F4  1  0.52068926  0.33334377  0.04137852  1
  F  F5  1  0.47931074  0.83334377  0.95862148  1
  F  F6  1  0.69891657  0.24373962  0.39783414  1
  F  F7  1  0.30108343  0.74373962  0.60216586  1
loop_
_geom_bond_atom_site_label_1
_geom_bond_atom_site_label_2
_geom_bond_distance
_geom_bond_site_symmetry_2
Ba0 F7 2.671497 1_555
Ba0 F3 2.712194 1_455
Ba0 F3 2.712202 1_555
Ba0 F1 2.786412 1_555
Ba0 F6 2.825156 1_555
Ba0 F6 2.825156 1_455
Ba0 F0 2.872896 1_454
Ba0 F4 2.914389 1_455
Ba0 F4 2.914392 1_555
Ba0 F2 2.985471 1_555
Ba0 F1 3.000020 1_565
Ba1 F6 2.671497 1_555
Ba1 F2 2.712194 1_655
Ba1 F2 2.712202 1_555
Ba1 F0 2.786412 1_545
Ba1 F7 2.825156 1_545
Ba1 F7 2.825156 1_645
Ba1 F1 2.872896 1_656
Ba1 F5 2.914389 1_645
Ba1 F5 2.914392 1_545
Ba1 F3 2.985471 1_545
Ba1 F0 3.000020 1_555
Cu0 F2 1.886234 1_555
Cu0 F7 1.888175 1_555
Cu0 F4 1.920887 1_556
Cu0 F5 1.959847 1_555
Cu0 F0 2.277156 1_455
Cu0 F0 2.277169 1_555
Cu1 F3 1.886234 1_545
Cu1 F6 1.888175 1_555
Cu1 F5 1.920887 1_544
Cu1 F4 1.959847 1_555
Cu1 F1 2.277156 1_655
Cu1 F1 2.277169 1_555
