# generated using pymatgen
data_CrPd
_symmetry_space_group_name_H-M   'P 1'
_cell_length_a   9.29450290
_cell_length_b   9.29450290
_cell_length_c   9.29450345
_cell_angle_alpha   33.49596930
_cell_angle_beta   33.49596930
_cell_angle_gamma   33.49596943
_symmetry_Int_Tables_number   1
_chemical_formula_structural   CrPd
_chemical_formula_sum   'Cr8 Pd8'
_cell_volume   217.80325014
_cell_formula_units_Z   8
loop_
 _symmetry_equiv_pos_site_id
 _symmetry_equiv_pos_as_xyz
  1  'x, y, z'
loop_
 _atom_site_type_symbol
 _atom_site_label
 _atom_site_symmetry_multiplicity
 _atom_site_fract_x
 _atom_site_fract_y
 _atom_site_fract_z
 _atom_site_occupancy
  Cr  Cr0_0  1  0.00000000  0.00000000  0.00000000  1
  Cr  Cr0_1  1  0.00000000  0.00000000  0.50000000  1
  Cr  Cr0_2  1  0.00000000  0.50000000  0.00000000  1
  Cr  Cr0_3  1  0.00000000  0.50000000  0.50000000  1
  Cr  Cr0_4  1  0.50000000  0.00000000  0.00000000  1
  Cr  Cr0_5  1  0.50000000  0.00000000  0.50000000  1
  Cr  Cr0_6  1  0.50000000  0.50000000  0.00000000  1
  Cr  Cr0_7  1  0.50000000  0.50000000  0.50000000  1
  Pd  Pd0_0  1  0.25000000  0.25000000  0.25000000  1
  Pd  Pd0_1  1  0.25000000  0.25000000  0.75000000  1
  Pd  Pd0_2  1  0.25000000  0.75000000  0.25000000  1
  Pd  Pd0_3  1  0.25000000  0.75000000  0.75000000  1
  Pd  Pd0_4  1  0.75000000  0.25000000  0.25000000  1
  Pd  Pd0_5  1  0.75000000  0.25000000  0.75000000  1
  Pd  Pd0_6  1  0.75000000  0.75000000  0.25000000  1
  Pd  Pd0_7  1  0.75000000  0.75000000  0.75000000  1
loop_
_geom_bond_atom_site_label_1
_geom_bond_atom_site_label_2
_geom_bond_distance
_geom_bond_site_symmetry_2
Cr0_0 Cr0_6 2.678328 1_455
Cr0_0 Cr0_6 2.678328 1_545
Cr0_0 Cr0_3 2.678328 1_554
Cr0_0 Cr0_5 2.678328 1_455
Cr0_0 Cr0_3 2.678328 1_545
Cr0_0 Cr0_5 2.678328 1_554
Cr0_0 Pd0_6 2.681902 1_445
Cr0_0 Pd0_1 2.681902 1_554
Cr0_0 Pd0_4 2.681902 1_455
Cr0_0 Pd0_2 2.681902 1_545
Cr0_0 Pd0_3 2.681902 1_544
Cr0_0 Pd0_5 2.681902 1_454
Cr0_1 Cr0_7 2.678328 1_545
Cr0_1 Cr0_7 2.678328 1_455
Cr0_1 Cr0_2 2.678328 1_546
Cr0_1 Cr0_4 2.678328 1_555
Cr0_1 Cr0_2 2.678328 1_555
Cr0_1 Cr0_4 2.678328 1_456
Cr0_1 Pd0_7 2.681902 1_445
Cr0_1 Pd0_0 2.681902 1_555
Cr0_1 Pd0_5 2.681902 1_455
Cr0_1 Pd0_3 2.681902 1_545
Cr0_1 Pd0_4 2.681902 1_455
Cr0_1 Pd0_2 2.681902 1_545
Cr0_2 Cr0_4 2.678328 1_465
Cr0_2 Cr0_4 2.678328 1_555
Cr0_2 Cr0_7 2.678328 1_554
Cr0_2 Cr0_7 2.678328 1_455
Cr0_2 Pd0_3 2.681902 1_554
Cr0_2 Pd0_4 2.681902 1_455
Cr0_2 Pd0_1 2.681902 1_554
Cr0_2 Pd0_0 2.681902 1_555
Cr0_2 Pd0_7 2.681902 1_454
Cr0_2 Pd0_6 2.681902 1_455
Cr0_3 Cr0_5 2.678328 1_555
Cr0_3 Cr0_5 2.678328 1_465
Cr0_3 Cr0_6 2.678328 1_555
Cr0_3 Cr0_6 2.678328 1_456
Cr0_3 Pd0_2 2.681902 1_555
Cr0_3 Pd0_5 2.681902 1_455
Cr0_3 Pd0_6 2.681902 1_455
Cr0_3 Pd0_1 2.681902 1_555
Cr0_3 Pd0_7 2.681902 1_455
Cr0_3 Pd0_0 2.681902 1_555
Cr0_4 Cr0_7 2.678328 1_554
Cr0_4 Cr0_7 2.678328 1_545
Cr0_4 Pd0_2 2.681902 1_545
Cr0_4 Pd0_5 2.681902 1_554
Cr0_4 Pd0_7 2.681902 1_544
Cr0_4 Pd0_0 2.681902 1_555
Cr0_4 Pd0_1 2.681902 1_554
Cr0_4 Pd0_6 2.681902 1_545
Cr0_5 Cr0_6 2.678328 1_546
Cr0_5 Cr0_6 2.678328 1_555
Cr0_5 Pd0_4 2.681902 1_555
Cr0_5 Pd0_3 2.681902 1_545
Cr0_5 Pd0_6 2.681902 1_545
Cr0_5 Pd0_1 2.681902 1_555
Cr0_5 Pd0_7 2.681902 1_545
Cr0_5 Pd0_0 2.681902 1_555
Cr0_6 Pd0_7 2.681902 1_554
Cr0_6 Pd0_0 2.681902 1_555
Cr0_6 Pd0_4 2.681902 1_555
Cr0_6 Pd0_3 2.681902 1_554
Cr0_6 Pd0_2 2.681902 1_555
Cr0_6 Pd0_5 2.681902 1_554
Cr0_7 Pd0_1 2.681902 1_555
Cr0_7 Pd0_6 2.681902 1_555
Cr0_7 Pd0_5 2.681902 1_555
Cr0_7 Pd0_3 2.681902 1_555
Cr0_7 Pd0_2 2.681902 1_555
Cr0_7 Pd0_4 2.681902 1_555
Pd0_0 Pd0_6 2.678328 1_545
Pd0_0 Pd0_6 2.678328 1_455
Pd0_0 Pd0_3 2.678328 1_545
Pd0_0 Pd0_3 2.678328 1_554
Pd0_0 Pd0_5 2.678328 1_455
Pd0_0 Pd0_5 2.678328 1_554
Pd0_1 Pd0_7 2.678328 1_455
Pd0_1 Pd0_7 2.678328 1_545
Pd0_1 Pd0_2 2.678328 1_546
Pd0_1 Pd0_4 2.678328 1_456
Pd0_1 Pd0_4 2.678328 1_555
Pd0_1 Pd0_2 2.678328 1_555
Pd0_2 Pd0_4 2.678328 1_555
Pd0_2 Pd0_4 2.678328 1_465
Pd0_2 Pd0_7 2.678328 1_455
Pd0_2 Pd0_7 2.678328 1_554
Pd0_3 Pd0_5 2.678328 1_555
Pd0_3 Pd0_5 2.678328 1_465
Pd0_3 Pd0_6 2.678328 1_456
Pd0_3 Pd0_6 2.678328 1_555
Pd0_4 Pd0_7 2.678328 1_545
Pd0_4 Pd0_7 2.678328 1_554
Pd0_5 Pd0_6 2.678328 1_546
Pd0_5 Pd0_6 2.678328 1_555
