# generated using pymatgen
data_YSbO4
_symmetry_space_group_name_H-M   'P 1'
_cell_length_a   5.35173631
_cell_length_b   7.58566324
_cell_length_c   7.47761230
_cell_angle_alpha   81.04899267
_cell_angle_beta   90.29550716
_cell_angle_gamma   91.89748157
_symmetry_Int_Tables_number   1
_chemical_formula_structural   YSbO4
_chemical_formula_sum   'Y4 Sb4 O16'
_cell_volume   299.70334512
_cell_formula_units_Z   4
loop_
 _symmetry_equiv_pos_site_id
 _symmetry_equiv_pos_as_xyz
  1  'x, y, z'
loop_
 _atom_site_type_symbol
 _atom_site_label
 _atom_site_symmetry_multiplicity
 _atom_site_fract_x
 _atom_site_fract_y
 _atom_site_fract_z
 _atom_site_occupancy
  Y  Y0  1  0.26454439  0.13406721  0.61149370  1
  Y  Y1  1  0.73545484  0.86593541  0.38850546  1
  Y  Y2  1  0.21395501  0.15733891  0.10728738  1
  Y  Y3  1  0.78604904  0.84266193  0.89271215  1
  Sb  Sb0  1  0.23849624  0.66372674  0.19544107  1
  Sb  Sb1  1  0.76150744  0.33627564  0.80457011  1
  Sb  Sb2  1  0.72426412  0.33644973  0.30716868  1
  Sb  Sb3  1  0.27574329  0.66353656  0.69283439  1
  O  O0  1  0.08721251  0.43568595  0.69142336  1
  O  O1  1  0.91278472  0.56431692  0.30857482  1
  O  O2  1  0.61280018  0.32841062  0.55966342  1
  O  O3  1  0.38719884  0.67159058  0.44033723  1
  O  O4  1  0.86888015  0.33191858  0.06057398  1
  O  O5  1  0.13111983  0.66807876  0.93942376  1
  O  O6  1  0.40234360  0.43297774  0.19562726  1
  O  O7  1  0.59765231  0.56702507  0.80437346  1
  O  O8  1  0.03947206  0.88475214  0.17360784  1
  O  O9  1  0.96052553  0.11525024  0.82638628  1
  O  O10  1  0.50850888  0.11295789  0.32409892  1
  O  O11  1  0.49149408  0.88704300  0.67590173  1
  O  O12  1  0.47035477  0.18498261  0.87738509  1
  O  O13  1  0.52964469  0.81501597  0.12261293  1
  O  O14  1  0.99057285  0.16962106  0.38080220  1
  O  O15  1  0.00942262  0.83037975  0.61919677  1
loop_
_geom_bond_atom_site_label_1
_geom_bond_atom_site_label_2
_geom_bond_distance
_geom_bond_site_symmetry_2
O0 Sb3 1.973719 1_555
O0 Sb1 2.013075 1_455
O0 Y0 2.658554 1_555
O1 Sb2 1.973795 1_555
O1 Sb0 2.013068 1_655
O1 Y1 2.658551 1_555
O2 Sb2 1.974260 1_555
O2 Sb1 2.001616 1_555
O2 Y0 2.333430 1_555
O3 Sb3 1.974249 1_555
O3 Sb0 2.001533 1_555
O3 Y1 2.333438 1_555
O4 Sb1 1.991495 1_554
O4 Sb2 2.009103 1_555
O4 Y2 2.301658 1_655
O5 Sb0 1.991601 1_556
O5 Sb3 2.009096 1_555
O5 Y3 2.301655 1_455
O6 Sb0 1.983334 1_555
O6 Sb2 2.019567 1_555
O6 Y2 2.471445 1_555
O7 Sb1 1.983346 1_555
O7 Sb3 2.019467 1_555
O7 Y3 2.471445 1_555
O8 Sb0 2.000876 1_555
O8 Y2 2.225153 1_565
O8 Y1 2.278152 1_455
O8 Y3 2.550253 1_454
O9 Sb1 2.000864 1_555
O9 Y3 2.225153 1_545
O9 Y0 2.278132 1_655
O9 Y2 2.550303 1_656
O10 Sb2 2.007118 1_555
O10 Y2 2.250696 1_555
O10 Y1 2.254369 1_545
O10 Y0 2.549217 1_555
O11 Sb3 2.007194 1_555
O11 Y3 2.250694 1_555
O11 Y0 2.254392 1_565
O11 Y1 2.549213 1_555
O12 Sb1 1.933225 1_555
O12 Y2 2.185254 1_556
O12 Y0 2.345978 1_555
O13 Sb0 1.933211 1_555
O13 Y3 2.185260 1_554
O13 Y1 2.345994 1_555
O14 Sb2 1.957147 1_555
O14 Y0 2.248015 1_655
O14 Y2 2.390136 1_655
O14 Y1 2.631634 1_545
O15 Sb3 1.957269 1_555
O15 Y1 2.248002 1_455
O15 Y3 2.390116 1_455
O15 Y0 2.631656 1_565
