# generated using pymatgen
data_CeMg14Cr
_symmetry_space_group_name_H-M   'P 1'
_cell_length_a   6.47234594
_cell_length_b   6.24744310
_cell_length_c   10.26921784
_cell_angle_alpha   90.00000000
_cell_angle_beta   90.00000000
_cell_angle_gamma   118.85704773
_symmetry_Int_Tables_number   1
_chemical_formula_structural   CeMg14Cr
_chemical_formula_sum   'Ce1 Mg14 Cr1'
_cell_volume   363.68008328
_cell_formula_units_Z   1
loop_
 _symmetry_equiv_pos_site_id
 _symmetry_equiv_pos_as_xyz
  1  'x, y, z'
loop_
 _atom_site_type_symbol
 _atom_site_label
 _atom_site_symmetry_multiplicity
 _atom_site_fract_x
 _atom_site_fract_y
 _atom_site_fract_z
 _atom_site_occupancy
  Ce  Ce0  1  0.15120134  0.32560017  0.12500000  1
  Mg  Mg0  1  0.16614735  0.33307318  0.62500000  1
  Mg  Mg1  1  0.16234231  0.83117066  0.62500000  1
  Mg  Mg2  1  0.64831756  0.31530668  0.12500000  1
  Mg  Mg3  1  0.66489603  0.33534985  0.62500000  1
  Mg  Mg4  1  0.64831756  0.83300988  0.12500000  1
  Mg  Mg5  1  0.66489603  0.82954518  0.62500000  1
  Mg  Mg6  1  0.33968135  0.16572056  0.37789328  1
  Mg  Mg7  1  0.33968135  0.16572056  0.87210672  1
  Mg  Mg8  1  0.33968135  0.67396179  0.37789328  1
  Mg  Mg9  1  0.33968135  0.67396179  0.87210672  1
  Mg  Mg10  1  0.83228897  0.16614498  0.38452280  1
  Mg  Mg11  1  0.83228897  0.16614498  0.86547720  1
  Mg  Mg12  1  0.84683694  0.67341897  0.35978286  1
  Mg  Mg13  1  0.84683694  0.67341897  0.89021714  1
  Cr  Cr0  1  0.17690461  0.83845181  0.12500000  1
loop_
_geom_bond_atom_site_label_1
_geom_bond_atom_site_label_2
_geom_bond_distance
_geom_bond_site_symmetry_2
Ce0 Cr0 3.127118 1_545
Ce0 Cr0 3.127118 1_555
Ce0 Mg10 3.220387 1_455
Ce0 Mg11 3.220387 1_454
Ce0 Mg4 3.224293 1_445
Ce0 Mg2 3.224293 1_455
Ce0 Mg7 3.225910 1_554
Ce0 Mg6 3.225910 1_555
Ce0 Mg9 3.225916 1_554
Ce0 Mg8 3.225916 1_555
Ce0 Mg4 3.249033 1_555
Ce0 Mg2 3.249033 1_555
Mg0 Mg11 3.111294 1_455
Mg0 Mg10 3.111294 1_455
Mg0 Mg1 3.123796 1_545
Mg0 Mg1 3.123796 1_555
Mg0 Mg6 3.150796 1_555
Mg0 Mg7 3.150796 1_555
Mg0 Mg8 3.150803 1_555
Mg0 Mg9 3.150803 1_555
Mg0 Mg5 3.221233 1_555
Mg0 Mg3 3.221234 1_555
Mg0 Mg5 3.251160 1_445
Mg0 Mg3 3.251160 1_455
Mg1 Mg9 3.132026 1_555
Mg1 Mg8 3.132026 1_555
Mg1 Mg6 3.132032 1_565
Mg1 Mg7 3.132032 1_565
Mg1 Mg3 3.214755 1_455
Mg1 Mg5 3.214756 1_455
Mg1 Mg3 3.257614 1_565
Mg1 Mg5 3.257615 1_555
Mg1 Mg12 3.258304 1_455
Mg1 Mg13 3.258304 1_455
Mg2 Mg4 3.013122 1_545
Mg2 Mg7 3.131501 1_554
Mg2 Mg6 3.131501 1_555
Mg2 Mg4 3.234321 1_555
Mg3 Mg5 3.087457 1_555
Mg3 Mg6 3.136862 1_555
Mg3 Mg7 3.136862 1_555
Mg3 Mg5 3.159986 1_545
Mg4 Mg9 3.131501 1_554
Mg4 Mg8 3.131501 1_555
Mg5 Mg8 3.136862 1_555
Mg5 Mg9 3.136862 1_555
Mg6 Mg8 3.072235 1_545
Mg6 Mg8 3.175208 1_555
Mg7 Mg9 3.072235 1_545
Mg7 Mg9 3.175208 1_555
Mg10 Mg3 3.081436 1_555
Mg10 Mg5 3.081442 1_545
Mg10 Mg12 3.135121 1_545
Mg10 Mg12 3.135121 1_555
Mg10 Mg8 3.187775 1_545
Mg10 Mg6 3.187775 1_555
Mg10 Mg2 3.234196 1_555
Mg10 Mg4 3.234202 1_545
Mg10 Mg8 3.286005 1_655
Mg10 Mg6 3.286005 1_655
Mg11 Mg3 3.081436 1_555
Mg11 Mg5 3.081442 1_545
Mg11 Mg13 3.135121 1_545
Mg11 Mg13 3.135121 1_555
Mg11 Mg9 3.187775 1_545
Mg11 Mg7 3.187775 1_555
Mg11 Mg2 3.234196 1_556
Mg11 Mg4 3.234202 1_546
Mg11 Mg9 3.286005 1_655
Mg11 Mg7 3.286005 1_655
Mg12 Mg4 3.113626 1_555
Mg12 Mg2 3.113633 1_555
Mg12 Mg6 3.193644 1_665
Mg12 Mg8 3.193644 1_655
Mg12 Mg6 3.289386 1_555
Mg12 Mg8 3.289386 1_555
Mg12 Mg5 3.296154 1_555
Mg12 Mg3 3.296160 1_555
Mg13 Mg4 3.113626 1_556
Mg13 Mg2 3.113633 1_556
Mg13 Mg7 3.193644 1_665
Mg13 Mg9 3.193644 1_655
Mg13 Mg7 3.289386 1_555
Mg13 Mg9 3.289386 1_555
Mg13 Mg5 3.296154 1_555
Mg13 Mg3 3.296160 1_555
Cr0 Mg13 3.051865 1_454
Cr0 Mg12 3.051865 1_455
Cr0 Mg2 3.067700 1_565
Cr0 Mg4 3.067701 1_555
Cr0 Mg8 3.155242 1_555
Cr0 Mg9 3.155242 1_554
Cr0 Mg7 3.155248 1_564
Cr0 Mg6 3.155248 1_565
Cr0 Mg2 3.404920 1_455
Cr0 Mg4 3.404920 1_455
