# generated using pymatgen
data_Rb2MgCu4H5(SO5)4
_symmetry_space_group_name_H-M   'P 1'
_cell_length_a   11.08334864
_cell_length_b   6.50521076
_cell_length_c   8.55810462
_cell_angle_alpha   92.09298545
_cell_angle_beta   68.65902587
_cell_angle_gamma   56.71502672
_symmetry_Int_Tables_number   1
_chemical_formula_structural   Rb2MgCu4H5(SO5)4
_chemical_formula_sum   'Rb2 Mg1 Cu4 H5 S4 O20'
_cell_volume   457.79559538
_cell_formula_units_Z   1
loop_
 _symmetry_equiv_pos_site_id
 _symmetry_equiv_pos_as_xyz
  1  'x, y, z'
loop_
 _atom_site_type_symbol
 _atom_site_label
 _atom_site_symmetry_multiplicity
 _atom_site_fract_x
 _atom_site_fract_y
 _atom_site_fract_z
 _atom_site_occupancy
  Rb  Rb0  1  0.99756995  0.50406526  0.48685192  1
  Rb  Rb1  1  0.52207091  0.36129232  0.50504022  1
  Mg  Mg0  1  0.38281665  0.94722346  0.55815721  1
  Cu  Cu0  1  0.24000894  0.99831699  0.00203332  1
  Cu  Cu1  1  0.24592491  0.49265641  0.00658107  1
  Cu  Cu2  1  0.78306178  0.97987747  0.96744631  1
  Cu  Cu3  1  0.76306539  0.49088909  0.02358913  1
  H  H0  1  0.05393764  0.43955091  0.97296138  1
  H  H1  1  0.30618969  0.70208753  0.17708330  1
  H  H2  1  0.53748773  0.45884100  0.97938635  1
  H  H3  1  0.70978311  0.32602015  0.80437213  1
  H  H4  1  0.82579938  0.73072377  0.16304514  1
  S  S0  1  0.43270254  0.07904597  0.25751284  1
  S  S1  1  0.09063910  0.94081588  0.73500048  1
  S  S2  1  0.92738178  0.06767825  0.27225713  1
  S  S3  1  0.56317380  0.90406262  0.72118666  1
  O  O0  1  0.03700096  0.14851606  0.22423381  1
  O  O1  1  0.02735578  0.77616037  0.21803314  1
  O  O2  1  0.33061374  0.13619988  0.17073039  1
  O  O3  1  0.32481826  0.23129932  0.45277214  1
  O  O4  1  0.17326696  0.31544887  0.93552160  1
  O  O5  1  0.34801656  0.64821716  0.04937797  1
  O  O6  1  0.23085885  0.86267147  0.55798749  1
  O  O7  1  0.54267190  0.14985688  0.18401740  1
  O  O8  1  0.16399804  0.82504369  0.85135887  1
  O  O9  1  0.47971124  0.17956041  0.80941249  1
  O  O10  1  0.52420059  0.79847717  0.25871426  1
  O  O11  1  0.82162319  0.17289939  0.18238359  1
  O  O12  1  0.43990283  0.84228038  0.76218505  1
  O  O13  1  0.82811035  0.16766046  0.46466580  1
  O  O14  1  0.66417639  0.34232694  0.93022254  1
  O  O15  1  0.85376021  0.67051838  0.04022476  1
  O  O16  1  0.62100899  0.86186981  0.52666125  1
  O  O17  1  0.68881348  0.73189557  0.77011034  1
  O  O18  1  0.98219680  0.22874465  0.79675056  1
  O  O19  1  0.99908058  0.84658106  0.71728793  1
loop_
_geom_bond_atom_site_label_1
_geom_bond_atom_site_label_2
_geom_bond_distance
_geom_bond_site_symmetry_2
Mg0 O3 1.970148 1_565
Mg0 O6 2.039011 1_555
Mg0 O12 2.081408 1_555
Mg0 O10 2.278351 1_555
Mg0 O16 2.283119 1_555
Cu0 O4 1.960722 1_564
Cu0 O0 1.992606 1_565
Cu0 O5 2.052330 1_555
Cu0 O12 2.054665 1_554
Cu0 O8 2.317290 1_554
Cu0 O2 2.417970 1_565
Cu1 O4 1.916083 1_554
Cu1 O5 1.992462 1_555
Cu1 O1 2.050912 1_555
Cu1 O9 2.117474 1_554
Cu1 O8 2.489422 1_554
Cu1 O2 2.653329 1_555
Cu2 O15 1.941087 1_556
Cu2 O14 2.085023 1_565
Cu2 O7 2.186102 1_566
Cu2 O19 2.218679 1_555
Cu2 O11 2.476981 1_566
Cu3 O15 1.943558 1_555
Cu3 O18 2.087095 1_554
Cu3 O14 2.125402 1_554
Cu3 O10 2.252960 1_555
Cu3 O11 2.433271 1_555
H0 O4 1.002164 1_555
H1 O5 0.978330 1_555
H2 O14 1.049609 1_555
H2 O5 1.573970 1_556
H3 O14 0.981494 1_555
H4 O15 0.976671 1_555
O0 S2 1.508365 1_455
O0 Rb0 2.896178 1_455
O1 S2 1.514754 1_465
O1 Rb0 2.986755 1_455
O2 S0 1.462923 1_555
O2 Rb0 3.038809 1_455
O3 S0 1.525797 1_555
O3 Rb1 2.899668 1_555
O3 Rb0 2.918401 1_455
O6 S1 1.526969 1_555
O6 Rb1 2.921236 1_555
O7 S0 1.474036 1_555
O7 Rb1 2.900789 1_555
O8 S1 1.480495 1_555
O9 S3 1.486885 1_545
O9 Rb1 2.889170 1_555
O10 S0 1.528763 1_565
O11 S2 1.499357 1_555
O11 Rb1 2.960372 1_555
O12 S3 1.554152 1_555
O13 S2 1.470620 1_555
O13 Rb1 2.763493 1_555
O16 S3 1.501499 1_555
O16 Rb1 2.841301 1_565
O16 Rb0 3.346188 1_555
O17 S3 1.454489 1_555
O17 Rb0 2.813628 1_555
O18 S1 1.492172 1_645
O18 Rb0 3.259395 1_555
O19 S1 1.488792 1_655
O19 Rb0 2.932245 1_555
