# generated using pymatgen
data_Li4Ni3SbO8
_symmetry_space_group_name_H-M   'P 1'
_cell_length_a   6.00844174
_cell_length_b   10.37779928
_cell_length_c   5.97552250
_cell_angle_alpha   73.02346474
_cell_angle_beta   120.19647368
_cell_angle_gamma   106.84956846
_symmetry_Int_Tables_number   1
_chemical_formula_structural   Li4Ni3SbO8
_chemical_formula_sum   'Li8 Ni6 Sb2 O16'
_cell_volume   303.36351901
_cell_formula_units_Z   2
loop_
 _symmetry_equiv_pos_site_id
 _symmetry_equiv_pos_as_xyz
  1  'x, y, z'
loop_
 _atom_site_type_symbol
 _atom_site_label
 _atom_site_symmetry_multiplicity
 _atom_site_fract_x
 _atom_site_fract_y
 _atom_site_fract_z
 _atom_site_occupancy
  Li  Li0  1  0.25082000  0.75034300  0.75082400  1
  Li  Li1  1  0.75048300  0.25032000  0.25054200  1
  Li  Li2  1  0.01839800  0.00973900  0.50273800  1
  Li  Li3  1  0.48051200  0.48969200  0.99728700  1
  Li  Li4  1  0.24938900  0.25019300  0.24956100  1
  Li  Li5  1  0.75045800  0.75016000  0.74985900  1
  Li  Li6  1  0.50624000  0.98977600  0.49711800  1
  Li  Li7  1  0.99398700  0.50976600  0.00292500  1
  Ni  Ni0  1  0.75017300  0.24997900  0.74943500  1
  Ni  Ni1  1  0.25004000  0.74972100  0.25059200  1
  Ni  Ni2  1  0.49804800  0.00048100  0.99951600  1
  Ni  Ni3  1  0.00180200  0.50069200  0.49956500  1
  Ni  Ni4  1  0.25043500  0.24981000  0.75041100  1
  Ni  Ni5  1  0.74973400  0.74996500  0.25004700  1
  Sb  Sb0  1  0.50342700  0.49986100  0.50022000  1
  Sb  Sb1  1  0.99650300  0.99980400  0.00008000  1
  O  O0  1  0.37664900  0.13722000  0.64905000  1
  O  O1  1  0.90960300  0.63722900  0.14937400  1
  O  O2  1  0.58948700  0.86279400  0.34967900  1
  O  O3  1  0.12312900  0.36280100  0.84946400  1
  O  O4  1  0.64043400  0.88234700  0.88240500  1
  O  O5  1  0.14786800  0.37765800  0.39291400  1
  O  O6  1  0.37924900  0.61972700  0.14161700  1
  O  O7  1  0.88194200  0.11960400  0.64151800  1
  O  O8  1  0.12249600  0.87761500  0.89312900  1
  O  O9  1  0.62413600  0.38242400  0.38238100  1
  O  O10  1  0.35165900  0.12273100  0.10753100  1
  O  O11  1  0.85990500  0.61738100  0.61761300  1
  O  O12  1  0.61851000  0.38011000  0.85880300  1
  O  O13  1  0.12055300  0.88006600  0.35885400  1
  O  O14  1  0.87503200  0.11731800  0.11735600  1
  O  O15  1  0.37890200  0.62267300  0.60760000  1
loop_
_geom_bond_atom_site_label_1
_geom_bond_atom_site_label_2
_geom_bond_distance
_geom_bond_site_symmetry_2
Li0 O6 2.198010 1_556
Li0 O13 2.199176 1_555
Li0 O4 2.212092 1_555
Li0 O11 2.221763 1_455
Li0 O8 2.228871 1_555
Li0 O15 2.235164 1_555
Li1 O12 2.198485 1_554
Li1 O7 2.199196 1_555
Li1 O9 2.216327 1_555
Li1 O14 2.222147 1_555
Li1 O5 2.225992 1_655
Li1 O10 2.233205 1_555
Li2 O0 2.068690 1_555
Li2 O14 2.086216 1_455
Li2 O7 2.106633 1_455
Li2 O13 2.147624 1_545
Li2 O8 2.207885 1_545
Li2 O2 2.443070 1_445
Li3 O3 2.063318 1_555
Li3 O9 2.083891 1_556
Li3 O12 2.109960 1_555
Li3 O6 2.149088 1_556
Li3 O15 2.209376 1_555
Li3 O1 2.446297 1_556
Li4 O10 2.121089 1_555
Li4 O5 2.123856 1_555
Li4 O9 2.151749 1_555
Li4 O14 2.153025 1_455
Li4 O0 2.169550 1_555
Li4 O3 2.171403 1_554
Li5 O15 2.119537 1_555
Li5 O8 2.121663 1_655
Li5 O4 2.152464 1_555
Li5 O11 2.153979 1_555
Li5 O1 2.169475 1_556
Li5 O2 2.171773 1_555
Li6 O2 2.065517 1_555
Li6 O4 2.085305 1_555
Li6 O13 2.107822 1_555
Li6 O7 2.147544 1_565
Li6 O10 2.208644 1_565
Li6 O0 2.446401 1_565
Li7 O1 2.069723 1_555
Li7 O11 2.086053 1_554
Li7 O6 2.106792 1_655
Li7 O12 2.145764 1_554
Li7 O5 2.206102 1_655
Li7 O3 2.446979 1_654
Ni0 O3 2.071229 1_655
Ni0 O0 2.073455 1_555
Ni0 O9 2.108445 1_555
Ni0 O14 2.112770 1_556
Ni0 O7 2.125415 1_555
Ni0 O12 2.128733 1_555
Ni1 O2 1.921152 1_555
Ni1 O1 1.922553 1_455
Ni1 O15 2.043679 1_555
Ni1 O8 2.049136 1_554
Ni1 O6 2.115511 1_555
Ni1 O13 2.116842 1_555
Ni2 O0 2.063861 1_555
Ni2 O2 2.067487 1_546
Ni2 O14 2.097287 1_556
Ni2 O4 2.106160 1_545
Ni2 O8 2.117561 1_545
Ni2 O10 2.120374 1_556
Ni3 O1 2.061787 1_455
Ni3 O3 2.067628 1_555
Ni3 O11 2.096015 1_455
Ni3 O9 2.105908 1_455
Ni3 O5 2.119924 1_555
Ni3 O15 2.120394 1_555
Ni4 O3 1.921227 1_555
Ni4 O0 1.922548 1_555
Ni4 O10 2.044254 1_556
Ni4 O5 2.048951 1_555
Ni4 O12 2.115628 1_555
Ni4 O7 2.116889 1_455
Ni5 O2 2.071190 1_555
Ni5 O1 2.072953 1_555
Ni5 O4 2.110490 1_554
Ni5 O11 2.110977 1_555
Ni5 O6 2.125597 1_555
Ni5 O13 2.126342 1_655
O4 Sb1 2.008184 1_556
O5 Sb0 2.027247 1_555
O6 Sb0 2.017182 1_555
O7 Sb1 2.016730 1_546
O8 Sb1 2.026299 1_456
O9 Sb0 2.008597 1_555
O10 Sb1 2.028611 1_445
O11 Sb0 2.010215 1_555
O12 Sb0 2.016570 1_555
O13 Sb1 2.017334 1_455
O14 Sb1 2.010131 1_545
O15 Sb0 2.027124 1_555
