# generated using pymatgen
data_In4(SnO4)3
_symmetry_space_group_name_H-M   'P 1'
_cell_length_a   6.27098957
_cell_length_b   6.35218819
_cell_length_c   6.36586977
_cell_angle_alpha   99.55294009
_cell_angle_beta   99.53556944
_cell_angle_gamma   99.72767244
_symmetry_Int_Tables_number   1
_chemical_formula_structural   In4(SnO4)3
_chemical_formula_sum   'In4 Sn3 O12'
_cell_volume   241.52528620
_cell_formula_units_Z   1
loop_
 _symmetry_equiv_pos_site_id
 _symmetry_equiv_pos_as_xyz
  1  'x, y, z'
loop_
 _atom_site_type_symbol
 _atom_site_label
 _atom_site_symmetry_multiplicity
 _atom_site_fract_x
 _atom_site_fract_y
 _atom_site_fract_z
 _atom_site_occupancy
  In  In0  1  0.69427200  0.86508500  0.39296000  1
  In  In1  1  0.13755600  0.60415600  0.31683600  1
  In  In2  1  0.60382300  0.31393300  0.13833900  1
  In  In3  1  0.30963300  0.12896000  0.60487200  1
  Sn  Sn0  1  0.00085800  0.00450100  0.00085300  1
  Sn  Sn1  1  0.85979000  0.39669100  0.68160100  1
  Sn  Sn2  1  0.39589700  0.68643000  0.86147900  1
  O  O0  1  0.59030700  0.43089800  0.82053300  1
  O  O1  1  0.41572800  0.80997600  0.58448900  1
  O  O2  1  0.82146500  0.58027700  0.43134800  1
  O  O3  1  0.41350400  0.58447000  0.16186900  1
  O  O4  1  0.58968800  0.18042200  0.42607700  1
  O  O5  1  0.17774400  0.41746500  0.59973200  1
  O  O6  1  0.05681600  0.68726300  0.89014100  1
  O  O7  1  0.68110700  0.89904600  0.04608400  1
  O  O8  1  0.90457600  0.07262900  0.69292700  1
  O  O9  1  0.94355700  0.31571600  0.09671600  1
  O  O10  1  0.31917700  0.08239000  0.94217000  1
  O  O11  1  0.08450300  0.93969400  0.31097600  1
loop_
_geom_bond_atom_site_label_1
_geom_bond_atom_site_label_2
_geom_bond_distance
_geom_bond_site_symmetry_2
In0 O2 2.130439 1_555
In0 O4 2.199203 1_565
In0 O8 2.205947 1_565
In0 O7 2.243455 1_555
In0 O1 2.302365 1_555
In0 O3 2.377480 1_555
In0 O11 2.568809 1_655
In1 O3 2.140354 1_555
In1 O9 2.151828 1_455
In1 O2 2.213001 1_455
In1 O11 2.217398 1_555
In1 O1 2.271681 1_555
In1 O5 2.317869 1_555
In2 O4 2.150872 1_555
In2 O10 2.161854 1_554
In2 O9 2.188402 1_555
In2 O3 2.250998 1_555
In2 O0 2.261764 1_554
In2 O2 2.352260 1_555
In3 O5 2.137015 1_555
In3 O11 2.177971 1_545
In3 O10 2.208115 1_555
In3 O1 2.227569 1_545
In3 O4 2.253533 1_555
In3 O0 2.417843 1_555
In3 O8 2.669377 1_455
O0 Sn1 2.059311 1_555
O0 Sn2 2.196036 1_555
O1 Sn2 2.059005 1_555
O2 Sn1 2.130755 1_555
O3 Sn2 2.110364 1_554
O4 Sn1 2.227394 1_555
O5 Sn1 2.131388 1_455
O5 Sn2 2.253205 1_555
O6 Sn0 2.128428 1_566
O6 Sn1 2.137378 1_455
O6 Sn2 2.164904 1_555
O7 Sn0 2.086548 1_665
O7 Sn2 2.089140 1_554
O8 Sn0 2.090938 1_656
O8 Sn1 2.135283 1_555
O9 Sn0 2.078925 1_655
O10 Sn0 2.084160 1_556
O10 Sn2 2.623660 1_545
O11 Sn0 2.083678 1_565
