# generated using pymatgen
data_Cs2Cd2(MoO4)3
_symmetry_space_group_name_H-M   'P 1'
_cell_length_a   11.54103700
_cell_length_b   11.54103700
_cell_length_c   11.54103700
_cell_angle_alpha   90.00000000
_cell_angle_beta   90.00000000
_cell_angle_gamma   90.00000000
_symmetry_Int_Tables_number   1
_chemical_formula_structural   Cs2Cd2(MoO4)3
_chemical_formula_sum   'Cs8 Cd8 Mo12 O48'
_cell_volume   1537.21459808
_cell_formula_units_Z   4
loop_
 _symmetry_equiv_pos_site_id
 _symmetry_equiv_pos_as_xyz
  1  'x, y, z'
loop_
 _atom_site_type_symbol
 _atom_site_label
 _atom_site_symmetry_multiplicity
 _atom_site_fract_x
 _atom_site_fract_y
 _atom_site_fract_z
 _atom_site_occupancy
  Cs  Cs0  1  0.42914600  0.92914600  0.57085400  1
  Cs  Cs1  1  0.92914600  0.57085400  0.42914600  1
  Cs  Cs2  1  0.57085400  0.42914600  0.92914600  1
  Cs  Cs3  1  0.07085400  0.07085400  0.07085400  1
  Cs  Cs4  1  0.20315600  0.70315600  0.79684400  1
  Cs  Cs5  1  0.70315600  0.79684400  0.20315600  1
  Cs  Cs6  1  0.79684400  0.20315600  0.70315600  1
  Cs  Cs7  1  0.29684400  0.29684400  0.29684400  1
  Cd  Cd0  1  0.91463800  0.41463800  0.08536200  1
  Cd  Cd1  1  0.41463800  0.08536200  0.91463800  1
  Cd  Cd2  1  0.08536200  0.91463800  0.41463800  1
  Cd  Cd3  1  0.58536200  0.58536200  0.58536200  1
  Cd  Cd4  1  0.64410800  0.14410800  0.35589200  1
  Cd  Cd5  1  0.14410800  0.35589200  0.64410800  1
  Cd  Cd6  1  0.35589200  0.64410800  0.14410800  1
  Cd  Cd7  1  0.85589200  0.85589200  0.85589200  1
  Mo  Mo0  1  0.22876000  0.37184300  0.95687800  1
  Mo  Mo1  1  0.04312200  0.72876000  0.12815700  1
  Mo  Mo2  1  0.87184300  0.54312200  0.77124000  1
  Mo  Mo3  1  0.72876000  0.12815700  0.04312200  1
  Mo  Mo4  1  0.54312200  0.77124000  0.87184300  1
  Mo  Mo5  1  0.37184300  0.95687800  0.22876000  1
  Mo  Mo6  1  0.77124000  0.87184300  0.54312200  1
  Mo  Mo7  1  0.95687800  0.22876000  0.37184300  1
  Mo  Mo8  1  0.12815700  0.04312200  0.72876000  1
  Mo  Mo9  1  0.27124000  0.62815700  0.45687800  1
  Mo  Mo10  1  0.45687800  0.27124000  0.62815700  1
  Mo  Mo11  1  0.62815700  0.45687800  0.27124000  1
  O  O0  1  0.08086100  0.35081000  0.99847500  1
  O  O1  1  0.00152500  0.58086100  0.14919000  1
  O  O2  1  0.85081000  0.50152500  0.91913900  1
  O  O3  1  0.58086100  0.14919000  0.00152500  1
  O  O4  1  0.50152500  0.91913900  0.85081000  1
  O  O5  1  0.35081000  0.99847500  0.08086100  1
  O  O6  1  0.91913900  0.85081000  0.50152500  1
  O  O7  1  0.99847500  0.08086100  0.35081000  1
  O  O8  1  0.14919000  0.00152500  0.58086100  1
  O  O9  1  0.41913900  0.64919000  0.49847500  1
  O  O10  1  0.49847500  0.41913900  0.64919000  1
  O  O11  1  0.64919000  0.49847500  0.41913900  1
  O  O12  1  0.30228100  0.23675100  0.97910600  1
  O  O13  1  0.02089400  0.80228100  0.26324900  1
  O  O14  1  0.73675100  0.52089400  0.69771900  1
  O  O15  1  0.80228100  0.26324900  0.02089400  1
  O  O16  1  0.52089400  0.69771900  0.73675100  1
  O  O17  1  0.23675100  0.97910600  0.30228100  1
  O  O18  1  0.69771900  0.73675100  0.52089400  1
  O  O19  1  0.97910600  0.30228100  0.23675100  1
  O  O20  1  0.26324900  0.02089400  0.80228100  1
  O  O21  1  0.19771900  0.76324900  0.47910600  1
  O  O22  1  0.47910600  0.19771900  0.76324900  1
  O  O23  1  0.76324900  0.47910600  0.19771900  1
  O  O24  1  0.23944900  0.42127400  0.80869200  1
  O  O25  1  0.19130800  0.73944900  0.07872600  1
  O  O26  1  0.92127400  0.69130800  0.76055100  1
  O  O27  1  0.73944900  0.07872600  0.19130800  1
  O  O28  1  0.69130800  0.76055100  0.92127400  1
  O  O29  1  0.42127400  0.80869200  0.23944900  1
  O  O30  1  0.76055100  0.92127400  0.69130800  1
  O  O31  1  0.80869200  0.23944900  0.42127400  1
  O  O32  1  0.07872600  0.19130800  0.73944900  1
  O  O33  1  0.26055100  0.57872600  0.30869200  1
  O  O34  1  0.30869200  0.26055100  0.57872600  1
  O  O35  1  0.57872600  0.30869200  0.26055100  1
  O  O36  1  0.29828300  0.47678700  0.04833200  1
  O  O37  1  0.95166800  0.79828300  0.02321300  1
  O  O38  1  0.97678700  0.45166800  0.70171700  1
  O  O39  1  0.79828300  0.02321300  0.95166800  1
  O  O40  1  0.45166800  0.70171700  0.97678700  1
  O  O41  1  0.47678700  0.04833200  0.29828300  1
  O  O42  1  0.70171700  0.97678700  0.45166800  1
  O  O43  1  0.04833200  0.29828300  0.47678700  1
  O  O44  1  0.02321300  0.95166800  0.79828300  1
  O  O45  1  0.20171700  0.52321300  0.54833200  1
  O  O46  1  0.54833200  0.20171700  0.52321300  1
  O  O47  1  0.52321300  0.54833200  0.20171700  1
loop_
_geom_bond_atom_site_label_1
_geom_bond_atom_site_label_2
_geom_bond_distance
_geom_bond_site_symmetry_2
Cs0 O9 3.339216 1_555
Cs0 O8 3.339216 1_565
Cs0 O4 3.339216 1_555
Cs0 O20 3.452641 1_565
Cs0 O16 3.452641 1_555
Cs0 O21 3.452641 1_555
Cs0 O46 3.477089 1_565
Cs0 O42 3.477089 1_555
Cs0 O41 3.477089 1_565
Cs1 O11 3.339216 1_555
Cs1 O1 3.339216 1_655
Cs1 O6 3.339216 1_555
Cs1 O13 3.452641 1_655
Cs1 O18 3.452641 1_555
Cs1 O23 3.452641 1_555
Cs1 O45 3.477089 1_655
Cs1 O38 3.477089 1_555
Cs1 O43 3.477089 1_655
Cs2 O10 3.339216 1_555
Cs2 O3 3.339216 1_556
Cs2 O2 3.339216 1_555
Cs2 O14 3.452641 1_555
Cs2 O15 3.452641 1_556
Cs2 O22 3.452641 1_555
Cs2 O47 3.477089 1_556
Cs2 O40 3.477089 1_555
Cs2 O36 3.477089 1_556
Cs3 O7 3.339216 1_455
Cs3 O0 3.339216 1_554
Cs3 O5 3.339216 1_545
Cs3 O17 3.452641 1_545
Cs3 O12 3.452641 1_554
Cs3 O19 3.452641 1_455
Cs3 O44 3.477089 1_544
Cs3 O39 3.477089 1_454
Cs3 O37 3.477089 1_445
Cs4 O25 3.282913 1_556
Cs4 O24 3.282913 1_555
Cs4 O26 3.282913 1_455
Cs4 O40 3.541045 1_555
Cs4 O44 3.541045 1_555
Cs4 O45 3.541045 1_555
Cs4 O20 3.732561 1_565
Cs4 O21 3.732561 1_555
Cs4 O16 3.732561 1_555
Cs5 O27 3.282913 1_565
Cs5 O29 3.282913 1_555
Cs5 O28 3.282913 1_554
Cs5 O42 3.541045 1_555
Cs5 O37 3.541045 1_555
Cs5 O47 3.541045 1_555
Cs5 O13 3.732561 1_655
Cs5 O23 3.732561 1_555
Cs5 O18 3.732561 1_555
Cs6 O32 3.282913 1_655
Cs6 O31 3.282913 1_555
Cs6 O30 3.282913 1_545
Cs6 O38 3.541045 1_555
Cs6 O39 3.541045 1_555
Cs6 O46 3.541045 1_555
Cs6 O15 3.732561 1_556
Cs6 O22 3.732561 1_555
Cs6 O14 3.732561 1_555
Cs7 O33 3.282913 1_555
Cs7 O34 3.282913 1_555
Cs7 O35 3.282913 1_555
Cs7 O41 3.541045 1_555
Cs7 O36 3.541045 1_555
Cs7 O43 3.541045 1_555
Cs7 O12 3.732561 1_554
Cs7 O17 3.732561 1_545
Cs7 O19 3.732561 1_455
Cd0 O1 2.286566 1_655
Cd0 O0 2.286566 1_654
Cd0 O2 2.286566 1_554
Cd0 O23 2.299502 1_555
Cd0 O19 2.299502 1_555
Cd0 O15 2.299502 1_555
Cd1 O3 2.286566 1_556
Cd1 O5 2.286566 1_546
Cd1 O4 2.286566 1_545
Cd1 O22 2.299502 1_555
Cd1 O12 2.299502 1_555
Cd1 O20 2.299502 1_555
Cd2 O8 2.286566 1_565
Cd2 O7 2.286566 1_465
Cd2 O6 2.286566 1_455
Cd2 O21 2.299502 1_555
Cd2 O17 2.299502 1_555
Cd2 O13 2.299502 1_555
Cd3 O11 2.286566 1_555
Cd3 O9 2.286566 1_555
Cd3 O10 2.286566 1_555
Cd3 O18 2.299502 1_555
Cd3 O14 2.299502 1_555
Cd3 O16 2.299502 1_555
Cd4 O35 2.321230 1_555
Cd4 O27 2.321230 1_555
Cd4 O31 2.321230 1_555
Cd4 O42 2.322249 1_545
Cd4 O46 2.322249 1_555
Cd4 O41 2.322249 1_555
Cd5 O34 2.321230 1_555
Cd5 O32 2.321230 1_555
Cd5 O24 2.321230 1_555
Cd5 O38 2.322249 1_455
Cd5 O45 2.322249 1_555
Cd5 O43 2.322249 1_555
Cd6 O33 2.321230 1_555
Cd6 O25 2.321230 1_555
Cd6 O29 2.321230 1_555
Cd6 O40 2.322249 1_554
Cd6 O47 2.322249 1_555
Cd6 O36 2.322249 1_555
Cd7 O26 2.321230 1_555
Cd7 O30 2.321230 1_555
Cd7 O28 2.321230 1_555
Cd7 O44 2.322249 1_655
Cd7 O39 2.322249 1_565
Cd7 O37 2.322249 1_556
Mo0 O0 1.789673 1_555
Mo0 O12 1.793481 1_555
Mo0 O36 1.795754 1_556
Mo0 O24 1.807076 1_555
Mo1 O1 1.789673 1_555
Mo1 O13 1.793481 1_555
Mo1 O37 1.795754 1_455
Mo1 O25 1.807076 1_555
Mo2 O2 1.789673 1_555
Mo2 O14 1.793481 1_555
Mo2 O38 1.795754 1_555
Mo2 O26 1.807076 1_555
Mo3 O3 1.789673 1_555
Mo3 O15 1.793481 1_555
Mo3 O39 1.795754 1_554
Mo3 O27 1.807076 1_555
Mo4 O4 1.789673 1_555
Mo4 O16 1.793481 1_555
Mo4 O40 1.795754 1_555
Mo4 O28 1.807076 1_555
Mo5 O5 1.789673 1_555
Mo5 O17 1.793481 1_555
Mo5 O41 1.795754 1_565
Mo5 O29 1.807076 1_555
Mo6 O6 1.789673 1_555
Mo6 O18 1.793481 1_555
Mo6 O42 1.795754 1_555
Mo6 O30 1.807076 1_555
Mo7 O7 1.789673 1_555
Mo7 O19 1.793481 1_555
Mo7 O43 1.795754 1_655
Mo7 O31 1.807076 1_555
Mo8 O8 1.789673 1_555
Mo8 O20 1.793481 1_555
Mo8 O44 1.795754 1_545
Mo8 O32 1.807076 1_555
Mo9 O9 1.789673 1_555
Mo9 O21 1.793481 1_555
Mo9 O45 1.795754 1_555
Mo9 O33 1.807076 1_555
Mo10 O10 1.789673 1_555
Mo10 O22 1.793481 1_555
Mo10 O46 1.795754 1_555
Mo10 O34 1.807076 1_555
Mo11 O11 1.789673 1_555
Mo11 O23 1.793481 1_555
Mo11 O47 1.795754 1_555
Mo11 O35 1.807076 1_555
