# generated using pymatgen
data_Li7Mn2(CoO4)3
_symmetry_space_group_name_H-M   'P 1'
_cell_length_a   7.76138033
_cell_length_b   7.76138033
_cell_length_c   11.81201489
_cell_angle_alpha   55.57807985
_cell_angle_beta   55.57807985
_cell_angle_gamma   21.72907155
_symmetry_Int_Tables_number   1
_chemical_formula_structural   Li7Mn2(CoO4)3
_chemical_formula_sum   'Li7 Mn2 Co3 O12'
_cell_volume   215.41221038
_cell_formula_units_Z   1
loop_
 _symmetry_equiv_pos_site_id
 _symmetry_equiv_pos_as_xyz
  1  'x, y, z'
loop_
 _atom_site_type_symbol
 _atom_site_label
 _atom_site_symmetry_multiplicity
 _atom_site_fract_x
 _atom_site_fract_y
 _atom_site_fract_z
 _atom_site_occupancy
  Li  Li0  1  0.83346600  0.83346600  0.74641800  1
  Li  Li1  1  0.16653400  0.16653400  0.25358200  1
  Li  Li2  1  0.49998900  0.49998900  0.75480100  1
  Li  Li3  1  0.84083500  0.84083500  0.24482600  1
  Li  Li4  1  0.15916500  0.15916500  0.75517400  1
  Li  Li5  1  0.50001100  0.50001100  0.24519900  1
  Li  Li6  1  0.50000000  0.50000000  0.00000000  1
  Mn  Mn0  1  0.16077500  0.16077500  0.00310200  1
  Mn  Mn1  1  0.83922500  0.83922500  0.99689800  1
  Co  Co0  1  0.50000000  0.50000000  0.50000000  1
  Co  Co1  1  0.16641900  0.16641900  0.50049900  1
  Co  Co2  1  0.83358100  0.83358100  0.49950100  1
  O  O0  1  0.66909300  0.66909300  0.88870400  1
  O  O1  1  0.99848600  0.99848600  0.38522100  1
  O  O2  1  0.32512600  0.32512600  0.89400300  1
  O  O3  1  0.66572600  0.66572600  0.38407600  1
  O  O4  1  0.98404500  0.98404500  0.88345100  1
  O  O5  1  0.33157200  0.33157200  0.38376400  1
  O  O6  1  0.00151400  0.00151400  0.61477900  1
  O  O7  1  0.33090700  0.33090700  0.11129600  1
  O  O8  1  0.66842800  0.66842800  0.61623600  1
  O  O9  1  0.01595500  0.01595500  0.11654900  1
  O  O10  1  0.33427400  0.33427400  0.61592400  1
  O  O11  1  0.67487400  0.67487400  0.10599700  1
loop_
_geom_bond_atom_site_label_1
_geom_bond_atom_site_label_2
_geom_bond_distance
_geom_bond_site_symmetry_2
Li0 O0 2.062878 1_555
Li0 O6 2.096414 1_665
Li0 O10 2.119987 1_655
Li0 O10 2.119987 1_565
Li0 O2 2.222650 1_565
Li0 O2 2.222650 1_655
Li1 O7 2.062878 1_555
Li1 O1 2.096414 1_445
Li1 O3 2.119987 1_455
Li1 O3 2.119987 1_545
Li1 O11 2.222650 1_455
Li1 O11 2.222650 1_545
Li2 O4 2.020706 1_455
Li2 O4 2.020706 1_545
Li2 O8 2.105739 1_555
Li2 O2 2.182597 1_555
Li2 O6 2.198169 1_655
Li2 O6 2.198169 1_565
Li3 O5 2.141643 1_655
Li3 O5 2.141643 1_565
Li3 O9 2.183138 1_665
Li3 O3 2.185580 1_555
Li3 O7 2.219370 1_565
Li3 O7 2.219370 1_655
Li4 O8 2.141643 1_545
Li4 O8 2.141643 1_455
Li4 O4 2.183138 1_445
Li4 O10 2.185580 1_555
Li4 O0 2.219370 1_545
Li4 O0 2.219370 1_455
Li5 O9 2.020706 1_655
Li5 O9 2.020706 1_565
Li5 O5 2.105739 1_555
Li5 O11 2.182597 1_555
Li5 O1 2.198169 1_545
Li5 O1 2.198169 1_455
Li6 O7 2.114674 1_555
Li6 O0 2.114674 1_554
Li6 O9 2.116606 1_655
Li6 O9 2.116606 1_565
Li6 O4 2.116606 1_454
Li6 O4 2.116606 1_544
Mn0 O9 1.806644 1_555
Mn0 O0 1.945483 1_544
Mn0 O0 1.945483 1_454
Mn0 O11 1.991045 1_545
Mn0 O11 1.991045 1_455
Mn0 O2 2.054527 1_554
Mn1 O4 1.806644 1_555
Mn1 O7 1.945483 1_566
Mn1 O7 1.945483 1_656
Mn1 O2 1.991045 1_565
Mn1 O2 1.991045 1_655
Mn1 O11 2.054527 1_556
Co0 O6 2.003701 1_655
Co0 O6 2.003701 1_565
Co0 O1 2.003701 1_455
Co0 O1 2.003701 1_545
Co0 O10 2.067672 1_555
Co0 O3 2.067672 1_555
Co1 O3 2.011997 1_455
Co1 O3 2.011997 1_545
Co1 O8 2.014500 1_455
Co1 O8 2.014500 1_545
Co1 O6 2.057987 1_555
Co1 O5 2.059985 1_555
Co2 O10 2.011997 1_655
Co2 O10 2.011997 1_565
Co2 O5 2.014500 1_655
Co2 O5 2.014500 1_565
Co2 O1 2.057987 1_555
Co2 O8 2.059985 1_555
