# generated using pymatgen
data_Ca2SnGe2
_symmetry_space_group_name_H-M   'P 1'
_cell_length_a   7.41228954
_cell_length_b   7.41228954
_cell_length_c   4.47430303
_cell_angle_alpha   90.00000000
_cell_angle_beta   90.00000000
_cell_angle_gamma   90.00000000
_symmetry_Int_Tables_number   1
_chemical_formula_structural   Ca2SnGe2
_chemical_formula_sum   'Ca4 Sn2 Ge4'
_cell_volume   245.82731915
_cell_formula_units_Z   2
loop_
 _symmetry_equiv_pos_site_id
 _symmetry_equiv_pos_as_xyz
  1  'x, y, z'
loop_
 _atom_site_type_symbol
 _atom_site_label
 _atom_site_symmetry_multiplicity
 _atom_site_fract_x
 _atom_site_fract_y
 _atom_site_fract_z
 _atom_site_occupancy
  Ca  Ca0  1  0.67723119  0.17723119  0.50000000  1
  Ca  Ca1  1  0.32276881  0.82276881  0.50000000  1
  Ca  Ca2  1  0.17723119  0.32276881  0.50000000  1
  Ca  Ca3  1  0.82276881  0.67723119  0.50000000  1
  Sn  Sn0  1  0.50000000  0.50000000  0.00000000  1
  Sn  Sn1  1  -0.00000000  -0.00000000  0.00000000  1
  Ge  Ge0  1  0.11828873  0.61828873  0.00000000  1
  Ge  Ge1  1  0.88171127  0.38171127  -0.00000000  1
  Ge  Ge2  1  0.61828873  0.88171127  -0.00000000  1
  Ge  Ge3  1  0.38171127  0.11828873  0.00000000  1
loop_
_geom_bond_atom_site_label_1
_geom_bond_atom_site_label_2
_geom_bond_distance
_geom_bond_site_symmetry_2
Ca0 Ge1 3.098279 1_555
Ca0 Ge1 3.098279 1_556
Ca0 Ge3 3.161317 1_555
Ca0 Ge2 3.161317 1_546
Ca0 Ge3 3.161317 1_556
Ca0 Ge2 3.161317 1_545
Ca0 Sn0 3.529089 1_555
Ca0 Sn0 3.529089 1_556
Ca0 Sn1 3.529089 1_656
Ca0 Sn1 3.529089 1_655
Ca1 Ge0 3.098279 1_555
Ca1 Ge0 3.098279 1_556
Ca1 Ge3 3.161317 1_565
Ca1 Ge3 3.161317 1_566
Ca1 Ge2 3.161317 1_555
Ca1 Ge2 3.161317 1_556
Ca1 Sn1 3.529089 1_565
Ca1 Sn1 3.529089 1_566
Ca1 Sn0 3.529089 1_555
Ca1 Sn0 3.529089 1_556
Ca2 Ge3 3.098279 1_555
Ca2 Ge3 3.098279 1_556
Ca2 Ge1 3.161317 1_456
Ca2 Ge1 3.161317 1_455
Ca2 Ge0 3.161317 1_556
Ca2 Ge0 3.161317 1_555
Ca2 Sn0 3.529089 1_556
Ca2 Sn1 3.529089 1_555
Ca2 Sn0 3.529089 1_555
Ca2 Sn1 3.529089 1_556
Ca3 Ge2 3.098279 1_556
Ca3 Ge2 3.098279 1_555
Ca3 Ge1 3.161317 1_555
Ca3 Ge1 3.161317 1_556
Ca3 Ge0 3.161317 1_656
Ca3 Ge0 3.161317 1_655
Ca3 Sn1 3.529089 1_666
Ca3 Sn0 3.529089 1_555
Ca3 Sn0 3.529089 1_556
Ca3 Sn1 3.529089 1_665
Ge0 Ge1 2.479938 1_455
Ge0 Sn1 2.962095 1_565
Ge0 Sn0 2.962095 1_555
Ge1 Sn1 2.962095 1_655
Ge1 Sn0 2.962095 1_555
Ge2 Ge3 2.479938 1_565
Ge2 Sn1 2.962095 1_665
Ge2 Sn0 2.962095 1_555
Ge3 Sn0 2.962095 1_555
Ge3 Sn1 2.962095 1_555
