# generated using pymatgen
data_V5Si6W5
_symmetry_space_group_name_H-M   'P 1'
_cell_length_a   4.95932900
_cell_length_b   7.15123058
_cell_length_c   7.15900301
_cell_angle_alpha   96.63941618
_cell_angle_beta   110.26544920
_cell_angle_gamma   69.71155636
_symmetry_Int_Tables_number   1
_chemical_formula_structural   V5Si6W5
_chemical_formula_sum   'V5 Si6 W5'
_cell_volume   223.39971525
_cell_formula_units_Z   1
loop_
 _symmetry_equiv_pos_site_id
 _symmetry_equiv_pos_as_xyz
  1  'x, y, z'
loop_
 _atom_site_type_symbol
 _atom_site_label
 _atom_site_symmetry_multiplicity
 _atom_site_fract_x
 _atom_site_fract_y
 _atom_site_fract_z
 _atom_site_occupancy
  V  V0  1  0.42719000  0.84956700  0.70394700  1
  V  V1  1  0.57324900  0.15015900  0.29665600  1
  V  V2  1  0.92630800  0.29839800  0.15101300  1
  V  V3  1  0.07134100  0.70395100  0.84663400  1
  V  V4  1  0.72525400  0.70144400  0.15195100  1
  Si  Si0  1  0.25471400  0.99646400  0.00163400  1
  Si  Si1  1  0.75045600  0.99646400  0.00163400  1
  Si  Si2  1  0.33143500  0.49772700  0.16059700  1
  Si  Si3  1  0.66766200  0.50779200  0.84311600  1
  Si  Si4  1  0.82971500  0.83871000  0.49814100  1
  Si  Si5  1  0.16807100  0.16020400  0.49634700  1
  W  W0  1  0.27560000  0.29914200  0.85034300  1
  W  W1  1  0.77597400  0.14990700  0.70185500  1
  W  W2  1  0.22435000  0.84934200  0.29804200  1
  W  W3  1  0.24931100  0.50036400  0.49904500  1
  W  W4  1  0.74937000  0.50036400  0.49904500  1
loop_
_geom_bond_atom_site_label_1
_geom_bond_atom_site_label_2
_geom_bond_distance
_geom_bond_site_symmetry_2
V0 W2 2.726004 1_555
V0 W3 2.991718 1_555
V0 W4 2.991718 1_555
V1 W1 2.721246 1_555
V1 V2 2.843275 1_555
V1 V2 2.843276 1_455
V1 W4 2.989219 1_555
V1 W3 2.989221 1_555
V2 V4 2.703495 1_555
V2 W3 2.977817 1_655
V2 W4 2.977819 1_555
V2 W2 3.165008 1_645
V2 W1 3.181474 1_554
V2 W0 3.197814 1_654
V2 W0 3.197822 1_554
V3 W0 2.715268 1_555
V3 W4 2.980485 1_455
V3 W3 2.980487 1_555
V4 W2 2.846995 1_655
V4 W2 2.846999 1_555
V4 W3 2.959329 1_655
V4 W4 2.959331 1_555
Si0 Si1 2.458548 1_555
Si0 Si1 2.500781 1_455
Si0 V4 2.534911 1_555
Si0 W2 2.545566 1_555
Si0 V0 2.549298 1_554
Si0 V3 2.552942 1_554
Si0 V1 2.553500 1_565
Si0 W0 2.577650 1_564
Si0 W1 2.579716 1_464
Si0 V2 2.586927 1_465
Si1 V4 2.534909 1_555
Si1 W2 2.545566 1_655
Si1 V0 2.549298 1_554
Si1 V3 2.552940 1_654
Si1 V1 2.553497 1_565
Si1 W0 2.577653 1_564
Si1 W1 2.579715 1_564
Si1 V2 2.586929 1_565
Si2 W0 2.478713 1_554
Si2 V1 2.499671 1_555
Si2 V3 2.515866 1_554
Si2 W2 2.537053 1_555
Si2 W3 2.589331 1_555
Si2 W4 2.589332 1_555
Si2 V2 2.818039 1_455
Si2 V2 2.818043 1_555
Si2 V4 2.831688 1_455
Si2 V4 2.831692 1_555
Si3 V4 2.452859 1_556
Si3 V0 2.471268 1_555
Si3 V2 2.493762 1_556
Si3 W1 2.585687 1_555
Si3 W4 2.623102 1_555
Si3 W3 2.623102 1_555
Si3 V3 2.807275 1_655
Si3 V3 2.807279 1_555
Si3 W0 2.847644 1_655
Si3 W0 2.847649 1_555
Si4 V1 2.483220 1_565
Si4 W1 2.501589 1_565
Si4 V3 2.504612 1_655
Si4 V4 2.504988 1_555
Si4 W4 2.585969 1_555
Si4 W3 2.585971 1_655
Si4 W2 2.821121 1_555
Si4 W2 2.821125 1_655
Si4 V0 2.839969 1_555
Si4 V0 2.839973 1_655
Si5 W2 2.479857 1_545
Si5 V2 2.493203 1_455
Si5 V0 2.501136 1_545
Si5 W0 2.557933 1_555
Si5 W4 2.596818 1_455
Si5 W3 2.596820 1_555
Si5 V1 2.820054 1_455
Si5 V1 2.820063 1_555
Si5 W1 2.838550 1_455
Si5 W1 2.838554 1_555
W3 W4 2.479372 1_455
W3 W4 2.479957 1_555
