# generated using pymatgen
data_SmIn5Rh
_symmetry_space_group_name_H-M   'P 1'
_cell_length_a   4.65321311
_cell_length_b   4.65321311
_cell_length_c   7.51378865
_cell_angle_alpha   90.00000000
_cell_angle_beta   90.00000000
_cell_angle_gamma   90.00000000
_symmetry_Int_Tables_number   1
_chemical_formula_structural   SmIn5Rh
_chemical_formula_sum   'Sm1 In5 Rh1'
_cell_volume   162.69149911
_cell_formula_units_Z   1
loop_
 _symmetry_equiv_pos_site_id
 _symmetry_equiv_pos_as_xyz
  1  'x, y, z'
loop_
 _atom_site_type_symbol
 _atom_site_label
 _atom_site_symmetry_multiplicity
 _atom_site_fract_x
 _atom_site_fract_y
 _atom_site_fract_z
 _atom_site_occupancy
  Sm  Sm0  1  -0.00000000  -0.00000000  0.00000000  1
  In  In0  1  -0.00000000  0.50000000  0.30374538  1
  In  In1  1  0.00000000  0.50000000  0.69625462  1
  In  In2  1  0.50000000  -0.00000000  0.30374538  1
  In  In3  1  0.50000000  0.00000000  0.69625462  1
  In  In4  1  0.50000000  0.50000000  -0.00000000  1
  Rh  Rh0  1  -0.00000000  -0.00000000  0.50000000  1
loop_
_geom_bond_atom_site_label_1
_geom_bond_atom_site_label_2
_geom_bond_distance
_geom_bond_site_symmetry_2
In0 Rh0 2.754558 1_565
In0 Rh0 2.754558 1_555
In0 In4 3.259125 1_555
In0 Sm0 3.259125 1_555
In0 Sm0 3.259125 1_565
In0 In4 3.259125 1_455
In1 Rh0 2.754558 1_565
In1 Rh0 2.754558 1_555
In1 Sm0 3.259125 1_566
In1 In4 3.259125 1_556
In1 Sm0 3.259125 1_556
In1 In4 3.259125 1_456
In2 Rh0 2.754558 1_655
In2 Rh0 2.754558 1_555
In2 In4 3.259125 1_555
In2 Sm0 3.259125 1_555
In2 Sm0 3.259125 1_655
In2 In4 3.259125 1_545
In3 Rh0 2.754558 1_655
In3 Rh0 2.754558 1_555
In3 In4 3.259125 1_556
In3 Sm0 3.259125 1_556
In3 Sm0 3.259125 1_656
In3 In4 3.259125 1_546
In4 Sm0 3.290319 1_565
In4 Sm0 3.290319 1_665
In4 Sm0 3.290319 1_655
In4 Sm0 3.290319 1_555
