# generated using pymatgen
data_Ba2MgCuBi2F14
_symmetry_space_group_name_H-M   'P 1'
_cell_length_a   7.77468532
_cell_length_b   7.77468532
_cell_length_c   16.14578046
_cell_angle_alpha   89.97711346
_cell_angle_beta   89.97711346
_cell_angle_gamma   40.30748224
_symmetry_Int_Tables_number   1
_chemical_formula_structural   Ba2MgCuBi2F14
_chemical_formula_sum   'Ba4 Mg2 Cu2 Bi4 F28'
_cell_volume   631.32742935
_cell_formula_units_Z   2
loop_
 _symmetry_equiv_pos_site_id
 _symmetry_equiv_pos_as_xyz
  1  'x, y, z'
loop_
 _atom_site_type_symbol
 _atom_site_label
 _atom_site_symmetry_multiplicity
 _atom_site_fract_x
 _atom_site_fract_y
 _atom_site_fract_z
 _atom_site_occupancy
  Ba  Ba0  1  0.28270500  0.07886400  0.12754900  1
  Ba  Ba1  1  0.07886400  0.28270500  0.62754900  1
  Ba  Ba2  1  0.71729500  0.92113600  0.87245100  1
  Ba  Ba3  1  0.92113600  0.71729500  0.37245100  1
  Mg  Mg0  1  0.56246500  0.43753500  0.25000000  1
  Mg  Mg1  1  0.43753500  0.56246500  0.75000000  1
  Cu  Cu0  1  0.50000000  0.50000000  0.50000000  1
  Cu  Cu1  1  0.50000000  0.50000000  0.00000000  1
  Bi  Bi0  1  0.16168400  0.05468200  0.37762700  1
  Bi  Bi1  1  0.83831600  0.94531800  0.62237300  1
  Bi  Bi2  1  0.05468200  0.16168400  0.87762700  1
  Bi  Bi3  1  0.94531800  0.83831600  0.12237300  1
  F  F0  1  0.14607800  0.81947400  0.82841400  1
  F  F1  1  0.42802500  0.86852600  0.95531900  1
  F  F2  1  0.57197500  0.13147400  0.04468100  1
  F  F3  1  0.89382300  0.59690000  0.10205700  1
  F  F4  1  0.39546700  0.65259000  0.10880200  1
  F  F5  1  0.34741000  0.60453300  0.39119800  1
  F  F6  1  0.86852600  0.42802500  0.45531900  1
  F  F7  1  0.18052600  0.85392200  0.67158600  1
  F  F8  1  0.00389800  0.35244500  0.28059100  1
  F  F9  1  0.10617700  0.40310000  0.89794300  1
  F  F10  1  0.43595600  0.76988800  0.26264400  1
  F  F11  1  0.40310000  0.10617700  0.39794300  1
  F  F12  1  0.76988800  0.43595600  0.76264400  1
  F  F13  1  0.56404400  0.23011200  0.73735600  1
  F  F14  1  0.65259000  0.39546700  0.60880200  1
  F  F15  1  0.99610200  0.64755500  0.71940900  1
  F  F16  1  0.72318000  0.12674200  0.48516800  1
  F  F17  1  0.85392200  0.18052600  0.17158600  1
  F  F18  1  0.27682000  0.87325800  0.51483200  1
  F  F19  1  0.12674200  0.72318000  0.98516800  1
  F  F20  1  0.13147400  0.57197500  0.54468100  1
  F  F21  1  0.23011200  0.56404400  0.23735600  1
  F  F22  1  0.35244500  0.00389800  0.78059100  1
  F  F23  1  0.87325800  0.27682000  0.01483200  1
  F  F24  1  0.60453300  0.34741000  0.89119800  1
  F  F25  1  0.81947400  0.14607800  0.32841400  1
  F  F26  1  0.64755500  0.99610200  0.21940900  1
  F  F27  1  0.59690000  0.89382300  0.60205700  1
loop_
_geom_bond_atom_site_label_1
_geom_bond_atom_site_label_2
_geom_bond_distance
_geom_bond_site_symmetry_2
Ba0 F3 2.638073 1_455
Ba0 F4 2.722686 1_545
Ba0 F10 2.753263 1_545
Ba0 F26 2.806936 1_545
Ba0 F17 2.867648 1_455
Ba0 F8 2.880378 1_555
Ba0 F23 2.888671 1_455
Ba0 F2 2.900955 1_555
Ba0 F1 2.977706 1_544
Ba0 F3 3.103390 1_545
Ba1 F27 2.638073 1_545
Ba1 F14 2.722686 1_455
Ba1 F12 2.753263 1_455
Ba1 F15 2.806936 1_455
Ba1 F7 2.867648 1_545
Ba1 F22 2.880378 1_555
Ba1 F18 2.888671 1_545
Ba1 F20 2.900955 1_555
Ba1 F6 2.977706 1_455
Ba1 F27 3.103390 1_455
Ba2 F9 2.638073 1_655
Ba2 F24 2.722686 1_565
Ba2 F13 2.753263 1_565
Ba2 F22 2.806936 1_565
Ba2 F0 2.867648 1_655
Ba2 F15 2.880378 1_555
Ba2 F19 2.888671 1_655
Ba2 F1 2.900955 1_555
Ba2 F2 2.977706 1_566
Ba2 F9 3.103390 1_565
Ba3 F11 2.638073 1_565
Ba3 F5 2.722686 1_655
Ba3 F21 2.753263 1_655
Ba3 F8 2.806936 1_655
Ba3 F25 2.867648 1_565
Ba3 F26 2.880378 1_555
Ba3 F16 2.888671 1_565
Ba3 F6 2.900955 1_555
Ba3 F20 2.977706 1_655
Ba3 F11 3.103390 1_655
Cu0 F14 1.919350 1_555
Cu0 F5 1.919350 1_555
Cu0 F18 1.951913 1_555
Cu0 F16 1.951913 1_555
Cu0 F6 2.568297 1_555
Cu0 F20 2.568297 1_555
Cu1 F4 1.919350 1_555
Cu1 F24 1.919350 1_554
Cu1 F23 1.951913 1_555
Cu1 F19 1.951913 1_554
Cu1 F1 2.568297 1_554
Cu1 F2 2.568297 1_555
Bi0 F11 2.222034 1_555
Bi0 F8 2.232954 1_555
Bi0 F6 2.259232 1_455
Bi0 F25 2.309283 1_455
Bi0 F10 2.386478 1_545
Bi0 F18 2.402436 1_545
Bi0 F5 2.583325 1_545
Bi1 F27 2.222034 1_555
Bi1 F15 2.232954 1_555
Bi1 F20 2.259232 1_655
Bi1 F7 2.309283 1_655
Bi1 F13 2.386478 1_565
Bi1 F16 2.402436 1_565
Bi1 F14 2.583325 1_565
Bi2 F9 2.222034 1_555
Bi2 F22 2.232954 1_555
Bi2 F1 2.259232 1_545
Bi2 F0 2.309283 1_545
Bi2 F12 2.386478 1_455
Bi2 F23 2.402436 1_456
Bi2 F24 2.583325 1_455
Bi3 F3 2.222034 1_555
Bi3 F26 2.232954 1_555
Bi3 F2 2.259232 1_565
Bi3 F17 2.309283 1_565
Bi3 F21 2.386478 1_655
Bi3 F19 2.402436 1_654
Bi3 F4 2.583325 1_655
F0 Mg1 1.955583 1_555
F4 Mg0 2.523285 1_555
F5 Mg0 2.523285 1_555
F7 Mg1 1.955583 1_555
F10 Mg0 1.951898 1_555
F12 Mg1 1.951898 1_555
F13 Mg1 1.951898 1_555
F14 Mg1 2.523285 1_555
F17 Mg0 1.955583 1_555
F21 Mg0 1.951898 1_555
F24 Mg1 2.523285 1_555
F25 Mg0 1.955583 1_555
