# generated using pymatgen
data_Zn3As2H7O12
_symmetry_space_group_name_H-M   'P 1'
_cell_length_a   5.13984500
_cell_length_b   11.00926500
_cell_length_c   19.52730400
_cell_angle_alpha   90.00000000
_cell_angle_beta   90.00000000
_cell_angle_gamma   90.00000000
_symmetry_Int_Tables_number   1
_chemical_formula_structural   Zn3As2H7O12
_chemical_formula_sum   'Zn12 As8 H28 O48'
_cell_volume   1104.97037729
_cell_formula_units_Z   4
loop_
 _symmetry_equiv_pos_site_id
 _symmetry_equiv_pos_as_xyz
  1  'x, y, z'
loop_
 _atom_site_type_symbol
 _atom_site_label
 _atom_site_symmetry_multiplicity
 _atom_site_fract_x
 _atom_site_fract_y
 _atom_site_fract_z
 _atom_site_occupancy
  Zn  Zn0  1  0.93057400  0.74144900  0.25000000  1
  Zn  Zn1  1  0.56942600  0.24144900  0.25000000  1
  Zn  Zn2  1  0.06942600  0.25855100  0.75000000  1
  Zn  Zn3  1  0.43057400  0.75855100  0.75000000  1
  Zn  Zn4  1  0.28973000  0.64507800  0.99798600  1
  Zn  Zn5  1  0.21027000  0.14507800  0.50201400  1
  Zn  Zn6  1  0.71027000  0.35492200  0.49798600  1
  Zn  Zn7  1  0.78973000  0.85492200  0.00201400  1
  Zn  Zn8  1  0.71027000  0.35492200  0.00201400  1
  Zn  Zn9  1  0.78973000  0.85492200  0.49798600  1
  Zn  Zn10  1  0.28973000  0.64507800  0.50201400  1
  Zn  Zn11  1  0.21027000  0.14507800  0.99798600  1
  As  As0  1  0.77709100  0.60017000  0.09641100  1
  As  As1  1  0.72290900  0.10017000  0.40358900  1
  As  As2  1  0.22290900  0.39983000  0.59641100  1
  As  As3  1  0.27709100  0.89983000  0.90358900  1
  As  As4  1  0.22290900  0.39983000  0.90358900  1
  As  As5  1  0.27709100  0.89983000  0.59641100  1
  As  As6  1  0.77709100  0.60017000  0.40358900  1
  As  As7  1  0.72290900  0.10017000  0.09641100  1
  H  H0  1  0.34819200  0.61571500  0.28913600  1
  H  H1  1  0.15180800  0.11571500  0.21086400  1
  H  H2  1  0.65180800  0.38428500  0.78913600  1
  H  H3  1  0.84819200  0.88428500  0.71086400  1
  H  H4  1  0.65180800  0.38428500  0.71086400  1
  H  H5  1  0.84819200  0.88428500  0.78913600  1
  H  H6  1  0.34819200  0.61571500  0.21086400  1
  H  H7  1  0.15180800  0.11571500  0.28913600  1
  H  H8  1  0.71355300  0.95982500  0.25000000  1
  H  H9  1  0.78644700  0.45982500  0.25000000  1
  H  H10  1  0.28644700  0.04017500  0.75000000  1
  H  H11  1  0.21355300  0.54017500  0.75000000  1
  H  H12  1  0.05407000  0.88920800  0.13923700  1
  H  H13  1  0.44593000  0.38920800  0.36076300  1
  H  H14  1  0.94593000  0.11079200  0.63923700  1
  H  H15  1  0.55407000  0.61079200  0.86076300  1
  H  H16  1  0.94593000  0.11079200  0.86076300  1
  H  H17  1  0.55407000  0.61079200  0.63923700  1
  H  H18  1  0.05407000  0.88920800  0.36076300  1
  H  H19  1  0.44593000  0.38920800  0.13923700  1
  H  H20  1  0.23782000  0.77490200  0.14120400  1
  H  H21  1  0.26218000  0.27490200  0.35879600  1
  H  H22  1  0.76218000  0.22509800  0.64120400  1
  H  H23  1  0.73782000  0.72509800  0.85879600  1
  H  H24  1  0.76218000  0.22509800  0.85879600  1
  H  H25  1  0.73782000  0.72509800  0.64120400  1
  H  H26  1  0.23782000  0.77490200  0.35879600  1
  H  H27  1  0.26218000  0.27490200  0.14120400  1
  O  O0  1  0.69630400  0.63879000  0.17825900  1
  O  O1  1  0.80369600  0.13879000  0.32174100  1
  O  O2  1  0.30369600  0.36121000  0.67825900  1
  O  O3  1  0.19630400  0.86121000  0.82174100  1
  O  O4  1  0.30369600  0.36121000  0.82174100  1
  O  O5  1  0.19630400  0.86121000  0.67825900  1
  O  O6  1  0.69630400  0.63879000  0.32174100  1
  O  O7  1  0.80369600  0.13879000  0.17825900  1
  O  O8  1  0.10592400  0.60646100  0.08240300  1
  O  O9  1  0.39407600  0.10646100  0.41759700  1
  O  O10  1  0.89407600  0.39353900  0.58240300  1
  O  O11  1  0.60592400  0.89353900  0.91759700  1
  O  O12  1  0.89407600  0.39353900  0.91759700  1
  O  O13  1  0.60592400  0.89353900  0.58240300  1
  O  O14  1  0.10592400  0.60646100  0.41759700  1
  O  O15  1  0.39407600  0.10646100  0.08240300  1
  O  O16  1  0.85911400  0.96026100  0.07967000  1
  O  O17  1  0.64088600  0.46026100  0.42033000  1
  O  O18  1  0.14088600  0.03973900  0.57967000  1
  O  O19  1  0.35911400  0.53973900  0.92033000  1
  O  O20  1  0.14088600  0.03973900  0.92033000  1
  O  O21  1  0.35911400  0.53973900  0.57967000  1
  O  O22  1  0.85911400  0.96026100  0.42033000  1
  O  O23  1  0.64088600  0.46026100  0.07967000  1
  O  O24  1  0.63454700  0.69861400  0.03583400  1
  O  O25  1  0.86545300  0.19861400  0.46416600  1
  O  O26  1  0.36545300  0.30138600  0.53583400  1
  O  O27  1  0.13454700  0.80138600  0.96416600  1
  O  O28  1  0.36545300  0.30138600  0.96416600  1
  O  O29  1  0.13454700  0.80138600  0.53583400  1
  O  O30  1  0.63454700  0.69861400  0.46416600  1
  O  O31  1  0.86545300  0.19861400  0.03583400  1
  O  O32  1  0.22586400  0.61121800  0.25000000  1
  O  O33  1  0.27413600  0.11121800  0.25000000  1
  O  O34  1  0.77413600  0.38878200  0.75000000  1
  O  O35  1  0.72586400  0.88878200  0.75000000  1
  O  O36  1  0.65677600  0.87365500  0.25000000  1
  O  O37  1  0.84322400  0.37365500  0.25000000  1
  O  O38  1  0.34322400  0.12634500  0.75000000  1
  O  O39  1  0.15677600  0.62634500  0.75000000  1
  O  O40  1  0.15159400  0.83426800  0.17093300  1
  O  O41  1  0.34840600  0.33426800  0.32906700  1
  O  O42  1  0.84840600  0.16573200  0.67093300  1
  O  O43  1  0.65159400  0.66573200  0.82906700  1
  O  O44  1  0.84840600  0.16573200  0.82906700  1
  O  O45  1  0.65159400  0.66573200  0.67093300  1
  O  O46  1  0.15159400  0.83426800  0.32906700  1
  O  O47  1  0.34840600  0.33426800  0.17093300  1
loop_
_geom_bond_atom_site_label_1
_geom_bond_atom_site_label_2
_geom_bond_distance
_geom_bond_site_symmetry_2
As0 O0 1.705187 1_555
As0 O8 1.713543 1_655
As0 O23 1.723218 1_555
As0 O24 1.763707 1_555
As1 O1 1.705187 1_555
As1 O9 1.713543 1_555
As1 O22 1.723218 1_545
As1 O25 1.763707 1_555
As2 O2 1.705187 1_555
As2 O10 1.713543 1_455
As2 O21 1.723218 1_555
As2 O26 1.763707 1_555
As3 O3 1.705187 1_555
As3 O11 1.713543 1_555
As3 O20 1.723218 1_565
As3 O27 1.763707 1_555
As4 O4 1.705187 1_555
As4 O12 1.713543 1_455
As4 O19 1.723218 1_555
As4 O28 1.763707 1_555
As5 O5 1.705187 1_555
As5 O13 1.713543 1_555
As5 O18 1.723218 1_565
As5 O29 1.763707 1_555
As6 O6 1.705187 1_555
As6 O14 1.713543 1_655
As6 O17 1.723218 1_555
As6 O30 1.763707 1_555
As7 O7 1.705187 1_555
As7 O15 1.713543 1_555
As7 O16 1.723218 1_545
As7 O31 1.763707 1_555
H0 O32 0.990862 1_555
H1 O33 0.990862 1_555
H2 O34 0.990862 1_555
H3 O35 0.990862 1_555
H4 O34 0.990862 1_555
H5 O35 0.990862 1_555
H6 O32 0.990862 1_555
H7 O33 0.990862 1_555
H8 O36 0.992539 1_555
H9 O37 0.992539 1_555
H10 O38 0.992539 1_555
H11 O39 0.992539 1_555
H12 O40 1.000093 1_555
H12 O16 1.723075 1_455
H13 O41 1.000093 1_555
H13 O17 1.723075 1_555
H14 O42 1.000093 1_555
H14 O18 1.723075 1_655
H15 O43 1.000093 1_555
H15 O19 1.723075 1_555
H16 O44 1.000093 1_555
H16 O20 1.723075 1_655
H17 O45 1.000093 1_555
H17 O21 1.723075 1_555
H18 O46 1.000093 1_555
H18 O22 1.723075 1_455
H19 O47 1.000093 1_555
H19 O23 1.723075 1_555
H20 O40 0.980097 1_555
H21 O41 0.980097 1_555
H22 O42 0.980097 1_555
H23 O43 0.980097 1_555
H24 O44 0.980097 1_555
H25 O45 0.980097 1_555
H26 O46 0.980097 1_555
H27 O47 0.980097 1_555
O0 Zn0 2.165590 1_555
O1 Zn1 2.165590 1_555
O2 Zn2 2.165590 1_555
O3 Zn3 2.165590 1_555
O4 Zn2 2.165590 1_555
O5 Zn3 2.165590 1_555
O6 Zn0 2.165590 1_555
O7 Zn1 2.165590 1_555
O8 Zn4 1.946950 1_554
O9 Zn5 1.946950 1_555
O10 Zn6 1.946950 1_555
O11 Zn7 1.946950 1_556
O12 Zn8 1.946950 1_556
O13 Zn9 1.946950 1_555
O14 Zn10 1.946950 1_555
O15 Zn11 1.946950 1_554
O16 Zn7 1.942061 1_555
O17 Zn6 1.942061 1_555
O18 Zn5 1.942061 1_555
O19 Zn4 1.942061 1_555
O20 Zn11 1.942061 1_555
O21 Zn10 1.942061 1_555
O22 Zn9 1.942061 1_555
O23 Zn8 1.942061 1_555
O24 Zn7 2.008386 1_555
O24 Zn4 2.008650 1_554
O25 Zn6 2.008386 1_555
O25 Zn5 2.008650 1_655
O26 Zn5 2.008386 1_555
O26 Zn6 2.008650 1_555
O27 Zn4 2.008386 1_555
O27 Zn7 2.008650 1_456
O28 Zn11 2.008386 1_555
O28 Zn8 2.008650 1_556
O29 Zn10 2.008386 1_555
O29 Zn9 2.008650 1_455
O30 Zn9 2.008386 1_555
O30 Zn10 2.008650 1_555
O31 Zn8 2.008386 1_555
O31 Zn11 2.008650 1_654
O32 Zn0 2.087865 1_455
O33 Zn1 2.087865 1_555
O34 Zn2 2.087865 1_655
O35 Zn3 2.087865 1_555
O36 Zn0 2.024571 1_555
O37 Zn1 2.024571 1_555
O38 Zn2 2.024571 1_555
O39 Zn3 2.024571 1_555
O40 Zn0 2.172225 1_455
O41 Zn1 2.172225 1_555
O42 Zn2 2.172225 1_655
O43 Zn3 2.172225 1_555
O44 Zn2 2.172225 1_655
O45 Zn3 2.172225 1_555
O46 Zn0 2.172225 1_455
O47 Zn1 2.172225 1_555
