# generated using pymatgen
data_SrCo2(AsO4)2
_symmetry_space_group_name_H-M   'P 1'
_cell_length_a   5.72025565
_cell_length_b   7.22701916
_cell_length_c   9.59328591
_cell_angle_alpha   111.54679080
_cell_angle_beta   101.29766500
_cell_angle_gamma   98.86879864
_symmetry_Int_Tables_number   1
_chemical_formula_structural   SrCo2(AsO4)2
_chemical_formula_sum   'Sr2 Co4 As4 O16'
_cell_volume   350.43547138
_cell_formula_units_Z   2
loop_
 _symmetry_equiv_pos_site_id
 _symmetry_equiv_pos_as_xyz
  1  'x, y, z'
loop_
 _atom_site_type_symbol
 _atom_site_label
 _atom_site_symmetry_multiplicity
 _atom_site_fract_x
 _atom_site_fract_y
 _atom_site_fract_z
 _atom_site_occupancy
  Sr  Sr0  1  0.25495800  0.20386000  0.45152500  1
  Sr  Sr1  1  0.74530200  0.79643900  0.54872300  1
  Co  Co0  1  0.13112100  0.85741300  0.06097200  1
  Co  Co1  1  0.52216200  0.62185100  0.84870700  1
  Co  Co2  1  0.86858800  0.14280800  0.93945400  1
  Co  Co3  1  0.47812200  0.37862200  0.15169600  1
  As  As0  1  0.34499500  0.01779700  0.79867400  1
  As  As1  1  0.65459700  0.98214600  0.20144900  1
  As  As2  1  0.90003600  0.42293200  0.74109700  1
  As  As3  1  0.10020500  0.57686200  0.25861000  1
  O  O0  1  0.87186700  0.59819500  0.91679700  1
  O  O1  1  0.12825600  0.40210000  0.08266700  1
  O  O2  1  0.52455500  0.25889400  0.93413200  1
  O  O3  1  0.47615900  0.74046400  0.06630700  1
  O  O4  1  0.10458400  0.93846100  0.86604900  1
  O  O5  1  0.89492900  0.06213400  0.13425300  1
  O  O6  1  0.56695600  0.87410500  0.80052900  1
  O  O7  1  0.43210400  0.12533300  0.19893200  1
  O  O8  1  0.84237000  0.18069100  0.73666300  1
  O  O9  1  0.15690400  0.81932500  0.26323700  1
  O  O10  1  0.18187000  0.47454000  0.70484700  1
  O  O11  1  0.81887900  0.52501300  0.29534300  1
  O  O12  1  0.23301700  0.98434400  0.61182400  1
  O  O13  1  0.76627300  0.01592300  0.38840100  1
  O  O14  1  0.66842800  0.45700700  0.61517300  1
  O  O15  1  0.33276200  0.54274300  0.38394200  1
loop_
_geom_bond_atom_site_label_1
_geom_bond_atom_site_label_2
_geom_bond_distance
_geom_bond_site_symmetry_2
Co0 O0 2.014520 1_454
Co0 O9 2.038462 1_555
Co0 O4 2.140927 1_554
Co0 O7 2.159158 1_565
Co0 O5 2.175580 1_465
Co0 O3 2.262531 1_555
Co1 O10 2.014042 1_555
Co1 O6 2.030769 1_555
Co1 O3 2.032763 1_556
Co1 O0 2.032984 1_555
Co1 O14 2.493962 1_555
Co2 O1 2.014079 1_656
Co2 O8 2.042479 1_555
Co2 O5 2.138215 1_556
Co2 O6 2.165452 1_545
Co2 O4 2.173152 1_645
Co2 O2 2.253994 1_555
Co3 O11 2.014585 1_555
Co3 O7 2.032954 1_555
Co3 O2 2.033965 1_554
Co3 O1 2.034841 1_555
Co3 O15 2.480143 1_555
As0 O12 1.692892 1_545
As0 O4 1.736395 1_545
As0 O2 1.744053 1_555
As0 O6 1.761271 1_545
As1 O13 1.692837 1_565
As1 O5 1.736544 1_565
As1 O3 1.744107 1_555
As1 O7 1.761716 1_565
As2 O8 1.713838 1_555
As2 O14 1.722570 1_555
As2 O10 1.728769 1_655
As2 O0 1.752865 1_555
As3 O9 1.714541 1_555
As3 O15 1.722880 1_555
As3 O11 1.728451 1_455
As3 O1 1.752884 1_555
O4 Sr1 3.024501 1_455
O5 Sr0 3.026243 1_655
O6 Sr1 2.708763 1_555
O7 Sr0 2.711100 1_555
O8 Sr1 2.593333 1_545
O9 Sr0 2.595315 1_565
O10 Sr0 2.658149 1_555
O11 Sr1 2.662075 1_555
O12 Sr0 2.589124 1_565
O12 Sr1 2.749575 1_455
O13 Sr1 2.588731 1_545
O13 Sr0 2.754568 1_655
O14 Sr0 2.550870 1_555
O14 Sr1 2.746488 1_555
O15 Sr1 2.550432 1_555
O15 Sr0 2.749522 1_555
