# generated using pymatgen
data_TmCO4
_symmetry_space_group_name_H-M   'P 1'
_cell_length_a   9.46397900
_cell_length_b   9.46397900
_cell_length_c   7.83295300
_cell_angle_alpha   90.00000000
_cell_angle_beta   90.00000000
_cell_angle_gamma   90.00000000
_symmetry_Int_Tables_number   1
_chemical_formula_structural   TmCO4
_chemical_formula_sum   'Tm8 C8 O32'
_cell_volume   701.57330640
_cell_formula_units_Z   8
loop_
 _symmetry_equiv_pos_site_id
 _symmetry_equiv_pos_as_xyz
  1  'x, y, z'
loop_
 _atom_site_type_symbol
 _atom_site_label
 _atom_site_symmetry_multiplicity
 _atom_site_fract_x
 _atom_site_fract_y
 _atom_site_fract_z
 _atom_site_occupancy
  Tm  Tm0  1  0.72960400  0.27039600  0.00000000  1
  Tm  Tm1  1  0.72960400  0.72960400  0.00000000  1
  Tm  Tm2  1  0.27039600  0.27039600  0.00000000  1
  Tm  Tm3  1  0.27039600  0.72960400  0.00000000  1
  Tm  Tm4  1  0.77039600  0.22960400  0.50000000  1
  Tm  Tm5  1  0.77039600  0.77039600  0.50000000  1
  Tm  Tm6  1  0.22960400  0.22960400  0.50000000  1
  Tm  Tm7  1  0.22960400  0.77039600  0.50000000  1
  C  C0  1  0.74910400  0.00000000  0.15780800  1
  C  C1  1  0.25089600  0.00000000  0.15780800  1
  C  C2  1  0.50000000  0.24910400  0.65780800  1
  C  C3  1  0.50000000  0.75089600  0.65780800  1
  C  C4  1  0.75089600  0.50000000  0.34219200  1
  C  C5  1  0.24910400  0.50000000  0.34219200  1
  C  C6  1  0.00000000  0.25089600  0.84219200  1
  C  C7  1  0.00000000  0.74910400  0.84219200  1
  O  O0  1  0.50000000  0.25758100  0.04230600  1
  O  O1  1  0.50000000  0.74241900  0.04230600  1
  O  O2  1  0.75758100  0.00000000  0.54230600  1
  O  O3  1  0.24241900  0.00000000  0.54230600  1
  O  O4  1  0.00000000  0.24241900  0.45769400  1
  O  O5  1  0.00000000  0.75758100  0.45769400  1
  O  O6  1  0.74241900  0.50000000  0.95769400  1
  O  O7  1  0.25758100  0.50000000  0.95769400  1
  O  O8  1  0.73786800  0.00000000  0.99382800  1
  O  O9  1  0.26213200  0.00000000  0.99382800  1
  O  O10  1  0.50000000  0.23786800  0.49382800  1
  O  O11  1  0.50000000  0.76213200  0.49382800  1
  O  O12  1  0.76213200  0.50000000  0.50617200  1
  O  O13  1  0.23786800  0.50000000  0.50617200  1
  O  O14  1  0.00000000  0.26213200  0.00617200  1
  O  O15  1  0.00000000  0.73786800  0.00617200  1
  O  O16  1  0.74494600  0.38028800  0.26335400  1
  O  O17  1  0.74494600  0.61971200  0.26335400  1
  O  O18  1  0.25505400  0.38028800  0.26335400  1
  O  O19  1  0.25505400  0.61971200  0.26335400  1
  O  O20  1  0.88028800  0.24494600  0.76335400  1
  O  O21  1  0.88028800  0.75505400  0.76335400  1
  O  O22  1  0.11971200  0.24494600  0.76335400  1
  O  O23  1  0.11971200  0.75505400  0.76335400  1
  O  O24  1  0.75505400  0.11971200  0.23664600  1
  O  O25  1  0.75505400  0.88028800  0.23664600  1
  O  O26  1  0.24494600  0.11971200  0.23664600  1
  O  O27  1  0.24494600  0.88028800  0.23664600  1
  O  O28  1  0.61971200  0.25505400  0.73664600  1
  O  O29  1  0.61971200  0.74494600  0.73664600  1
  O  O30  1  0.38028800  0.25505400  0.73664600  1
  O  O31  1  0.38028800  0.74494600  0.73664600  1
loop_
_geom_bond_atom_site_label_1
_geom_bond_atom_site_label_2
_geom_bond_distance
_geom_bond_site_symmetry_2
C0 O8 1.288842 1_554
C0 O24 1.291549 1_555
C0 O25 1.291549 1_545
C1 O9 1.288842 1_554
C1 O26 1.291549 1_555
C1 O27 1.291549 1_545
C2 O10 1.288842 1_555
C2 O30 1.291549 1_555
C2 O28 1.291549 1_555
C3 O11 1.288842 1_555
C3 O31 1.291549 1_555
C3 O29 1.291549 1_555
C4 O12 1.288842 1_555
C4 O16 1.291549 1_555
C4 O17 1.291549 1_555
C5 O13 1.288842 1_555
C5 O18 1.291549 1_555
C5 O19 1.291549 1_555
C6 O14 1.288842 1_556
C6 O22 1.291549 1_555
C6 O20 1.291549 1_455
C7 O15 1.288842 1_556
C7 O23 1.291549 1_555
C7 O21 1.291549 1_455
O0 Tm2 2.201434 1_555
O0 Tm0 2.201434 1_555
O1 Tm3 2.201434 1_555
O1 Tm1 2.201434 1_555
O2 Tm4 2.201434 1_555
O2 Tm5 2.201434 1_545
O3 Tm6 2.201434 1_555
O3 Tm7 2.201434 1_545
O4 Tm6 2.201434 1_555
O4 Tm4 2.201434 1_455
O5 Tm7 2.201434 1_555
O5 Tm5 2.201434 1_455
O6 Tm0 2.201434 1_556
O6 Tm1 2.201434 1_556
O7 Tm2 2.201434 1_556
O7 Tm3 2.201434 1_556
O8 Tm1 2.560673 1_546
O8 Tm0 2.560673 1_556
O9 Tm3 2.560673 1_546
O9 Tm2 2.560673 1_556
O10 Tm6 2.560673 1_555
O10 Tm4 2.560673 1_555
O11 Tm7 2.560673 1_555
O11 Tm5 2.560673 1_555
O12 Tm5 2.560673 1_555
O12 Tm4 2.560673 1_555
O13 Tm6 2.560673 1_555
O13 Tm7 2.560673 1_555
O14 Tm0 2.560673 1_455
O14 Tm2 2.560673 1_555
O15 Tm1 2.560673 1_455
O15 Tm3 2.560673 1_555
O16 Tm0 2.314740 1_555
O16 Tm4 2.351097 1_555
O17 Tm1 2.314740 1_555
O17 Tm5 2.351097 1_555
O18 Tm2 2.314740 1_555
O18 Tm6 2.351097 1_555
O19 Tm3 2.314740 1_555
O19 Tm7 2.351097 1_555
O20 Tm4 2.314740 1_555
O20 Tm0 2.351097 1_556
O21 Tm5 2.314740 1_555
O21 Tm1 2.351097 1_556
O22 Tm6 2.314740 1_555
O22 Tm2 2.351097 1_556
O23 Tm7 2.314740 1_555
O23 Tm3 2.351097 1_556
O24 Tm4 2.314740 1_555
O24 Tm0 2.351097 1_555
O25 Tm5 2.314740 1_555
O25 Tm1 2.351097 1_555
O26 Tm6 2.314740 1_555
O26 Tm2 2.351097 1_555
O27 Tm7 2.314740 1_555
O27 Tm3 2.351097 1_555
O28 Tm0 2.314740 1_556
O28 Tm4 2.351097 1_555
O29 Tm1 2.314740 1_556
O29 Tm5 2.351097 1_555
O30 Tm2 2.314740 1_556
O30 Tm6 2.351097 1_555
O31 Tm3 2.314740 1_556
O31 Tm7 2.351097 1_555
