# generated using pymatgen
data_LuZnFeO4
_symmetry_space_group_name_H-M   'P 1'
_cell_length_a   8.83175115
_cell_length_b   8.83175115
_cell_length_c   8.83175154
_cell_angle_alpha   22.38641522
_cell_angle_beta   22.38641522
_cell_angle_gamma   22.38642339
_symmetry_Int_Tables_number   1
_chemical_formula_structural   LuZnFeO4
_chemical_formula_sum   'Lu1 Zn1 Fe1 O4'
_cell_volume   87.63336185
_cell_formula_units_Z   1
loop_
 _symmetry_equiv_pos_site_id
 _symmetry_equiv_pos_as_xyz
  1  'x, y, z'
loop_
 _atom_site_type_symbol
 _atom_site_label
 _atom_site_symmetry_multiplicity
 _atom_site_fract_x
 _atom_site_fract_y
 _atom_site_fract_z
 _atom_site_occupancy
  Lu  Lu0  1  0.00303500  0.00303500  0.00303500  1
  Zn  Zn0  1  0.21924300  0.21924300  0.21924300  1
  Fe  Fe0  1  0.78665000  0.78665000  0.78665000  1
  O  O0  1  0.12000900  0.12000900  0.12000900  1
  O  O1  1  0.86503000  0.86503000  0.86503000  1
  O  O2  1  0.29621200  0.29621200  0.29621200  1
  O  O3  1  0.70982000  0.70982000  0.70982000  1
loop_
_geom_bond_atom_site_label_1
_geom_bond_atom_site_label_2
_geom_bond_distance
_geom_bond_site_symmetry_2
Lu0 O3 2.234276 1_445
Lu0 O3 2.234276 1_544
Lu0 O3 2.234276 1_454
Lu0 O2 2.234731 1_554
Lu0 O2 2.234731 1_545
Lu0 O2 2.234731 1_455
Fe0 O0 1.979621 1_665
Fe0 O0 1.979622 1_566
Fe0 O0 1.979622 1_656
Fe0 O3 1.983834 1_555
Fe0 O1 2.023857 1_555
O1 Zn0 2.051723 1_665
O1 Zn0 2.051724 1_656
O1 Zn0 2.051724 1_566
O2 Zn0 1.987423 1_555
