# generated using pymatgen
data_Li9Mn2Co5O16
_symmetry_space_group_name_H-M   'P 1'
_cell_length_a   5.13399300
_cell_length_b   5.90752915
_cell_length_c   10.06291326
_cell_angle_alpha   90.13689294
_cell_angle_beta   99.92508178
_cell_angle_gamma   106.38595366
_symmetry_Int_Tables_number   1
_chemical_formula_structural   Li9Mn2Co5O16
_chemical_formula_sum   'Li9 Mn2 Co5 O16'
_cell_volume   288.00133477
_cell_formula_units_Z   1
loop_
 _symmetry_equiv_pos_site_id
 _symmetry_equiv_pos_as_xyz
  1  'x, y, z'
loop_
 _atom_site_type_symbol
 _atom_site_label
 _atom_site_symmetry_multiplicity
 _atom_site_fract_x
 _atom_site_fract_y
 _atom_site_fract_z
 _atom_site_occupancy
  Li  Li0  1  0.50116700  0.12519500  0.87222800  1
  Li  Li1  1  0.50437600  0.62915200  0.87244100  1
  Li  Li2  1  0.49219400  0.38118800  0.62163000  1
  Li  Li3  1  0.49718000  0.86956400  0.62308000  1
  Li  Li4  1  0.50780600  0.61881200  0.37837000  1
  Li  Li5  1  0.50282000  0.13043600  0.37692000  1
  Li  Li6  1  0.49883300  0.87480500  0.12777200  1
  Li  Li7  1  0.49562400  0.37084800  0.12755900  1
  Li  Li8  1  0.00000000  0.50000000  0.50000000  1
  Mn  Mn0  1  0.00000000  0.00000000  0.00000000  1
  Mn  Mn1  1  0.00000000  0.00000000  0.50000000  1
  Co  Co0  1  0.00000000  0.50000000  0.00000000  1
  Co  Co1  1  0.99604900  0.25669000  0.74359800  1
  Co  Co2  1  0.00557700  0.74615000  0.74459400  1
  Co  Co3  1  0.00395100  0.74331000  0.25640200  1
  Co  Co4  1  0.99442300  0.25385000  0.25540600  1
  O  O0  1  0.22454100  0.82001000  0.94028000  1
  O  O1  1  0.22146100  0.29068200  0.93507000  1
  O  O2  1  0.23167300  0.05936200  0.67739200  1
  O  O3  1  0.23448900  0.56667300  0.69758400  1
  O  O4  1  0.22662600  0.28703200  0.43633400  1
  O  O5  1  0.22010700  0.82131100  0.43035500  1
  O  O6  1  0.23088100  0.55539000  0.18002900  1
  O  O7  1  0.21978800  0.05840700  0.17824100  1
  O  O8  1  0.76911900  0.44461000  0.81997100  1
  O  O9  1  0.78021200  0.94159300  0.82175900  1
  O  O10  1  0.77337400  0.71296800  0.56366600  1
  O  O11  1  0.77989300  0.17868900  0.56964500  1
  O  O12  1  0.76832700  0.94063800  0.32260800  1
  O  O13  1  0.76551100  0.43332700  0.30241600  1
  O  O14  1  0.77545900  0.17999000  0.05972000  1
  O  O15  1  0.77853900  0.70931800  0.06493000  1
loop_
_geom_bond_atom_site_label_1
_geom_bond_atom_site_label_2
_geom_bond_distance
_geom_bond_site_symmetry_2
Li0 O14 2.114603 1_556
Li0 O8 2.125816 1_555
Li0 O1 2.126011 1_555
Li0 O9 2.147471 1_545
Li0 O0 2.152402 1_545
Li0 O2 2.160374 1_555
Li1 O3 2.005019 1_555
Li1 O8 2.096511 1_555
Li1 O9 2.109757 1_555
Li1 O15 2.153395 1_556
Li1 O0 2.247142 1_555
Li1 O1 2.277704 1_555
Li2 O4 2.082283 1_555
Li2 O2 2.132475 1_555
Li2 O3 2.167465 1_555
Li2 O8 2.205213 1_555
Li2 O10 2.228244 1_555
Li2 O11 2.268628 1_555
Li3 O10 2.062435 1_555
Li3 O11 2.123429 1_565
Li3 O2 2.128417 1_565
Li3 O3 2.139181 1_555
Li3 O5 2.164138 1_555
Li3 O9 2.221552 1_555
Li4 O10 2.082283 1_555
Li4 O12 2.132475 1_555
Li4 O13 2.167465 1_555
Li4 O6 2.205213 1_555
Li4 O4 2.228244 1_555
Li4 O5 2.268628 1_555
Li5 O4 2.062435 1_555
Li5 O5 2.123429 1_545
Li5 O12 2.128417 1_545
Li5 O13 2.139181 1_555
Li5 O11 2.164138 1_555
Li5 O7 2.221552 1_555
Li6 O0 2.114603 1_554
Li6 O6 2.125816 1_555
Li6 O15 2.126011 1_555
Li6 O7 2.147471 1_565
Li6 O14 2.152402 1_565
Li6 O12 2.160374 1_555
Li7 O13 2.005019 1_555
Li7 O6 2.096511 1_555
Li7 O7 2.109757 1_555
Li7 O1 2.153395 1_554
Li7 O14 2.247142 1_555
Li7 O15 2.277704 1_555
Li8 O4 2.103815 1_555
Li8 O10 2.103815 1_455
Li8 O5 2.107193 1_555
Li8 O11 2.107193 1_455
Li8 O3 2.112166 1_555
Li8 O13 2.112166 1_455
Mn0 O9 1.920701 1_444
Mn0 O7 1.920701 1_555
Mn0 O14 1.935982 1_455
Mn0 O0 1.935982 1_544
Mn0 O15 1.956608 1_445
Mn0 O1 1.956608 1_554
Mn1 O2 1.937510 1_555
Mn1 O12 1.937510 1_445
Mn1 O10 1.946389 1_445
Mn1 O4 1.946389 1_555
Mn1 O11 1.955746 1_455
Mn1 O5 1.955746 1_545
Co0 O8 1.957585 1_454
Co0 O6 1.957585 1_555
Co0 O0 2.068477 1_554
Co0 O14 2.068477 1_455
Co0 O1 2.072237 1_554
Co0 O15 2.072237 1_455
Co1 O11 1.883083 1_555
Co1 O3 2.000252 1_655
Co1 O1 2.047046 1_655
Co1 O8 2.052984 1_555
Co1 O2 2.082272 1_655
Co1 O9 2.110723 1_545
Co2 O3 1.903001 1_555
Co2 O10 1.972980 1_455
Co2 O0 2.070701 1_555
Co2 O2 2.071984 1_565
Co2 O8 2.079919 1_455
Co2 O9 2.081795 1_455
Co3 O5 1.883083 1_555
Co3 O13 2.000252 1_455
Co3 O15 2.047046 1_455
Co3 O6 2.052984 1_555
Co3 O12 2.082272 1_455
Co3 O7 2.110723 1_565
Co4 O13 1.903001 1_555
Co4 O4 1.972980 1_655
Co4 O14 2.070701 1_555
Co4 O12 2.071984 1_545
Co4 O6 2.079919 1_655
Co4 O7 2.081795 1_655
