# generated using pymatgen
data_K2CaNd4Nb2O12
_symmetry_space_group_name_H-M   'P 1'
_cell_length_a   5.89836483
_cell_length_b   7.02656048
_cell_length_c   8.93539354
_cell_angle_alpha   104.16763181
_cell_angle_beta   86.30273962
_cell_angle_gamma   112.81869588
_symmetry_Int_Tables_number   1
_chemical_formula_structural   K2CaNd4Nb2O12
_chemical_formula_sum   'K2 Ca1 Nd4 Nb2 O12'
_cell_volume   330.77165456
_cell_formula_units_Z   1
loop_
 _symmetry_equiv_pos_site_id
 _symmetry_equiv_pos_as_xyz
  1  'x, y, z'
loop_
 _atom_site_type_symbol
 _atom_site_label
 _atom_site_symmetry_multiplicity
 _atom_site_fract_x
 _atom_site_fract_y
 _atom_site_fract_z
 _atom_site_occupancy
  K  K0  1  0.12610600  0.23550200  0.47036500  1
  K  K1  1  0.99680900  0.80973600  0.63496500  1
  Ca  Ca0  1  0.69055100  0.61345300  0.36619600  1
  Nd  Nd0  1  0.15474000  0.28916800  0.94074300  1
  Nd  Nd1  1  0.54730500  0.10935600  0.17955400  1
  Nd  Nd2  1  0.45609300  0.82184000  0.78602000  1
  Nd  Nd3  1  0.89078500  0.75045000  0.04067700  1
  Nb  Nb0  1  0.68965700  0.32436300  0.69876800  1
  Nb  Nb1  1  0.25041300  0.64710800  0.27944500  1
  O  O0  1  0.02114100  0.53192600  0.81380800  1
  O  O1  1  0.16077400  0.88697900  0.28787000  1
  O  O2  1  0.25798900  0.98897900  0.97639200  1
  O  O3  1  0.80955800  0.10455300  0.69920100  1
  O  O4  1  0.63498500  0.85130700  0.26231800  1
  O  O5  1  0.77527600  0.00790500  0.98078400  1
  O  O6  1  0.35906900  0.13555600  0.71896800  1
  O  O7  1  0.92501900  0.45872000  0.17059500  1
  O  O8  1  0.70437800  0.36327400  0.49618800  1
  O  O9  1  0.37529700  0.66940100  0.50301100  1
  O  O10  1  0.36987300  0.39531700  0.19512700  1
  O  O11  1  0.57501600  0.55140700  0.83471900  1
loop_
_geom_bond_atom_site_label_1
_geom_bond_atom_site_label_2
_geom_bond_distance
_geom_bond_site_symmetry_2
K0 O1 2.662453 1_545
K0 O3 2.758587 1_455
K0 O9 2.772168 1_555
K0 O8 2.933213 1_455
K0 O10 3.003388 1_555
K0 O6 3.036711 1_555
K0 O8 3.180903 1_555
K1 O6 2.437573 1_665
K1 O3 2.636560 1_565
K1 O9 2.853988 1_655
K1 O0 2.856344 1_655
K1 O8 2.920404 1_555
K1 O11 3.190734 1_555
Ca0 O4 2.232861 1_555
Ca0 O9 2.268320 1_555
Ca0 O10 2.289284 1_555
Ca0 O8 2.359863 1_555
Ca0 O7 2.464497 1_555
Nd0 O5 2.419781 1_455
Nd0 O10 2.478125 1_556
Nd0 O6 2.489659 1_555
Nd0 O2 2.504346 1_545
Nd0 O0 2.630954 1_555
Nd0 O7 2.677478 1_456
Nd0 O11 2.728862 1_555
Nd0 O3 2.762948 1_455
Nd1 O5 2.299226 1_554
Nd1 O2 2.334804 1_544
Nd1 O4 2.352682 1_545
Nd1 O1 2.503755 1_545
Nd1 O10 2.574380 1_555
Nd1 O7 2.612908 1_555
Nd1 O8 2.937889 1_555
Nd2 O2 2.338439 1_555
Nd2 O5 2.383684 1_565
Nd2 O11 2.402119 1_555
Nd2 O9 2.490540 1_555
Nd2 O3 2.495614 1_565
Nd2 O0 2.627753 1_555
Nd2 O6 2.686039 1_565
Nd3 O2 2.307675 1_654
Nd3 O5 2.345225 1_564
Nd3 O11 2.444066 1_554
Nd3 O0 2.499850 1_654
Nd3 O4 2.541224 1_555
Nd3 O1 2.562504 1_655
Nd3 O7 2.665794 1_555
Nb0 O8 1.887446 1_555
Nb0 O6 1.913160 1_555
Nb0 O3 1.932922 1_555
Nb0 O11 2.064008 1_555
Nb0 O0 2.078490 1_655
Nb1 O1 1.936485 1_555
Nb1 O7 2.005451 1_455
Nb1 O10 2.107185 1_555
Nb1 O9 2.122461 1_555
Nb1 O4 2.183073 1_555
