# generated using pymatgen
data_U3S5
_symmetry_space_group_name_H-M   'P 1'
_cell_length_a   7.98285207
_cell_length_b   7.98285207
_cell_length_c   7.98285207
_cell_angle_alpha   97.27271462
_cell_angle_beta   97.27271462
_cell_angle_gamma   138.31527718
_symmetry_Int_Tables_number   1
_chemical_formula_structural   U3S5
_chemical_formula_sum   'U6 S10'
_cell_volume   316.17303045
_cell_formula_units_Z   2
loop_
 _symmetry_equiv_pos_site_id
 _symmetry_equiv_pos_as_xyz
  1  'x, y, z'
loop_
 _atom_site_type_symbol
 _atom_site_label
 _atom_site_symmetry_multiplicity
 _atom_site_fract_x
 _atom_site_fract_y
 _atom_site_fract_z
 _atom_site_occupancy
  U  U0  1  0.65780500  0.15780500  0.81560900  1
  U  U1  1  0.34219500  0.84219500  0.18439100  1
  U  U2  1  0.84219500  0.65780500  0.50000000  1
  U  U3  1  0.15780500  0.34219500  0.50000000  1
  U  U4  1  0.75000000  0.75000000  0.00000000  1
  U  U5  1  0.25000000  0.25000000  0.00000000  1
  S  S0  1  0.21633100  0.08099200  0.29732400  1
  S  S1  1  0.78366900  0.91900800  0.70267600  1
  S  S2  1  0.28366900  0.58099200  0.86466100  1
  S  S3  1  0.71633100  0.41900800  0.13533900  1
  S  S4  1  0.08099200  0.78366900  0.86466100  1
  S  S5  1  0.91900800  0.21633100  0.13533900  1
  S  S6  1  0.58099200  0.71633100  0.29732400  1
  S  S7  1  0.41900800  0.28366900  0.70267600  1
  S  S8  1  0.25000000  0.75000000  0.50000000  1
  S  S9  1  0.75000000  0.25000000  0.50000000  1
loop_
_geom_bond_atom_site_label_1
_geom_bond_atom_site_label_2
_geom_bond_distance
_geom_bond_site_symmetry_2
S0 U4 2.820743 1_445
S0 U5 2.820746 1_555
S0 U3 2.824204 1_555
S0 U1 2.848022 1_545
S0 U2 3.238430 1_445
S0 U2 3.238435 1_555
S1 U5 2.820743 1_666
S1 U4 2.820746 1_556
S1 U2 2.824204 1_555
S1 U0 2.848022 1_565
S1 U3 3.238430 1_665
S1 U3 3.238435 1_555
S2 U5 2.820739 1_556
S2 U4 2.820739 1_556
S2 U1 2.824214 1_556
S2 U3 2.848022 1_555
S2 U0 3.238435 1_455
S2 U0 3.238440 1_565
S3 U5 2.820739 1_555
S3 U4 2.820739 1_555
S3 U0 2.824214 1_554
S3 U2 2.848022 1_555
S3 U1 3.238435 1_655
S3 U1 3.238440 1_545
S4 U4 2.820739 1_456
S4 U5 2.820739 1_566
S4 U1 2.824214 1_556
S4 U2 2.848022 1_455
S4 U0 3.238435 1_455
S4 U0 3.238440 1_565
S5 U4 2.820739 1_545
S5 U5 2.820739 1_655
S5 U0 2.824214 1_554
S5 U3 2.848022 1_655
S5 U1 3.238435 1_655
S5 U1 3.238440 1_545
S6 U5 2.820743 1_555
S6 U4 2.820746 1_555
S6 U2 2.824204 1_555
S6 U1 2.848022 1_555
S6 U3 3.238430 1_555
S6 U3 3.238435 1_665
S7 U4 2.820743 1_556
S7 U5 2.820746 1_556
S7 U3 2.824204 1_555
S7 U0 2.848022 1_555
S7 U2 3.238430 1_555
S7 U2 3.238435 1_445
S8 U1 2.749710 1_555
S8 U0 2.749713 1_565
S8 U2 2.749718 1_455
S8 U3 2.749718 1_555
S9 U0 2.749710 1_555
S9 U1 2.749713 1_545
S9 U2 2.749718 1_555
S9 U3 2.749718 1_655
