# generated using pymatgen
data_KPrGeSe4
_symmetry_space_group_name_H-M   'P 1'
_cell_length_a   7.15458700
_cell_length_b   6.97772500
_cell_length_c   9.19580268
_cell_angle_alpha   72.39426632
_cell_angle_beta   90.00000000
_cell_angle_gamma   90.00000000
_symmetry_Int_Tables_number   1
_chemical_formula_structural   KPrGeSe4
_chemical_formula_sum   'K2 Pr2 Ge2 Se8'
_cell_volume   437.57656534
_cell_formula_units_Z   2
loop_
 _symmetry_equiv_pos_site_id
 _symmetry_equiv_pos_as_xyz
  1  'x, y, z'
loop_
 _atom_site_type_symbol
 _atom_site_label
 _atom_site_symmetry_multiplicity
 _atom_site_fract_x
 _atom_site_fract_y
 _atom_site_fract_z
 _atom_site_occupancy
  K  K0  1  0.49567000  0.25585600  0.93697800  1
  K  K1  1  0.99567000  0.74414400  0.06302200  1
  Pr  Pr0  1  0.50110500  0.22886100  0.44771100  1
  Pr  Pr1  1  0.00110500  0.77113900  0.55228900  1
  Ge  Ge0  1  0.96819700  0.22210700  0.67710700  1
  Ge  Ge1  1  0.46819700  0.77789300  0.32289300  1
  Se  Se0  1  0.24229100  0.01695400  0.71128200  1
  Se  Se1  1  0.72948100  0.97011500  0.72827900  1
  Se  Se2  1  0.46386400  0.57751600  0.15795700  1
  Se  Se3  1  0.96386400  0.42248400  0.84204300  1
  Se  Se4  1  0.90269300  0.42689800  0.42347900  1
  Se  Se5  1  0.40269300  0.57310200  0.57652100  1
  Se  Se6  1  0.22948100  0.02988500  0.27172100  1
  Se  Se7  1  0.74229100  0.98304600  0.28871800  1
loop_
_geom_bond_atom_site_label_1
_geom_bond_atom_site_label_2
_geom_bond_distance
_geom_bond_site_symmetry_2
K0 Se5 3.448366 1_555
K0 Se2 3.460887 1_556
K0 Se0 3.530669 1_555
K0 Se6 3.557047 1_556
K0 Se3 3.566605 1_555
K0 Se1 3.573731 1_545
K0 Se7 3.670766 1_546
K1 Se4 3.448366 1_555
K1 Se3 3.460887 1_554
K1 Se7 3.530669 1_555
K1 Se1 3.557047 1_554
K1 Se2 3.566605 1_655
K1 Se6 3.573731 1_665
K1 Se0 3.670766 1_664
Pr0 Se2 3.027859 1_555
Pr0 Se0 3.053154 1_555
Pr0 Se5 3.064258 1_555
Pr0 Se7 3.094243 1_545
Pr0 Se6 3.111697 1_555
Pr0 Se1 3.125413 1_545
Pr0 Se4 3.166724 1_555
Pr1 Se3 3.027859 1_455
Pr1 Se7 3.053154 1_455
Pr1 Se4 3.064258 1_455
Pr1 Se0 3.094243 1_565
Pr1 Se1 3.111697 1_455
Pr1 Se6 3.125413 1_565
Pr1 Se5 3.166724 1_555
Ge0 Se3 2.353536 1_555
Ge0 Se4 2.384359 1_555
Ge0 Se0 2.391956 1_655
Ge0 Se1 2.393659 1_545
Ge1 Se2 2.353536 1_555
Ge1 Se5 2.384359 1_555
Ge1 Se7 2.391956 1_555
Ge1 Se6 2.393659 1_565
