# generated using pymatgen
data_CsU2F9
_symmetry_space_group_name_H-M   'P 1'
_cell_length_a   8.40516895
_cell_length_b   8.40516895
_cell_length_c   8.70133286
_cell_angle_alpha   64.45462517
_cell_angle_beta   64.45462517
_cell_angle_gamma   49.55409376
_symmetry_Int_Tables_number   1
_chemical_formula_structural   CsU2F9
_chemical_formula_sum   'Cs2 U4 F18'
_cell_volume   411.68390836
_cell_formula_units_Z   2
loop_
 _symmetry_equiv_pos_site_id
 _symmetry_equiv_pos_as_xyz
  1  'x, y, z'
loop_
 _atom_site_type_symbol
 _atom_site_label
 _atom_site_symmetry_multiplicity
 _atom_site_fract_x
 _atom_site_fract_y
 _atom_site_fract_z
 _atom_site_occupancy
  Cs  Cs0  1  0.88270322  0.11068695  0.75303814  1
  Cs  Cs1  1  0.11068695  0.88270322  0.25303814  1
  U  U0  1  0.37746812  0.18735265  0.30251506  1
  U  U1  1  0.80139405  0.61402286  0.21043144  1
  U  U2  1  0.61402286  0.80139405  0.71043144  1
  U  U3  1  0.18735265  0.37746812  0.80251506  1
  F  F0  1  0.02750240  0.64876548  0.92643113  1
  F  F1  1  0.33553410  0.98384114  0.57181905  1
  F  F2  1  0.98384114  0.33553410  0.07181905  1
  F  F3  1  0.64876548  0.02750240  0.42643113  1
  F  F4  1  0.89867869  0.43619638  0.77837754  1
  F  F5  1  0.54564060  0.12516450  0.71590051  1
  F  F6  1  0.12516450  0.54564060  0.21590051  1
  F  F7  1  0.43619638  0.89867869  0.27837754  1
  F  F8  1  0.95723135  0.73055801  0.63707546  1
  F  F9  1  0.26341236  0.05012117  0.86903433  1
  F  F10  1  0.05012117  0.26341236  0.36903433  1
  F  F11  1  0.73055801  0.95723135  0.13707546  1
  F  F12  1  0.74120869  0.64241853  0.48293022  1
  F  F13  1  0.36577385  0.26034970  0.01122872  1
  F  F14  1  0.26034970  0.36577385  0.51122872  1
  F  F15  1  0.64241853  0.74120869  0.98293022  1
  F  F16  1  0.62816141  0.47501381  0.34151941  1
  F  F17  1  0.47501381  0.62816141  0.84151941  1
loop_
_geom_bond_atom_site_label_1
_geom_bond_atom_site_label_2
_geom_bond_distance
_geom_bond_site_symmetry_2
Cs0 F5 2.907554 1_555
Cs0 F4 2.928240 1_555
Cs0 F1 3.019680 1_645
Cs0 F11 3.033613 1_546
Cs0 F0 3.038481 1_645
Cs0 F10 3.062986 1_655
Cs0 F8 3.355205 1_545
Cs0 F9 3.427279 1_655
Cs1 F6 2.907554 1_555
Cs1 F7 2.928240 1_555
Cs1 F2 3.019680 1_465
Cs1 F8 3.033613 1_455
Cs1 F3 3.038481 1_465
Cs1 F9 3.062986 1_564
Cs1 F11 3.355205 1_455
Cs1 F10 3.427279 1_565
F0 U3 2.250233 1_555
F0 U1 2.418900 1_456
F1 U0 2.270288 1_565
F1 U2 2.338344 1_555
F2 U3 2.270288 1_654
F2 U1 2.338344 1_555
F3 U0 2.250233 1_555
F3 U2 2.418900 1_545
F4 U3 2.229595 1_655
F4 U2 2.371117 1_555
F5 U3 2.295465 1_555
F5 U2 2.407705 1_545
F6 U0 2.295465 1_555
F6 U1 2.407705 1_455
F7 U0 2.229595 1_565
F7 U1 2.371117 1_555
F8 U2 2.365342 1_555
F8 U3 2.426961 1_655
F9 U3 2.231014 1_555
F9 U2 2.438623 1_545
F10 U0 2.231014 1_555
F10 U1 2.438623 1_455
F11 U1 2.365342 1_555
F11 U0 2.426961 1_565
F12 U1 2.287342 1_555
F12 U2 2.334477 1_555
F13 U3 2.325478 1_554
F13 U0 2.367619 1_555
F14 U0 2.325478 1_555
F14 U3 2.367619 1_555
F15 U2 2.287342 1_555
F15 U1 2.334477 1_556
F16 U1 2.100426 1_555
F17 U2 2.100426 1_555
