# generated using pymatgen
data_HoCoRu
_symmetry_space_group_name_H-M   'P 1'
_cell_length_a   5.27020807
_cell_length_b   5.26874480
_cell_length_c   5.26772864
_cell_angle_alpha   122.83182009
_cell_angle_beta   122.58329951
_cell_angle_gamma   85.34580489
_symmetry_Int_Tables_number   1
_chemical_formula_structural   HoCoRu
_chemical_formula_sum   'Ho2 Co2 Ru2'
_cell_volume   98.86402960
_cell_formula_units_Z   2
loop_
 _symmetry_equiv_pos_site_id
 _symmetry_equiv_pos_as_xyz
  1  'x, y, z'
loop_
 _atom_site_type_symbol
 _atom_site_label
 _atom_site_symmetry_multiplicity
 _atom_site_fract_x
 _atom_site_fract_y
 _atom_site_fract_z
 _atom_site_occupancy
  Ho  Ho0  1  0.37791496  0.12794375  0.24995771  1
  Ho  Ho1  1  0.62208504  0.87205625  0.75004229  1
  Co  Co0  1  0.00000000  0.00000000  0.50000000  1
  Co  Co1  1  0.00000000  0.50000000  -0.00000000  1
  Ru  Ru0  1  0.00000000  0.50000000  0.50000000  1
  Ru  Ru1  1  0.50000000  0.50000000  -0.00000000  1
loop_
_geom_bond_atom_site_label_1
_geom_bond_atom_site_label_2
_geom_bond_distance
_geom_bond_site_symmetry_2
Ho0 Ru1 2.989231 1_556
Ho0 Ru0 2.989401 1_555
Ho0 Ru1 2.989476 1_545
Ho0 Ru0 2.990283 1_544
Ho0 Ru1 3.147432 1_555
Ho0 Ru0 3.149346 1_655
Ho0 Ho1 3.150702 1_544
Ho0 Ho1 3.151936 1_555
Ho0 Ho1 3.214296 1_545
Ho0 Ho1 3.216112 1_444
Ho1 Ru1 2.989231 1_555
Ho1 Ru0 2.989401 1_655
Ho1 Ru1 2.989476 1_566
Ho1 Ru0 2.990283 1_666
Ho1 Ru1 3.147432 1_556
Ho1 Ru0 3.149346 1_555
Co0 Co1 2.520578 1_545
Co0 Co1 2.520578 1_556
Co0 Ru0 2.634372 1_545
Co0 Ru0 2.634372 1_555
Co0 Ru1 2.635973 1_556
Co0 Ru1 2.635973 1_445
Co0 Ho0 2.980580 1_556
Co0 Ho1 2.980580 1_444
Co0 Ho0 2.981792 1_455
Co0 Ho1 2.981792 1_545
Co0 Ho0 3.187838 1_555
Co0 Ho1 3.187838 1_445
Co1 Ru0 2.633864 1_554
Co1 Ru0 2.633864 1_555
Co1 Ru1 2.635104 1_455
Co1 Ru1 2.635104 1_555
Co1 Ho0 2.980587 1_555
Co1 Ho1 2.980587 1_454
Co1 Ho1 2.982437 1_555
Co1 Ho0 2.982437 1_454
Co1 Ho0 3.188672 1_565
Co1 Ho1 3.188672 1_444
Ru0 Ru1 2.530956 1_455
Ru0 Ru1 2.530956 1_556
