# generated using pymatgen
data_BaGe3
_symmetry_space_group_name_H-M   'P 1'
_cell_length_a   8.55668729
_cell_length_b   8.55668729
_cell_length_c   8.55668729
_cell_angle_alpha   124.82386453
_cell_angle_beta   124.82386453
_cell_angle_gamma   81.82997632
_symmetry_Int_Tables_number   1
_chemical_formula_structural   BaGe3
_chemical_formula_sum   'Ba4 Ge12'
_cell_volume   406.15070915
_cell_formula_units_Z   4
loop_
 _symmetry_equiv_pos_site_id
 _symmetry_equiv_pos_as_xyz
  1  'x, y, z'
loop_
 _atom_site_type_symbol
 _atom_site_label
 _atom_site_symmetry_multiplicity
 _atom_site_fract_x
 _atom_site_fract_y
 _atom_site_fract_z
 _atom_site_occupancy
  Ba  Ba0  1  0.82620500  0.82620500  0.00000000  1
  Ba  Ba1  1  0.17379500  0.17379500  0.00000000  1
  Ba  Ba2  1  0.25000000  0.75000000  0.50000000  1
  Ba  Ba3  1  0.75000000  0.25000000  0.50000000  1
  Ge  Ge0  1  0.34001900  0.00000000  0.34001900  1
  Ge  Ge1  1  0.65998100  0.00000000  0.65998100  1
  Ge  Ge2  1  0.00000000  0.65998100  0.65998100  1
  Ge  Ge3  1  0.00000000  0.34001900  0.34001900  1
  Ge  Ge4  1  0.22040000  0.22040000  0.63674400  1
  Ge  Ge5  1  0.58365600  0.58365600  0.36325600  1
  Ge  Ge6  1  0.22040000  0.58365600  0.00000000  1
  Ge  Ge7  1  0.58365600  0.22040000  0.00000000  1
  Ge  Ge8  1  0.77960000  0.77960000  0.36325600  1
  Ge  Ge9  1  0.41634400  0.41634400  0.63674400  1
  Ge  Ge10  1  0.77960000  0.41634400  0.00000000  1
  Ge  Ge11  1  0.41634400  0.77960000  0.00000000  1
loop_
_geom_bond_atom_site_label_1
_geom_bond_atom_site_label_2
_geom_bond_distance
_geom_bond_site_symmetry_2
Ba0 Ge1 3.509048 1_564
Ba0 Ge2 3.509048 1_654
Ba0 Ge0 3.509048 1_665
Ba0 Ge3 3.509048 1_665
Ba0 Ge9 3.585519 1_554
Ba0 Ge11 3.585519 1_555
Ba0 Ge10 3.585519 1_555
Ba0 Ge8 3.585519 1_555
Ba0 Ge5 3.700654 1_554
Ba0 Ge6 3.700654 1_655
Ba0 Ge7 3.700654 1_565
Ba0 Ge4 3.700654 1_665
Ba1 Ge3 3.509048 1_555
Ba1 Ge0 3.509048 1_555
Ba1 Ge1 3.509048 1_454
Ba1 Ge2 3.509048 1_544
Ba1 Ge5 3.585519 1_555
Ba1 Ge7 3.585519 1_555
Ba1 Ge6 3.585519 1_555
Ba1 Ge4 3.585519 1_554
Ba1 Ge9 3.700654 1_555
Ba1 Ge8 3.700654 1_444
Ba1 Ge10 3.700654 1_455
Ba1 Ge11 3.700654 1_545
Ba2 Ge0 3.472799 1_565
Ba2 Ge2 3.472799 1_555
Ba2 Ge3 3.472799 1_555
Ba2 Ge1 3.472799 1_565
Ba2 Ge5 3.507731 1_555
Ba2 Ge4 3.507731 1_565
Ba2 Ge7 3.507731 1_566
Ba2 Ge9 3.507731 1_555
Ba2 Ge6 3.507731 1_555
Ba2 Ge10 3.507731 1_455
Ba2 Ge11 3.507731 1_556
Ba2 Ge8 3.507731 1_455
Ba3 Ge3 3.472799 1_655
Ba3 Ge2 3.472799 1_655
Ba3 Ge1 3.472799 1_555
Ba3 Ge0 3.472799 1_555
Ba3 Ge4 3.507731 1_655
Ba3 Ge6 3.507731 1_656
Ba3 Ge5 3.507731 1_555
Ba3 Ge7 3.507731 1_555
Ba3 Ge10 3.507731 1_556
Ba3 Ge8 3.507731 1_545
Ba3 Ge11 3.507731 1_545
Ba3 Ge9 3.507731 1_555
Ge0 Ge1 2.535827 1_555
Ge0 Ge11 2.828673 1_545
Ge0 Ge9 2.828673 1_555
Ge0 Ge4 2.828673 1_555
Ge0 Ge6 2.828673 1_545
Ge1 Ge8 2.828673 1_545
Ge1 Ge10 2.828673 1_556
Ge1 Ge7 2.828673 1_556
Ge1 Ge5 2.828673 1_545
Ge2 Ge3 2.535827 1_555
Ge2 Ge8 2.828673 1_455
Ge2 Ge5 2.828673 1_455
Ge2 Ge6 2.828673 1_556
Ge3 Ge9 2.828673 1_555
Ge3 Ge4 2.828673 1_555
Ge3 Ge7 2.828673 1_455
Ge4 Ge9 2.534001 1_555
Ge4 Ge6 2.878949 1_556
Ge4 Ge7 2.878949 1_556
Ge5 Ge8 2.534001 1_555
Ge5 Ge6 2.878949 1_555
Ge5 Ge7 2.878949 1_555
Ge10 Ge7 2.534001 1_555
Ge10 Ge3 2.828673 1_655
Ge10 Ge8 2.878949 1_555
Ge10 Ge9 2.878949 1_554
Ge11 Ge6 2.534001 1_555
Ge11 Ge2 2.828673 1_554
Ge11 Ge8 2.878949 1_555
Ge11 Ge9 2.878949 1_554
