# generated using pymatgen
data_Ca2AlVO5
_symmetry_space_group_name_H-M   'P 1'
_cell_length_a   7.83821321
_cell_length_b   8.22955323
_cell_length_c   7.89986220
_cell_angle_alpha   118.67761763
_cell_angle_beta   92.76313081
_cell_angle_gamma   88.66982319
_symmetry_Int_Tables_number   1
_chemical_formula_structural   Ca2AlVO5
_chemical_formula_sum   'Ca8 Al4 V4 O20'
_cell_volume   446.55240730
_cell_formula_units_Z   4
loop_
 _symmetry_equiv_pos_site_id
 _symmetry_equiv_pos_as_xyz
  1  'x, y, z'
loop_
 _atom_site_type_symbol
 _atom_site_label
 _atom_site_symmetry_multiplicity
 _atom_site_fract_x
 _atom_site_fract_y
 _atom_site_fract_z
 _atom_site_occupancy
  Ca  Ca0  1  0.22640800  0.22115400  0.87059300  1
  Ca  Ca1  1  0.72639100  0.22124700  0.37055800  1
  Ca  Ca2  1  0.22646800  0.77882700  0.14908800  1
  Ca  Ca3  1  0.72650100  0.77894300  0.64921300  1
  Ca  Ca4  1  0.26112800  0.77884800  0.61722200  1
  Ca  Ca5  1  0.76107000  0.77894700  0.11715900  1
  Ca  Ca6  1  0.26036600  0.22116000  0.33795000  1
  Ca  Ca7  1  0.76043600  0.22123900  0.83810400  1
  Al  Al0  1  0.44030400  0.49997000  0.76694200  1
  Al  Al1  1  0.94029800  0.49997400  0.26694500  1
  Al  Al2  1  0.01626300  0.50001500  0.68978400  1
  Al  Al3  1  0.51626200  0.50000000  0.18978000  1
  V  V0  1  0.50009700  0.99980300  0.00026300  1
  V  V1  1  0.99981600  0.99974800  0.99978400  1
  V  V2  1  0.00005300  0.99981100  0.50026100  1
  V  V3  1  0.49993200  0.99972600  0.49979900  1
  O  O0  1  0.23980100  0.49991200  0.63875700  1
  O  O1  1  0.73979900  0.49995200  0.13878000  1
  O  O2  1  0.38895800  0.49997600  0.98923600  1
  O  O3  1  0.88895300  0.49998100  0.48924100  1
  O  O4  1  0.97504200  0.29351000  0.69493800  1
  O  O5  1  0.47499800  0.29347200  0.19488000  1
  O  O6  1  0.54942000  0.70629600  0.82896000  1
  O  O7  1  0.04943000  0.70625500  0.32893000  1
  O  O8  1  0.54864400  0.29312800  0.62207900  1
  O  O9  1  0.04866300  0.29310300  0.12207500  1
  O  O10  1  0.97606100  0.70623900  0.90202800  1
  O  O11  1  0.47610200  0.70622300  0.40204500  1
  O  O12  1  0.49596100  0.96772600  0.23389900  1
  O  O13  1  0.99599400  0.96777100  0.73395500  1
  O  O14  1  0.24999100  0.03196300  0.51452500  1
  O  O15  1  0.75005500  0.03231600  0.01469600  1
  O  O16  1  0.99804200  0.03170400  0.26592900  1
  O  O17  1  0.49805000  0.03166600  0.76596800  1
  O  O18  1  0.25004200  0.96768500  0.98026800  1
  O  O19  1  0.74999300  0.96804800  0.48041400  1
loop_
_geom_bond_atom_site_label_1
_geom_bond_atom_site_label_2
_geom_bond_distance
_geom_bond_site_symmetry_2
Ca0 O9 2.310421 1_556
Ca0 O2 2.392364 1_555
Ca0 O14 2.490798 1_555
Ca0 O17 2.535116 1_555
Ca0 O13 2.569379 1_445
Ca0 O4 2.576245 1_455
Ca0 O18 2.614820 1_545
Ca0 O5 2.970362 1_556
Ca1 O8 2.310762 1_555
Ca1 O3 2.391818 1_555
Ca1 O15 2.489341 1_555
Ca1 O16 2.535377 1_555
Ca1 O12 2.570178 1_545
Ca1 O5 2.576003 1_555
Ca1 O19 2.613705 1_545
Ca1 O4 2.971288 1_555
Ca2 O7 2.311641 1_555
Ca2 O2 2.391878 1_554
Ca2 O18 2.500969 1_554
Ca2 O12 2.518710 1_555
Ca2 O16 2.555638 1_465
Ca2 O10 2.566048 1_454
Ca2 O14 2.627247 1_565
Ca2 O11 2.982215 1_555
Ca3 O6 2.311629 1_555
Ca3 O3 2.392440 1_555
Ca3 O19 2.502544 1_555
Ca3 O13 2.518451 1_555
Ca3 O17 2.554981 1_565
Ca3 O11 2.566400 1_555
Ca3 O15 2.628037 1_566
Ca3 O10 2.981449 1_555
Ca4 O11 2.310920 1_555
Ca4 O0 2.391999 1_555
Ca4 O13 2.499036 1_455
Ca4 O18 2.527486 1_555
Ca4 O14 2.571278 1_565
Ca4 O7 2.583211 1_555
Ca4 O17 2.603989 1_565
Ca4 O6 2.965149 1_555
Ca5 O10 2.310710 1_554
Ca5 O1 2.392804 1_555
Ca5 O12 2.498374 1_555
Ca5 O19 2.529021 1_555
Ca5 O15 2.571988 1_565
Ca5 O6 2.582356 1_554
Ca5 O16 2.603973 1_565
Ca5 O7 2.966224 1_655
Ca6 O5 2.310226 1_555
Ca6 O0 2.392320 1_555
Ca6 O16 2.483353 1_455
Ca6 O14 2.545191 1_555
Ca6 O9 2.581277 1_555
Ca6 O18 2.582797 1_544
Ca6 O12 2.599582 1_545
Ca6 O8 2.965111 1_555
Ca7 O4 2.310391 1_555
Ca7 O1 2.391664 1_556
Ca7 O17 2.484173 1_555
Ca7 O15 2.543334 1_556
Ca7 O19 2.582178 1_545
Ca7 O8 2.582340 1_555
Ca7 O13 2.599528 1_545
Ca7 O9 2.964165 1_656
Al0 O6 1.755915 1_555
Al0 O8 1.756494 1_555
Al0 O2 1.820410 1_555
Al0 O0 1.827966 1_555
Al1 O7 1.755719 1_655
Al1 O9 1.756757 1_655
Al1 O3 1.820419 1_555
Al1 O1 1.827932 1_555
Al2 O10 1.756674 1_455
Al2 O4 1.757080 1_455
Al2 O0 1.816641 1_555
Al2 O3 1.831071 1_455
Al3 O11 1.756686 1_555
Al3 O5 1.757125 1_555
Al3 O1 1.816634 1_555
Al3 O2 1.831087 1_554
O4 V2 2.164497 1_645
O5 V0 2.164290 1_545
O6 V0 2.164485 1_556
O7 V2 2.164912 1_555
O8 V3 2.162799 1_545
O9 V1 2.162632 1_444
O10 V1 2.163831 1_555
O11 V3 2.163843 1_555
O12 V3 1.986426 1_555
O12 V0 1.987738 1_555
O13 V1 1.985978 1_555
O13 V2 1.987978 1_655
O14 V3 1.972353 1_545
O14 V2 1.973530 1_545
O15 V1 1.971242 1_544
O15 V0 1.973999 1_545
O16 V2 1.989814 1_645
O16 V1 1.990445 1_544
O17 V0 1.989370 1_546
O17 V3 1.990729 1_545
O18 V0 1.972431 1_556
O18 V1 1.976429 1_455
O19 V2 1.972163 1_655
O19 V3 1.974851 1_555
