# generated using pymatgen
data_SrLiU2O6
_symmetry_space_group_name_H-M   'P 1'
_cell_length_a   4.00004136
_cell_length_b   11.78606023
_cell_length_c   6.86620506
_cell_angle_alpha   28.99560510
_cell_angle_beta   54.38871634
_cell_angle_gamma   59.40549210
_symmetry_Int_Tables_number   1
_chemical_formula_structural   SrLiU2O6
_chemical_formula_sum   'Sr1 Li1 U2 O6'
_cell_volume   127.56866023
_cell_formula_units_Z   1
loop_
 _symmetry_equiv_pos_site_id
 _symmetry_equiv_pos_as_xyz
  1  'x, y, z'
loop_
 _atom_site_type_symbol
 _atom_site_label
 _atom_site_symmetry_multiplicity
 _atom_site_fract_x
 _atom_site_fract_y
 _atom_site_fract_z
 _atom_site_occupancy
  Sr  Sr0  1  0.99866700  0.69463000  0.95799700  1
  Li  Li0  1  0.49851000  0.36395200  0.45217100  1
  U  U0  1  0.99673600  0.98927900  0.01621800  1
  U  U1  1  0.00416200  0.33465500  0.99737800  1
  O  O0  1  0.25161100  0.31228600  0.28046000  1
  O  O1  1  0.23056700  0.65231000  0.29054700  1
  O  O2  1  0.73168700  0.03355600  0.71867300  1
  O  O3  1  0.27169800  0.03295200  0.17932600  1
  O  O4  1  0.74815500  0.31158000  0.78467800  1
  O  O5  1  0.76820500  0.65257800  0.75255300  1
loop_
_geom_bond_atom_site_label_1
_geom_bond_atom_site_label_2
_geom_bond_distance
_geom_bond_site_symmetry_2
Li0 O5 2.219524 1_554
Li0 O1 2.238391 1_555
Li0 O2 2.282034 1_555
Li0 O3 2.285859 1_556
Li0 O0 2.441373 1_555
Li0 O4 2.458163 1_455
Li0 O0 2.467410 1_655
Li0 O4 2.480514 1_555
O0 U0 2.315860 1_446
O0 U1 2.430150 1_554
O0 U1 2.450826 1_654
O0 Sr0 2.597492 1_454
O1 U1 2.222293 1_555
O1 U0 2.319508 1_455
O1 Sr0 2.509984 1_554
O1 Sr0 2.515217 1_454
O2 U1 2.283738 1_654
O2 U0 2.380019 1_546
O2 U0 2.406440 1_446
O2 Sr0 2.452784 1_545
O3 U1 2.294052 1_554
O3 U0 2.374150 1_545
O3 U0 2.397512 1_445
O3 Sr0 2.452958 1_445
O4 U0 2.319008 1_546
O4 U1 2.423398 1_555
O4 U1 2.444477 1_655
O4 Sr0 2.599695 1_554
O5 U1 2.232963 1_655
O5 U0 2.314770 1_555
O5 Sr0 2.507551 1_555
O5 Sr0 2.514765 1_455
