# generated using pymatgen
data_Mg6CdW
_symmetry_space_group_name_H-M   'P 1'
_cell_length_a   4.89763300
_cell_length_b   6.19047700
_cell_length_c   10.70322300
_cell_angle_alpha   90.00000000
_cell_angle_beta   90.00000000
_cell_angle_gamma   90.00000000
_symmetry_Int_Tables_number   1
_chemical_formula_structural   Mg6CdW
_chemical_formula_sum   'Mg12 Cd2 W2'
_cell_volume   324.50764064
_cell_formula_units_Z   2
loop_
 _symmetry_equiv_pos_site_id
 _symmetry_equiv_pos_as_xyz
  1  'x, y, z'
loop_
 _atom_site_type_symbol
 _atom_site_label
 _atom_site_symmetry_multiplicity
 _atom_site_fract_x
 _atom_site_fract_y
 _atom_site_fract_z
 _atom_site_occupancy
  Mg  Mg0  1  0.50000000  0.25270800  0.08270400  1
  Mg  Mg1  1  0.50000000  0.74729200  0.08270400  1
  Mg  Mg2  1  0.00000000  0.23492900  0.91216400  1
  Mg  Mg3  1  0.00000000  0.76507100  0.91216400  1
  Mg  Mg4  1  0.00000000  0.50000000  0.17693700  1
  Mg  Mg5  1  0.00000000  0.50000000  0.66695600  1
  Mg  Mg6  1  0.50000000  0.75270800  0.58270400  1
  Mg  Mg7  1  0.50000000  0.24729200  0.58270400  1
  Mg  Mg8  1  0.00000000  0.73492900  0.41216400  1
  Mg  Mg9  1  0.00000000  0.26507100  0.41216400  1
  Mg  Mg10  1  0.00000000  0.00000000  0.67693700  1
  Mg  Mg11  1  0.00000000  0.00000000  0.16695600  1
  Cd  Cd0  1  0.50000000  0.50000000  0.83389300  1
  Cd  Cd1  1  0.50000000  0.00000000  0.33389300  1
  W  W0  1  0.50000000  0.50000000  0.33248400  1
  W  W1  1  0.50000000  0.00000000  0.83248400  1
loop_
_geom_bond_atom_site_label_1
_geom_bond_atom_site_label_2
_geom_bond_distance
_geom_bond_site_symmetry_2
Mg0 Mg11 3.042562 1_555
Mg0 Mg11 3.042562 1_655
Mg0 Mg2 3.056246 1_554
Mg0 Mg2 3.056246 1_654
Mg0 Mg4 3.059001 1_655
Mg0 Mg4 3.059001 1_555
Mg0 Mg1 3.061711 1_555
Mg0 W0 3.080724 1_555
Mg0 W1 3.101586 1_554
Mg0 Mg1 3.128766 1_545
Mg1 Mg11 3.042562 1_665
Mg1 Mg11 3.042562 1_565
Mg1 Mg3 3.056246 1_654
Mg1 Mg3 3.056246 1_554
Mg1 Mg4 3.059001 1_555
Mg1 Mg4 3.059001 1_655
Mg1 W0 3.080724 1_555
Mg1 W1 3.101586 1_564
Mg2 Mg3 2.908645 1_545
Mg2 W1 2.973059 1_455
Mg2 W1 2.973059 1_555
Mg2 Mg5 3.095269 1_555
Mg2 Mg4 3.274711 1_556
Mg2 Mg3 3.281832 1_555
Mg3 W1 2.973059 1_465
Mg3 W1 2.973059 1_565
Mg3 Mg5 3.095269 1_555
Mg3 Mg4 3.274711 1_556
Mg4 Mg8 2.907542 1_555
Mg4 Mg9 2.907542 1_555
Mg4 W0 2.961155 1_455
Mg4 W0 2.961155 1_555
Mg5 Mg6 3.042562 1_555
Mg5 Mg6 3.042562 1_455
Mg5 Mg7 3.042562 1_555
Mg5 Mg7 3.042562 1_455
Mg5 Mg8 3.090648 1_555
Mg5 Mg9 3.090648 1_555
Mg6 Mg8 3.056246 1_655
Mg6 Mg8 3.056246 1_555
Mg6 Mg7 3.061711 1_565
Mg6 W1 3.080724 1_565
Mg6 W0 3.101586 1_555
Mg6 Mg7 3.128766 1_555
Mg7 Mg9 3.056246 1_655
Mg7 Mg9 3.056246 1_555
Mg7 W1 3.080724 1_555
Mg7 W0 3.101586 1_555
Mg8 Mg9 2.908645 1_555
Mg8 W0 2.973059 1_455
Mg8 W0 2.973059 1_555
Mg8 Mg9 3.281832 1_565
Mg9 W0 2.973059 1_455
Mg9 W0 2.973059 1_555
Mg10 Mg2 2.907542 1_555
Mg10 Mg3 2.907542 1_545
Mg10 W1 2.961155 1_455
Mg10 W1 2.961155 1_555
Mg10 Mg7 3.059001 1_455
Mg10 Mg7 3.059001 1_555
Mg10 Mg6 3.059001 1_445
Mg10 Mg6 3.059001 1_545
Mg10 Mg5 3.097081 1_545
Mg10 Mg5 3.097081 1_555
Mg10 Mg9 3.274711 1_555
Mg10 Mg8 3.274711 1_545
Mg11 Mg2 3.090648 1_554
Mg11 Mg3 3.090648 1_544
Mg11 Mg9 3.095269 1_555
Mg11 Mg8 3.095269 1_545
Mg11 Mg4 3.097081 1_545
Mg11 Mg4 3.097081 1_555
Cd0 Mg5 3.031374 1_655
Cd0 Mg5 3.031374 1_555
Cd0 Mg3 3.064496 1_655
Cd0 Mg2 3.064496 1_555
Cd0 Mg2 3.064496 1_655
Cd0 Mg3 3.064496 1_555
Cd0 Mg1 3.071728 1_556
Cd0 Mg0 3.071728 1_556
Cd0 W1 3.095275 1_565
Cd0 W1 3.095275 1_555
Cd0 Mg6 3.110546 1_555
Cd0 Mg7 3.110546 1_555
Cd1 Mg11 3.031374 1_555
Cd1 Mg11 3.031374 1_655
Cd1 Mg9 3.064496 1_655
Cd1 Mg9 3.064496 1_555
Cd1 Mg8 3.064496 1_645
Cd1 Mg8 3.064496 1_545
Cd1 Mg7 3.071728 1_555
Cd1 Mg6 3.071728 1_545
Cd1 W0 3.095275 1_555
Cd1 W0 3.095275 1_545
Cd1 Mg1 3.110546 1_545
Cd1 Mg0 3.110546 1_555
