# generated using pymatgen
data_KB5H2O9
_symmetry_space_group_name_H-M   'P 1'
_cell_length_a   8.01937633
_cell_length_b   9.13990400
_cell_length_c   10.96499198
_cell_angle_alpha   90.00000000
_cell_angle_beta   99.17024067
_cell_angle_gamma   90.00000000
_symmetry_Int_Tables_number   1
_chemical_formula_structural   KB5H2O9
_chemical_formula_sum   'K4 B20 H8 O36'
_cell_volume   793.42179941
_cell_formula_units_Z   4
loop_
 _symmetry_equiv_pos_site_id
 _symmetry_equiv_pos_as_xyz
  1  'x, y, z'
loop_
 _atom_site_type_symbol
 _atom_site_label
 _atom_site_symmetry_multiplicity
 _atom_site_fract_x
 _atom_site_fract_y
 _atom_site_fract_z
 _atom_site_occupancy
  K  K0  1  0.88219700  0.42572500  0.24040200  1
  K  K1  1  0.61780300  0.92572500  0.25959800  1
  K  K2  1  0.11780300  0.57427500  0.75959800  1
  K  K3  1  0.38219700  0.07427500  0.74040200  1
  B  B0  1  0.38657700  0.15548100  0.42368900  1
  B  B1  1  0.11342300  0.65548100  0.07631100  1
  B  B2  1  0.61342300  0.84451900  0.57631100  1
  B  B3  1  0.88657700  0.34451900  0.92368900  1
  B  B4  1  0.58303300  0.35402700  0.47089200  1
  B  B5  1  0.91696700  0.85402700  0.02910800  1
  B  B6  1  0.41696700  0.64597300  0.52910800  1
  B  B7  1  0.08303300  0.14597300  0.97089200  1
  B  B8  1  0.51136100  0.25874600  0.03428800  1
  B  B9  1  0.98863900  0.75874600  0.46571200  1
  B  B10  1  0.48863900  0.74125400  0.96571200  1
  B  B11  1  0.01136100  0.24125400  0.53428800  1
  B  B12  1  0.47590800  0.29691600  0.25272500  1
  B  B13  1  0.02409200  0.79691600  0.24727500  1
  B  B14  1  0.52409200  0.70308400  0.74727500  1
  B  B15  1  0.97590800  0.20308400  0.75272500  1
  B  B16  1  0.19098800  0.93596500  0.41966800  1
  B  B17  1  0.30901200  0.43596500  0.08033200  1
  B  B18  1  0.80901200  0.06403500  0.58033200  1
  B  B19  1  0.69098800  0.56403500  0.91966800  1
  H  H0  1  0.67582800  0.12309900  0.97050600  1
  H  H1  1  0.82417200  0.62309900  0.52949400  1
  H  H2  1  0.32417200  0.87690100  0.02949400  1
  H  H3  1  0.17582800  0.37690100  0.47050600  1
  H  H4  1  0.66779900  0.43671600  0.64133000  1
  H  H5  1  0.83220100  0.93671600  0.85867000  1
  H  H6  1  0.33220100  0.56328400  0.35867000  1
  H  H7  1  0.16779900  0.06328400  0.14133000  1
  O  O0  1  0.59923900  0.36555600  0.34966100  1
  O  O1  1  0.90076100  0.86555600  0.15033900  1
  O  O2  1  0.40076100  0.63444400  0.65033900  1
  O  O3  1  0.09923900  0.13444400  0.84966100  1
  O  O4  1  0.38679600  0.17273800  0.30146000  1
  O  O5  1  0.11320400  0.67273800  0.19854000  1
  O  O6  1  0.61320400  0.82726200  0.69854000  1
  O  O7  1  0.88679600  0.32726200  0.80146000  1
  O  O8  1  0.47884600  0.24756200  0.51204100  1
  O  O9  1  0.02115400  0.74756200  0.98795900  1
  O  O10  1  0.52115400  0.75243800  0.48795900  1
  O  O11  1  0.97884600  0.25243800  0.01204100  1
  O  O12  1  0.37868500  0.35412000  0.99325200  1
  O  O13  1  0.12131500  0.85412000  0.50674800  1
  O  O14  1  0.62131500  0.64588000  0.00674800  1
  O  O15  1  0.87868500  0.14588000  0.49325200  1
  O  O16  1  0.30315800  0.04237100  0.47295200  1
  O  O17  1  0.19684200  0.54237100  0.02704800  1
  O  O18  1  0.69684200  0.95762900  0.52704800  1
  O  O19  1  0.80315800  0.45762900  0.97295200  1
  O  O20  1  0.56787300  0.23671000  0.15661900  1
  O  O21  1  0.93212700  0.73671000  0.34338100  1
  O  O22  1  0.43212700  0.76329000  0.84338100  1
  O  O23  1  0.06787300  0.26329000  0.65661900  1
  O  O24  1  0.58256200  0.19072200  0.94237900  1
  O  O25  1  0.91743800  0.69072200  0.55762100  1
  O  O26  1  0.41743800  0.80927800  0.05762100  1
  O  O27  1  0.08256200  0.30927800  0.44237900  1
  O  O28  1  0.35000400  0.41086700  0.20277700  1
  O  O29  1  0.14999600  0.91086700  0.29722300  1
  O  O30  1  0.64999600  0.58913300  0.79722300  1
  O  O31  1  0.85000400  0.08913300  0.70277700  1
  O  O32  1  0.67696500  0.44781400  0.55352200  1
  O  O33  1  0.82303500  0.94781400  0.94647800  1
  O  O34  1  0.32303500  0.55218600  0.44647800  1
  O  O35  1  0.17696500  0.05218600  0.05352200  1
loop_
_geom_bond_atom_site_label_1
_geom_bond_atom_site_label_2
_geom_bond_distance
_geom_bond_site_symmetry_2
K0 O27 2.735896 1_655
K0 O0 2.784458 1_555
K0 O19 2.914513 1_554
K0 O5 3.001783 1_655
K0 O21 3.061097 1_555
K0 O20 3.073149 1_555
K0 O11 3.161917 1_555
K1 O26 2.735896 1_555
K1 O1 2.784458 1_555
K1 O18 2.914513 1_555
K1 O4 3.001783 1_565
K1 O20 3.061097 1_565
K1 O21 3.073149 1_555
K1 O10 3.161917 1_555
K2 O25 2.735896 1_455
K2 O2 2.784458 1_555
K2 O17 2.914513 1_556
K2 O7 3.001783 1_455
K2 O23 3.061097 1_555
K2 O22 3.073149 1_555
K2 O9 3.161917 1_555
K3 O24 2.735896 1_555
K3 O3 2.784458 1_555
K3 O16 2.914513 1_555
K3 O6 3.001783 1_545
K3 O22 3.061097 1_545
K3 O23 3.073149 1_555
K3 O8 3.161917 1_555
B0 O4 1.349768 1_555
B0 O16 1.386813 1_555
B0 O8 1.402095 1_555
B1 O5 1.349768 1_555
B1 O17 1.386813 1_555
B1 O9 1.402095 1_554
B2 O6 1.349768 1_555
B2 O18 1.386813 1_555
B2 O10 1.402095 1_555
B3 O7 1.349768 1_555
B3 O19 1.386813 1_555
B3 O11 1.402095 1_556
B4 O0 1.360180 1_555
B4 O32 1.380431 1_555
B4 O8 1.403106 1_555
B5 O1 1.360180 1_555
B5 O33 1.380431 1_554
B5 O9 1.403106 1_654
B6 O2 1.360180 1_555
B6 O34 1.380431 1_555
B6 O10 1.403106 1_555
B7 O3 1.360180 1_555
B7 O35 1.380431 1_556
B7 O11 1.403106 1_456
B8 O20 1.360673 1_555
B8 O24 1.382611 1_554
B8 O12 1.393484 1_554
B9 O21 1.360673 1_555
B9 O25 1.382611 1_555
B9 O13 1.393484 1_655
B10 O22 1.360673 1_555
B10 O26 1.382611 1_556
B10 O14 1.393484 1_556
B11 O23 1.360673 1_555
B11 O27 1.382611 1_555
B11 O15 1.393484 1_455
B12 O0 1.471893 1_555
B12 O20 1.484900 1_555
B12 O4 1.485306 1_555
B12 O28 1.492602 1_555
B13 O1 1.471893 1_455
B13 O21 1.484900 1_455
B13 O5 1.485306 1_555
B13 O29 1.492602 1_555
B14 O2 1.471893 1_555
B14 O22 1.484900 1_555
B14 O6 1.485306 1_555
B14 O30 1.492602 1_555
B15 O3 1.471893 1_655
B15 O23 1.484900 1_655
B15 O7 1.485306 1_555
B15 O31 1.492602 1_555
B16 O29 1.350039 1_555
B16 O16 1.388826 1_565
B16 O13 1.397683 1_555
B17 O28 1.350039 1_555
B17 O17 1.388826 1_555
B17 O12 1.397683 1_554
B18 O31 1.350039 1_555
B18 O18 1.388826 1_545
B18 O15 1.397683 1_555
B19 O30 1.350039 1_555
B19 O19 1.388826 1_555
B19 O14 1.397683 1_556
H0 O24 0.981330 1_555
H1 O25 0.981330 1_555
H2 O26 0.981330 1_555
H3 O27 0.981330 1_555
H4 O32 0.982477 1_555
H5 O33 0.982477 1_555
H6 O34 0.982477 1_555
H7 O35 0.982477 1_555
