# generated using pymatgen
data_Sr2La2MnZnO8
_symmetry_space_group_name_H-M   'P 1'
_cell_length_a   7.74305100
_cell_length_b   12.64364600
_cell_length_c   8.70892226
_cell_angle_alpha   89.99998744
_cell_angle_beta   63.60516316
_cell_angle_gamma   89.99993868
_symmetry_Int_Tables_number   1
_chemical_formula_structural   Sr2La2MnZnO8
_chemical_formula_sum   'Sr8 La8 Mn4 Zn4 O32'
_cell_volume   763.72421837
_cell_formula_units_Z   4
loop_
 _symmetry_equiv_pos_site_id
 _symmetry_equiv_pos_as_xyz
  1  'x, y, z'
loop_
 _atom_site_type_symbol
 _atom_site_label
 _atom_site_symmetry_multiplicity
 _atom_site_fract_x
 _atom_site_fract_y
 _atom_site_fract_z
 _atom_site_occupancy
  Sr  Sr0  1  0.74998700  0.63708600  0.50001100  1
  Sr  Sr1  1  0.49952000  0.63733500  0.99998300  1
  Sr  Sr2  1  0.25000000  0.63708900  0.50000700  1
  Sr  Sr3  1  0.00049500  0.63733500  0.99999100  1
  Sr  Sr4  1  0.74998700  0.36291300  0.50001100  1
  Sr  Sr5  1  0.49952300  0.36266400  0.99998200  1
  Sr  Sr6  1  0.25000100  0.36291100  0.50000800  1
  Sr  Sr7  1  0.00049500  0.36266500  0.99999000  1
  La  La0  1  0.37471700  0.14445400  0.75056700  1
  La  La1  1  0.12528600  0.14445600  0.24943300  1
  La  La2  1  0.87528300  0.14458200  0.74943600  1
  La  La3  1  0.62472200  0.14458100  0.25056400  1
  La  La4  1  0.37471200  0.85554800  0.75057700  1
  La  La5  1  0.12528300  0.85554800  0.24943400  1
  La  La6  1  0.87528400  0.85541500  0.74942900  1
  La  La7  1  0.62471400  0.85541600  0.25057100  1
  Mn  Mn0  1  0.37470600  0.50000000  0.75058300  1
  Mn  Mn1  1  0.12526800  0.50000000  0.24946600  1
  Mn  Mn2  1  0.87476100  0.50000200  0.75049500  1
  Mn  Mn3  1  0.62526900  0.49999900  0.24945300  1
  Zn  Zn0  1  0.74999800  0.00000100  0.50000100  1
  Zn  Zn1  1  0.50013300  0.99999900  0.00000400  1
  Zn  Zn2  1  0.25000100  0.00000000  0.50000000  1
  Zn  Zn3  1  0.99986200  0.99999700  0.00000400  1
  O  O0  1  0.37396700  0.33772300  0.75207200  1
  O  O1  1  0.12602400  0.33772200  0.24795100  1
  O  O2  1  0.87549600  0.33680300  0.74901200  1
  O  O3  1  0.62451700  0.33681100  0.25096200  1
  O  O4  1  0.37396400  0.66227700  0.75207100  1
  O  O5  1  0.12602400  0.66227800  0.24795400  1
  O  O6  1  0.87549600  0.66319700  0.74900900  1
  O  O7  1  0.62451500  0.66318800  0.25096200  1
  O  O8  1  0.74999400  0.82511100  0.50000100  1
  O  O9  1  0.49911900  0.82548100  0.00000700  1
  O  O10  1  0.25000500  0.82511400  0.49999600  1
  O  O11  1  0.00088300  0.82548100  0.99999600  1
  O  O12  1  0.74999700  0.17488900  0.49999200  1
  O  O13  1  0.49912300  0.17451900  0.00001000  1
  O  O14  1  0.25000700  0.17488700  0.49999800  1
  O  O15  1  0.00087100  0.17451900  0.99999800  1
  O  O16  1  0.49394100  0.49999900  0.51205800  1
  O  O17  1  0.24996800  0.50000000  0.00005600  1
  O  O18  1  0.00598900  0.49999900  0.48807600  1
  O  O19  1  0.75010400  0.50000000  0.99980200  1
  O  O20  1  0.62190100  0.50000200  0.75068200  1
  O  O21  1  0.37260600  0.49999900  0.24928200  1
  O  O22  1  0.12740800  0.50000100  0.75071500  1
  O  O23  1  0.87808300  0.50000000  0.24931900  1
  O  O24  1  0.62446800  0.00000200  0.75013000  1
  O  O25  1  0.37459000  0.00000100  0.24987200  1
  O  O26  1  0.12540000  0.99999900  0.75013300  1
  O  O27  1  0.87553800  0.00000000  0.24987400  1
  O  O28  1  0.50004100  0.99999900  0.49991900  1
  O  O29  1  0.25000900  0.00000200  0.99998200  1
  O  O30  1  0.99993300  0.00000000  0.50013000  1
  O  O31  1  0.75001200  0.99999800  0.99997600  1
loop_
_geom_bond_atom_site_label_1
_geom_bond_atom_site_label_2
_geom_bond_distance
_geom_bond_site_symmetry_2
La0 O0 2.443653 1_555
La0 O24 2.658743 1_555
La0 O26 2.658781 1_545
La0 O29 2.668608 1_555
La0 O28 2.675654 1_545
La0 O15 2.766190 1_555
La0 O13 2.766263 1_556
La0 O14 2.777764 1_555
La0 O12 2.777768 1_555
La1 O1 2.443614 1_555
La1 O25 2.658719 1_555
La1 O27 2.658753 1_455
La1 O29 2.668829 1_554
La1 O30 2.675943 1_455
La1 O13 2.766116 1_555
La1 O15 2.766242 1_554
La1 O12 2.777767 1_455
La1 O14 2.777788 1_555
La2 O2 2.430377 1_555
La2 O24 2.665128 1_555
La2 O26 2.665137 1_645
La2 O30 2.669112 1_555
La2 O31 2.676153 1_545
La2 O14 2.771373 1_655
La2 O12 2.771448 1_555
La2 O15 2.781589 1_655
La2 O13 2.781653 1_556
La3 O3 2.430490 1_555
La3 O27 2.665151 1_555
La3 O25 2.665184 1_555
La3 O28 2.669392 1_545
La3 O31 2.676417 1_544
La3 O12 2.771259 1_555
La3 O14 2.771314 1_555
La3 O15 2.781574 1_654
La3 O13 2.781584 1_555
La4 O4 2.443678 1_555
La4 O26 2.658743 1_555
La4 O24 2.658764 1_565
La4 O29 2.668567 1_565
La4 O28 2.675677 1_555
La4 O11 2.766069 1_555
La4 O9 2.766165 1_556
La4 O8 2.777784 1_555
La4 O10 2.777848 1_555
La5 O5 2.443665 1_555
La5 O27 2.658701 1_465
La5 O25 2.658718 1_565
La5 O29 2.668835 1_564
La5 O30 2.675902 1_465
La5 O9 2.766128 1_555
La5 O11 2.766193 1_554
La5 O10 2.777773 1_555
La5 O8 2.777797 1_455
La6 O6 2.430339 1_555
La6 O26 2.665163 1_655
La6 O24 2.665172 1_565
La6 O30 2.669099 1_565
La6 O31 2.676183 1_555
La6 O8 2.771334 1_555
La6 O10 2.771335 1_655
La6 O11 2.781684 1_655
La6 O9 2.781687 1_556
La7 O7 2.430465 1_555
La7 O25 2.665200 1_565
La7 O27 2.665205 1_565
La7 O28 2.669360 1_555
La7 O31 2.676449 1_554
La7 O10 2.771251 1_555
La7 O8 2.771297 1_555
La7 O9 2.781640 1_555
La7 O11 2.781701 1_654
Mn0 O16 1.860741 1_555
Mn0 O22 1.914330 1_555
Mn0 O20 1.914427 1_555
Mn0 O17 1.946147 1_556
Mn0 O4 2.051806 1_555
Mn0 O0 2.051806 1_555
Mn1 O18 1.861404 1_555
Mn1 O21 1.914439 1_555
Mn1 O23 1.914536 1_455
Mn1 O17 1.945656 1_555
Mn1 O5 2.051819 1_555
Mn1 O1 2.051820 1_555
Mn2 O19 1.944852 1_555
Mn2 O22 1.957111 1_655
Mn2 O20 1.957184 1_555
Mn2 O18 2.047139 1_655
Mn2 O6 2.063412 1_555
Mn2 O2 2.063463 1_555
Mn3 O19 1.947536 1_554
Mn3 O23 1.957033 1_555
Mn3 O21 1.957045 1_555
Mn3 O16 2.048590 1_555
Mn3 O3 2.063325 1_555
Mn3 O7 2.063338 1_555
O0 Sr5 2.751766 1_555
O0 Sr7 2.751799 1_555
O0 Sr4 2.777538 1_555
O0 Sr6 2.777620 1_555
O1 Sr7 2.752040 1_554
O1 Sr5 2.752088 1_554
O1 Sr6 2.777623 1_555
O1 Sr4 2.777628 1_455
O2 Sr6 2.762143 1_655
O2 Sr4 2.762187 1_555
O2 Sr5 2.775203 1_555
O2 Sr7 2.775271 1_655
O3 Sr6 2.762306 1_555
O3 Sr4 2.762357 1_555
O3 Sr7 2.775226 1_654
O3 Sr5 2.775247 1_554
O4 Sr1 2.751784 1_555
O4 Sr3 2.751789 1_555
O4 Sr0 2.777552 1_555
O4 Sr2 2.777609 1_555
O5 Sr3 2.752057 1_554
O5 Sr1 2.752078 1_554
O5 Sr2 2.777585 1_555
O5 Sr0 2.777621 1_455
O6 Sr2 2.762131 1_655
O6 Sr0 2.762164 1_555
O6 Sr1 2.775232 1_555
O6 Sr3 2.775304 1_655
O7 Sr2 2.762297 1_555
O7 Sr0 2.762368 1_555
O7 Sr3 2.775231 1_654
O7 Sr1 2.775245 1_554
O8 Zn0 2.211247 1_565
O8 Sr0 2.377322 1_555
O9 Zn1 2.206558 1_555
O9 Sr1 2.378853 1_554
O10 Zn2 2.211197 1_565
O10 Sr2 2.377322 1_555
O11 Zn3 2.206533 1_456
O11 Sr3 2.378853 1_555
O12 Zn0 2.211222 1_555
O12 Sr4 2.377309 1_555
O13 Zn1 2.206583 1_545
O13 Sr5 2.378841 1_554
O14 Zn2 2.211209 1_555
O14 Sr6 2.377309 1_555
O15 Zn3 2.206608 1_446
O15 Sr7 2.378853 1_555
O16 Sr6 2.599861 1_555
O16 Sr2 2.599884 1_555
O16 Sr4 2.600171 1_555
O16 Sr0 2.600182 1_555
O17 Sr3 2.597595 1_554
O17 Sr7 2.597600 1_554
O17 Sr1 2.597655 1_554
O17 Sr5 2.597675 1_554
O18 Sr6 2.599900 1_555
O18 Sr2 2.599911 1_555
O18 Sr4 2.600211 1_455
O18 Sr0 2.600217 1_455
O19 Sr7 2.603241 1_655
O19 Sr3 2.603247 1_655
O19 Sr5 2.603287 1_555
O19 Sr1 2.603290 1_555
O20 Sr1 2.607226 1_555
O20 Sr5 2.607263 1_555
O20 Sr0 2.613146 1_555
O20 Sr4 2.613187 1_555
O21 Sr5 2.607236 1_554
O21 Sr1 2.607239 1_554
O21 Sr6 2.613502 1_555
O21 Sr2 2.613512 1_555
O22 Sr3 2.607089 1_555
O22 Sr7 2.607100 1_555
O22 Sr2 2.613397 1_555
O22 Sr6 2.613407 1_555
O23 Sr3 2.607399 1_654
O23 Sr7 2.607404 1_654
O23 Sr0 2.613285 1_555
O23 Sr4 2.613294 1_555
O24 Zn1 1.949281 1_546
O24 Zn0 1.951268 1_555
O25 Zn1 1.949234 1_545
O25 Zn2 1.951260 1_555
O26 Zn3 1.949257 1_456
O26 Zn2 1.951299 1_565
O27 Zn3 1.949250 1_545
O27 Zn0 1.951252 1_555
O28 Zn0 1.935747 1_565
O28 Zn2 1.935759 1_565
O29 Zn1 1.936808 1_546
O29 Zn3 1.936816 1_446
O30 Zn0 1.935759 1_555
O30 Zn2 1.935786 1_655
O31 Zn3 1.934710 1_556
O31 Zn1 1.934717 1_556
