# generated using pymatgen
data_Cd12Ge17(B4O29)2
_symmetry_space_group_name_H-M   'P 1'
_cell_length_a   15.15850900
_cell_length_b   15.15850900
_cell_length_c   4.77104500
_cell_angle_alpha   90.00000000
_cell_angle_beta   90.00000000
_cell_angle_gamma   90.00000000
_symmetry_Int_Tables_number   1
_chemical_formula_structural   Cd12Ge17(B4O29)2
_chemical_formula_sum   'Cd12 Ge17 B8 O58'
_cell_volume   1096.29260515
_cell_formula_units_Z   1
loop_
 _symmetry_equiv_pos_site_id
 _symmetry_equiv_pos_as_xyz
  1  'x, y, z'
loop_
 _atom_site_type_symbol
 _atom_site_label
 _atom_site_symmetry_multiplicity
 _atom_site_fract_x
 _atom_site_fract_y
 _atom_site_fract_z
 _atom_site_occupancy
  Cd  Cd0  1  0.85364800  0.89372700  0.48984200  1
  Cd  Cd1  1  0.14635200  0.10627300  0.48984200  1
  Cd  Cd2  1  0.89372700  0.14635200  0.51015800  1
  Cd  Cd3  1  0.10627300  0.85364800  0.51015800  1
  Cd  Cd4  1  0.63838100  0.75409700  0.49739400  1
  Cd  Cd5  1  0.36161900  0.24590300  0.49739400  1
  Cd  Cd6  1  0.75409700  0.36161900  0.50260600  1
  Cd  Cd7  1  0.24590300  0.63838100  0.50260600  1
  Cd  Cd8  1  0.67486600  0.01069500  0.48433100  1
  Cd  Cd9  1  0.32513400  0.98930500  0.48433100  1
  Cd  Cd10  1  0.01069500  0.32513400  0.51566900  1
  Cd  Cd11  1  0.98930500  0.67486600  0.51566900  1
  Ge  Ge0  1  0.00000000  0.00000000  0.00000000  1
  Ge  Ge1  1  0.51355600  0.89554000  0.99961000  1
  Ge  Ge2  1  0.48644400  0.10446000  0.99961000  1
  Ge  Ge3  1  0.89554000  0.48644400  0.00039000  1
  Ge  Ge4  1  0.10446000  0.51355600  0.00039000  1
  Ge  Ge5  1  0.28255300  0.80805100  0.00052400  1
  Ge  Ge6  1  0.71744700  0.19194900  0.00052400  1
  Ge  Ge7  1  0.80805100  0.71744700  0.99947600  1
  Ge  Ge8  1  0.19194900  0.28255300  0.99947600  1
  Ge  Ge9  1  0.46258500  0.64465900  0.99267300  1
  Ge  Ge10  1  0.53741500  0.35534100  0.99267300  1
  Ge  Ge11  1  0.64465900  0.53741500  0.00732700  1
  Ge  Ge12  1  0.35534100  0.46258500  0.00732700  1
  Ge  Ge13  1  0.42245900  0.78311400  0.49833600  1
  Ge  Ge14  1  0.57754100  0.21688600  0.49833600  1
  Ge  Ge15  1  0.78311400  0.57754100  0.50166400  1
  Ge  Ge16  1  0.21688600  0.42245900  0.50166400  1
  B  B0  1  0.70729600  0.88196600  0.97365800  1
  B  B1  1  0.29270400  0.11803400  0.97365800  1
  B  B2  1  0.88196600  0.29270400  0.02634200  1
  B  B3  1  0.11803400  0.70729600  0.02634200  1
  B  B4  1  0.18507000  0.97258500  0.96167900  1
  B  B5  1  0.81493000  0.02741500  0.96167900  1
  B  B6  1  0.97258500  0.81493000  0.03832100  1
  B  B7  1  0.02741500  0.18507000  0.03832100  1
  O  O0  1  0.76541600  0.95031100  0.84907400  1
  O  O1  1  0.23458400  0.04968900  0.84907400  1
  O  O2  1  0.95031100  0.23458400  0.15092600  1
  O  O3  1  0.04968900  0.76541600  0.15092600  1
  O  O4  1  0.96593500  0.82156000  0.74484500  1
  O  O5  1  0.03406500  0.17844000  0.74484500  1
  O  O6  1  0.82156000  0.03406500  0.25515500  1
  O  O7  1  0.17844000  0.96593500  0.25515500  1
  O  O8  1  0.50310100  0.71843300  0.72742700  1
  O  O9  1  0.49689900  0.28156700  0.72742700  1
  O  O10  1  0.71843300  0.49689900  0.27257300  1
  O  O11  1  0.28156700  0.50310100  0.27257300  1
  O  O12  1  0.34892800  0.85693200  0.26583700  1
  O  O13  1  0.65107200  0.14306800  0.26583700  1
  O  O14  1  0.85693200  0.65107200  0.73416300  1
  O  O15  1  0.14306800  0.34892800  0.73416300  1
  O  O16  1  0.51961000  0.81404300  0.26812000  1
  O  O17  1  0.48039000  0.18595700  0.26812000  1
  O  O18  1  0.81404300  0.48039000  0.73188000  1
  O  O19  1  0.18595700  0.51961000  0.73188000  1
  O  O20  1  0.32866600  0.74285300  0.72789400  1
  O  O21  1  0.67133400  0.25714700  0.72789400  1
  O  O22  1  0.74285300  0.67133400  0.27210600  1
  O  O23  1  0.25714700  0.32866600  0.27210600  1
  O  O24  1  0.22656600  0.89292100  0.81663000  1
  O  O25  1  0.77343400  0.10707900  0.81663000  1
  O  O26  1  0.89292100  0.77343400  0.18337000  1
  O  O27  1  0.10707900  0.22656600  0.18337000  1
  O  O28  1  0.50000000  0.00000000  0.17651100  1
  O  O29  1  0.00000000  0.50000000  0.82348900  1
  O  O30  1  0.61793900  0.89767200  0.83072000  1
  O  O31  1  0.38206100  0.10232800  0.83072000  1
  O  O32  1  0.89767200  0.38206100  0.16928000  1
  O  O33  1  0.10232800  0.61793900  0.16928000  1
  O  O34  1  0.09563800  0.97871800  0.79960100  1
  O  O35  1  0.90436200  0.02128200  0.79960100  1
  O  O36  1  0.97871800  0.90436200  0.20039900  1
  O  O37  1  0.02128200  0.09563800  0.20039900  1
  O  O38  1  0.70606000  0.87878800  0.27104400  1
  O  O39  1  0.29394000  0.12121200  0.27104400  1
  O  O40  1  0.87878800  0.29394000  0.72895600  1
  O  O41  1  0.12121200  0.70606000  0.72895600  1
  O  O42  1  0.55835300  0.60108600  0.16311900  1
  O  O43  1  0.44164700  0.39891400  0.16311900  1
  O  O44  1  0.60108600  0.44164700  0.83688100  1
  O  O45  1  0.39891400  0.55835300  0.83688100  1
  O  O46  1  0.39395000  0.68692400  0.26243000  1
  O  O47  1  0.60605000  0.31307600  0.26243000  1
  O  O48  1  0.68692400  0.60605000  0.73757000  1
  O  O49  1  0.31307600  0.39395000  0.73757000  1
  O  O50  1  0.20455200  0.73741700  0.16396800  1
  O  O51  1  0.79544800  0.26258300  0.16396800  1
  O  O52  1  0.73741700  0.79544800  0.83603200  1
  O  O53  1  0.26258300  0.20455200  0.83603200  1
  O  O54  1  0.43257700  0.88718500  0.73091000  1
  O  O55  1  0.56742300  0.11281500  0.73091000  1
  O  O56  1  0.88718500  0.56742300  0.26909000  1
  O  O57  1  0.11281500  0.43257700  0.26909000  1
loop_
_geom_bond_atom_site_label_1
_geom_bond_atom_site_label_2
_geom_bond_distance
_geom_bond_site_symmetry_2
Cd0 O0 2.337094 1_555
Cd0 O36 2.351030 1_555
Cd0 O4 2.360945 1_555
Cd0 O26 2.411934 1_555
Cd0 O6 2.452711 1_565
Cd0 O38 2.479138 1_555
Cd0 O35 2.552191 1_565
Cd1 O1 2.337094 1_555
Cd1 O37 2.351030 1_555
Cd1 O5 2.360945 1_555
Cd1 O27 2.411934 1_555
Cd1 O7 2.452711 1_545
Cd1 O39 2.479138 1_555
Cd1 O34 2.552191 1_545
Cd2 O2 2.337094 1_555
Cd2 O35 2.351030 1_555
Cd2 O6 2.360945 1_555
Cd2 O25 2.411934 1_555
Cd2 O5 2.452711 1_655
Cd2 O40 2.479138 1_555
Cd2 O37 2.552191 1_655
Cd3 O3 2.337094 1_555
Cd3 O34 2.351030 1_555
Cd3 O7 2.360945 1_555
Cd3 O24 2.411934 1_555
Cd3 O4 2.452711 1_455
Cd3 O41 2.479138 1_555
Cd3 O36 2.552191 1_455
Cd4 O22 2.288486 1_555
Cd4 O52 2.292808 1_555
Cd4 O16 2.294275 1_555
Cd4 O8 2.387865 1_555
Cd4 O38 2.406518 1_555
Cd4 O48 2.625039 1_555
Cd4 O30 2.713256 1_555
Cd5 O23 2.288486 1_555
Cd5 O53 2.292808 1_555
Cd5 O17 2.294275 1_555
Cd5 O9 2.387865 1_555
Cd5 O39 2.406518 1_555
Cd5 O49 2.625039 1_555
Cd5 O31 2.713256 1_555
Cd6 O21 2.288486 1_555
Cd6 O51 2.292808 1_555
Cd6 O18 2.294275 1_555
Cd6 O10 2.387865 1_555
Cd6 O40 2.406518 1_555
Cd6 O47 2.625039 1_555
Cd6 O32 2.713256 1_555
Cd7 O20 2.288486 1_555
Cd7 O50 2.292808 1_555
Cd7 O19 2.294275 1_555
Cd7 O11 2.387865 1_555
Cd7 O41 2.406518 1_555
Cd7 O46 2.625039 1_555
Cd7 O33 2.713256 1_555
Cd8 O13 2.289789 1_555
Cd8 O38 2.292850 1_545
Cd8 O0 2.397954 1_545
Cd8 O6 2.503141 1_555
Cd8 O30 2.532018 1_545
Cd8 O55 2.536308 1_555
Cd8 O25 2.623096 1_555
Cd9 O12 2.289789 1_555
Cd9 O39 2.292850 1_565
Cd9 O1 2.397954 1_565
Cd9 O7 2.503141 1_555
Cd9 O31 2.532018 1_565
Cd9 O54 2.536308 1_555
Cd9 O24 2.623096 1_555
Cd10 O15 2.289789 1_555
Cd10 O40 2.292850 1_455
Cd10 O2 2.397954 1_455
Cd10 O5 2.503141 1_555
Cd10 O32 2.532018 1_455
Cd10 O57 2.536308 1_555
Cd10 O27 2.623096 1_555
Cd11 O14 2.289789 1_555
Cd11 O41 2.292850 1_655
Cd11 O3 2.397954 1_655
Cd11 O4 2.503141 1_555
Cd11 O33 2.532018 1_655
Cd11 O56 2.536308 1_555
Cd11 O26 2.623096 1_555
Ge0 O36 1.766335 1_445
Ge0 O34 1.766335 1_544
Ge0 O37 1.766335 1_555
Ge0 O35 1.766335 1_454
Ge1 O30 1.775943 1_555
Ge1 O54 1.779416 1_555
Ge1 O16 1.782054 1_556
Ge1 O28 1.806074 1_566
Ge2 O31 1.775943 1_555
Ge2 O55 1.779416 1_555
Ge2 O17 1.782054 1_556
Ge2 O28 1.806074 1_556
Ge3 O32 1.775943 1_555
Ge3 O56 1.779416 1_555
Ge3 O18 1.782054 1_554
Ge3 O29 1.806074 1_654
Ge4 O33 1.775943 1_555
Ge4 O57 1.779416 1_555
Ge4 O19 1.782054 1_554
Ge4 O29 1.806074 1_554
Ge5 O24 1.773448 1_554
Ge5 O50 1.775533 1_555
Ge5 O20 1.776866 1_554
Ge5 O12 1.778667 1_555
Ge6 O25 1.773448 1_554
Ge6 O51 1.775533 1_555
Ge6 O21 1.776866 1_554
Ge6 O13 1.778667 1_555
Ge7 O26 1.773448 1_556
Ge7 O52 1.775533 1_555
Ge7 O22 1.776866 1_556
Ge7 O14 1.778667 1_555
Ge8 O27 1.773448 1_556
Ge8 O53 1.775533 1_555
Ge8 O23 1.776866 1_556
Ge8 O15 1.778667 1_555
Ge9 O46 1.774636 1_556
Ge9 O45 1.787619 1_555
Ge9 O42 1.790251 1_556
Ge9 O8 1.797023 1_555
Ge10 O47 1.774636 1_556
Ge10 O44 1.787619 1_555
Ge10 O43 1.790251 1_556
Ge10 O9 1.797023 1_555
Ge11 O48 1.774636 1_554
Ge11 O42 1.787619 1_555
Ge11 O44 1.790251 1_554
Ge11 O10 1.797023 1_555
Ge12 O49 1.774636 1_554
Ge12 O43 1.787619 1_555
Ge12 O45 1.790251 1_554
Ge12 O11 1.797023 1_555
Ge13 O46 1.891982 1_555
Ge13 O20 1.895627 1_555
Ge13 O16 1.896040 1_555
Ge13 O8 1.910567 1_555
Ge13 O12 1.930010 1_555
Ge13 O54 1.934808 1_555
Ge14 O47 1.891982 1_555
Ge14 O21 1.895627 1_555
Ge14 O17 1.896040 1_555
Ge14 O9 1.910567 1_555
Ge14 O13 1.930010 1_555
Ge14 O55 1.934808 1_555
Ge15 O48 1.891982 1_555
Ge15 O22 1.895627 1_555
Ge15 O18 1.896040 1_555
Ge15 O10 1.910567 1_555
Ge15 O14 1.930010 1_555
Ge15 O56 1.934808 1_555
Ge16 O49 1.891982 1_555
Ge16 O23 1.895627 1_555
Ge16 O19 1.896040 1_555
Ge16 O11 1.910567 1_555
Ge16 O15 1.930010 1_555
Ge16 O57 1.934808 1_555
B0 O38 1.419783 1_556
B0 O0 1.484184 1_555
B0 O30 1.535082 1_555
B0 O52 1.536103 1_555
B1 O39 1.419783 1_556
B1 O1 1.484184 1_555
B1 O31 1.535082 1_555
B1 O53 1.536103 1_555
B2 O40 1.419783 1_554
B2 O2 1.484184 1_555
B2 O32 1.535082 1_555
B2 O51 1.536103 1_555
B3 O41 1.419783 1_554
B3 O3 1.484184 1_555
B3 O33 1.535082 1_555
B3 O50 1.536103 1_555
B4 O7 1.407404 1_556
B4 O1 1.489302 1_565
B4 O24 1.527365 1_555
B4 O34 1.563461 1_555
B5 O6 1.407404 1_556
B5 O0 1.489302 1_545
B5 O25 1.527365 1_555
B5 O35 1.563461 1_555
B6 O4 1.407404 1_554
B6 O3 1.489302 1_655
B6 O26 1.527365 1_555
B6 O36 1.563461 1_555
B7 O5 1.407404 1_554
B7 O2 1.489302 1_455
B7 O27 1.527365 1_555
B7 O37 1.563461 1_555
