# generated using pymatgen
data_KSmO2
_symmetry_space_group_name_H-M   'P 1'
_cell_length_a   6.54531492
_cell_length_b   6.54531492
_cell_length_c   6.54531373
_cell_angle_alpha   31.58228840
_cell_angle_beta   31.58228840
_cell_angle_gamma   31.58229944
_symmetry_Int_Tables_number   1
_chemical_formula_structural   KSmO2
_chemical_formula_sum   'K1 Sm1 O2'
_cell_volume   68.29121543
_cell_formula_units_Z   1
loop_
 _symmetry_equiv_pos_site_id
 _symmetry_equiv_pos_as_xyz
  1  'x, y, z'
loop_
 _atom_site_type_symbol
 _atom_site_label
 _atom_site_symmetry_multiplicity
 _atom_site_fract_x
 _atom_site_fract_y
 _atom_site_fract_z
 _atom_site_occupancy
  K  K0  1  0.00000000  0.00000000  0.00000000  1
  Sm  Sm0  1  0.50000000  0.50000000  0.50000000  1
  O  O0  1  0.23031456  0.23031456  0.23031456  1
  O  O1  1  0.76968544  0.76968544  0.76968544  1
loop_
_geom_bond_atom_site_label_1
_geom_bond_atom_site_label_2
_geom_bond_distance
_geom_bond_site_symmetry_2
K0 O0 2.813916 1_554
K0 O1 2.813916 1_445
K0 O0 2.813917 1_545
K0 O0 2.813917 1_455
K0 O1 2.813917 1_454
K0 O1 2.813917 1_544
O0 Sm0 2.374426 1_554
O0 Sm0 2.374428 1_455
O0 Sm0 2.374428 1_545
O1 Sm0 2.374426 1_556
O1 Sm0 2.374428 1_565
O1 Sm0 2.374428 1_655
