# generated using pymatgen
data_RbGdTe4
_symmetry_space_group_name_H-M   'P 1'
_cell_length_a   6.91652978
_cell_length_b   6.91652978
_cell_length_c   9.13765351
_cell_angle_alpha   90.00000000
_cell_angle_beta   90.00000000
_cell_angle_gamma   90.00000000
_symmetry_Int_Tables_number   1
_chemical_formula_structural   RbGdTe4
_chemical_formula_sum   'Rb2 Gd2 Te8'
_cell_volume   437.13057928
_cell_formula_units_Z   2
loop_
 _symmetry_equiv_pos_site_id
 _symmetry_equiv_pos_as_xyz
  1  'x, y, z'
loop_
 _atom_site_type_symbol
 _atom_site_label
 _atom_site_symmetry_multiplicity
 _atom_site_fract_x
 _atom_site_fract_y
 _atom_site_fract_z
 _atom_site_occupancy
  Rb  Rb0  1  0.75000000  0.75000000  0.00000000  1
  Rb  Rb1  1  0.25000000  0.25000000  0.00000000  1
  Gd  Gd0  1  0.75000000  0.75000000  0.50000000  1
  Gd  Gd1  1  0.25000000  0.25000000  0.50000000  1
  Te  Te0  1  0.60671858  0.10671858  0.29756181  1
  Te  Te1  1  0.39328142  0.60671858  0.29756181  1
  Te  Te2  1  0.10671858  0.89328142  0.29756181  1
  Te  Te3  1  0.60671858  0.39328142  0.70243819  1
  Te  Te4  1  0.89328142  0.10671858  0.70243819  1
  Te  Te5  1  0.89328142  0.39328142  0.29756181  1
  Te  Te6  1  0.10671858  0.60671858  0.70243819  1
  Te  Te7  1  0.39328142  0.89328142  0.70243819  1
loop_
_geom_bond_atom_site_label_1
_geom_bond_atom_site_label_2
_geom_bond_distance
_geom_bond_site_symmetry_2
Rb0 Te2 3.802959 1_655
Rb0 Te0 3.802959 1_565
Rb0 Te1 3.802959 1_555
Rb0 Te6 3.802959 1_654
Rb0 Te5 3.802959 1_555
Rb0 Te4 3.802959 1_564
Rb0 Te7 3.802959 1_554
Rb0 Te3 3.802959 1_554
Rb1 Te1 3.802959 1_555
Rb1 Te5 3.802959 1_455
Rb1 Te2 3.802959 1_545
Rb1 Te0 3.802959 1_555
Rb1 Te7 3.802959 1_544
Rb1 Te4 3.802959 1_454
Rb1 Te6 3.802959 1_554
Rb1 Te3 3.802959 1_554
Gd0 Te6 3.239019 1_655
Gd0 Te4 3.239019 1_565
Gd0 Te0 3.239019 1_565
Gd0 Te2 3.239019 1_655
Gd0 Te3 3.239019 1_555
Gd0 Te7 3.239019 1_555
Gd0 Te1 3.239019 1_555
Gd0 Te5 3.239019 1_555
Gd1 Te6 3.239019 1_555
Gd1 Te4 3.239019 1_455
Gd1 Te3 3.239019 1_555
Gd1 Te0 3.239019 1_555
Gd1 Te1 3.239019 1_555
Gd1 Te7 3.239019 1_545
Gd1 Te5 3.239019 1_455
Gd1 Te2 3.239019 1_545
Te0 Te5 2.803000 1_555
Te1 Te2 2.803000 1_555
Te3 Te4 2.803000 1_555
Te6 Te7 2.803000 1_555
