# generated using pymatgen
data_Ba5LiMo2N7Cl2
_symmetry_space_group_name_H-M   'P 1'
_cell_length_a   6.14335200
_cell_length_b   11.26939489
_cell_length_c   11.38412096
_cell_angle_alpha   95.54320922
_cell_angle_beta   90.00000000
_cell_angle_gamma   90.00000000
_symmetry_Int_Tables_number   1
_chemical_formula_structural   Ba5LiMo2N7Cl2
_chemical_formula_sum   'Ba10 Li2 Mo4 N14 Cl4'
_cell_volume   784.45821534
_cell_formula_units_Z   2
loop_
 _symmetry_equiv_pos_site_id
 _symmetry_equiv_pos_as_xyz
  1  'x, y, z'
loop_
 _atom_site_type_symbol
 _atom_site_label
 _atom_site_symmetry_multiplicity
 _atom_site_fract_x
 _atom_site_fract_y
 _atom_site_fract_z
 _atom_site_occupancy
  Ba  Ba0  1  0.75000000  0.01761200  0.36857600  1
  Ba  Ba1  1  0.25000000  0.98238800  0.63142400  1
  Ba  Ba2  1  0.75000000  0.37508000  0.43901000  1
  Ba  Ba3  1  0.25000000  0.62492000  0.56099000  1
  Ba  Ba4  1  0.75000000  0.80616100  0.88418800  1
  Ba  Ba5  1  0.25000000  0.19383900  0.11581200  1
  Ba  Ba6  1  0.75000000  0.20331000  0.70228300  1
  Ba  Ba7  1  0.25000000  0.79669000  0.29771700  1
  Ba  Ba8  1  0.75000000  0.50408200  0.12147900  1
  Ba  Ba9  1  0.25000000  0.49591800  0.87852100  1
  Li  Li0  1  0.75000000  0.67046500  0.37455100  1
  Li  Li1  1  0.25000000  0.32953500  0.62544900  1
  Mo  Mo0  1  0.75000000  0.82496700  0.58545400  1
  Mo  Mo1  1  0.25000000  0.17503300  0.41454600  1
  Mo  Mo2  1  0.75000000  0.52741200  0.72573100  1
  Mo  Mo3  1  0.25000000  0.47258800  0.27426900  1
  N  N0  1  0.50449400  0.44128800  0.67416400  1
  N  N1  1  0.00449400  0.55871200  0.32583600  1
  N  N2  1  0.49550600  0.55871200  0.32583600  1
  N  N3  1  0.99550600  0.44128800  0.67416400  1
  N  N4  1  0.75000000  0.68011100  0.66275400  1
  N  N5  1  0.25000000  0.31988900  0.33724600  1
  N  N6  1  0.75000000  0.95110700  0.70443800  1
  N  N7  1  0.25000000  0.04889300  0.29556200  1
  N  N8  1  0.50743100  0.83135300  0.48901800  1
  N  N9  1  0.00743100  0.16864700  0.51098200  1
  N  N10  1  0.49256900  0.16864700  0.51098200  1
  N  N11  1  0.99256900  0.83135300  0.48901800  1
  N  N12  1  0.75000000  0.56178600  0.89015000  1
  N  N13  1  0.25000000  0.43821400  0.10985000  1
  Cl  Cl0  1  0.75000000  0.79459600  0.16694800  1
  Cl  Cl1  1  0.25000000  0.20540400  0.83305200  1
  Cl  Cl2  1  0.75000000  0.21122000  0.14219700  1
  Cl  Cl3  1  0.25000000  0.78878000  0.85780300  1
loop_
_geom_bond_atom_site_label_1
_geom_bond_atom_site_label_2
_geom_bond_distance
_geom_bond_site_symmetry_2
Ba0 N9 2.737382 1_655
Ba0 N10 2.737382 1_555
Ba0 N11 3.010410 1_545
Ba0 N8 3.010410 1_545
Ba0 N7 3.210446 1_655
Ba0 N7 3.210446 1_555
Ba0 Cl0 3.235834 1_545
Ba0 Cl2 3.533883 1_555
Ba1 N8 2.737382 1_555
Ba1 N11 2.737382 1_455
Ba1 N10 3.010410 1_565
Ba1 N9 3.010410 1_565
Ba1 N6 3.210446 1_455
Ba1 N6 3.210446 1_555
Ba1 Cl1 3.235834 1_565
Ba1 Cl3 3.533883 1_555
Ba2 N1 2.983606 1_655
Ba2 N2 2.983606 1_555
Ba2 N9 2.992104 1_655
Ba2 N10 2.992104 1_555
Ba2 N0 3.100326 1_555
Ba2 N3 3.100326 1_555
Ba2 N5 3.320383 1_555
Ba2 N5 3.320383 1_655
Ba2 Cl2 3.690777 1_555
Ba3 N3 2.983606 1_455
Ba3 N0 2.983606 1_555
Ba3 N8 2.992104 1_555
Ba3 N11 2.992104 1_455
Ba3 N1 3.100326 1_555
Ba3 N2 3.100326 1_555
Ba3 N4 3.320383 1_555
Ba3 N4 3.320383 1_455
Ba3 Cl3 3.690777 1_555
Ba4 N6 2.738841 1_555
Ba4 N12 2.761341 1_555
Ba4 N4 2.771396 1_555
Ba4 Cl3 3.090698 1_655
Ba4 Cl3 3.090698 1_555
Ba4 Cl0 3.234166 1_556
Ba5 N7 2.738841 1_555
Ba5 N13 2.761341 1_555
Ba5 N5 2.771396 1_555
Ba5 Cl2 3.090698 1_455
Ba5 Cl2 3.090698 1_555
Ba5 Cl1 3.234166 1_554
Ba6 N9 2.689263 1_655
Ba6 N10 2.689263 1_555
Ba6 N6 2.844650 1_545
Ba6 N3 3.120176 1_555
Ba6 N0 3.120176 1_555
Ba6 Cl1 3.412501 1_555
Ba6 Cl1 3.412501 1_655
Ba7 N8 2.689263 1_555
Ba7 N11 2.689263 1_455
Ba7 N7 2.844650 1_565
Ba7 N1 3.120176 1_555
Ba7 N2 3.120176 1_555
Ba7 Cl0 3.412501 1_455
Ba7 Cl0 3.412501 1_555
Ba8 N12 2.772891 1_554
Ba8 N1 2.821159 1_655
Ba8 N2 2.821159 1_555
Ba8 N13 3.159863 1_655
Ba8 N13 3.159863 1_555
Ba8 Cl0 3.264823 1_555
Ba8 Cl2 3.331442 1_555
Ba9 N13 2.772891 1_556
Ba9 N3 2.821159 1_455
Ba9 N0 2.821159 1_555
Ba9 N12 3.159863 1_455
Ba9 N12 3.159863 1_555
Ba9 Cl1 3.264823 1_555
Ba9 Cl3 3.331442 1_555
Li0 N2 2.050134 1_555
Li0 N1 2.050134 1_655
Li0 N11 2.598011 1_555
Li0 N8 2.598011 1_555
Li1 N3 2.050134 1_455
Li1 N0 2.050134 1_555
Li1 N10 2.598011 1_555
Li1 N9 2.598011 1_555
Mo0 N11 1.856435 1_555
Mo0 N8 1.856435 1_555
Mo0 N6 1.866408 1_555
Mo0 N4 1.927894 1_555
Mo1 N10 1.856435 1_555
Mo1 N9 1.856435 1_555
Mo1 N7 1.866408 1_555
Mo1 N5 1.927894 1_555
Mo2 N0 1.857768 1_555
Mo2 N3 1.857768 1_555
Mo2 N12 1.874430 1_555
Mo2 N4 1.927067 1_555
Mo3 N1 1.857768 1_555
Mo3 N2 1.857768 1_555
Mo3 N13 1.874430 1_555
Mo3 N5 1.927067 1_555
Cl0 Li0 2.860268 1_555
Cl1 Li1 2.860268 1_555
