# generated using pymatgen
data_Cs2Mn2(MoO4)3
_symmetry_space_group_name_H-M   'P 1'
_cell_length_a   11.27290100
_cell_length_b   11.27290100
_cell_length_c   11.27290100
_cell_angle_alpha   90.00000000
_cell_angle_beta   90.00000000
_cell_angle_gamma   90.00000000
_symmetry_Int_Tables_number   1
_chemical_formula_structural   Cs2Mn2(MoO4)3
_chemical_formula_sum   'Cs8 Mn8 Mo12 O48'
_cell_volume   1432.54106083
_cell_formula_units_Z   4
loop_
 _symmetry_equiv_pos_site_id
 _symmetry_equiv_pos_as_xyz
  1  'x, y, z'
loop_
 _atom_site_type_symbol
 _atom_site_label
 _atom_site_symmetry_multiplicity
 _atom_site_fract_x
 _atom_site_fract_y
 _atom_site_fract_z
 _atom_site_occupancy
  Cs  Cs0  1  0.04978500  0.04978500  0.04978500  1
  Cs  Cs1  1  0.45021500  0.95021500  0.54978500  1
  Cs  Cs2  1  0.95021500  0.54978500  0.45021500  1
  Cs  Cs3  1  0.54978500  0.45021500  0.95021500  1
  Cs  Cs4  1  0.81792300  0.81792300  0.81792300  1
  Cs  Cs5  1  0.68207700  0.18207700  0.31792300  1
  Cs  Cs6  1  0.18207700  0.31792300  0.68207700  1
  Cs  Cs7  1  0.31792300  0.68207700  0.18207700  1
  Mn  Mn0  1  0.33547400  0.33547400  0.33547400  1
  Mn  Mn1  1  0.16452600  0.66452600  0.83547400  1
  Mn  Mn2  1  0.66452600  0.83547400  0.16452600  1
  Mn  Mn3  1  0.83547400  0.16452600  0.66452600  1
  Mn  Mn4  1  0.60084500  0.60084500  0.60084500  1
  Mn  Mn5  1  0.89915500  0.39915500  0.10084500  1
  Mn  Mn6  1  0.39915500  0.10084500  0.89915500  1
  Mn  Mn7  1  0.10084500  0.89915500  0.39915500  1
  Mo  Mo0  1  0.01997500  0.21440500  0.37599900  1
  Mo  Mo1  1  0.48002500  0.78559500  0.87599900  1
  Mo  Mo2  1  0.98002500  0.71440500  0.12400100  1
  Mo  Mo3  1  0.37599900  0.01997500  0.21440500  1
  Mo  Mo4  1  0.51997500  0.28559500  0.62400100  1
  Mo  Mo5  1  0.87599900  0.48002500  0.78559500  1
  Mo  Mo6  1  0.12400100  0.98002500  0.71440500  1
  Mo  Mo7  1  0.62400100  0.51997500  0.28559500  1
  Mo  Mo8  1  0.21440500  0.37599900  0.01997500  1
  Mo  Mo9  1  0.71440500  0.12400100  0.98002500  1
  Mo  Mo10  1  0.28559500  0.62400100  0.51997500  1
  Mo  Mo11  1  0.78559500  0.87599900  0.48002500  1
  O  O0  1  0.01420500  0.06126200  0.32976700  1
  O  O1  1  0.48579500  0.93873800  0.82976700  1
  O  O2  1  0.98579500  0.56126200  0.17023300  1
  O  O3  1  0.32976700  0.01420500  0.06126200  1
  O  O4  1  0.51420500  0.43873800  0.67023300  1
  O  O5  1  0.82976700  0.48579500  0.93873800  1
  O  O6  1  0.17023300  0.98579500  0.56126200  1
  O  O7  1  0.67023300  0.51420500  0.43873800  1
  O  O8  1  0.06126200  0.32976700  0.01420500  1
  O  O9  1  0.56126200  0.17023300  0.98579500  1
  O  O10  1  0.43873800  0.67023300  0.51420500  1
  O  O11  1  0.93873800  0.82976700  0.48579500  1
  O  O12  1  0.26777300  0.48928600  0.43575400  1
  O  O13  1  0.23222700  0.51071400  0.93575400  1
  O  O14  1  0.73222700  0.98928600  0.06424600  1
  O  O15  1  0.43575400  0.26777300  0.48928600  1
  O  O16  1  0.76777300  0.01071400  0.56424600  1
  O  O17  1  0.93575400  0.23222700  0.51071400  1
  O  O18  1  0.06424600  0.73222700  0.98928600  1
  O  O19  1  0.56424600  0.76777300  0.01071400  1
  O  O20  1  0.48928600  0.43575400  0.26777300  1
  O  O21  1  0.98928600  0.06424600  0.73222700  1
  O  O22  1  0.01071400  0.56424600  0.76777300  1
  O  O23  1  0.51071400  0.93575400  0.23222700  1
  O  O24  1  0.04698800  0.80783800  0.23511100  1
  O  O25  1  0.45301200  0.19216200  0.73511100  1
  O  O26  1  0.95301200  0.30783800  0.26488900  1
  O  O27  1  0.23511100  0.04698800  0.80783800  1
  O  O28  1  0.54698800  0.69216200  0.76488900  1
  O  O29  1  0.73511100  0.45301200  0.19216200  1
  O  O30  1  0.26488900  0.95301200  0.30783800  1
  O  O31  1  0.76488900  0.54698800  0.69216200  1
  O  O32  1  0.80783800  0.23511100  0.04698800  1
  O  O33  1  0.30783800  0.26488900  0.95301200  1
  O  O34  1  0.69216200  0.76488900  0.54698800  1
  O  O35  1  0.19216200  0.73511100  0.45301200  1
  O  O36  1  0.17054800  0.25921300  0.40129200  1
  O  O37  1  0.32945200  0.74078700  0.90129200  1
  O  O38  1  0.82945200  0.75921300  0.09870800  1
  O  O39  1  0.40129200  0.17054800  0.25921300  1
  O  O40  1  0.67054800  0.24078700  0.59870800  1
  O  O41  1  0.90129200  0.32945200  0.74078700  1
  O  O42  1  0.09870800  0.82945200  0.75921300  1
  O  O43  1  0.59870800  0.67054800  0.24078700  1
  O  O44  1  0.25921300  0.40129200  0.17054800  1
  O  O45  1  0.75921300  0.09870800  0.82945200  1
  O  O46  1  0.24078700  0.59870800  0.67054800  1
  O  O47  1  0.74078700  0.90129200  0.32945200  1
loop_
_geom_bond_atom_site_label_1
_geom_bond_atom_site_label_2
_geom_bond_distance
_geom_bond_site_symmetry_2
Cs0 O0 3.184222 1_555
Cs0 O8 3.184222 1_555
Cs0 O3 3.184222 1_555
Cs0 O24 3.435774 1_545
Cs0 O27 3.435774 1_554
Cs0 O32 3.435774 1_455
Cs0 O21 3.647830 1_454
Cs0 O18 3.647830 1_544
Cs0 O14 3.647830 1_445
Cs1 O1 3.184222 1_555
Cs1 O10 3.184222 1_555
Cs1 O6 3.184222 1_555
Cs1 O34 3.435774 1_555
Cs1 O30 3.435774 1_555
Cs1 O25 3.435774 1_565
Cs1 O16 3.647830 1_565
Cs1 O23 3.647830 1_555
Cs1 O15 3.647830 1_565
Cs2 O11 3.184222 1_555
Cs2 O7 3.184222 1_555
Cs2 O2 3.184222 1_555
Cs2 O31 3.435774 1_555
Cs2 O26 3.435774 1_555
Cs2 O35 3.435774 1_655
Cs2 O22 3.647830 1_655
Cs2 O17 3.647830 1_555
Cs2 O12 3.647830 1_655
Cs3 O5 3.184222 1_555
Cs3 O4 3.184222 1_555
Cs3 O9 3.184222 1_555
Cs3 O28 3.435774 1_555
Cs3 O33 3.435774 1_555
Cs3 O29 3.435774 1_556
Cs3 O19 3.647830 1_556
Cs3 O13 3.647830 1_555
Cs3 O20 3.647830 1_556
Cs4 O38 3.236324 1_556
Cs4 O45 3.236324 1_565
Cs4 O42 3.236324 1_655
Cs4 O31 3.419876 1_555
Cs4 O34 3.419876 1_555
Cs4 O28 3.419876 1_555
Cs4 O14 3.517870 1_556
Cs4 O21 3.517870 1_565
Cs4 O18 3.517870 1_655
Cs4 O19 3.636020 1_556
Cs4 O16 3.636020 1_565
Cs4 O22 3.636020 1_655
Cs5 O39 3.236324 1_555
Cs5 O40 3.236324 1_555
Cs5 O47 3.236324 1_545
Cs5 O29 3.419876 1_555
Cs5 O26 3.419876 1_555
Cs5 O32 3.419876 1_555
Cs5 O15 3.517870 1_555
Cs5 O23 3.517870 1_545
Cs5 O16 3.517870 1_555
Cs5 O20 3.636020 1_555
Cs5 O14 3.636020 1_545
Cs5 O17 3.636020 1_555
Cs6 O36 3.236324 1_555
Cs6 O46 3.236324 1_555
Cs6 O41 3.236324 1_455
Cs6 O25 3.419876 1_555
Cs6 O33 3.419876 1_555
Cs6 O27 3.419876 1_555
Cs6 O12 3.517870 1_555
Cs6 O17 3.517870 1_455
Cs6 O22 3.517870 1_555
Cs6 O15 3.636020 1_555
Cs6 O21 3.636020 1_455
Cs6 O13 3.636020 1_555
Cs7 O44 3.236324 1_555
Cs7 O43 3.236324 1_555
Cs7 O37 3.236324 1_554
Cs7 O35 3.419876 1_555
Cs7 O30 3.419876 1_555
Cs7 O24 3.419876 1_555
Cs7 O20 3.517870 1_555
Cs7 O13 3.517870 1_554
Cs7 O19 3.517870 1_555
Cs7 O12 3.636020 1_555
Cs7 O18 3.636020 1_554
Cs7 O23 3.636020 1_555
Mn0 O44 2.178569 1_555
Mn0 O36 2.178569 1_555
Mn0 O39 2.178569 1_555
Mn0 O15 2.206082 1_555
Mn0 O12 2.206082 1_555
Mn0 O20 2.206082 1_555
Mn1 O37 2.178569 1_555
Mn1 O46 2.178569 1_555
Mn1 O42 2.178569 1_555
Mn1 O22 2.206082 1_555
Mn1 O13 2.206082 1_555
Mn1 O18 2.206082 1_555
Mn2 O47 2.178569 1_555
Mn2 O43 2.178569 1_555
Mn2 O38 2.178569 1_555
Mn2 O19 2.206082 1_555
Mn2 O23 2.206082 1_555
Mn2 O14 2.206082 1_555
Mn3 O41 2.178569 1_555
Mn3 O40 2.178569 1_555
Mn3 O45 2.178569 1_555
Mn3 O16 2.206082 1_555
Mn3 O17 2.206082 1_555
Mn3 O21 2.206082 1_555
Mn4 O28 2.201820 1_555
Mn4 O34 2.201820 1_555
Mn4 O31 2.201820 1_555
Mn4 O7 2.214770 1_555
Mn4 O4 2.214770 1_555
Mn4 O10 2.214770 1_555
Mn5 O29 2.201820 1_555
Mn5 O32 2.201820 1_555
Mn5 O26 2.201820 1_555
Mn5 O5 2.214770 1_554
Mn5 O2 2.214770 1_555
Mn5 O8 2.214770 1_655
Mn6 O25 2.201820 1_555
Mn6 O27 2.201820 1_555
Mn6 O33 2.201820 1_555
Mn6 O1 2.214770 1_545
Mn6 O9 2.214770 1_555
Mn6 O3 2.214770 1_556
Mn7 O35 2.201820 1_555
Mn7 O24 2.201820 1_555
Mn7 O30 2.201820 1_555
Mn7 O11 2.214770 1_455
Mn7 O6 2.214770 1_555
Mn7 O0 2.214770 1_565
Mo0 O36 1.793763 1_555
Mo0 O17 1.802217 1_455
Mo0 O26 1.802226 1_455
Mo0 O0 1.804491 1_555
Mo1 O37 1.793763 1_555
Mo1 O19 1.802217 1_556
Mo1 O28 1.802226 1_555
Mo1 O1 1.804491 1_555
Mo2 O38 1.793763 1_555
Mo2 O18 1.802217 1_654
Mo2 O24 1.802226 1_655
Mo2 O2 1.804491 1_555
Mo3 O39 1.793763 1_555
Mo3 O23 1.802217 1_545
Mo3 O30 1.802226 1_545
Mo3 O3 1.804491 1_555
Mo4 O40 1.793763 1_555
Mo4 O15 1.802217 1_555
Mo4 O25 1.802226 1_555
Mo4 O4 1.804491 1_555
Mo5 O41 1.793763 1_555
Mo5 O22 1.802217 1_655
Mo5 O31 1.802226 1_555
Mo5 O5 1.804491 1_555
Mo6 O42 1.793763 1_555
Mo6 O21 1.802217 1_465
Mo6 O27 1.802226 1_565
Mo6 O6 1.804491 1_555
Mo7 O43 1.793763 1_555
Mo7 O20 1.802217 1_555
Mo7 O29 1.802226 1_555
Mo7 O7 1.804491 1_555
Mo8 O44 1.793763 1_555
Mo8 O13 1.802217 1_554
Mo8 O33 1.802226 1_554
Mo8 O8 1.804491 1_555
Mo9 O45 1.793763 1_555
Mo9 O14 1.802217 1_546
Mo9 O32 1.802226 1_556
Mo9 O9 1.804491 1_555
Mo10 O46 1.793763 1_555
Mo10 O12 1.802217 1_555
Mo10 O35 1.802226 1_555
Mo10 O10 1.804491 1_555
Mo11 O47 1.793763 1_555
Mo11 O16 1.802217 1_565
Mo11 O34 1.802226 1_555
Mo11 O11 1.804491 1_555
