# generated using pymatgen
data_Sm2NiB10
_symmetry_space_group_name_H-M   'P 1'
_cell_length_a   4.17095482
_cell_length_b   5.58752463
_cell_length_c   11.13907856
_cell_angle_alpha   90.00000000
_cell_angle_beta   90.00000000
_cell_angle_gamma   90.00000000
_symmetry_Int_Tables_number   1
_chemical_formula_structural   Sm2NiB10
_chemical_formula_sum   'Sm4 Ni2 B20'
_cell_volume   259.59971000
_cell_formula_units_Z   2
loop_
 _symmetry_equiv_pos_site_id
 _symmetry_equiv_pos_as_xyz
  1  'x, y, z'
loop_
 _atom_site_type_symbol
 _atom_site_label
 _atom_site_symmetry_multiplicity
 _atom_site_fract_x
 _atom_site_fract_y
 _atom_site_fract_z
 _atom_site_occupancy
  Sm  Sm0  1  0.50000000  0.18697156  0.36286976  1
  Sm  Sm1  1  0.50000000  0.81302844  0.63713024  1
  Sm  Sm2  1  0.50000000  0.31302844  0.86286976  1
  Sm  Sm3  1  0.50000000  0.68697156  0.13713024  1
  Ni  Ni0  1  -0.00000000  -0.00000000  -0.00000000  1
  Ni  Ni1  1  -0.00000000  0.50000000  0.50000000  1
  B  B0  1  -0.00000000  0.37324866  0.04114816  1
  B  B1  1  -0.00000000  0.62675134  0.95885184  1
  B  B2  1  -0.00000000  0.12675134  0.54114816  1
  B  B3  1  -0.00000000  0.87324866  0.45885184  1
  B  B4  1  -0.00000000  0.34004423  0.19814194  1
  B  B5  1  -0.00000000  0.65995577  0.80185806  1
  B  B6  1  -0.00000000  0.15995577  0.69814194  1
  B  B7  1  -0.00000000  0.84004423  0.30185806  1
  B  B8  1  -0.00000000  0.02979777  0.18627469  1
  B  B9  1  -0.00000000  0.97020223  0.81372531  1
  B  B10  1  -0.00000000  0.47020223  0.68627469  1
  B  B11  1  -0.00000000  0.52979777  0.31372531  1
  B  B12  1  0.30053834  0.19976017  0.11403930  1
  B  B13  1  0.69946166  0.80023983  0.88596070  1
  B  B14  1  0.30053834  0.80023983  0.88596070  1
  B  B15  1  0.69946166  0.30023983  0.61403930  1
  B  B16  1  0.69946166  0.19976017  0.11403930  1
  B  B17  1  0.30053834  0.69976017  0.38596070  1
  B  B18  1  0.69946166  0.69976017  0.38596070  1
  B  B19  1  0.30053834  0.30023983  0.61403930  1
loop_
_geom_bond_atom_site_label_1
_geom_bond_atom_site_label_2
_geom_bond_distance
_geom_bond_site_symmetry_2
Ni0 Sm3 3.121166 1_445
Ni0 Sm3 3.121166 1_545
Ni0 Sm2 3.121166 1_554
Ni0 Sm2 3.121166 1_454
Ni1 Sm1 3.121166 1_555
Ni1 Sm1 3.121166 1_455
Ni1 Sm0 3.121166 1_555
Ni1 Sm0 3.121166 1_455
B0 B1 1.687212 1_554
B0 B4 1.758580 1_555
B0 B16 1.780525 1_455
B0 B12 1.780525 1_555
B0 Ni0 2.135310 1_555
B0 Sm2 2.899321 1_454
B0 Sm2 2.899321 1_554
B0 Sm3 2.926616 1_455
B0 Sm3 2.926616 1_555
B1 B5 1.758580 1_555
B1 B14 1.780525 1_555
B1 B13 1.780525 1_455
B1 Ni0 2.135310 1_566
B1 Sm3 2.899321 1_456
B1 Sm3 2.899321 1_556
B1 Sm2 2.926616 1_555
B1 Sm2 2.926616 1_455
B2 B3 1.687212 1_545
B2 B6 1.758580 1_555
B2 Ni1 2.135310 1_555
B2 Sm0 2.899321 1_455
B2 Sm0 2.899321 1_555
B2 Sm1 2.926616 1_445
B2 Sm1 2.926616 1_545
B3 B7 1.758580 1_555
B3 Ni1 2.135310 1_555
B3 Sm1 2.899321 1_555
B3 Sm1 2.899321 1_455
B3 Sm0 2.926616 1_565
B3 Sm0 2.926616 1_465
B4 B8 1.738543 1_555
B4 Sm0 2.906487 1_455
B4 Sm0 2.906487 1_555
B4 Sm3 2.927241 1_455
B4 Sm3 2.927241 1_555
B5 B9 1.738543 1_555
B5 Sm1 2.906487 1_555
B5 Sm1 2.906487 1_455
B5 Sm2 2.927241 1_455
B5 Sm2 2.927241 1_555
B6 B9 1.667864 1_545
B6 Sm2 2.906487 1_455
B6 Sm2 2.906487 1_555
B6 Sm1 2.927241 1_445
B6 Sm1 2.927241 1_545
B7 B8 1.667864 1_565
B7 Sm3 2.906487 1_455
B7 Sm3 2.906487 1_555
B7 Sm0 2.927241 1_565
B7 Sm0 2.927241 1_465
B8 Ni0 2.081598 1_555
B8 Sm3 2.884133 1_545
B8 Sm3 2.884133 1_445
B8 Sm0 2.998330 1_555
B8 Sm0 2.998330 1_455
B9 Ni0 2.081598 1_566
B9 Sm2 2.884133 1_465
B9 Sm2 2.884133 1_565
B9 Sm1 2.998330 1_555
B9 Sm1 2.998330 1_455
B10 B5 1.667864 1_555
B10 B6 1.738543 1_555
B10 B15 1.766537 1_455
B10 B19 1.766537 1_555
B10 Ni1 2.081598 1_555
B10 Sm1 2.884133 1_555
B10 Sm1 2.884133 1_455
B10 Sm2 2.998330 1_555
B10 Sm2 2.998330 1_455
B11 B4 1.667864 1_555
B11 B7 1.738543 1_555
B11 B17 1.766537 1_555
B11 B18 1.766537 1_455
B11 Ni1 2.081598 1_555
B11 Sm0 2.884133 1_455
B11 Sm0 2.884133 1_555
B11 Sm3 2.998330 1_455
B11 Sm3 2.998330 1_555
B12 B16 1.663891 1_555
B12 B4 1.750255 1_555
B12 B8 1.766537 1_555
B12 Ni0 2.104949 1_555
B12 Sm3 2.858188 1_555
B12 Sm0 2.894787 1_555
B12 Sm2 2.986696 1_554
B12 Sm3 2.994624 1_545
B13 B14 1.663891 1_555
B13 B5 1.750255 1_655
B13 B9 1.766537 1_655
B13 Ni0 2.104949 1_666
B13 Sm2 2.858188 1_555
B13 Sm1 2.894787 1_555
B13 Sm3 2.986696 1_556
B13 Sm2 2.994624 1_565
B14 B5 1.750255 1_555
B14 B9 1.766537 1_555
B14 Ni0 2.104949 1_566
B14 Sm2 2.858188 1_555
B14 Sm1 2.894787 1_555
B14 Sm3 2.986696 1_556
B14 Sm2 2.994624 1_565
B15 B19 1.663891 1_555
B15 B6 1.750255 1_655
B15 B2 1.780525 1_655
B15 Ni1 2.104949 1_655
B15 Sm1 2.858188 1_545
B15 Sm2 2.894787 1_555
B15 Sm0 2.986696 1_555
B15 Sm1 2.994624 1_555
B16 B4 1.750255 1_655
B16 B8 1.766537 1_655
B16 Ni0 2.104949 1_655
B16 Sm3 2.858188 1_555
B16 Sm0 2.894787 1_555
B16 Sm2 2.986696 1_554
B16 Sm3 2.994624 1_545
B17 B18 1.663891 1_555
B17 B7 1.750255 1_555
B17 B3 1.780525 1_555
B17 Ni1 2.104949 1_555
B17 Sm0 2.858188 1_565
B17 Sm3 2.894787 1_555
B17 Sm1 2.986696 1_555
B17 Sm0 2.994624 1_555
B18 B7 1.750255 1_655
B18 B3 1.780525 1_655
B18 Ni1 2.104949 1_655
B18 Sm0 2.858188 1_565
B18 Sm3 2.894787 1_555
B18 Sm1 2.986696 1_555
B18 Sm0 2.994624 1_555
B19 B6 1.750255 1_555
B19 B2 1.780525 1_555
B19 Ni1 2.104949 1_555
B19 Sm1 2.858188 1_545
B19 Sm2 2.894787 1_555
B19 Sm0 2.986696 1_555
B19 Sm1 2.994624 1_555
