# generated using pymatgen
data_Ce8AlPd24
_symmetry_space_group_name_H-M   'P 1'
_cell_length_a   8.44925200
_cell_length_b   8.44925200
_cell_length_c   8.44925200
_cell_angle_alpha   90.00000000
_cell_angle_beta   90.00000000
_cell_angle_gamma   90.00000000
_symmetry_Int_Tables_number   1
_chemical_formula_structural   Ce8AlPd24
_chemical_formula_sum   'Ce8 Al1 Pd24'
_cell_volume   603.19091197
_cell_formula_units_Z   1
loop_
 _symmetry_equiv_pos_site_id
 _symmetry_equiv_pos_as_xyz
  1  'x, y, z'
loop_
 _atom_site_type_symbol
 _atom_site_label
 _atom_site_symmetry_multiplicity
 _atom_site_fract_x
 _atom_site_fract_y
 _atom_site_fract_z
 _atom_site_occupancy
  Ce  Ce0  1  0.25062400  0.25062400  0.25062400  1
  Ce  Ce1  1  0.74937600  0.74937600  0.74937600  1
  Ce  Ce2  1  0.74937600  0.74937600  0.25062400  1
  Ce  Ce3  1  0.74937600  0.25062400  0.74937600  1
  Ce  Ce4  1  0.25062400  0.25062400  0.74937600  1
  Ce  Ce5  1  0.25062400  0.74937600  0.25062400  1
  Ce  Ce6  1  0.25062400  0.74937600  0.74937600  1
  Ce  Ce7  1  0.74937600  0.25062400  0.25062400  1
  Al  Al0  1  0.00000000  0.00000000  0.00000000  1
  Pd  Pd0  1  0.26028600  0.50000000  0.00000000  1
  Pd  Pd1  1  0.73971400  0.50000000  0.00000000  1
  Pd  Pd2  1  0.00000000  0.26028600  0.50000000  1
  Pd  Pd3  1  0.50000000  0.26028600  0.00000000  1
  Pd  Pd4  1  0.00000000  0.73971400  0.50000000  1
  Pd  Pd5  1  0.50000000  0.73971400  0.00000000  1
  Pd  Pd6  1  0.50000000  0.00000000  0.26028600  1
  Pd  Pd7  1  0.26028600  0.00000000  0.50000000  1
  Pd  Pd8  1  0.50000000  0.00000000  0.73971400  1
  Pd  Pd9  1  0.73971400  0.00000000  0.50000000  1
  Pd  Pd10  1  0.00000000  0.50000000  0.26028600  1
  Pd  Pd11  1  0.00000000  0.50000000  0.73971400  1
  Pd  Pd12  1  0.25334300  0.50000000  0.50000000  1
  Pd  Pd13  1  0.74665700  0.50000000  0.50000000  1
  Pd  Pd14  1  0.50000000  0.25334300  0.50000000  1
  Pd  Pd15  1  0.50000000  0.74665700  0.50000000  1
  Pd  Pd16  1  0.50000000  0.50000000  0.25334300  1
  Pd  Pd17  1  0.50000000  0.50000000  0.74665700  1
  Pd  Pd18  1  0.29150000  0.00000000  0.00000000  1
  Pd  Pd19  1  0.70850000  0.00000000  0.00000000  1
  Pd  Pd20  1  0.00000000  0.29150000  0.00000000  1
  Pd  Pd21  1  0.00000000  0.70850000  0.00000000  1
  Pd  Pd22  1  0.00000000  0.00000000  0.29150000  1
  Pd  Pd23  1  0.00000000  0.00000000  0.70850000  1
loop_
_geom_bond_atom_site_label_1
_geom_bond_atom_site_label_2
_geom_bond_distance
_geom_bond_site_symmetry_2
Ce0 Pd14 2.979894 1_555
Ce0 Pd12 2.979894 1_555
Ce0 Pd16 2.979894 1_555
Ce0 Pd2 2.988386 1_555
Ce0 Pd10 2.988386 1_555
Ce0 Pd7 2.988386 1_555
Ce0 Pd0 2.988386 1_555
Ce0 Pd3 2.988386 1_555
Ce0 Pd6 2.988386 1_555
Ce0 Pd20 3.014567 1_555
Ce0 Pd22 3.014567 1_555
Ce0 Pd18 3.014567 1_555
Ce1 Pd13 2.979894 1_555
Ce1 Pd17 2.979894 1_555
Ce1 Pd15 2.979894 1_555
Ce1 Pd9 2.988386 1_565
Ce1 Pd11 2.988386 1_655
Ce1 Pd4 2.988386 1_655
Ce1 Pd8 2.988386 1_565
Ce1 Pd5 2.988386 1_556
Ce1 Pd1 2.988386 1_556
Ce1 Pd23 3.014567 1_665
Ce1 Pd21 3.014567 1_656
Ce1 Pd19 3.014567 1_566
Ce2 Pd16 2.979894 1_555
Ce2 Pd15 2.979894 1_555
Ce2 Pd13 2.979894 1_555
Ce2 Pd1 2.988386 1_555
Ce2 Pd5 2.988386 1_555
Ce2 Pd10 2.988386 1_655
Ce2 Pd6 2.988386 1_565
Ce2 Pd4 2.988386 1_655
Ce2 Pd9 2.988386 1_565
Ce2 Pd21 3.014567 1_655
Ce2 Pd19 3.014567 1_565
Ce2 Pd22 3.014567 1_665
Ce3 Pd14 2.979894 1_555
Ce3 Pd17 2.979894 1_555
Ce3 Pd13 2.979894 1_555
Ce3 Pd9 2.988386 1_555
Ce3 Pd8 2.988386 1_555
Ce3 Pd3 2.988386 1_556
Ce3 Pd2 2.988386 1_655
Ce3 Pd11 2.988386 1_655
Ce3 Pd1 2.988386 1_556
Ce3 Pd23 3.014567 1_655
Ce3 Pd19 3.014567 1_556
Ce3 Pd20 3.014567 1_656
Ce4 Pd14 2.979894 1_555
Ce4 Pd12 2.979894 1_555
Ce4 Pd17 2.979894 1_555
Ce4 Pd2 2.988386 1_555
Ce4 Pd7 2.988386 1_555
Ce4 Pd11 2.988386 1_555
Ce4 Pd8 2.988386 1_555
Ce4 Pd3 2.988386 1_556
Ce4 Pd0 2.988386 1_556
Ce4 Pd23 3.014567 1_555
Ce4 Pd18 3.014567 1_556
Ce4 Pd20 3.014567 1_556
Ce5 Pd12 2.979894 1_555
Ce5 Pd16 2.979894 1_555
Ce5 Pd15 2.979894 1_555
Ce5 Pd0 2.988386 1_555
Ce5 Pd10 2.988386 1_555
Ce5 Pd4 2.988386 1_555
Ce5 Pd5 2.988386 1_555
Ce5 Pd7 2.988386 1_565
Ce5 Pd6 2.988386 1_565
Ce5 Pd21 3.014567 1_555
Ce5 Pd18 3.014567 1_565
Ce5 Pd22 3.014567 1_565
Ce6 Pd12 2.979894 1_555
Ce6 Pd17 2.979894 1_555
Ce6 Pd15 2.979894 1_555
Ce6 Pd11 2.988386 1_555
Ce6 Pd4 2.988386 1_555
Ce6 Pd0 2.988386 1_556
Ce6 Pd7 2.988386 1_565
Ce6 Pd5 2.988386 1_556
Ce6 Pd8 2.988386 1_565
Ce6 Pd21 3.014567 1_556
Ce6 Pd23 3.014567 1_565
Ce6 Pd18 3.014567 1_566
Ce7 Pd14 2.979894 1_555
Ce7 Pd16 2.979894 1_555
Ce7 Pd13 2.979894 1_555
Ce7 Pd3 2.988386 1_555
Ce7 Pd6 2.988386 1_555
Ce7 Pd9 2.988386 1_555
Ce7 Pd1 2.988386 1_555
Ce7 Pd10 2.988386 1_655
Ce7 Pd2 2.988386 1_655
Ce7 Pd19 3.014567 1_555
Ce7 Pd20 3.014567 1_655
Ce7 Pd22 3.014567 1_655
Al0 Pd23 2.462957 1_554
Al0 Pd21 2.462957 1_545
Al0 Pd19 2.462957 1_455
Al0 Pd18 2.462957 1_555
Al0 Pd20 2.462957 1_555
Al0 Pd22 2.462957 1_555
Pd0 Pd20 2.817810 1_555
Pd0 Pd21 2.817810 1_555
Pd0 Pd5 2.864354 1_555
Pd0 Pd3 2.864354 1_555
Pd0 Pd17 2.946906 1_554
Pd0 Pd16 2.946906 1_555
Pd0 Pd10 3.110170 1_555
Pd0 Pd11 3.110170 1_554
Pd1 Pd20 2.817810 1_655
Pd1 Pd21 2.817810 1_655
Pd1 Pd5 2.864354 1_555
Pd1 Pd3 2.864354 1_555
Pd1 Pd16 2.946906 1_555
Pd1 Pd17 2.946906 1_554
Pd1 Pd10 3.110170 1_655
Pd1 Pd11 3.110170 1_654
Pd2 Pd22 2.817810 1_555
Pd2 Pd23 2.817810 1_555
Pd2 Pd7 3.110170 1_555
Pd2 Pd9 3.110170 1_455
Pd3 Pd6 3.110170 1_555
Pd3 Pd8 3.110170 1_554
Pd4 Pd7 3.110170 1_565
Pd4 Pd9 3.110170 1_465
Pd5 Pd6 3.110170 1_565
Pd5 Pd8 3.110170 1_564
Pd6 Pd9 2.864354 1_555
Pd6 Pd7 2.864354 1_555
Pd7 Pd8 2.864354 1_555
Pd8 Pd9 2.864354 1_555
Pd10 Pd20 2.817810 1_555
Pd10 Pd21 2.817810 1_555
Pd10 Pd4 2.864354 1_555
Pd10 Pd2 2.864354 1_555
Pd10 Pd12 2.946906 1_555
Pd10 Pd13 2.946906 1_455
Pd11 Pd20 2.817810 1_556
Pd11 Pd21 2.817810 1_556
Pd11 Pd4 2.864354 1_555
Pd11 Pd2 2.864354 1_555
Pd11 Pd13 2.946906 1_455
Pd11 Pd12 2.946906 1_555
Pd12 Pd4 2.946906 1_555
Pd12 Pd2 2.946906 1_555
Pd12 Pd14 2.947316 1_555
Pd12 Pd17 2.947316 1_555
Pd12 Pd15 2.947316 1_555
Pd12 Pd16 2.947316 1_555
Pd13 Pd4 2.946906 1_655
Pd13 Pd2 2.946906 1_655
Pd13 Pd14 2.947316 1_555
Pd13 Pd17 2.947316 1_555
Pd13 Pd15 2.947316 1_555
Pd13 Pd16 2.947316 1_555
Pd14 Pd9 2.946906 1_555
Pd14 Pd8 2.946906 1_555
Pd14 Pd7 2.946906 1_555
Pd14 Pd6 2.946906 1_555
Pd14 Pd17 2.947316 1_555
Pd14 Pd16 2.947316 1_555
Pd15 Pd9 2.946906 1_565
Pd15 Pd8 2.946906 1_565
Pd15 Pd7 2.946906 1_565
Pd15 Pd6 2.946906 1_565
Pd15 Pd17 2.947316 1_555
Pd15 Pd16 2.947316 1_555
Pd16 Pd5 2.946906 1_555
Pd16 Pd3 2.946906 1_555
Pd17 Pd5 2.946906 1_556
Pd17 Pd3 2.946906 1_556
Pd18 Pd6 2.817810 1_555
Pd18 Pd3 2.817810 1_555
Pd18 Pd5 2.817810 1_545
Pd18 Pd8 2.817810 1_554
Pd19 Pd3 2.817810 1_555
Pd19 Pd6 2.817810 1_555
Pd19 Pd8 2.817810 1_554
Pd19 Pd5 2.817810 1_545
Pd22 Pd7 2.817810 1_555
Pd22 Pd4 2.817810 1_545
Pd22 Pd9 2.817810 1_455
Pd23 Pd7 2.817810 1_555
Pd23 Pd9 2.817810 1_455
Pd23 Pd4 2.817810 1_545
