# generated using pymatgen
data_SnC8(S3N)2
_symmetry_space_group_name_H-M   'P 1'
_cell_length_a   13.33752492
_cell_length_b   13.33752492
_cell_length_c   8.25377204
_cell_angle_alpha   73.34135601
_cell_angle_beta   73.34135601
_cell_angle_gamma   67.17246526
_symmetry_Int_Tables_number   1
_chemical_formula_structural   SnC8(S3N)2
_chemical_formula_sum   'Sn4 C32 S24 N8'
_cell_volume   1270.61256257
_cell_formula_units_Z   4
loop_
 _symmetry_equiv_pos_site_id
 _symmetry_equiv_pos_as_xyz
  1  'x, y, z'
loop_
 _atom_site_type_symbol
 _atom_site_label
 _atom_site_symmetry_multiplicity
 _atom_site_fract_x
 _atom_site_fract_y
 _atom_site_fract_z
 _atom_site_occupancy
  Sn  Sn0  1  0.00000000  0.00000000  0.00000000  1
  Sn  Sn1  1  0.50000000  0.50000000  0.00000000  1
  Sn  Sn2  1  0.50000000  0.00000000  0.00000000  1
  Sn  Sn3  1  0.00000000  0.50000000  0.00000000  1
  C  C0  1  0.83488500  0.95109400  0.68408700  1
  C  C1  1  0.95109400  0.83488500  0.68408700  1
  C  C2  1  0.16511500  0.04890600  0.31591300  1
  C  C3  1  0.04890600  0.16511500  0.31591300  1
  C  C4  1  0.89484300  0.89484300  0.53553200  1
  C  C5  1  0.10515700  0.10515700  0.46446800  1
  C  C6  1  0.91996000  0.91996000  0.79463600  1
  C  C7  1  0.08004000  0.08004000  0.20536400  1
  C  C8  1  0.66660700  0.52051900  0.25672100  1
  C  C9  1  0.52051900  0.66660700  0.25672100  1
  C  C10  1  0.33339300  0.47948100  0.74327900  1
  C  C11  1  0.47948100  0.33339300  0.74327900  1
  C  C12  1  0.63974500  0.63974500  0.17330800  1
  C  C13  1  0.36025500  0.36025500  0.82669200  1
  C  C14  1  0.70909900  0.70909900  0.15629100  1
  C  C15  1  0.29090100  0.29090100  0.84370900  1
  C  C16  1  0.44488500  0.85093200  0.78236800  1
  C  C17  1  0.85093200  0.44488500  0.78236800  1
  C  C18  1  0.55511500  0.14906800  0.21763200  1
  C  C19  1  0.14906800  0.55511500  0.21763200  1
  C  C20  1  0.31184900  0.81753500  0.79884500  1
  C  C21  1  0.81753500  0.31184900  0.79884500  1
  C  C22  1  0.68815100  0.18246500  0.20115500  1
  C  C23  1  0.18246500  0.68815100  0.20115500  1
  C  C24  1  0.33884900  0.79811200  0.11260200  1
  C  C25  1  0.79811200  0.33884900  0.11260200  1
  C  C26  1  0.66115100  0.20188800  0.88739800  1
  C  C27  1  0.20188800  0.66115100  0.88739800  1
  C  C28  1  0.36290800  0.81744900  0.93628600  1
  C  C29  1  0.81744900  0.36290800  0.93628600  1
  C  C30  1  0.63709200  0.18255100  0.06371400  1
  C  C31  1  0.18255100  0.63709200  0.06371400  1
  S  S0  1  0.19802500  0.80603000  0.22531300  1
  S  S1  1  0.80603000  0.19802500  0.22531300  1
  S  S2  1  0.80197500  0.19397000  0.77468700  1
  S  S3  1  0.19397000  0.80197500  0.77468700  1
  S  S4  1  0.88973600  0.88973600  0.34405700  1
  S  S5  1  0.11026400  0.11026400  0.65594300  1
  S  S6  1  0.59404300  0.42882000  0.27411000  1
  S  S7  1  0.42882000  0.59404300  0.27411000  1
  S  S8  1  0.40595700  0.57118000  0.72589000  1
  S  S9  1  0.57118000  0.40595700  0.72589000  1
  S  S10  1  0.60831900  0.60831900  0.83320900  1
  S  S11  1  0.39168100  0.39168100  0.16679100  1
  S  S12  1  0.57704500  0.18635100  0.76554900  1
  S  S13  1  0.18635100  0.57704500  0.76554900  1
  S  S14  1  0.42295500  0.81364900  0.23445100  1
  S  S15  1  0.81364900  0.42295500  0.23445100  1
  S  S16  1  0.34624900  0.15681200  0.82031000  1
  S  S17  1  0.15681200  0.34624900  0.82031000  1
  S  S18  1  0.65375100  0.84318800  0.17969000  1
  S  S19  1  0.84318800  0.65375100  0.17969000  1
  S  S20  1  0.44732300  0.10694600  0.26945300  1
  S  S21  1  0.10694600  0.44732300  0.26945300  1
  S  S22  1  0.55267700  0.89305400  0.73054700  1
  S  S23  1  0.89305400  0.55267700  0.73054700  1
  N  N0  1  0.84791600  0.84791600  0.82286200  1
  N  N1  1  0.15208400  0.15208400  0.17713800  1
  N  N2  1  0.60476000  0.60476000  0.37606800  1
  N  N3  1  0.39524000  0.39524000  0.62393200  1
  N  N4  1  0.38598900  0.84972100  0.66429600  1
  N  N5  1  0.84972100  0.38598900  0.66429600  1
  N  N6  1  0.61401100  0.15027900  0.33570400  1
  N  N7  1  0.15027900  0.61401100  0.33570400  1
loop_
_geom_bond_atom_site_label_1
_geom_bond_atom_site_label_2
_geom_bond_distance
_geom_bond_site_symmetry_2
C0 C4 1.485097 1_555
C0 N0 1.503588 1_555
C0 C6 1.517657 1_555
C0 C1 1.714827 1_555
C1 C4 1.485097 1_555
C1 N0 1.503588 1_555
C1 C6 1.517657 1_555
C2 C5 1.485097 1_555
C2 N1 1.503588 1_555
C2 C7 1.517657 1_555
C2 C3 1.714827 1_555
C3 C5 1.485097 1_555
C3 N1 1.503588 1_555
C3 C7 1.517657 1_555
C4 S4 1.622946 1_555
C5 S5 1.622946 1_555
C6 N0 1.536426 1_555
C6 Sn0 2.848079 1_666
C7 N1 1.536426 1_555
C7 Sn0 2.848079 1_555
C8 N2 1.537122 1_555
C8 S6 1.786411 1_555
C8 S15 1.877124 1_555
C9 N2 1.537122 1_555
C9 S7 1.786411 1_555
C9 S14 1.877124 1_555
C10 C13 1.484151 1_555
C10 N3 1.537122 1_555
C10 S8 1.786411 1_555
C10 S13 1.877124 1_555
C11 C13 1.484151 1_555
C11 N3 1.537122 1_555
C11 S9 1.786411 1_555
C11 S12 1.877124 1_555
C12 C9 1.484151 1_555
C12 C8 1.484151 1_555
C12 C14 1.498649 1_555
C12 N2 1.584197 1_555
C13 C15 1.498649 1_555
C13 N3 1.584197 1_555
C14 S19 1.694870 1_555
C14 S18 1.694870 1_555
C15 S16 1.694870 1_555
C15 S17 1.694870 1_555
C16 N4 1.422960 1_555
C16 C28 1.505333 1_555
C16 S22 1.643734 1_555
C17 N5 1.422960 1_555
C17 C29 1.505333 1_555
C17 S23 1.643734 1_555
C18 N6 1.422960 1_555
C18 C30 1.505333 1_555
C18 S20 1.643734 1_555
C19 N7 1.422960 1_555
C19 C31 1.505333 1_555
C19 S21 1.643734 1_555
C20 N4 1.349748 1_555
C20 C28 1.480612 1_555
C20 S3 1.735314 1_555
C21 N5 1.349748 1_555
C21 C29 1.480612 1_555
C21 S2 1.735314 1_555
C22 N6 1.349748 1_555
C22 C30 1.480612 1_555
C22 S1 1.735314 1_555
C23 N7 1.349748 1_555
C23 C31 1.480612 1_555
C23 S0 1.735314 1_555
C24 C28 1.366964 1_554
C24 S14 1.805393 1_555
C24 S0 1.817969 1_555
C25 C29 1.366964 1_554
C25 S15 1.805393 1_555
C25 S1 1.817969 1_555
C26 C30 1.366964 1_556
C26 S12 1.805393 1_555
C26 S2 1.817969 1_555
C27 C31 1.366964 1_556
C27 S13 1.805393 1_555
C27 S3 1.817969 1_555
S4 Sn0 3.046177 1_665
S5 Sn0 3.046177 1_556
S6 S7 2.438098 1_555
S6 Sn1 2.657969 1_555
S7 Sn1 2.657969 1_555
S8 S9 2.438098 1_555
S8 Sn1 2.657969 1_556
S9 Sn1 2.657969 1_556
S10 Sn1 2.325604 1_556
S11 Sn1 2.325604 1_555
S12 Sn2 3.010346 1_556
S13 Sn3 3.010346 1_556
S14 Sn2 3.010346 1_565
S15 Sn3 3.010346 1_655
S16 Sn2 2.723341 1_556
S17 Sn3 2.723341 1_556
S18 Sn2 2.723341 1_565
S19 Sn3 2.723341 1_655
S20 Sn2 2.760392 1_555
S21 Sn3 2.760392 1_555
S22 Sn2 2.760392 1_566
S23 Sn3 2.760392 1_656
