# generated using pymatgen
data_Pr2PdO4
_symmetry_space_group_name_H-M   'P 1'
_cell_length_a   7.08718200
_cell_length_b   7.08718200
_cell_length_c   7.04360328
_cell_angle_alpha   120.20487595
_cell_angle_beta   120.20487595
_cell_angle_gamma   90.00000000
_symmetry_Int_Tables_number   1
_chemical_formula_structural   Pr2PdO4
_chemical_formula_sum   'Pr4 Pd2 O8'
_cell_volume   248.60788865
_cell_formula_units_Z   2
loop_
 _symmetry_equiv_pos_site_id
 _symmetry_equiv_pos_as_xyz
  1  'x, y, z'
loop_
 _atom_site_type_symbol
 _atom_site_label
 _atom_site_symmetry_multiplicity
 _atom_site_fract_x
 _atom_site_fract_y
 _atom_site_fract_z
 _atom_site_occupancy
  Pr  Pr0  1  0.62500000  0.87500000  0.25000000  1
  Pr  Pr1  1  0.62500000  0.37500000  0.25000000  1
  Pr  Pr2  1  0.62500000  0.37500000  0.75000000  1
  Pr  Pr3  1  0.12500000  0.37500000  0.75000000  1
  Pd  Pd0  1  0.00000000  0.00000000  0.00000000  1
  Pd  Pd1  1  0.25000000  0.75000000  0.50000000  1
  O  O0  1  0.40075500  0.13133700  0.26281500  1
  O  O1  1  0.86205900  0.13147800  0.26281500  1
  O  O2  1  0.38147800  0.15075500  0.76281500  1
  O  O3  1  0.84924500  0.61866300  0.23718500  1
  O  O4  1  0.38133700  0.61205900  0.76281500  1
  O  O5  1  0.38794100  0.61852200  0.23718500  1
  O  O6  1  0.86852200  0.59924500  0.73718500  1
  O  O7  1  0.86866300  0.13794100  0.73718500  1
loop_
_geom_bond_atom_site_label_1
_geom_bond_atom_site_label_2
_geom_bond_distance
_geom_bond_site_symmetry_2
O0 Pd0 2.309999 1_555
O0 Pr0 2.411157 1_545
O0 Pr1 2.411891 1_555
O0 Pr2 2.415253 1_555
O1 Pd0 2.310005 1_655
O1 Pr1 2.411152 1_555
O1 Pr0 2.411887 1_545
O1 Pr3 2.415254 1_655
O2 Pd1 2.309999 1_545
O2 Pr2 2.411157 1_555
O2 Pr3 2.411891 1_555
O2 Pr1 2.415253 1_556
O3 Pd1 2.309999 1_655
O3 Pr0 2.411157 1_555
O3 Pr1 2.411891 1_555
O3 Pr2 2.415253 1_554
O4 Pd1 2.310005 1_555
O4 Pr3 2.411152 1_555
O4 Pr2 2.411887 1_555
O4 Pr0 2.415254 1_556
O5 Pd1 2.310005 1_555
O5 Pr1 2.411152 1_555
O5 Pr0 2.411887 1_555
O5 Pr3 2.415254 1_554
O6 Pd0 2.309999 1_666
O6 Pr2 2.411157 1_555
O6 Pr3 2.411891 1_655
O6 Pr1 2.415253 1_555
O7 Pd0 2.310005 1_656
O7 Pr3 2.411152 1_655
O7 Pr2 2.411887 1_555
O7 Pr0 2.415254 1_545
