# generated using pymatgen
data_CsTiAlO4
_symmetry_space_group_name_H-M   'P 1'
_cell_length_a   7.42874170
_cell_length_b   7.42874170
_cell_length_c   7.42874170
_cell_angle_alpha   133.86289866
_cell_angle_beta   103.85464257
_cell_angle_gamma   93.87646027
_symmetry_Int_Tables_number   1
_chemical_formula_structural   CsTiAlO4
_chemical_formula_sum   'Cs2 Ti2 Al2 O8'
_cell_volume   270.54337786
_cell_formula_units_Z   2
loop_
 _symmetry_equiv_pos_site_id
 _symmetry_equiv_pos_as_xyz
  1  'x, y, z'
loop_
 _atom_site_type_symbol
 _atom_site_label
 _atom_site_symmetry_multiplicity
 _atom_site_fract_x
 _atom_site_fract_y
 _atom_site_fract_z
 _atom_site_occupancy
  Cs  Cs0  1  0.45150700  0.95150700  0.50000000  1
  Cs  Cs1  1  0.04833400  0.04833400  0.00000000  1
  Ti  Ti0  1  0.46930100  0.66854700  0.80075300  1
  Ti  Ti1  1  0.86779400  0.66854700  0.19924700  1
  Al  Al0  1  0.64268800  0.33078500  0.31190300  1
  Al  Al1  1  0.01888200  0.33078500  0.68809700  1
  O  O0  1  0.01928100  0.49656500  0.01201700  1
  O  O1  1  0.01928100  0.00726300  0.52271500  1
  O  O2  1  0.48454800  0.49656500  0.47728500  1
  O  O3  1  0.48454800  0.00726300  0.98798300  1
  O  O4  1  0.74770400  0.49676300  0.25094000  1
  O  O5  1  0.24582300  0.49676300  0.74906000  1
  O  O6  1  0.82492600  0.32492600  0.50000000  1
  O  O7  1  0.67538600  0.67538600  0.00000000  1
loop_
_geom_bond_atom_site_label_1
_geom_bond_atom_site_label_2
_geom_bond_distance
_geom_bond_site_symmetry_2
Cs0 O1 3.294287 1_565
Cs0 O0 3.294290 1_555
Cs0 O2 3.294295 1_555
Cs0 O3 3.294295 1_565
Cs0 O7 3.692010 1_555
Cs0 O7 3.692010 1_566
Cs0 O5 3.737591 1_565
Cs0 O5 3.737591 1_554
Cs0 O4 3.737593 1_566
Cs0 O4 3.737597 1_555
Cs0 O6 3.788145 1_565
Cs1 O0 3.291885 1_555
Cs1 O2 3.291886 1_555
Cs1 O3 3.291886 1_554
Cs1 O1 3.291888 1_554
Cs1 O6 3.689073 1_444
Cs1 O6 3.689073 1_455
Cs1 O4 3.735447 1_455
Cs1 O4 3.735452 1_444
Cs1 O5 3.735453 1_555
Cs1 O5 3.735453 1_544
Cs1 O7 3.783367 1_445
Al0 O6 1.724374 1_555
Al0 O4 1.773989 1_555
Al0 O2 1.787785 1_555
Al0 O3 1.787785 1_554
Al1 O6 1.724374 1_455
Al1 O5 1.773986 1_555
Al1 O0 1.787782 1_556
Al1 O1 1.787787 1_555
O0 Ti1 1.820604 1_455
O1 Ti1 1.820599 1_445
O2 Ti0 1.820595 1_555
O3 Ti0 1.820599 1_545
O4 Ti1 1.805869 1_555
O5 Ti0 1.805879 1_555
O7 Ti0 1.826819 1_554
O7 Ti1 1.826824 1_555
