# generated using pymatgen
data_HgMo6(SeS)4
_symmetry_space_group_name_H-M   'P 1'
_cell_length_a   6.64960200
_cell_length_b   6.72324184
_cell_length_c   6.75205231
_cell_angle_alpha   91.65723984
_cell_angle_beta   91.84052187
_cell_angle_gamma   91.89910228
_symmetry_Int_Tables_number   1
_chemical_formula_structural   HgMo6(SeS)4
_chemical_formula_sum   'Hg1 Mo6 Se4 S4'
_cell_volume   301.40588431
_cell_formula_units_Z   1
loop_
 _symmetry_equiv_pos_site_id
 _symmetry_equiv_pos_as_xyz
  1  'x, y, z'
loop_
 _atom_site_type_symbol
 _atom_site_label
 _atom_site_symmetry_multiplicity
 _atom_site_fract_x
 _atom_site_fract_y
 _atom_site_fract_z
 _atom_site_occupancy
  Hg  Hg0  1  0.00009000  0.00205300  0.99605900  1
  Mo  Mo0  1  0.56038900  0.23142000  0.41474200  1
  Mo  Mo1  1  0.41196000  0.55483300  0.23092900  1
  Mo  Mo2  1  0.22170300  0.40669900  0.56029900  1
  Mo  Mo3  1  0.44156800  0.77287100  0.58670000  1
  Mo  Mo4  1  0.58896700  0.43907100  0.77601500  1
  Mo  Mo5  1  0.78118100  0.58646200  0.44182900  1
  Se  Se0  1  0.62694800  0.87647600  0.26107400  1
  Se  Se1  1  0.25886700  0.62189700  0.87653800  1
  Se  Se2  1  0.22371400  0.22506400  0.23018000  1
  Se  Se3  1  0.77473500  0.77088700  0.76994800  1
  S  S0  1  0.13357300  0.71441600  0.38728200  1
  S  S1  1  0.38702000  0.13006300  0.71732100  1
  S  S2  1  0.72081600  0.38703000  0.13309300  1
  S  S3  1  0.86846900  0.28075900  0.61799200  1
loop_
_geom_bond_atom_site_label_1
_geom_bond_atom_site_label_2
_geom_bond_distance
_geom_bond_site_symmetry_2
Hg0 Se2 2.553885 1_556
Hg0 Se3 2.559950 1_445
Hg0 Se0 3.210151 1_446
Hg0 Se1 3.225868 1_545
Mo0 S3 2.436848 1_555
Mo0 S2 2.453664 1_555
Mo0 S1 2.479338 1_555
Mo0 Se2 2.525503 1_555
Mo0 Se0 2.631257 1_545
Mo1 S0 2.425720 1_555
Mo1 S2 2.474824 1_555
Mo1 Se2 2.509490 1_555
Mo1 Se0 2.551946 1_555
Mo1 Se1 2.627128 1_554
Mo2 S1 2.442623 1_555
Mo2 S0 2.482843 1_555
Mo2 Se2 2.511048 1_555
Mo2 S3 2.516325 1_455
Mo2 Se1 2.545082 1_555
Mo3 S0 2.429168 1_555
Mo3 Se3 2.503207 1_555
Mo3 Se1 2.553819 1_555
Mo3 S1 2.575333 1_565
Mo3 Se0 2.654158 1_555
Mo4 S3 2.432786 1_555
Mo4 S1 2.451487 1_555
Mo4 Se3 2.516011 1_555
Mo4 S2 2.576316 1_556
Mo4 Se1 2.648777 1_555
Mo5 S2 2.460370 1_555
Mo5 S3 2.480356 1_555
Mo5 Se3 2.509650 1_555
Mo5 S0 2.511326 1_655
Mo5 Se0 2.555974 1_555
