# generated using pymatgen
data_Sr2CoOsO6
_symmetry_space_group_name_H-M   'P 1'
_cell_length_a   5.67186352
_cell_length_b   5.67186352
_cell_length_c   5.67186352
_cell_angle_alpha   121.32468010
_cell_angle_beta   121.32468010
_cell_angle_gamma   87.72050251
_symmetry_Int_Tables_number   1
_chemical_formula_structural   Sr2CoOsO6
_chemical_formula_sum   'Sr2 Co1 Os1 O6'
_cell_volume   126.32962191
_cell_formula_units_Z   1
loop_
 _symmetry_equiv_pos_site_id
 _symmetry_equiv_pos_as_xyz
  1  'x, y, z'
loop_
 _atom_site_type_symbol
 _atom_site_label
 _atom_site_symmetry_multiplicity
 _atom_site_fract_x
 _atom_site_fract_y
 _atom_site_fract_z
 _atom_site_occupancy
  Sr  Sr0  1  0.25000000  0.75000000  0.50000000  1
  Sr  Sr1  1  0.75000000  0.25000000  0.50000000  1
  Co  Co0  1  0.00000000  0.00000000  0.00000000  1
  Os  Os0  1  0.50000000  0.50000000  0.00000000  1
  O  O0  1  0.26235800  0.26235800  0.00000000  1
  O  O1  1  0.73764200  0.73764200  0.00000000  1
  O  O2  1  0.28860500  0.22295000  0.51155500  1
  O  O3  1  0.71139500  0.77705000  0.48844500  1
  O  O4  1  0.22295000  0.71139500  0.93434500  1
  O  O5  1  0.77705000  0.28860500  0.06565500  1
loop_
_geom_bond_atom_site_label_1
_geom_bond_atom_site_label_2
_geom_bond_distance
_geom_bond_site_symmetry_2
Co0 O5 2.026924 1_455
Co0 O4 2.026924 1_544
Co0 O2 2.026924 1_555
Co0 O3 2.026924 1_444
Co0 O0 2.145876 1_555
Co0 O1 2.145876 1_445
O0 Os0 1.943719 1_555
O0 Sr0 2.780799 1_544
O0 Sr1 2.780799 1_555
O0 Sr1 2.780799 1_454
O0 Sr0 2.780799 1_555
O1 Os0 1.943719 1_555
O1 Sr1 2.780799 1_554
O1 Sr0 2.780799 1_655
O1 Sr1 2.780799 1_565
O1 Sr0 2.780799 1_554
O2 Os0 1.936874 1_556
O2 Sr1 2.664037 1_555
O2 Sr0 2.664037 1_545
O2 Sr1 3.020796 1_455
O2 Sr0 3.020796 1_555
O3 Os0 1.936874 1_555
O3 Sr1 2.664037 1_565
O3 Sr0 2.664037 1_555
O3 Sr0 3.020796 1_655
O3 Sr1 3.020796 1_555
O4 Os0 1.936874 1_556
O4 Sr0 2.664037 1_555
O4 Sr1 2.664037 1_455
O4 Sr0 3.020796 1_556
O4 Sr1 3.020796 1_566
O5 Os0 1.936874 1_555
O5 Sr0 2.664037 1_655
O5 Sr1 2.664037 1_555
O5 Sr1 3.020796 1_554
O5 Sr0 3.020796 1_544
