# generated using pymatgen
data_CsEr(WO4)2
_symmetry_space_group_name_H-M   'P 1'
_cell_length_a   7.66329308
_cell_length_b   7.66329308
_cell_length_c   7.53851396
_cell_angle_alpha   62.59017642
_cell_angle_beta   62.59017642
_cell_angle_gamma   88.54466573
_symmetry_Int_Tables_number   1
_chemical_formula_structural   CsEr(WO4)2
_chemical_formula_sum   'Cs2 Er2 W4 O16'
_cell_volume   338.97378069
_cell_formula_units_Z   2
loop_
 _symmetry_equiv_pos_site_id
 _symmetry_equiv_pos_as_xyz
  1  'x, y, z'
loop_
 _atom_site_type_symbol
 _atom_site_label
 _atom_site_symmetry_multiplicity
 _atom_site_fract_x
 _atom_site_fract_y
 _atom_site_fract_z
 _atom_site_occupancy
  Cs  Cs0  1  0.19696600  0.80303400  0.75000000  1
  Cs  Cs1  1  0.80303400  0.19696600  0.25000000  1
  Er  Er0  1  0.77785500  0.22214500  0.75000000  1
  Er  Er1  1  0.22214500  0.77785500  0.25000000  1
  W  W0  1  0.69881900  0.68652600  0.78551600  1
  W  W1  1  0.30118100  0.31347400  0.21448400  1
  W  W2  1  0.31347400  0.30118100  0.71448400  1
  W  W3  1  0.68652600  0.69881900  0.28551600  1
  O  O0  1  0.62066300  0.74791800  0.56539000  1
  O  O1  1  0.37933700  0.25208200  0.43461000  1
  O  O2  1  0.25208200  0.37933700  0.93461000  1
  O  O3  1  0.74791800  0.62066300  0.06539000  1
  O  O4  1  0.36758800  0.05895400  0.87817600  1
  O  O5  1  0.63241200  0.94104600  0.12182400  1
  O  O6  1  0.94104600  0.63241200  0.62182400  1
  O  O7  1  0.05895400  0.36758800  0.37817600  1
  O  O8  1  0.59281300  0.37180500  0.96204200  1
  O  O9  1  0.40718700  0.62819500  0.03795800  1
  O  O10  1  0.62819500  0.40718700  0.53795800  1
  O  O11  1  0.37180500  0.59281300  0.46204200  1
  O  O12  1  0.77792200  0.95079000  0.70249700  1
  O  O13  1  0.22207800  0.04921000  0.29750300  1
  O  O14  1  0.04921000  0.22207800  0.79750300  1
  O  O15  1  0.95079000  0.77792200  0.20249700  1
loop_
_geom_bond_atom_site_label_1
_geom_bond_atom_site_label_2
_geom_bond_distance
_geom_bond_site_symmetry_2
Cs0 O15 2.953150 1_456
Cs0 O13 2.953150 1_565
Cs0 O2 2.994796 1_555
Cs0 O0 2.994796 1_555
Cs0 O3 3.016599 1_456
Cs0 O1 3.016599 1_565
Cs0 O4 3.086708 1_565
Cs0 O6 3.086708 1_455
Cs0 O9 3.087879 1_556
Cs0 O11 3.087879 1_555
Cs0 O12 3.496177 1_455
Cs0 O14 3.496177 1_565
Cs1 O12 2.953150 1_545
Cs1 O14 2.953150 1_654
Cs1 O1 2.994796 1_555
Cs1 O3 2.994796 1_555
Cs1 O0 3.016599 1_545
Cs1 O2 3.016599 1_654
Cs1 O7 3.086708 1_655
Cs1 O5 3.086708 1_545
Cs1 O10 3.087879 1_555
Cs1 O8 3.087879 1_554
Cs1 O15 3.496177 1_545
Cs1 O13 3.496177 1_655
Er0 O12 2.266679 1_545
Er0 O14 2.266679 1_655
Er0 O10 2.323715 1_555
Er0 O8 2.323715 1_555
Er0 O5 2.329311 1_546
Er0 O7 2.329311 1_655
Er1 O13 2.266679 1_565
Er1 O15 2.266679 1_455
Er1 O9 2.323715 1_555
Er1 O11 2.323715 1_555
Er1 O6 2.329311 1_455
Er1 O4 2.329311 1_564
O0 W0 1.875022 1_555
O0 W3 2.142084 1_555
O1 W1 1.875022 1_555
O1 W2 2.142084 1_555
O2 W2 1.875022 1_555
O2 W1 2.142084 1_556
O3 W3 1.875022 1_555
O3 W0 2.142084 1_554
O4 W2 1.861041 1_555
O5 W3 1.861041 1_555
O6 W0 1.861041 1_555
O7 W1 1.861041 1_555
O8 W1 2.041500 1_556
O8 W0 2.096853 1_555
O9 W0 2.041500 1_554
O9 W1 2.096853 1_555
O10 W3 2.041500 1_555
O10 W2 2.096853 1_555
O11 W2 2.041500 1_555
O11 W3 2.096853 1_555
O12 W0 1.845659 1_555
O13 W1 1.845659 1_555
O14 W2 1.845659 1_555
O15 W3 1.845659 1_555
