# generated using pymatgen
data_YFeCo3B
_symmetry_space_group_name_H-M   'P 1'
_cell_length_a   5.03469200
_cell_length_b   5.03469185
_cell_length_c   6.82510700
_cell_angle_alpha   90.00000000
_cell_angle_beta   90.00000000
_cell_angle_gamma   120.00000098
_symmetry_Int_Tables_number   1
_chemical_formula_structural   YFeCo3B
_chemical_formula_sum   'Y2 Fe2 Co6 B2'
_cell_volume   149.82555458
_cell_formula_units_Z   2
loop_
 _symmetry_equiv_pos_site_id
 _symmetry_equiv_pos_as_xyz
  1  'x, y, z'
loop_
 _atom_site_type_symbol
 _atom_site_label
 _atom_site_symmetry_multiplicity
 _atom_site_fract_x
 _atom_site_fract_y
 _atom_site_fract_z
 _atom_site_occupancy
  Y  Y0  1  0.00000000  0.00000000  0.00000000  1
  Y  Y1  1  0.00000000  0.00000000  0.50000000  1
  Fe  Fe0  1  0.66666700  0.33333300  0.00000000  1
  Fe  Fe1  1  0.33333300  0.66666700  0.00000000  1
  Co  Co0  1  0.50000000  0.50000000  0.71395800  1
  Co  Co1  1  0.50000000  0.00000000  0.71395800  1
  Co  Co2  1  0.00000000  0.50000000  0.71395800  1
  Co  Co3  1  0.50000000  0.50000000  0.28604200  1
  Co  Co4  1  0.50000000  0.00000000  0.28604200  1
  Co  Co5  1  0.00000000  0.50000000  0.28604200  1
  B  B0  1  0.66666700  0.33333300  0.50000000  1
  B  B1  1  0.33333300  0.66666700  0.50000000  1
loop_
_geom_bond_atom_site_label_1
_geom_bond_atom_site_label_2
_geom_bond_distance
_geom_bond_site_symmetry_2
Fe0 Y0 2.906778 1_655
Fe0 Y0 2.906782 1_665
Fe0 Y0 2.906782 1_555
Fe1 Y0 2.906778 1_565
Fe1 Y0 2.906782 1_555
Fe1 Y0 2.906782 1_665
Co0 Fe0 2.433865 1_556
Co0 Fe1 2.433865 1_556
Co0 Y1 2.910235 1_665
Co0 Y1 2.910235 1_555
Co0 Y0 3.185652 1_666
Co0 Y0 3.185652 1_556
Co1 Fe1 2.433863 1_546
Co1 Fe0 2.433863 1_556
Co1 Y1 2.910235 1_555
Co1 Y1 2.910235 1_655
Co1 Y0 3.185652 1_556
Co1 Y0 3.185652 1_656
Co2 Fe0 2.433863 1_456
Co2 Fe1 2.433863 1_556
Co2 Y1 2.910235 1_565
Co2 Y1 2.910235 1_555
Co2 Y0 3.185652 1_556
Co2 Y0 3.185652 1_566
Co3 Fe1 2.433865 1_555
Co3 Fe0 2.433865 1_555
Co3 Y1 2.910235 1_665
Co3 Y1 2.910235 1_555
Co3 Y0 3.185652 1_555
Co3 Y0 3.185652 1_665
Co4 Fe1 2.433863 1_545
Co4 Fe0 2.433863 1_555
Co4 Y1 2.910235 1_555
Co4 Y1 2.910235 1_655
Co4 Y0 3.185652 1_655
Co4 Y0 3.185652 1_555
Co5 Fe0 2.433863 1_455
Co5 Fe1 2.433863 1_555
Co5 Y1 2.910235 1_565
Co5 Y1 2.910235 1_555
Co5 Y0 3.185652 1_555
Co5 Y0 3.185652 1_565
B0 Co4 2.060285 1_555
B0 Co1 2.060285 1_555
B0 Co2 2.060285 1_655
B0 Co5 2.060285 1_655
B0 Co0 2.060288 1_555
B0 Co3 2.060288 1_555
B0 Y1 2.906778 1_655
B0 Y1 2.906782 1_665
B0 Y1 2.906782 1_555
B1 Co4 2.060285 1_565
B1 Co1 2.060285 1_565
B1 Co5 2.060285 1_555
B1 Co2 2.060285 1_555
B1 Co0 2.060288 1_555
B1 Co3 2.060288 1_555
B1 Y1 2.906778 1_565
B1 Y1 2.906782 1_555
B1 Y1 2.906782 1_665
