# generated using pymatgen
data_K3InF6
_symmetry_space_group_name_H-M   'P 1'
_cell_length_a   12.86236145
_cell_length_b   12.86236145
_cell_length_c   12.86236145
_cell_angle_alpha   60.00000000
_cell_angle_beta   60.00000000
_cell_angle_gamma   60.00000000
_symmetry_Int_Tables_number   1
_chemical_formula_structural   K3InF6
_chemical_formula_sum   'K24 In8 F48'
_cell_volume   1504.69033276
_cell_formula_units_Z   8
loop_
 _symmetry_equiv_pos_site_id
 _symmetry_equiv_pos_as_xyz
  1  'x, y, z'
loop_
 _atom_site_type_symbol
 _atom_site_label
 _atom_site_symmetry_multiplicity
 _atom_site_fract_x
 _atom_site_fract_y
 _atom_site_fract_z
 _atom_site_occupancy
  K  K0  1  0.00000000  0.00000000  0.00000000  1
  K  K1  1  0.25000000  0.25000000  0.25000000  1
  K  K2  1  0.50000000  0.50000000  0.50000000  1
  K  K3  1  0.75000000  0.75000000  0.75000000  1
  K  K4  1  0.35924500  0.88025200  0.88025200  1
  K  K5  1  0.88025200  0.88025200  0.35924500  1
  K  K6  1  0.88025200  0.35924500  0.88025200  1
  K  K7  1  0.88025200  0.88025200  0.88025200  1
  K  K8  1  0.89075500  0.36974800  0.36974800  1
  K  K9  1  0.36974800  0.36974800  0.89075500  1
  K  K10  1  0.36974800  0.89075500  0.36974800  1
  K  K11  1  0.36974800  0.36974800  0.36974800  1
  K  K12  1  0.26061700  0.73938300  0.26061700  1
  K  K13  1  0.73938300  0.26061700  0.73938300  1
  K  K14  1  0.26061700  0.26061700  0.73938300  1
  K  K15  1  0.73938300  0.73938300  0.26061700  1
  K  K16  1  0.73938300  0.26061700  0.26061700  1
  K  K17  1  0.26061700  0.73938300  0.73938300  1
  K  K18  1  0.98938300  0.51061700  0.98938300  1
  K  K19  1  0.51061700  0.98938300  0.51061700  1
  K  K20  1  0.98938300  0.98938300  0.51061700  1
  K  K21  1  0.51061700  0.51061700  0.98938300  1
  K  K22  1  0.51061700  0.98938300  0.98938300  1
  K  K23  1  0.98938300  0.51061700  0.51061700  1
  In  In0  1  0.62500000  0.12500000  0.12500000  1
  In  In1  1  0.12500000  0.12500000  0.62500000  1
  In  In2  1  0.12500000  0.62500000  0.12500000  1
  In  In3  1  0.12500000  0.12500000  0.12500000  1
  In  In4  1  0.12500000  0.62500000  0.62500000  1
  In  In5  1  0.62500000  0.62500000  0.12500000  1
  In  In6  1  0.62500000  0.12500000  0.62500000  1
  In  In7  1  0.62500000  0.62500000  0.62500000  1
  F  F0  1  0.74143700  0.07241500  0.22591900  1
  F  F1  1  0.22591900  0.96022800  0.74143700  1
  F  F2  1  0.07241500  0.74143700  0.96022800  1
  F  F3  1  0.96022800  0.22591900  0.07241500  1
  F  F4  1  0.22591900  0.74143700  0.07241500  1
  F  F5  1  0.74143700  0.22591900  0.96022800  1
  F  F6  1  0.96022800  0.07241500  0.74143700  1
  F  F7  1  0.07241500  0.96022800  0.22591900  1
  F  F8  1  0.07241500  0.22591900  0.74143700  1
  F  F9  1  0.96022800  0.74143700  0.22591900  1
  F  F10  1  0.74143700  0.96022800  0.07241500  1
  F  F11  1  0.22591900  0.07241500  0.96022800  1
  F  F12  1  0.50856300  0.17758500  0.02408100  1
  F  F13  1  0.02408100  0.28977200  0.50856300  1
  F  F14  1  0.17758500  0.50856300  0.28977200  1
  F  F15  1  0.28977200  0.02408100  0.17758500  1
  F  F16  1  0.02408100  0.50856300  0.17758500  1
  F  F17  1  0.50856300  0.02408100  0.28977200  1
  F  F18  1  0.28977200  0.17758500  0.50856300  1
  F  F19  1  0.17758500  0.28977200  0.02408100  1
  F  F20  1  0.17758500  0.02408100  0.50856300  1
  F  F21  1  0.28977200  0.50856300  0.02408100  1
  F  F22  1  0.50856300  0.28977200  0.17758500  1
  F  F23  1  0.02408100  0.17758500  0.28977200  1
  F  F24  1  0.24180400  0.53206700  0.73757000  1
  F  F25  1  0.73757000  0.48855800  0.24180400  1
  F  F26  1  0.53206700  0.24180400  0.48855800  1
  F  F27  1  0.48855800  0.73757000  0.53206700  1
  F  F28  1  0.73757000  0.24180400  0.53206700  1
  F  F29  1  0.24180400  0.73757000  0.48855800  1
  F  F30  1  0.48855800  0.53206700  0.24180400  1
  F  F31  1  0.53206700  0.48855800  0.73757000  1
  F  F32  1  0.53206700  0.73757000  0.24180400  1
  F  F33  1  0.48855800  0.24180400  0.73757000  1
  F  F34  1  0.24180400  0.48855800  0.53206700  1
  F  F35  1  0.73757000  0.53206700  0.48855800  1
  F  F36  1  0.00819600  0.71793300  0.51243000  1
  F  F37  1  0.51243000  0.76144200  0.00819600  1
  F  F38  1  0.71793300  0.00819600  0.76144200  1
  F  F39  1  0.76144200  0.51243000  0.71793300  1
  F  F40  1  0.51243000  0.00819600  0.71793300  1
  F  F41  1  0.00819600  0.51243000  0.76144200  1
  F  F42  1  0.76144200  0.71793300  0.00819600  1
  F  F43  1  0.71793300  0.76144200  0.51243000  1
  F  F44  1  0.71793300  0.51243000  0.00819600  1
  F  F45  1  0.76144200  0.00819600  0.51243000  1
  F  F46  1  0.00819600  0.76144200  0.71793300  1
  F  F47  1  0.51243000  0.71793300  0.76144200  1
loop_
_geom_bond_atom_site_label_1
_geom_bond_atom_site_label_2
_geom_bond_distance
_geom_bond_site_symmetry_2
F0 In0 2.106776 1_555
F0 K5 2.578391 1_545
F0 K16 2.657893 1_555
F0 K0 3.211985 1_655
F1 In1 2.106781 1_565
F1 K4 2.578398 1_555
F1 K17 2.657880 1_555
F1 K0 3.211988 1_566
F2 In2 2.106787 1_556
F2 K7 2.578377 1_455
F2 K17 2.657885 1_555
F2 K0 3.211992 1_566
F3 In3 2.106787 1_655
F3 K6 2.578377 1_554
F3 K16 2.657886 1_555
F3 K0 3.211980 1_655
F4 In2 2.106776 1_555
F4 K4 2.578391 1_554
F4 K12 2.657893 1_555
F4 K0 3.211985 1_565
F5 In0 2.106781 1_556
F5 K6 2.578398 1_555
F5 K13 2.657880 1_555
F5 K0 3.211988 1_656
F6 In1 2.106787 1_655
F6 K7 2.578377 1_545
F6 K13 2.657885 1_555
F6 K0 3.211992 1_656
F7 In3 2.106787 1_565
F7 K5 2.578377 1_455
F7 K12 2.657886 1_555
F7 K0 3.211980 1_565
F8 In1 2.106776 1_555
F8 K6 2.578391 1_455
F8 K14 2.657893 1_555
F8 K0 3.211985 1_556
F9 In2 2.106781 1_655
F9 K5 2.578398 1_555
F9 K15 2.657880 1_555
F9 K0 3.211988 1_665
F10 In0 2.106787 1_565
F10 K7 2.578377 1_554
F10 K15 2.657885 1_555
F10 K0 3.211992 1_665
F11 In3 2.106787 1_556
F11 K4 2.578377 1_545
F11 K14 2.657886 1_555
F11 K0 3.211980 1_556
F12 In0 2.106776 1_555
F12 K9 2.578391 1_554
F12 K22 2.657893 1_544
F12 K1 3.211985 1_555
F13 In1 2.106781 1_555
F13 K8 2.578398 1_455
F13 K23 2.657880 1_455
F13 K1 3.211988 1_555
F14 In2 2.106787 1_555
F14 K11 2.578377 1_555
F14 K23 2.657885 1_455
F14 K1 3.211992 1_555
F15 In3 2.106787 1_555
F15 K10 2.578377 1_545
F15 K22 2.657886 1_544
F15 K1 3.211980 1_555
F16 In2 2.106776 1_555
F16 K8 2.578391 1_455
F16 K18 2.657893 1_454
F16 K1 3.211985 1_555
F17 In0 2.106781 1_555
F17 K10 2.578398 1_545
F17 K19 2.657880 1_545
F17 K1 3.211988 1_555
F18 In1 2.106787 1_555
F18 K11 2.578377 1_555
F18 K19 2.657885 1_545
F18 K1 3.211992 1_555
F19 In3 2.106787 1_555
F19 K9 2.578377 1_554
F19 K18 2.657886 1_454
F19 K1 3.211980 1_555
F20 In1 2.106776 1_555
F20 K10 2.578391 1_545
F20 K20 2.657893 1_445
F20 K1 3.211985 1_555
F21 In2 2.106781 1_555
F21 K9 2.578398 1_554
F21 K21 2.657880 1_554
F21 K1 3.211988 1_555
F22 In0 2.106787 1_555
F22 K11 2.578377 1_555
F22 K21 2.657885 1_554
F22 K1 3.211992 1_555
F23 In3 2.106787 1_555
F23 K8 2.578377 1_455
F23 K20 2.657886 1_445
F23 K1 3.211980 1_555
F24 In4 2.105028 1_555
F24 K9 2.577268 1_555
F24 K17 2.807631 1_555
F24 K2 3.206108 1_555
F25 In5 2.105030 1_555
F25 K8 2.577268 1_555
F25 K16 2.807618 1_555
F25 K2 3.206109 1_555
F26 In6 2.105038 1_555
F26 K11 2.577268 1_555
F26 K16 2.807625 1_555
F26 K2 3.206114 1_555
F27 In7 2.105038 1_555
F27 K10 2.577268 1_555
F27 K17 2.807624 1_555
F27 K2 3.206102 1_555
F28 In6 2.105028 1_555
F28 K8 2.577268 1_555
F28 K13 2.807631 1_555
F28 K2 3.206108 1_555
F29 In4 2.105030 1_555
F29 K10 2.577268 1_555
F29 K12 2.807618 1_555
F29 K2 3.206109 1_555
F30 In5 2.105038 1_555
F30 K11 2.577268 1_555
F30 K12 2.807625 1_555
F30 K2 3.206114 1_555
F31 In7 2.105038 1_555
F31 K9 2.577268 1_555
F31 K13 2.807624 1_555
F31 K2 3.206102 1_555
F32 In5 2.105028 1_555
F32 K10 2.577268 1_555
F32 K15 2.807631 1_555
F32 K2 3.206108 1_555
F33 In6 2.105030 1_555
F33 K9 2.577268 1_555
F33 K14 2.807618 1_555
F33 K2 3.206109 1_555
F34 In4 2.105038 1_555
F34 K11 2.577268 1_555
F34 K14 2.807625 1_555
F34 K2 3.206114 1_555
F35 In7 2.105038 1_555
F35 K8 2.577268 1_555
F35 K15 2.807624 1_555
F35 K2 3.206102 1_555
F36 In4 2.105028 1_555
F36 K5 2.577268 1_455
F36 K23 2.807631 1_455
F36 K3 3.206108 1_455
F37 In5 2.105030 1_555
F37 K4 2.577268 1_554
F37 K22 2.807618 1_554
F37 K3 3.206109 1_554
F38 In6 2.105038 1_555
F38 K7 2.577268 1_545
F38 K22 2.807625 1_545
F38 K3 3.206114 1_545
F39 In7 2.105038 1_555
F39 K6 2.577268 1_555
F39 K23 2.807624 1_555
F39 K3 3.206102 1_555
F40 In6 2.105028 1_555
F40 K4 2.577268 1_545
F40 K19 2.807631 1_545
F40 K3 3.206108 1_545
F41 In4 2.105030 1_555
F41 K6 2.577268 1_455
F41 K18 2.807618 1_455
F41 K3 3.206109 1_455
F42 In5 2.105038 1_555
F42 K7 2.577268 1_554
F42 K18 2.807625 1_554
F42 K3 3.206114 1_554
F43 In7 2.105038 1_555
F43 K5 2.577268 1_555
F43 K19 2.807624 1_555
F43 K3 3.206102 1_555
F44 In5 2.105028 1_555
F44 K6 2.577268 1_554
F44 K21 2.807631 1_554
F44 K3 3.206108 1_554
F45 In6 2.105030 1_555
F45 K5 2.577268 1_545
F45 K20 2.807618 1_545
F45 K3 3.206109 1_545
F46 In4 2.105038 1_555
F46 K7 2.577268 1_455
F46 K20 2.807625 1_455
F46 K3 3.206114 1_455
F47 In7 2.105038 1_555
F47 K4 2.577268 1_555
F47 K21 2.807624 1_555
F47 K3 3.206102 1_555
