# generated using pymatgen
data_Ba3DyIrRuO9
_symmetry_space_group_name_H-M   'P 1'
_cell_length_a   5.94865718
_cell_length_b   5.94865718
_cell_length_c   14.73417400
_cell_angle_alpha   90.00000000
_cell_angle_beta   90.00000000
_cell_angle_gamma   119.99999088
_symmetry_Int_Tables_number   1
_chemical_formula_structural   Ba3DyIrRuO9
_chemical_formula_sum   'Ba6 Dy2 Ir2 Ru2 O18'
_cell_volume   451.53804527
_cell_formula_units_Z   2
loop_
 _symmetry_equiv_pos_site_id
 _symmetry_equiv_pos_as_xyz
  1  'x, y, z'
loop_
 _atom_site_type_symbol
 _atom_site_label
 _atom_site_symmetry_multiplicity
 _atom_site_fract_x
 _atom_site_fract_y
 _atom_site_fract_z
 _atom_site_occupancy
  Ba  Ba0  1  0.00000000  0.00000000  0.74980700  1
  Ba  Ba1  1  0.00000000  0.00000000  0.24980700  1
  Ba  Ba2  1  0.66666700  0.33333300  0.40437800  1
  Ba  Ba3  1  0.33333300  0.66666700  0.59649000  1
  Ba  Ba4  1  0.33333300  0.66666700  0.90437800  1
  Ba  Ba5  1  0.66666700  0.33333300  0.09649000  1
  Dy  Dy0  1  0.00000000  0.00000000  0.50117200  1
  Dy  Dy1  1  0.00000000  0.00000000  0.00117200  1
  Ir  Ir0  1  0.66666700  0.33333300  0.66475000  1
  Ir  Ir1  1  0.33333300  0.66666700  0.16475000  1
  Ru  Ru0  1  0.33333300  0.66666700  0.33670600  1
  Ru  Ru1  1  0.66666700  0.33333300  0.83670600  1
  O  O0  1  0.50937900  0.01875800  0.75070600  1
  O  O1  1  0.50937900  0.49062100  0.75070600  1
  O  O2  1  0.98124200  0.49062100  0.75070600  1
  O  O3  1  0.49062100  0.98124200  0.25070600  1
  O  O4  1  0.49062100  0.50937900  0.25070600  1
  O  O5  1  0.01875800  0.50937900  0.25070600  1
  O  O6  1  0.82428000  0.64855900  0.91064600  1
  O  O7  1  0.82428000  0.17572000  0.91064600  1
  O  O8  1  0.35144100  0.17572000  0.91064600  1
  O  O9  1  0.17518600  0.35037300  0.08755100  1
  O  O10  1  0.17518600  0.82481400  0.08755100  1
  O  O11  1  0.64962700  0.82481400  0.08755100  1
  O  O12  1  0.17572000  0.35144100  0.41064600  1
  O  O13  1  0.17572000  0.82428000  0.41064600  1
  O  O14  1  0.64855900  0.82428000  0.41064600  1
  O  O15  1  0.82481400  0.64962700  0.58755100  1
  O  O16  1  0.82481400  0.17518600  0.58755100  1
  O  O17  1  0.35037300  0.17518600  0.58755100  1
loop_
_geom_bond_atom_site_label_1
_geom_bond_atom_site_label_2
_geom_bond_distance
_geom_bond_site_symmetry_2
Ba0 O0 2.975927 1_455
Ba0 O2 2.975927 1_455
Ba0 O2 2.975928 1_445
Ba0 O0 2.975928 1_555
Ba0 O1 2.975928 1_555
Ba0 O1 2.975928 1_445
Ba0 O7 2.982287 1_455
Ba0 O6 2.982290 1_445
Ba0 O8 2.982290 1_555
Ba0 O16 2.995586 1_455
Ba0 O15 2.995589 1_445
Ba0 O17 2.995589 1_555
Ba1 O5 2.975927 1_545
Ba1 O3 2.975927 1_545
Ba1 O3 2.975928 1_445
Ba1 O5 2.975928 1_555
Ba1 O4 2.975928 1_555
Ba1 O4 2.975928 1_445
Ba1 O13 2.982287 1_545
Ba1 O14 2.982290 1_445
Ba1 O12 2.982290 1_555
Ba1 O10 2.995586 1_545
Ba1 O11 2.995589 1_445
Ba1 O9 2.995589 1_555
Ba2 O3 2.901179 1_545
Ba2 O5 2.901179 1_655
Ba2 O4 2.901182 1_555
Ba2 O14 2.977218 1_545
Ba2 O12 2.977218 1_655
Ba2 O13 2.977224 1_545
Ba2 O13 2.977224 1_655
Ba2 O14 2.977230 1_555
Ba2 O12 2.977230 1_555
Ba2 O16 3.152646 1_555
Ba2 O15 3.152646 1_555
Ba2 O17 3.152646 1_555
Ba3 O0 2.907439 1_565
Ba3 O2 2.907439 1_455
Ba3 O1 2.907442 1_555
Ba3 O17 2.978531 1_565
Ba3 O15 2.978531 1_455
Ba3 O16 2.978537 1_565
Ba3 O16 2.978537 1_455
Ba3 O15 2.978543 1_555
Ba3 O17 2.978543 1_555
Ba3 O13 3.183592 1_555
Ba3 O12 3.183592 1_555
Ba3 O14 3.183592 1_555
Ba4 O0 2.901179 1_565
Ba4 O2 2.901179 1_455
Ba4 O1 2.901182 1_555
Ba4 O6 2.977218 1_455
Ba4 O8 2.977218 1_565
Ba4 O7 2.977224 1_455
Ba4 O7 2.977224 1_565
Ba4 O8 2.977230 1_555
Ba4 O6 2.977230 1_555
Ba4 O10 3.152646 1_556
Ba4 O11 3.152646 1_556
Ba4 O9 3.152646 1_556
Ba5 O3 2.907439 1_545
Ba5 O5 2.907439 1_655
Ba5 O4 2.907442 1_555
Ba5 O9 2.978531 1_655
Ba5 O11 2.978531 1_545
Ba5 O10 2.978537 1_655
Ba5 O10 2.978537 1_545
Ba5 O11 2.978543 1_555
Ba5 O9 2.978543 1_555
Ba5 O7 3.183592 1_554
Ba5 O6 3.183592 1_554
Ba5 O8 3.183592 1_554
Dy0 O16 2.208591 1_455
Dy0 O15 2.208596 1_445
Dy0 O17 2.208596 1_555
Dy0 O13 2.248785 1_545
Dy0 O12 2.248790 1_555
Dy0 O14 2.248790 1_445
Dy1 O10 2.208591 1_545
Dy1 O11 2.208596 1_445
Dy1 O9 2.208596 1_555
Dy1 O7 2.248785 1_454
Dy1 O6 2.248790 1_444
Dy1 O8 2.248790 1_554
Ir0 O16 1.987190 1_555
Ir0 O15 1.987190 1_555
Ir0 O17 1.987190 1_555
Ir0 O0 2.056774 1_555
Ir0 O2 2.056774 1_555
Ir0 O1 2.056778 1_555
Ir1 O10 1.987190 1_555
Ir1 O11 1.987190 1_555
Ir1 O9 1.987190 1_555
Ir1 O5 2.056774 1_555
Ir1 O3 2.056774 1_555
Ir1 O4 2.056778 1_555
O0 Ru1 2.057173 1_555
O1 Ru1 2.057177 1_555
O2 Ru1 2.057173 1_555
O3 Ru0 2.057173 1_555
O4 Ru0 2.057177 1_555
O5 Ru0 2.057173 1_555
O6 Ru1 1.955528 1_555
O7 Ru1 1.955528 1_555
O8 Ru1 1.955528 1_555
O12 Ru0 1.955528 1_555
O13 Ru0 1.955528 1_555
O14 Ru0 1.955528 1_555
