# generated using pymatgen
data_SbO2
_symmetry_space_group_name_H-M   'P 1'
_cell_length_a   5.58140700
_cell_length_b   6.06620900
_cell_length_c   10.49122500
_cell_angle_alpha   90.00000000
_cell_angle_beta   90.00000000
_cell_angle_gamma   90.00000000
_symmetry_Int_Tables_number   1
_chemical_formula_structural   SbO2
_chemical_formula_sum   'Sb8 O16'
_cell_volume   355.21170066
_cell_formula_units_Z   8
loop_
 _symmetry_equiv_pos_site_id
 _symmetry_equiv_pos_as_xyz
  1  'x, y, z'
loop_
 _atom_site_type_symbol
 _atom_site_label
 _atom_site_symmetry_multiplicity
 _atom_site_fract_x
 _atom_site_fract_y
 _atom_site_fract_z
 _atom_site_occupancy
  Sb  Sb0  1  0.15221200  0.00000000  0.00000000  1
  Sb  Sb1  1  0.84778800  0.00000000  0.50000000  1
  Sb  Sb2  1  0.00000000  0.59587400  0.25000000  1
  Sb  Sb3  1  0.50000000  0.90412600  0.25000000  1
  Sb  Sb4  1  0.34778800  0.50000000  0.50000000  1
  Sb  Sb5  1  0.00000000  0.40412600  0.75000000  1
  Sb  Sb6  1  0.65221200  0.50000000  0.00000000  1
  Sb  Sb7  1  0.50000000  0.09587400  0.75000000  1
  O  O0  1  0.39285500  0.87242200  0.87243800  1
  O  O1  1  0.89285500  0.62757800  0.87243800  1
  O  O2  1  0.27089100  0.29438700  0.86597200  1
  O  O3  1  0.72910900  0.29438700  0.63402800  1
  O  O4  1  0.10714500  0.37242200  0.37243800  1
  O  O5  1  0.22910900  0.79438700  0.36597200  1
  O  O6  1  0.39285500  0.12757800  0.12756200  1
  O  O7  1  0.77089100  0.20561300  0.86597200  1
  O  O8  1  0.89285500  0.37242200  0.12756200  1
  O  O9  1  0.60714500  0.12757800  0.37243800  1
  O  O10  1  0.77089100  0.79438700  0.13402800  1
  O  O11  1  0.22910900  0.20561300  0.63402800  1
  O  O12  1  0.10714500  0.62757800  0.62756200  1
  O  O13  1  0.27089100  0.70561300  0.13402800  1
  O  O14  1  0.60714500  0.87242200  0.62756200  1
  O  O15  1  0.72910900  0.70561300  0.36597200  1
loop_
_geom_bond_atom_site_label_1
_geom_bond_atom_site_label_2
_geom_bond_distance
_geom_bond_site_symmetry_2
O0 Sb7 1.960875 1_565
O0 Sb0 2.047909 1_566
O1 Sb5 1.960875 1_655
O1 Sb6 2.047909 1_556
O2 Sb5 2.051704 1_555
O2 Sb7 2.136746 1_555
O2 Sb0 2.367502 1_556
O3 Sb5 2.051704 1_655
O3 Sb7 2.136746 1_555
O3 Sb1 2.367502 1_555
O4 Sb2 1.960875 1_555
O4 Sb4 2.047909 1_555
O5 Sb3 2.051704 1_555
O5 Sb2 2.136746 1_555
O5 Sb4 2.367502 1_555
O6 Sb3 1.960875 1_545
O6 Sb0 2.047909 1_555
O7 Sb7 2.051704 1_555
O7 Sb5 2.136746 1_655
O7 Sb6 2.367502 1_556
O8 Sb2 1.960875 1_655
O8 Sb6 2.047909 1_555
O9 Sb3 1.960875 1_545
O9 Sb1 2.047909 1_555
O10 Sb3 2.051704 1_555
O10 Sb2 2.136746 1_655
O10 Sb6 2.367502 1_555
O11 Sb7 2.051704 1_555
O11 Sb5 2.136746 1_555
O11 Sb4 2.367502 1_555
O12 Sb5 1.960875 1_555
O12 Sb4 2.047909 1_555
O13 Sb2 2.051704 1_555
O13 Sb3 2.136746 1_555
O13 Sb0 2.367502 1_565
O14 Sb7 1.960875 1_565
O14 Sb1 2.047909 1_565
O15 Sb2 2.051704 1_655
O15 Sb3 2.136746 1_555
O15 Sb1 2.367502 1_565
