# generated using pymatgen
data_MgFe10O9F11
_symmetry_space_group_name_H-M   'P 1'
_cell_length_a   4.95903638
_cell_length_b   4.89344436
_cell_length_c   15.32747896
_cell_angle_alpha   88.63045512
_cell_angle_beta   89.84367240
_cell_angle_gamma   96.65924520
_symmetry_Int_Tables_number   1
_chemical_formula_structural   MgFe10O9F11
_chemical_formula_sum   'Mg1 Fe10 O9 F11'
_cell_volume   369.32779140
_cell_formula_units_Z   1
loop_
 _symmetry_equiv_pos_site_id
 _symmetry_equiv_pos_as_xyz
  1  'x, y, z'
loop_
 _atom_site_type_symbol
 _atom_site_label
 _atom_site_symmetry_multiplicity
 _atom_site_fract_x
 _atom_site_fract_y
 _atom_site_fract_z
 _atom_site_occupancy
  Mg  Mg0  1  0.52843061  0.03982791  0.71049907  1
  Fe  Fe0  1  0.00331306  0.99785133  0.00184133  1
  Fe  Fe1  1  0.00645333  0.98836206  0.20092227  1
  Fe  Fe2  1  -0.00027321  0.96705866  0.40095784  1
  Fe  Fe3  1  0.02478436  0.98894933  0.59557750  1
  Fe  Fe4  1  0.03975548  0.03647452  0.81675479  1
  Fe  Fe5  1  0.50640592  0.49515379  0.10187395  1
  Fe  Fe6  1  0.49463767  0.45060116  0.48980935  1
  Fe  Fe7  1  0.50434368  0.48235334  0.29730364  1
  Fe  Fe8  1  0.25498070  0.49707784  0.68949338  1
  Fe  Fe9  1  0.50167554  0.49888332  0.90793737  1
  O  O0  1  0.16216075  0.84822255  0.71106847  1
  O  O1  1  0.31354031  0.28886562  0.00502871  1
  O  O2  1  0.30819753  0.28517745  0.20125677  1
  O  O3  1  0.30820760  0.26038730  0.39576084  1
  O  O4  1  0.36515107  0.26467586  0.59508368  1
  O  O5  1  0.37239232  0.30550430  0.80451405  1
  O  O6  1  0.69825932  0.70739990  0.00311727  1
  O  O7  1  0.70334761  0.69023198  0.20138060  1
  O  O8  1  0.69374418  0.67889442  0.40050730  1
  F  F0  1  0.18757561  0.79950585  0.10371641  1
  F  F1  1  0.18474397  0.78464490  0.30040962  1
  F  F2  1  0.18229665  0.74865982  0.49452828  1
  F  F3  1  0.19509694  0.78027248  0.91283251  1
  F  F4  1  0.65150384  0.77737433  0.61314913  1
  F  F5  1  0.66857498  0.80351388  0.81120799  1
  F  F6  1  0.82329894  0.18627074  0.10368509  1
  F  F7  1  0.82513840  0.18922683  0.49069486  1
  F  F8  1  0.82241322  0.17003478  0.30036699  1
  F  F9  1  0.82977851  0.23977325  0.91264475  1
  F  F10  1  0.86785112  0.26265649  0.70107618  1
loop_
_geom_bond_atom_site_label_1
_geom_bond_atom_site_label_2
_geom_bond_distance
_geom_bond_site_symmetry_2
Mg0 O0 1.944953 1_545
Mg0 O5 2.163853 1_555
Mg0 O4 2.262102 1_555
Fe0 O6 1.951619 1_455
Fe0 O1 1.972999 1_565
Fe1 O2 1.960882 1_565
Fe1 O7 1.969416 1_455
Fe2 O8 1.948123 1_455
Fe2 O3 1.972681 1_565
Fe3 O0 2.031995 1_555
Fe3 O4 2.034887 1_565
Fe4 O5 1.993041 1_555
Fe4 O0 2.009184 1_545
Fe5 O6 1.990721 1_555
Fe5 O1 1.998159 1_555
Fe5 O2 2.006262 1_555
Fe5 O7 2.013153 1_555
Fe6 O4 1.905896 1_555
Fe6 O3 1.915970 1_555
Fe6 O8 1.939115 1_555
Fe7 O7 1.964207 1_555
Fe7 O2 1.975449 1_555
Fe7 O3 2.017875 1_555
Fe7 O8 2.044687 1_555
Fe8 O0 1.866436 1_555
Fe8 O4 1.975920 1_555
Fe8 O5 2.092633 1_555
Fe9 O5 1.938030 1_555
Fe9 O1 1.959131 1_556
Fe9 O6 1.991988 1_556
F0 Fe1 2.032662 1_555
F0 Fe0 2.087174 1_555
F0 Fe5 2.294919 1_555
F1 Fe1 2.059099 1_555
F1 Fe2 2.064400 1_555
F1 Fe7 2.291085 1_555
F2 Fe2 2.043776 1_555
F2 Fe3 2.164505 1_555
F2 Fe6 2.249459 1_555
F3 Fe0 2.048560 1_556
F3 Fe4 2.115606 1_565
F3 Fe9 2.168621 1_555
F4 Fe3 2.027441 1_655
F4 Mg0 2.125278 1_565
F4 Fe8 2.530301 1_555
F4 Fe6 2.569058 1_555
F5 Fe4 2.052746 1_665
F5 Mg0 2.076030 1_565
F5 Fe9 2.169527 1_555
F6 Fe1 2.031392 1_645
F6 Fe0 2.082274 1_645
F6 Fe5 2.303064 1_555
F7 Fe2 2.026488 1_645
F7 Fe3 2.164126 1_645
F7 Fe6 2.192661 1_555
F8 Fe1 2.047423 1_645
F8 Fe2 2.067279 1_645
F8 Fe7 2.319903 1_555
F9 Fe0 2.043645 1_646
F9 Fe4 2.129771 1_655
F9 Fe9 2.176004 1_555
F10 Mg0 1.899595 1_555
F10 Fe8 2.123830 1_655
F10 Fe4 2.286650 1_655
F10 Fe3 2.313604 1_645
