# generated using pymatgen
data_Gd2Hf2(MoO4)7
_symmetry_space_group_name_H-M   'P 1'
_cell_length_a   11.69499247
_cell_length_b   11.69499247
_cell_length_c   14.05689837
_cell_angle_alpha   69.15466021
_cell_angle_beta   69.15466021
_cell_angle_gamma   50.54498237
_symmetry_Int_Tables_number   1
_chemical_formula_structural   Gd2Hf2(MoO4)7
_chemical_formula_sum   'Gd4 Hf4 Mo14 O56'
_cell_volume   1364.71849302
_cell_formula_units_Z   2
loop_
 _symmetry_equiv_pos_site_id
 _symmetry_equiv_pos_as_xyz
  1  'x, y, z'
loop_
 _atom_site_type_symbol
 _atom_site_label
 _atom_site_symmetry_multiplicity
 _atom_site_fract_x
 _atom_site_fract_y
 _atom_site_fract_z
 _atom_site_occupancy
  Gd  Gd0  1  0.14933000  0.12457700  0.06273500  1
  Gd  Gd1  1  0.85067000  0.87542300  0.93726500  1
  Gd  Gd2  1  0.87542300  0.85067000  0.43726500  1
  Gd  Gd3  1  0.12457700  0.14933000  0.56273500  1
  Hf  Hf0  1  0.41990100  0.34847500  0.18769200  1
  Hf  Hf1  1  0.58009900  0.65152500  0.81230800  1
  Hf  Hf2  1  0.65152500  0.58009900  0.31230800  1
  Hf  Hf3  1  0.34847500  0.41990100  0.68769200  1
  Mo  Mo0  1  0.49909600  0.98771200  0.17431200  1
  Mo  Mo1  1  0.50090400  0.01228800  0.82568800  1
  Mo  Mo2  1  0.01228800  0.50090400  0.32568800  1
  Mo  Mo3  1  0.98771200  0.49909600  0.67431200  1
  Mo  Mo4  1  0.45573000  0.22862700  0.47685600  1
  Mo  Mo5  1  0.54427000  0.77137300  0.52314400  1
  Mo  Mo6  1  0.77137300  0.54427000  0.02314400  1
  Mo  Mo7  1  0.22862700  0.45573000  0.97685600  1
  Mo  Mo8  1  0.81117400  0.06732100  0.14691500  1
  Mo  Mo9  1  0.18882600  0.93267900  0.85308500  1
  Mo  Mo10  1  0.93267900  0.18882600  0.35308500  1
  Mo  Mo11  1  0.06732100  0.81117400  0.64691500  1
  Mo  Mo12  1  0.29788200  0.70211800  0.25000000  1
  Mo  Mo13  1  0.70211800  0.29788200  0.75000000  1
  O  O0  1  0.48687800  0.12668800  0.21732100  1
  O  O1  1  0.51312200  0.87331200  0.78267900  1
  O  O2  1  0.87331200  0.51312200  0.28267900  1
  O  O3  1  0.12668800  0.48687800  0.71732100  1
  O  O4  1  0.64087800  0.07234000  0.49587000  1
  O  O5  1  0.35912200  0.92766000  0.50413000  1
  O  O6  1  0.92766000  0.35912200  0.00413000  1
  O  O7  1  0.07234000  0.64087800  0.99587000  1
  O  O8  1  0.31710500  0.06001200  0.16644100  1
  O  O9  1  0.68289500  0.93998800  0.83355900  1
  O  O10  1  0.93998800  0.68289500  0.33355900  1
  O  O11  1  0.06001200  0.31710500  0.66644100  1
  O  O12  1  0.93449700  0.02627000  0.39814600  1
  O  O13  1  0.06550300  0.97373000  0.60185400  1
  O  O14  1  0.97373000  0.06550300  0.10185400  1
  O  O15  1  0.02627000  0.93449700  0.89814600  1
  O  O16  1  0.79647800  0.99771200  0.28216400  1
  O  O17  1  0.20352200  0.00228800  0.71783600  1
  O  O18  1  0.00228800  0.20352200  0.21783600  1
  O  O19  1  0.99771200  0.79647800  0.78216400  1
  O  O20  1  0.57713200  0.80484600  0.26073000  1
  O  O21  1  0.42286800  0.19515400  0.73927000  1
  O  O22  1  0.19515400  0.42286800  0.23927000  1
  O  O23  1  0.80484600  0.57713200  0.76073000  1
  O  O24  1  0.66464000  0.82929800  0.47118700  1
  O  O25  1  0.33536000  0.17070200  0.52881300  1
  O  O26  1  0.17070200  0.33536000  0.02881300  1
  O  O27  1  0.82929800  0.66464000  0.97118700  1
  O  O28  1  0.82890300  0.94712800  0.08424600  1
  O  O29  1  0.17109700  0.05287200  0.91575400  1
  O  O30  1  0.05287200  0.17109700  0.41575400  1
  O  O31  1  0.94712800  0.82890300  0.58424600  1
  O  O32  1  0.60960200  0.96087100  0.04964200  1
  O  O33  1  0.39039800  0.03912900  0.95035800  1
  O  O34  1  0.03912900  0.39039800  0.45035800  1
  O  O35  1  0.96087100  0.60960200  0.54964200  1
  O  O36  1  0.37542400  0.39014000  0.04363700  1
  O  O37  1  0.62457600  0.60986000  0.95636300  1
  O  O38  1  0.60986000  0.62457600  0.45636300  1
  O  O39  1  0.39014000  0.37542400  0.54363700  1
  O  O40  1  0.26036900  0.86614400  0.15808400  1
  O  O41  1  0.73963100  0.13385600  0.84191600  1
  O  O42  1  0.13385600  0.73963100  0.34191600  1
  O  O43  1  0.86614400  0.26036900  0.65808400  1
  O  O44  1  0.44103000  0.63845800  0.31885400  1
  O  O45  1  0.55897000  0.36154200  0.68114600  1
  O  O46  1  0.36154200  0.55897000  0.18114600  1
  O  O47  1  0.63845800  0.44103000  0.81885400  1
  O  O48  1  0.64193000  0.26402300  0.12490000  1
  O  O49  1  0.35807000  0.73597700  0.87510000  1
  O  O50  1  0.73597700  0.35807000  0.37510000  1
  O  O51  1  0.26402300  0.64193000  0.62490000  1
  O  O52  1  0.44785000  0.30369700  0.33941000  1
  O  O53  1  0.55215000  0.69630300  0.66059000  1
  O  O54  1  0.69630300  0.55215000  0.16059000  1
  O  O55  1  0.30369700  0.44785000  0.83941000  1
loop_
_geom_bond_atom_site_label_1
_geom_bond_atom_site_label_2
_geom_bond_distance
_geom_bond_site_symmetry_2
Gd0 O18 2.304228 1_555
Gd0 O29 2.371549 1_554
Gd0 O14 2.392961 1_455
Gd0 O6 2.407776 1_455
Gd0 O33 2.411553 1_554
Gd0 O8 2.431981 1_555
Gd0 O40 2.446420 1_545
Gd0 O26 2.495654 1_555
Gd1 O19 2.304228 1_555
Gd1 O28 2.371549 1_556
Gd1 O15 2.392961 1_655
Gd1 O7 2.407776 1_655
Gd1 O32 2.411553 1_556
Gd1 O9 2.431981 1_555
Gd1 O41 2.446420 1_565
Gd1 O27 2.495654 1_555
Gd2 O16 2.304228 1_555
Gd2 O31 2.371549 1_555
Gd2 O12 2.392961 1_565
Gd2 O4 2.407776 1_565
Gd2 O35 2.411553 1_555
Gd2 O10 2.431981 1_555
Gd2 O42 2.446420 1_655
Gd2 O24 2.495654 1_555
Gd3 O17 2.304228 1_555
Gd3 O30 2.371549 1_555
Gd3 O13 2.392961 1_545
Gd3 O5 2.407776 1_545
Gd3 O34 2.411553 1_555
Gd3 O11 2.431981 1_555
Gd3 O43 2.446420 1_455
Gd3 O25 2.495654 1_555
Hf0 O48 2.055933 1_555
Hf0 O46 2.069428 1_555
Hf0 O36 2.081766 1_555
Hf0 O22 2.092240 1_555
Hf0 O0 2.096653 1_555
Hf0 O52 2.100748 1_555
Hf1 O49 2.055933 1_555
Hf1 O47 2.069428 1_555
Hf1 O37 2.081766 1_555
Hf1 O23 2.092240 1_555
Hf1 O1 2.096653 1_555
Hf1 O53 2.100748 1_555
Hf2 O50 2.055933 1_555
Hf2 O44 2.069428 1_555
Hf2 O38 2.081766 1_555
Hf2 O20 2.092240 1_555
Hf2 O2 2.096653 1_555
Hf2 O54 2.100748 1_555
Hf3 O51 2.055933 1_555
Hf3 O45 2.069428 1_555
Hf3 O39 2.081766 1_555
Hf3 O21 2.092240 1_555
Hf3 O3 2.096653 1_555
Hf3 O55 2.100748 1_555
Mo0 O8 1.752418 1_565
Mo0 O32 1.761804 1_555
Mo0 O20 1.828041 1_555
Mo0 O0 1.835833 1_565
Mo1 O9 1.752418 1_545
Mo1 O33 1.761804 1_555
Mo1 O21 1.828041 1_555
Mo1 O1 1.835833 1_545
Mo2 O10 1.752418 1_455
Mo2 O34 1.761804 1_555
Mo2 O22 1.828041 1_555
Mo2 O2 1.835833 1_455
Mo3 O11 1.752418 1_655
Mo3 O35 1.761804 1_555
Mo3 O23 1.828041 1_555
Mo3 O3 1.835833 1_655
Mo4 O25 1.761308 1_555
Mo4 O4 1.770577 1_555
Mo4 O52 1.824509 1_555
Mo4 O39 1.837872 1_555
Mo5 O24 1.761308 1_555
Mo5 O5 1.770577 1_555
Mo5 O53 1.824509 1_555
Mo5 O38 1.837872 1_555
Mo6 O27 1.761308 1_554
Mo6 O6 1.770577 1_555
Mo6 O54 1.824509 1_555
Mo6 O37 1.837872 1_554
Mo7 O26 1.761308 1_556
Mo7 O7 1.770577 1_555
Mo7 O55 1.824509 1_555
Mo7 O36 1.837872 1_556
Mo8 O14 1.765509 1_555
Mo8 O16 1.774974 1_545
Mo8 O28 1.782070 1_545
Mo8 O48 1.856808 1_555
Mo9 O15 1.765509 1_555
Mo9 O17 1.774974 1_565
Mo9 O29 1.782070 1_565
Mo9 O49 1.856808 1_555
Mo10 O12 1.765509 1_555
Mo10 O18 1.774974 1_655
Mo10 O30 1.782070 1_655
Mo10 O50 1.856808 1_555
Mo11 O13 1.765509 1_555
Mo11 O19 1.774974 1_455
Mo11 O31 1.782070 1_455
Mo11 O51 1.856808 1_555
Mo12 O42 1.763959 1_555
Mo12 O40 1.763959 1_555
Mo12 O44 1.830296 1_555
Mo12 O46 1.830296 1_555
Mo13 O41 1.763959 1_555
Mo13 O43 1.763959 1_555
Mo13 O47 1.830296 1_555
Mo13 O45 1.830296 1_555
