# generated using pymatgen
data_VMoAs2
_symmetry_space_group_name_H-M   'P 1'
_cell_length_a   3.37379976
_cell_length_b   5.96203395
_cell_length_c   6.31710973
_cell_angle_alpha   90.02354908
_cell_angle_beta   89.99999772
_cell_angle_gamma   90.00000240
_symmetry_Int_Tables_number   1
_chemical_formula_structural   VMoAs2
_chemical_formula_sum   'V2 Mo2 As4'
_cell_volume   127.06681135
_cell_formula_units_Z   2
loop_
 _symmetry_equiv_pos_site_id
 _symmetry_equiv_pos_as_xyz
  1  'x, y, z'
loop_
 _atom_site_type_symbol
 _atom_site_label
 _atom_site_symmetry_multiplicity
 _atom_site_fract_x
 _atom_site_fract_y
 _atom_site_fract_z
 _atom_site_occupancy
  V  V0  1  0.00000007  0.50907442  0.43375830  1
  V  V1  1  0.00000015  0.00916579  0.56617540  1
  Mo  Mo0  1  0.50000007  0.49050398  0.06453996  1
  Mo  Mo1  1  0.50000000  0.99045981  0.93548944  1
  As  As0  1  0.49999986  0.30759312  0.67310722  1
  As  As1  1  0.49999981  0.80746458  0.32691880  1
  As  As2  1  0.00000003  0.69288224  0.81585593  1
  As  As3  1  0.00000001  0.19285807  0.18415595  1
loop_
_geom_bond_atom_site_label_1
_geom_bond_atom_site_label_2
_geom_bond_distance
_geom_bond_site_symmetry_2
Mo0 V0 2.880579 1_555
Mo0 V0 2.880579 1_655
Mo1 V1 2.881173 1_565
Mo1 V1 2.881174 1_665
As0 Mo1 2.514924 1_545
As0 V1 2.542954 1_555
As0 V1 2.542955 1_655
As0 V0 2.564414 1_555
As0 V0 2.564415 1_655
As0 Mo0 2.702107 1_556
As1 Mo0 2.513112 1_555
As1 V0 2.543032 1_555
As1 V0 2.543033 1_655
As1 V1 2.564102 1_565
As1 V1 2.564104 1_665
As1 Mo1 2.703111 1_554
As2 V1 2.458868 1_565
As2 Mo1 2.561901 1_555
As2 Mo1 2.561902 1_455
As2 Mo0 2.602108 1_456
As2 Mo0 2.602109 1_556
As2 V0 2.650463 1_555
As3 V0 2.457249 1_555
As3 Mo0 2.562581 1_455
As3 Mo0 2.562581 1_555
As3 Mo1 2.601498 1_544
As3 Mo1 2.601498 1_444
As3 V1 2.650549 1_555
