# generated using pymatgen
data_Dy(BRh)4
_symmetry_space_group_name_H-M   'P 1'
_cell_length_a   5.34260800
_cell_length_b   5.34260800
_cell_length_c   7.46246600
_cell_angle_alpha   90.00000000
_cell_angle_beta   90.00000000
_cell_angle_gamma   90.00000000
_symmetry_Int_Tables_number   1
_chemical_formula_structural   Dy(BRh)4
_chemical_formula_sum   'Dy2 B8 Rh8'
_cell_volume   213.00460158
_cell_formula_units_Z   2
loop_
 _symmetry_equiv_pos_site_id
 _symmetry_equiv_pos_as_xyz
  1  'x, y, z'
loop_
 _atom_site_type_symbol
 _atom_site_label
 _atom_site_symmetry_multiplicity
 _atom_site_fract_x
 _atom_site_fract_y
 _atom_site_fract_z
 _atom_site_occupancy
  Dy  Dy0  1  0.00000000  0.00000000  0.00000000  1
  Dy  Dy1  1  0.50000000  0.50000000  0.50000000  1
  B  B0  1  0.83107900  0.50000000  0.15157300  1
  B  B1  1  0.16892100  0.50000000  0.15157300  1
  B  B2  1  0.00000000  0.33107900  0.65157300  1
  B  B3  1  0.00000000  0.66892100  0.65157300  1
  B  B4  1  0.66892100  0.00000000  0.34842700  1
  B  B5  1  0.33107900  0.00000000  0.34842700  1
  B  B6  1  0.50000000  0.16892100  0.84842700  1
  B  B7  1  0.50000000  0.83107900  0.84842700  1
  Rh  Rh0  1  0.25084200  0.50000000  0.85565000  1
  Rh  Rh1  1  0.74915800  0.50000000  0.85565000  1
  Rh  Rh2  1  0.00000000  0.75084200  0.35565000  1
  Rh  Rh3  1  0.00000000  0.24915800  0.35565000  1
  Rh  Rh4  1  0.24915800  0.00000000  0.64435000  1
  Rh  Rh5  1  0.75084200  0.00000000  0.64435000  1
  Rh  Rh6  1  0.50000000  0.74915800  0.14435000  1
  Rh  Rh7  1  0.50000000  0.25084200  0.14435000  1
loop_
_geom_bond_atom_site_label_1
_geom_bond_atom_site_label_2
_geom_bond_distance
_geom_bond_site_symmetry_2
Dy0 Rh4 2.969145 1_554
Dy0 Rh5 2.969145 1_454
Dy0 Rh3 2.969145 1_555
Dy0 Rh2 2.969145 1_545
Dy0 Rh7 3.176829 1_455
Dy0 Rh0 3.176829 1_554
Dy0 Rh1 3.176829 1_444
Dy0 Rh0 3.176829 1_544
Dy0 Rh1 3.176829 1_454
Dy0 Rh6 3.176829 1_445
Dy0 Rh7 3.176829 1_555
Dy0 Rh6 3.176829 1_545
Dy1 Rh6 2.969145 1_555
Dy1 Rh1 2.969145 1_555
Dy1 Rh0 2.969145 1_555
Dy1 Rh7 2.969145 1_555
Dy1 Rh3 3.176829 1_555
Dy1 Rh2 3.176829 1_555
Dy1 Rh3 3.176829 1_655
Dy1 Rh2 3.176829 1_655
Dy1 Rh4 3.176829 1_565
Dy1 Rh4 3.176829 1_555
Dy1 Rh5 3.176829 1_565
Dy1 Rh5 3.176829 1_555
B0 B1 1.804957 1_655
B0 Rh7 2.214411 1_555
B0 Rh6 2.214411 1_555
B0 Rh3 2.220304 1_655
B0 Rh2 2.220304 1_655
B0 Rh1 2.251269 1_554
B0 Dy0 3.038049 1_655
B0 Dy0 3.038049 1_665
B0 Dy1 3.144740 1_555
B1 Rh7 2.214411 1_555
B1 Rh6 2.214411 1_555
B1 Rh3 2.220304 1_555
B1 Rh2 2.220304 1_555
B1 Rh0 2.251269 1_554
B1 Dy0 3.038049 1_565
B1 Dy0 3.038049 1_555
B1 Dy1 3.144740 1_555
B2 B3 1.804957 1_555
B2 Rh5 2.214411 1_455
B2 Rh4 2.214411 1_555
B2 Rh0 2.220304 1_555
B2 Rh1 2.220304 1_455
B2 Rh3 2.251269 1_555
B2 Dy1 3.038049 1_555
B2 Dy1 3.038049 1_455
B2 Dy0 3.144740 1_556
B3 Rh5 2.214411 1_465
B3 Rh4 2.214411 1_565
B3 Rh0 2.220304 1_555
B3 Rh1 2.220304 1_455
B3 Rh2 2.251269 1_555
B3 Dy1 3.038049 1_555
B3 Dy1 3.038049 1_455
B3 Dy0 3.144740 1_566
B4 B5 1.804957 1_555
B4 Rh3 2.214411 1_655
B4 Rh2 2.214411 1_645
B4 Rh7 2.220304 1_555
B4 Rh6 2.220304 1_545
B4 Rh5 2.251269 1_555
B4 Dy1 3.038049 1_545
B4 Dy1 3.038049 1_555
B4 Dy0 3.144740 1_655
B5 Rh2 2.214411 1_545
B5 Rh3 2.214411 1_555
B5 Rh6 2.220304 1_545
B5 Rh7 2.220304 1_555
B5 Rh4 2.251269 1_555
B5 Dy1 3.038049 1_545
B5 Dy1 3.038049 1_555
B5 Dy0 3.144740 1_555
B6 B7 1.804957 1_545
B6 Rh1 2.214411 1_555
B6 Rh0 2.214411 1_555
B6 Rh5 2.220304 1_555
B6 Rh4 2.220304 1_555
B6 Rh7 2.251269 1_556
B6 Dy0 3.038049 1_656
B6 Dy0 3.038049 1_556
B6 Dy1 3.144740 1_555
B7 Rh1 2.214411 1_555
B7 Rh0 2.214411 1_555
B7 Rh4 2.220304 1_565
B7 Rh5 2.220304 1_565
B7 Rh6 2.251269 1_556
B7 Dy0 3.038049 1_666
B7 Dy0 3.038049 1_566
B7 Dy1 3.144740 1_555
