# generated using pymatgen
data_Sr3Tm2(GeO4)3
_symmetry_space_group_name_H-M   'P 1'
_cell_length_a   11.40060016
_cell_length_b   11.40060016
_cell_length_c   11.40060016
_cell_angle_alpha   109.47122063
_cell_angle_beta   109.47122063
_cell_angle_gamma   109.47122063
_symmetry_Int_Tables_number   1
_chemical_formula_structural   Sr3Tm2(GeO4)3
_chemical_formula_sum   'Sr12 Tm8 Ge12 O48'
_cell_volume   1140.67323764
_cell_formula_units_Z   4
loop_
 _symmetry_equiv_pos_site_id
 _symmetry_equiv_pos_as_xyz
  1  'x, y, z'
loop_
 _atom_site_type_symbol
 _atom_site_label
 _atom_site_symmetry_multiplicity
 _atom_site_fract_x
 _atom_site_fract_y
 _atom_site_fract_z
 _atom_site_occupancy
  Sr  Sr0  1  0.87500000  0.62500000  0.75000000  1
  Sr  Sr1  1  0.12500000  0.37500000  0.25000000  1
  Sr  Sr2  1  0.62500000  0.87500000  0.25000000  1
  Sr  Sr3  1  0.62500000  0.75000000  0.87500000  1
  Sr  Sr4  1  0.87500000  0.25000000  0.62500000  1
  Sr  Sr5  1  0.37500000  0.12500000  0.75000000  1
  Sr  Sr6  1  0.37500000  0.25000000  0.12500000  1
  Sr  Sr7  1  0.12500000  0.75000000  0.37500000  1
  Sr  Sr8  1  0.75000000  0.87500000  0.62500000  1
  Sr  Sr9  1  0.25000000  0.12500000  0.37500000  1
  Sr  Sr10  1  0.25000000  0.62500000  0.87500000  1
  Sr  Sr11  1  0.75000000  0.37500000  0.12500000  1
  Tm  Tm0  1  0.00000000  0.00000000  -0.00000000  1
  Tm  Tm1  1  0.50000000  -0.00000000  0.50000000  1
  Tm  Tm2  1  0.50000000  0.50000000  -0.00000000  1
  Tm  Tm3  1  0.00000000  -0.00000000  0.50000000  1
  Tm  Tm4  1  0.00000000  0.50000000  0.50000000  1
  Tm  Tm5  1  0.50000000  0.50000000  0.50000000  1
  Tm  Tm6  1  0.50000000  0.00000000  -0.00000000  1
  Tm  Tm7  1  0.00000000  0.50000000  -0.00000000  1
  Ge  Ge0  1  0.62500000  0.37500000  0.75000000  1
  Ge  Ge1  1  0.37500000  0.62500000  0.25000000  1
  Ge  Ge2  1  0.87500000  0.12500000  0.25000000  1
  Ge  Ge3  1  0.37500000  0.75000000  0.62500000  1
  Ge  Ge4  1  0.62500000  0.25000000  0.37500000  1
  Ge  Ge5  1  0.12500000  0.87500000  0.75000000  1
  Ge  Ge6  1  0.12500000  0.25000000  0.87500000  1
  Ge  Ge7  1  0.87500000  0.75000000  0.12500000  1
  Ge  Ge8  1  0.75000000  0.62500000  0.37500000  1
  Ge  Ge9  1  0.25000000  0.37500000  0.62500000  1
  Ge  Ge10  1  0.25000000  0.87500000  0.12500000  1
  Ge  Ge11  1  0.75000000  0.12500000  0.87500000  1
  O  O0  1  0.70678365  0.61889455  0.51083967  1
  O  O1  1  0.29321635  0.38110545  0.48916033  1
  O  O2  1  0.79321635  0.80405603  0.41211090  1
  O  O3  1  0.39194513  0.88110545  0.08788910  1
  O  O4  1  0.61889455  0.51083967  0.70678365  1
  O  O5  1  0.70678365  0.08788910  0.69594397  1
  O  O6  1  0.20678365  0.19594397  0.58788910  1
  O  O7  1  0.60805487  0.11889455  0.91211090  1
  O  O8  1  0.38110545  0.48916033  0.29321635  1
  O  O9  1  0.29321635  0.91211090  0.30405603  1
  O  O10  1  0.10805487  0.69594397  0.98916033  1
  O  O11  1  0.80405603  0.41211090  0.79321635  1
  O  O12  1  0.79321635  0.98916033  0.88110545  1
  O  O13  1  0.89194513  0.30405603  0.01083967  1
  O  O14  1  0.19594397  0.58788910  0.20678365  1
  O  O15  1  0.20678365  0.01083967  0.11889455  1
  O  O16  1  0.88110545  0.08788910  0.39194513  1
  O  O17  1  0.39194513  0.51083967  0.80405603  1
  O  O18  1  0.11889455  0.91211090  0.60805487  1
  O  O19  1  0.60805487  0.48916033  0.19594397  1
  O  O20  1  0.69594397  0.98916033  0.10805487  1
  O  O21  1  0.10805487  0.41211090  0.61889455  1
  O  O22  1  0.30405603  0.01083967  0.89194513  1
  O  O23  1  0.89194513  0.58788910  0.38110545  1
  O  O24  1  0.51083967  0.70678365  0.61889455  1
  O  O25  1  0.61889455  0.10805487  0.41211090  1
  O  O26  1  0.48916033  0.29321635  0.38110545  1
  O  O27  1  0.38110545  0.89194513  0.58788910  1
  O  O28  1  0.08788910  0.39194513  0.88110545  1
  O  O29  1  0.88110545  0.79321635  0.98916033  1
  O  O30  1  0.91211090  0.60805487  0.11889455  1
  O  O31  1  0.11889455  0.20678365  0.01083967  1
  O  O32  1  0.98916033  0.10805487  0.69594397  1
  O  O33  1  0.69594397  0.70678365  0.08788910  1
  O  O34  1  0.01083967  0.89194513  0.30405603  1
  O  O35  1  0.30405603  0.29321635  0.91211090  1
  O  O36  1  0.41211090  0.79321635  0.80405603  1
  O  O37  1  0.80405603  0.39194513  0.51083967  1
  O  O38  1  0.58788910  0.20678365  0.19594397  1
  O  O39  1  0.19594397  0.60805487  0.48916033  1
  O  O40  1  0.08788910  0.69594397  0.70678365  1
  O  O41  1  0.91211090  0.30405603  0.29321635  1
  O  O42  1  0.98916033  0.88110545  0.79321635  1
  O  O43  1  0.01083967  0.11889455  0.20678365  1
  O  O44  1  0.41211090  0.61889455  0.10805487  1
  O  O45  1  0.58788910  0.38110545  0.89194513  1
  O  O46  1  0.51083967  0.80405603  0.39194513  1
  O  O47  1  0.48916033  0.19594397  0.60805487  1
loop_
_geom_bond_atom_site_label_1
_geom_bond_atom_site_label_2
_geom_bond_distance
_geom_bond_site_symmetry_2
Ge0 O4 1.789858 1_555
Ge0 O47 1.789858 1_555
Ge0 O11 1.789859 1_555
Ge0 O45 1.789859 1_555
Ge1 O8 1.789858 1_555
Ge1 O46 1.789858 1_555
Ge1 O14 1.789859 1_555
Ge1 O44 1.789859 1_555
Ge2 O43 1.789858 1_655
Ge2 O20 1.789858 1_545
Ge2 O16 1.789859 1_555
Ge2 O41 1.789859 1_555
Ge3 O24 1.789858 1_555
Ge3 O39 1.789858 1_555
Ge3 O36 1.789859 1_555
Ge3 O27 1.789859 1_555
Ge4 O26 1.789858 1_555
Ge4 O37 1.789858 1_555
Ge4 O38 1.789859 1_555
Ge4 O25 1.789859 1_555
Ge5 O42 1.789858 1_455
Ge5 O22 1.789858 1_565
Ge5 O18 1.789859 1_555
Ge5 O40 1.789859 1_555
Ge6 O31 1.789858 1_556
Ge6 O32 1.789858 1_455
Ge6 O28 1.789859 1_555
Ge6 O35 1.789859 1_555
Ge7 O29 1.789858 1_554
Ge7 O34 1.789858 1_655
Ge7 O30 1.789859 1_555
Ge7 O33 1.789859 1_555
Ge8 O0 1.789858 1_555
Ge8 O19 1.789858 1_555
Ge8 O2 1.789859 1_555
Ge8 O23 1.789859 1_555
Ge9 O1 1.789858 1_555
Ge9 O17 1.789858 1_555
Ge9 O6 1.789859 1_555
Ge9 O21 1.789859 1_555
Ge10 O15 1.789858 1_565
Ge10 O10 1.789858 1_554
Ge10 O9 1.789859 1_555
Ge10 O3 1.789859 1_555
Ge11 O12 1.789858 1_545
Ge11 O13 1.789858 1_556
Ge11 O7 1.789859 1_555
Ge11 O5 1.789859 1_555
O0 Tm5 2.230241 1_555
O0 Sr8 2.557680 1_555
O0 Sr0 2.723123 1_555
O1 Tm5 2.230241 1_555
O1 Sr9 2.557680 1_555
O1 Sr1 2.723123 1_555
O2 Tm3 2.230241 1_665
O2 Sr8 2.557680 1_555
O2 Sr2 2.723123 1_555
O3 Tm6 2.230241 1_565
O3 Sr10 2.557680 1_554
O3 Sr2 2.723123 1_555
O4 Tm5 2.230241 1_555
O4 Sr0 2.557680 1_555
O4 Sr3 2.723123 1_555
O5 Tm1 2.230241 1_555
O5 Sr8 2.557680 1_545
O5 Sr4 2.723123 1_555
O6 Tm3 2.230241 1_555
O6 Sr9 2.557680 1_555
O6 Sr5 2.723123 1_555
O7 Tm6 2.230241 1_556
O7 Sr11 2.557680 1_556
O7 Sr5 2.723123 1_555
O8 Tm5 2.230241 1_555
O8 Sr1 2.557680 1_555
O8 Sr6 2.723123 1_555
O9 Tm1 2.230241 1_565
O9 Sr9 2.557680 1_565
O9 Sr7 2.723123 1_555
O10 Tm7 2.230241 1_556
O10 Sr10 2.557680 1_555
O10 Sr0 2.723123 1_455
O11 Tm7 2.230241 1_656
O11 Sr0 2.557680 1_555
O11 Sr4 2.723123 1_555
O12 Tm0 2.230241 1_666
O12 Sr8 2.557680 1_555
O12 Sr3 2.723123 1_555
O13 Tm7 2.230241 1_655
O13 Sr11 2.557680 1_555
O13 Sr1 2.723123 1_655
O14 Tm7 2.230241 1_555
O14 Sr1 2.557680 1_555
O14 Sr7 2.723123 1_555
O15 Tm0 2.230241 1_555
O15 Sr9 2.557680 1_555
O15 Sr6 2.723123 1_555
O16 Tm3 2.230241 1_655
O16 Sr2 2.557680 1_545
O16 Sr4 2.723123 1_555
O17 Tm2 2.230241 1_556
O17 Sr10 2.557680 1_555
O17 Sr3 2.723123 1_555
O18 Tm3 2.230241 1_565
O18 Sr5 2.557680 1_565
O18 Sr7 2.723123 1_555
O19 Tm2 2.230241 1_555
O19 Sr11 2.557680 1_555
O19 Sr6 2.723123 1_555
O20 Tm6 2.230241 1_565
O20 Sr2 2.557680 1_555
O20 Sr3 2.723123 1_554
O21 Tm4 2.230241 1_555
O21 Sr10 2.557680 1_555
O21 Sr4 2.723123 1_455
O22 Tm6 2.230241 1_556
O22 Sr5 2.557680 1_555
O22 Sr6 2.723123 1_556
O23 Tm4 2.230241 1_655
O23 Sr11 2.557680 1_555
O23 Sr7 2.723123 1_655
O24 Tm5 2.230241 1_555
O24 Sr3 2.557680 1_555
O24 Sr8 2.723123 1_555
O25 Tm1 2.230241 1_555
O25 Sr4 2.557680 1_555
O25 Sr2 2.723123 1_545
O26 Tm5 2.230241 1_555
O26 Sr6 2.557680 1_555
O26 Sr9 2.723123 1_555
O27 Tm1 2.230241 1_565
O27 Sr7 2.557680 1_555
O27 Sr5 2.723123 1_565
O28 Tm7 2.230241 1_556
O28 Sr4 2.557680 1_455
O28 Sr10 2.723123 1_555
O29 Tm0 2.230241 1_666
O29 Sr3 2.557680 1_555
O29 Sr0 2.723123 1_555
O30 Tm7 2.230241 1_655
O30 Sr7 2.557680 1_655
O30 Sr11 2.723123 1_555
O31 Tm0 2.230241 1_555
O31 Sr6 2.557680 1_555
O31 Sr1 2.723123 1_555
O32 Tm3 2.230241 1_655
O32 Sr4 2.557680 1_555
O32 Sr8 2.723123 1_545
O33 Tm2 2.230241 1_555
O33 Sr3 2.557680 1_554
O33 Sr2 2.723123 1_555
O34 Tm3 2.230241 1_565
O34 Sr7 2.557680 1_555
O34 Sr9 2.723123 1_565
O35 Tm2 2.230241 1_556
O35 Sr6 2.557680 1_556
O35 Sr5 2.723123 1_555
O36 Tm6 2.230241 1_566
O36 Sr3 2.557680 1_555
O36 Sr10 2.723123 1_555
O37 Tm4 2.230241 1_655
O37 Sr4 2.557680 1_555
O37 Sr0 2.723123 1_555
O38 Tm6 2.230241 1_555
O38 Sr6 2.557680 1_555
O38 Sr11 2.723123 1_555
O39 Tm4 2.230241 1_555
O39 Sr7 2.557680 1_555
O39 Sr1 2.723123 1_555
O40 Tm4 2.230241 1_555
O40 Sr0 2.557680 1_455
O40 Sr10 2.723123 1_555
O41 Tm4 2.230241 1_655
O41 Sr1 2.557680 1_655
O41 Sr11 2.723123 1_555
O42 Tm0 2.230241 1_666
O42 Sr0 2.557680 1_555
O42 Sr8 2.723123 1_555
O43 Tm0 2.230241 1_555
O43 Sr1 2.557680 1_555
O43 Sr9 2.723123 1_555
O44 Tm2 2.230241 1_555
O44 Sr2 2.557680 1_555
O44 Sr10 2.723123 1_554
O45 Tm2 2.230241 1_556
O45 Sr5 2.557680 1_555
O45 Sr11 2.723123 1_556
O46 Tm1 2.230241 1_565
O46 Sr2 2.557680 1_555
O46 Sr8 2.723123 1_555
O47 Tm1 2.230241 1_555
O47 Sr5 2.557680 1_555
O47 Sr9 2.723123 1_555
