# generated using pymatgen
data_Rb2Pr2Mg(WO4)4
_symmetry_space_group_name_H-M   'P 1'
_cell_length_a   8.40156897
_cell_length_b   7.64090741
_cell_length_c   7.55047864
_cell_angle_alpha   61.08468863
_cell_angle_beta   64.54454925
_cell_angle_gamma   87.70885241
_symmetry_Int_Tables_number   1
_chemical_formula_structural   Rb2Pr2Mg(WO4)4
_chemical_formula_sum   'Rb2 Pr2 Mg1 W4 O16'
_cell_volume   374.35433850
_cell_formula_units_Z   1
loop_
 _symmetry_equiv_pos_site_id
 _symmetry_equiv_pos_as_xyz
  1  'x, y, z'
loop_
 _atom_site_type_symbol
 _atom_site_label
 _atom_site_symmetry_multiplicity
 _atom_site_fract_x
 _atom_site_fract_y
 _atom_site_fract_z
 _atom_site_occupancy
  Rb  Rb0  1  0.79068767  0.20216376  0.75000878  1
  Rb  Rb1  1  0.19933996  0.79055279  0.26145489  1
  Pr  Pr0  1  0.16014355  0.74321056  0.79864498  1
  Pr  Pr1  1  0.83791248  0.26059372  0.21283981  1
  Mg  Mg0  1  0.52859323  0.92172909  0.44449773  1
  W  W0  1  0.31316785  0.31440141  0.69748516  1
  W  W1  1  0.68205891  0.66452113  0.29745759  1
  W  W2  1  0.67554030  0.68495663  0.79764146  1
  W  W3  1  0.32455249  0.31117134  0.19396184  1
  O  O0  1  0.37977325  0.25554916  0.93172550  1
  O  O1  1  0.63180066  0.75017500  0.04837613  1
  O  O2  1  0.72334883  0.61338868  0.57497501  1
  O  O3  1  0.28268775  0.38994551  0.42888828  1
  O  O4  1  0.65855208  0.95464613  0.59922315  1
  O  O5  1  0.32787869  0.03003164  0.41531111  1
  O  O6  1  0.09839418  0.39209728  0.84225997  1
  O  O7  1  0.91774125  0.59975526  0.15729341  1
  O  O8  1  0.42102801  0.64631420  0.52680168  1
  O  O9  1  0.58254050  0.35853462  0.47855858  1
  O  O10  1  0.39468973  0.61856027  0.94085979  1
  O  O11  1  0.61322950  0.39065004  0.04818203  1
  O  O12  1  0.22773624  0.04253903  0.82093051  1
  O  O13  1  0.75695139  0.96421751  0.19020480  1
  O  O14  1  0.91646177  0.73699231  0.71971100  1
  O  O15  1  0.08018975  0.24663592  0.28937182  1
loop_
_geom_bond_atom_site_label_1
_geom_bond_atom_site_label_2
_geom_bond_distance
_geom_bond_site_symmetry_2
Mg0 O5 1.899620 1_565
Mg0 O13 1.937330 1_555
Mg0 O4 2.005699 1_555
Mg0 O8 2.009009 1_555
O0 W0 1.924823 1_555
O0 W3 2.079582 1_556
O0 Rb1 3.122881 1_546
O0 Rb0 3.213143 1_555
O1 W1 1.901016 1_555
O1 W2 2.065693 1_554
O1 Rb0 3.007354 1_564
O1 Rb1 3.354142 1_555
O2 W2 1.891545 1_555
O2 W1 2.118013 1_555
O2 Rb0 2.902508 1_555
O3 W0 1.953015 1_555
O3 W3 2.027713 1_555
O3 Rb1 2.881970 1_555
O4 W2 1.919915 1_555
O4 Pr1 2.480768 1_565
O4 Rb0 3.072791 1_565
O5 W3 1.993013 1_555
O5 Pr0 2.402677 1_545
O5 Rb1 3.025905 1_545
O6 W0 1.910413 1_555
O6 Pr1 2.412734 1_456
O6 Pr0 2.585574 1_555
O6 Rb0 3.478523 1_455
O7 W1 1.977990 1_555
O7 Pr0 2.291175 1_654
O7 Pr1 2.487513 1_555
O7 Rb1 3.365304 1_655
O8 W1 2.086732 1_555
O8 W0 2.221064 1_555
O8 Pr0 2.652881 1_555
O8 Rb1 3.099350 1_555
O9 W1 2.029057 1_555
O9 W0 2.067398 1_555
O9 Pr1 2.609950 1_555
O9 Rb0 3.038486 1_555
O10 W3 2.077964 1_556
O10 W2 2.089542 1_555
O10 Pr0 2.573541 1_555
O10 Rb1 3.125533 1_556
O11 W2 2.009634 1_554
O11 W3 2.153870 1_555
O11 Pr1 2.601777 1_555
O11 Rb0 3.073122 1_554
O12 W0 1.835972 1_555
O12 Pr0 2.477897 1_545
O12 Rb1 2.826482 1_546
O13 W1 2.044379 1_555
O13 Pr1 2.493507 1_565
O13 Rb0 2.796526 1_564
O14 W2 1.848150 1_555
O14 Pr0 2.373390 1_655
O14 Rb1 3.070400 1_655
O15 W3 1.855563 1_555
O15 Pr1 2.328677 1_455
O15 Rb0 3.127193 1_455
