# generated using pymatgen
data_Nd4Si5
_symmetry_space_group_name_H-M   'P 1'
_cell_length_a   12.75756531
_cell_length_b   12.75756531
_cell_length_c   3.96225885
_cell_angle_alpha   90.00000000
_cell_angle_beta   90.00000000
_cell_angle_gamma   160.68771007
_symmetry_Int_Tables_number   1
_chemical_formula_structural   Nd4Si5
_chemical_formula_sum   'Nd4 Si5'
_cell_volume   213.27244191
_cell_formula_units_Z   1
loop_
 _symmetry_equiv_pos_site_id
 _symmetry_equiv_pos_as_xyz
  1  'x, y, z'
loop_
 _atom_site_type_symbol
 _atom_site_label
 _atom_site_symmetry_multiplicity
 _atom_site_fract_x
 _atom_site_fract_y
 _atom_site_fract_z
 _atom_site_occupancy
  Nd  Nd0  1  0.42980546  0.57019454  0.50000000  1
  Nd  Nd1  1  0.56974810  0.43025190  -0.00000000  1
  Nd  Nd2  1  0.70178757  0.29821243  0.50000000  1
  Nd  Nd3  1  0.29691422  0.70308578  -0.00000000  1
  Si  Si0  1  0.83083955  0.16916045  0.50000000  1
  Si  Si1  1  0.16877918  0.83122082  0.00000000  1
  Si  Si2  1  0.11246001  0.88753999  0.50000000  1
  Si  Si3  1  0.88787021  0.11212979  0.00000000  1
  Si  Si4  1  0.01979769  0.98020231  0.50000000  1
loop_
_geom_bond_atom_site_label_1
_geom_bond_atom_site_label_2
_geom_bond_distance
_geom_bond_site_symmetry_2
Nd0 Si3 3.101072 1_455
Nd0 Si3 3.101072 1_456
Nd0 Si3 3.101072 1_566
Nd0 Si3 3.101072 1_565
Nd0 Si4 3.114988 1_545
Nd0 Si4 3.114988 1_655
Nd0 Si0 3.282682 1_565
Nd0 Si0 3.282682 1_455
Nd1 Si2 3.107772 1_654
Nd1 Si2 3.107772 1_655
Nd1 Si2 3.107772 1_544
Nd1 Si2 3.107772 1_545
Nd1 Si4 3.175315 1_655
Nd1 Si4 3.175315 1_654
Nd1 Si4 3.175315 1_544
Nd1 Si4 3.175315 1_545
Nd1 Si1 3.283925 1_545
Nd1 Si1 3.283925 1_655
Nd2 Si1 3.032056 1_546
Nd2 Si1 3.032056 1_655
Nd2 Si1 3.032056 1_656
Nd2 Si1 3.032056 1_545
Nd2 Si2 3.102860 1_545
Nd2 Si2 3.102860 1_655
Nd2 Si0 3.246127 1_555
Nd3 Si0 3.038453 1_455
Nd3 Si0 3.038453 1_454
Nd3 Si0 3.038453 1_565
Nd3 Si0 3.038453 1_564
Nd3 Si3 3.132649 1_565
Nd3 Si3 3.132649 1_455
Nd3 Si1 3.223062 1_555
Si0 Si3 2.445965 1_555
Si0 Si3 2.445965 1_556
Si1 Si2 2.435512 1_555
Si1 Si2 2.435512 1_554
Si2 Si4 2.330794 1_555
