# generated using pymatgen
data_CaMgCd2
_symmetry_space_group_name_H-M   'P 1'
_cell_length_a   13.41105359
_cell_length_b   13.04125595
_cell_length_c   13.04125612
_cell_angle_alpha   59.36056550
_cell_angle_beta   59.05747337
_cell_angle_gamma   59.05747659
_symmetry_Int_Tables_number   1
_chemical_formula_structural   CaMgCd2
_chemical_formula_sum   'Ca1 Mg1 Cd2'
_cell_volume   1581.86363272
_cell_formula_units_Z   1
loop_
 _symmetry_equiv_pos_site_id
 _symmetry_equiv_pos_as_xyz
  1  'x, y, z'
loop_
 _atom_site_type_symbol
 _atom_site_label
 _atom_site_symmetry_multiplicity
 _atom_site_fract_x
 _atom_site_fract_y
 _atom_site_fract_z
 _atom_site_occupancy
  Ca  Ca0  1  0.50000000  -0.00000000  0.00000000  1
  Mg  Mg0  1  -0.00000000  -0.00000000  0.00000000  1
  Cd  Cd0  1  0.76106469  1.00000000  0.00000000  1
  Cd  Cd1  1  0.23893531  0.00000000  1.00000000  1
loop_
_geom_bond_atom_site_label_1
_geom_bond_atom_site_label_2
_geom_bond_distance
_geom_bond_site_symmetry_2
Ca0 Cd0 3.501153 1_545
Ca0 Cd1 3.501153 1_554
Cd0 Mg0 3.204374 1_665
Cd1 Mg0 3.204374 1_556
