# generated using pymatgen
data_NdZr2F11
_symmetry_space_group_name_H-M   'P 1'
_cell_length_a   8.37749678
_cell_length_b   8.37748766
_cell_length_c   8.37750003
_cell_angle_alpha   124.62547968
_cell_angle_beta   106.12545480
_cell_angle_gamma   98.86172499
_symmetry_Int_Tables_number   1
_chemical_formula_structural   NdZr2F11
_chemical_formula_sum   'Nd2 Zr4 F22'
_cell_volume   427.08322583
_cell_formula_units_Z   2
loop_
 _symmetry_equiv_pos_site_id
 _symmetry_equiv_pos_as_xyz
  1  'x, y, z'
loop_
 _atom_site_type_symbol
 _atom_site_label
 _atom_site_symmetry_multiplicity
 _atom_site_fract_x
 _atom_site_fract_y
 _atom_site_fract_z
 _atom_site_occupancy
  Nd  Nd0  1  0.24999620  0.74999560  0.49998896  1
  Nd  Nd1  1  0.75000364  0.25000397  0.50001092  1
  Zr  Zr0  1  0.18082947  0.13338937  0.31421925  1
  Zr  Zr1  1  0.81917002  0.86661082  0.68578089  1
  Zr  Zr2  1  0.68082719  0.36660698  0.04744231  1
  Zr  Zr3  1  0.31917187  0.63339246  0.95255717  1
  F  F0  1  0.20642307  0.39573968  0.34207277  1
  F  F1  1  0.79357688  0.60426047  0.65792738  1
  F  F2  1  0.05367249  0.86435214  0.65794296  1
  F  F3  1  0.44633424  0.10425718  0.81068140  1
  F  F4  1  0.94632744  0.13564786  0.34205684  1
  F  F5  1  0.55366558  0.89574304  0.18931848  1
  F  F6  1  0.29357750  0.63564793  0.18931102  1
  F  F7  1  0.70642251  0.36435208  0.81068908  1
  F  F8  1  0.00000015  0.00000002  0.00000013  1
  F  F9  1  0.50000007  0.50000022  0.00000024  1
  F  F10  1  0.28112722  0.36990022  0.65103112  1
  F  F11  1  0.71887285  0.63010010  0.34896899  1
  F  F12  1  0.78113126  0.13009807  0.91122508  1
  F  F13  1  0.21886861  0.86990212  0.08877518  1
  F  F14  1  0.45320146  0.23996831  0.41845026  1
  F  F15  1  0.54679865  0.76003215  0.58154983  1
  F  F16  1  0.82149996  0.03474144  0.58153862  1
  F  F17  1  0.67850390  0.26004119  0.21324767  1
  F  F18  1  0.17850040  0.96525891  0.41846192  1
  F  F19  1  0.32149608  0.73995862  0.78675250  1
  F  F20  1  0.04679960  0.46526020  0.78675939  1
  F  F21  1  0.95320069  0.53473982  0.21324062  1
loop_
_geom_bond_atom_site_label_1
_geom_bond_atom_site_label_2
_geom_bond_distance
_geom_bond_site_symmetry_2
F0 Zr0 2.043309 1_555
F0 Nd0 2.372188 1_555
F1 Zr1 2.043310 1_555
F1 Nd1 2.372192 1_555
F2 Zr1 2.043310 1_455
F2 Nd0 2.372258 1_555
F3 Zr2 2.043293 1_556
F3 Nd0 2.372225 1_545
F4 Zr0 2.043305 1_655
F4 Nd1 2.372258 1_555
F5 Zr3 2.043299 1_554
F5 Nd1 2.372222 1_565
F6 Zr3 2.043311 1_554
F6 Nd0 2.372184 1_555
F7 Zr2 2.043312 1_556
F7 Nd1 2.372185 1_555
F8 Zr0 2.096053 1_555
F8 Zr1 2.096056 1_444
F9 Zr2 2.096066 1_555
F9 Zr3 2.096069 1_554
F10 Zr3 2.086728 1_555
F10 Zr0 2.100044 1_555
F11 Zr2 2.086731 1_555
F11 Zr1 2.100045 1_555
F12 Zr1 2.086718 1_545
F12 Zr2 2.100055 1_556
F13 Zr0 2.086720 1_565
F13 Zr3 2.100056 1_554
F14 Zr0 2.036120 1_555
F14 Nd1 2.362836 1_555
F15 Zr1 2.036115 1_555
F15 Nd0 2.362836 1_555
F16 Zr1 2.036114 1_545
F16 Nd1 2.362755 1_555
F17 Zr2 2.036100 1_555
F17 Nd1 2.362824 1_555
F18 Zr0 2.036115 1_565
F18 Nd0 2.362757 1_555
F19 Zr3 2.036098 1_555
F19 Nd0 2.362825 1_555
F20 Zr3 2.036111 1_555
F20 Nd1 2.362758 1_455
F21 Zr2 2.036120 1_555
F21 Nd0 2.362755 1_655
