# generated using pymatgen
data_Ca4IrN4
_symmetry_space_group_name_H-M   'P 1'
_cell_length_a   6.15255069
_cell_length_b   5.99020432
_cell_length_c   8.69471361
_cell_angle_alpha   66.70043548
_cell_angle_beta   77.79691354
_cell_angle_gamma   70.34108733
_symmetry_Int_Tables_number   1
_chemical_formula_structural   Ca4IrN4
_chemical_formula_sum   'Ca8 Ir2 N8'
_cell_volume   276.01839410
_cell_formula_units_Z   2
loop_
 _symmetry_equiv_pos_site_id
 _symmetry_equiv_pos_as_xyz
  1  'x, y, z'
loop_
 _atom_site_type_symbol
 _atom_site_label
 _atom_site_symmetry_multiplicity
 _atom_site_fract_x
 _atom_site_fract_y
 _atom_site_fract_z
 _atom_site_occupancy
  Ca  Ca0  1  0.78226862  0.59235518  0.15023787  1
  Ca  Ca1  1  0.21773138  0.40764482  0.84976213  1
  Ca  Ca2  1  0.72303025  0.21610601  0.98677386  1
  Ca  Ca3  1  0.27696975  0.78389399  0.01322614  1
  Ca  Ca4  1  0.73367417  0.47966962  0.57001096  1
  Ca  Ca5  1  0.26632583  0.52033038  0.42998904  1
  Ca  Ca6  1  0.21151241  0.95504296  0.62014150  1
  Ca  Ca7  1  0.78848759  0.04495704  0.37985850  1
  Ir  Ir0  1  0.70959383  0.85252639  0.76040080  1
  Ir  Ir1  1  0.29040617  0.14747361  0.23959920  1
  N  N0  1  0.98207092  0.67017729  0.62479092  1
  N  N1  1  0.01792908  0.32982271  0.37520908  1
  N  N2  1  0.94703665  0.86188695  0.87971323  1
  N  N3  1  0.05296335  0.13811305  0.12028677  1
  N  N4  1  0.50917338  0.62058001  0.78982671  1
  N  N5  1  0.49082662  0.37941999  0.21017329  1
  N  N6  1  0.53355775  0.84022110  0.31847765  1
  N  N7  1  0.46644225  0.15977890  0.68152235  1
loop_
_geom_bond_atom_site_label_1
_geom_bond_atom_site_label_2
_geom_bond_distance
_geom_bond_site_symmetry_2
Ca0 N1 2.373371 1_655
Ca0 N5 2.394120 1_555
Ca0 N6 2.434956 1_555
Ca0 N2 2.501196 1_554
Ca0 N3 2.752001 1_655
Ca1 N0 2.373371 1_455
Ca1 N4 2.394120 1_555
Ca1 N7 2.434956 1_555
Ca1 N3 2.501196 1_556
Ca1 N2 2.752001 1_455
Ca2 N3 2.369713 1_656
Ca2 N4 2.461567 1_555
Ca2 N5 2.482068 1_556
Ca2 N2 2.514101 1_545
Ca3 N2 2.369713 1_454
Ca3 N5 2.461567 1_555
Ca3 N4 2.482068 1_554
Ca3 N3 2.514101 1_565
Ca4 N1 2.372191 1_655
Ca4 N4 2.376733 1_555
Ca4 N0 2.403318 1_555
Ca4 N6 2.564392 1_555
Ca4 N7 2.700248 1_555
Ca5 N0 2.372191 1_455
Ca5 N5 2.376733 1_555
Ca5 N1 2.403318 1_555
Ca5 N7 2.564392 1_555
Ca5 N6 2.700248 1_555
Ca6 N4 2.424832 1_555
Ca6 N2 2.472833 1_455
Ca6 N7 2.532769 1_565
Ca6 N0 2.539346 1_455
Ca6 N1 2.546555 1_565
Ca7 N5 2.424832 1_555
Ca7 N3 2.472833 1_655
Ca7 N6 2.532769 1_545
Ca7 N1 2.539346 1_655
Ca7 N0 2.546555 1_545
Ir0 N7 1.917925 1_565
Ir0 N2 1.988793 1_555
Ir0 N4 2.062671 1_555
Ir0 N0 2.084448 1_555
Ir1 N6 1.917925 1_545
Ir1 N3 1.988793 1_555
Ir1 N5 2.062671 1_555
Ir1 N1 2.084448 1_555
