# generated using pymatgen
data_Sb5O14
_symmetry_space_group_name_H-M   'P 1'
_cell_length_a   16.88951900
_cell_length_b   5.61086100
_cell_length_c   5.62616312
_cell_angle_alpha   73.23605924
_cell_angle_beta   90.00000000
_cell_angle_gamma   90.00000000
_symmetry_Int_Tables_number   1
_chemical_formula_structural   Sb5O14
_chemical_formula_sum   'Sb10 O28'
_cell_volume   510.50316941
_cell_formula_units_Z   2
loop_
 _symmetry_equiv_pos_site_id
 _symmetry_equiv_pos_as_xyz
  1  'x, y, z'
loop_
 _atom_site_type_symbol
 _atom_site_label
 _atom_site_symmetry_multiplicity
 _atom_site_fract_x
 _atom_site_fract_y
 _atom_site_fract_z
 _atom_site_occupancy
  Sb  Sb0  1  0.63948800  0.22965000  0.23264000  1
  Sb  Sb1  1  0.36051200  0.77035000  0.76736000  1
  Sb  Sb2  1  0.86051200  0.22965000  0.23264000  1
  Sb  Sb3  1  0.13948800  0.77035000  0.76736000  1
  Sb  Sb4  1  0.42097400  0.38615800  0.38625400  1
  Sb  Sb5  1  0.57902600  0.61384200  0.61374600  1
  Sb  Sb6  1  0.07902600  0.38615800  0.38625400  1
  Sb  Sb7  1  0.92097400  0.61384200  0.61374600  1
  Sb  Sb8  1  0.50000000  0.00000000  0.00000000  1
  Sb  Sb9  1  0.00000000  0.00000000  0.00000000  1
  O  O0  1  0.38545500  0.98567500  0.98781000  1
  O  O1  1  0.61454500  0.01432500  0.01219000  1
  O  O2  1  0.11454500  0.98567500  0.98781000  1
  O  O3  1  0.88545500  0.01432500  0.01219000  1
  O  O4  1  0.25000000  0.82390900  0.82357300  1
  O  O5  1  0.75000000  0.17609100  0.17642700  1
  O  O6  1  0.65252300  0.44685100  0.44590100  1
  O  O7  1  0.34747700  0.55314900  0.55409900  1
  O  O8  1  0.84747700  0.44685100  0.44590100  1
  O  O9  1  0.15252300  0.55314900  0.55409900  1
  O  O10  1  0.50020700  0.31086400  0.68951700  1
  O  O11  1  0.99979300  0.31086400  0.68951700  1
  O  O12  1  0.49979300  0.68913600  0.31048300  1
  O  O13  1  0.00020700  0.68913600  0.31048300  1
  O  O14  1  0.48962900  0.77270000  0.77486400  1
  O  O15  1  0.51037100  0.22730000  0.22513600  1
  O  O16  1  0.01037100  0.77270000  0.77486400  1
  O  O17  1  0.98962900  0.22730000  0.22513600  1
  O  O18  1  0.36550000  0.47036500  0.06607900  1
  O  O19  1  0.63348300  0.93295600  0.52906900  1
  O  O20  1  0.13450000  0.47036500  0.06607900  1
  O  O21  1  0.86651700  0.93295600  0.52906900  1
  O  O22  1  0.63450000  0.52963500  0.93392100  1
  O  O23  1  0.36651700  0.06704400  0.47093100  1
  O  O24  1  0.86550000  0.52963500  0.93392100  1
  O  O25  1  0.13348300  0.06704400  0.47093100  1
  O  O26  1  0.25000000  0.17814000  0.08329600  1
  O  O27  1  0.75000000  0.82186000  0.91670400  1
loop_
_geom_bond_atom_site_label_1
_geom_bond_atom_site_label_2
_geom_bond_distance
_geom_bond_site_symmetry_2
O0 Sb8 1.938314 1_566
O0 Sb1 2.009934 1_555
O1 Sb8 1.938314 1_555
O1 Sb0 2.009934 1_555
O2 Sb9 1.938314 1_566
O2 Sb3 2.009934 1_555
O3 Sb9 1.938314 1_655
O3 Sb2 2.009934 1_555
O4 Sb1 1.931051 1_555
O4 Sb3 1.931051 1_555
O5 Sb0 1.931051 1_555
O5 Sb2 1.931051 1_555
O6 Sb0 1.953658 1_555
O6 Sb5 1.954724 1_555
O7 Sb1 1.953658 1_555
O7 Sb4 1.954724 1_555
O8 Sb2 1.953658 1_555
O8 Sb7 1.954724 1_555
O9 Sb3 1.953658 1_555
O9 Sb6 1.954724 1_555
O10 Sb8 2.082332 1_556
O10 Sb5 2.103736 1_555
O10 Sb4 2.112963 1_555
O11 Sb9 2.082332 1_656
O11 Sb7 2.103736 1_555
O11 Sb6 2.112963 1_655
O12 Sb8 2.082332 1_565
O12 Sb4 2.103736 1_555
O12 Sb5 2.112963 1_555
O13 Sb9 2.082332 1_565
O13 Sb6 2.103736 1_555
O13 Sb7 2.112963 1_455
O14 Sb8 2.047797 1_566
O14 Sb5 2.088532 1_555
O14 Sb1 2.181246 1_555
O15 Sb8 2.047797 1_555
O15 Sb4 2.088532 1_555
O15 Sb0 2.181246 1_555
O16 Sb9 2.047797 1_566
O16 Sb7 2.088532 1_455
O16 Sb3 2.181246 1_555
O17 Sb9 2.047797 1_655
O17 Sb6 2.088532 1_655
O17 Sb2 2.181246 1_555
O18 Sb4 1.963414 1_555
O18 Sb1 2.008209 1_554
O19 Sb5 1.945957 1_555
O19 Sb0 1.990329 1_565
O20 Sb6 1.963414 1_555
O20 Sb3 2.008209 1_554
O21 Sb7 1.945957 1_555
O21 Sb2 1.990329 1_565
O22 Sb5 1.963414 1_555
O22 Sb0 2.008209 1_556
O23 Sb4 1.945957 1_555
O23 Sb1 1.990329 1_545
O24 Sb7 1.963414 1_555
O24 Sb2 2.008209 1_556
O25 Sb6 1.945957 1_555
O25 Sb3 1.990329 1_545
