# generated using pymatgen
data_Na2V2NiH4(OF)6
_symmetry_space_group_name_H-M   'P 1'
_cell_length_a   8.33076400
_cell_length_b   5.33051600
_cell_length_c   10.63787942
_cell_angle_alpha   90.00000000
_cell_angle_beta   91.23332035
_cell_angle_gamma   90.00000000
_symmetry_Int_Tables_number   1
_chemical_formula_structural   Na2V2NiH4(OF)6
_chemical_formula_sum   'Na4 V4 Ni2 H8 O12 F12'
_cell_volume   472.28975391
_cell_formula_units_Z   2
loop_
 _symmetry_equiv_pos_site_id
 _symmetry_equiv_pos_as_xyz
  1  'x, y, z'
loop_
 _atom_site_type_symbol
 _atom_site_label
 _atom_site_symmetry_multiplicity
 _atom_site_fract_x
 _atom_site_fract_y
 _atom_site_fract_z
 _atom_site_occupancy
  Na  Na0  1  0.46237000  0.95062600  0.83586200  1
  Na  Na1  1  0.53763000  0.45062600  0.66413800  1
  Na  Na2  1  0.53763000  0.04937400  0.16413800  1
  Na  Na3  1  0.46237000  0.54937400  0.33586200  1
  V  V0  1  0.71105000  0.52892800  0.00824200  1
  V  V1  1  0.28895000  0.02892800  0.49175800  1
  V  V2  1  0.28895000  0.47107200  0.99175800  1
  V  V3  1  0.71105000  0.97107200  0.50824200  1
  Ni  Ni0  1  0.00000000  0.00000000  0.00000000  1
  Ni  Ni1  1  0.00000000  0.50000000  0.50000000  1
  H  H0  1  0.84118500  0.93802000  0.78630400  1
  H  H1  1  0.15881500  0.43802000  0.71369600  1
  H  H2  1  0.15881500  0.06198000  0.21369600  1
  H  H3  1  0.84118500  0.56198000  0.28630400  1
  H  H4  1  0.00471100  0.06821000  0.76164300  1
  H  H5  1  0.99528900  0.56821000  0.73835700  1
  H  H6  1  0.99528900  0.93179000  0.23835700  1
  H  H7  1  0.00471100  0.43179000  0.26164300  1
  O  O0  1  0.95630200  0.92835200  0.80841500  1
  O  O1  1  0.04369800  0.42835200  0.69158500  1
  O  O2  1  0.04369800  0.07164800  0.19158500  1
  O  O3  1  0.95630200  0.57164800  0.30841500  1
  O  O4  1  0.85420300  0.31728300  0.98692400  1
  O  O5  1  0.14579700  0.81728300  0.51307600  1
  O  O6  1  0.14579700  0.68271700  0.01307600  1
  O  O7  1  0.85420300  0.18271700  0.48692400  1
  O  O8  1  0.80435300  0.80009900  0.04608500  1
  O  O9  1  0.19564700  0.30009900  0.45391500  1
  O  O10  1  0.19564700  0.19990100  0.95391500  1
  O  O11  1  0.80435300  0.69990100  0.54608500  1
  F  F0  1  0.52058500  0.27448300  0.97022100  1
  F  F1  1  0.47941500  0.77448300  0.52977900  1
  F  F2  1  0.47941500  0.72551700  0.02977900  1
  F  F3  1  0.52058500  0.22551700  0.47022100  1
  F  F4  1  0.66943300  0.62007000  0.83790600  1
  F  F5  1  0.33056700  0.12007000  0.66209400  1
  F  F6  1  0.33056700  0.37993000  0.16209400  1
  F  F7  1  0.66943300  0.87993000  0.33790600  1
  F  F8  1  0.66651900  0.43698500  0.17916500  1
  F  F9  1  0.33348100  0.93698500  0.32083500  1
  F  F10  1  0.33348100  0.56301500  0.82083500  1
  F  F11  1  0.66651900  0.06301500  0.67916500  1
loop_
_geom_bond_atom_site_label_1
_geom_bond_atom_site_label_2
_geom_bond_distance
_geom_bond_site_symmetry_2
Na0 O10 2.898304 1_565
Na1 O11 2.898304 1_555
Na2 O8 2.898304 1_545
Na3 O9 2.898304 1_555
Ni0 O8 2.016613 1_445
Ni0 O10 2.016613 1_554
Ni0 O4 2.085130 1_454
Ni0 O6 2.085130 1_545
Ni0 O2 2.097649 1_555
Ni0 O0 2.097649 1_444
Ni1 O11 2.016613 1_455
Ni1 O9 2.016613 1_555
Ni1 O7 2.085130 1_455
Ni1 O5 2.085130 1_555
Ni1 O3 2.097649 1_455
Ni1 O1 2.097649 1_555
H0 O0 0.983858 1_555
H1 O1 0.983858 1_555
H2 O2 0.983858 1_555
H3 O3 0.983858 1_555
H4 O0 0.987233 1_445
H5 O1 0.987233 1_655
H6 O2 0.987233 1_665
H7 O3 0.987233 1_455
O4 V0 1.660749 1_556
O5 V1 1.660749 1_565
O6 V2 1.660749 1_554
O7 V3 1.660749 1_545
O8 V0 1.685877 1_555
O9 V1 1.685877 1_555
O10 V2 1.685877 1_555
O11 V3 1.685877 1_555
F0 V0 2.119729 1_556
F0 V2 2.212101 1_555
F0 Na0 2.286579 1_545
F0 Na2 2.388062 1_556
F1 V1 2.119729 1_565
F1 V3 2.212101 1_555
F1 Na1 2.286579 1_555
F1 Na3 2.388062 1_555
F2 V2 2.119729 1_554
F2 V0 2.212101 1_555
F2 Na2 2.286579 1_565
F2 Na0 2.388062 1_554
F3 V3 2.119729 1_545
F3 V1 2.212101 1_555
F3 Na3 2.286579 1_555
F3 Na1 2.388062 1_555
F4 V0 1.900681 1_556
F4 Na1 2.313250 1_555
F4 Na0 2.465608 1_555
F5 V1 1.900681 1_555
F5 Na0 2.313250 1_545
F5 Na1 2.465608 1_555
F6 V2 1.900681 1_554
F6 Na3 2.313250 1_555
F6 Na2 2.465608 1_555
F7 V3 1.900681 1_555
F7 Na2 2.313250 1_565
F7 Na3 2.465608 1_555
F8 V0 1.926895 1_555
F8 Na2 2.332410 1_555
F8 Na3 2.480327 1_555
F9 V1 1.926895 1_565
F9 Na3 2.332410 1_555
F9 Na2 2.480327 1_565
F10 V2 1.926895 1_555
F10 Na0 2.332410 1_555
F10 Na1 2.480327 1_555
F11 V3 1.926895 1_545
F11 Na1 2.332410 1_555
F11 Na0 2.480327 1_545
