# generated using pymatgen
data_FeH36C12S6(BrO2)3
_symmetry_space_group_name_H-M   'P 1'
_cell_length_a   10.03280538
_cell_length_b   10.03280538
_cell_length_c   10.03280502
_cell_angle_alpha   65.98128066
_cell_angle_beta   65.98128066
_cell_angle_gamma   65.98128275
_symmetry_Int_Tables_number   1
_chemical_formula_structural   FeH36C12S6(BrO2)3
_chemical_formula_sum   'Fe1 H36 C12 S6 Br3 O6'
_cell_volume   806.53494604
_cell_formula_units_Z   1
loop_
 _symmetry_equiv_pos_site_id
 _symmetry_equiv_pos_as_xyz
  1  'x, y, z'
loop_
 _atom_site_type_symbol
 _atom_site_label
 _atom_site_symmetry_multiplicity
 _atom_site_fract_x
 _atom_site_fract_y
 _atom_site_fract_z
 _atom_site_occupancy
  Fe  Fe0  1  0.00000000  0.00000000  0.00000000  1
  H  H0  1  0.29181900  0.58387300  0.10269900  1
  H  H1  1  0.58387300  0.10269900  0.29181900  1
  H  H2  1  0.10269900  0.29181900  0.58387300  1
  H  H3  1  0.70818100  0.41612700  0.89730100  1
  H  H4  1  0.41612700  0.89730100  0.70818100  1
  H  H5  1  0.89730100  0.70818100  0.41612700  1
  H  H6  1  0.41640500  0.54713800  0.20903200  1
  H  H7  1  0.54713800  0.20903200  0.41640500  1
  H  H8  1  0.20903200  0.41640500  0.54713800  1
  H  H9  1  0.58359500  0.45286200  0.79096800  1
  H  H10  1  0.45286200  0.79096800  0.58359500  1
  H  H11  1  0.79096800  0.58359500  0.45286200  1
  H  H12  1  0.46161800  0.65028000  0.00712900  1
  H  H13  1  0.65028000  0.00712900  0.46161800  1
  H  H14  1  0.00712900  0.46161800  0.65028000  1
  H  H15  1  0.53838200  0.34972000  0.99287100  1
  H  H16  1  0.34972000  0.99287100  0.53838200  1
  H  H17  1  0.99287100  0.53838200  0.34972000  1
  H  H18  1  0.49902800  0.85570500  0.05088100  1
  H  H19  1  0.85570500  0.05088100  0.49902800  1
  H  H20  1  0.05088100  0.49902800  0.85570500  1
  H  H21  1  0.50097200  0.14429500  0.94911900  1
  H  H22  1  0.14429500  0.94911900  0.50097200  1
  H  H23  1  0.94911900  0.50097200  0.14429500  1
  H  H24  1  0.45423900  0.76903500  0.25615800  1
  H  H25  1  0.76903500  0.25615800  0.45423900  1
  H  H26  1  0.25615800  0.45423900  0.76903500  1
  H  H27  1  0.54576100  0.23096500  0.74384200  1
  H  H28  1  0.23096500  0.74384200  0.54576100  1
  H  H29  1  0.74384200  0.54576100  0.23096500  1
  H  H30  1  0.36002300  0.96821600  0.18048900  1
  H  H31  1  0.96821600  0.18048900  0.36002300  1
  H  H32  1  0.18048900  0.36002300  0.96821600  1
  H  H33  1  0.63997700  0.03178400  0.81951100  1
  H  H34  1  0.03178400  0.81951100  0.63997700  1
  H  H35  1  0.81951100  0.63997700  0.03178400  1
  C  C0  1  0.37016900  0.62716400  0.11365000  1
  C  C1  1  0.62716400  0.11365000  0.37016900  1
  C  C2  1  0.11365000  0.37016900  0.62716400  1
  C  C3  1  0.62983100  0.37283600  0.88635000  1
  C  C4  1  0.37283600  0.88635000  0.62983100  1
  C  C5  1  0.88635000  0.62983100  0.37283600  1
  C  C6  1  0.41036200  0.85523900  0.16080900  1
  C  C7  1  0.85523900  0.16080900  0.41036200  1
  C  C8  1  0.16080900  0.41036200  0.85523900  1
  C  C9  1  0.58963800  0.14476100  0.83919100  1
  C  C10  1  0.14476100  0.83919100  0.58963800  1
  C  C11  1  0.83919100  0.58963800  0.14476100  1
  S  S0  1  0.26066700  0.80135700  0.16238300  1
  S  S1  1  0.80135700  0.16238300  0.26066700  1
  S  S2  1  0.16238300  0.26066700  0.80135700  1
  S  S3  1  0.73933300  0.19864300  0.83761700  1
  S  S4  1  0.19864300  0.83761700  0.73933300  1
  S  S5  1  0.83761700  0.73933300  0.19864300  1
  Br  Br0  1  0.75536400  0.75536400  0.75536400  1
  Br  Br1  1  0.24463600  0.24463600  0.24463600  1
  Br  Br2  1  0.50000000  0.50000000  0.50000000  1
  O  O0  1  0.21688100  0.91457400  0.01506500  1
  O  O1  1  0.91457400  0.01506500  0.21688100  1
  O  O2  1  0.01506500  0.21688100  0.91457400  1
  O  O3  1  0.78311900  0.08542600  0.98493500  1
  O  O4  1  0.08542600  0.98493500  0.78311900  1
  O  O5  1  0.98493500  0.78311900  0.08542600  1
loop_
_geom_bond_atom_site_label_1
_geom_bond_atom_site_label_2
_geom_bond_distance
_geom_bond_site_symmetry_2
Fe0 O1 2.033756 1_455
Fe0 O4 2.033756 1_544
Fe0 O2 2.033756 1_554
Fe0 O5 2.033756 1_445
Fe0 O0 2.033756 1_545
Fe0 O3 2.033756 1_454
C0 H0 1.098048 1_555
C0 H6 1.099213 1_555
C0 H12 1.100426 1_555
C0 S0 1.787621 1_555
C1 H1 1.098048 1_555
C1 H7 1.099213 1_555
C1 H13 1.100426 1_555
C1 S1 1.787621 1_555
C2 H2 1.098048 1_555
C2 H8 1.099213 1_555
C2 H14 1.100426 1_555
C2 S2 1.787621 1_555
C3 H3 1.098048 1_555
C3 H9 1.099213 1_555
C3 H15 1.100426 1_555
C3 S3 1.787621 1_555
C4 H4 1.098048 1_555
C4 H10 1.099213 1_555
C4 H16 1.100426 1_555
C4 S4 1.787621 1_555
C5 H5 1.098048 1_555
C5 H11 1.099213 1_555
C5 H17 1.100426 1_555
C5 S5 1.787621 1_555
C6 H18 1.099191 1_555
C6 H30 1.101733 1_555
C6 H24 1.102841 1_555
C6 S0 1.784025 1_555
C7 H19 1.099191 1_555
C7 H31 1.101733 1_555
C7 H25 1.102841 1_555
C7 S1 1.784025 1_555
C8 H20 1.099191 1_555
C8 H32 1.101733 1_555
C8 H26 1.102841 1_555
C8 S2 1.784025 1_555
C9 H21 1.099191 1_555
C9 H33 1.101733 1_555
C9 H27 1.102841 1_555
C9 S3 1.784025 1_555
C10 H22 1.099191 1_555
C10 H34 1.101733 1_555
C10 H28 1.102841 1_555
C10 S4 1.784025 1_555
C11 H23 1.099191 1_555
C11 H35 1.101733 1_555
C11 H29 1.102841 1_555
C11 S5 1.784025 1_555
O0 S0 1.556722 1_555
O1 S1 1.556722 1_555
O2 S2 1.556722 1_555
O3 S3 1.556722 1_555
O4 S4 1.556722 1_555
O5 S5 1.556722 1_555
