# generated using pymatgen
data_MnZn3(FeO2)8
_symmetry_space_group_name_H-M   'P 1'
_cell_length_a   6.07922500
_cell_length_b   6.07922500
_cell_length_c   8.59727100
_cell_angle_alpha   90.00000000
_cell_angle_beta   90.00000000
_cell_angle_gamma   90.00000000
_symmetry_Int_Tables_number   1
_chemical_formula_structural   MnZn3(FeO2)8
_chemical_formula_sum   'Mn1 Zn3 Fe8 O16'
_cell_volume   317.72914318
_cell_formula_units_Z   1
loop_
 _symmetry_equiv_pos_site_id
 _symmetry_equiv_pos_as_xyz
  1  'x, y, z'
loop_
 _atom_site_type_symbol
 _atom_site_label
 _atom_site_symmetry_multiplicity
 _atom_site_fract_x
 _atom_site_fract_y
 _atom_site_fract_z
 _atom_site_occupancy
  Mn  Mn0  1  0.50000000  0.50000000  0.00000000  1
  Zn  Zn0  1  0.00000000  0.00000000  0.50000000  1
  Zn  Zn1  1  0.50000000  0.00000000  0.74958900  1
  Zn  Zn2  1  0.00000000  0.50000000  0.25041100  1
  Fe  Fe0  1  0.50000000  0.75082800  0.37576000  1
  Fe  Fe1  1  0.00000000  0.24957800  0.87401800  1
  Fe  Fe2  1  0.24957800  0.00000000  0.12598200  1
  Fe  Fe3  1  0.75082800  0.50000000  0.62424000  1
  Fe  Fe4  1  0.75042200  0.00000000  0.12598200  1
  Fe  Fe5  1  0.24917200  0.50000000  0.62424000  1
  Fe  Fe6  1  0.50000000  0.24917200  0.37576000  1
  Fe  Fe7  1  0.00000000  0.75042200  0.87401800  1
  O  O0  1  0.50000000  0.27102400  0.61492200  1
  O  O1  1  0.00000000  0.77022300  0.11442700  1
  O  O2  1  0.27102400  0.50000000  0.38507800  1
  O  O3  1  0.77022300  0.00000000  0.88557300  1
  O  O4  1  0.72897600  0.50000000  0.38507800  1
  O  O5  1  0.22977700  0.00000000  0.88557300  1
  O  O6  1  0.50000000  0.72897600  0.61492200  1
  O  O7  1  0.00000000  0.22977700  0.11442700  1
  O  O8  1  0.50000000  0.22216100  0.13963700  1
  O  O9  1  0.00000000  0.73008700  0.63434500  1
  O  O10  1  0.73008700  0.00000000  0.36565500  1
  O  O11  1  0.22216100  0.50000000  0.86036300  1
  O  O12  1  0.26991300  0.00000000  0.36565500  1
  O  O13  1  0.77783900  0.50000000  0.86036300  1
  O  O14  1  0.50000000  0.77783900  0.13963700  1
  O  O15  1  0.00000000  0.26991300  0.63434500  1
loop_
_geom_bond_atom_site_label_1
_geom_bond_atom_site_label_2
_geom_bond_distance
_geom_bond_site_symmetry_2
Mn0 O8 2.072214 1_555
Mn0 O14 2.072214 1_555
Mn0 O13 2.072214 1_554
Mn0 O11 2.072214 1_554
Fe0 O14 2.036644 1_555
Fe0 O6 2.060427 1_555
Fe0 O10 2.063634 1_565
Fe0 O12 2.063634 1_565
Fe0 O4 2.066206 1_555
Fe0 O2 2.066206 1_555
Fe1 O13 2.038487 1_455
Fe1 O11 2.038487 1_555
Fe1 O15 2.064239 1_555
Fe1 O5 2.064733 1_555
Fe1 O3 2.064733 1_455
Fe1 O7 2.070364 1_556
Fe2 O14 2.038487 1_545
Fe2 O8 2.038487 1_555
Fe2 O12 2.064239 1_555
Fe2 O7 2.064733 1_555
Fe2 O1 2.064733 1_545
Fe2 O5 2.070364 1_554
Fe3 O13 2.036644 1_555
Fe3 O4 2.060427 1_555
Fe3 O9 2.063634 1_655
Fe3 O15 2.063634 1_655
Fe3 O6 2.066206 1_555
Fe3 O0 2.066206 1_555
Fe4 O14 2.038487 1_545
Fe4 O8 2.038487 1_555
Fe4 O10 2.064239 1_555
Fe4 O7 2.064733 1_655
Fe4 O1 2.064733 1_645
Fe4 O3 2.070364 1_554
Fe5 O11 2.036644 1_555
Fe5 O2 2.060427 1_555
Fe5 O9 2.063634 1_555
Fe5 O15 2.063634 1_555
Fe5 O6 2.066206 1_555
Fe5 O0 2.066206 1_555
Fe6 O8 2.036644 1_555
Fe6 O0 2.060427 1_555
Fe6 O10 2.063634 1_555
Fe6 O12 2.063634 1_555
Fe6 O4 2.066206 1_555
Fe6 O2 2.066206 1_555
Fe7 O11 2.038487 1_555
Fe7 O13 2.038487 1_455
Fe7 O9 2.064239 1_555
Fe7 O5 2.064733 1_565
Fe7 O3 2.064733 1_465
Fe7 O1 2.070364 1_556
O0 Zn1 2.013720 1_555
O1 Zn2 2.016281 1_555
O2 Zn2 2.013720 1_555
O3 Zn1 2.016281 1_555
O4 Zn2 2.013720 1_655
O5 Zn1 2.016281 1_555
O6 Zn1 2.013720 1_565
O7 Zn2 2.016281 1_555
O9 Zn0 2.006602 1_565
O10 Zn0 2.006602 1_655
O12 Zn0 2.006602 1_555
O15 Zn0 2.006602 1_555
