# generated using pymatgen
data_Ba3TiFe2O9
_symmetry_space_group_name_H-M   'P 1'
_cell_length_a   5.77180050
_cell_length_b   5.77180050
_cell_length_c   14.11863600
_cell_angle_alpha   90.00000000
_cell_angle_beta   90.00000000
_cell_angle_gamma   120.00000570
_symmetry_Int_Tables_number   1
_chemical_formula_structural   Ba3TiFe2O9
_chemical_formula_sum   'Ba6 Ti2 Fe4 O18'
_cell_volume   407.32960015
_cell_formula_units_Z   2
loop_
 _symmetry_equiv_pos_site_id
 _symmetry_equiv_pos_as_xyz
  1  'x, y, z'
loop_
 _atom_site_type_symbol
 _atom_site_label
 _atom_site_symmetry_multiplicity
 _atom_site_fract_x
 _atom_site_fract_y
 _atom_site_fract_z
 _atom_site_occupancy
  Ba  Ba0  1  0.66666700  0.33333300  0.40663200  1
  Ba  Ba1  1  0.33333300  0.66666700  0.59336800  1
  Ba  Ba2  1  0.33333300  0.66666700  0.91056700  1
  Ba  Ba3  1  0.66666700  0.33333300  0.08943300  1
  Ba  Ba4  1  0.00000000  0.00000000  0.24632800  1
  Ba  Ba5  1  0.00000000  0.00000000  0.75367200  1
  Ti  Ti0  1  0.66666700  0.33333300  0.64909500  1
  Ti  Ti1  1  0.33333300  0.66666700  0.35090500  1
  Fe  Fe0  1  0.33333300  0.66666700  0.15656800  1
  Fe  Fe1  1  0.66666700  0.33333300  0.84343200  1
  Fe  Fe2  1  0.00000000  0.00000000  0.50000000  1
  Fe  Fe3  1  0.00000000  0.00000000  0.00000000  1
  O  O0  1  0.66012100  0.83006000  0.41688000  1
  O  O1  1  0.16994000  0.83006000  0.41688000  1
  O  O2  1  0.16994000  0.33987900  0.41688000  1
  O  O3  1  0.33987900  0.16994000  0.58312000  1
  O  O4  1  0.83006000  0.16994000  0.58312000  1
  O  O5  1  0.83006000  0.66012100  0.58312000  1
  O  O6  1  0.33500000  0.16750000  0.91839800  1
  O  O7  1  0.83250000  0.16750000  0.91839800  1
  O  O8  1  0.83250000  0.66500000  0.91839800  1
  O  O9  1  0.66500000  0.83250000  0.08160200  1
  O  O10  1  0.16750000  0.83250000  0.08160200  1
  O  O11  1  0.16750000  0.33500000  0.08160200  1
  O  O12  1  0.03621300  0.51810700  0.24554900  1
  O  O13  1  0.48189300  0.51810700  0.24554900  1
  O  O14  1  0.48189300  0.96378700  0.24554900  1
  O  O15  1  0.96378700  0.48189300  0.75445100  1
  O  O16  1  0.51810700  0.48189300  0.75445100  1
  O  O17  1  0.51810700  0.03621300  0.75445100  1
loop_
_geom_bond_atom_site_label_1
_geom_bond_atom_site_label_2
_geom_bond_distance
_geom_bond_site_symmetry_2
Ba0 O1 2.889710 1_655
Ba0 O1 2.889710 1_545
Ba0 O2 2.889710 1_655
Ba0 O0 2.889710 1_545
Ba0 O2 2.889710 1_555
Ba0 O0 2.889710 1_555
Ba0 O12 2.929916 1_655
Ba0 O14 2.929916 1_545
Ba0 O13 2.929922 1_555
Ba0 O4 2.979441 1_555
Ba0 O5 2.979447 1_555
Ba0 O3 2.979447 1_555
Ba1 O4 2.889710 1_565
Ba1 O4 2.889710 1_455
Ba1 O5 2.889710 1_455
Ba1 O3 2.889710 1_565
Ba1 O5 2.889710 1_555
Ba1 O3 2.889710 1_555
Ba1 O17 2.929916 1_565
Ba1 O15 2.929916 1_455
Ba1 O16 2.929922 1_555
Ba1 O1 2.979441 1_555
Ba1 O0 2.979447 1_555
Ba1 O2 2.979447 1_555
Ba2 O17 2.875821 1_565
Ba2 O15 2.875821 1_455
Ba2 O16 2.875828 1_555
Ba2 O8 2.888027 1_455
Ba2 O6 2.888027 1_565
Ba2 O7 2.888029 1_455
Ba2 O7 2.888029 1_565
Ba2 O8 2.888032 1_555
Ba2 O6 2.888032 1_555
Ba2 O10 2.929096 1_556
Ba2 O9 2.929099 1_556
Ba2 O11 2.929099 1_556
Ba3 O12 2.875821 1_655
Ba3 O14 2.875821 1_545
Ba3 O13 2.875828 1_555
Ba3 O11 2.888027 1_655
Ba3 O9 2.888027 1_545
Ba3 O10 2.888029 1_655
Ba3 O10 2.888029 1_545
Ba3 O11 2.888032 1_555
Ba3 O9 2.888032 1_555
Ba3 O7 2.929096 1_554
Ba3 O6 2.929099 1_554
Ba3 O8 2.929099 1_554
Ba4 O11 2.865812 1_555
Ba4 O9 2.865812 1_445
Ba4 O10 2.865813 1_545
Ba4 O14 2.891590 1_545
Ba4 O12 2.891590 1_545
Ba4 O13 2.891592 1_555
Ba4 O13 2.891592 1_445
Ba4 O12 2.891595 1_555
Ba4 O14 2.891595 1_445
Ba4 O0 2.946951 1_445
Ba4 O2 2.946951 1_555
Ba4 O1 2.946954 1_545
Ba5 O8 2.865812 1_445
Ba5 O6 2.865812 1_555
Ba5 O7 2.865813 1_455
Ba5 O15 2.891590 1_455
Ba5 O17 2.891590 1_455
Ba5 O16 2.891592 1_555
Ba5 O16 2.891592 1_445
Ba5 O17 2.891595 1_555
Ba5 O15 2.891595 1_445
Ba5 O5 2.946951 1_445
Ba5 O3 2.946951 1_555
Ba5 O4 2.946954 1_455
Fe0 O14 1.945243 1_555
Fe0 O12 1.945243 1_555
Fe0 O13 1.945243 1_555
Fe0 O10 1.966897 1_555
Fe0 O11 1.966901 1_555
Fe0 O9 1.966901 1_555
Fe1 O15 1.945243 1_555
Fe1 O17 1.945243 1_555
Fe1 O16 1.945243 1_555
Fe1 O7 1.966897 1_555
Fe1 O6 1.966901 1_555
Fe1 O8 1.966901 1_555
Fe2 O2 2.064810 1_555
Fe2 O0 2.064810 1_445
Fe2 O5 2.064810 1_445
Fe2 O3 2.064810 1_555
Fe2 O1 2.064814 1_545
Fe2 O4 2.064814 1_455
Fe3 O9 2.032566 1_445
Fe3 O11 2.032566 1_555
Fe3 O8 2.032566 1_444
Fe3 O6 2.032566 1_554
Fe3 O10 2.032566 1_545
Fe3 O7 2.032566 1_454
O0 Ti1 1.880382 1_555
O1 Ti1 1.880373 1_555
O2 Ti1 1.880382 1_555
O3 Ti0 1.880382 1_555
O4 Ti0 1.880373 1_555
O5 Ti0 1.880382 1_555
O12 Ti1 2.101978 1_555
O13 Ti1 2.101978 1_555
O14 Ti1 2.101978 1_555
O15 Ti0 2.101978 1_555
O16 Ti0 2.101978 1_555
O17 Ti0 2.101978 1_555
