# generated using pymatgen
data_W3O8
_symmetry_space_group_name_H-M   'P 1'
_cell_length_a   6.22545596
_cell_length_b   6.22545596
_cell_length_c   10.00359900
_cell_angle_alpha   90.00000000
_cell_angle_beta   90.00000000
_cell_angle_gamma   119.99999958
_symmetry_Int_Tables_number   1
_chemical_formula_structural   W3O8
_chemical_formula_sum   'W6 O16'
_cell_volume   335.76021818
_cell_formula_units_Z   2
loop_
 _symmetry_equiv_pos_site_id
 _symmetry_equiv_pos_as_xyz
  1  'x, y, z'
loop_
 _atom_site_type_symbol
 _atom_site_label
 _atom_site_symmetry_multiplicity
 _atom_site_fract_x
 _atom_site_fract_y
 _atom_site_fract_z
 _atom_site_occupancy
  W  W0  1  0.66399300  0.83199700  0.24904700  1
  W  W1  1  0.83199700  0.16800300  0.74904700  1
  W  W2  1  0.16800300  0.33600700  0.24904700  1
  W  W3  1  0.83199700  0.66399300  0.74904700  1
  W  W4  1  0.33600700  0.16800300  0.74904700  1
  W  W5  1  0.16800300  0.83199700  0.24904700  1
  O  O0  1  0.85336100  0.14663900  0.15308000  1
  O  O1  1  0.70672300  0.85336100  0.65308000  1
  O  O2  1  0.14663900  0.29327700  0.65308000  1
  O  O3  1  0.85336100  0.70672300  0.15308000  1
  O  O4  1  0.29327700  0.14663900  0.15308000  1
  O  O5  1  0.14663900  0.85336100  0.65308000  1
  O  O6  1  0.52010900  0.47989100  0.85042900  1
  O  O7  1  0.04021800  0.52010900  0.35042900  1
  O  O8  1  0.47989100  0.95978200  0.35042900  1
  O  O9  1  0.52010900  0.04021800  0.85042900  1
  O  O10  1  0.00000000  0.00000000  0.35828100  1
  O  O11  1  0.00000000  0.00000000  0.85828100  1
  O  O12  1  0.33333300  0.66666700  0.13919800  1
  O  O13  1  0.95978200  0.47989100  0.85042900  1
  O  O14  1  0.47989100  0.52010900  0.35042900  1
  O  O15  1  0.66666700  0.33333300  0.63919800  1
loop_
_geom_bond_atom_site_label_1
_geom_bond_atom_site_label_2
_geom_bond_distance
_geom_bond_site_symmetry_2
O0 W0 1.959356 1_545
O0 W2 1.959356 1_655
O1 W3 1.959356 1_555
O1 W1 1.959356 1_565
O2 W4 1.959356 1_555
O2 W1 1.959356 1_455
O3 W0 1.959356 1_555
O3 W5 1.959356 1_655
O4 W2 1.959356 1_555
O4 W5 1.959356 1_545
O5 W3 1.959356 1_455
O5 W4 1.959356 1_565
O6 W3 1.971494 1_555
O6 W4 1.971494 1_555
O7 W2 1.971490 1_555
O7 W5 1.971495 1_555
O8 W0 1.971490 1_555
O8 W5 1.971495 1_555
O9 W4 1.971490 1_555
O9 W1 1.971495 1_555
O10 W5 2.115598 1_545
O10 W0 2.115603 1_445
O10 W2 2.115603 1_555
O11 W1 2.115598 1_455
O11 W3 2.115603 1_445
O11 W4 2.115603 1_555
O12 W5 2.094193 1_555
O12 W2 2.094193 1_555
O12 W0 2.094193 1_555
O13 W3 1.971490 1_555
O13 W1 1.971495 1_555
O14 W0 1.971494 1_555
O14 W2 1.971494 1_555
O15 W1 2.094193 1_555
O15 W3 2.094193 1_555
O15 W4 2.094193 1_555
