# generated using pymatgen
data_CuP2(HO)4
_symmetry_space_group_name_H-M   'P 1'
_cell_length_a   5.45182400
_cell_length_b   6.73905700
_cell_length_c   7.32292500
_cell_angle_alpha   90.00000000
_cell_angle_beta   90.00000000
_cell_angle_gamma   90.00000000
_symmetry_Int_Tables_number   1
_chemical_formula_structural   CuP2(HO)4
_chemical_formula_sum   'Cu2 P4 H8 O8'
_cell_volume   269.04538264
_cell_formula_units_Z   2
loop_
 _symmetry_equiv_pos_site_id
 _symmetry_equiv_pos_as_xyz
  1  'x, y, z'
loop_
 _atom_site_type_symbol
 _atom_site_label
 _atom_site_symmetry_multiplicity
 _atom_site_fract_x
 _atom_site_fract_y
 _atom_site_fract_z
 _atom_site_occupancy
  Cu  Cu0  1  0.50000000  0.00000000  0.00000000  1
  Cu  Cu1  1  0.50000000  0.50000000  0.00000000  1
  P  P0  1  0.00000000  0.75000000  0.85577000  1
  P  P1  1  0.00000000  0.25000000  0.14423000  1
  P  P2  1  0.50000000  0.75000000  0.36278100  1
  P  P3  1  0.50000000  0.25000000  0.63721900  1
  H  H0  1  0.00000000  0.58362800  0.73822900  1
  H  H1  1  0.00000000  0.41637200  0.26177100  1
  H  H2  1  0.00000000  0.91637200  0.73822900  1
  H  H3  1  0.00000000  0.08362800  0.26177100  1
  H  H4  1  0.70320100  0.75000000  0.48248200  1
  H  H5  1  0.70320100  0.25000000  0.51751800  1
  H  H6  1  0.29679900  0.25000000  0.51751800  1
  H  H7  1  0.29679900  0.75000000  0.48248200  1
  O  O0  1  0.76067900  0.75000000  0.96545100  1
  O  O1  1  0.76067900  0.25000000  0.03454900  1
  O  O2  1  0.23932100  0.25000000  0.03454900  1
  O  O3  1  0.23932100  0.75000000  0.96545100  1
  O  O4  1  0.50000000  0.94722700  0.25920100  1
  O  O5  1  0.50000000  0.05277300  0.74079900  1
  O  O6  1  0.50000000  0.55277300  0.25920100  1
  O  O7  1  0.50000000  0.44722700  0.74079900  1
loop_
_geom_bond_atom_site_label_1
_geom_bond_atom_site_label_2
_geom_bond_distance
_geom_bond_site_symmetry_2
Cu0 O5 1.931139 1_554
Cu0 O4 1.931139 1_545
Cu0 O1 2.218599 1_555
Cu0 O0 2.218599 1_544
Cu0 O2 2.218599 1_555
Cu0 O3 2.218599 1_544
Cu1 O6 1.931139 1_555
Cu1 O7 1.931139 1_554
Cu1 O1 2.218599 1_555
Cu1 O0 2.218599 1_554
Cu1 O2 2.218599 1_555
Cu1 O3 2.218599 1_554
H0 P0 1.413488 1_555
H1 P1 1.413488 1_555
H2 P0 1.413488 1_555
H3 P1 1.413488 1_555
H4 P2 1.412663 1_555
H5 P3 1.412663 1_555
H6 P3 1.412663 1_555
H7 P2 1.412663 1_555
O0 P0 1.532137 1_655
O1 P1 1.532137 1_655
O2 P1 1.532137 1_555
O3 P0 1.532137 1_555
O4 P2 1.530329 1_555
O5 P3 1.530329 1_555
O6 P2 1.530329 1_555
O7 P3 1.530329 1_555
