# generated using pymatgen
data_Rb2LaBr5
_symmetry_space_group_name_H-M   'P 1'
_cell_length_a   8.69267386
_cell_length_b   9.46811161
_cell_length_c   13.86262556
_cell_angle_alpha   90.00000000
_cell_angle_beta   90.00000000
_cell_angle_gamma   90.00000000
_symmetry_Int_Tables_number   1
_chemical_formula_structural   Rb2LaBr5
_chemical_formula_sum   'Rb8 La4 Br20'
_cell_volume   1140.93853127
_cell_formula_units_Z   4
loop_
 _symmetry_equiv_pos_site_id
 _symmetry_equiv_pos_as_xyz
  1  'x, y, z'
loop_
 _atom_site_type_symbol
 _atom_site_label
 _atom_site_symmetry_multiplicity
 _atom_site_fract_x
 _atom_site_fract_y
 _atom_site_fract_z
 _atom_site_occupancy
  Rb  Rb0  1  0.94584663  0.00442601  0.82791261  1
  Rb  Rb1  1  0.05415337  0.99557399  0.17208739  1
  Rb  Rb2  1  0.44584663  0.99557399  0.67208739  1
  Rb  Rb3  1  0.05415337  0.50442601  0.17208739  1
  Rb  Rb4  1  0.55415337  0.00442601  0.32791261  1
  Rb  Rb5  1  0.94584663  0.49557399  0.82791261  1
  Rb  Rb6  1  0.55415337  0.49557399  0.32791261  1
  Rb  Rb7  1  0.44584663  0.50442601  0.67208739  1
  La  La0  1  0.92539722  0.75000000  0.50534198  1
  La  La1  1  0.07460278  0.25000000  0.49465802  1
  La  La2  1  0.42539722  0.25000000  0.99465802  1
  La  La3  1  0.57460278  0.75000000  0.00534198  1
  Br  Br0  1  0.12666924  0.75000000  0.67877627  1
  Br  Br1  1  0.87333076  0.25000000  0.32122373  1
  Br  Br2  1  0.62666924  0.25000000  0.82122373  1
  Br  Br3  1  0.37333076  0.75000000  0.17877627  1
  Br  Br4  1  0.83457788  0.04355569  0.57615306  1
  Br  Br5  1  0.16542212  0.95644431  0.42384694  1
  Br  Br6  1  0.33457788  0.95644431  0.92384694  1
  Br  Br7  1  0.16542212  0.54355569  0.42384694  1
  Br  Br8  1  0.66542212  0.04355569  0.07615306  1
  Br  Br9  1  0.83457788  0.45644431  0.57615306  1
  Br  Br10  1  0.66542212  0.45644431  0.07615306  1
  Br  Br11  1  0.33457788  0.54355569  0.92384694  1
  Br  Br12  1  0.57987490  0.75000000  0.50919179  1
  Br  Br13  1  0.42012510  0.25000000  0.49080821  1
  Br  Br14  1  0.07987490  0.25000000  0.99080821  1
  Br  Br15  1  0.92012510  0.75000000  0.00919179  1
  Br  Br16  1  0.66115107  0.75000000  0.79655472  1
  Br  Br17  1  0.33884893  0.25000000  0.20344528  1
  Br  Br18  1  0.16115107  0.25000000  0.70344528  1
  Br  Br19  1  0.83884893  0.75000000  0.29655472  1
loop_
_geom_bond_atom_site_label_1
_geom_bond_atom_site_label_2
_geom_bond_distance
_geom_bond_site_symmetry_2
Br0 La0 2.973468 1_455
Br0 Rb5 3.542294 1_455
Br0 Rb0 3.542294 1_465
Br0 Rb2 3.621142 1_555
Br0 Rb7 3.621142 1_555
Br1 La1 2.973468 1_655
Br1 Rb1 3.542294 1_645
Br1 Rb3 3.542294 1_655
Br1 Rb4 3.621142 1_555
Br1 Rb6 3.621142 1_555
Br2 La2 2.973468 1_555
Br2 Rb7 3.542294 1_555
Br2 Rb2 3.542294 1_545
Br2 Rb0 3.621142 1_555
Br2 Rb5 3.621142 1_555
Br3 La3 2.973468 1_555
Br3 Rb6 3.542294 1_555
Br3 Rb4 3.542294 1_565
Br3 Rb1 3.621142 1_555
Br3 Rb3 3.621142 1_555
Br4 La0 3.051558 1_545
Br4 La1 3.074121 1_655
Br4 Rb0 3.640497 1_555
Br4 Rb2 3.659704 1_545
Br5 La1 3.051558 1_565
Br5 La0 3.074121 1_455
Br5 Rb1 3.640497 1_555
Br5 Rb4 3.659704 1_565
Br6 La2 3.051558 1_565
Br6 La3 3.074121 1_556
Br6 Rb2 3.640497 1_555
Br6 Rb0 3.659704 1_465
Br7 La1 3.051558 1_555
Br7 La0 3.074121 1_455
Br7 Rb3 3.640497 1_555
Br7 Rb6 3.659704 1_555
Br8 La3 3.051558 1_545
Br8 La2 3.074121 1_554
Br8 Rb4 3.640497 1_555
Br8 Rb1 3.659704 1_645
Br9 La0 3.051558 1_555
Br9 La1 3.074121 1_655
Br9 Rb5 3.640497 1_555
Br9 Rb7 3.659704 1_555
Br10 La3 3.051558 1_555
Br10 La2 3.074121 1_554
Br10 Rb6 3.640497 1_555
Br10 Rb3 3.659704 1_655
Br11 La2 3.051558 1_555
Br11 La3 3.074121 1_556
Br11 Rb7 3.640497 1_555
Br11 Rb5 3.659704 1_455
Br12 La0 3.003987 1_555
Br12 Rb7 3.444250 1_555
Br12 Rb2 3.444250 1_555
Br12 Rb6 3.488288 1_555
Br12 Rb4 3.488288 1_565
Br13 La1 3.003987 1_555
Br13 Rb6 3.444250 1_555
Br13 Rb4 3.444250 1_555
Br13 Rb7 3.488288 1_555
Br13 Rb2 3.488288 1_545
Br14 La2 3.003987 1_555
Br14 Rb0 3.444250 1_455
Br14 Rb5 3.444250 1_455
Br14 Rb1 3.488288 1_546
Br14 Rb3 3.488288 1_556
Br15 La3 3.003987 1_555
Br15 Rb1 3.444250 1_655
Br15 Rb3 3.444250 1_655
Br15 Rb0 3.488288 1_564
Br15 Rb5 3.488288 1_554
Br16 La3 2.990520 1_556
Br16 Rb7 3.447626 1_555
Br16 Rb2 3.447626 1_555
Br16 Rb0 3.480861 1_565
Br16 Rb5 3.480861 1_555
Br17 La2 2.990520 1_554
Br17 Rb4 3.447626 1_555
Br17 Rb6 3.447626 1_555
Br17 Rb3 3.480861 1_555
Br17 Rb1 3.480861 1_545
Br18 La1 2.990520 1_555
Br18 Rb5 3.447626 1_455
Br18 Rb0 3.447626 1_455
Br18 Rb7 3.480861 1_555
Br18 Rb2 3.480861 1_545
Br19 La0 2.990520 1_555
Br19 Rb1 3.447626 1_655
Br19 Rb3 3.447626 1_655
Br19 Rb6 3.480861 1_555
Br19 Rb4 3.480861 1_565
