# generated using pymatgen
data_Ca2MoO5
_symmetry_space_group_name_H-M   'P 1'
_cell_length_a   8.95321102
_cell_length_b   8.95321102
_cell_length_c   8.95321102
_cell_angle_alpha   146.56147886
_cell_angle_beta   142.89243784
_cell_angle_gamma   50.80350592
_symmetry_Int_Tables_number   1
_chemical_formula_structural   Ca2MoO5
_chemical_formula_sum   'Ca4 Mo2 O10'
_cell_volume   237.38071896
_cell_formula_units_Z   2
loop_
 _symmetry_equiv_pos_site_id
 _symmetry_equiv_pos_as_xyz
  1  'x, y, z'
loop_
 _atom_site_type_symbol
 _atom_site_label
 _atom_site_symmetry_multiplicity
 _atom_site_fract_x
 _atom_site_fract_y
 _atom_site_fract_z
 _atom_site_occupancy
  Ca  Ca0  1  0.79756500  0.91805100  0.02199500  1
  Ca  Ca1  1  0.60394400  0.72443000  0.02199500  1
  Ca  Ca2  1  0.10394400  0.08194900  0.87951400  1
  Ca  Ca3  1  0.29756500  0.27557000  0.87951400  1
  Mo  Mo0  1  0.46803000  0.00000000  0.46803000  1
  Mo  Mo1  1  0.96803000  0.50000000  0.46803000  1
  O  O0  1  0.46034500  0.02140400  0.98174900  1
  O  O1  1  0.96034500  0.97859600  0.43894100  1
  O  O2  1  0.45955800  0.75367300  0.41059800  1
  O  O3  1  0.65692500  0.24632700  0.70588500  1
  O  O4  1  0.95955800  0.54896100  0.70588500  1
  O  O5  1  0.15692500  0.45103900  0.41059800  1
  O  O6  1  0.78863600  0.77101700  0.46698000  1
  O  O7  1  0.69596300  0.22898300  0.01761900  1
  O  O8  1  0.19596300  0.17834500  0.46698000  1
  O  O9  1  0.28863600  0.82165500  0.01761900  1
loop_
_geom_bond_atom_site_label_1
_geom_bond_atom_site_label_2
_geom_bond_distance
_geom_bond_site_symmetry_2
Ca0 O1 2.301496 1_555
Ca0 O0 2.321997 1_564
Ca0 O7 2.345882 1_565
Ca0 O4 2.431861 1_554
Ca0 O8 2.524179 1_665
Ca0 O2 2.655241 1_554
Ca1 O1 2.301496 1_555
Ca1 O0 2.321997 1_564
Ca1 O9 2.345885 1_555
Ca1 O3 2.431861 1_554
Ca1 O6 2.524174 1_555
Ca1 O5 2.655243 1_554
Ca2 O0 2.301496 1_555
Ca2 O1 2.321997 1_445
Ca2 O6 2.345882 1_445
Ca2 O5 2.431862 1_556
Ca2 O9 2.524182 1_546
Ca2 O3 2.655241 1_455
Ca3 O0 2.301496 1_555
Ca3 O1 2.321997 1_445
Ca3 O8 2.345888 1_555
Ca3 O2 2.431861 1_556
Ca3 O7 2.524174 1_556
Ca3 O4 2.655247 1_455
Mo0 O3 1.841362 1_555
Mo0 O2 1.841362 1_545
Mo0 O9 1.885611 1_545
Mo0 O8 1.885615 1_555
Mo0 O6 2.239492 1_545
Mo0 O7 2.239492 1_556
Mo1 O4 1.841355 1_555
Mo1 O5 1.841357 1_655
Mo1 O6 1.885615 1_555
Mo1 O7 1.885615 1_555
Mo1 O8 2.239485 1_655
Mo1 O9 2.239489 1_656
