# generated using pymatgen
data_Tb5Sb3
_symmetry_space_group_name_H-M   'P 1'
_cell_length_a   9.00220154
_cell_length_b   9.00219986
_cell_length_c   6.32643733
_cell_angle_alpha   90.00000000
_cell_angle_beta   90.00000000
_cell_angle_gamma   120.00000619
_symmetry_Int_Tables_number   1
_chemical_formula_structural   Tb5Sb3
_chemical_formula_sum   'Tb10 Sb6'
_cell_volume   444.00432131
_cell_formula_units_Z   2
loop_
 _symmetry_equiv_pos_site_id
 _symmetry_equiv_pos_as_xyz
  1  'x, y, z'
loop_
 _atom_site_type_symbol
 _atom_site_label
 _atom_site_symmetry_multiplicity
 _atom_site_fract_x
 _atom_site_fract_y
 _atom_site_fract_z
 _atom_site_occupancy
  Tb  Tb0  1  -0.00000000  0.75186492  0.75000000  1
  Tb  Tb1  1  0.00000000  0.24813508  0.25000000  1
  Tb  Tb2  1  0.75186792  0.75186592  0.25000000  1
  Tb  Tb3  1  0.75186792  0.00000000  0.75000000  1
  Tb  Tb4  1  0.24813208  0.24813408  0.75000000  1
  Tb  Tb5  1  0.24813208  0.00000000  0.25000000  1
  Tb  Tb6  1  0.33333100  0.66666600  0.50000000  1
  Tb  Tb7  1  0.66666900  0.33333400  0.00000000  1
  Tb  Tb8  1  0.66666900  0.33333400  0.50000000  1
  Tb  Tb9  1  0.33333100  0.66666600  -0.00000000  1
  Sb  Sb0  1  0.38729719  0.00000000  0.75000000  1
  Sb  Sb1  1  0.38729719  0.38729719  0.25000000  1
  Sb  Sb2  1  -0.00000000  0.61270181  0.25000000  1
  Sb  Sb3  1  0.00000000  0.38729819  0.75000000  1
  Sb  Sb4  1  0.61270281  0.61270281  0.75000000  1
  Sb  Sb5  1  0.61270281  0.00000000  0.25000000  1
loop_
_geom_bond_atom_site_label_1
_geom_bond_atom_site_label_2
_geom_bond_distance
_geom_bond_site_symmetry_2
Sb0 Tb0 3.059002 1_545
Sb0 Tb4 3.059014 1_555
Sb0 Tb9 3.206889 1_546
Sb0 Tb6 3.206889 1_545
Sb0 Tb7 3.206900 1_556
Sb0 Tb8 3.206900 1_555
Sb0 Tb3 3.281939 1_555
Sb0 Tb5 3.402270 1_556
Sb0 Tb5 3.402270 1_555
Sb1 Tb5 3.058997 1_555
Sb1 Tb1 3.059002 1_555
Sb1 Tb6 3.206897 1_555
Sb1 Tb9 3.206897 1_555
Sb1 Tb7 3.206906 1_555
Sb1 Tb8 3.206906 1_555
Sb1 Tb2 3.281930 1_555
Sb1 Tb4 3.402267 1_555
Sb1 Tb4 3.402267 1_554
Sb2 Tb2 3.058991 1_455
Sb2 Tb5 3.059004 1_565
Sb2 Tb9 3.206872 1_555
Sb2 Tb6 3.206872 1_555
Sb2 Tb8 3.206874 1_455
Sb2 Tb7 3.206874 1_455
Sb2 Tb1 3.281903 1_555
Sb2 Tb0 3.402263 1_555
Sb2 Tb0 3.402263 1_554
Sb3 Tb4 3.058991 1_555
Sb3 Tb3 3.059004 1_455
Sb3 Tb8 3.206872 1_455
Sb3 Tb7 3.206872 1_456
Sb3 Tb9 3.206874 1_556
Sb3 Tb6 3.206874 1_555
Sb3 Tb0 3.281903 1_555
Sb3 Tb1 3.402263 1_555
Sb3 Tb1 3.402263 1_556
Sb4 Tb3 3.058997 1_565
Sb4 Tb0 3.059002 1_655
Sb4 Tb8 3.206897 1_555
Sb4 Tb7 3.206897 1_556
Sb4 Tb6 3.206906 1_555
Sb4 Tb9 3.206906 1_556
Sb4 Tb4 3.281930 1_555
Sb4 Tb2 3.402267 1_555
Sb4 Tb2 3.402267 1_556
Sb5 Tb1 3.059002 1_655
Sb5 Tb2 3.059014 1_545
Sb5 Tb8 3.206889 1_555
Sb5 Tb7 3.206889 1_555
Sb5 Tb6 3.206900 1_545
Sb5 Tb9 3.206900 1_545
Sb5 Tb5 3.281939 1_555
Sb5 Tb3 3.402270 1_555
Sb5 Tb3 3.402270 1_554
