# generated using pymatgen
data_Eu2Zn2P3
_symmetry_space_group_name_H-M   'P 1'
_cell_length_a   8.01363268
_cell_length_b   8.01363268
_cell_length_c   11.47526180
_cell_angle_alpha   54.83927102
_cell_angle_beta   54.83927102
_cell_angle_gamma   29.65908415
_symmetry_Int_Tables_number   1
_chemical_formula_structural   Eu2Zn2P3
_chemical_formula_sum   'Eu4 Zn4 P6'
_cell_volume   292.89126897
_cell_formula_units_Z   2
loop_
 _symmetry_equiv_pos_site_id
 _symmetry_equiv_pos_as_xyz
  1  'x, y, z'
loop_
 _atom_site_type_symbol
 _atom_site_label
 _atom_site_symmetry_multiplicity
 _atom_site_fract_x
 _atom_site_fract_y
 _atom_site_fract_z
 _atom_site_occupancy
  Eu  Eu0  1  0.26995800  0.26995800  0.33305100  1
  Eu  Eu1  1  0.73004200  0.73004200  0.66694900  1
  Eu  Eu2  1  0.39188200  0.39188200  0.95154700  1
  Eu  Eu3  1  0.60811800  0.60811800  0.04845300  1
  Zn  Zn0  1  0.04133300  0.04133300  0.68365100  1
  Zn  Zn1  1  0.95866700  0.95866700  0.31634900  1
  Zn  Zn2  1  0.40959700  0.40959700  0.65176000  1
  Zn  Zn3  1  0.59040300  0.59040300  0.34824000  1
  P  P0  1  0.07222400  0.07222400  0.88110500  1
  P  P1  1  0.92777600  0.92777600  0.11889500  1
  P  P2  1  0.15243000  0.15243000  0.20205900  1
  P  P3  1  0.84757000  0.84757000  0.79794100  1
  P  P4  1  0.38705300  0.38705300  0.46023900  1
  P  P5  1  0.61294700  0.61294700  0.53976100  1
loop_
_geom_bond_atom_site_label_1
_geom_bond_atom_site_label_2
_geom_bond_distance
_geom_bond_site_symmetry_2
Eu0 P4 2.928523 1_555
Eu0 P2 2.972596 1_555
Eu0 P5 2.979292 1_455
Eu0 P5 2.979292 1_545
Eu0 P1 3.010909 1_545
Eu0 P1 3.010909 1_455
Eu1 P5 2.928523 1_555
Eu1 P3 2.972596 1_555
Eu1 P4 2.979292 1_565
Eu1 P4 2.979292 1_655
Eu1 P0 3.010909 1_655
Eu1 P0 3.010909 1_565
Eu2 P3 3.037586 1_545
Eu2 P3 3.037586 1_455
Eu2 P2 3.053025 1_556
Eu2 P1 3.078348 1_456
Eu2 P1 3.078348 1_546
Eu2 P0 3.158530 1_655
Eu2 P0 3.158530 1_565
Eu2 Zn0 3.246227 1_565
Eu2 Zn0 3.246227 1_655
Eu2 Zn2 3.284038 1_555
Eu3 P2 3.037586 1_565
Eu3 P2 3.037586 1_655
Eu3 P3 3.053025 1_554
Eu3 P0 3.078348 1_654
Eu3 P0 3.078348 1_564
Eu3 P1 3.158530 1_455
Eu3 P1 3.158530 1_545
Eu3 Zn1 3.246227 1_545
Eu3 Zn1 3.246227 1_455
Eu3 Zn3 3.284038 1_555
P0 P1 2.275652 1_446
P0 Zn0 2.579752 1_555
P1 Zn1 2.579752 1_555
P2 Zn3 2.454292 1_455
P2 Zn3 2.454292 1_545
P2 Zn1 2.457938 1_445
P3 Zn2 2.454292 1_565
P3 Zn2 2.454292 1_655
P3 Zn0 2.457938 1_665
P4 Zn2 2.422129 1_555
P4 Zn1 2.445708 1_545
P4 Zn1 2.445708 1_455
P4 Zn3 2.598781 1_555
P5 Zn3 2.422129 1_555
P5 Zn0 2.445708 1_565
P5 Zn0 2.445708 1_655
P5 Zn2 2.598781 1_555
