# generated using pymatgen
data_La12Sn5S28
_symmetry_space_group_name_H-M   'P 1'
_cell_length_a   10.38468400
_cell_length_b   12.01812813
_cell_length_c   12.02112667
_cell_angle_alpha   60.63722459
_cell_angle_beta   64.41662317
_cell_angle_gamma   64.41290284
_symmetry_Int_Tables_number   1
_chemical_formula_structural   La12Sn5S28
_chemical_formula_sum   'La12 Sn5 S28'
_cell_volume   1132.16525814
_cell_formula_units_Z   1
loop_
 _symmetry_equiv_pos_site_id
 _symmetry_equiv_pos_as_xyz
  1  'x, y, z'
loop_
 _atom_site_type_symbol
 _atom_site_label
 _atom_site_symmetry_multiplicity
 _atom_site_fract_x
 _atom_site_fract_y
 _atom_site_fract_z
 _atom_site_occupancy
  La  La0  1  0.13462000  0.24548900  0.98572000  1
  La  La1  1  0.13150200  0.75380000  0.46079800  1
  La  La2  1  0.21559800  0.47337100  0.18094600  1
  La  La3  1  0.22952600  0.94667500  0.68688300  1
  La  La4  1  0.63418100  0.19899600  0.93846000  1
  La  La5  1  0.65373300  0.71119300  0.41877700  1
  La  La6  1  0.87077700  0.77184900  0.01167000  1
  La  La7  1  0.86055000  0.28241100  0.49095300  1
  La  La8  1  0.77330800  0.57996100  0.78793700  1
  La  La9  1  0.78397900  0.05188500  0.29234700  1
  La  La10  1  0.34499500  0.81526800  0.05528800  1
  La  La11  1  0.36677900  0.32667000  0.53479000  1
  Sn  Sn0  1  0.66539600  0.51238200  0.15680100  1
  Sn  Sn1  1  0.66829400  0.00772200  0.65546900  1
  Sn  Sn2  1  0.33088200  0.59272700  0.74156100  1
  Sn  Sn3  1  0.33588500  0.09025500  0.24191200  1
  Sn  Sn4  1  0.99995800  0.24919900  0.75070000  1
  S  S0  1  0.84731200  0.25567100  0.98817300  1
  S  S1  1  0.83858000  0.75670800  0.50634500  1
  S  S2  1  0.26261400  0.57402100  0.32474200  1
  S  S3  1  0.24347400  0.08855600  0.82054800  1
  S  S4  1  0.89849700  0.54429300  0.29456200  1
  S  S5  1  0.90896200  0.05742900  0.78979300  1
  S  S6  1  0.16240600  0.74628700  0.99078300  1
  S  S7  1  0.14731600  0.24147400  0.51679100  1
  S  S8  1  0.75797800  0.41010200  0.68505600  1
  S  S9  1  0.73755000  0.92746000  0.17243500  1
  S  S10  1  0.09474000  0.43651800  0.71115300  1
  S  S11  1  0.09928700  0.95845200  0.20410400  1
  S  S12  1  0.42174500  0.05364300  0.03578700  1
  S  S13  1  0.42542000  0.55573900  0.53631800  1
  S  S14  1  0.09470300  0.25446300  0.23691800  1
  S  S15  1  0.08810700  0.75018300  0.72965800  1
  S  S16  1  0.47957900  0.22555400  0.20545200  1
  S  S17  1  0.49122200  0.71674700  0.69848000  1
  S  S18  1  0.57416300  0.71660600  0.19364200  1
  S  S19  1  0.57639000  0.21396200  0.69349300  1
  S  S20  1  0.90882000  0.51806000  0.99709600  1
  S  S21  1  0.90974300  0.01941300  0.49698600  1
  S  S22  1  0.51716100  0.54755900  0.02622400  1
  S  S23  1  0.51424100  0.04927900  0.52712700  1
  S  S24  1  0.66230000  0.81929500  0.85767700  1
  S  S25  1  0.67108900  0.31007700  0.34581000  1
  S  S26  1  0.33248300  0.39791400  0.93788000  1
  S  S27  1  0.33415600  0.89468100  0.43595400  1
loop_
_geom_bond_atom_site_label_1
_geom_bond_atom_site_label_2
_geom_bond_distance
_geom_bond_site_symmetry_2
La0 S14 2.915760 1_556
La0 S0 2.920603 1_455
La0 S3 2.944464 1_555
La0 S12 2.969783 1_556
La0 S26 3.017611 1_555
La0 S10 3.043747 1_555
La0 S20 3.126571 1_455
La0 S11 3.210422 1_546
La1 S1 2.835964 1_455
La1 S2 2.863266 1_555
La1 S11 2.901909 1_555
La1 S15 3.045004 1_555
La1 S27 3.069826 1_555
La1 S13 3.131245 1_555
La1 S21 3.135188 1_465
La1 S10 3.571302 1_555
La2 S2 2.824743 1_555
La2 S4 2.875523 1_455
La2 S6 2.908856 1_554
La2 S16 3.042506 1_555
La2 S14 3.055780 1_555
La2 S26 3.068886 1_554
La2 S22 3.133133 1_555
La2 S7 3.573460 1_555
La3 S17 2.916102 1_555
La3 S3 2.934543 1_565
La3 S5 2.935099 1_465
La3 S27 3.016853 1_555
La3 S15 3.024939 1_555
La3 S7 3.041832 1_565
La3 S23 3.142218 1_565
La3 S6 3.202264 1_555
La4 S12 2.895252 1_556
La4 S0 2.926333 1_555
La4 S5 2.935157 1_555
La4 S26 3.010656 1_555
La4 S16 3.015354 1_556
La4 S8 3.037256 1_555
La4 S19 3.158781 1_555
La4 S9 3.208304 1_546
La5 S4 2.822981 1_555
La5 S1 2.882517 1_555
La5 S9 2.909011 1_555
La5 S17 3.062683 1_555
La5 S13 3.074470 1_555
La5 S27 3.074516 1_555
La5 S18 3.118298 1_555
La5 S8 3.572414 1_555
La6 S6 2.818578 1_654
La6 S9 2.854248 1_555
La6 S20 2.985487 1_554
La6 S18 3.039199 1_555
La6 S24 3.130311 1_554
La6 S4 3.189297 1_555
La6 S5 3.214905 1_564
La6 S15 3.225583 1_654
La7 S7 2.930924 1_655
La7 S4 2.935236 1_555
La7 S21 2.944321 1_555
La7 S25 2.976011 1_555
La7 S8 2.981137 1_555
La7 S14 3.039482 1_655
La7 S19 3.039760 1_555
La7 S5 3.365846 1_555
La8 S1 2.939506 1_555
La8 S8 2.940881 1_555
La8 S22 2.941552 1_556
La8 S10 2.982451 1_655
La8 S24 2.995191 1_555
La8 S20 3.028669 1_555
La8 S17 3.044259 1_555
La8 S0 3.374103 1_555
La9 S9 2.807719 1_545
La9 S11 2.846074 1_645
La9 S23 2.995698 1_555
La9 S21 3.050010 1_555
La9 S25 3.094960 1_555
La9 S1 3.177519 1_545
La9 S0 3.214505 1_554
La9 S16 3.233380 1_555
La10 S11 2.820667 1_555
La10 S6 2.853400 1_554
La10 S18 2.980390 1_555
La10 S22 3.043729 1_555
La10 S24 3.125361 1_554
La10 S12 3.170126 1_565
La10 S2 3.188953 1_555
La10 S3 3.217304 1_564
La11 S10 2.927305 1_555
La11 S2 2.933100 1_555
La11 S19 2.952650 1_555
La11 S25 2.981102 1_555
La11 S7 2.991323 1_555
La11 S23 3.039233 1_555
La11 S13 3.075291 1_555
La11 S3 3.369714 1_555
S0 Sn4 2.621295 1_555
S3 Sn4 2.618078 1_455
S5 Sn4 2.619354 1_555
S7 Sn4 2.583399 1_455
S8 Sn4 2.587569 1_555
S10 Sn4 2.592897 1_455
S12 Sn3 2.439390 1_555
S13 Sn2 2.419799 1_555
S14 Sn3 2.432181 1_555
S15 Sn2 2.425423 1_555
S16 Sn3 2.427944 1_555
S17 Sn2 2.429858 1_555
S18 Sn0 2.410979 1_555
S19 Sn1 2.440153 1_555
S20 Sn0 2.430997 1_556
S21 Sn1 2.419185 1_555
S22 Sn0 2.426160 1_555
S23 Sn1 2.423819 1_555
S24 Sn1 2.373506 1_565
S25 Sn0 2.377326 1_555
S26 Sn2 2.373404 1_555
S27 Sn3 2.364213 1_565
