# generated using pymatgen
data_EuMgGa
_symmetry_space_group_name_H-M   'P 1'
_cell_length_a   4.94968300
_cell_length_b   7.85221400
_cell_length_c   7.89799700
_cell_angle_alpha   90.00000000
_cell_angle_beta   90.00000000
_cell_angle_gamma   90.00000000
_symmetry_Int_Tables_number   1
_chemical_formula_structural   EuMgGa
_chemical_formula_sum   'Eu4 Mg4 Ga4'
_cell_volume   306.96331563
_cell_formula_units_Z   4
loop_
 _symmetry_equiv_pos_site_id
 _symmetry_equiv_pos_as_xyz
  1  'x, y, z'
loop_
 _atom_site_type_symbol
 _atom_site_label
 _atom_site_symmetry_multiplicity
 _atom_site_fract_x
 _atom_site_fract_y
 _atom_site_fract_z
 _atom_site_occupancy
  Eu  Eu0  1  0.75000000  0.02037700  0.29078100  1
  Eu  Eu1  1  0.25000000  0.97962300  0.70921900  1
  Eu  Eu2  1  0.25000000  0.47962300  0.79078100  1
  Eu  Eu3  1  0.75000000  0.52037700  0.20921900  1
  Mg  Mg0  1  0.75000000  0.69085300  0.60467800  1
  Mg  Mg1  1  0.25000000  0.30914700  0.39532200  1
  Mg  Mg2  1  0.25000000  0.80914700  0.10467800  1
  Mg  Mg3  1  0.75000000  0.19085300  0.89532200  1
  Ga  Ga0  1  0.75000000  0.81497900  0.93266800  1
  Ga  Ga1  1  0.25000000  0.18502100  0.06733200  1
  Ga  Ga2  1  0.25000000  0.68502100  0.43266800  1
  Ga  Ga3  1  0.75000000  0.31497900  0.56733200  1
loop_
_geom_bond_atom_site_label_1
_geom_bond_atom_site_label_2
_geom_bond_distance
_geom_bond_site_symmetry_2
Eu0 Ga3 3.181506 1_555
Eu0 Ga0 3.255906 1_544
Eu0 Ga1 3.303141 1_555
Eu0 Ga1 3.303141 1_655
Eu0 Mg2 3.322093 1_645
Eu0 Mg2 3.322093 1_545
Eu0 Mg3 3.398103 1_554
Eu0 Mg1 3.456594 1_655
Eu0 Mg1 3.456594 1_555
Eu0 Mg0 3.583482 1_545
Eu0 Ga2 3.783495 1_645
Eu0 Ga2 3.783495 1_545
Eu1 Ga2 3.181506 1_555
Eu1 Ga1 3.255906 1_566
Eu1 Ga0 3.303141 1_455
Eu1 Ga0 3.303141 1_555
Eu1 Mg3 3.322093 1_465
Eu1 Mg3 3.322093 1_565
Eu1 Mg2 3.398103 1_556
Eu1 Mg0 3.456594 1_455
Eu1 Mg0 3.456594 1_555
Eu1 Mg1 3.583482 1_565
Eu1 Ga3 3.783495 1_565
Eu1 Ga3 3.783495 1_465
Eu2 Ga1 3.181506 1_556
Eu2 Ga2 3.255906 1_555
Eu2 Ga3 3.303141 1_555
Eu2 Ga3 3.303141 1_455
Eu2 Mg0 3.322093 1_455
Eu2 Mg0 3.322093 1_555
Eu2 Mg1 3.398103 1_555
Eu2 Mg3 3.456594 1_455
Eu2 Mg3 3.456594 1_555
Eu2 Mg2 3.583482 1_556
Eu2 Ga0 3.783495 1_555
Eu2 Ga0 3.783495 1_455
Eu3 Ga0 3.181506 1_554
Eu3 Ga3 3.255906 1_555
Eu3 Ga2 3.303141 1_655
Eu3 Ga2 3.303141 1_555
Eu3 Mg1 3.322093 1_555
Eu3 Mg1 3.322093 1_655
Eu3 Mg0 3.398103 1_555
Eu3 Mg2 3.456594 1_655
Eu3 Mg2 3.456594 1_555
Eu3 Mg3 3.583482 1_554
Eu3 Ga1 3.783495 1_555
Eu3 Ga1 3.783495 1_655
Ga0 Mg0 2.767756 1_555
Ga0 Mg2 2.823571 1_556
Ga0 Mg2 2.823571 1_656
Ga0 Mg3 2.966145 1_565
Ga1 Mg1 2.767756 1_555
Ga1 Mg3 2.823571 1_554
Ga1 Mg3 2.823571 1_454
Ga1 Mg2 2.966145 1_545
Ga2 Mg2 2.767756 1_555
Ga2 Mg0 2.823571 1_455
Ga2 Mg0 2.823571 1_555
Ga2 Mg1 2.966145 1_555
Ga3 Mg3 2.767756 1_555
Ga3 Mg1 2.823571 1_655
Ga3 Mg1 2.823571 1_555
Ga3 Mg0 2.966145 1_555
