# generated using pymatgen
data_Sr5Ca3MnFe7O24
_symmetry_space_group_name_H-M   'P 1'
_cell_length_a   7.77616930
_cell_length_b   7.77616930
_cell_length_c   7.77140523
_cell_angle_alpha   89.99016140
_cell_angle_beta   89.99016140
_cell_angle_gamma   89.98589118
_symmetry_Int_Tables_number   1
_chemical_formula_structural   Sr5Ca3MnFe7O24
_chemical_formula_sum   'Sr5 Ca3 Mn1 Fe7 O24'
_cell_volume   469.92758988
_cell_formula_units_Z   1
loop_
 _symmetry_equiv_pos_site_id
 _symmetry_equiv_pos_as_xyz
  1  'x, y, z'
loop_
 _atom_site_type_symbol
 _atom_site_label
 _atom_site_symmetry_multiplicity
 _atom_site_fract_x
 _atom_site_fract_y
 _atom_site_fract_z
 _atom_site_occupancy
  Sr  Sr0  1  0.25033200  0.74962500  0.74954000  1
  Sr  Sr1  1  0.74960500  0.74960500  0.74954300  1
  Sr  Sr2  1  0.25038300  0.25038300  0.74960600  1
  Sr  Sr3  1  0.74962500  0.25033200  0.74954000  1
  Sr  Sr4  1  0.25037100  0.25037100  0.25046000  1
  Ca  Ca0  1  0.25056300  0.74947100  0.25065000  1
  Ca  Ca1  1  0.74940100  0.74940100  0.25064300  1
  Ca  Ca2  1  0.74947100  0.25056300  0.25065000  1
  Mn  Mn0  1  0.50071900  0.50071900  0.49793500  1
  Fe  Fe0  1  0.99925500  0.50072000  0.00222600  1
  Fe  Fe1  1  0.50068300  0.50068300  0.00202500  1
  Fe  Fe2  1  0.99934600  0.50069800  0.49788100  1
  Fe  Fe3  1  0.99929300  0.99929300  0.00215200  1
  Fe  Fe4  1  0.50072000  0.99925500  0.00222600  1
  Fe  Fe5  1  0.99927100  0.99927100  0.49779800  1
  Fe  Fe6  1  0.50069800  0.99934600  0.49788100  1
  O  O0  1  0.99936800  0.74935100  0.00586900  1
  O  O1  1  0.50061500  0.75120000  0.00590700  1
  O  O2  1  0.99935100  0.75117300  0.49409500  1
  O  O3  1  0.50062700  0.74795400  0.49384200  1
  O  O4  1  0.99728300  0.25067700  0.00389900  1
  O  O5  1  0.50275300  0.24878100  0.00393300  1
  O  O6  1  0.99724700  0.24879200  0.49612200  1
  O  O7  1  0.50287800  0.25209600  0.49597000  1
  O  O8  1  0.99943200  0.50054100  0.75122900  1
  O  O9  1  0.50055800  0.50055800  0.74789400  1
  O  O10  1  0.99745100  0.50255900  0.24882700  1
  O  O11  1  0.50269600  0.50269600  0.25203600  1
  O  O12  1  0.99942800  0.99942800  0.74930600  1
  O  O13  1  0.50054100  0.99943200  0.75122900  1
  O  O14  1  0.99745400  0.99745400  0.25062400  1
  O  O15  1  0.50255900  0.99745100  0.24882700  1
  O  O16  1  0.24878100  0.50275300  0.00393300  1
  O  O17  1  0.75120000  0.50061500  0.00590700  1
  O  O18  1  0.25209600  0.50287800  0.49597000  1
  O  O19  1  0.74795400  0.50062700  0.49384200  1
  O  O20  1  0.25067700  0.99728300  0.00389900  1
  O  O21  1  0.74935100  0.99936800  0.00586900  1
  O  O22  1  0.24879200  0.99724700  0.49612200  1
  O  O23  1  0.75117300  0.99935100  0.49409500  1
loop_
_geom_bond_atom_site_label_1
_geom_bond_atom_site_label_2
_geom_bond_distance
_geom_bond_site_symmetry_2
Ca0 O18 2.703802 1_555
Ca0 O22 2.711635 1_555
Ca0 O3 2.711919 1_555
Ca0 O16 2.712634 1_555
Ca0 O20 2.718339 1_555
Ca0 O2 2.719238 1_455
Ca0 O1 2.719813 1_555
Ca0 O0 2.726813 1_455
Ca0 O11 2.743128 1_555
Ca0 O15 2.749619 1_555
Ca0 O10 2.750013 1_455
Ca0 O14 2.755100 1_455
Ca1 O19 2.704310 1_555
Ca1 O3 2.704310 1_555
Ca1 O2 2.712709 1_555
Ca1 O23 2.712709 1_555
Ca1 O17 2.713210 1_555
Ca1 O1 2.713210 1_555
Ca1 O11 2.713408 1_555
Ca1 O0 2.719475 1_555
Ca1 O21 2.719475 1_555
Ca1 O15 2.720914 1_555
Ca1 O10 2.720914 1_555
Ca1 O14 2.728215 1_555
Ca2 O7 2.703802 1_555
Ca2 O6 2.711635 1_555
Ca2 O19 2.711919 1_555
Ca2 O5 2.712634 1_555
Ca2 O4 2.718339 1_555
Ca2 O23 2.719238 1_545
Ca2 O17 2.719813 1_555
Ca2 O21 2.726813 1_545
Ca2 O11 2.743128 1_555
Ca2 O10 2.749619 1_555
Ca2 O15 2.750013 1_545
Ca2 O14 2.755100 1_545
Mn0 O11 1.911099 1_555
Mn0 O19 1.922799 1_555
Mn0 O3 1.922799 1_555
Mn0 O18 1.933466 1_555
Mn0 O7 1.933466 1_555
Mn0 O9 1.942533 1_555
Fe0 O10 1.916541 1_555
Fe0 O17 1.929125 1_555
Fe0 O0 1.933609 1_555
Fe0 O16 1.940472 1_655
Fe0 O4 1.944482 1_555
Fe0 O8 1.950600 1_554
Fe1 O11 1.943068 1_555
Fe1 O17 1.948301 1_555
Fe1 O1 1.948301 1_555
Fe1 O5 1.958948 1_555
Fe1 O16 1.958948 1_555
Fe1 O9 1.974956 1_554
Fe2 O10 1.935610 1_555
Fe2 O2 1.947953 1_555
Fe2 O19 1.955124 1_555
Fe2 O6 1.958986 1_555
Fe2 O18 1.965558 1_655
Fe2 O8 1.968870 1_555
Fe3 O14 1.931078 1_555
Fe3 O21 1.943801 1_555
Fe3 O0 1.943801 1_555
Fe3 O4 1.954913 1_565
Fe3 O20 1.954913 1_655
Fe3 O12 1.964969 1_554
Fe4 O15 1.916541 1_555
Fe4 O1 1.929125 1_555
Fe4 O21 1.933609 1_555
Fe4 O5 1.940472 1_565
Fe4 O20 1.944482 1_555
Fe4 O13 1.950600 1_554
Fe5 O14 1.920998 1_555
Fe5 O2 1.929472 1_555
Fe5 O23 1.929472 1_555
Fe5 O6 1.940419 1_565
Fe5 O22 1.940419 1_655
Fe5 O12 1.954572 1_555
Fe6 O15 1.935610 1_555
Fe6 O23 1.947953 1_555
Fe6 O3 1.955124 1_555
Fe6 O22 1.958986 1_555
Fe6 O7 1.965558 1_565
Fe6 O13 1.968870 1_555
O0 Sr1 2.782370 1_554
O0 Sr0 2.788437 1_654
O1 Sr1 2.777939 1_554
O1 Sr0 2.785453 1_554
O2 Sr1 2.776947 1_555
O2 Sr0 2.784127 1_655
O3 Sr1 2.774664 1_555
O3 Sr0 2.781323 1_555
O4 Sr4 2.747012 1_655
O4 Sr3 2.759998 1_554
O4 Sr2 2.788853 1_654
O5 Sr4 2.742452 1_555
O5 Sr3 2.755478 1_554
O5 Sr2 2.785539 1_554
O6 Sr4 2.741901 1_655
O6 Sr3 2.754120 1_555
O6 Sr2 2.785108 1_655
O7 Sr4 2.738114 1_555
O7 Sr3 2.750690 1_555
O7 Sr2 2.781947 1_555
O8 Sr1 2.742890 1_555
O8 Sr0 2.749588 1_655
O8 Sr3 2.749753 1_555
O8 Sr2 2.755082 1_655
O9 Sr1 2.739181 1_555
O9 Sr0 2.745103 1_555
O9 Sr3 2.745103 1_555
O9 Sr2 2.751583 1_555
O10 Sr4 2.777068 1_655
O11 Sr4 2.775231 1_555
O12 Sr1 2.747683 1_555
O12 Sr3 2.752847 1_565
O12 Sr0 2.752847 1_655
O12 Sr2 2.760135 1_665
O13 Sr1 2.742890 1_555
O13 Sr3 2.749588 1_565
O13 Sr0 2.749753 1_555
O13 Sr2 2.755082 1_565
O14 Sr4 2.781712 1_665
O15 Sr4 2.777068 1_565
O16 Sr4 2.742452 1_555
O16 Sr0 2.755478 1_554
O16 Sr2 2.785539 1_554
O17 Sr1 2.777939 1_554
O17 Sr3 2.785453 1_554
O18 Sr4 2.738114 1_555
O18 Sr0 2.750690 1_555
O18 Sr2 2.781947 1_555
O19 Sr1 2.774664 1_555
O19 Sr3 2.781323 1_555
O20 Sr4 2.747012 1_565
O20 Sr0 2.759998 1_554
O20 Sr2 2.788853 1_564
O21 Sr1 2.782370 1_554
O21 Sr3 2.788437 1_564
O22 Sr4 2.741901 1_565
O22 Sr0 2.754120 1_555
O22 Sr2 2.785108 1_565
O23 Sr1 2.776947 1_555
O23 Sr3 2.784127 1_565
