# generated using pymatgen
data_Mg3V
_symmetry_space_group_name_H-M   'P 1'
_cell_length_a   5.99570200
_cell_length_b   9.96728200
_cell_length_c   10.87703000
_cell_angle_alpha   90.00000000
_cell_angle_beta   90.00000000
_cell_angle_gamma   90.00000000
_symmetry_Int_Tables_number   1
_chemical_formula_structural   Mg3V
_chemical_formula_sum   'Mg24 V8'
_cell_volume   650.02058679
_cell_formula_units_Z   8
loop_
 _symmetry_equiv_pos_site_id
 _symmetry_equiv_pos_as_xyz
  1  'x, y, z'
loop_
 _atom_site_type_symbol
 _atom_site_label
 _atom_site_symmetry_multiplicity
 _atom_site_fract_x
 _atom_site_fract_y
 _atom_site_fract_z
 _atom_site_occupancy
  Mg  Mg0_0  1  0.00000000  0.00000000  0.32826300  1
  Mg  Mg0_1  1  0.00000000  0.00000000  0.82826300  1
  Mg  Mg0_2  1  0.00000000  0.50000000  0.32826300  1
  Mg  Mg0_3  1  0.00000000  0.50000000  0.82826300  1
  Mg  Mg0_4  1  0.50000000  0.00000000  0.32826300  1
  Mg  Mg0_5  1  0.50000000  0.00000000  0.82826300  1
  Mg  Mg0_6  1  0.50000000  0.50000000  0.32826300  1
  Mg  Mg0_7  1  0.50000000  0.50000000  0.82826300  1
  Mg  Mg1_0  1  0.00000000  0.25000000  0.16660050  1
  Mg  Mg1_1  1  0.00000000  0.25000000  0.66660050  1
  Mg  Mg1_2  1  0.00000000  0.75000000  0.16660050  1
  Mg  Mg1_3  1  0.00000000  0.75000000  0.66660050  1
  Mg  Mg1_4  1  0.50000000  0.25000000  0.16660050  1
  Mg  Mg1_5  1  0.50000000  0.25000000  0.66660050  1
  Mg  Mg1_6  1  0.50000000  0.75000000  0.16660050  1
  Mg  Mg1_7  1  0.50000000  0.75000000  0.66660050  1
  Mg  Mg2_0  1  0.25000000  0.25000000  0.42625350  1
  Mg  Mg2_1  1  0.25000000  0.25000000  0.92625350  1
  Mg  Mg2_2  1  0.25000000  0.75000000  0.42625350  1
  Mg  Mg2_3  1  0.25000000  0.75000000  0.92625350  1
  Mg  Mg2_4  1  0.75000000  0.25000000  0.42625350  1
  Mg  Mg2_5  1  0.75000000  0.25000000  0.92625350  1
  Mg  Mg2_6  1  0.75000000  0.75000000  0.42625350  1
  Mg  Mg2_7  1  0.75000000  0.75000000  0.92625350  1
  V  V0_0  1  0.25000000  0.00000000  0.07888250  1
  V  V0_1  1  0.25000000  0.00000000  0.57888250  1
  V  V0_2  1  0.25000000  0.50000000  0.07888250  1
  V  V0_3  1  0.25000000  0.50000000  0.57888250  1
  V  V0_4  1  0.75000000  0.00000000  0.07888250  1
  V  V0_5  1  0.75000000  0.00000000  0.57888250  1
  V  V0_6  1  0.75000000  0.50000000  0.07888250  1
  V  V0_7  1  0.75000000  0.50000000  0.57888250  1
loop_
_geom_bond_atom_site_label_1
_geom_bond_atom_site_label_2
_geom_bond_distance
_geom_bond_site_symmetry_2
Mg0_0 Mg0_4 2.997851 1_555
Mg0_0 Mg0_4 2.997851 1_455
Mg0_0 Mg1_2 3.049782 1_545
Mg0_0 Mg1_0 3.049782 1_555
Mg0_0 Mg2_2 3.097091 1_545
Mg0_0 Mg2_6 3.097091 1_445
Mg0_0 Mg2_0 3.097091 1_555
Mg0_0 Mg2_4 3.097091 1_455
Mg0_0 V0_0 3.099119 1_555
Mg0_0 V0_4 3.099119 1_455
Mg0_0 V0_1 3.110921 1_555
Mg0_0 V0_5 3.110921 1_455
Mg0_1 Mg0_5 2.997851 1_455
Mg0_1 Mg0_5 2.997851 1_555
Mg0_1 Mg1_3 3.049782 1_545
Mg0_1 Mg1_1 3.049782 1_555
Mg0_1 Mg2_3 3.097091 1_545
Mg0_1 Mg2_7 3.097091 1_445
Mg0_1 Mg2_5 3.097091 1_455
Mg0_1 Mg2_1 3.097091 1_555
Mg0_1 V0_1 3.099119 1_555
Mg0_1 V0_5 3.099119 1_455
Mg0_1 V0_0 3.110921 1_556
Mg0_1 V0_4 3.110921 1_456
Mg0_2 Mg0_6 2.997851 1_455
Mg0_2 Mg0_6 2.997851 1_555
Mg0_2 Mg1_2 3.049782 1_555
Mg0_2 Mg1_0 3.049782 1_555
Mg0_2 Mg2_2 3.097091 1_555
Mg0_2 Mg2_6 3.097091 1_455
Mg0_2 Mg2_0 3.097091 1_555
Mg0_2 Mg2_4 3.097091 1_455
Mg0_2 V0_2 3.099119 1_555
Mg0_2 V0_6 3.099119 1_455
Mg0_2 V0_3 3.110921 1_555
Mg0_2 V0_7 3.110921 1_455
Mg0_3 Mg0_7 2.997851 1_455
Mg0_3 Mg0_7 2.997851 1_555
Mg0_3 Mg1_3 3.049782 1_555
Mg0_3 Mg1_1 3.049782 1_555
Mg0_3 Mg2_7 3.097091 1_455
Mg0_3 Mg2_3 3.097091 1_555
Mg0_3 Mg2_5 3.097091 1_455
Mg0_3 Mg2_1 3.097091 1_555
Mg0_3 V0_7 3.099119 1_455
Mg0_3 V0_3 3.099119 1_555
Mg0_3 V0_2 3.110921 1_556
Mg0_3 V0_6 3.110921 1_456
Mg0_4 Mg1_4 3.049782 1_555
Mg0_4 Mg1_6 3.049782 1_545
Mg0_4 Mg2_6 3.097091 1_545
Mg0_4 Mg2_4 3.097091 1_555
Mg0_4 Mg2_2 3.097091 1_545
Mg0_4 Mg2_0 3.097091 1_555
Mg0_4 V0_0 3.099119 1_555
Mg0_4 V0_4 3.099119 1_555
Mg0_4 V0_5 3.110921 1_555
Mg0_4 V0_1 3.110921 1_555
Mg0_5 Mg1_7 3.049782 1_545
Mg0_5 Mg1_5 3.049782 1_555
Mg0_5 Mg2_5 3.097091 1_555
Mg0_5 Mg2_7 3.097091 1_545
Mg0_5 Mg2_3 3.097091 1_545
Mg0_5 Mg2_1 3.097091 1_555
Mg0_5 V0_5 3.099119 1_555
Mg0_5 V0_1 3.099119 1_555
Mg0_5 V0_4 3.110921 1_556
Mg0_5 V0_0 3.110921 1_556
Mg0_6 Mg1_4 3.049782 1_555
Mg0_6 Mg1_6 3.049782 1_555
Mg0_6 Mg2_6 3.097091 1_555
Mg0_6 Mg2_4 3.097091 1_555
Mg0_6 Mg2_2 3.097091 1_555
Mg0_6 Mg2_0 3.097091 1_555
Mg0_6 V0_2 3.099119 1_555
Mg0_6 V0_6 3.099119 1_555
Mg0_6 V0_7 3.110921 1_555
Mg0_6 V0_3 3.110921 1_555
Mg0_7 Mg1_7 3.049782 1_555
Mg0_7 Mg1_5 3.049782 1_555
Mg0_7 Mg2_5 3.097091 1_555
Mg0_7 Mg2_7 3.097091 1_555
Mg0_7 Mg2_3 3.097091 1_555
Mg0_7 Mg2_1 3.097091 1_555
Mg0_7 V0_7 3.099119 1_555
Mg0_7 V0_3 3.099119 1_555
Mg0_7 V0_6 3.110921 1_556
Mg0_7 V0_2 3.110921 1_556
Mg1_0 Mg1_4 2.997851 1_555
Mg1_0 Mg1_4 2.997851 1_455
Mg1_0 Mg2_1 3.013493 1_554
Mg1_0 Mg2_5 3.013493 1_454
Mg1_0 V0_0 3.060437 1_555
Mg1_0 V0_2 3.060437 1_555
Mg1_0 V0_6 3.060437 1_455
Mg1_0 V0_4 3.060437 1_455
Mg1_0 Mg2_0 3.197372 1_555
Mg1_0 Mg2_4 3.197372 1_455
Mg1_1 Mg1_5 2.997851 1_555
Mg1_1 Mg1_5 2.997851 1_455
Mg1_1 Mg2_0 3.013493 1_555
Mg1_1 Mg2_4 3.013493 1_455
Mg1_1 V0_3 3.060437 1_555
Mg1_1 V0_1 3.060437 1_555
Mg1_1 V0_5 3.060437 1_455
Mg1_1 V0_7 3.060437 1_455
Mg1_1 Mg2_1 3.197372 1_555
Mg1_1 Mg2_5 3.197372 1_455
Mg1_2 Mg1_6 2.997851 1_455
Mg1_2 Mg1_6 2.997851 1_555
Mg1_2 Mg2_3 3.013493 1_554
Mg1_2 Mg2_7 3.013493 1_454
Mg1_2 V0_0 3.060437 1_565
Mg1_2 V0_2 3.060437 1_555
Mg1_2 V0_4 3.060437 1_465
Mg1_2 V0_6 3.060437 1_455
Mg1_2 Mg2_2 3.197372 1_555
Mg1_2 Mg2_6 3.197372 1_455
Mg1_3 Mg1_7 2.997851 1_455
Mg1_3 Mg1_7 2.997851 1_555
Mg1_3 Mg2_6 3.013493 1_455
Mg1_3 Mg2_2 3.013493 1_555
Mg1_3 V0_3 3.060437 1_555
Mg1_3 V0_1 3.060437 1_565
Mg1_3 V0_5 3.060437 1_465
Mg1_3 V0_7 3.060437 1_455
Mg1_3 Mg2_3 3.197372 1_555
Mg1_3 Mg2_7 3.197372 1_455
Mg1_4 Mg2_5 3.013493 1_554
Mg1_4 Mg2_1 3.013493 1_554
Mg1_4 V0_4 3.060437 1_555
Mg1_4 V0_6 3.060437 1_555
Mg1_4 V0_0 3.060437 1_555
Mg1_4 V0_2 3.060437 1_555
Mg1_4 Mg2_0 3.197372 1_555
Mg1_4 Mg2_4 3.197372 1_555
Mg1_5 Mg2_4 3.013493 1_555
Mg1_5 Mg2_0 3.013493 1_555
Mg1_5 V0_5 3.060437 1_555
Mg1_5 V0_7 3.060437 1_555
Mg1_5 V0_3 3.060437 1_555
Mg1_5 V0_1 3.060437 1_555
Mg1_5 Mg2_5 3.197372 1_555
Mg1_5 Mg2_1 3.197372 1_555
Mg1_6 Mg2_7 3.013493 1_554
Mg1_6 Mg2_3 3.013493 1_554
Mg1_6 V0_4 3.060437 1_565
Mg1_6 V0_6 3.060437 1_555
Mg1_6 V0_0 3.060437 1_565
Mg1_6 V0_2 3.060437 1_555
Mg1_6 Mg2_2 3.197372 1_555
Mg1_6 Mg2_6 3.197372 1_555
Mg1_7 Mg2_6 3.013493 1_555
Mg1_7 Mg2_2 3.013493 1_555
Mg1_7 V0_5 3.060437 1_565
Mg1_7 V0_7 3.060437 1_555
Mg1_7 V0_3 3.060437 1_555
Mg1_7 V0_1 3.060437 1_565
Mg1_7 Mg2_7 3.197372 1_555
Mg1_7 Mg2_3 3.197372 1_555
Mg2_0 V0_1 2.994206 1_555
Mg2_0 V0_3 2.994206 1_555
Mg2_0 Mg2_4 2.997851 1_555
Mg2_0 Mg2_4 2.997851 1_455
Mg2_1 V0_0 2.994206 1_556
Mg2_1 V0_2 2.994206 1_556
Mg2_1 Mg2_5 2.997851 1_555
Mg2_1 Mg2_5 2.997851 1_455
Mg2_2 V0_1 2.994206 1_565
Mg2_2 V0_3 2.994206 1_555
Mg2_2 Mg2_6 2.997851 1_555
Mg2_2 Mg2_6 2.997851 1_455
Mg2_3 V0_0 2.994206 1_566
Mg2_3 V0_2 2.994206 1_556
Mg2_3 Mg2_7 2.997851 1_555
Mg2_3 Mg2_7 2.997851 1_455
Mg2_4 V0_5 2.994206 1_555
Mg2_4 V0_7 2.994206 1_555
Mg2_5 V0_4 2.994206 1_556
Mg2_5 V0_6 2.994206 1_556
Mg2_6 V0_5 2.994206 1_565
Mg2_6 V0_7 2.994206 1_555
Mg2_7 V0_4 2.994206 1_566
Mg2_7 V0_6 2.994206 1_556
V0_0 V0_4 2.997851 1_555
V0_0 V0_4 2.997851 1_455
V0_1 V0_5 2.997851 1_555
V0_1 V0_5 2.997851 1_455
V0_2 V0_6 2.997851 1_555
V0_2 V0_6 2.997851 1_455
V0_3 V0_7 2.997851 1_555
V0_3 V0_7 2.997851 1_455
