# generated using pymatgen
data_Ba10Ge7O3
_symmetry_space_group_name_H-M   'P 1'
_cell_length_a   12.08040285
_cell_length_b   12.08040285
_cell_length_c   5.04065500
_cell_angle_alpha   90.00000000
_cell_angle_beta   90.00000000
_cell_angle_gamma   120.00000465
_symmetry_Int_Tables_number   1
_chemical_formula_structural   Ba10Ge7O3
_chemical_formula_sum   'Ba10 Ge7 O3'
_cell_volume   637.06012037
_cell_formula_units_Z   1
loop_
 _symmetry_equiv_pos_site_id
 _symmetry_equiv_pos_as_xyz
  1  'x, y, z'
loop_
 _atom_site_type_symbol
 _atom_site_label
 _atom_site_symmetry_multiplicity
 _atom_site_fract_x
 _atom_site_fract_y
 _atom_site_fract_z
 _atom_site_occupancy
  Ba  Ba0  1  0.91879300  0.45939600  0.00000000  1
  Ba  Ba1  1  0.54060400  0.45939600  0.00000000  1
  Ba  Ba2  1  0.54060400  0.08120700  0.00000000  1
  Ba  Ba3  1  0.75027800  0.87513900  0.00000000  1
  Ba  Ba4  1  0.12486100  0.24972200  0.00000000  1
  Ba  Ba5  1  0.12486100  0.87513900  0.00000000  1
  Ba  Ba6  1  0.33930900  0.16965500  0.50000000  1
  Ba  Ba7  1  0.83034500  0.16965500  0.50000000  1
  Ba  Ba8  1  0.83034500  0.66069100  0.50000000  1
  Ba  Ba9  1  0.33333300  0.66666700  0.00000000  1
  Ge  Ge0  1  0.33258900  0.45576500  0.50000000  1
  Ge  Ge1  1  0.54423500  0.87682400  0.50000000  1
  Ge  Ge2  1  0.12317600  0.66741100  0.50000000  1
  Ge  Ge3  1  0.33258900  0.87682400  0.50000000  1
  Ge  Ge4  1  0.12317600  0.45576500  0.50000000  1
  Ge  Ge5  1  0.54423500  0.66741100  0.50000000  1
  Ge  Ge6  1  0.66666700  0.33333300  0.50000000  1
  O  O0  1  0.25864500  0.12932200  0.00000000  1
  O  O1  1  0.87067800  0.74135500  0.00000000  1
  O  O2  1  0.87067800  0.12932200  0.00000000  1
loop_
_geom_bond_atom_site_label_1
_geom_bond_atom_site_label_2
_geom_bond_distance
_geom_bond_site_symmetry_2
Ba0 Ge4 3.543780 1_655
Ba0 Ge4 3.543780 1_654
Ba0 Ge2 3.543785 1_655
Ba0 Ge2 3.543785 1_654
Ba0 Ge6 3.648239 1_555
Ba0 Ge6 3.648239 1_554
Ba1 Ge5 3.543789 1_554
Ba1 Ge5 3.543789 1_555
Ba1 Ge0 3.543789 1_554
Ba1 Ge0 3.543789 1_555
Ba1 Ge6 3.648239 1_554
Ba1 Ge6 3.648239 1_555
Ba2 Ge1 3.543780 1_544
Ba2 Ge1 3.543780 1_545
Ba2 Ge3 3.543785 1_544
Ba2 Ge3 3.543785 1_545
Ba2 Ge6 3.648239 1_555
Ba2 Ge6 3.648239 1_554
Ba3 O2 2.660474 1_565
Ba3 O1 2.660485 1_555
Ba3 Ge5 3.549459 1_554
Ba3 Ge5 3.549459 1_555
Ba3 Ge1 3.549460 1_554
Ba3 Ge1 3.549460 1_555
Ba4 O2 2.660474 1_455
Ba4 O0 2.660485 1_555
Ba4 Ge0 3.549459 1_554
Ba4 Ge0 3.549459 1_555
Ba4 Ge4 3.549460 1_554
Ba4 Ge4 3.549460 1_555
Ba5 O0 2.660475 1_565
Ba5 O1 2.660475 1_455
Ba5 Ge2 3.549460 1_555
Ba5 Ge3 3.549460 1_554
Ba5 Ge3 3.549460 1_555
Ba5 Ge2 3.549460 1_554
Ba6 O0 2.657860 1_555
Ba6 O0 2.657860 1_556
Ba6 Ge6 3.424798 1_555
Ba6 Ge0 3.497621 1_555
Ba6 Ge3 3.497633 1_545
Ba7 O2 2.657867 1_556
Ba7 O2 2.657867 1_555
Ba7 Ge6 3.424778 1_555
Ba7 Ge1 3.497627 1_545
Ba7 Ge4 3.497627 1_655
Ba8 O1 2.657860 1_556
Ba8 O1 2.657860 1_555
Ba8 Ge6 3.424798 1_555
Ba8 Ge5 3.497621 1_555
Ba8 Ge2 3.497633 1_655
Ba9 Ge2 3.580553 1_554
Ba9 Ge2 3.580553 1_555
Ba9 Ge3 3.580553 1_554
Ba9 Ge3 3.580553 1_555
Ba9 Ge4 3.580557 1_554
Ba9 Ge4 3.580557 1_555
Ba9 Ge1 3.580557 1_555
Ba9 Ge1 3.580557 1_554
Ba9 Ge5 3.580562 1_555
Ba9 Ge5 3.580562 1_554
Ba9 Ge0 3.580562 1_554
Ba9 Ge0 3.580562 1_555
Ge0 Ge4 2.529793 1_555
Ge0 Ge5 2.556769 1_555
Ge1 Ge5 2.529793 1_555
Ge1 Ge3 2.556769 1_555
Ge2 Ge3 2.529793 1_555
Ge2 Ge4 2.556769 1_555
