# generated using pymatgen
data_Mg3Si4
_symmetry_space_group_name_H-M   'P 1'
_cell_length_a   3.93475179
_cell_length_b   8.01656725
_cell_length_c   9.95926914
_cell_angle_alpha   62.07569121
_cell_angle_beta   77.57593865
_cell_angle_gamma   70.79765280
_symmetry_Int_Tables_number   1
_chemical_formula_structural   Mg3Si4
_chemical_formula_sum   'Mg6 Si8'
_cell_volume   261.42283448
_cell_formula_units_Z   2
loop_
 _symmetry_equiv_pos_site_id
 _symmetry_equiv_pos_as_xyz
  1  'x, y, z'
loop_
 _atom_site_type_symbol
 _atom_site_label
 _atom_site_symmetry_multiplicity
 _atom_site_fract_x
 _atom_site_fract_y
 _atom_site_fract_z
 _atom_site_occupancy
  Mg  Mg0  1  0.16842700  0.34690600  0.50919100  1
  Mg  Mg1  1  0.64665400  0.18516800  0.76277200  1
  Mg  Mg2  1  0.24848300  0.58008900  0.97413200  1
  Mg  Mg3  1  0.95170100  0.27215700  0.97675100  1
  Mg  Mg4  1  0.91510100  0.00594200  0.51695600  1
  Mg  Mg5  1  0.57268900  0.85423800  0.03272300  1
  Si  Si0  1  0.78264200  0.64145500  0.73617600  1
  Si  Si1  1  0.39212800  0.56893000  0.62332200  1
  Si  Si2  1  0.74475100  0.42542400  0.25808600  1
  Si  Si3  1  0.39122500  0.22143000  0.24051800  1
  Si  Si4  1  0.33362100  0.94663900  0.74015200  1
  Si  Si5  1  0.62704700  0.81778000  0.39328000  1
  Si  Si6  1  0.10189100  0.65894000  0.24557000  1
  Si  Si7  1  0.13019800  0.97475300  0.23708200  1
loop_
_geom_bond_atom_site_label_1
_geom_bond_atom_site_label_2
_geom_bond_distance
_geom_bond_site_symmetry_2
Mg0 Si6 2.632998 1_555
Mg0 Si4 2.892754 1_545
Mg0 Si1 2.930979 1_555
Mg0 Si2 2.969364 1_555
Mg0 Si2 3.009766 1_455
Mg0 Si3 3.141921 1_555
Mg0 Mg4 3.167315 1_455
Mg0 Si1 3.258031 1_455
Mg0 Mg4 3.275080 1_555
Mg1 Si1 2.639380 1_555
Mg1 Si4 2.701198 1_545
Mg1 Si4 2.784790 1_645
Mg1 Mg4 3.218219 1_555
Mg2 Si0 2.778620 1_555
Mg2 Si3 2.838173 1_556
Mg2 Si4 2.841701 1_555
Mg2 Si6 2.954646 1_556
Mg2 Si2 3.063321 1_456
Mg2 Si0 3.066284 1_455
Mg3 Si7 2.606164 1_646
Mg3 Si0 2.773882 1_555
Mg3 Si3 3.004367 1_556
Mg3 Si3 3.247872 1_656
Mg4 Si4 2.817683 1_545
Mg4 Si4 2.819460 1_645
Mg4 Si7 2.836643 1_645
Mg4 Si0 2.848364 1_545
Mg4 Si5 2.922775 1_545
Mg4 Si5 3.019230 1_645
Mg4 Si3 3.086850 1_655
Mg4 Si2 3.089536 1_555
Mg4 Si1 3.157954 1_645
Mg4 Si3 3.233879 1_555
Mg5 Si7 2.705083 1_555
Mg5 Si6 2.736071 1_555
Mg5 Si6 2.815492 1_655
Mg5 Si4 2.936537 1_554
Mg5 Si2 3.034724 1_555
Si0 Si1 2.426430 1_655
Si0 Si1 2.430055 1_555
Si0 Si4 2.515125 1_555
Si1 Si5 2.470641 1_555
Si2 Si3 2.551276 1_555
Si2 Si3 2.552551 1_655
Si2 Si6 2.592393 1_555
Si2 Si6 2.632716 1_655
Si3 Si7 2.526088 1_545
Si3 Si5 2.769104 1_545
Si3 Si7 2.933336 1_645
Si5 Si7 2.383748 1_555
Si5 Si6 2.506626 1_655
Si5 Si7 2.530440 1_655
Si6 Si7 2.531843 1_555
