# generated using pymatgen
data_Rb2Ti2(PO4)3
_symmetry_space_group_name_H-M   'P 1'
_cell_length_a   10.08629500
_cell_length_b   10.08629500
_cell_length_c   10.08629500
_cell_angle_alpha   90.00000000
_cell_angle_beta   90.00000000
_cell_angle_gamma   90.00000000
_symmetry_Int_Tables_number   1
_chemical_formula_structural   Rb2Ti2(PO4)3
_chemical_formula_sum   'Rb8 Ti8 P12 O48'
_cell_volume   1026.11254743
_cell_formula_units_Z   4
loop_
 _symmetry_equiv_pos_site_id
 _symmetry_equiv_pos_as_xyz
  1  'x, y, z'
loop_
 _atom_site_type_symbol
 _atom_site_label
 _atom_site_symmetry_multiplicity
 _atom_site_fract_x
 _atom_site_fract_y
 _atom_site_fract_z
 _atom_site_occupancy
  Rb  Rb0  1  0.04229100  0.04229100  0.04229100  1
  Rb  Rb1  1  0.45770900  0.95770900  0.54229100  1
  Rb  Rb2  1  0.95770900  0.54229100  0.45770900  1
  Rb  Rb3  1  0.54229100  0.45770900  0.95770900  1
  Rb  Rb4  1  0.82025900  0.82025900  0.82025900  1
  Rb  Rb5  1  0.67974100  0.17974100  0.32025900  1
  Rb  Rb6  1  0.17974100  0.32025900  0.67974100  1
  Rb  Rb7  1  0.32025900  0.67974100  0.17974100  1
  Ti  Ti0  1  0.60759300  0.60759300  0.60759300  1
  Ti  Ti1  1  0.89240700  0.39240700  0.10759300  1
  Ti  Ti2  1  0.39240700  0.10759300  0.89240700  1
  Ti  Ti3  1  0.10759300  0.89240700  0.39240700  1
  Ti  Ti4  1  0.33628800  0.33628800  0.33628800  1
  Ti  Ti5  1  0.16371200  0.66371200  0.83628800  1
  Ti  Ti6  1  0.66371200  0.83628800  0.16371200  1
  Ti  Ti7  1  0.83628800  0.16371200  0.66371200  1
  P  P0  1  0.02090600  0.20703700  0.37560800  1
  P  P1  1  0.47909400  0.79296300  0.87560800  1
  P  P2  1  0.97909400  0.70703700  0.12439200  1
  P  P3  1  0.37560800  0.02090600  0.20703700  1
  P  P4  1  0.52090600  0.29296300  0.62439200  1
  P  P5  1  0.87560800  0.47909400  0.79296300  1
  P  P6  1  0.12439200  0.97909400  0.70703700  1
  P  P7  1  0.62439200  0.52090600  0.29296300  1
  P  P8  1  0.20703700  0.37560800  0.02090600  1
  P  P9  1  0.70703700  0.12439200  0.97909400  1
  P  P10  1  0.29296300  0.62439200  0.52090600  1
  P  P11  1  0.79296300  0.87560800  0.47909400  1
  O  O0  1  0.01704500  0.05904200  0.33430100  1
  O  O1  1  0.48295500  0.94095800  0.83430100  1
  O  O2  1  0.98295500  0.55904200  0.16569900  1
  O  O3  1  0.33430100  0.01704500  0.05904200  1
  O  O4  1  0.51704500  0.44095800  0.66569900  1
  O  O5  1  0.83430100  0.48295500  0.94095800  1
  O  O6  1  0.16569900  0.98295500  0.55904200  1
  O  O7  1  0.66569900  0.51704500  0.44095800  1
  O  O8  1  0.05904200  0.33430100  0.01704500  1
  O  O9  1  0.55904200  0.16569900  0.98295500  1
  O  O10  1  0.44095800  0.66569900  0.51704500  1
  O  O11  1  0.94095800  0.83430100  0.48295500  1
  O  O12  1  0.16439400  0.25623100  0.39755200  1
  O  O13  1  0.33560600  0.74376900  0.89755200  1
  O  O14  1  0.83560600  0.75623100  0.10244800  1
  O  O15  1  0.39755200  0.16439400  0.25623100  1
  O  O16  1  0.66439400  0.24376900  0.60244800  1
  O  O17  1  0.89755200  0.33560600  0.74376900  1
  O  O18  1  0.10244800  0.83560600  0.75623100  1
  O  O19  1  0.60244800  0.66439400  0.24376900  1
  O  O20  1  0.25623100  0.39755200  0.16439400  1
  O  O21  1  0.75623100  0.10244800  0.83560600  1
  O  O22  1  0.24376900  0.60244800  0.66439400  1
  O  O23  1  0.74376900  0.89755200  0.33560600  1
  O  O24  1  0.27065100  0.49533700  0.44012800  1
  O  O25  1  0.22934900  0.50466300  0.94012800  1
  O  O26  1  0.72934900  0.99533700  0.05987200  1
  O  O27  1  0.44012800  0.27065100  0.49533700  1
  O  O28  1  0.77065100  0.00466300  0.55987200  1
  O  O29  1  0.94012800  0.22934900  0.50466300  1
  O  O30  1  0.05987200  0.72934900  0.99533700  1
  O  O31  1  0.55987200  0.77065100  0.00466300  1
  O  O32  1  0.49533700  0.44012800  0.27065100  1
  O  O33  1  0.99533700  0.05987200  0.72934900  1
  O  O34  1  0.00466300  0.55987200  0.77065100  1
  O  O35  1  0.50466300  0.94012800  0.22934900  1
  O  O36  1  0.04735900  0.79059700  0.23384400  1
  O  O37  1  0.45264100  0.20940300  0.73384400  1
  O  O38  1  0.95264100  0.29059700  0.26615600  1
  O  O39  1  0.23384400  0.04735900  0.79059700  1
  O  O40  1  0.54735900  0.70940300  0.76615600  1
  O  O41  1  0.73384400  0.45264100  0.20940300  1
  O  O42  1  0.26615600  0.95264100  0.29059700  1
  O  O43  1  0.76615600  0.54735900  0.70940300  1
  O  O44  1  0.79059700  0.23384400  0.04735900  1
  O  O45  1  0.29059700  0.26615600  0.95264100  1
  O  O46  1  0.70940300  0.76615600  0.54735900  1
  O  O47  1  0.20940300  0.73384400  0.45264100  1
loop_
_geom_bond_atom_site_label_1
_geom_bond_atom_site_label_2
_geom_bond_distance
_geom_bond_site_symmetry_2
O0 P0 1.550264 1_555
O0 Ti3 2.000610 1_545
O0 Rb0 2.961110 1_555
O1 P1 1.550264 1_555
O1 Ti2 2.000610 1_565
O1 Rb1 2.961110 1_555
O2 P2 1.550264 1_555
O2 Ti1 2.000610 1_555
O2 Rb2 2.961110 1_555
O3 P3 1.550264 1_555
O3 Ti2 2.000610 1_554
O3 Rb0 2.961110 1_555
O4 P4 1.550264 1_555
O4 Ti0 2.000610 1_555
O4 Rb3 2.961110 1_555
O5 P5 1.550264 1_555
O5 Ti1 2.000610 1_556
O5 Rb3 2.961110 1_555
O6 P6 1.550264 1_555
O6 Ti3 2.000610 1_555
O6 Rb1 2.961110 1_555
O7 P7 1.550264 1_555
O7 Ti0 2.000610 1_555
O7 Rb2 2.961110 1_555
O8 P8 1.550264 1_555
O8 Ti1 2.000610 1_455
O8 Rb0 2.961110 1_555
O9 P9 1.550264 1_555
O9 Ti2 2.000610 1_555
O9 Rb3 2.961110 1_555
O10 P10 1.550264 1_555
O10 Ti0 2.000610 1_555
O10 Rb1 2.961110 1_555
O11 P11 1.550264 1_555
O11 Ti3 2.000610 1_655
O11 Rb2 2.961110 1_555
O12 P0 1.545884 1_555
O12 Ti4 2.009932 1_555
O12 Rb6 2.922690 1_555
O13 P1 1.545884 1_555
O13 Ti5 2.009932 1_555
O13 Rb7 2.922690 1_556
O14 P2 1.545884 1_555
O14 Ti6 2.009932 1_555
O14 Rb4 2.922690 1_554
O15 P3 1.545884 1_555
O15 Ti4 2.009932 1_555
O15 Rb5 2.922690 1_555
O16 P4 1.545884 1_555
O16 Ti7 2.009932 1_555
O16 Rb5 2.922690 1_555
O17 P5 1.545884 1_555
O17 Ti7 2.009932 1_555
O17 Rb6 2.922690 1_655
O18 P6 1.545884 1_555
O18 Ti5 2.009932 1_555
O18 Rb4 2.922690 1_455
O19 P7 1.545884 1_555
O19 Ti6 2.009932 1_555
O19 Rb7 2.922690 1_555
O20 P8 1.545884 1_555
O20 Ti4 2.009932 1_555
O20 Rb7 2.922690 1_555
O21 P9 1.545884 1_555
O21 Ti7 2.009932 1_555
O21 Rb4 2.922690 1_545
O22 P10 1.545884 1_555
O22 Ti5 2.009932 1_555
O22 Rb6 2.922690 1_555
O23 P11 1.545884 1_555
O23 Ti6 2.009932 1_555
O23 Rb5 2.922690 1_565
O24 P10 1.552048 1_555
O24 Ti4 2.027008 1_555
O24 Rb6 3.130512 1_555
O24 Rb2 3.196679 1_455
O24 Rb7 3.256908 1_555
O25 P8 1.552048 1_556
O25 Ti5 2.027008 1_555
O25 Rb7 3.130512 1_556
O25 Rb3 3.196679 1_555
O25 Rb6 3.256908 1_555
O26 P9 1.552048 1_564
O26 Ti6 2.027008 1_555
O26 Rb4 3.130512 1_554
O26 Rb0 3.196679 1_665
O26 Rb5 3.256908 1_565
O27 P4 1.552048 1_555
O27 Ti4 2.027008 1_555
O27 Rb5 3.130512 1_555
O27 Rb1 3.196679 1_545
O27 Rb6 3.256908 1_555
O28 P11 1.552048 1_545
O28 Ti7 2.027008 1_555
O28 Rb5 3.130512 1_555
O28 Rb1 3.196679 1_545
O28 Rb4 3.256908 1_545
O29 P0 1.552048 1_655
O29 Ti7 2.027008 1_555
O29 Rb6 3.130512 1_655
O29 Rb2 3.196679 1_555
O29 Rb5 3.256908 1_555
O30 P2 1.552048 1_456
O30 Ti5 2.027008 1_555
O30 Rb4 3.130512 1_455
O30 Rb0 3.196679 1_566
O30 Rb7 3.256908 1_556
O31 P1 1.552048 1_554
O31 Ti6 2.027008 1_555
O31 Rb7 3.130512 1_555
O31 Rb3 3.196679 1_554
O31 Rb4 3.256908 1_554
O32 P7 1.552048 1_555
O32 Ti4 2.027008 1_555
O32 Rb7 3.130512 1_555
O32 Rb3 3.196679 1_554
O32 Rb5 3.256908 1_555
O33 P6 1.552048 1_645
O33 Ti7 2.027008 1_555
O33 Rb4 3.130512 1_545
O33 Rb0 3.196679 1_656
O33 Rb6 3.256908 1_655
O34 P5 1.552048 1_455
O34 Ti5 2.027008 1_555
O34 Rb6 3.130512 1_555
O34 Rb2 3.196679 1_455
O34 Rb4 3.256908 1_455
O35 P3 1.552048 1_565
O35 Ti6 2.027008 1_555
O35 Rb5 3.130512 1_565
O35 Rb1 3.196679 1_555
O35 Rb7 3.256908 1_555
O36 P2 1.550212 1_455
O36 Ti3 1.995344 1_555
O36 Rb7 3.020683 1_555
O36 Rb0 3.190652 1_565
O37 P4 1.550212 1_555
O37 Ti2 1.995344 1_555
O37 Rb6 3.020683 1_555
O37 Rb1 3.190652 1_545
O38 P0 1.550212 1_655
O38 Ti1 1.995344 1_555
O38 Rb5 3.020683 1_555
O38 Rb2 3.190652 1_555
O39 P6 1.550212 1_545
O39 Ti2 1.995344 1_555
O39 Rb6 3.020683 1_555
O39 Rb0 3.190652 1_556
O40 P1 1.550212 1_555
O40 Ti0 1.995344 1_555
O40 Rb4 3.020683 1_555
O40 Rb3 3.190652 1_555
O41 P7 1.550212 1_555
O41 Ti1 1.995344 1_555
O41 Rb5 3.020683 1_555
O41 Rb3 3.190652 1_554
O42 P3 1.550212 1_565
O42 Ti3 1.995344 1_555
O42 Rb7 3.020683 1_555
O42 Rb1 3.190652 1_555
O43 P5 1.550212 1_555
O43 Ti0 1.995344 1_555
O43 Rb4 3.020683 1_555
O43 Rb2 3.190652 1_555
O44 P9 1.550212 1_554
O44 Ti1 1.995344 1_555
O44 Rb5 3.020683 1_555
O44 Rb0 3.190652 1_655
O45 P8 1.550212 1_556
O45 Ti2 1.995344 1_555
O45 Rb6 3.020683 1_555
O45 Rb3 3.190652 1_555
O46 P11 1.550212 1_555
O46 Ti0 1.995344 1_555
O46 Rb4 3.020683 1_555
O46 Rb1 3.190652 1_555
O47 P10 1.550212 1_555
O47 Ti3 1.995344 1_555
O47 Rb7 3.020683 1_555
O47 Rb2 3.190652 1_455
