# generated using pymatgen
data_Yb7Bi17O36
_symmetry_space_group_name_H-M   'P 1'
_cell_length_a   5.62818300
_cell_length_b   11.18640538
_cell_length_c   16.65703315
_cell_angle_alpha   93.02767329
_cell_angle_beta   90.10776008
_cell_angle_gamma   92.68113131
_symmetry_Int_Tables_number   1
_chemical_formula_structural   Yb7Bi17O36
_chemical_formula_sum   'Yb7 Bi17 O36'
_cell_volume   1046.09222870
_cell_formula_units_Z   1
loop_
 _symmetry_equiv_pos_site_id
 _symmetry_equiv_pos_as_xyz
  1  'x, y, z'
loop_
 _atom_site_type_symbol
 _atom_site_label
 _atom_site_symmetry_multiplicity
 _atom_site_fract_x
 _atom_site_fract_y
 _atom_site_fract_z
 _atom_site_occupancy
  Yb  Yb0  1  0.98691500  0.00884100  0.01075400  1
  Yb  Yb1  1  0.98712800  0.51705200  0.00538100  1
  Yb  Yb2  1  0.95868900  0.00562100  0.32358600  1
  Yb  Yb3  1  0.96197100  0.52320700  0.66238100  1
  Yb  Yb4  1  0.52034100  0.52648200  0.49737400  1
  Yb  Yb5  1  0.91704300  0.52566200  0.33403500  1
  Yb  Yb6  1  0.95831000  0.99156300  0.65373800  1
  Bi  Bi0  1  0.97620900  0.25970600  0.83940100  1
  Bi  Bi1  1  0.92127300  0.27919200  0.49721300  1
  Bi  Bi2  1  0.93457200  0.25674900  0.15161500  1
  Bi  Bi3  1  0.48385900  0.72106700  0.65825400  1
  Bi  Bi4  1  0.42007800  0.71512300  0.33347400  1
  Bi  Bi5  1  0.48425400  0.74388500  0.01562200  1
  Bi  Bi6  1  0.44353500  0.53126900  0.83559400  1
  Bi  Bi7  1  0.44056200  0.99938500  0.52664900  1
  Bi  Bi8  1  0.52354600  0.99449100  0.17160100  1
  Bi  Bi9  1  0.52183300  0.24670800  0.98717500  1
  Bi  Bi10  1  0.59487300  0.25481900  0.67242400  1
  Bi  Bi11  1  0.56396600  0.24891300  0.32441300  1
  Bi  Bi12  1  0.60271500  0.99251800  0.84144300  1
  Bi  Bi13  1  0.49164200  0.51435900  0.16257200  1
  Bi  Bi14  1  0.96784800  0.75946800  0.49230000  1
  Bi  Bi15  1  0.93990500  0.73190500  0.83631800  1
  Bi  Bi16  1  0.94505900  0.76056600  0.16914800  1
  O  O0  1  0.26248200  0.91492700  0.09245800  1
  O  O1  1  0.30122700  0.10368300  0.94010300  1
  O  O2  1  0.24141400  0.35521500  0.01731300  1
  O  O3  1  0.27270400  0.06786000  0.24840600  1
  O  O4  1  0.18802700  0.62575100  0.43401100  1
  O  O5  1  0.28077800  0.54272200  0.27682100  1
  O  O6  1  0.24849800  0.63333300  0.09872200  1
  O  O7  1  0.33053500  0.07895000  0.63903400  1
  O  O8  1  0.21168500  0.84803800  0.57960000  1
  O  O9  1  0.21918800  0.63465200  0.92243900  1
  O  O10  1  0.21617000  0.65319800  0.75717800  1
  O  O11  1  0.31510300  0.56253500  0.60730300  1
  O  O12  1  0.75642200  0.88715000  0.09457200  1
  O  O13  1  0.74551900  0.63830500  0.08243700  1
  O  O14  1  0.75233900  0.36555600  0.06684300  1
  O  O15  1  0.66516100  0.13161000  0.08548600  1
  O  O16  1  0.79727000  0.87934900  0.92178600  1
  O  O17  1  0.82419600  0.87445400  0.75628500  1
  O  O18  1  0.72914900  0.89015100  0.55241900  1
  O  O19  1  0.68113200  0.88203700  0.25453900  1
  O  O20  1  0.10530600  0.87704200  0.40885700  1
  O  O21  1  0.69862100  0.66455100  0.41191700  1
  O  O22  1  0.71102700  0.61701500  0.91548900  1
  O  O23  1  0.70272000  0.61550100  0.75173100  1
  O  O24  1  0.79120400  0.64601200  0.57503900  1
  O  O25  1  0.72147000  0.63340400  0.24299100  1
  O  O26  1  0.67341500  0.35292100  0.89169900  1
  O  O27  1  0.91898500  0.35187600  0.72937100  1
  O  O28  1  0.70122600  0.38379500  0.57634000  1
  O  O29  1  0.72602900  0.38803800  0.41296400  1
  O  O30  1  0.77206500  0.36832900  0.24386200  1
  O  O31  1  0.78947100  0.12922900  0.92441900  1
  O  O32  1  0.78307800  0.12369400  0.75977100  1
  O  O33  1  0.77681600  0.14482900  0.58171600  1
  O  O34  1  0.77797900  0.14650100  0.40513300  1
  O  O35  1  0.76546200  0.12923800  0.23838400  1
loop_
_geom_bond_atom_site_label_1
_geom_bond_atom_site_label_2
_geom_bond_distance
_geom_bond_site_symmetry_2
Bi0 O27 2.180440 1_555
Bi0 O26 2.196880 1_555
Bi0 O32 2.209625 1_555
Bi0 O31 2.306694 1_555
Bi1 O28 2.149181 1_555
Bi1 O34 2.202046 1_555
Bi1 O29 2.226945 1_555
Bi1 O33 2.239389 1_555
Bi2 O30 2.159859 1_555
Bi2 O14 2.195495 1_555
Bi2 O15 2.259276 1_555
Bi2 O35 2.263924 1_555
Bi3 O11 2.108965 1_555
Bi3 O10 2.365568 1_555
Bi3 O24 2.374948 1_555
Bi3 O23 2.378940 1_555
Bi3 O8 2.544208 1_555
Bi4 O21 2.153676 1_555
Bi4 O5 2.210880 1_555
Bi4 O4 2.360632 1_555
Bi4 O25 2.448221 1_555
Bi4 O19 2.717305 1_555
Bi4 O20 2.839774 1_555
Bi5 O13 2.256308 1_555
Bi5 O6 2.289151 1_555
Bi5 O9 2.397553 1_554
Bi5 O12 2.486840 1_555
Bi5 O22 2.520425 1_554
Bi5 O0 2.612971 1_555
Bi5 O16 2.802462 1_554
Bi6 O22 2.163363 1_555
Bi6 O23 2.232764 1_555
Bi6 O9 2.234085 1_555
Bi6 O10 2.355666 1_555
Bi6 O26 2.638469 1_555
Bi7 O18 2.133996 1_555
Bi7 O7 2.135406 1_565
Bi7 O8 2.293823 1_555
Bi7 O33 2.572504 1_565
Bi8 O3 2.075510 1_565
Bi8 O0 2.106029 1_555
Bi8 O19 2.135646 1_555
Bi8 O12 2.190153 1_555
Bi8 O35 2.233493 1_565
Bi8 O15 2.273308 1_565
Bi9 O2 2.081835 1_556
Bi9 O1 2.096222 1_555
Bi9 O26 2.186000 1_555
Bi9 O14 2.203950 1_556
Bi9 O31 2.265996 1_555
Bi9 O15 2.303265 1_556
Bi10 O33 2.184644 1_555
Bi10 O27 2.259545 1_555
Bi10 O28 2.273357 1_555
Bi10 O32 2.399048 1_555
Bi10 O7 2.449617 1_555
Bi11 O34 2.203823 1_555
Bi11 O30 2.237265 1_555
Bi11 O29 2.247068 1_555
Bi11 O35 2.253273 1_555
Bi11 O3 2.793348 1_555
Bi12 O16 2.212639 1_555
Bi12 O31 2.230412 1_565
Bi12 O32 2.260780 1_565
Bi12 O17 2.296299 1_555
Bi12 O1 2.668022 1_565
Bi13 O25 2.210164 1_555
Bi13 O6 2.255999 1_555
Bi13 O5 2.260675 1_555
Bi13 O13 2.400651 1_555
Bi13 O14 2.724546 1_555
Bi13 O30 2.731246 1_555
Bi14 O20 2.088580 1_655
Bi14 O24 2.137864 1_555
Bi14 O8 2.166260 1_655
Bi14 O4 2.177224 1_655
Bi14 O21 2.215361 1_555
Bi14 O18 2.231338 1_555
Bi15 O10 2.223452 1_655
Bi15 O17 2.250005 1_555
Bi15 O22 2.254060 1_555
Bi15 O23 2.258157 1_555
Bi15 O16 2.296029 1_555
Bi15 O9 2.455299 1_655
Bi16 O13 2.204406 1_555
Bi16 O12 2.235371 1_555
Bi16 O25 2.267847 1_555
Bi16 O19 2.463458 1_555
Bi16 O6 2.525281 1_655
Bi16 O0 2.785336 1_655
O0 Yb0 2.378403 1_465
O1 Yb0 2.367289 1_456
O2 Yb1 2.375823 1_455
O3 Yb2 2.271940 1_455
O4 Yb5 2.446758 1_455
O4 Yb4 2.481105 1_555
O5 Yb5 2.263968 1_455
O6 Yb1 2.423230 1_455
O7 Yb6 2.289112 1_445
O8 Yb6 2.479459 1_455
O9 Yb1 2.320172 1_456
O10 Yb3 2.491789 1_455
O11 Yb4 2.196218 1_555
O11 Yb3 2.225545 1_455
O12 Yb0 2.351085 1_565
O13 Yb1 2.309012 1_555
O14 Yb1 2.375954 1_555
O15 Yb0 2.602982 1_555
O16 Yb0 2.248630 1_566
O17 Yb6 2.313515 1_555
O18 Yb6 2.334812 1_555
O19 Yb2 2.301629 1_565
O20 Yb2 2.256018 1_465
O21 Yb4 2.347581 1_555
O21 Yb5 2.362165 1_555
O22 Yb1 2.497575 1_556
O23 Yb3 2.323096 1_555
O24 Yb3 2.292795 1_555
O24 Yb4 2.324779 1_555
O25 Yb5 2.296728 1_555
O26 Yb1 3.064490 1_556
O27 Yb3 2.271670 1_555
O28 Yb4 2.383911 1_555
O28 Yb3 2.486285 1_555
O29 Yb5 2.306222 1_555
O29 Yb4 2.378932 1_555
O30 Yb5 2.366684 1_555
O31 Yb0 2.335631 1_556
O32 Yb6 2.478702 1_545
O33 Yb6 2.408038 1_545
O34 Yb2 2.300457 1_555
O35 Yb2 2.334797 1_555
