# generated using pymatgen
data_YRe2SiC
_symmetry_space_group_name_H-M   'P 1'
_cell_length_a   5.80737617
_cell_length_b   5.80737617
_cell_length_c   7.31729100
_cell_angle_alpha   90.00000000
_cell_angle_beta   90.00000000
_cell_angle_gamma   140.13848848
_symmetry_Int_Tables_number   1
_chemical_formula_structural   YRe2SiC
_chemical_formula_sum   'Y2 Re4 Si2 C2'
_cell_volume   158.16983115
_cell_formula_units_Z   2
loop_
 _symmetry_equiv_pos_site_id
 _symmetry_equiv_pos_as_xyz
  1  'x, y, z'
loop_
 _atom_site_type_symbol
 _atom_site_label
 _atom_site_symmetry_multiplicity
 _atom_site_fract_x
 _atom_site_fract_y
 _atom_site_fract_z
 _atom_site_occupancy
  Y  Y0  1  0.54357800  0.45642200  0.25000000  1
  Y  Y1  1  0.45642200  0.54357800  0.75000000  1
  Re  Re0  1  0.82618500  0.17381500  0.06081700  1
  Re  Re1  1  0.17381500  0.82618500  0.93918300  1
  Re  Re2  1  0.17381500  0.82618500  0.56081700  1
  Re  Re3  1  0.82618500  0.17381500  0.43918300  1
  Si  Si0  1  0.26565800  0.73434200  0.25000000  1
  Si  Si1  1  0.73434200  0.26565800  0.75000000  1
  C  C0  1  0.00000000  0.00000000  0.00000000  1
  C  C1  1  0.00000000  0.00000000  0.50000000  1
loop_
_geom_bond_atom_site_label_1
_geom_bond_atom_site_label_2
_geom_bond_distance
_geom_bond_site_symmetry_2
Re0 Si1 2.485620 1_554
Re0 Si0 2.504412 1_655
Re0 Si0 2.504412 1_545
Re1 Si0 2.485620 1_556
Re1 Si1 2.504412 1_565
Re1 Si1 2.504412 1_455
Re2 Si0 2.485620 1_555
Re2 Si1 2.504412 1_565
Re2 Si1 2.504412 1_455
Re3 Si1 2.485620 1_555
Re3 Si0 2.504412 1_655
Re3 Si0 2.504412 1_545
Si0 Y0 3.034633 1_555
Si0 Y0 3.130365 1_455
Si0 Y0 3.130365 1_565
Si1 Y1 3.034633 1_555
Si1 Y1 3.130365 1_545
Si1 Y1 3.130365 1_655
C0 Re0 1.949377 1_455
C0 Re1 1.949377 1_544
C0 Y0 2.737120 1_555
C0 Y1 2.737120 1_554
C0 Y0 2.737120 1_445
C0 Y1 2.737120 1_444
C1 Re3 1.949377 1_455
C1 Re2 1.949377 1_545
C1 Y0 2.737120 1_555
C1 Y0 2.737120 1_445
C1 Y1 2.737120 1_445
C1 Y1 2.737120 1_555
