# generated using pymatgen
data_Rb9Fe2Se7
_symmetry_space_group_name_H-M   'P 1'
_cell_length_a   13.76815800
_cell_length_b   13.76815800
_cell_length_c   13.76815800
_cell_angle_alpha   90.00000000
_cell_angle_beta   90.00000000
_cell_angle_gamma   90.00000000
_symmetry_Int_Tables_number   1
_chemical_formula_structural   Rb9Fe2Se7
_chemical_formula_sum   'Rb36 Fe8 Se28'
_cell_volume   2609.92197227
_cell_formula_units_Z   4
loop_
 _symmetry_equiv_pos_site_id
 _symmetry_equiv_pos_as_xyz
  1  'x, y, z'
loop_
 _atom_site_type_symbol
 _atom_site_label
 _atom_site_symmetry_multiplicity
 _atom_site_fract_x
 _atom_site_fract_y
 _atom_site_fract_z
 _atom_site_occupancy
  Rb  Rb0  1  0.95672700  0.29297800  0.32153800  1
  Rb  Rb1  1  0.55683900  0.44316100  0.94316100  1
  Rb  Rb2  1  0.44316100  0.94316100  0.55683900  1
  Rb  Rb3  1  0.05683900  0.05683900  0.05683900  1
  Rb  Rb4  1  0.76166800  0.73833200  0.26166800  1
  Rb  Rb5  1  0.73833200  0.26166800  0.76166800  1
  Rb  Rb6  1  0.26166800  0.76166800  0.73833200  1
  Rb  Rb7  1  0.23833200  0.23833200  0.23833200  1
  Rb  Rb8  1  0.58240300  0.91759700  0.08240300  1
  Rb  Rb9  1  0.91759700  0.08240300  0.58240300  1
  Rb  Rb10  1  0.08240300  0.58240300  0.91759700  1
  Rb  Rb11  1  0.41759700  0.41759700  0.41759700  1
  Rb  Rb12  1  0.32153800  0.95672700  0.29297800  1
  Rb  Rb13  1  0.82153800  0.54327300  0.70702200  1
  Rb  Rb14  1  0.67846200  0.45672700  0.20702200  1
  Rb  Rb15  1  0.54327300  0.70702200  0.82153800  1
  Rb  Rb16  1  0.20702200  0.67846200  0.45672700  1
  Rb  Rb17  1  0.70702200  0.82153800  0.54327300  1
  Rb  Rb18  1  0.94316100  0.55683900  0.44316100  1
  Rb  Rb19  1  0.29297800  0.32153800  0.95672700  1
  Rb  Rb20  1  0.45672700  0.20702200  0.67846200  1
  Rb  Rb21  1  0.04327300  0.79297800  0.17846200  1
  Rb  Rb22  1  0.79297800  0.17846200  0.04327300  1
  Rb  Rb23  1  0.17846200  0.04327300  0.79297800  1
  Rb  Rb24  1  0.66801300  0.99911900  0.80052000  1
  Rb  Rb25  1  0.16801300  0.50088100  0.19948000  1
  Rb  Rb26  1  0.33198700  0.49911900  0.69948000  1
  Rb  Rb27  1  0.50088100  0.19948000  0.16801300  1
  Rb  Rb28  1  0.69948000  0.33198700  0.49911900  1
  Rb  Rb29  1  0.19948000  0.16801300  0.50088100  1
  Rb  Rb30  1  0.99911900  0.80052000  0.66801300  1
  Rb  Rb31  1  0.80052000  0.66801300  0.99911900  1
  Rb  Rb32  1  0.49911900  0.69948000  0.33198700  1
  Rb  Rb33  1  0.00088100  0.30052000  0.83198700  1
  Rb  Rb34  1  0.30052000  0.83198700  0.00088100  1
  Rb  Rb35  1  0.83198700  0.00088100  0.30052000  1
  Fe  Fe0  1  0.92839000  0.42839000  0.07161000  1
  Fe  Fe1  1  0.07161000  0.92839000  0.42839000  1
  Fe  Fe2  1  0.42839000  0.07161000  0.92839000  1
  Fe  Fe3  1  0.90019900  0.90019900  0.90019900  1
  Fe  Fe4  1  0.59980100  0.09980100  0.40019900  1
  Fe  Fe5  1  0.40019900  0.59980100  0.09980100  1
  Fe  Fe6  1  0.09980100  0.40019900  0.59980100  1
  Fe  Fe7  1  0.57161000  0.57161000  0.57161000  1
  Se  Se0  1  0.41396500  0.43546400  0.16587400  1
  Se  Se1  1  0.18826400  0.92330300  0.55516700  1
  Se  Se2  1  0.94483300  0.81173600  0.42330300  1
  Se  Se3  1  0.81173600  0.42330300  0.94483300  1
  Se  Se4  1  0.44483300  0.68826400  0.57669700  1
  Se  Se5  1  0.05516700  0.31173600  0.07669700  1
  Se  Se6  1  0.31173600  0.07669700  0.05516700  1
  Se  Se7  1  0.07669700  0.05516700  0.31173600  1
  Se  Se8  1  0.58603500  0.93546400  0.33412600  1
  Se  Se9  1  0.55516700  0.18826400  0.92330300  1
  Se  Se10  1  0.68826400  0.57669700  0.44483300  1
  Se  Se11  1  0.56453600  0.66587400  0.08603500  1
  Se  Se12  1  0.16587400  0.41396500  0.43546400  1
  Se  Se13  1  0.66587400  0.08603500  0.56453600  1
  Se  Se14  1  0.93546400  0.33412600  0.58603500  1
  Se  Se15  1  0.33412600  0.58603500  0.93546400  1
  Se  Se16  1  0.43546400  0.16587400  0.41396500  1
  Se  Se17  1  0.06453600  0.83412600  0.91396500  1
  Se  Se18  1  0.83412600  0.91396500  0.06453600  1
  Se  Se19  1  0.91396500  0.06453600  0.83412600  1
  Se  Se20  1  0.57669700  0.44483300  0.68826400  1
  Se  Se21  1  0.92330300  0.55516700  0.18826400  1
  Se  Se22  1  0.42330300  0.94483300  0.81173600  1
  Se  Se23  1  0.79556300  0.79556300  0.79556300  1
  Se  Se24  1  0.70443700  0.20443700  0.29556300  1
  Se  Se25  1  0.29556300  0.70443700  0.20443700  1
  Se  Se26  1  0.20443700  0.29556300  0.70443700  1
  Se  Se27  1  0.08603500  0.56453600  0.66587400  1
loop_
_geom_bond_atom_site_label_1
_geom_bond_atom_site_label_2
_geom_bond_distance
_geom_bond_site_symmetry_2
Rb0 Se5 3.642437 1_655
Rb0 Se7 3.669749 1_655
Rb0 Se12 3.677914 1_655
Rb0 Se14 3.697050 1_555
Rb0 Se24 3.698601 1_555
Rb1 Se9 3.520171 1_555
Rb1 Se20 3.520171 1_555
Rb1 Se3 3.520171 1_555
Rb1 Se15 3.644619 1_555
Rb1 Se11 3.644619 1_556
Rb1 Se0 3.644619 1_556
Rb2 Se1 3.520171 1_555
Rb2 Se4 3.520171 1_555
Rb2 Se22 3.520171 1_555
Rb2 Se8 3.644619 1_555
Rb2 Se13 3.644619 1_565
Rb2 Se16 3.644619 1_565
Rb3 Se6 3.520171 1_555
Rb3 Se7 3.520171 1_555
Rb3 Se5 3.520171 1_555
Rb3 Se17 3.644619 1_544
Rb3 Se19 3.644619 1_454
Rb3 Se18 3.644619 1_445
Rb4 Se2 3.511918 1_555
Rb4 Se10 3.511918 1_555
Rb4 Se21 3.511918 1_555
Rb4 Se18 3.769513 1_555
Rb4 Se8 3.769513 1_555
Rb4 Se11 3.769513 1_555
Rb5 Se3 3.511918 1_555
Rb5 Se20 3.511918 1_555
Rb5 Se9 3.511918 1_555
Rb5 Se19 3.769513 1_555
Rb5 Se14 3.769513 1_555
Rb5 Se13 3.769513 1_555
Rb6 Se22 3.511918 1_555
Rb6 Se4 3.511918 1_555
Rb6 Se1 3.511918 1_555
Rb6 Se17 3.769513 1_555
Rb6 Se15 3.769513 1_555
Rb6 Se27 3.769513 1_555
Rb7 Se5 3.511918 1_555
Rb7 Se7 3.511918 1_555
Rb7 Se6 3.511918 1_555
Rb7 Se16 3.769513 1_555
Rb7 Se12 3.769513 1_555
Rb7 Se0 3.769513 1_555
Rb8 Se18 3.474841 1_555
Rb8 Se11 3.474841 1_555
Rb8 Se8 3.474841 1_555
Rb9 Se19 3.474841 1_555
Rb9 Se13 3.474841 1_555
Rb9 Se14 3.474841 1_555
Rb10 Se17 3.474841 1_555
Rb10 Se27 3.474841 1_555
Rb10 Se15 3.474841 1_555
Rb11 Se0 3.474841 1_555
Rb11 Se16 3.474841 1_555
Rb11 Se12 3.474841 1_555
Rb12 Se7 3.642437 1_565
Rb12 Se6 3.669749 1_565
Rb12 Se16 3.677914 1_565
Rb12 Se8 3.697050 1_555
Rb12 Se25 3.698601 1_555
Rb13 Se20 3.642437 1_555
Rb13 Se3 3.669749 1_555
Rb13 Se14 3.677914 1_555
Rb13 Se27 3.697050 1_655
Rb13 Se23 3.698601 1_555
Rb14 Se21 3.642437 1_555
Rb14 Se10 3.669749 1_555
Rb14 Se11 3.677914 1_555
Rb14 Se0 3.697050 1_555
Rb14 Se24 3.698601 1_555
Rb15 Se4 3.642437 1_555
Rb15 Se22 3.669749 1_555
Rb15 Se15 3.677914 1_555
Rb15 Se11 3.697050 1_556
Rb15 Se23 3.698601 1_555
Rb16 Se1 3.642437 1_555
Rb16 Se4 3.669749 1_555
Rb16 Se27 3.677914 1_555
Rb16 Se12 3.697050 1_555
Rb16 Se25 3.698601 1_555
Rb17 Se10 3.642437 1_555
Rb17 Se2 3.669749 1_555
Rb17 Se8 3.677914 1_555
Rb17 Se13 3.697050 1_565
Rb17 Se23 3.698601 1_555
Rb18 Se21 3.520171 1_555
Rb18 Se10 3.520171 1_555
Rb18 Se2 3.520171 1_555
Rb18 Se14 3.644619 1_555
Rb18 Se27 3.644619 1_655
Rb18 Se12 3.644619 1_655
Rb19 Se6 3.642437 1_556
Rb19 Se5 3.669749 1_556
Rb19 Se0 3.677914 1_556
Rb19 Se15 3.697050 1_555
Rb19 Se26 3.698601 1_555
Rb20 Se9 3.642437 1_555
Rb20 Se20 3.669749 1_555
Rb20 Se13 3.677914 1_555
Rb20 Se16 3.697050 1_555
Rb20 Se26 3.698601 1_555
Rb21 Se2 3.642437 1_455
Rb21 Se21 3.669749 1_455
Rb21 Se18 3.677914 1_455
Rb21 Se17 3.697050 1_554
Rb21 Se25 3.698601 1_555
Rb22 Se3 3.642437 1_554
Rb22 Se9 3.669749 1_554
Rb22 Se19 3.677914 1_554
Rb22 Se18 3.697050 1_545
Rb22 Se24 3.698601 1_555
Rb23 Se22 3.642437 1_545
Rb23 Se1 3.669749 1_545
Rb23 Se17 3.677914 1_545
Rb23 Se19 3.697050 1_455
Rb23 Se26 3.698601 1_555
Rb24 Se23 3.308045 1_555
Rb24 Se22 3.454566 1_555
Rb24 Se13 3.462559 1_565
Rb24 Se9 3.471807 1_565
Rb24 Se19 3.534454 1_565
Rb25 Se25 3.308045 1_555
Rb25 Se21 3.454566 1_455
Rb25 Se12 3.462559 1_555
Rb25 Se5 3.471807 1_555
Rb25 Se0 3.534454 1_555
Rb26 Se26 3.308045 1_555
Rb26 Se20 3.454566 1_555
Rb26 Se15 3.462559 1_555
Rb26 Se4 3.471807 1_555
Rb26 Se27 3.534454 1_555
Rb27 Se24 3.308045 1_555
Rb27 Se9 3.454566 1_554
Rb27 Se0 3.462559 1_555
Rb27 Se6 3.471807 1_555
Rb27 Se16 3.534454 1_555
Rb28 Se24 3.308045 1_555
Rb28 Se10 3.454566 1_555
Rb28 Se14 3.462559 1_555
Rb28 Se20 3.471807 1_555
Rb28 Se13 3.534454 1_555
Rb29 Se26 3.308045 1_555
Rb29 Se1 3.454566 1_545
Rb29 Se16 3.462559 1_555
Rb29 Se7 3.471807 1_555
Rb29 Se12 3.534454 1_555
Rb30 Se23 3.308045 1_555
Rb30 Se2 3.454566 1_555
Rb30 Se27 3.462559 1_655
Rb30 Se1 3.471807 1_655
Rb30 Se17 3.534454 1_655
Rb31 Se23 3.308045 1_555
Rb31 Se3 3.454566 1_555
Rb31 Se11 3.462559 1_556
Rb31 Se21 3.471807 1_556
Rb31 Se18 3.534454 1_556
Rb32 Se25 3.308045 1_555
Rb32 Se4 3.454566 1_555
Rb32 Se8 3.462559 1_555
Rb32 Se10 3.471807 1_555
Rb32 Se11 3.534454 1_555
Rb33 Se26 3.308045 1_555
Rb33 Se5 3.454566 1_556
Rb33 Se19 3.462559 1_455
Rb33 Se3 3.471807 1_455
Rb33 Se14 3.534454 1_455
Rb34 Se25 3.308045 1_555
Rb34 Se6 3.454566 1_565
Rb34 Se17 3.462559 1_554
Rb34 Se22 3.471807 1_554
Rb34 Se15 3.534454 1_554
Rb35 Se24 3.308045 1_555
Rb35 Se7 3.454566 1_655
Rb35 Se18 3.462559 1_545
Rb35 Se2 3.471807 1_545
Rb35 Se8 3.534454 1_545
Fe0 Se21 2.373019 1_555
Fe0 Se5 2.373019 1_655
Fe0 Se3 2.373019 1_554
Fe0 Rb10 3.672771 1_654
Fe1 Se1 2.373019 1_555
Fe1 Se7 2.373019 1_565
Fe1 Se2 2.373019 1_455
Fe1 Rb9 3.672771 1_465
Fe2 Se9 2.373019 1_555
Fe2 Se6 2.373019 1_556
Fe2 Se22 2.373019 1_545
Fe2 Rb8 3.672771 1_546
Fe3 Se19 2.446001 1_565
Fe3 Se17 2.446001 1_655
Fe3 Se18 2.446001 1_556
Fe3 Se23 2.495270 1_555
Fe4 Se8 2.446001 1_545
Fe4 Se16 2.446001 1_555
Fe4 Se13 2.446001 1_555
Fe4 Se24 2.495270 1_555
Fe5 Se15 2.446001 1_554
Fe5 Se0 2.446001 1_555
Fe5 Se11 2.446001 1_555
Fe5 Se25 2.495270 1_555
Fe6 Se14 2.446001 1_455
Fe6 Se12 2.446001 1_555
Fe6 Se27 2.446001 1_555
Fe6 Se26 2.495270 1_555
Fe7 Se4 2.373019 1_555
Fe7 Se20 2.373019 1_555
Fe7 Se10 2.373019 1_555
Fe7 Rb11 3.672771 1_555
