# generated using pymatgen
data_Ir(C2N3)3
_symmetry_space_group_name_H-M   'P 1'
_cell_length_a   7.72568931
_cell_length_b   13.70366302
_cell_length_c   11.54861200
_cell_angle_alpha   90.00000000
_cell_angle_beta   90.00000000
_cell_angle_gamma   27.51507473
_symmetry_Int_Tables_number   1
_chemical_formula_structural   Ir(C2N3)3
_chemical_formula_sum   'Ir2 C12 N18'
_cell_volume   564.84427244
_cell_formula_units_Z   2
loop_
 _symmetry_equiv_pos_site_id
 _symmetry_equiv_pos_as_xyz
  1  'x, y, z'
loop_
 _atom_site_type_symbol
 _atom_site_label
 _atom_site_symmetry_multiplicity
 _atom_site_fract_x
 _atom_site_fract_y
 _atom_site_fract_z
 _atom_site_occupancy
  Ir  Ir0  1  0.00000000  0.28094700  0.25000000  1
  Ir  Ir1  1  0.00000000  0.71905300  0.75000000  1
  C  C0  1  0.68325900  0.79216700  0.25000000  1
  C  C1  1  0.68325900  0.52457600  0.75000000  1
  C  C2  1  0.31674100  0.20783300  0.75000000  1
  C  C3  1  0.31674100  0.47542400  0.25000000  1
  C  C4  1  0.68306600  0.30242300  0.89946000  1
  C  C5  1  0.68306600  0.01451100  0.10054000  1
  C  C6  1  0.68306600  0.30242300  0.60054000  1
  C  C7  1  0.68306600  0.01451100  0.39946000  1
  C  C8  1  0.31693400  0.69757700  0.10054000  1
  C  C9  1  0.31693400  0.98548900  0.89946000  1
  C  C10  1  0.31693400  0.69757700  0.39946000  1
  C  C11  1  0.31693400  0.98548900  0.60054000  1
  N  N0  1  0.00000000  0.58839300  0.25000000  1
  N  N1  1  0.00000000  0.41160700  0.75000000  1
  N  N2  1  0.38305300  0.97786500  0.25000000  1
  N  N3  1  0.38305300  0.63908200  0.75000000  1
  N  N4  1  0.61694700  0.02213500  0.75000000  1
  N  N5  1  0.61694700  0.36091800  0.25000000  1
  N  N6  1  0.00000000  0.11879700  0.94383500  1
  N  N7  1  0.00000000  0.88120300  0.05616500  1
  N  N8  1  0.00000000  0.11879700  0.55616500  1
  N  N9  1  0.00000000  0.88120300  0.44383500  1
  N  N10  1  0.38219600  0.47250200  0.86468300  1
  N  N11  1  0.38219600  0.14530200  0.13531700  1
  N  N12  1  0.38219600  0.47250200  0.63531700  1
  N  N13  1  0.38219600  0.14530200  0.36468300  1
  N  N14  1  0.61780400  0.52749800  0.13531700  1
  N  N15  1  0.61780400  0.85469800  0.86468300  1
  N  N16  1  0.61780400  0.52749800  0.36468300  1
  N  N17  1  0.61780400  0.85469800  0.63531700  1
loop_
_geom_bond_atom_site_label_1
_geom_bond_atom_site_label_2
_geom_bond_distance
_geom_bond_site_symmetry_2
Ir0 N13 2.047526 1_555
Ir0 N11 2.047526 1_555
Ir0 N16 2.047526 1_455
Ir0 N14 2.047526 1_455
Ir0 N5 2.050884 1_455
Ir0 N2 2.050884 1_545
Ir1 N17 2.047526 1_455
Ir1 N15 2.047526 1_455
Ir1 N10 2.047526 1_555
Ir1 N12 2.047526 1_555
Ir1 N3 2.050884 1_555
Ir1 N4 2.050884 1_465
C0 N2 1.177280 1_555
C0 N0 1.290400 1_655
C1 N3 1.177291 1_555
C1 N1 1.290387 1_655
C2 N4 1.177280 1_555
C2 N1 1.290400 1_555
C3 N5 1.177291 1_555
C3 N0 1.290387 1_555
C4 N10 1.177671 1_555
C4 N6 1.288820 1_655
C5 N11 1.177671 1_555
C5 N7 1.288820 1_645
C6 N12 1.177671 1_555
C6 N8 1.288820 1_655
C7 N13 1.177671 1_555
C7 N9 1.288820 1_645
C8 N14 1.177671 1_555
C8 N7 1.288820 1_555
C9 N15 1.177671 1_555
C9 N6 1.288820 1_565
C10 N16 1.177671 1_555
C10 N9 1.288820 1_555
C11 N17 1.177671 1_555
C11 N8 1.288820 1_565
