# generated using pymatgen
data_YTh(B2Ru3)2
_symmetry_space_group_name_H-M   'P 1'
_cell_length_a   6.10483800
_cell_length_b   11.09424921
_cell_length_c   19.15601557
_cell_angle_alpha   90.00000434
_cell_angle_beta   90.00000000
_cell_angle_gamma   90.00000000
_symmetry_Int_Tables_number   1
_chemical_formula_structural   YTh(B2Ru3)2
_chemical_formula_sum   'Y8 Th8 B32 Ru48'
_cell_volume   1297.41000444
_cell_formula_units_Z   8
loop_
 _symmetry_equiv_pos_site_id
 _symmetry_equiv_pos_as_xyz
  1  'x, y, z'
loop_
 _atom_site_type_symbol
 _atom_site_label
 _atom_site_symmetry_multiplicity
 _atom_site_fract_x
 _atom_site_fract_y
 _atom_site_fract_z
 _atom_site_occupancy
  Y  Y0_0  1  0.00000000  0.25003200  0.25000000  1
  Y  Y0_1  1  0.00000000  0.25003200  0.75000000  1
  Y  Y0_2  1  0.00000000  0.75003200  0.25000000  1
  Y  Y0_3  1  0.00000000  0.75003200  0.75000000  1
  Y  Y0_4  1  0.50000000  0.25003200  0.25000000  1
  Y  Y0_5  1  0.50000000  0.25003200  0.75000000  1
  Y  Y0_6  1  0.50000000  0.75003200  0.25000000  1
  Y  Y0_7  1  0.50000000  0.75003200  0.75000000  1
  Th  Th0_0  1  0.00000000  0.49996950  0.00000000  1
  Th  Th0_1  1  0.00000000  0.49996950  0.50000000  1
  Th  Th0_2  1  0.00000000  0.99996950  0.00000000  1
  Th  Th0_3  1  0.00000000  0.99996950  0.50000000  1
  Th  Th0_4  1  0.50000000  0.49996950  0.00000000  1
  Th  Th0_5  1  0.50000000  0.49996950  0.50000000  1
  Th  Th0_6  1  0.50000000  0.99996950  0.00000000  1
  Th  Th0_7  1  0.50000000  0.99996950  0.50000000  1
  B  B0_0  1  0.00000000  0.49997250  0.16586950  1
  B  B0_1  1  0.00000000  0.49997250  0.66586950  1
  B  B0_2  1  0.00000000  0.99997250  0.16586950  1
  B  B0_3  1  0.00000000  0.99997250  0.66586950  1
  B  B0_4  1  0.50000000  0.49997250  0.16586950  1
  B  B0_5  1  0.50000000  0.49997250  0.66586950  1
  B  B0_6  1  0.50000000  0.99997250  0.16586950  1
  B  B0_7  1  0.50000000  0.99997250  0.66586950  1
  B  B1_0  1  0.00000000  0.24999450  0.41700950  1
  B  B1_1  1  0.00000000  0.24999450  0.91700950  1
  B  B1_2  1  0.00000000  0.74999450  0.41700950  1
  B  B1_3  1  0.00000000  0.74999450  0.91700950  1
  B  B1_4  1  0.50000000  0.24999450  0.41700950  1
  B  B1_5  1  0.50000000  0.24999450  0.91700950  1
  B  B1_6  1  0.50000000  0.74999450  0.41700950  1
  B  B1_7  1  0.50000000  0.74999450  0.91700950  1
  B  B2_0  1  0.00000000  0.24999450  0.08299050  1
  B  B2_1  1  0.00000000  0.24999450  0.58299050  1
  B  B2_2  1  0.00000000  0.74999450  0.08299050  1
  B  B2_3  1  0.00000000  0.74999450  0.58299050  1
  B  B2_4  1  0.50000000  0.24999450  0.08299050  1
  B  B2_5  1  0.50000000  0.24999450  0.58299050  1
  B  B2_6  1  0.50000000  0.74999450  0.08299050  1
  B  B2_7  1  0.50000000  0.74999450  0.58299050  1
  B  B3_0  1  0.00000000  0.49997250  0.33413050  1
  B  B3_1  1  0.00000000  0.49997250  0.83413050  1
  B  B3_2  1  0.00000000  0.99997250  0.33413050  1
  B  B3_3  1  0.00000000  0.99997250  0.83413050  1
  B  B3_4  1  0.50000000  0.49997250  0.33413050  1
  B  B3_5  1  0.50000000  0.49997250  0.83413050  1
  B  B3_6  1  0.50000000  0.99997250  0.33413050  1
  B  B3_7  1  0.50000000  0.99997250  0.83413050  1
  Ru  Ru0_0  1  0.25000000  0.00001250  0.25000000  1
  Ru  Ru0_1  1  0.25000000  0.00001250  0.75000000  1
  Ru  Ru0_2  1  0.25000000  0.50001250  0.25000000  1
  Ru  Ru0_3  1  0.25000000  0.50001250  0.75000000  1
  Ru  Ru0_4  1  0.75000000  0.00001250  0.25000000  1
  Ru  Ru0_5  1  0.75000000  0.00001250  0.75000000  1
  Ru  Ru0_6  1  0.75000000  0.50001250  0.25000000  1
  Ru  Ru0_7  1  0.75000000  0.50001250  0.75000000  1
  Ru  Ru1_0  1  0.25000000  0.24999200  0.00000000  1
  Ru  Ru1_1  1  0.25000000  0.24999200  0.50000000  1
  Ru  Ru1_2  1  0.25000000  0.74999200  0.00000000  1
  Ru  Ru1_3  1  0.25000000  0.74999200  0.50000000  1
  Ru  Ru1_4  1  0.75000000  0.24999200  0.00000000  1
  Ru  Ru1_5  1  0.75000000  0.24999200  0.50000000  1
  Ru  Ru1_6  1  0.75000000  0.74999200  0.00000000  1
  Ru  Ru1_7  1  0.75000000  0.74999200  0.50000000  1
  Ru  Ru2_0  1  0.25000000  0.12762600  0.12754550  1
  Ru  Ru2_1  1  0.25000000  0.12762600  0.62754550  1
  Ru  Ru2_2  1  0.25000000  0.62762600  0.12754550  1
  Ru  Ru2_3  1  0.25000000  0.62762600  0.62754550  1
  Ru  Ru2_4  1  0.75000000  0.12762600  0.12754550  1
  Ru  Ru2_5  1  0.75000000  0.12762600  0.62754550  1
  Ru  Ru2_6  1  0.75000000  0.62762600  0.12754550  1
  Ru  Ru2_7  1  0.75000000  0.62762600  0.62754550  1
  Ru  Ru3_0  1  0.25000000  0.37235400  0.37246200  1
  Ru  Ru3_1  1  0.25000000  0.37235400  0.87246200  1
  Ru  Ru3_2  1  0.25000000  0.87235400  0.37246200  1
  Ru  Ru3_3  1  0.25000000  0.87235400  0.87246200  1
  Ru  Ru3_4  1  0.75000000  0.37235400  0.37246200  1
  Ru  Ru3_5  1  0.75000000  0.37235400  0.87246200  1
  Ru  Ru3_6  1  0.75000000  0.87235400  0.37246200  1
  Ru  Ru3_7  1  0.75000000  0.87235400  0.87246200  1
  Ru  Ru4_0  1  0.25000000  0.37235400  0.12753800  1
  Ru  Ru4_1  1  0.25000000  0.37235400  0.62753800  1
  Ru  Ru4_2  1  0.25000000  0.87235400  0.12753800  1
  Ru  Ru4_3  1  0.25000000  0.87235400  0.62753800  1
  Ru  Ru4_4  1  0.75000000  0.37235400  0.12753800  1
  Ru  Ru4_5  1  0.75000000  0.37235400  0.62753800  1
  Ru  Ru4_6  1  0.75000000  0.87235400  0.12753800  1
  Ru  Ru4_7  1  0.75000000  0.87235400  0.62753800  1
  Ru  Ru5_0  1  0.25000000  0.12762600  0.37245450  1
  Ru  Ru5_1  1  0.25000000  0.12762600  0.87245450  1
  Ru  Ru5_2  1  0.25000000  0.62762600  0.37245450  1
  Ru  Ru5_3  1  0.25000000  0.62762600  0.87245450  1
  Ru  Ru5_4  1  0.75000000  0.12762600  0.37245450  1
  Ru  Ru5_5  1  0.75000000  0.12762600  0.87245450  1
  Ru  Ru5_6  1  0.75000000  0.62762600  0.37245450  1
  Ru  Ru5_7  1  0.75000000  0.62762600  0.87245450  1
loop_
_geom_bond_atom_site_label_1
_geom_bond_atom_site_label_2
_geom_bond_distance
_geom_bond_site_symmetry_2
Y0_0 Y0_4 3.052419 1_555
Y0_0 Y0_4 3.052419 1_455
Y0_1 Y0_5 3.052419 1_555
Y0_1 Y0_5 3.052419 1_455
Y0_2 Y0_6 3.052419 1_555
Y0_2 Y0_6 3.052419 1_455
Y0_3 Y0_7 3.052419 1_555
Y0_3 Y0_7 3.052419 1_455
Th0_0 Th0_4 3.052419 1_555
Th0_0 Th0_4 3.052419 1_455
Th0_1 Th0_5 3.052419 1_555
Th0_1 Th0_5 3.052419 1_455
Th0_2 Th0_6 3.052419 1_555
Th0_2 Th0_6 3.052419 1_455
Th0_3 Th0_7 3.052419 1_555
Th0_3 Th0_7 3.052419 1_455
B0_0 Ru4_0 2.207501 1_555
B0_0 Ru4_4 2.207501 1_455
B0_0 Ru2_2 2.207702 1_555
B0_0 Ru2_6 2.207702 1_455
B0_0 Ru0_2 2.219592 1_555
B0_0 Ru0_6 2.219592 1_455
B0_0 Th0_0 3.177399 1_555
B0_0 Y0_0 3.207220 1_555
B0_0 Y0_2 3.208361 1_555
B0_1 Ru4_1 2.207501 1_555
B0_1 Ru4_5 2.207501 1_455
B0_1 Ru2_3 2.207702 1_555
B0_1 Ru2_7 2.207702 1_455
B0_1 Ru0_3 2.219592 1_555
B0_1 Ru0_7 2.219592 1_455
B0_1 Th0_1 3.177399 1_555
B0_1 Y0_1 3.207220 1_555
B0_1 Y0_3 3.208361 1_555
B0_2 Ru4_2 2.207501 1_555
B0_2 Ru4_6 2.207501 1_455
B0_2 Ru2_0 2.207702 1_565
B0_2 Ru2_4 2.207702 1_465
B0_2 Ru0_0 2.219592 1_565
B0_2 Ru0_4 2.219592 1_465
B0_2 Th0_2 3.177399 1_555
B0_2 Y0_2 3.207220 1_555
B0_2 Y0_0 3.208361 1_565
B0_3 Ru4_3 2.207501 1_555
B0_3 Ru4_7 2.207501 1_455
B0_3 Ru2_1 2.207702 1_565
B0_3 Ru2_5 2.207702 1_465
B0_3 Ru0_1 2.219592 1_565
B0_3 Ru0_5 2.219592 1_465
B0_3 Th0_3 3.177399 1_555
B0_3 Y0_3 3.207220 1_555
B0_3 Y0_1 3.208361 1_565
B0_4 Ru4_4 2.207501 1_555
B0_4 Ru4_0 2.207501 1_555
B0_4 Ru2_2 2.207702 1_555
B0_4 Ru2_6 2.207702 1_555
B0_4 Ru0_6 2.219592 1_555
B0_4 Ru0_2 2.219592 1_555
B0_4 Th0_4 3.177399 1_555
B0_4 Y0_4 3.207220 1_555
B0_4 Y0_6 3.208361 1_555
B0_5 Ru4_5 2.207501 1_555
B0_5 Ru4_1 2.207501 1_555
B0_5 Ru2_7 2.207702 1_555
B0_5 Ru2_3 2.207702 1_555
B0_5 Ru0_7 2.219592 1_555
B0_5 Ru0_3 2.219592 1_555
B0_5 Th0_5 3.177399 1_555
B0_5 Y0_5 3.207220 1_555
B0_5 Y0_7 3.208361 1_555
B0_6 Ru4_2 2.207501 1_555
B0_6 Ru4_6 2.207501 1_555
B0_6 Ru2_4 2.207702 1_565
B0_6 Ru2_0 2.207702 1_565
B0_6 Ru0_4 2.219592 1_565
B0_6 Ru0_0 2.219592 1_565
B0_6 Th0_6 3.177399 1_555
B0_6 Y0_6 3.207220 1_555
B0_6 Y0_4 3.208361 1_565
B0_7 Ru4_3 2.207501 1_555
B0_7 Ru4_7 2.207501 1_555
B0_7 Ru2_1 2.207702 1_565
B0_7 Ru2_5 2.207702 1_565
B0_7 Ru0_5 2.219592 1_565
B0_7 Ru0_1 2.219592 1_565
B0_7 Th0_7 3.177399 1_555
B0_7 Y0_7 3.207220 1_555
B0_7 Y0_5 3.208361 1_565
B1_0 Ru1_1 2.203787 1_555
B1_0 Ru1_5 2.203787 1_455
B1_0 Ru3_0 2.213661 1_555
B1_0 Ru3_4 2.213661 1_455
B1_0 Ru5_0 2.213778 1_555
B1_0 Ru5_4 2.213778 1_455
B1_0 Th0_1 3.196634 1_555
B1_0 Th0_3 3.197115 1_545
B1_0 Y0_0 3.199237 1_555
B1_1 Ru1_0 2.203787 1_556
B1_1 Ru1_4 2.203787 1_456
B1_1 Ru3_1 2.213661 1_555
B1_1 Ru3_5 2.213661 1_455
B1_1 Ru5_1 2.213778 1_555
B1_1 Ru5_5 2.213778 1_455
B1_1 Th0_0 3.196634 1_556
B1_1 Th0_2 3.197115 1_546
B1_1 Y0_1 3.199237 1_555
B1_2 Ru1_3 2.203787 1_555
B1_2 Ru1_7 2.203787 1_455
B1_2 Ru3_2 2.213661 1_555
B1_2 Ru3_6 2.213661 1_455
B1_2 Ru5_2 2.213778 1_555
B1_2 Ru5_6 2.213778 1_455
B1_2 Th0_3 3.196634 1_555
B1_2 Th0_1 3.197115 1_555
B1_2 Y0_2 3.199237 1_555
B1_3 Ru1_2 2.203787 1_556
B1_3 Ru1_6 2.203787 1_456
B1_3 Ru3_3 2.213661 1_555
B1_3 Ru3_7 2.213661 1_455
B1_3 Ru5_3 2.213778 1_555
B1_3 Ru5_7 2.213778 1_455
B1_3 Th0_2 3.196634 1_556
B1_3 Th0_0 3.197115 1_556
B1_3 Y0_3 3.199237 1_555
B1_4 Ru1_5 2.203787 1_555
B1_4 Ru1_1 2.203787 1_555
B1_4 Ru3_0 2.213661 1_555
B1_4 Ru3_4 2.213661 1_555
B1_4 Ru5_0 2.213778 1_555
B1_4 Ru5_4 2.213778 1_555
B1_4 Th0_5 3.196634 1_555
B1_4 Th0_7 3.197115 1_545
B1_4 Y0_4 3.199237 1_555
B1_5 Ru1_4 2.203787 1_556
B1_5 Ru1_0 2.203787 1_556
B1_5 Ru3_5 2.213661 1_555
B1_5 Ru3_1 2.213661 1_555
B1_5 Ru5_1 2.213778 1_555
B1_5 Ru5_5 2.213778 1_555
B1_5 Th0_4 3.196634 1_556
B1_5 Th0_6 3.197115 1_546
B1_5 Y0_5 3.199237 1_555
B1_6 Ru1_3 2.203787 1_555
B1_6 Ru1_7 2.203787 1_555
B1_6 Ru3_2 2.213661 1_555
B1_6 Ru3_6 2.213661 1_555
B1_6 Ru5_6 2.213778 1_555
B1_6 Ru5_2 2.213778 1_555
B1_6 Th0_7 3.196634 1_555
B1_6 Th0_5 3.197115 1_555
B1_6 Y0_6 3.199237 1_555
B1_7 Ru1_2 2.203787 1_556
B1_7 Ru1_6 2.203787 1_556
B1_7 Ru3_7 2.213661 1_555
B1_7 Ru3_3 2.213661 1_555
B1_7 Ru5_7 2.213778 1_555
B1_7 Ru5_3 2.213778 1_555
B1_7 Th0_6 3.196634 1_556
B1_7 Th0_4 3.197115 1_556
B1_7 Y0_7 3.199237 1_555
B2_0 Ru1_0 2.203787 1_555
B2_0 Ru1_4 2.203787 1_455
B2_0 Ru4_0 2.213661 1_555
B2_0 Ru4_4 2.213661 1_455
B2_0 Ru2_0 2.213778 1_555
B2_0 Ru2_4 2.213778 1_455
B2_0 Th0_0 3.196634 1_555
B2_0 Th0_2 3.197115 1_545
B2_0 Y0_0 3.199237 1_555
B2_1 Ru1_1 2.203787 1_555
B2_1 Ru1_5 2.203787 1_455
B2_1 Ru4_1 2.213661 1_555
B2_1 Ru4_5 2.213661 1_455
B2_1 Ru2_1 2.213778 1_555
B2_1 Ru2_5 2.213778 1_455
B2_1 Th0_1 3.196634 1_555
B2_1 Th0_3 3.197115 1_545
B2_1 Y0_1 3.199237 1_555
B2_2 Ru1_2 2.203787 1_555
B2_2 Ru1_6 2.203787 1_455
B2_2 Ru4_2 2.213661 1_555
B2_2 Ru4_6 2.213661 1_455
B2_2 Ru2_2 2.213778 1_555
B2_2 Ru2_6 2.213778 1_455
B2_2 Th0_2 3.196634 1_555
B2_2 Th0_0 3.197115 1_555
B2_2 Y0_2 3.199237 1_555
B2_3 Ru1_3 2.203787 1_555
B2_3 Ru1_7 2.203787 1_455
B2_3 Ru4_3 2.213661 1_555
B2_3 Ru4_7 2.213661 1_455
B2_3 Ru2_3 2.213778 1_555
B2_3 Ru2_7 2.213778 1_455
B2_3 Th0_3 3.196634 1_555
B2_3 Th0_1 3.197115 1_555
B2_3 Y0_3 3.199237 1_555
B2_4 Ru1_0 2.203787 1_555
B2_4 Ru1_4 2.203787 1_555
B2_4 Ru4_4 2.213661 1_555
B2_4 Ru4_0 2.213661 1_555
B2_4 Ru2_4 2.213778 1_555
B2_4 Ru2_0 2.213778 1_555
B2_4 Th0_4 3.196634 1_555
B2_4 Th0_6 3.197115 1_545
B2_4 Y0_4 3.199237 1_555
B2_5 Ru1_5 2.203787 1_555
B2_5 Ru1_1 2.203787 1_555
B2_5 Ru4_5 2.213661 1_555
B2_5 Ru4_1 2.213661 1_555
B2_5 Ru2_1 2.213778 1_555
B2_5 Ru2_5 2.213778 1_555
B2_5 Th0_5 3.196634 1_555
B2_5 Th0_7 3.197115 1_545
B2_5 Y0_5 3.199237 1_555
B2_6 Ru1_2 2.203787 1_555
B2_6 Ru1_6 2.203787 1_555
B2_6 Ru4_6 2.213661 1_555
B2_6 Ru4_2 2.213661 1_555
B2_6 Ru2_6 2.213778 1_555
B2_6 Ru2_2 2.213778 1_555
B2_6 Th0_6 3.196634 1_555
B2_6 Th0_4 3.197115 1_555
B2_6 Y0_6 3.199237 1_555
B2_7 Ru1_3 2.203787 1_555
B2_7 Ru1_7 2.203787 1_555
B2_7 Ru4_3 2.213661 1_555
B2_7 Ru4_7 2.213661 1_555
B2_7 Ru2_7 2.213778 1_555
B2_7 Ru2_3 2.213778 1_555
B2_7 Th0_7 3.196634 1_555
B2_7 Th0_5 3.197115 1_555
B2_7 Y0_7 3.199237 1_555
B3_0 Ru3_0 2.207501 1_555
B3_0 Ru3_4 2.207501 1_455
B3_0 Ru5_2 2.207702 1_555
B3_0 Ru5_6 2.207702 1_455
B3_0 Ru0_2 2.219592 1_555
B3_0 Ru0_6 2.219592 1_455
B3_0 Th0_1 3.177399 1_555
B3_0 Y0_0 3.207220 1_555
B3_0 Y0_2 3.208361 1_555
B3_1 Ru3_1 2.207501 1_555
B3_1 Ru3_5 2.207501 1_455
B3_1 Ru5_3 2.207702 1_555
B3_1 Ru5_7 2.207702 1_455
B3_1 Ru0_3 2.219592 1_555
B3_1 Ru0_7 2.219592 1_455
B3_1 Th0_0 3.177399 1_556
B3_1 Y0_1 3.207220 1_555
B3_1 Y0_3 3.208361 1_555
B3_2 Ru3_2 2.207501 1_555
B3_2 Ru3_6 2.207501 1_455
B3_2 Ru5_0 2.207702 1_565
B3_2 Ru5_4 2.207702 1_465
B3_2 Ru0_0 2.219592 1_565
B3_2 Ru0_4 2.219592 1_465
B3_2 Th0_3 3.177399 1_555
B3_2 Y0_2 3.207220 1_555
B3_2 Y0_0 3.208361 1_565
B3_3 Ru3_3 2.207501 1_555
B3_3 Ru3_7 2.207501 1_455
B3_3 Ru5_1 2.207702 1_565
B3_3 Ru5_5 2.207702 1_465
B3_3 Ru0_1 2.219592 1_565
B3_3 Ru0_5 2.219592 1_465
B3_3 Th0_2 3.177399 1_556
B3_3 Y0_3 3.207220 1_555
B3_3 Y0_1 3.208361 1_565
B3_4 Ru3_4 2.207501 1_555
B3_4 Ru3_0 2.207501 1_555
B3_4 Ru5_6 2.207702 1_555
B3_4 Ru5_2 2.207702 1_555
B3_4 Ru0_6 2.219592 1_555
B3_4 Ru0_2 2.219592 1_555
B3_4 Th0_5 3.177399 1_555
B3_4 Y0_4 3.207220 1_555
B3_4 Y0_6 3.208361 1_555
B3_5 Ru3_1 2.207501 1_555
B3_5 Ru3_5 2.207501 1_555
B3_5 Ru5_7 2.207702 1_555
B3_5 Ru5_3 2.207702 1_555
B3_5 Ru0_7 2.219592 1_555
B3_5 Ru0_3 2.219592 1_555
B3_5 Th0_4 3.177399 1_556
B3_5 Y0_5 3.207220 1_555
B3_5 Y0_7 3.208361 1_555
B3_6 Ru3_2 2.207501 1_555
B3_6 Ru3_6 2.207501 1_555
B3_6 Ru5_4 2.207702 1_565
B3_6 Ru5_0 2.207702 1_565
B3_6 Ru0_4 2.219592 1_565
B3_6 Ru0_0 2.219592 1_565
B3_6 Th0_7 3.177399 1_555
B3_6 Y0_6 3.207220 1_555
B3_6 Y0_4 3.208361 1_565
B3_7 Ru3_3 2.207501 1_555
B3_7 Ru3_7 2.207501 1_555
B3_7 Ru5_1 2.207702 1_565
B3_7 Ru5_5 2.207702 1_565
B3_7 Ru0_5 2.219592 1_565
B3_7 Ru0_1 2.219592 1_565
B3_7 Th0_6 3.177399 1_556
B3_7 Y0_7 3.207220 1_555
B3_7 Y0_5 3.208361 1_565
Ru0_0 Y0_6 3.165559 1_545
Ru0_0 Y0_2 3.165559 1_545
Ru0_0 Y0_0 3.165938 1_555
Ru0_0 Y0_4 3.165938 1_555
Ru0_1 Y0_7 3.165559 1_545
Ru0_1 Y0_3 3.165559 1_545
Ru0_1 Y0_1 3.165938 1_555
Ru0_1 Y0_5 3.165938 1_555
Ru0_2 Y0_0 3.165559 1_555
Ru0_2 Y0_4 3.165559 1_555
Ru0_2 Y0_2 3.165938 1_555
Ru0_2 Y0_6 3.165938 1_555
Ru0_3 Y0_1 3.165559 1_555
Ru0_3 Y0_5 3.165559 1_555
Ru0_3 Y0_7 3.165938 1_555
Ru0_3 Y0_3 3.165938 1_555
Ru0_4 Y0_6 3.165559 1_545
Ru0_4 Y0_2 3.165559 1_645
Ru0_4 Y0_4 3.165938 1_555
Ru0_4 Y0_0 3.165938 1_655
Ru0_5 Y0_7 3.165559 1_545
Ru0_5 Y0_3 3.165559 1_645
Ru0_5 Y0_5 3.165938 1_555
Ru0_5 Y0_1 3.165938 1_655
Ru0_6 Y0_4 3.165559 1_555
Ru0_6 Y0_0 3.165559 1_655
Ru0_6 Y0_6 3.165938 1_555
Ru0_6 Y0_2 3.165938 1_655
Ru0_7 Y0_5 3.165559 1_555
Ru0_7 Y0_1 3.165559 1_655
Ru0_7 Y0_7 3.165938 1_555
Ru0_7 Y0_3 3.165938 1_655
Ru1_0 Th0_0 3.165530 1_555
Ru1_0 Th0_4 3.165530 1_555
Ru1_0 Th0_2 3.165967 1_545
Ru1_0 Th0_6 3.165967 1_545
Ru1_1 Th0_1 3.165530 1_555
Ru1_1 Th0_5 3.165530 1_555
Ru1_1 Th0_7 3.165967 1_545
Ru1_1 Th0_3 3.165967 1_545
Ru1_2 Th0_6 3.165530 1_555
Ru1_2 Th0_2 3.165530 1_555
Ru1_2 Th0_4 3.165967 1_555
Ru1_2 Th0_0 3.165967 1_555
Ru1_3 Th0_3 3.165530 1_555
Ru1_3 Th0_7 3.165530 1_555
Ru1_3 Th0_1 3.165967 1_555
Ru1_3 Th0_5 3.165967 1_555
Ru1_4 Th0_4 3.165530 1_555
Ru1_4 Th0_0 3.165530 1_655
Ru1_4 Th0_6 3.165967 1_545
Ru1_4 Th0_2 3.165967 1_645
Ru1_5 Th0_5 3.165530 1_555
Ru1_5 Th0_1 3.165530 1_655
Ru1_5 Th0_7 3.165967 1_545
Ru1_5 Th0_3 3.165967 1_645
Ru1_6 Th0_6 3.165530 1_555
Ru1_6 Th0_2 3.165530 1_655
Ru1_6 Th0_4 3.165967 1_555
Ru1_6 Th0_0 3.165967 1_655
Ru1_7 Th0_7 3.165530 1_555
Ru1_7 Th0_3 3.165530 1_655
Ru1_7 Th0_5 3.165967 1_555
Ru1_7 Th0_1 3.165967 1_655
Ru2_0 Y0_0 3.110624 1_555
Ru2_0 Y0_4 3.110624 1_555
Ru2_0 Th0_2 3.210082 1_545
Ru2_0 Th0_6 3.210082 1_545
Ru2_1 Y0_1 3.110624 1_555
Ru2_1 Y0_5 3.110624 1_555
Ru2_1 Th0_3 3.210082 1_545
Ru2_1 Th0_7 3.210082 1_545
Ru2_2 Y0_6 3.110624 1_555
Ru2_2 Y0_2 3.110624 1_555
Ru2_2 Th0_4 3.210082 1_555
Ru2_2 Th0_0 3.210082 1_555
Ru2_3 Y0_7 3.110624 1_555
Ru2_3 Y0_3 3.110624 1_555
Ru2_3 Th0_1 3.210082 1_555
Ru2_3 Th0_5 3.210082 1_555
Ru2_4 Y0_4 3.110624 1_555
Ru2_4 Y0_0 3.110624 1_655
Ru2_4 Th0_6 3.210082 1_545
Ru2_4 Th0_2 3.210082 1_645
Ru2_5 Y0_5 3.110624 1_555
Ru2_5 Y0_1 3.110624 1_655
Ru2_5 Th0_7 3.210082 1_545
Ru2_5 Th0_3 3.210082 1_645
Ru2_6 Y0_6 3.110624 1_555
Ru2_6 Y0_2 3.110624 1_655
Ru2_6 Th0_4 3.210082 1_555
Ru2_6 Th0_0 3.210082 1_655
Ru2_7 Y0_7 3.110624 1_555
Ru2_7 Y0_3 3.110624 1_655
Ru2_7 Th0_5 3.210082 1_555
Ru2_7 Th0_1 3.210082 1_655
Ru3_0 Y0_0 3.110326 1_555
Ru3_0 Y0_4 3.110326 1_555
Ru3_0 Th0_1 3.209772 1_555
Ru3_0 Th0_5 3.209772 1_555
Ru3_1 Y0_1 3.110326 1_555
Ru3_1 Y0_5 3.110326 1_555
Ru3_1 Th0_0 3.209772 1_556
Ru3_1 Th0_4 3.209772 1_556
Ru3_2 Y0_2 3.110326 1_555
Ru3_2 Y0_6 3.110326 1_555
Ru3_2 Th0_7 3.209772 1_555
Ru3_2 Th0_3 3.209772 1_555
Ru3_3 Y0_7 3.110326 1_555
Ru3_3 Y0_3 3.110326 1_555
Ru3_3 Th0_6 3.209772 1_556
Ru3_3 Th0_2 3.209772 1_556
Ru3_4 Y0_4 3.110326 1_555
Ru3_4 Y0_0 3.110326 1_655
Ru3_4 Th0_5 3.209772 1_555
Ru3_4 Th0_1 3.209772 1_655
Ru3_5 Y0_5 3.110326 1_555
Ru3_5 Y0_1 3.110326 1_655
Ru3_5 Th0_4 3.209772 1_556
Ru3_5 Th0_0 3.209772 1_656
Ru3_6 Y0_6 3.110326 1_555
Ru3_6 Y0_2 3.110326 1_655
Ru3_6 Th0_7 3.209772 1_555
Ru3_6 Th0_3 3.209772 1_655
Ru3_7 Y0_7 3.110326 1_555
Ru3_7 Y0_3 3.110326 1_655
Ru3_7 Th0_6 3.209772 1_556
Ru3_7 Th0_2 3.209772 1_656
Ru4_0 Y0_4 3.110326 1_555
Ru4_0 Y0_0 3.110326 1_555
Ru4_0 Th0_0 3.209772 1_555
Ru4_0 Th0_4 3.209772 1_555
Ru4_1 Y0_1 3.110326 1_555
Ru4_1 Y0_5 3.110326 1_555
Ru4_1 Th0_5 3.209772 1_555
Ru4_1 Th0_1 3.209772 1_555
Ru4_2 Y0_6 3.110326 1_555
Ru4_2 Y0_2 3.110326 1_555
Ru4_2 Th0_2 3.209772 1_555
Ru4_2 Th0_6 3.209772 1_555
Ru4_3 Y0_7 3.110326 1_555
Ru4_3 Y0_3 3.110326 1_555
Ru4_3 Th0_7 3.209772 1_555
Ru4_3 Th0_3 3.209772 1_555
Ru4_4 Y0_4 3.110326 1_555
Ru4_4 Y0_0 3.110326 1_655
Ru4_4 Th0_4 3.209772 1_555
Ru4_4 Th0_0 3.209772 1_655
Ru4_5 Y0_5 3.110326 1_555
Ru4_5 Y0_1 3.110326 1_655
Ru4_5 Th0_5 3.209772 1_555
Ru4_5 Th0_1 3.209772 1_655
Ru4_6 Y0_6 3.110326 1_555
Ru4_6 Y0_2 3.110326 1_655
Ru4_6 Th0_6 3.209772 1_555
Ru4_6 Th0_2 3.209772 1_655
Ru4_7 Y0_7 3.110326 1_555
Ru4_7 Y0_3 3.110326 1_655
Ru4_7 Th0_7 3.209772 1_555
Ru4_7 Th0_3 3.209772 1_655
Ru5_0 Y0_0 3.110624 1_555
Ru5_0 Y0_4 3.110624 1_555
Ru5_0 Th0_3 3.210082 1_545
Ru5_0 Th0_7 3.210082 1_545
Ru5_1 Y0_1 3.110624 1_555
Ru5_1 Y0_5 3.110624 1_555
Ru5_1 Th0_2 3.210082 1_546
Ru5_1 Th0_6 3.210082 1_546
Ru5_2 Y0_2 3.110624 1_555
Ru5_2 Y0_6 3.110624 1_555
Ru5_2 Th0_1 3.210082 1_555
Ru5_2 Th0_5 3.210082 1_555
Ru5_3 Y0_7 3.110624 1_555
Ru5_3 Y0_3 3.110624 1_555
Ru5_3 Th0_4 3.210082 1_556
Ru5_3 Th0_0 3.210082 1_556
Ru5_4 Y0_4 3.110624 1_555
Ru5_4 Y0_0 3.110624 1_655
Ru5_4 Th0_7 3.210082 1_545
Ru5_4 Th0_3 3.210082 1_645
Ru5_5 Y0_5 3.110624 1_555
Ru5_5 Y0_1 3.110624 1_655
Ru5_5 Th0_6 3.210082 1_546
Ru5_5 Th0_2 3.210082 1_646
Ru5_6 Y0_6 3.110624 1_555
Ru5_6 Y0_2 3.110624 1_655
Ru5_6 Th0_5 3.210082 1_555
Ru5_6 Th0_1 3.210082 1_655
Ru5_7 Y0_7 3.110624 1_555
Ru5_7 Y0_3 3.110624 1_655
Ru5_7 Th0_4 3.210082 1_556
Ru5_7 Th0_0 3.210082 1_656
