# generated using pymatgen
data_NpCl4
_symmetry_space_group_name_H-M   'P 1'
_cell_length_a   7.01271345
_cell_length_b   6.98391744
_cell_length_c   6.98391841
_cell_angle_alpha   107.05509481
_cell_angle_beta   107.19574460
_cell_angle_gamma   114.08991716
_symmetry_Int_Tables_number   1
_chemical_formula_structural   NpCl4
_chemical_formula_sum   'Np2 Cl8'
_cell_volume   262.55077332
_cell_formula_units_Z   2
loop_
 _symmetry_equiv_pos_site_id
 _symmetry_equiv_pos_as_xyz
  1  'x, y, z'
loop_
 _atom_site_type_symbol
 _atom_site_label
 _atom_site_symmetry_multiplicity
 _atom_site_fract_x
 _atom_site_fract_y
 _atom_site_fract_z
 _atom_site_occupancy
  Np  Np0  1  0.87832322  0.12604519  0.75227903  1
  Np  Np1  1  0.12167678  0.87395481  0.24772097  1
  Cl  Cl0  1  0.19817392  0.25518117  0.56755153  1
  Cl  Cl1  1  0.63172408  0.19245646  0.43926663  1
  Cl  Cl2  1  0.36827592  0.80754354  0.56073337  1
  Cl  Cl3  1  0.80182608  0.74481883  0.43244847  1
  Cl  Cl4  1  0.80182608  0.36937661  0.05700625  1
  Cl  Cl5  1  0.74273870  0.80640618  0.93633352  1
  Cl  Cl6  1  0.19817392  0.63062339  0.94299375  1
  Cl  Cl7  1  0.25726130  0.19359382  0.06366648  1
loop_
_geom_bond_atom_site_label_1
_geom_bond_atom_site_label_2
_geom_bond_distance
_geom_bond_site_symmetry_2
Cl0 Np1 2.646287 1_545
Cl0 Np0 2.872466 1_455
Cl1 Np0 2.645522 1_555
Cl1 Np1 2.908858 1_545
Cl2 Np1 2.645522 1_555
Cl2 Np0 2.908858 1_565
Cl3 Np0 2.646287 1_565
Cl3 Np1 2.872466 1_655
Cl4 Np0 2.646270 1_554
Cl4 Np1 2.872466 1_655
Cl5 Np1 2.640344 1_656
Cl5 Np0 2.865799 1_565
Cl6 Np1 2.646270 1_556
Cl6 Np0 2.872466 1_455
Cl7 Np0 2.640344 1_454
Cl7 Np1 2.865799 1_545
