# generated using pymatgen
data_Na2Mn2Cd(PO4)3
_symmetry_space_group_name_H-M   'P 1'
_cell_length_a   8.86035981
_cell_length_b   8.86035981
_cell_length_c   6.80444313
_cell_angle_alpha   72.56003530
_cell_angle_beta   72.56003530
_cell_angle_gamma   91.94396591
_symmetry_Int_Tables_number   1
_chemical_formula_structural   Na2Mn2Cd(PO4)3
_chemical_formula_sum   'Na4 Mn4 Cd2 P6 O24'
_cell_volume   481.69184303
_cell_formula_units_Z   2
loop_
 _symmetry_equiv_pos_site_id
 _symmetry_equiv_pos_as_xyz
  1  'x, y, z'
loop_
 _atom_site_type_symbol
 _atom_site_label
 _atom_site_symmetry_multiplicity
 _atom_site_fract_x
 _atom_site_fract_y
 _atom_site_fract_z
 _atom_site_occupancy
  Na  Na0  1  0.98139200  0.01860800  0.25000000  1
  Na  Na1  1  0.01860800  0.98139200  0.75000000  1
  Na  Na2  1  0.50000000  0.50000000  0.00000000  1
  Na  Na3  1  0.50000000  0.50000000  0.50000000  1
  Mn  Mn0  1  0.38359300  0.06449600  0.36312800  1
  Mn  Mn1  1  0.61640700  0.93550400  0.63687200  1
  Mn  Mn2  1  0.93550400  0.61640700  0.13687200  1
  Mn  Mn3  1  0.06449600  0.38359300  0.86312800  1
  Cd  Cd0  1  0.26727100  0.73272900  0.25000000  1
  Cd  Cd1  1  0.73272900  0.26727100  0.75000000  1
  P  P0  1  0.71764800  0.28235200  0.25000000  1
  P  P1  1  0.28235200  0.71764800  0.75000000  1
  P  P2  1  0.65620000  0.87181600  0.12557700  1
  P  P3  1  0.34380000  0.12818400  0.87442300  1
  P  P4  1  0.12818400  0.34380000  0.37442300  1
  P  P5  1  0.87181600  0.65620000  0.62557700  1
  O  O0  1  0.54396000  0.26268800  0.24598700  1
  O  O1  1  0.45604000  0.73731200  0.75401300  1
  O  O2  1  0.73731200  0.45604000  0.25401300  1
  O  O3  1  0.26268800  0.54396000  0.74598700  1
  O  O4  1  0.53668400  0.72334000  0.17756900  1
  O  O5  1  0.46331600  0.27666000  0.82243100  1
  O  O6  1  0.27666000  0.46331600  0.32243100  1
  O  O7  1  0.72334000  0.53668400  0.67756900  1
  O  O8  1  0.74442500  0.16454600  0.45550300  1
  O  O9  1  0.25557500  0.83545400  0.54449700  1
  O  O10  1  0.83545400  0.25557500  0.04449700  1
  O  O11  1  0.16454600  0.74442500  0.95550300  1
  O  O12  1  0.59777600  0.95250800  0.30674300  1
  O  O13  1  0.40222400  0.04749200  0.69325700  1
  O  O14  1  0.04749200  0.40222400  0.19325700  1
  O  O15  1  0.95250800  0.59777600  0.80674300  1
  O  O16  1  0.82728800  0.82851200  0.11592300  1
  O  O17  1  0.17271200  0.17148800  0.88407700  1
  O  O18  1  0.17148800  0.17271200  0.38407700  1
  O  O19  1  0.82851200  0.82728800  0.61592300  1
  O  O20  1  0.32792400  0.00545300  0.10085200  1
  O  O21  1  0.67207600  0.99454700  0.89914800  1
  O  O22  1  0.99454700  0.67207600  0.39914800  1
  O  O23  1  0.00545300  0.32792400  0.60085200  1
loop_
_geom_bond_atom_site_label_1
_geom_bond_atom_site_label_2
_geom_bond_distance
_geom_bond_site_symmetry_2
Na0 O17 2.490102 1_654
Na0 O19 2.490102 1_545
Na0 O16 2.654309 1_545
Na0 O18 2.654309 1_655
Na0 O10 2.746613 1_555
Na0 O8 2.746613 1_555
Na0 O20 2.949284 1_655
Na0 O22 2.949284 1_545
Na1 O18 2.490102 1_565
Na1 O16 2.490102 1_456
Na1 O19 2.654309 1_455
Na1 O17 2.654309 1_565
Na1 O9 2.746613 1_555
Na1 O11 2.746613 1_555
Na1 O23 2.949284 1_565
Na1 O21 2.949284 1_455
Na2 O1 2.389832 1_554
Na2 O0 2.389832 1_555
Na2 O7 2.400329 1_554
Na2 O6 2.400329 1_555
Na2 O5 2.665788 1_554
Na2 O4 2.665788 1_555
Na3 O2 2.389832 1_555
Na3 O3 2.389832 1_555
Na3 O4 2.400329 1_555
Na3 O5 2.400329 1_555
Na3 O6 2.665788 1_555
Na3 O7 2.665788 1_555
Mn0 O0 2.012677 1_555
Mn0 O9 2.105137 1_545
Mn0 O18 2.124888 1_555
Mn0 O12 2.157011 1_545
Mn0 O20 2.184418 1_555
Mn0 O13 2.262103 1_555
Mn1 O1 2.012677 1_555
Mn1 O8 2.105137 1_565
Mn1 O19 2.124888 1_555
Mn1 O13 2.157011 1_565
Mn1 O21 2.184418 1_555
Mn1 O12 2.262103 1_555
Mn2 O2 2.012677 1_555
Mn2 O11 2.105137 1_654
Mn2 O16 2.124888 1_555
Mn2 O14 2.157011 1_655
Mn2 O22 2.184418 1_555
Mn2 O15 2.262103 1_554
Mn3 O3 2.012677 1_555
Mn3 O10 2.105137 1_456
Mn3 O17 2.124888 1_555
Mn3 O15 2.157011 1_455
Mn3 O23 2.184418 1_555
Mn3 O14 2.262103 1_556
Cd0 O20 2.296283 1_565
Cd0 O22 2.296283 1_455
Cd0 O6 2.298021 1_555
Cd0 O4 2.298021 1_555
Cd0 O11 2.414524 1_554
Cd0 O9 2.414524 1_555
Cd1 O23 2.296283 1_655
Cd1 O21 2.296283 1_545
Cd1 O5 2.298021 1_555
Cd1 O7 2.298021 1_555
Cd1 O8 2.414524 1_555
Cd1 O10 2.414524 1_556
O0 P0 1.552186 1_555
O1 P1 1.552186 1_555
O2 P0 1.552186 1_555
O3 P1 1.552186 1_555
O4 P2 1.542456 1_555
O5 P3 1.542456 1_555
O6 P4 1.542456 1_555
O7 P5 1.542456 1_555
O8 P0 1.562664 1_555
O9 P1 1.562664 1_555
O10 P0 1.562664 1_555
O11 P1 1.562664 1_555
O12 P2 1.571518 1_555
O13 P3 1.571518 1_555
O14 P4 1.571518 1_555
O15 P5 1.571518 1_555
O16 P2 1.563448 1_555
O17 P3 1.563448 1_555
O18 P4 1.563448 1_555
O19 P5 1.563448 1_555
O20 P3 1.559350 1_554
O21 P2 1.559350 1_556
O22 P5 1.559350 1_555
O23 P4 1.559350 1_555
