# generated using pymatgen
data_Nb3N2Cl7O5
_symmetry_space_group_name_H-M   'P 1'
_cell_length_a   9.68253357
_cell_length_b   9.68253357
_cell_length_c   11.36584126
_cell_angle_alpha   71.30087471
_cell_angle_beta   71.30087471
_cell_angle_gamma   55.63929385
_symmetry_Int_Tables_number   1
_chemical_formula_structural   Nb3N2Cl7O5
_chemical_formula_sum   'Nb6 N4 Cl14 O10'
_cell_volume   819.79690464
_cell_formula_units_Z   2
loop_
 _symmetry_equiv_pos_site_id
 _symmetry_equiv_pos_as_xyz
  1  'x, y, z'
loop_
 _atom_site_type_symbol
 _atom_site_label
 _atom_site_symmetry_multiplicity
 _atom_site_fract_x
 _atom_site_fract_y
 _atom_site_fract_z
 _atom_site_occupancy
  Nb  Nb0  1  0.21794900  0.79197100  0.52136100  1
  Nb  Nb1  1  0.20802900  0.78205100  0.97863900  1
  Nb  Nb2  1  0.78205100  0.20802900  0.47863900  1
  Nb  Nb3  1  0.79197100  0.21794900  0.02136100  1
  Nb  Nb4  1  0.46790600  0.53209400  0.25000000  1
  Nb  Nb5  1  0.53209400  0.46790600  0.75000000  1
  N  N0  1  0.75357700  0.84254000  0.85483300  1
  N  N1  1  0.15746000  0.24642300  0.64516700  1
  N  N2  1  0.24642300  0.15746000  0.14516700  1
  N  N3  1  0.84254000  0.75357700  0.35483300  1
  Cl  Cl0  1  0.06120900  0.64366600  0.63547800  1
  Cl  Cl1  1  0.35633400  0.93879100  0.86452200  1
  Cl  Cl2  1  0.93879100  0.35633400  0.36452200  1
  Cl  Cl3  1  0.64366600  0.06120900  0.13547800  1
  Cl  Cl4  1  0.35999600  0.94402200  0.46423600  1
  Cl  Cl5  1  0.05597800  0.64000400  0.03576400  1
  Cl  Cl6  1  0.64000400  0.05597800  0.53576400  1
  Cl  Cl7  1  0.94402200  0.35999600  0.96423600  1
  Cl  Cl8  1  0.28142900  0.42333200  0.33149200  1
  Cl  Cl9  1  0.57666800  0.71857100  0.16850800  1
  Cl  Cl10  1  0.71857100  0.57666800  0.66850800  1
  Cl  Cl11  1  0.42333200  0.28142900  0.83149200  1
  Cl  Cl12  1  0.09053000  0.90947000  0.75000000  1
  Cl  Cl13  1  0.90947000  0.09053000  0.25000000  1
  O  O0  1  0.29058800  0.71134000  0.37769600  1
  O  O1  1  0.28866000  0.70941200  0.12230400  1
  O  O2  1  0.70941200  0.28866000  0.62230400  1
  O  O3  1  0.71134000  0.29058800  0.87769600  1
  O  O4  1  0.39656300  0.60620100  0.62516600  1
  O  O5  1  0.39379900  0.60343700  0.87483400  1
  O  O6  1  0.60343700  0.39379900  0.37483400  1
  O  O7  1  0.60620100  0.39656300  0.12516600  1
  O  O8  1  0.00000000  0.00000000  0.50000000  1
  O  O9  1  0.00000000  0.00000000  0.00000000  1
loop_
_geom_bond_atom_site_label_1
_geom_bond_atom_site_label_2
_geom_bond_distance
_geom_bond_site_symmetry_2
Nb0 O0 1.797681 1_555
Nb0 O8 1.945840 1_565
Nb0 O4 2.013576 1_555
Nb1 O1 1.797681 1_556
Nb1 O9 1.945840 1_566
Nb1 O5 2.013576 1_555
Nb2 O2 1.797681 1_555
Nb2 O8 1.945840 1_655
Nb2 O6 2.013576 1_555
Nb3 O3 1.797681 1_554
Nb3 O9 1.945840 1_655
Nb3 O7 2.013576 1_555
Nb4 O7 1.876263 1_555
Nb4 O6 1.876263 1_555
Nb4 O0 2.172593 1_555
Nb4 O1 2.172593 1_555
Nb5 O4 1.876263 1_555
Nb5 O5 1.876263 1_555
Nb5 O2 2.172593 1_555
Nb5 O3 2.172593 1_555
Cl0 Nb0 2.459905 1_555
Cl1 Nb1 2.459905 1_555
Cl2 Nb2 2.459905 1_555
Cl3 Nb3 2.459905 1_555
Cl4 Nb0 2.362391 1_555
Cl5 Nb1 2.362391 1_554
Cl6 Nb2 2.362391 1_555
Cl7 Nb3 2.362391 1_556
Cl8 Nb4 2.382347 1_555
Cl9 Nb4 2.382347 1_555
Cl10 Nb5 2.382347 1_555
Cl11 Nb5 2.382347 1_555
Cl12 Nb0 2.797340 1_555
Cl12 Nb1 2.797340 1_555
Cl13 Nb2 2.797340 1_555
Cl13 Nb3 2.797340 1_555
