# generated using pymatgen
data_K(CrS2)2
_symmetry_space_group_name_H-M   'P 1'
_cell_length_a   13.23969700
_cell_length_b   3.44677600
_cell_length_c   13.92012000
_cell_angle_alpha   90.00000000
_cell_angle_beta   90.00000000
_cell_angle_gamma   90.00000000
_symmetry_Int_Tables_number   1
_chemical_formula_structural   K(CrS2)2
_chemical_formula_sum   'K4 Cr8 S16'
_cell_volume   635.23451266
_cell_formula_units_Z   4
loop_
 _symmetry_equiv_pos_site_id
 _symmetry_equiv_pos_as_xyz
  1  'x, y, z'
loop_
 _atom_site_type_symbol
 _atom_site_label
 _atom_site_symmetry_multiplicity
 _atom_site_fract_x
 _atom_site_fract_y
 _atom_site_fract_z
 _atom_site_occupancy
  K  K0  1  0.11086800  0.75000000  0.38115900  1
  K  K1  1  0.88913200  0.25000000  0.61884100  1
  K  K2  1  0.38913200  0.25000000  0.88115900  1
  K  K3  1  0.61086800  0.75000000  0.11884100  1
  Cr  Cr0  1  0.09776500  0.25000000  0.05030100  1
  Cr  Cr1  1  0.90223500  0.75000000  0.94969900  1
  Cr  Cr2  1  0.40223500  0.75000000  0.55030100  1
  Cr  Cr3  1  0.59776500  0.25000000  0.44969900  1
  Cr  Cr4  1  0.20703700  0.25000000  0.63401200  1
  Cr  Cr5  1  0.79296300  0.75000000  0.36598800  1
  Cr  Cr6  1  0.29296300  0.75000000  0.13401200  1
  Cr  Cr7  1  0.70703700  0.25000000  0.86598800  1
  S  S0  1  0.09206400  0.75000000  0.61852100  1
  S  S1  1  0.90793600  0.25000000  0.38147900  1
  S  S2  1  0.40793600  0.25000000  0.11852100  1
  S  S3  1  0.59206400  0.75000000  0.88147900  1
  S  S4  1  0.01173600  0.25000000  0.90068000  1
  S  S5  1  0.98826400  0.75000000  0.09932000  1
  S  S6  1  0.48826400  0.75000000  0.40068000  1
  S  S7  1  0.51173600  0.25000000  0.59932000  1
  S  S8  1  0.18982500  0.25000000  0.20161000  1
  S  S9  1  0.81017500  0.75000000  0.79839000  1
  S  S10  1  0.31017500  0.75000000  0.70161000  1
  S  S11  1  0.68982500  0.25000000  0.29839000  1
  S  S12  1  0.21285400  0.75000000  0.99268400  1
  S  S13  1  0.78714600  0.25000000  0.00731600  1
  S  S14  1  0.28714600  0.25000000  0.49268400  1
  S  S15  1  0.71285400  0.75000000  0.50731600  1
loop_
_geom_bond_atom_site_label_1
_geom_bond_atom_site_label_2
_geom_bond_distance
_geom_bond_site_symmetry_2
K0 S1 3.191983 1_455
K0 S1 3.191983 1_465
K0 S8 3.210853 1_555
K0 S8 3.210853 1_565
K0 S14 3.290452 1_555
K0 S14 3.290452 1_565
K0 S0 3.313474 1_555
K1 S0 3.191983 1_645
K1 S0 3.191983 1_655
K1 S9 3.210853 1_545
K1 S9 3.210853 1_555
K1 S15 3.290452 1_555
K1 S15 3.290452 1_545
K1 S1 3.313474 1_555
K2 S3 3.191983 1_555
K2 S3 3.191983 1_545
K2 S10 3.210853 1_555
K2 S10 3.210853 1_545
K2 S12 3.290452 1_555
K2 S12 3.290452 1_545
K2 S2 3.313474 1_556
K3 S2 3.191983 1_555
K3 S2 3.191983 1_565
K3 S11 3.210853 1_555
K3 S11 3.210853 1_565
K3 S13 3.290452 1_565
K3 S13 3.290452 1_555
K3 S3 3.313474 1_554
Cr0 S5 2.353183 1_455
Cr0 S5 2.353183 1_445
Cr0 S4 2.373843 1_554
Cr0 S8 2.433481 1_555
Cr0 S12 2.436210 1_544
Cr0 S12 2.436210 1_554
Cr1 S4 2.353183 1_655
Cr1 S4 2.353183 1_665
Cr1 S5 2.373843 1_556
Cr1 S9 2.433481 1_555
Cr1 S13 2.436210 1_566
Cr1 S13 2.436210 1_556
Cr2 S7 2.353183 1_555
Cr2 S7 2.353183 1_565
Cr2 S6 2.373843 1_555
Cr2 S10 2.433481 1_555
Cr2 S14 2.436210 1_555
Cr2 S14 2.436210 1_565
Cr3 S6 2.353183 1_545
Cr3 S6 2.353183 1_555
Cr3 S7 2.373843 1_555
Cr3 S11 2.433481 1_555
Cr3 S15 2.436210 1_555
Cr3 S15 2.436210 1_545
Cr4 S14 2.234993 1_555
Cr4 S0 2.309476 1_545
Cr4 S0 2.309476 1_555
Cr4 S10 2.391679 1_555
Cr4 S10 2.391679 1_545
Cr5 S15 2.234993 1_555
Cr5 S1 2.309476 1_565
Cr5 S1 2.309476 1_555
Cr5 S11 2.391679 1_555
Cr5 S11 2.391679 1_565
Cr6 S12 2.234993 1_554
Cr6 S2 2.309476 1_555
Cr6 S2 2.309476 1_565
Cr6 S8 2.391679 1_565
Cr6 S8 2.391679 1_555
Cr7 S13 2.234993 1_556
Cr7 S3 2.309476 1_555
Cr7 S3 2.309476 1_545
Cr7 S9 2.391679 1_555
Cr7 S9 2.391679 1_545
