# generated using pymatgen
data_PrB3
_symmetry_space_group_name_H-M   'P 1'
_cell_length_a   5.68938170
_cell_length_b   5.68938170
_cell_length_c   3.46295200
_cell_angle_alpha   90.00000000
_cell_angle_beta   90.00000000
_cell_angle_gamma   119.99999654
_symmetry_Int_Tables_number   1
_chemical_formula_structural   PrB3
_chemical_formula_sum   'Pr2 B6'
_cell_volume   97.07496934
_cell_formula_units_Z   2
loop_
 _symmetry_equiv_pos_site_id
 _symmetry_equiv_pos_as_xyz
  1  'x, y, z'
loop_
 _atom_site_type_symbol
 _atom_site_label
 _atom_site_symmetry_multiplicity
 _atom_site_fract_x
 _atom_site_fract_y
 _atom_site_fract_z
 _atom_site_occupancy
  Pr  Pr0  1  0.33333300  0.66666700  0.75000000  1
  Pr  Pr1  1  0.66666700  0.33333300  0.25000000  1
  B  B0  1  0.89474900  0.78949800  0.75000000  1
  B  B1  1  0.10525100  0.89474900  0.25000000  1
  B  B2  1  0.10525100  0.21050200  0.25000000  1
  B  B3  1  0.89474900  0.10525100  0.75000000  1
  B  B4  1  0.21050200  0.10525100  0.75000000  1
  B  B5  1  0.78949800  0.89474900  0.25000000  1
loop_
_geom_bond_atom_site_label_1
_geom_bond_atom_site_label_2
_geom_bond_distance
_geom_bond_site_symmetry_2
B0 B3 1.796439 1_565
B0 B4 1.796439 1_665
B0 B5 2.018351 1_555
B0 B5 2.018351 1_556
B0 B1 2.018351 1_656
B0 B1 2.018351 1_655
B0 Pr1 2.837196 1_555
B0 Pr1 2.837196 1_556
B0 Pr0 2.908354 1_655
B0 Pr0 2.908360 1_555
B1 B2 1.796439 1_565
B1 B5 1.796439 1_455
B1 B4 2.018351 1_564
B1 B4 2.018351 1_565
B1 Pr0 2.837192 1_555
B1 Pr0 2.837192 1_554
B1 Pr1 2.908358 1_455
B1 Pr1 2.908358 1_565
B2 B5 1.796439 1_445
B2 B4 2.018351 1_555
B2 B4 2.018351 1_554
B2 B3 2.018351 1_454
B2 B3 2.018351 1_455
B2 Pr0 2.837196 1_554
B2 Pr0 2.837196 1_555
B2 Pr1 2.908354 1_455
B2 Pr1 2.908360 1_555
B3 B4 1.796439 1_655
B3 B5 2.018351 1_546
B3 B5 2.018351 1_545
B3 Pr1 2.837192 1_556
B3 Pr1 2.837192 1_555
B3 Pr0 2.908358 1_545
B3 Pr0 2.908358 1_655
B4 Pr1 2.837196 1_556
B4 Pr1 2.837196 1_555
B4 Pr0 2.908354 1_545
B4 Pr0 2.908360 1_555
B5 Pr0 2.837196 1_555
B5 Pr0 2.837196 1_554
B5 Pr1 2.908354 1_565
B5 Pr1 2.908360 1_555
