# generated using pymatgen
data_ZrB2Mo3C2
_symmetry_space_group_name_H-M   'P 1'
_cell_length_a   8.97661247
_cell_length_b   8.97661247
_cell_length_c   3.16135200
_cell_angle_alpha   90.00000000
_cell_angle_beta   90.00000000
_cell_angle_gamma   159.49569631
_symmetry_Int_Tables_number   1
_chemical_formula_structural   ZrB2Mo3C2
_chemical_formula_sum   'Zr1 B2 Mo3 C2'
_cell_volume   89.22988708
_cell_formula_units_Z   1
loop_
 _symmetry_equiv_pos_site_id
 _symmetry_equiv_pos_as_xyz
  1  'x, y, z'
loop_
 _atom_site_type_symbol
 _atom_site_label
 _atom_site_symmetry_multiplicity
 _atom_site_fract_x
 _atom_site_fract_y
 _atom_site_fract_z
 _atom_site_occupancy
  Zr  Zr0  1  0.31356300  0.68643700  0.50000000  1
  B  B0  1  0.47140400  0.52859600  0.50000000  1
  B  B1  1  0.52835300  0.47164700  0.00000000  1
  Mo  Mo0  1  0.68750100  0.31249900  0.00000000  1
  Mo  Mo1  1  0.07109200  0.92890800  0.50000000  1
  Mo  Mo2  1  0.93290100  0.06709900  0.00000000  1
  C  C0  1  0.18604700  0.81395300  0.50000000  1
  C  C1  1  0.80914000  0.19086000  0.00000000  1
loop_
_geom_bond_atom_site_label_1
_geom_bond_atom_site_label_2
_geom_bond_distance
_geom_bond_site_symmetry_2
B0 B1 1.873703 1_555
B0 B1 1.873703 1_556
B0 Mo2 2.348139 1_565
B0 Mo2 2.348139 1_566
B0 Mo2 2.348139 1_455
B0 Mo2 2.348139 1_456
B0 Mo1 2.377848 1_655
B0 Mo1 2.377848 1_545
B0 Zr0 2.788511 1_555
B1 Mo2 2.322965 1_565
B1 Mo2 2.322965 1_455
B1 Mo1 2.370899 1_655
B1 Mo1 2.370899 1_654
B1 Mo1 2.370899 1_545
B1 Mo1 2.370899 1_544
B1 Mo0 2.811602 1_555
C0 Mo1 2.030862 1_555
C0 Mo0 2.247603 1_565
C0 Mo0 2.247603 1_566
C0 Mo0 2.247603 1_456
C0 Mo0 2.247603 1_455
C0 Zr0 2.252772 1_555
C1 Mo0 2.148946 1_555
C1 Mo2 2.186434 1_555
C1 Zr0 2.248814 1_654
C1 Zr0 2.248814 1_655
C1 Zr0 2.248814 1_544
C1 Zr0 2.248814 1_545
