# generated using pymatgen
data_AlWO3
_symmetry_space_group_name_H-M   'P 1'
_cell_length_a   5.60385047
_cell_length_b   5.60385047
_cell_length_c   11.99355800
_cell_angle_alpha   90.00000000
_cell_angle_beta   90.00000000
_cell_angle_gamma   120.00000553
_symmetry_Int_Tables_number   1
_chemical_formula_structural   AlWO3
_chemical_formula_sum   'Al6 W6 O18'
_cell_volume   326.17579047
_cell_formula_units_Z   6
loop_
 _symmetry_equiv_pos_site_id
 _symmetry_equiv_pos_as_xyz
  1  'x, y, z'
loop_
 _atom_site_type_symbol
 _atom_site_label
 _atom_site_symmetry_multiplicity
 _atom_site_fract_x
 _atom_site_fract_y
 _atom_site_fract_z
 _atom_site_occupancy
  Al  Al0  1  0.66666700  0.33333300  0.26305600  1
  Al  Al1  1  0.33333300  0.66666700  0.76305600  1
  Al  Al2  1  0.66666700  0.33333300  0.76305600  1
  Al  Al3  1  0.33333300  0.66666700  0.26305600  1
  Al  Al4  1  0.00000000  0.00000000  0.73271000  1
  Al  Al5  1  0.00000000  0.00000000  0.23271000  1
  W  W0  1  0.70617100  0.00000000  0.50005600  1
  W  W1  1  0.70617100  0.70617100  0.00005600  1
  W  W2  1  0.00000000  0.29382900  0.00005600  1
  W  W3  1  0.00000000  0.70617100  0.50005600  1
  W  W4  1  0.29382900  0.29382900  0.50005600  1
  W  W5  1  0.29382900  0.00000000  0.00005600  1
  O  O0  1  0.66666700  0.33333300  0.03410400  1
  O  O1  1  0.33333300  0.66666700  0.53410400  1
  O  O2  1  0.66666700  0.33333300  0.53410400  1
  O  O3  1  0.33333300  0.66666700  0.03410400  1
  O  O4  1  0.00000000  0.00000000  0.88997500  1
  O  O5  1  0.00000000  0.00000000  0.38997500  1
  O  O6  1  0.43256200  0.00000000  0.83857400  1
  O  O7  1  0.43256200  0.43256200  0.33857400  1
  O  O8  1  0.00000000  0.56743800  0.33857400  1
  O  O9  1  0.00000000  0.43256200  0.83857400  1
  O  O10  1  0.56743800  0.56743800  0.83857400  1
  O  O11  1  0.56743800  0.00000000  0.33857400  1
  O  O12  1  0.30597900  0.00000000  0.18070200  1
  O  O13  1  0.30597900  0.30597900  0.68070200  1
  O  O14  1  0.00000000  0.69402100  0.68070200  1
  O  O15  1  0.00000000  0.30597900  0.18070200  1
  O  O16  1  0.69402100  0.69402100  0.18070200  1
  O  O17  1  0.69402100  0.00000000  0.68070200  1
loop_
_geom_bond_atom_site_label_1
_geom_bond_atom_site_label_2
_geom_bond_distance
_geom_bond_site_symmetry_2
Al0 O11 1.892111 1_555
Al0 O8 1.892112 1_655
Al0 O7 1.892116 1_555
Al0 O15 2.185097 1_655
Al0 O12 2.185099 1_555
Al0 O16 2.185102 1_555
Al1 O6 1.892111 1_565
Al1 O9 1.892112 1_555
Al1 O10 1.892116 1_555
Al1 O14 2.185097 1_555
Al1 O17 2.185099 1_565
Al1 O13 2.185102 1_555
Al2 O9 1.892111 1_655
Al2 O6 1.892112 1_555
Al2 O10 1.892116 1_555
Al2 O17 2.185097 1_555
Al2 O14 2.185099 1_655
Al2 O13 2.185102 1_555
Al3 O8 1.892111 1_555
Al3 O11 1.892112 1_565
Al3 O7 1.892116 1_555
Al3 O12 2.185097 1_565
Al3 O15 2.185099 1_555
Al3 O16 2.185102 1_555
Al4 O13 1.824593 1_555
Al4 O14 1.824593 1_545
Al4 O17 1.824593 1_455
Al4 O4 1.886167 1_555
Al5 O16 1.824593 1_445
Al5 O12 1.824593 1_555
Al5 O15 1.824593 1_555
Al5 O5 1.886167 1_555
O0 W2 2.029411 1_655
O0 W5 2.029414 1_555
O0 W1 2.029416 1_555
O1 W3 2.029411 1_555
O1 W0 2.029414 1_565
O1 W4 2.029416 1_555
O2 W0 2.029411 1_555
O2 W3 2.029414 1_655
O2 W4 2.029416 1_555
O3 W5 2.029411 1_565
O3 W2 2.029414 1_555
O3 W1 2.029416 1_555
O4 W1 2.110521 1_446
O4 W2 2.110521 1_556
O4 W5 2.110521 1_556
O5 W4 2.110521 1_555
O5 W0 2.110521 1_455
O5 W3 2.110521 1_545
O6 W5 2.086957 1_556
O7 W4 2.086957 1_555
O8 W3 2.086957 1_555
O9 W2 2.086957 1_556
O10 W1 2.086957 1_556
O11 W0 2.086957 1_555
O12 W5 2.167658 1_555
O13 W4 2.167658 1_555
O14 W3 2.167658 1_555
O15 W2 2.167658 1_555
O16 W1 2.167658 1_555
O17 W0 2.167658 1_555
