# generated using pymatgen
data_YCrO5
_symmetry_space_group_name_H-M   'P 1'
_cell_length_a   8.31134380
_cell_length_b   8.31709761
_cell_length_c   11.60648600
_cell_angle_alpha   90.00000000
_cell_angle_beta   90.00000000
_cell_angle_gamma   90.48249845
_symmetry_Int_Tables_number   1
_chemical_formula_structural   YCrO5
_chemical_formula_sum   'Y8 Cr8 O40'
_cell_volume   802.28449303
_cell_formula_units_Z   8
loop_
 _symmetry_equiv_pos_site_id
 _symmetry_equiv_pos_as_xyz
  1  'x, y, z'
loop_
 _atom_site_type_symbol
 _atom_site_label
 _atom_site_symmetry_multiplicity
 _atom_site_fract_x
 _atom_site_fract_y
 _atom_site_fract_z
 _atom_site_occupancy
  Y  Y0  1  0.63521600  0.83275300  0.06372200  1
  Y  Y1  1  0.13521500  0.33275300  0.43627800  1
  Y  Y2  1  0.36478500  0.16724700  0.93627800  1
  Y  Y3  1  0.86478400  0.66724700  0.56372200  1
  Y  Y4  1  0.93162700  0.17941200  0.92095700  1
  Y  Y5  1  0.43162700  0.67941200  0.57904300  1
  Y  Y6  1  0.06837300  0.82058800  0.07904300  1
  Y  Y7  1  0.56837300  0.32058800  0.42095700  1
  Cr  Cr0  1  0.86080800  0.99831400  0.32914600  1
  Cr  Cr1  1  0.36080800  0.49831400  0.17085400  1
  Cr  Cr2  1  0.13919200  0.00168600  0.67085400  1
  Cr  Cr3  1  0.63919200  0.50168600  0.82914600  1
  Cr  Cr4  1  0.86078600  0.45411500  0.18922400  1
  Cr  Cr5  1  0.36078600  0.95411500  0.31077600  1
  Cr  Cr6  1  0.13921400  0.54588500  0.81077600  1
  Cr  Cr7  1  0.63921400  0.04588500  0.68922400  1
  O  O0  1  0.66284800  0.09508300  0.98468100  1
  O  O1  1  0.16284800  0.59508300  0.51531900  1
  O  O2  1  0.33715200  0.90491700  0.01531900  1
  O  O3  1  0.83715200  0.40491700  0.48468100  1
  O  O4  1  0.92575500  0.31529100  0.09830800  1
  O  O5  1  0.42575500  0.81529100  0.40169200  1
  O  O6  1  0.07424500  0.68470900  0.90169200  1
  O  O7  1  0.57424500  0.18470900  0.59830800  1
  O  O8  1  0.85530600  0.92286100  0.96226000  1
  O  O9  1  0.35530600  0.42286100  0.53774000  1
  O  O10  1  0.14469400  0.07713900  0.03774000  1
  O  O11  1  0.64469400  0.57713900  0.46226000  1
  O  O12  1  0.84104000  0.63207400  0.11883500  1
  O  O13  1  0.34104000  0.13207400  0.38116500  1
  O  O14  1  0.15896000  0.36792600  0.88116500  1
  O  O15  1  0.65896000  0.86792600  0.61883500  1
  O  O16  1  0.84331400  0.93192200  0.19121800  1
  O  O17  1  0.34331400  0.43192200  0.30878200  1
  O  O18  1  0.15668600  0.06807800  0.80878200  1
  O  O19  1  0.65668600  0.56807800  0.69121800  1
  O  O20  1  0.69112400  0.08194800  0.37057700  1
  O  O21  1  0.19112400  0.58194800  0.12942300  1
  O  O22  1  0.30887600  0.91805200  0.62942300  1
  O  O23  1  0.80887600  0.41805200  0.87057700  1
  O  O24  1  0.98403400  0.47611400  0.30325300  1
  O  O25  1  0.48403400  0.97611400  0.19674700  1
  O  O26  1  0.01596600  0.52388600  0.69674700  1
  O  O27  1  0.51596600  0.02388600  0.80325300  1
  O  O28  1  0.00163100  0.13811600  0.33527200  1
  O  O29  1  0.50163100  0.63811600  0.16472800  1
  O  O30  1  0.99836900  0.86188400  0.66472800  1
  O  O31  1  0.49836900  0.36188400  0.83527200  1
  O  O32  1  0.90350400  0.84567800  0.41599600  1
  O  O33  1  0.40350400  0.34567800  0.08400400  1
  O  O34  1  0.09649600  0.15432200  0.58400400  1
  O  O35  1  0.59649600  0.65432200  0.91599600  1
  O  O36  1  0.68684200  0.39265400  0.24152100  1
  O  O37  1  0.18684200  0.89265400  0.25847900  1
  O  O38  1  0.31315800  0.60734600  0.75847900  1
  O  O39  1  0.81315800  0.10734600  0.74152100  1
loop_
_geom_bond_atom_site_label_1
_geom_bond_atom_site_label_2
_geom_bond_distance
_geom_bond_site_symmetry_2
Cr0 O28 1.644390 1_665
Cr0 O20 1.649411 1_565
Cr0 O32 1.661694 1_555
Cr0 O16 1.699250 1_555
Cr1 O29 1.644390 1_555
Cr1 O21 1.649411 1_555
Cr1 O33 1.661694 1_555
Cr1 O17 1.699250 1_555
Cr2 O30 1.644390 1_445
Cr2 O22 1.649411 1_545
Cr2 O34 1.661694 1_555
Cr2 O18 1.699250 1_555
Cr3 O31 1.644390 1_555
Cr3 O23 1.649411 1_555
Cr3 O35 1.661694 1_555
Cr3 O19 1.699250 1_555
Cr4 O36 1.645405 1_555
Cr4 O4 1.657917 1_555
Cr4 O24 1.682622 1_555
Cr4 O12 1.699755 1_555
Cr5 O37 1.645405 1_555
Cr5 O5 1.657917 1_555
Cr5 O25 1.682622 1_555
Cr5 O13 1.699755 1_565
Cr6 O38 1.645405 1_555
Cr6 O6 1.657917 1_555
Cr6 O26 1.682622 1_555
Cr6 O14 1.699755 1_555
Cr7 O39 1.645405 1_555
Cr7 O7 1.657917 1_555
Cr7 O27 1.682622 1_555
Cr7 O15 1.699755 1_545
O0 Y0 2.376186 1_546
O0 Y4 2.450089 1_555
O0 Y2 2.614941 1_555
O1 Y1 2.376187 1_555
O1 Y5 2.450089 1_555
O1 Y3 2.614949 1_455
O2 Y2 2.376187 1_564
O2 Y6 2.450089 1_555
O2 Y0 2.614949 1_555
O3 Y3 2.376186 1_555
O3 Y7 2.450089 1_555
O3 Y1 2.614941 1_655
O4 Y4 2.348953 1_554
O5 Y5 2.348953 1_555
O6 Y6 2.348953 1_556
O7 Y7 2.348953 1_555
O8 Y4 2.272073 1_565
O8 Y0 2.295971 1_556
O8 Y6 2.392096 1_656
O9 Y5 2.272073 1_555
O9 Y1 2.295977 1_555
O9 Y7 2.392096 1_555
O10 Y6 2.272073 1_545
O10 Y2 2.295977 1_554
O10 Y4 2.392096 1_454
O11 Y7 2.272073 1_555
O11 Y3 2.295971 1_555
O11 Y5 2.392096 1_555
O12 Y0 2.483838 1_555
O12 Y6 2.488308 1_655
O13 Y1 2.483844 1_555
O13 Y7 2.488308 1_555
O14 Y2 2.483844 1_555
O14 Y4 2.488308 1_455
O15 Y3 2.483838 1_555
O15 Y5 2.488308 1_555
O16 Y0 2.416080 1_555
O16 Y6 2.465893 1_655
O17 Y1 2.416086 1_555
O17 Y7 2.465893 1_555
O18 Y2 2.416086 1_555
O18 Y4 2.465893 1_455
O19 Y3 2.416080 1_555
O19 Y5 2.465893 1_555
O20 Y7 2.314364 1_555
O21 Y6 2.314364 1_555
O22 Y5 2.314364 1_555
O23 Y4 2.314364 1_555
O24 Y1 2.325844 1_655
O25 Y0 2.325849 1_555
O26 Y3 2.325849 1_455
O27 Y2 2.325844 1_555
O28 Y1 2.279763 1_555
O29 Y0 2.279767 1_555
O30 Y3 2.279767 1_555
O31 Y2 2.279763 1_555
O32 Y3 2.288590 1_555
O33 Y2 2.288589 1_554
O34 Y1 2.288589 1_555
O35 Y0 2.288590 1_556
O36 Y7 2.378264 1_555
O37 Y6 2.378264 1_555
O38 Y5 2.378264 1_555
O39 Y4 2.378264 1_555
