# generated using pymatgen
data_Rb3Mn16O32
_symmetry_space_group_name_H-M   'P 1'
_cell_length_a   8.38787000
_cell_length_b   8.39065858
_cell_length_c   10.26783263
_cell_angle_alpha   112.51031681
_cell_angle_beta   101.78856352
_cell_angle_gamma   106.30580175
_symmetry_Int_Tables_number   1
_chemical_formula_structural   Rb3Mn16O32
_chemical_formula_sum   'Rb3 Mn16 O32'
_cell_volume   599.81407761
_cell_formula_units_Z   1
loop_
 _symmetry_equiv_pos_site_id
 _symmetry_equiv_pos_as_xyz
  1  'x, y, z'
loop_
 _atom_site_type_symbol
 _atom_site_label
 _atom_site_symmetry_multiplicity
 _atom_site_fract_x
 _atom_site_fract_y
 _atom_site_fract_z
 _atom_site_occupancy
  Rb  Rb0  1  0.99966600  0.79482800  0.20549500  1
  Rb  Rb1  1  0.00033400  0.20517200  0.79450500  1
  Rb  Rb2  1  0.00000000  0.50000000  0.50000000  1
  Mn  Mn0  1  0.51320400  0.18262300  0.00131600  1
  Mn  Mn1  1  0.51256700  0.93269700  0.25174700  1
  Mn  Mn2  1  0.81584600  0.62611100  0.88654700  1
  Mn  Mn3  1  0.18415400  0.37388900  0.11345300  1
  Mn  Mn4  1  0.18353900  0.12368000  0.36434600  1
  Mn  Mn5  1  0.18358700  0.87211200  0.61369400  1
  Mn  Mn6  1  0.48679600  0.81737700  0.99868400  1
  Mn  Mn7  1  0.48545100  0.56747600  0.24890500  1
  Mn  Mn8  1  0.51454900  0.43252400  0.75109500  1
  Mn  Mn9  1  0.51205300  0.68197700  0.50207500  1
  Mn  Mn10  1  0.81605200  0.37673100  0.13684800  1
  Mn  Mn11  1  0.81646100  0.87632000  0.63565400  1
  Mn  Mn12  1  0.81641300  0.12788800  0.38630600  1
  Mn  Mn13  1  0.18394800  0.62326900  0.86315200  1
  Mn  Mn14  1  0.48794700  0.31802300  0.49792500  1
  Mn  Mn15  1  0.48743300  0.06730300  0.74825300  1
  O  O0  1  0.63561000  0.01830600  0.03121300  1
  O  O1  1  0.70895100  0.37380800  0.00002600  1
  O  O2  1  0.37679900  0.32442700  0.96840800  1
  O  O3  1  0.37327100  0.82196400  0.46903800  1
  O  O4  1  0.37361600  0.07299400  0.21874900  1
  O  O5  1  0.62320100  0.67557300  0.03159200  1
  O  O6  1  0.04919900  0.12257000  0.24273800  1
  O  O7  1  0.04941800  0.86982000  0.49030700  1
  O  O8  1  0.05027300  0.61725200  0.74177700  1
  O  O9  1  0.04931400  0.37017700  0.99407800  1
  O  O10  1  0.29127400  0.12452100  0.50092600  1
  O  O11  1  0.29079900  0.37550400  0.25094000  1
  O  O12  1  0.29104900  0.62619200  0.99997400  1
  O  O13  1  0.64078700  0.27123800  0.77918700  1
  O  O14  1  0.64029000  0.52244600  0.52747900  1
  O  O15  1  0.63444500  0.76906100  0.28043400  1
  O  O16  1  0.36439000  0.98169400  0.96878700  1
  O  O17  1  0.35971000  0.47755400  0.47252100  1
  O  O18  1  0.35921300  0.72876200  0.22081300  1
  O  O19  1  0.70872600  0.87547900  0.49907400  1
  O  O20  1  0.70920100  0.62449600  0.74906000  1
  O  O21  1  0.70694200  0.12577400  0.25126300  1
  O  O22  1  0.95058200  0.13018000  0.50969300  1
  O  O23  1  0.95080100  0.87743000  0.75726200  1
  O  O24  1  0.94972700  0.38274800  0.25822300  1
  O  O25  1  0.95068600  0.62982300  0.00592200  1
  O  O26  1  0.37416000  0.57129400  0.71926000  1
  O  O27  1  0.62584000  0.42870600  0.28074000  1
  O  O28  1  0.62638400  0.92700600  0.78125100  1
  O  O29  1  0.62672900  0.17803600  0.53096200  1
  O  O30  1  0.29305800  0.87422600  0.74873700  1
  O  O31  1  0.36555500  0.23093900  0.71956600  1
loop_
_geom_bond_atom_site_label_1
_geom_bond_atom_site_label_2
_geom_bond_distance
_geom_bond_site_symmetry_2
Mn0 O16 1.651901 1_544
Mn0 O2 1.937329 1_554
Mn0 O1 1.953337 1_555
Mn0 O0 2.009842 1_555
Mn1 O18 1.692470 1_555
Mn1 O4 1.942531 1_565
Mn1 O21 1.951679 1_565
Mn1 O15 1.997955 1_555
Mn1 O29 2.574163 1_565
Mn2 O25 1.472110 1_556
Mn2 O20 1.501933 1_555
Mn2 O5 2.426507 1_556
Mn3 O9 1.472110 1_554
Mn3 O11 1.501933 1_555
Mn3 O2 2.426507 1_554
Mn4 O6 1.496412 1_555
Mn4 O10 1.501454 1_555
Mn4 O4 2.413614 1_555
Mn5 O30 1.489261 1_555
Mn5 O7 1.502855 1_555
Mn5 O3 2.403660 1_555
Mn6 O0 1.651901 1_566
Mn6 O5 1.937329 1_556
Mn6 O12 1.953337 1_555
Mn6 O16 2.009842 1_555
Mn7 O15 1.660126 1_555
Mn7 O27 1.937355 1_555
Mn7 O11 1.955432 1_555
Mn7 O18 2.003635 1_555
Mn7 O2 2.582822 1_554
Mn8 O31 1.660126 1_555
Mn8 O26 1.937355 1_555
Mn8 O20 1.955432 1_555
Mn8 O13 2.003635 1_555
Mn8 O5 2.582822 1_556
Mn9 O17 1.696839 1_555
Mn9 O3 1.939415 1_555
Mn9 O19 1.978265 1_555
Mn9 O14 1.994493 1_555
Mn9 O28 2.573059 1_555
Mn10 O24 1.470366 1_555
Mn10 O1 1.492262 1_555
Mn11 O23 1.496412 1_555
Mn11 O19 1.501454 1_555
Mn11 O28 2.413614 1_555
Mn12 O21 1.489261 1_555
Mn12 O22 1.502855 1_555
Mn12 O29 2.403660 1_555
Mn13 O8 1.470366 1_555
Mn13 O12 1.492262 1_555
Mn14 O14 1.696839 1_555
Mn14 O29 1.939415 1_555
Mn14 O10 1.978265 1_555
Mn14 O17 1.994493 1_555
Mn14 O4 2.573059 1_555
Mn15 O13 1.692470 1_555
Mn15 O28 1.942531 1_545
Mn15 O30 1.951679 1_545
Mn15 O31 1.997955 1_555
Mn15 O3 2.574163 1_545
O2 Rb1 2.952068 1_555
O5 Rb0 2.952068 1_555
O8 Rb2 2.185828 1_555
O9 Rb1 1.857154 1_555
O24 Rb2 2.185828 1_655
O25 Rb0 1.857154 1_555
