# generated using pymatgen
data_Sc2Fe3Ru
_symmetry_space_group_name_H-M   'P 1'
_cell_length_a   4.93562420
_cell_length_b   4.93562420
_cell_length_c   8.35149500
_cell_angle_alpha   90.00000000
_cell_angle_beta   90.00000000
_cell_angle_gamma   120.00000270
_symmetry_Int_Tables_number   1
_chemical_formula_structural   Sc2Fe3Ru
_chemical_formula_sum   'Sc4 Fe6 Ru2'
_cell_volume   176.18909122
_cell_formula_units_Z   2
loop_
 _symmetry_equiv_pos_site_id
 _symmetry_equiv_pos_as_xyz
  1  'x, y, z'
loop_
 _atom_site_type_symbol
 _atom_site_label
 _atom_site_symmetry_multiplicity
 _atom_site_fract_x
 _atom_site_fract_y
 _atom_site_fract_z
 _atom_site_occupancy
  Sc  Sc0  1  0.33333300  0.66666700  0.43672600  1
  Sc  Sc1  1  0.66666700  0.33333300  0.56327400  1
  Sc  Sc2  1  0.66666700  0.33333300  0.93672600  1
  Sc  Sc3  1  0.33333300  0.66666700  0.06327400  1
  Fe  Fe0  1  0.82787500  0.17212500  0.25000000  1
  Fe  Fe1  1  0.82787500  0.65574900  0.25000000  1
  Fe  Fe2  1  0.34425100  0.17212500  0.25000000  1
  Fe  Fe3  1  0.17212500  0.82787500  0.75000000  1
  Fe  Fe4  1  0.17212500  0.34425100  0.75000000  1
  Fe  Fe5  1  0.65574900  0.82787500  0.75000000  1
  Ru  Ru0  1  0.00000000  0.00000000  0.50000000  1
  Ru  Ru1  1  0.00000000  0.00000000  0.00000000  1
loop_
_geom_bond_atom_site_label_1
_geom_bond_atom_site_label_2
_geom_bond_distance
_geom_bond_site_symmetry_2
Sc0 Sc1 3.039256 1_455
Sc0 Sc1 3.039256 1_565
Sc0 Sc1 3.039264 1_555
Sc0 Sc3 3.118883 1_555
Sc1 Sc2 3.118883 1_555
Sc2 Sc3 3.039256 1_546
Sc2 Sc3 3.039256 1_656
Sc2 Sc3 3.039264 1_556
Fe0 Fe2 2.386986 1_555
Fe0 Fe1 2.386986 1_555
Fe0 Fe2 2.548638 1_655
Fe0 Fe1 2.548638 1_545
Fe0 Ru0 2.554289 1_655
Fe0 Ru1 2.554289 1_655
Fe0 Sc3 2.919611 1_545
Fe0 Sc0 2.919611 1_545
Fe0 Sc3 2.919611 1_655
Fe0 Sc0 2.919611 1_655
Fe0 Sc1 2.957075 1_555
Fe0 Sc2 2.957075 1_554
Fe1 Fe2 2.386986 1_555
Fe1 Fe2 2.548638 1_665
Fe1 Ru1 2.554292 1_665
Fe1 Ru0 2.554292 1_665
Fe1 Sc0 2.919607 1_655
Fe1 Sc3 2.919607 1_655
Fe1 Sc3 2.919616 1_555
Fe1 Sc0 2.919616 1_555
Fe1 Sc1 2.957075 1_555
Fe1 Sc2 2.957075 1_554
Fe2 Ru0 2.554292 1_555
Fe2 Ru1 2.554292 1_555
Fe2 Sc3 2.919607 1_545
Fe2 Sc0 2.919607 1_545
Fe2 Sc3 2.919616 1_555
Fe2 Sc0 2.919616 1_555
Fe2 Sc1 2.957075 1_555
Fe2 Sc2 2.957075 1_554
Fe3 Fe5 2.386986 1_555
Fe3 Fe4 2.386986 1_555
Fe3 Fe4 2.548638 1_565
Fe3 Fe5 2.548638 1_455
Fe3 Ru1 2.554289 1_566
Fe3 Ru0 2.554289 1_565
Fe3 Sc2 2.919611 1_455
Fe3 Sc1 2.919611 1_455
Fe3 Sc2 2.919611 1_565
Fe3 Sc1 2.919611 1_565
Fe3 Sc0 2.957075 1_555
Fe3 Sc3 2.957075 1_556
Fe4 Fe5 2.386986 1_555
Fe4 Fe5 2.548638 1_445
Fe4 Ru0 2.554292 1_555
Fe4 Ru1 2.554292 1_556
Fe4 Sc2 2.919607 1_455
Fe4 Sc1 2.919607 1_455
Fe4 Sc2 2.919616 1_555
Fe4 Sc1 2.919616 1_555
Fe4 Sc0 2.957075 1_555
Fe4 Sc3 2.957075 1_556
Fe5 Ru1 2.554292 1_666
Fe5 Ru0 2.554292 1_665
Fe5 Sc2 2.919607 1_565
Fe5 Sc1 2.919607 1_565
Fe5 Sc2 2.919616 1_555
Fe5 Sc1 2.919616 1_555
Fe5 Sc0 2.957075 1_555
Fe5 Sc3 2.957075 1_556
Ru0 Sc1 2.898164 1_455
Ru0 Sc0 2.898164 1_545
Ru0 Sc1 2.898168 1_555
Ru0 Sc1 2.898168 1_445
Ru0 Sc0 2.898168 1_555
Ru0 Sc0 2.898168 1_445
Ru1 Sc3 2.898164 1_545
Ru1 Sc2 2.898164 1_454
Ru1 Sc3 2.898168 1_555
Ru1 Sc2 2.898168 1_554
Ru1 Sc2 2.898168 1_444
Ru1 Sc3 2.898168 1_445
