# generated using pymatgen
data_La3Mg2(WO6)2
_symmetry_space_group_name_H-M   'P 1'
_cell_length_a   5.64530000
_cell_length_b   5.64530000
_cell_length_c   7.91576400
_cell_angle_alpha   90.00000000
_cell_angle_beta   90.00000000
_cell_angle_gamma   90.00000000
_symmetry_Int_Tables_number   1
_chemical_formula_structural   La3Mg2(WO6)2
_chemical_formula_sum   'La3 Mg2 W2 O12'
_cell_volume   252.27074492
_cell_formula_units_Z   1
loop_
 _symmetry_equiv_pos_site_id
 _symmetry_equiv_pos_as_xyz
  1  'x, y, z'
loop_
 _atom_site_type_symbol
 _atom_site_label
 _atom_site_symmetry_multiplicity
 _atom_site_fract_x
 _atom_site_fract_y
 _atom_site_fract_z
 _atom_site_occupancy
  La  La0  1  0.00000000  0.00000000  0.00000000  1
  La  La1  1  0.50000000  0.50000000  0.00000000  1
  La  La2  1  0.00000000  0.00000000  0.50000000  1
  Mg  Mg0  1  0.50000000  0.00000000  0.74742400  1
  Mg  Mg1  1  0.00000000  0.50000000  0.25257600  1
  W  W0  1  0.50000000  0.00000000  0.25676200  1
  W  W1  1  0.00000000  0.50000000  0.74323800  1
  O  O0  1  0.50000000  0.00000000  0.00460800  1
  O  O1  1  0.00000000  0.50000000  0.99539200  1
  O  O2  1  0.50000000  0.00000000  0.49387000  1
  O  O3  1  0.00000000  0.50000000  0.50613000  1
  O  O4  1  0.76470100  0.24289700  0.76476500  1
  O  O5  1  0.23529900  0.75710300  0.76476500  1
  O  O6  1  0.24289700  0.76470100  0.23523500  1
  O  O7  1  0.75710300  0.23529900  0.23523500  1
  O  O8  1  0.76470100  0.75710300  0.76476500  1
  O  O9  1  0.23529900  0.24289700  0.76476500  1
  O  O10  1  0.75710300  0.76470100  0.23523500  1
  O  O11  1  0.24289700  0.23529900  0.23523500  1
loop_
_geom_bond_atom_site_label_1
_geom_bond_atom_site_label_2
_geom_bond_distance
_geom_bond_site_symmetry_2
La0 O11 2.666836 1_555
La0 O7 2.666836 1_455
La0 O5 2.666836 1_544
La0 O9 2.666836 1_554
La0 O8 2.666836 1_444
La0 O4 2.666836 1_454
La0 O6 2.666836 1_545
La0 O10 2.666836 1_445
La0 O1 2.822886 1_554
La0 O1 2.822886 1_544
La0 O0 2.822886 1_455
La0 O0 2.822886 1_555
La1 O8 2.794083 1_554
La1 O5 2.794083 1_554
La1 O6 2.794083 1_555
La1 O11 2.794083 1_555
La1 O9 2.794083 1_554
La1 O10 2.794083 1_555
La1 O7 2.794083 1_555
La1 O4 2.794083 1_554
La1 O0 2.822886 1_565
La1 O1 2.822886 1_554
La1 O1 2.822886 1_654
La1 O0 2.822886 1_555
La2 O3 2.823067 1_555
La2 O2 2.823067 1_455
La2 O3 2.823067 1_545
La2 O2 2.823067 1_555
La2 O11 2.834992 1_555
La2 O9 2.834992 1_555
La2 O7 2.834992 1_455
La2 O5 2.834992 1_545
La2 O10 2.834992 1_445
La2 O6 2.834992 1_545
La2 O8 2.834992 1_445
La2 O4 2.834992 1_455
Mg0 O2 2.007074 1_555
Mg0 O9 2.032753 1_555
Mg0 O8 2.032753 1_545
Mg0 O5 2.032753 1_545
Mg0 O4 2.032753 1_555
Mg0 O0 2.035808 1_556
Mg1 O3 2.007074 1_555
Mg1 O11 2.032753 1_555
Mg1 O7 2.032753 1_455
Mg1 O6 2.032753 1_555
Mg1 O10 2.032753 1_455
Mg1 O1 2.035808 1_554
O0 W0 1.995992 1_555
O1 W1 1.995992 1_555
O2 W0 1.876891 1_555
O3 W1 1.876891 1_555
O4 W1 1.974876 1_655
O5 W1 1.974876 1_555
O6 W0 1.974876 1_565
O7 W0 1.974876 1_555
O8 W1 1.974876 1_655
O9 W1 1.974876 1_555
O10 W0 1.974876 1_565
O11 W0 1.974876 1_555
