# generated using pymatgen
data_Tb2MgS4
_symmetry_space_group_name_H-M   'P 1'
_cell_length_a   7.58952500
_cell_length_b   12.70208700
_cell_length_c   12.82328600
_cell_angle_alpha   90.00000000
_cell_angle_beta   90.00000000
_cell_angle_gamma   90.00000000
_symmetry_Int_Tables_number   1
_chemical_formula_structural   Tb2MgS4
_chemical_formula_sum   'Tb16 Mg8 S32'
_cell_volume   1236.20076330
_cell_formula_units_Z   8
loop_
 _symmetry_equiv_pos_site_id
 _symmetry_equiv_pos_as_xyz
  1  'x, y, z'
loop_
 _atom_site_type_symbol
 _atom_site_label
 _atom_site_symmetry_multiplicity
 _atom_site_fract_x
 _atom_site_fract_y
 _atom_site_fract_z
 _atom_site_occupancy
  Tb  Tb0  1  0.88281500  0.10937700  0.68533500  1
  Tb  Tb1  1  0.11718500  0.89062300  0.18533500  1
  Tb  Tb2  1  0.88281500  0.39062300  0.18533500  1
  Tb  Tb3  1  0.11718500  0.60937700  0.68533500  1
  Tb  Tb4  1  0.38169500  0.12766800  0.32625900  1
  Tb  Tb5  1  0.61830500  0.87233200  0.82625900  1
  Tb  Tb6  1  0.38169500  0.37233200  0.82625900  1
  Tb  Tb7  1  0.61830500  0.62766800  0.32625900  1
  Tb  Tb8  1  0.62866300  0.13326900  0.99257900  1
  Tb  Tb9  1  0.37133700  0.86673100  0.49257900  1
  Tb  Tb10  1  0.62866300  0.36673100  0.49257900  1
  Tb  Tb11  1  0.37133700  0.63326900  0.99257900  1
  Tb  Tb12  1  0.12879500  0.13366700  0.99141100  1
  Tb  Tb13  1  0.87120500  0.86633300  0.49141100  1
  Tb  Tb14  1  0.12879500  0.36633300  0.49141100  1
  Tb  Tb15  1  0.87120500  0.63366700  0.99141100  1
  Mg  Mg0  1  0.38167500  0.11027900  0.69121900  1
  Mg  Mg1  1  0.61832500  0.88972100  0.19121900  1
  Mg  Mg2  1  0.38167500  0.38972100  0.19121900  1
  Mg  Mg3  1  0.61832500  0.61027900  0.69121900  1
  Mg  Mg4  1  0.87845800  0.12604500  0.32127800  1
  Mg  Mg5  1  0.12154200  0.87395500  0.82127800  1
  Mg  Mg6  1  0.87845800  0.37395500  0.82127800  1
  Mg  Mg7  1  0.12154200  0.62604500  0.32127800  1
  S  S0  1  0.87788400  0.01288700  0.87775200  1
  S  S1  1  0.12211600  0.98711300  0.37775200  1
  S  S2  1  0.87788400  0.48711300  0.37775200  1
  S  S3  1  0.12211600  0.51288700  0.87775200  1
  S  S4  1  0.37733500  0.03260900  0.13020700  1
  S  S5  1  0.62266500  0.96739100  0.63020700  1
  S  S6  1  0.37733500  0.46739100  0.63020700  1
  S  S7  1  0.62266500  0.53260900  0.13020700  1
  S  S8  1  0.37229700  0.02147700  0.86896400  1
  S  S9  1  0.62770300  0.97852300  0.36896400  1
  S  S10  1  0.37229700  0.47852300  0.36896400  1
  S  S11  1  0.62770300  0.52147700  0.86896400  1
  S  S12  1  0.87249100  0.04187200  0.13737800  1
  S  S13  1  0.12750900  0.95812800  0.63737800  1
  S  S14  1  0.87249100  0.45812800  0.63737800  1
  S  S15  1  0.12750900  0.54187200  0.13737800  1
  S  S16  1  0.87918100  0.21233400  0.50107500  1
  S  S17  1  0.12081900  0.78766600  0.00107500  1
  S  S18  1  0.87918100  0.28766600  0.00107500  1
  S  S19  1  0.12081900  0.71233400  0.50107500  1
  S  S20  1  0.37958200  0.21268100  0.52007300  1
  S  S21  1  0.62041800  0.78731900  0.02007300  1
  S  S22  1  0.37958200  0.28731900  0.02007300  1
  S  S23  1  0.62041800  0.71268100  0.52007300  1
  S  S24  1  0.12832700  0.23255200  0.77630300  1
  S  S25  1  0.87167300  0.76744800  0.27630300  1
  S  S26  1  0.12832700  0.26744800  0.27630300  1
  S  S27  1  0.87167300  0.73255200  0.77630300  1
  S  S28  1  0.63114100  0.23102100  0.77716800  1
  S  S29  1  0.36885900  0.76897900  0.27716800  1
  S  S30  1  0.63114100  0.26897900  0.27716800  1
  S  S31  1  0.36885900  0.73102100  0.77716800  1
loop_
_geom_bond_atom_site_label_1
_geom_bond_atom_site_label_2
_geom_bond_distance
_geom_bond_site_symmetry_2
Mg0 S8 2.544107 1_555
Mg0 S20 2.551202 1_555
Mg0 S28 2.674245 1_555
Mg0 S5 2.692858 1_545
Mg0 S24 2.701799 1_555
Mg0 S13 2.816522 1_545
Mg1 S9 2.544107 1_555
Mg1 S21 2.551202 1_555
Mg1 S29 2.674245 1_555
Mg1 S4 2.692858 1_565
Mg1 S25 2.701799 1_555
Mg1 S12 2.816522 1_565
Mg2 S10 2.544107 1_555
Mg2 S22 2.551202 1_555
Mg2 S30 2.674245 1_555
Mg2 S7 2.692858 1_555
Mg2 S26 2.701799 1_555
Mg2 S15 2.816522 1_555
Mg3 S11 2.544107 1_555
Mg3 S23 2.551202 1_555
Mg3 S31 2.674245 1_555
Mg3 S6 2.692858 1_555
Mg3 S27 2.701799 1_555
Mg3 S14 2.816522 1_555
Mg4 S16 2.552860 1_555
Mg4 S12 2.589652 1_555
Mg4 S1 2.656769 1_645
Mg4 S30 2.671966 1_555
Mg4 S26 2.674868 1_655
Mg4 S9 2.739894 1_545
Mg5 S17 2.552860 1_556
Mg5 S13 2.589652 1_555
Mg5 S0 2.656769 1_465
Mg5 S31 2.671966 1_555
Mg5 S27 2.674868 1_455
Mg5 S8 2.739894 1_565
Mg6 S18 2.552860 1_556
Mg6 S14 2.589652 1_555
Mg6 S3 2.656769 1_655
Mg6 S28 2.671966 1_555
Mg6 S24 2.674868 1_655
Mg6 S11 2.739894 1_555
Mg7 S19 2.552860 1_555
Mg7 S15 2.589652 1_555
Mg7 S2 2.656769 1_455
Mg7 S29 2.671966 1_555
Mg7 S25 2.674868 1_455
Mg7 S10 2.739894 1_555
S0 Tb5 2.739466 1_545
S0 Tb0 2.755305 1_555
S0 Tb8 2.843228 1_555
S0 Tb12 2.846794 1_655
S1 Tb4 2.739466 1_565
S1 Tb1 2.755305 1_555
S1 Tb9 2.843228 1_555
S1 Tb13 2.846794 1_455
S2 Tb7 2.739466 1_555
S2 Tb2 2.755305 1_555
S2 Tb10 2.843228 1_555
S2 Tb14 2.846794 1_655
S3 Tb6 2.739466 1_555
S3 Tb3 2.755305 1_555
S3 Tb11 2.843228 1_555
S3 Tb15 2.846794 1_455
S4 Tb1 2.765996 1_545
S4 Tb4 2.789153 1_555
S4 Tb12 2.893725 1_554
S4 Tb8 2.896183 1_554
S5 Tb0 2.765996 1_565
S5 Tb5 2.789153 1_555
S5 Tb13 2.893725 1_555
S5 Tb9 2.896183 1_555
S6 Tb3 2.765996 1_555
S6 Tb6 2.789153 1_555
S6 Tb14 2.893725 1_555
S6 Tb10 2.896183 1_555
S7 Tb2 2.765996 1_555
S7 Tb7 2.789153 1_555
S7 Tb15 2.893725 1_554
S7 Tb11 2.896183 1_554
S8 Tb5 2.715666 1_545
S8 Tb12 2.812747 1_555
S8 Tb8 2.883542 1_555
S9 Tb4 2.715666 1_565
S9 Tb13 2.812747 1_555
S9 Tb9 2.883542 1_555
S10 Tb7 2.715666 1_555
S10 Tb14 2.812747 1_555
S10 Tb10 2.883542 1_555
S11 Tb6 2.715666 1_555
S11 Tb15 2.812747 1_555
S11 Tb11 2.883542 1_555
S12 Tb1 2.741892 1_645
S12 Tb8 2.867047 1_554
S12 Tb12 2.940575 1_654
S13 Tb0 2.741892 1_465
S13 Tb9 2.867047 1_555
S13 Tb13 2.940575 1_455
S14 Tb3 2.741892 1_655
S14 Tb10 2.867047 1_555
S14 Tb14 2.940575 1_655
S15 Tb2 2.741892 1_455
S15 Tb11 2.867047 1_554
S15 Tb15 2.940575 1_454
S16 Tb0 2.700728 1_555
S16 Tb14 2.725925 1_655
S16 Tb10 2.733683 1_555
S17 Tb1 2.700728 1_555
S17 Tb15 2.725925 1_454
S17 Tb11 2.733683 1_554
S18 Tb2 2.700728 1_555
S18 Tb12 2.725925 1_654
S18 Tb8 2.733683 1_554
S19 Tb3 2.700728 1_555
S19 Tb13 2.725925 1_455
S19 Tb9 2.733683 1_555
S20 Tb4 2.709833 1_555
S20 Tb10 2.743508 1_555
S20 Tb14 2.750815 1_555
S21 Tb5 2.709833 1_554
S21 Tb11 2.743508 1_554
S21 Tb15 2.750815 1_554
S22 Tb6 2.709833 1_554
S22 Tb8 2.743508 1_554
S22 Tb12 2.750815 1_554
S23 Tb7 2.709833 1_555
S23 Tb9 2.743508 1_555
S23 Tb13 2.750815 1_555
S24 Tb6 2.694526 1_555
S24 Tb0 2.698261 1_455
S24 Tb12 3.030905 1_555
S25 Tb7 2.694526 1_555
S25 Tb1 2.698261 1_655
S25 Tb13 3.030905 1_555
S26 Tb4 2.694526 1_555
S26 Tb2 2.698261 1_455
S26 Tb14 3.030905 1_555
S27 Tb5 2.694526 1_555
S27 Tb3 2.698261 1_655
S27 Tb15 3.030905 1_555
S28 Tb6 2.683696 1_555
S28 Tb0 2.724446 1_555
S28 Tb8 3.028569 1_555
S29 Tb7 2.683696 1_555
S29 Tb1 2.724446 1_555
S29 Tb9 3.028569 1_555
S30 Tb4 2.683696 1_555
S30 Tb2 2.724446 1_555
S30 Tb10 3.028569 1_555
S31 Tb5 2.683696 1_555
S31 Tb3 2.724446 1_555
S31 Tb11 3.028569 1_555
