# generated using pymatgen
data_Mg5Sn
_symmetry_space_group_name_H-M   'P 1'
_cell_length_a   6.08059122
_cell_length_b   6.08059122
_cell_length_c   6.08059133
_cell_angle_alpha   53.83253050
_cell_angle_beta   53.83253050
_cell_angle_gamma   53.83251775
_symmetry_Int_Tables_number   1
_chemical_formula_structural   Mg5Sn
_chemical_formula_sum   'Mg5 Sn1'
_cell_volume   136.05755929
_cell_formula_units_Z   1
loop_
 _symmetry_equiv_pos_site_id
 _symmetry_equiv_pos_as_xyz
  1  'x, y, z'
loop_
 _atom_site_type_symbol
 _atom_site_label
 _atom_site_symmetry_multiplicity
 _atom_site_fract_x
 _atom_site_fract_y
 _atom_site_fract_z
 _atom_site_occupancy
  Mg  Mg0  1  0.00000000  0.66590682  0.33409318  1
  Mg  Mg1  1  0.83286619  0.83286619  0.83286619  1
  Mg  Mg2  1  0.66590682  0.33409318  -0.00000000  1
  Mg  Mg3  1  0.33409318  -0.00000000  0.66590682  1
  Mg  Mg4  1  0.16713381  0.16713381  0.16713381  1
  Sn  Sn0  1  0.50000000  0.50000000  0.50000000  1
loop_
_geom_bond_atom_site_label_1
_geom_bond_atom_site_label_2
_geom_bond_distance
_geom_bond_site_symmetry_2
Mg0 Mg4 3.168597 1_555
Mg0 Mg1 3.168597 1_455
Mg0 Sn0 3.174525 1_555
Mg0 Sn0 3.174526 1_455
Mg0 Mg3 3.174823 1_555
Mg0 Mg3 3.174823 1_465
Mg0 Mg2 3.174823 1_555
Mg0 Mg2 3.174824 1_456
Mg0 Mg1 3.184078 1_454
Mg0 Mg4 3.184078 1_565
Mg0 Mg2 3.185685 1_465
Mg0 Mg3 3.185686 1_564
Mg1 Mg3 3.168597 1_565
Mg1 Mg2 3.168597 1_556
Mg1 Sn0 3.178448 1_565
Mg1 Sn0 3.178448 1_655
Mg1 Sn0 3.178449 1_556
Mg1 Mg4 3.178473 1_656
Mg1 Mg4 3.178473 1_566
Mg1 Mg4 3.178474 1_665
Mg1 Mg2 3.184078 1_566
Mg1 Mg3 3.184078 1_665
Mg2 Mg4 3.168597 1_555
Mg2 Sn0 3.174525 1_555
Mg2 Sn0 3.174525 1_554
Mg2 Mg3 3.174823 1_564
Mg2 Mg3 3.174824 1_555
Mg2 Mg4 3.184078 1_655
Mg2 Mg3 3.185685 1_654
Mg3 Mg4 3.168597 1_555
Mg3 Sn0 3.174525 1_545
Mg3 Sn0 3.174526 1_555
Mg3 Mg4 3.184078 1_556
Mg4 Sn0 3.178448 1_455
Mg4 Sn0 3.178448 1_545
Mg4 Sn0 3.178449 1_554
