# generated using pymatgen
data_Li9Mn2Co5O16
_symmetry_space_group_name_H-M   'P 1'
_cell_length_a   5.91273000
_cell_length_b   6.50027393
_cell_length_c   7.74876962
_cell_angle_alpha   87.06988001
_cell_angle_beta   81.49905107
_cell_angle_gamma   76.55376479
_symmetry_Int_Tables_number   1
_chemical_formula_structural   Li9Mn2Co5O16
_chemical_formula_sum   'Li9 Mn2 Co5 O16'
_cell_volume   286.42965934
_cell_formula_units_Z   1
loop_
 _symmetry_equiv_pos_site_id
 _symmetry_equiv_pos_as_xyz
  1  'x, y, z'
loop_
 _atom_site_type_symbol
 _atom_site_label
 _atom_site_symmetry_multiplicity
 _atom_site_fract_x
 _atom_site_fract_y
 _atom_site_fract_z
 _atom_site_occupancy
  Li  Li0  1  0.93860300  0.86292500  0.38910900  1
  Li  Li1  1  0.69264000  0.38130600  0.86247000  1
  Li  Li2  1  0.57884500  0.11422500  0.62616000  1
  Li  Li3  1  0.31012900  0.63445700  0.12265900  1
  Li  Li4  1  0.17945500  0.39025000  0.86713400  1
  Li  Li5  1  0.81673100  0.62849900  0.11663400  1
  Li  Li6  1  0.42857900  0.86758700  0.38607000  1
  Li  Li7  1  0.04357700  0.11914200  0.63456500  1
  Li  Li8  1  0.87279100  0.75017100  0.74832300  1
  Mn  Mn0  1  0.99702400  0.99817300  0.99543800  1
  Mn  Mn1  1  0.63011500  0.24932100  0.24892500  1
  Co  Co0  1  0.75203100  0.50201500  0.50310900  1
  Co  Co1  1  0.50352200  0.00191600  0.99310100  1
  Co  Co2  1  0.24850000  0.49570000  0.50925100  1
  Co  Co3  1  0.36692600  0.75359900  0.74644700  1
  Co  Co4  1  0.13053600  0.25020400  0.25357700  1
  O  O0  1  0.20072300  0.95981300  0.18215900  1
  O  O1  1  0.96295600  0.43915100  0.66688700  1
  O  O2  1  0.84076600  0.20513400  0.42439100  1
  O  O3  1  0.56945900  0.71833200  0.93393600  1
  O  O4  1  0.44959900  0.43880800  0.68443300  1
  O  O5  1  0.09137500  0.70959700  0.94016800  1
  O  O6  1  0.73087200  0.95531000  0.17031200  1
  O  O7  1  0.37693500  0.18775200  0.41718000  1
  O  O8  1  0.65355000  0.78742200  0.56306300  1
  O  O9  1  0.41951300  0.29008100  0.07358000  1
  O  O10  1  0.25955400  0.06109300  0.83692300  1
  O  O11  1  0.05974700  0.54217200  0.31284800  1
  O  O12  1  0.89209500  0.29913500  0.07455100  1
  O  O13  1  0.54544100  0.53960300  0.32041200  1
  O  O14  1  0.16907100  0.80656300  0.56969500  1
  O  O15  1  0.78833700  0.06054400  0.82649000  1
loop_
_geom_bond_atom_site_label_1
_geom_bond_atom_site_label_2
_geom_bond_distance
_geom_bond_site_symmetry_2
Li0 O14 2.056313 1_655
Li0 O11 2.125015 1_655
Li0 O8 2.131640 1_555
Li0 O2 2.185072 1_565
Li0 O6 2.216348 1_555
Li0 O0 2.232962 1_655
Li1 O15 2.051683 1_555
Li1 O4 2.095613 1_555
Li1 O1 2.120819 1_555
Li1 O12 2.137067 1_556
Li1 O3 2.213435 1_555
Li1 O9 2.280515 1_556
Li2 O15 2.092324 1_555
Li2 O4 2.117782 1_555
Li2 O7 2.122031 1_555
Li2 O8 2.133728 1_545
Li2 O2 2.192552 1_555
Li2 O10 2.384237 1_555
Li3 O5 2.021755 1_554
Li3 O11 2.097864 1_555
Li3 O3 2.105059 1_554
Li3 O0 2.116388 1_555
Li3 O13 2.190623 1_555
Li3 O9 2.216975 1_555
Li4 O4 2.043385 1_555
Li4 O10 2.098619 1_555
Li4 O5 2.104949 1_555
Li4 O1 2.120131 1_455
Li4 O9 2.265548 1_556
Li4 O12 2.320379 1_456
Li5 O5 2.110126 1_654
Li5 O6 2.114235 1_555
Li5 O12 2.115024 1_555
Li5 O3 2.147818 1_554
Li5 O11 2.207916 1_655
Li5 O13 2.233653 1_555
Li6 O8 2.016393 1_555
Li6 O14 2.028834 1_555
Li6 O7 2.053427 1_565
Li6 O13 2.145578 1_555
Li6 O0 2.197264 1_555
Li6 O6 2.409987 1_555
Li7 O1 2.042984 1_455
Li7 O15 2.044565 1_455
Li7 O14 2.055395 1_545
Li7 O10 2.130557 1_555
Li7 O2 2.139006 1_455
Li7 O7 2.504354 1_555
Li8 O8 2.041688 1_555
Li8 O15 2.062413 1_565
Li8 O1 2.073513 1_555
Li8 O5 2.078273 1_655
Li8 O14 2.156154 1_655
Li8 O3 2.169727 1_555
Mn0 O5 1.881003 1_655
Mn0 O15 1.895103 1_565
Mn0 O10 1.940547 1_665
Mn0 O6 1.981200 1_556
Mn0 O0 1.986165 1_656
Mn0 O12 2.008398 1_566
Mn1 O13 1.924438 1_555
Mn1 O7 1.936286 1_555
Mn1 O2 1.943408 1_555
Mn1 O9 1.943416 1_555
Mn1 O6 1.964868 1_545
Mn1 O12 1.974775 1_555
Co0 O8 1.871491 1_555
Co0 O1 1.873716 1_555
Co0 O13 1.973075 1_555
Co0 O2 1.981499 1_555
Co0 O4 2.209172 1_555
Co0 O11 2.222726 1_655
Co1 O3 1.859982 1_545
Co1 O9 1.933766 1_556
Co1 O10 1.975816 1_555
Co1 O6 2.024405 1_546
Co1 O15 2.062365 1_555
Co1 O0 2.199521 1_546
Co2 O4 1.901216 1_555
Co2 O11 1.987789 1_555
Co2 O1 2.027474 1_455
Co2 O14 2.028180 1_555
Co2 O7 2.090822 1_555
Co2 O13 2.176227 1_555
Co3 O14 1.897665 1_555
Co3 O3 1.987439 1_555
Co3 O4 2.054947 1_555
Co3 O10 2.076359 1_565
Co3 O8 2.090225 1_555
Co3 O5 2.106977 1_555
Co4 O11 1.910730 1_555
Co4 O0 1.927738 1_545
Co4 O7 2.028011 1_555
Co4 O2 2.072818 1_455
Co4 O12 2.082736 1_455
Co4 O9 2.096767 1_555
