# generated using pymatgen
data_KNa2Tb(SiO3)8
_symmetry_space_group_name_H-M   'P 1'
_cell_length_a   14.03390848
_cell_length_b   14.03390848
_cell_length_c   6.64893981
_cell_angle_alpha   89.62990111
_cell_angle_beta   89.62990111
_cell_angle_gamma   60.98324666
_symmetry_Int_Tables_number   1
_chemical_formula_structural   KNa2Tb(SiO3)8
_chemical_formula_sum   'K2 Na4 Tb2 Si16 O48'
_cell_volume   1145.10766863
_cell_formula_units_Z   2
loop_
 _symmetry_equiv_pos_site_id
 _symmetry_equiv_pos_as_xyz
  1  'x, y, z'
loop_
 _atom_site_type_symbol
 _atom_site_label
 _atom_site_symmetry_multiplicity
 _atom_site_fract_x
 _atom_site_fract_y
 _atom_site_fract_z
 _atom_site_occupancy
  K  K0  1  0.00000000  0.50000000  0.00000000  1
  K  K1  1  0.50000000  0.00000000  0.00000000  1
  Na  Na0  1  0.25673800  0.74326200  0.00000000  1
  Na  Na1  1  0.74326200  0.25673800  0.00000000  1
  Na  Na2  1  0.89108000  0.10892000  0.50000000  1
  Na  Na3  1  0.10892000  0.89108000  0.50000000  1
  Tb  Tb0  1  0.50000000  0.50000000  0.00000000  1
  Tb  Tb1  1  0.00000000  0.00000000  0.00000000  1
  Si  Si0  1  0.25013100  0.52396000  0.23296700  1
  Si  Si1  1  0.52396000  0.25013100  0.23296700  1
  Si  Si2  1  0.74986900  0.47604000  0.76703300  1
  Si  Si3  1  0.47604000  0.74986900  0.76703300  1
  Si  Si4  1  0.11189800  0.11189800  0.39991700  1
  Si  Si5  1  0.88810200  0.88810200  0.60008300  1
  Si  Si6  1  0.97044100  0.25049200  0.76497600  1
  Si  Si7  1  0.25049200  0.97044100  0.76497600  1
  Si  Si8  1  0.02955900  0.74950800  0.23502400  1
  Si  Si9  1  0.74950800  0.02955900  0.23502400  1
  Si  Si10  1  0.31565200  0.31565200  0.98533700  1
  Si  Si11  1  0.68434800  0.68434800  0.01466300  1
  Si  Si12  1  0.39048500  0.39048500  0.60128400  1
  Si  Si13  1  0.60951500  0.60951500  0.39871600  1
  Si  Si14  1  0.18211300  0.18211300  0.01338300  1
  Si  Si15  1  0.81788700  0.81788700  0.98661700  1
  O  O0  1  0.28832800  0.47489700  0.45888200  1
  O  O1  1  0.47489700  0.28832800  0.45888200  1
  O  O2  1  0.71167200  0.52510300  0.54111800  1
  O  O3  1  0.52510300  0.71167200  0.54111800  1
  O  O4  1  0.06326600  0.25568400  0.91036900  1
  O  O5  1  0.25568400  0.06326600  0.91036900  1
  O  O6  1  0.93673400  0.74431600  0.08963100  1
  O  O7  1  0.74431600  0.93673400  0.08963100  1
  O  O8  1  0.44691000  0.44691000  0.72368700  1
  O  O9  1  0.55309000  0.55309000  0.27631300  1
  O  O10  1  0.24841600  0.24841600  0.98597800  1
  O  O11  1  0.75158400  0.75158400  0.01402200  1
  O  O12  1  0.92984700  0.16822400  0.84893400  1
  O  O13  1  0.16822400  0.92984700  0.84893400  1
  O  O14  1  0.07015300  0.83177600  0.15106600  1
  O  O15  1  0.83177600  0.07015300  0.15106600  1
  O  O16  1  0.12289700  0.62215600  0.24957500  1
  O  O17  1  0.62215600  0.12289700  0.24957500  1
  O  O18  1  0.87710300  0.37784400  0.75042500  1
  O  O19  1  0.37784400  0.87710300  0.75042500  1
  O  O20  1  0.33588000  0.33588000  0.75357900  1
  O  O21  1  0.66412000  0.66412000  0.24642100  1
  O  O22  1  0.23706200  0.43002100  0.10115600  1
  O  O23  1  0.43002100  0.23706200  0.10115600  1
  O  O24  1  0.76293800  0.56997900  0.89884400  1
  O  O25  1  0.56997900  0.76293800  0.89884400  1
  O  O26  1  0.05263600  0.05263600  0.28988400  1
  O  O27  1  0.94736400  0.94736400  0.71011600  1
  O  O28  1  0.16629600  0.16629600  0.25073000  1
  O  O29  1  0.83370400  0.83370400  0.74927000  1
  O  O30  1  0.32685300  0.56344800  0.12434400  1
  O  O31  1  0.56344800  0.32685300  0.12434400  1
  O  O32  1  0.67314700  0.43655200  0.87565600  1
  O  O33  1  0.43655200  0.67314700  0.87565600  1
  O  O34  1  0.02347800  0.21257800  0.53951100  1
  O  O35  1  0.21257800  0.02347800  0.53951100  1
  O  O36  1  0.97652200  0.78742200  0.46048900  1
  O  O37  1  0.78742200  0.97652200  0.46048900  1
  O  O38  1  0.22875800  0.70578800  0.61658900  1
  O  O39  1  0.70578800  0.22875800  0.61658900  1
  O  O40  1  0.77124200  0.29421200  0.38341100  1
  O  O41  1  0.29421200  0.77124200  0.38341100  1
  O  O42  1  0.02998900  0.51011900  0.55307300  1
  O  O43  1  0.51011900  0.02998900  0.55307300  1
  O  O44  1  0.97001100  0.48988100  0.44692700  1
  O  O45  1  0.48988100  0.97001100  0.44692700  1
  O  O46  1  0.31101800  0.68898200  0.50000000  1
  O  O47  1  0.68898200  0.31101800  0.50000000  1
loop_
_geom_bond_atom_site_label_1
_geom_bond_atom_site_label_2
_geom_bond_distance
_geom_bond_site_symmetry_2
K0 O42 3.010651 1_554
K0 O44 3.010651 1_455
K0 O22 3.055459 1_555
K0 O24 3.055459 1_454
K0 O6 3.156859 1_455
K0 O4 3.156859 1_554
K1 O43 3.010651 1_554
K1 O45 3.010651 1_545
K1 O23 3.055459 1_555
K1 O25 3.055459 1_544
K1 O7 3.156859 1_545
K1 O5 3.156859 1_554
Na0 O33 2.365251 1_554
Na0 O30 2.365251 1_555
Na0 O13 2.497027 1_554
Na0 O14 2.497027 1_555
Na0 O41 2.675849 1_555
Na0 O38 2.675849 1_554
Na1 O31 2.365251 1_555
Na1 O32 2.365251 1_554
Na1 O12 2.497027 1_554
Na1 O15 2.497027 1_555
Na1 O40 2.675849 1_555
Na1 O39 2.675849 1_554
Na2 O40 2.437094 1_555
Na2 O39 2.437094 1_555
Na2 O26 2.439691 1_655
Na2 O27 2.439691 1_545
Na2 O12 2.617590 1_555
Na2 O15 2.617590 1_555
Na2 O34 2.875955 1_655
Na2 O37 2.875955 1_545
Na3 O38 2.437094 1_555
Na3 O41 2.437094 1_555
Na3 O26 2.439691 1_565
Na3 O27 2.439691 1_455
Na3 O13 2.617590 1_555
Na3 O14 2.617590 1_555
Na3 O35 2.875955 1_565
Na3 O36 2.875955 1_455
O0 Si0 1.629941 1_555
O0 Si12 1.646397 1_555
O1 Si1 1.629941 1_555
O1 Si12 1.646397 1_555
O2 Si2 1.629941 1_555
O2 Si13 1.646397 1_555
O3 Si3 1.629941 1_555
O3 Si13 1.646397 1_555
O4 Si14 1.628497 1_556
O4 Si6 1.657142 1_455
O5 Si14 1.628497 1_556
O5 Si7 1.657142 1_545
O6 Si15 1.628497 1_554
O6 Si8 1.657142 1_655
O7 Si15 1.628497 1_554
O7 Si9 1.657142 1_565
O8 Si12 1.594182 1_555
O8 Tb0 2.249309 1_556
O9 Si13 1.594182 1_555
O9 Tb0 2.249309 1_555
O10 Si14 1.612574 1_556
O10 Si10 1.626152 1_555
O11 Si15 1.612574 1_554
O11 Si11 1.626152 1_555
O12 Si6 1.610836 1_555
O12 Tb1 2.297606 1_656
O13 Si7 1.610836 1_555
O13 Tb1 2.297606 1_566
O14 Si8 1.610836 1_555
O14 Tb1 2.297606 1_565
O15 Si9 1.610836 1_555
O15 Tb1 2.297606 1_655
O16 Si8 1.627164 1_555
O16 Si0 1.646771 1_555
O17 Si9 1.627164 1_555
O17 Si1 1.646771 1_555
O18 Si6 1.627164 1_555
O18 Si2 1.646771 1_555
O19 Si7 1.627164 1_555
O19 Si3 1.646771 1_555
O20 Si10 1.613246 1_555
O20 Si12 1.658166 1_555
O21 Si11 1.613246 1_555
O21 Si13 1.658166 1_555
O22 Si10 1.635008 1_554
O22 Si0 1.670717 1_555
O23 Si10 1.635008 1_554
O23 Si1 1.670717 1_555
O24 Si11 1.635008 1_556
O24 Si2 1.670717 1_555
O25 Si11 1.635008 1_556
O25 Si3 1.670717 1_555
O26 Si4 1.614115 1_555
O26 Tb1 2.317849 1_555
O27 Si5 1.614115 1_555
O27 Tb1 2.317849 1_666
O28 Si14 1.621022 1_555
O28 Si4 1.641760 1_555
O29 Si15 1.621022 1_555
O29 Si5 1.641760 1_555
O30 Si0 1.597393 1_555
O30 Tb0 2.294658 1_555
O31 Si1 1.597393 1_555
O31 Tb0 2.294658 1_555
O32 Si2 1.597393 1_555
O32 Tb0 2.294658 1_556
O33 Si3 1.597393 1_555
O33 Tb0 2.294658 1_556
O34 Si6 1.641984 1_455
O34 Si4 1.642797 1_555
O35 Si7 1.641984 1_545
O35 Si4 1.642797 1_555
O36 Si8 1.641984 1_655
O36 Si5 1.642797 1_555
O37 Si9 1.641984 1_565
O37 Si5 1.642797 1_555
O38 O46 1.309930 1_555
O39 O47 1.309930 1_555
O40 O47 1.309930 1_555
O41 O46 1.309930 1_555
O42 O44 1.236710 1_455
O43 O45 1.236710 1_545
