# generated using pymatgen
data_TlIn4S5Cl
_symmetry_space_group_name_H-M   'P 1'
_cell_length_a   3.99489500
_cell_length_b   9.11432008
_cell_length_c   15.22989069
_cell_angle_alpha   93.38787669
_cell_angle_beta   90.00000000
_cell_angle_gamma   90.00000000
_symmetry_Int_Tables_number   1
_chemical_formula_structural   TlIn4S5Cl
_chemical_formula_sum   'Tl2 In8 S10 Cl2'
_cell_volume   553.56264374
_cell_formula_units_Z   2
loop_
 _symmetry_equiv_pos_site_id
 _symmetry_equiv_pos_as_xyz
  1  'x, y, z'
loop_
 _atom_site_type_symbol
 _atom_site_label
 _atom_site_symmetry_multiplicity
 _atom_site_fract_x
 _atom_site_fract_y
 _atom_site_fract_z
 _atom_site_occupancy
  Tl  Tl0  1  0.75000000  0.60720300  0.65652000  1
  Tl  Tl1  1  0.25000000  0.39279700  0.34348000  1
  In  In0  1  0.75000000  0.23652100  0.79376500  1
  In  In1  1  0.25000000  0.76347900  0.20623500  1
  In  In2  1  0.75000000  0.86865700  0.43705800  1
  In  In3  1  0.25000000  0.13134300  0.56294200  1
  In  In4  1  0.75000000  0.34120500  0.05329400  1
  In  In5  1  0.25000000  0.65879500  0.94670600  1
  In  In6  1  0.75000000  0.95314600  0.85451400  1
  In  In7  1  0.25000000  0.04685400  0.14548600  1
  S  S0  1  0.75000000  0.46769700  0.89987900  1
  S  S1  1  0.25000000  0.53230300  0.10012100  1
  S  S2  1  0.75000000  0.83158400  0.00059000  1
  S  S3  1  0.25000000  0.16841600  0.99941000  1
  S  S4  1  0.75000000  0.96660700  0.60021400  1
  S  S5  1  0.25000000  0.03339300  0.39978600  1
  S  S6  1  0.75000000  0.20678100  0.20186200  1
  S  S7  1  0.25000000  0.79321900  0.79813800  1
  S  S8  1  0.75000000  0.68828500  0.30093100  1
  S  S9  1  0.25000000  0.31171500  0.69906900  1
  Cl  Cl0  1  0.75000000  0.32656500  0.50387300  1
  Cl  Cl1  1  0.25000000  0.67343500  0.49612700  1
loop_
_geom_bond_atom_site_label_1
_geom_bond_atom_site_label_2
_geom_bond_distance
_geom_bond_site_symmetry_2
In0 S0 2.578534 1_555
In0 S9 2.579977 1_655
In0 S9 2.579977 1_555
In1 S1 2.578534 1_555
In1 S8 2.579977 1_455
In1 S8 2.579977 1_555
In2 S8 2.568650 1_555
In2 S5 2.582078 1_565
In2 S5 2.582078 1_665
In2 S4 2.590228 1_555
In3 S9 2.568650 1_555
In3 S4 2.582078 1_445
In3 S4 2.582078 1_545
In3 S5 2.590228 1_555
In4 S6 2.635985 1_555
In4 S3 2.643989 1_554
In4 S3 2.643989 1_654
In4 S0 2.665844 1_554
In4 S1 2.717575 1_555
In4 S1 2.717575 1_655
In5 S7 2.635985 1_555
In5 S2 2.643989 1_456
In5 S2 2.643989 1_556
In5 S1 2.665844 1_556
In5 S0 2.717575 1_555
In5 S0 2.717575 1_455
In6 S2 2.543281 1_556
In6 S7 2.589159 1_555
In6 S7 2.589159 1_655
In7 S3 2.543281 1_554
In7 S6 2.589159 1_555
In7 S6 2.589159 1_455
Cl0 In3 2.855565 1_655
Cl0 In3 2.855565 1_555
Cl1 In2 2.855565 1_555
Cl1 In2 2.855565 1_455
