# generated using pymatgen
data_Mg16Al12Cr
_symmetry_space_group_name_H-M   'P 1'
_cell_length_a   9.03998183
_cell_length_b   9.03998183
_cell_length_c   9.03998173
_cell_angle_alpha   109.15646124
_cell_angle_beta   109.15646124
_cell_angle_gamma   109.15645546
_symmetry_Int_Tables_number   1
_chemical_formula_structural   Mg16Al12Cr
_chemical_formula_sum   'Mg16 Al12 Cr1'
_cell_volume   575.22876717
_cell_formula_units_Z   1
loop_
 _symmetry_equiv_pos_site_id
 _symmetry_equiv_pos_as_xyz
  1  'x, y, z'
loop_
 _atom_site_type_symbol
 _atom_site_label
 _atom_site_symmetry_multiplicity
 _atom_site_fract_x
 _atom_site_fract_y
 _atom_site_fract_z
 _atom_site_occupancy
  Mg  Mg0  1  0.59077100  0.29300600  0.59077100  1
  Mg  Mg1  1  0.00393000  0.65347900  0.00393000  1
  Mg  Mg2  1  0.31859900  0.71707200  0.31859900  1
  Mg  Mg3  1  0.99265700  0.99265700  0.99265700  1
  Mg  Mg4  1  0.40191200  0.00240200  0.68398300  1
  Mg  Mg5  1  0.29300600  0.59077100  0.59077100  1
  Mg  Mg6  1  0.68398300  0.40191200  0.00240200  1
  Mg  Mg7  1  0.65347900  0.00393000  0.00393000  1
  Mg  Mg8  1  0.31859900  0.31859900  0.71707200  1
  Mg  Mg9  1  0.00240200  0.68398300  0.40191200  1
  Mg  Mg10  1  0.40191200  0.68398300  0.00240200  1
  Mg  Mg11  1  0.71707200  0.31859900  0.31859900  1
  Mg  Mg12  1  0.00393000  0.00393000  0.65347900  1
  Mg  Mg13  1  0.00240200  0.40191200  0.68398300  1
  Mg  Mg14  1  0.59077100  0.59077100  0.29300600  1
  Mg  Mg15  1  0.68398300  0.00240200  0.40191200  1
  Al  Al0  1  0.64043900  0.82789200  0.64043900  1
  Al  Al1  1  0.81395800  0.18894000  0.81395800  1
  Al  Al2  1  0.18643200  0.00343200  0.36763100  1
  Al  Al3  1  0.00343200  0.36763100  0.18643200  1
  Al  Al4  1  0.64043900  0.64043900  0.82789200  1
  Al  Al5  1  0.00343200  0.18643200  0.36763100  1
  Al  Al6  1  0.81395800  0.81395800  0.18894000  1
  Al  Al7  1  0.18894000  0.81395800  0.81395800  1
  Al  Al8  1  0.36763100  0.18643200  0.00343200  1
  Al  Al9  1  0.82789200  0.64043900  0.64043900  1
  Al  Al10  1  0.18643200  0.36763100  0.00343200  1
  Al  Al11  1  0.36763100  0.00343200  0.18643200  1
  Cr  Cr0  1  0.29998200  0.29998200  0.29998200  1
loop_
_geom_bond_atom_site_label_1
_geom_bond_atom_site_label_2
_geom_bond_distance
_geom_bond_site_symmetry_2
Mg0 Mg8 3.074861 1_555
Mg0 Mg11 3.074861 1_555
Mg0 Mg15 3.159060 1_555
Mg0 Mg4 3.159060 1_555
Mg0 Mg6 3.243377 1_556
Mg0 Mg13 3.243377 1_655
Mg1 Mg2 3.009470 1_555
Mg1 Mg13 3.028827 1_554
Mg1 Mg6 3.028827 1_455
Mg1 Mg3 3.134558 1_454
Mg2 Mg5 3.074861 1_555
Mg2 Mg4 3.103461 1_565
Mg2 Mg9 3.134778 1_555
Mg3 Mg7 3.134558 1_566
Mg4 Mg7 3.028827 1_556
Mg4 Mg8 3.134778 1_555
Mg4 Mg6 3.185480 1_556
Mg4 Mg9 3.185480 1_545
Mg4 Mg5 3.243377 1_545
Mg5 Mg8 3.074861 1_555
Mg5 Mg9 3.159060 1_555
Mg6 Mg8 3.103461 1_554
Mg6 Mg9 3.185480 1_655
Mg10 Mg7 3.028827 1_565
Mg10 Mg8 3.103461 1_554
Mg10 Mg2 3.134778 1_555
Mg10 Mg14 3.159060 1_555
Mg10 Mg15 3.185480 1_565
Mg10 Mg13 3.185480 1_554
Mg10 Mg5 3.243377 1_554
Mg11 Mg7 3.009470 1_555
Mg11 Mg14 3.074861 1_555
Mg11 Mg13 3.103461 1_655
Mg11 Mg9 3.103461 1_655
Mg11 Mg6 3.134778 1_555
Mg11 Mg15 3.134778 1_555
Mg12 Mg8 3.009470 1_555
Mg12 Mg9 3.028827 1_545
Mg12 Mg15 3.028827 1_455
Mg12 Mg3 3.134558 1_445
Mg13 Mg8 3.134778 1_555
Mg13 Mg5 3.159060 1_555
Mg13 Mg15 3.185480 1_455
Mg14 Mg2 3.074861 1_555
Mg14 Mg6 3.159060 1_555
Mg14 Mg9 3.243377 1_655
Mg14 Mg15 3.243377 1_565
Mg15 Mg2 3.103461 1_545
Al0 Al1 2.690524 1_565
Al0 Al9 2.761839 1_555
Al0 Al4 2.761839 1_555
Al0 Mg2 2.924370 1_555
Al0 Mg14 2.947090 1_555
Al0 Mg5 2.947090 1_555
Al0 Mg7 3.087818 1_566
Al0 Mg12 3.087818 1_665
Al0 Mg3 3.100987 1_555
Al0 Mg4 3.110503 1_565
Al0 Mg15 3.110503 1_565
Al1 Al3 2.776730 1_656
Al1 Al10 2.776731 1_656
Al1 Mg6 2.938537 1_556
Al1 Mg13 2.938537 1_655
Al1 Mg0 2.974269 1_555
Al1 Mg12 3.127114 1_655
Al1 Mg7 3.127114 1_556
Al1 Mg15 3.131107 1_555
Al1 Mg4 3.131107 1_555
Al1 Mg3 3.227615 1_545
Al2 Al5 2.696230 1_555
Al2 Al6 2.776731 1_445
Al2 Cr0 2.880334 1_555
Al2 Mg4 2.889015 1_555
Al2 Mg8 2.984277 1_555
Al2 Mg9 2.995972 1_545
Al2 Mg0 3.114143 1_555
Al2 Mg1 3.119012 1_545
Al2 Mg2 3.154313 1_545
Al2 Mg3 3.216016 1_444
Al3 Al5 2.669696 1_555
Al3 Cr0 2.880334 1_555
Al3 Mg9 2.889015 1_555
Al3 Mg2 2.984277 1_555
Al3 Mg6 2.995971 1_455
Al3 Mg5 3.114143 1_555
Al3 Mg7 3.119012 1_455
Al3 Mg11 3.154313 1_455
Al3 Mg3 3.216016 1_444
Al4 Al6 2.690524 1_556
Al4 Al9 2.761839 1_555
Al4 Mg8 2.924370 1_555
Al4 Mg0 2.947090 1_555
Al4 Mg5 2.947090 1_555
Al4 Mg7 3.087818 1_566
Al4 Mg1 3.087818 1_656
Al4 Mg3 3.100987 1_555
Al4 Mg10 3.110503 1_556
Al4 Mg6 3.110503 1_556
Al5 Al6 2.776731 1_445
Al5 Cr0 2.880334 1_555
Al5 Mg13 2.889015 1_555
Al5 Mg8 2.984277 1_555
Al5 Mg15 2.995972 1_455
Al5 Mg5 3.114143 1_555
Al5 Mg7 3.119012 1_455
Al5 Mg11 3.154313 1_455
Al5 Mg3 3.216016 1_444
Al6 Mg9 2.938537 1_655
Al6 Mg15 2.938537 1_565
Al6 Mg14 2.974269 1_555
Al6 Mg7 3.127114 1_565
Al6 Mg1 3.127114 1_655
Al6 Mg10 3.131107 1_555
Al6 Mg6 3.131107 1_555
Al6 Mg3 3.227615 1_554
Al7 Al9 2.690524 1_455
Al7 Al8 2.776731 1_566
Al7 Mg10 2.938537 1_556
Al7 Mg4 2.938537 1_565
Al7 Mg5 2.974269 1_555
Al7 Mg12 3.127114 1_565
Al7 Mg1 3.127114 1_556
Al7 Mg9 3.131107 1_555
Al7 Mg13 3.131107 1_555
Al7 Mg3 3.227615 1_455
Al8 Cr0 2.880334 1_555
Al8 Mg6 2.889015 1_555
Al8 Mg11 2.984277 1_555
Al8 Mg4 2.995971 1_554
Al8 Mg14 3.114143 1_555
Al8 Mg12 3.119012 1_554
Al8 Mg8 3.154313 1_554
Al8 Mg3 3.216016 1_444
Al9 Mg11 2.924370 1_555
Al9 Mg14 2.947090 1_555
Al9 Mg0 2.947090 1_555
Al9 Mg1 3.087818 1_656
Al9 Mg12 3.087818 1_665
Al9 Mg3 3.100987 1_555
Al9 Mg13 3.110503 1_655
Al9 Mg9 3.110503 1_655
Al10 Al8 2.669695 1_555
Al10 Al3 2.696231 1_555
Al10 Cr0 2.880334 1_555
Al10 Mg10 2.889015 1_555
Al10 Mg2 2.984277 1_555
Al10 Mg13 2.995971 1_554
Al10 Mg14 3.114143 1_555
Al10 Mg12 3.119012 1_554
Al10 Mg8 3.154313 1_554
Al10 Mg3 3.216016 1_444
Al11 Al2 2.669696 1_555
Al11 Al8 2.696231 1_555
Al11 Al7 2.776730 1_544
Al11 Cr0 2.880334 1_555
Al11 Mg15 2.889015 1_555
Al11 Mg11 2.984277 1_555
Al11 Mg10 2.995971 1_545
Al11 Mg0 3.114143 1_555
Al11 Mg1 3.119012 1_545
Al11 Mg2 3.154313 1_545
Al11 Mg3 3.216016 1_444
Cr0 Mg3 2.821092 1_444
Cr0 Mg5 3.083315 1_555
Cr0 Mg0 3.083315 1_555
Cr0 Mg14 3.083315 1_555
