# generated using pymatgen
data_SrMg14Co
_symmetry_space_group_name_H-M   'P 1'
_cell_length_a   6.54047498
_cell_length_b   6.28122413
_cell_length_c   10.32285585
_cell_angle_alpha   90.00000000
_cell_angle_beta   90.00000000
_cell_angle_gamma   118.69723204
_symmetry_Int_Tables_number   1
_chemical_formula_structural   SrMg14Co
_chemical_formula_sum   'Sr1 Mg14 Co1'
_cell_volume   371.99482303
_cell_formula_units_Z   1
loop_
 _symmetry_equiv_pos_site_id
 _symmetry_equiv_pos_as_xyz
  1  'x, y, z'
loop_
 _atom_site_type_symbol
 _atom_site_label
 _atom_site_symmetry_multiplicity
 _atom_site_fract_x
 _atom_site_fract_y
 _atom_site_fract_z
 _atom_site_occupancy
  Sr  Sr0  1  0.13157406  0.81578653  0.12500000  1
  Mg  Mg0  1  0.16050914  0.33025407  0.62500000  1
  Mg  Mg1  1  0.17032722  0.83516311  0.62500000  1
  Mg  Mg2  1  0.62391332  0.32517362  0.12500000  1
  Mg  Mg3  1  0.66257734  0.32557658  0.62500000  1
  Mg  Mg4  1  0.62391332  0.79873870  0.12500000  1
  Mg  Mg5  1  0.66257734  0.83699975  0.62500000  1
  Mg  Mg6  1  0.34139684  0.17970107  0.37780416  1
  Mg  Mg7  1  0.34139684  0.17970107  0.87219584  1
  Mg  Mg8  1  0.34139684  0.66169677  0.37780416  1
  Mg  Mg9  1  0.34139684  0.66169677  0.87219584  1
  Mg  Mg10  1  0.86679920  0.18340010  0.34410652  1
  Mg  Mg11  1  0.86679920  0.18340010  0.90589348  1
  Mg  Mg12  1  0.82881896  0.66440998  0.39351705  1
  Mg  Mg13  1  0.82881896  0.66440998  0.85648295  1
  Co  Co0  1  0.20778460  0.35389180  0.12500000  1
loop_
_geom_bond_atom_site_label_1
_geom_bond_atom_site_label_2
_geom_bond_distance
_geom_bond_site_symmetry_2
Mg0 Mg1 3.141117 1_555
Mg0 Mg1 3.141117 1_545
Mg0 Mg6 3.143237 1_555
Mg0 Mg7 3.143237 1_555
Mg0 Mg9 3.143243 1_555
Mg0 Mg8 3.143243 1_555
Mg0 Mg5 3.242705 1_445
Mg0 Mg3 3.242705 1_455
Mg0 Mg5 3.297973 1_555
Mg0 Mg3 3.297973 1_555
Mg0 Mg10 3.353683 1_455
Mg0 Mg11 3.353683 1_455
Mg1 Mg13 3.090106 1_455
Mg1 Mg12 3.090106 1_455
Mg1 Mg9 3.181410 1_555
Mg1 Mg8 3.181410 1_555
Mg1 Mg7 3.181416 1_565
Mg1 Mg6 3.181416 1_565
Mg1 Mg3 3.214026 1_565
Mg1 Mg5 3.214026 1_555
Mg1 Mg3 3.326480 1_455
Mg1 Mg5 3.326480 1_455
Mg2 Mg6 3.072151 1_555
Mg2 Mg7 3.072151 1_554
Mg2 Sr0 3.270273 1_655
Mg2 Sr0 3.272899 1_545
Mg3 Mg5 3.068861 1_545
Mg3 Mg7 3.148873 1_555
Mg3 Mg6 3.148873 1_555
Mg3 Mg5 3.212364 1_555
Mg4 Mg9 3.072151 1_554
Mg4 Mg8 3.072151 1_555
Mg4 Sr0 3.270273 1_655
Mg4 Sr0 3.272899 1_555
Mg5 Mg9 3.148873 1_555
Mg5 Mg8 3.148873 1_555
Mg6 Mg8 3.027523 1_555
Mg6 Mg8 3.253701 1_545
Mg6 Sr0 3.302434 1_545
Mg7 Mg9 3.027523 1_555
Mg7 Mg9 3.253701 1_545
Mg7 Sr0 3.302434 1_546
Mg8 Sr0 3.302427 1_555
Mg9 Sr0 3.302427 1_556
Mg10 Mg8 3.134678 1_655
Mg10 Mg6 3.134678 1_655
Mg10 Mg12 3.189213 1_545
Mg10 Mg12 3.189213 1_555
Mg10 Mg8 3.442903 1_545
Mg10 Mg6 3.442903 1_555
Mg10 Mg3 3.483535 1_555
Mg10 Mg5 3.483540 1_545
Mg11 Mg9 3.134678 1_655
Mg11 Mg7 3.134678 1_655
Mg11 Mg13 3.189213 1_545
Mg11 Mg13 3.189213 1_555
Mg11 Mg9 3.442903 1_545
Mg11 Mg7 3.442903 1_555
Mg11 Mg3 3.483535 1_555
Mg11 Mg5 3.483540 1_545
Mg12 Mg5 3.033060 1_555
Mg12 Mg3 3.033066 1_555
Mg12 Mg6 3.183958 1_555
Mg12 Mg8 3.183958 1_555
Mg12 Sr0 3.271112 1_655
Mg12 Mg4 3.358150 1_555
Mg12 Mg2 3.358156 1_555
Mg12 Mg6 3.364631 1_665
Mg12 Mg8 3.364631 1_655
Mg13 Mg5 3.033060 1_555
Mg13 Mg3 3.033066 1_555
Mg13 Mg7 3.183958 1_555
Mg13 Mg9 3.183958 1_555
Mg13 Sr0 3.271112 1_656
Mg13 Mg4 3.358150 1_556
Mg13 Mg2 3.358156 1_556
Mg13 Mg7 3.364631 1_665
Mg13 Mg9 3.364631 1_655
Co0 Mg4 2.812751 1_555
Co0 Mg2 2.812751 1_555
Co0 Mg11 2.990443 1_454
Co0 Mg10 2.990443 1_455
Co0 Mg6 3.112777 1_555
Co0 Mg7 3.112777 1_554
Co0 Mg8 3.112783 1_555
Co0 Mg9 3.112783 1_554
Co0 Sr0 3.170901 1_545
Co0 Sr0 3.170901 1_555
