# generated using pymatgen
data_TiBe12
_symmetry_space_group_name_H-M   'P 1'
_cell_length_a   4.22878591
_cell_length_b   4.22878591
_cell_length_c   7.32914900
_cell_angle_alpha   90.00000000
_cell_angle_beta   90.00000000
_cell_angle_gamma   119.99999860
_symmetry_Int_Tables_number   1
_chemical_formula_structural   TiBe12
_chemical_formula_sum   'Ti1 Be12'
_cell_volume   113.50515507
_cell_formula_units_Z   1
loop_
 _symmetry_equiv_pos_site_id
 _symmetry_equiv_pos_as_xyz
  1  'x, y, z'
loop_
 _atom_site_type_symbol
 _atom_site_label
 _atom_site_symmetry_multiplicity
 _atom_site_fract_x
 _atom_site_fract_y
 _atom_site_fract_z
 _atom_site_occupancy
  Ti  Ti0  1  0.00000000  0.00000000  0.00000000  1
  Be  Be0  1  0.33333300  0.66666700  0.00000000  1
  Be  Be1  1  0.66666700  0.33333300  0.00000000  1
  Be  Be2  1  0.33333300  0.66666700  0.50000000  1
  Be  Be3  1  0.66666700  0.33333300  0.50000000  1
  Be  Be4  1  0.00000000  0.00000000  0.34749400  1
  Be  Be5  1  0.00000000  0.00000000  0.65250600  1
  Be  Be6  1  0.50000000  0.00000000  0.24055600  1
  Be  Be7  1  0.50000000  0.50000000  0.24055600  1
  Be  Be8  1  0.00000000  0.50000000  0.24055600  1
  Be  Be9  1  0.50000000  0.00000000  0.75944400  1
  Be  Be10  1  0.50000000  0.50000000  0.75944400  1
  Be  Be11  1  0.00000000  0.50000000  0.75944400  1
loop_
_geom_bond_atom_site_label_1
_geom_bond_atom_site_label_2
_geom_bond_distance
_geom_bond_site_symmetry_2
Be0 Be9 2.144443 1_564
Be0 Be8 2.144443 1_555
Be0 Be11 2.144443 1_554
Be0 Be6 2.144443 1_565
Be0 Be10 2.144445 1_554
Be0 Be7 2.144445 1_555
Be0 Ti0 2.441488 1_565
Be0 Be1 2.441488 1_455
Be0 Be1 2.441488 1_565
Be0 Ti0 2.441492 1_665
Be0 Ti0 2.441492 1_555
Be0 Be1 2.441496 1_555
Be1 Be11 2.144443 1_654
Be1 Be9 2.144443 1_554
Be1 Be8 2.144443 1_655
Be1 Be6 2.144443 1_555
Be1 Be10 2.144445 1_554
Be1 Be7 2.144445 1_555
Be1 Ti0 2.441488 1_655
Be1 Ti0 2.441492 1_665
Be1 Ti0 2.441492 1_555
Be2 Be9 2.259631 1_565
Be2 Be8 2.259631 1_555
Be2 Be6 2.259631 1_565
Be2 Be7 2.259633 1_555
Be2 Be3 2.441488 1_455
Be2 Be3 2.441488 1_565
Be2 Be3 2.441496 1_555
Be3 Be8 2.259631 1_655
Be3 Be6 2.259631 1_555
Be3 Be9 2.259631 1_555
Be3 Be7 2.259633 1_555
Be4 Be5 2.235478 1_555
Be4 Be8 2.254982 1_555
Be4 Be8 2.254982 1_545
Be4 Be6 2.254982 1_455
Be4 Be6 2.254982 1_555
Be4 Be7 2.254982 1_445
Be4 Be7 2.254982 1_555
Be4 Ti0 2.546835 1_555
Be5 Be9 2.254982 1_455
Be5 Be9 2.254982 1_555
Be5 Ti0 2.546835 1_556
Be6 Be7 2.114393 1_545
Be6 Be7 2.114393 1_555
Be6 Be8 2.114393 1_655
Be6 Be8 2.114393 1_545
Be6 Ti0 2.753012 1_655
Be6 Ti0 2.753012 1_555
Be7 Be8 2.114393 1_655
Be7 Be8 2.114393 1_555
Be7 Ti0 2.753012 1_665
Be7 Ti0 2.753012 1_555
Be8 Ti0 2.753012 1_565
Be8 Ti0 2.753012 1_555
Be9 Ti0 2.753012 1_656
Be9 Ti0 2.753012 1_556
Be10 Be9 2.114393 1_555
Be10 Be11 2.114393 1_655
Be10 Be9 2.114393 1_565
Be10 Be11 2.114393 1_555
Be10 Be5 2.254982 1_665
Be10 Be5 2.254982 1_555
Be10 Be2 2.259633 1_555
Be10 Be3 2.259633 1_555
Be10 Ti0 2.753012 1_556
Be10 Ti0 2.753012 1_666
Be11 Be9 2.114393 1_565
Be11 Be9 2.114393 1_455
Be11 Be5 2.254982 1_565
Be11 Be5 2.254982 1_555
Be11 Be3 2.259631 1_455
Be11 Be2 2.259631 1_555
Be11 Ti0 2.753012 1_566
Be11 Ti0 2.753012 1_556
