# generated using pymatgen
data_CaRhN2
_symmetry_space_group_name_H-M   'P 1'
_cell_length_a   5.05915900
_cell_length_b   10.13338100
_cell_length_c   17.22285100
_cell_angle_alpha   90.00000000
_cell_angle_beta   90.00000000
_cell_angle_gamma   90.00000000
_symmetry_Int_Tables_number   1
_chemical_formula_structural   CaRhN2
_chemical_formula_sum   'Ca16 Rh16 N32'
_cell_volume   882.95332199
_cell_formula_units_Z   16
loop_
 _symmetry_equiv_pos_site_id
 _symmetry_equiv_pos_as_xyz
  1  'x, y, z'
loop_
 _atom_site_type_symbol
 _atom_site_label
 _atom_site_symmetry_multiplicity
 _atom_site_fract_x
 _atom_site_fract_y
 _atom_site_fract_z
 _atom_site_occupancy
  Ca  Ca0  1  0.74267600  0.99246500  0.43771100  1
  Ca  Ca1  1  0.24267600  0.50753500  0.56228900  1
  Ca  Ca2  1  0.25732400  0.49246500  0.06228900  1
  Ca  Ca3  1  0.75732400  0.00753500  0.93771100  1
  Ca  Ca4  1  0.25732400  0.00753500  0.56228900  1
  Ca  Ca5  1  0.75732400  0.49246500  0.43771100  1
  Ca  Ca6  1  0.74267600  0.50753500  0.93771100  1
  Ca  Ca7  1  0.24267600  0.99246500  0.06228900  1
  Ca  Ca8  1  0.74840900  0.24578500  0.31217000  1
  Ca  Ca9  1  0.24840900  0.25421500  0.68783000  1
  Ca  Ca10  1  0.25159100  0.74578500  0.18783000  1
  Ca  Ca11  1  0.75159100  0.75421500  0.81217000  1
  Ca  Ca12  1  0.25159100  0.75421500  0.68783000  1
  Ca  Ca13  1  0.75159100  0.74578500  0.31217000  1
  Ca  Ca14  1  0.74840900  0.25421500  0.81217000  1
  Ca  Ca15  1  0.24840900  0.24578500  0.18783000  1
  Rh  Rh0  1  0.69062900  0.02409500  0.18869900  1
  Rh  Rh1  1  0.19062900  0.47590500  0.81130100  1
  Rh  Rh2  1  0.30937100  0.52409500  0.31130100  1
  Rh  Rh3  1  0.80937100  0.97590500  0.68869900  1
  Rh  Rh4  1  0.30937100  0.97590500  0.81130100  1
  Rh  Rh5  1  0.80937100  0.52409500  0.18869900  1
  Rh  Rh6  1  0.69062900  0.47590500  0.68869900  1
  Rh  Rh7  1  0.19062900  0.02409500  0.31130100  1
  Rh  Rh8  1  0.80841200  0.27873600  0.06524700  1
  Rh  Rh9  1  0.30841200  0.22126400  0.93475300  1
  Rh  Rh10  1  0.19158800  0.77873600  0.43475300  1
  Rh  Rh11  1  0.69158800  0.72126400  0.56524700  1
  Rh  Rh12  1  0.19158800  0.72126400  0.93475300  1
  Rh  Rh13  1  0.69158800  0.77873600  0.06524700  1
  Rh  Rh14  1  0.80841200  0.22126400  0.56524700  1
  Rh  Rh15  1  0.30841200  0.27873600  0.43475300  1
  N  N0  1  0.69141600  0.48961300  0.29624900  1
  N  N1  1  0.19141600  0.01038700  0.70375100  1
  N  N2  1  0.30858400  0.98961300  0.20375100  1
  N  N3  1  0.80858400  0.51038700  0.79624900  1
  N  N4  1  0.30858400  0.51038700  0.70375100  1
  N  N5  1  0.80858400  0.98961300  0.29624900  1
  N  N6  1  0.69141600  0.01038700  0.79624900  1
  N  N7  1  0.19141600  0.48961300  0.20375100  1
  N  N8  1  0.67984200  0.24881800  0.45494000  1
  N  N9  1  0.17984200  0.25118200  0.54506000  1
  N  N10  1  0.32015800  0.74881800  0.04506000  1
  N  N11  1  0.82015800  0.75118200  0.95494000  1
  N  N12  1  0.32015800  0.75118200  0.54506000  1
  N  N13  1  0.82015800  0.74881800  0.45494000  1
  N  N14  1  0.67984200  0.25118200  0.95494000  1
  N  N15  1  0.17984200  0.24881800  0.04506000  1
  N  N16  1  0.75103100  0.46763300  0.07830700  1
  N  N17  1  0.25103100  0.03236700  0.92169300  1
  N  N18  1  0.24896900  0.96763300  0.42169300  1
  N  N19  1  0.74896900  0.53236700  0.57830700  1
  N  N20  1  0.24896900  0.53236700  0.92169300  1
  N  N21  1  0.74896900  0.96763300  0.07830700  1
  N  N22  1  0.75103100  0.03236700  0.57830700  1
  N  N23  1  0.25103100  0.46763300  0.42169300  1
  N  N24  1  0.72359500  0.21629600  0.17031500  1
  N  N25  1  0.22359500  0.28370400  0.82968500  1
  N  N26  1  0.27640500  0.71629600  0.32968500  1
  N  N27  1  0.77640500  0.78370400  0.67031500  1
  N  N28  1  0.27640500  0.78370400  0.82968500  1
  N  N29  1  0.77640500  0.71629600  0.17031500  1
  N  N30  1  0.72359500  0.28370400  0.67031500  1
  N  N31  1  0.22359500  0.21629600  0.32968500  1
loop_
_geom_bond_atom_site_label_1
_geom_bond_atom_site_label_2
_geom_bond_distance
_geom_bond_site_symmetry_2
Ca0 N22 2.455355 1_565
Ca0 N5 2.459260 1_555
Ca0 N13 2.517441 1_555
Ca0 N18 2.525498 1_555
Ca0 N18 2.588490 1_655
Ca0 N8 2.633869 1_565
Ca1 N23 2.455355 1_555
Ca1 N4 2.459260 1_555
Ca1 N12 2.517441 1_555
Ca1 N19 2.525498 1_455
Ca1 N19 2.588490 1_555
Ca1 N9 2.633869 1_555
Ca2 N20 2.455355 1_554
Ca2 N7 2.459260 1_555
Ca2 N15 2.517441 1_555
Ca2 N16 2.525498 1_555
Ca2 N16 2.588490 1_455
Ca2 N10 2.633869 1_555
Ca3 N21 2.455355 1_546
Ca3 N6 2.459260 1_555
Ca3 N14 2.517441 1_555
Ca3 N17 2.525498 1_655
Ca3 N17 2.588490 1_555
Ca3 N11 2.633869 1_545
Ca4 N18 2.455355 1_545
Ca4 N1 2.459260 1_555
Ca4 N9 2.517441 1_555
Ca4 N22 2.525498 1_555
Ca4 N22 2.588490 1_455
Ca4 N12 2.633869 1_545
Ca5 N19 2.455355 1_555
Ca5 N0 2.459260 1_555
Ca5 N8 2.517441 1_555
Ca5 N23 2.525498 1_655
Ca5 N23 2.588490 1_555
Ca5 N13 2.633869 1_555
Ca6 N16 2.455355 1_556
Ca6 N3 2.459260 1_555
Ca6 N11 2.517441 1_555
Ca6 N20 2.525498 1_555
Ca6 N20 2.588490 1_655
Ca6 N14 2.633869 1_555
Ca7 N17 2.455355 1_564
Ca7 N2 2.459260 1_555
Ca7 N10 2.517441 1_555
Ca7 N21 2.525498 1_455
Ca7 N21 2.588490 1_555
Ca7 N15 2.633869 1_565
Ca8 N31 2.441251 1_655
Ca8 N24 2.464554 1_555
Ca8 N8 2.483445 1_555
Ca8 N0 2.502636 1_555
Ca8 N5 2.628023 1_545
Ca8 N31 2.688855 1_555
Ca9 N30 2.441251 1_555
Ca9 N25 2.464554 1_555
Ca9 N9 2.483445 1_555
Ca9 N1 2.502636 1_555
Ca9 N4 2.628023 1_555
Ca9 N30 2.688855 1_455
Ca10 N29 2.441251 1_455
Ca10 N26 2.464554 1_555
Ca10 N10 2.483445 1_555
Ca10 N2 2.502636 1_555
Ca10 N7 2.628023 1_555
Ca10 N29 2.688855 1_555
Ca11 N28 2.441251 1_555
Ca11 N27 2.464554 1_555
Ca11 N11 2.483445 1_555
Ca11 N3 2.502636 1_555
Ca11 N6 2.628023 1_565
Ca11 N28 2.688855 1_655
Ca12 N27 2.441251 1_455
Ca12 N28 2.464554 1_555
Ca12 N12 2.483445 1_555
Ca12 N4 2.502636 1_555
Ca12 N1 2.628023 1_565
Ca12 N27 2.688855 1_555
Ca13 N26 2.441251 1_555
Ca13 N29 2.464554 1_555
Ca13 N13 2.483445 1_555
Ca13 N5 2.502636 1_555
Ca13 N0 2.628023 1_555
Ca13 N26 2.688855 1_655
Ca14 N25 2.441251 1_655
Ca14 N30 2.464554 1_555
Ca14 N14 2.483445 1_555
Ca14 N6 2.502636 1_555
Ca14 N3 2.628023 1_555
Ca14 N25 2.688855 1_555
Ca15 N24 2.441251 1_555
Ca15 N31 2.464554 1_555
Ca15 N15 2.483445 1_555
Ca15 N7 2.502636 1_555
Ca15 N2 2.628023 1_545
Ca15 N24 2.688855 1_455
N0 Rh5 1.977192 1_555
N0 Rh2 1.981191 1_555
N1 Rh4 1.977192 1_545
N1 Rh3 1.981191 1_445
N2 Rh7 1.977192 1_565
N2 Rh0 1.981191 1_565
N3 Rh6 1.977192 1_555
N3 Rh1 1.981191 1_655
N4 Rh1 1.977192 1_555
N4 Rh6 1.981191 1_555
N5 Rh0 1.977192 1_565
N5 Rh7 1.981191 1_665
N6 Rh3 1.977192 1_545
N6 Rh4 1.981191 1_545
N7 Rh2 1.977192 1_555
N7 Rh5 1.981191 1_455
N8 Rh15 1.934915 1_555
N8 Rh14 2.027387 1_555
N9 Rh14 1.934915 1_455
N9 Rh15 2.027387 1_555
N10 Rh13 1.934915 1_555
N10 Rh12 2.027387 1_554
N11 Rh12 1.934915 1_655
N11 Rh13 2.027387 1_556
N12 Rh11 1.934915 1_555
N12 Rh10 2.027387 1_555
N13 Rh10 1.934915 1_655
N13 Rh11 2.027387 1_555
N14 Rh9 1.934915 1_555
N14 Rh8 2.027387 1_556
N15 Rh8 1.934915 1_455
N15 Rh9 2.027387 1_554
N16 Rh8 1.949076 1_555
N16 Rh5 2.007307 1_555
N17 Rh9 1.949076 1_555
N17 Rh4 2.007307 1_545
N18 Rh10 1.949076 1_555
N18 Rh7 2.007307 1_565
N19 Rh11 1.949076 1_555
N19 Rh6 2.007307 1_555
N20 Rh12 1.949076 1_555
N20 Rh1 2.007307 1_555
N21 Rh13 1.949076 1_555
N21 Rh0 2.007307 1_565
N22 Rh14 1.949076 1_555
N22 Rh3 2.007307 1_545
N23 Rh15 1.949076 1_555
N23 Rh2 2.007307 1_555
N24 Rh8 1.964439 1_555
N24 Rh0 1.980250 1_555
N25 Rh9 1.964439 1_555
N25 Rh1 1.980250 1_555
N26 Rh10 1.964439 1_555
N26 Rh2 1.980250 1_555
N27 Rh11 1.964439 1_555
N27 Rh3 1.980250 1_555
N28 Rh12 1.964439 1_555
N28 Rh4 1.980250 1_555
N29 Rh13 1.964439 1_555
N29 Rh5 1.980250 1_555
N30 Rh14 1.964439 1_555
N30 Rh6 1.980250 1_555
N31 Rh15 1.964439 1_555
N31 Rh7 1.980250 1_555
