# generated using pymatgen
data_SmGaGe2O7
_symmetry_space_group_name_H-M   'P 1'
_cell_length_a   6.64122200
_cell_length_b   7.32837300
_cell_length_c   12.98089666
_cell_angle_alpha   62.26671659
_cell_angle_beta   90.00000000
_cell_angle_gamma   90.00000000
_symmetry_Int_Tables_number   1
_chemical_formula_structural   SmGaGe2O7
_chemical_formula_sum   'Sm4 Ga4 Ge8 O28'
_cell_volume   559.19605890
_cell_formula_units_Z   4
loop_
 _symmetry_equiv_pos_site_id
 _symmetry_equiv_pos_as_xyz
  1  'x, y, z'
loop_
 _atom_site_type_symbol
 _atom_site_label
 _atom_site_symmetry_multiplicity
 _atom_site_fract_x
 _atom_site_fract_y
 _atom_site_fract_z
 _atom_site_occupancy
  Sm  Sm0  1  0.35470000  0.74132000  0.52655000  1
  Sm  Sm1  1  0.64530000  0.25868000  0.47345000  1
  Sm  Sm2  1  0.85470000  0.25868000  0.97345000  1
  Sm  Sm3  1  0.14530000  0.74132000  0.02655000  1
  Ga  Ga0  1  0.39971600  0.71388500  0.26900200  1
  Ga  Ga1  1  0.60028400  0.28611500  0.73099800  1
  Ga  Ga2  1  0.89971600  0.28611500  0.23099800  1
  Ga  Ga3  1  0.10028400  0.71388500  0.76900200  1
  Ge  Ge0  1  0.65909600  0.71395100  0.04573900  1
  Ge  Ge1  1  0.34090400  0.28604900  0.95426100  1
  Ge  Ge2  1  0.15909600  0.28604900  0.45426100  1
  Ge  Ge3  1  0.84090400  0.71395100  0.54573900  1
  Ge  Ge4  1  0.91143200  0.80006000  0.28117000  1
  Ge  Ge5  1  0.08856800  0.19994000  0.71883000  1
  Ge  Ge6  1  0.41143200  0.19994000  0.21883000  1
  Ge  Ge7  1  0.58856800  0.80006000  0.78117000  1
  O  O0  1  0.37318600  0.93123000  0.30702400  1
  O  O1  1  0.62681400  0.06877000  0.69297600  1
  O  O2  1  0.87318600  0.06877000  0.19297600  1
  O  O3  1  0.12681400  0.93123000  0.80702400  1
  O  O4  1  0.82585100  0.90948300  0.02198500  1
  O  O5  1  0.17414900  0.09051700  0.97801500  1
  O  O6  1  0.32585100  0.09051700  0.47801500  1
  O  O7  1  0.67414900  0.90948300  0.52198500  1
  O  O8  1  0.60932000  0.27762600  0.28036700  1
  O  O9  1  0.39068000  0.72237400  0.71963300  1
  O  O10  1  0.10932000  0.72237400  0.21963300  1
  O  O11  1  0.89068000  0.27762600  0.78036700  1
  O  O12  1  0.99995300  0.74983400  0.42530300  1
  O  O13  1  0.00004700  0.25016600  0.57469700  1
  O  O14  1  0.49995300  0.25016600  0.07469700  1
  O  O15  1  0.50004700  0.74983400  0.92530300  1
  O  O16  1  0.44589600  0.70435600  0.12926200  1
  O  O17  1  0.55410400  0.29564400  0.87073800  1
  O  O18  1  0.94589600  0.29564400  0.37073800  1
  O  O19  1  0.05410400  0.70435600  0.62926200  1
  O  O20  1  0.84126500  0.51233800  0.07909200  1
  O  O21  1  0.15873500  0.48766200  0.92090800  1
  O  O22  1  0.34126500  0.48766200  0.42090800  1
  O  O23  1  0.65873500  0.51233800  0.57909200  1
  O  O24  1  0.68789100  0.65344500  0.31537600  1
  O  O25  1  0.31210900  0.34655500  0.68462400  1
  O  O26  1  0.18789100  0.34655500  0.18462400  1
  O  O27  1  0.81210900  0.65344500  0.81537600  1
loop_
_geom_bond_atom_site_label_1
_geom_bond_atom_site_label_2
_geom_bond_distance
_geom_bond_site_symmetry_2
Ga0 O16 1.872765 1_555
Ga0 O0 1.882359 1_555
Ga0 O22 1.935168 1_555
Ga0 O24 1.993280 1_555
Ga0 O10 2.024079 1_555
Ga1 O17 1.872765 1_555
Ga1 O1 1.882359 1_555
Ga1 O23 1.935168 1_555
Ga1 O25 1.993280 1_555
Ga1 O11 2.024079 1_555
Ga2 O18 1.872765 1_555
Ga2 O2 1.882359 1_555
Ga2 O20 1.935168 1_555
Ga2 O26 1.993280 1_655
Ga2 O8 2.024079 1_555
Ga3 O19 1.872765 1_555
Ga3 O3 1.882359 1_555
Ga3 O21 1.935168 1_555
Ga3 O27 1.993280 1_455
Ga3 O9 2.024079 1_555
Ge0 O4 1.721512 1_555
Ge0 O16 1.764733 1_555
Ge0 O20 1.799654 1_555
Ge0 O15 1.801768 1_554
Ge1 O5 1.721512 1_555
Ge1 O17 1.764733 1_555
Ge1 O21 1.799654 1_555
Ge1 O14 1.801768 1_556
Ge2 O6 1.721512 1_555
Ge2 O18 1.764733 1_455
Ge2 O22 1.799654 1_555
Ge2 O13 1.801768 1_555
Ge3 O7 1.721512 1_555
Ge3 O19 1.764733 1_655
Ge3 O23 1.799654 1_555
Ge3 O12 1.801768 1_555
Ge4 O24 1.763963 1_555
Ge4 O10 1.764266 1_655
Ge4 O2 1.776155 1_565
Ge4 O12 1.827757 1_555
Ge5 O25 1.763963 1_555
Ge5 O11 1.764266 1_455
Ge5 O3 1.776155 1_545
Ge5 O13 1.827757 1_555
Ge6 O26 1.763963 1_555
Ge6 O8 1.764266 1_555
Ge6 O0 1.776155 1_545
Ge6 O14 1.827757 1_555
Ge7 O27 1.763963 1_555
Ge7 O9 1.764266 1_555
Ge7 O1 1.776155 1_565
Ge7 O15 1.827757 1_555
O0 Sm0 2.526126 1_555
O1 Sm1 2.526126 1_555
O2 Sm2 2.526126 1_554
O3 Sm3 2.526126 1_556
O4 Sm2 2.341324 1_564
O4 Sm3 2.440319 1_655
O5 Sm3 2.341324 1_546
O5 Sm2 2.440319 1_455
O6 Sm0 2.341324 1_545
O6 Sm1 2.440319 1_555
O7 Sm1 2.341324 1_565
O7 Sm0 2.440319 1_555
O8 Sm1 2.456519 1_555
O9 Sm0 2.456519 1_555
O10 Sm3 2.456519 1_555
O11 Sm2 2.456519 1_555
O12 Sm0 2.684290 1_655
O13 Sm1 2.684290 1_455
O14 Sm2 2.684290 1_554
O15 Sm3 2.684290 1_556
O16 Sm3 2.345254 1_555
O17 Sm2 2.345254 1_555
O18 Sm1 2.345254 1_555
O19 Sm0 2.345254 1_555
O20 Sm3 2.508565 1_655
O20 Sm2 2.777868 1_554
O21 Sm2 2.508565 1_455
O21 Sm3 2.777868 1_556
O22 Sm1 2.508565 1_555
O22 Sm0 2.777868 1_555
O23 Sm0 2.508565 1_555
O23 Sm1 2.777868 1_555
O24 Sm1 2.671124 1_555
O25 Sm0 2.671124 1_555
O26 Sm3 2.671124 1_555
O27 Sm2 2.671124 1_555
