# generated using pymatgen
data_Zn11Ni2
_symmetry_space_group_name_H-M   'P 1'
_cell_length_a   7.64044819
_cell_length_b   7.64044819
_cell_length_c   7.64044819
_cell_angle_alpha   109.47122063
_cell_angle_beta   109.47122063
_cell_angle_gamma   109.47122063
_symmetry_Int_Tables_number   1
_chemical_formula_structural   Zn11Ni2
_chemical_formula_sum   'Zn22 Ni4'
_cell_volume   343.34807340
_cell_formula_units_Z   2
loop_
 _symmetry_equiv_pos_site_id
 _symmetry_equiv_pos_as_xyz
  1  'x, y, z'
loop_
 _atom_site_type_symbol
 _atom_site_label
 _atom_site_symmetry_multiplicity
 _atom_site_fract_x
 _atom_site_fract_y
 _atom_site_fract_z
 _atom_site_occupancy
  Zn  Zn0  1  0.20971506  -0.00000000  0.00000000  1
  Zn  Zn1  1  -0.00000000  0.20971506  0.00000000  1
  Zn  Zn2  1  0.00000000  -0.00000000  0.20971506  1
  Zn  Zn3  1  0.79028494  0.79028494  0.79028494  1
  Zn  Zn4  1  0.00000000  0.64500874  0.64500874  1
  Zn  Zn5  1  0.35499126  -0.00000000  0.35499126  1
  Zn  Zn6  1  0.35499126  0.35499126  -0.00000000  1
  Zn  Zn7  1  -0.00000000  0.35499126  0.35499126  1
  Zn  Zn8  1  0.64500874  0.00000000  0.64500874  1
  Zn  Zn9  1  0.64500874  0.64500874  0.00000000  1
  Zn  Zn10  1  0.35122972  0.73715139  -0.00000000  1
  Zn  Zn11  1  0.61407833  0.26284861  0.26284861  1
  Zn  Zn12  1  0.35122972  0.00000000  0.73715139  1
  Zn  Zn13  1  0.73715139  0.35122972  -0.00000000  1
  Zn  Zn14  1  -0.00000000  0.35122972  0.73715139  1
  Zn  Zn15  1  0.26284861  0.61407833  0.26284861  1
  Zn  Zn16  1  0.26284861  0.26284861  0.61407833  1
  Zn  Zn17  1  -0.00000000  0.73715139  0.35122972  1
  Zn  Zn18  1  0.73715139  0.00000000  0.35122972  1
  Zn  Zn19  1  0.64877028  0.64877028  0.38592167  1
  Zn  Zn20  1  0.38592167  0.64877028  0.64877028  1
  Zn  Zn21  1  0.64877028  0.38592167  0.64877028  1
  Ni  Ni0  1  0.65684980  -0.00000000  0.00000000  1
  Ni  Ni1  1  0.00000000  0.65684980  -0.00000000  1
  Ni  Ni2  1  0.00000000  -0.00000000  0.65684980  1
  Ni  Ni3  1  0.34315020  0.34315020  0.34315020  1
loop_
_geom_bond_atom_site_label_1
_geom_bond_atom_site_label_2
_geom_bond_distance
_geom_bond_site_symmetry_2
Zn0 Zn6 2.565448 1_555
Zn0 Zn4 2.565448 1_544
Zn0 Zn5 2.565448 1_555
Zn0 Zn11 2.578736 1_555
Zn0 Zn12 2.578736 1_554
Zn0 Zn10 2.578736 1_545
Zn0 Zn1 2.616573 1_555
Zn0 Zn2 2.616573 1_555
Zn0 Zn3 2.616573 1_444
Zn1 Zn8 2.565448 1_454
Zn1 Zn7 2.565448 1_555
Zn1 Zn6 2.565448 1_555
Zn1 Zn15 2.578736 1_555
Zn1 Zn13 2.578736 1_455
Zn1 Zn14 2.578736 1_554
Zn1 Zn3 2.616573 1_444
Zn1 Zn2 2.616573 1_555
Zn2 Zn7 2.565448 1_555
Zn2 Zn5 2.565448 1_555
Zn2 Zn9 2.565448 1_445
Zn2 Zn3 2.616573 1_444
Zn3 Zn9 2.565448 1_556
Zn3 Zn4 2.565448 1_655
Zn3 Zn8 2.565448 1_565
Zn4 Zn7 2.558659 1_555
Zn5 Zn8 2.558659 1_555
Zn6 Zn9 2.558659 1_555
Zn10 Zn9 2.566585 1_555
Zn10 Zn5 2.769249 1_565
Zn10 Zn4 2.769249 1_554
Zn10 Zn6 2.929580 1_555
Zn11 Zn7 2.566585 1_655
Zn11 Zn5 2.769249 1_555
Zn11 Zn6 2.769249 1_555
Zn11 Zn4 2.929580 1_655
Zn12 Zn8 2.566585 1_555
Zn12 Zn6 2.769249 1_556
Zn12 Zn4 2.769249 1_545
Zn12 Zn5 2.929580 1_555
Zn13 Zn9 2.566585 1_555
Zn13 Zn8 2.769249 1_554
Zn13 Zn7 2.769249 1_655
Zn13 Zn6 2.929580 1_555
Zn14 Zn4 2.566585 1_555
Zn14 Zn6 2.769249 1_556
Zn14 Zn8 2.769249 1_455
Zn14 Zn7 2.929580 1_555
Zn15 Zn5 2.566585 1_565
Zn15 Zn6 2.769249 1_555
Zn15 Zn7 2.769249 1_555
Zn15 Zn8 2.929580 1_565
Zn16 Zn6 2.566585 1_556
Zn16 Zn2 2.578736 1_555
Zn16 Zn5 2.769249 1_555
Zn16 Zn7 2.769249 1_555
Zn16 Zn9 2.929580 1_556
Zn17 Zn4 2.566585 1_555
Zn17 Zn2 2.578736 1_565
Zn17 Zn5 2.769249 1_565
Zn17 Zn9 2.769249 1_455
Zn17 Zn7 2.929580 1_555
Zn18 Zn8 2.566585 1_555
Zn18 Zn2 2.578736 1_655
Zn18 Zn9 2.769249 1_545
Zn18 Zn7 2.769249 1_655
Zn18 Zn5 2.929580 1_555
Zn19 Zn6 2.566585 1_555
Zn19 Zn3 2.578736 1_555
Zn19 Zn4 2.769249 1_655
Zn19 Zn8 2.769249 1_565
Zn19 Zn9 2.929580 1_555
Zn20 Zn7 2.566585 1_555
Zn20 Zn3 2.578736 1_555
Zn20 Zn8 2.769249 1_565
Zn20 Zn9 2.769249 1_556
Zn20 Zn4 2.929580 1_555
Zn21 Zn5 2.566585 1_555
Zn21 Zn3 2.578736 1_555
Zn21 Zn4 2.769249 1_655
Zn21 Zn9 2.769249 1_556
Zn21 Zn8 2.929580 1_555
Ni0 Zn10 2.521793 1_545
Ni0 Zn11 2.521793 1_555
Ni0 Zn12 2.521793 1_554
Ni0 Zn20 2.545632 1_544
Ni0 Zn18 2.545632 1_555
Ni0 Zn13 2.545632 1_555
Ni0 Zn1 2.576957 1_655
Ni0 Zn2 2.576957 1_655
Ni0 Zn3 2.576957 1_544
Ni0 Zn8 2.683491 1_554
Ni0 Zn9 2.683491 1_545
Ni0 Zn7 2.683491 1_655
Ni1 Zn15 2.521793 1_555
Ni1 Zn14 2.521793 1_554
Ni1 Zn13 2.521793 1_455
Ni1 Zn21 2.545632 1_454
Ni1 Zn10 2.545632 1_555
Ni1 Zn17 2.545632 1_555
Ni1 Zn0 2.576957 1_565
Ni1 Zn2 2.576957 1_565
Ni1 Zn3 2.576957 1_454
Ni1 Zn5 2.683491 1_565
Ni1 Zn9 2.683491 1_455
Ni1 Zn4 2.683491 1_554
Ni2 Zn16 2.521793 1_555
Ni2 Zn17 2.521793 1_545
Ni2 Zn18 2.521793 1_455
Ni2 Zn19 2.545632 1_445
Ni2 Zn14 2.545632 1_555
Ni2 Zn12 2.545632 1_555
Ni2 Zn3 2.576957 1_445
Ni2 Zn0 2.576957 1_556
Ni2 Zn1 2.576957 1_556
Ni2 Zn6 2.683491 1_556
Ni2 Zn8 2.683491 1_455
Ni2 Zn4 2.683491 1_545
Ni3 Zn19 2.521793 1_555
Ni3 Zn20 2.521793 1_555
Ni3 Zn21 2.521793 1_555
Ni3 Zn16 2.545632 1_555
Ni3 Zn11 2.545632 1_555
Ni3 Zn15 2.545632 1_555
Ni3 Zn0 2.576957 1_555
Ni3 Zn1 2.576957 1_555
Ni3 Zn2 2.576957 1_555
Ni3 Zn5 2.683491 1_555
Ni3 Zn6 2.683491 1_555
Ni3 Zn7 2.683491 1_555
