# generated using pymatgen
data_Gd(BRu)2
_symmetry_space_group_name_H-M   'P 1'
_cell_length_a   6.63333762
_cell_length_b   5.89965159
_cell_length_c   5.55962904
_cell_angle_alpha   70.66988877
_cell_angle_beta   57.06168355
_cell_angle_gamma   52.26657597
_symmetry_Int_Tables_number   1
_chemical_formula_structural   Gd(BRu)2
_chemical_formula_sum   'Gd2 B4 Ru4'
_cell_volume   144.41114682
_cell_formula_units_Z   2
loop_
 _symmetry_equiv_pos_site_id
 _symmetry_equiv_pos_as_xyz
  1  'x, y, z'
loop_
 _atom_site_type_symbol
 _atom_site_label
 _atom_site_symmetry_multiplicity
 _atom_site_fract_x
 _atom_site_fract_y
 _atom_site_fract_z
 _atom_site_occupancy
  Gd  Gd0  1  -0.00000061  -0.00000061  0.00000061  1
  Gd  Gd1  1  0.25000061  0.25000061  0.24999939  1
  B  B0  1  0.31303400  0.68694785  0.31308790  1
  B  B1  1  0.68694785  0.31303400  0.68693126  1
  B  B2  1  0.56305215  0.93696600  0.56306874  1
  B  B3  1  0.93696600  0.56305215  0.93691210  1
  Ru  Ru0  1  0.63807393  0.63807393  0.36192607  1
  Ru  Ru1  1  0.36191034  0.36191034  0.63808966  1
  Ru  Ru2  1  0.61192607  0.61192607  0.88807393  1
  Ru  Ru3  1  0.88808966  0.88808966  0.61191034  1
loop_
_geom_bond_atom_site_label_1
_geom_bond_atom_site_label_2
_geom_bond_distance
_geom_bond_site_symmetry_2
Gd0 Ru2 2.987804 1_544
Gd0 Ru2 2.987804 1_454
Gd0 Ru3 2.987827 1_445
Gd0 Ru3 2.987827 1_444
Gd1 Ru0 2.987804 1_455
Gd1 Ru0 2.987804 1_545
Gd1 Ru1 2.987827 1_554
Gd1 Ru1 2.987827 1_555
B0 Ru3 2.057236 1_455
B0 Ru2 2.057632 1_554
B0 Ru1 2.151614 1_555
B0 Ru0 2.151628 1_555
B0 Gd0 2.803731 1_565
B0 Gd1 3.003401 1_555
B0 Gd1 3.003406 1_565
B1 Ru3 2.057237 1_545
B1 Ru2 2.057628 1_555
B1 Ru1 2.151617 1_555
B1 Ru0 2.151632 1_555
B1 Gd0 2.803727 1_656
B1 Gd1 3.003399 1_556
B1 Gd1 3.003407 1_655
B2 Ru1 2.057237 1_565
B2 Ru0 2.057628 1_555
B2 Ru3 2.151617 1_555
B2 Ru2 2.151632 1_555
B2 Gd1 2.803727 1_565
B2 Gd0 3.003399 1_665
B2 Gd0 3.003407 1_566
B3 Ru1 2.057236 1_655
B3 Ru0 2.057632 1_556
B3 Ru3 2.151614 1_555
B3 Ru2 2.151628 1_555
B3 Gd1 2.803731 1_656
B3 Gd0 3.003401 1_666
B3 Gd0 3.003406 1_656
