# generated using pymatgen
data_Sm8MgTi4O20
_symmetry_space_group_name_H-M   'P 1'
_cell_length_a   7.88874650
_cell_length_b   3.74059300
_cell_length_c   15.98697982
_cell_angle_alpha   90.00000000
_cell_angle_beta   94.17662246
_cell_angle_gamma   90.00000000
_symmetry_Int_Tables_number   1
_chemical_formula_structural   Sm8MgTi4O20
_chemical_formula_sum   'Sm8 Mg1 Ti4 O20'
_cell_volume   470.50038570
_cell_formula_units_Z   1
loop_
 _symmetry_equiv_pos_site_id
 _symmetry_equiv_pos_as_xyz
  1  'x, y, z'
loop_
 _atom_site_type_symbol
 _atom_site_label
 _atom_site_symmetry_multiplicity
 _atom_site_fract_x
 _atom_site_fract_y
 _atom_site_fract_z
 _atom_site_occupancy
  Sm  Sm0  1  0.15474200  0.25000000  0.05891100  1
  Sm  Sm1  1  0.08198800  0.25000000  0.74064900  1
  Sm  Sm2  1  0.39001200  0.75000000  0.22862500  1
  Sm  Sm3  1  0.33082100  0.75000000  0.59071800  1
  Sm  Sm4  1  0.62213700  0.25000000  0.40861800  1
  Sm  Sm5  1  0.59737600  0.25000000  0.75445400  1
  Sm  Sm6  1  0.88191900  0.75000000  0.22945600  1
  Sm  Sm7  1  0.83034700  0.75000000  0.92750600  1
  Mg  Mg0  1  0.93374000  0.75000000  0.42004300  1
  Ti  Ti0  1  0.21352900  0.25000000  0.40897800  1
  Ti  Ti1  1  0.34675300  0.75000000  0.91014700  1
  Ti  Ti2  1  0.62606500  0.25000000  0.06828500  1
  Ti  Ti3  1  0.81122000  0.75000000  0.61325600  1
  O  O0  1  0.12482100  0.75000000  0.16256700  1
  O  O1  1  0.17140800  0.75000000  0.45592100  1
  O  O2  1  0.05181100  0.75000000  0.64510100  1
  O  O3  1  0.13787600  0.75000000  0.97775200  1
  O  O4  1  0.36681900  0.25000000  0.32381000  1
  O  O5  1  0.20700700  0.75000000  0.81581100  1
  O  O6  1  0.40751000  0.25000000  0.49641500  1
  O  O7  1  0.42132500  0.25000000  0.14206600  1
  O  O8  1  0.37951600  0.25000000  0.95123900  1
  O  O9  1  0.33381100  0.25000000  0.67545400  1
  O  O10  1  0.65986500  0.75000000  0.32648300  1
  O  O11  1  0.60520600  0.75000000  0.03691500  1
  O  O12  1  0.55732500  0.75000000  0.84951900  1
  O  O13  1  0.75694600  0.75000000  0.49885400  1
  O  O14  1  0.77026400  0.25000000  0.17449300  1
  O  O15  1  0.60310700  0.75000000  0.66527600  1
  O  O16  1  0.85557600  0.25000000  0.01591200  1
  O  O17  1  0.94380100  0.25000000  0.37370500  1
  O  O18  1  0.82234400  0.25000000  0.64962200  1
  O  O19  1  0.86134900  0.25000000  0.83260600  1
loop_
_geom_bond_atom_site_label_1
_geom_bond_atom_site_label_2
_geom_bond_distance
_geom_bond_site_symmetry_2
Mg0 O1 1.920315 1_655
Mg0 O13 1.946427 1_555
Mg0 O17 2.015357 1_555
Mg0 O17 2.015357 1_565
Mg0 O10 2.536614 1_555
O0 Sm6 2.261368 1_455
O0 Sm2 2.273770 1_555
O0 Sm0 2.521276 1_565
O0 Sm0 2.521276 1_555
O1 Ti0 2.051331 1_555
O1 Ti0 2.051331 1_565
O1 Sm3 2.414692 1_555
O2 Ti3 1.928911 1_455
O2 Sm1 2.415583 1_565
O2 Sm1 2.415583 1_555
O2 Sm3 2.424708 1_555
O3 Ti1 2.035365 1_555
O3 Sm0 2.274651 1_566
O3 Sm0 2.274651 1_556
O3 Sm7 2.499392 1_455
O4 Ti0 1.885751 1_555
O4 Sm4 2.344619 1_555
O4 Sm2 2.426453 1_555
O4 Sm2 2.426453 1_545
O5 Ti1 1.802127 1_555
O5 Sm1 2.396234 1_565
O5 Sm1 2.396234 1_555
O6 Ti0 1.996028 1_555
O6 Sm4 2.276621 1_555
O6 Sm3 2.503954 1_545
O6 Sm3 2.503954 1_555
O7 Ti2 2.068210 1_555
O7 Sm2 2.350270 1_555
O7 Sm2 2.350270 1_545
O7 Sm0 2.404724 1_555
O8 Ti1 1.992898 1_555
O8 Ti1 1.992898 1_545
O8 Sm0 2.559655 1_556
O8 Ti2 2.598881 1_556
O9 Sm3 2.308473 1_545
O9 Sm3 2.308473 1_555
O9 Sm1 2.309628 1_555
O9 Sm5 2.352797 1_555
O10 Sm4 2.316835 1_555
O10 Sm4 2.316835 1_565
O10 Sm6 2.422906 1_555
O10 Sm2 2.548371 1_555
O11 Ti2 1.940252 1_565
O11 Ti2 1.940252 1_555
O11 Sm7 2.581936 1_554
O12 Ti1 1.983282 1_555
O12 Sm7 2.408768 1_555
O12 Sm5 2.444909 1_555
O12 Sm5 2.444909 1_565
O13 Ti3 1.847778 1_555
O13 Sm4 2.546883 1_565
O13 Sm4 2.546883 1_555
O14 Ti2 1.973750 1_555
O14 Sm6 2.221083 1_555
O14 Sm6 2.221083 1_545
O15 Ti3 1.893635 1_555
O15 Sm5 2.354151 1_565
O15 Sm5 2.354151 1_555
O15 Sm3 2.379433 1_555
O16 Ti2 2.049383 1_555
O16 Sm7 2.343969 1_554
O16 Sm7 2.343969 1_544
O16 Sm0 2.409574 1_655
O17 Ti0 2.161207 1_655
O17 Sm4 2.637589 1_555
O17 Sm6 2.981688 1_545
O17 Sm6 2.981688 1_555
O18 Ti3 1.958643 1_545
O18 Ti3 1.958643 1_555
O18 Sm1 2.424656 1_655
O18 Sm5 2.528174 1_555
O19 Sm5 2.349151 1_555
O19 Sm1 2.358714 1_655
O19 Sm7 2.431801 1_545
O19 Sm7 2.431801 1_555
