# generated using pymatgen
data_NdFeGe2
_symmetry_space_group_name_H-M   'P 1'
_cell_length_a   8.44416783
_cell_length_b   8.44416783
_cell_length_c   4.35675900
_cell_angle_alpha   90.00000000
_cell_angle_beta   90.00000000
_cell_angle_gamma   150.19309743
_symmetry_Int_Tables_number   1
_chemical_formula_structural   NdFeGe2
_chemical_formula_sum   'Nd2 Fe2 Ge4'
_cell_volume   154.41953093
_cell_formula_units_Z   2
loop_
 _symmetry_equiv_pos_site_id
 _symmetry_equiv_pos_as_xyz
  1  'x, y, z'
loop_
 _atom_site_type_symbol
 _atom_site_label
 _atom_site_symmetry_multiplicity
 _atom_site_fract_x
 _atom_site_fract_y
 _atom_site_fract_z
 _atom_site_occupancy
  Nd  Nd0  1  0.89469200  0.10530800  0.25000000  1
  Nd  Nd1  1  0.10530800  0.89469200  0.75000000  1
  Fe  Fe0  1  0.68901200  0.31098800  0.25000000  1
  Fe  Fe1  1  0.31098800  0.68901200  0.75000000  1
  Ge  Ge0  1  0.54654300  0.45345700  0.25000000  1
  Ge  Ge1  1  0.45345700  0.54654300  0.75000000  1
  Ge  Ge2  1  0.25064800  0.74935200  0.25000000  1
  Ge  Ge3  1  0.74935200  0.25064800  0.75000000  1
loop_
_geom_bond_atom_site_label_1
_geom_bond_atom_site_label_2
_geom_bond_distance
_geom_bond_site_symmetry_2
Fe0 Ge0 2.325126 1_555
Fe0 Ge3 2.390626 1_555
Fe0 Ge3 2.390626 1_554
Fe0 Ge2 2.393412 1_655
Fe0 Ge2 2.393412 1_545
Fe0 Nd0 3.356743 1_555
Fe0 Nd1 3.365715 1_654
Fe0 Nd1 3.365715 1_655
Fe0 Nd1 3.365715 1_545
Fe0 Nd1 3.365715 1_544
Fe1 Ge1 2.325126 1_555
Fe1 Ge2 2.390626 1_556
Fe1 Ge2 2.390626 1_555
Fe1 Ge3 2.393412 1_565
Fe1 Ge3 2.393412 1_455
Fe1 Nd1 3.356743 1_555
Fe1 Nd0 3.365715 1_565
Fe1 Nd0 3.365715 1_566
Fe1 Nd0 3.365715 1_456
Fe1 Nd0 3.365715 1_455
Ge0 Ge1 2.655797 1_555
Ge0 Ge1 2.655797 1_554
Ge0 Nd1 3.222063 1_654
Ge0 Nd1 3.222063 1_655
Ge0 Nd1 3.222063 1_545
Ge0 Nd1 3.222063 1_544
Ge0 Nd0 3.295185 1_565
Ge0 Nd0 3.295185 1_455
Ge1 Nd0 3.222063 1_565
Ge1 Nd0 3.222063 1_566
Ge1 Nd0 3.222063 1_456
Ge1 Nd0 3.222063 1_455
Ge1 Nd1 3.295185 1_655
Ge1 Nd1 3.295185 1_545
Ge2 Nd0 3.200463 1_565
Ge2 Nd0 3.200463 1_455
Ge2 Nd1 3.220502 1_554
Ge2 Nd1 3.220502 1_555
Ge3 Nd1 3.200463 1_655
Ge3 Nd1 3.200463 1_545
Ge3 Nd0 3.220502 1_555
Ge3 Nd0 3.220502 1_556
