# generated using pymatgen
data_DyY3
_symmetry_space_group_name_H-M   'P 1'
_cell_length_a   7.26774758
_cell_length_b   7.26774758
_cell_length_c   5.84405385
_cell_angle_alpha   90.00000000
_cell_angle_beta   90.00000000
_cell_angle_gamma   120.00001326
_symmetry_Int_Tables_number   1
_chemical_formula_structural   DyY3
_chemical_formula_sum   'Dy2 Y6'
_cell_volume   267.32800213
_cell_formula_units_Z   2
loop_
 _symmetry_equiv_pos_site_id
 _symmetry_equiv_pos_as_xyz
  1  'x, y, z'
loop_
 _atom_site_type_symbol
 _atom_site_label
 _atom_site_symmetry_multiplicity
 _atom_site_fract_x
 _atom_site_fract_y
 _atom_site_fract_z
 _atom_site_occupancy
  Dy  Dy0  1  0.33333300  0.66666700  0.75000000  1
  Dy  Dy1  1  0.66666700  0.33333300  0.25000000  1
  Y  Y0  1  0.16715501  0.33431103  0.25000000  1
  Y  Y1  1  0.66568897  0.83284499  0.25000000  1
  Y  Y2  1  0.16715501  0.83284499  0.25000000  1
  Y  Y3  1  0.83284499  0.66568897  0.75000000  1
  Y  Y4  1  0.33431103  0.16715501  0.75000000  1
  Y  Y5  1  0.83284499  0.16715501  0.75000000  1
loop_
_geom_bond_atom_site_label_1
_geom_bond_atom_site_label_2
_geom_bond_distance
_geom_bond_site_symmetry_2
Dy0 Y1 3.593626 1_555
Dy0 Y0 3.593626 1_556
Dy0 Y1 3.593626 1_556
Dy0 Y0 3.593626 1_555
Dy0 Y2 3.593626 1_556
Dy0 Y2 3.593626 1_555
Dy0 Y3 3.633872 1_455
Dy0 Y4 3.633872 1_565
Dy0 Y5 3.633878 1_455
Dy0 Y5 3.633878 1_565
Dy0 Y3 3.633886 1_555
Dy0 Y4 3.633886 1_555
Dy1 Y3 3.593626 1_555
Dy1 Y4 3.593626 1_555
Dy1 Y3 3.593626 1_554
Dy1 Y4 3.593626 1_554
Dy1 Y5 3.593626 1_555
Dy1 Y5 3.593626 1_554
Dy1 Y1 3.633872 1_545
Dy1 Y0 3.633872 1_655
Dy1 Y2 3.633878 1_545
Dy1 Y2 3.633878 1_655
Dy1 Y0 3.633886 1_555
Dy1 Y1 3.633886 1_555
Y0 Y5 3.600799 1_454
Y0 Y5 3.600799 1_455
Y0 Y4 3.600806 1_554
Y0 Y4 3.600806 1_555
Y0 Y1 3.623218 1_555
Y0 Y2 3.623219 1_555
Y0 Y1 3.644528 1_445
Y0 Y2 3.644529 1_545
Y1 Y5 3.600799 1_565
Y1 Y5 3.600799 1_564
Y1 Y3 3.600806 1_555
Y1 Y3 3.600806 1_554
Y1 Y2 3.623219 1_555
Y1 Y2 3.644529 1_655
Y2 Y3 3.600799 1_455
Y2 Y3 3.600799 1_454
Y2 Y4 3.600799 1_564
Y2 Y4 3.600799 1_565
Y3 Y4 3.623218 1_555
Y3 Y5 3.623219 1_555
Y3 Y4 3.644528 1_665
Y3 Y5 3.644529 1_565
Y4 Y5 3.623219 1_555
Y4 Y5 3.644529 1_455
