# generated using pymatgen
data_KP2H5O8
_symmetry_space_group_name_H-M   'P 1'
_cell_length_a   10.57619468
_cell_length_b   7.80858276
_cell_length_c   9.51022492
_cell_angle_alpha   65.21066790
_cell_angle_beta   90.00000000
_cell_angle_gamma   90.00000000
_symmetry_Int_Tables_number   1
_chemical_formula_structural   KP2H5O8
_chemical_formula_sum   'K4 P8 H20 O32'
_cell_volume   713.03229459
_cell_formula_units_Z   4
loop_
 _symmetry_equiv_pos_site_id
 _symmetry_equiv_pos_as_xyz
  1  'x, y, z'
loop_
 _atom_site_type_symbol
 _atom_site_label
 _atom_site_symmetry_multiplicity
 _atom_site_fract_x
 _atom_site_fract_y
 _atom_site_fract_z
 _atom_site_occupancy
  K  K0  1  0.87627204  0.21002863  0.86398288  1
  K  K1  1  0.37627204  0.78997137  0.63601712  1
  K  K2  1  0.12372796  0.78997137  0.13601712  1
  K  K3  1  0.62372796  0.21002863  0.36398288  1
  P  P0  1  0.72547063  0.64915468  0.70974949  1
  P  P1  1  0.22547063  0.35084532  0.79025051  1
  P  P2  1  0.27452937  0.35084532  0.29025051  1
  P  P3  1  0.77452937  0.64915468  0.20974949  1
  P  P4  1  0.56899742  0.11256165  0.77061967  1
  P  P5  1  0.06899742  0.88743835  0.72938033  1
  P  P6  1  0.43100258  0.88743835  0.22938033  1
  P  P7  1  0.93100258  0.11256165  0.27061967  1
  H  H0  1  0.71187493  0.97603937  0.67302238  1
  H  H1  1  0.21187493  0.02396063  0.82697762  1
  H  H2  1  0.28812507  0.02396063  0.32697762  1
  H  H3  1  0.78812507  0.97603937  0.17302338  1
  H  H4  1  0.75716565  0.56363015  0.51718445  1
  H  H5  1  0.25716565  0.43636985  0.98281555  1
  H  H6  1  0.24283435  0.43636985  0.48281555  1
  H  H7  1  0.74283435  0.56363015  0.01718445  1
  H  H8  1  0.57756572  0.43476293  0.80340666  1
  H  H9  1  0.07756572  0.56523707  0.69659334  1
  H  H10  1  0.42243428  0.56523707  0.19659334  1
  H  H11  1  0.92243428  0.43476293  0.30340666  1
  H  H12  1  0.91660734  0.70022178  0.86988517  1
  H  H13  1  0.41660734  0.29977822  0.63011483  1
  H  H14  1  0.08339266  0.29977822  0.13011483  1
  H  H15  1  0.58339266  0.70022178  0.36988517  1
  H  H16  1  0.47257814  0.86842617  0.95702659  1
  H  H17  1  0.97257814  0.13157383  0.54297341  1
  H  H18  1  0.52742186  0.13157383  0.04297341  1
  H  H19  1  0.02742186  0.86842617  0.45702659  1
  O  O0  1  0.71718222  0.85762043  0.60744972  1
  O  O1  1  0.21718222  0.14237957  0.89255028  1
  O  O2  1  0.28281778  0.14237957  0.39255028  1
  O  O3  1  0.78281778  0.85762043  0.10744972  1
  O  O4  1  0.78970460  0.53944617  0.62401557  1
  O  O5  1  0.28970460  0.46055383  0.87598443  1
  O  O6  1  0.21029540  0.46055383  0.37598443  1
  O  O7  1  0.71029540  0.53944617  0.12401557  1
  O  O8  1  0.58598709  0.57539748  0.74899993  1
  O  O9  1  0.08598709  0.42460252  0.75100007  1
  O  O10  1  0.41401291  0.42460252  0.25100007  1
  O  O11  1  0.91401291  0.57539748  0.24899993  1
  O  O12  1  0.80034254  0.59501698  0.85837889  1
  O  O13  1  0.30034254  0.40498302  0.64162111  1
  O  O14  1  0.19965746  0.40498302  0.14162111  1
  O  O15  1  0.69965746  0.59501698  0.35837889  1
  O  O16  1  0.49635013  0.23220585  0.61834824  1
  O  O17  1  0.99635013  0.76779415  0.88165176  1
  O  O18  1  0.50364987  0.76779415  0.38165176  1
  O  O19  1  0.00364987  0.23220585  0.11834824  1
  O  O20  1  0.50116215  0.91838186  0.84460050  1
  O  O21  1  0.00116215  0.08161814  0.65539950  1
  O  O22  1  0.49883785  0.08161814  0.15539950  1
  O  O23  1  0.99883785  0.91838186  0.34460050  1
  O  O24  1  0.70122448  0.08474148  0.71693743  1
  O  O25  1  0.20122448  0.91525852  0.78306257  1
  O  O26  1  0.29877552  0.91525852  0.28306257  1
  O  O27  1  0.79877552  0.08474148  0.21693743  1
  O  O28  1  0.57631297  0.20910964  0.87820233  1
  O  O29  1  0.07631297  0.79089036  0.62179767  1
  O  O30  1  0.42368703  0.79089036  0.12179767  1
  O  O31  1  0.92368703  0.20910964  0.37820233  1
loop_
_geom_bond_atom_site_label_1
_geom_bond_atom_site_label_2
_geom_bond_distance
_geom_bond_site_symmetry_2
K0 O9 2.715081 1_655
K0 O24 2.736315 1_555
K0 O4 2.782159 1_555
K0 O19 2.836910 1_656
K0 O21 2.890155 1_655
K0 O3 2.927037 1_546
K0 O12 3.090419 1_555
K0 O28 3.175186 1_555
K1 O8 2.715081 1_555
K1 O25 2.736315 1_555
K1 O5 2.782159 1_555
K1 O18 2.836910 1_555
K1 O20 2.890155 1_555
K1 O2 2.927037 1_565
K1 O13 3.090419 1_555
K1 O29 3.175186 1_555
K2 O11 2.715081 1_455
K2 O26 2.736315 1_555
K2 O6 2.782159 1_555
K2 O17 2.836910 1_454
K2 O23 2.890155 1_455
K2 O1 2.927037 1_564
K2 O14 3.090419 1_555
K2 O30 3.175186 1_555
K3 O10 2.715081 1_555
K3 O27 2.736315 1_555
K3 O7 2.782159 1_555
K3 O16 2.836910 1_555
K3 O22 2.890155 1_555
K3 O0 2.927037 1_545
K3 O15 3.090419 1_555
K3 O31 3.175186 1_555
H0 O24 1.097661 1_565
H0 O0 1.315536 1_555
H0 K3 2.888310 1_565
H1 O25 1.097661 1_545
H1 O1 1.315536 1_555
H1 K2 2.888310 1_546
H2 O26 1.097661 1_545
H2 O2 1.315536 1_555
H2 K1 2.888310 1_545
H3 O27 1.097655 1_565
H3 O3 1.315543 1_555
H3 K0 2.888317 1_564
H4 O4 1.012638 1_555
H4 O15 1.549367 1_555
H5 O5 1.012638 1_555
H5 O14 1.549367 1_556
H6 O6 1.012638 1_555
H6 O13 1.549367 1_555
H7 O7 1.012638 1_555
H7 O12 1.549367 1_554
H8 O8 1.002559 1_555
H8 O28 1.599962 1_555
H9 O9 1.002559 1_555
H9 O29 1.599962 1_555
H10 O10 1.002559 1_555
H10 O30 1.599962 1_555
H11 O11 1.002559 1_555
H11 O31 1.599962 1_555
H12 O17 1.025537 1_555
H12 O12 1.508056 1_555
H13 O16 1.025537 1_555
H13 O13 1.508056 1_555
H14 O19 1.025537 1_555
H14 O14 1.508056 1_555
H15 O18 1.025537 1_555
H15 O15 1.508056 1_555
H16 O20 1.018329 1_555
H16 O30 1.514555 1_556
H17 O21 1.018329 1_655
H17 O31 1.514555 1_555
H18 O22 1.018329 1_555
H18 O28 1.514555 1_554
H19 O23 1.018329 1_455
H19 O29 1.514555 1_555
O0 P0 1.508634 1_555
O1 P1 1.508634 1_555
O2 P2 1.508634 1_555
O3 P3 1.508634 1_555
O4 P0 1.563942 1_555
O5 P1 1.563942 1_555
O6 P2 1.563942 1_555
O7 P3 1.563942 1_555
O8 P0 1.570667 1_555
O9 P1 1.570667 1_555
O10 P2 1.570667 1_555
O11 P3 1.570667 1_555
O12 P0 1.517449 1_555
O13 P1 1.517449 1_555
O14 P2 1.517449 1_555
O15 P3 1.517449 1_555
O16 P4 1.557479 1_555
O17 P5 1.557479 1_655
O18 P6 1.557479 1_555
O19 P7 1.557479 1_455
O20 P4 1.553775 1_565
O21 P5 1.553775 1_545
O22 P6 1.553775 1_545
O23 P7 1.553775 1_565
O24 P4 1.535097 1_555
O25 P5 1.535097 1_555
O26 P6 1.535097 1_555
O27 P7 1.535097 1_555
O28 P4 1.505983 1_555
O29 P5 1.505983 1_555
O30 P6 1.505983 1_555
O31 P7 1.505983 1_555
