# generated using pymatgen
data_Li4Co3O7
_symmetry_space_group_name_H-M   'P 1'
_cell_length_a   6.37055153
_cell_length_b   6.37055153
_cell_length_c   14.28671739
_cell_angle_alpha   71.88396428
_cell_angle_beta   71.88396428
_cell_angle_gamma   27.41842939
_symmetry_Int_Tables_number   1
_chemical_formula_structural   Li4Co3O7
_chemical_formula_sum   'Li8 Co6 O14'
_cell_volume   252.94980560
_cell_formula_units_Z   2
loop_
 _symmetry_equiv_pos_site_id
 _symmetry_equiv_pos_as_xyz
  1  'x, y, z'
loop_
 _atom_site_type_symbol
 _atom_site_label
 _atom_site_symmetry_multiplicity
 _atom_site_fract_x
 _atom_site_fract_y
 _atom_site_fract_z
 _atom_site_occupancy
  Li  Li0  1  0.71248100  0.71248100  0.93180900  1
  Li  Li1  1  0.28751900  0.28751900  0.06819100  1
  Li  Li2  1  0.86037400  0.86037400  0.21402000  1
  Li  Li3  1  0.13962600  0.13962600  0.78598000  1
  Li  Li4  1  0.57163200  0.57163200  0.64433200  1
  Li  Li5  1  0.42836800  0.42836800  0.35566800  1
  Li  Li6  1  0.00000000  0.00000000  0.50000000  1
  Li  Li7  1  0.00000000  0.00000000  0.00000000  1
  Co  Co0  1  0.42951400  0.42951400  0.86464500  1
  Co  Co1  1  0.57048600  0.57048600  0.13535500  1
  Co  Co2  1  0.14084100  0.14084100  0.28408200  1
  Co  Co3  1  0.71404900  0.71404900  0.42779600  1
  Co  Co4  1  0.28595100  0.28595100  0.57220400  1
  Co  Co5  1  0.85915900  0.85915900  0.71591800  1
  O  O0  1  0.86327400  0.86327400  0.95563700  1
  O  O1  1  0.44123700  0.44123700  0.11220200  1
  O  O2  1  0.00837300  0.00837300  0.24666000  1
  O  O3  1  0.29921000  0.29921000  0.82081500  1
  O  O4  1  0.72363700  0.72363700  0.67746600  1
  O  O5  1  0.57931900  0.57931900  0.38986600  1
  O  O6  1  0.15155500  0.15155500  0.53301500  1
  O  O7  1  0.55876300  0.55876300  0.88779800  1
  O  O8  1  0.13672600  0.13672600  0.04436300  1
  O  O9  1  0.70079000  0.70079000  0.17918500  1
  O  O10  1  0.99162700  0.99162700  0.75334000  1
  O  O11  1  0.42068100  0.42068100  0.61013400  1
  O  O12  1  0.27636300  0.27636300  0.32253400  1
  O  O13  1  0.84844500  0.84844500  0.46698500  1
loop_
_geom_bond_atom_site_label_1
_geom_bond_atom_site_label_2
_geom_bond_distance
_geom_bond_site_symmetry_2
Li0 O0 2.001644 1_555
Li0 O8 2.186157 1_656
Li0 O8 2.186157 1_566
Li0 O7 2.186689 1_555
Li0 O3 2.203815 1_565
Li0 O3 2.203815 1_655
Li1 O8 2.001644 1_555
Li1 O0 2.186157 1_454
Li1 O0 2.186157 1_544
Li1 O1 2.186689 1_555
Li1 O9 2.203815 1_545
Li1 O9 2.203815 1_455
Li2 O2 2.029860 1_665
Li2 O1 2.113123 1_565
Li2 O1 2.113123 1_655
Li2 O12 2.175389 1_655
Li2 O12 2.175389 1_565
Li2 O9 2.186089 1_555
Li3 O10 2.029860 1_445
Li3 O7 2.113123 1_545
Li3 O7 2.113123 1_455
Li3 O4 2.175389 1_545
Li3 O4 2.175389 1_455
Li3 O3 2.186089 1_555
Li4 O11 2.077096 1_555
Li4 O4 2.081923 1_555
Li4 O10 2.167559 1_545
Li4 O10 2.167559 1_455
Li4 O6 2.186381 1_565
Li4 O6 2.186381 1_655
Li5 O5 2.077096 1_555
Li5 O12 2.081923 1_555
Li5 O2 2.167559 1_565
Li5 O2 2.167559 1_655
Li5 O13 2.186381 1_545
Li5 O13 2.186381 1_455
Li6 O6 2.075605 1_555
Li6 O13 2.075605 1_445
Li6 O5 2.174922 1_455
Li6 O5 2.174922 1_545
Li6 O11 2.174922 1_455
Li6 O11 2.174922 1_545
Li7 O8 1.988112 1_555
Li7 O0 1.988112 1_444
Li7 O1 2.152152 1_545
Li7 O7 2.152152 1_544
Li7 O7 2.152152 1_454
Li7 O1 2.152152 1_455
Co0 O7 1.734278 1_555
Co0 O3 1.907913 1_555
Co0 O0 1.989818 1_455
Co0 O0 1.989818 1_545
Co0 O10 2.148637 1_455
Co0 O10 2.148637 1_545
Co1 O1 1.734278 1_555
Co1 O9 1.907913 1_555
Co1 O8 1.989818 1_655
Co1 O8 1.989818 1_565
Co1 O2 2.148637 1_655
Co1 O2 2.148637 1_565
Co2 O2 1.880327 1_555
Co2 O12 1.925025 1_555
Co2 O9 2.089053 1_545
Co2 O9 2.089053 1_455
Co2 O5 2.099215 1_455
Co2 O5 2.099215 1_545
Co3 O5 1.911382 1_555
Co3 O13 1.917588 1_555
Co3 O6 2.095996 1_655
Co3 O6 2.095996 1_565
Co3 O12 2.096054 1_655
Co3 O12 2.096054 1_565
Co4 O11 1.911382 1_555
Co4 O6 1.917588 1_555
Co4 O13 2.095996 1_545
Co4 O13 2.095996 1_455
Co4 O4 2.096054 1_545
Co4 O4 2.096054 1_455
Co5 O10 1.880327 1_555
Co5 O4 1.925025 1_555
Co5 O3 2.089053 1_655
Co5 O3 2.089053 1_565
Co5 O11 2.099215 1_655
Co5 O11 2.099215 1_565
