# generated using pymatgen
data_KGd(FeO3)2
_symmetry_space_group_name_H-M   'P 1'
_cell_length_a   5.61026647
_cell_length_b   5.68745916
_cell_length_c   8.08721469
_cell_angle_alpha   90.00000000
_cell_angle_beta   90.00000000
_cell_angle_gamma   90.00000000
_symmetry_Int_Tables_number   1
_chemical_formula_structural   KGd(FeO3)2
_chemical_formula_sum   'K2 Gd2 Fe4 O12'
_cell_volume   258.04815181
_cell_formula_units_Z   2
loop_
 _symmetry_equiv_pos_site_id
 _symmetry_equiv_pos_as_xyz
  1  'x, y, z'
loop_
 _atom_site_type_symbol
 _atom_site_label
 _atom_site_symmetry_multiplicity
 _atom_site_fract_x
 _atom_site_fract_y
 _atom_site_fract_z
 _atom_site_occupancy
  K  K0  1  0.50590302  0.72988818  0.50000000  1
  K  K1  1  0.00590302  0.27011182  -0.00000000  1
  Gd  Gd0  1  0.49327856  0.77810528  -0.00000000  1
  Gd  Gd1  1  0.99327856  0.22189472  0.50000000  1
  Fe  Fe0  1  0.99862904  0.75563400  0.25194939  1
  Fe  Fe1  1  0.49862904  0.24436600  0.24805061  1
  Fe  Fe2  1  0.99862904  0.75563400  0.74805061  1
  Fe  Fe3  1  0.49862904  0.24436600  0.75194939  1
  O  O0  1  0.40529303  0.25444498  0.50000000  1
  O  O1  1  0.90529303  0.74555502  0.00000000  1
  O  O2  1  0.53379200  0.22317407  -0.00000000  1
  O  O3  1  0.03379200  0.77682593  0.50000000  1
  O  O4  1  0.23539071  0.02076672  0.22964879  1
  O  O5  1  0.73539071  0.97923328  0.27035121  1
  O  O6  1  0.79684694  0.45084373  0.70340473  1
  O  O7  1  0.29684694  0.54915627  0.79659527  1
  O  O8  1  0.79684694  0.45084373  0.29659527  1
  O  O9  1  0.29684694  0.54915627  0.20340473  1
  O  O10  1  0.23539071  0.02076672  0.77035121  1
  O  O11  1  0.73539071  0.97923328  0.72964879  1
loop_
_geom_bond_atom_site_label_1
_geom_bond_atom_site_label_2
_geom_bond_distance
_geom_bond_site_symmetry_2
K0 O3 2.662088 1_555
K0 O11 2.667959 1_555
K0 O5 2.667959 1_555
K0 O0 2.762347 1_555
K0 O8 2.808738 1_555
K0 O6 2.808738 1_555
K0 O9 2.861051 1_555
K0 O7 2.861051 1_555
K0 O3 2.973605 1_655
K0 O0 3.036322 1_565
K0 O4 3.133760 1_565
K0 O10 3.133760 1_565
K1 O2 2.662088 1_455
K1 O10 2.667959 1_554
K1 O4 2.667959 1_555
K1 O1 2.762347 1_455
K1 O9 2.808738 1_555
K1 O7 2.808738 1_554
K1 O6 2.861051 1_454
K1 O8 2.861051 1_455
K1 O2 2.973605 1_555
K1 O1 3.036322 1_445
K1 O11 3.133760 1_444
K1 O5 3.133760 1_445
Gd0 O1 2.318913 1_555
Gd0 O9 2.369809 1_555
Gd0 O7 2.369809 1_554
Gd0 O2 2.541495 1_565
Gd0 O10 2.728974 1_564
Gd0 O4 2.728974 1_565
Gd0 O11 2.816706 1_554
Gd0 O5 2.816706 1_555
Gd1 O0 2.318913 1_655
Gd1 O8 2.369809 1_555
Gd1 O6 2.369809 1_555
Gd1 O3 2.541495 1_645
Gd1 O5 2.728974 1_545
Gd1 O11 2.728974 1_545
Gd1 O4 2.816706 1_655
Gd1 O10 2.816706 1_655
Fe0 O5 1.954596 1_555
Fe0 O4 2.017611 1_665
Fe0 O3 2.019315 1_655
Fe0 O9 2.081439 1_655
Fe0 O8 2.101634 1_555
Fe0 O1 2.104560 1_555
Fe1 O4 1.954596 1_555
Fe1 O5 2.017611 1_545
Fe1 O2 2.019315 1_555
Fe1 O8 2.081439 1_555
Fe1 O9 2.101634 1_555
Fe1 O0 2.104560 1_555
Fe2 O11 1.954596 1_555
Fe2 O10 2.017611 1_665
Fe2 O3 2.019315 1_655
Fe2 O7 2.081439 1_655
Fe2 O6 2.101634 1_555
Fe2 O1 2.104560 1_556
Fe3 O10 1.954596 1_555
Fe3 O11 2.017611 1_545
Fe3 O2 2.019315 1_556
Fe3 O6 2.081439 1_555
Fe3 O7 2.101634 1_555
Fe3 O0 2.104560 1_555
