# generated using pymatgen
data_Zr2V3Ru
_symmetry_space_group_name_H-M   'P 1'
_cell_length_a   5.28313095
_cell_length_b   5.28312711
_cell_length_c   8.18851428
_cell_angle_alpha   90.00000000
_cell_angle_beta   90.00000000
_cell_angle_gamma   119.99996073
_symmetry_Int_Tables_number   1
_chemical_formula_structural   Zr2V3Ru
_chemical_formula_sum   'Zr4 V6 Ru2'
_cell_volume   197.93306519
_cell_formula_units_Z   2
loop_
 _symmetry_equiv_pos_site_id
 _symmetry_equiv_pos_as_xyz
  1  'x, y, z'
loop_
 _atom_site_type_symbol
 _atom_site_label
 _atom_site_symmetry_multiplicity
 _atom_site_fract_x
 _atom_site_fract_y
 _atom_site_fract_z
 _atom_site_occupancy
  Zr  Zr0  1  0.33333200  0.66666700  0.44019681  1
  Zr  Zr1  1  0.66666800  0.33333300  0.55980319  1
  Zr  Zr2  1  0.66666800  0.33333300  0.94019681  1
  Zr  Zr3  1  0.33333200  0.66666700  0.05980319  1
  V  V0  1  0.83116575  0.16883425  0.25000000  1
  V  V1  1  0.83116575  0.66233250  0.25000000  1
  V  V2  1  0.33766750  0.16883425  0.25000000  1
  V  V3  1  0.16883425  0.83116575  0.75000000  1
  V  V4  1  0.16883425  0.33766750  0.75000000  1
  V  V5  1  0.66233250  0.83116575  0.75000000  1
  Ru  Ru0  1  0.00000000  0.00000000  0.50000000  1
  Ru  Ru1  1  0.00000000  0.00000000  -0.00000000  1
loop_
_geom_bond_atom_site_label_1
_geom_bond_atom_site_label_2
_geom_bond_distance
_geom_bond_site_symmetry_2
Zr0 Zr3 3.114859 1_555
Zr0 Zr1 3.203588 1_455
Zr0 Zr1 3.203595 1_565
Zr0 Zr1 3.203612 1_555
Zr1 Zr2 3.114859 1_555
Zr2 Zr3 3.203588 1_656
Zr2 Zr3 3.203595 1_546
Zr2 Zr3 3.203612 1_556
V0 V1 2.607214 1_555
V0 V2 2.607216 1_555
V0 V1 2.675913 1_545
V0 V2 2.675915 1_655
V0 Zr2 2.949800 1_554
V0 Zr1 2.949800 1_555
V0 Zr0 3.066568 1_655
V0 Zr3 3.066568 1_655
V0 Zr3 3.066572 1_545
V0 Zr0 3.066572 1_545
V1 V2 2.607216 1_555
V1 V2 2.675916 1_665
V1 Zr2 2.949807 1_554
V1 Zr1 2.949807 1_555
V1 Zr3 3.066565 1_655
V1 Zr0 3.066565 1_655
V1 Zr3 3.066574 1_555
V1 Zr0 3.066574 1_555
V2 Zr2 2.949810 1_554
V2 Zr1 2.949810 1_555
V2 Zr3 3.066565 1_545
V2 Zr0 3.066565 1_545
V2 Zr3 3.066570 1_555
V2 Zr0 3.066570 1_555
V3 V4 2.607214 1_555
V3 V5 2.607216 1_555
V3 V4 2.675913 1_565
V3 V5 2.675915 1_455
V3 Zr0 2.949800 1_555
V3 Zr3 2.949800 1_556
V3 Zr2 3.066568 1_455
V3 Zr1 3.066568 1_455
V3 Zr1 3.066572 1_565
V3 Zr2 3.066572 1_565
V4 V5 2.607216 1_555
V4 V5 2.675916 1_445
V4 Zr0 2.949807 1_555
V4 Zr3 2.949807 1_556
V4 Zr1 3.066565 1_455
V4 Zr2 3.066565 1_455
V4 Zr1 3.066574 1_555
V4 Zr2 3.066574 1_555
V5 Zr0 2.949810 1_555
V5 Zr3 2.949810 1_556
V5 Zr1 3.066565 1_565
V5 Zr2 3.066565 1_565
V5 Zr2 3.066570 1_555
V5 Zr1 3.066570 1_555
Ru0 V4 2.564677 1_555
Ru0 V1 2.564677 1_445
Ru0 V5 2.564678 1_445
Ru0 V2 2.564678 1_555
Ru0 V3 2.564680 1_545
Ru0 V0 2.564680 1_455
Ru0 Zr1 3.089267 1_455
Ru0 Zr0 3.089267 1_545
Ru0 Zr0 3.089277 1_555
Ru0 Zr1 3.089277 1_445
Ru0 Zr1 3.089284 1_555
Ru0 Zr0 3.089284 1_445
Ru1 V4 2.564677 1_554
Ru1 V1 2.564677 1_445
Ru1 V5 2.564678 1_444
Ru1 V2 2.564678 1_555
Ru1 V0 2.564680 1_455
Ru1 V3 2.564680 1_544
Ru1 Zr2 3.089267 1_454
Ru1 Zr3 3.089267 1_545
Ru1 Zr3 3.089277 1_555
Ru1 Zr2 3.089277 1_444
Ru1 Zr3 3.089284 1_445
Ru1 Zr2 3.089284 1_554
