# generated using pymatgen
data_TiCrAgS4
_symmetry_space_group_name_H-M   'P 1'
_cell_length_a   7.26150596
_cell_length_b   7.26150596
_cell_length_c   7.26150596
_cell_angle_alpha   119.81944709
_cell_angle_beta   119.09605372
_cell_angle_gamma   90.94292120
_symmetry_Int_Tables_number   1
_chemical_formula_structural   TiCrAgS4
_chemical_formula_sum   'Ti2 Cr2 Ag2 S8'
_cell_volume   272.91364250
_cell_formula_units_Z   2
loop_
 _symmetry_equiv_pos_site_id
 _symmetry_equiv_pos_as_xyz
  1  'x, y, z'
loop_
 _atom_site_type_symbol
 _atom_site_label
 _atom_site_symmetry_multiplicity
 _atom_site_fract_x
 _atom_site_fract_y
 _atom_site_fract_z
 _atom_site_occupancy
  Ti  Ti0  1  0.27866100  0.25000000  0.52866100  1
  Ti  Ti1  1  0.22133900  0.75000000  0.97133900  1
  Cr  Cr0  1  0.75000000  0.74519400  0.99519400  1
  Cr  Cr1  1  0.25000000  0.75480600  0.50480600  1
  Ag  Ag0  1  0.87897700  0.12897700  0.75000000  1
  Ag  Ag1  1  0.62102300  0.37102300  0.25000000  1
  S  S0  1  0.48742400  0.51842400  0.98276700  1
  S  S1  1  0.48397100  0.52052500  0.52929900  1
  S  S2  1  0.03565700  0.50465700  0.51723300  1
  S  S3  1  0.49122500  0.95467100  0.97070100  1
  S  S4  1  0.01257600  0.99534300  0.03100000  1
  S  S5  1  0.01602900  0.54532900  0.03655400  1
  S  S6  1  0.46434300  0.98157600  0.46900000  1
  S  S7  1  0.00877500  0.97947500  0.46344600  1
loop_
_geom_bond_atom_site_label_1
_geom_bond_atom_site_label_2
_geom_bond_distance
_geom_bond_site_symmetry_2
Cr0 S5 2.426890 1_656
Cr0 S1 2.426895 1_555
Cr0 S3 2.431983 1_555
Cr0 S7 2.431983 1_656
Cr0 S4 2.436550 1_656
Cr0 S0 2.436550 1_555
Cr1 S7 2.426890 1_555
Cr1 S3 2.426896 1_555
Cr1 S1 2.431982 1_555
Cr1 S5 2.431983 1_555
Cr1 S6 2.436550 1_555
Cr1 S2 2.436550 1_555
Ag0 S5 2.468026 1_656
Ag0 S7 2.468026 1_645
Ag0 S6 2.474145 1_545
Ag0 S4 2.474145 1_646
Ag1 S1 2.468020 1_555
Ag1 S3 2.468026 1_544
Ag1 S2 2.474145 1_655
Ag1 S0 2.474145 1_554
S0 Ti0 2.370590 1_555
S0 Ti1 2.580257 1_555
S1 Ti0 2.443249 1_555
S2 Ti1 2.370590 1_555
S2 Ti0 2.580257 1_555
S3 Ti1 2.443239 1_555
S4 Ti1 2.370590 1_554
S4 Ti0 2.580257 1_565
S5 Ti1 2.443244 1_554
S6 Ti0 2.370590 1_565
S6 Ti1 2.580257 1_554
S7 Ti0 2.443244 1_565
