# generated using pymatgen
data_La4MgCr3O12
_symmetry_space_group_name_H-M   'P 1'
_cell_length_a   7.86161243
_cell_length_b   7.91422334
_cell_length_c   7.87884488
_cell_angle_alpha   89.97539867
_cell_angle_beta   89.95009291
_cell_angle_gamma   89.67831836
_symmetry_Int_Tables_number   1
_chemical_formula_structural   La4MgCr3O12
_chemical_formula_sum   'La8 Mg2 Cr6 O24'
_cell_volume   490.20239967
_cell_formula_units_Z   2
loop_
 _symmetry_equiv_pos_site_id
 _symmetry_equiv_pos_as_xyz
  1  'x, y, z'
loop_
 _atom_site_type_symbol
 _atom_site_label
 _atom_site_symmetry_multiplicity
 _atom_site_fract_x
 _atom_site_fract_y
 _atom_site_fract_z
 _atom_site_occupancy
  La  La0  1  0.01107900  0.74924000  0.47789900  1
  La  La1  1  0.51103700  0.74923600  0.97801900  1
  La  La2  1  0.98894800  0.25076900  0.52199600  1
  La  La3  1  0.48892100  0.25078100  0.02211300  1
  La  La4  1  0.51455500  0.74899400  0.48603700  1
  La  La5  1  0.01458300  0.74900400  0.98608000  1
  La  La6  1  0.48541200  0.25098100  0.51392800  1
  La  La7  1  0.98545100  0.25099600  0.01394500  1
  Mg  Mg0  1  0.25000100  0.99999900  0.25000200  1
  Mg  Mg1  1  0.75000400  0.00000800  0.74999900  1
  Cr  Cr0  1  0.25003200  0.50005400  0.24999000  1
  Cr  Cr1  1  0.74998900  0.49997000  0.74997600  1
  Cr  Cr2  1  0.25000700  0.99999100  0.75003000  1
  Cr  Cr3  1  0.74998400  0.49999900  0.24998400  1
  Cr  Cr4  1  0.25000900  0.49998600  0.75000200  1
  Cr  Cr5  1  0.75000700  0.99999600  0.24999900  1
  O  O0  1  0.27955500  0.74696400  0.29766500  1
  O  O1  1  0.77959300  0.74695100  0.79763300  1
  O  O2  1  0.72040700  0.25304900  0.70236900  1
  O  O3  1  0.22044800  0.25303800  0.20233500  1
  O  O4  1  0.20102800  0.75156700  0.71641200  1
  O  O5  1  0.70054900  0.75155200  0.21618000  1
  O  O6  1  0.79945000  0.24844900  0.28382300  1
  O  O7  1  0.29897300  0.24843200  0.78358600  1
  O  O8  1  0.98918300  0.95868700  0.21872900  1
  O  O9  1  0.48927000  0.95860900  0.71870600  1
  O  O10  1  0.01072900  0.04138300  0.78129200  1
  O  O11  1  0.51081400  0.04131000  0.28127500  1
  O  O12  1  0.78514800  0.54366500  0.49887200  1
  O  O13  1  0.28515900  0.54365700  0.99889100  1
  O  O14  1  0.21483600  0.45634500  0.50110900  1
  O  O15  1  0.71484500  0.45633800  0.00112900  1
  O  O16  1  0.00111300  0.45674300  0.78561500  1
  O  O17  1  0.50113600  0.45673400  0.28559600  1
  O  O18  1  0.99886000  0.54326400  0.21440400  1
  O  O19  1  0.49889000  0.54326200  0.71438300  1
  O  O20  1  0.22219100  0.04156100  0.51186600  1
  O  O21  1  0.72224800  0.04153200  0.01198300  1
  O  O22  1  0.77774800  0.95846700  0.48801700  1
  O  O23  1  0.27780800  0.95844200  0.98813200  1
loop_
_geom_bond_atom_site_label_1
_geom_bond_atom_site_label_2
_geom_bond_distance
_geom_bond_site_symmetry_2
La0 O4 2.401447 1_555
La0 O12 2.420920 1_455
La0 O22 2.465538 1_455
La0 O0 2.542845 1_555
La0 O8 2.634655 1_455
La0 O18 2.642257 1_455
La0 O14 2.816227 1_555
La0 O20 2.867548 1_565
La1 O5 2.397135 1_556
La1 O13 2.420581 1_555
La1 O23 2.464832 1_555
La1 O1 2.544035 1_555
La1 O9 2.635097 1_555
La1 O19 2.643098 1_555
La1 O15 2.816422 1_556
La1 O21 2.867840 1_566
La2 O6 2.397141 1_555
La2 O14 2.420631 1_655
La2 O20 2.464929 1_655
La2 O2 2.543880 1_555
La2 O10 2.635065 1_655
La2 O16 2.642998 1_655
La2 O12 2.816381 1_555
La2 O22 2.867839 1_545
La3 O7 2.401530 1_554
La3 O15 2.420789 1_555
La3 O21 2.465634 1_555
La3 O3 2.542772 1_555
La3 O11 2.634724 1_555
La3 O17 2.642069 1_555
La3 O13 2.816132 1_554
La3 O23 2.867679 1_544
La4 O0 2.370924 1_555
La4 O19 2.429476 1_555
La4 O9 2.479991 1_555
La4 O5 2.579519 1_555
La4 O22 2.658657 1_555
La4 O12 2.671652 1_555
La4 O17 2.803806 1_555
La4 O11 2.819884 1_565
La5 O1 2.371235 1_455
La5 O18 2.429414 1_456
La5 O8 2.480303 1_456
La5 O4 2.580303 1_555
La5 O23 2.658684 1_555
La5 O13 2.671625 1_555
La5 O16 2.803936 1_555
La5 O10 2.820416 1_565
La6 O2 2.371237 1_555
La6 O17 2.429530 1_555
La6 O11 2.480264 1_555
La6 O7 2.580210 1_555
La6 O20 2.658570 1_555
La6 O14 2.671709 1_555
La6 O19 2.804025 1_555
La6 O9 2.820326 1_545
La7 O3 2.370995 1_655
La7 O16 2.429461 1_654
La7 O10 2.479883 1_654
La7 O6 2.579685 1_555
La7 O21 2.658673 1_555
La7 O15 2.671790 1_555
La7 O18 2.803934 1_555
La7 O8 2.819937 1_545
Mg0 O0 2.049291 1_555
Mg0 O3 2.049327 1_565
Mg0 O11 2.092908 1_565
Mg0 O8 2.092948 1_455
Mg0 O20 2.100410 1_565
Mg0 O23 2.100447 1_554
Mg1 O2 2.049327 1_555
Mg1 O1 2.049449 1_545
Mg1 O10 2.092330 1_655
Mg1 O9 2.092431 1_545
Mg1 O22 2.101244 1_545
Mg1 O21 2.101248 1_556
Cr0 O0 2.004831 1_555
Cr0 O3 2.005678 1_555
Cr0 O17 2.021516 1_555
Cr0 O18 2.021873 1_455
Cr0 O13 2.027024 1_554
Cr0 O14 2.027395 1_555
Cr1 O2 2.004872 1_555
Cr1 O1 2.005430 1_555
Cr1 O19 2.021427 1_555
Cr1 O16 2.021585 1_655
Cr1 O12 2.027221 1_555
Cr1 O15 2.027496 1_556
Cr2 O23 1.916907 1_555
Cr2 O20 1.917427 1_565
Cr2 O9 1.923187 1_555
Cr2 O10 1.923253 1_565
Cr2 O4 2.023124 1_555
Cr2 O7 2.023171 1_565
Cr3 O17 2.007422 1_555
Cr3 O18 2.007602 1_555
Cr3 O15 2.010626 1_555
Cr3 O12 2.010914 1_555
Cr3 O5 2.043644 1_555
Cr3 O6 2.043702 1_555
Cr4 O19 2.007698 1_555
Cr4 O16 2.007761 1_555
Cr4 O13 2.010913 1_555
Cr4 O14 2.010928 1_555
Cr4 O7 2.042746 1_555
Cr4 O4 2.042985 1_555
Cr5 O22 1.916179 1_555
Cr5 O21 1.916189 1_565
Cr5 O8 1.922369 1_555
Cr5 O11 1.922512 1_565
Cr5 O5 2.024228 1_555
Cr5 O6 2.024279 1_565
