# generated using pymatgen
data_Li9Mn2Co5O16
_symmetry_space_group_name_H-M   'P 1'
_cell_length_a   2.89843400
_cell_length_b   9.83908200
_cell_length_c   10.20993676
_cell_angle_alpha   80.28026642
_cell_angle_beta   90.00000000
_cell_angle_gamma   90.00000000
_symmetry_Int_Tables_number   1
_chemical_formula_structural   Li9Mn2Co5O16
_chemical_formula_sum   'Li9 Mn2 Co5 O16'
_cell_volume   286.98667881
_cell_formula_units_Z   1
loop_
 _symmetry_equiv_pos_site_id
 _symmetry_equiv_pos_as_xyz
  1  'x, y, z'
loop_
 _atom_site_type_symbol
 _atom_site_label
 _atom_site_symmetry_multiplicity
 _atom_site_fract_x
 _atom_site_fract_y
 _atom_site_fract_z
 _atom_site_occupancy
  Li  Li0  1  0.50000000  0.26055000  0.87627500  1
  Li  Li1  1  0.50000000  0.74568300  0.62564800  1
  Li  Li2  1  0.50000000  0.26056100  0.37276600  1
  Li  Li3  1  0.00000000  0.24990300  0.61927100  1
  Li  Li4  1  0.00000000  0.74539700  0.37937700  1
  Li  Li5  1  0.00000000  0.27072600  0.11890900  1
  Li  Li6  1  0.50000000  0.73966700  0.12774800  1
  Li  Li7  1  0.00000000  0.73053600  0.88613000  1
  Li  Li8  1  0.50000000  0.49646600  0.99968100  1
  Mn  Mn0  1  0.00000000  0.00371100  0.99837600  1
  Mn  Mn1  1  0.00000000  0.49528300  0.75816500  1
  Co  Co0  1  0.00000000  0.99517900  0.50292600  1
  Co  Co1  1  0.00000000  0.50869500  0.23021500  1
  Co  Co2  1  0.50000000  0.49949400  0.49505300  1
  Co  Co3  1  0.50000000  0.00453800  0.25153800  1
  Co  Co4  1  0.50000000  0.99539000  0.74689400  1
  O  O0  1  0.50000000  0.11439800  0.05091400  1
  O  O1  1  0.50000000  0.61012700  0.80461600  1
  O  O2  1  0.50000000  0.11438200  0.56445700  1
  O  O3  1  0.00000000  0.10758800  0.82157700  1
  O  O4  1  0.00000000  0.60764600  0.56887500  1
  O  O5  1  0.00000000  0.11030200  0.30948500  1
  O  O6  1  0.50000000  0.61669100  0.31385400  1
  O  O7  1  0.00000000  0.62536400  0.07257800  1
  O  O8  1  0.50000000  0.38756100  0.69154600  1
  O  O9  1  0.50000000  0.88324800  0.43913000  1
  O  O10  1  0.50000000  0.38293900  0.19361500  1
  O  O11  1  0.00000000  0.38455600  0.44025500  1
  O  O12  1  0.00000000  0.90219600  0.18297000  1
  O  O13  1  0.00000000  0.38388600  0.92226700  1
  O  O14  1  0.50000000  0.88951900  0.94764800  1
  O  O15  1  0.00000000  0.87782000  0.68724100  1
loop_
_geom_bond_atom_site_label_1
_geom_bond_atom_site_label_2
_geom_bond_distance
_geom_bond_site_symmetry_2
Li0 O13 1.996435 1_655
Li0 O13 1.996435 1_555
Li0 O8 2.079205 1_555
Li0 O0 2.093170 1_556
Li0 O3 2.227319 1_655
Li0 O3 2.227319 1_555
Li1 O1 2.072396 1_555
Li1 O15 2.112354 1_655
Li1 O15 2.112354 1_555
Li1 O4 2.132284 1_555
Li1 O4 2.132284 1_655
Li1 O9 2.142001 1_555
Li2 O10 2.012919 1_555
Li2 O11 2.085012 1_555
Li2 O11 2.085012 1_655
Li2 O2 2.224541 1_555
Li2 O5 2.241851 1_555
Li2 O5 2.241851 1_655
Li3 O11 2.068395 1_555
Li3 O2 2.107930 1_455
Li3 O2 2.107930 1_555
Li3 O8 2.194701 1_555
Li3 O8 2.194701 1_455
Li3 O3 2.291402 1_555
Li4 O6 2.106529 1_455
Li4 O6 2.106529 1_555
Li4 O9 2.142765 1_455
Li4 O9 2.142765 1_555
Li4 O4 2.166756 1_555
Li4 O12 2.314462 1_555
Li5 O10 2.045809 1_455
Li5 O10 2.045809 1_555
Li5 O13 2.125023 1_554
Li5 O5 2.289194 1_555
Li5 O0 2.304030 1_455
Li5 O0 2.304030 1_555
Li6 O7 1.973886 1_655
Li6 O7 1.973886 1_555
Li6 O6 2.073214 1_555
Li6 O14 2.153985 1_554
Li6 O12 2.297779 1_655
Li6 O12 2.297779 1_555
Li7 O7 2.007347 1_556
Li7 O1 2.128226 1_455
Li7 O1 2.128226 1_555
Li7 O15 2.286897 1_555
Li7 O14 2.296377 1_555
Li7 O14 2.296377 1_455
Li8 O13 2.060955 1_655
Li8 O13 2.060955 1_555
Li8 O10 2.102736 1_556
Li8 O1 2.113071 1_555
Li8 O7 2.140402 1_556
Li8 O7 2.140402 1_656
Mn0 O3 1.918347 1_555
Mn0 O0 1.941975 1_456
Mn0 O0 1.941975 1_556
Mn0 O14 1.956354 1_445
Mn0 O14 1.956354 1_545
Mn0 O12 1.978401 1_546
Mn1 O13 1.840773 1_555
Mn1 O1 1.944971 1_455
Mn1 O1 1.944971 1_555
Mn1 O8 1.982334 1_555
Mn1 O8 1.982334 1_455
Mn1 O4 2.058126 1_555
Co0 O9 1.994884 1_555
Co0 O9 1.994884 1_455
Co0 O2 2.029597 1_565
Co0 O2 2.029597 1_465
Co0 O15 2.034935 1_555
Co0 O5 2.104364 1_565
Co1 O7 1.812251 1_555
Co1 O10 1.981656 1_555
Co1 O10 1.981656 1_455
Co1 O6 2.065170 1_455
Co1 O6 2.065170 1_555
Co1 O11 2.281727 1_555
Co2 O11 1.976308 1_655
Co2 O11 1.976308 1_555
Co2 O6 2.007973 1_555
Co2 O4 2.017791 1_555
Co2 O4 2.017791 1_655
Co2 O8 2.119346 1_555
Co3 O5 1.934176 1_555
Co3 O5 1.934176 1_655
Co3 O12 1.960182 1_545
Co3 O12 1.960182 1_645
Co3 O9 2.078645 1_545
Co3 O0 2.148616 1_555
Co4 O15 2.011768 1_655
Co4 O15 2.011768 1_555
Co4 O2 2.025808 1_565
Co4 O3 2.045611 1_565
Co4 O3 2.045611 1_665
Co4 O14 2.136670 1_555
