# generated using pymatgen
data_Sr2LiRh
_symmetry_space_group_name_H-M   'P 1'
_cell_length_a   5.33536234
_cell_length_b   5.33536234
_cell_length_c   5.33536234
_cell_angle_alpha   60.00000000
_cell_angle_beta   60.00000000
_cell_angle_gamma   60.00000000
_symmetry_Int_Tables_number   1
_chemical_formula_structural   Sr2LiRh
_chemical_formula_sum   'Sr2 Li1 Rh1'
_cell_volume   107.39319396
_cell_formula_units_Z   1
loop_
 _symmetry_equiv_pos_site_id
 _symmetry_equiv_pos_as_xyz
  1  'x, y, z'
loop_
 _atom_site_type_symbol
 _atom_site_label
 _atom_site_symmetry_multiplicity
 _atom_site_fract_x
 _atom_site_fract_y
 _atom_site_fract_z
 _atom_site_occupancy
  Sr  Sr0  1  0.25000000  0.25000000  0.25000000  1
  Sr  Sr1  1  0.75000000  0.75000000  0.75000000  1
  Li  Li0  1  0.50000000  0.50000000  0.50000000  1
  Rh  Rh0  1  0.00000000  -0.00000000  0.00000000  1
loop_
_geom_bond_atom_site_label_1
_geom_bond_atom_site_label_2
_geom_bond_distance
_geom_bond_site_symmetry_2
Li0 Sr1 3.267229 1_455
Li0 Sr0 3.267229 1_655
Li0 Sr1 3.267229 1_545
Li0 Sr0 3.267229 1_555
Li0 Sr0 3.267229 1_556
Li0 Sr1 3.267229 1_554
Li0 Sr1 3.267229 1_555
Li0 Sr0 3.267229 1_565
Rh0 Sr1 3.267229 1_544
Rh0 Sr0 3.267229 1_455
Rh0 Sr1 3.267229 1_444
Rh0 Sr1 3.267229 1_454
Rh0 Sr0 3.267229 1_555
Rh0 Sr0 3.267229 1_554
Rh0 Sr0 3.267229 1_545
Rh0 Sr1 3.267229 1_445
