# generated using pymatgen
data_Mg3Si4
_symmetry_space_group_name_H-M   'P 1'
_cell_length_a   4.40923500
_cell_length_b   8.12373987
_cell_length_c   8.24204004
_cell_angle_alpha   111.23207767
_cell_angle_beta   96.76329396
_cell_angle_gamma   101.07503675
_symmetry_Int_Tables_number   1
_chemical_formula_structural   Mg3Si4
_chemical_formula_sum   'Mg6 Si8'
_cell_volume   264.33737812
_cell_formula_units_Z   2
loop_
 _symmetry_equiv_pos_site_id
 _symmetry_equiv_pos_as_xyz
  1  'x, y, z'
loop_
 _atom_site_type_symbol
 _atom_site_label
 _atom_site_symmetry_multiplicity
 _atom_site_fract_x
 _atom_site_fract_y
 _atom_site_fract_z
 _atom_site_occupancy
  Mg  Mg0  1  0.97928900  0.32046400  0.78873600  1
  Mg  Mg1  1  0.46815800  0.12197800  0.94445900  1
  Mg  Mg2  1  0.99510300  0.62346200  0.55805200  1
  Mg  Mg3  1  0.19984300  0.33843900  0.25479300  1
  Mg  Mg4  1  0.28481000  0.02688300  0.53852400  1
  Mg  Mg5  1  0.62036000  0.73014900  0.89587700  1
  Si  Si0  1  0.50619700  0.72142800  0.40137600  1
  Si  Si1  1  0.60846800  0.50631200  0.10583100  1
  Si  Si2  1  0.44430100  0.39745700  0.61229900  1
  Si  Si3  1  0.73193100  0.24202900  0.41117900  1
  Si  Si4  1  0.82209500  0.95050700  0.72408100  1
  Si  Si5  1  0.73550200  0.92813200  0.27173600  1
  Si  Si6  1  0.13442500  0.63429600  0.08790900  1
  Si  Si7  1  0.22263700  0.95831300  0.15170800  1
loop_
_geom_bond_atom_site_label_1
_geom_bond_atom_site_label_2
_geom_bond_distance
_geom_bond_site_symmetry_2
Mg0 Si6 2.725324 1_656
Mg0 Si2 2.752854 1_655
Mg0 Si4 2.783830 1_545
Mg0 Si2 2.913406 1_555
Mg0 Si3 2.962526 1_555
Mg1 Si4 2.710218 1_545
Mg1 Si7 2.717538 1_546
Mg1 Si1 2.820707 1_556
Mg1 Si4 2.962864 1_445
Mg2 Si0 2.774126 1_555
Mg2 Si4 2.811486 1_555
Mg2 Si3 2.825684 1_555
Mg2 Si0 2.849574 1_655
Mg2 Si2 2.933638 1_555
Mg2 Si2 3.045774 1_655
Mg3 Si3 2.695930 1_455
Mg3 Si1 2.720875 1_555
Mg3 Si2 2.846781 1_555
Mg3 Si0 2.871042 1_555
Mg3 Si3 2.916135 1_555
Mg3 Si7 2.916679 1_545
Mg3 Si6 3.212331 1_555
Mg4 Si0 2.747186 1_545
Mg4 Si2 2.772573 1_555
Mg4 Si4 2.796840 1_445
Mg4 Si5 2.840125 1_445
Mg4 Si3 2.921525 1_555
Mg4 Si4 2.955470 1_545
Mg4 Si7 2.999824 1_545
Mg4 Si5 3.129160 1_545
Mg5 Si4 2.742532 1_555
Mg5 Si2 2.749783 1_555
Mg5 Si5 2.854526 1_556
Mg5 Si1 2.927044 1_556
Mg5 Si6 2.958472 1_556
Mg5 Si7 2.982127 1_656
Mg5 Si6 2.995796 1_656
Si0 Si5 2.425986 1_555
Si0 Si1 2.582463 1_555
Si0 Si4 2.650299 1_555
Si0 Si6 2.663694 1_555
Si1 Si6 2.397180 1_655
Si1 Si6 2.518935 1_555
Si2 Si3 2.354757 1_555
Si3 Si5 2.391799 1_545
Si5 Si7 2.452392 1_555
Si5 Si7 2.475088 1_655
Si6 Si7 2.431544 1_555
