# generated using pymatgen
data_NaCaDySeO6
_symmetry_space_group_name_H-M   'P 1'
_cell_length_a   5.64956029
_cell_length_b   5.64956029
_cell_length_c   5.64956029
_cell_angle_alpha   60.00000000
_cell_angle_beta   60.00000000
_cell_angle_gamma   60.00000000
_symmetry_Int_Tables_number   1
_chemical_formula_structural   NaCaDySeO6
_chemical_formula_sum   'Na1 Ca1 Dy1 Se1 O6'
_cell_volume   127.50550759
_cell_formula_units_Z   1
loop_
 _symmetry_equiv_pos_site_id
 _symmetry_equiv_pos_as_xyz
  1  'x, y, z'
loop_
 _atom_site_type_symbol
 _atom_site_label
 _atom_site_symmetry_multiplicity
 _atom_site_fract_x
 _atom_site_fract_y
 _atom_site_fract_z
 _atom_site_occupancy
  Na  Na0  1  0.25000000  0.25000000  0.25000000  1
  Ca  Ca0  1  0.75000000  0.75000000  0.75000000  1
  Dy  Dy0  1  0.00000000  0.00000000  0.00000000  1
  Se  Se0  1  0.50000000  0.50000000  0.50000000  1
  O  O0  1  0.72658969  0.27341031  0.27341031  1
  O  O1  1  0.27341031  0.72658969  0.72658969  1
  O  O2  1  0.72658969  0.27341031  0.72658969  1
  O  O3  1  0.27341031  0.72658969  0.27341031  1
  O  O4  1  0.72658969  0.72658969  0.27341031  1
  O  O5  1  0.27341031  0.27341031  0.72658969  1
loop_
_geom_bond_atom_site_label_1
_geom_bond_atom_site_label_2
_geom_bond_distance
_geom_bond_site_symmetry_2
Na0 O5 2.830966 1_555
Na0 O2 2.830966 1_455
Na0 O4 2.830966 1_545
Na0 O0 2.830966 1_555
Na0 O3 2.830966 1_555
Na0 O4 2.830966 1_455
Na0 O1 2.830966 1_554
Na0 O3 2.830966 1_545
Na0 O2 2.830966 1_554
Na0 O0 2.830966 1_455
Na0 O1 2.830966 1_545
Na0 O5 2.830966 1_554
Ca0 O1 2.830966 1_655
Ca0 O2 2.830966 1_565
Ca0 O3 2.830966 1_655
Ca0 O4 2.830966 1_556
Ca0 O0 2.830966 1_565
Ca0 O5 2.830966 1_655
Ca0 O5 2.830966 1_565
Ca0 O3 2.830966 1_556
Ca0 O0 2.830966 1_556
Ca0 O2 2.830966 1_555
Ca0 O4 2.830966 1_555
Ca0 O1 2.830966 1_555
Dy0 O3 2.184462 1_545
Dy0 O5 2.184462 1_554
Dy0 O0 2.184462 1_455
Dy0 O4 2.184462 1_445
Dy0 O2 2.184462 1_454
Dy0 O1 2.184462 1_544
O0 Se0 1.810380 1_555
O1 Se0 1.810380 1_555
O2 Se0 1.810380 1_555
O3 Se0 1.810380 1_555
O4 Se0 1.810380 1_555
O5 Se0 1.810380 1_555
