# generated using pymatgen
data_Ca(CoO2)2
_symmetry_space_group_name_H-M   'P 1'
_cell_length_a   5.18801532
_cell_length_b   5.18801532
_cell_length_c   9.78481400
_cell_angle_alpha   90.00000000
_cell_angle_beta   90.00000000
_cell_angle_gamma   145.03886661
_symmetry_Int_Tables_number   1
_chemical_formula_structural   Ca(CoO2)2
_chemical_formula_sum   'Ca2 Co4 O8'
_cell_volume   150.91254163
_cell_formula_units_Z   2
loop_
 _symmetry_equiv_pos_site_id
 _symmetry_equiv_pos_as_xyz
  1  'x, y, z'
loop_
 _atom_site_type_symbol
 _atom_site_label
 _atom_site_symmetry_multiplicity
 _atom_site_fract_x
 _atom_site_fract_y
 _atom_site_fract_z
 _atom_site_occupancy
  Ca  Ca0  1  0.60748200  0.39251800  0.75000000  1
  Ca  Ca1  1  0.39251800  0.60748200  0.25000000  1
  Co  Co0  1  0.13544600  0.86455400  0.06725600  1
  Co  Co1  1  0.86455400  0.13544600  0.93274400  1
  Co  Co2  1  0.13544600  0.86455400  0.43274400  1
  Co  Co3  1  0.86455400  0.13544600  0.56725600  1
  O  O0  1  0.77261700  0.22738300  0.39298500  1
  O  O1  1  0.22738300  0.77261700  0.60701500  1
  O  O2  1  0.22738300  0.77261700  0.89298500  1
  O  O3  1  0.77261700  0.22738300  0.10701500  1
  O  O4  1  0.06760400  0.93239600  0.25000000  1
  O  O5  1  0.93239600  0.06760400  0.75000000  1
  O  O6  1  0.50000000  0.50000000  0.00000000  1
  O  O7  1  0.50000000  0.50000000  0.50000000  1
loop_
_geom_bond_atom_site_label_1
_geom_bond_atom_site_label_2
_geom_bond_distance
_geom_bond_site_symmetry_2
Ca0 O5 2.330487 1_455
Ca0 O5 2.330487 1_565
Ca0 O1 2.407099 1_545
Ca0 O2 2.407099 1_545
Ca0 O1 2.407099 1_655
Ca0 O2 2.407099 1_655
Ca0 O6 2.667478 1_556
Ca0 O7 2.667478 1_555
Ca1 O4 2.330487 1_545
Ca1 O4 2.330487 1_655
Ca1 O3 2.407099 1_455
Ca1 O0 2.407099 1_455
Ca1 O3 2.407099 1_565
Ca1 O0 2.407099 1_565
Ca1 O7 2.667478 1_555
Ca1 O6 2.667478 1_555
Co0 O4 1.910018 1_555
Co0 O2 1.932779 1_554
Co0 O3 2.103068 1_565
Co0 O3 2.103068 1_455
Co0 O6 2.158371 1_455
Co0 O6 2.158371 1_565
Co1 O5 1.910018 1_555
Co1 O3 1.932779 1_556
Co1 O2 2.103068 1_655
Co1 O2 2.103068 1_545
Co1 O6 2.158371 1_656
Co1 O6 2.158371 1_546
Co2 O4 1.910018 1_555
Co2 O1 1.932779 1_555
Co2 O0 2.103068 1_565
Co2 O0 2.103068 1_455
Co2 O7 2.158371 1_455
Co2 O7 2.158371 1_565
Co3 O5 1.910018 1_555
Co3 O0 1.932779 1_555
Co3 O1 2.103068 1_655
Co3 O1 2.103068 1_545
Co3 O7 2.158371 1_655
Co3 O7 2.158371 1_545
