# generated using pymatgen
data_Sr5Ca3TiMn7O24
_symmetry_space_group_name_H-M   'P 1'
_cell_length_a   7.72209893
_cell_length_b   7.72209893
_cell_length_c   7.71867215
_cell_angle_alpha   89.99212076
_cell_angle_beta   89.99212076
_cell_angle_gamma   89.98974828
_symmetry_Int_Tables_number   1
_chemical_formula_structural   Sr5Ca3TiMn7O24
_chemical_formula_sum   'Sr5 Ca3 Ti1 Mn7 O24'
_cell_volume   460.27067125
_cell_formula_units_Z   1
loop_
 _symmetry_equiv_pos_site_id
 _symmetry_equiv_pos_as_xyz
  1  'x, y, z'
loop_
 _atom_site_type_symbol
 _atom_site_label
 _atom_site_symmetry_multiplicity
 _atom_site_fract_x
 _atom_site_fract_y
 _atom_site_fract_z
 _atom_site_occupancy
  Sr  Sr0  1  0.24865300  0.75136600  0.75151600  1
  Sr  Sr1  1  0.75139700  0.75139700  0.75153000  1
  Sr  Sr2  1  0.24865200  0.24865200  0.75135900  1
  Sr  Sr3  1  0.75136600  0.24865300  0.75151600  1
  Sr  Sr4  1  0.24846800  0.24846800  0.24856300  1
  Ca  Ca0  1  0.24801300  0.75178800  0.24812000  1
  Ca  Ca1  1  0.75202300  0.75202300  0.24816600  1
  Ca  Ca2  1  0.75178800  0.24801300  0.24812000  1
  Ti  Ti0  1  0.50104300  0.50104300  0.49696300  1
  Mn  Mn0  1  0.99958700  0.50049100  0.00136100  1
  Mn  Mn1  1  0.50058400  0.50058400  0.00103800  1
  Mn  Mn2  1  0.99968500  0.50056800  0.49825700  1
  Mn  Mn3  1  0.99952900  0.99952900  0.00149100  1
  Mn  Mn4  1  0.50049100  0.99958700  0.00136100  1
  Mn  Mn5  1  0.99956900  0.99956900  0.49847900  1
  Mn  Mn6  1  0.50056800  0.99968500  0.49825700  1
  O  O0  1  0.99973400  0.74996000  0.00534700  1
  O  O1  1  0.50019900  0.74971300  0.00540100  1
  O  O2  1  0.99972300  0.74970800  0.49460100  1
  O  O3  1  0.50038700  0.75315300  0.49601700  1
  O  O4  1  0.99741700  0.25005500  0.00310100  1
  O  O5  1  0.50261800  0.25023200  0.00311200  1
  O  O6  1  0.99740500  0.25024700  0.49699200  1
  O  O7  1  0.50184200  0.24691200  0.49738200  1
  O  O8  1  0.99974000  0.50018000  0.74980800  1
  O  O9  1  0.50038300  0.50038300  0.75306900  1
  O  O10  1  0.99744600  0.50259100  0.25030200  1
  O  O11  1  0.50174100  0.50174100  0.24678900  1
  O  O12  1  0.99973800  0.99973800  0.74992700  1
  O  O13  1  0.50018000  0.99974000  0.74980800  1
  O  O14  1  0.99746000  0.99746000  0.24999400  1
  O  O15  1  0.50259100  0.99744600  0.25030200  1
  O  O16  1  0.25023200  0.50261800  0.00311200  1
  O  O17  1  0.74971300  0.50019900  0.00540100  1
  O  O18  1  0.24691200  0.50184200  0.49738200  1
  O  O19  1  0.75315300  0.50038700  0.49601700  1
  O  O20  1  0.25005500  0.99741700  0.00310100  1
  O  O21  1  0.74996000  0.99973400  0.00534700  1
  O  O22  1  0.25024700  0.99740500  0.49699200  1
  O  O23  1  0.74970800  0.99972300  0.49460100  1
loop_
_geom_bond_atom_site_label_1
_geom_bond_atom_site_label_2
_geom_bond_distance
_geom_bond_site_symmetry_2
Ca0 O20 2.678381 1_555
Ca0 O0 2.681127 1_455
Ca0 O16 2.698127 1_555
Ca0 O22 2.699778 1_555
Ca0 O2 2.700908 1_455
Ca0 O1 2.702133 1_555
Ca0 O14 2.709489 1_455
Ca0 O18 2.725075 1_555
Ca0 O10 2.729189 1_455
Ca0 O3 2.731379 1_555
Ca0 O15 2.732197 1_555
Ca0 O11 2.750634 1_555
Ca1 O0 2.677878 1_555
Ca1 O21 2.677878 1_555
Ca1 O14 2.680623 1_555
Ca1 O2 2.697803 1_555
Ca1 O23 2.697803 1_555
Ca1 O1 2.700752 1_555
Ca1 O17 2.700752 1_555
Ca1 O15 2.701978 1_555
Ca1 O10 2.701978 1_555
Ca1 O19 2.726682 1_555
Ca1 O3 2.726682 1_555
Ca1 O11 2.733521 1_555
Ca2 O4 2.678381 1_555
Ca2 O21 2.681127 1_545
Ca2 O5 2.698127 1_555
Ca2 O6 2.699778 1_555
Ca2 O23 2.700908 1_545
Ca2 O17 2.702133 1_555
Ca2 O14 2.709489 1_545
Ca2 O7 2.725075 1_555
Ca2 O15 2.729189 1_545
Ca2 O19 2.731379 1_555
Ca2 O10 2.732197 1_555
Ca2 O11 2.750634 1_555
Mn0 O10 1.921633 1_555
Mn0 O0 1.926675 1_555
Mn0 O17 1.929801 1_555
Mn0 O4 1.934012 1_555
Mn0 O16 1.935627 1_655
Mn0 O8 1.941657 1_554
Mn1 O11 1.896916 1_555
Mn1 O9 1.913993 1_554
Mn1 O1 1.924100 1_555
Mn1 O17 1.924100 1_555
Mn1 O16 1.933368 1_555
Mn1 O5 1.933368 1_555
Mn2 O19 1.903826 1_555
Mn2 O18 1.909149 1_655
Mn2 O10 1.914025 1_555
Mn2 O2 1.924087 1_555
Mn2 O6 1.933113 1_555
Mn2 O8 1.941642 1_555
Mn3 O14 1.918242 1_555
Mn3 O0 1.927423 1_555
Mn3 O21 1.927423 1_555
Mn3 O4 1.934694 1_565
Mn3 O20 1.934694 1_655
Mn3 O12 1.941741 1_554
Mn4 O15 1.921633 1_555
Mn4 O21 1.926675 1_555
Mn4 O1 1.929801 1_555
Mn4 O20 1.934012 1_555
Mn4 O5 1.935627 1_565
Mn4 O13 1.941657 1_554
Mn5 O14 1.918117 1_555
Mn5 O23 1.929688 1_555
Mn5 O2 1.929688 1_555
Mn5 O6 1.935862 1_565
Mn5 O22 1.935862 1_655
Mn5 O12 1.940846 1_555
Mn6 O3 1.903826 1_555
Mn6 O7 1.909149 1_565
Mn6 O15 1.914025 1_555
Mn6 O23 1.924087 1_555
Mn6 O22 1.933113 1_555
Mn6 O13 1.941642 1_555
O0 Sr1 2.741686 1_554
O0 Sr0 2.744533 1_654
O1 Sr1 2.757115 1_554
O1 Sr0 2.759457 1_554
O2 Sr1 2.758476 1_555
O2 Sr0 2.762024 1_655
O3 Ti0 1.946837 1_555
O3 Sr1 2.765497 1_555
O3 Sr0 2.768966 1_555
O4 Sr4 2.710929 1_655
O4 Sr3 2.717028 1_554
O4 Sr2 2.745653 1_654
O5 Sr4 2.727672 1_555
O5 Sr3 2.731323 1_554
O5 Sr2 2.761041 1_554
O6 Sr4 2.726686 1_655
O6 Sr3 2.732854 1_555
O6 Sr2 2.760476 1_655
O7 Ti0 1.962436 1_555
O7 Sr4 2.741876 1_555
O7 Sr3 2.749867 1_555
O7 Sr2 2.768537 1_555
O8 Sr1 2.727605 1_555
O8 Sr3 2.729961 1_555
O8 Sr0 2.731022 1_655
O8 Sr2 2.732396 1_655
O9 Ti0 1.976810 1_555
O9 Sr1 2.741517 1_555
O9 Sr0 2.744772 1_555
O9 Sr3 2.744772 1_555
O9 Sr2 2.749358 1_555
O10 Sr4 2.758106 1_655
O11 Ti0 1.931025 1_555
O11 Sr4 2.766196 1_555
O12 Sr1 2.712325 1_555
O12 Sr3 2.715147 1_565
O12 Sr0 2.715147 1_655
O12 Sr2 2.718582 1_665
O13 Sr1 2.727605 1_555
O13 Sr0 2.729961 1_555
O13 Sr3 2.731022 1_565
O13 Sr2 2.732396 1_565
O14 Sr4 2.741448 1_665
O15 Sr4 2.758106 1_565
O16 Sr4 2.727672 1_555
O16 Sr0 2.731323 1_554
O16 Sr2 2.761041 1_554
O17 Sr1 2.757115 1_554
O17 Sr3 2.759457 1_554
O18 Ti0 1.962436 1_555
O18 Sr4 2.741876 1_555
O18 Sr0 2.749867 1_555
O18 Sr2 2.768537 1_555
O19 Ti0 1.946837 1_555
O19 Sr1 2.765497 1_555
O19 Sr3 2.768966 1_555
O20 Sr4 2.710929 1_565
O20 Sr0 2.717028 1_554
O20 Sr2 2.745653 1_564
O21 Sr1 2.741686 1_554
O21 Sr3 2.744533 1_564
O22 Sr4 2.726686 1_565
O22 Sr0 2.732854 1_555
O22 Sr2 2.760476 1_565
O23 Sr1 2.758476 1_555
O23 Sr3 2.762024 1_565
