# generated using pymatgen
data_Co3(PO4)2
_symmetry_space_group_name_H-M   'P 1'
_cell_length_a   4.79353547
_cell_length_b   6.01343008
_cell_length_c   10.34817429
_cell_angle_alpha   90.80807674
_cell_angle_beta   89.53584989
_cell_angle_gamma   90.28628648
_symmetry_Int_Tables_number   1
_chemical_formula_structural   Co3(PO4)2
_chemical_formula_sum   'Co6 P4 O16'
_cell_volume   298.24922440
_cell_formula_units_Z   2
loop_
 _symmetry_equiv_pos_site_id
 _symmetry_equiv_pos_as_xyz
  1  'x, y, z'
loop_
 _atom_site_type_symbol
 _atom_site_label
 _atom_site_symmetry_multiplicity
 _atom_site_fract_x
 _atom_site_fract_y
 _atom_site_fract_z
 _atom_site_occupancy
  Co  Co0  1  0.52411900  0.23620800  0.77458900  1
  Co  Co1  1  0.97996100  0.23498400  0.27653200  1
  Co  Co2  1  0.02004500  0.76502300  0.72347100  1
  Co  Co3  1  0.47588900  0.76378500  0.22541000  1
  Co  Co4  1  0.49999800  0.50000800  0.49999900  1
  Co  Co5  1  0.00000100  0.49999300  0.00000000  1
  P  P0  1  0.07978000  0.25731300  0.59484000  1
  P  P1  1  0.42423400  0.25762100  0.09701000  1
  P  P2  1  0.57576600  0.74236400  0.90299100  1
  P  P3  1  0.92021700  0.74270200  0.40516000  1
  O  O0  1  0.73139100  0.53288200  0.83935900  1
  O  O1  1  0.23816100  0.47159500  0.65374300  1
  O  O2  1  0.26860700  0.46710400  0.16064200  1
  O  O3  1  0.76183300  0.52842000  0.34625500  1
  O  O4  1  0.19103600  0.24998500  0.45369200  1
  O  O5  1  0.68370500  0.74572800  0.04388900  1
  O  O6  1  0.31629900  0.25426000  0.95611200  1
  O  O7  1  0.80896500  0.75002700  0.54630800  1
  O  O8  1  0.23978900  0.72486500  0.39602000  1
  O  O9  1  0.76020800  0.27514500  0.60397900  1
  O  O10  1  0.25487900  0.72374100  0.89486000  1
  O  O11  1  0.74512300  0.27624900  0.10514100  1
  O  O12  1  0.69130500  0.93782800  0.82186400  1
  O  O13  1  0.80685100  0.93336400  0.32091200  1
  O  O14  1  0.30869200  0.06215800  0.17813500  1
  O  O15  1  0.19314400  0.06665000  0.67909000  1
loop_
_geom_bond_atom_site_label_1
_geom_bond_atom_site_label_2
_geom_bond_distance
_geom_bond_site_symmetry_2
Co0 O12 2.036304 1_545
Co0 O9 2.104569 1_555
Co0 O6 2.120778 1_555
Co0 O15 2.124660 1_555
Co0 O0 2.139746 1_555
Co0 O1 2.354459 1_555
Co1 O13 2.047325 1_545
Co1 O4 2.101730 1_655
Co1 O11 2.126485 1_555
Co1 O14 2.135534 1_655
Co1 O3 2.167447 1_555
Co1 O2 2.302616 1_655
Co2 O15 2.047344 1_565
Co2 O7 2.101768 1_455
Co2 O10 2.126471 1_555
Co2 O12 2.135485 1_455
Co2 O1 2.167396 1_555
Co2 O0 2.302705 1_455
Co3 O14 2.036288 1_565
Co3 O8 2.104584 1_555
Co3 O5 2.120752 1_555
Co3 O13 2.124687 1_555
Co3 O2 2.139797 1_555
Co3 O3 2.354333 1_555
Co4 O3 2.027033 1_555
Co4 O1 2.027039 1_555
Co4 O8 2.149779 1_555
Co4 O9 2.149810 1_555
Co4 O4 2.156959 1_555
Co4 O7 2.156963 1_555
Co5 O11 2.118988 1_455
Co5 O10 2.118998 1_554
Co5 O2 2.122938 1_555
Co5 O0 2.122942 1_454
Co5 O6 2.163556 1_554
Co5 O5 2.163560 1_455
O0 P2 1.598434 1_555
O1 P0 1.607454 1_555
O2 P1 1.598443 1_555
O3 P3 1.607469 1_555
O4 P0 1.550994 1_555
O5 P2 1.550896 1_554
O6 P1 1.550890 1_556
O7 P3 1.550987 1_555
O8 P3 1.538218 1_455
O9 P0 1.538215 1_655
O10 P2 1.544584 1_555
O11 P1 1.544595 1_555
O12 P2 1.551421 1_555
O13 P3 1.553062 1_555
O14 P1 1.551410 1_555
O15 P0 1.553075 1_555
