# generated using pymatgen
data_H18RhC4N7O8
_symmetry_space_group_name_H-M   'P 1'
_cell_length_a   6.54873200
_cell_length_b   6.56930100
_cell_length_c   19.39497711
_cell_angle_alpha   87.56710975
_cell_angle_beta   90.00000000
_cell_angle_gamma   90.00000000
_symmetry_Int_Tables_number   1
_chemical_formula_structural   H18RhC4N7O8
_chemical_formula_sum   'H36 Rh2 C8 N14 O16'
_cell_volume   833.63130011
_cell_formula_units_Z   2
loop_
 _symmetry_equiv_pos_site_id
 _symmetry_equiv_pos_as_xyz
  1  'x, y, z'
loop_
 _atom_site_type_symbol
 _atom_site_label
 _atom_site_symmetry_multiplicity
 _atom_site_fract_x
 _atom_site_fract_y
 _atom_site_fract_z
 _atom_site_occupancy
  H  H0  1  0.16423700  0.71384200  0.98379700  1
  H  H1  1  0.16423700  0.28615800  0.51620300  1
  H  H2  1  0.83576300  0.28615800  0.01620300  1
  H  H3  1  0.83576300  0.71384200  0.48379700  1
  H  H4  1  0.29309400  0.80265700  0.05038800  1
  H  H5  1  0.29309400  0.19734300  0.44961200  1
  H  H6  1  0.70690600  0.19734300  0.94961200  1
  H  H7  1  0.70690600  0.80265700  0.55038800  1
  H  H8  1  0.15240700  0.59014900  0.05906100  1
  H  H9  1  0.15240700  0.40985100  0.44093900  1
  H  H10  1  0.84759300  0.40985100  0.94093900  1
  H  H11  1  0.84759300  0.59014900  0.55906100  1
  H  H12  1  0.04261400  0.08626500  0.64378200  1
  H  H13  1  0.04261400  0.91373500  0.85621800  1
  H  H14  1  0.95738600  0.91373500  0.35621800  1
  H  H15  1  0.95738600  0.08626500  0.14378200  1
  H  H16  1  0.24019200  0.92294100  0.67926200  1
  H  H17  1  0.24019200  0.07705900  0.82073800  1
  H  H18  1  0.75980800  0.07705900  0.32073800  1
  H  H19  1  0.75980800  0.92294100  0.17926200  1
  H  H20  1  0.23234400  0.18764800  0.69961600  1
  H  H21  1  0.23234400  0.81235200  0.80038400  1
  H  H22  1  0.76765600  0.81235200  0.30038400  1
  H  H23  1  0.76765600  0.18764800  0.19961600  1
  H  H24  1  0.77833400  0.78350700  0.77814800  1
  H  H25  1  0.77833400  0.21649300  0.72185200  1
  H  H26  1  0.22166600  0.21649300  0.22185200  1
  H  H27  1  0.22166600  0.78350700  0.27814800  1
  H  H28  1  0.97442800  0.69416400  0.72150500  1
  H  H29  1  0.97442800  0.30583600  0.77849500  1
  H  H30  1  0.02557200  0.30583600  0.27849500  1
  H  H31  1  0.02557200  0.69416400  0.22150500  1
  H  H32  1  0.78134500  0.86544400  0.68865600  1
  H  H33  1  0.78134500  0.13455600  0.81134400  1
  H  H34  1  0.21865500  0.13455600  0.31134400  1
  H  H35  1  0.21865500  0.86544400  0.18865600  1
  Rh  Rh0  1  0.50000000  0.50000000  0.00000000  1
  Rh  Rh1  1  0.50000000  0.50000000  0.50000000  1
  C  C0  1  0.14109800  0.05329800  0.68856300  1
  C  C1  1  0.14109800  0.94670200  0.81143700  1
  C  C2  1  0.85890200  0.94670200  0.31143700  1
  C  C3  1  0.85890200  0.05329800  0.18856300  1
  C  C4  1  0.87565000  0.82231200  0.73357000  1
  C  C5  1  0.87565000  0.17768800  0.76643000  1
  C  C6  1  0.12435000  0.17768800  0.26643000  1
  C  C7  1  0.12435000  0.82231200  0.23357000  1
  N  N0  1  0.37056900  0.44721100  0.90451200  1
  N  N1  1  0.37056900  0.55278900  0.59548800  1
  N  N2  1  0.62943100  0.55278900  0.09548800  1
  N  N3  1  0.62943100  0.44721100  0.40451200  1
  N  N4  1  0.63093800  0.75980300  0.95427200  1
  N  N5  1  0.63093800  0.24019700  0.54572800  1
  N  N6  1  0.36906200  0.24019700  0.04572800  1
  N  N7  1  0.36906200  0.75980300  0.45427200  1
  N  N8  1  0.24753500  0.67332600  0.02684300  1
  N  N9  1  0.24753500  0.32667400  0.47315700  1
  N  N10  1  0.75246500  0.32667400  0.97315700  1
  N  N11  1  0.75246500  0.67332600  0.52684300  1
  N  N12  1  0.00844500  0.00000000  0.75000000  1
  N  N13  1  0.99155500  0.00000000  0.25000000  1
  O  O0  1  0.18146000  0.46282200  0.89591100  1
  O  O1  1  0.18146000  0.53717800  0.60408900  1
  O  O2  1  0.81854000  0.53717800  0.10408900  1
  O  O3  1  0.81854000  0.46282200  0.39591100  1
  O  O4  1  0.48443900  0.40442400  0.85534600  1
  O  O5  1  0.48443900  0.59557600  0.64465400  1
  O  O6  1  0.51556100  0.59557600  0.14465400  1
  O  O7  1  0.51556100  0.40442400  0.35534600  1
  O  O8  1  0.51840700  0.89414700  0.92635500  1
  O  O9  1  0.51840700  0.10585300  0.57364500  1
  O  O10  1  0.48159300  0.10585300  0.07364500  1
  O  O11  1  0.48159300  0.89414700  0.42635500  1
  O  O12  1  0.82080000  0.78075900  0.95356300  1
  O  O13  1  0.82080000  0.21924100  0.54643700  1
  O  O14  1  0.17920000  0.21924100  0.04643700  1
  O  O15  1  0.17920000  0.78075900  0.45356300  1
loop_
_geom_bond_atom_site_label_1
_geom_bond_atom_site_label_2
_geom_bond_distance
_geom_bond_site_symmetry_2
H0 N8 1.023016 1_556
H1 N9 1.023016 1_555
H2 N10 1.023016 1_554
H3 N11 1.023016 1_555
H4 N8 1.025832 1_555
H5 N9 1.025832 1_555
H6 N10 1.025832 1_555
H7 N11 1.025832 1_555
H8 N8 1.023782 1_555
H9 N9 1.023782 1_555
H10 N10 1.023782 1_555
H11 N11 1.023782 1_555
C0 H20 1.094549 1_555
C0 H16 1.095501 1_545
C0 H12 1.096005 1_555
C0 N12 1.503883 1_555
C1 H21 1.094549 1_555
C1 H17 1.095501 1_565
C1 H13 1.096005 1_555
C1 N12 1.503883 1_565
C2 H22 1.094549 1_555
C2 H18 1.095501 1_565
C2 H14 1.096005 1_555
C2 N13 1.503883 1_565
C3 H23 1.094549 1_555
C3 H19 1.095501 1_545
C3 H15 1.096005 1_555
C3 N13 1.503883 1_555
C4 H28 1.094816 1_555
C4 H32 1.095244 1_555
C4 H24 1.095415 1_555
C4 N12 1.500650 1_665
C5 H29 1.094816 1_555
C5 H33 1.095244 1_555
C5 H25 1.095415 1_555
C5 N12 1.500650 1_655
C6 H30 1.094816 1_555
C6 H34 1.095244 1_555
C6 H26 1.095415 1_555
C6 N13 1.500650 1_455
C7 H31 1.094816 1_555
C7 H35 1.095244 1_555
C7 H27 1.095415 1_555
C7 N13 1.500650 1_465
N0 O4 1.251854 1_555
N0 O0 1.253231 1_555
N0 Rh0 2.079203 1_556
N1 O5 1.251854 1_555
N1 O1 1.253231 1_555
N1 Rh1 2.079203 1_555
N2 O6 1.251854 1_555
N2 O2 1.253231 1_555
N2 Rh0 2.079203 1_555
N3 O7 1.251854 1_555
N3 O3 1.253231 1_555
N3 Rh1 2.079203 1_555
N4 O12 1.250965 1_555
N4 O8 1.254815 1_555
N4 Rh0 2.075150 1_556
N5 O13 1.250965 1_555
N5 O9 1.254815 1_555
N5 Rh1 2.075150 1_555
N6 O14 1.250965 1_555
N6 O10 1.254815 1_555
N6 Rh0 2.075150 1_555
N7 O15 1.250965 1_555
N7 O11 1.254815 1_555
N7 Rh1 2.075150 1_555
N8 Rh0 2.085986 1_555
N9 Rh1 2.085986 1_555
N10 Rh0 2.085986 1_556
N11 Rh1 2.085986 1_555
