# generated using pymatgen
data_Ba(CuO)4
_symmetry_space_group_name_H-M   'P 1'
_cell_length_a   6.63883200
_cell_length_b   6.63883200
_cell_length_c   6.28643700
_cell_angle_alpha   90.00000000
_cell_angle_beta   90.00000000
_cell_angle_gamma   90.00000000
_symmetry_Int_Tables_number   1
_chemical_formula_structural   Ba(CuO)4
_chemical_formula_sum   'Ba2 Cu8 O8'
_cell_volume   277.06899216
_cell_formula_units_Z   2
loop_
 _symmetry_equiv_pos_site_id
 _symmetry_equiv_pos_as_xyz
  1  'x, y, z'
loop_
 _atom_site_type_symbol
 _atom_site_label
 _atom_site_symmetry_multiplicity
 _atom_site_fract_x
 _atom_site_fract_y
 _atom_site_fract_z
 _atom_site_occupancy
  Ba  Ba0  1  0.00000000  0.00000000  0.00000000  1
  Ba  Ba1  1  0.50000000  0.50000000  0.00000000  1
  Cu  Cu0  1  0.75000000  0.25000000  0.50000000  1
  Cu  Cu1  1  0.25000000  0.75000000  0.50000000  1
  Cu  Cu2  1  0.75000000  0.75000000  0.50000000  1
  Cu  Cu3  1  0.25000000  0.25000000  0.50000000  1
  Cu  Cu4  1  0.50000000  0.00000000  0.74215600  1
  Cu  Cu5  1  0.50000000  0.00000000  0.25784400  1
  Cu  Cu6  1  0.00000000  0.50000000  0.25784400  1
  Cu  Cu7  1  0.00000000  0.50000000  0.74215600  1
  O  O0  1  0.80917900  0.30917900  0.77158000  1
  O  O1  1  0.69082100  0.19082100  0.22842000  1
  O  O2  1  0.19082100  0.69082100  0.77158000  1
  O  O3  1  0.30917900  0.80917900  0.22842000  1
  O  O4  1  0.30917900  0.19082100  0.77158000  1
  O  O5  1  0.80917900  0.69082100  0.22842000  1
  O  O6  1  0.19082100  0.30917900  0.22842000  1
  O  O7  1  0.69082100  0.80917900  0.77158000  1
loop_
_geom_bond_atom_site_label_1
_geom_bond_atom_site_label_2
_geom_bond_distance
_geom_bond_site_symmetry_2
Ba0 O5 2.807119 1_445
Ba0 O6 2.807119 1_555
Ba0 O0 2.807119 1_454
Ba0 O2 2.807119 1_544
Ba0 O1 2.807119 1_455
Ba0 O4 2.807119 1_554
Ba0 O7 2.807119 1_444
Ba0 O3 2.807119 1_545
Ba1 O0 2.807119 1_554
Ba1 O2 2.807119 1_554
Ba1 O7 2.807119 1_554
Ba1 O3 2.807119 1_555
Ba1 O1 2.807119 1_555
Ba1 O4 2.807119 1_554
Ba1 O5 2.807119 1_555
Ba1 O6 2.807119 1_555
Cu0 O1 1.795406 1_555
Cu0 O0 1.795406 1_555
Cu1 O3 1.795406 1_555
Cu1 O2 1.795406 1_555
Cu2 O5 1.795406 1_555
Cu2 O7 1.795406 1_555
Cu3 O6 1.795406 1_555
Cu3 O4 1.795406 1_555
Cu4 O4 1.801090 1_555
Cu4 O7 1.801090 1_545
Cu5 O1 1.801090 1_555
Cu5 O3 1.801090 1_545
Cu6 O6 1.801090 1_555
Cu6 O5 1.801090 1_455
Cu7 O2 1.801090 1_555
Cu7 O0 1.801090 1_455
