# generated using pymatgen
data_Bi10Te2Br4O17
_symmetry_space_group_name_H-M   'P 1'
_cell_length_a   19.37275060
_cell_length_b   19.37275060
_cell_length_c   19.37275060
_cell_angle_alpha   163.36836942
_cell_angle_beta   163.36836942
_cell_angle_gamma   23.60476606
_symmetry_Int_Tables_number   1
_chemical_formula_structural   Bi10Te2Br4O17
_chemical_formula_sum   'Bi10 Te2 Br4 O17'
_cell_volume   595.47935223
_cell_formula_units_Z   1
loop_
 _symmetry_equiv_pos_site_id
 _symmetry_equiv_pos_as_xyz
  1  'x, y, z'
loop_
 _atom_site_type_symbol
 _atom_site_label
 _atom_site_symmetry_multiplicity
 _atom_site_fract_x
 _atom_site_fract_y
 _atom_site_fract_z
 _atom_site_occupancy
  Bi  Bi0  1  0.25223600  0.75223600  0.50000000  1
  Bi  Bi1  1  0.75223600  0.25223600  0.50000000  1
  Bi  Bi2  1  0.56809900  0.56809900  0.00000000  1
  Bi  Bi3  1  0.06819000  0.06819000  0.00000000  1
  Bi  Bi4  1  0.68357400  0.68357400  0.00000000  1
  Bi  Bi5  1  0.18807800  0.18807800  0.00000000  1
  Bi  Bi6  1  0.99870900  0.49870900  0.50000000  1
  Bi  Bi7  1  0.49870900  0.99870900  0.50000000  1
  Bi  Bi8  1  0.93122100  0.93122100  0.00000000  1
  Bi  Bi9  1  0.43087000  0.43087000  0.00000000  1
  Te  Te0  1  0.82495400  0.82495400  0.00000000  1
  Te  Te1  1  0.31252600  0.31252600  0.00000000  1
  Br  Br0  1  0.13264900  0.63264900  0.50000000  1
  Br  Br1  1  0.63264900  0.13264900  0.50000000  1
  Br  Br2  1  0.38061600  0.88061600  0.50000000  1
  Br  Br3  1  0.88061600  0.38061600  0.50000000  1
  O  O0  1  0.79023900  0.29019600  0.00000000  1
  O  O1  1  0.29019600  0.79023900  0.00000000  1
  O  O2  1  0.95784900  0.47319100  0.00000000  1
  O  O3  1  0.47319100  0.95784900  0.00000000  1
  O  O4  1  0.57073400  0.57073400  0.54054100  1
  O  O5  1  0.03019300  0.03019300  0.45945900  1
  O  O6  1  0.47319100  0.47319100  0.51534200  1
  O  O7  1  0.95784900  0.95784900  0.48465800  1
  O  O8  1  0.71093700  0.71093700  0.49981300  1
  O  O9  1  0.21112400  0.21112400  0.50018700  1
  O  O10  1  0.29019600  0.29019600  0.49995700  1
  O  O11  1  0.79023900  0.79023900  0.50004300  1
  O  O12  1  0.03019300  0.57073400  0.00000000  1
  O  O13  1  0.57073400  0.03019300  0.00000000  1
  O  O14  1  0.26305500  0.26305500  0.00000000  1
  O  O15  1  0.71093700  0.21112400  0.00000000  1
  O  O16  1  0.21112400  0.71093700  0.00000000  1
loop_
_geom_bond_atom_site_label_1
_geom_bond_atom_site_label_2
_geom_bond_distance
_geom_bond_site_symmetry_2
Bi0 O6 2.422395 1_555
Bi0 O7 2.422395 1_455
Bi0 O3 2.422395 1_556
Bi0 O2 2.422395 1_455
Bi0 O13 2.701226 1_566
Bi0 O4 2.701226 1_555
Bi0 O5 2.701226 1_565
Bi0 O12 2.701226 1_555
Bi1 O6 2.422395 1_555
Bi1 O7 2.422395 1_545
Bi1 O3 2.422395 1_545
Bi1 O2 2.422395 1_556
Bi1 O4 2.701226 1_555
Bi1 O12 2.701226 1_656
Bi1 O5 2.701226 1_655
Bi1 O13 2.701226 1_555
Bi2 O11 2.245906 1_555
Bi2 O0 2.245906 1_555
Bi2 O10 2.245906 1_554
Bi2 O1 2.245906 1_555
Bi3 O11 2.247233 1_444
Bi3 O1 2.247233 1_545
Bi3 O0 2.247233 1_455
Bi3 O10 2.247233 1_555
Bi4 O2 2.270685 1_555
Bi4 O3 2.270685 1_555
Bi4 O7 2.270685 1_555
Bi4 O6 2.270685 1_554
Bi4 Br1 3.403054 1_565
Bi4 Br0 3.403054 1_655
Bi4 Br0 3.403054 1_554
Bi4 Br1 3.403054 1_554
Bi5 O7 2.291948 1_444
Bi5 O3 2.291948 1_545
Bi5 O2 2.291948 1_455
Bi5 O6 2.291948 1_555
Bi6 O15 2.442806 1_555
Bi6 O8 2.442806 1_555
Bi6 O16 2.442806 1_656
Bi6 O9 2.442806 1_655
Bi6 O1 2.530523 1_656
Bi6 O10 2.530523 1_655
Bi6 O11 2.530523 1_555
Bi6 O0 2.530523 1_555
Bi7 O8 2.442806 1_555
Bi7 O15 2.442806 1_566
Bi7 O9 2.442806 1_565
Bi7 O16 2.442806 1_555
Bi7 O10 2.530523 1_565
Bi7 O0 2.530523 1_566
Bi7 O11 2.530523 1_555
Bi7 O1 2.530523 1_555
Bi8 O8 2.281743 1_554
Bi8 O15 2.281743 1_565
Bi8 O9 2.281743 1_665
Bi8 O16 2.281743 1_655
Bi8 Br2 3.396180 1_655
Bi8 Br3 3.396180 1_565
Bi8 Br3 3.396180 1_554
Bi8 Br2 3.396180 1_554
Bi9 O9 2.287084 1_554
Bi9 O15 2.287084 1_555
Bi9 O16 2.287084 1_555
Bi9 O8 2.287084 1_555
Bi9 Br3 3.388675 1_454
Bi9 Br3 3.388675 1_555
Bi9 Br2 3.388675 1_544
Bi9 Br2 3.388675 1_555
O4 Te0 2.043830 1_556
O4 Te1 2.190174 1_555
O5 Te0 2.043830 1_445
O5 Te1 2.190174 1_556
O12 Te0 2.043830 1_455
O12 Te1 2.190174 1_555
O13 Te0 2.043830 1_545
O13 Te1 2.190174 1_555
O14 Te1 1.876256 1_555
