# generated using pymatgen
data_Mg16Al12Cd
_symmetry_space_group_name_H-M   'P 1'
_cell_length_a   9.14435185
_cell_length_b   9.14435185
_cell_length_c   9.14435185
_cell_angle_alpha   109.47122063
_cell_angle_beta   109.47122063
_cell_angle_gamma   109.47122063
_symmetry_Int_Tables_number   1
_chemical_formula_structural   Mg16Al12Cd
_chemical_formula_sum   'Mg16 Al12 Cd1'
_cell_volume   588.62254658
_cell_formula_units_Z   1
loop_
 _symmetry_equiv_pos_site_id
 _symmetry_equiv_pos_as_xyz
  1  'x, y, z'
loop_
 _atom_site_type_symbol
 _atom_site_label
 _atom_site_symmetry_multiplicity
 _atom_site_fract_x
 _atom_site_fract_y
 _atom_site_fract_z
 _atom_site_occupancy
  Mg  Mg0  1  0.31378400  0.59945100  0.00000000  1
  Mg  Mg1  1  0.33921000  0.00000000  0.00000000  1
  Mg  Mg2  1  0.59945100  0.31378400  0.00000000  1
  Mg  Mg3  1  0.00000000  0.33921000  0.00000000  1
  Mg  Mg4  1  0.40054900  0.40054900  0.71433300  1
  Mg  Mg5  1  0.68621600  0.28566700  0.68621600  1
  Mg  Mg6  1  0.28566700  0.68621600  0.68621600  1
  Mg  Mg7  1  0.66079000  0.66079000  0.66079000  1
  Mg  Mg8  1  0.00000000  0.31378400  0.59945100  1
  Mg  Mg9  1  0.31378400  0.00000000  0.59945100  1
  Mg  Mg10  1  0.71433300  0.40054900  0.40054900  1
  Mg  Mg11  1  0.40054900  0.71433300  0.40054900  1
  Mg  Mg12  1  0.00000000  0.00000000  0.33921000  1
  Mg  Mg13  1  0.00000000  0.59945100  0.31378400  1
  Mg  Mg14  1  0.59945100  0.00000000  0.31378400  1
  Mg  Mg15  1  0.68621600  0.68621600  0.28566700  1
  Al  Al0  1  0.63080000  0.81387000  0.00000000  1
  Al  Al1  1  0.81387000  0.63080000  0.00000000  1
  Al  Al2  1  0.18613000  0.18613000  0.81693100  1
  Al  Al3  1  0.00000000  0.63080000  0.81387000  1
  Al  Al4  1  0.63080000  0.00000000  0.81387000  1
  Al  Al5  1  0.00000000  0.81387000  0.63080000  1
  Al  Al6  1  0.81387000  0.00000000  0.63080000  1
  Al  Al7  1  0.36920000  0.18306900  0.36920000  1
  Al  Al8  1  0.18306900  0.36920000  0.36920000  1
  Al  Al9  1  0.81693100  0.18613000  0.18613000  1
  Al  Al10  1  0.18613000  0.81693100  0.18613000  1
  Al  Al11  1  0.36920000  0.36920000  0.18306900  1
  Cd  Cd0  1  0.00000000  0.00000000  0.00000000  1
loop_
_geom_bond_atom_site_label_1
_geom_bond_atom_site_label_2
_geom_bond_distance
_geom_bond_site_symmetry_2
Mg0 Mg3 3.056815 1_555
Mg0 Mg15 3.152416 1_555
Mg0 Mg4 3.152416 1_554
Mg0 Mg8 3.176581 1_554
Mg0 Mg14 3.176581 1_565
Mg0 Mg11 3.176581 1_555
Mg0 Mg6 3.176581 1_554
Mg1 Mg14 3.056815 1_555
Mg1 Mg2 3.056815 1_555
Mg1 Mg6 3.056815 1_544
Mg2 Mg4 3.152416 1_554
Mg2 Mg9 3.176581 1_554
Mg2 Mg5 3.176581 1_554
Mg3 Mg5 3.056815 1_454
Mg4 Mg7 3.056815 1_555
Mg4 Mg5 3.176581 1_555
Mg4 Mg6 3.176581 1_555
Mg4 Mg9 3.176581 1_555
Mg4 Mg8 3.176581 1_555
Mg5 Mg9 3.152416 1_555
Mg5 Mg8 3.176581 1_655
Mg6 Mg8 3.152416 1_555
Mg6 Mg9 3.176581 1_565
Mg10 Mg7 3.056815 1_555
Mg10 Mg13 3.152416 1_655
Mg10 Mg8 3.152416 1_655
Mg10 Mg5 3.176581 1_555
Mg10 Mg15 3.176581 1_555
Mg10 Mg14 3.176581 1_555
Mg10 Mg2 3.176581 1_555
Mg11 Mg7 3.056815 1_555
Mg11 Mg9 3.152416 1_565
Mg11 Mg14 3.152416 1_565
Mg11 Mg6 3.176581 1_555
Mg11 Mg15 3.176581 1_555
Mg11 Mg13 3.176581 1_555
Mg12 Mg8 3.056815 1_555
Mg12 Mg9 3.056815 1_555
Mg12 Mg15 3.056815 1_445
Mg13 Mg3 3.056815 1_555
Mg13 Mg6 3.152416 1_555
Mg13 Mg9 3.176581 1_565
Mg13 Mg2 3.176581 1_455
Mg13 Mg15 3.176581 1_455
Mg14 Mg5 3.152416 1_555
Mg14 Mg8 3.176581 1_655
Mg14 Mg15 3.176581 1_545
Mg15 Mg2 3.152416 1_555
Al0 Al1 2.733723 1_555
Al0 Al4 2.779417 1_564
Al0 Al9 2.779417 1_565
Al0 Mg0 2.908400 1_555
Al0 Mg14 2.971548 1_565
Al0 Mg6 2.971548 1_554
Al0 Mg7 3.095891 1_554
Al0 Mg12 3.095891 1_665
Al0 Mg4 3.160369 1_554
Al0 Mg15 3.160369 1_555
Al0 Cd0 3.234829 1_665
Al1 Al3 2.779417 1_654
Al1 Al10 2.779417 1_655
Al1 Mg2 2.908400 1_555
Al1 Mg13 2.971548 1_655
Al1 Mg5 2.971548 1_554
Al1 Mg7 3.095891 1_554
Al1 Mg12 3.095891 1_665
Al1 Mg4 3.160369 1_554
Al1 Mg15 3.160369 1_555
Al1 Cd0 3.234829 1_665
Al2 Al6 2.779417 1_455
Al2 Al5 2.779417 1_545
Al2 Mg4 2.908407 1_555
Al2 Mg8 2.971554 1_555
Al2 Mg9 2.971554 1_555
Al2 Mg1 3.095886 1_556
Al2 Mg3 3.095886 1_556
Al2 Mg2 3.160369 1_556
Al2 Mg0 3.160369 1_556
Al2 Cd0 3.234821 1_556
Al3 Al5 2.733723 1_555
Al3 Mg8 2.908400 1_555
Al3 Mg0 2.971548 1_556
Al3 Mg5 2.971548 1_455
Al3 Mg1 3.095891 1_566
Al3 Mg7 3.095891 1_455
Al3 Mg10 3.160369 1_455
Al3 Mg6 3.160369 1_555
Al3 Cd0 3.234829 1_566
Al4 Al6 2.733723 1_555
Al4 Al9 2.779417 1_556
Al4 Mg9 2.908400 1_555
Al4 Mg2 2.971548 1_556
Al4 Mg6 2.971548 1_545
Al4 Mg3 3.095891 1_656
Al4 Mg7 3.095891 1_545
Al4 Mg11 3.160369 1_545
Al4 Mg5 3.160369 1_555
Al4 Cd0 3.234829 1_656
Al5 Al6 2.779417 1_465
Al5 Mg13 2.908400 1_555
Al5 Mg9 2.971548 1_565
Al5 Mg15 2.971548 1_455
Al5 Mg7 3.095891 1_455
Al5 Mg1 3.095891 1_566
Al5 Mg10 3.160369 1_455
Al5 Mg6 3.160369 1_555
Al5 Cd0 3.234829 1_566
Al6 Mg14 2.908400 1_555
Al6 Mg8 2.971548 1_655
Al6 Mg15 2.971548 1_545
Al6 Mg3 3.095891 1_656
Al6 Mg7 3.095891 1_545
Al6 Mg11 3.160369 1_545
Al6 Mg5 3.160369 1_555
Al6 Cd0 3.234829 1_656
Al7 Al8 2.779432 1_555
Al7 Mg5 2.908397 1_555
Al7 Mg4 2.971551 1_555
Al7 Mg10 2.971551 1_555
Al7 Mg12 3.095889 1_555
Al7 Mg1 3.095889 1_555
Al7 Mg9 3.160363 1_555
Al7 Mg14 3.160363 1_555
Al7 Cd0 3.234831 1_555
Al8 Al9 2.733708 1_455
Al8 Mg6 2.908397 1_555
Al8 Mg4 2.971551 1_555
Al8 Mg11 2.971551 1_555
Al8 Mg12 3.095889 1_555
Al8 Mg3 3.095889 1_555
Al8 Mg13 3.160363 1_555
Al8 Mg8 3.160363 1_555
Al8 Cd0 3.234831 1_555
Al9 Mg10 2.908407 1_555
Al9 Mg2 2.971554 1_555
Al9 Mg14 2.971554 1_555
Al9 Mg3 3.095886 1_655
Al9 Mg12 3.095886 1_655
Al9 Mg8 3.160369 1_655
Al9 Mg13 3.160369 1_655
Al9 Cd0 3.234821 1_655
Al10 Al7 2.733708 1_565
Al10 Al3 2.779417 1_554
Al10 Mg11 2.908407 1_555
Al10 Mg13 2.971554 1_555
Al10 Mg0 2.971554 1_555
Al10 Mg1 3.095886 1_565
Al10 Mg12 3.095886 1_565
Al10 Mg9 3.160369 1_565
Al10 Mg14 3.160369 1_565
Al10 Cd0 3.234821 1_565
Al11 Al2 2.733708 1_554
Al11 Al7 2.779432 1_555
Al11 Al8 2.779432 1_555
Al11 Mg15 2.908397 1_555
Al11 Mg10 2.971551 1_555
Al11 Mg11 2.971551 1_555
Al11 Mg1 3.095889 1_555
Al11 Mg3 3.095889 1_555
Al11 Mg0 3.160363 1_555
Al11 Mg2 3.160363 1_555
Al11 Cd0 3.234831 1_555
Cd0 Mg7 3.101856 1_444
Cd0 Mg1 3.101856 1_555
Cd0 Mg12 3.101856 1_555
Cd0 Mg3 3.101856 1_555
