# generated using pymatgen
data_Ta2V3Ge
_symmetry_space_group_name_H-M   'P 1'
_cell_length_a   4.96889473
_cell_length_b   4.96889473
_cell_length_c   8.38702198
_cell_angle_alpha   90.00000000
_cell_angle_beta   90.00000000
_cell_angle_gamma   120.00000945
_symmetry_Int_Tables_number   1
_chemical_formula_structural   Ta2V3Ge
_chemical_formula_sum   'Ta4 V6 Ge2'
_cell_volume   179.33207081
_cell_formula_units_Z   2
loop_
 _symmetry_equiv_pos_site_id
 _symmetry_equiv_pos_as_xyz
  1  'x, y, z'
loop_
 _atom_site_type_symbol
 _atom_site_label
 _atom_site_symmetry_multiplicity
 _atom_site_fract_x
 _atom_site_fract_y
 _atom_site_fract_z
 _atom_site_occupancy
  Ta  Ta0  1  0.33333300  0.66666700  0.43825780  1
  Ta  Ta1  1  0.66666700  0.33333300  0.56174220  1
  Ta  Ta2  1  0.66666700  0.33333300  0.93825780  1
  Ta  Ta3  1  0.33333300  0.66666700  0.06174220  1
  V  V0  1  0.82729731  0.17270269  0.25000000  1
  V  V1  1  0.82729731  0.65459562  0.25000000  1
  V  V2  1  0.34540438  0.17270269  0.25000000  1
  V  V3  1  0.17270269  0.82729731  0.75000000  1
  V  V4  1  0.17270269  0.34540438  0.75000000  1
  V  V5  1  0.65459562  0.82729731  0.75000000  1
  Ge  Ge0  1  -0.00000000  0.00000000  0.50000000  1
  Ge  Ge1  1  -0.00000000  0.00000000  -0.00000000  1
loop_
_geom_bond_atom_site_label_1
_geom_bond_atom_site_label_2
_geom_bond_distance
_geom_bond_site_symmetry_2
Ta0 V0 2.944176 1_565
Ta0 V0 2.944176 1_455
Ta0 V2 2.944176 1_565
Ta0 V1 2.944176 1_455
Ta0 V1 2.944176 1_555
Ta0 V2 2.944176 1_555
Ta0 V3 2.957571 1_555
Ta0 V4 2.957575 1_555
Ta0 V5 2.957575 1_555
Ta0 Ta1 3.050010 1_455
Ta0 Ta1 3.050010 1_565
Ta0 Ta1 3.050018 1_555
Ta0 Ta3 3.157845 1_555
Ta1 V3 2.944176 1_655
Ta1 V3 2.944176 1_545
Ta1 V4 2.944176 1_655
Ta1 V5 2.944176 1_545
Ta1 V4 2.944176 1_555
Ta1 V5 2.944176 1_555
Ta1 V0 2.957571 1_555
Ta1 V2 2.957575 1_555
Ta1 V1 2.957575 1_555
Ta1 Ta2 3.157845 1_555
Ta2 V3 2.944176 1_655
Ta2 V3 2.944176 1_545
Ta2 V4 2.944176 1_655
Ta2 V5 2.944176 1_545
Ta2 V4 2.944176 1_555
Ta2 V5 2.944176 1_555
Ta2 V0 2.957571 1_556
Ta2 V2 2.957575 1_556
Ta2 V1 2.957575 1_556
Ta2 Ta3 3.050010 1_546
Ta2 Ta3 3.050010 1_656
Ta2 Ta3 3.050018 1_556
Ta3 V0 2.944176 1_565
Ta3 V0 2.944176 1_455
Ta3 V2 2.944176 1_565
Ta3 V1 2.944176 1_455
Ta3 V1 2.944176 1_555
Ta3 V2 2.944176 1_555
Ta3 V3 2.957571 1_554
Ta3 V4 2.957575 1_554
Ta3 V5 2.957575 1_554
V0 V2 2.394475 1_555
V0 V1 2.394475 1_555
V0 V1 2.574419 1_545
V0 V2 2.574419 1_655
V1 V2 2.394475 1_555
V1 V2 2.574419 1_665
V3 V4 2.394475 1_555
V3 V5 2.394475 1_555
V3 V5 2.574419 1_455
V3 V4 2.574419 1_565
V4 V5 2.394475 1_555
V4 V5 2.574419 1_445
Ge0 V1 2.570134 1_445
Ge0 V5 2.570134 1_445
Ge0 V4 2.570134 1_555
Ge0 V2 2.570134 1_555
Ge0 V0 2.570137 1_455
Ge0 V3 2.570137 1_545
Ge0 Ta0 2.915151 1_545
Ge0 Ta1 2.915151 1_455
Ge0 Ta0 2.915155 1_445
Ge0 Ta1 2.915155 1_445
Ge0 Ta0 2.915155 1_555
Ge0 Ta1 2.915155 1_555
Ge1 V1 2.570134 1_445
Ge1 V5 2.570134 1_444
Ge1 V4 2.570134 1_554
Ge1 V2 2.570134 1_555
Ge1 V0 2.570137 1_455
Ge1 V3 2.570137 1_544
Ge1 Ta3 2.915151 1_545
Ge1 Ta2 2.915151 1_454
Ge1 Ta2 2.915155 1_444
Ge1 Ta2 2.915155 1_554
Ge1 Ta3 2.915155 1_555
Ge1 Ta3 2.915155 1_445
