# generated using pymatgen
data_TlS2O9
_symmetry_space_group_name_H-M   'P 1'
_cell_length_a   5.07421740
_cell_length_b   5.07421740
_cell_length_c   9.12681147
_cell_angle_alpha   73.86007165
_cell_angle_beta   73.86007165
_cell_angle_gamma   60.00000782
_symmetry_Int_Tables_number   1
_chemical_formula_structural   TlS2O9
_chemical_formula_sum   'Tl1 S2 O9'
_cell_volume   192.74182994
_cell_formula_units_Z   1
loop_
 _symmetry_equiv_pos_site_id
 _symmetry_equiv_pos_as_xyz
  1  'x, y, z'
loop_
 _atom_site_type_symbol
 _atom_site_label
 _atom_site_symmetry_multiplicity
 _atom_site_fract_x
 _atom_site_fract_y
 _atom_site_fract_z
 _atom_site_occupancy
  Tl  Tl0  1  0.50000000  0.50000000  0.50000000  1
  S  S0  1  0.24044400  0.24044400  0.27866800  1
  S  S1  1  0.75955600  0.75955600  0.72133200  1
  O  O0  1  0.00000000  0.00000000  0.00000000  1
  O  O1  1  0.29672900  0.29672900  0.10981400  1
  O  O2  1  0.70327100  0.70327100  0.89018600  1
  O  O3  1  0.48963200  0.23749900  0.33844600  1
  O  O4  1  0.93442300  0.48963200  0.33844600  1
  O  O5  1  0.23749900  0.93442300  0.33844600  1
  O  O6  1  0.06557700  0.76250100  0.66155400  1
  O  O7  1  0.76250100  0.51036800  0.66155400  1
  O  O8  1  0.51036800  0.06557700  0.66155400  1
loop_
_geom_bond_atom_site_label_1
_geom_bond_atom_site_label_2
_geom_bond_distance
_geom_bond_site_symmetry_2
O1 S0 1.459548 1_555
O2 S1 1.459548 1_555
O3 S0 1.502260 1_555
O3 Tl0 2.270714 1_555
O4 S0 1.502260 1_655
O4 Tl0 2.270714 1_555
O5 S0 1.502260 1_565
O5 Tl0 2.270714 1_555
O6 S1 1.502260 1_455
O6 Tl0 2.270714 1_555
O7 S1 1.502260 1_555
O7 Tl0 2.270714 1_555
O8 S1 1.502260 1_545
O8 Tl0 2.270714 1_555
