# generated using pymatgen
data_Cr2NiO4
_symmetry_space_group_name_H-M   'P 1'
_cell_length_a   5.95165907
_cell_length_b   5.99100101
_cell_length_c   5.96493409
_cell_angle_alpha   60.85273406
_cell_angle_beta   60.08741831
_cell_angle_gamma   90.10491300
_symmetry_Int_Tables_number   1
_chemical_formula_structural   Cr2NiO4
_chemical_formula_sum   'Cr4 Ni2 O8'
_cell_volume   152.36597659
_cell_formula_units_Z   2
loop_
 _symmetry_equiv_pos_site_id
 _symmetry_equiv_pos_as_xyz
  1  'x, y, z'
loop_
 _atom_site_type_symbol
 _atom_site_label
 _atom_site_symmetry_multiplicity
 _atom_site_fract_x
 _atom_site_fract_y
 _atom_site_fract_z
 _atom_site_occupancy
  Cr  Cr0  1  0.99991000  0.00079700  0.49875000  1
  Cr  Cr1  1  0.00024000  0.50010100  0.99990200  1
  Cr  Cr2  1  0.00049400  0.00049200  0.00003800  1
  Cr  Cr3  1  0.49930900  0.99986800  0.50070400  1
  Ni  Ni0  1  0.62837700  0.38079700  0.74906000  1
  Ni  Ni1  1  0.37672600  0.61992000  0.25098100  1
  O  O0  1  0.24173300  0.76200000  0.97624100  1
  O  O1  1  0.76206300  0.78783300  0.47050100  1
  O  O2  1  0.76116800  0.24179300  0.47660100  1
  O  O3  1  0.78464700  0.76470900  0.97227800  1
  O  O4  1  0.75643300  0.23361500  0.02829400  1
  O  O5  1  0.23408900  0.21196100  0.52883200  1
  O  O6  1  0.23682300  0.75796800  0.52372800  1
  O  O7  1  0.21798900  0.23814600  0.02409000  1
loop_
_geom_bond_atom_site_label_1
_geom_bond_atom_site_label_2
_geom_bond_distance
_geom_bond_site_symmetry_2
Cr0 O5 2.009797 1_655
Cr0 O1 2.025048 1_545
Cr0 O3 2.027962 1_545
Cr0 O7 2.032057 1_655
Cr0 O2 2.032228 1_555
Cr0 O6 2.032899 1_645
Cr1 O0 2.030096 1_555
Cr1 O7 2.033875 1_556
Cr1 O3 2.037285 1_455
Cr1 O6 2.041001 1_555
Cr1 O4 2.041116 1_456
Cr1 O2 2.043295 1_456
Cr2 O1 2.012707 1_445
Cr2 O5 2.016312 1_554
Cr2 O4 2.020277 1_455
Cr2 O7 2.025048 1_555
Cr2 O3 2.026443 1_444
Cr2 O0 2.030982 1_544
Cr3 O1 2.010194 1_555
Cr3 O5 2.021196 1_565
Cr3 O4 2.022567 1_565
Cr3 O2 2.028676 1_565
Cr3 O6 2.035561 1_555
Cr3 O0 2.035768 1_555
Ni0 O4 1.992618 1_556
Ni0 O2 1.999789 1_555
Ni0 O7 2.004422 1_556
Ni0 O1 2.016890 1_555
Ni1 O3 1.993124 1_554
Ni1 O6 1.996578 1_555
Ni1 O0 2.003144 1_554
Ni1 O5 2.020976 1_555
