# generated using pymatgen
data_Ca(VS2)4
_symmetry_space_group_name_H-M   'P 1'
_cell_length_a   7.90477686
_cell_length_b   7.90477686
_cell_length_c   7.90477733
_cell_angle_alpha   49.02977512
_cell_angle_beta   49.02977512
_cell_angle_gamma   49.02976787
_symmetry_Int_Tables_number   1
_chemical_formula_structural   Ca(VS2)4
_chemical_formula_sum   'Ca1 V4 S8'
_cell_volume   258.57058524
_cell_formula_units_Z   1
loop_
 _symmetry_equiv_pos_site_id
 _symmetry_equiv_pos_as_xyz
  1  'x, y, z'
loop_
 _atom_site_type_symbol
 _atom_site_label
 _atom_site_symmetry_multiplicity
 _atom_site_fract_x
 _atom_site_fract_y
 _atom_site_fract_z
 _atom_site_occupancy
  Ca  Ca0  1  0.50000000  0.50000000  0.50000000  1
  V  V0  1  0.00000000  0.50000000  0.50000000  1
  V  V1  1  0.50000000  0.00000000  0.50000000  1
  V  V2  1  0.50000000  0.50000000  0.00000000  1
  V  V3  1  0.00000000  0.00000000  0.00000000  1
  S  S0  1  0.26024700  0.76571500  0.76571500  1
  S  S1  1  0.23428500  0.23428500  0.73975300  1
  S  S2  1  0.73975300  0.23428500  0.23428500  1
  S  S3  1  0.23428500  0.73975300  0.23428500  1
  S  S4  1  0.26485600  0.26485600  0.26485600  1
  S  S5  1  0.73514400  0.73514400  0.73514400  1
  S  S6  1  0.76571500  0.26024700  0.76571500  1
  S  S7  1  0.76571500  0.76571500  0.26024700  1
loop_
_geom_bond_atom_site_label_1
_geom_bond_atom_site_label_2
_geom_bond_distance
_geom_bond_site_symmetry_2
Ca0 S6 2.785768 1_555
Ca0 S0 2.785768 1_555
Ca0 S2 2.785768 1_555
Ca0 S3 2.785768 1_555
Ca0 S7 2.785768 1_555
Ca0 S1 2.785768 1_555
S0 V3 2.365849 1_566
S0 V2 2.390583 1_556
S0 V1 2.390584 1_565
S1 V3 2.365849 1_556
S1 V1 2.390583 1_555
S1 V0 2.390583 1_555
S2 V3 2.365849 1_655
S2 V2 2.390583 1_555
S2 V1 2.390584 1_555
S3 V3 2.365849 1_565
S3 V2 2.390583 1_555
S3 V0 2.390584 1_555
S4 V0 2.370160 1_555
S4 V1 2.370160 1_555
S4 V2 2.370160 1_555
S5 V1 2.370160 1_565
S5 V0 2.370160 1_655
S5 V2 2.370160 1_556
S6 V3 2.365849 1_656
S6 V2 2.390583 1_556
S6 V0 2.390584 1_655
S7 V3 2.365849 1_665
S7 V1 2.390583 1_565
S7 V0 2.390583 1_655
