# generated using pymatgen
data_BaSrLaNbO6
_symmetry_space_group_name_H-M   'P 1'
_cell_length_a   8.65697484
_cell_length_b   8.67209161
_cell_length_c   8.65663127
_cell_angle_alpha   90.00000000
_cell_angle_beta   90.00000000
_cell_angle_gamma   90.00000000
_symmetry_Int_Tables_number   1
_chemical_formula_structural   BaSrLaNbO6
_chemical_formula_sum   'Ba4 Sr4 La4 Nb4 O24'
_cell_volume   649.88861878
_cell_formula_units_Z   4
loop_
 _symmetry_equiv_pos_site_id
 _symmetry_equiv_pos_as_xyz
  1  'x, y, z'
loop_
 _atom_site_type_symbol
 _atom_site_label
 _atom_site_symmetry_multiplicity
 _atom_site_fract_x
 _atom_site_fract_y
 _atom_site_fract_z
 _atom_site_occupancy
  Ba  Ba0  1  0.00000000  0.00000000  0.00000000  1
  Ba  Ba1  1  0.50000000  0.50000000  0.50000000  1
  Ba  Ba2  1  0.50000000  0.00000000  0.50000000  1
  Ba  Ba3  1  0.00000000  0.00000000  0.50000000  1
  Sr  Sr0  1  0.00000000  0.50000000  0.50000000  1
  Sr  Sr1  1  0.50000000  0.50000000  0.00000000  1
  Sr  Sr2  1  0.50000000  0.00000000  0.00000000  1
  Sr  Sr3  1  0.00000000  0.50000000  0.00000000  1
  La  La0  1  0.74940799  0.74807752  0.75241893  1
  La  La1  1  0.25059201  0.25192248  0.75241893  1
  La  La2  1  0.25059201  0.74807752  0.24758107  1
  La  La3  1  0.74940799  0.25192248  0.24758107  1
  Nb  Nb0  1  0.24874429  0.25391624  0.24731381  1
  Nb  Nb1  1  0.75125571  0.74608376  0.24731381  1
  Nb  Nb2  1  0.75125571  0.25391624  0.75268619  1
  Nb  Nb3  1  0.24874429  0.74608376  0.75268619  1
  O  O0  1  0.02001431  0.21352205  0.27560905  1
  O  O1  1  0.97998569  0.78647795  0.27560905  1
  O  O2  1  0.97998569  0.21352205  0.72439095  1
  O  O3  1  0.02001431  0.78647795  0.72439095  1
  O  O4  1  0.28659582  0.02336559  0.20699342  1
  O  O5  1  0.28659582  0.97663441  0.79300658  1
  O  O6  1  0.71340418  0.97663441  0.20699342  1
  O  O7  1  0.71340418  0.02336559  0.79300658  1
  O  O8  1  0.20770990  0.29252497  0.01949672  1
  O  O9  1  0.79229010  0.29252497  0.98050328  1
  O  O10  1  0.20770990  0.70747503  0.98050328  1
  O  O11  1  0.79229010  0.70747503  0.01949672  1
  O  O12  1  0.47823899  0.29531722  0.21111520  1
  O  O13  1  0.52176101  0.70468278  0.21111520  1
  O  O14  1  0.52176101  0.29531722  0.78888480  1
  O  O15  1  0.47823899  0.70468278  0.78888480  1
  O  O16  1  0.21225454  0.48130072  0.29255856  1
  O  O17  1  0.21225454  0.51869928  0.70744144  1
  O  O18  1  0.78774546  0.51869928  0.29255856  1
  O  O19  1  0.78774546  0.48130072  0.70744144  1
  O  O20  1  0.28381001  0.22189632  0.47767502  1
  O  O21  1  0.71618999  0.22189632  0.52232498  1
  O  O22  1  0.28381001  0.77810368  0.52232498  1
  O  O23  1  0.71618999  0.77810368  0.47767502  1
loop_
_geom_bond_atom_site_label_1
_geom_bond_atom_site_label_2
_geom_bond_distance
_geom_bond_site_symmetry_2
Ba0 O1 3.025064 1_445
Ba0 O0 3.025064 1_555
Ba0 O2 3.025064 1_454
Ba0 O3 3.025064 1_544
Ba0 O7 3.067159 1_454
Ba0 O6 3.067159 1_445
Ba0 O5 3.067159 1_544
Ba0 O4 3.067159 1_555
Ba0 O11 3.114027 1_445
Ba0 O10 3.114027 1_544
Ba0 O9 3.114027 1_454
Ba0 O8 3.114027 1_555
Ba1 O22 3.058847 1_555
Ba1 O20 3.058847 1_555
Ba1 O23 3.058847 1_555
Ba1 O21 3.058847 1_555
Ba1 O13 3.072468 1_555
Ba1 O14 3.072468 1_555
Ba1 O15 3.072468 1_555
Ba1 O12 3.072468 1_555
Ba1 O19 3.075077 1_555
Ba1 O18 3.075077 1_555
Ba1 O17 3.075077 1_555
Ba1 O16 3.075077 1_555
Ba2 O20 2.691283 1_555
Ba2 O22 2.691283 1_545
Ba2 O21 2.691283 1_555
Ba2 O23 2.691283 1_545
Ba2 O5 3.144464 1_545
Ba2 O4 3.144464 1_555
Ba2 O6 3.144464 1_545
Ba2 O7 3.144464 1_555
Ba3 O2 2.689226 1_455
Ba3 O3 2.689226 1_545
Ba3 O1 2.689226 1_445
Ba3 O0 2.689226 1_555
Ba3 O21 3.126793 1_455
Ba3 O20 3.126793 1_555
Ba3 O23 3.126793 1_445
Ba3 O22 3.126793 1_545
La0 O11 2.367933 1_556
La0 O19 2.369406 1_555
La0 O3 2.378590 1_655
La0 O15 2.398341 1_555
La0 O23 2.409788 1_555
La0 O7 2.433086 1_565
La1 O8 2.367933 1_556
La1 O17 2.369406 1_555
La1 O2 2.378590 1_455
La1 O14 2.398341 1_555
La1 O20 2.409788 1_555
La1 O5 2.433086 1_545
La2 O10 2.367933 1_554
La2 O16 2.369406 1_555
La2 O1 2.378590 1_455
La2 O13 2.398341 1_555
La2 O22 2.409788 1_555
La2 O4 2.433086 1_565
La3 O9 2.367933 1_554
La3 O18 2.369406 1_555
La3 O0 2.378590 1_655
La3 O12 2.398341 1_555
La3 O21 2.409788 1_555
La3 O6 2.433086 1_545
Nb0 O0 2.025720 1_555
Nb0 O8 2.031646 1_555
Nb0 O16 2.035086 1_555
Nb0 O20 2.036148 1_555
Nb0 O12 2.043084 1_555
Nb0 O4 2.055876 1_555
Nb1 O1 2.025720 1_555
Nb1 O11 2.031646 1_555
Nb1 O18 2.035086 1_555
Nb1 O23 2.036148 1_555
Nb1 O13 2.043084 1_555
Nb1 O6 2.055876 1_555
Nb2 O2 2.025720 1_555
Nb2 O9 2.031646 1_555
Nb2 O19 2.035086 1_555
Nb2 O21 2.036148 1_555
Nb2 O14 2.043084 1_555
Nb2 O7 2.055876 1_555
Nb3 O3 2.025720 1_555
Nb3 O10 2.031646 1_555
Nb3 O17 2.035086 1_555
Nb3 O22 2.036148 1_555
Nb3 O15 2.043084 1_555
Nb3 O5 2.055876 1_555
O0 Sr0 3.158365 1_555
O1 Sr0 3.158365 1_655
O2 Sr0 3.158365 1_655
O3 Sr0 3.158365 1_555
O4 Sr2 2.581638 1_555
O5 Sr2 2.581638 1_566
O6 Sr2 2.581638 1_565
O7 Sr2 2.581638 1_556
O8 Sr3 2.549326 1_555
O8 Sr1 3.109408 1_555
O9 Sr3 2.549326 1_656
O9 Sr1 3.109408 1_556
O10 Sr3 2.549326 1_556
O10 Sr1 3.109408 1_556
O11 Sr3 2.549326 1_655
O11 Sr1 3.109408 1_555
O12 Sr1 2.554631 1_555
O12 Sr2 3.151861 1_555
O13 Sr1 2.554631 1_555
O13 Sr2 3.151861 1_565
O14 Sr1 2.554631 1_556
O14 Sr2 3.151861 1_556
O15 Sr1 2.554631 1_556
O15 Sr2 3.151861 1_566
O16 Sr0 2.574361 1_555
O17 Sr0 2.574361 1_555
O18 Sr0 2.574361 1_655
O19 Sr0 2.574361 1_655
