# generated using pymatgen
data_K3Cr2(AsO4)3
_symmetry_space_group_name_H-M   'P 1'
_cell_length_a   11.09549669
_cell_length_b   11.09549669
_cell_length_c   11.09549669
_cell_angle_alpha   109.47122063
_cell_angle_beta   109.47122063
_cell_angle_gamma   109.47122063
_symmetry_Int_Tables_number   1
_chemical_formula_structural   K3Cr2(AsO4)3
_chemical_formula_sum   'K12 Cr8 As12 O48'
_cell_volume   1051.52197637
_cell_formula_units_Z   4
loop_
 _symmetry_equiv_pos_site_id
 _symmetry_equiv_pos_as_xyz
  1  'x, y, z'
loop_
 _atom_site_type_symbol
 _atom_site_label
 _atom_site_symmetry_multiplicity
 _atom_site_fract_x
 _atom_site_fract_y
 _atom_site_fract_z
 _atom_site_occupancy
  K  K0  1  0.25000000  0.37500000  0.12500000  1
  K  K1  1  0.75000000  0.62500000  0.87500000  1
  K  K2  1  0.75000000  0.12500000  0.37500000  1
  K  K3  1  0.12500000  0.25000000  0.37500000  1
  K  K4  1  0.37500000  0.75000000  0.12500000  1
  K  K5  1  0.25000000  0.87500000  0.62500000  1
  K  K6  1  0.87500000  0.75000000  0.62500000  1
  K  K7  1  0.62500000  0.25000000  0.87500000  1
  K  K8  1  0.37500000  0.12500000  0.25000000  1
  K  K9  1  0.62500000  0.87500000  0.75000000  1
  K  K10  1  0.12500000  0.37500000  0.75000000  1
  K  K11  1  0.87500000  0.62500000  0.25000000  1
  Cr  Cr0  1  0.00000000  0.00000000  0.00000000  1
  Cr  Cr1  1  0.50000000  0.00000000  0.50000000  1
  Cr  Cr2  1  0.00000000  0.50000000  0.50000000  1
  Cr  Cr3  1  0.50000000  0.00000000  0.00000000  1
  Cr  Cr4  1  0.50000000  0.50000000  0.00000000  1
  Cr  Cr5  1  0.50000000  0.50000000  0.50000000  1
  Cr  Cr6  1  0.00000000  0.00000000  0.50000000  1
  Cr  Cr7  1  0.00000000  0.50000000  0.00000000  1
  As  As0  1  0.25000000  0.62500000  0.37500000  1
  As  As1  1  0.75000000  0.37500000  0.62500000  1
  As  As2  1  0.75000000  0.87500000  0.12500000  1
  As  As3  1  0.37500000  0.25000000  0.62500000  1
  As  As4  1  0.62500000  0.75000000  0.37500000  1
  As  As5  1  0.25000000  0.12500000  0.87500000  1
  As  As6  1  0.12500000  0.75000000  0.87500000  1
  As  As7  1  0.87500000  0.25000000  0.12500000  1
  As  As8  1  0.62500000  0.37500000  0.25000000  1
  As  As9  1  0.37500000  0.62500000  0.75000000  1
  As  As10  1  0.87500000  0.12500000  0.75000000  1
  As  As11  1  0.12500000  0.87500000  0.25000000  1
  O  O0  1  0.50241200  0.39558100  0.30788000  1
  O  O1  1  0.49758800  0.60441900  0.69212000  1
  O  O2  1  0.58770100  0.19453200  0.19212000  1
  O  O3  1  0.91229900  0.10441900  0.60683100  1
  O  O4  1  0.30788000  0.50241200  0.39558100  1
  O  O5  1  0.30546800  0.91229900  0.30788000  1
  O  O6  1  0.41229900  0.80546800  0.80788000  1
  O  O7  1  0.08770100  0.89558100  0.39316900  1
  O  O8  1  0.69212000  0.49758800  0.60441900  1
  O  O9  1  0.69453200  0.08770100  0.69212000  1
  O  O10  1  0.99758800  0.30546800  0.89316900  1
  O  O11  1  0.19212000  0.58770100  0.19453200  1
  O  O12  1  0.10441900  0.99758800  0.19212000  1
  O  O13  1  0.00241200  0.69453200  0.10683100  1
  O  O14  1  0.80788000  0.41229900  0.80546800  1
  O  O15  1  0.89558100  0.00241200  0.80788000  1
  O  O16  1  0.60683100  0.91229900  0.10441900  1
  O  O17  1  0.19453200  0.50241200  0.60683100  1
  O  O18  1  0.39316900  0.08770100  0.89558100  1
  O  O19  1  0.80546800  0.49758800  0.39316900  1
  O  O20  1  0.89316900  0.99758800  0.30546800  1
  O  O21  1  0.39558100  0.58770100  0.89316900  1
  O  O22  1  0.10683100  0.00241200  0.69453200  1
  O  O23  1  0.60441900  0.41229900  0.10683100  1
  O  O24  1  0.39558100  0.30788000  0.50241200  1
  O  O25  1  0.58770100  0.89316900  0.39558100  1
  O  O26  1  0.60441900  0.69212000  0.49758800  1
  O  O27  1  0.41229900  0.10683100  0.60441900  1
  O  O28  1  0.10441900  0.60683100  0.91229900  1
  O  O29  1  0.99758800  0.19212000  0.10441900  1
  O  O30  1  0.89558100  0.39316900  0.08770100  1
  O  O31  1  0.00241200  0.80788000  0.89558100  1
  O  O32  1  0.30546800  0.89316900  0.99758800  1
  O  O33  1  0.91229900  0.30788000  0.30546800  1
  O  O34  1  0.69453200  0.10683100  0.00241200  1
  O  O35  1  0.08770100  0.69212000  0.69453200  1
  O  O36  1  0.19453200  0.19212000  0.58770100  1
  O  O37  1  0.50241200  0.60683100  0.19453200  1
  O  O38  1  0.80546800  0.80788000  0.41229900  1
  O  O39  1  0.49758800  0.39316900  0.80546800  1
  O  O40  1  0.30788000  0.30546800  0.91229900  1
  O  O41  1  0.69212000  0.69453200  0.08770100  1
  O  O42  1  0.19212000  0.10441900  0.99758800  1
  O  O43  1  0.80788000  0.89558100  0.00241200  1
  O  O44  1  0.89316900  0.39558100  0.58770100  1
  O  O45  1  0.10683100  0.60441900  0.41229900  1
  O  O46  1  0.60683100  0.19453200  0.50241200  1
  O  O47  1  0.39316900  0.80546800  0.49758800  1
loop_
_geom_bond_atom_site_label_1
_geom_bond_atom_site_label_2
_geom_bond_distance
_geom_bond_site_symmetry_2
K0 O11 2.589254 1_555
K0 O4 2.589254 1_555
K0 O42 2.589254 1_554
K0 O40 2.589254 1_554
K0 O10 2.736653 1_454
K0 O37 2.736653 1_555
K0 O0 2.736653 1_555
K0 O29 2.736653 1_455
K1 O41 2.589254 1_556
K1 O43 2.589254 1_556
K1 O14 2.589254 1_555
K1 O8 2.589254 1_555
K1 O1 2.736653 1_555
K1 O39 2.736653 1_555
K1 O31 2.736653 1_655
K1 O13 2.736653 1_656
K2 O44 2.589254 1_555
K2 O46 2.589254 1_555
K2 O16 2.589254 1_545
K2 O20 2.589254 1_545
K2 O25 2.736653 1_545
K2 O2 2.736653 1_555
K2 O3 2.736653 1_555
K2 O33 2.736653 1_555
K3 O36 2.589254 1_555
K3 O24 2.589254 1_555
K3 O29 2.589254 1_455
K3 O33 2.589254 1_455
K3 O20 2.736653 1_445
K3 O17 2.736653 1_555
K3 O4 2.736653 1_555
K3 O12 2.736653 1_545
K4 O25 2.589254 1_555
K4 O37 2.589254 1_555
K4 O28 2.589254 1_554
K4 O32 2.589254 1_554
K4 O21 2.736653 1_554
K4 O11 2.736653 1_555
K4 O16 2.736653 1_555
K4 O5 2.736653 1_555
K5 O22 2.589254 1_565
K5 O18 2.589254 1_565
K5 O47 2.589254 1_555
K5 O45 2.589254 1_555
K5 O35 2.736653 1_555
K5 O6 2.736653 1_555
K5 O7 2.736653 1_555
K5 O27 2.736653 1_565
K6 O35 2.589254 1_655
K6 O31 2.589254 1_655
K6 O26 2.589254 1_555
K6 O38 2.589254 1_555
K6 O8 2.736653 1_555
K6 O19 2.736653 1_555
K6 O15 2.736653 1_565
K6 O22 2.736653 1_665
K7 O34 2.589254 1_556
K7 O30 2.589254 1_556
K7 O39 2.589254 1_555
K7 O27 2.589254 1_555
K7 O9 2.736653 1_555
K7 O14 2.736653 1_555
K7 O18 2.736653 1_555
K7 O23 2.736653 1_556
K8 O2 2.589254 1_555
K8 O0 2.589254 1_555
K8 O5 2.589254 1_545
K8 O12 2.589254 1_545
K8 O32 2.736653 1_544
K8 O46 2.736653 1_555
K8 O24 2.736653 1_555
K8 O42 2.736653 1_554
K9 O9 2.589254 1_565
K9 O15 2.589254 1_565
K9 O1 2.589254 1_555
K9 O6 2.589254 1_555
K9 O26 2.736653 1_555
K9 O47 2.736653 1_555
K9 O43 2.736653 1_556
K9 O34 2.736653 1_566
K10 O21 2.589254 1_555
K10 O17 2.589254 1_555
K10 O3 2.589254 1_455
K10 O10 2.589254 1_455
K10 O36 2.736653 1_555
K10 O44 2.736653 1_455
K10 O28 2.736653 1_555
K10 O40 2.736653 1_555
K11 O13 2.589254 1_655
K11 O19 2.589254 1_555
K11 O7 2.589254 1_655
K11 O23 2.589254 1_555
K11 O41 2.736653 1_555
K11 O38 2.736653 1_555
K11 O30 2.736653 1_555
K11 O45 2.736653 1_655
Cr0 O15 2.073466 1_454
Cr0 O31 2.073466 1_544
Cr0 O43 2.073466 1_445
Cr0 O29 2.073466 1_455
Cr0 O12 2.073466 1_545
Cr0 O42 2.073466 1_554
Cr1 O46 2.073466 1_555
Cr1 O9 2.073466 1_555
Cr1 O25 2.073466 1_545
Cr1 O47 2.073466 1_545
Cr1 O27 2.073466 1_555
Cr1 O5 2.073466 1_545
Cr2 O17 2.073466 1_555
Cr2 O35 2.073466 1_555
Cr2 O44 2.073466 1_455
Cr2 O19 2.073466 1_455
Cr2 O45 2.073466 1_555
Cr2 O33 2.073466 1_455
Cr3 O34 2.073466 1_555
Cr3 O2 2.073466 1_555
Cr3 O6 2.073466 1_544
Cr3 O18 2.073466 1_554
Cr3 O16 2.073466 1_545
Cr3 O32 2.073466 1_544
Cr4 O37 2.073466 1_555
Cr4 O41 2.073466 1_555
Cr4 O21 2.073466 1_554
Cr4 O39 2.073466 1_554
Cr4 O23 2.073466 1_555
Cr4 O40 2.073466 1_554
Cr5 O1 2.073466 1_555
Cr5 O26 2.073466 1_555
Cr5 O8 2.073466 1_555
Cr5 O0 2.073466 1_555
Cr5 O24 2.073466 1_555
Cr5 O4 2.073466 1_555
Cr6 O22 2.073466 1_555
Cr6 O36 2.073466 1_555
Cr6 O38 2.073466 1_445
Cr6 O7 2.073466 1_545
Cr6 O3 2.073466 1_455
Cr6 O20 2.073466 1_445
Cr7 O13 2.073466 1_555
Cr7 O11 2.073466 1_555
Cr7 O14 2.073466 1_454
Cr7 O28 2.073466 1_554
Cr7 O30 2.073466 1_455
Cr7 O10 2.073466 1_454
As0 O45 1.733868 1_555
As0 O4 1.733868 1_555
As0 O47 1.733868 1_555
As0 O11 1.733868 1_555
As1 O8 1.733868 1_555
As1 O14 1.733868 1_555
As1 O46 1.733868 1_555
As1 O44 1.733868 1_555
As2 O20 1.733868 1_555
As2 O16 1.733868 1_555
As2 O43 1.733868 1_555
As2 O41 1.733868 1_555
As3 O27 1.733868 1_555
As3 O24 1.733868 1_555
As3 O39 1.733868 1_555
As3 O36 1.733868 1_555
As4 O38 1.733868 1_555
As4 O26 1.733868 1_555
As4 O37 1.733868 1_555
As4 O25 1.733868 1_555
As5 O42 1.733868 1_555
As5 O40 1.733868 1_555
As5 O18 1.733868 1_555
As5 O22 1.733868 1_555
As6 O32 1.733868 1_555
As6 O28 1.733868 1_555
As6 O31 1.733868 1_555
As6 O35 1.733868 1_555
As7 O33 1.733868 1_555
As7 O29 1.733868 1_555
As7 O30 1.733868 1_555
As7 O34 1.733868 1_555
As8 O23 1.733868 1_555
As8 O0 1.733868 1_555
As8 O19 1.733868 1_555
As8 O2 1.733868 1_555
As9 O1 1.733868 1_555
As9 O6 1.733868 1_555
As9 O17 1.733868 1_555
As9 O21 1.733868 1_555
As10 O10 1.733868 1_555
As10 O3 1.733868 1_555
As10 O15 1.733868 1_555
As10 O9 1.733868 1_555
As11 O12 1.733868 1_555
As11 O5 1.733868 1_555
As11 O7 1.733868 1_555
As11 O13 1.733868 1_555
