# generated using pymatgen
data_CsBeF3
_symmetry_space_group_name_H-M   'P 1'
_cell_length_a   4.84401504
_cell_length_b   6.00417243
_cell_length_c   12.51777016
_cell_angle_alpha   90.00000000
_cell_angle_beta   90.00000000
_cell_angle_gamma   90.00000000
_symmetry_Int_Tables_number   1
_chemical_formula_structural   CsBeF3
_chemical_formula_sum   'Cs4 Be4 F12'
_cell_volume   364.07060211
_cell_formula_units_Z   4
loop_
 _symmetry_equiv_pos_site_id
 _symmetry_equiv_pos_as_xyz
  1  'x, y, z'
loop_
 _atom_site_type_symbol
 _atom_site_label
 _atom_site_symmetry_multiplicity
 _atom_site_fract_x
 _atom_site_fract_y
 _atom_site_fract_z
 _atom_site_occupancy
  Cs  Cs0  1  0.24101522  0.75000000  0.60511305  1
  Cs  Cs1  1  0.74101522  0.75000000  0.89488695  1
  Cs  Cs2  1  0.75898478  0.25000000  0.39488695  1
  Cs  Cs3  1  0.25898478  0.25000000  0.10511305  1
  Be  Be0  1  0.80828648  0.75000000  0.17949150  1
  Be  Be1  1  0.30828648  0.75000000  0.32050850  1
  Be  Be2  1  0.19171352  0.25000000  0.82050850  1
  Be  Be3  1  0.69171352  0.25000000  0.67949150  1
  F  F0  1  0.87159447  0.25000000  0.78583144  1
  F  F1  1  0.37159447  0.25000000  0.71416856  1
  F  F2  1  0.12840553  0.75000000  0.21416856  1
  F  F3  1  0.62840553  0.75000000  0.28583144  1
  F  F4  1  0.24543654  0.03698545  0.88269330  1
  F  F5  1  0.74543654  0.46301455  0.61730670  1
  F  F6  1  0.75456346  0.53698545  0.11730670  1
  F  F7  1  0.25456346  0.96301455  0.38269330  1
  F  F8  1  0.75456346  0.96301455  0.11730670  1
  F  F9  1  0.25456346  0.53698545  0.38269330  1
  F  F10  1  0.24543654  0.46301455  0.88269330  1
  F  F11  1  0.74543654  0.03698545  0.61730670  1
loop_
_geom_bond_atom_site_label_1
_geom_bond_atom_site_label_2
_geom_bond_distance
_geom_bond_site_symmetry_2
Cs0 F5 2.958926 1_455
Cs0 F11 2.958926 1_465
Cs0 F5 2.993782 1_555
Cs0 F11 2.993782 1_565
Cs0 F9 3.064613 1_555
Cs0 F7 3.064613 1_555
Cs0 F1 3.358005 1_565
Cs0 F1 3.358005 1_555
Cs1 F4 2.958926 1_565
Cs1 F10 2.958926 1_555
Cs1 F10 2.993782 1_655
Cs1 F4 2.993782 1_665
Cs1 F8 3.064613 1_556
Cs1 F6 3.064613 1_556
Cs1 F0 3.358005 1_565
Cs1 F0 3.358005 1_555
Cs2 F9 2.958926 1_655
Cs2 F7 2.958926 1_645
Cs2 F7 2.993782 1_545
Cs2 F9 2.993782 1_555
Cs2 F11 3.064613 1_555
Cs2 F5 3.064613 1_555
Cs2 F3 3.358005 1_545
Cs2 F3 3.358005 1_555
Cs3 F8 2.958926 1_545
Cs3 F6 2.958926 1_555
Cs3 F8 2.993782 1_445
Cs3 F6 2.993782 1_455
Cs3 F4 3.064613 1_554
Cs3 F10 3.064613 1_554
Cs3 F2 3.358005 1_555
Cs3 F2 3.358005 1_545
Be0 F6 1.519682 1_555
Be0 F8 1.519682 1_555
Be0 F3 1.590967 1_555
Be0 F2 1.610272 1_655
Be1 F9 1.519682 1_555
Be1 F7 1.519682 1_555
Be1 F2 1.590967 1_555
Be1 F3 1.610272 1_555
Be2 F4 1.519682 1_555
Be2 F10 1.519682 1_555
Be2 F1 1.590967 1_555
Be2 F0 1.610272 1_455
Be3 F5 1.519682 1_555
Be3 F11 1.519682 1_555
Be3 F0 1.590967 1_555
Be3 F1 1.610272 1_555
