# generated using pymatgen
data_TiFeGe2
_symmetry_space_group_name_H-M   'P 1'
_cell_length_a   7.89015469
_cell_length_b   8.96698212
_cell_length_c   9.76835389
_cell_angle_alpha   90.00000000
_cell_angle_beta   90.00000000
_cell_angle_gamma   90.00000000
_symmetry_Int_Tables_number   1
_chemical_formula_structural   TiFeGe2
_chemical_formula_sum   'Ti12 Fe12 Ge24'
_cell_volume   691.11959508
_cell_formula_units_Z   12
loop_
 _symmetry_equiv_pos_site_id
 _symmetry_equiv_pos_as_xyz
  1  'x, y, z'
loop_
 _atom_site_type_symbol
 _atom_site_label
 _atom_site_symmetry_multiplicity
 _atom_site_fract_x
 _atom_site_fract_y
 _atom_site_fract_z
 _atom_site_occupancy
  Ti  Ti0  1  0.73965927  0.83006661  0.04676432  1
  Ti  Ti1  1  0.73965927  0.16993339  0.95323568  1
  Ti  Ti2  1  0.26034073  0.66993339  0.54676432  1
  Ti  Ti3  1  0.26034073  0.33006661  0.45323568  1
  Ti  Ti4  1  0.26034073  0.16993339  0.95323568  1
  Ti  Ti5  1  0.26034073  0.83006661  0.04676432  1
  Ti  Ti6  1  0.73965927  0.33006661  0.45323568  1
  Ti  Ti7  1  0.73965927  0.66993339  0.54676432  1
  Ti  Ti8  1  0.50000000  0.83273495  0.32020230  1
  Ti  Ti9  1  0.50000000  0.16726505  0.67979770  1
  Ti  Ti10  1  0.50000000  0.66726505  0.82020230  1
  Ti  Ti11  1  0.50000000  0.33273495  0.17979770  1
  Fe  Fe0  1  0.74996966  0.58125099  0.24705019  1
  Fe  Fe1  1  0.74996966  0.41874901  0.75294981  1
  Fe  Fe2  1  0.25003034  0.91874901  0.74705019  1
  Fe  Fe3  1  0.25003034  0.08125099  0.25294981  1
  Fe  Fe4  1  0.25003034  0.41874901  0.75294981  1
  Fe  Fe5  1  0.25003034  0.58125099  0.24705019  1
  Fe  Fe6  1  0.74996966  0.08125099  0.25294981  1
  Fe  Fe7  1  0.74996966  0.91874901  0.74705019  1
  Fe  Fe8  1  0.74595796  0.00000000  0.50000000  1
  Fe  Fe9  1  0.25404204  0.50000000  -0.00000000  1
  Fe  Fe10  1  0.25404204  0.00000000  0.50000000  1
  Fe  Fe11  1  0.74595796  0.50000000  -0.00000000  1
  Ge  Ge0  1  0.83844490  0.82756005  0.31746003  1
  Ge  Ge1  1  0.83844490  0.17243995  0.68253997  1
  Ge  Ge2  1  0.16155510  0.67243995  0.81746003  1
  Ge  Ge3  1  0.16155510  0.32756005  0.18253997  1
  Ge  Ge4  1  0.16155510  0.17243995  0.68253997  1
  Ge  Ge5  1  0.16155510  0.82756005  0.31746003  1
  Ge  Ge6  1  0.83844490  0.32756005  0.18253997  1
  Ge  Ge7  1  0.83844490  0.67243995  0.81746003  1
  Ge  Ge8  1  0.50000000  0.54112946  0.37886594  1
  Ge  Ge9  1  0.50000000  0.45887054  0.62113406  1
  Ge  Ge10  1  0.50000000  0.95887054  0.87886594  1
  Ge  Ge11  1  0.50000000  0.04112946  0.12113406  1
  Ge  Ge12  1  -0.00000000  0.53342987  0.37823153  1
  Ge  Ge13  1  -0.00000000  0.46657013  0.62176847  1
  Ge  Ge14  1  -0.00000000  0.96657013  0.87823153  1
  Ge  Ge15  1  -0.00000000  0.03342987  0.12176847  1
  Ge  Ge16  1  0.50000000  0.63283580  0.10115778  1
  Ge  Ge17  1  0.50000000  0.36716420  0.89884222  1
  Ge  Ge18  1  0.50000000  0.86716420  0.60115778  1
  Ge  Ge19  1  0.50000000  0.13283580  0.39884222  1
  Ge  Ge20  1  -0.00000000  0.63675666  0.08949434  1
  Ge  Ge21  1  -0.00000000  0.36324334  0.91050566  1
  Ge  Ge22  1  -0.00000000  0.86324334  0.58949434  1
  Ge  Ge23  1  -0.00000000  0.13675666  0.41050566  1
loop_
_geom_bond_atom_site_label_1
_geom_bond_atom_site_label_2
_geom_bond_distance
_geom_bond_site_symmetry_2
Fe0 Ge8 2.382723 1_555
Fe0 Ge12 2.391189 1_655
Fe0 Ge0 2.416299 1_555
Fe0 Ge6 2.461570 1_555
Fe0 Ge16 2.476877 1_555
Fe0 Fe11 2.521054 1_555
Fe0 Ge20 2.551134 1_655
Fe1 Ge9 2.382723 1_555
Fe1 Ge13 2.391189 1_655
Fe1 Ge1 2.416299 1_555
Fe1 Ge7 2.461570 1_555
Fe1 Ge17 2.476877 1_555
Fe1 Fe11 2.521054 1_556
Fe1 Ge21 2.551134 1_655
Fe2 Ge10 2.382723 1_555
Fe2 Ge14 2.391189 1_555
Fe2 Ge2 2.416299 1_555
Fe2 Ge4 2.461570 1_565
Fe2 Ge18 2.476877 1_555
Fe2 Ge22 2.551134 1_555
Fe3 Ge11 2.382723 1_555
Fe3 Ge15 2.391189 1_555
Fe3 Ge3 2.416299 1_555
Fe3 Ge5 2.461570 1_545
Fe3 Ge19 2.476877 1_555
Fe3 Ge23 2.551134 1_555
Fe4 Ge9 2.382723 1_555
Fe4 Ge13 2.391189 1_555
Fe4 Ge4 2.416299 1_555
Fe4 Ge2 2.461570 1_555
Fe4 Ge17 2.476877 1_555
Fe4 Fe9 2.521054 1_556
Fe4 Ge21 2.551134 1_555
Fe5 Ge8 2.382723 1_555
Fe5 Ge12 2.391189 1_555
Fe5 Ge5 2.416299 1_555
Fe5 Ge3 2.461570 1_555
Fe5 Ge16 2.476877 1_555
Fe5 Fe9 2.521054 1_555
Fe5 Ge20 2.551134 1_555
Fe6 Ge11 2.382723 1_555
Fe6 Ge15 2.391189 1_655
Fe6 Ge6 2.416299 1_555
Fe6 Ge0 2.461570 1_545
Fe6 Ge19 2.476877 1_555
Fe6 Fe8 2.521054 1_555
Fe6 Ge23 2.551134 1_655
Fe7 Ge10 2.382723 1_555
Fe7 Ge14 2.391189 1_655
Fe7 Ge7 2.416299 1_555
Fe7 Ge1 2.461570 1_565
Fe7 Ge18 2.476877 1_555
Fe7 Fe8 2.521054 1_565
Fe7 Ge22 2.551134 1_655
Fe8 Ge1 2.470415 1_555
Fe8 Ge0 2.470415 1_545
Fe8 Ge19 2.482206 1_555
Fe8 Ge18 2.482206 1_545
Fe8 Ge22 2.507148 1_645
Fe8 Ge23 2.507148 1_655
Fe8 Ti6 2.995159 1_555
Fe8 Ti7 2.995159 1_545
Fe8 Ti9 3.016684 1_555
Fe8 Ti8 3.016684 1_545
Fe9 Ge2 2.470415 1_554
Fe9 Ge3 2.470415 1_555
Fe9 Ge17 2.482206 1_554
Fe9 Ge16 2.482206 1_555
Fe9 Ge20 2.507148 1_555
Fe9 Ge21 2.507148 1_554
Fe9 Ti4 2.995159 1_554
Fe9 Ti5 2.995159 1_555
Fe9 Ti11 3.016684 1_555
Fe9 Ti10 3.016684 1_554
Fe10 Ge5 2.470415 1_545
Fe10 Ge4 2.470415 1_555
Fe10 Ge19 2.482206 1_555
Fe10 Ge18 2.482206 1_545
Fe10 Ge22 2.507148 1_545
Fe10 Ge23 2.507148 1_555
Fe10 Fe3 2.521054 1_555
Fe10 Fe2 2.521054 1_545
Fe10 Ti2 2.995159 1_545
Fe10 Ti3 2.995159 1_555
Fe10 Ti9 3.016684 1_555
Fe10 Ti8 3.016684 1_545
Fe11 Ge7 2.470415 1_554
Fe11 Ge6 2.470415 1_555
Fe11 Ge16 2.482206 1_555
Fe11 Ge17 2.482206 1_554
Fe11 Ge20 2.507148 1_655
Fe11 Ge21 2.507148 1_654
Fe11 Ti0 2.995159 1_555
Fe11 Ti1 2.995159 1_554
Fe11 Ti11 3.016684 1_555
Fe11 Ti10 3.016684 1_554
Ge0 Ge5 2.549389 1_655
Ge0 Ti8 2.670920 1_555
Ge0 Ti0 2.756826 1_555
Ge0 Ti7 2.760903 1_555
Ge1 Ge4 2.549389 1_655
Ge1 Ti9 2.670920 1_555
Ge1 Ti1 2.756826 1_555
Ge1 Ti6 2.760903 1_555
Ge2 Ge7 2.549389 1_455
Ge2 Ti10 2.670920 1_555
Ge2 Ti2 2.756826 1_555
Ge2 Ti5 2.760903 1_556
Ge3 Ge6 2.549389 1_455
Ge3 Ti11 2.670920 1_555
Ge3 Ti3 2.756826 1_555
Ge3 Ti4 2.760903 1_554
Ge4 Ti9 2.670920 1_555
Ge4 Ti4 2.756826 1_555
Ge4 Ti3 2.760903 1_555
Ge5 Ti8 2.670920 1_555
Ge5 Ti5 2.756826 1_555
Ge5 Ti2 2.760903 1_555
Ge6 Ti11 2.670920 1_555
Ge6 Ti6 2.756826 1_555
Ge6 Ti1 2.760903 1_554
Ge7 Ti10 2.670920 1_555
Ge7 Ti7 2.756826 1_555
Ge7 Ti0 2.760903 1_556
Ge8 Ge9 2.478847 1_555
Ge8 Ti8 2.676877 1_555
Ge8 Ti11 2.696901 1_555
Ge8 Ti7 2.756732 1_555
Ge8 Ti2 2.756732 1_555
Ge8 Ti3 2.772250 1_555
Ge8 Ti6 2.772250 1_555
Ge9 Ti9 2.676877 1_555
Ge9 Ti10 2.696901 1_555
Ge9 Ti6 2.756732 1_555
Ge9 Ti3 2.756732 1_555
Ge9 Ti7 2.772250 1_555
Ge9 Ti2 2.772250 1_555
Ge10 Ge11 2.478847 1_566
Ge10 Ti10 2.676877 1_555
Ge10 Ti9 2.696901 1_565
Ge10 Ti0 2.756732 1_556
Ge10 Ti5 2.756732 1_556
Ge10 Ti4 2.772250 1_565
Ge10 Ti1 2.772250 1_565
Ge11 Ti11 2.676877 1_555
Ge11 Ti8 2.696901 1_545
Ge11 Ti4 2.756732 1_554
Ge11 Ti1 2.756732 1_554
Ge11 Ti0 2.772250 1_545
Ge11 Ti5 2.772250 1_545
Ge12 Ge13 2.453337 1_555
Ge12 Ti6 2.842815 1_455
Ge12 Ti3 2.842815 1_555
Ge12 Ti2 2.903092 1_555
Ge12 Ti7 2.903092 1_455
Ge13 Ti2 2.842815 1_555
Ge13 Ti7 2.842815 1_455
Ge13 Ti3 2.903092 1_555
Ge13 Ti6 2.903092 1_455
Ge14 Ge15 2.453337 1_566
Ge14 Ti4 2.842815 1_565
Ge14 Ti1 2.842815 1_465
Ge14 Ti0 2.903092 1_456
Ge14 Ti5 2.903092 1_556
Ge15 Ti0 2.842815 1_445
Ge15 Ti5 2.842815 1_545
Ge15 Ti1 2.903092 1_454
Ge15 Ti4 2.903092 1_554
Ge16 Ti0 2.643071 1_555
Ge16 Ti5 2.643071 1_555
Ge16 Ti10 2.761782 1_554
Ge16 Ti8 2.791301 1_555
Ge16 Ti11 2.798496 1_555
Ge17 Ti1 2.643071 1_555
Ge17 Ti4 2.643071 1_555
Ge17 Ti11 2.761782 1_556
Ge17 Ti9 2.791301 1_555
Ge17 Ti10 2.798496 1_555
Ge18 Ti7 2.643071 1_555
Ge18 Ti2 2.643071 1_555
Ge18 Ti8 2.761782 1_555
Ge18 Ti10 2.791301 1_555
Ge18 Ti9 2.798496 1_565
Ge19 Ti6 2.643071 1_555
Ge19 Ti3 2.643071 1_555
Ge19 Ti9 2.761782 1_555
Ge19 Ti11 2.791301 1_555
Ge19 Ti8 2.798496 1_545
Ge20 Ti0 2.719994 1_455
Ge20 Ti5 2.719994 1_555
Ge21 Ti4 2.719994 1_555
Ge21 Ti1 2.719994 1_455
Ge22 Ti2 2.719994 1_555
Ge22 Ti7 2.719994 1_455
Ge23 Ti3 2.719994 1_555
Ge23 Ti6 2.719994 1_455
