# generated using pymatgen
data_NdYCo14B
_symmetry_space_group_name_H-M   'P 1'
_cell_length_a   8.61334300
_cell_length_b   8.61334300
_cell_length_c   11.72177700
_cell_angle_alpha   90.00000000
_cell_angle_beta   90.00000000
_cell_angle_gamma   90.00000000
_symmetry_Int_Tables_number   1
_chemical_formula_structural   NdYCo14B
_chemical_formula_sum   'Nd4 Y4 Co56 B4'
_cell_volume   869.63485695
_cell_formula_units_Z   4
loop_
 _symmetry_equiv_pos_site_id
 _symmetry_equiv_pos_as_xyz
  1  'x, y, z'
loop_
 _atom_site_type_symbol
 _atom_site_label
 _atom_site_symmetry_multiplicity
 _atom_site_fract_x
 _atom_site_fract_y
 _atom_site_fract_z
 _atom_site_occupancy
  Nd  Nd0  1  0.64341100  0.64341100  0.50000000  1
  Nd  Nd1  1  0.35658900  0.35658900  0.50000000  1
  Nd  Nd2  1  0.85658900  0.14341100  0.00000000  1
  Nd  Nd3  1  0.14341100  0.85658900  0.00000000  1
  Y  Y0  1  0.22402200  0.77597800  0.50000000  1
  Y  Y1  1  0.77597800  0.22402200  0.50000000  1
  Y  Y2  1  0.27597800  0.27597800  0.00000000  1
  Y  Y3  1  0.72402200  0.72402200  0.00000000  1
  Co  Co0  1  0.40092700  0.59907300  0.29555900  1
  Co  Co1  1  0.59907300  0.40092700  0.29555900  1
  Co  Co2  1  0.09907300  0.09907300  0.79555900  1
  Co  Co3  1  0.90092700  0.90092700  0.79555900  1
  Co  Co4  1  0.59907300  0.40092700  0.70444100  1
  Co  Co5  1  0.40092700  0.59907300  0.70444100  1
  Co  Co6  1  0.90092700  0.90092700  0.20444100  1
  Co  Co7  1  0.09907300  0.09907300  0.20444100  1
  Co  Co8  1  0.18224600  0.81775400  0.25466300  1
  Co  Co9  1  0.81775400  0.18224600  0.25466300  1
  Co  Co10  1  0.31775400  0.31775400  0.75466300  1
  Co  Co11  1  0.68224600  0.68224600  0.75466300  1
  Co  Co12  1  0.81775400  0.18224600  0.74533700  1
  Co  Co13  1  0.18224600  0.81775400  0.74533700  1
  Co  Co14  1  0.68224600  0.68224600  0.24533700  1
  Co  Co15  1  0.31775400  0.31775400  0.24533700  1
  Co  Co16  1  0.00000000  0.50000000  0.50000000  1
  Co  Co17  1  0.50000000  0.00000000  0.00000000  1
  Co  Co18  1  0.50000000  0.00000000  0.50000000  1
  Co  Co19  1  0.00000000  0.50000000  0.00000000  1
  Co  Co20  1  0.14033100  0.53747300  0.32204600  1
  Co  Co21  1  0.85966900  0.46252700  0.32204600  1
  Co  Co22  1  0.35966900  0.03747300  0.82204600  1
  Co  Co23  1  0.64033100  0.96252700  0.82204600  1
  Co  Co24  1  0.85966900  0.46252700  0.67795400  1
  Co  Co25  1  0.14033100  0.53747300  0.67795400  1
  Co  Co26  1  0.64033100  0.96252700  0.17795400  1
  Co  Co27  1  0.35966900  0.03747300  0.17795400  1
  Co  Co28  1  0.53747300  0.14033100  0.32204600  1
  Co  Co29  1  0.46252700  0.85966900  0.32204600  1
  Co  Co30  1  0.03747300  0.35966900  0.82204600  1
  Co  Co31  1  0.96252700  0.64033100  0.82204600  1
  Co  Co32  1  0.46252700  0.85966900  0.67795400  1
  Co  Co33  1  0.53747300  0.14033100  0.67795400  1
  Co  Co34  1  0.96252700  0.64033100  0.17795400  1
  Co  Co35  1  0.03747300  0.35966900  0.17795400  1
  Co  Co36  1  0.93193100  0.72406100  0.37387100  1
  Co  Co37  1  0.06806900  0.27593900  0.37387100  1
  Co  Co38  1  0.56806900  0.22406100  0.87387100  1
  Co  Co39  1  0.43193100  0.77593900  0.87387100  1
  Co  Co40  1  0.06806900  0.27593900  0.62612900  1
  Co  Co41  1  0.93193100  0.72406100  0.62612900  1
  Co  Co42  1  0.43193100  0.77593900  0.12612900  1
  Co  Co43  1  0.56806900  0.22406100  0.12612900  1
  Co  Co44  1  0.72406100  0.93193100  0.37387100  1
  Co  Co45  1  0.27593900  0.06806900  0.37387100  1
  Co  Co46  1  0.22406100  0.56806900  0.87387100  1
  Co  Co47  1  0.77593900  0.43193100  0.87387100  1
  Co  Co48  1  0.27593900  0.06806900  0.62612900  1
  Co  Co49  1  0.72406100  0.93193100  0.62612900  1
  Co  Co50  1  0.77593900  0.43193100  0.12612900  1
  Co  Co51  1  0.22406100  0.56806900  0.12612900  1
  Co  Co52  1  0.50000000  0.50000000  0.11559200  1
  Co  Co53  1  0.00000000  0.00000000  0.61559200  1
  Co  Co54  1  0.50000000  0.50000000  0.88440800  1
  Co  Co55  1  0.00000000  0.00000000  0.38440800  1
  B  B0  1  0.87731600  0.87731600  0.50000000  1
  B  B1  1  0.12268400  0.12268400  0.50000000  1
  B  B2  1  0.62268400  0.37731600  0.00000000  1
  B  B3  1  0.37731600  0.62268400  0.00000000  1
loop_
_geom_bond_atom_site_label_1
_geom_bond_atom_site_label_2
_geom_bond_distance
_geom_bond_site_symmetry_2
Co0 Co20 2.327263 1_555
Co0 Co29 2.327263 1_555
Co0 Co1 2.413638 1_555
Co0 Co52 2.430338 1_555
Co0 Co51 2.517213 1_555
Co0 Co42 2.517213 1_555
Co0 Co15 2.594452 1_555
Co0 Co14 2.594452 1_555
Co0 Co8 2.706567 1_555
Co0 Nd0 3.201699 1_555
Co0 Nd1 3.201699 1_555
Co0 Y0 3.222790 1_555
Co1 Co28 2.327263 1_555
Co1 Co21 2.327263 1_555
Co1 Co52 2.430338 1_555
Co1 Co43 2.517213 1_555
Co1 Co50 2.517213 1_555
Co1 Co15 2.594452 1_555
Co1 Co14 2.594452 1_555
Co1 Co9 2.706567 1_555
Co1 Nd0 3.201699 1_555
Co1 Nd1 3.201699 1_555
Co1 Y1 3.222790 1_555
Co2 Co30 2.327263 1_555
Co2 Co22 2.327263 1_555
Co2 Co3 2.413638 1_445
Co2 Co53 2.430338 1_555
Co2 Co40 2.517213 1_555
Co2 Co48 2.517213 1_555
Co2 Nd2 3.201699 1_456
Co2 Nd3 3.201699 1_546
Co2 Y2 3.222790 1_556
Co3 Co31 2.327263 1_555
Co3 Co53 2.430338 1_665
Co3 Co49 2.517213 1_555
Co3 Co41 2.517213 1_555
Co3 Nd3 3.201699 1_656
Co3 Nd2 3.201699 1_566
Co3 Y3 3.222790 1_556
Co4 Co5 2.413638 1_555
Co4 Co54 2.430338 1_555
Co4 Co47 2.517213 1_555
Co4 Nd0 3.201699 1_555
Co4 Nd1 3.201699 1_555
Co4 Y1 3.222790 1_555
Co5 Co54 2.430338 1_555
Co5 Nd0 3.201699 1_555
Co5 Nd1 3.201699 1_555
Co5 Y0 3.222790 1_555
Co6 Co7 2.413638 1_665
Co6 Co8 2.594452 1_655
Co6 Co9 2.594452 1_565
Co6 Nd3 3.201699 1_655
Co6 Nd2 3.201699 1_565
Co6 Y3 3.222790 1_555
Co7 Co8 2.594452 1_545
Co7 Co9 2.594452 1_455
Co7 Nd3 3.201699 1_545
Co7 Nd2 3.201699 1_455
Co7 Y2 3.222790 1_555
Co8 Y0 2.920462 1_555
Co8 Nd3 3.022353 1_555
Co9 Y1 2.920462 1_555
Co9 Nd2 3.022353 1_555
Co10 Co30 2.565610 1_555
Co10 Co22 2.565610 1_555
Co10 Co33 2.593361 1_555
Co10 Co25 2.593361 1_555
Co10 Co5 2.594452 1_555
Co10 Co4 2.594452 1_555
Co10 Co48 2.650449 1_555
Co10 Co40 2.650449 1_555
Co10 Co54 2.690943 1_555
Co10 Co46 2.693017 1_555
Co10 Co38 2.693017 1_555
Co10 Co2 2.706567 1_555
Co10 Y2 2.920462 1_556
Co10 Nd1 3.022353 1_555
Co11 Co31 2.565610 1_555
Co11 Co23 2.565610 1_555
Co11 Co32 2.593361 1_555
Co11 Co24 2.593361 1_555
Co11 Co4 2.594452 1_555
Co11 Co5 2.594452 1_555
Co11 Co41 2.650449 1_555
Co11 Co49 2.650449 1_555
Co11 Co54 2.690943 1_555
Co11 Co39 2.693017 1_555
Co11 Co47 2.693017 1_555
Co11 Co3 2.706567 1_555
Co11 Y3 2.920462 1_556
Co11 Nd0 3.022353 1_555
Co12 Co33 2.565610 1_555
Co12 Co24 2.565610 1_555
Co12 Co23 2.593361 1_545
Co12 Co30 2.593361 1_655
Co12 Co2 2.594452 1_655
Co12 Co3 2.594452 1_545
Co12 Co38 2.650449 1_555
Co12 Co47 2.650449 1_555
Co12 Co53 2.690943 1_655
Co12 Co40 2.693017 1_655
Co12 Co49 2.693017 1_545
Co12 Co4 2.706567 1_555
Co12 Y1 2.920462 1_555
Co12 Nd2 3.022353 1_556
Co13 Co32 2.565610 1_555
Co13 Co25 2.565610 1_555
Co13 Co31 2.593361 1_455
Co13 Co22 2.593361 1_565
Co13 Co2 2.594452 1_565
Co13 Co3 2.594452 1_455
Co13 Co46 2.650449 1_555
Co13 Co39 2.650449 1_555
Co13 Co53 2.690943 1_565
Co13 Co48 2.693017 1_565
Co13 Co41 2.693017 1_455
Co13 Co5 2.706567 1_555
Co13 Y0 2.920462 1_555
Co13 Nd3 3.022353 1_556
Co14 Co26 2.565610 1_555
Co14 Co34 2.565610 1_555
Co14 Co29 2.593361 1_555
Co14 Co21 2.593361 1_555
Co14 Co44 2.650449 1_555
Co14 Co36 2.650449 1_555
Co14 Co52 2.690943 1_555
Co14 Co50 2.693017 1_555
Co14 Co42 2.693017 1_555
Co14 Co6 2.706567 1_555
Co14 Y3 2.920462 1_555
Co14 Nd0 3.022353 1_555
Co15 Co27 2.565610 1_555
Co15 Co35 2.565610 1_555
Co15 Co20 2.593361 1_555
Co15 Co28 2.593361 1_555
Co15 Co45 2.650449 1_555
Co15 Co37 2.650449 1_555
Co15 Co52 2.690943 1_555
Co15 Co43 2.693017 1_555
Co15 Co51 2.693017 1_555
Co15 Co7 2.706567 1_555
Co15 Y2 2.920462 1_555
Co15 Nd1 3.022353 1_555
Co16 Co25 2.432348 1_555
Co16 Co24 2.432348 1_455
Co16 Co21 2.432348 1_455
Co16 Co20 2.432348 1_555
Co16 Co41 2.500830 1_455
Co16 Co37 2.500830 1_555
Co16 Co36 2.500830 1_455
Co16 Co40 2.500830 1_555
Co16 Y0 3.061673 1_555
Co16 Y1 3.061673 1_455
Co16 Nd1 3.310510 1_555
Co16 Nd0 3.310510 1_455
Co17 Co22 2.432348 1_554
Co17 Co23 2.432348 1_544
Co17 Co26 2.432348 1_545
Co17 Co27 2.432348 1_555
Co17 Co42 2.500830 1_545
Co17 Co43 2.500830 1_555
Co17 Co39 2.500830 1_544
Co17 Co38 2.500830 1_554
Co17 Y2 3.061673 1_555
Co17 Y3 3.061673 1_545
Co17 Nd3 3.310510 1_545
Co17 Nd2 3.310510 1_555
Co18 Co32 2.432348 1_545
Co18 Co33 2.432348 1_555
Co18 Co29 2.432348 1_545
Co18 Co28 2.432348 1_555
Co18 Co44 2.500830 1_545
Co18 Co45 2.500830 1_555
Co18 Co48 2.500830 1_555
Co18 Co49 2.500830 1_545
Co18 Y1 3.061673 1_555
Co18 Y0 3.061673 1_545
Co18 Nd1 3.310510 1_555
Co18 Nd0 3.310510 1_545
Co19 Co30 2.432348 1_554
Co19 Co31 2.432348 1_454
Co19 Co35 2.432348 1_555
Co19 Co34 2.432348 1_455
Co19 Co47 2.500830 1_454
Co19 Co50 2.500830 1_455
Co19 Co51 2.500830 1_555
Co19 Co46 2.500830 1_554
Co19 Y2 3.061673 1_555
Co19 Y3 3.061673 1_455
Co19 Nd2 3.310510 1_455
Co19 Nd3 3.310510 1_555
Co20 Co37 2.414749 1_555
Co20 Co51 2.421459 1_555
Co20 Co35 2.446044 1_555
Co20 Co34 2.446044 1_455
Co20 Co36 2.484764 1_455
Co20 Co21 2.502144 1_455
Co20 Co8 2.565610 1_555
Co20 Y0 3.015133 1_555
Co20 Nd1 3.201283 1_555
Co21 Co36 2.414749 1_555
Co21 Co50 2.421459 1_555
Co21 Co34 2.446044 1_555
Co21 Co35 2.446044 1_655
Co21 Co37 2.484764 1_655
Co21 Co9 2.565610 1_555
Co21 Y1 3.015133 1_555
Co21 Nd0 3.201283 1_555
Co22 Co39 2.414749 1_545
Co22 Co48 2.421459 1_555
Co22 Co32 2.446044 1_545
Co22 Co33 2.446044 1_555
Co22 Co38 2.484764 1_555
Co22 Co23 2.502144 1_545
Co22 Y2 3.015133 1_556
Co22 Nd3 3.201283 1_546
Co23 Co3 2.327263 1_555
Co23 Co38 2.414749 1_565
Co23 Co49 2.421459 1_555
Co23 Co33 2.446044 1_565
Co23 Co32 2.446044 1_555
Co23 Co39 2.484764 1_555
Co23 Y3 3.015133 1_556
Co23 Nd2 3.201283 1_566
Co24 Co4 2.327263 1_555
Co24 Co41 2.414749 1_555
Co24 Co47 2.421459 1_555
Co24 Co31 2.446044 1_555
Co24 Co30 2.446044 1_655
Co24 Co40 2.484764 1_655
Co24 Co25 2.502144 1_655
Co24 Y1 3.015133 1_555
Co24 Nd0 3.201283 1_555
Co25 Co5 2.327263 1_555
Co25 Co40 2.414749 1_555
Co25 Co46 2.421459 1_555
Co25 Co31 2.446044 1_455
Co25 Co30 2.446044 1_555
Co25 Co41 2.484764 1_455
Co25 Y0 3.015133 1_555
Co25 Nd1 3.201283 1_555
Co26 Co6 2.327263 1_555
Co26 Co43 2.414749 1_565
Co26 Co44 2.421459 1_555
Co26 Co29 2.446044 1_555
Co26 Co28 2.446044 1_565
Co26 Co42 2.484764 1_555
Co26 Co27 2.502144 1_565
Co26 Co9 2.593361 1_565
Co26 Y3 3.015133 1_555
Co26 Nd2 3.201283 1_565
Co27 Co7 2.327263 1_555
Co27 Co42 2.414749 1_545
Co27 Co45 2.421459 1_555
Co27 Co29 2.446044 1_545
Co27 Co28 2.446044 1_555
Co27 Co43 2.484764 1_555
Co27 Co8 2.593361 1_545
Co27 Y2 3.015133 1_555
Co27 Nd3 3.201283 1_545
Co28 Co45 2.414749 1_555
Co28 Co43 2.421459 1_555
Co28 Co44 2.484764 1_545
Co28 Co29 2.502144 1_545
Co28 Co9 2.565610 1_555
Co28 Y1 3.015133 1_555
Co28 Nd1 3.201283 1_555
Co29 Co44 2.414749 1_555
Co29 Co42 2.421459 1_555
Co29 Co45 2.484764 1_565
Co29 Co8 2.565610 1_555
Co29 Y0 3.015133 1_555
Co29 Nd0 3.201283 1_555
Co30 Co47 2.414749 1_455
Co30 Co40 2.421459 1_555
Co30 Co46 2.484764 1_555
Co30 Co31 2.502144 1_455
Co30 Y2 3.015133 1_556
Co30 Nd2 3.201283 1_456
Co31 Co46 2.414749 1_655
Co31 Co41 2.421459 1_555
Co31 Co47 2.484764 1_555
Co31 Y3 3.015133 1_556
Co31 Nd3 3.201283 1_656
Co32 Co5 2.327263 1_555
Co32 Co49 2.414749 1_555
Co32 Co39 2.421459 1_555
Co32 Co48 2.484764 1_565
Co32 Co33 2.502144 1_565
Co32 Y0 3.015133 1_555
Co32 Nd0 3.201283 1_555
Co33 Co4 2.327263 1_555
Co33 Co48 2.414749 1_555
Co33 Co38 2.421459 1_555
Co33 Co49 2.484764 1_545
Co33 Y1 3.015133 1_555
Co33 Nd1 3.201283 1_555
Co34 Co6 2.327263 1_555
Co34 Co51 2.414749 1_655
Co34 Co36 2.421459 1_555
Co34 Co50 2.484764 1_555
Co34 Co35 2.502144 1_655
Co34 Co8 2.593361 1_655
Co34 Y3 3.015133 1_555
Co34 Nd3 3.201283 1_655
Co35 Co7 2.327263 1_555
Co35 Co50 2.414749 1_455
Co35 Co37 2.421459 1_555
Co35 Co51 2.484764 1_555
Co35 Co9 2.593361 1_455
Co35 Y2 3.015133 1_555
Co35 Nd2 3.201283 1_455
Co36 Co6 2.517213 1_555
Co36 Co8 2.693017 1_655
Co36 Y0 2.952195 1_655
Co36 Nd0 2.973924 1_555
Co37 Co7 2.517213 1_555
Co37 Co9 2.693017 1_455
Co37 Y1 2.952195 1_455
Co37 Nd1 2.973924 1_555
Co38 Co4 2.517213 1_555
Co38 Y2 2.952195 1_556
Co38 Nd2 2.973924 1_556
Co39 Co5 2.517213 1_555
Co39 Y3 2.952195 1_556
Co39 Nd3 2.973924 1_556
Co40 Y1 2.952195 1_455
Co40 Nd1 2.973924 1_555
Co41 Y0 2.952195 1_655
Co41 Nd0 2.973924 1_555
Co42 Co8 2.650449 1_555
Co42 Y3 2.952195 1_555
Co42 Nd3 2.973924 1_555
Co43 Co9 2.650449 1_555
Co43 Y2 2.952195 1_555
Co43 Nd2 2.973924 1_555
Co44 Co6 2.517213 1_555
Co44 Co9 2.693017 1_565
Co44 Y1 2.952195 1_565
Co44 Nd0 2.973924 1_555
Co45 Co7 2.517213 1_555
Co45 Co8 2.693017 1_545
Co45 Y0 2.952195 1_545
Co45 Nd1 2.973924 1_555
Co46 Co5 2.517213 1_555
Co46 Y2 2.952195 1_556
Co46 Nd3 2.973924 1_556
Co47 Y3 2.952195 1_556
Co47 Nd2 2.973924 1_556
Co48 Y0 2.952195 1_545
Co48 Nd1 2.973924 1_555
Co49 Y1 2.952195 1_565
Co49 Nd0 2.973924 1_555
Co50 Co9 2.650449 1_555
Co50 Y3 2.952195 1_555
Co50 Nd2 2.973924 1_555
Co51 Co8 2.650449 1_555
Co51 Y2 2.952195 1_555
Co51 Nd3 2.973924 1_555
Co52 Y2 3.046706 1_555
Co52 Y3 3.046706 1_555
Co53 Y1 3.046706 1_455
Co53 Y0 3.046706 1_545
Co54 Y2 3.046706 1_556
Co54 Y3 3.046706 1_556
Co55 Co7 2.430338 1_555
Co55 Co6 2.430338 1_445
Co55 Co8 2.690943 1_545
Co55 Co9 2.690943 1_455
Co55 Y1 3.046706 1_455
Co55 Y0 3.046706 1_545
B0 Co53 2.017222 1_665
B0 Co55 2.017222 1_665
B0 Co44 2.037063 1_555
B0 Co36 2.037063 1_555
B0 Co49 2.037063 1_555
B0 Co41 2.037063 1_555
B0 Nd0 2.849222 1_555
B0 Y1 3.111247 1_565
B0 Y0 3.111247 1_655
B1 Co55 2.017222 1_555
B1 Co53 2.017222 1_555
B1 Co37 2.037063 1_555
B1 Co45 2.037063 1_555
B1 Co48 2.037063 1_555
B1 Co40 2.037063 1_555
B1 Nd1 2.849222 1_555
B1 Y0 3.111247 1_545
B1 Y1 3.111247 1_455
B2 Co54 2.017222 1_554
B2 Co52 2.017222 1_555
B2 Co43 2.037063 1_555
B2 Co50 2.037063 1_555
B2 Co47 2.037063 1_554
B2 Co38 2.037063 1_554
B2 Nd2 2.849222 1_555
B2 Y2 3.111247 1_555
B2 Y3 3.111247 1_555
B3 Co54 2.017222 1_554
B3 Co52 2.017222 1_555
B3 Co51 2.037063 1_555
B3 Co42 2.037063 1_555
B3 Co46 2.037063 1_554
B3 Co39 2.037063 1_554
B3 Nd3 2.849222 1_555
B3 Y2 3.111247 1_555
B3 Y3 3.111247 1_555
