# generated using pymatgen
data_TbOs3
_symmetry_space_group_name_H-M   'P 1'
_cell_length_a   5.89616776
_cell_length_b   5.89616776
_cell_length_c   4.57957000
_cell_angle_alpha   90.00000000
_cell_angle_beta   90.00000000
_cell_angle_gamma   119.99999735
_symmetry_Int_Tables_number   1
_chemical_formula_structural   TbOs3
_chemical_formula_sum   'Tb2 Os6'
_cell_volume   137.87801077
_cell_formula_units_Z   2
loop_
 _symmetry_equiv_pos_site_id
 _symmetry_equiv_pos_as_xyz
  1  'x, y, z'
loop_
 _atom_site_type_symbol
 _atom_site_label
 _atom_site_symmetry_multiplicity
 _atom_site_fract_x
 _atom_site_fract_y
 _atom_site_fract_z
 _atom_site_occupancy
  Tb  Tb0  1  0.33333300  0.66666700  0.75000000  1
  Tb  Tb1  1  0.66666700  0.33333300  0.25000000  1
  Os  Os0  1  0.15534900  0.31069900  0.25000000  1
  Os  Os1  1  0.68930100  0.84465100  0.25000000  1
  Os  Os2  1  0.15534900  0.84465100  0.25000000  1
  Os  Os3  1  0.84465100  0.68930100  0.75000000  1
  Os  Os4  1  0.31069900  0.15534900  0.75000000  1
  Os  Os5  1  0.84465100  0.15534900  0.75000000  1
loop_
_geom_bond_atom_site_label_1
_geom_bond_atom_site_label_2
_geom_bond_distance
_geom_bond_site_symmetry_2
Os0 Os2 2.747897 1_545
Os0 Os1 2.747897 1_445
Os0 Os5 2.785693 1_455
Os0 Os5 2.785693 1_454
Os0 Os4 2.785699 1_554
Os0 Os4 2.785699 1_555
Os0 Tb0 2.923523 1_554
Os0 Tb0 2.923523 1_555
Os0 Tb1 2.950343 1_455
Os0 Tb1 2.950354 1_555
Os0 Os2 3.148271 1_555
Os0 Os1 3.148271 1_555
Os1 Os2 2.747897 1_655
Os1 Os5 2.785693 1_564
Os1 Os5 2.785693 1_565
Os1 Os3 2.785699 1_554
Os1 Os3 2.785699 1_555
Os1 Tb0 2.923523 1_554
Os1 Tb0 2.923523 1_555
Os1 Tb1 2.950343 1_565
Os1 Tb1 2.950354 1_555
Os1 Os2 3.148271 1_555
Os2 Os3 2.785693 1_454
Os2 Os4 2.785693 1_565
Os2 Os4 2.785693 1_564
Os2 Os3 2.785693 1_455
Os2 Tb0 2.923523 1_555
Os2 Tb0 2.923523 1_554
Os2 Tb1 2.950349 1_455
Os2 Tb1 2.950349 1_565
Os3 Os5 2.747897 1_565
Os3 Os4 2.747897 1_665
Os3 Tb1 2.923523 1_555
Os3 Tb1 2.923523 1_556
Os3 Tb0 2.950343 1_655
Os3 Tb0 2.950354 1_555
Os3 Os5 3.148271 1_555
Os3 Os4 3.148271 1_555
Os4 Os5 2.747897 1_455
Os4 Tb1 2.923523 1_555
Os4 Tb1 2.923523 1_556
Os4 Tb0 2.950343 1_545
Os4 Tb0 2.950354 1_555
Os4 Os5 3.148271 1_555
Os5 Tb1 2.923523 1_555
Os5 Tb1 2.923523 1_556
Os5 Tb0 2.950349 1_545
Os5 Tb0 2.950349 1_655
