# generated using pymatgen
data_K6Ta3O8F13
_symmetry_space_group_name_H-M   'P 1'
_cell_length_a   9.03202509
_cell_length_b   13.96920155
_cell_length_c   16.75753654
_cell_angle_alpha   90.00000000
_cell_angle_beta   90.00000000
_cell_angle_gamma   90.00000000
_symmetry_Int_Tables_number   1
_chemical_formula_structural   K6Ta3O8F13
_chemical_formula_sum   'K24 Ta12 O32 F52'
_cell_volume   2114.30138296
_cell_formula_units_Z   4
loop_
 _symmetry_equiv_pos_site_id
 _symmetry_equiv_pos_as_xyz
  1  'x, y, z'
loop_
 _atom_site_type_symbol
 _atom_site_label
 _atom_site_symmetry_multiplicity
 _atom_site_fract_x
 _atom_site_fract_y
 _atom_site_fract_z
 _atom_site_occupancy
  K  K0  1  0.00292414  0.63551676  0.55844642  1
  K  K1  1  0.49707586  0.86448324  0.05844642  1
  K  K2  1  0.50292414  0.36448324  0.44155358  1
  K  K3  1  0.99707586  0.13551676  0.94155358  1
  K  K4  1  0.99707586  0.36448324  0.44155358  1
  K  K5  1  0.50292414  0.13551676  0.94155358  1
  K  K6  1  0.49707586  0.63551676  0.55844642  1
  K  K7  1  0.00292414  0.86448324  0.05844642  1
  K  K8  1  0.25000000  0.70500171  0.76802696  1
  K  K9  1  0.25000000  0.79499829  0.26802696  1
  K  K10  1  0.75000000  0.29499829  0.23197304  1
  K  K11  1  0.75000000  0.20500171  0.73197304  1
  K  K12  1  0.25000000  0.14121096  0.52220535  1
  K  K13  1  0.25000000  0.35878904  0.02220535  1
  K  K14  1  0.75000000  0.85878904  0.47779465  1
  K  K15  1  0.75000000  0.64121096  0.97779465  1
  K  K16  1  0.99724641  0.43505251  0.81753446  1
  K  K17  1  0.50275359  0.06494749  0.31753446  1
  K  K18  1  0.49724641  0.56494749  0.18246554  1
  K  K19  1  0.00275359  0.93505251  0.68246554  1
  K  K20  1  0.00275359  0.56494749  0.18246554  1
  K  K21  1  0.49724641  0.93505251  0.68246554  1
  K  K22  1  0.50275359  0.43505251  0.81753446  1
  K  K23  1  0.99724641  0.06494749  0.31753446  1
  Ta  Ta0  1  0.25000000  0.85506561  0.49813962  1
  Ta  Ta1  1  0.25000000  0.64493439  0.99813962  1
  Ta  Ta2  1  0.75000000  0.14493439  0.50186038  1
  Ta  Ta3  1  0.75000000  0.35506561  0.00186038  1
  Ta  Ta4  1  0.25000000  0.43073966  0.61899995  1
  Ta  Ta5  1  0.25000000  0.06926034  0.11899995  1
  Ta  Ta6  1  0.75000000  0.56926034  0.38100005  1
  Ta  Ta7  1  0.75000000  0.93073966  0.88100005  1
  Ta  Ta8  1  0.25000000  0.21978517  0.76761905  1
  Ta  Ta9  1  0.25000000  0.28021483  0.26761905  1
  Ta  Ta10  1  0.75000000  0.78021483  0.23238095  1
  Ta  Ta11  1  0.75000000  0.71978517  0.73238095  1
  O  O0  1  0.66707292  0.05987536  0.58612115  1
  O  O1  1  0.83292708  0.44012464  0.08612115  1
  O  O2  1  0.16707292  0.94012464  0.41387885  1
  O  O3  1  0.33292708  0.55987536  0.91387885  1
  O  O4  1  0.33292708  0.94012464  0.41387885  1
  O  O5  1  0.16707292  0.55987536  0.91387885  1
  O  O6  1  0.83292708  0.05987536  0.58612115  1
  O  O7  1  0.66707292  0.44012464  0.08612115  1
  O  O8  1  0.66810963  0.02841787  0.80313882  1
  O  O9  1  0.83189037  0.47158213  0.30313882  1
  O  O10  1  0.16810963  0.97158213  0.19686118  1
  O  O11  1  0.33189037  0.52841787  0.69686118  1
  O  O12  1  0.33189037  0.97158213  0.19686118  1
  O  O13  1  0.16810963  0.52841787  0.69686118  1
  O  O14  1  0.83189037  0.02841787  0.80313882  1
  O  O15  1  0.66810963  0.47158213  0.30313882  1
  O  O16  1  0.16962928  0.12594730  0.68630099  1
  O  O17  1  0.33037072  0.37405270  0.18630099  1
  O  O18  1  0.66962928  0.87405270  0.31369901  1
  O  O19  1  0.83037072  0.62594730  0.81369901  1
  O  O20  1  0.83037072  0.87405270  0.31369901  1
  O  O21  1  0.66962928  0.62594730  0.81369901  1
  O  O22  1  0.33037072  0.12594730  0.68630099  1
  O  O23  1  0.16962928  0.37405270  0.18630099  1
  O  O24  1  0.25000000  0.32871220  0.69755022  1
  O  O25  1  0.25000000  0.17128780  0.19755022  1
  O  O26  1  0.75000000  0.67128780  0.30244978  1
  O  O27  1  0.75000000  0.82871220  0.80244978  1
  O  O28  1  0.25000000  0.59752885  0.28366353  1
  O  O29  1  0.25000000  0.90247115  0.78366353  1
  O  O30  1  0.75000000  0.40247115  0.71633647  1
  O  O31  1  0.75000000  0.09752885  0.21633647  1
  F  F0  1  0.25000000  0.73717210  0.09159983  1
  F  F1  1  0.25000000  0.76282790  0.59159983  1
  F  F2  1  0.75000000  0.26282790  0.90840017  1
  F  F3  1  0.75000000  0.23717210  0.40840017  1
  F  F4  1  0.25000000  0.95671132  0.58037865  1
  F  F5  1  0.25000000  0.54328868  0.08037865  1
  F  F6  1  0.75000000  0.04328868  0.41962135  1
  F  F7  1  0.75000000  0.45671132  0.91962135  1
  F  F8  1  0.25000000  0.75669220  0.93082517  1
  F  F9  1  0.25000000  0.74330780  0.43082517  1
  F  F10  1  0.75000000  0.24330780  0.06917483  1
  F  F11  1  0.75000000  0.25669220  0.56917483  1
  F  F12  1  0.53279450  0.34032694  0.98012928  1
  F  F13  1  0.96720550  0.15967306  0.48012928  1
  F  F14  1  0.03279450  0.65967306  0.01987072  1
  F  F15  1  0.46720550  0.84032694  0.51987072  1
  F  F16  1  0.46720550  0.65967306  0.01987072  1
  F  F17  1  0.03279450  0.84032694  0.51987072  1
  F  F18  1  0.96720550  0.34032694  0.98012928  1
  F  F19  1  0.53279450  0.15967306  0.48012928  1
  F  F20  1  0.25000000  0.33122127  0.53088692  1
  F  F21  1  0.25000000  0.16877873  0.03088692  1
  F  F22  1  0.75000000  0.66877873  0.46911308  1
  F  F23  1  0.75000000  0.83122127  0.96911308  1
  F  F24  1  0.25000000  0.52921491  0.53349697  1
  F  F25  1  0.25000000  0.97078509  0.03349697  1
  F  F26  1  0.75000000  0.47078509  0.46650303  1
  F  F27  1  0.75000000  0.02921491  0.96650303  1
  F  F28  1  0.03517913  0.41996341  0.59617086  1
  F  F29  1  0.46482087  0.08003659  0.09617086  1
  F  F30  1  0.53517913  0.58003659  0.40382914  1
  F  F31  1  0.96482087  0.91996341  0.90382914  1
  F  F32  1  0.96482087  0.58003659  0.40382914  1
  F  F33  1  0.53517913  0.91996341  0.90382914  1
  F  F34  1  0.46482087  0.41996341  0.59617086  1
  F  F35  1  0.03517913  0.08003659  0.09617086  1
  F  F36  1  0.25000000  0.12048301  0.85109576  1
  F  F37  1  0.25000000  0.37951699  0.35109576  1
  F  F38  1  0.75000000  0.87951699  0.14890424  1
  F  F39  1  0.75000000  0.62048301  0.64890424  1
  F  F40  1  0.25000000  0.31380515  0.86015026  1
  F  F41  1  0.25000000  0.18619485  0.36015026  1
  F  F42  1  0.75000000  0.68619485  0.13984974  1
  F  F43  1  0.75000000  0.81380515  0.63984974  1
  F  F44  1  0.03149107  0.23483421  0.78765541  1
  F  F45  1  0.46850893  0.26516579  0.28765541  1
  F  F46  1  0.53149107  0.76516579  0.21234459  1
  F  F47  1  0.96850893  0.73483421  0.71234459  1
  F  F48  1  0.96850893  0.76516579  0.21234459  1
  F  F49  1  0.53149107  0.73483421  0.71234459  1
  F  F50  1  0.46850893  0.23483421  0.78765541  1
  F  F51  1  0.03149107  0.26516579  0.28765541  1
loop_
_geom_bond_atom_site_label_1
_geom_bond_atom_site_label_2
_geom_bond_distance
_geom_bond_site_symmetry_2
K0 O13 3.137555 1_555
K1 O12 3.137555 1_555
K2 O15 3.137555 1_555
K3 O14 3.137555 1_555
K4 O9 3.137555 1_555
K5 O8 3.137555 1_555
K6 O11 3.137555 1_555
K7 O10 3.137555 1_555
K8 O29 2.770908 1_555
K8 O11 2.837966 1_555
K8 O13 2.837966 1_555
K8 O3 3.262615 1_555
K8 O5 3.262615 1_555
K9 O28 2.770908 1_555
K9 O10 2.837966 1_555
K9 O12 2.837966 1_555
K9 O4 3.262615 1_555
K9 O2 3.262615 1_555
K10 O31 2.770908 1_555
K10 O9 2.837966 1_555
K10 O15 2.837966 1_555
K10 O1 3.262615 1_555
K10 O7 3.262615 1_555
K11 O30 2.770908 1_555
K11 O8 2.837966 1_555
K11 O14 2.837966 1_555
K11 O6 3.262615 1_555
K11 O0 3.262615 1_555
K12 O22 2.852021 1_555
K12 O16 2.852021 1_555
K13 O17 2.852021 1_555
K13 O23 2.852021 1_555
K14 O20 2.852021 1_555
K14 O18 2.852021 1_555
K15 O19 2.852021 1_555
K15 O21 2.852021 1_555
K16 O5 2.828388 1_655
K16 O30 2.840753 1_555
K16 O13 2.858649 1_655
K16 O19 3.063800 1_555
K17 O4 2.828388 1_545
K17 O31 2.840753 1_555
K17 O12 2.858649 1_545
K17 O18 3.063800 1_545
K18 O7 2.828388 1_555
K18 O28 2.840753 1_555
K18 O15 2.858649 1_555
K18 O17 3.063800 1_555
K19 O6 2.828388 1_465
K19 O29 2.840753 1_555
K19 O14 2.858649 1_465
K19 O16 3.063800 1_565
K20 O1 2.828388 1_455
K20 O28 2.840753 1_555
K20 O9 2.858649 1_455
K20 O23 3.063800 1_555
K21 O0 2.828388 1_565
K21 O29 2.840753 1_555
K21 O8 2.858649 1_565
K21 O22 3.063800 1_565
K22 O3 2.828388 1_555
K22 O30 2.840753 1_555
K22 O11 2.858649 1_555
K22 O21 3.063800 1_555
K23 O2 2.828388 1_645
K23 O31 2.840753 1_555
K23 O10 2.858649 1_645
K23 O20 3.063800 1_545
O0 O6 1.497999 1_555
O0 Ta2 1.991629 1_555
O1 O7 1.497999 1_555
O1 Ta3 1.991629 1_555
O2 O4 1.497999 1_555
O2 Ta0 1.991629 1_555
O3 O5 1.497999 1_555
O3 Ta1 1.991629 1_555
O4 Ta0 1.991629 1_555
O5 Ta1 1.991629 1_555
O6 Ta2 1.991629 1_555
O7 Ta3 1.991629 1_555
O8 Ta7 2.027632 1_545
O9 Ta6 2.027632 1_555
O10 O12 1.479272 1_555
O10 Ta5 2.027632 1_565
O11 O13 1.479272 1_555
O11 Ta4 2.027632 1_555
O12 Ta5 2.027632 1_565
O13 Ta4 2.027632 1_555
O14 O8 1.479272 1_555
O14 Ta7 2.027632 1_545
O15 O9 1.479272 1_555
O15 Ta6 2.027632 1_555
O16 O22 1.451821 1_555
O16 Ta8 2.025382 1_555
O17 O23 1.451821 1_555
O17 Ta9 2.025382 1_555
O18 O20 1.451821 1_555
O18 Ta10 2.025382 1_555
O19 O21 1.451821 1_555
O19 Ta11 2.025382 1_555
O20 Ta10 2.025382 1_555
O21 Ta11 2.025382 1_555
O22 Ta8 2.025382 1_555
O23 Ta9 2.025382 1_555
O24 Ta8 1.921988 1_555
O24 Ta4 1.940099 1_555
O25 Ta9 1.921988 1_555
O25 Ta5 1.940099 1_555
O26 Ta10 1.921988 1_555
O26 Ta6 1.940099 1_555
O27 Ta11 1.921988 1_555
O27 Ta7 1.940099 1_555
F0 Ta1 2.028069 1_554
F0 K7 2.907147 1_555
F0 K1 2.907147 1_555
F0 K9 3.064852 1_555
F1 Ta0 2.028069 1_555
F1 K6 2.907147 1_555
F1 K0 2.907147 1_555
F1 K8 3.064852 1_555
F2 Ta3 2.028069 1_556
F2 K5 2.907147 1_555
F2 K3 2.907147 1_555
F2 K11 3.064852 1_555
F3 Ta2 2.028069 1_555
F3 K4 2.907147 1_555
F3 K2 2.907147 1_555
F3 K10 3.064852 1_555
F4 Ta0 1.978729 1_555
F4 K12 2.755514 1_565
F4 K19 2.829314 1_555
F4 K21 2.829314 1_555
F5 Ta1 1.978729 1_554
F5 K13 2.755514 1_555
F5 K20 2.829314 1_555
F5 K18 2.829314 1_555
F6 Ta2 1.978729 1_555
F6 K14 2.755514 1_545
F6 K17 2.829314 1_555
F6 K23 2.829314 1_555
F7 Ta3 1.978729 1_556
F7 K15 2.755514 1_555
F7 K22 2.829314 1_555
F7 K16 2.829314 1_555
F8 Ta1 1.926054 1_555
F8 K8 2.822039 1_555
F9 Ta0 1.926054 1_555
F9 K9 2.822039 1_555
F10 Ta3 1.926054 1_555
F10 K10 2.822039 1_555
F11 Ta2 1.926054 1_555
F11 K11 2.822039 1_555
F12 Ta3 2.005912 1_556
F12 K13 2.662262 1_556
F12 K5 2.945536 1_555
F12 K22 3.041137 1_555
F13 Ta2 2.005912 1_555
F13 K12 2.662262 1_655
F13 K4 2.945536 1_555
F13 K23 3.041137 1_555
F14 Ta1 2.005912 1_554
F14 K15 2.662262 1_454
F14 K7 2.945536 1_555
F14 K20 3.041137 1_555
F15 Ta0 2.005912 1_555
F15 K14 2.662262 1_555
F15 K6 2.945536 1_555
F15 K21 3.041137 1_555
F16 Ta1 2.005912 1_554
F16 K15 2.662262 1_554
F16 K1 2.945536 1_555
F16 K18 3.041137 1_555
F17 Ta0 2.005912 1_555
F17 K14 2.662262 1_455
F17 K0 2.945536 1_555
F17 K19 3.041137 1_555
F18 Ta3 2.005912 1_556
F18 K13 2.662262 1_656
F18 K3 2.945536 1_555
F18 K16 3.041137 1_555
F19 Ta2 2.005912 1_555
F19 K12 2.662262 1_555
F19 K2 2.945536 1_555
F19 K17 3.041137 1_555
F20 Ta4 2.028018 1_555
F20 K12 2.658276 1_555
F20 K4 2.770466 1_455
F20 K2 2.770466 1_555
F21 Ta5 2.028018 1_555
F21 K13 2.658276 1_555
F21 K5 2.770466 1_554
F21 K3 2.770466 1_454
F22 Ta6 2.028018 1_555
F22 K14 2.658276 1_555
F22 K0 2.770466 1_655
F22 K6 2.770466 1_555
F23 Ta7 2.028018 1_555
F23 K15 2.658276 1_555
F23 K7 2.770466 1_656
F23 K1 2.770466 1_556
F24 Ta4 1.986279 1_555
F24 K6 2.712914 1_555
F24 K0 2.712914 1_555
F25 Ta5 1.986279 1_565
F25 K7 2.712914 1_555
F25 K1 2.712914 1_555
F26 Ta6 1.986279 1_555
F26 K4 2.712914 1_555
F26 K2 2.712914 1_555
F27 Ta7 1.986279 1_545
F27 K5 2.712914 1_555
F27 K3 2.712914 1_555
F28 Ta4 1.983343 1_555
F28 K4 2.726241 1_455
F28 K0 3.090515 1_555
F29 Ta5 1.983343 1_555
F29 K5 2.726241 1_554
F29 K1 3.090515 1_545
F30 Ta6 1.983343 1_555
F30 K6 2.726241 1_555
F30 K2 3.090515 1_555
F31 Ta7 1.983343 1_555
F31 K7 2.726241 1_656
F31 K3 3.090515 1_565
F32 Ta6 1.983343 1_555
F32 K0 2.726241 1_655
F32 K4 3.090515 1_555
F33 Ta7 1.983343 1_555
F33 K1 2.726241 1_556
F33 K5 3.090515 1_565
F34 Ta4 1.983343 1_555
F34 K2 2.726241 1_555
F34 K6 3.090515 1_555
F35 Ta5 1.983343 1_555
F35 K3 2.726241 1_454
F35 K7 3.090515 1_545
F36 Ta8 1.970042 1_555
F36 K3 2.749630 1_455
F36 K5 2.749630 1_555
F37 Ta9 1.970042 1_555
F37 K4 2.749630 1_455
F37 K2 2.749630 1_555
F38 Ta10 1.970042 1_555
F38 K7 2.749630 1_655
F38 K1 2.749630 1_555
F39 Ta11 1.970042 1_555
F39 K0 2.749630 1_655
F39 K6 2.749630 1_555
F40 Ta8 2.032074 1_555
F40 K13 2.787399 1_556
F40 K16 2.930910 1_455
F40 K22 2.930910 1_555
F41 Ta9 2.032074 1_555
F41 K12 2.787399 1_555
F41 K17 2.930910 1_555
F41 K23 2.930910 1_455
F42 Ta10 2.032074 1_555
F42 K15 2.787399 1_554
F42 K20 2.930910 1_655
F42 K18 2.930910 1_555
F43 Ta11 2.032074 1_555
F43 K14 2.787399 1_555
F43 K19 2.930910 1_655
F43 K21 2.930910 1_555
F44 Ta8 2.012943 1_555
F44 K11 2.740131 1_455
F44 K16 2.858139 1_455
F44 K3 2.944905 1_455
F45 Ta9 2.012943 1_555
F45 K10 2.740131 1_555
F45 K17 2.858139 1_555
F45 K2 2.944905 1_555
F46 Ta10 2.012943 1_555
F46 K9 2.740131 1_555
F46 K18 2.858139 1_555
F46 K1 2.944905 1_555
F47 Ta11 2.012943 1_555
F47 K8 2.740131 1_655
F47 K19 2.858139 1_655
F47 K0 2.944905 1_655
F48 Ta10 2.012943 1_555
F48 K9 2.740131 1_655
F48 K20 2.858139 1_655
F48 K7 2.944905 1_655
F49 Ta11 2.012943 1_555
F49 K8 2.740131 1_555
F49 K21 2.858139 1_555
F49 K6 2.944905 1_555
F50 Ta8 2.012943 1_555
F50 K11 2.740131 1_555
F50 K22 2.858139 1_555
F50 K5 2.944905 1_555
F51 Ta9 2.012943 1_555
F51 K10 2.740131 1_455
F51 K23 2.858139 1_455
F51 K4 2.944905 1_455
