# generated using pymatgen
data_Ho2HfS5
_symmetry_space_group_name_H-M   'P 1'
_cell_length_a   7.21924739
_cell_length_b   7.68646244
_cell_length_c   11.48895259
_cell_angle_alpha   90.00000000
_cell_angle_beta   90.00000000
_cell_angle_gamma   90.00000000
_symmetry_Int_Tables_number   1
_chemical_formula_structural   Ho2HfS5
_chemical_formula_sum   'Ho8 Hf4 S20'
_cell_volume   637.52742393
_cell_formula_units_Z   4
loop_
 _symmetry_equiv_pos_site_id
 _symmetry_equiv_pos_as_xyz
  1  'x, y, z'
loop_
 _atom_site_type_symbol
 _atom_site_label
 _atom_site_symmetry_multiplicity
 _atom_site_fract_x
 _atom_site_fract_y
 _atom_site_fract_z
 _atom_site_occupancy
  Ho  Ho0  1  0.52096123  0.49723328  0.32096355  1
  Ho  Ho1  1  0.97903877  0.00276672  0.82096355  1
  Ho  Ho2  1  0.47903877  0.99723328  0.67903645  1
  Ho  Ho3  1  0.02096123  0.50276672  0.17903645  1
  Ho  Ho4  1  0.47903877  0.50276672  0.67903645  1
  Ho  Ho5  1  0.02096123  0.99723328  0.17903645  1
  Ho  Ho6  1  0.52096123  0.00276672  0.32096355  1
  Ho  Ho7  1  0.97903877  0.49723328  0.82096355  1
  Hf  Hf0  1  0.07547381  0.75000000  0.49474199  1
  Hf  Hf1  1  0.42452619  0.75000000  0.99474199  1
  Hf  Hf2  1  0.92452619  0.25000000  0.50525801  1
  Hf  Hf3  1  0.57547381  0.25000000  0.00525801  1
  S  S0  1  0.83950816  0.96413859  0.59395216  1
  S  S1  1  0.66049184  0.53586141  0.09395216  1
  S  S2  1  0.16049184  0.46413859  0.40604784  1
  S  S3  1  0.33950816  0.03586141  0.90604784  1
  S  S4  1  0.16049184  0.03586141  0.40604784  1
  S  S5  1  0.33950816  0.46413859  0.90604784  1
  S  S6  1  0.83950816  0.53586141  0.59395216  1
  S  S7  1  0.66049184  0.96413859  0.09395216  1
  S  S8  1  0.83264304  0.75000000  0.31892255  1
  S  S9  1  0.66735696  0.75000000  0.81892255  1
  S  S10  1  0.16735696  0.25000000  0.68107745  1
  S  S11  1  0.33264304  0.25000000  0.18107745  1
  S  S12  1  0.44753369  0.75000000  0.49676396  1
  S  S13  1  0.05246631  0.75000000  0.99676396  1
  S  S14  1  0.55246631  0.25000000  0.50323604  1
  S  S15  1  0.94753369  0.25000000  0.00323604  1
  S  S16  1  0.18970130  0.75000000  0.70721175  1
  S  S17  1  0.31029870  0.75000000  0.20721175  1
  S  S18  1  0.81029870  0.25000000  0.29278825  1
  S  S19  1  0.68970130  0.25000000  0.79278825  1
loop_
_geom_bond_atom_site_label_1
_geom_bond_atom_site_label_2
_geom_bond_distance
_geom_bond_site_symmetry_2
Ho0 S2 2.791475 1_555
Ho0 S17 2.792070 1_555
Ho0 S1 2.811606 1_555
Ho0 S11 2.835935 1_555
Ho0 S14 2.836970 1_555
Ho0 S18 2.842392 1_555
Ho0 S12 2.852232 1_555
Ho0 S8 2.972932 1_555
Ho1 S3 2.791475 1_655
Ho1 S16 2.792070 1_645
Ho1 S0 2.811606 1_545
Ho1 S10 2.835935 1_655
Ho1 S15 2.836970 1_556
Ho1 S19 2.842392 1_555
Ho1 S13 2.852232 1_645
Ho1 S9 2.972932 1_545
Ho2 S0 2.791475 1_555
Ho2 S19 2.792070 1_565
Ho2 S3 2.811606 1_565
Ho2 S9 2.835935 1_555
Ho2 S12 2.836970 1_555
Ho2 S16 2.842392 1_555
Ho2 S14 2.852232 1_565
Ho2 S10 2.972932 1_565
Ho3 S1 2.791475 1_455
Ho3 S18 2.792070 1_455
Ho3 S2 2.811606 1_555
Ho3 S8 2.835935 1_455
Ho3 S13 2.836970 1_554
Ho3 S17 2.842392 1_555
Ho3 S15 2.852232 1_455
Ho3 S11 2.972932 1_555
Ho4 S6 2.791475 1_555
Ho4 S19 2.792070 1_555
Ho4 S5 2.811606 1_555
Ho4 S9 2.835935 1_555
Ho4 S12 2.836970 1_555
Ho4 S16 2.842392 1_555
Ho4 S14 2.852232 1_555
Ho4 S10 2.972932 1_555
Ho5 S7 2.791475 1_455
Ho5 S18 2.792070 1_465
Ho5 S4 2.811606 1_565
Ho5 S8 2.835935 1_455
Ho5 S13 2.836970 1_554
Ho5 S17 2.842392 1_555
Ho5 S15 2.852232 1_465
Ho5 S11 2.972932 1_565
Ho6 S4 2.791475 1_555
Ho6 S17 2.792070 1_545
Ho6 S7 2.811606 1_545
Ho6 S11 2.835935 1_555
Ho6 S14 2.836970 1_555
Ho6 S18 2.842392 1_555
Ho6 S12 2.852232 1_545
Ho6 S8 2.972932 1_545
Ho7 S5 2.791475 1_655
Ho7 S16 2.792070 1_655
Ho7 S6 2.811606 1_555
Ho7 S10 2.835935 1_655
Ho7 S15 2.836970 1_556
Ho7 S19 2.842392 1_555
Ho7 S13 2.852232 1_655
Ho7 S9 2.972932 1_555
Hf0 S2 2.498608 1_555
Hf0 S4 2.498608 1_565
Hf0 S16 2.576582 1_555
Hf0 S0 2.628744 1_455
Hf0 S6 2.628744 1_455
Hf0 S8 2.674608 1_455
Hf0 S12 2.686093 1_555
Hf1 S5 2.498608 1_555
Hf1 S3 2.498608 1_565
Hf1 S17 2.576582 1_556
Hf1 S7 2.628744 1_556
Hf1 S1 2.628744 1_556
Hf1 S9 2.674608 1_555
Hf1 S13 2.686093 1_555
Hf2 S0 2.498608 1_545
Hf2 S6 2.498608 1_555
Hf2 S18 2.576582 1_555
Hf2 S2 2.628744 1_655
Hf2 S4 2.628744 1_655
Hf2 S10 2.674608 1_655
Hf2 S14 2.686093 1_555
Hf3 S1 2.498608 1_555
Hf3 S7 2.498608 1_545
Hf3 S19 2.576582 1_554
Hf3 S3 2.628744 1_554
Hf3 S5 2.628744 1_554
Hf3 S11 2.674608 1_555
Hf3 S15 2.686093 1_555
