# generated using pymatgen
data_Cs3As
_symmetry_space_group_name_H-M   'P 1'
_cell_length_a   8.58354878
_cell_length_b   8.58354878
_cell_length_c   5.85569488
_cell_angle_alpha   90.00000000
_cell_angle_beta   90.00000000
_cell_angle_gamma   120.00000079
_symmetry_Int_Tables_number   1
_chemical_formula_structural   Cs3As
_chemical_formula_sum   'Cs6 As2'
_cell_volume   373.63093497
_cell_formula_units_Z   2
loop_
 _symmetry_equiv_pos_site_id
 _symmetry_equiv_pos_as_xyz
  1  'x, y, z'
loop_
 _atom_site_type_symbol
 _atom_site_label
 _atom_site_symmetry_multiplicity
 _atom_site_fract_x
 _atom_site_fract_y
 _atom_site_fract_z
 _atom_site_occupancy
  Cs  Cs0  1  0.18520089  0.37040177  0.25000000  1
  Cs  Cs1  1  0.62959823  0.81479911  0.25000000  1
  Cs  Cs2  1  0.18520089  0.81479911  0.25000000  1
  Cs  Cs3  1  0.81479911  0.62959823  0.75000000  1
  Cs  Cs4  1  0.37040177  0.18520089  0.75000000  1
  Cs  Cs5  1  0.81479911  0.18520089  0.75000000  1
  As  As0  1  0.33333300  0.66666700  0.75000000  1
  As  As1  1  0.66666700  0.33333300  0.25000000  1
loop_
_geom_bond_atom_site_label_1
_geom_bond_atom_site_label_2
_geom_bond_distance
_geom_bond_site_symmetry_2
As0 Cs2 3.663662 1_556
As0 Cs2 3.663662 1_555
As0 Cs1 3.663667 1_555
As0 Cs1 3.663667 1_556
As0 Cs0 3.663667 1_555
As0 Cs0 3.663667 1_556
As1 Cs5 3.663662 1_554
As1 Cs5 3.663662 1_555
As1 Cs4 3.663667 1_555
As1 Cs3 3.663667 1_554
As1 Cs4 3.663667 1_554
As1 Cs3 3.663667 1_555
