# generated using pymatgen
data_Mg3Si2O9
_symmetry_space_group_name_H-M   'P 1'
_cell_length_a   5.40968663
_cell_length_b   5.40968663
_cell_length_c   14.93771561
_cell_angle_alpha   88.46146111
_cell_angle_beta   88.46146111
_cell_angle_gamma   119.88655601
_symmetry_Int_Tables_number   1
_chemical_formula_structural   Mg3Si2O9
_chemical_formula_sum   'Mg6 Si4 O18'
_cell_volume   378.46824622
_cell_formula_units_Z   2
loop_
 _symmetry_equiv_pos_site_id
 _symmetry_equiv_pos_as_xyz
  1  'x, y, z'
loop_
 _atom_site_type_symbol
 _atom_site_label
 _atom_site_symmetry_multiplicity
 _atom_site_fract_x
 _atom_site_fract_y
 _atom_site_fract_z
 _atom_site_occupancy
  Mg  Mg0  1  0.10518700  0.70422900  0.26945300  1
  Mg  Mg1  1  0.70422900  0.10518700  0.76945300  1
  Mg  Mg2  1  0.74766200  0.99150300  0.27018600  1
  Mg  Mg3  1  0.99150300  0.74766200  0.77018600  1
  Mg  Mg4  1  0.39247700  0.34756900  0.27107500  1
  Mg  Mg5  1  0.34756900  0.39247700  0.77107500  1
  Si  Si0  1  0.38621400  0.65577600  0.46101900  1
  Si  Si1  1  0.65577600  0.38621400  0.96101900  1
  Si  Si2  1  0.05319100  0.98899900  0.46070000  1
  Si  Si3  1  0.98899900  0.05319100  0.96070000  1
  O  O0  1  0.21931000  0.82243400  0.49639800  1
  O  O1  1  0.82243400  0.21931000  0.99639800  1
  O  O2  1  0.71473900  0.81279500  0.49572100  1
  O  O3  1  0.81279500  0.71473900  0.99572100  1
  O  O4  1  0.21008700  0.31760700  0.49595400  1
  O  O5  1  0.31760700  0.21008700  0.99595400  1
  O  O6  1  0.40338900  0.67121600  0.35012000  1
  O  O7  1  0.67121600  0.40338900  0.85012000  1
  O  O8  1  0.06959700  0.00371200  0.34978400  1
  O  O9  1  0.00371200  0.06959700  0.84978400  1
  O  O10  1  0.06517000  0.35565700  0.20949500  1
  O  O11  1  0.35565700  0.06517000  0.70949500  1
  O  O12  1  0.44953000  0.04972100  0.20959500  1
  O  O13  1  0.04972100  0.44953000  0.70959500  1
  O  O14  1  0.74243600  0.34049700  0.32219900  1
  O  O15  1  0.34049700  0.74243600  0.82219900  1
  O  O16  1  0.75709300  0.66348400  0.20965200  1
  O  O17  1  0.66348400  0.75709300  0.70965200  1
loop_
_geom_bond_atom_site_label_1
_geom_bond_atom_site_label_2
_geom_bond_distance
_geom_bond_site_symmetry_2
Mg0 O16 2.019852 1_455
Mg0 O10 2.024612 1_555
Mg0 O12 2.028263 1_565
Mg0 O14 2.080649 1_455
Mg0 O6 2.113328 1_555
Mg0 O8 2.122397 1_565
Mg1 O17 2.019852 1_545
Mg1 O11 2.024612 1_555
Mg1 O13 2.028263 1_655
Mg1 O15 2.080649 1_545
Mg1 O7 2.113328 1_555
Mg1 O9 2.122397 1_655
Mg2 O12 2.022072 1_565
Mg2 O10 2.025167 1_665
Mg2 O16 2.035421 1_555
Mg2 O14 2.073545 1_565
Mg2 O6 2.109507 1_555
Mg2 O8 2.109965 1_665
Mg3 O13 2.022072 1_655
Mg3 O11 2.025167 1_665
Mg3 O17 2.035421 1_555
Mg3 O15 2.073545 1_655
Mg3 O7 2.109507 1_555
Mg3 O9 2.109965 1_665
Mg4 O12 2.023528 1_555
Mg4 O16 2.027897 1_555
Mg4 O10 2.036098 1_555
Mg4 O14 2.077739 1_555
Mg4 O8 2.104223 1_555
Mg4 O6 2.115376 1_555
Mg5 O13 2.023528 1_555
Mg5 O17 2.027897 1_555
Mg5 O11 2.036098 1_555
Mg5 O15 2.077739 1_555
Mg5 O9 2.104223 1_555
Mg5 O7 2.115376 1_555
O0 Si2 1.646432 1_555
O0 Si0 1.648798 1_555
O1 Si3 1.646432 1_555
O1 Si1 1.648798 1_555
O2 Si2 1.648354 1_655
O2 Si0 1.648457 1_555
O3 Si3 1.648354 1_565
O3 Si1 1.648457 1_555
O4 Si0 1.646752 1_555
O4 Si2 1.651802 1_545
O5 Si1 1.646752 1_555
O5 Si3 1.651802 1_455
O6 Si0 1.654216 1_555
O7 Si1 1.654216 1_555
O8 Si2 1.654474 1_545
O9 Si3 1.654474 1_455
