# generated using pymatgen
data_Ca3Ti2(Si2O7)2
_symmetry_space_group_name_H-M   'P 1'
_cell_length_a   9.47992986
_cell_length_b   9.47992986
_cell_length_c   10.10585859
_cell_angle_alpha   59.66022802
_cell_angle_beta   59.66022802
_cell_angle_gamma   48.36527291
_symmetry_Int_Tables_number   1
_chemical_formula_structural   Ca3Ti2(Si2O7)2
_chemical_formula_sum   'Ca6 Ti4 Si8 O28'
_cell_volume   565.22904901
_cell_formula_units_Z   2
loop_
 _symmetry_equiv_pos_site_id
 _symmetry_equiv_pos_as_xyz
  1  'x, y, z'
loop_
 _atom_site_type_symbol
 _atom_site_label
 _atom_site_symmetry_multiplicity
 _atom_site_fract_x
 _atom_site_fract_y
 _atom_site_fract_z
 _atom_site_occupancy
  Ca  Ca0  1  0.23643800  0.16368900  0.53560700  1
  Ca  Ca1  1  0.83631100  0.76356200  0.96439300  1
  Ca  Ca2  1  0.16368900  0.23643800  0.03560700  1
  Ca  Ca3  1  0.64981300  0.35018700  0.25000000  1
  Ca  Ca4  1  0.76356200  0.83631100  0.46439300  1
  Ca  Ca5  1  0.35018700  0.64981300  0.75000000  1
  Ti  Ti0  1  0.19728500  0.80271500  0.25000000  1
  Ti  Ti1  1  0.80271500  0.19728500  0.75000000  1
  Ti  Ti2  1  0.00000000  0.00000000  0.00000000  1
  Ti  Ti3  1  0.00000000  0.00000000  0.50000000  1
  Si  Si0  1  0.11262200  0.53305300  0.65540800  1
  Si  Si1  1  0.53305300  0.11262200  0.15540800  1
  Si  Si2  1  0.21762700  0.52982500  0.14555300  1
  Si  Si3  1  0.52982500  0.21762700  0.64555300  1
  Si  Si4  1  0.46694700  0.88737800  0.84459200  1
  Si  Si5  1  0.78237300  0.47017500  0.85444700  1
  Si  Si6  1  0.47017500  0.78237300  0.35444700  1
  Si  Si7  1  0.88737800  0.46694700  0.34459200  1
  O  O0  1  0.29190300  0.87734000  0.50256000  1
  O  O1  1  0.89609400  0.95549400  0.72930300  1
  O  O2  1  0.64689800  0.45985600  0.81230200  1
  O  O3  1  0.95549400  0.89609400  0.22930300  1
  O  O4  1  0.93189300  0.27021400  0.49283900  1
  O  O5  1  0.50465300  0.05194800  0.81493700  1
  O  O6  1  0.45985600  0.64689800  0.31230200  1
  O  O7  1  0.72978600  0.06810700  0.00716100  1
  O  O8  1  0.49534700  0.94805200  0.18506300  1
  O  O9  1  0.67493400  0.65916900  0.40865000  1
  O  O10  1  0.10390600  0.04450600  0.27069700  1
  O  O11  1  0.06810700  0.72978600  0.50716100  1
  O  O12  1  0.94805200  0.49534700  0.68506300  1
  O  O13  1  0.87734000  0.29190300  0.00256000  1
  O  O14  1  0.65916900  0.67493400  0.90865000  1
  O  O15  1  0.27021400  0.93189300  0.99283900  1
  O  O16  1  0.47038700  0.89519000  0.67989200  1
  O  O17  1  0.32506600  0.34083100  0.59135000  1
  O  O18  1  0.10481000  0.52961300  0.82010800  1
  O  O19  1  0.34083100  0.32506600  0.09135000  1
  O  O20  1  0.05194800  0.50465300  0.31493700  1
  O  O21  1  0.04450600  0.10390600  0.77069700  1
  O  O22  1  0.89519000  0.47038700  0.17989200  1
  O  O23  1  0.35310200  0.54014400  0.18769800  1
  O  O24  1  0.52961300  0.10481000  0.32010800  1
  O  O25  1  0.54014400  0.35310200  0.68769800  1
  O  O26  1  0.12266000  0.70809700  0.99744000  1
  O  O27  1  0.70809700  0.12266000  0.49744000  1
loop_
_geom_bond_atom_site_label_1
_geom_bond_atom_site_label_2
_geom_bond_distance
_geom_bond_site_symmetry_2
Ca0 O21 2.217883 1_555
Ca0 O16 2.353756 1_545
Ca0 O24 2.414688 1_555
Ca0 O4 2.547040 1_455
Ca0 O0 2.568809 1_545
Ca0 O17 2.674306 1_555
Ca0 O20 2.761569 1_555
Ca0 O12 2.974083 1_455
Ca1 O1 2.217883 1_555
Ca1 O18 2.353756 1_655
Ca1 O22 2.414688 1_556
Ca1 O7 2.547040 1_566
Ca1 O26 2.568809 1_655
Ca1 O14 2.674306 1_555
Ca1 O8 2.761569 1_556
Ca1 O5 2.974083 1_565
Ca2 O10 2.217883 1_555
Ca2 O22 2.353756 1_455
Ca2 O18 2.414688 1_554
Ca2 O15 2.547040 1_544
Ca2 O13 2.568809 1_455
Ca2 O19 2.674306 1_555
Ca2 O5 2.761569 1_554
Ca2 O8 2.974083 1_545
Ca3 O23 2.337586 1_555
Ca3 O6 2.337586 1_555
Ca3 O13 2.360922 1_555
Ca3 O27 2.360922 1_555
Ca3 O24 2.872780 1_555
Ca3 O22 2.872780 1_555
Ca4 O3 2.217883 1_555
Ca4 O24 2.353756 1_565
Ca4 O16 2.414688 1_555
Ca4 O11 2.547040 1_655
Ca4 O27 2.568809 1_565
Ca4 O9 2.674306 1_555
Ca4 O12 2.761569 1_555
Ca4 O20 2.974083 1_655
Ca5 O2 2.337586 1_555
Ca5 O25 2.337586 1_555
Ca5 O26 2.360922 1_555
Ca5 O0 2.360922 1_555
Ca5 O18 2.872780 1_555
Ca5 O16 2.872780 1_555
O0 Si6 1.640486 1_555
O0 Ti3 2.185549 1_565
O1 Ti1 1.918987 1_565
O1 Ti3 1.943366 1_665
O2 Si5 1.613075 1_555
O2 Ti1 2.128931 1_555
O3 Ti0 1.918987 1_655
O3 Ti2 1.943366 1_665
O4 Si7 1.634331 1_555
O4 Ti3 2.155512 1_655
O4 Ti1 2.196866 1_555
O5 Si4 1.676892 1_545
O5 Si3 1.680237 1_555
O6 Si6 1.613075 1_555
O6 Ti0 2.128931 1_555
O7 Si1 1.634331 1_555
O7 Ti2 2.155512 1_655
O7 Ti1 2.196866 1_554
O8 Si1 1.676892 1_565
O8 Si6 1.680237 1_555
O9 Si7 1.671485 1_555
O9 Si6 1.687432 1_555
O10 Ti0 1.918987 1_545
O10 Ti3 1.943366 1_555
O11 Si0 1.634331 1_555
O11 Ti3 2.155512 1_565
O11 Ti0 2.196866 1_555
O12 Si0 1.676892 1_655
O12 Si5 1.680237 1_555
O13 Si5 1.640486 1_554
O13 Ti2 2.185549 1_655
O14 Si4 1.671485 1_555
O14 Si5 1.687432 1_555
O15 Si4 1.634331 1_555
O15 Ti2 2.155512 1_566
O15 Ti0 2.196866 1_556
O16 Si4 1.612680 1_555
O17 Si0 1.671485 1_555
O17 Si3 1.687432 1_555
O18 Si0 1.612680 1_555
O19 Si1 1.671485 1_555
O19 Si2 1.687432 1_555
O20 Si7 1.676892 1_455
O20 Si2 1.680237 1_555
O21 Ti1 1.918987 1_455
O21 Ti2 1.943366 1_556
O22 Si7 1.612680 1_555
O23 Si2 1.613075 1_555
O23 Ti0 2.128931 1_555
O24 Si1 1.612680 1_555
O25 Si3 1.613075 1_555
O25 Ti1 2.128931 1_555
O26 Si2 1.640486 1_556
O26 Ti2 2.185549 1_566
O27 Si3 1.640486 1_555
O27 Ti3 2.185549 1_655
