# generated using pymatgen
data_YZnPd
_symmetry_space_group_name_H-M   'P 1'
_cell_length_a   3.87192070
_cell_length_b   7.24457746
_cell_length_c   7.24453928
_cell_angle_alpha   120.00017300
_cell_angle_beta   90.00000000
_cell_angle_gamma   90.00000000
_symmetry_Int_Tables_number   1
_chemical_formula_structural   YZnPd
_chemical_formula_sum   'Y3 Zn3 Pd3'
_cell_volume   175.98682693
_cell_formula_units_Z   3
loop_
 _symmetry_equiv_pos_site_id
 _symmetry_equiv_pos_as_xyz
  1  'x, y, z'
loop_
 _atom_site_type_symbol
 _atom_site_label
 _atom_site_symmetry_multiplicity
 _atom_site_fract_x
 _atom_site_fract_y
 _atom_site_fract_z
 _atom_site_occupancy
  Y  Y0  1  -0.00000000  0.40431894  0.00000000  1
  Y  Y1  1  -0.00000000  0.59570190  0.59568443  1
  Y  Y2  1  -0.00000000  0.00001647  0.40431557  1
  Zn  Zn0  1  0.50000000  0.75001609  0.00000000  1
  Zn  Zn1  1  0.50000000  0.25000528  0.24998186  1
  Zn  Zn2  1  0.50000000  0.00002442  0.75001814  1
  Pd  Pd0  1  -0.00000000  1.00000201  -0.00000000  1
  Pd  Pd1  1  0.50000000  0.66667311  0.33332933  1
  Pd  Pd2  1  0.50000000  0.33334278  0.66667067  1
loop_
_geom_bond_atom_site_label_1
_geom_bond_atom_site_label_2
_geom_bond_distance
_geom_bond_site_symmetry_2
Y0 Zn0 3.165456 1_555
Y0 Zn0 3.165456 1_455
Y0 Zn2 3.209677 1_554
Y0 Zn2 3.209677 1_454
Y0 Zn1 3.209682 1_455
Y0 Zn1 3.209682 1_555
Y1 Zn1 3.165460 1_555
Y1 Zn1 3.165460 1_455
Y1 Zn0 3.209780 1_556
Y1 Zn0 3.209780 1_456
Y1 Zn2 3.209814 1_465
Y1 Zn2 3.209814 1_565
Y2 Zn2 3.165454 1_555
Y2 Zn2 3.165454 1_455
Y2 Zn0 3.209779 1_445
Y2 Zn0 3.209779 1_545
Y2 Zn1 3.209814 1_455
Y2 Zn1 3.209814 1_555
Pd0 Zn0 2.651003 1_455
Pd0 Zn0 2.651003 1_555
Pd0 Zn1 2.651029 1_465
Pd0 Zn1 2.651029 1_565
Pd0 Zn2 2.651032 1_564
Pd0 Zn2 2.651032 1_464
Pd0 Y1 2.929024 1_554
Pd0 Y2 2.929028 1_565
Pd0 Y0 2.929105 1_565
Pd1 Zn1 2.766543 1_555
Pd1 Zn0 2.766575 1_555
Pd1 Zn2 2.766699 1_565
Pd1 Y1 2.932912 1_555
Pd1 Y1 2.932912 1_655
Pd1 Y0 2.932917 1_555
Pd1 Y0 2.932917 1_655
Pd1 Y2 2.932983 1_565
Pd1 Y2 2.932983 1_665
Pd2 Zn2 2.766529 1_555
Pd2 Zn0 2.766580 1_556
Pd2 Zn1 2.766699 1_555
Pd2 Y2 2.932912 1_555
Pd2 Y2 2.932912 1_655
Pd2 Y0 2.932915 1_656
Pd2 Y0 2.932915 1_556
Pd2 Y1 2.932994 1_555
Pd2 Y1 2.932994 1_655
