# generated using pymatgen
data_Li2TiV2O6
_symmetry_space_group_name_H-M   'P 1'
_cell_length_a   2.97782505
_cell_length_b   13.16509881
_cell_length_c   6.03242679
_cell_angle_alpha   76.89550784
_cell_angle_beta   89.99929109
_cell_angle_gamma   89.99760824
_symmetry_Int_Tables_number   1
_chemical_formula_structural   Li2TiV2O6
_chemical_formula_sum   'Li4 Ti2 V4 O12'
_cell_volume   230.33274203
_cell_formula_units_Z   2
loop_
 _symmetry_equiv_pos_site_id
 _symmetry_equiv_pos_as_xyz
  1  'x, y, z'
loop_
 _atom_site_type_symbol
 _atom_site_label
 _atom_site_symmetry_multiplicity
 _atom_site_fract_x
 _atom_site_fract_y
 _atom_site_fract_z
 _atom_site_occupancy
  Li  Li0  1  0.49991400  0.17540400  0.67890300  1
  Li  Li1  1  0.99992600  0.67102000  0.17765500  1
  Li  Li2  1  0.50004800  0.49587200  0.98930500  1
  Li  Li3  1  0.00004000  0.99117100  0.48744700  1
  Ti  Ti0  1  0.99996900  0.33695400  0.32850700  1
  Ti  Ti1  1  0.49996200  0.82988200  0.83773600  1
  V  V0  1  0.99996900  0.99427200  0.01366100  1
  V  V1  1  0.50000800  0.17243600  0.15278400  1
  V  V2  1  0.50000800  0.49494900  0.51906100  1
  V  V3  1  0.00004700  0.67163900  0.64796300  1
  O  O0  1  0.99997900  0.49018500  0.27615200  1
  O  O1  1  0.49994100  0.98737500  0.77850500  1
  O  O2  1  0.00003300  0.17932500  0.38746400  1
  O  O3  1  0.50008100  0.67647900  0.89076500  1
  O  O4  1  0.50000900  0.33600500  0.11725000  1
  O  O5  1  0.99999400  0.83115500  0.61874000  1
  O  O6  1  0.50004700  0.33536900  0.54803200  1
  O  O7  1  0.00001900  0.83094800  0.04929000  1
  O  O8  1  0.99996200  0.15624000  0.93798000  1
  O  O9  1  0.50000100  0.65443000  0.43123400  1
  O  O10  1  0.49999500  0.01002300  0.22924100  1
  O  O11  1  0.00004400  0.51220200  0.73565600  1
loop_
_geom_bond_atom_site_label_1
_geom_bond_atom_site_label_2
_geom_bond_distance
_geom_bond_site_symmetry_2
Li0 O6 2.074705 1_555
Li0 O8 2.131620 1_455
Li0 O8 2.131832 1_555
Li0 O2 2.295264 1_555
Li0 O2 2.295698 1_655
Li0 O1 2.411281 1_545
Li1 O7 2.072032 1_655
Li1 O9 2.110057 1_555
Li1 O9 2.110386 1_655
Li1 O3 2.271438 1_554
Li1 O3 2.272019 1_654
Li1 O0 2.319351 1_555
Li2 O4 2.070922 1_556
Li2 O11 2.110714 1_655
Li2 O11 2.110745 1_555
Li2 O0 2.270989 1_556
Li2 O0 2.271234 1_456
Li2 O3 2.316450 1_555
Li3 O5 2.075712 1_455
Li3 O10 2.128117 1_565
Li3 O10 2.128317 1_465
Li3 O1 2.293804 1_555
Li3 O1 2.294161 1_455
Li3 O2 2.412916 1_565
O0 Ti0 1.969859 1_555
O0 V2 2.099844 1_555
O0 V2 2.099996 1_655
O1 Ti1 2.022563 1_555
O1 V0 2.072563 1_456
O1 V0 2.072713 1_556
O2 Ti0 2.024420 1_455
O2 V1 2.070556 1_555
O2 V1 2.070693 1_455
O3 Ti1 1.971807 1_555
O3 V3 2.099567 1_655
O3 V3 2.099740 1_555
O4 Ti0 1.961634 1_555
O4 Ti0 1.961790 1_455
O4 V1 2.115130 1_555
O5 Ti1 1.987991 1_655
O5 Ti1 1.988111 1_555
O5 V3 2.067218 1_655
O6 Ti0 1.989401 1_555
O6 Ti0 1.989771 1_455
O6 V2 2.068278 1_555
O7 Ti1 1.962975 1_554
O7 Ti1 1.963257 1_454
O7 V0 2.111847 1_455
O8 V1 2.016482 1_556
O8 V1 2.016721 1_656
O8 V0 2.076970 1_546
O9 V3 2.027639 1_555
O9 V3 2.027878 1_655
O9 V2 2.045613 1_555
O10 V0 2.018183 1_545
O10 V0 2.018334 1_445
O10 V1 2.082634 1_555
O11 V2 2.027269 1_555
O11 V2 2.027464 1_455
O11 V3 2.045031 1_555
