# generated using pymatgen
data_Ni(PtO2)3
_symmetry_space_group_name_H-M   'P 1'
_cell_length_a   3.20363400
_cell_length_b   7.19779500
_cell_length_c   9.98409800
_cell_angle_alpha   90.00000000
_cell_angle_beta   90.00000000
_cell_angle_gamma   90.00000000
_symmetry_Int_Tables_number   1
_chemical_formula_structural   Ni(PtO2)3
_chemical_formula_sum   'Ni2 Pt6 O12'
_cell_volume   230.22432205
_cell_formula_units_Z   2
loop_
 _symmetry_equiv_pos_site_id
 _symmetry_equiv_pos_as_xyz
  1  'x, y, z'
loop_
 _atom_site_type_symbol
 _atom_site_label
 _atom_site_symmetry_multiplicity
 _atom_site_fract_x
 _atom_site_fract_y
 _atom_site_fract_z
 _atom_site_occupancy
  Ni  Ni0  1  0.00000000  0.00000000  0.00000000  1
  Ni  Ni1  1  0.00000000  0.50000000  0.50000000  1
  Pt  Pt0  1  0.00000000  0.00000000  0.50000000  1
  Pt  Pt1  1  0.00000000  0.50000000  0.00000000  1
  Pt  Pt2  1  0.50000000  0.24415200  0.24634900  1
  Pt  Pt3  1  0.50000000  0.75584800  0.75365100  1
  Pt  Pt4  1  0.50000000  0.25584800  0.74634900  1
  Pt  Pt5  1  0.50000000  0.74415200  0.25365100  1
  O  O0  1  0.50000000  0.99328500  0.14585900  1
  O  O1  1  0.50000000  0.00671500  0.85414100  1
  O  O2  1  0.50000000  0.50671500  0.64585900  1
  O  O3  1  0.50000000  0.49328500  0.35414100  1
  O  O4  1  0.00000000  0.20447400  0.36814600  1
  O  O5  1  0.00000000  0.79552600  0.63185400  1
  O  O6  1  0.00000000  0.29552600  0.86814600  1
  O  O7  1  0.00000000  0.70447400  0.13185400  1
  O  O8  1  0.00000000  0.28243800  0.12184800  1
  O  O9  1  0.00000000  0.71756200  0.87815200  1
  O  O10  1  0.00000000  0.21756200  0.62184800  1
  O  O11  1  0.00000000  0.78243800  0.37815200  1
loop_
_geom_bond_atom_site_label_1
_geom_bond_atom_site_label_2
_geom_bond_distance
_geom_bond_site_symmetry_2
Ni0 O0 2.165382 1_445
Ni0 O0 2.165382 1_545
Ni0 O1 2.165382 1_454
Ni0 O1 2.165382 1_554
Ni0 O8 2.369131 1_555
Ni0 O9 2.369131 1_544
Ni0 O6 2.501545 1_554
Ni0 O7 2.501545 1_545
Ni1 O2 2.165382 1_455
Ni1 O2 2.165382 1_555
Ni1 O3 2.165382 1_455
Ni1 O3 2.165382 1_555
Ni1 O11 2.369131 1_555
Ni1 O10 2.369131 1_555
Ni1 O5 2.501545 1_555
Ni1 O4 2.501545 1_555
O0 Pt2 2.065703 1_565
O0 Pt5 2.091367 1_555
O1 Pt3 2.065703 1_545
O1 Pt4 2.091367 1_555
O2 Pt4 2.065703 1_555
O2 Pt3 2.091367 1_555
O3 Pt5 2.065703 1_555
O3 Pt2 2.091367 1_555
O4 Pt0 1.974615 1_555
O4 Pt2 2.031285 1_455
O4 Pt2 2.031285 1_555
O5 Pt0 1.974615 1_565
O5 Pt3 2.031285 1_555
O5 Pt3 2.031285 1_455
O6 Pt1 1.974615 1_556
O6 Pt4 2.031285 1_555
O6 Pt4 2.031285 1_455
O7 Pt1 1.974615 1_555
O7 Pt5 2.031285 1_455
O7 Pt5 2.031285 1_555
O8 Pt1 1.982984 1_555
O8 Pt2 2.046187 1_455
O8 Pt2 2.046187 1_555
O9 Pt1 1.982984 1_556
O9 Pt3 2.046187 1_555
O9 Pt3 2.046187 1_455
O10 Pt0 1.982984 1_555
O10 Pt4 2.046187 1_455
O10 Pt4 2.046187 1_555
O11 Pt0 1.982984 1_565
O11 Pt5 2.046187 1_455
O11 Pt5 2.046187 1_555
