# generated using pymatgen
data_PrAs2Au
_symmetry_space_group_name_H-M   'P 1'
_cell_length_a   4.14128794
_cell_length_b   4.14128794
_cell_length_c   20.93322900
_cell_angle_alpha   90.00000000
_cell_angle_beta   90.00000000
_cell_angle_gamma   90.05081292
_symmetry_Int_Tables_number   1
_chemical_formula_structural   PrAs2Au
_chemical_formula_sum   'Pr4 As8 Au4'
_cell_volume   359.01030092
_cell_formula_units_Z   4
loop_
 _symmetry_equiv_pos_site_id
 _symmetry_equiv_pos_as_xyz
  1  'x, y, z'
loop_
 _atom_site_type_symbol
 _atom_site_label
 _atom_site_symmetry_multiplicity
 _atom_site_fract_x
 _atom_site_fract_y
 _atom_site_fract_z
 _atom_site_occupancy
  Pr  Pr0  1  0.76427400  0.76427400  0.61807300  1
  Pr  Pr1  1  0.23572600  0.23572600  0.38192700  1
  Pr  Pr2  1  0.26427400  0.26427400  0.88192700  1
  Pr  Pr3  1  0.73572600  0.73572600  0.11807300  1
  As  As0  1  0.22011600  0.77988400  0.00000000  1
  As  As1  1  0.27988400  0.72011600  0.50000000  1
  As  As2  1  0.77988400  0.22011600  0.00000000  1
  As  As3  1  0.72011600  0.27988400  0.50000000  1
  As  As4  1  0.26424800  0.26424800  0.65966300  1
  As  As5  1  0.73575200  0.73575200  0.34033700  1
  As  As6  1  0.76424800  0.76424800  0.84033700  1
  As  As7  1  0.23575200  0.23575200  0.15966300  1
  Au  Au0  1  0.23059200  0.73059200  0.25000000  1
  Au  Au1  1  0.26940800  0.76940800  0.75000000  1
  Au  Au2  1  0.76940800  0.26940800  0.75000000  1
  Au  Au3  1  0.73059200  0.23059200  0.25000000  1
loop_
_geom_bond_atom_site_label_1
_geom_bond_atom_site_label_2
_geom_bond_distance
_geom_bond_site_symmetry_2
As0 As2 2.579435 1_465
As0 As2 2.947909 1_565
As0 As2 2.947909 1_455
As0 Pr2 3.188396 1_564
As0 Pr3 3.188396 1_455
As0 Pr2 3.271490 1_554
As0 Pr3 3.271490 1_555
As1 As3 2.579435 1_555
As1 As3 2.947909 1_455
As1 As3 2.947909 1_565
As1 Pr1 3.188396 1_555
As1 Pr0 3.188396 1_555
As1 Pr0 3.271490 1_455
As1 Pr1 3.271490 1_565
As2 Pr2 3.188396 1_654
As2 Pr3 3.188396 1_545
As2 Pr2 3.271490 1_554
As2 Pr3 3.271490 1_555
As3 Pr1 3.188396 1_555
As3 Pr0 3.188396 1_555
As3 Pr0 3.271490 1_545
As3 Pr1 3.271490 1_655
As4 Au1 2.788568 1_545
As4 Au2 2.788568 1_455
As4 Au1 2.820097 1_555
As4 Au2 2.820097 1_555
As4 Pr0 3.053621 1_445
As4 Pr0 3.053913 1_555
As4 Pr0 3.056257 1_545
As4 Pr0 3.056257 1_455
As5 Au3 2.788568 1_565
As5 Au0 2.788568 1_655
As5 Au3 2.820097 1_555
As5 Au0 2.820097 1_555
As5 Pr1 3.053621 1_665
As5 Pr1 3.053913 1_555
As5 Pr1 3.056257 1_655
As5 Pr1 3.056257 1_565
As6 Au1 2.788568 1_555
As6 Au2 2.788568 1_555
As6 Au1 2.820097 1_655
As6 Au2 2.820097 1_565
As6 Pr2 3.053621 1_555
As6 Pr2 3.053913 1_665
As6 Pr2 3.056257 1_565
As6 Pr2 3.056257 1_655
As7 Au3 2.788568 1_555
As7 Au0 2.788568 1_555
As7 Au3 2.820097 1_455
As7 Au0 2.820097 1_545
As7 Pr3 3.053621 1_555
As7 Pr3 3.053913 1_445
As7 Pr3 3.056257 1_455
As7 Pr3 3.056257 1_545
Au0 Au3 2.927034 1_565
Au0 Au3 2.927034 1_455
Au0 Au3 2.929631 1_465
Au0 Au3 2.929631 1_555
Au0 Pr3 3.439077 1_455
Au0 Pr1 3.439077 1_555
Au0 Pr3 3.464563 1_555
Au0 Pr1 3.464563 1_565
Au1 Au2 2.927034 1_565
Au1 Au2 2.927034 1_455
Au1 Au2 2.929631 1_465
Au1 Au2 2.929631 1_555
Au1 Pr0 3.439077 1_555
Au1 Pr2 3.439077 1_565
Au1 Pr0 3.464563 1_455
Au1 Pr2 3.464563 1_555
Au2 Pr0 3.439077 1_555
Au2 Pr2 3.439077 1_655
Au2 Pr2 3.464563 1_555
Au2 Pr0 3.464563 1_545
Au3 Pr3 3.439077 1_545
Au3 Pr1 3.439077 1_555
Au3 Pr3 3.464563 1_555
Au3 Pr1 3.464563 1_655
