# generated using pymatgen
data_LaInO3
_symmetry_space_group_name_H-M   'P 1'
_cell_length_a   5.73615203
_cell_length_b   5.95376221
_cell_length_c   8.25417615
_cell_angle_alpha   90.00000000
_cell_angle_beta   90.00000000
_cell_angle_gamma   90.00000000
_symmetry_Int_Tables_number   1
_chemical_formula_structural   LaInO3
_chemical_formula_sum   'La4 In4 O12'
_cell_volume   281.89402535
_cell_formula_units_Z   4
loop_
 _symmetry_equiv_pos_site_id
 _symmetry_equiv_pos_as_xyz
  1  'x, y, z'
loop_
 _atom_site_type_symbol
 _atom_site_label
 _atom_site_symmetry_multiplicity
 _atom_site_fract_x
 _atom_site_fract_y
 _atom_site_fract_z
 _atom_site_occupancy
  La  La0  1  0.01594269  0.94612898  0.25000000  1
  La  La1  1  0.51594269  0.55387102  0.75000000  1
  La  La2  1  0.48405731  0.44612898  0.25000000  1
  La  La3  1  0.98405731  0.05387102  0.75000000  1
  In  In0  1  0.50000000  -0.00000000  0.00000000  1
  In  In1  1  0.00000000  0.50000000  0.00000000  1
  In  In2  1  0.00000000  0.50000000  0.50000000  1
  In  In3  1  0.50000000  -0.00000000  0.50000000  1
  O  O0  1  0.61469064  0.04589567  0.25000000  1
  O  O1  1  0.11469064  0.45410433  0.75000000  1
  O  O2  1  0.88530936  0.54589567  0.25000000  1
  O  O3  1  0.38530936  0.95410433  0.75000000  1
  O  O4  1  0.19603499  0.19846147  0.06070934  1
  O  O5  1  0.69603499  0.30153853  0.93929066  1
  O  O6  1  0.30396501  0.69846147  0.43929066  1
  O  O7  1  0.80396501  0.80153853  0.56070934  1
  O  O8  1  0.80396501  0.80153853  0.93929066  1
  O  O9  1  0.30396501  0.69846147  0.06070934  1
  O  O10  1  0.69603499  0.30153853  0.56070934  1
  O  O11  1  0.19603499  0.19846147  0.43929066  1
loop_
_geom_bond_atom_site_label_1
_geom_bond_atom_site_label_2
_geom_bond_distance
_geom_bond_site_symmetry_2
La0 O0 2.377053 1_465
La0 O4 2.401118 1_565
La0 O11 2.401118 1_565
La0 O2 2.497936 1_455
La0 O9 2.710182 1_555
La0 O6 2.710182 1_555
La0 O8 2.965974 1_454
La0 O7 2.965974 1_455
La1 O1 2.377053 1_555
La1 O10 2.401118 1_555
La1 O5 2.401118 1_555
La1 O3 2.497936 1_555
La1 O7 2.710182 1_555
La1 O8 2.710182 1_555
La1 O6 2.965974 1_555
La1 O9 2.965974 1_556
La2 O2 2.377053 1_555
La2 O9 2.401118 1_555
La2 O6 2.401118 1_555
La2 O0 2.497936 1_555
La2 O4 2.710182 1_555
La2 O11 2.710182 1_555
La2 O5 2.965974 1_554
La2 O10 2.965974 1_555
La3 O3 2.377053 1_645
La3 O7 2.401118 1_545
La3 O8 2.401118 1_545
La3 O1 2.497936 1_655
La3 O10 2.710182 1_555
La3 O5 2.710182 1_555
La3 O4 2.965974 1_656
La3 O11 2.965974 1_655
In0 O8 2.165034 1_544
In0 O4 2.165034 1_555
In0 O9 2.176841 1_545
In0 O5 2.176841 1_554
In0 O0 2.183046 1_555
In0 O3 2.183046 1_544
In1 O9 2.165034 1_555
In1 O5 2.165034 1_454
In1 O8 2.176841 1_454
In1 O4 2.176841 1_555
In1 O1 2.183046 1_554
In1 O2 2.183046 1_455
In2 O6 2.165034 1_555
In2 O10 2.165034 1_455
In2 O11 2.176841 1_555
In2 O7 2.176841 1_455
In2 O1 2.183046 1_555
In2 O2 2.183046 1_455
In3 O11 2.165034 1_555
In3 O7 2.165034 1_545
In3 O6 2.176841 1_545
In3 O10 2.176841 1_555
In3 O0 2.183046 1_555
In3 O3 2.183046 1_545
