# generated using pymatgen
data_TaSe3
_symmetry_space_group_name_H-M   'P 1'
_cell_length_a   3.50723085
_cell_length_b   10.30078784
_cell_length_c   15.83428558
_cell_angle_alpha   108.85822620
_cell_angle_beta   90.00000000
_cell_angle_gamma   90.00000000
_symmetry_Int_Tables_number   1
_chemical_formula_structural   TaSe3
_chemical_formula_sum   'Ta6 Se18'
_cell_volume   541.34218425
_cell_formula_units_Z   6
loop_
 _symmetry_equiv_pos_site_id
 _symmetry_equiv_pos_as_xyz
  1  'x, y, z'
loop_
 _atom_site_type_symbol
 _atom_site_label
 _atom_site_symmetry_multiplicity
 _atom_site_fract_x
 _atom_site_fract_y
 _atom_site_fract_z
 _atom_site_occupancy
  Ta  Ta0  1  0.25000000  0.53290577  0.88396320  1
  Ta  Ta1  1  0.75000000  0.46709423  0.11603680  1
  Ta  Ta2  1  0.75000000  0.11539533  0.79285265  1
  Ta  Ta3  1  0.25000000  0.88460467  0.20714735  1
  Ta  Ta4  1  0.25000000  0.83935736  0.53985362  1
  Ta  Ta5  1  0.75000000  0.16064264  0.46014638  1
  Se  Se0  1  0.75000000  0.37938476  0.93288383  1
  Se  Se1  1  0.25000000  0.62061524  0.06711617  1
  Se  Se2  1  0.75000000  0.73839591  0.91793656  1
  Se  Se3  1  0.25000000  0.26160409  0.08206344  1
  Se  Se4  1  0.75000000  0.56164565  0.76679793  1
  Se  Se5  1  0.25000000  0.43835435  0.23320207  1
  Se  Se6  1  0.25000000  0.08745731  0.90985955  1
  Se  Se7  1  0.75000000  0.91254269  0.09014045  1
  Se  Se8  1  0.25000000  0.91506375  0.72235005  1
  Se  Se9  1  0.75000000  0.08493625  0.27764995  1
  Se  Se10  1  0.25000000  0.27815491  0.75255809  1
  Se  Se11  1  0.75000000  0.72184509  0.24744191  1
  Se  Se12  1  0.75000000  0.66983046  0.57492074  1
  Se  Se13  1  0.25000000  0.33016954  0.42507926  1
  Se  Se14  1  0.75000000  0.03918085  0.59219491  1
  Se  Se15  1  0.25000000  0.96081915  0.40780509  1
  Se  Se16  1  0.75000000  0.67916659  0.42678784  1
  Se  Se17  1  0.25000000  0.32083341  0.57321216  1
loop_
_geom_bond_atom_site_label_1
_geom_bond_atom_site_label_2
_geom_bond_distance
_geom_bond_site_symmetry_2
Se0 Ta0 2.639676 1_555
Se0 Ta0 2.639676 1_655
Se0 Ta1 2.744632 1_556
Se0 Ta2 2.900550 1_555
Se1 Ta1 2.639676 1_555
Se1 Ta1 2.639676 1_455
Se1 Ta0 2.744632 1_554
Se1 Ta3 2.900550 1_555
Se2 Se4 2.495073 1_555
Se2 Ta0 2.666255 1_555
Se2 Ta0 2.666255 1_655
Se2 Se7 2.736951 1_556
Se3 Se5 2.495073 1_555
Se3 Ta1 2.666255 1_555
Se3 Ta1 2.666255 1_455
Se3 Se6 2.736951 1_554
Se4 Ta0 2.638130 1_555
Se4 Ta0 2.638130 1_655
Se5 Ta1 2.638130 1_555
Se5 Ta1 2.638130 1_455
Se6 Ta2 2.633484 1_555
Se6 Ta2 2.633484 1_455
Se7 Ta3 2.633484 1_655
Se7 Ta3 2.633484 1_555
Se8 Ta2 2.662804 1_565
Se8 Ta2 2.662804 1_465
Se8 Ta4 2.738929 1_555
Se9 Ta3 2.662804 1_645
Se9 Ta3 2.662804 1_545
Se9 Ta5 2.738929 1_555
Se10 Ta2 2.642839 1_555
Se10 Ta2 2.642839 1_455
Se10 Ta0 2.772317 1_555
Se11 Ta3 2.642839 1_655
Se11 Ta3 2.642839 1_555
Se11 Ta1 2.772317 1_555
Se12 Se16 2.378405 1_555
Se12 Ta4 2.657016 1_655
Se12 Ta4 2.657016 1_555
Se13 Se17 2.378405 1_555
Se13 Ta5 2.657016 1_555
Se13 Ta5 2.657016 1_455
Se14 Ta4 2.626026 1_645
Se14 Ta4 2.626026 1_545
Se14 Ta5 2.761949 1_555
Se14 Ta2 3.016436 1_555
Se15 Ta5 2.626026 1_565
Se15 Ta5 2.626026 1_465
Se15 Ta4 2.761949 1_555
Se15 Ta3 3.016436 1_555
Se16 Ta4 2.663353 1_555
Se16 Ta4 2.663353 1_655
Se17 Ta5 2.663353 1_555
Se17 Ta5 2.663353 1_455
