# generated using pymatgen
data_Ti3O5
_symmetry_space_group_name_H-M   'P 1'
_cell_length_a   10.88372126
_cell_length_b   10.69576579
_cell_length_c   11.48672999
_cell_angle_alpha   91.20515089
_cell_angle_beta   87.58171174
_cell_angle_gamma   89.67453869
_symmetry_Int_Tables_number   1
_chemical_formula_structural   Ti3O5
_chemical_formula_sum   'Ti39 O65'
_cell_volume   1335.65191912
_cell_formula_units_Z   13
loop_
 _symmetry_equiv_pos_site_id
 _symmetry_equiv_pos_as_xyz
  1  'x, y, z'
loop_
 _atom_site_type_symbol
 _atom_site_label
 _atom_site_symmetry_multiplicity
 _atom_site_fract_x
 _atom_site_fract_y
 _atom_site_fract_z
 _atom_site_occupancy
  Ti  Ti0  1  0.56027633  0.40268928  0.32202933  1
  Ti  Ti1  1  0.34556655  0.57713763  0.44323561  1
  Ti  Ti2  1  0.75295946  0.88819804  0.07516854  1
  Ti  Ti3  1  0.67314217  0.36154571  0.82414833  1
  Ti  Ti4  1  0.02031393  0.60700044  0.14295762  1
  Ti  Ti5  1  0.20983367  0.93794911  0.79056829  1
  Ti  Ti6  1  0.52343468  0.38397566  0.03956420  1
  Ti  Ti7  1  0.74175157  0.23732791  0.05289851  1
  Ti  Ti8  1  0.66487026  0.91335839  0.75197259  1
  Ti  Ti9  1  0.18383857  0.33001372  0.78211655  1
  Ti  Ti10  1  0.88755526  0.55823265  0.40502186  1
  Ti  Ti11  1  0.98612601  0.15764907  0.72451428  1
  Ti  Ti12  1  0.39430064  0.72363752  0.66085804  1
  Ti  Ti13  1  0.88039247  0.99817622  0.90013424  1
  Ti  Ti14  1  0.92473951  0.86852555  0.34081021  1
  Ti  Ti15  1  0.89958980  0.50342381  0.69009759  1
  Ti  Ti16  1  0.42754695  0.99650119  0.42415380  1
  Ti  Ti17  1  0.41946325  0.44007215  0.77755291  1
  Ti  Ti18  1  0.71497258  0.38953451  0.51576491  1
  Ti  Ti19  1  0.15240493  0.76985068  0.46050237  1
  Ti  Ti20  1  0.89485165  0.96722115  0.59242781  1
  Ti  Ti21  1  0.55685239  0.72514369  0.26895562  1
  Ti  Ti22  1  0.05560636  0.87384296  0.11795617  1
  Ti  Ti23  1  0.25355990  0.26078322  0.53326738  1
  Ti  Ti24  1  0.73063036  0.09024276  0.31988690  1
  Ti  Ti25  1  0.97466138  0.71520786  0.87907027  1
  Ti  Ti26  1  0.05070014  0.19410665  0.05116864  1
  Ti  Ti27  1  0.94863333  0.40099382  0.91684103  1
  Ti  Ti28  1  0.36688611  0.07390896  0.94979872  1
  Ti  Ti29  1  0.66307552  0.71048513  0.54445376  1
  Ti  Ti30  1  0.13354132  0.36521151  0.33094664  1
  Ti  Ti31  1  0.43761032  0.15980778  0.70018486  1
  Ti  Ti32  1  0.32070596  0.85977956  0.08122484  1
  Ti  Ti33  1  0.28480864  0.61069414  0.17702466  1
  Ti  Ti34  1  0.17470190  0.00247850  0.33705786  1
  Ti  Ti35  1  0.46978110  0.13668368  0.18879387  1
  Ti  Ti36  1  0.97088422  0.12850231  0.41911189  1
  Ti  Ti37  1  0.81198414  0.35617275  0.25100435  1
  Ti  Ti38  1  0.25944572  0.31547569  0.04945071  1
  O  O0  1  0.91001792  0.15614872  0.57622128  1
  O  O1  1  0.30503123  0.90053055  0.92181341  1
  O  O2  1  0.03649256  0.94221668  0.46990404  1
  O  O3  1  0.11263916  0.33544947  0.95258825  1
  O  O4  1  0.65114981  0.76683592  0.14004097  1
  O  O5  1  0.58366171  0.05982776  0.40254880  1
  O  O6  1  0.55961382  0.78164496  0.68992051  1
  O  O7  1  0.26222725  0.90886527  0.44629356  1
  O  O8  1  0.37762502  0.12776517  0.54686291  1
  O  O9  1  0.26584152  0.41499302  0.43920166  1
  O  O10  1  0.24773876  0.67034472  0.56386956  1
  O  O11  1  0.77198709  0.06241641  0.02100123  1
  O  O12  1  0.90723458  0.30177230  0.09710727  1
  O  O13  1  0.31264936  0.87922672  0.67792470  1
  O  O14  1  0.70268369  0.87963184  0.89851569  1
  O  O15  1  0.95214633  0.75471289  0.20774039  1
  O  O16  1  0.45305268  0.28627553  0.28651555  1
  O  O17  1  0.55885619  0.43052917  0.48964528  1
  O  O18  1  0.25155108  0.67467808  0.34158072  1
  O  O19  1  0.14584844  0.27202839  0.18400976  1
  O  O20  1  0.93101099  0.19959343  0.88304655  1
  O  O21  1  0.32540336  0.35437343  0.65896142  1
  O  O22  1  0.69186521  0.71078205  0.38562735  1
  O  O23  1  0.48257900  0.65552780  0.52829776  1
  O  O24  1  0.53922446  0.03645315  0.74845394  1
  O  O25  1  0.89293372  0.19209768  0.29224660  1
  O  O26  1  0.88512516  0.65985855  0.75545139  1
  O  O27  1  0.01725093  0.01800895  0.02126381  1
  O  O28  1  0.44391597  0.99009284  0.08430364  1
  O  O29  1  0.99395038  0.41790728  0.42148043  1
  O  O30  1  0.65424536  0.38642687  0.16166403  1
  O  O31  1  0.61321093  0.24679979  0.94017324  1
  O  O32  1  0.13282211  0.51110682  0.22691816  1
  O  O33  1  0.11209574  0.78794635  0.83249787  1
  O  O34  1  0.42093112  0.23201644  0.05799788  1
  O  O35  1  0.22162344  0.13441724  0.01136348  1
  O  O36  1  0.77822459  0.39309590  0.94937268  1
  O  O37  1  0.04167365  0.99471647  0.73792516  1
  O  O38  1  0.35923627  0.46842580  0.10005496  1
  O  O39  1  0.70595472  0.28134100  0.37909706  1
  O  O40  1  0.76297487  0.84260588  0.60771421  1
  O  O41  1  0.90180652  0.82559115  0.99564852  1
  O  O42  1  0.37201466  0.60494142  0.76839857  1
  O  O43  1  0.17291476  0.71915109  0.09406521  1
  O  O44  1  0.48382343  0.84286989  0.35986627  1
  O  O45  1  0.98452621  0.56662193  0.98350183  1
  O  O46  1  0.04347985  0.44096084  0.75934705  1
  O  O47  1  0.80795347  0.03157128  0.74717159  1
  O  O48  1  0.47494022  0.56272144  0.30538954  1
  O  O49  1  0.88597608  0.52166728  0.23996266  1
  O  O50  1  0.41141937  0.73504283  0.15596732  1
  O  O51  1  0.80164446  0.94871607  0.22652553  1
  O  O52  1  0.98407487  0.71394624  0.43375378  1
  O  O53  1  0.29240179  0.11559996  0.78808573  1
  O  O54  1  0.14184535  0.18218721  0.40403151  1
  O  O55  1  0.55329702  0.47584789  0.89241177  1
  O  O56  1  0.77659098  0.37200881  0.67691898  1
  O  O57  1  0.12551530  0.22965738  0.64483042  1
  O  O58  1  0.82627245  0.00086801  0.43475616  1
  O  O59  1  0.32696091  0.36059187  0.88875317  1
  O  O60  1  0.54001098  0.30317572  0.72338308  1
  O  O61  1  0.63924590  0.13618708  0.18319065  1
  O  O62  1  0.20262919  0.94804170  0.17869106  1
  O  O63  1  0.77386832  0.56851154  0.55570593  1
  O  O64  1  0.35452069  0.06698675  0.30136478  1
loop_
_geom_bond_atom_site_label_1
_geom_bond_atom_site_label_2
_geom_bond_distance
_geom_bond_site_symmetry_2
O0 Ti36 1.912476 1_555
O0 Ti11 1.925112 1_555
O0 Ti20 2.040160 1_545
O1 Ti32 1.905559 1_556
O1 Ti5 1.912841 1_555
O1 Ti28 2.000693 1_565
O2 Ti20 2.055518 1_455
O2 Ti14 2.100813 1_455
O2 Ti34 2.205768 1_565
O2 Ti36 2.210905 1_465
O2 Ti19 2.226142 1_555
O3 Ti27 1.976366 1_455
O3 Ti38 1.998176 1_556
O3 Ti26 2.010303 1_556
O3 Ti9 2.074830 1_555
O4 Ti21 1.830212 1_555
O4 Ti2 1.858872 1_555
O5 Ti16 1.841709 1_545
O5 Ti24 1.859234 1_555
O6 Ti12 1.946341 1_555
O6 Ti8 1.962157 1_555
O6 Ti29 2.101734 1_555
O7 Ti34 1.904544 1_565
O7 Ti19 1.918341 1_555
O7 Ti16 2.042376 1_555
O8 Ti31 1.928622 1_555
O8 Ti23 1.969048 1_555
O8 Ti16 2.023998 1_545
O9 Ti1 1.944178 1_555
O9 Ti23 1.992772 1_555
O9 Ti30 2.008759 1_555
O10 Ti19 1.940022 1_555
O10 Ti1 1.962897 1_555
O10 Ti12 2.060130 1_555
O11 Ti13 1.898459 1_544
O11 Ti7 1.922621 1_555
O11 Ti2 1.986092 1_545
O12 Ti26 1.981698 1_655
O12 Ti7 2.013307 1_555
O12 Ti37 2.081709 1_555
O12 Ti27 2.374042 1_554
O13 Ti5 1.776660 1_555
O13 Ti12 1.884760 1_555
O14 Ti8 1.793132 1_555
O14 Ti2 2.124091 1_556
O14 Ti13 2.319213 1_555
O15 Ti4 1.868396 1_655
O15 Ti14 1.945863 1_555
O15 Ti22 1.982097 1_655
O16 Ti0 1.764641 1_555
O16 Ti35 1.938312 1_555
O17 Ti18 1.791479 1_555
O17 Ti0 1.941451 1_555
O18 Ti1 1.907578 1_555
O18 Ti19 1.967554 1_555
O18 Ti33 2.014273 1_555
O19 Ti30 1.941308 1_555
O19 Ti38 2.002255 1_555
O19 Ti26 2.045745 1_555
O20 Ti11 1.935870 1_555
O20 Ti27 2.191703 1_555
O20 Ti13 2.237239 1_545
O20 Ti26 2.376131 1_656
O21 Ti23 1.934272 1_555
O21 Ti17 1.954399 1_555
O21 Ti9 2.068614 1_555
O21 Ti31 2.471373 1_555
O22 Ti29 1.838104 1_555
O22 Ti21 2.037452 1_555
O23 Ti12 1.895868 1_555
O23 Ti1 1.996016 1_555
O23 Ti29 2.068433 1_555
O24 Ti31 1.826802 1_555
O24 Ti8 1.895135 1_545
O25 Ti36 1.856217 1_555
O25 Ti37 2.032973 1_555
O25 Ti24 2.096929 1_555
O26 Ti15 1.822662 1_555
O26 Ti25 1.845100 1_555
O27 Ti26 1.946595 1_555
O27 Ti22 1.972153 1_545
O27 Ti13 2.089429 1_444
O28 Ti32 1.940446 1_555
O28 Ti35 1.983061 1_565
O28 Ti28 2.013123 1_564
O29 Ti30 1.881383 1_655
O29 Ti10 1.907872 1_555
O30 Ti6 2.040122 1_555
O30 Ti37 2.064350 1_555
O30 Ti0 2.072435 1_555
O30 Ti7 2.193087 1_555
O31 Ti3 1.926777 1_555
O31 Ti7 1.949581 1_556
O31 Ti6 2.056682 1_556
O32 Ti4 1.899610 1_555
O32 Ti30 1.985469 1_555
O32 Ti33 2.040841 1_555
O33 Ti25 1.758429 1_455
O33 Ti5 1.986524 1_555
O34 Ti35 1.924922 1_555
O34 Ti38 1.973811 1_555
O34 Ti6 1.986517 1_555
O34 Ti28 2.176009 1_554
O35 Ti28 1.814738 1_554
O35 Ti26 1.994929 1_555
O35 Ti38 2.024780 1_555
O36 Ti27 1.879159 1_555
O36 Ti3 1.900984 1_555
O36 Ti7 2.097255 1_556
O37 Ti11 1.852937 1_465
O37 Ti5 2.044550 1_555
O37 Ti20 2.375550 1_455
O37 Ti13 2.504925 1_455
O38 Ti33 1.903236 1_555
O38 Ti38 2.056009 1_555
O38 Ti6 2.083949 1_555
O39 Ti18 1.936784 1_555
O39 Ti37 2.013449 1_555
O39 Ti24 2.152272 1_555
O39 Ti0 2.174463 1_555
O40 Ti29 1.935995 1_555
O40 Ti20 1.969203 1_555
O40 Ti8 2.060910 1_555
O41 Ti25 1.910259 1_555
O41 Ti2 1.935007 1_556
O41 Ti13 2.183435 1_555
O41 Ti22 2.284710 1_656
O42 Ti12 1.800194 1_555
O42 Ti17 1.841025 1_555
O43 Ti33 1.966017 1_555
O43 Ti22 2.090519 1_555
O43 Ti4 2.117788 1_555
O43 Ti32 2.210947 1_555
O44 Ti21 1.780739 1_555
O44 Ti16 1.876151 1_555
O45 Ti4 1.929230 1_656
O45 Ti27 1.962970 1_555
O45 Ti25 2.016264 1_555
O46 Ti15 1.909769 1_455
O46 Ti9 1.958672 1_555
O46 Ti27 2.097881 1_455
O47 Ti13 1.994106 1_545
O47 Ti8 2.011184 1_545
O47 Ti20 2.080143 1_545
O47 Ti11 2.376654 1_555
O48 Ti0 1.959500 1_555
O48 Ti21 2.001149 1_555
O48 Ti1 2.076704 1_555
O49 Ti10 1.928643 1_555
O49 Ti37 1.953163 1_555
O49 Ti4 2.032931 1_655
O50 Ti32 1.896466 1_555
O50 Ti33 1.931972 1_555
O50 Ti21 2.092446 1_555
O51 Ti2 1.938238 1_555
O51 Ti24 1.971629 1_565
O51 Ti14 2.106321 1_555
O52 Ti19 1.964839 1_655
O52 Ti10 2.003068 1_555
O52 Ti14 2.100167 1_555
O53 Ti31 1.906478 1_555
O53 Ti5 2.106733 1_545
O53 Ti28 2.112899 1_555
O53 Ti9 2.577362 1_555
O54 Ti36 1.952182 1_455
O54 Ti34 2.078712 1_555
O54 Ti23 2.121366 1_555
O54 Ti30 2.149093 1_555
O55 Ti3 1.914702 1_555
O55 Ti6 1.988837 1_556
O55 Ti17 2.038651 1_555
O56 Ti15 1.954530 1_555
O56 Ti3 1.997248 1_555
O56 Ti18 2.007366 1_555
O57 Ti23 1.888834 1_555
O57 Ti11 1.912650 1_455
O57 Ti9 2.015674 1_555
O58 Ti24 1.973837 1_555
O58 Ti20 2.026145 1_545
O58 Ti14 2.034111 1_545
O58 Ti36 2.093797 1_555
O59 Ti17 1.820632 1_555
O59 Ti38 2.026611 1_556
O59 Ti9 2.045423 1_555
O60 Ti31 1.921410 1_555
O60 Ti3 1.987559 1_555
O60 Ti17 2.030619 1_555
O61 Ti35 1.842788 1_555
O61 Ti24 1.963395 1_555
O61 Ti7 2.143762 1_555
O62 Ti32 1.901707 1_555
O62 Ti34 1.909805 1_565
O62 Ti22 1.939683 1_555
O63 Ti29 1.943515 1_555
O63 Ti18 2.070682 1_555
O63 Ti10 2.085356 1_555
O63 Ti15 2.225455 1_555
O64 Ti16 1.822619 1_545
O64 Ti35 1.927617 1_555
O64 Ti34 2.105684 1_555
