# generated using pymatgen
data_Na4XeO12
_symmetry_space_group_name_H-M   'P 1'
_cell_length_a   14.57603311
_cell_length_b   10.73210376
_cell_length_c   7.00348386
_cell_angle_alpha   90.00000000
_cell_angle_beta   90.00000000
_cell_angle_gamma   90.00000000
_symmetry_Int_Tables_number   1
_chemical_formula_structural   Na4XeO12
_chemical_formula_sum   'Na16 Xe4 O48'
_cell_volume   1095.56548366
_cell_formula_units_Z   4
loop_
 _symmetry_equiv_pos_site_id
 _symmetry_equiv_pos_as_xyz
  1  'x, y, z'
loop_
 _atom_site_type_symbol
 _atom_site_label
 _atom_site_symmetry_multiplicity
 _atom_site_fract_x
 _atom_site_fract_y
 _atom_site_fract_z
 _atom_site_occupancy
  Na  Na0  1  0.48701294  0.17840769  0.05825903  1
  Na  Na1  1  0.98701294  0.32159231  0.94174097  1
  Na  Na2  1  0.51298706  0.67840769  0.44174097  1
  Na  Na3  1  0.01298706  0.82159231  0.55825903  1
  Na  Na4  1  0.51298706  0.82159231  0.94174097  1
  Na  Na5  1  0.01298706  0.67840769  0.05825903  1
  Na  Na6  1  0.48701294  0.32159231  0.55825903  1
  Na  Na7  1  0.98701294  0.17840769  0.44174097  1
  Na  Na8  1  0.77281538  0.13026940  0.02631423  1
  Na  Na9  1  0.27281538  0.36973060  0.97368577  1
  Na  Na10  1  0.22718462  0.63026940  0.47368577  1
  Na  Na11  1  0.72718462  0.86973060  0.52631423  1
  Na  Na12  1  0.22718462  0.86973060  0.97368577  1
  Na  Na13  1  0.72718462  0.63026940  0.02631423  1
  Na  Na14  1  0.77281538  0.36973060  0.52631423  1
  Na  Na15  1  0.27281538  0.13026940  0.47368577  1
  Xe  Xe0  1  0.50000000  0.00000000  0.50000000  1
  Xe  Xe1  1  -0.00000000  0.50000000  0.50000000  1
  Xe  Xe2  1  0.50000000  0.50000000  -0.00000000  1
  Xe  Xe3  1  -0.00000000  0.00000000  -0.00000000  1
  O  O0  1  0.62077427  0.96823071  0.10076372  1
  O  O1  1  0.12077427  0.53176929  0.89923628  1
  O  O2  1  0.37922573  0.46823071  0.39923628  1
  O  O3  1  0.87922573  0.03176929  0.60076372  1
  O  O4  1  0.37922573  0.03176929  0.89923628  1
  O  O5  1  0.87922573  0.46823071  0.10076372  1
  O  O6  1  0.62077427  0.53176929  0.60076372  1
  O  O7  1  0.12077427  0.96823071  0.39923628  1
  O  O8  1  0.61032929  0.20317765  0.75463460  1
  O  O9  1  0.11032929  0.29682235  0.24536540  1
  O  O10  1  0.38967071  0.70317765  0.74536540  1
  O  O11  1  0.88967071  0.79682235  0.25463460  1
  O  O12  1  0.38967071  0.79682235  0.24536540  1
  O  O13  1  0.88967071  0.70317765  0.75463460  1
  O  O14  1  0.61032929  0.29682235  0.25463460  1
  O  O15  1  0.11032929  0.20317765  0.74536540  1
  O  O16  1  0.42899454  0.15349202  0.36476464  1
  O  O17  1  0.92899454  0.34650798  0.63523536  1
  O  O18  1  0.57100546  0.65349202  0.13523536  1
  O  O19  1  0.07100546  0.84650798  0.86476464  1
  O  O20  1  0.57100546  0.84650798  0.63523536  1
  O  O21  1  0.07100546  0.65349202  0.36476464  1
  O  O22  1  0.42899454  0.34650798  0.86476464  1
  O  O23  1  0.92899454  0.15349202  0.13523536  1
  O  O24  1  0.67173797  0.22266576  0.32075574  1
  O  O25  1  0.17173797  0.27733424  0.67924426  1
  O  O26  1  0.32826203  0.72266576  0.17924426  1
  O  O27  1  0.82826203  0.77733424  0.82075574  1
  O  O28  1  0.32826203  0.77733424  0.67924426  1
  O  O29  1  0.82826203  0.72266576  0.32075574  1
  O  O30  1  0.67173797  0.27733424  0.82075574  1
  O  O31  1  0.17173797  0.22266576  0.17924426  1
  O  O32  1  0.83824957  0.12190702  0.68310312  1
  O  O33  1  0.33824957  0.37809298  0.31689688  1
  O  O34  1  0.16175043  0.62190702  0.81689688  1
  O  O35  1  0.66175043  0.87809298  0.18310312  1
  O  O36  1  0.16175043  0.87809298  0.31689688  1
  O  O37  1  0.66175043  0.62190702  0.68310312  1
  O  O38  1  0.83824957  0.37809298  0.18310312  1
  O  O39  1  0.33824957  0.12190702  0.81689688  1
  O  O40  1  0.67088191  0.50643191  0.27926784  1
  O  O41  1  0.17088191  0.99356809  0.72073216  1
  O  O42  1  0.32911809  0.00643191  0.22073216  1
  O  O43  1  0.82911809  0.49356809  0.77926784  1
  O  O44  1  0.32911809  0.49356809  0.72073216  1
  O  O45  1  0.82911809  0.00643191  0.27926784  1
  O  O46  1  0.67088191  0.99356809  0.77926784  1
  O  O47  1  0.17088191  0.50643191  0.22073216  1
loop_
_geom_bond_atom_site_label_1
_geom_bond_atom_site_label_2
_geom_bond_distance
_geom_bond_site_symmetry_2
Na0 O16 2.322627 1_555
Na0 O22 2.409612 1_554
Na0 O4 2.487046 1_554
Na0 O14 2.595648 1_555
Na0 O8 2.797006 1_554
Na0 O0 2.996314 1_545
Na1 O17 2.322627 1_555
Na1 O23 2.409612 1_556
Na1 O5 2.487046 1_556
Na1 O15 2.595648 1_655
Na1 O9 2.797006 1_656
Na1 O1 2.996314 1_655
Na2 O18 2.322627 1_555
Na2 O20 2.409612 1_555
Na2 O6 2.487046 1_555
Na2 O12 2.595648 1_555
Na2 O10 2.797006 1_555
Na2 O2 2.996314 1_555
Na3 O19 2.322627 1_555
Na3 O21 2.409612 1_555
Na3 O7 2.487046 1_555
Na3 O13 2.595648 1_455
Na3 O11 2.797006 1_455
Na3 O3 2.996314 1_465
Na4 O20 2.322627 1_555
Na4 O18 2.409612 1_556
Na4 O0 2.487046 1_556
Na4 O10 2.595648 1_555
Na4 O12 2.797006 1_556
Na4 O4 2.996314 1_565
Na5 O21 2.322627 1_555
Na5 O19 2.409612 1_554
Na5 O1 2.487046 1_554
Na5 O11 2.595648 1_455
Na5 O13 2.797006 1_454
Na5 O5 2.996314 1_455
Na6 O22 2.322627 1_555
Na6 O16 2.409612 1_555
Na6 O2 2.487046 1_555
Na6 O8 2.595648 1_555
Na6 O14 2.797006 1_555
Na6 O6 2.996314 1_555
Na7 O23 2.322627 1_555
Na7 O17 2.409612 1_555
Na7 O3 2.487046 1_555
Na7 O9 2.595648 1_655
Na7 O15 2.797006 1_655
Na7 O7 2.996314 1_645
Na8 O45 2.361832 1_555
Na8 O23 2.413783 1_555
Na8 O32 2.587543 1_554
Na8 O30 2.595041 1_554
Na8 O46 2.711727 1_544
Na8 O24 2.721442 1_555
Na8 O0 2.864854 1_545
Na8 O38 3.031381 1_555
Na9 O44 2.361832 1_555
Na9 O22 2.413783 1_555
Na9 O33 2.587543 1_556
Na9 O31 2.595041 1_556
Na9 O47 2.711727 1_556
Na9 O25 2.721442 1_555
Na9 O1 2.864854 1_555
Na9 O39 3.031381 1_555
Na10 O47 2.361832 1_555
Na10 O21 2.413783 1_555
Na10 O34 2.587543 1_555
Na10 O28 2.595041 1_555
Na10 O44 2.711727 1_555
Na10 O26 2.721442 1_555
Na10 O2 2.864854 1_555
Na10 O36 3.031381 1_555
Na11 O46 2.361832 1_555
Na11 O20 2.413783 1_555
Na11 O35 2.587543 1_555
Na11 O29 2.595041 1_555
Na11 O45 2.711727 1_565
Na11 O27 2.721442 1_555
Na11 O3 2.864854 1_565
Na11 O37 3.031381 1_555
Na12 O41 2.361832 1_555
Na12 O19 2.413783 1_555
Na12 O36 2.587543 1_556
Na12 O26 2.595041 1_556
Na12 O42 2.711727 1_566
Na12 O28 2.721442 1_555
Na12 O4 2.864854 1_565
Na12 O34 3.031381 1_555
Na13 O40 2.361832 1_555
Na13 O18 2.413783 1_555
Na13 O37 2.587543 1_554
Na13 O27 2.595041 1_554
Na13 O43 2.711727 1_554
Na13 O29 2.721442 1_555
Na13 O5 2.864854 1_555
Na13 O35 3.031381 1_555
Na14 O43 2.361832 1_555
Na14 O17 2.413783 1_555
Na14 O38 2.587543 1_555
Na14 O24 2.595041 1_555
Na14 O40 2.711727 1_555
Na14 O30 2.721442 1_555
Na14 O6 2.864854 1_555
Na14 O32 3.031381 1_555
Na15 O42 2.361832 1_555
Na15 O16 2.413783 1_555
Na15 O39 2.587543 1_555
Na15 O25 2.595041 1_555
Na15 O41 2.711727 1_545
Na15 O31 2.721442 1_555
Na15 O7 2.864854 1_545
Na15 O33 3.031381 1_555
O0 O35 1.274783 1_555
O1 O34 1.274783 1_555
O2 O33 1.274783 1_555
O3 O32 1.274783 1_555
O10 O28 1.284143 1_555
O11 O29 1.284143 1_555
O12 O26 1.284143 1_555
O13 O27 1.284143 1_555
O14 O24 1.284143 1_555
O15 O25 1.284143 1_555
O16 Xe0 2.163743 1_555
O17 Xe1 2.163743 1_655
O18 Xe2 2.163743 1_555
O19 Xe3 2.163743 1_566
O20 Xe0 2.163743 1_565
O21 Xe1 2.163743 1_555
O22 Xe2 2.163743 1_556
O23 Xe3 2.163743 1_655
O30 O8 1.284143 1_555
O31 O9 1.284143 1_555
O36 O7 1.274783 1_555
O37 O6 1.274783 1_555
O38 O5 1.274783 1_555
O39 O4 1.274783 1_555
