# generated using pymatgen
data_Y3H
_symmetry_space_group_name_H-M   'P 1'
_cell_length_a   7.36522286
_cell_length_b   12.69986664
_cell_length_c   35.06873942
_cell_angle_alpha   90.00000000
_cell_angle_beta   90.00000000
_cell_angle_gamma   90.00000000
_symmetry_Int_Tables_number   1
_chemical_formula_structural   Y3H
_chemical_formula_sum   'Y96 H32'
_cell_volume   3280.23688641
_cell_formula_units_Z   32
loop_
 _symmetry_equiv_pos_site_id
 _symmetry_equiv_pos_as_xyz
  1  'x, y, z'
loop_
 _atom_site_type_symbol
 _atom_site_label
 _atom_site_symmetry_multiplicity
 _atom_site_fract_x
 _atom_site_fract_y
 _atom_site_fract_z
 _atom_site_occupancy
  Y  Y0_0  1  0.00000000  0.33239330  0.20461286  1
  Y  Y0_1  1  0.00000000  0.33239330  0.70461286  1
  Y  Y0_2  1  0.00000000  0.83239331  0.20461286  1
  Y  Y0_3  1  0.00000000  0.83239331  0.70461286  1
  Y  Y0_4  1  0.50000000  0.33239330  0.20461286  1
  Y  Y0_5  1  0.50000000  0.33239330  0.70461286  1
  Y  Y0_6  1  0.50000000  0.83239331  0.20461286  1
  Y  Y0_7  1  0.50000000  0.83239331  0.70461286  1
  Y  Y1_0  1  0.00000000  0.16760669  0.29538715  1
  Y  Y1_1  1  0.00000000  0.16760669  0.79538715  1
  Y  Y1_2  1  0.00000000  0.66760670  0.29538715  1
  Y  Y1_3  1  0.00000000  0.66760670  0.79538715  1
  Y  Y1_4  1  0.50000000  0.16760669  0.29538715  1
  Y  Y1_5  1  0.50000000  0.16760669  0.79538715  1
  Y  Y1_6  1  0.50000000  0.66760670  0.29538715  1
  Y  Y1_7  1  0.50000000  0.66760670  0.79538715  1
  Y  Y2_0  1  0.00000000  0.33239330  0.04538714  1
  Y  Y2_1  1  0.00000000  0.33239330  0.54538714  1
  Y  Y2_2  1  0.00000000  0.83239331  0.04538714  1
  Y  Y2_3  1  0.00000000  0.83239331  0.54538714  1
  Y  Y2_4  1  0.50000000  0.33239330  0.04538714  1
  Y  Y2_5  1  0.50000000  0.33239330  0.54538714  1
  Y  Y2_6  1  0.50000000  0.83239331  0.04538714  1
  Y  Y2_7  1  0.50000000  0.83239331  0.54538714  1
  Y  Y3_0  1  0.00000000  0.16760669  0.45461285  1
  Y  Y3_1  1  0.00000000  0.16760669  0.95461285  1
  Y  Y3_2  1  0.00000000  0.66760670  0.45461285  1
  Y  Y3_3  1  0.00000000  0.66760670  0.95461285  1
  Y  Y3_4  1  0.50000000  0.16760669  0.45461285  1
  Y  Y3_5  1  0.50000000  0.16760669  0.95461285  1
  Y  Y3_6  1  0.50000000  0.66760670  0.45461285  1
  Y  Y3_7  1  0.50000000  0.66760670  0.95461285  1
  Y  Y4_0  1  0.00000000  0.16338577  0.12500000  1
  Y  Y4_1  1  0.00000000  0.16338577  0.62500000  1
  Y  Y4_2  1  0.00000000  0.66338577  0.12500000  1
  Y  Y4_3  1  0.00000000  0.66338577  0.62500000  1
  Y  Y4_4  1  0.50000000  0.16338577  0.12500000  1
  Y  Y4_5  1  0.50000000  0.16338577  0.62500000  1
  Y  Y4_6  1  0.50000000  0.66338577  0.12500000  1
  Y  Y4_7  1  0.50000000  0.66338577  0.62500000  1
  Y  Y5_0  1  0.00000000  0.33661423  0.37500000  1
  Y  Y5_1  1  0.00000000  0.33661423  0.87500000  1
  Y  Y5_2  1  0.00000000  0.83661423  0.37500000  1
  Y  Y5_3  1  0.00000000  0.83661423  0.87500000  1
  Y  Y5_4  1  0.50000000  0.33661423  0.37500000  1
  Y  Y5_5  1  0.50000000  0.33661423  0.87500000  1
  Y  Y5_6  1  0.50000000  0.83661423  0.37500000  1
  Y  Y5_7  1  0.50000000  0.83661423  0.87500000  1
  Y  Y6_0  1  0.25000000  0.08677343  0.20911858  1
  Y  Y6_1  1  0.25000000  0.08677343  0.70911858  1
  Y  Y6_2  1  0.25000000  0.58677343  0.20911858  1
  Y  Y6_3  1  0.25000000  0.58677343  0.70911858  1
  Y  Y6_4  1  0.75000000  0.08677343  0.20911858  1
  Y  Y6_5  1  0.75000000  0.08677343  0.70911858  1
  Y  Y6_6  1  0.75000000  0.58677343  0.20911858  1
  Y  Y6_7  1  0.75000000  0.58677343  0.70911858  1
  Y  Y7_0  1  0.25000000  0.41322657  0.29088141  1
  Y  Y7_1  1  0.25000000  0.41322657  0.79088141  1
  Y  Y7_2  1  0.25000000  0.91322657  0.29088141  1
  Y  Y7_3  1  0.25000000  0.91322657  0.79088141  1
  Y  Y7_4  1  0.75000000  0.41322657  0.29088141  1
  Y  Y7_5  1  0.75000000  0.41322657  0.79088141  1
  Y  Y7_6  1  0.75000000  0.91322657  0.29088141  1
  Y  Y7_7  1  0.75000000  0.91322657  0.79088141  1
  Y  Y8_0  1  0.25000000  0.08677343  0.04088141  1
  Y  Y8_1  1  0.25000000  0.08677343  0.54088141  1
  Y  Y8_2  1  0.25000000  0.58677343  0.04088141  1
  Y  Y8_3  1  0.25000000  0.58677343  0.54088141  1
  Y  Y8_4  1  0.75000000  0.08677343  0.04088141  1
  Y  Y8_5  1  0.75000000  0.08677343  0.54088141  1
  Y  Y8_6  1  0.75000000  0.58677343  0.04088141  1
  Y  Y8_7  1  0.75000000  0.58677343  0.54088141  1
  Y  Y9_0  1  0.25000000  0.41322657  0.45911859  1
  Y  Y9_1  1  0.25000000  0.41322657  0.95911859  1
  Y  Y9_2  1  0.25000000  0.91322657  0.45911859  1
  Y  Y9_3  1  0.25000000  0.91322657  0.95911859  1
  Y  Y9_4  1  0.75000000  0.41322657  0.45911859  1
  Y  Y9_5  1  0.75000000  0.41322657  0.95911859  1
  Y  Y9_6  1  0.75000000  0.91322657  0.45911859  1
  Y  Y9_7  1  0.75000000  0.91322657  0.95911859  1
  Y  Y10_0  1  0.25000000  0.41781681  0.12500000  1
  Y  Y10_1  1  0.25000000  0.41781681  0.62500000  1
  Y  Y10_2  1  0.25000000  0.91781681  0.12500000  1
  Y  Y10_3  1  0.25000000  0.91781681  0.62500000  1
  Y  Y10_4  1  0.75000000  0.41781681  0.12500000  1
  Y  Y10_5  1  0.75000000  0.41781681  0.62500000  1
  Y  Y10_6  1  0.75000000  0.91781681  0.12500000  1
  Y  Y10_7  1  0.75000000  0.91781681  0.62500000  1
  Y  Y11_0  1  0.25000000  0.08218320  0.37500000  1
  Y  Y11_1  1  0.25000000  0.08218320  0.87500000  1
  Y  Y11_2  1  0.25000000  0.58218320  0.37500000  1
  Y  Y11_3  1  0.25000000  0.58218320  0.87500000  1
  Y  Y11_4  1  0.75000000  0.08218320  0.37500000  1
  Y  Y11_5  1  0.75000000  0.08218320  0.87500000  1
  Y  Y11_6  1  0.75000000  0.58218320  0.37500000  1
  Y  Y11_7  1  0.75000000  0.58218320  0.87500000  1
  H  H0_0  1  0.00000000  0.16516233  0.18984992  1
  H  H0_1  1  0.00000000  0.16516233  0.68984992  1
  H  H0_2  1  0.00000000  0.66516233  0.18984992  1
  H  H0_3  1  0.00000000  0.66516233  0.68984992  1
  H  H0_4  1  0.50000000  0.16516233  0.18984992  1
  H  H0_5  1  0.50000000  0.16516233  0.68984992  1
  H  H0_6  1  0.50000000  0.66516233  0.18984992  1
  H  H0_7  1  0.50000000  0.66516233  0.68984992  1
  H  H1_0  1  0.00000000  0.33483768  0.31015009  1
  H  H1_1  1  0.00000000  0.33483768  0.81015008  1
  H  H1_2  1  0.00000000  0.83483767  0.31015009  1
  H  H1_3  1  0.00000000  0.83483767  0.81015008  1
  H  H1_4  1  0.50000000  0.33483768  0.31015009  1
  H  H1_5  1  0.50000000  0.33483768  0.81015008  1
  H  H1_6  1  0.50000000  0.83483767  0.31015009  1
  H  H1_7  1  0.50000000  0.83483767  0.81015008  1
  H  H2_0  1  0.00000000  0.16516233  0.06015008  1
  H  H2_1  1  0.00000000  0.16516233  0.56015008  1
  H  H2_2  1  0.00000000  0.66516233  0.06015008  1
  H  H2_3  1  0.00000000  0.66516233  0.56015008  1
  H  H2_4  1  0.50000000  0.16516233  0.06015008  1
  H  H2_5  1  0.50000000  0.16516233  0.56015008  1
  H  H2_6  1  0.50000000  0.66516233  0.06015008  1
  H  H2_7  1  0.50000000  0.66516233  0.56015008  1
  H  H3_0  1  0.00000000  0.33483768  0.43984991  1
  H  H3_1  1  0.00000000  0.33483768  0.93984991  1
  H  H3_2  1  0.00000000  0.83483767  0.43984991  1
  H  H3_3  1  0.00000000  0.83483767  0.93984991  1
  H  H3_4  1  0.50000000  0.33483768  0.43984991  1
  H  H3_5  1  0.50000000  0.33483768  0.93984991  1
  H  H3_6  1  0.50000000  0.83483767  0.43984991  1
  H  H3_7  1  0.50000000  0.83483767  0.93984991  1
loop_
_geom_bond_atom_site_label_1
_geom_bond_atom_site_label_2
_geom_bond_distance
_geom_bond_site_symmetry_2
Y0_0 Y10_4 3.515988 1_455
Y0_0 Y10_0 3.515988 1_555
Y0_1 Y10_1 3.515988 1_555
Y0_1 Y10_5 3.515988 1_455
Y0_2 Y10_2 3.515988 1_555
Y0_2 Y10_6 3.515988 1_455
Y0_3 Y10_7 3.515988 1_455
Y0_3 Y10_3 3.515988 1_555
Y0_4 Y10_4 3.515988 1_555
Y0_4 Y10_0 3.515988 1_555
Y0_5 Y10_1 3.515988 1_555
Y0_5 Y10_5 3.515988 1_555
Y0_6 Y10_6 3.515988 1_555
Y0_6 Y10_2 3.515988 1_555
Y0_7 Y10_7 3.515988 1_555
Y0_7 Y10_3 3.515988 1_555
Y10_0 Y2_0 3.515988 1_555
Y10_0 Y2_4 3.515988 1_555
Y10_0 Y4_6 3.621692 1_555
Y10_0 Y4_2 3.621692 1_555
Y10_0 Y6_2 3.647773 1_555
Y10_0 Y8_2 3.647773 1_555
Y10_0 Y10_4 3.682611 1_555
Y10_0 Y10_4 3.682611 1_455
Y10_0 Y4_0 3.719048 1_555
Y10_0 Y4_4 3.719048 1_555
Y10_1 Y2_1 3.515988 1_555
Y10_1 Y2_5 3.515988 1_555
Y10_1 Y4_7 3.621692 1_555
Y10_1 Y4_3 3.621692 1_555
Y10_1 Y6_3 3.647773 1_555
Y10_1 Y8_3 3.647773 1_555
Y10_1 Y10_5 3.682611 1_555
Y10_1 Y10_5 3.682611 1_455
Y10_1 Y4_5 3.719048 1_555
Y10_1 Y4_1 3.719048 1_555
Y10_2 Y2_2 3.515988 1_555
Y10_2 Y2_6 3.515988 1_555
Y10_2 Y4_4 3.621692 1_565
Y10_2 Y4_0 3.621692 1_565
Y10_2 Y6_0 3.647773 1_565
Y10_2 Y8_0 3.647773 1_565
Y10_2 Y10_6 3.682611 1_555
Y10_2 Y10_6 3.682611 1_455
Y10_2 Y4_6 3.719048 1_555
Y10_2 Y4_2 3.719048 1_555
Y10_3 Y2_3 3.515988 1_555
Y10_3 Y2_7 3.515988 1_555
Y10_3 Y4_5 3.621692 1_565
Y10_3 Y4_1 3.621692 1_565
Y10_3 Y6_1 3.647773 1_565
Y10_3 Y8_1 3.647773 1_565
Y10_3 Y10_7 3.682611 1_455
Y10_3 Y10_7 3.682611 1_555
Y10_3 Y4_3 3.719048 1_555
Y10_3 Y4_7 3.719048 1_555
Y10_4 Y2_0 3.515988 1_655
Y10_4 Y2_4 3.515988 1_555
Y10_4 Y4_6 3.621692 1_555
Y10_4 Y4_2 3.621692 1_655
Y10_4 Y6_6 3.647773 1_555
Y10_4 Y8_6 3.647773 1_555
Y10_4 Y4_0 3.719048 1_655
Y10_4 Y4_4 3.719048 1_555
Y10_5 Y2_1 3.515988 1_655
Y10_5 Y2_5 3.515988 1_555
Y10_5 Y4_7 3.621692 1_555
Y10_5 Y4_3 3.621692 1_655
Y10_5 Y6_7 3.647773 1_555
Y10_5 Y8_7 3.647773 1_555
Y10_5 Y4_5 3.719048 1_555
Y10_5 Y4_1 3.719048 1_655
Y10_6 Y2_2 3.515988 1_655
Y10_6 Y2_6 3.515988 1_555
Y10_6 Y4_4 3.621692 1_565
Y10_6 Y4_0 3.621692 1_665
Y10_6 Y8_4 3.647773 1_565
Y10_6 Y6_4 3.647773 1_565
Y10_6 Y4_2 3.719048 1_655
Y10_6 Y4_6 3.719048 1_555
Y10_7 Y2_3 3.515988 1_655
Y10_7 Y2_7 3.515988 1_555
Y10_7 Y4_1 3.621692 1_665
Y10_7 Y4_5 3.621692 1_565
Y10_7 Y6_5 3.647773 1_565
Y10_7 Y8_5 3.647773 1_565
Y10_7 Y4_3 3.719048 1_655
Y10_7 Y4_7 3.719048 1_555
Y11_0 Y1_0 3.515988 1_555
Y11_0 Y1_4 3.515988 1_555
Y11_0 Y3_0 3.515988 1_555
Y11_0 Y3_4 3.515988 1_555
Y11_0 Y5_6 3.621692 1_545
Y11_0 Y5_2 3.621692 1_545
Y11_0 Y7_2 3.647773 1_545
Y11_0 Y9_2 3.647773 1_545
Y11_0 Y11_4 3.682611 1_555
Y11_0 Y11_4 3.682611 1_455
Y11_0 Y5_0 3.719048 1_555
Y11_0 Y5_4 3.719048 1_555
Y11_1 Y3_5 3.515988 1_555
Y11_1 Y3_1 3.515988 1_555
Y11_1 Y1_1 3.515988 1_555
Y11_1 Y1_5 3.515988 1_555
Y11_1 Y5_3 3.621692 1_545
Y11_1 Y5_7 3.621692 1_545
Y11_1 Y9_3 3.647773 1_545
Y11_1 Y7_3 3.647773 1_545
Y11_1 Y11_5 3.682611 1_555
Y11_1 Y11_5 3.682611 1_455
Y11_1 Y5_1 3.719048 1_555
Y11_1 Y5_5 3.719048 1_555
Y11_2 Y3_2 3.515988 1_555
Y11_2 Y1_2 3.515988 1_555
Y11_2 Y3_6 3.515988 1_555
Y11_2 Y1_6 3.515988 1_555
Y11_2 Y5_0 3.621692 1_555
Y11_2 Y5_4 3.621692 1_555
Y11_2 Y7_0 3.647773 1_555
Y11_2 Y9_0 3.647773 1_555
Y11_2 Y11_6 3.682611 1_555
Y11_2 Y11_6 3.682611 1_455
Y11_2 Y5_6 3.719048 1_555
Y11_2 Y5_2 3.719048 1_555
Y11_3 Y3_3 3.515988 1_555
Y11_3 Y3_7 3.515988 1_555
Y11_3 Y1_7 3.515988 1_555
Y11_3 Y1_3 3.515988 1_555
Y11_3 Y5_5 3.621692 1_555
Y11_3 Y5_1 3.621692 1_555
Y11_3 Y9_1 3.647773 1_555
Y11_3 Y7_1 3.647773 1_555
Y11_3 Y11_7 3.682611 1_455
Y11_3 Y11_7 3.682611 1_555
Y11_3 Y5_7 3.719048 1_555
Y11_3 Y5_3 3.719048 1_555
Y11_4 Y1_0 3.515988 1_655
Y11_4 Y3_0 3.515988 1_655
Y11_4 Y1_4 3.515988 1_555
Y11_4 Y3_4 3.515988 1_555
Y11_4 Y5_6 3.621692 1_545
Y11_4 Y5_2 3.621692 1_645
Y11_4 Y7_6 3.647773 1_545
Y11_4 Y9_6 3.647773 1_545
Y11_4 Y5_0 3.719048 1_655
Y11_4 Y5_4 3.719048 1_555
Y11_5 Y3_5 3.515988 1_555
Y11_5 Y3_1 3.515988 1_655
Y11_5 Y1_5 3.515988 1_555
Y11_5 Y1_1 3.515988 1_655
Y11_5 Y5_7 3.621692 1_545
Y11_5 Y5_3 3.621692 1_645
Y11_5 Y9_7 3.647773 1_545
Y11_5 Y7_7 3.647773 1_545
Y11_5 Y5_1 3.719048 1_655
Y11_5 Y5_5 3.719048 1_555
Y11_6 Y3_6 3.515988 1_555
Y11_6 Y1_6 3.515988 1_555
Y11_6 Y3_2 3.515988 1_655
Y11_6 Y1_2 3.515988 1_655
Y11_6 Y5_0 3.621692 1_655
Y11_6 Y5_4 3.621692 1_555
Y11_6 Y7_4 3.647773 1_555
Y11_6 Y9_4 3.647773 1_555
Y11_6 Y5_6 3.719048 1_555
Y11_6 Y5_2 3.719048 1_655
Y11_7 Y3_3 3.515988 1_655
Y11_7 Y3_7 3.515988 1_555
Y11_7 Y1_3 3.515988 1_655
Y11_7 Y1_7 3.515988 1_555
Y11_7 Y5_5 3.621692 1_555
Y11_7 Y5_1 3.621692 1_655
Y11_7 Y9_5 3.647773 1_555
Y11_7 Y7_5 3.647773 1_555
Y11_7 Y5_3 3.719048 1_655
Y11_7 Y5_7 3.719048 1_555
H0_0 Y0_0 2.186002 1_555
H0_0 Y6_0 2.199566 1_555
H0_0 Y6_4 2.199566 1_455
H0_0 Y4_0 2.274317 1_555
H0_1 Y0_1 2.186002 1_555
H0_1 Y6_5 2.199566 1_455
H0_1 Y6_1 2.199566 1_555
H0_1 Y4_1 2.274317 1_555
H0_2 Y0_2 2.186002 1_555
H0_2 Y6_2 2.199566 1_555
H0_2 Y6_6 2.199566 1_455
H0_2 Y4_2 2.274317 1_555
H0_3 Y0_3 2.186002 1_555
H0_3 Y6_7 2.199566 1_455
H0_3 Y6_3 2.199566 1_555
H0_3 Y4_3 2.274317 1_555
H0_4 Y0_4 2.186002 1_555
H0_4 Y6_4 2.199566 1_555
H0_4 Y6_0 2.199566 1_555
H0_4 Y4_4 2.274317 1_555
H0_5 Y0_5 2.186002 1_555
H0_5 Y6_1 2.199566 1_555
H0_5 Y6_5 2.199566 1_555
H0_5 Y4_5 2.274317 1_555
H0_6 Y0_6 2.186002 1_555
H0_6 Y6_2 2.199566 1_555
H0_6 Y6_6 2.199566 1_555
H0_6 Y4_6 2.274317 1_555
H0_7 Y0_7 2.186002 1_555
H0_7 Y6_7 2.199566 1_555
H0_7 Y6_3 2.199566 1_555
H0_7 Y4_7 2.274317 1_555
H1_0 Y1_0 2.186002 1_555
H1_0 Y7_0 2.199566 1_555
H1_0 Y7_4 2.199566 1_455
H1_0 Y5_0 2.274317 1_555
H1_1 Y1_1 2.186002 1_555
H1_1 Y7_1 2.199566 1_555
H1_1 Y7_5 2.199566 1_455
H1_1 Y5_1 2.274317 1_555
H1_2 Y1_2 2.186002 1_555
H1_2 Y7_6 2.199566 1_455
H1_2 Y7_2 2.199566 1_555
H1_2 Y5_2 2.274317 1_555
H1_3 Y1_3 2.186002 1_555
H1_3 Y7_7 2.199566 1_455
H1_3 Y7_3 2.199566 1_555
H1_3 Y5_3 2.274317 1_555
H1_4 Y1_4 2.186002 1_555
H1_4 Y7_4 2.199566 1_555
H1_4 Y7_0 2.199566 1_555
H1_4 Y5_4 2.274317 1_555
H1_5 Y1_5 2.186002 1_555
H1_5 Y7_1 2.199566 1_555
H1_5 Y7_5 2.199566 1_555
H1_5 Y5_5 2.274317 1_555
H1_6 Y1_6 2.186002 1_555
H1_6 Y7_2 2.199566 1_555
H1_6 Y7_6 2.199566 1_555
H1_6 Y5_6 2.274317 1_555
H1_7 Y1_7 2.186002 1_555
H1_7 Y7_7 2.199566 1_555
H1_7 Y7_3 2.199566 1_555
H1_7 Y5_7 2.274317 1_555
H2_0 Y2_0 2.186002 1_555
H2_0 Y8_4 2.199566 1_455
H2_0 Y8_0 2.199566 1_555
H2_0 Y4_0 2.274317 1_555
H2_1 Y2_1 2.186002 1_555
H2_1 Y8_5 2.199566 1_455
H2_1 Y8_1 2.199566 1_555
H2_1 Y4_1 2.274317 1_555
H2_2 Y2_2 2.186002 1_555
H2_2 Y8_6 2.199566 1_455
H2_2 Y8_2 2.199566 1_555
H2_2 Y4_2 2.274317 1_555
H2_3 Y2_3 2.186002 1_555
H2_3 Y8_3 2.199566 1_555
H2_3 Y8_7 2.199566 1_455
H2_3 Y4_3 2.274317 1_555
H2_4 Y2_4 2.186002 1_555
H2_4 Y8_0 2.199566 1_555
H2_4 Y8_4 2.199566 1_555
H2_4 Y4_4 2.274317 1_555
H2_5 Y2_5 2.186002 1_555
H2_5 Y8_1 2.199566 1_555
H2_5 Y8_5 2.199566 1_555
H2_5 Y4_5 2.274317 1_555
H2_6 Y2_6 2.186002 1_555
H2_6 Y8_2 2.199566 1_555
H2_6 Y8_6 2.199566 1_555
H2_6 Y4_6 2.274317 1_555
H2_7 Y2_7 2.186002 1_555
H2_7 Y8_7 2.199566 1_555
H2_7 Y8_3 2.199566 1_555
H2_7 Y4_7 2.274317 1_555
H3_0 Y3_0 2.186002 1_555
H3_0 Y9_4 2.199566 1_455
H3_0 Y9_0 2.199566 1_555
H3_0 Y5_0 2.274317 1_555
H3_1 Y3_1 2.186002 1_555
H3_1 Y9_5 2.199566 1_455
H3_1 Y9_1 2.199566 1_555
H3_1 Y5_1 2.274317 1_555
H3_2 Y3_2 2.186002 1_555
H3_2 Y9_6 2.199566 1_455
H3_2 Y9_2 2.199566 1_555
H3_2 Y5_2 2.274317 1_555
H3_3 Y3_3 2.186002 1_555
H3_3 Y9_7 2.199566 1_455
H3_3 Y9_3 2.199566 1_555
H3_3 Y5_3 2.274317 1_555
H3_4 Y3_4 2.186002 1_555
H3_4 Y9_4 2.199566 1_555
H3_4 Y9_0 2.199566 1_555
H3_4 Y5_4 2.274317 1_555
H3_5 Y3_5 2.186002 1_555
H3_5 Y9_5 2.199566 1_555
H3_5 Y9_1 2.199566 1_555
H3_5 Y5_5 2.274317 1_555
H3_6 Y3_6 2.186002 1_555
H3_6 Y9_2 2.199566 1_555
H3_6 Y9_6 2.199566 1_555
H3_6 Y5_6 2.274317 1_555
H3_7 Y3_7 2.186002 1_555
H3_7 Y9_3 2.199566 1_555
H3_7 Y9_7 2.199566 1_555
H3_7 Y5_7 2.274317 1_555
