# generated using pymatgen
data_Mg14GaB
_symmetry_space_group_name_H-M   'P 1'
_cell_length_a   6.17570868
_cell_length_b   6.70856781
_cell_length_c   9.63838242
_cell_angle_alpha   90.00000000
_cell_angle_beta   90.00000000
_cell_angle_gamma   122.89775945
_symmetry_Int_Tables_number   1
_chemical_formula_structural   Mg14GaB
_chemical_formula_sum   'Mg14 Ga1 B1'
_cell_volume   335.28525961
_cell_formula_units_Z   1
loop_
 _symmetry_equiv_pos_site_id
 _symmetry_equiv_pos_as_xyz
  1  'x, y, z'
loop_
 _atom_site_type_symbol
 _atom_site_label
 _atom_site_symmetry_multiplicity
 _atom_site_fract_x
 _atom_site_fract_y
 _atom_site_fract_z
 _atom_site_occupancy
  Mg  Mg0  1  0.17956025  0.33977963  0.62500000  1
  Mg  Mg1  1  0.19753318  0.84876608  0.62500000  1
  Mg  Mg2  1  0.75815263  0.37382956  0.12500000  1
  Mg  Mg3  1  0.67441478  0.34283820  0.62500000  1
  Mg  Mg4  1  0.75815263  0.88432208  0.12500000  1
  Mg  Mg5  1  0.67441478  0.83157557  0.62500000  1
  Mg  Mg6  1  0.30030005  0.17657373  0.32776696  1
  Mg  Mg7  1  0.30030005  0.17657373  0.92223304  1
  Mg  Mg8  1  0.30030005  0.62372732  0.32776696  1
  Mg  Mg9  1  0.30030005  0.62372732  0.92223304  1
  Mg  Mg10  1  0.79363905  0.14682002  0.37485691  1
  Mg  Mg11  1  0.79363905  0.14682002  0.87514309  1
  Mg  Mg12  1  0.82859467  0.66429784  0.37539876  1
  Mg  Mg13  1  0.82859467  0.66429784  0.87460124  1
  Ga  Ga0  1  0.19868891  0.84934396  0.12500000  1
  B  B0  1  0.11341520  0.30670710  0.12500000  1
loop_
_geom_bond_atom_site_label_1
_geom_bond_atom_site_label_2
_geom_bond_distance
_geom_bond_site_symmetry_2
Mg0 Mg5 3.044981 1_555
Mg0 Mg3 3.044982 1_555
Mg0 Mg5 3.130823 1_445
Mg0 Mg3 3.130823 1_455
Mg0 Mg10 3.133272 1_455
Mg0 Mg11 3.133272 1_455
Mg0 Mg6 3.293773 1_555
Mg0 Mg7 3.293773 1_555
Mg0 Mg8 3.293779 1_555
Mg0 Mg9 3.293779 1_555
Mg0 Mg1 3.355578 1_555
Mg0 Mg1 3.355578 1_545
Mg1 Mg3 3.009277 1_565
Mg1 Mg5 3.009277 1_555
Mg1 Mg12 3.073685 1_455
Mg1 Mg13 3.073685 1_455
Mg1 Mg3 3.169469 1_455
Mg1 Mg5 3.169469 1_455
Mg1 Mg8 3.453997 1_555
Mg1 Mg9 3.453997 1_555
Mg1 Mg6 3.454004 1_565
Mg1 Mg7 3.454004 1_565
Mg3 Mg5 3.278728 1_555
Mg3 Mg5 3.429840 1_545
Mg3 Mg6 3.462674 1_555
Mg3 Mg7 3.462674 1_555
Mg5 Mg8 3.462674 1_555
Mg5 Mg9 3.462674 1_555
Mg10 Mg2 2.920502 1_555
Mg10 Mg4 2.920510 1_545
Mg10 Mg3 3.022570 1_555
Mg10 Mg5 3.022577 1_545
Mg10 Mg8 3.059080 1_655
Mg10 Mg6 3.059080 1_655
Mg10 Mg8 3.192012 1_545
Mg10 Mg6 3.192012 1_555
Mg10 Mg12 3.359182 1_545
Mg10 Mg12 3.359182 1_555
Mg11 Mg2 2.920502 1_556
Mg11 Mg4 2.920510 1_546
Mg11 Mg3 3.022570 1_555
Mg11 Mg5 3.022577 1_545
Mg11 Mg9 3.059080 1_655
Mg11 Mg7 3.059080 1_655
Mg11 Mg9 3.192012 1_545
Mg11 Mg7 3.192012 1_555
Mg11 Mg13 3.359182 1_545
Mg11 Mg13 3.359182 1_555
Mg12 Mg4 2.981641 1_555
Mg12 Mg2 2.981649 1_555
Mg12 Mg5 3.018991 1_555
Mg12 Mg3 3.018998 1_555
Mg12 Mg6 3.103603 1_665
Mg12 Mg8 3.103604 1_655
Mg12 Mg6 3.156701 1_555
Mg12 Mg8 3.156701 1_555
Mg13 Mg4 2.981641 1_556
Mg13 Mg2 2.981649 1_556
Mg13 Mg5 3.018991 1_555
Mg13 Mg3 3.018998 1_555
Mg13 Mg7 3.103603 1_665
Mg13 Mg9 3.103604 1_655
Mg13 Mg7 3.156701 1_555
Mg13 Mg9 3.156701 1_555
Ga0 Mg9 2.745154 1_554
Ga0 Mg8 2.745154 1_555
Ga0 Mg7 2.745163 1_564
Ga0 Mg6 2.745163 1_565
Ga0 Mg2 2.854880 1_455
Ga0 Mg4 2.854880 1_455
Ga0 Mg13 3.083432 1_454
Ga0 Mg12 3.083432 1_455
Ga0 Mg2 3.333462 1_565
Ga0 Mg4 3.333463 1_555
B0 Mg4 2.467708 1_445
B0 Mg2 2.467708 1_455
B0 Mg7 2.647297 1_554
B0 Mg6 2.647297 1_555
B0 Mg9 2.647304 1_554
B0 Mg8 2.647304 1_555
B0 Mg11 2.923868 1_454
B0 Mg10 2.923868 1_455
