# generated using pymatgen
data_MnSiO3
_symmetry_space_group_name_H-M   'P 1'
_cell_length_a   9.18448892
_cell_length_b   5.32058606
_cell_length_c   9.59242647
_cell_angle_alpha   77.01389573
_cell_angle_beta   90.00000000
_cell_angle_gamma   90.00000000
_symmetry_Int_Tables_number   1
_chemical_formula_structural   MnSiO3
_chemical_formula_sum   'Mn8 Si8 O24'
_cell_volume   456.76327948
_cell_formula_units_Z   8
loop_
 _symmetry_equiv_pos_site_id
 _symmetry_equiv_pos_as_xyz
  1  'x, y, z'
loop_
 _atom_site_type_symbol
 _atom_site_label
 _atom_site_symmetry_multiplicity
 _atom_site_fract_x
 _atom_site_fract_y
 _atom_site_fract_z
 _atom_site_occupancy
  Mn  Mn0  1  0.15118882  0.51767894  0.74862958  1
  Mn  Mn1  1  0.34881118  0.01767894  0.74862958  1
  Mn  Mn2  1  0.01527424  0.97922032  0.25227692  1
  Mn  Mn3  1  0.98472576  0.02077968  0.74772308  1
  Mn  Mn4  1  0.51527424  0.52077968  0.74772308  1
  Mn  Mn5  1  0.65118882  0.98232106  0.25137042  1
  Mn  Mn6  1  0.84881118  0.48232106  0.25137042  1
  Mn  Mn7  1  0.48472576  0.47922032  0.25227692  1
  Si  Si0  1  0.16201945  0.74183804  0.04471582  1
  Si  Si1  1  0.66201945  0.75816196  0.95528418  1
  Si  Si2  1  0.83798055  0.25816196  0.95528418  1
  Si  Si3  1  0.16461005  0.30193055  0.44937163  1
  Si  Si4  1  0.83538995  0.69806945  0.55062837  1
  Si  Si5  1  0.33538995  0.80193055  0.44937163  1
  Si  Si6  1  0.33798055  0.24183804  0.04471582  1
  Si  Si7  1  0.66461005  0.19806945  0.55062837  1
  O  O0  1  0.00593850  0.71783892  0.12139346  1
  O  O1  1  0.26083036  0.48108049  0.10286709  1
  O  O2  1  0.65782299  0.26840863  0.37707301  1
  O  O3  1  0.15782299  0.23159137  0.62292699  1
  O  O4  1  0.50593850  0.78216108  0.87860654  1
  O  O5  1  0.34012871  0.30559253  0.87154215  1
  O  O6  1  0.99406150  0.28216108  0.87860654  1
  O  O7  1  0.71242798  0.89005786  0.60128779  1
  O  O8  1  0.15987129  0.80559253  0.87154215  1
  O  O9  1  0.65987129  0.69440747  0.12845785  1
  O  O10  1  0.23916964  0.98108049  0.10286709  1
  O  O11  1  0.49406150  0.21783892  0.12139346  1
  O  O12  1  0.76083036  0.01891951  0.89713291  1
  O  O13  1  0.98274120  0.74556847  0.63060251  1
  O  O14  1  0.21242798  0.60994214  0.39871221  1
  O  O15  1  0.01725880  0.25443153  0.36939749  1
  O  O16  1  0.78757202  0.39005786  0.60128779  1
  O  O17  1  0.84217701  0.76840863  0.37707301  1
  O  O18  1  0.73916964  0.51891951  0.89713291  1
  O  O19  1  0.51725880  0.24556847  0.63060251  1
  O  O20  1  0.84012871  0.19440747  0.12845785  1
  O  O21  1  0.34217701  0.73159137  0.62292699  1
  O  O22  1  0.48274120  0.75443153  0.36939749  1
  O  O23  1  0.28757202  0.10994214  0.39871221  1
loop_
_geom_bond_atom_site_label_1
_geom_bond_atom_site_label_2
_geom_bond_distance
_geom_bond_site_symmetry_2
Mn0 O6 2.122548 1_455
Mn0 O13 2.128038 1_455
Mn0 O8 2.134202 1_555
Mn0 O3 2.144641 1_555
Mn0 O5 2.253183 1_555
Mn0 O21 2.282430 1_555
Mn1 O4 2.122548 1_545
Mn1 O19 2.128038 1_555
Mn1 O5 2.134202 1_555
Mn1 O21 2.144641 1_545
Mn1 O8 2.253183 1_545
Mn1 O3 2.282430 1_555
Mn2 O15 2.036172 1_565
Mn2 O0 2.074215 1_555
Mn2 O17 2.148293 1_455
Mn2 O20 2.167497 1_465
Mn2 O10 2.505280 1_555
Mn2 O14 2.805694 1_555
Mn3 O13 2.036172 1_545
Mn3 O6 2.074215 1_555
Mn3 O3 2.148293 1_655
Mn3 O8 2.167497 1_645
Mn3 O12 2.505280 1_555
Mn3 O16 2.805694 1_555
Mn4 O19 2.036172 1_555
Mn4 O4 2.074215 1_555
Mn4 O21 2.148293 1_555
Mn4 O5 2.167497 1_555
Mn4 O18 2.505280 1_555
Mn4 O7 2.805694 1_555
Mn5 O11 2.122548 1_565
Mn5 O22 2.128038 1_555
Mn5 O9 2.134202 1_555
Mn5 O2 2.144641 1_565
Mn5 O20 2.253183 1_565
Mn5 O17 2.282430 1_555
Mn6 O0 2.122548 1_655
Mn6 O15 2.128038 1_655
Mn6 O20 2.134202 1_555
Mn6 O17 2.144641 1_555
Mn6 O9 2.253183 1_555
Mn6 O2 2.282430 1_555
Mn7 O22 2.036172 1_555
Mn7 O11 2.074215 1_555
Mn7 O2 2.148293 1_555
Mn7 O9 2.167497 1_555
Mn7 O1 2.505280 1_555
Mn7 O23 2.805694 1_555
O0 Si0 1.603147 1_555
O1 Si0 1.646748 1_555
O1 Si6 1.659115 1_555
O2 Si7 1.623436 1_555
O3 Si3 1.623436 1_555
O4 Si1 1.603147 1_555
O5 Si6 1.619150 1_556
O6 Si2 1.603147 1_555
O7 Si7 1.660357 1_565
O7 Si4 1.666762 1_555
O8 Si0 1.619150 1_556
O9 Si1 1.619150 1_554
O10 Si6 1.646748 1_565
O10 Si0 1.659115 1_555
O11 Si6 1.603147 1_555
O12 Si1 1.646748 1_545
O12 Si2 1.659115 1_555
O13 Si4 1.603453 1_555
O14 Si3 1.660357 1_555
O14 Si5 1.666762 1_555
O15 Si3 1.603453 1_555
O16 Si4 1.660357 1_555
O16 Si7 1.666762 1_555
O17 Si4 1.623436 1_555
O18 Si2 1.646748 1_555
O18 Si1 1.659115 1_555
O19 Si7 1.603453 1_555
O20 Si2 1.619150 1_554
O21 Si5 1.623436 1_555
O22 Si5 1.603453 1_555
O23 Si5 1.660357 1_545
O23 Si3 1.666762 1_555
