# generated using pymatgen
data_BaMnPClO4F
_symmetry_space_group_name_H-M   'P 1'
_cell_length_a   8.71032100
_cell_length_b   7.34611300
_cell_length_c   9.06037950
_cell_angle_alpha   72.49412290
_cell_angle_beta   90.00000000
_cell_angle_gamma   90.00000000
_symmetry_Int_Tables_number   1
_chemical_formula_structural   BaMnPClO4F
_chemical_formula_sum   'Ba4 Mn4 P4 Cl4 O16 F4'
_cell_volume   552.89620230
_cell_formula_units_Z   4
loop_
 _symmetry_equiv_pos_site_id
 _symmetry_equiv_pos_as_xyz
  1  'x, y, z'
loop_
 _atom_site_type_symbol
 _atom_site_label
 _atom_site_symmetry_multiplicity
 _atom_site_fract_x
 _atom_site_fract_y
 _atom_site_fract_z
 _atom_site_occupancy
  Ba  Ba0  1  0.76830800  0.04197200  0.11541600  1
  Ba  Ba1  1  0.26830800  0.95802800  0.38458400  1
  Ba  Ba2  1  0.23169200  0.95802800  0.88458400  1
  Ba  Ba3  1  0.73169200  0.04197200  0.61541600  1
  Mn  Mn0  1  0.99859200  0.38867700  0.77400200  1
  Mn  Mn1  1  0.49859200  0.61132300  0.72599800  1
  Mn  Mn2  1  0.00140800  0.61132300  0.22599800  1
  Mn  Mn3  1  0.50140800  0.38867700  0.27400200  1
  P  P0  1  0.75145000  0.55274200  0.98790900  1
  P  P1  1  0.25145000  0.44725800  0.51209100  1
  P  P2  1  0.24855000  0.44725800  0.01209100  1
  P  P3  1  0.74855000  0.55274200  0.48790900  1
  Cl  Cl0  1  0.03384300  0.76762300  0.67246300  1
  Cl  Cl1  1  0.53384300  0.23237700  0.82753700  1
  Cl  Cl2  1  0.96615700  0.23237700  0.32753700  1
  Cl  Cl3  1  0.46615700  0.76762300  0.17246300  1
  O  O0  1  0.65151000  0.41117200  0.11204400  1
  O  O1  1  0.15151000  0.58882800  0.38795600  1
  O  O2  1  0.34849000  0.58882800  0.88795600  1
  O  O3  1  0.84849000  0.41117200  0.61204400  1
  O  O4  1  0.85374300  0.41702200  0.92878100  1
  O  O5  1  0.35374300  0.58297800  0.57121900  1
  O  O6  1  0.14625700  0.58297800  0.07121900  1
  O  O7  1  0.64625700  0.41702200  0.42878100  1
  O  O8  1  0.65512400  0.68687100  0.85607000  1
  O  O9  1  0.15512400  0.31312900  0.64393000  1
  O  O10  1  0.34487600  0.31312900  0.14393000  1
  O  O11  1  0.84487600  0.68687100  0.35607000  1
  O  O12  1  0.84604900  0.68383600  0.05931300  1
  O  O13  1  0.34604900  0.31616400  0.44068700  1
  O  O14  1  0.15395100  0.31616400  0.94068700  1
  O  O15  1  0.65395100  0.68383600  0.55931300  1
  F  F0  1  0.93020900  0.09172200  0.84424000  1
  F  F1  1  0.43020900  0.90827800  0.65576000  1
  F  F2  1  0.06979100  0.90827800  0.15576000  1
  F  F3  1  0.56979100  0.09172200  0.34424000  1
loop_
_geom_bond_atom_site_label_1
_geom_bond_atom_site_label_2
_geom_bond_distance
_geom_bond_site_symmetry_2
Ba0 F0 2.760198 1_554
Ba0 F2 2.788936 1_645
Ba0 F3 2.806715 1_555
Ba0 O4 2.863786 1_554
Ba0 O0 2.888257 1_555
Ba0 O12 2.905707 1_545
Ba0 O11 2.929507 1_545
Ba0 Cl2 3.199573 1_555
Ba0 Cl3 3.260189 1_545
Ba0 Cl1 3.276530 1_554
Ba1 F1 2.760198 1_555
Ba1 F3 2.788936 1_565
Ba1 F2 2.806715 1_555
Ba1 O5 2.863786 1_555
Ba1 O1 2.888257 1_555
Ba1 O13 2.905707 1_565
Ba1 O10 2.929507 1_565
Ba1 Cl3 3.199573 1_555
Ba1 Cl2 3.260189 1_465
Ba1 Cl0 3.276530 1_555
Ba2 F2 2.760198 1_556
Ba2 F0 2.788936 1_465
Ba2 F1 2.806715 1_555
Ba2 O6 2.863786 1_556
Ba2 O2 2.888257 1_555
Ba2 O14 2.905707 1_565
Ba2 O9 2.929507 1_565
Ba2 Cl0 3.199573 1_555
Ba2 Cl1 3.260189 1_565
Ba2 Cl3 3.276530 1_556
Ba3 F3 2.760198 1_555
Ba3 F1 2.788936 1_545
Ba3 F0 2.806715 1_555
Ba3 O7 2.863786 1_555
Ba3 O3 2.888257 1_555
Ba3 O15 2.905707 1_545
Ba3 O8 2.929507 1_545
Ba3 Cl1 3.199573 1_555
Ba3 Cl0 3.260189 1_645
Ba3 Cl2 3.276530 1_555
Mn0 O3 1.934963 1_555
Mn0 O4 1.943573 1_555
Mn0 O14 1.977825 1_655
Mn0 O9 1.987293 1_655
Mn1 O2 1.934963 1_555
Mn1 O5 1.943573 1_555
Mn1 O15 1.977825 1_555
Mn1 O8 1.987293 1_555
Mn2 O1 1.934963 1_555
Mn2 O6 1.943573 1_555
Mn2 O12 1.977825 1_455
Mn2 O11 1.987293 1_455
Mn3 O0 1.934963 1_555
Mn3 O7 1.943573 1_555
Mn3 O13 1.977825 1_555
Mn3 O10 1.987293 1_555
Cl0 Mn0 2.673826 1_455
Cl1 Mn1 2.673826 1_555
Cl2 Mn2 2.673826 1_655
Cl3 Mn3 2.673826 1_555
O0 P0 1.549402 1_554
O1 P1 1.549402 1_555
O2 P2 1.549402 1_556
O3 P3 1.549402 1_555
O4 P0 1.547985 1_555
O5 P1 1.547985 1_555
O6 P2 1.547985 1_555
O7 P3 1.547985 1_555
O8 P0 1.547132 1_555
O9 P1 1.547132 1_555
O10 P2 1.547132 1_555
O11 P3 1.547132 1_555
O12 P0 1.549111 1_554
O13 P1 1.549111 1_555
O14 P2 1.549111 1_556
O15 P3 1.549111 1_555
F0 Mn0 2.164111 1_555
F1 Mn1 2.164111 1_555
F2 Mn2 2.164111 1_555
F3 Mn3 2.164111 1_555
