# generated using pymatgen
data_LiV3O4
_symmetry_space_group_name_H-M   'P 1'
_cell_length_a   6.06630880
_cell_length_b   6.11060395
_cell_length_c   6.10680833
_cell_angle_alpha   89.96722835
_cell_angle_beta   60.21083542
_cell_angle_gamma   119.76420928
_symmetry_Int_Tables_number   1
_chemical_formula_structural   LiV3O4
_chemical_formula_sum   'Li2 V6 O8'
_cell_volume   161.09887459
_cell_formula_units_Z   2
loop_
 _symmetry_equiv_pos_site_id
 _symmetry_equiv_pos_as_xyz
  1  'x, y, z'
loop_
 _atom_site_type_symbol
 _atom_site_label
 _atom_site_symmetry_multiplicity
 _atom_site_fract_x
 _atom_site_fract_y
 _atom_site_fract_z
 _atom_site_occupancy
  Li  Li0  1  0.99997300  0.50002100  0.00001400  1
  Li  Li1  1  0.49997400  0.50002100  0.00001500  1
  V  V0  1  0.49997000  0.00002000  0.00001200  1
  V  V1  1  0.99997200  0.00002200  0.00001300  1
  V  V2  1  0.99996800  0.50001000  0.50000900  1
  V  V3  1  0.49997100  0.50001600  0.50000900  1
  V  V4  1  0.99995800  0.00002600  0.50002000  1
  V  V5  1  0.49996900  0.00002700  0.50001100  1
  O  O0  1  0.01732100  0.75918200  0.74152800  1
  O  O1  1  0.50041200  0.75932500  0.74128300  1
  O  O2  1  0.49952800  0.24072000  0.25874300  1
  O  O3  1  0.98262000  0.24086300  0.25849800  1
  O  O4  1  0.00090500  0.74894600  0.24691600  1
  O  O5  1  0.50105900  0.76061500  0.25855200  1
  O  O6  1  0.49887600  0.23943000  0.74147700  1
  O  O7  1  0.99902900  0.25109800  0.75311200  1
loop_
_geom_bond_atom_site_label_1
_geom_bond_atom_site_label_2
_geom_bond_distance
_geom_bond_site_symmetry_2
Li0 O7 2.142347 1_554
Li0 O4 2.142356 1_655
Li0 O3 2.162667 1_555
Li0 O0 2.162709 1_654
Li0 O1 2.162974 1_654
Li0 O2 2.162997 1_555
Li1 O0 2.233662 1_654
Li1 O3 2.233692 1_455
Li1 O2 2.235093 1_555
Li1 O1 2.235158 1_554
Li1 O6 2.243038 1_554
Li1 O5 2.243046 1_555
O0 V5 2.083813 1_565
O0 V4 2.158226 1_465
O0 V1 2.158703 1_466
O0 V2 2.164708 1_455
O1 V5 2.083184 1_565
O1 V4 2.157128 1_565
O1 V0 2.159173 1_566
O1 V3 2.164275 1_555
O2 V5 2.083119 1_555
O2 V4 2.157233 1_455
O2 V0 2.159202 1_555
O2 V3 2.164183 1_555
O3 V5 2.083825 1_555
O3 V4 2.158146 1_555
O3 V1 2.158708 1_555
O3 V2 2.164564 1_555
O4 V1 2.154476 1_465
O4 V0 2.154740 1_565
O4 V3 2.162907 1_455
O4 V2 2.163972 1_455
O4 V4 2.178453 1_465
O5 V5 2.077724 1_565
O5 V1 2.155531 1_565
O5 V0 2.156443 1_565
O5 V3 2.165015 1_555
O5 V2 2.165153 1_455
O6 V5 2.077715 1_555
O6 V1 2.155491 1_456
O6 V0 2.156462 1_556
O6 V3 2.164972 1_555
O6 V2 2.165151 1_555
O7 V1 2.154510 1_556
O7 V0 2.154715 1_556
O7 V3 2.162942 1_655
O7 V2 2.163904 1_555
O7 V4 2.178366 1_555
