# generated using pymatgen
data_NaNdTi4O12
_symmetry_space_group_name_H-M   'P 1'
_cell_length_a   5.44876267
_cell_length_b   5.44876267
_cell_length_c   7.88632350
_cell_angle_alpha   90.00000000
_cell_angle_beta   90.00000000
_cell_angle_gamma   90.00000000
_symmetry_Int_Tables_number   1
_chemical_formula_structural   NaNdTi4O12
_chemical_formula_sum   'Na1 Nd1 Ti4 O12'
_cell_volume   234.13717380
_cell_formula_units_Z   1
loop_
 _symmetry_equiv_pos_site_id
 _symmetry_equiv_pos_as_xyz
  1  'x, y, z'
loop_
 _atom_site_type_symbol
 _atom_site_label
 _atom_site_symmetry_multiplicity
 _atom_site_fract_x
 _atom_site_fract_y
 _atom_site_fract_z
 _atom_site_occupancy
  Na  Na0  1  0.50000000  0.50000000  0.50000000  1
  Nd  Nd0  1  0.00000000  -0.00000000  0.00000000  1
  Ti  Ti0  1  0.00000000  0.50000000  0.73839517  1
  Ti  Ti1  1  0.00000000  0.50000000  0.26160483  1
  Ti  Ti2  1  0.50000000  -0.00000000  0.73839517  1
  Ti  Ti3  1  0.50000000  0.00000000  0.26160483  1
  O  O0  1  0.24332751  0.24332751  0.76680620  1
  O  O1  1  0.24332751  0.24332751  0.23319380  1
  O  O2  1  0.75667249  0.75667249  0.76680620  1
  O  O3  1  0.75667249  0.75667249  0.23319380  1
  O  O4  1  0.75667249  0.24332751  0.76680620  1
  O  O5  1  0.75667249  0.24332751  0.23319380  1
  O  O6  1  0.24332751  0.75667249  0.76680620  1
  O  O7  1  0.24332751  0.75667249  0.23319380  1
  O  O8  1  0.00000000  0.50000000  0.50000000  1
  O  O9  1  0.00000000  0.50000000  0.00000000  1
  O  O10  1  0.50000000  0.00000000  0.50000000  1
  O  O11  1  0.50000000  -0.00000000  0.00000000  1
loop_
_geom_bond_atom_site_label_1
_geom_bond_atom_site_label_2
_geom_bond_distance
_geom_bond_site_symmetry_2
Na0 O8 2.724381 1_655
Na0 O10 2.724381 1_555
Na0 O10 2.724381 1_565
Na0 O8 2.724381 1_555
Na0 O6 2.887766 1_555
Na0 O3 2.887766 1_555
Na0 O1 2.887766 1_555
Na0 O7 2.887766 1_555
Na0 O0 2.887766 1_555
Na0 O4 2.887766 1_555
Na0 O2 2.887766 1_555
Na0 O5 2.887766 1_555
Nd0 O0 2.626356 1_554
Nd0 O2 2.626356 1_444
Nd0 O4 2.626356 1_454
Nd0 O1 2.626356 1_555
Nd0 O3 2.626356 1_445
Nd0 O6 2.626356 1_544
Nd0 O5 2.626356 1_455
Nd0 O7 2.626356 1_545
Nd0 O11 2.724381 1_455
Nd0 O9 2.724381 1_545
Nd0 O11 2.724381 1_555
Nd0 O9 2.724381 1_555
O0 Ti0 1.940096 1_555
O0 Ti2 1.940096 1_555
O1 Ti3 1.940096 1_555
O1 Ti1 1.940096 1_555
O2 Ti0 1.940096 1_655
O2 Ti2 1.940096 1_565
O3 Ti1 1.940096 1_655
O3 Ti3 1.940096 1_565
O4 Ti0 1.940096 1_655
O4 Ti2 1.940096 1_555
O5 Ti1 1.940096 1_655
O5 Ti3 1.940096 1_555
O6 Ti0 1.940096 1_555
O6 Ti2 1.940096 1_565
O7 Ti3 1.940096 1_565
O7 Ti1 1.940096 1_555
O8 Ti1 1.880061 1_555
O8 Ti0 1.880061 1_555
O9 Ti1 2.063100 1_555
O9 Ti0 2.063100 1_554
O10 Ti2 1.880061 1_555
O10 Ti3 1.880061 1_555
O11 Ti3 2.063100 1_555
O11 Ti2 2.063100 1_554
