# generated using pymatgen
data_Ba2SrTm6O12
_symmetry_space_group_name_H-M   'P 1'
_cell_length_a   3.44193200
_cell_length_b   10.36330101
_cell_length_c   10.36334466
_cell_angle_alpha   119.99966062
_cell_angle_beta   89.99977127
_cell_angle_gamma   89.99993517
_symmetry_Int_Tables_number   1
_chemical_formula_structural   Ba2SrTm6O12
_chemical_formula_sum   'Ba2 Sr1 Tm6 O12'
_cell_volume   320.13448423
_cell_formula_units_Z   1
loop_
 _symmetry_equiv_pos_site_id
 _symmetry_equiv_pos_as_xyz
  1  'x, y, z'
loop_
 _atom_site_type_symbol
 _atom_site_label
 _atom_site_symmetry_multiplicity
 _atom_site_fract_x
 _atom_site_fract_y
 _atom_site_fract_z
 _atom_site_occupancy
  Ba  Ba0  1  0.50443100  0.00000200  0.00000100  1
  Ba  Ba1  1  0.74809300  0.66666800  0.33333300  1
  Sr  Sr0  1  0.25255100  0.33333000  0.66666800  1
  Tm  Tm0  1  0.75587400  0.34523200  0.99458300  1
  Tm  Tm1  1  0.75587200  0.00541700  0.35064900  1
  Tm  Tm2  1  0.75586500  0.64934600  0.65476300  1
  Tm  Tm3  1  0.24274100  0.65123100  0.99811600  1
  Tm  Tm4  1  0.24276100  0.00188600  0.65311600  1
  Tm  Tm5  1  0.24276900  0.34688500  0.34877300  1
  O  O0  1  0.74488000  0.88611400  0.69524100  1
  O  O1  1  0.74487900  0.30475900  0.19087400  1
  O  O2  1  0.74488800  0.80912900  0.11388200  1
  O  O3  1  0.25408400  0.11027200  0.29639000  1
  O  O4  1  0.25408100  0.70361300  0.81388100  1
  O  O5  1  0.25408100  0.18611800  0.88973100  1
  O  O6  1  0.74990700  0.12672000  0.60699000  1
  O  O7  1  0.74990800  0.39301100  0.51973100  1
  O  O8  1  0.74990700  0.48026800  0.87327800  1
  O  O9  1  0.25081000  0.89063000  0.40234600  1
  O  O10  1  0.25080700  0.59765100  0.48828200  1
  O  O11  1  0.25081200  0.51171800  0.10937100  1
loop_
_geom_bond_atom_site_label_1
_geom_bond_atom_site_label_2
_geom_bond_distance
_geom_bond_site_symmetry_2
Ba0 O5 2.823600 1_554
Ba0 O3 2.823638 1_555
Ba0 O4 2.823644 1_544
Ba0 O2 2.885322 1_545
Ba0 O1 2.885352 1_555
Ba0 O0 2.885374 1_544
Ba1 O9 2.677337 1_555
Ba1 O11 2.677355 1_555
Ba1 O10 2.677367 1_555
Ba1 O9 2.689339 1_655
Ba1 O11 2.689345 1_655
Ba1 O10 2.689356 1_655
O0 Tm4 2.256212 1_665
O0 Tm4 2.267311 1_565
O0 Tm2 2.273488 1_555
O1 Tm5 2.256258 1_655
O1 Tm5 2.267300 1_555
O1 Tm0 2.273471 1_554
O2 Tm3 2.256134 1_654
O2 Tm3 2.267390 1_554
O2 Tm1 2.273490 1_565
O3 Tm5 2.231106 1_555
O3 Tm1 2.246904 1_455
O3 Tm1 2.256313 1_555
O4 Tm3 2.231154 1_555
O4 Tm2 2.246943 1_455
O4 Tm2 2.256318 1_555
O5 Tm4 2.231142 1_555
O5 Tm0 2.246888 1_455
O5 Tm0 2.256331 1_555
O6 Tm1 2.301840 1_555
O6 Tm4 2.323407 1_655
O6 Tm4 2.359562 1_555
O6 Sr0 2.563849 1_555
O6 Sr0 2.576044 1_655
O7 Tm2 2.301776 1_555
O7 Tm5 2.323412 1_655
O7 Tm5 2.359544 1_555
O7 Sr0 2.563905 1_555
O7 Sr0 2.576096 1_655
O8 Tm0 2.301822 1_555
O8 Tm3 2.323390 1_655
O8 Tm3 2.359636 1_555
O8 Sr0 2.563879 1_555
O8 Sr0 2.576053 1_655
O9 Tm4 2.255576 1_565
O9 Tm1 2.289429 1_465
O9 Tm1 2.315474 1_565
O10 Tm5 2.255530 1_555
O10 Tm2 2.289424 1_455
O10 Tm2 2.315460 1_555
O11 Tm3 2.255543 1_554
O11 Tm0 2.289451 1_454
O11 Tm0 2.315487 1_554
