# generated using pymatgen
data_Mg(CuN)3
_symmetry_space_group_name_H-M   'P 1'
_cell_length_a   4.13828700
_cell_length_b   4.13828700
_cell_length_c   4.13828700
_cell_angle_alpha   90.00000000
_cell_angle_beta   90.00000000
_cell_angle_gamma   90.00000000
_symmetry_Int_Tables_number   1
_chemical_formula_structural   Mg(CuN)3
_chemical_formula_sum   'Mg1 Cu3 N3'
_cell_volume   70.86990004
_cell_formula_units_Z   1
loop_
 _symmetry_equiv_pos_site_id
 _symmetry_equiv_pos_as_xyz
  1  'x, y, z'
loop_
 _atom_site_type_symbol
 _atom_site_label
 _atom_site_symmetry_multiplicity
 _atom_site_fract_x
 _atom_site_fract_y
 _atom_site_fract_z
 _atom_site_occupancy
  Mg  Mg0  1  0.50000000  0.50000000  0.50000000  1
  Cu  Cu0  1  0.00000000  0.50000000  0.00000000  1
  Cu  Cu1  1  0.00000000  0.00000000  0.50000000  1
  Cu  Cu2  1  0.50000000  0.00000000  0.00000000  1
  N  N0  1  0.50000000  0.00000000  0.50000000  1
  N  N1  1  0.50000000  0.50000000  0.00000000  1
  N  N2  1  0.00000000  0.50000000  0.50000000  1
loop_
_geom_bond_atom_site_label_1
_geom_bond_atom_site_label_2
_geom_bond_distance
_geom_bond_site_symmetry_2
Mg0 N2 2.069144 1_655
Mg0 N1 2.069144 1_555
Mg0 N1 2.069144 1_556
Mg0 N0 2.069144 1_565
Mg0 N2 2.069144 1_555
Mg0 N0 2.069144 1_555
Cu0 N2 2.069144 1_554
Cu0 N2 2.069144 1_555
Cu0 N1 2.069144 1_455
Cu0 N1 2.069144 1_555
Cu1 N0 2.069144 1_555
Cu1 N2 2.069144 1_555
Cu1 N0 2.069144 1_455
Cu1 N2 2.069144 1_545
Cu2 N0 2.069144 1_555
Cu2 N1 2.069144 1_545
Cu2 N0 2.069144 1_554
Cu2 N1 2.069144 1_555
