# generated using pymatgen
data_Zn4Cr5(TeO6)3
_symmetry_space_group_name_H-M   'P 1'
_cell_length_a   8.72837576
_cell_length_b   8.72837576
_cell_length_c   10.57415306
_cell_angle_alpha   85.33588592
_cell_angle_beta   85.33588592
_cell_angle_gamma   63.22634643
_symmetry_Int_Tables_number   1
_chemical_formula_structural   Zn4Cr5(TeO6)3
_chemical_formula_sum   'Zn8 Cr10 Te6 O36'
_cell_volume   715.93638613
_cell_formula_units_Z   2
loop_
 _symmetry_equiv_pos_site_id
 _symmetry_equiv_pos_as_xyz
  1  'x, y, z'
loop_
 _atom_site_type_symbol
 _atom_site_label
 _atom_site_symmetry_multiplicity
 _atom_site_fract_x
 _atom_site_fract_y
 _atom_site_fract_z
 _atom_site_occupancy
  Zn  Zn0  1  0.34855100  0.05985800  0.06667800  1
  Zn  Zn1  1  0.37728400  0.67814900  0.96395400  1
  Zn  Zn2  1  0.94014200  0.65144900  0.43332200  1
  Zn  Zn3  1  0.32185100  0.62271600  0.53604600  1
  Zn  Zn4  1  0.67814900  0.37728400  0.46395400  1
  Zn  Zn5  1  0.05985800  0.34855100  0.56667800  1
  Zn  Zn6  1  0.65144900  0.94014200  0.93332200  1
  Zn  Zn7  1  0.62271600  0.32185100  0.03604600  1
  Cr  Cr0  1  0.31572100  0.99215500  0.72828600  1
  Cr  Cr1  1  0.99215500  0.31572100  0.22828600  1
  Cr  Cr2  1  0.14682700  0.52328800  0.04190900  1
  Cr  Cr3  1  0.52328800  0.14682700  0.54190900  1
  Cr  Cr4  1  0.47671200  0.85317300  0.45809100  1
  Cr  Cr5  1  0.82867900  0.17132100  0.75000000  1
  Cr  Cr6  1  0.17132100  0.82867900  0.25000000  1
  Cr  Cr7  1  0.85317300  0.47671200  0.95809100  1
  Cr  Cr8  1  0.68427900  0.00784500  0.27171400  1
  Cr  Cr9  1  0.00784500  0.68427900  0.77171400  1
  Te  Te0  1  0.66512200  0.64604100  0.70786000  1
  Te  Te1  1  0.00000000  0.00000000  0.00000000  1
  Te  Te2  1  0.00000000  0.00000000  0.50000000  1
  Te  Te3  1  0.64604100  0.66512200  0.20786000  1
  Te  Te4  1  0.33487800  0.35395900  0.29214000  1
  Te  Te5  1  0.35395900  0.33487800  0.79214000  1
  O  O0  1  0.94429800  0.59113600  0.62256800  1
  O  O1  1  0.25056600  0.91885500  0.56393000  1
  O  O2  1  0.41213400  0.75840800  0.31270900  1
  O  O3  1  0.93131200  0.91994000  0.17987800  1
  O  O4  1  0.08114500  0.74943400  0.93607000  1
  O  O5  1  0.08006000  0.06868800  0.32012200  1
  O  O6  1  0.61253200  0.55724100  0.04201700  1
  O  O7  1  0.89270700  0.24601100  0.57616200  1
  O  O8  1  0.10729300  0.75398900  0.42383800  1
  O  O9  1  0.22183300  0.28302400  0.13934400  1
  O  O10  1  0.43153700  0.75082900  0.79599100  1
  O  O11  1  0.77816700  0.71697600  0.86065600  1
  O  O12  1  0.74943400  0.08114500  0.43607000  1
  O  O13  1  0.54010100  0.92091600  0.61730900  1
  O  O14  1  0.24917100  0.56846300  0.70400900  1
  O  O15  1  0.38746800  0.44275900  0.95798300  1
  O  O16  1  0.56846300  0.24917100  0.20400900  1
  O  O17  1  0.07908400  0.45989900  0.88269100  1
  O  O18  1  0.24159200  0.58786600  0.18729100  1
  O  O19  1  0.75082900  0.43153700  0.29599100  1
  O  O20  1  0.59113600  0.94429800  0.12256800  1
  O  O21  1  0.45989900  0.07908400  0.38269100  1
  O  O22  1  0.75398900  0.10729300  0.92383800  1
  O  O23  1  0.55724100  0.61253200  0.54201700  1
  O  O24  1  0.58786600  0.24159200  0.68729100  1
  O  O25  1  0.91994000  0.93131200  0.67987800  1
  O  O26  1  0.28302400  0.22183300  0.63934400  1
  O  O27  1  0.44275900  0.38746800  0.45798300  1
  O  O28  1  0.91885500  0.25056600  0.06393000  1
  O  O29  1  0.92091600  0.54010100  0.11730900  1
  O  O30  1  0.05570200  0.40886400  0.37743200  1
  O  O31  1  0.06868800  0.08006000  0.82012200  1
  O  O32  1  0.24601100  0.89270700  0.07616200  1
  O  O33  1  0.71697600  0.77816700  0.36065600  1
  O  O34  1  0.75840800  0.41213400  0.81270900  1
  O  O35  1  0.40886400  0.05570200  0.87743200  1
loop_
_geom_bond_atom_site_label_1
_geom_bond_atom_site_label_2
_geom_bond_distance
_geom_bond_site_symmetry_2
Cr0 O10 1.981255 1_555
Cr0 O26 2.050958 1_565
Cr0 O35 2.052524 1_565
Cr0 O13 2.060848 1_555
Cr0 O1 2.102973 1_555
Cr0 O31 2.114488 1_565
Cr1 O19 1.981255 1_555
Cr1 O9 2.050958 1_655
Cr1 O30 2.052524 1_655
Cr1 O29 2.060848 1_555
Cr1 O28 2.102973 1_555
Cr1 O5 2.114488 1_655
Cr2 O29 2.011964 1_455
Cr2 O17 2.024440 1_554
Cr2 O18 2.032954 1_555
Cr2 O15 2.039982 1_554
Cr2 O4 2.050117 1_554
Cr2 O9 2.099853 1_555
Cr3 O13 2.011964 1_545
Cr3 O21 2.024440 1_555
Cr3 O24 2.032954 1_555
Cr3 O27 2.039982 1_555
Cr3 O12 2.050117 1_555
Cr3 O26 2.099853 1_555
Cr4 O21 2.011964 1_565
Cr4 O13 2.024440 1_555
Cr4 O2 2.032954 1_555
Cr4 O23 2.039982 1_555
Cr4 O1 2.050117 1_555
Cr4 O33 2.099853 1_555
Cr5 O7 2.020533 1_555
Cr5 O22 2.020533 1_555
Cr5 O25 2.055730 1_545
Cr5 O31 2.055730 1_655
Cr5 O34 2.057410 1_555
Cr5 O24 2.057410 1_555
Cr6 O8 2.020533 1_555
Cr6 O32 2.020533 1_555
Cr6 O3 2.055730 1_455
Cr6 O5 2.055730 1_565
Cr6 O2 2.057410 1_555
Cr6 O18 2.057410 1_555
Cr7 O17 2.011964 1_655
Cr7 O29 2.024440 1_556
Cr7 O34 2.032954 1_555
Cr7 O6 2.039982 1_556
Cr7 O28 2.050117 1_556
Cr7 O11 2.099853 1_555
Cr8 O16 1.981255 1_555
Cr8 O33 2.050958 1_545
Cr8 O20 2.052524 1_545
Cr8 O21 2.060848 1_555
Cr8 O12 2.102973 1_555
Cr8 O3 2.114488 1_545
Cr9 O14 1.981255 1_555
Cr9 O11 2.050958 1_455
Cr9 O0 2.052524 1_455
Cr9 O17 2.060848 1_555
Cr9 O4 2.102973 1_555
Cr9 O25 2.114488 1_455
O0 Zn5 2.008073 1_655
O0 Zn2 2.026375 1_555
O0 Te0 2.375213 1_555
O1 Te2 2.123386 1_565
O1 Zn3 2.408420 1_555
O2 Te3 2.083610 1_555
O3 Te1 2.107466 1_665
O4 Te1 2.123386 1_566
O4 Zn1 2.408420 1_555
O5 Te2 2.107466 1_555
O6 Zn7 2.022078 1_555
O6 Zn1 2.047673 1_554
O6 Te3 2.155822 1_555
O7 Zn5 2.019326 1_655
O7 Zn4 2.105914 1_555
O7 Te2 2.117377 1_655
O8 Zn2 2.019326 1_455
O8 Zn3 2.105914 1_555
O8 Te2 2.117377 1_565
O9 Zn0 1.942204 1_555
O9 Te4 2.222545 1_555
O10 Zn1 1.931767 1_555
O10 Te0 2.002842 1_555
O11 Zn6 1.942204 1_555
O11 Te0 2.222545 1_555
O12 Te2 2.123386 1_655
O12 Zn4 2.408420 1_555
O13 Te0 2.302478 1_555
O14 Zn3 1.931767 1_555
O14 Te5 2.002842 1_555
O15 Zn1 2.022078 1_555
O15 Zn7 2.047673 1_556
O15 Te5 2.155822 1_555
O16 Zn7 1.931767 1_555
O16 Te4 2.002842 1_555
O17 Te5 2.302478 1_555
O18 Te4 2.083610 1_555
O19 Zn4 1.931767 1_555
O19 Te3 2.002842 1_555
O20 Zn0 2.008073 1_565
O20 Zn6 2.026375 1_554
O20 Te3 2.375213 1_555
O21 Te4 2.302478 1_555
O22 Zn6 2.019326 1_545
O22 Zn7 2.105914 1_556
O22 Te1 2.117377 1_656
O23 Zn3 2.022078 1_555
O23 Zn4 2.047673 1_555
O23 Te0 2.155822 1_555
O24 Te5 2.083610 1_555
O25 Te2 2.107466 1_665
O26 Zn5 1.942204 1_555
O26 Te5 2.222545 1_555
O27 Zn4 2.022078 1_555
O27 Zn3 2.047673 1_555
O27 Te4 2.155822 1_555
O28 Te1 2.123386 1_655
O28 Zn7 2.408420 1_555
O29 Te3 2.302478 1_555
O30 Zn2 2.008073 1_455
O30 Zn5 2.026375 1_555
O30 Te4 2.375213 1_555
O31 Te1 2.107466 1_556
O32 Zn0 2.019326 1_565
O32 Zn1 2.105914 1_554
O32 Te1 2.117377 1_565
O33 Zn2 1.942204 1_555
O33 Te3 2.222545 1_555
O34 Te0 2.083610 1_555
O35 Zn6 2.008073 1_545
O35 Zn0 2.026375 1_556
O35 Te5 2.375213 1_555
