# generated using pymatgen
data_Mg30TiCuO32
_symmetry_space_group_name_H-M   'P 1'
_cell_length_a   8.53314300
_cell_length_b   8.53314300
_cell_length_c   8.53374200
_cell_angle_alpha   90.00000000
_cell_angle_beta   90.00000000
_cell_angle_gamma   90.00000000
_symmetry_Int_Tables_number   1
_chemical_formula_structural   Mg30TiCuO32
_chemical_formula_sum   'Mg30 Ti1 Cu1 O32'
_cell_volume   621.38040825
_cell_formula_units_Z   1
loop_
 _symmetry_equiv_pos_site_id
 _symmetry_equiv_pos_as_xyz
  1  'x, y, z'
loop_
 _atom_site_type_symbol
 _atom_site_label
 _atom_site_symmetry_multiplicity
 _atom_site_fract_x
 _atom_site_fract_y
 _atom_site_fract_z
 _atom_site_occupancy
  Mg  Mg0  1  0.00000000  0.50000000  0.00000000  1
  Mg  Mg1  1  0.50000000  0.00000000  0.00000000  1
  Mg  Mg2  1  0.00000000  0.00000000  0.50000000  1
  Mg  Mg3  1  0.00000000  0.50000000  0.50000000  1
  Mg  Mg4  1  0.50000000  0.00000000  0.50000000  1
  Mg  Mg5  1  0.50000000  0.50000000  0.50000000  1
  Mg  Mg6  1  0.24402200  0.24402200  0.00000000  1
  Mg  Mg7  1  0.24402200  0.75597800  0.00000000  1
  Mg  Mg8  1  0.75597800  0.24402200  0.00000000  1
  Mg  Mg9  1  0.75597800  0.75597800  0.00000000  1
  Mg  Mg10  1  0.24873900  0.24873900  0.50000000  1
  Mg  Mg11  1  0.24873900  0.75126100  0.50000000  1
  Mg  Mg12  1  0.75126100  0.24873900  0.50000000  1
  Mg  Mg13  1  0.75126100  0.75126100  0.50000000  1
  Mg  Mg14  1  0.00000000  0.24713200  0.24804700  1
  Mg  Mg15  1  0.00000000  0.75286800  0.24804700  1
  Mg  Mg16  1  0.50000000  0.24727700  0.25212100  1
  Mg  Mg17  1  0.50000000  0.75272300  0.25212100  1
  Mg  Mg18  1  0.00000000  0.24713200  0.75195300  1
  Mg  Mg19  1  0.00000000  0.75286800  0.75195300  1
  Mg  Mg20  1  0.50000000  0.24727700  0.74787900  1
  Mg  Mg21  1  0.50000000  0.75272300  0.74787900  1
  Mg  Mg22  1  0.24713200  0.00000000  0.24804700  1
  Mg  Mg23  1  0.24727700  0.50000000  0.25212100  1
  Mg  Mg24  1  0.75286800  0.00000000  0.24804700  1
  Mg  Mg25  1  0.75272300  0.50000000  0.25212100  1
  Mg  Mg26  1  0.24713200  0.00000000  0.75195300  1
  Mg  Mg27  1  0.24727700  0.50000000  0.74787900  1
  Mg  Mg28  1  0.75286800  0.00000000  0.75195300  1
  Mg  Mg29  1  0.75272300  0.50000000  0.74787900  1
  Ti  Ti0  1  0.50000000  0.50000000  0.00000000  1
  Cu  Cu0  1  0.00000000  0.00000000  0.00000000  1
  O  O0  1  0.00000000  0.00000000  0.26179300  1
  O  O1  1  0.00000000  0.50000000  0.25093000  1
  O  O2  1  0.50000000  0.00000000  0.25093000  1
  O  O3  1  0.50000000  0.50000000  0.24889100  1
  O  O4  1  0.00000000  0.00000000  0.73820700  1
  O  O5  1  0.00000000  0.50000000  0.74907000  1
  O  O6  1  0.50000000  0.00000000  0.74907000  1
  O  O7  1  0.50000000  0.50000000  0.75110800  1
  O  O8  1  0.25059800  0.25059800  0.24905400  1
  O  O9  1  0.25059800  0.74940200  0.24905400  1
  O  O10  1  0.74940200  0.25059800  0.24905400  1
  O  O11  1  0.74940200  0.74940200  0.24905400  1
  O  O12  1  0.25059800  0.25059800  0.75094600  1
  O  O13  1  0.25059800  0.74940200  0.75094600  1
  O  O14  1  0.74940200  0.25059800  0.75094600  1
  O  O15  1  0.74940200  0.74940200  0.75094600  1
  O  O16  1  0.00000000  0.26497700  0.00000000  1
  O  O17  1  0.00000000  0.73502300  0.00000000  1
  O  O18  1  0.50000000  0.25729000  0.00000000  1
  O  O19  1  0.50000000  0.74271000  0.00000000  1
  O  O20  1  0.00000000  0.25218800  0.50000000  1
  O  O21  1  0.00000000  0.74781200  0.50000000  1
  O  O22  1  0.50000000  0.25146100  0.50000000  1
  O  O23  1  0.50000000  0.74853900  0.50000000  1
  O  O24  1  0.26497700  0.00000000  0.00000000  1
  O  O25  1  0.25729000  0.50000000  0.00000000  1
  O  O26  1  0.73502300  0.00000000  0.00000000  1
  O  O27  1  0.74271000  0.50000000  0.00000000  1
  O  O28  1  0.25218800  0.00000000  0.50000000  1
  O  O29  1  0.25146100  0.50000000  0.50000000  1
  O  O30  1  0.74781200  0.00000000  0.50000000  1
  O  O31  1  0.74853900  0.50000000  0.50000000  1
loop_
_geom_bond_atom_site_label_1
_geom_bond_atom_site_label_2
_geom_bond_distance
_geom_bond_site_symmetry_2
Mg0 O17 2.005485 1_555
Mg0 O16 2.005485 1_555
Mg0 O1 2.141372 1_555
Mg0 O5 2.141372 1_554
Mg0 O25 2.195492 1_555
Mg0 O27 2.195492 1_455
Mg1 O24 2.005485 1_555
Mg1 O26 2.005485 1_555
Mg1 O6 2.141372 1_554
Mg1 O2 2.141372 1_555
Mg1 O18 2.195492 1_555
Mg1 O19 2.195492 1_545
Mg2 O4 2.032797 1_555
Mg2 O0 2.032797 1_555
Mg2 O30 2.151956 1_455
Mg2 O21 2.151956 1_545
Mg2 O20 2.151956 1_555
Mg2 O28 2.151956 1_555
Mg3 O20 2.114615 1_555
Mg3 O21 2.114615 1_555
Mg3 O5 2.125499 1_555
Mg3 O1 2.125499 1_555
Mg3 O29 2.145753 1_555
Mg3 O31 2.145753 1_455
Mg4 O28 2.114615 1_555
Mg4 O30 2.114615 1_555
Mg4 O2 2.125499 1_555
Mg4 O6 2.125499 1_555
Mg4 O22 2.145753 1_555
Mg4 O23 2.145753 1_545
Mg5 O31 2.120819 1_555
Mg5 O23 2.120819 1_555
Mg5 O29 2.120819 1_555
Mg5 O22 2.120819 1_555
Mg5 O7 2.142891 1_555
Mg5 O3 2.142899 1_555
Mg6 O24 2.089938 1_555
Mg6 O16 2.089938 1_555
Mg6 O8 2.126844 1_555
Mg6 O12 2.126844 1_554
Mg6 O18 2.187229 1_555
Mg6 O25 2.187229 1_555
Mg7 O24 2.089938 1_565
Mg7 O17 2.089938 1_555
Mg7 O9 2.126844 1_555
Mg7 O13 2.126844 1_554
Mg7 O19 2.187229 1_555
Mg7 O25 2.187229 1_555
Mg8 O26 2.089938 1_555
Mg8 O16 2.089938 1_655
Mg8 O10 2.126844 1_555
Mg8 O14 2.126844 1_554
Mg8 O18 2.187229 1_555
Mg8 O27 2.187229 1_555
Mg9 O17 2.089938 1_655
Mg9 O26 2.089938 1_565
Mg9 O15 2.126844 1_554
Mg9 O11 2.126844 1_555
Mg9 O19 2.187229 1_555
Mg9 O27 2.187229 1_555
Mg10 O28 2.122729 1_555
Mg10 O20 2.122729 1_555
Mg10 O12 2.141626 1_555
Mg10 O8 2.141626 1_555
Mg10 O22 2.144172 1_555
Mg10 O29 2.144172 1_555
Mg11 O21 2.122729 1_555
Mg11 O28 2.122729 1_565
Mg11 O9 2.141626 1_555
Mg11 O13 2.141626 1_555
Mg11 O29 2.144172 1_555
Mg11 O23 2.144172 1_555
Mg12 O30 2.122729 1_555
Mg12 O20 2.122729 1_655
Mg12 O10 2.141626 1_555
Mg12 O14 2.141626 1_555
Mg12 O22 2.144172 1_555
Mg12 O31 2.144172 1_555
Mg13 O21 2.122729 1_655
Mg13 O30 2.122729 1_565
Mg13 O11 2.141626 1_555
Mg13 O15 2.141626 1_555
Mg13 O23 2.144172 1_555
Mg13 O31 2.144172 1_555
Mg14 O0 2.112073 1_555
Mg14 O16 2.122239 1_555
Mg14 O10 2.138610 1_455
Mg14 O8 2.138610 1_555
Mg14 O20 2.150535 1_555
Mg14 O1 2.157899 1_555
Mg15 O0 2.112073 1_565
Mg15 O17 2.122239 1_555
Mg15 O9 2.138610 1_555
Mg15 O11 2.138610 1_455
Mg15 O21 2.150535 1_555
Mg15 O1 2.157899 1_555
Mg16 O2 2.110074 1_555
Mg16 O22 2.115637 1_555
Mg16 O8 2.128533 1_555
Mg16 O10 2.128533 1_555
Mg16 O18 2.153231 1_555
Mg16 O3 2.156698 1_555
Mg17 O2 2.110074 1_565
Mg17 O23 2.115637 1_555
Mg17 O9 2.128533 1_555
Mg17 O11 2.128533 1_555
Mg17 O19 2.153231 1_555
Mg17 O3 2.156698 1_555
Mg18 O4 2.112073 1_555
Mg18 O16 2.122239 1_556
Mg18 O14 2.138610 1_455
Mg18 O12 2.138610 1_555
Mg18 O20 2.150535 1_555
Mg18 O5 2.157899 1_555
Mg19 O4 2.112073 1_565
Mg19 O17 2.122239 1_556
Mg19 O13 2.138610 1_555
Mg19 O15 2.138610 1_455
Mg19 O21 2.150535 1_555
Mg19 O5 2.157899 1_555
Mg20 O6 2.110074 1_555
Mg20 O22 2.115637 1_555
Mg20 O14 2.128533 1_555
Mg20 O12 2.128533 1_555
Mg20 O18 2.153231 1_556
Mg20 O7 2.156698 1_555
Mg21 O6 2.110074 1_565
Mg21 O23 2.115637 1_555
Mg21 O15 2.128533 1_555
Mg21 O13 2.128533 1_555
Mg21 O19 2.153231 1_556
Mg21 O7 2.156698 1_555
Mg22 O0 2.112073 1_555
Mg22 O24 2.122239 1_555
Mg22 O9 2.138610 1_545
Mg22 O8 2.138610 1_555
Mg22 O28 2.150535 1_555
Mg22 O2 2.157899 1_555
Mg23 O1 2.110074 1_555
Mg23 O29 2.115637 1_555
Mg23 O8 2.128533 1_555
Mg23 O9 2.128533 1_555
Mg23 O25 2.153231 1_555
Mg23 O3 2.156698 1_555
Mg24 O0 2.112073 1_655
Mg24 O26 2.122239 1_555
Mg24 O11 2.138610 1_545
Mg24 O10 2.138610 1_555
Mg24 O30 2.150535 1_555
Mg24 O2 2.157899 1_555
Mg25 O1 2.110074 1_655
Mg25 O31 2.115637 1_555
Mg25 O10 2.128533 1_555
Mg25 O11 2.128533 1_555
Mg25 O27 2.153231 1_555
Mg25 O3 2.156698 1_555
Mg26 O4 2.112073 1_555
Mg26 O24 2.122239 1_556
Mg26 O12 2.138610 1_555
Mg26 O13 2.138610 1_545
Mg26 O28 2.150535 1_555
Mg26 O6 2.157899 1_555
Mg27 O5 2.110074 1_555
Mg27 O29 2.115637 1_555
Mg27 O13 2.128533 1_555
Mg27 O12 2.128533 1_555
Mg27 O25 2.153231 1_556
Mg27 O7 2.156698 1_555
Mg28 O4 2.112073 1_655
Mg28 O26 2.122239 1_556
Mg28 O14 2.138610 1_555
Mg28 O15 2.138610 1_545
Mg28 O30 2.150535 1_555
Mg28 O6 2.157899 1_555
Mg29 O5 2.110074 1_655
Mg29 O31 2.115637 1_555
Mg29 O14 2.128533 1_555
Mg29 O15 2.128533 1_555
Mg29 O27 2.153231 1_556
Mg29 O7 2.156698 1_555
Cu0 O0 2.234074 1_555
Cu0 O4 2.234074 1_554
Cu0 O24 2.261087 1_555
Cu0 O16 2.261087 1_555
Cu0 O26 2.261087 1_455
Cu0 O17 2.261087 1_545
O3 Ti0 2.123972 1_555
O7 Ti0 2.123980 1_556
O18 Ti0 2.071079 1_555
O19 Ti0 2.071079 1_555
O25 Ti0 2.071079 1_555
O27 Ti0 2.071079 1_555
