# generated using pymatgen
data_VCrN2
_symmetry_space_group_name_H-M   'P 1'
_cell_length_a   2.98457186
_cell_length_b   2.98457186
_cell_length_c   4.92955484
_cell_angle_alpha   72.37882731
_cell_angle_beta   90.00000000
_cell_angle_gamma   120.00000000
_symmetry_Int_Tables_number   1
_chemical_formula_structural   VCrN2
_chemical_formula_sum   'V1 Cr1 N2'
_cell_volume   35.62897089
_cell_formula_units_Z   1
loop_
 _symmetry_equiv_pos_site_id
 _symmetry_equiv_pos_as_xyz
  1  'x, y, z'
loop_
 _atom_site_type_symbol
 _atom_site_label
 _atom_site_symmetry_multiplicity
 _atom_site_fract_x
 _atom_site_fract_y
 _atom_site_fract_z
 _atom_site_occupancy
  V  V0  1  0.50000000  0.00000000  0.50000000  1
  Cr  Cr0  1  0.00000000  0.00000000  0.00000000  1
  N  N0  1  0.25161100  0.50322100  0.24516800  1
  N  N1  1  0.74838900  0.49677900  0.75483200  1
loop_
_geom_bond_atom_site_label_1
_geom_bond_atom_site_label_2
_geom_bond_distance
_geom_bond_site_symmetry_2
Cr0 N1 2.061889 1_444
Cr0 N0 2.061889 1_555
Cr0 N1 2.061889 1_554
Cr0 N0 2.061889 1_445
Cr0 N0 2.061892 1_545
Cr0 N1 2.061892 1_454
N0 V0 2.086734 1_555
N0 V0 2.086736 1_565
N0 V0 2.086736 1_455
N1 V0 2.086734 1_565
N1 V0 2.086736 1_555
N1 V0 2.086736 1_665
