# generated using pymatgen
data_Ti2AgBiO6
_symmetry_space_group_name_H-M   'P 1'
_cell_length_a   5.53797709
_cell_length_b   5.53797709
_cell_length_c   5.53797709
_cell_angle_alpha   120.79228324
_cell_angle_beta   120.79228324
_cell_angle_gamma   88.63311699
_symmetry_Int_Tables_number   1
_chemical_formula_structural   Ti2AgBiO6
_chemical_formula_sum   'Ti2 Ag1 Bi1 O6'
_cell_volume   118.62389518
_cell_formula_units_Z   1
loop_
 _symmetry_equiv_pos_site_id
 _symmetry_equiv_pos_as_xyz
  1  'x, y, z'
loop_
 _atom_site_type_symbol
 _atom_site_label
 _atom_site_symmetry_multiplicity
 _atom_site_fract_x
 _atom_site_fract_y
 _atom_site_fract_z
 _atom_site_occupancy
  Ti  Ti0  1  0.25000000  0.75000000  0.50000000  1
  Ti  Ti1  1  0.75000000  0.25000000  0.50000000  1
  Ag  Ag0  1  0.50000000  0.50000000  0.00000000  1
  Bi  Bi0  1  0.00000000  0.00000000  0.00000000  1
  O  O0  1  0.95562400  0.56734200  0.00000000  1
  O  O1  1  0.56734200  0.95562400  0.00000000  1
  O  O2  1  0.43265800  0.43265800  0.38828200  1
  O  O3  1  0.04437600  0.04437600  0.61171800  1
  O  O4  1  0.50000000  0.00000000  0.50000000  1
  O  O5  1  0.00000000  0.50000000  0.50000000  1
loop_
_geom_bond_atom_site_label_1
_geom_bond_atom_site_label_2
_geom_bond_distance
_geom_bond_site_symmetry_2
Ag0 O0 2.559432 1_555
Ag0 O3 2.559432 1_554
Ag0 O1 2.559432 1_555
Ag0 O2 2.559432 1_555
Ag0 O5 2.735763 1_554
Ag0 O5 2.735763 1_655
Ag0 O4 2.735763 1_565
Ag0 O4 2.735763 1_554
Bi0 O2 2.414445 1_555
Bi0 O1 2.414445 1_445
Bi0 O3 2.414445 1_554
Bi0 O0 2.414445 1_445
Bi0 O5 2.735763 1_555
Bi0 O5 2.735763 1_544
Bi0 O4 2.735763 1_555
Bi0 O4 2.735763 1_454
O0 Ti0 1.984264 1_655
O0 Ti1 1.984264 1_554
O1 Ti0 1.984264 1_554
O1 Ti1 1.984264 1_565
O2 Ti1 1.984264 1_555
O2 Ti0 1.984264 1_555
O3 Ti1 1.984264 1_455
O3 Ti0 1.984264 1_545
O4 Ti0 1.981186 1_545
O4 Ti1 1.981186 1_555
O5 Ti1 1.981186 1_455
O5 Ti0 1.981186 1_555
