# generated using pymatgen
data_K4MoC4(N2O)2
_symmetry_space_group_name_H-M   'P 1'
_cell_length_a   6.58335633
_cell_length_b   8.31668259
_cell_length_c   12.35541600
_cell_angle_alpha   90.00000000
_cell_angle_beta   90.00000000
_cell_angle_gamma   106.51019565
_symmetry_Int_Tables_number   1
_chemical_formula_structural   K4MoC4(N2O)2
_chemical_formula_sum   'K8 Mo2 C8 N8 O4'
_cell_volume   648.58802605
_cell_formula_units_Z   2
loop_
 _symmetry_equiv_pos_site_id
 _symmetry_equiv_pos_as_xyz
  1  'x, y, z'
loop_
 _atom_site_type_symbol
 _atom_site_label
 _atom_site_symmetry_multiplicity
 _atom_site_fract_x
 _atom_site_fract_y
 _atom_site_fract_z
 _atom_site_occupancy
  K  K0  1  0.07476600  0.73951200  0.46724700  1
  K  K1  1  0.92523400  0.26048800  0.53275300  1
  K  K2  1  0.42523400  0.76048800  0.96724700  1
  K  K3  1  0.57476600  0.23951200  0.03275300  1
  K  K4  1  0.14557700  0.50359500  0.22277600  1
  K  K5  1  0.85442300  0.49640500  0.77722400  1
  K  K6  1  0.35442300  0.99640500  0.72277600  1
  K  K7  1  0.64557700  0.00359500  0.27722400  1
  Mo  Mo0  1  0.00000000  0.00000000  0.00000000  1
  Mo  Mo1  1  0.50000000  0.50000000  0.50000000  1
  C  C0  1  0.64479200  0.42827800  0.35063300  1
  C  C1  1  0.35520800  0.57172200  0.64936700  1
  C  C2  1  0.85520800  0.07172200  0.85063300  1
  C  C3  1  0.14479200  0.92827800  0.14936700  1
  C  C4  1  0.86474300  0.72413800  0.98744900  1
  C  C5  1  0.13525700  0.27586200  0.01255100  1
  C  C6  1  0.63525700  0.77586200  0.48744900  1
  C  C7  1  0.36474300  0.22413800  0.51255100  1
  N  N0  1  0.71358800  0.36677900  0.27841100  1
  N  N1  1  0.28641200  0.63322100  0.72158900  1
  N  N2  1  0.78641200  0.13322100  0.77841100  1
  N  N3  1  0.21358800  0.86677900  0.22158900  1
  N  N4  1  0.78341300  0.57810800  0.98956900  1
  N  N5  1  0.21658700  0.42189200  0.01043100  1
  N  N6  1  0.71658700  0.92189200  0.48956900  1
  N  N7  1  0.28341300  0.07810800  0.51043100  1
  O  O0  1  0.74507900  0.49820200  0.57576400  1
  O  O1  1  0.25492100  0.50179800  0.42423600  1
  O  O2  1  0.75492100  0.00179800  0.07576400  1
  O  O3  1  0.24507900  0.99820200  0.92423600  1
loop_
_geom_bond_atom_site_label_1
_geom_bond_atom_site_label_2
_geom_bond_distance
_geom_bond_site_symmetry_2
K0 O1 2.632537 1_555
K0 N7 2.811191 1_565
K0 O0 2.839085 1_455
K0 N6 3.157508 1_455
K0 N3 3.258560 1_555
K1 O0 2.632537 1_555
K1 N6 2.811191 1_545
K1 O1 2.839085 1_655
K1 N7 3.157508 1_655
K1 N2 3.258560 1_555
K2 O3 2.632537 1_555
K2 N5 2.811191 1_556
K2 O2 2.839085 1_566
K2 N4 3.157508 1_555
K2 N1 3.258560 1_555
K3 O2 2.632537 1_555
K3 N4 2.811191 1_554
K3 O3 2.839085 1_544
K3 N5 3.157508 1_555
K3 N0 3.258560 1_555
K4 O1 2.592345 1_555
K4 N5 2.782829 1_555
K4 N0 2.831247 1_455
K4 N3 2.924955 1_555
K5 O0 2.592345 1_555
K5 N4 2.782829 1_555
K5 N1 2.831247 1_655
K5 N2 2.924955 1_555
K6 O3 2.592345 1_555
K6 N7 2.782829 1_565
K6 N2 2.831247 1_565
K6 N1 2.924955 1_555
K7 O2 2.592345 1_555
K7 N6 2.782829 1_545
K7 N3 2.831247 1_545
K7 N0 2.924955 1_555
Mo0 O2 1.869066 1_455
Mo0 O3 1.869066 1_544
Mo1 O0 1.869066 1_555
Mo1 O1 1.869066 1_555
C0 N0 1.180951 1_555
C0 Mo1 2.234598 1_555
C1 N1 1.180951 1_555
C1 Mo1 2.234598 1_555
C2 N2 1.180951 1_555
C2 Mo0 2.234598 1_656
C3 N3 1.180951 1_555
C3 Mo0 2.234598 1_565
C4 N4 1.180147 1_555
C4 Mo0 2.217977 1_666
C4 K2 3.003811 1_555
C5 N5 1.180147 1_555
C5 Mo0 2.217977 1_555
C5 K3 3.003811 1_555
C6 N6 1.180147 1_555
C6 Mo1 2.217977 1_555
C6 K0 3.003811 1_655
C7 N7 1.180147 1_555
C7 Mo1 2.217977 1_555
C7 K1 3.003811 1_455
