# generated using pymatgen
data_Mg5Si6
_symmetry_space_group_name_H-M   'P 1'
_cell_length_a   4.02066000
_cell_length_b   6.73301467
_cell_length_c   15.36078267
_cell_angle_alpha   99.71197888
_cell_angle_beta   96.87365186
_cell_angle_gamma   89.81613110
_symmetry_Int_Tables_number   1
_chemical_formula_structural   Mg5Si6
_chemical_formula_sum   'Mg10 Si12'
_cell_volume   406.86735664
_cell_formula_units_Z   2
loop_
 _symmetry_equiv_pos_site_id
 _symmetry_equiv_pos_as_xyz
  1  'x, y, z'
loop_
 _atom_site_type_symbol
 _atom_site_label
 _atom_site_symmetry_multiplicity
 _atom_site_fract_x
 _atom_site_fract_y
 _atom_site_fract_z
 _atom_site_occupancy
  Mg  Mg0  1  0.96707200  0.04937900  0.00898800  1
  Mg  Mg1  1  0.71515800  0.84346900  0.48943000  1
  Mg  Mg2  1  0.81095000  0.07804300  0.69356000  1
  Mg  Mg3  1  0.13806100  0.99110200  0.34002900  1
  Mg  Mg4  1  0.53884900  0.91777100  0.15769900  1
  Mg  Mg5  1  0.39289200  0.15217900  0.85586200  1
  Mg  Mg6  1  0.24577300  0.15818200  0.55385700  1
  Mg  Mg7  1  0.17945100  0.51339400  0.42538200  1
  Mg  Mg8  1  0.50045700  0.39125200  0.07699400  1
  Mg  Mg9  1  0.42606900  0.71680800  0.92412400  1
  Si  Si0  1  0.92641700  0.40477200  0.94160200  1
  Si  Si1  1  0.98789400  0.68739300  0.05963100  1
  Si  Si2  1  0.69381300  0.23021800  0.44364400  1
  Si  Si3  1  0.76743800  0.50179700  0.57486500  1
  Si  Si4  1  0.88665800  0.87769300  0.83304700  1
  Si  Si5  1  0.05971000  0.23443300  0.19419300  1
  Si  Si6  1  0.61793500  0.67324700  0.30581800  1
  Si  Si7  1  0.32288800  0.42216400  0.70865300  1
  Si  Si8  1  0.86167000  0.51764100  0.79614400  1
  Si  Si9  1  0.06968500  0.60594900  0.20684700  1
  Si  Si10  1  0.60913600  0.30087800  0.29351700  1
  Si  Si11  1  0.27839300  0.73224100  0.61248500  1
loop_
_geom_bond_atom_site_label_1
_geom_bond_atom_site_label_2
_geom_bond_distance
_geom_bond_site_symmetry_2
Mg0 Si1 2.678651 1_545
Mg0 Si4 2.735689 1_544
Mg0 Si0 2.759823 1_554
Mg0 Si5 2.887561 1_655
Mg1 Si2 2.807984 1_565
Mg1 Si3 2.829863 1_555
Mg1 Si6 2.840690 1_555
Mg1 Si11 2.915166 1_555
Mg1 Si11 2.950291 1_655
Mg1 Mg7 3.011158 1_655
Mg1 Mg7 3.054841 1_555
Mg2 Si4 2.705481 1_545
Mg2 Si7 3.028421 1_555
Mg2 Si7 3.064959 1_655
Mg2 Si8 3.104600 1_555
Mg2 Si11 3.157875 1_545
Mg2 Si11 3.171437 1_645
Mg3 Si2 2.848350 1_465
Mg3 Si6 2.900974 1_555
Mg3 Si2 2.902661 1_565
Mg3 Si6 2.935274 1_455
Mg3 Si5 2.977882 1_565
Mg3 Si9 3.010933 1_555
Mg3 Si10 3.049606 1_565
Mg3 Si10 3.081213 1_465
Mg4 Si1 2.789196 1_555
Mg4 Si1 2.831492 1_455
Mg4 Si5 2.898303 1_565
Mg4 Si5 2.930897 1_665
Mg4 Si6 3.012579 1_555
Mg4 Si10 3.022239 1_565
Mg4 Si9 3.072009 1_555
Mg4 Si9 3.107004 1_655
Mg5 Si4 2.704824 1_445
Mg5 Si4 2.721048 1_545
Mg5 Si0 2.796427 1_555
Mg5 Si0 2.821295 1_455
Mg5 Si7 3.118994 1_555
Mg6 Si7 2.703758 1_555
Mg6 Si2 2.712763 1_555
Mg6 Si2 2.719784 1_455
Mg6 Si3 3.003932 1_455
Mg6 Si3 3.077857 1_555
Mg6 Si11 3.145408 1_545
Mg7 Si2 2.803919 1_455
Mg7 Si2 2.829689 1_555
Mg7 Si11 2.981759 1_555
Mg7 Si10 2.996464 1_555
Mg7 Si3 2.999086 1_455
Mg7 Si6 3.015589 1_555
Mg7 Si6 3.047521 1_455
Mg7 Si10 3.056099 1_455
Mg7 Si3 3.102811 1_555
Mg8 Si0 2.860791 1_554
Mg8 Si1 2.866595 1_555
Mg8 Si1 2.883646 1_455
Mg8 Si0 2.928155 1_454
Mg8 Si9 2.984300 1_555
Mg8 Si5 2.985479 1_555
Mg8 Si5 3.011481 1_655
Mg8 Si9 3.043349 1_655
Mg9 Si4 2.757583 1_455
Mg9 Si4 2.775679 1_555
Mg9 Si1 2.912948 1_556
Mg9 Si1 2.914566 1_456
Mg9 Si0 2.926943 1_555
Mg9 Si8 2.941080 1_555
Mg9 Si0 2.977975 1_455
Mg9 Si8 2.979049 1_455
Si0 Si1 2.387653 1_556
Si0 Si8 2.463736 1_555
Si1 Si9 2.400372 1_655
Si2 Si3 2.472085 1_555
Si4 Si8 2.394291 1_555
Si5 Si9 2.476134 1_555
Si6 Si9 2.497771 1_655
Si6 Si9 2.519416 1_555
Si7 Si8 2.435710 1_555
Si7 Si8 2.440409 1_455
Si10 Si2 2.416898 1_555
Si10 Si6 2.482332 1_555
Si10 Si5 2.497177 1_655
Si10 Si5 2.525300 1_555
Si11 Si3 2.528951 1_455
Si11 Si3 2.560762 1_555
Si11 Si7 2.747320 1_555
