# generated using pymatgen
data_La6Sm2Cr3Fe5O24
_symmetry_space_group_name_H-M   'P 1'
_cell_length_a   7.87506200
_cell_length_b   7.87413000
_cell_length_c   7.87526910
_cell_angle_alpha   89.99090574
_cell_angle_beta   90.00000000
_cell_angle_gamma   90.00000000
_symmetry_Int_Tables_number   1
_chemical_formula_structural   La6Sm2Cr3Fe5O24
_chemical_formula_sum   'La6 Sm2 Cr3 Fe5 O24'
_cell_volume   488.33961832
_cell_formula_units_Z   1
loop_
 _symmetry_equiv_pos_site_id
 _symmetry_equiv_pos_as_xyz
  1  'x, y, z'
loop_
 _atom_site_type_symbol
 _atom_site_label
 _atom_site_symmetry_multiplicity
 _atom_site_fract_x
 _atom_site_fract_y
 _atom_site_fract_z
 _atom_site_occupancy
  La  La0  1  0.24971000  0.74912300  0.75029600  1
  La  La1  1  0.75029000  0.74912300  0.75029600  1
  La  La2  1  0.24969100  0.25083500  0.75029100  1
  La  La3  1  0.75030900  0.25083500  0.75029100  1
  La  La4  1  0.24970000  0.25084500  0.24968600  1
  La  La5  1  0.75030000  0.25084500  0.24968600  1
  Sm  Sm0  1  0.24969700  0.74912000  0.24969700  1
  Sm  Sm1  1  0.75030300  0.74912000  0.24969700  1
  Cr  Cr0  1  0.00000000  0.50054100  0.00057800  1
  Cr  Cr1  1  0.50000000  0.50050000  0.00053800  1
  Cr  Cr2  1  0.00000000  0.50054000  0.49947500  1
  Fe  Fe0  1  0.00000000  0.99935600  0.00060200  1
  Fe  Fe1  1  0.50000000  0.99934800  0.00060300  1
  Fe  Fe2  1  0.00000000  0.99935800  0.49937300  1
  Fe  Fe3  1  0.50000000  0.99936900  0.49937900  1
  Fe  Fe4  1  0.50000000  0.50060900  0.49935000  1
  O  O0  1  0.00000000  0.99985600  0.75012300  1
  O  O1  1  0.50000000  0.99987600  0.75024600  1
  O  O2  1  0.00000000  0.50007500  0.75020200  1
  O  O3  1  0.50000000  0.50008300  0.75054000  1
  O  O4  1  0.00000000  0.99775400  0.24986200  1
  O  O5  1  0.50000000  0.99777700  0.24975700  1
  O  O6  1  0.00000000  0.50256200  0.24982300  1
  O  O7  1  0.50000000  0.50239000  0.24939500  1
  O  O8  1  0.00000000  0.74898500  0.00238200  1
  O  O9  1  0.50000000  0.74912200  0.00238700  1
  O  O10  1  0.00000000  0.25095900  0.00010100  1
  O  O11  1  0.50000000  0.25077500  0.00009700  1
  O  O12  1  0.00000000  0.74913400  0.49762000  1
  O  O13  1  0.50000000  0.74932300  0.49776100  1
  O  O14  1  0.00000000  0.25079600  0.49988200  1
  O  O15  1  0.50000000  0.25069200  0.49988700  1
  O  O16  1  0.24987100  0.99879000  0.00117200  1
  O  O17  1  0.75012900  0.99879000  0.00117200  1
  O  O18  1  0.24981200  0.50133300  0.00133900  1
  O  O19  1  0.75018800  0.50133300  0.00133900  1
  O  O20  1  0.24976000  0.99880600  0.49882100  1
  O  O21  1  0.75024000  0.99880600  0.49882100  1
  O  O22  1  0.24942600  0.50125900  0.49871800  1
  O  O23  1  0.75057400  0.50125900  0.49871800  1
loop_
_geom_bond_atom_site_label_1
_geom_bond_atom_site_label_2
_geom_bond_distance
_geom_bond_site_symmetry_2
La0 O2 2.777178 1_555
La0 O18 2.777470 1_556
La0 O3 2.780369 1_555
La0 O22 2.781321 1_555
La0 O0 2.786562 1_555
La0 O16 2.787381 1_556
La0 O1 2.789899 1_555
La0 O20 2.790373 1_555
La0 O8 2.794324 1_556
La0 O9 2.797569 1_556
La0 O12 2.797627 1_555
La0 O13 2.800051 1_555
La1 O2 2.777178 1_655
La1 O19 2.777470 1_556
La1 O3 2.780369 1_555
La1 O23 2.781321 1_555
La1 O0 2.786562 1_655
La1 O17 2.787381 1_556
La1 O1 2.789899 1_555
La1 O21 2.790373 1_555
La1 O8 2.794324 1_656
La1 O9 2.797569 1_556
La1 O12 2.797627 1_655
La1 O13 2.800051 1_555
La2 O2 2.778139 1_555
La2 O10 2.781513 1_556
La2 O3 2.781631 1_555
La2 O14 2.784851 1_555
La2 O11 2.784933 1_556
La2 O0 2.787830 1_545
La2 O15 2.788262 1_555
La2 O1 2.791153 1_545
La2 O18 2.792959 1_556
La2 O22 2.795034 1_555
La2 O16 2.800204 1_546
La2 O20 2.803834 1_545
La3 O2 2.778139 1_655
La3 O10 2.781513 1_656
La3 O3 2.781631 1_555
La3 O14 2.784851 1_655
La3 O11 2.784933 1_556
La3 O0 2.787830 1_645
La3 O15 2.788262 1_555
La3 O1 2.791153 1_545
La3 O19 2.792959 1_556
La3 O23 2.795034 1_555
La3 O17 2.800204 1_546
La3 O21 2.803834 1_545
La4 O18 2.777443 1_555
La4 O10 2.780310 1_555
La4 O22 2.781273 1_555
La4 O11 2.783676 1_555
La4 O14 2.783714 1_555
La4 O15 2.787082 1_555
La4 O16 2.787583 1_545
La4 O20 2.790487 1_545
La4 O6 2.792002 1_555
La4 O7 2.794372 1_555
La4 O4 2.799693 1_545
La4 O5 2.802884 1_545
La5 O19 2.777443 1_555
La5 O10 2.780310 1_655
La5 O23 2.781273 1_555
La5 O11 2.783676 1_555
La5 O14 2.783714 1_655
La5 O15 2.787082 1_555
La5 O17 2.787583 1_545
La5 O21 2.790487 1_545
La5 O6 2.792002 1_655
La5 O7 2.794372 1_555
La5 O4 2.799693 1_645
La5 O5 2.802884 1_545
Cr0 O8 1.956334 1_555
Cr0 O6 1.962938 1_555
Cr0 O10 1.965245 1_555
Cr0 O18 1.967304 1_555
Cr0 O19 1.967304 1_455
Cr0 O2 1.971782 1_554
Cr1 O9 1.957738 1_555
Cr1 O7 1.959875 1_555
Cr1 O11 1.966371 1_555
Cr1 O3 1.968805 1_554
Cr1 O19 1.970267 1_555
Cr1 O18 1.970267 1_555
Cr2 O12 1.957514 1_555
Cr2 O22 1.964262 1_555
Cr2 O23 1.964262 1_455
Cr2 O6 1.966139 1_555
Cr2 O14 1.966519 1_555
Cr2 O2 1.974545 1_555
Fe0 O4 1.963028 1_555
Fe0 O16 1.967760 1_555
Fe0 O17 1.967760 1_455
Fe0 O8 1.971501 1_555
Fe0 O0 1.972593 1_554
Fe0 O10 1.981158 1_565
Fe1 O5 1.962192 1_555
Fe1 O17 1.969791 1_555
Fe1 O16 1.969791 1_555
Fe1 O9 1.970360 1_555
Fe1 O1 1.971632 1_554
Fe1 O11 1.979772 1_565
Fe2 O4 1.965009 1_555
Fe2 O21 1.966885 1_455
Fe2 O20 1.966885 1_555
Fe2 O12 1.970347 1_555
Fe2 O0 1.974728 1_555
Fe2 O14 1.979860 1_565
Fe3 O5 1.965882 1_555
Fe3 O13 1.968938 1_555
Fe3 O20 1.970665 1_555
Fe3 O21 1.970665 1_555
Fe3 O1 1.975650 1_555
Fe3 O15 1.978955 1_565
Fe4 O13 1.958444 1_555
Fe4 O15 1.967883 1_555
Fe4 O7 1.968511 1_555
Fe4 O23 1.973299 1_555
Fe4 O22 1.973299 1_555
Fe4 O3 1.978193 1_555
O4 Sm0 2.774804 1_555
O4 Sm1 2.774804 1_455
O5 Sm1 2.778316 1_555
O5 Sm0 2.778316 1_555
O6 Sm0 2.763295 1_555
O6 Sm1 2.763295 1_455
O7 Sm1 2.767644 1_555
O7 Sm0 2.767644 1_555
O8 Sm0 2.767684 1_555
O8 Sm1 2.767684 1_455
O9 Sm1 2.771049 1_555
O9 Sm0 2.771049 1_555
O12 Sm0 2.771056 1_555
O12 Sm1 2.771056 1_455
O13 Sm1 2.775226 1_555
O13 Sm0 2.775226 1_555
O16 Sm0 2.773863 1_555
O17 Sm1 2.773863 1_555
O18 Sm0 2.762883 1_555
O19 Sm1 2.762883 1_555
O20 Sm0 2.777722 1_555
O21 Sm1 2.777722 1_555
O22 Sm0 2.766555 1_555
O23 Sm1 2.766555 1_555
