# generated using pymatgen
data_Tb2Cl3
_symmetry_space_group_name_H-M   'P 1'
_cell_length_a   3.86238276
_cell_length_b   7.87134565
_cell_length_c   9.59047013
_cell_angle_alpha   70.74213645
_cell_angle_beta   78.38316621
_cell_angle_gamma   75.79780252
_symmetry_Int_Tables_number   1
_chemical_formula_structural   Tb2Cl3
_chemical_formula_sum   'Tb4 Cl6'
_cell_volume   264.52173258
_cell_formula_units_Z   2
loop_
 _symmetry_equiv_pos_site_id
 _symmetry_equiv_pos_as_xyz
  1  'x, y, z'
loop_
 _atom_site_type_symbol
 _atom_site_label
 _atom_site_symmetry_multiplicity
 _atom_site_fract_x
 _atom_site_fract_y
 _atom_site_fract_z
 _atom_site_occupancy
  Tb  Tb0  1  0.91129267  0.72760197  0.44981369  1
  Tb  Tb1  1  0.08870733  0.27239803  0.55018631  1
  Tb  Tb2  1  0.63834146  0.51509519  0.20821989  1
  Tb  Tb3  1  0.36165854  0.48490481  0.79178011  1
  Cl  Cl0  1  0.84116928  0.30934091  0.00831852  1
  Cl  Cl1  1  0.15883072  0.69065909  0.99168148  1
  Cl  Cl2  1  0.72954343  0.15891263  0.38199850  1
  Cl  Cl3  1  0.27045657  0.84108737  0.61800150  1
  Cl  Cl4  1  0.45321925  0.85756647  0.23599702  1
  Cl  Cl5  1  0.54678075  0.14243353  0.76400298  1
loop_
_geom_bond_atom_site_label_1
_geom_bond_atom_site_label_2
_geom_bond_distance
_geom_bond_site_symmetry_2
Cl0 Tb2 2.780804 1_555
Cl0 Tb3 2.837703 1_554
Cl0 Tb3 2.837714 1_654
Cl1 Tb3 2.780804 1_555
Cl1 Tb2 2.837703 1_556
Cl1 Tb2 2.837714 1_456
Cl2 Tb2 2.726110 1_555
Cl2 Tb1 2.789941 1_555
Cl2 Tb1 2.789944 1_655
Cl2 Tb0 3.162231 1_545
Cl3 Tb3 2.726110 1_555
Cl3 Tb0 2.789941 1_555
Cl3 Tb0 2.789944 1_455
Cl3 Tb1 3.162231 1_565
Cl4 Tb2 2.701901 1_555
Cl4 Tb0 2.751544 1_555
Cl4 Tb0 2.751547 1_455
Cl5 Tb3 2.701901 1_555
Cl5 Tb1 2.751544 1_555
Cl5 Tb1 2.751547 1_655
