# generated using pymatgen
data_BiAs2O7
_symmetry_space_group_name_H-M   'P 1'
_cell_length_a   9.91637700
_cell_length_b   7.59761300
_cell_length_c   10.18655009
_cell_angle_alpha   70.56702603
_cell_angle_beta   90.00000000
_cell_angle_gamma   90.00000000
_symmetry_Int_Tables_number   1
_chemical_formula_structural   BiAs2O7
_chemical_formula_sum   'Bi4 As8 O28'
_cell_volume   723.74145535
_cell_formula_units_Z   4
loop_
 _symmetry_equiv_pos_site_id
 _symmetry_equiv_pos_as_xyz
  1  'x, y, z'
loop_
 _atom_site_type_symbol
 _atom_site_label
 _atom_site_symmetry_multiplicity
 _atom_site_fract_x
 _atom_site_fract_y
 _atom_site_fract_z
 _atom_site_occupancy
  Bi  Bi0  1  0.93370400  0.18691200  0.70989500  1
  Bi  Bi1  1  0.43370400  0.81308800  0.79010500  1
  Bi  Bi2  1  0.06629600  0.81308800  0.29010500  1
  Bi  Bi3  1  0.56629600  0.18691200  0.20989500  1
  As  As0  1  0.74919500  0.59045900  0.74504900  1
  As  As1  1  0.24919500  0.40954100  0.75495100  1
  As  As2  1  0.25080500  0.40954100  0.25495100  1
  As  As3  1  0.75080500  0.59045900  0.24504900  1
  As  As4  1  0.71034700  0.96660400  0.96653000  1
  As  As5  1  0.21034700  0.03339600  0.53347000  1
  As  As6  1  0.28965300  0.03339600  0.03347000  1
  As  As7  1  0.78965300  0.96660400  0.46653000  1
  O  O0  1  0.69224400  0.13707900  0.04136700  1
  O  O1  1  0.19224400  0.86292100  0.45863300  1
  O  O2  1  0.30775600  0.86292100  0.95863300  1
  O  O3  1  0.80775600  0.13707900  0.54136700  1
  O  O4  1  0.57624700  0.62719900  0.72798400  1
  O  O5  1  0.07624700  0.37280100  0.77201600  1
  O  O6  1  0.42375300  0.37280100  0.27201600  1
  O  O7  1  0.92375300  0.62719900  0.22798400  1
  O  O8  1  0.81959600  0.62166600  0.88372600  1
  O  O9  1  0.31959600  0.37833400  0.61627400  1
  O  O10  1  0.18040400  0.37833400  0.11627400  1
  O  O11  1  0.68040400  0.62166600  0.38372600  1
  O  O12  1  0.83072500  0.74862400  0.58900400  1
  O  O13  1  0.33072500  0.25137600  0.91099600  1
  O  O14  1  0.16927500  0.25137600  0.41099600  1
  O  O15  1  0.66927500  0.74862400  0.08900400  1
  O  O16  1  0.89808700  0.99366200  0.33080700  1
  O  O17  1  0.39808700  0.00633800  0.16919300  1
  O  O18  1  0.10191300  0.00633800  0.66919300  1
  O  O19  1  0.60191300  0.99366200  0.83080700  1
  O  O20  1  0.73235700  0.37917100  0.21796700  1
  O  O21  1  0.23235700  0.62082900  0.28203300  1
  O  O22  1  0.26764300  0.62082900  0.78203300  1
  O  O23  1  0.76764300  0.37917100  0.71796700  1
  O  O24  1  0.62439400  0.97964900  0.40923200  1
  O  O25  1  0.12439400  0.02035100  0.09076800  1
  O  O26  1  0.37560600  0.02035100  0.59076800  1
  O  O27  1  0.87560600  0.97964900  0.90923200  1
loop_
_geom_bond_atom_site_label_1
_geom_bond_atom_site_label_2
_geom_bond_distance
_geom_bond_site_symmetry_2
Bi0 O27 2.192512 1_545
Bi0 O23 2.220822 1_555
Bi0 O5 2.233328 1_655
Bi0 O3 2.254515 1_555
Bi0 O18 2.283616 1_655
Bi1 O26 2.192512 1_565
Bi1 O22 2.220822 1_555
Bi1 O4 2.233328 1_555
Bi1 O2 2.254515 1_555
Bi1 O19 2.283616 1_555
Bi2 O25 2.192512 1_565
Bi2 O21 2.220822 1_555
Bi2 O7 2.233328 1_455
Bi2 O1 2.254515 1_555
Bi2 O16 2.283616 1_455
Bi3 O24 2.192512 1_545
Bi3 O20 2.220822 1_555
Bi3 O6 2.233328 1_555
Bi3 O0 2.254515 1_555
Bi3 O17 2.283616 1_555
As0 O8 1.661930 1_555
As0 O23 1.726612 1_555
As0 O4 1.736990 1_555
As0 O12 1.831216 1_555
As1 O9 1.661930 1_555
As1 O22 1.726612 1_555
As1 O5 1.736990 1_555
As1 O13 1.831216 1_555
As2 O10 1.661930 1_555
As2 O21 1.726612 1_555
As2 O6 1.736990 1_555
As2 O14 1.831216 1_555
As3 O11 1.661930 1_555
As3 O20 1.726612 1_555
As3 O7 1.736990 1_555
As3 O15 1.831216 1_555
As4 O19 1.709033 1_555
As4 O0 1.716954 1_566
As4 O27 1.731349 1_555
As4 O15 1.757917 1_556
As5 O18 1.709033 1_555
As5 O1 1.716954 1_545
As5 O26 1.731349 1_555
As5 O14 1.757917 1_555
As6 O17 1.709033 1_555
As6 O2 1.716954 1_544
As6 O25 1.731349 1_555
As6 O13 1.757917 1_554
As7 O16 1.709033 1_555
As7 O3 1.716954 1_565
As7 O24 1.731349 1_555
As7 O12 1.757917 1_555
