# generated using pymatgen
data_Cr2HgS4
_symmetry_space_group_name_H-M   'P 1'
_cell_length_a   11.73409500
_cell_length_b   7.45875500
_cell_length_c   12.00438700
_cell_angle_alpha   90.00000000
_cell_angle_beta   90.00000000
_cell_angle_gamma   90.00000000
_symmetry_Int_Tables_number   1
_chemical_formula_structural   Cr2HgS4
_chemical_formula_sum   'Cr16 Hg8 S32'
_cell_volume   1050.64483489
_cell_formula_units_Z   8
loop_
 _symmetry_equiv_pos_site_id
 _symmetry_equiv_pos_as_xyz
  1  'x, y, z'
loop_
 _atom_site_type_symbol
 _atom_site_label
 _atom_site_symmetry_multiplicity
 _atom_site_fract_x
 _atom_site_fract_y
 _atom_site_fract_z
 _atom_site_occupancy
  Cr  Cr0  1  0.11720000  0.86669800  0.69858300  1
  Cr  Cr1  1  0.88280000  0.13330200  0.19858300  1
  Cr  Cr2  1  0.38280000  0.86669800  0.19858300  1
  Cr  Cr3  1  0.61720000  0.13330200  0.69858300  1
  Cr  Cr4  1  0.12887700  0.35586100  0.32455200  1
  Cr  Cr5  1  0.87112300  0.64413900  0.82455200  1
  Cr  Cr6  1  0.37112300  0.35586100  0.82455200  1
  Cr  Cr7  1  0.62887700  0.64413900  0.32455200  1
  Cr  Cr8  1  0.15614600  0.62591300  0.94406300  1
  Cr  Cr9  1  0.84385400  0.37408700  0.44406300  1
  Cr  Cr10  1  0.34385400  0.62591300  0.44406300  1
  Cr  Cr11  1  0.65614600  0.37408700  0.94406300  1
  Cr  Cr12  1  0.14057300  0.12796100  0.99976100  1
  Cr  Cr13  1  0.85942700  0.87203900  0.49976100  1
  Cr  Cr14  1  0.35942700  0.12796100  0.49976100  1
  Cr  Cr15  1  0.64057300  0.87203900  0.99976100  1
  Hg  Hg0  1  0.08413400  0.37497000  0.66322400  1
  Hg  Hg1  1  0.91586600  0.62503000  0.16322400  1
  Hg  Hg2  1  0.41586600  0.37497000  0.16322400  1
  Hg  Hg3  1  0.58413400  0.62503000  0.66322400  1
  Hg  Hg4  1  0.11954400  0.88240000  0.33133700  1
  Hg  Hg5  1  0.88045600  0.11760000  0.83133700  1
  Hg  Hg6  1  0.38045600  0.88240000  0.83133700  1
  Hg  Hg7  1  0.61954400  0.11760000  0.33133700  1
  S  S0  1  0.02482300  0.84268800  0.87697900  1
  S  S1  1  0.97517700  0.15731200  0.37697900  1
  S  S2  1  0.47517700  0.84268800  0.37697900  1
  S  S3  1  0.52482300  0.15731200  0.87697900  1
  S  S4  1  0.04086600  0.32136900  0.14324100  1
  S  S5  1  0.95913400  0.67863100  0.64324100  1
  S  S6  1  0.45913400  0.32136900  0.64324100  1
  S  S7  1  0.54086600  0.67863100  0.14324100  1
  S  S8  1  0.01216100  0.42722400  0.87865000  1
  S  S9  1  0.98783900  0.57277600  0.37865000  1
  S  S10  1  0.48783900  0.42722400  0.37865000  1
  S  S11  1  0.51216100  0.57277600  0.87865000  1
  S  S12  1  0.02028500  0.93252200  0.13219800  1
  S  S13  1  0.97971500  0.06747800  0.63219800  1
  S  S14  1  0.47971500  0.93252200  0.63219800  1
  S  S15  1  0.52028500  0.06747800  0.13219800  1
  S  S16  1  0.23234800  0.87162000  0.52991900  1
  S  S17  1  0.76765200  0.12838000  0.02991900  1
  S  S18  1  0.26765200  0.87162000  0.02991900  1
  S  S19  1  0.73234800  0.12838000  0.52991900  1
  S  S20  1  0.22799500  0.37660800  0.49850600  1
  S  S21  1  0.77200500  0.62339200  0.99850600  1
  S  S22  1  0.27200500  0.37660800  0.99850600  1
  S  S23  1  0.72799500  0.62339200  0.49850600  1
  S  S24  1  0.21333000  0.12601400  0.80346200  1
  S  S25  1  0.78667000  0.87398600  0.30346200  1
  S  S26  1  0.28667000  0.12601400  0.30346200  1
  S  S27  1  0.71333000  0.87398600  0.80346200  1
  S  S28  1  0.24234100  0.61685400  0.77252600  1
  S  S29  1  0.75765900  0.38314600  0.27252600  1
  S  S30  1  0.25765900  0.61685400  0.27252600  1
  S  S31  1  0.74234100  0.38314600  0.77252600  1
loop_
_geom_bond_atom_site_label_1
_geom_bond_atom_site_label_2
_geom_bond_distance
_geom_bond_site_symmetry_2
Cr0 S13 2.341024 1_465
Cr0 S0 2.406909 1_555
Cr0 S5 2.418510 1_455
Cr0 S16 2.434423 1_555
Cr0 S28 2.533156 1_555
Cr0 S24 2.568757 1_565
Cr1 S12 2.341024 1_645
Cr1 S1 2.406909 1_555
Cr1 S4 2.418510 1_655
Cr1 S17 2.434423 1_555
Cr1 S29 2.533156 1_555
Cr1 S25 2.568757 1_545
Cr2 S15 2.341024 1_565
Cr2 S2 2.406909 1_555
Cr2 S7 2.418510 1_555
Cr2 S18 2.434423 1_555
Cr2 S30 2.533156 1_555
Cr2 S26 2.568757 1_565
Cr3 S14 2.341024 1_545
Cr3 S3 2.406909 1_555
Cr3 S6 2.418510 1_555
Cr3 S19 2.434423 1_555
Cr3 S31 2.533156 1_555
Cr3 S27 2.568757 1_545
Cr4 S20 2.395262 1_555
Cr4 S9 2.403801 1_455
Cr4 S1 2.417014 1_455
Cr4 S4 2.422806 1_555
Cr4 S26 2.536028 1_555
Cr4 S30 2.542276 1_555
Cr5 S21 2.395262 1_555
Cr5 S8 2.403801 1_655
Cr5 S0 2.417014 1_655
Cr5 S5 2.422806 1_555
Cr5 S27 2.536028 1_555
Cr5 S31 2.542276 1_555
Cr6 S22 2.395262 1_555
Cr6 S11 2.403801 1_555
Cr6 S3 2.417014 1_555
Cr6 S6 2.422806 1_555
Cr6 S24 2.536028 1_555
Cr6 S28 2.542276 1_555
Cr7 S23 2.395262 1_555
Cr7 S10 2.403801 1_555
Cr7 S2 2.417014 1_555
Cr7 S7 2.422806 1_555
Cr7 S25 2.536028 1_555
Cr7 S29 2.542276 1_555
Cr8 S28 2.295175 1_555
Cr8 S0 2.374307 1_555
Cr8 S8 2.380625 1_555
Cr8 S22 2.394396 1_555
Cr8 S18 2.476465 1_556
Cr9 S29 2.295175 1_555
Cr9 S1 2.374307 1_555
Cr9 S9 2.380625 1_555
Cr9 S23 2.394396 1_555
Cr9 S19 2.476465 1_555
Cr10 S30 2.295175 1_555
Cr10 S2 2.374307 1_555
Cr10 S10 2.380625 1_555
Cr10 S20 2.394396 1_555
Cr10 S16 2.476465 1_555
Cr11 S31 2.295175 1_555
Cr11 S3 2.374307 1_555
Cr11 S11 2.380625 1_555
Cr11 S21 2.394396 1_555
Cr11 S17 2.476465 1_556
Cr12 S22 2.412104 1_555
Cr12 S18 2.451591 1_546
Cr12 S24 2.506378 1_555
Cr12 S4 2.533082 1_556
Cr12 S12 2.577746 1_546
Cr12 S0 2.923126 1_545
Cr12 S8 3.060484 1_555
Cr13 S23 2.412104 1_555
Cr13 S19 2.451591 1_565
Cr13 S25 2.506378 1_555
Cr13 S5 2.533082 1_555
Cr13 S13 2.577746 1_565
Cr13 S1 2.923126 1_565
Cr13 S9 3.060484 1_555
Cr14 S20 2.412104 1_555
Cr14 S16 2.451591 1_545
Cr14 S26 2.506378 1_555
Cr14 S6 2.533082 1_555
Cr14 S14 2.577746 1_545
Cr14 S2 2.923126 1_545
Cr14 S10 3.060484 1_555
Cr15 S21 2.412104 1_555
Cr15 S17 2.451591 1_566
Cr15 S27 2.506378 1_555
Cr15 S7 2.533082 1_556
Cr15 S15 2.577746 1_566
Cr15 S3 2.923126 1_565
Cr15 S11 3.060484 1_555
Hg0 S20 2.599928 1_555
Hg0 S13 2.626816 1_455
Hg0 S5 2.709032 1_455
Hg0 S8 2.748243 1_555
Hg0 S28 2.902217 1_555
Hg0 S24 2.929234 1_555
Hg1 S21 2.599928 1_554
Hg1 S12 2.626816 1_655
Hg1 S4 2.709032 1_655
Hg1 S9 2.748243 1_555
Hg1 S29 2.902217 1_555
Hg1 S25 2.929234 1_555
Hg2 S22 2.599928 1_554
Hg2 S15 2.626816 1_555
Hg2 S7 2.709032 1_555
Hg2 S10 2.748243 1_555
Hg2 S30 2.902217 1_555
Hg2 S26 2.929234 1_555
Hg3 S23 2.599928 1_555
Hg3 S14 2.626816 1_555
Hg3 S6 2.709032 1_555
Hg3 S11 2.748243 1_555
Hg3 S31 2.902217 1_555
Hg3 S27 2.929234 1_555
Hg4 S30 2.654786 1_555
Hg4 S12 2.685333 1_555
Hg4 S26 2.694341 1_565
Hg4 S1 2.715593 1_465
Hg4 S16 2.727872 1_555
Hg4 S9 2.836254 1_455
Hg5 S31 2.654786 1_555
Hg5 S13 2.685333 1_555
Hg5 S27 2.694341 1_545
Hg5 S0 2.715593 1_645
Hg5 S17 2.727872 1_556
Hg5 S8 2.836254 1_655
Hg6 S28 2.654786 1_555
Hg6 S14 2.685333 1_555
Hg6 S24 2.694341 1_565
Hg6 S3 2.715593 1_565
Hg6 S18 2.727872 1_556
Hg6 S11 2.836254 1_555
Hg7 S29 2.654786 1_555
Hg7 S15 2.685333 1_555
Hg7 S25 2.694341 1_545
Hg7 S2 2.715593 1_545
Hg7 S19 2.727872 1_555
Hg7 S10 2.836254 1_555
