# generated using pymatgen
data_Li7Co5O12
_symmetry_space_group_name_H-M   'P 1'
_cell_length_a   2.97619400
_cell_length_b   4.96681100
_cell_length_c   14.42695627
_cell_angle_alpha   87.78429020
_cell_angle_beta   90.00000000
_cell_angle_gamma   90.00000000
_symmetry_Int_Tables_number   1
_chemical_formula_structural   Li7Co5O12
_chemical_formula_sum   'Li7 Co5 O12'
_cell_volume   213.10260866
_cell_formula_units_Z   1
loop_
 _symmetry_equiv_pos_site_id
 _symmetry_equiv_pos_as_xyz
  1  'x, y, z'
loop_
 _atom_site_type_symbol
 _atom_site_label
 _atom_site_symmetry_multiplicity
 _atom_site_fract_x
 _atom_site_fract_y
 _atom_site_fract_z
 _atom_site_occupancy
  Li  Li0  1  0.00000000  0.15321600  0.33819000  1
  Li  Li1  1  0.50000000  0.00000000  0.00000000  1
  Li  Li2  1  0.00000000  0.84678400  0.66181000  1
  Li  Li3  1  0.00000000  0.50000000  0.00000000  1
  Li  Li4  1  0.50000000  0.33267300  0.66096200  1
  Li  Li5  1  0.50000000  0.66732700  0.33903800  1
  Li  Li6  1  0.50000000  0.00000000  0.50000000  1
  Co  Co0  1  0.00000000  0.16844600  0.83093100  1
  Co  Co1  1  0.00000000  0.50000000  0.50000000  1
  Co  Co2  1  0.00000000  0.83155400  0.16906900  1
  Co  Co3  1  0.50000000  0.66775200  0.83140500  1
  Co  Co4  1  0.50000000  0.33224800  0.16859500  1
  O  O0  1  0.00000000  0.16061800  0.09146100  1
  O  O1  1  0.50000000  0.99056400  0.75208600  1
  O  O2  1  0.00000000  0.79494400  0.42605300  1
  O  O3  1  0.00000000  0.49305500  0.75435200  1
  O  O4  1  0.50000000  0.35235400  0.42881200  1
  O  O5  1  0.50000000  0.66138000  0.09044100  1
  O  O6  1  0.00000000  0.20505600  0.57394700  1
  O  O7  1  0.50000000  0.00943600  0.24791400  1
  O  O8  1  0.00000000  0.83938200  0.90853900  1
  O  O9  1  0.00000000  0.50694500  0.24564800  1
  O  O10  1  0.50000000  0.33862000  0.90955900  1
  O  O11  1  0.50000000  0.64764600  0.57118800  1
loop_
_geom_bond_atom_site_label_1
_geom_bond_atom_site_label_2
_geom_bond_distance
_geom_bond_site_symmetry_2
Li0 O7 2.119574 1_455
Li0 O7 2.119574 1_555
Li0 O2 2.144503 1_545
Li0 O9 2.165140 1_555
Li0 O4 2.236514 1_455
Li0 O4 2.236514 1_555
Li1 O5 2.088408 1_545
Li1 O10 2.088408 1_554
Li1 O0 2.161790 1_555
Li1 O0 2.161790 1_655
Li1 O8 2.161790 1_644
Li1 O8 2.161790 1_544
Li2 O1 2.119574 1_455
Li2 O1 2.119574 1_555
Li2 O6 2.144503 1_565
Li2 O3 2.165140 1_555
Li2 O11 2.236514 1_455
Li2 O11 2.236514 1_555
Li3 O8 2.100121 1_554
Li3 O0 2.100121 1_555
Li3 O10 2.154123 1_454
Li3 O10 2.154123 1_554
Li3 O5 2.154123 1_455
Li3 O5 2.154123 1_555
Li4 O11 1.992026 1_555
Li4 O6 2.062440 1_655
Li4 O6 2.062440 1_555
Li4 O1 2.107796 1_545
Li4 O3 2.178825 1_555
Li4 O3 2.178825 1_655
Li5 O4 1.992026 1_555
Li5 O2 2.062440 1_555
Li5 O2 2.062440 1_655
Li5 O7 2.107796 1_565
Li5 O9 2.178825 1_555
Li5 O9 2.178825 1_655
Li6 O11 1.994635 1_545
Li6 O4 1.994635 1_555
Li6 O6 2.115151 1_655
Li6 O6 2.115151 1_555
Li6 O2 2.115151 1_645
Li6 O2 2.115151 1_545
Co0 O3 1.918925 1_555
Co0 O8 1.945089 1_545
Co0 O10 2.071171 1_455
Co0 O10 2.071171 1_555
Co0 O1 2.089645 1_445
Co0 O1 2.089645 1_545
Co1 O6 1.778568 1_555
Co1 O2 1.778568 1_555
Co1 O11 1.966017 1_555
Co1 O11 1.966017 1_455
Co1 O4 1.966017 1_455
Co1 O4 1.966017 1_555
Co2 O9 1.918925 1_555
Co2 O0 1.945089 1_565
Co2 O5 2.071171 1_455
Co2 O5 2.071171 1_555
Co2 O7 2.089645 1_565
Co2 O7 2.089645 1_465
Co3 O1 1.933480 1_555
Co3 O10 1.949654 1_555
Co3 O8 2.062233 1_555
Co3 O8 2.062233 1_655
Co3 O3 2.068246 1_555
Co3 O3 2.068246 1_655
Co4 O7 1.933480 1_555
Co4 O5 1.949654 1_555
Co4 O0 2.062233 1_555
Co4 O0 2.062233 1_655
Co4 O9 2.068246 1_555
Co4 O9 2.068246 1_655
