# generated using pymatgen
data_Li5(CuGe)2
_symmetry_space_group_name_H-M   'P 1'
_cell_length_a   4.17794987
_cell_length_b   4.17794987
_cell_length_c   7.98826087
_cell_angle_alpha   90.00000000
_cell_angle_beta   90.00000000
_cell_angle_gamma   120.00001889
_symmetry_Int_Tables_number   1
_chemical_formula_structural   Li5(CuGe)2
_chemical_formula_sum   'Li5 Cu2 Ge2'
_cell_volume   120.75614440
_cell_formula_units_Z   1
loop_
 _symmetry_equiv_pos_site_id
 _symmetry_equiv_pos_as_xyz
  1  'x, y, z'
loop_
 _atom_site_type_symbol
 _atom_site_label
 _atom_site_symmetry_multiplicity
 _atom_site_fract_x
 _atom_site_fract_y
 _atom_site_fract_z
 _atom_site_occupancy
  Li  Li0  1  0.33333300  0.66666700  0.11432596  1
  Li  Li1  1  0.66666700  0.33333300  0.88567404  1
  Li  Li2  1  0.33333300  0.66666700  0.43134738  1
  Li  Li3  1  0.66666700  0.33333300  0.56865262  1
  Li  Li4  1  0.00000000  0.00000000  -0.00000000  1
  Cu  Cu0  1  0.00000000  -0.00000000  0.30712645  1
  Cu  Cu1  1  0.00000000  0.00000000  0.69287355  1
  Ge  Ge0  1  0.33333300  0.66666700  0.75812726  1
  Ge  Ge1  1  0.66666700  0.33333300  0.24187274  1
loop_
_geom_bond_atom_site_label_1
_geom_bond_atom_site_label_2
_geom_bond_distance
_geom_bond_site_symmetry_2
Li0 Li2 2.532450 1_555
Li0 Li4 2.579237 1_565
Li0 Li4 2.579240 1_555
Li0 Li4 2.579240 1_665
Li1 Li3 2.532450 1_555
Li1 Li4 2.579237 1_656
Li1 Li4 2.579240 1_556
Li1 Li4 2.579240 1_666
Cu0 Li4 2.453406 1_555
Cu0 Ge1 2.467818 1_455
Cu0 Ge1 2.467821 1_555
Cu0 Ge1 2.467821 1_445
Cu0 Li2 2.608273 1_545
Cu0 Li2 2.608276 1_555
Cu0 Li2 2.608276 1_445
Cu0 Li0 2.861895 1_545
Cu0 Li0 2.861898 1_555
Cu0 Li0 2.861898 1_445
Cu1 Li4 2.453406 1_556
Cu1 Ge0 2.467818 1_545
Cu1 Ge0 2.467821 1_445
Cu1 Ge0 2.467821 1_555
Cu1 Li3 2.608273 1_455
Cu1 Li3 2.608276 1_555
Cu1 Li3 2.608276 1_445
Cu1 Li1 2.861895 1_455
Cu1 Li1 2.861898 1_445
Cu1 Li1 2.861898 1_555
Ge0 Li2 2.610403 1_555
Ge0 Li1 2.618495 1_455
Ge0 Li1 2.618495 1_565
Ge0 Li1 2.618503 1_555
Ge0 Li0 2.845408 1_556
Ge0 Li3 2.847685 1_455
Ge0 Li3 2.847685 1_565
Ge0 Li3 2.847692 1_555
Ge1 Li3 2.610403 1_555
Ge1 Li0 2.618495 1_545
Ge1 Li0 2.618495 1_655
Ge1 Li0 2.618503 1_555
Ge1 Li1 2.845408 1_554
Ge1 Li2 2.847685 1_545
Ge1 Li2 2.847685 1_655
Ge1 Li2 2.847692 1_555
