# generated using pymatgen
data_Mn2Sb2O7
_symmetry_space_group_name_H-M   'P 1'
_cell_length_a   7.28138682
_cell_length_b   7.28138682
_cell_length_c   7.28138682
_cell_angle_alpha   90.00000000
_cell_angle_beta   60.00000000
_cell_angle_gamma   120.00000000
_symmetry_Int_Tables_number   1
_chemical_formula_structural   Mn2Sb2O7
_chemical_formula_sum   'Mn4 Sb4 O14'
_cell_volume   272.97778971
_cell_formula_units_Z   2
loop_
 _symmetry_equiv_pos_site_id
 _symmetry_equiv_pos_as_xyz
  1  'x, y, z'
loop_
 _atom_site_type_symbol
 _atom_site_label
 _atom_site_symmetry_multiplicity
 _atom_site_fract_x
 _atom_site_fract_y
 _atom_site_fract_z
 _atom_site_occupancy
  Mn  Mn0  1  0.00000000  0.50000000  0.00000000  1
  Mn  Mn1  1  0.00000000  0.50000000  0.50000000  1
  Mn  Mn2  1  0.50000000  0.00000000  0.50000000  1
  Mn  Mn3  1  0.50000000  0.50000000  0.50000000  1
  Sb  Sb0  1  0.50000000  0.50000000  0.00000000  1
  Sb  Sb1  1  0.50000000  0.00000000  0.00000000  1
  Sb  Sb2  1  0.00000000  0.00000000  0.50000000  1
  Sb  Sb3  1  0.00000000  0.00000000  0.00000000  1
  O  O0  1  0.75000000  0.37500000  0.37500000  1
  O  O1  1  0.25000000  0.62500000  0.62500000  1
  O  O2  1  0.84460300  0.92230100  0.32769900  1
  O  O3  1  0.65539700  0.32769900  0.92230100  1
  O  O4  1  0.25000000  0.92230100  0.92230100  1
  O  O5  1  0.25000000  0.32769900  0.32769900  1
  O  O6  1  0.25000000  0.32769900  0.92230100  1
  O  O7  1  0.25000000  0.92230100  0.32769900  1
  O  O8  1  0.15539700  0.07769900  0.67230100  1
  O  O9  1  0.34460300  0.67230100  0.07769900  1
  O  O10  1  0.75000000  0.07769900  0.07769900  1
  O  O11  1  0.75000000  0.67230100  0.67230100  1
  O  O12  1  0.75000000  0.67230100  0.07769900  1
  O  O13  1  0.75000000  0.07769900  0.67230100  1
loop_
_geom_bond_atom_site_label_1
_geom_bond_atom_site_label_2
_geom_bond_distance
_geom_bond_site_symmetry_2
Mn0 O1 2.229460 1_554
Mn0 O0 2.229460 1_455
Mn0 O4 2.541979 1_554
Mn0 O12 2.541979 1_455
Mn0 O6 2.541979 1_554
Mn0 O10 2.541979 1_455
Mn0 O9 2.541985 1_555
Mn0 O3 2.541985 1_454
Mn1 O1 2.229460 1_555
Mn1 O0 2.229460 1_455
Mn1 O11 2.541979 1_455
Mn1 O7 2.541979 1_555
Mn1 O13 2.541979 1_455
Mn1 O5 2.541979 1_555
Mn1 O3 2.541980 1_455
Mn1 O9 2.541980 1_555
Mn2 O1 2.229460 1_545
Mn2 O0 2.229460 1_555
Mn2 O4 2.541979 1_545
Mn2 O13 2.541979 1_555
Mn2 O7 2.541979 1_545
Mn2 O10 2.541979 1_555
Mn2 O8 2.541985 1_555
Mn2 O2 2.541985 1_545
Mn3 O0 2.229460 1_555
Mn3 O1 2.229460 1_555
Mn3 O11 2.541979 1_555
Mn3 O6 2.541979 1_555
Mn3 O12 2.541979 1_555
Mn3 O5 2.541979 1_555
Mn3 O2 2.541980 1_555
Mn3 O8 2.541980 1_555
O2 Sb2 1.988417 1_665
O2 Sb3 1.988423 1_665
O3 Sb0 1.988417 1_556
O3 Sb1 1.988423 1_556
O4 Sb1 1.988422 1_566
O4 Sb3 1.988422 1_566
O5 Sb0 1.988422 1_555
O5 Sb2 1.988422 1_555
O6 Sb3 1.988422 1_556
O6 Sb0 1.988422 1_556
O7 Sb1 1.988422 1_565
O7 Sb2 1.988422 1_565
O8 Sb2 1.988417 1_555
O8 Sb3 1.988423 1_556
O9 Sb0 1.988417 1_555
O9 Sb1 1.988423 1_565
O10 Sb3 1.988422 1_655
O10 Sb1 1.988422 1_555
O11 Sb0 1.988422 1_556
O11 Sb2 1.988422 1_665
O12 Sb0 1.988422 1_555
O12 Sb3 1.988422 1_665
O13 Sb2 1.988422 1_655
O13 Sb1 1.988422 1_556
