# generated using pymatgen
data_Nb3WS8
_symmetry_space_group_name_H-M   'P 1'
_cell_length_a   3.32047923
_cell_length_b   3.32051377
_cell_length_c   25.59707854
_cell_angle_alpha   89.99997827
_cell_angle_beta   86.34202260
_cell_angle_gamma   120.00034100
_symmetry_Int_Tables_number   1
_chemical_formula_structural   Nb3WS8
_chemical_formula_sum   'Nb3 W1 S8'
_cell_volume   243.74956062
_cell_formula_units_Z   1
loop_
 _symmetry_equiv_pos_site_id
 _symmetry_equiv_pos_as_xyz
  1  'x, y, z'
loop_
 _atom_site_type_symbol
 _atom_site_label
 _atom_site_symmetry_multiplicity
 _atom_site_fract_x
 _atom_site_fract_y
 _atom_site_fract_z
 _atom_site_occupancy
  Nb  Nb0  1  0.00025022  0.00012699  0.99954120  1
  Nb  Nb1  1  0.49975876  0.24988099  0.24959111  1
  Nb  Nb2  1  -0.00017054  0.49990983  0.50037548  1
  W  W0  1  0.49993543  0.74996804  0.75070805  1
  S  S0  1  0.87218151  0.43609164  0.69135488  1
  S  S1  1  0.37399329  0.68699690  0.93771905  1
  S  S2  1  0.87357112  0.93678688  0.18782728  1
  S  S3  1  0.37363797  0.18681622  0.43865324  1
  S  S4  1  0.29326052  0.64663269  0.06135752  1
  S  S5  1  0.79270461  0.89635350  0.31150027  1
  S  S6  1  0.29270620  0.14634853  0.56231822  1
  S  S7  1  0.79417191  0.39708579  0.81005270  1
loop_
_geom_bond_atom_site_label_1
_geom_bond_atom_site_label_2
_geom_bond_distance
_geom_bond_site_symmetry_2
Nb0 S4 2.482527 1_446
Nb0 S1 2.482964 1_555
Nb0 S1 2.482971 1_545
Nb0 S4 2.483256 1_546
Nb0 S4 2.483259 1_556
Nb0 S1 2.483391 1_445
Nb1 S2 2.482140 1_555
Nb1 S2 2.482142 1_545
Nb1 S2 2.482206 1_445
Nb1 S5 2.484042 1_445
Nb1 S5 2.484760 1_555
Nb1 S5 2.484761 1_545
Nb2 S3 2.481480 1_455
Nb2 S3 2.481488 1_555
Nb2 S3 2.481497 1_565
Nb2 S6 2.484692 1_455
Nb2 S6 2.485252 1_555
Nb2 S6 2.485254 1_565
S0 W0 2.443529 1_555
S0 W0 2.443531 1_545
S0 W0 2.443547 1_655
S7 W0 2.443202 1_545
S7 W0 2.443204 1_555
S7 W0 2.443797 1_655
