# generated using pymatgen
data_BaGaH4
_symmetry_space_group_name_H-M   'P 1'
_cell_length_a   4.70731600
_cell_length_b   5.17969300
_cell_length_c   8.75444106
_cell_angle_alpha   89.86848933
_cell_angle_beta   90.00000000
_cell_angle_gamma   90.00000000
_symmetry_Int_Tables_number   1
_chemical_formula_structural   BaGaH4
_chemical_formula_sum   'Ba2 Ga2 H8'
_cell_volume   213.45417434
_cell_formula_units_Z   2
loop_
 _symmetry_equiv_pos_site_id
 _symmetry_equiv_pos_as_xyz
  1  'x, y, z'
loop_
 _atom_site_type_symbol
 _atom_site_label
 _atom_site_symmetry_multiplicity
 _atom_site_fract_x
 _atom_site_fract_y
 _atom_site_fract_z
 _atom_site_occupancy
  Ba  Ba0  1  0.25728600  0.75504600  0.31921200  1
  Ba  Ba1  1  0.75728600  0.24495400  0.68078800  1
  Ga  Ga0  1  0.67109500  0.25578800  0.14846900  1
  Ga  Ga1  1  0.17109500  0.74421200  0.85153100  1
  H  H0  1  0.33103700  0.25587600  0.16197600  1
  H  H1  1  0.83103700  0.74412400  0.83802400  1
  H  H2  1  0.77120200  0.01142400  0.25000000  1
  H  H3  1  0.27120200  0.98857600  0.75000000  1
  H  H4  1  0.77061900  0.51704700  0.23281700  1
  H  H5  1  0.27061900  0.48295300  0.76718300  1
  H  H6  1  0.78937300  0.24049600  0.97919400  1
  H  H7  1  0.28937300  0.75950400  0.02080600  1
loop_
_geom_bond_atom_site_label_1
_geom_bond_atom_site_label_2
_geom_bond_distance
_geom_bond_site_symmetry_2
Ba0 H7 2.616790 1_555
Ba0 H4 2.710025 1_455
Ba0 H2 2.713401 1_465
Ba0 H4 2.816935 1_555
Ba0 H2 2.824760 1_565
Ba0 H0 2.952407 1_555
Ba0 H0 2.954406 1_565
Ba1 H6 2.616790 1_555
Ba1 H5 2.710025 1_555
Ba1 H3 2.713401 1_545
Ba1 H5 2.816935 1_655
Ba1 H3 2.824760 1_645
Ba1 H1 2.952407 1_555
Ba1 H1 2.954406 1_545
Ga0 H6 1.585200 1_554
Ga0 H0 1.605122 1_555
Ga0 H4 1.612637 1_555
Ga0 H2 1.615246 1_555
Ga1 H7 1.585200 1_556
Ga1 H1 1.605122 1_455
Ga1 H5 1.612637 1_555
Ga1 H3 1.615246 1_555
