# generated using pymatgen
data_LiZr2(SeO)2
_symmetry_space_group_name_H-M   'P 1'
_cell_length_a   4.15308700
_cell_length_b   3.43246300
_cell_length_c   9.29728000
_cell_angle_alpha   90.00000000
_cell_angle_beta   90.00000000
_cell_angle_gamma   90.00000000
_symmetry_Int_Tables_number   1
_chemical_formula_structural   LiZr2(SeO)2
_chemical_formula_sum   'Li1 Zr2 Se2 O2'
_cell_volume   132.53567795
_cell_formula_units_Z   1
loop_
 _symmetry_equiv_pos_site_id
 _symmetry_equiv_pos_as_xyz
  1  'x, y, z'
loop_
 _atom_site_type_symbol
 _atom_site_label
 _atom_site_symmetry_multiplicity
 _atom_site_fract_x
 _atom_site_fract_y
 _atom_site_fract_z
 _atom_site_occupancy
  Li  Li0  1  0.25000000  0.75000000  0.32199200  1
  Zr  Zr0  1  0.25000000  0.25000000  0.99510600  1
  Zr  Zr1  1  0.75000000  0.75000000  0.74849700  1
  Se  Se0  1  0.25000000  0.25000000  0.69290300  1
  Se  Se1  1  0.75000000  0.75000000  0.45602300  1
  O  O0  1  0.25000000  0.75000000  0.11226600  1
  O  O1  1  0.75000000  0.25000000  0.93321300  1
loop_
_geom_bond_atom_site_label_1
_geom_bond_atom_site_label_2
_geom_bond_distance
_geom_bond_site_symmetry_2
Li0 O0 1.949881 1_555
Li0 Se1 2.421747 1_555
Li0 Se1 2.421747 1_455
Se0 Zr1 2.743108 1_455
Se0 Zr1 2.743108 1_445
Se0 Zr1 2.743108 1_555
Se0 Zr1 2.743108 1_545
Se0 Zr0 2.809666 1_555
Se1 Zr1 2.719213 1_555
O0 Zr0 2.032722 1_564
O0 Zr0 2.032722 1_554
O1 Zr0 2.154799 1_555
O1 Zr0 2.154799 1_655
O1 Zr1 2.427913 1_555
O1 Zr1 2.427913 1_545
