# generated using pymatgen
data_Li9Mn7O16
_symmetry_space_group_name_H-M   'P 1'
_cell_length_a   3.00773100
_cell_length_b   10.16880908
_cell_length_c   10.18209068
_cell_angle_alpha   107.14548337
_cell_angle_beta   93.48923915
_cell_angle_gamma   91.98484924
_symmetry_Int_Tables_number   1
_chemical_formula_structural   Li9Mn7O16
_chemical_formula_sum   'Li9 Mn7 O16'
_cell_volume   296.57669045
_cell_formula_units_Z   1
loop_
 _symmetry_equiv_pos_site_id
 _symmetry_equiv_pos_as_xyz
  1  'x, y, z'
loop_
 _atom_site_type_symbol
 _atom_site_label
 _atom_site_symmetry_multiplicity
 _atom_site_fract_x
 _atom_site_fract_y
 _atom_site_fract_z
 _atom_site_occupancy
  Li  Li0  1  0.00605500  0.74557800  0.49745100  1
  Li  Li1  1  0.51118800  0.24173800  0.24077400  1
  Li  Li2  1  0.01027200  0.75810300  0.99204200  1
  Li  Li3  1  0.49704900  0.75207000  0.25143200  1
  Li  Li4  1  0.98972800  0.24189700  0.00795800  1
  Li  Li5  1  0.48881200  0.75826200  0.75922600  1
  Li  Li6  1  0.50295100  0.24793000  0.74856800  1
  Li  Li7  1  0.99394500  0.25442200  0.50254900  1
  Li  Li8  1  0.50000000  0.00000000  0.00000000  1
  Mn  Mn0  1  0.99709400  0.99845500  0.75818300  1
  Mn  Mn1  1  0.00290600  0.00154500  0.24181700  1
  Mn  Mn2  1  0.50000000  0.50000000  0.50000000  1
  Mn  Mn3  1  0.50000000  0.50000000  0.00000000  1
  Mn  Mn4  1  0.00117600  0.49968800  0.25001800  1
  Mn  Mn5  1  0.99882400  0.50031200  0.74998200  1
  Mn  Mn6  1  0.50000000  0.00000000  0.50000000  1
  O  O0  1  0.46843400  0.89406200  0.63702200  1
  O  O1  1  0.03429900  0.38409200  0.37338300  1
  O  O2  1  0.47351900  0.89247200  0.14359600  1
  O  O3  1  0.02900700  0.88649900  0.37700500  1
  O  O4  1  0.53386800  0.38154700  0.12158700  1
  O  O5  1  0.00684500  0.88162900  0.86365600  1
  O  O6  1  0.03576500  0.38279200  0.87182800  1
  O  O7  1  0.53300200  0.38063900  0.62129800  1
  O  O8  1  0.46699800  0.61936100  0.37870200  1
  O  O9  1  0.99315500  0.11837100  0.13634400  1
  O  O10  1  0.46613200  0.61845300  0.87841300  1
  O  O11  1  0.96423500  0.61720800  0.12817200  1
  O  O12  1  0.52648100  0.10752800  0.85640400  1
  O  O13  1  0.96570100  0.61590800  0.62661700  1
  O  O14  1  0.97099300  0.11350100  0.62299500  1
  O  O15  1  0.53156600  0.10593800  0.36297800  1
loop_
_geom_bond_atom_site_label_1
_geom_bond_atom_site_label_2
_geom_bond_distance
_geom_bond_site_symmetry_2
Li0 O8 2.107192 1_455
Li0 O8 2.108003 1_555
Li0 O13 2.124599 1_455
Li0 O0 2.140637 1_555
Li0 O3 2.145207 1_555
Li0 O0 2.469386 1_455
Li1 O9 2.002135 1_455
Li1 O9 2.081570 1_555
Li1 O15 2.113916 1_555
Li1 O4 2.125847 1_555
Li1 O1 2.196668 1_655
Li1 O1 2.281038 1_555
Li2 O5 2.062570 1_555
Li2 O2 2.133737 1_556
Li2 O10 2.143455 1_555
Li2 O10 2.161845 1_455
Li2 O11 2.274564 1_456
Li2 O2 2.463217 1_456
Li3 O2 2.042255 1_555
Li3 O8 2.132011 1_555
Li3 O11 2.147602 1_455
Li3 O3 2.152296 1_655
Li3 O11 2.182590 1_555
Li3 O3 2.192505 1_555
Li4 O9 2.062570 1_555
Li4 O12 2.133737 1_554
Li4 O4 2.143455 1_555
Li4 O4 2.161845 1_655
Li4 O6 2.274564 1_654
Li4 O12 2.463217 1_654
Li5 O5 2.002135 1_655
Li5 O5 2.081570 1_555
Li5 O0 2.113916 1_555
Li5 O10 2.125847 1_555
Li5 O13 2.196668 1_455
Li5 O13 2.281038 1_555
Li6 O12 2.042255 1_555
Li6 O7 2.132011 1_555
Li6 O6 2.147602 1_655
Li6 O14 2.152296 1_455
Li6 O6 2.182590 1_555
Li6 O14 2.192505 1_555
Li7 O7 2.107192 1_655
Li7 O7 2.108003 1_555
Li7 O1 2.124599 1_655
Li7 O15 2.140637 1_555
Li7 O14 2.145207 1_555
Li7 O15 2.469386 1_655
Li8 O9 2.053461 1_555
Li8 O5 2.053461 1_544
Li8 O12 2.071337 1_554
Li8 O2 2.071337 1_545
Li8 O9 2.258227 1_455
Li8 O5 2.258227 1_644
Mn0 O5 1.821070 1_655
Mn0 O12 1.948200 1_665
Mn0 O12 1.964947 1_565
Mn0 O0 2.012291 1_555
Mn0 O0 2.050268 1_655
Mn0 O14 2.052361 1_565
Mn1 O9 1.821070 1_455
Mn1 O2 1.948200 1_445
Mn1 O2 1.964947 1_545
Mn1 O15 2.012291 1_555
Mn1 O15 2.050268 1_455
Mn1 O3 2.052361 1_545
Mn2 O1 1.945043 1_555
Mn2 O13 1.945043 1_555
Mn2 O7 1.971225 1_555
Mn2 O8 1.971225 1_555
Mn2 O13 2.263034 1_455
Mn2 O1 2.263034 1_655
Mn3 O6 1.954272 1_554
Mn3 O11 1.954272 1_555
Mn3 O4 1.966289 1_555
Mn3 O10 1.966289 1_554
Mn3 O6 2.278681 1_654
Mn3 O11 2.278681 1_455
Mn4 O1 1.957785 1_555
Mn4 O11 1.961182 1_455
Mn4 O4 1.965171 1_455
Mn4 O8 1.969529 1_555
Mn4 O4 2.276499 1_555
Mn4 O8 2.287065 1_455
Mn5 O13 1.957785 1_555
Mn5 O6 1.961182 1_655
Mn5 O10 1.965171 1_655
Mn5 O7 1.969529 1_555
Mn5 O10 2.276499 1_555
Mn5 O7 2.287065 1_655
Mn6 O14 1.930251 1_555
Mn6 O3 1.930251 1_545
Mn6 O0 2.002797 1_545
Mn6 O15 2.002797 1_555
Mn6 O14 2.224781 1_455
Mn6 O3 2.224781 1_645
