# generated using pymatgen
data_LiV(CO3)2
_symmetry_space_group_name_H-M   'P 1'
_cell_length_a   8.03348021
_cell_length_b   8.03348021
_cell_length_c   5.36848200
_cell_angle_alpha   90.00000000
_cell_angle_beta   90.00000000
_cell_angle_gamma   120.00000171
_symmetry_Int_Tables_number   1
_chemical_formula_structural   LiV(CO3)2
_chemical_formula_sum   'Li3 V3 C6 O18'
_cell_volume   300.04720222
_cell_formula_units_Z   3
loop_
 _symmetry_equiv_pos_site_id
 _symmetry_equiv_pos_as_xyz
  1  'x, y, z'
loop_
 _atom_site_type_symbol
 _atom_site_label
 _atom_site_symmetry_multiplicity
 _atom_site_fract_x
 _atom_site_fract_y
 _atom_site_fract_z
 _atom_site_occupancy
  Li  Li0  1  0.00000000  0.33707200  0.00000000  1
  Li  Li1  1  0.66292800  0.66292800  0.00000000  1
  Li  Li2  1  0.33707200  0.00000000  0.00000000  1
  V  V0  1  0.00000000  0.67003300  0.50000000  1
  V  V1  1  0.32996700  0.32996700  0.50000000  1
  V  V2  1  0.67003300  0.00000000  0.50000000  1
  C  C0  1  0.33333300  0.66666700  0.74917600  1
  C  C1  1  0.33333300  0.66666700  0.27745200  1
  C  C2  1  0.00000000  0.00000000  0.73867300  1
  C  C3  1  0.00000000  0.00000000  0.26132700  1
  C  C4  1  0.66666700  0.33333300  0.25082400  1
  C  C5  1  0.66666700  0.33333300  0.72254800  1
  O  O0  1  0.09532600  0.90601900  0.26235700  1
  O  O1  1  0.22872400  0.74501200  0.75064800  1
  O  O2  1  0.15281400  0.57753100  0.28153800  1
  O  O3  1  0.09398100  0.18930700  0.26235700  1
  O  O4  1  0.42471700  0.84718600  0.28153800  1
  O  O5  1  0.25498800  0.48371200  0.75064800  1
  O  O6  1  0.51628800  0.77127600  0.75064800  1
  O  O7  1  0.18930700  0.09398100  0.73764300  1
  O  O8  1  0.42246900  0.57528300  0.28153800  1
  O  O9  1  0.48371200  0.25498800  0.24935200  1
  O  O10  1  0.57528300  0.42246900  0.71846200  1
  O  O11  1  0.81069300  0.90467400  0.26235700  1
  O  O12  1  0.90467400  0.81069300  0.73764300  1
  O  O13  1  0.57753100  0.15281400  0.71846200  1
  O  O14  1  0.77127600  0.51628800  0.24935200  1
  O  O15  1  0.74501200  0.22872400  0.24935200  1
  O  O16  1  0.84718600  0.42471700  0.71846200  1
  O  O17  1  0.90601900  0.09532600  0.73764300  1
loop_
_geom_bond_atom_site_label_1
_geom_bond_atom_site_label_2
_geom_bond_distance
_geom_bond_site_symmetry_2
Li0 O17 2.204344 1_454
Li0 O3 2.204344 1_555
Li0 O5 2.227712 1_554
Li0 O15 2.227712 1_455
Li0 O2 2.269716 1_555
Li0 O16 2.269716 1_454
Li1 O12 2.204344 1_554
Li1 O11 2.204344 1_555
Li1 O6 2.227712 1_554
Li1 O14 2.227712 1_555
Li1 O10 2.269716 1_554
Li1 O8 2.269716 1_555
Li2 O0 2.204344 1_545
Li2 O7 2.204344 1_554
Li2 O9 2.227712 1_555
Li2 O1 2.227712 1_544
Li2 O13 2.269716 1_554
Li2 O4 2.269716 1_545
C0 O1 1.277236 1_555
C0 O6 1.277243 1_555
C0 O5 1.277243 1_555
C1 O2 1.256130 1_555
C1 O4 1.256130 1_555
C1 O8 1.256137 1_555
C2 O12 1.317069 1_445
C2 O7 1.317069 1_555
C2 O17 1.317069 1_455
C3 O11 1.317069 1_445
C3 O3 1.317069 1_555
C3 O0 1.317069 1_545
C4 O15 1.277236 1_555
C4 O14 1.277243 1_555
C4 O9 1.277243 1_555
C5 O13 1.256130 1_555
C5 O16 1.256130 1_555
C5 O10 1.256137 1_555
O0 V0 2.087173 1_555
O1 V0 2.107819 1_555
O2 V0 2.084955 1_555
O3 V1 2.087173 1_555
O4 V2 2.084955 1_565
O5 V1 2.107819 1_555
O6 V2 2.107819 1_565
O7 V1 2.087173 1_555
O8 V1 2.084955 1_555
O9 V1 2.107819 1_555
O10 V1 2.084955 1_555
O11 V2 2.087173 1_565
O12 V0 2.087173 1_655
O13 V2 2.084955 1_555
O14 V0 2.107819 1_655
O15 V2 2.107819 1_555
O16 V0 2.084955 1_655
O17 V2 2.087173 1_555
