# generated using pymatgen
data_Tm5SbPt2
_symmetry_space_group_name_H-M   'P 1'
_cell_length_a   8.62496311
_cell_length_b   8.62496311
_cell_length_c   8.62496311
_cell_angle_alpha   127.74834783
_cell_angle_beta   127.74834783
_cell_angle_gamma   77.03305062
_symmetry_Int_Tables_number   1
_chemical_formula_structural   Tm5SbPt2
_chemical_formula_sum   'Tm10 Sb2 Pt4'
_cell_volume   389.36815174
_cell_formula_units_Z   2
loop_
 _symmetry_equiv_pos_site_id
 _symmetry_equiv_pos_as_xyz
  1  'x, y, z'
loop_
 _atom_site_type_symbol
 _atom_site_label
 _atom_site_symmetry_multiplicity
 _atom_site_fract_x
 _atom_site_fract_y
 _atom_site_fract_z
 _atom_site_occupancy
  Tm  Tm0  1  0.00000000  -0.00000000  0.00000000  1
  Tm  Tm1  1  0.50000000  0.50000000  0.00000000  1
  Tm  Tm2  1  0.79499094  0.29499094  0.81223800  1
  Tm  Tm3  1  0.20500906  0.70500906  0.18776200  1
  Tm  Tm4  1  0.48275294  0.98275294  0.18776200  1
  Tm  Tm5  1  0.29499094  0.48275294  0.50000000  1
  Tm  Tm6  1  0.01724706  0.20500906  0.50000000  1
  Tm  Tm7  1  0.51724706  0.01724706  0.81223800  1
  Tm  Tm8  1  0.70500906  0.51724706  0.50000000  1
  Tm  Tm9  1  0.98275294  0.79499094  0.50000000  1
  Sb  Sb0  1  0.25000000  0.25000000  0.00000000  1
  Sb  Sb1  1  0.75000000  0.75000000  0.00000000  1
  Pt  Pt0  1  0.13977889  0.63977889  0.77955977  1
  Pt  Pt1  1  0.86022111  0.36022111  0.22044023  1
  Pt  Pt2  1  0.63977889  0.86022111  0.50000000  1
  Pt  Pt3  1  0.36022111  0.13977889  0.50000000  1
loop_
_geom_bond_atom_site_label_1
_geom_bond_atom_site_label_2
_geom_bond_distance
_geom_bond_site_symmetry_2
Sb0 Tm4 3.237112 1_545
Sb0 Tm7 3.237112 1_554
Sb0 Tm9 3.237112 1_444
Sb0 Tm8 3.237112 1_555
Sb0 Tm2 3.237112 1_454
Sb0 Tm5 3.237112 1_555
Sb0 Tm6 3.237112 1_554
Sb0 Tm3 3.237112 1_555
Sb0 Tm1 3.374209 1_555
Sb0 Tm0 3.374209 1_555
Sb1 Tm4 3.237112 1_555
Sb1 Tm9 3.237112 1_555
Sb1 Tm2 3.237112 1_554
Sb1 Tm5 3.237112 1_554
Sb1 Tm8 3.237112 1_554
Sb1 Tm6 3.237112 1_665
Sb1 Tm7 3.237112 1_564
Sb1 Tm3 3.237112 1_655
Sb1 Tm0 3.374209 1_665
Sb1 Tm1 3.374209 1_555
Pt0 Tm3 2.884463 1_556
Pt0 Tm4 2.884480 1_556
Pt0 Tm6 2.929208 1_555
Pt0 Tm8 2.929208 1_455
Pt0 Tm5 2.929225 1_555
Pt0 Tm9 2.929225 1_455
Pt0 Tm1 2.934977 1_556
Pt0 Tm0 2.934977 1_566
Pt1 Tm2 2.884463 1_554
Pt1 Tm7 2.884480 1_554
Pt1 Tm5 2.929208 1_655
Pt1 Tm9 2.929208 1_555
Pt1 Tm8 2.929225 1_555
Pt1 Tm6 2.929225 1_655
Pt1 Tm1 2.934977 1_555
Pt1 Tm0 2.934977 1_655
Pt2 Tm9 2.884480 1_555
Pt2 Tm8 2.884480 1_555
Pt2 Tm3 2.929211 1_555
Pt2 Tm2 2.929211 1_565
Pt2 Tm7 2.929211 1_565
Pt2 Tm4 2.929211 1_555
Pt2 Tm0 2.934981 1_666
Pt2 Tm1 2.934981 1_555
Pt3 Tm5 2.884480 1_555
Pt3 Tm6 2.884480 1_555
Pt3 Tm3 2.929211 1_545
Pt3 Tm2 2.929211 1_555
Pt3 Tm7 2.929211 1_555
Pt3 Tm4 2.929211 1_545
Pt3 Tm0 2.934981 1_555
Pt3 Tm1 2.934981 1_556
