# generated using pymatgen
data_KNdMn4O12
_symmetry_space_group_name_H-M   'P 1'
_cell_length_a   5.38912416
_cell_length_b   5.38912416
_cell_length_c   7.65614303
_cell_angle_alpha   90.00000000
_cell_angle_beta   90.00000000
_cell_angle_gamma   89.42292713
_symmetry_Int_Tables_number   1
_chemical_formula_structural   KNdMn4O12
_chemical_formula_sum   'K1 Nd1 Mn4 O12'
_cell_volume   222.34347463
_cell_formula_units_Z   1
loop_
 _symmetry_equiv_pos_site_id
 _symmetry_equiv_pos_as_xyz
  1  'x, y, z'
loop_
 _atom_site_type_symbol
 _atom_site_label
 _atom_site_symmetry_multiplicity
 _atom_site_fract_x
 _atom_site_fract_y
 _atom_site_fract_z
 _atom_site_occupancy
  K  K0  1  0.00557916  0.00557916  -0.00000000  1
  Nd  Nd0  1  0.49140097  0.49140097  0.50000000  1
  Mn  Mn0  1  0.49974049  0.99870921  0.75687131  1
  Mn  Mn1  1  0.49974049  0.99870921  0.24312869  1
  Mn  Mn2  1  0.99870921  0.49974049  0.24312869  1
  Mn  Mn3  1  0.99870921  0.49974049  0.75687131  1
  O  O0  1  0.75759128  0.24228153  0.73142296  1
  O  O1  1  0.24228153  0.75759128  0.73142296  1
  O  O2  1  0.24228153  0.75759128  0.26857704  1
  O  O3  1  0.75759128  0.24228153  0.26857704  1
  O  O4  1  0.72405950  0.72405950  0.72152321  1
  O  O5  1  0.28141223  0.28141223  0.75746466  1
  O  O6  1  0.28141223  0.28141223  0.24253534  1
  O  O7  1  0.72405950  0.72405950  0.27847679  1
  O  O8  1  0.51702134  0.97475438  0.00000000  1
  O  O9  1  0.48090179  0.02345385  0.50000000  1
  O  O10  1  0.97475438  0.51702134  0.00000000  1
  O  O11  1  0.02345385  0.48090179  0.50000000  1
loop_
_geom_bond_atom_site_label_1
_geom_bond_atom_site_label_2
_geom_bond_distance
_geom_bond_site_symmetry_2
K0 O10 2.639803 1_445
K0 O8 2.639803 1_445
K0 O3 2.758106 1_455
K0 O2 2.758106 1_545
K0 O0 2.758106 1_454
K0 O1 2.758106 1_544
K0 O8 2.759556 1_545
K0 O10 2.759556 1_455
K0 O6 2.812808 1_555
K0 O5 2.812808 1_554
K0 O4 3.032407 1_444
K0 O7 3.032407 1_445
Nd0 O4 2.460139 1_555
Nd0 O7 2.460139 1_555
Nd0 O9 2.523029 1_555
Nd0 O11 2.523029 1_555
Nd0 O5 2.544142 1_555
Nd0 O6 2.544142 1_555
Nd0 O0 2.638331 1_555
Nd0 O2 2.638331 1_555
Nd0 O3 2.638331 1_555
Nd0 O1 2.638331 1_555
Nd0 O9 2.867287 1_565
Nd0 O11 2.867287 1_655
Mn0 O8 1.868157 1_556
Mn0 O5 1.915571 1_565
Mn0 O1 1.920378 1_555
Mn0 O4 1.920770 1_555
Mn0 O0 1.930982 1_565
Mn0 O9 1.973703 1_565
Mn1 O8 1.868157 1_555
Mn1 O6 1.915571 1_565
Mn1 O2 1.920378 1_555
Mn1 O7 1.920770 1_555
Mn1 O3 1.930982 1_565
Mn1 O9 1.973703 1_565
Mn2 O10 1.868157 1_555
Mn2 O6 1.915571 1_655
Mn2 O3 1.920378 1_555
Mn2 O7 1.920770 1_555
Mn2 O2 1.930982 1_655
Mn2 O11 1.973703 1_655
Mn3 O10 1.868157 1_556
Mn3 O5 1.915571 1_655
Mn3 O0 1.920378 1_555
Mn3 O4 1.920770 1_555
Mn3 O1 1.930982 1_655
Mn3 O11 1.973703 1_655
