# generated using pymatgen
data_Nd(NO5)3
_symmetry_space_group_name_H-M   'P 1'
_cell_length_a   6.90936100
_cell_length_b   9.10443053
_cell_length_c   11.63444475
_cell_angle_alpha   112.33152950
_cell_angle_beta   90.08197113
_cell_angle_gamma   109.46575279
_symmetry_Int_Tables_number   1
_chemical_formula_structural   Nd(NO5)3
_chemical_formula_sum   'Nd2 N6 O30'
_cell_volume   631.37059925
_cell_formula_units_Z   2
loop_
 _symmetry_equiv_pos_site_id
 _symmetry_equiv_pos_as_xyz
  1  'x, y, z'
loop_
 _atom_site_type_symbol
 _atom_site_label
 _atom_site_symmetry_multiplicity
 _atom_site_fract_x
 _atom_site_fract_y
 _atom_site_fract_z
 _atom_site_occupancy
  Nd  Nd0  1  0.48966000  0.84874800  0.78419300  1
  Nd  Nd1  1  0.51034000  0.15125200  0.21580700  1
  N  N0  1  0.77673100  0.82084700  0.01907000  1
  N  N1  1  0.22326900  0.17915300  0.98093000  1
  N  N2  1  0.57952300  0.41975400  0.31226500  1
  N  N3  1  0.42047700  0.58024600  0.68773500  1
  N  N4  1  0.74724100  0.18255300  0.65858200  1
  N  N5  1  0.25275900  0.81744700  0.34141800  1
  O  O0  1  0.58402600  0.52946000  0.34815700  1
  O  O1  1  0.41597400  0.47054000  0.65184300  1
  O  O2  1  0.12099100  0.31499800  0.42762500  1
  O  O3  1  0.87900900  0.68500200  0.57237500  1
  O  O4  1  0.54501300  0.26477000  0.38407200  1
  O  O5  1  0.45498700  0.73523000  0.61592800  1
  O  O6  1  0.16083300  0.60731300  0.11796900  1
  O  O7  1  0.83916700  0.39268700  0.88203100  1
  O  O8  1  0.00340900  0.30012900  0.33234800  1
  O  O9  1  0.99659100  0.69987100  0.66765200  1
  O  O10  1  0.87584600  0.31303600  0.61745500  1
  O  O11  1  0.12415400  0.68696400  0.38254500  1
  O  O12  1  0.91807900  0.82273400  0.10689300  1
  O  O13  1  0.08192100  0.17726600  0.89310700  1
  O  O14  1  0.63039000  0.89069100  0.99611100  1
  O  O15  1  0.36961000  0.10930900  0.00388900  1
  O  O16  1  0.79102200  0.10758700  0.17949300  1
  O  O17  1  0.20897800  0.89241300  0.82050700  1
  O  O18  1  0.06530400  0.02169200  0.54066300  1
  O  O19  1  0.93469600  0.97830800  0.45933700  1
  O  O20  1  0.23312900  0.25186200  0.05856900  1
  O  O21  1  0.76687100  0.74813800  0.94143100  1
  O  O22  1  0.78540600  0.37793200  0.97755000  1
  O  O23  1  0.21459400  0.62206800  0.02245000  1
  O  O24  1  0.60553400  0.44861900  0.19876900  1
  O  O25  1  0.39446600  0.55138100  0.80123100  1
  O  O26  1  0.61023900  0.16814800  0.72046100  1
  O  O27  1  0.38976100  0.83185200  0.27953900  1
  O  O28  1  0.25781800  0.95153900  0.35762300  1
  O  O29  1  0.74218200  0.04846100  0.64237700  1
loop_
_geom_bond_atom_site_label_1
_geom_bond_atom_site_label_2
_geom_bond_distance
_geom_bond_site_symmetry_2
Nd0 O5 1.803913 1_555
Nd0 O17 2.118043 1_555
Nd0 O14 2.490062 1_555
Nd1 O4 1.803913 1_555
Nd1 O16 2.118043 1_555
Nd1 O15 2.490062 1_555
N0 O21 0.879854 1_554
N0 O12 1.403827 1_555
N0 O14 1.433495 1_554
N1 O20 0.879854 1_556
N1 O13 1.403827 1_555
N1 O15 1.433495 1_556
N2 O0 0.913926 1_555
N2 O24 1.441490 1_555
N2 O4 1.848784 1_555
N2 Nd1 2.144448 1_555
N3 O1 0.913926 1_555
N3 O25 1.441490 1_555
N3 O5 1.848784 1_555
N3 Nd0 2.144448 1_555
N4 O29 1.150575 1_555
N4 O26 1.192686 1_555
N4 O10 1.469504 1_555
N5 O28 1.150575 1_555
N5 O27 1.192686 1_555
N5 O11 1.469504 1_555
O2 O8 1.310418 1_555
O3 O9 1.310418 1_555
O18 O19 1.158282 1_445
O22 O7 1.213428 1_555
O23 O6 1.213428 1_555
