# generated using pymatgen
data_MgAu2
_symmetry_space_group_name_H-M   'P 1'
_cell_length_a   6.67264490
_cell_length_b   6.67264490
_cell_length_c   4.20411315
_cell_angle_alpha   90.00000000
_cell_angle_beta   90.00000000
_cell_angle_gamma   146.10964340
_symmetry_Int_Tables_number   1
_chemical_formula_structural   MgAu2
_chemical_formula_sum   'Mg2 Au4'
_cell_volume   104.37521802
_cell_formula_units_Z   2
loop_
 _symmetry_equiv_pos_site_id
 _symmetry_equiv_pos_as_xyz
  1  'x, y, z'
loop_
 _atom_site_type_symbol
 _atom_site_label
 _atom_site_symmetry_multiplicity
 _atom_site_fract_x
 _atom_site_fract_y
 _atom_site_fract_z
 _atom_site_occupancy
  Mg  Mg0  1  0.59394196  0.40605804  0.25000000  1
  Mg  Mg1  1  0.40605804  0.59394196  0.75000000  1
  Au  Au0  1  0.25303380  0.74696620  0.25000000  1
  Au  Au1  1  0.92570110  0.07429890  0.25000000  1
  Au  Au2  1  0.74696620  0.25303380  0.75000000  1
  Au  Au3  1  0.07429890  0.92570110  0.75000000  1
loop_
_geom_bond_atom_site_label_1
_geom_bond_atom_site_label_2
_geom_bond_distance
_geom_bond_site_symmetry_2
Au0 Mg0 2.811930 1_455
Au0 Mg0 2.811930 1_565
Au0 Mg1 2.869629 1_555
Au0 Mg1 2.869629 1_554
Au1 Mg1 2.874668 1_545
Au1 Mg1 2.874668 1_544
Au1 Mg1 2.874668 1_655
Au1 Mg1 2.874668 1_654
Au1 Mg0 2.897413 1_545
Au1 Mg0 2.897413 1_655
Au2 Mg1 2.811930 1_545
Au2 Mg1 2.811930 1_655
Au2 Mg0 2.869629 1_556
Au2 Mg0 2.869629 1_555
Au3 Mg0 2.874668 1_456
Au3 Mg0 2.874668 1_455
Au3 Mg0 2.874668 1_565
Au3 Mg0 2.874668 1_566
Au3 Mg1 2.897413 1_455
Au3 Mg1 2.897413 1_565
