# generated using pymatgen
data_SrZnAsHO5
_symmetry_space_group_name_H-M   'P 1'
_cell_length_a   6.13909100
_cell_length_b   7.76811700
_cell_length_c   9.42450200
_cell_angle_alpha   90.00000000
_cell_angle_beta   90.00000000
_cell_angle_gamma   90.00000000
_symmetry_Int_Tables_number   1
_chemical_formula_structural   SrZnAsHO5
_chemical_formula_sum   'Sr4 Zn4 As4 H4 O20'
_cell_volume   449.44674554
_cell_formula_units_Z   4
loop_
 _symmetry_equiv_pos_site_id
 _symmetry_equiv_pos_as_xyz
  1  'x, y, z'
loop_
 _atom_site_type_symbol
 _atom_site_label
 _atom_site_symmetry_multiplicity
 _atom_site_fract_x
 _atom_site_fract_y
 _atom_site_fract_z
 _atom_site_occupancy
  Sr  Sr0  1  0.02844200  0.36585600  0.83196900  1
  Sr  Sr1  1  0.52844200  0.13414400  0.16803100  1
  Sr  Sr2  1  0.97155800  0.86585600  0.66803100  1
  Sr  Sr3  1  0.47155800  0.63414400  0.33196900  1
  Zn  Zn0  1  0.26608500  0.76518800  0.98956600  1
  Zn  Zn1  1  0.76608500  0.73481200  0.01043400  1
  Zn  Zn2  1  0.73391500  0.26518800  0.51043400  1
  Zn  Zn3  1  0.23391500  0.23481200  0.48956600  1
  As  As0  1  0.98582400  0.37890600  0.18290100  1
  As  As1  1  0.48582400  0.12109400  0.81709900  1
  As  As2  1  0.01417600  0.87890600  0.31709900  1
  As  As3  1  0.51417600  0.62109400  0.68290100  1
  H  H0  1  0.98952800  0.99714500  0.98725900  1
  H  H1  1  0.48952800  0.50285500  0.01274100  1
  H  H2  1  0.01047200  0.49714500  0.51274100  1
  H  H3  1  0.51047200  0.00285500  0.48725900  1
  O  O0  1  0.00960100  0.55452900  0.06796600  1
  O  O1  1  0.50960100  0.94547100  0.93203400  1
  O  O2  1  0.99039900  0.05452900  0.43203400  1
  O  O3  1  0.49039900  0.44547100  0.56796600  1
  O  O4  1  0.93314100  0.20852300  0.07064800  1
  O  O5  1  0.43314100  0.29147700  0.92935200  1
  O  O6  1  0.06685900  0.70852300  0.42935200  1
  O  O7  1  0.56685900  0.79147700  0.57064800  1
  O  O8  1  0.27071300  0.64315800  0.77411400  1
  O  O9  1  0.77071300  0.85684200  0.22588600  1
  O  O10  1  0.72928700  0.14315800  0.72588600  1
  O  O11  1  0.22928700  0.35684200  0.27411400  1
  O  O12  1  0.74106100  0.60804400  0.79147700  1
  O  O13  1  0.24106100  0.89195600  0.20852300  1
  O  O14  1  0.25893900  0.10804400  0.70852300  1
  O  O15  1  0.75893900  0.39195600  0.29147700  1
  O  O16  1  0.99712000  0.88735700  0.93402300  1
  O  O17  1  0.49712000  0.61264300  0.06597700  1
  O  O18  1  0.00288000  0.38735700  0.56597700  1
  O  O19  1  0.50288000  0.11264300  0.43402300  1
loop_
_geom_bond_atom_site_label_1
_geom_bond_atom_site_label_2
_geom_bond_distance
_geom_bond_site_symmetry_2
As0 O4 1.724997 1_555
As0 O15 1.731314 1_555
As0 O11 1.732716 1_655
As0 O0 1.748098 1_655
As1 O5 1.724997 1_555
As1 O14 1.731314 1_555
As1 O10 1.732716 1_555
As1 O1 1.748098 1_545
As2 O6 1.724997 1_555
As2 O13 1.731314 1_555
As2 O9 1.732716 1_455
As2 O2 1.748098 1_465
As3 O7 1.724997 1_555
As3 O12 1.731314 1_555
As3 O8 1.732716 1_555
As3 O3 1.748098 1_555
H0 O16 0.990578 1_555
H1 O17 0.990578 1_555
H2 O18 0.990578 1_555
H3 O19 0.990578 1_555
O0 Zn1 2.119010 1_455
O0 Zn0 2.388122 1_554
O0 Sr0 2.666144 1_554
O1 Zn0 2.119010 1_555
O1 Zn1 2.388122 1_556
O1 Sr1 2.666144 1_566
O2 Zn3 2.119010 1_655
O2 Zn2 2.388122 1_555
O2 Sr2 2.666144 1_545
O3 Zn2 2.119010 1_555
O3 Zn3 2.388122 1_555
O3 Sr3 2.666144 1_555
O4 Sr0 2.626016 1_654
O4 Sr1 2.710872 1_555
O5 Sr1 2.626016 1_556
O5 Sr0 2.710872 1_555
O6 Sr2 2.626016 1_455
O6 Sr3 2.710872 1_555
O7 Sr3 2.626016 1_555
O7 Sr2 2.710872 1_555
O8 Zn0 2.241082 1_555
O8 Sr0 2.673882 1_555
O8 Sr2 2.713880 1_455
O9 Zn1 2.241082 1_555
O9 Sr1 2.673882 1_565
O9 Sr3 2.713880 1_555
O10 Zn2 2.241082 1_555
O10 Sr2 2.673882 1_545
O10 Sr0 2.713880 1_655
O11 Zn3 2.241082 1_555
O11 Sr3 2.673882 1_555
O11 Sr1 2.713880 1_555
O12 Zn1 2.291640 1_556
O12 Sr0 2.607239 1_655
O12 Sr2 2.714175 1_555
O13 Zn0 2.291640 1_554
O13 Sr1 2.607239 1_565
O13 Sr3 2.714175 1_555
O14 Zn3 2.291640 1_555
O14 Sr2 2.607239 1_445
O14 Sr0 2.714175 1_555
O15 Zn2 2.291640 1_555
O15 Sr3 2.607239 1_555
O15 Sr1 2.714175 1_555
O16 Zn0 1.975126 1_655
O16 Zn1 1.983556 1_556
O16 Sr2 2.517296 1_555
O17 Zn1 1.975126 1_555
O17 Zn0 1.983556 1_554
O17 Sr3 2.517296 1_555
O18 Zn2 1.975126 1_455
O18 Zn3 1.983556 1_555
O18 Sr0 2.517296 1_555
O19 Zn3 1.975126 1_555
O19 Zn2 1.983556 1_555
O19 Sr1 2.517296 1_555
