# generated using pymatgen
data_RbMg6BiO8
_symmetry_space_group_name_H-M   'P 1'
_cell_length_a   9.30881440
_cell_length_b   4.68137027
_cell_length_c   4.68137027
_cell_angle_alpha   90.00000000
_cell_angle_beta   90.00000000
_cell_angle_gamma   90.00000000
_symmetry_Int_Tables_number   1
_chemical_formula_structural   RbMg6BiO8
_chemical_formula_sum   'Rb1 Mg6 Bi1 O8'
_cell_volume   204.00478631
_cell_formula_units_Z   1
loop_
 _symmetry_equiv_pos_site_id
 _symmetry_equiv_pos_as_xyz
  1  'x, y, z'
loop_
 _atom_site_type_symbol
 _atom_site_label
 _atom_site_symmetry_multiplicity
 _atom_site_fract_x
 _atom_site_fract_y
 _atom_site_fract_z
 _atom_site_occupancy
  Rb  Rb0  1  0.00000000  0.00000000  0.00000000  1
  Mg  Mg0  1  0.00000000  0.50000000  0.50000000  1
  Mg  Mg1  1  0.50000000  0.50000000  0.50000000  1
  Mg  Mg2  1  0.22785296  0.00000000  0.50000000  1
  Mg  Mg3  1  0.77214704  0.00000000  0.50000000  1
  Mg  Mg4  1  0.22785296  0.50000000  0.00000000  1
  Mg  Mg5  1  0.77214704  0.50000000  0.00000000  1
  Bi  Bi0  1  0.50000000  0.00000000  0.00000000  1
  O  O0  1  0.26033207  0.00000000  0.00000000  1
  O  O1  1  0.73966793  0.00000000  0.00000000  1
  O  O2  1  0.24812524  0.50000000  0.50000000  1
  O  O3  1  0.75187476  0.50000000  0.50000000  1
  O  O4  1  0.00000000  0.00000000  0.50000000  1
  O  O5  1  0.50000000  0.00000000  0.50000000  1
  O  O6  1  0.00000000  0.50000000  0.00000000  1
  O  O7  1  0.50000000  0.50000000  0.00000000  1
loop_
_geom_bond_atom_site_label_1
_geom_bond_atom_site_label_2
_geom_bond_distance
_geom_bond_site_symmetry_2
Mg0 O2 2.309752 1_555
Mg0 O3 2.309752 1_455
Mg0 O4 2.340685 1_565
Mg0 O6 2.340685 1_556
Mg0 O6 2.340685 1_555
Mg0 O4 2.340685 1_555
Mg1 O5 2.340685 1_555
Mg1 O5 2.340685 1_565
Mg1 O7 2.340685 1_555
Mg1 O7 2.340685 1_556
Mg1 O2 2.344655 1_555
Mg1 O3 2.344655 1_555
Mg2 O4 2.121041 1_555
Mg2 O2 2.348280 1_555
Mg2 O2 2.348280 1_545
Mg2 O0 2.360131 1_555
Mg2 O0 2.360131 1_556
Mg2 O5 2.533366 1_555
Mg3 O4 2.121041 1_655
Mg3 O3 2.348280 1_545
Mg3 O3 2.348280 1_555
Mg3 O1 2.360131 1_555
Mg3 O1 2.360131 1_556
Mg3 O5 2.533366 1_555
Mg4 O6 2.121041 1_555
Mg4 O2 2.348280 1_555
Mg4 O2 2.348280 1_554
Mg4 O0 2.360131 1_555
Mg4 O0 2.360131 1_565
Mg4 O7 2.533366 1_555
Mg5 O6 2.121041 1_655
Mg5 O3 2.348280 1_555
Mg5 O3 2.348280 1_554
Mg5 O1 2.360131 1_555
Mg5 O1 2.360131 1_565
Mg5 O7 2.533366 1_555
Bi0 O0 2.231024 1_555
Bi0 O1 2.231024 1_555
Bi0 O5 2.340685 1_554
Bi0 O5 2.340685 1_555
Bi0 O7 2.340685 1_545
Bi0 O7 2.340685 1_555
O0 Rb0 2.423383 1_555
O1 Rb0 2.423383 1_655
O4 Rb0 2.340685 1_555
O4 Rb0 2.340685 1_556
O6 Rb0 2.340685 1_565
O6 Rb0 2.340685 1_555
