# generated using pymatgen
data_CsRbMo3O10
_symmetry_space_group_name_H-M   'P 1'
_cell_length_a   8.54657795
_cell_length_b   8.65324019
_cell_length_c   8.75867312
_cell_angle_alpha   63.23732100
_cell_angle_beta   85.64920929
_cell_angle_gamma   74.63292886
_symmetry_Int_Tables_number   1
_chemical_formula_structural   CsRbMo3O10
_chemical_formula_sum   'Cs2 Rb2 Mo6 O20'
_cell_volume   556.97614542
_cell_formula_units_Z   2
loop_
 _symmetry_equiv_pos_site_id
 _symmetry_equiv_pos_as_xyz
  1  'x, y, z'
loop_
 _atom_site_type_symbol
 _atom_site_label
 _atom_site_symmetry_multiplicity
 _atom_site_fract_x
 _atom_site_fract_y
 _atom_site_fract_z
 _atom_site_occupancy
  Cs  Cs0  1  0.30867500  0.73354300  0.09028300  1
  Cs  Cs1  1  0.69132500  0.26645700  0.90971700  1
  Rb  Rb0  1  0.15373700  0.47606200  0.72630900  1
  Rb  Rb1  1  0.84626300  0.52393800  0.27369100  1
  Mo  Mo0  1  0.54726500  0.19584300  0.46544000  1
  Mo  Mo1  1  0.45273500  0.80415700  0.53456000  1
  Mo  Mo2  1  0.03317200  0.06050900  0.64433400  1
  Mo  Mo3  1  0.96682800  0.93949100  0.35566600  1
  Mo  Mo4  1  0.23481500  0.15895800  0.19757600  1
  Mo  Mo5  1  0.76518500  0.84104200  0.80242400  1
  O  O0  1  0.05534800  0.09283100  0.14021900  1
  O  O1  1  0.94465200  0.90716900  0.85978100  1
  O  O2  1  0.03180000  0.14743300  0.40234100  1
  O  O3  1  0.96820000  0.85256700  0.59765900  1
  O  O4  1  0.40395600  0.09719300  0.37556800  1
  O  O5  1  0.59604400  0.90280700  0.62443200  1
  O  O6  1  0.73319200  0.13245900  0.60516800  1
  O  O7  1  0.26680800  0.86754100  0.39483200  1
  O  O8  1  0.35978900  0.13573900  0.03862800  1
  O  O9  1  0.64021100  0.86426100  0.96137200  1
  O  O10  1  0.75802500  0.03487200  0.30416400  1
  O  O11  1  0.24197500  0.96512800  0.69583600  1
  O  O12  1  0.57387900  0.37346400  0.27083900  1
  O  O13  1  0.42612100  0.62653600  0.72916100  1
  O  O14  1  0.17120000  0.39208000  0.12115400  1
  O  O15  1  0.82880000  0.60792000  0.87884600  1
  O  O16  1  0.01125700  0.73810900  0.33778900  1
  O  O17  1  0.98874300  0.26189100  0.66221100  1
  O  O18  1  0.40006800  0.29916200  0.56112000  1
  O  O19  1  0.59993200  0.70083800  0.43888000  1
loop_
_geom_bond_atom_site_label_1
_geom_bond_atom_site_label_2
_geom_bond_distance
_geom_bond_site_symmetry_2
Cs0 O12 3.116083 1_555
Cs0 O11 3.120085 1_554
Cs0 O16 3.217165 1_555
Cs0 O9 3.262838 1_554
Cs0 O7 3.317913 1_555
Cs0 O14 3.355070 1_555
Cs0 O1 3.428757 1_454
Cs0 O8 3.444671 1_565
Cs0 O0 3.472483 1_565
Cs0 O13 3.678653 1_554
Cs1 O13 3.116083 1_555
Cs1 O10 3.120085 1_556
Cs1 O17 3.217165 1_555
Cs1 O8 3.262838 1_556
Cs1 O6 3.317913 1_555
Cs1 O15 3.355070 1_555
Cs1 O0 3.428757 1_656
Cs1 O9 3.444671 1_545
Cs1 O1 3.472483 1_545
Cs1 O12 3.678653 1_556
Mo0 O18 1.732897 1_555
Mo0 O12 1.756814 1_555
Mo0 O6 1.884744 1_555
Mo0 O4 2.038146 1_555
Mo0 O5 2.211459 1_545
Mo0 O10 2.690038 1_555
Mo1 O19 1.732897 1_555
Mo1 O13 1.756814 1_555
Mo1 O7 1.884744 1_555
Mo1 O5 2.038146 1_555
Mo1 O4 2.211459 1_565
Mo1 O11 2.690038 1_555
Mo2 O11 1.753715 1_545
Mo2 O17 1.758235 1_455
Mo2 O2 1.903066 1_555
Mo2 O1 1.988551 1_445
Mo2 O3 2.222543 1_445
Mo2 O6 2.484649 1_455
Mo3 O10 1.753715 1_565
Mo3 O16 1.758235 1_655
Mo3 O3 1.903066 1_555
Mo3 O0 1.988551 1_665
Mo3 O2 2.222543 1_665
Mo3 O7 2.484649 1_655
Mo4 O8 1.741238 1_555
Mo4 O14 1.752388 1_555
Mo4 O0 1.942526 1_555
Mo4 O4 1.996947 1_555
Mo4 O7 2.280630 1_545
Mo4 O2 2.386521 1_555
Mo5 O9 1.741238 1_555
Mo5 O15 1.752388 1_555
Mo5 O1 1.942526 1_555
Mo5 O5 1.996947 1_555
Mo5 O6 2.280630 1_565
Mo5 O3 2.386521 1_555
O2 Rb1 2.936912 1_455
O3 Rb0 2.936912 1_655
O8 Rb0 3.159738 1_554
O9 Rb1 3.159738 1_556
O12 Rb1 2.959742 1_555
O13 Rb0 2.959742 1_555
O14 Rb1 3.151131 1_455
O14 Rb0 3.204341 1_554
O15 Rb0 3.151131 1_655
O15 Rb1 3.204341 1_556
O16 Rb1 2.860160 1_455
O16 Rb0 3.228081 1_555
O17 Rb0 2.860160 1_655
O17 Rb1 3.228081 1_555
O18 Rb0 2.948422 1_555
O19 Rb1 2.948422 1_555
