# generated using pymatgen
data_Mg6AlSi
_symmetry_space_group_name_H-M   'P 1'
_cell_length_a   5.06168600
_cell_length_b   6.20409200
_cell_length_c   10.45488500
_cell_angle_alpha   90.00000000
_cell_angle_beta   90.00000000
_cell_angle_gamma   90.00000000
_symmetry_Int_Tables_number   1
_chemical_formula_structural   Mg6AlSi
_chemical_formula_sum   'Mg12 Al2 Si2'
_cell_volume   328.31648518
_cell_formula_units_Z   2
loop_
 _symmetry_equiv_pos_site_id
 _symmetry_equiv_pos_as_xyz
  1  'x, y, z'
loop_
 _atom_site_type_symbol
 _atom_site_label
 _atom_site_symmetry_multiplicity
 _atom_site_fract_x
 _atom_site_fract_y
 _atom_site_fract_z
 _atom_site_occupancy
  Mg  Mg0  1  0.50000000  0.24964900  0.58359100  1
  Mg  Mg1  1  0.50000000  0.75035100  0.58359100  1
  Mg  Mg2  1  0.00000000  0.24874000  0.41378900  1
  Mg  Mg3  1  0.00000000  0.75126000  0.41378900  1
  Mg  Mg4  1  0.00000000  0.00000000  0.66918800  1
  Mg  Mg5  1  0.00000000  0.00000000  0.17056200  1
  Mg  Mg6  1  0.50000000  0.74964900  0.08359100  1
  Mg  Mg7  1  0.50000000  0.25035100  0.08359100  1
  Mg  Mg8  1  0.00000000  0.74874000  0.91378900  1
  Mg  Mg9  1  0.00000000  0.25126000  0.91378900  1
  Mg  Mg10  1  0.00000000  0.50000000  0.16918800  1
  Mg  Mg11  1  0.00000000  0.50000000  0.67056200  1
  Al  Al0  1  0.50000000  0.00000000  0.83244500  1
  Al  Al1  1  0.50000000  0.50000000  0.33244500  1
  Si  Si0  1  0.50000000  0.00000000  0.33305000  1
  Si  Si1  1  0.50000000  0.50000000  0.83305000  1
loop_
_geom_bond_atom_site_label_1
_geom_bond_atom_site_label_2
_geom_bond_distance
_geom_bond_site_symmetry_2
Mg0 Si1 3.035529 1_555
Mg0 Si0 3.043035 1_555
Mg0 Mg2 3.091399 1_555
Mg0 Mg2 3.091399 1_655
Mg0 Mg1 3.097691 1_545
Mg0 Mg4 3.099185 1_655
Mg0 Mg4 3.099185 1_555
Mg0 Mg11 3.105539 1_655
Mg0 Mg11 3.105539 1_555
Mg0 Mg1 3.106401 1_555
Mg1 Si1 3.035529 1_555
Mg1 Si0 3.043035 1_565
Mg1 Mg3 3.091399 1_655
Mg1 Mg3 3.091399 1_555
Mg1 Mg4 3.099185 1_565
Mg1 Mg4 3.099185 1_665
Mg1 Mg11 3.105539 1_655
Mg1 Mg11 3.105539 1_555
Mg2 Mg5 2.974538 1_555
Mg2 Si0 3.082075 1_555
Mg2 Si0 3.082075 1_455
Mg2 Mg4 3.084036 1_555
Mg2 Mg3 3.086412 1_545
Mg2 Mg3 3.117680 1_555
Mg3 Mg5 2.974538 1_565
Mg3 Si0 3.082075 1_465
Mg3 Si0 3.082075 1_565
Mg3 Mg4 3.084036 1_565
Mg4 Mg8 2.994936 1_545
Mg4 Mg9 2.994936 1_555
Mg5 Si0 3.048125 1_555
Mg5 Si0 3.048125 1_455
Mg5 Mg9 3.104303 1_554
Mg5 Mg8 3.104303 1_544
Mg5 Mg7 3.105539 1_455
Mg5 Mg6 3.105539 1_545
Mg5 Mg7 3.105539 1_555
Mg5 Mg6 3.105539 1_445
Mg6 Si0 3.035529 1_565
Mg6 Si1 3.043035 1_554
Mg6 Mg8 3.091399 1_654
Mg6 Mg8 3.091399 1_554
Mg6 Mg7 3.097691 1_555
Mg6 Mg7 3.106401 1_565
Mg7 Si0 3.035529 1_555
Mg7 Si1 3.043035 1_554
Mg7 Mg9 3.091399 1_554
Mg7 Mg9 3.091399 1_654
Mg8 Si1 3.082075 1_455
Mg8 Si1 3.082075 1_555
Mg8 Mg9 3.086412 1_555
Mg8 Mg9 3.117680 1_565
Mg9 Si1 3.082075 1_455
Mg9 Si1 3.082075 1_555
Mg10 Mg2 2.994936 1_555
Mg10 Mg3 2.994936 1_555
Mg10 Mg9 3.084036 1_554
Mg10 Mg8 3.084036 1_554
Mg10 Mg6 3.099185 1_455
Mg10 Mg7 3.099185 1_455
Mg10 Mg6 3.099185 1_555
Mg10 Mg7 3.099185 1_555
Mg10 Mg5 3.102079 1_565
Mg10 Mg5 3.102079 1_555
Mg11 Mg8 2.974538 1_555
Mg11 Mg9 2.974538 1_555
Mg11 Si1 3.048125 1_455
Mg11 Si1 3.048125 1_555
Mg11 Mg4 3.102079 1_555
Mg11 Mg4 3.102079 1_565
Mg11 Mg2 3.104303 1_555
Mg11 Mg3 3.104303 1_555
Al0 Mg0 3.027866 1_555
Al0 Mg1 3.027866 1_545
Al0 Mg7 3.050696 1_556
Al0 Mg6 3.050696 1_546
Al0 Mg4 3.052613 1_655
Al0 Mg4 3.052613 1_555
Al0 Mg8 3.091666 1_545
Al0 Mg9 3.091666 1_555
Al0 Mg9 3.091666 1_655
Al0 Mg8 3.091666 1_645
Al1 Mg6 3.027866 1_555
Al1 Mg7 3.027866 1_555
Al1 Mg0 3.050696 1_555
Al1 Mg1 3.050696 1_555
Al1 Mg10 3.052613 1_555
Al1 Mg10 3.052613 1_655
Al1 Mg3 3.091666 1_555
Al1 Mg3 3.091666 1_655
Al1 Mg2 3.091666 1_555
Al1 Mg2 3.091666 1_655
