# generated using pymatgen
data_NdSm3
_symmetry_space_group_name_H-M   'P 1'
_cell_length_a   7.43025986
_cell_length_b   7.43025986
_cell_length_c   5.81881011
_cell_angle_alpha   90.00000000
_cell_angle_beta   90.00000000
_cell_angle_gamma   119.99998268
_symmetry_Int_Tables_number   1
_chemical_formula_structural   NdSm3
_chemical_formula_sum   'Nd2 Sm6'
_cell_volume   278.21010301
_cell_formula_units_Z   2
loop_
 _symmetry_equiv_pos_site_id
 _symmetry_equiv_pos_as_xyz
  1  'x, y, z'
loop_
 _atom_site_type_symbol
 _atom_site_label
 _atom_site_symmetry_multiplicity
 _atom_site_fract_x
 _atom_site_fract_y
 _atom_site_fract_z
 _atom_site_occupancy
  Nd  Nd0  1  0.66666700  0.33333300  0.25000000  1
  Nd  Nd1  1  0.33333300  0.66666700  0.75000000  1
  Sm  Sm0  1  0.16663530  0.83336470  0.25000000  1
  Sm  Sm1  1  0.66672840  0.83336470  0.25000000  1
  Sm  Sm2  1  0.16663530  0.33327160  0.25000000  1
  Sm  Sm3  1  0.83336470  0.16663530  0.75000000  1
  Sm  Sm4  1  0.33327160  0.16663530  0.75000000  1
  Sm  Sm5  1  0.83336470  0.66672840  0.75000000  1
loop_
_geom_bond_atom_site_label_1
_geom_bond_atom_site_label_2
_geom_bond_distance
_geom_bond_site_symmetry_2
Nd0 Sm3 3.614842 1_554
Nd0 Sm3 3.614842 1_555
Nd0 Sm5 3.614842 1_554
Nd0 Sm4 3.614842 1_555
Nd0 Sm4 3.614842 1_554
Nd0 Sm5 3.614842 1_555
Nd0 Sm1 3.715123 1_545
Nd0 Sm2 3.715123 1_655
Nd0 Sm0 3.715131 1_655
Nd0 Sm0 3.715131 1_545
Nd0 Sm1 3.715137 1_555
Nd0 Sm2 3.715137 1_555
Nd1 Sm0 3.614842 1_555
Nd1 Sm0 3.614842 1_556
Nd1 Sm1 3.614842 1_555
Nd1 Sm1 3.614842 1_556
Nd1 Sm2 3.614842 1_555
Nd1 Sm2 3.614842 1_556
Nd1 Sm4 3.715123 1_565
Nd1 Sm5 3.715123 1_455
Nd1 Sm3 3.715131 1_565
Nd1 Sm3 3.715131 1_455
Nd1 Sm5 3.715137 1_555
Nd1 Sm4 3.715137 1_555
Sm0 Sm4 3.614365 1_564
Sm0 Sm5 3.614365 1_455
Sm0 Sm5 3.614365 1_454
Sm0 Sm4 3.614365 1_565
Sm0 Sm1 3.714438 1_455
Sm0 Sm2 3.714438 1_565
Sm0 Sm1 3.715822 1_555
Sm0 Sm2 3.715822 1_555
Sm1 Sm3 3.614365 1_565
Sm1 Sm3 3.614365 1_564
Sm1 Sm5 3.614373 1_554
Sm1 Sm5 3.614373 1_555
Sm1 Sm2 3.714439 1_665
Sm1 Sm2 3.715823 1_555
Sm2 Sm3 3.614365 1_455
Sm2 Sm3 3.614365 1_454
Sm2 Sm4 3.614373 1_555
Sm2 Sm4 3.614373 1_554
Sm3 Sm5 3.714438 1_545
Sm3 Sm4 3.714438 1_655
Sm3 Sm4 3.715822 1_555
Sm3 Sm5 3.715822 1_555
Sm4 Sm5 3.714439 1_445
Sm4 Sm5 3.715823 1_555
