# generated using pymatgen
data_K2TeO5
_symmetry_space_group_name_H-M   'P 1'
_cell_length_a   13.95928661
_cell_length_b   13.95928661
_cell_length_c   13.95928661
_cell_angle_alpha   152.43742748
_cell_angle_beta   122.93547121
_cell_angle_gamma   64.51973552
_symmetry_Int_Tables_number   1
_chemical_formula_structural   K2TeO5
_chemical_formula_sum   'K8 Te4 O20'
_cell_volume   1046.92964584
_cell_formula_units_Z   4
loop_
 _symmetry_equiv_pos_site_id
 _symmetry_equiv_pos_as_xyz
  1  'x, y, z'
loop_
 _atom_site_type_symbol
 _atom_site_label
 _atom_site_symmetry_multiplicity
 _atom_site_fract_x
 _atom_site_fract_y
 _atom_site_fract_z
 _atom_site_occupancy
  K  K0  1  0.76417800  0.26417800  0.50000000  1
  K  K1  1  0.23582200  0.73582200  0.50000000  1
  K  K2  1  0.90617600  0.40617600  0.50000000  1
  K  K3  1  0.09382400  0.59382400  0.50000000  1
  K  K4  1  0.12106100  0.33583600  0.78522500  1
  K  K5  1  0.44938900  0.66416400  0.78522500  1
  K  K6  1  0.55061100  0.33583600  0.21477500  1
  K  K7  1  0.87893900  0.66416400  0.21477500  1
  Te  Te0  1  0.95337200  0.83646900  0.11690300  1
  Te  Te1  1  0.28043400  0.16353100  0.11690300  1
  Te  Te2  1  0.71956600  0.83646900  0.88309700  1
  Te  Te3  1  0.04662800  0.16353100  0.88309700  1
  O  O0  1  0.78098000  0.78098000  0.00000000  1
  O  O1  1  0.21902000  0.21902000  0.00000000  1
  O  O2  1  0.89063800  0.89063800  0.00000000  1
  O  O3  1  0.10936200  0.10936200  0.00000000  1
  O  O4  1  0.98580300  0.77442300  0.21138000  1
  O  O5  1  0.43695700  0.22557700  0.21138000  1
  O  O6  1  0.56304300  0.77442300  0.78862000  1
  O  O7  1  0.01419700  0.22557700  0.78862000  1
  O  O8  1  0.11111900  0.89694300  0.21417600  1
  O  O9  1  0.31723300  0.10305700  0.21417600  1
  O  O10  1  0.68276700  0.89694300  0.78582400  1
  O  O11  1  0.88888100  0.10305700  0.78582400  1
  O  O12  1  0.96172300  0.12221000  0.41026800  1
  O  O13  1  0.28805800  0.87779000  0.83951300  1
  O  O14  1  0.71194200  0.55145500  0.58973200  1
  O  O15  1  0.03827700  0.44854500  0.16048700  1
  O  O16  1  0.03827700  0.87779000  0.58973200  1
  O  O17  1  0.71194200  0.12221000  0.16048700  1
  O  O18  1  0.28805800  0.44854500  0.41026800  1
  O  O19  1  0.96172300  0.55145500  0.83951300  1
loop_
_geom_bond_atom_site_label_1
_geom_bond_atom_site_label_2
_geom_bond_distance
_geom_bond_site_symmetry_2
K0 O17 2.784499 1_555
K0 O19 2.784499 1_555
K0 O12 2.784499 1_555
K0 O14 2.784499 1_555
K1 O16 2.784499 1_555
K1 O13 2.784499 1_555
K1 O15 2.784499 1_555
K1 O18 2.784499 1_555
K2 O12 2.737038 1_555
K2 O14 2.737038 1_555
K2 O19 2.737038 1_555
K2 O17 2.737038 1_555
K3 O15 2.737038 1_555
K3 O13 2.737038 1_555
K3 O16 2.737038 1_555
K3 O18 2.737038 1_555
K4 O19 2.570905 1_455
K4 O12 2.570905 1_455
K4 O7 2.603493 1_555
K5 O13 2.570905 1_555
K5 O18 2.570905 1_555
K5 O6 2.603493 1_555
K6 O14 2.570905 1_555
K6 O17 2.570905 1_555
K6 O5 2.603493 1_555
K7 O16 2.570905 1_655
K7 O15 2.570905 1_655
K7 O4 2.603493 1_555
O0 Te2 2.036300 1_554
O0 Te0 2.036300 1_555
O1 Te1 2.036300 1_555
O1 Te3 2.036300 1_554
O2 Te0 2.016392 1_555
O2 Te2 2.016392 1_554
O3 Te1 2.016392 1_555
O3 Te3 2.016392 1_554
O4 Te0 1.932118 1_555
O5 Te1 1.932118 1_555
O6 Te2 1.932118 1_555
O7 Te3 1.932118 1_555
O8 Te0 1.929007 1_455
O9 Te1 1.929007 1_555
O10 Te2 1.929007 1_555
O11 Te3 1.929007 1_655
O12 Te0 1.900954 1_545
O13 Te1 1.900954 1_566
O14 Te2 1.900954 1_555
O15 Te3 1.900954 1_554
O16 Te3 1.900954 1_565
O17 Te2 1.900954 1_544
O18 Te1 1.900954 1_555
O19 Te0 1.900954 1_556
