# generated using pymatgen
data_Ho4Zn5Ge6
_symmetry_space_group_name_H-M   'P 1'
_cell_length_a   4.22345400
_cell_length_b   9.56958877
_cell_length_c   15.25947800
_cell_angle_alpha   90.00000000
_cell_angle_beta   90.00000000
_cell_angle_gamma   102.74842424
_symmetry_Int_Tables_number   1
_chemical_formula_structural   Ho4Zn5Ge6
_chemical_formula_sum   'Ho8 Zn10 Ge12'
_cell_volume   601.53443359
_cell_formula_units_Z   2
loop_
 _symmetry_equiv_pos_site_id
 _symmetry_equiv_pos_as_xyz
  1  'x, y, z'
loop_
 _atom_site_type_symbol
 _atom_site_label
 _atom_site_symmetry_multiplicity
 _atom_site_fract_x
 _atom_site_fract_y
 _atom_site_fract_z
 _atom_site_occupancy
  Ho  Ho0  1  0.98158500  0.96317000  0.76374000  1
  Ho  Ho1  1  0.01841500  0.03683000  0.26374000  1
  Ho  Ho2  1  0.82521100  0.65042300  0.31852400  1
  Ho  Ho3  1  0.17478900  0.34957700  0.81852400  1
  Ho  Ho4  1  0.83269200  0.66538300  0.96035100  1
  Ho  Ho5  1  0.16730800  0.33461700  0.46035100  1
  Ho  Ho6  1  0.96687300  0.93374600  0.49980600  1
  Ho  Ho7  1  0.03312700  0.06625400  0.99980600  1
  Zn  Zn0  1  0.65523100  0.31046300  0.99004100  1
  Zn  Zn1  1  0.34476900  0.68953700  0.49004100  1
  Zn  Zn2  1  0.69907400  0.39814900  0.63919900  1
  Zn  Zn3  1  0.30092600  0.60185100  0.13919900  1
  Zn  Zn4  1  0.34995500  0.69991000  0.78257200  1
  Zn  Zn5  1  0.65004500  0.30009000  0.28257200  1
  Zn  Zn6  1  0.84828900  0.69657900  0.63654400  1
  Zn  Zn7  1  0.15171100  0.30342100  0.13654400  1
  Zn  Zn8  1  0.56530600  0.13061200  0.57871800  1
  Zn  Zn9  1  0.43469400  0.86938800  0.07871800  1
  Ge  Ge0  1  0.77157600  0.54315300  0.49814700  1
  Ge  Ge1  1  0.22842400  0.45684700  0.99814700  1
  Ge  Ge2  1  0.56944100  0.13888100  0.85648300  1
  Ge  Ge3  1  0.43055900  0.86111900  0.35648300  1
  Ge  Ge4  1  0.77681300  0.55362600  0.77804700  1
  Ge  Ge5  1  0.22318700  0.44637400  0.27804700  1
  Ge  Ge6  1  0.43994200  0.87988400  0.90909100  1
  Ge  Ge7  1  0.56005800  0.12011600  0.40909100  1
  Ge  Ge8  1  0.43263300  0.86526600  0.63399100  1
  Ge  Ge9  1  0.56736700  0.13473400  0.13399100  1
  Ge  Ge10  1  0.88699400  0.77398700  0.14637600  1
  Ge  Ge11  1  0.11300600  0.22601300  0.64637600  1
loop_
_geom_bond_atom_site_label_1
_geom_bond_atom_site_label_2
_geom_bond_distance
_geom_bond_site_symmetry_2
Ho0 Zn6 3.155754 1_555
Ho0 Zn4 3.252650 1_655
Ho0 Zn4 3.252650 1_555
Ho1 Zn7 3.155754 1_555
Ho1 Zn5 3.252650 1_455
Ho1 Zn5 3.252650 1_555
Ho6 Zn6 3.042023 1_555
Ho6 Zn8 3.047250 1_565
Ho6 Zn8 3.047250 1_665
Ho6 Zn1 3.110805 1_555
Ho6 Zn1 3.110808 1_655
Ho7 Zn7 3.042023 1_556
Ho7 Zn9 3.047250 1_546
Ho7 Zn9 3.047250 1_446
Ho7 Zn0 3.110805 1_555
Ho7 Zn0 3.110808 1_455
Ge0 Zn1 2.518224 1_555
Ge0 Zn1 2.518231 1_655
Ge0 Zn2 2.542536 1_555
Ge0 Zn6 2.551605 1_555
Ge0 Ho2 2.918094 1_555
Ge0 Ho5 2.929255 1_655
Ge0 Ho5 2.929255 1_555
Ge1 Zn0 2.518224 1_555
Ge1 Zn0 2.518231 1_455
Ge1 Zn3 2.542536 1_556
Ge1 Zn7 2.551605 1_556
Ge1 Ho3 2.918094 1_555
Ge1 Ho4 2.929255 1_455
Ge1 Ho4 2.929255 1_555
Ge2 Ge6 2.547203 1_545
Ge2 Zn0 2.591973 1_555
Ge2 Ho3 2.943179 1_555
Ge2 Ho3 2.943179 1_655
Ge2 Ho0 3.025211 1_545
Ge2 Ho0 3.025214 1_445
Ge2 Ho7 3.114806 1_655
Ge2 Ho7 3.114809 1_555
Ge3 Ge7 2.547203 1_565
Ge3 Zn1 2.591973 1_555
Ge3 Ho2 2.943179 1_555
Ge3 Ho2 2.943179 1_455
Ge3 Ho1 3.025211 1_565
Ge3 Ho1 3.025214 1_665
Ge3 Ho6 3.114806 1_455
Ge3 Ho6 3.114809 1_555
Ge4 Zn4 2.515629 1_555
Ge4 Zn4 2.515629 1_655
Ge4 Zn6 2.538249 1_555
Ge4 Zn2 2.568072 1_555
Ge4 Ho3 2.910002 1_555
Ge4 Ho3 2.910005 1_655
Ge4 Ho4 2.970999 1_555
Ge5 Zn5 2.515629 1_555
Ge5 Zn5 2.515629 1_455
Ge5 Zn7 2.538249 1_555
Ge5 Zn3 2.568072 1_555
Ge5 Ho2 2.910002 1_555
Ge5 Ho2 2.910005 1_455
Ge5 Ho5 2.970999 1_555
Ge6 Zn4 2.559114 1_555
Ge6 Zn9 2.590273 1_556
Ge6 Ho4 3.013231 1_455
Ge6 Ho4 3.013234 1_555
Ge6 Ho7 3.066187 1_665
Ge6 Ho7 3.066187 1_565
Ge6 Ho0 3.159608 1_455
Ge6 Ho0 3.159608 1_555
Ge7 Zn5 2.559114 1_555
Ge7 Zn8 2.590273 1_555
Ge7 Ho5 3.013231 1_655
Ge7 Ho5 3.013234 1_555
Ge7 Ho6 3.066187 1_445
Ge7 Ho6 3.066187 1_545
Ge7 Ho1 3.159608 1_555
Ge7 Ho1 3.159608 1_655
Ge8 Zn8 2.616335 1_565
Ge8 Zn6 2.634361 1_555
Ge8 Zn6 2.634365 1_455
Ge8 Zn1 2.741407 1_555
Ge8 Zn4 2.742723 1_555
Ge8 Ho6 3.010078 1_455
Ge8 Ho6 3.010078 1_555
Ge8 Ho0 3.035530 1_455
Ge8 Ho0 3.035530 1_555
Ge9 Zn9 2.616335 1_545
Ge9 Zn7 2.634361 1_555
Ge9 Zn7 2.634365 1_655
Ge9 Zn0 2.741407 1_554
Ge9 Zn5 2.742723 1_555
Ge9 Ho7 3.010078 1_554
Ge9 Ho7 3.010078 1_654
Ge9 Ho1 3.035530 1_555
Ge9 Ho1 3.035530 1_655
Ge10 Zn9 2.513598 1_655
Ge10 Zn9 2.513601 1_555
Ge10 Zn3 2.655702 1_555
Ge10 Zn3 2.655702 1_655
Ge10 Ho2 2.868913 1_555
Ge10 Ho4 3.014206 1_554
Ge10 Ho1 3.037436 1_665
Ge11 Zn8 2.513598 1_455
Ge11 Zn8 2.513601 1_555
Ge11 Zn2 2.655702 1_455
Ge11 Zn2 2.655702 1_555
Ge11 Ho3 2.868913 1_555
Ge11 Ho5 3.014206 1_555
Ge11 Ho0 3.037436 1_445
