# generated using pymatgen
data_Mg14FeBO16
_symmetry_space_group_name_H-M   'P 1'
_cell_length_a   8.56344580
_cell_length_b   8.45767746
_cell_length_c   4.28693825
_cell_angle_alpha   90.00000000
_cell_angle_beta   90.00000000
_cell_angle_gamma   90.00000000
_symmetry_Int_Tables_number   1
_chemical_formula_structural   Mg14FeBO16
_chemical_formula_sum   'Mg14 Fe1 B1 O16'
_cell_volume   310.48948728
_cell_formula_units_Z   1
loop_
 _symmetry_equiv_pos_site_id
 _symmetry_equiv_pos_as_xyz
  1  'x, y, z'
loop_
 _atom_site_type_symbol
 _atom_site_label
 _atom_site_symmetry_multiplicity
 _atom_site_fract_x
 _atom_site_fract_y
 _atom_site_fract_z
 _atom_site_occupancy
  Mg  Mg0  1  0.50000000  0.00000000  0.00000000  1
  Mg  Mg1  1  0.50000000  0.50000000  0.00000000  1
  Mg  Mg2  1  0.00000000  0.25868415  0.50000000  1
  Mg  Mg3  1  0.00000000  0.74131585  0.50000000  1
  Mg  Mg4  1  0.50000000  0.25002014  0.50000000  1
  Mg  Mg5  1  0.50000000  0.74997986  0.50000000  1
  Mg  Mg6  1  0.24507715  0.00000000  0.50000000  1
  Mg  Mg7  1  0.24755843  0.50000000  0.50000000  1
  Mg  Mg8  1  0.75492285  0.00000000  0.50000000  1
  Mg  Mg9  1  0.75244157  0.50000000  0.50000000  1
  Mg  Mg10  1  0.25220873  0.25682236  0.00000000  1
  Mg  Mg11  1  0.25220873  0.74317764  0.00000000  1
  Mg  Mg12  1  0.74779127  0.25682236  0.00000000  1
  Mg  Mg13  1  0.74779127  0.74317764  0.00000000  1
  Fe  Fe0  1  0.00000000  0.00000000  0.00000000  1
  B  B0  1  0.00000000  0.50000000  0.00000000  1
  O  O0  1  0.24593624  0.00000000  0.00000000  1
  O  O1  1  0.26416496  0.50000000  0.00000000  1
  O  O2  1  0.75406376  0.00000000  0.00000000  1
  O  O3  1  0.73583504  0.50000000  0.00000000  1
  O  O4  1  0.24615710  0.24974287  0.50000000  1
  O  O5  1  0.24615710  0.75025713  0.50000000  1
  O  O6  1  0.75384290  0.24974287  0.50000000  1
  O  O7  1  0.75384290  0.75025713  0.50000000  1
  O  O8  1  0.00000000  0.00000000  0.50000000  1
  O  O9  1  0.00000000  0.50000000  0.50000000  1
  O  O10  1  0.50000000  0.00000000  0.50000000  1
  O  O11  1  0.50000000  0.50000000  0.50000000  1
  O  O12  1  0.00000000  0.33671543  0.00000000  1
  O  O13  1  0.00000000  0.66328457  0.00000000  1
  O  O14  1  0.50000000  0.24589904  0.00000000  1
  O  O15  1  0.50000000  0.75410096  0.00000000  1
loop_
_geom_bond_atom_site_label_1
_geom_bond_atom_site_label_2
_geom_bond_distance
_geom_bond_site_symmetry_2
Mg0 O15 2.079735 1_545
Mg0 O14 2.079735 1_555
Mg0 O10 2.143469 1_555
Mg0 O10 2.143469 1_554
Mg0 O2 2.175661 1_555
Mg0 O0 2.175661 1_555
Mg1 O1 2.019561 1_555
Mg1 O3 2.019561 1_555
Mg1 O11 2.143469 1_554
Mg1 O11 2.143469 1_555
Mg1 O14 2.149104 1_555
Mg1 O15 2.149104 1_555
Mg2 O9 2.040972 1_555
Mg2 O4 2.109309 1_555
Mg2 O6 2.109309 1_455
Mg2 O8 2.187867 1_555
Mg2 O12 2.242769 1_556
Mg2 O12 2.242769 1_555
Mg3 O9 2.040972 1_555
Mg3 O5 2.109309 1_555
Mg3 O7 2.109309 1_455
Mg3 O8 2.187867 1_565
Mg3 O13 2.242769 1_556
Mg3 O13 2.242769 1_555
Mg4 O11 2.114249 1_555
Mg4 O10 2.114590 1_555
Mg4 O14 2.143752 1_556
Mg4 O14 2.143752 1_555
Mg4 O4 2.173771 1_555
Mg4 O6 2.173771 1_555
Mg5 O11 2.114249 1_555
Mg5 O10 2.114590 1_565
Mg5 O15 2.143752 1_556
Mg5 O15 2.143752 1_555
Mg5 O7 2.173771 1_555
Mg5 O5 2.173771 1_555
Mg6 O8 2.098705 1_555
Mg6 O5 2.112265 1_545
Mg6 O4 2.112265 1_555
Mg6 O0 2.143482 1_555
Mg6 O0 2.143482 1_556
Mg6 O10 2.183018 1_555
Mg7 O4 2.116628 1_555
Mg7 O5 2.116628 1_555
Mg7 O9 2.119953 1_555
Mg7 O1 2.148181 1_556
Mg7 O1 2.148181 1_555
Mg7 O11 2.161770 1_555
Mg8 O8 2.098705 1_655
Mg8 O7 2.112265 1_545
Mg8 O6 2.112265 1_555
Mg8 O2 2.143482 1_556
Mg8 O2 2.143482 1_555
Mg8 O10 2.183018 1_555
Mg9 O6 2.116628 1_555
Mg9 O7 2.116628 1_555
Mg9 O9 2.119953 1_655
Mg9 O3 2.148181 1_556
Mg9 O3 2.148181 1_555
Mg9 O11 2.161770 1_555
Mg10 O1 2.059265 1_555
Mg10 O14 2.123957 1_555
Mg10 O4 2.144931 1_554
Mg10 O4 2.144931 1_555
Mg10 O0 2.172785 1_555
Mg10 O12 2.263010 1_555
Mg11 O1 2.059265 1_555
Mg11 O15 2.123957 1_555
Mg11 O5 2.144931 1_555
Mg11 O5 2.144931 1_554
Mg11 O0 2.172785 1_565
Mg11 O13 2.263010 1_555
Mg12 O3 2.059265 1_555
Mg12 O14 2.123957 1_555
Mg12 O6 2.144931 1_555
Mg12 O6 2.144931 1_554
Mg12 O2 2.172785 1_555
Mg12 O12 2.263010 1_655
Mg13 O3 2.059265 1_555
Mg13 O15 2.123957 1_555
Mg13 O7 2.144931 1_555
Mg13 O7 2.144931 1_554
Mg13 O2 2.172785 1_565
Mg13 O13 2.263010 1_655
Fe0 O0 2.106062 1_555
Fe0 O2 2.106062 1_455
Fe0 O8 2.143469 1_555
Fe0 O8 2.143469 1_554
B0 O13 1.381008 1_555
B0 O12 1.381008 1_555
B0 O9 2.143469 1_555
B0 O9 2.143469 1_554
