# generated using pymatgen
data_SmFe12N
_symmetry_space_group_name_H-M   'P 1'
_cell_length_a   4.87115900
_cell_length_b   6.49205219
_cell_length_c   6.49205219
_cell_angle_alpha   81.90890160
_cell_angle_beta   67.96560077
_cell_angle_gamma   67.96560077
_symmetry_Int_Tables_number   1
_chemical_formula_structural   SmFe12N
_chemical_formula_sum   'Sm1 Fe12 N1'
_cell_volume   176.40754532
_cell_formula_units_Z   1
loop_
 _symmetry_equiv_pos_site_id
 _symmetry_equiv_pos_as_xyz
  1  'x, y, z'
loop_
 _atom_site_type_symbol
 _atom_site_label
 _atom_site_symmetry_multiplicity
 _atom_site_fract_x
 _atom_site_fract_y
 _atom_site_fract_z
 _atom_site_occupancy
  Sm  Sm0  1  0.50000000  0.00000000  0.00000000  1
  Fe  Fe0  1  0.13923900  0.36076100  0.36076100  1
  Fe  Fe1  1  0.86076100  0.63923900  0.63923900  1
  Fe  Fe2  1  0.50000000  0.63923900  0.36076100  1
  Fe  Fe3  1  0.50000000  0.36076100  0.63923900  1
  Fe  Fe4  1  0.50000000  0.00000000  0.50000000  1
  Fe  Fe5  1  0.00000000  0.00000000  0.50000000  1
  Fe  Fe6  1  0.00000000  0.50000000  0.00000000  1
  Fe  Fe7  1  0.50000000  0.50000000  0.00000000  1
  Fe  Fe8  1  0.22565300  0.77434700  0.77434700  1
  Fe  Fe9  1  0.77434700  0.22565300  0.22565300  1
  Fe  Fe10  1  0.00000000  0.22565300  0.77434700  1
  Fe  Fe11  1  0.00000000  0.77434700  0.22565300  1
  N  N0  1  0.00000000  0.00000000  0.00000000  1
loop_
_geom_bond_atom_site_label_1
_geom_bond_atom_site_label_2
_geom_bond_distance
_geom_bond_site_symmetry_2
Fe0 Fe1 2.370000 1_455
Fe0 Fe10 2.618342 1_555
Fe0 Fe11 2.618342 1_555
Fe0 Fe5 2.626483 1_555
Fe0 Fe6 2.626483 1_555
Fe0 Fe7 2.626483 1_555
Fe0 Fe4 2.626483 1_555
Fe0 Fe9 2.693360 1_455
Fe0 Fe9 2.693360 1_555
Fe0 Fe2 2.956433 1_555
Fe0 Fe3 2.956433 1_555
Fe0 Fe3 2.956433 1_455
Fe0 Fe2 2.956433 1_455
Fe0 Sm0 3.070273 1_555
Fe1 Fe10 2.618342 1_655
Fe1 Fe11 2.618342 1_655
Fe1 Fe6 2.626483 1_656
Fe1 Fe5 2.626483 1_665
Fe1 Fe4 2.626483 1_565
Fe1 Fe7 2.626483 1_556
Fe1 Fe8 2.693360 1_655
Fe1 Fe8 2.693360 1_555
Fe1 Fe2 2.956433 1_555
Fe1 Fe3 2.956433 1_555
Fe1 Fe2 2.956433 1_655
Fe1 Fe3 2.956433 1_655
Fe1 Sm0 3.070273 1_566
Fe2 Fe3 2.370000 1_555
Fe2 Fe8 2.618342 1_555
Fe2 Fe9 2.618342 1_555
Fe2 Fe7 2.626483 1_555
Fe2 Fe4 2.626483 1_565
Fe2 Fe5 2.626483 1_565
Fe2 Fe6 2.626483 1_655
Fe2 Sm0 3.070273 1_565
Fe3 Fe8 2.618342 1_555
Fe3 Fe9 2.618342 1_555
Fe3 Fe7 2.626483 1_556
Fe3 Fe4 2.626483 1_555
Fe3 Fe6 2.626483 1_556
Fe3 Fe5 2.626483 1_655
Fe3 Sm0 3.070273 1_556
Fe4 Fe5 2.435579 1_655
Fe4 Fe5 2.435579 1_555
Fe4 Fe8 2.460241 1_545
Fe4 Fe9 2.460241 1_555
Fe4 Sm0 3.246026 1_555
Fe4 Sm0 3.246026 1_556
Fe5 Fe9 2.460241 1_455
Fe5 Fe8 2.460241 1_545
Fe5 Sm0 3.246026 1_456
Fe5 Sm0 3.246026 1_555
Fe6 Fe7 2.435579 1_555
Fe6 Fe7 2.435579 1_455
Fe6 Fe8 2.460241 1_554
Fe6 Fe9 2.460241 1_455
Fe6 Sm0 3.246026 1_465
Fe6 Sm0 3.246026 1_555
Fe7 Fe9 2.460241 1_555
Fe7 Fe8 2.460241 1_554
Fe7 Sm0 3.246026 1_565
Fe7 Sm0 3.246026 1_555
Fe8 N0 1.920430 1_566
Fe9 N0 1.920430 1_655
Fe10 N0 1.920430 1_556
Fe10 Fe5 2.460240 1_555
Fe10 Fe6 2.460240 1_556
Fe10 Fe7 2.460241 1_456
Fe10 Fe4 2.460241 1_555
Fe10 Fe3 2.693360 1_555
Fe10 Fe3 2.693360 1_455
Fe11 N0 1.920430 1_565
Fe11 Fe6 2.460240 1_555
Fe11 Fe5 2.460240 1_565
Fe11 Fe4 2.460241 1_465
Fe11 Fe7 2.460241 1_555
Fe11 Fe2 2.693360 1_455
Fe11 Fe2 2.693360 1_555
N0 Sm0 2.435579 1_455
N0 Sm0 2.435579 1_555
