# generated using pymatgen
data_TiInCu2
_symmetry_space_group_name_H-M   'P 1'
_cell_length_a   6.30165200
_cell_length_b   6.30165200
_cell_length_c   12.69298200
_cell_angle_alpha   90.00000000
_cell_angle_beta   90.00000000
_cell_angle_gamma   90.00000000
_symmetry_Int_Tables_number   1
_chemical_formula_structural   TiInCu2
_chemical_formula_sum   'Ti8 In8 Cu16'
_cell_volume   504.04869718
_cell_formula_units_Z   8
loop_
 _symmetry_equiv_pos_site_id
 _symmetry_equiv_pos_as_xyz
  1  'x, y, z'
loop_
 _atom_site_type_symbol
 _atom_site_label
 _atom_site_symmetry_multiplicity
 _atom_site_fract_x
 _atom_site_fract_y
 _atom_site_fract_z
 _atom_site_occupancy
  Ti  Ti0_0  1  0.25000000  0.25000000  0.25000000  1
  Ti  Ti0_1  1  0.25000000  0.25000000  0.75000000  1
  Ti  Ti0_2  1  0.25000000  0.75000000  0.25000000  1
  Ti  Ti0_3  1  0.25000000  0.75000000  0.75000000  1
  Ti  Ti0_4  1  0.75000000  0.25000000  0.25000000  1
  Ti  Ti0_5  1  0.75000000  0.25000000  0.75000000  1
  Ti  Ti0_6  1  0.75000000  0.75000000  0.25000000  1
  Ti  Ti0_7  1  0.75000000  0.75000000  0.75000000  1
  In  In0_0  1  0.25000000  0.25000000  0.00000000  1
  In  In0_1  1  0.25000000  0.25000000  0.50000000  1
  In  In0_2  1  0.25000000  0.75000000  0.00000000  1
  In  In0_3  1  0.25000000  0.75000000  0.50000000  1
  In  In0_4  1  0.75000000  0.25000000  0.00000000  1
  In  In0_5  1  0.75000000  0.25000000  0.50000000  1
  In  In0_6  1  0.75000000  0.75000000  0.00000000  1
  In  In0_7  1  0.75000000  0.75000000  0.50000000  1
  Cu  Cu0_0  1  0.00000000  0.00000000  0.36373550  1
  Cu  Cu0_1  1  0.00000000  0.00000000  0.86373550  1
  Cu  Cu0_2  1  0.00000000  0.50000000  0.36373550  1
  Cu  Cu0_3  1  0.00000000  0.50000000  0.86373550  1
  Cu  Cu0_4  1  0.50000000  0.00000000  0.36373550  1
  Cu  Cu0_5  1  0.50000000  0.00000000  0.86373550  1
  Cu  Cu0_6  1  0.50000000  0.50000000  0.36373550  1
  Cu  Cu0_7  1  0.50000000  0.50000000  0.86373550  1
  Cu  Cu1_0  1  0.00000000  0.00000000  0.13626450  1
  Cu  Cu1_1  1  0.00000000  0.00000000  0.63626450  1
  Cu  Cu1_2  1  0.00000000  0.50000000  0.13626450  1
  Cu  Cu1_3  1  0.00000000  0.50000000  0.63626450  1
  Cu  Cu1_4  1  0.50000000  0.00000000  0.13626450  1
  Cu  Cu1_5  1  0.50000000  0.00000000  0.63626450  1
  Cu  Cu1_6  1  0.50000000  0.50000000  0.13626450  1
  Cu  Cu1_7  1  0.50000000  0.50000000  0.63626450  1
loop_
_geom_bond_atom_site_label_1
_geom_bond_atom_site_label_2
_geom_bond_distance
_geom_bond_site_symmetry_2
In0_0 In0_4 3.150826 1_555
In0_0 In0_2 3.150826 1_555
In0_0 In0_2 3.150826 1_545
In0_0 In0_4 3.150826 1_455
In0_0 Ti0_1 3.173246 1_554
In0_0 Ti0_0 3.173246 1_555
In0_1 In0_5 3.150826 1_555
In0_1 In0_3 3.150826 1_555
In0_1 In0_5 3.150826 1_455
In0_1 In0_3 3.150826 1_545
In0_1 Ti0_1 3.173246 1_555
In0_1 Ti0_0 3.173246 1_555
In0_2 In0_6 3.150826 1_555
In0_2 In0_6 3.150826 1_455
In0_2 Ti0_2 3.173246 1_555
In0_2 Ti0_3 3.173246 1_554
In0_3 In0_7 3.150826 1_555
In0_3 In0_7 3.150826 1_455
In0_3 Ti0_2 3.173246 1_555
In0_3 Ti0_3 3.173246 1_555
In0_4 In0_6 3.150826 1_555
In0_4 In0_6 3.150826 1_545
In0_4 Ti0_4 3.173246 1_555
In0_4 Ti0_5 3.173246 1_554
In0_5 In0_7 3.150826 1_555
In0_5 In0_7 3.150826 1_545
In0_5 Ti0_5 3.173246 1_555
In0_5 Ti0_4 3.173246 1_555
In0_6 Ti0_7 3.173246 1_554
In0_6 Ti0_6 3.173246 1_555
In0_7 Ti0_7 3.173246 1_555
In0_7 Ti0_6 3.173246 1_555
Cu0_0 Ti0_0 2.654799 1_555
Cu0_0 Ti0_2 2.654799 1_545
Cu0_0 Ti0_6 2.654799 1_445
Cu0_0 Ti0_4 2.654799 1_455
Cu0_0 In0_1 2.820528 1_555
Cu0_0 In0_3 2.820528 1_545
Cu0_0 In0_7 2.820528 1_445
Cu0_0 In0_5 2.820528 1_455
Cu0_0 Cu1_0 2.887285 1_555
Cu0_0 Cu0_4 3.150826 1_555
Cu0_0 Cu0_4 3.150826 1_455
Cu0_0 Cu0_2 3.150826 1_545
Cu0_0 Cu0_2 3.150826 1_555
Cu0_1 Ti0_3 2.654799 1_545
Cu0_1 Ti0_1 2.654799 1_555
Cu0_1 Ti0_5 2.654799 1_455
Cu0_1 Ti0_7 2.654799 1_445
Cu0_1 In0_2 2.820528 1_546
Cu0_1 In0_0 2.820528 1_556
Cu0_1 In0_6 2.820528 1_446
Cu0_1 In0_4 2.820528 1_456
Cu0_1 Cu1_1 2.887285 1_555
Cu0_1 Cu0_5 3.150826 1_555
Cu0_1 Cu0_3 3.150826 1_545
Cu0_1 Cu0_3 3.150826 1_555
Cu0_1 Cu0_5 3.150826 1_455
Cu0_2 Ti0_2 2.654799 1_555
Cu0_2 Ti0_6 2.654799 1_455
Cu0_2 Ti0_0 2.654799 1_555
Cu0_2 Ti0_4 2.654799 1_455
Cu0_2 In0_3 2.820528 1_555
Cu0_2 In0_7 2.820528 1_455
Cu0_2 In0_1 2.820528 1_555
Cu0_2 In0_5 2.820528 1_455
Cu0_2 Cu1_2 2.887285 1_555
Cu0_2 Cu0_6 3.150826 1_455
Cu0_2 Cu0_6 3.150826 1_555
Cu0_3 Ti0_3 2.654799 1_555
Cu0_3 Ti0_7 2.654799 1_455
Cu0_3 Ti0_1 2.654799 1_555
Cu0_3 Ti0_5 2.654799 1_455
Cu0_3 In0_2 2.820528 1_556
Cu0_3 In0_6 2.820528 1_456
Cu0_3 In0_0 2.820528 1_556
Cu0_3 In0_4 2.820528 1_456
Cu0_3 Cu1_3 2.887285 1_555
Cu0_3 Cu0_7 3.150826 1_555
Cu0_3 Cu0_7 3.150826 1_455
Cu0_4 Ti0_4 2.654799 1_555
Cu0_4 Ti0_0 2.654799 1_555
Cu0_4 Ti0_2 2.654799 1_545
Cu0_4 Ti0_6 2.654799 1_545
Cu0_4 In0_5 2.820528 1_555
Cu0_4 In0_1 2.820528 1_555
Cu0_4 In0_7 2.820528 1_545
Cu0_4 In0_3 2.820528 1_545
Cu0_4 Cu1_4 2.887285 1_555
Cu0_4 Cu0_6 3.150826 1_545
Cu0_4 Cu0_6 3.150826 1_555
Cu0_5 Ti0_5 2.654799 1_555
Cu0_5 Ti0_7 2.654799 1_545
Cu0_5 Ti0_3 2.654799 1_545
Cu0_5 Ti0_1 2.654799 1_555
Cu0_5 In0_4 2.820528 1_556
Cu0_5 In0_2 2.820528 1_546
Cu0_5 In0_6 2.820528 1_546
Cu0_5 In0_0 2.820528 1_556
Cu0_5 Cu1_5 2.887285 1_555
Cu0_5 Cu0_7 3.150826 1_555
Cu0_5 Cu0_7 3.150826 1_545
Cu0_6 Ti0_6 2.654799 1_555
Cu0_6 Ti0_4 2.654799 1_555
Cu0_6 Ti0_2 2.654799 1_555
Cu0_6 Ti0_0 2.654799 1_555
Cu0_6 In0_7 2.820528 1_555
Cu0_6 In0_5 2.820528 1_555
Cu0_6 In0_3 2.820528 1_555
Cu0_6 In0_1 2.820528 1_555
Cu0_6 Cu1_6 2.887285 1_555
Cu0_7 Ti0_7 2.654799 1_555
Cu0_7 Ti0_3 2.654799 1_555
Cu0_7 Ti0_5 2.654799 1_555
Cu0_7 Ti0_1 2.654799 1_555
Cu0_7 In0_6 2.820528 1_556
Cu0_7 In0_2 2.820528 1_556
Cu0_7 In0_4 2.820528 1_556
Cu0_7 In0_0 2.820528 1_556
Cu0_7 Cu1_7 2.887285 1_555
Cu1_0 Ti0_2 2.654799 1_545
Cu1_0 Ti0_0 2.654799 1_555
Cu1_0 Ti0_4 2.654799 1_455
Cu1_0 Ti0_6 2.654799 1_445
Cu1_0 In0_0 2.820528 1_555
Cu1_0 In0_2 2.820528 1_545
Cu1_0 In0_4 2.820528 1_455
Cu1_0 In0_6 2.820528 1_445
Cu1_0 Cu1_4 3.150826 1_555
Cu1_0 Cu1_4 3.150826 1_455
Cu1_0 Cu1_2 3.150826 1_545
Cu1_0 Cu1_2 3.150826 1_555
Cu1_1 Ti0_1 2.654799 1_555
Cu1_1 Ti0_3 2.654799 1_545
Cu1_1 Ti0_5 2.654799 1_455
Cu1_1 Ti0_7 2.654799 1_445
Cu1_1 In0_1 2.820528 1_555
Cu1_1 In0_3 2.820528 1_545
Cu1_1 In0_5 2.820528 1_455
Cu1_1 In0_7 2.820528 1_445
Cu1_1 Cu1_3 3.150826 1_545
Cu1_1 Cu1_3 3.150826 1_555
Cu1_1 Cu1_5 3.150826 1_455
Cu1_1 Cu1_5 3.150826 1_555
Cu1_2 Ti0_2 2.654799 1_555
Cu1_2 Ti0_6 2.654799 1_455
Cu1_2 Ti0_0 2.654799 1_555
Cu1_2 Ti0_4 2.654799 1_455
Cu1_2 In0_2 2.820528 1_555
Cu1_2 In0_6 2.820528 1_455
Cu1_2 In0_0 2.820528 1_555
Cu1_2 In0_4 2.820528 1_455
Cu1_2 Cu1_6 3.150826 1_555
Cu1_2 Cu1_6 3.150826 1_455
Cu1_3 Ti0_3 2.654799 1_555
Cu1_3 Ti0_1 2.654799 1_555
Cu1_3 Ti0_7 2.654799 1_455
Cu1_3 Ti0_5 2.654799 1_455
Cu1_3 In0_3 2.820528 1_555
Cu1_3 In0_1 2.820528 1_555
Cu1_3 In0_7 2.820528 1_455
Cu1_3 In0_5 2.820528 1_455
Cu1_3 Cu1_7 3.150826 1_455
Cu1_3 Cu1_7 3.150826 1_555
Cu1_4 Ti0_4 2.654799 1_555
Cu1_4 Ti0_6 2.654799 1_545
Cu1_4 Ti0_2 2.654799 1_545
Cu1_4 Ti0_0 2.654799 1_555
Cu1_4 In0_4 2.820528 1_555
Cu1_4 In0_6 2.820528 1_545
Cu1_4 In0_0 2.820528 1_555
Cu1_4 In0_2 2.820528 1_545
Cu1_4 Cu1_6 3.150826 1_545
Cu1_4 Cu1_6 3.150826 1_555
Cu1_5 Ti0_1 2.654799 1_555
Cu1_5 Ti0_7 2.654799 1_545
Cu1_5 Ti0_5 2.654799 1_555
Cu1_5 Ti0_3 2.654799 1_545
Cu1_5 In0_5 2.820528 1_555
Cu1_5 In0_1 2.820528 1_555
Cu1_5 In0_7 2.820528 1_545
Cu1_5 In0_3 2.820528 1_545
Cu1_5 Cu1_7 3.150826 1_555
Cu1_5 Cu1_7 3.150826 1_545
Cu1_6 Ti0_6 2.654799 1_555
Cu1_6 Ti0_4 2.654799 1_555
Cu1_6 Ti0_2 2.654799 1_555
Cu1_6 Ti0_0 2.654799 1_555
Cu1_6 In0_6 2.820528 1_555
Cu1_6 In0_2 2.820528 1_555
Cu1_6 In0_4 2.820528 1_555
Cu1_6 In0_0 2.820528 1_555
Cu1_7 Ti0_7 2.654799 1_555
Cu1_7 Ti0_3 2.654799 1_555
Cu1_7 Ti0_1 2.654799 1_555
Cu1_7 Ti0_5 2.654799 1_555
Cu1_7 In0_7 2.820528 1_555
Cu1_7 In0_3 2.820528 1_555
Cu1_7 In0_5 2.820528 1_555
Cu1_7 In0_1 2.820528 1_555
