# generated using pymatgen
data_NaTmTi2O6
_symmetry_space_group_name_H-M   'P 1'
_cell_length_a   5.30759000
_cell_length_b   5.52152600
_cell_length_c   7.60387000
_cell_angle_alpha   90.00000000
_cell_angle_beta   90.00000000
_cell_angle_gamma   90.00000000
_symmetry_Int_Tables_number   1
_chemical_formula_structural   NaTmTi2O6
_chemical_formula_sum   'Na2 Tm2 Ti4 O12'
_cell_volume   222.83898519
_cell_formula_units_Z   2
loop_
 _symmetry_equiv_pos_site_id
 _symmetry_equiv_pos_as_xyz
  1  'x, y, z'
loop_
 _atom_site_type_symbol
 _atom_site_label
 _atom_site_symmetry_multiplicity
 _atom_site_fract_x
 _atom_site_fract_y
 _atom_site_fract_z
 _atom_site_occupancy
  Na  Na0  1  0.49355700  0.71307400  0.50000000  1
  Na  Na1  1  0.99355700  0.28692600  0.00000000  1
  Tm  Tm0  1  0.01928900  0.17571700  0.50000000  1
  Tm  Tm1  1  0.51928900  0.82428300  0.00000000  1
  Ti  Ti0  1  0.51247000  0.26534100  0.75287000  1
  Ti  Ti1  1  0.01247000  0.73465900  0.25287000  1
  Ti  Ti2  1  0.51247000  0.26534100  0.24713000  1
  Ti  Ti3  1  0.01247000  0.73465900  0.74713000  1
  O  O0  1  0.18627100  0.44161700  0.69371300  1
  O  O1  1  0.27873000  0.96373400  0.29315700  1
  O  O2  1  0.77873000  0.03626600  0.20684300  1
  O  O3  1  0.68627100  0.55838300  0.80628700  1
  O  O4  1  0.77873000  0.03626600  0.79315700  1
  O  O5  1  0.68627100  0.55838300  0.19371300  1
  O  O6  1  0.18627100  0.44161700  0.30628700  1
  O  O7  1  0.27873000  0.96373400  0.70684300  1
  O  O8  1  0.92093200  0.77907600  0.50000000  1
  O  O9  1  0.61127900  0.27637700  0.50000000  1
  O  O10  1  0.11127900  0.72362300  0.00000000  1
  O  O11  1  0.42093200  0.22092400  0.00000000  1
loop_
_geom_bond_atom_site_label_1
_geom_bond_atom_site_label_2
_geom_bond_distance
_geom_bond_site_symmetry_2
Na0 O8 2.297420 1_555
Na0 O1 2.385233 1_555
Na0 O7 2.385233 1_555
Na0 O9 2.490873 1_555
Na0 O6 2.660113 1_555
Na0 O0 2.660113 1_555
Na0 O5 2.683252 1_555
Na0 O3 2.683252 1_555
Na1 O11 2.297420 1_655
Na1 O4 2.385233 1_554
Na1 O2 2.385233 1_555
Na1 O10 2.490873 1_655
Na1 O5 2.660113 1_555
Na1 O3 2.660113 1_554
Na1 O6 2.683252 1_655
Na1 O0 2.683252 1_654
O0 Ti3 1.906297 1_555
O0 Ti0 2.036463 1_555
O0 Tm0 2.260674 1_555
O1 Ti1 1.921146 1_555
O1 Ti2 2.105919 1_565
O1 Tm0 2.395802 1_565
O1 Tm1 2.681804 1_555
O2 Ti2 1.921146 1_555
O2 Ti1 2.105919 1_645
O2 Tm1 2.395802 1_545
O2 Tm0 2.681804 1_655
O3 Ti0 1.906297 1_555
O3 Ti3 2.036463 1_655
O3 Tm1 2.260674 1_556
O4 Ti0 1.921146 1_555
O4 Ti3 2.105919 1_645
O4 Tm1 2.395802 1_546
O4 Tm0 2.681804 1_655
O5 Ti2 1.906297 1_555
O5 Ti1 2.036463 1_655
O5 Tm1 2.260674 1_555
O6 Ti1 1.906297 1_555
O6 Ti2 2.036463 1_555
O6 Tm0 2.260674 1_555
O7 Ti3 1.921146 1_555
O7 Ti0 2.105919 1_565
O7 Tm0 2.395802 1_565
O7 Tm1 2.681804 1_556
O8 Ti1 1.956368 1_655
O8 Ti3 1.956368 1_655
O8 Tm0 2.251422 1_665
O9 Ti2 1.993959 1_555
O9 Ti0 1.993959 1_555
O9 Tm0 2.235736 1_655
O10 Ti3 1.993959 1_554
O10 Ti1 1.993959 1_555
O10 Tm1 2.235736 1_555
O11 Ti0 1.956368 1_554
O11 Ti2 1.956368 1_555
O11 Tm1 2.251422 1_545
