# generated using pymatgen
data_Li9Mn2Co5O16
_symmetry_space_group_name_H-M   'P 1'
_cell_length_a   3.01635600
_cell_length_b   7.78153176
_cell_length_c   12.51709362
_cell_angle_alpha   89.41829539
_cell_angle_beta   89.79625022
_cell_angle_gamma   83.26663765
_symmetry_Int_Tables_number   1
_chemical_formula_structural   Li9Mn2Co5O16
_chemical_formula_sum   'Li9 Mn2 Co5 O16'
_cell_volume   291.75725987
_cell_formula_units_Z   1
loop_
 _symmetry_equiv_pos_site_id
 _symmetry_equiv_pos_as_xyz
  1  'x, y, z'
loop_
 _atom_site_type_symbol
 _atom_site_label
 _atom_site_symmetry_multiplicity
 _atom_site_fract_x
 _atom_site_fract_y
 _atom_site_fract_z
 _atom_site_occupancy
  Li  Li0  1  0.94555700  0.62326900  0.81116000  1
  Li  Li1  1  0.69272600  0.12425600  0.05989300  1
  Li  Li2  1  0.44499000  0.62014200  0.31605300  1
  Li  Li3  1  0.55501000  0.37985800  0.68394700  1
  Li  Li4  1  0.30727400  0.87574400  0.94010700  1
  Li  Li5  1  0.05444300  0.37673100  0.18884000  1
  Li  Li6  1  0.18388000  0.12462000  0.55765800  1
  Li  Li7  1  0.81612000  0.87538000  0.44234200  1
  Li  Li8  1  0.00000000  0.50000000  0.50000000  1
  Mn  Mn0  1  0.75014100  0.99984700  0.74922800  1
  Mn  Mn1  1  0.24985900  0.00015300  0.25077200  1
  Co  Co0  1  0.50000000  0.50000000  0.00000000  1
  Co  Co1  1  0.39060200  0.73749700  0.62060400  1
  Co  Co2  1  0.10626300  0.25309400  0.87462400  1
  Co  Co3  1  0.89373700  0.74690600  0.12537600  1
  Co  Co4  1  0.60939800  0.26250300  0.37939600  1
  O  O0  1  0.37309700  0.81243400  0.76976500  1
  O  O1  1  0.06100400  0.31927400  0.02236400  1
  O  O2  1  0.86946700  0.81338900  0.27393100  1
  O  O3  1  0.99053300  0.57539500  0.65362000  1
  O  O4  1  0.74101900  0.06907700  0.89907600  1
  O  O5  1  0.50673700  0.56982000  0.14976200  1
  O  O6  1  0.60317900  0.30223100  0.51619800  1
  O  O7  1  0.23279300  0.07142400  0.39838300  1
  O  O8  1  0.49326300  0.43018000  0.85023800  1
  O  O9  1  0.25898100  0.93092300  0.10092400  1
  O  O10  1  0.00946700  0.42460500  0.34638000  1
  O  O11  1  0.13053300  0.18661100  0.72606900  1
  O  O12  1  0.93899600  0.68072600  0.97763600  1
  O  O13  1  0.62690300  0.18756600  0.23023500  1
  O  O14  1  0.76720700  0.92857600  0.60161700  1
  O  O15  1  0.39682100  0.69776900  0.48380200  1
loop_
_geom_bond_atom_site_label_1
_geom_bond_atom_site_label_2
_geom_bond_distance
_geom_bond_site_symmetry_2
Li0 O3 2.011693 1_555
Li0 O0 2.126793 1_655
Li0 O12 2.135192 1_555
Li0 O8 2.152891 1_655
Li0 O0 2.193564 1_555
Li0 O8 2.195252 1_555
Li1 O1 2.033401 1_655
Li1 O4 2.063588 1_554
Li1 O9 2.163306 1_545
Li1 O13 2.196298 1_555
Li1 O9 2.198275 1_645
Li1 O1 2.338444 1_555
Li2 O5 2.125388 1_555
Li2 O2 2.146911 1_555
Li2 O10 2.153728 1_555
Li2 O10 2.178006 1_655
Li2 O15 2.190403 1_555
Li2 O2 2.220622 1_455
Li3 O8 2.125388 1_555
Li3 O11 2.146911 1_555
Li3 O3 2.153728 1_555
Li3 O3 2.178006 1_455
Li3 O6 2.190403 1_555
Li3 O11 2.220622 1_655
Li4 O12 2.033401 1_455
Li4 O9 2.063588 1_556
Li4 O4 2.163306 1_565
Li4 O0 2.196298 1_555
Li4 O4 2.198275 1_465
Li4 O12 2.338444 1_555
Li5 O10 2.011693 1_555
Li5 O13 2.126793 1_455
Li5 O1 2.135192 1_555
Li5 O5 2.152891 1_455
Li5 O13 2.193564 1_555
Li5 O5 2.195252 1_555
Li6 O7 2.041603 1_555
Li6 O6 2.041998 1_555
Li6 O14 2.153430 1_445
Li6 O6 2.161434 1_455
Li6 O11 2.168491 1_555
Li6 O14 2.255284 1_545
Li7 O14 2.041603 1_555
Li7 O15 2.041998 1_555
Li7 O7 2.153430 1_665
Li7 O15 2.161434 1_655
Li7 O2 2.168491 1_555
Li7 O7 2.255284 1_565
Li8 O3 2.015207 1_455
Li8 O10 2.015207 1_555
Li8 O15 2.065443 1_555
Li8 O6 2.065443 1_455
Li8 O15 2.249309 1_455
Li8 O6 2.249309 1_555
Mn0 O14 1.933265 1_555
Mn0 O4 1.955953 1_565
Mn0 O0 1.966110 1_555
Mn0 O11 1.973012 1_665
Mn0 O11 2.246666 1_565
Mn0 O0 2.253213 1_655
Mn1 O7 1.933265 1_555
Mn1 O9 1.955953 1_545
Mn1 O13 1.966110 1_555
Mn1 O2 1.973012 1_445
Mn1 O2 2.246666 1_545
Mn1 O13 2.253213 1_455
Co0 O5 1.957857 1_555
Co0 O8 1.957857 1_554
Co0 O12 2.058055 1_554
Co0 O1 2.058055 1_555
Co0 O1 2.087328 1_655
Co0 O12 2.087328 1_454
Co1 O15 1.742777 1_555
Co1 O3 1.887058 1_455
Co1 O0 1.960339 1_555
Co1 O14 1.986138 1_555
Co1 O3 2.120390 1_555
Co1 O14 2.267932 1_455
Co2 O1 1.924764 1_556
Co2 O4 1.927825 1_455
Co2 O8 1.928951 1_555
Co2 O11 1.933995 1_555
Co2 O8 2.192929 1_455
Co2 O4 2.272082 1_555
Co3 O12 1.924764 1_554
Co3 O9 1.927825 1_655
Co3 O5 1.928951 1_555
Co3 O2 1.933995 1_555
Co3 O5 2.192929 1_655
Co3 O9 2.272082 1_555
Co4 O6 1.742777 1_555
Co4 O10 1.887058 1_655
Co4 O13 1.960339 1_555
Co4 O7 1.986138 1_555
Co4 O10 2.120390 1_555
Co4 O7 2.267932 1_655
