# generated using pymatgen
data_LiTi8O16
_symmetry_space_group_name_H-M   'P 1'
_cell_length_a   5.20737935
_cell_length_b   5.58532796
_cell_length_c   9.48935838
_cell_angle_alpha   86.78160536
_cell_angle_beta   93.07571589
_cell_angle_gamma   91.41731769
_symmetry_Int_Tables_number   1
_chemical_formula_structural   LiTi8O16
_chemical_formula_sum   'Li1 Ti8 O16'
_cell_volume   275.09967260
_cell_formula_units_Z   1
loop_
 _symmetry_equiv_pos_site_id
 _symmetry_equiv_pos_as_xyz
  1  'x, y, z'
loop_
 _atom_site_type_symbol
 _atom_site_label
 _atom_site_symmetry_multiplicity
 _atom_site_fract_x
 _atom_site_fract_y
 _atom_site_fract_z
 _atom_site_occupancy
  Li  Li0  1  0.29005200  0.45815400  0.37789900  1
  Ti  Ti0  1  0.11087000  0.43336500  0.63879300  1
  Ti  Ti1  1  0.63373400  0.61430400  0.86764000  1
  Ti  Ti2  1  0.31382100  0.97907200  0.35898000  1
  Ti  Ti3  1  0.87916100  0.08619700  0.11760900  1
  Ti  Ti4  1  0.80583200  0.66863000  0.39292000  1
  Ti  Ti5  1  0.39614600  0.37897500  0.11288500  1
  Ti  Ti6  1  0.61257100  0.13065900  0.63418900  1
  Ti  Ti7  1  0.13975900  0.90762500  0.86834000  1
  O  O0  1  0.45475900  0.39860000  0.72893700  1
  O  O1  1  0.95379000  0.62161700  0.76627500  1
  O  O2  1  0.02416400  0.83402200  0.25462000  1
  O  O3  1  0.56594700  0.08452700  0.22160300  1
  O  O4  1  0.54537400  0.57781400  0.26428500  1
  O  O5  1  0.12127400  0.27621900  0.24028400  1
  O  O6  1  0.95303300  0.12364500  0.72525500  1
  O  O7  1  0.45402300  0.89829900  0.76177400  1
  O  O8  1  0.82715900  0.85033400  0.97807700  1
  O  O9  1  0.29419600  0.19144600  0.50586500  1
  O  O10  1  0.70802700  0.35323200  0.00786100  1
  O  O11  1  0.16421100  0.68495200  0.49154600  1
  O  O12  1  0.20001900  0.14293700  0.99698400  1
  O  O13  1  0.64213700  0.89568100  0.48396500  1
  O  O14  1  0.32694000  0.64132600  0.98154900  1
  O  O15  1  0.79550000  0.38741700  0.51472300  1
loop_
_geom_bond_atom_site_label_1
_geom_bond_atom_site_label_2
_geom_bond_distance
_geom_bond_site_symmetry_2
Li0 O4 1.845458 1_555
Li0 O11 1.862088 1_555
Li0 O9 1.868089 1_555
Li0 O5 1.868694 1_555
O0 Ti0 1.952029 1_555
O0 Ti6 2.003633 1_555
O0 Ti1 2.010809 1_555
O1 Ti0 1.878726 1_655
O1 Ti1 1.966948 1_555
O1 Ti7 2.103392 1_655
O2 Ti2 1.944616 1_555
O2 Ti4 1.959681 1_455
O2 Ti3 1.996496 1_465
O3 Ti3 1.950669 1_555
O3 Ti2 1.956858 1_545
O3 Ti5 2.081918 1_555
O4 Ti4 1.855989 1_555
O4 Ti5 1.979391 1_555
O5 Ti5 1.976578 1_555
O5 Ti3 1.996538 1_455
O5 Ti2 2.186255 1_545
O6 Ti6 1.930481 1_555
O6 Ti7 1.994294 1_645
O6 Ti0 2.045456 1_655
O7 Ti6 1.926026 1_565
O7 Ti7 1.972600 1_555
O7 Ti1 2.048086 1_555
O8 Ti3 1.923978 1_566
O8 Ti1 1.956240 1_555
O8 Ti7 1.988796 1_655
O9 Ti2 1.888701 1_545
O9 Ti6 2.027684 1_555
O9 Ti0 2.170859 1_555
O10 Ti1 1.949682 1_554
O10 Ti5 1.962876 1_555
O10 Ti3 1.973579 1_555
O11 Ti0 1.950896 1_555
O11 Ti4 2.044679 1_455
O11 Ti2 2.167466 1_555
O12 Ti7 1.853297 1_545
O12 Ti5 1.991581 1_556
O12 Ti3 2.083422 1_456
O13 Ti4 1.826689 1_555
O13 Ti6 2.005475 1_565
O13 Ti2 2.075169 1_555
O14 Ti5 1.898196 1_556
O14 Ti1 1.989733 1_555
O14 Ti7 2.023947 1_555
O15 Ti4 1.898549 1_555
O15 Ti0 1.988613 1_655
O15 Ti6 2.028528 1_555
