# generated using pymatgen
data_LaFeGe
_symmetry_space_group_name_H-M   'P 1'
_cell_length_a   4.23180780
_cell_length_b   4.23180780
_cell_length_c   4.28578400
_cell_angle_alpha   90.00000000
_cell_angle_beta   90.00000000
_cell_angle_gamma   119.99999686
_symmetry_Int_Tables_number   1
_chemical_formula_structural   LaFeGe
_chemical_formula_sum   'La1 Fe1 Ge1'
_cell_volume   66.46802796
_cell_formula_units_Z   1
loop_
 _symmetry_equiv_pos_site_id
 _symmetry_equiv_pos_as_xyz
  1  'x, y, z'
loop_
 _atom_site_type_symbol
 _atom_site_label
 _atom_site_symmetry_multiplicity
 _atom_site_fract_x
 _atom_site_fract_y
 _atom_site_fract_z
 _atom_site_occupancy
  La  La0  1  0.33333300  0.66666700  0.00000000  1
  Fe  Fe0  1  0.66666700  0.33333300  0.50000000  1
  Ge  Ge0  1  0.00000000  0.00000000  0.50000000  1
loop_
_geom_bond_atom_site_label_1
_geom_bond_atom_site_label_2
_geom_bond_distance
_geom_bond_site_symmetry_2
Fe0 Ge0 2.443233 1_655
Fe0 Ge0 2.443237 1_665
Fe0 Ge0 2.443237 1_555
Fe0 La0 3.249827 1_546
Fe0 La0 3.249827 1_545
Fe0 La0 3.249827 1_656
Fe0 La0 3.249827 1_655
Fe0 La0 3.249832 1_555
Fe0 La0 3.249832 1_556
Ge0 La0 3.249827 1_545
Ge0 La0 3.249827 1_546
Ge0 La0 3.249829 1_445
Ge0 La0 3.249829 1_446
Ge0 La0 3.249829 1_555
Ge0 La0 3.249829 1_556
