# generated using pymatgen
data_Ba3NiSb2O9
_symmetry_space_group_name_H-M   'P 1'
_cell_length_a   5.92019300
_cell_length_b   15.79334112
_cell_length_c   10.25407500
_cell_angle_alpha   71.05666466
_cell_angle_beta   90.00000000
_cell_angle_gamma   100.80265908
_symmetry_Int_Tables_number   1
_chemical_formula_structural   Ba3NiSb2O9
_chemical_formula_sum   'Ba12 Ni4 Sb8 O36'
_cell_volume   888.84376625
_cell_formula_units_Z   4
loop_
 _symmetry_equiv_pos_site_id
 _symmetry_equiv_pos_as_xyz
  1  'x, y, z'
loop_
 _atom_site_type_symbol
 _atom_site_label
 _atom_site_symmetry_multiplicity
 _atom_site_fract_x
 _atom_site_fract_y
 _atom_site_fract_z
 _atom_site_occupancy
  Ba  Ba0  1  0.87500000  0.75000000  0.12500000  1
  Ba  Ba1  1  0.37500000  0.75000000  0.62500000  1
  Ba  Ba2  1  0.62500000  0.25000000  0.37500000  1
  Ba  Ba3  1  0.12500000  0.25000000  0.87500000  1
  Ba  Ba4  1  0.79331300  0.58662600  0.87335400  1
  Ba  Ba5  1  0.29331300  0.58662600  0.37335400  1
  Ba  Ba6  1  0.04331300  0.08662600  0.29002100  1
  Ba  Ba7  1  0.54331300  0.08662600  0.79002100  1
  Ba  Ba8  1  0.20668700  0.41337400  0.12664600  1
  Ba  Ba9  1  0.70668700  0.41337400  0.62664600  1
  Ba  Ba10  1  0.95668700  0.91337400  0.70997900  1
  Ba  Ba11  1  0.45668700  0.91337400  0.20997900  1
  Ni  Ni0  1  0.50000000  0.00000000  0.50000000  1
  Ni  Ni1  1  0.75000000  0.50000000  0.25000000  1
  Ni  Ni2  1  0.00000000  0.00000000  0.00000000  1
  Ni  Ni3  1  0.25000000  0.50000000  0.75000000  1
  Sb  Sb0  1  0.32583300  0.65166600  0.00750000  1
  Sb  Sb1  1  0.82583300  0.65166600  0.50750000  1
  Sb  Sb2  1  0.57583300  0.15166600  0.09083400  1
  Sb  Sb3  1  0.07583300  0.15166600  0.59083400  1
  Sb  Sb4  1  0.42416700  0.84833400  0.90916600  1
  Sb  Sb5  1  0.92416700  0.84833400  0.40916600  1
  Sb  Sb6  1  0.67416700  0.34833400  0.99250000  1
  Sb  Sb7  1  0.17416700  0.34833400  0.49250000  1
  O  O0  1  0.62500000  0.25000000  0.89307700  1
  O  O1  1  0.12500000  0.25000000  0.39307700  1
  O  O2  1  0.15211500  0.75000000  0.88403800  1
  O  O3  1  0.65211500  0.75000000  0.38403800  1
  O  O4  1  0.59788500  0.75000000  0.88403800  1
  O  O5  1  0.09788500  0.75000000  0.38403800  1
  O  O6  1  0.40211500  0.25000000  0.11596200  1
  O  O7  1  0.90211500  0.25000000  0.61596200  1
  O  O8  1  0.84788500  0.25000000  0.11596200  1
  O  O9  1  0.34788500  0.25000000  0.61596200  1
  O  O10  1  0.37500000  0.75000000  0.10692300  1
  O  O11  1  0.87500000  0.75000000  0.60692300  1
  O  O12  1  0.29491200  0.08376600  0.04246000  1
  O  O13  1  0.79491200  0.08376600  0.54246000  1
  O  O14  1  0.54188300  0.08376600  0.28943100  1
  O  O15  1  0.04188300  0.08376600  0.78943100  1
  O  O16  1  0.78885400  0.08376600  0.04246000  1
  O  O17  1  0.28885400  0.08376600  0.54246000  1
  O  O18  1  0.04491200  0.58376600  0.12377400  1
  O  O19  1  0.54491200  0.58376600  0.62377400  1
  O  O20  1  0.45811700  0.91623400  0.71056900  1
  O  O21  1  0.95811700  0.91623400  0.21056900  1
  O  O22  1  0.53885400  0.58376600  0.12377400  1
  O  O23  1  0.03885400  0.58376600  0.62377400  1
  O  O24  1  0.29188300  0.58376600  0.87680300  1
  O  O25  1  0.79188300  0.58376600  0.37680300  1
  O  O26  1  0.46114600  0.41623400  0.87622600  1
  O  O27  1  0.96114600  0.41623400  0.37622600  1
  O  O28  1  0.95508800  0.41623400  0.87622600  1
  O  O29  1  0.45508800  0.41623400  0.37622600  1
  O  O30  1  0.21114600  0.91623400  0.95754000  1
  O  O31  1  0.71114600  0.91623400  0.45754000  1
  O  O32  1  0.70508800  0.91623400  0.95754000  1
  O  O33  1  0.20508800  0.91623400  0.45754000  1
  O  O34  1  0.70811700  0.41623400  0.12319700  1
  O  O35  1  0.20811700  0.41623400  0.62319700  1
loop_
_geom_bond_atom_site_label_1
_geom_bond_atom_site_label_2
_geom_bond_distance
_geom_bond_site_symmetry_2
Ba0 O3 2.965891 1_555
Ba0 O5 2.965891 1_655
Ba0 O10 2.965895 1_655
Ba0 O10 2.965895 1_555
Ba0 O2 2.965897 1_654
Ba0 O4 2.965897 1_554
Ba0 O30 2.985980 1_654
Ba0 O25 2.985980 1_555
Ba0 O22 2.985980 1_555
Ba0 O32 2.985980 1_554
Ba0 O21 2.985980 1_555
Ba0 O18 2.985980 1_655
Ba1 O4 2.965891 1_555
Ba1 O2 2.965891 1_555
Ba1 O11 2.965895 1_455
Ba1 O11 2.965895 1_555
Ba1 O5 2.965897 1_555
Ba1 O3 2.965897 1_555
Ba1 O31 2.985980 1_555
Ba1 O24 2.985980 1_555
Ba1 O23 2.985980 1_555
Ba1 O33 2.985980 1_555
Ba1 O20 2.985980 1_555
Ba1 O19 2.985980 1_555
Ba2 O8 2.965891 1_555
Ba2 O6 2.965891 1_555
Ba2 O1 2.965895 1_555
Ba2 O1 2.965895 1_655
Ba2 O9 2.965897 1_555
Ba2 O7 2.965897 1_555
Ba2 O17 2.985980 1_555
Ba2 O34 2.985980 1_555
Ba2 O27 2.985980 1_555
Ba2 O13 2.985980 1_555
Ba2 O14 2.985980 1_555
Ba2 O29 2.985980 1_555
Ba3 O9 2.965891 1_555
Ba3 O7 2.965891 1_455
Ba3 O0 2.965895 1_555
Ba3 O0 2.965895 1_455
Ba3 O8 2.965897 1_456
Ba3 O6 2.965897 1_556
Ba3 O16 2.985980 1_456
Ba3 O35 2.985980 1_555
Ba3 O26 2.985980 1_555
Ba3 O12 2.985980 1_556
Ba3 O15 2.985980 1_555
Ba3 O28 2.985980 1_455
Ba4 O22 2.960462 1_556
Ba4 O18 2.960462 1_656
Ba4 O24 2.960465 1_555
Ba4 O24 2.960465 1_655
Ba4 O19 2.960468 1_555
Ba4 O23 2.960468 1_655
Ba4 O34 3.012404 1_556
Ba4 O26 3.012407 1_555
Ba4 O28 3.012407 1_555
Ba4 O2 3.051342 1_655
Ba4 O4 3.051342 1_555
Ba4 O11 3.051348 1_555
Ba5 O23 2.960462 1_555
Ba5 O19 2.960462 1_555
Ba5 O25 2.960465 1_455
Ba5 O25 2.960465 1_555
Ba5 O18 2.960468 1_555
Ba5 O22 2.960468 1_555
Ba5 O35 3.012404 1_555
Ba5 O27 3.012407 1_455
Ba5 O29 3.012407 1_555
Ba5 O3 3.051342 1_555
Ba5 O5 3.051342 1_555
Ba5 O10 3.051348 1_555
Ba6 O13 2.960459 1_455
Ba6 O17 2.960459 1_555
Ba6 O14 2.960465 1_455
Ba6 O14 2.960465 1_555
Ba6 O16 2.960471 1_455
Ba6 O12 2.960471 1_555
Ba6 O31 3.012404 1_445
Ba6 O33 3.012404 1_545
Ba6 O21 3.012410 1_445
Ba6 O1 3.051342 1_555
Ba6 O6 3.051345 1_555
Ba6 O8 3.051345 1_455
Ba7 O12 2.960459 1_556
Ba7 O16 2.960459 1_556
Ba7 O15 2.960465 1_555
Ba7 O15 2.960465 1_655
Ba7 O17 2.960471 1_555
Ba7 O13 2.960471 1_555
Ba7 O30 3.012404 1_545
Ba7 O32 3.012404 1_545
Ba7 O20 3.012410 1_545
Ba7 O0 3.051342 1_555
Ba7 O7 3.051345 1_555
Ba7 O9 3.051345 1_555
Ba8 O26 2.960462 1_554
Ba8 O28 2.960462 1_454
Ba8 O34 2.960465 1_555
Ba8 O34 2.960465 1_455
Ba8 O29 2.960468 1_555
Ba8 O27 2.960468 1_455
Ba8 O24 3.012404 1_554
Ba8 O22 3.012407 1_555
Ba8 O18 3.012407 1_555
Ba8 O8 3.051342 1_455
Ba8 O6 3.051342 1_555
Ba8 O1 3.051348 1_555
Ba9 O27 2.960462 1_555
Ba9 O29 2.960462 1_555
Ba9 O35 2.960465 1_655
Ba9 O35 2.960465 1_555
Ba9 O28 2.960468 1_555
Ba9 O26 2.960468 1_555
Ba9 O25 3.012404 1_555
Ba9 O23 3.012407 1_655
Ba9 O19 3.012407 1_555
Ba9 O9 3.051342 1_555
Ba9 O7 3.051342 1_555
Ba9 O0 3.051348 1_555
Ba10 O33 2.960459 1_655
Ba10 O31 2.960459 1_555
Ba10 O20 2.960465 1_655
Ba10 O20 2.960465 1_555
Ba10 O30 2.960471 1_655
Ba10 O32 2.960471 1_555
Ba10 O17 3.012404 1_665
Ba10 O13 3.012404 1_565
Ba10 O15 3.012410 1_665
Ba10 O11 3.051342 1_555
Ba10 O4 3.051345 1_555
Ba10 O2 3.051345 1_655
Ba11 O32 2.960459 1_554
Ba11 O30 2.960459 1_554
Ba11 O21 2.960465 1_555
Ba11 O21 2.960465 1_455
Ba11 O31 2.960471 1_555
Ba11 O33 2.960471 1_555
Ba11 O16 3.012404 1_565
Ba11 O12 3.012404 1_565
Ba11 O14 3.012410 1_565
Ba11 O10 3.051342 1_555
Ba11 O5 3.051345 1_555
Ba11 O3 3.051345 1_555
Ni0 O20 2.120421 1_545
Ni0 O14 2.120421 1_555
Ni0 O33 2.120421 1_545
Ni0 O13 2.120421 1_555
Ni0 O31 2.120421 1_545
Ni0 O17 2.120421 1_555
Ni1 O29 2.120421 1_555
Ni1 O18 2.120421 1_655
Ni1 O27 2.120421 1_555
Ni1 O22 2.120421 1_555
Ni1 O34 2.120421 1_555
Ni1 O25 2.120421 1_555
Ni2 O21 2.120421 1_445
Ni2 O15 2.120421 1_554
Ni2 O12 2.120421 1_555
Ni2 O32 2.120421 1_444
Ni2 O30 2.120421 1_544
Ni2 O16 2.120421 1_455
Ni3 O28 2.120421 1_455
Ni3 O19 2.120421 1_555
Ni3 O26 2.120421 1_555
Ni3 O23 2.120421 1_555
Ni3 O24 2.120421 1_555
Ni3 O35 2.120421 1_555
O0 Sb2 2.096304 1_556
O0 Sb6 2.096304 1_555
O1 Sb3 2.096304 1_555
O1 Sb7 2.096304 1_555
O2 Sb4 2.096304 1_555
O2 Sb0 2.096304 1_556
O3 Sb5 2.096304 1_555
O3 Sb1 2.096304 1_555
O4 Sb0 2.096304 1_556
O4 Sb4 2.096304 1_555
O5 Sb1 2.096304 1_455
O5 Sb5 2.096304 1_455
O6 Sb6 2.096304 1_554
O6 Sb2 2.096304 1_555
O7 Sb7 2.096304 1_655
O7 Sb3 2.096304 1_655
O8 Sb2 2.096304 1_555
O8 Sb6 2.096304 1_554
O9 Sb3 2.096304 1_555
O9 Sb7 2.096304 1_555
O10 Sb4 2.096304 1_554
O10 Sb0 2.096304 1_555
O11 Sb5 2.096304 1_555
O11 Sb1 2.096304 1_555
O12 Sb2 1.959277 1_555
O13 Sb3 1.959277 1_655
O14 Sb2 1.959273 1_555
O15 Sb3 1.959273 1_555
O16 Sb2 1.959277 1_555
O17 Sb3 1.959277 1_555
O18 Sb0 1.959277 1_555
O19 Sb1 1.959277 1_555
O20 Sb4 1.959273 1_555
O21 Sb5 1.959273 1_555
O22 Sb0 1.959277 1_555
O23 Sb1 1.959277 1_455
O24 Sb0 1.959273 1_556
O25 Sb1 1.959273 1_555
O26 Sb6 1.959277 1_555
O27 Sb7 1.959277 1_655
O28 Sb6 1.959277 1_555
O29 Sb7 1.959277 1_555
O30 Sb4 1.959277 1_555
O31 Sb5 1.959277 1_555
O32 Sb4 1.959277 1_555
O33 Sb5 1.959277 1_455
O34 Sb6 1.959273 1_554
O35 Sb7 1.959273 1_555
