# generated using pymatgen
data_HfMg6Co
_symmetry_space_group_name_H-M   'P 1'
_cell_length_a   4.91592500
_cell_length_b   5.76391200
_cell_length_c   11.24428300
_cell_angle_alpha   90.00000000
_cell_angle_beta   90.00000000
_cell_angle_gamma   90.00000000
_symmetry_Int_Tables_number   1
_chemical_formula_structural   HfMg6Co
_chemical_formula_sum   'Hf2 Mg12 Co2'
_cell_volume   318.60629890
_cell_formula_units_Z   2
loop_
 _symmetry_equiv_pos_site_id
 _symmetry_equiv_pos_as_xyz
  1  'x, y, z'
loop_
 _atom_site_type_symbol
 _atom_site_label
 _atom_site_symmetry_multiplicity
 _atom_site_fract_x
 _atom_site_fract_y
 _atom_site_fract_z
 _atom_site_occupancy
  Hf  Hf0  1  0.00000000  0.50000000  0.17972000  1
  Hf  Hf1  1  0.00000000  0.00000000  0.67972000  1
  Mg  Mg0  1  0.00000000  0.25170000  0.42778400  1
  Mg  Mg1  1  0.00000000  0.74830000  0.42778400  1
  Mg  Mg2  1  0.50000000  0.75336300  0.08123700  1
  Mg  Mg3  1  0.50000000  0.24663700  0.08123700  1
  Mg  Mg4  1  0.50000000  0.00000000  0.30619900  1
  Mg  Mg5  1  0.50000000  0.50000000  0.33025200  1
  Mg  Mg6  1  0.00000000  0.75170000  0.92778400  1
  Mg  Mg7  1  0.00000000  0.24830000  0.92778400  1
  Mg  Mg8  1  0.50000000  0.25336300  0.58123700  1
  Mg  Mg9  1  0.50000000  0.74663700  0.58123700  1
  Mg  Mg10  1  0.50000000  0.50000000  0.80619900  1
  Mg  Mg11  1  0.50000000  0.00000000  0.83025200  1
  Co  Co0  1  0.00000000  0.00000000  0.16578400  1
  Co  Co1  1  0.00000000  0.50000000  0.66578400  1
loop_
_geom_bond_atom_site_label_1
_geom_bond_atom_site_label_2
_geom_bond_distance
_geom_bond_site_symmetry_2
Hf0 Mg5 2.984386 1_455
Hf0 Mg5 2.984386 1_555
Hf0 Mg1 3.135041 1_555
Hf0 Mg0 3.135041 1_555
Hf0 Mg7 3.182724 1_554
Hf0 Mg6 3.182724 1_554
Hf1 Mg11 2.984386 1_455
Hf1 Mg11 2.984386 1_555
Hf1 Mg6 3.135041 1_545
Hf1 Mg7 3.135041 1_555
Hf1 Mg1 3.182724 1_545
Hf1 Mg0 3.182724 1_555
Mg0 Mg1 2.862359 1_555
Mg0 Mg1 2.901553 1_545
Mg0 Mg8 3.003151 1_555
Mg0 Mg8 3.003151 1_455
Mg0 Mg5 3.048369 1_555
Mg0 Mg5 3.048369 1_455
Mg0 Mg4 3.164711 1_455
Mg0 Mg4 3.164711 1_555
Mg1 Mg9 3.003151 1_455
Mg1 Mg9 3.003151 1_555
Mg1 Mg5 3.048369 1_555
Mg1 Mg5 3.048369 1_455
Mg1 Mg4 3.164711 1_465
Mg1 Mg4 3.164711 1_565
Mg2 Mg6 3.003151 1_554
Mg2 Mg6 3.003151 1_654
Mg2 Mg5 3.157947 1_555
Mg3 Mg7 3.003151 1_654
Mg3 Mg7 3.003151 1_554
Mg3 Mg5 3.157947 1_555
Mg4 Mg5 2.894619 1_555
Mg4 Mg5 2.894619 1_545
Mg5 Mg9 3.159975 1_555
Mg5 Mg8 3.159975 1_555
Mg6 Mg7 2.862359 1_565
Mg6 Mg7 2.901553 1_555
Mg10 Mg11 2.894619 1_555
Mg10 Mg11 2.894619 1_565
Mg10 Mg7 3.164711 1_655
Mg10 Mg6 3.164711 1_555
Mg10 Mg6 3.164711 1_655
Mg10 Mg7 3.164711 1_555
Mg11 Mg7 3.048369 1_655
Mg11 Mg6 3.048369 1_645
Mg11 Mg6 3.048369 1_545
Mg11 Mg7 3.048369 1_555
Mg11 Mg8 3.157947 1_555
Mg11 Mg9 3.157947 1_545
Mg11 Mg2 3.159975 1_546
Mg11 Mg3 3.159975 1_556
Co0 Hf0 2.886213 1_555
Co0 Hf0 2.886213 1_545
Co0 Mg4 2.921369 1_455
Co0 Mg4 2.921369 1_555
Co0 Mg2 2.994375 1_445
Co0 Mg3 2.994375 1_455
Co0 Mg2 2.994375 1_545
Co0 Mg3 2.994375 1_555
Co0 Mg6 3.034798 1_544
Co0 Mg7 3.034798 1_554
Co0 Mg0 3.283852 1_555
Co0 Mg1 3.283852 1_545
Co1 Hf1 2.886213 1_555
Co1 Hf1 2.886213 1_565
Co1 Mg10 2.921369 1_555
Co1 Mg10 2.921369 1_455
Co1 Mg8 2.994375 1_455
Co1 Mg9 2.994375 1_455
Co1 Mg8 2.994375 1_555
Co1 Mg9 2.994375 1_555
Co1 Mg0 3.034798 1_555
Co1 Mg1 3.034798 1_555
Co1 Mg6 3.283852 1_555
Co1 Mg7 3.283852 1_555
