# generated using pymatgen
data_KMg15
_symmetry_space_group_name_H-M   'P 1'
_cell_length_a   6.58930343
_cell_length_b   6.58930343
_cell_length_c   10.48746300
_cell_angle_alpha   90.00000000
_cell_angle_beta   90.00000000
_cell_angle_gamma   119.99999428
_symmetry_Int_Tables_number   1
_chemical_formula_structural   KMg15
_chemical_formula_sum   'K1 Mg15'
_cell_volume   394.34842626
_cell_formula_units_Z   1
loop_
 _symmetry_equiv_pos_site_id
 _symmetry_equiv_pos_as_xyz
  1  'x, y, z'
loop_
 _atom_site_type_symbol
 _atom_site_label
 _atom_site_symmetry_multiplicity
 _atom_site_fract_x
 _atom_site_fract_y
 _atom_site_fract_z
 _atom_site_occupancy
  K  K0  1  0.66666700  0.33333300  0.00000000  1
  Mg  Mg0  1  0.66666700  0.33333300  0.50000000  1
  Mg  Mg1  1  0.16999400  0.33998800  0.00000000  1
  Mg  Mg2  1  0.16521400  0.33042800  0.50000000  1
  Mg  Mg3  1  0.16999400  0.83000600  0.00000000  1
  Mg  Mg4  1  0.16521400  0.83478600  0.50000000  1
  Mg  Mg5  1  0.66001200  0.83000600  0.00000000  1
  Mg  Mg6  1  0.66957200  0.83478600  0.50000000  1
  Mg  Mg7  1  0.00972200  0.50486100  0.26318600  1
  Mg  Mg8  1  0.00972200  0.50486100  0.73681400  1
  Mg  Mg9  1  0.49513900  0.50486100  0.26318600  1
  Mg  Mg10  1  0.49513900  0.50486100  0.73681400  1
  Mg  Mg11  1  0.49513900  0.99027800  0.26318600  1
  Mg  Mg12  1  0.49513900  0.99027800  0.73681400  1
  Mg  Mg13  1  0.00000000  0.00000000  0.24742900  1
  Mg  Mg14  1  0.00000000  0.00000000  0.75257100  1
loop_
_geom_bond_atom_site_label_1
_geom_bond_atom_site_label_2
_geom_bond_distance
_geom_bond_site_symmetry_2
K0 Mg5 3.294867 1_545
K0 Mg1 3.294867 1_655
K0 Mg3 3.294871 1_545
K0 Mg3 3.294871 1_655
K0 Mg5 3.294874 1_555
K0 Mg1 3.294874 1_555
K0 Mg11 3.383906 1_545
K0 Mg8 3.383906 1_654
K0 Mg7 3.383906 1_655
K0 Mg12 3.383906 1_544
K0 Mg9 3.383909 1_555
K0 Mg10 3.383909 1_554
Mg0 Mg8 3.162362 1_655
Mg0 Mg12 3.162362 1_545
Mg0 Mg7 3.162362 1_655
Mg0 Mg11 3.162362 1_545
Mg0 Mg10 3.162365 1_555
Mg0 Mg9 3.162365 1_555
Mg0 Mg6 3.294690 1_545
Mg0 Mg2 3.294690 1_655
Mg0 Mg4 3.294694 1_655
Mg0 Mg4 3.294694 1_545
Mg0 Mg2 3.294697 1_555
Mg0 Mg6 3.294697 1_555
Mg1 Mg3 3.228877 1_555
Mg1 Mg5 3.228878 1_555
Mg1 Mg13 3.240011 1_555
Mg1 Mg14 3.240011 1_554
Mg1 Mg7 3.325859 1_555
Mg1 Mg8 3.325859 1_554
Mg1 Mg9 3.325859 1_555
Mg1 Mg10 3.325859 1_554
Mg1 Mg3 3.360426 1_545
Mg1 Mg5 3.360426 1_445
Mg2 Mg8 3.117159 1_555
Mg2 Mg7 3.117159 1_555
Mg2 Mg9 3.117159 1_555
Mg2 Mg4 3.265936 1_545
Mg2 Mg6 3.265936 1_445
Mg2 Mg4 3.323368 1_555
Mg2 Mg6 3.323368 1_555
Mg3 Mg5 3.228877 1_555
Mg3 Mg7 3.325859 1_555
Mg3 Mg8 3.325859 1_554
Mg3 Mg5 3.360426 1_455
Mg4 Mg8 3.117159 1_555
Mg4 Mg7 3.117159 1_555
Mg4 Mg6 3.265936 1_455
Mg4 Mg6 3.323368 1_555
Mg5 Mg9 3.325859 1_555
Mg6 Mg9 3.117159 1_555
Mg7 Mg9 3.198560 1_555
Mg7 Mg9 3.390744 1_455
Mg10 Mg2 3.117159 1_555
Mg10 Mg6 3.117159 1_555
Mg10 Mg8 3.198560 1_555
Mg10 Mg12 3.198560 1_555
Mg10 Mg14 3.299260 1_665
Mg10 Mg14 3.299260 1_555
Mg10 Mg5 3.325859 1_556
Mg10 Mg8 3.390744 1_655
Mg10 Mg12 3.390744 1_545
Mg11 Mg6 3.117159 1_555
Mg11 Mg4 3.117159 1_555
Mg11 Mg9 3.198560 1_555
Mg11 Mg7 3.198560 1_555
Mg11 Mg13 3.299260 1_565
Mg11 Mg13 3.299260 1_665
Mg11 Mg5 3.325859 1_555
Mg11 Mg3 3.325859 1_555
Mg11 Mg9 3.390744 1_565
Mg11 Mg7 3.390744 1_665
Mg12 Mg6 3.117159 1_555
Mg12 Mg4 3.117159 1_555
Mg12 Mg8 3.198560 1_555
Mg12 Mg14 3.299260 1_565
Mg12 Mg14 3.299260 1_665
Mg12 Mg5 3.325859 1_556
Mg12 Mg3 3.325859 1_556
Mg12 Mg8 3.390744 1_665
Mg13 Mg3 3.240011 1_545
Mg13 Mg5 3.240011 1_445
Mg13 Mg4 3.251421 1_545
Mg13 Mg2 3.251421 1_555
Mg13 Mg6 3.251421 1_445
Mg13 Mg7 3.299260 1_545
Mg13 Mg7 3.299260 1_555
Mg13 Mg9 3.299260 1_555
Mg13 Mg9 3.299260 1_445
Mg14 Mg3 3.240011 1_546
Mg14 Mg5 3.240011 1_446
Mg14 Mg4 3.251421 1_545
Mg14 Mg2 3.251421 1_555
Mg14 Mg6 3.251421 1_445
Mg14 Mg8 3.299260 1_545
Mg14 Mg8 3.299260 1_555
