# generated using pymatgen
data_Nd2NiO4
_symmetry_space_group_name_H-M   'P 1'
_cell_length_a   6.66813480
_cell_length_b   6.66813480
_cell_length_c   5.68211600
_cell_angle_alpha   90.00000000
_cell_angle_beta   90.00000000
_cell_angle_gamma   132.02044260
_symmetry_Int_Tables_number   1
_chemical_formula_structural   Nd2NiO4
_chemical_formula_sum   'Nd4 Ni2 O8'
_cell_volume   187.69500947
_cell_formula_units_Z   2
loop_
 _symmetry_equiv_pos_site_id
 _symmetry_equiv_pos_as_xyz
  1  'x, y, z'
loop_
 _atom_site_type_symbol
 _atom_site_label
 _atom_site_symmetry_multiplicity
 _atom_site_fract_x
 _atom_site_fract_y
 _atom_site_fract_z
 _atom_site_occupancy
  Nd  Nd0  1  0.86304800  0.13695200  0.48262700  1
  Nd  Nd1  1  0.63695200  0.36304800  0.98262700  1
  Nd  Nd2  1  0.36304800  0.63695200  0.01737300  1
  Nd  Nd3  1  0.13695200  0.86304800  0.51737300  1
  Ni  Ni0  1  0.00000000  0.00000000  0.00000000  1
  Ni  Ni1  1  0.50000000  0.50000000  0.50000000  1
  O  O0  1  0.77054300  0.72945700  0.25000000  1
  O  O1  1  0.82026500  0.17973500  0.07084600  1
  O  O2  1  0.72945700  0.77054300  0.75000000  1
  O  O3  1  0.67973500  0.32026500  0.57084600  1
  O  O4  1  0.27054300  0.22945700  0.25000000  1
  O  O5  1  0.17973500  0.82026500  0.92915400  1
  O  O6  1  0.22945700  0.27054300  0.75000000  1
  O  O7  1  0.32026500  0.67973500  0.42915400  1
loop_
_geom_bond_atom_site_label_1
_geom_bond_atom_site_label_2
_geom_bond_distance
_geom_bond_site_symmetry_2
Nd0 O3 2.289091 1_555
Nd0 O1 2.397152 1_555
Nd0 O6 2.481399 1_655
Nd0 O2 2.481399 1_545
Nd0 O0 2.695755 1_545
Nd0 O4 2.695755 1_655
Nd0 O7 2.777418 1_545
Nd0 O7 2.777418 1_655
Nd1 O1 2.289091 1_556
Nd1 O3 2.397152 1_555
Nd1 O0 2.481399 1_556
Nd1 O4 2.481399 1_556
Nd1 O6 2.695755 1_555
Nd1 O2 2.695755 1_555
Nd1 O5 2.777418 1_545
Nd1 O5 2.777418 1_655
Nd2 O5 2.289091 1_554
Nd2 O7 2.397152 1_555
Nd2 O6 2.481399 1_554
Nd2 O2 2.481399 1_554
Nd2 O4 2.695755 1_555
Nd2 O0 2.695755 1_555
Nd2 O1 2.777418 1_455
Nd2 O1 2.777418 1_565
Nd3 O7 2.289091 1_555
Nd3 O5 2.397152 1_555
Nd3 O0 2.481399 1_455
Nd3 O4 2.481399 1_565
Nd3 O6 2.695755 1_565
Nd3 O2 2.695755 1_455
Nd3 O3 2.777418 1_455
Nd3 O3 2.777418 1_565
Ni0 O6 1.979407 1_554
Ni0 O0 1.979407 1_445
Ni0 O2 1.979407 1_444
Ni0 O4 1.979407 1_555
Ni0 O1 2.226629 1_455
Ni0 O5 2.226629 1_544
Ni1 O2 1.979407 1_555
Ni1 O6 1.979407 1_555
Ni1 O4 1.979407 1_555
Ni1 O0 1.979407 1_555
Ni1 O3 2.226629 1_555
Ni1 O7 2.226629 1_555
