# generated using pymatgen
data_SrCu2Se2(ClO3)2
_symmetry_space_group_name_H-M   'P 1'
_cell_length_a   7.31543800
_cell_length_b   7.25836100
_cell_length_c   8.17318320
_cell_angle_alpha   83.94807076
_cell_angle_beta   90.00000000
_cell_angle_gamma   90.00000000
_symmetry_Int_Tables_number   1
_chemical_formula_structural   SrCu2Se2(ClO3)2
_chemical_formula_sum   'Sr2 Cu4 Se4 Cl4 O12'
_cell_volume   431.56173442
_cell_formula_units_Z   2
loop_
 _symmetry_equiv_pos_site_id
 _symmetry_equiv_pos_as_xyz
  1  'x, y, z'
loop_
 _atom_site_type_symbol
 _atom_site_label
 _atom_site_symmetry_multiplicity
 _atom_site_fract_x
 _atom_site_fract_y
 _atom_site_fract_z
 _atom_site_occupancy
  Sr  Sr0  1  0.02898100  0.37401700  0.06978800  1
  Sr  Sr1  1  0.52898100  0.62598300  0.93021200  1
  Cu  Cu0  1  0.03326300  0.86398800  0.90259000  1
  Cu  Cu1  1  0.53326300  0.13601200  0.09741000  1
  Cu  Cu2  1  0.01429100  0.19731000  0.58967700  1
  Cu  Cu3  1  0.51429100  0.80269000  0.41032300  1
  Se  Se0  1  0.67957400  0.37122600  0.38328800  1
  Se  Se1  1  0.17957400  0.62877400  0.61671200  1
  Se  Se2  1  0.38568100  0.14659900  0.78537500  1
  Se  Se3  1  0.88568100  0.85340100  0.21462500  1
  Cl  Cl0  1  0.77852600  0.37584900  0.78505700  1
  Cl  Cl1  1  0.27852600  0.62415100  0.21494300  1
  Cl  Cl2  1  0.31565100  0.05458600  0.37391600  1
  Cl  Cl3  1  0.81565100  0.94541400  0.62608400  1
  O  O0  1  0.16032100  0.06333300  0.76812800  1
  O  O1  1  0.66032100  0.93666700  0.23187200  1
  O  O2  1  0.65036800  0.35671100  0.17061500  1
  O  O3  1  0.15036800  0.64328900  0.82938500  1
  O  O4  1  0.36474400  0.29290200  0.94636400  1
  O  O5  1  0.86474400  0.70709800  0.05363600  1
  O  O6  1  0.70244800  0.60695300  0.38509900  1
  O  O7  1  0.20244800  0.39304700  0.61490100  1
  O  O8  1  0.91106300  0.31145600  0.38377400  1
  O  O9  1  0.41106300  0.68854400  0.61622600  1
  O  O10  1  0.96858700  0.03122000  0.07355100  1
  O  O11  1  0.46858700  0.96878000  0.92644900  1
loop_
_geom_bond_atom_site_label_1
_geom_bond_atom_site_label_2
_geom_bond_distance
_geom_bond_site_symmetry_2
Cu0 O0 1.957034 1_565
Cu0 O3 1.964714 1_555
Cu0 O10 2.001826 1_466
Cu0 O5 2.011014 1_456
Cu1 O1 1.957034 1_545
Cu1 O2 1.964714 1_555
Cu1 O11 2.001826 1_544
Cu1 O4 2.011014 1_554
Cu2 O8 1.948023 1_455
Cu2 O0 1.978652 1_555
Cu2 O7 2.004333 1_555
Cu3 O9 1.948023 1_555
Cu3 O1 1.978652 1_555
Cu3 O6 2.004333 1_555
Cl0 Cu2 2.764127 1_655
Cl0 Sr1 2.913847 1_555
Cl0 Sr0 2.960782 1_656
Cl1 Cu3 2.764127 1_555
Cl1 Sr0 2.913847 1_555
Cl1 Sr1 2.960782 1_554
Cl2 Cu3 2.329873 1_545
Cl2 Cu1 2.776545 1_555
Cl3 Cu2 2.329873 1_665
Cl3 Cu0 2.776545 1_655
O0 Se2 1.766638 1_555
O1 Se3 1.766638 1_555
O2 Se0 1.765434 1_555
O2 Sr1 2.767565 1_554
O2 Sr0 2.888668 1_655
O3 Se1 1.765434 1_555
O3 Sr0 2.767565 1_556
O3 Sr1 2.888668 1_555
O4 Se2 1.782434 1_555
O4 Sr1 2.690455 1_555
O4 Sr0 2.742748 1_556
O5 Se3 1.782434 1_555
O5 Sr0 2.690455 1_655
O5 Sr1 2.742748 1_554
O6 Se0 1.720771 1_555
O7 Se1 1.720771 1_555
O8 Se0 1.748031 1_555
O8 Sr0 2.700058 1_655
O9 Se1 1.748031 1_555
O9 Sr1 2.700058 1_555
O10 Se3 1.746237 1_545
O10 Sr0 2.524058 1_655
O11 Se2 1.746237 1_565
O11 Sr1 2.524058 1_555
