# generated using pymatgen
data_Sc4Si6Ir7
_symmetry_space_group_name_H-M   'P 1'
_cell_length_a   6.95777022
_cell_length_b   6.95777022
_cell_length_c   6.95777022
_cell_angle_alpha   109.47122063
_cell_angle_beta   109.47122063
_cell_angle_gamma   109.47122063
_symmetry_Int_Tables_number   1
_chemical_formula_structural   Sc4Si6Ir7
_chemical_formula_sum   'Sc4 Si6 Ir7'
_cell_volume   259.29154513
_cell_formula_units_Z   1
loop_
 _symmetry_equiv_pos_site_id
 _symmetry_equiv_pos_as_xyz
  1  'x, y, z'
loop_
 _atom_site_type_symbol
 _atom_site_label
 _atom_site_symmetry_multiplicity
 _atom_site_fract_x
 _atom_site_fract_y
 _atom_site_fract_z
 _atom_site_occupancy
  Sc  Sc0  1  -0.00000000  -0.00000000  0.50000000  1
  Sc  Sc1  1  -0.00000000  0.50000000  -0.00000000  1
  Sc  Sc2  1  0.50000000  -0.00000000  -0.00000000  1
  Sc  Sc3  1  0.50000000  0.50000000  0.50000000  1
  Si  Si0  1  0.68193113  0.68193113  -0.00000000  1
  Si  Si1  1  0.31806887  0.00000000  0.31806887  1
  Si  Si2  1  0.00000000  0.31806887  0.31806887  1
  Si  Si3  1  0.31806887  0.31806887  0.00000000  1
  Si  Si4  1  0.68193113  -0.00000000  0.68193113  1
  Si  Si5  1  -0.00000000  0.68193113  0.68193113  1
  Ir  Ir0  1  0.75000000  0.25000000  0.50000000  1
  Ir  Ir1  1  0.75000000  0.50000000  0.25000000  1
  Ir  Ir2  1  0.50000000  0.25000000  0.75000000  1
  Ir  Ir3  1  0.25000000  0.50000000  0.75000000  1
  Ir  Ir4  1  0.25000000  0.75000000  0.50000000  1
  Ir  Ir5  1  0.50000000  0.75000000  0.25000000  1
  Ir  Ir6  1  -0.00000000  -0.00000000  -0.00000000  1
loop_
_geom_bond_atom_site_label_1
_geom_bond_atom_site_label_2
_geom_bond_distance
_geom_bond_site_symmetry_2
Sc0 Si0 2.892663 1_445
Sc0 Si5 2.892663 1_545
Sc0 Si1 2.892663 1_555
Sc0 Si2 2.892663 1_555
Sc0 Si4 2.892663 1_455
Sc0 Si3 2.892663 1_556
Sc1 Si5 2.892663 1_554
Sc1 Si0 2.892663 1_455
Sc1 Si2 2.892663 1_555
Sc1 Si4 2.892663 1_454
Sc1 Si3 2.892663 1_555
Sc1 Si1 2.892663 1_565
Sc2 Si5 2.892663 1_544
Sc2 Si1 2.892663 1_555
Sc2 Si4 2.892663 1_554
Sc2 Si2 2.892663 1_655
Sc2 Si3 2.892663 1_555
Sc2 Si0 2.892663 1_545
Sc3 Si1 2.892663 1_555
Sc3 Si4 2.892663 1_565
Sc3 Si2 2.892663 1_555
Sc3 Si5 2.892663 1_655
Sc3 Si0 2.892663 1_556
Sc3 Si3 2.892663 1_555
Ir0 Si1 2.484082 1_555
Ir0 Si4 2.484082 1_555
Ir0 Si5 2.484082 1_655
Ir0 Si2 2.484082 1_655
Ir0 Sc3 2.840498 1_555
Ir0 Sc0 2.840498 1_655
Ir0 Sc1 2.840498 1_656
Ir0 Sc2 2.840498 1_555
Ir1 Si0 2.484082 1_555
Ir1 Si5 2.484082 1_655
Ir1 Si2 2.484082 1_655
Ir1 Si3 2.484082 1_555
Ir1 Sc1 2.840498 1_655
Ir1 Sc0 2.840498 1_665
Ir1 Sc3 2.840498 1_555
Ir1 Sc2 2.840498 1_555
Ir2 Si4 2.484082 1_555
Ir2 Si1 2.484082 1_555
Ir2 Si0 2.484082 1_556
Ir2 Si3 2.484082 1_556
Ir2 Sc3 2.840498 1_555
Ir2 Sc2 2.840498 1_556
Ir2 Sc1 2.840498 1_656
Ir2 Sc0 2.840498 1_555
Ir3 Si2 2.484082 1_555
Ir3 Si5 2.484082 1_555
Ir3 Si0 2.484082 1_556
Ir3 Si3 2.484082 1_556
Ir3 Sc1 2.840498 1_556
Ir3 Sc3 2.840498 1_555
Ir3 Sc2 2.840498 1_566
Ir3 Sc0 2.840498 1_555
Ir4 Si4 2.484082 1_565
Ir4 Si2 2.484082 1_555
Ir4 Si5 2.484082 1_555
Ir4 Si1 2.484082 1_565
Ir4 Sc1 2.840498 1_555
Ir4 Sc3 2.840498 1_555
Ir4 Sc0 2.840498 1_565
Ir4 Sc2 2.840498 1_566
Ir5 Si0 2.484082 1_555
Ir5 Si4 2.484082 1_565
Ir5 Si3 2.484082 1_555
Ir5 Si1 2.484082 1_565
Ir5 Sc1 2.840498 1_555
Ir5 Sc0 2.840498 1_665
Ir5 Sc3 2.840498 1_555
Ir5 Sc2 2.840498 1_565
Ir6 Si4 2.555410 1_454
Ir6 Si0 2.555410 1_445
Ir6 Si5 2.555410 1_544
Ir6 Si3 2.555410 1_555
Ir6 Si1 2.555410 1_555
Ir6 Si2 2.555410 1_555
