# generated using pymatgen
data_Te2Mo3W(Se2S)2
_symmetry_space_group_name_H-M   'P 1'
_cell_length_a   3.34426213
_cell_length_b   3.34426213
_cell_length_c   38.02238000
_cell_angle_alpha   90.00000000
_cell_angle_beta   90.00000000
_cell_angle_gamma   120.00000259
_symmetry_Int_Tables_number   1
_chemical_formula_structural   Te2Mo3W(Se2S)2
_chemical_formula_sum   'Te2 Mo3 W1 Se4 S2'
_cell_volume   368.27356036
_cell_formula_units_Z   1
loop_
 _symmetry_equiv_pos_site_id
 _symmetry_equiv_pos_as_xyz
  1  'x, y, z'
loop_
 _atom_site_type_symbol
 _atom_site_label
 _atom_site_symmetry_multiplicity
 _atom_site_fract_x
 _atom_site_fract_y
 _atom_site_fract_z
 _atom_site_occupancy
  Te  Te0  1  0.33333300  0.66666700  0.70745700  1
  Te  Te1  1  0.33333300  0.66666700  0.60761200  1
  Mo  Mo0  1  0.33333300  0.66666700  0.09389600  1
  Mo  Mo1  1  0.33333300  0.66666700  0.46965000  1
  Mo  Mo2  1  0.66666700  0.33333300  0.65756000  1
  W  W0  1  0.66666700  0.33333300  0.28180200  1
  Se  Se0  1  0.33333300  0.66666700  0.32587000  1
  Se  Se1  1  0.66666700  0.33333300  0.05008000  1
  Se  Se2  1  0.66666700  0.33333300  0.13774500  1
  Se  Se3  1  0.33333300  0.66666700  0.23775600  1
  S  S0  1  0.66666700  0.33333300  0.42978200  1
  S  S1  1  0.66666700  0.33333300  0.50953900  1
loop_
_geom_bond_atom_site_label_1
_geom_bond_atom_site_label_2
_geom_bond_distance
_geom_bond_site_symmetry_2
Mo0 Se1 2.550204 1_455
Mo0 Se1 2.550204 1_565
Mo0 Se1 2.550208 1_555
Mo0 Se2 2.551024 1_455
Mo0 Se2 2.551024 1_565
Mo0 Se2 2.551028 1_555
Mo1 S0 2.454771 1_455
Mo1 S0 2.454771 1_565
Mo1 S0 2.454776 1_555
Mo1 S1 2.455265 1_455
Mo1 S1 2.455265 1_565
Mo1 S1 2.455269 1_555
Mo2 Te0 2.706917 1_545
Mo2 Te0 2.706917 1_655
Mo2 Te0 2.706921 1_555
Mo2 Te1 2.708277 1_655
Mo2 Te1 2.708277 1_545
Mo2 Te1 2.708281 1_555
Se0 W0 2.556474 1_455
Se0 W0 2.556474 1_565
Se0 W0 2.556478 1_555
Se3 W0 2.555926 1_455
Se3 W0 2.555926 1_565
Se3 W0 2.555930 1_555
