# generated using pymatgen
data_Ca2NiWO6
_symmetry_space_group_name_H-M   'P 1'
_cell_length_a   5.45414792
_cell_length_b   5.64538800
_cell_length_c   7.78937284
_cell_angle_alpha   89.99876051
_cell_angle_beta   90.53161587
_cell_angle_gamma   90.00052042
_symmetry_Int_Tables_number   1
_chemical_formula_structural   Ca2NiWO6
_chemical_formula_sum   'Ca4 Ni2 W2 O12'
_cell_volume   239.83055132
_cell_formula_units_Z   2
loop_
 _symmetry_equiv_pos_site_id
 _symmetry_equiv_pos_as_xyz
  1  'x, y, z'
loop_
 _atom_site_type_symbol
 _atom_site_label
 _atom_site_symmetry_multiplicity
 _atom_site_fract_x
 _atom_site_fract_y
 _atom_site_fract_z
 _atom_site_occupancy
  Ca  Ca0  1  0.98549200  0.05540800  0.25337400  1
  Ca  Ca1  1  0.51450900  0.55540400  0.24660000  1
  Ca  Ca2  1  0.01450900  0.94459200  0.74662600  1
  Ca  Ca3  1  0.48549000  0.44459600  0.75340000  1
  Ni  Ni0  1  0.00000100  0.50000000  0.50000000  1
  Ni  Ni1  1  0.50000100  0.00000000  0.00000000  1
  W  W0  1  0.00000000  0.50000000  0.00000000  1
  W  W1  1  0.50000000  0.00000000  0.50000000  1
  O  O0  1  0.69037700  0.28450400  0.44654600  1
  O  O1  1  0.80959600  0.78447600  0.05343400  1
  O  O2  1  0.30962300  0.71549600  0.55345400  1
  O  O3  1  0.19040400  0.21552400  0.94656600  1
  O  O4  1  0.21067900  0.19402500  0.54518400  1
  O  O5  1  0.28928900  0.69406700  0.95483400  1
  O  O6  1  0.78932100  0.80597500  0.45481500  1
  O  O7  1  0.71071100  0.30593300  0.04516600  1
  O  O8  1  0.09552900  0.46805600  0.24126200  1
  O  O9  1  0.40451500  0.96806900  0.25875200  1
  O  O10  1  0.59548600  0.03193100  0.74124800  1
  O  O11  1  0.90447200  0.53194400  0.75873800  1
loop_
_geom_bond_atom_site_label_1
_geom_bond_atom_site_label_2
_geom_bond_distance
_geom_bond_site_symmetry_2
Ca0 O9 2.337996 1_645
Ca0 O6 2.370815 1_545
Ca0 O1 2.378585 1_545
Ca0 O8 2.407685 1_655
Ca0 O0 2.563725 1_555
Ca0 O7 2.613708 1_555
Ca0 O4 2.689930 1_655
Ca0 O3 2.797666 1_654
Ca1 O8 2.337766 1_555
Ca1 O7 2.371035 1_555
Ca1 O0 2.378406 1_555
Ca1 O9 2.407747 1_555
Ca1 O1 2.563485 1_555
Ca1 O6 2.614001 1_555
Ca1 O5 2.689776 1_554
Ca1 O2 2.797912 1_555
Ca2 O10 2.337996 1_465
Ca2 O4 2.370817 1_565
Ca2 O3 2.378582 1_565
Ca2 O11 2.407685 1_455
Ca2 O2 2.563722 1_555
Ca2 O5 2.613705 1_555
Ca2 O6 2.689939 1_455
Ca2 O1 2.797669 1_456
Ca3 O11 2.337777 1_555
Ca3 O5 2.371032 1_555
Ca3 O2 2.378404 1_555
Ca3 O10 2.407750 1_555
Ca3 O3 2.563481 1_555
Ca3 O4 2.614003 1_555
Ca3 O7 2.689778 1_556
Ca3 O0 2.797914 1_555
Ni0 O8 2.094124 1_555
Ni0 O11 2.094125 1_455
Ni0 O4 2.102491 1_555
Ni0 O6 2.102498 1_455
Ni0 O2 2.119459 1_555
Ni0 O0 2.119468 1_455
Ni1 O10 2.094154 1_554
Ni1 O9 2.094155 1_545
Ni1 O7 2.102364 1_555
Ni1 O5 2.102369 1_544
Ni1 O1 2.119411 1_545
Ni1 O3 2.119419 1_554
O0 W1 1.959377 1_555
O1 W0 1.959323 1_655
O2 W1 1.959377 1_565
O3 W0 1.959323 1_556
O4 W1 1.955529 1_555
O5 W0 1.955470 1_556
O6 W1 1.955530 1_565
O7 W0 1.955470 1_655
O8 W0 1.953843 1_555
O9 W1 1.953676 1_565
O10 W1 1.953678 1_555
O11 W0 1.953841 1_656
