# generated using pymatgen
data_ZrMnGe2
_symmetry_space_group_name_H-M   'P 1'
_cell_length_a   8.13850200
_cell_length_b   9.33406900
_cell_length_c   10.20230300
_cell_angle_alpha   90.00000000
_cell_angle_beta   90.00000000
_cell_angle_gamma   90.00000000
_symmetry_Int_Tables_number   1
_chemical_formula_structural   ZrMnGe2
_chemical_formula_sum   'Zr12 Mn12 Ge24'
_cell_volume   775.02140827
_cell_formula_units_Z   12
loop_
 _symmetry_equiv_pos_site_id
 _symmetry_equiv_pos_as_xyz
  1  'x, y, z'
loop_
 _atom_site_type_symbol
 _atom_site_label
 _atom_site_symmetry_multiplicity
 _atom_site_fract_x
 _atom_site_fract_y
 _atom_site_fract_z
 _atom_site_occupancy
  Zr  Zr0  1  0.74615500  0.82829100  0.04700300  1
  Zr  Zr1  1  0.74615500  0.17170900  0.95299700  1
  Zr  Zr2  1  0.25384500  0.67170900  0.54700300  1
  Zr  Zr3  1  0.25384500  0.32829100  0.45299700  1
  Zr  Zr4  1  0.25384500  0.17170900  0.95299700  1
  Zr  Zr5  1  0.25384500  0.82829100  0.04700300  1
  Zr  Zr6  1  0.74615500  0.32829100  0.45299700  1
  Zr  Zr7  1  0.74615500  0.67170900  0.54700300  1
  Zr  Zr8  1  0.50000000  0.83552400  0.32082400  1
  Zr  Zr9  1  0.50000000  0.16447600  0.67917600  1
  Zr  Zr10  1  0.50000000  0.66447600  0.82082400  1
  Zr  Zr11  1  0.50000000  0.33552400  0.17917600  1
  Mn  Mn0  1  0.75041500  0.58782900  0.24771400  1
  Mn  Mn1  1  0.75041500  0.41217100  0.75228600  1
  Mn  Mn2  1  0.24958500  0.91217100  0.74771400  1
  Mn  Mn3  1  0.24958500  0.08782900  0.25228600  1
  Mn  Mn4  1  0.24958500  0.41217100  0.75228600  1
  Mn  Mn5  1  0.24958500  0.58782900  0.24771400  1
  Mn  Mn6  1  0.75041500  0.08782900  0.25228600  1
  Mn  Mn7  1  0.75041500  0.91217100  0.74771400  1
  Mn  Mn8  1  0.74595000  0.00000000  0.50000000  1
  Mn  Mn9  1  0.25405000  0.50000000  0.00000000  1
  Mn  Mn10  1  0.25405000  0.00000000  0.50000000  1
  Mn  Mn11  1  0.74595000  0.50000000  0.00000000  1
  Ge  Ge0  1  0.84270600  0.83837400  0.31820400  1
  Ge  Ge1  1  0.84270600  0.16162600  0.68179600  1
  Ge  Ge2  1  0.15729400  0.66162600  0.81820400  1
  Ge  Ge3  1  0.15729400  0.33837400  0.18179600  1
  Ge  Ge4  1  0.15729400  0.16162600  0.68179600  1
  Ge  Ge5  1  0.15729400  0.83837400  0.31820400  1
  Ge  Ge6  1  0.84270600  0.33837400  0.18179600  1
  Ge  Ge7  1  0.84270600  0.66162600  0.81820400  1
  Ge  Ge8  1  0.50000000  0.54155100  0.37937500  1
  Ge  Ge9  1  0.50000000  0.45844900  0.62062500  1
  Ge  Ge10  1  0.50000000  0.95844900  0.87937500  1
  Ge  Ge11  1  0.50000000  0.04155100  0.12062500  1
  Ge  Ge12  1  0.00000000  0.55148300  0.38040700  1
  Ge  Ge13  1  0.00000000  0.44851700  0.61959300  1
  Ge  Ge14  1  0.00000000  0.94851700  0.88040700  1
  Ge  Ge15  1  0.00000000  0.05148300  0.11959300  1
  Ge  Ge16  1  0.50000000  0.63003000  0.10287000  1
  Ge  Ge17  1  0.50000000  0.36997000  0.89713000  1
  Ge  Ge18  1  0.50000000  0.86997000  0.60287000  1
  Ge  Ge19  1  0.50000000  0.13003000  0.39713000  1
  Ge  Ge20  1  0.00000000  0.62383600  0.09906400  1
  Ge  Ge21  1  0.00000000  0.37616400  0.90093600  1
  Ge  Ge22  1  0.00000000  0.87616400  0.59906400  1
  Ge  Ge23  1  0.00000000  0.12383600  0.40093600  1
loop_
_geom_bond_atom_site_label_1
_geom_bond_atom_site_label_2
_geom_bond_distance
_geom_bond_site_symmetry_2
Ge0 Mn8 2.517159 1_565
Ge0 Mn6 2.537328 1_565
Ge0 Mn0 2.559381 1_555
Ge0 Ge5 2.560275 1_655
Ge0 Zr8 2.789368 1_555
Ge0 Zr0 2.877830 1_555
Ge0 Zr7 2.913140 1_555
Ge1 Mn8 2.517159 1_555
Ge1 Mn7 2.537328 1_545
Ge1 Mn1 2.559381 1_555
Ge1 Ge4 2.560275 1_655
Ge1 Zr9 2.789368 1_555
Ge1 Zr1 2.877830 1_555
Ge1 Zr6 2.913140 1_555
Ge2 Mn9 2.517159 1_556
Ge2 Mn4 2.537328 1_555
Ge2 Mn2 2.559381 1_555
Ge2 Ge7 2.560275 1_455
Ge2 Zr10 2.789368 1_555
Ge2 Zr2 2.877830 1_555
Ge2 Zr5 2.913140 1_556
Ge3 Mn9 2.517159 1_555
Ge3 Mn5 2.537328 1_555
Ge3 Mn3 2.559381 1_555
Ge3 Ge6 2.560275 1_455
Ge3 Zr11 2.789368 1_555
Ge3 Zr3 2.877830 1_555
Ge3 Zr4 2.913140 1_554
Ge4 Mn10 2.517159 1_555
Ge4 Mn2 2.537328 1_545
Ge4 Mn4 2.559381 1_555
Ge4 Zr9 2.789368 1_555
Ge4 Zr4 2.877830 1_555
Ge4 Zr3 2.913140 1_555
Ge5 Mn10 2.517159 1_565
Ge5 Mn3 2.537328 1_565
Ge5 Mn5 2.559381 1_555
Ge5 Zr8 2.789368 1_555
Ge5 Zr5 2.877830 1_555
Ge5 Zr2 2.913140 1_555
Ge6 Mn11 2.517159 1_555
Ge6 Mn0 2.537328 1_555
Ge6 Mn6 2.559381 1_555
Ge6 Zr11 2.789368 1_555
Ge6 Zr6 2.877830 1_555
Ge6 Zr1 2.913140 1_554
Ge7 Mn11 2.517159 1_556
Ge7 Mn1 2.537328 1_555
Ge7 Mn7 2.559381 1_555
Ge7 Zr10 2.789368 1_555
Ge7 Zr7 2.877830 1_555
Ge7 Zr0 2.913140 1_556
Ge8 Mn0 2.478781 1_555
Ge8 Mn5 2.478781 1_555
Ge8 Ge9 2.580640 1_555
Ge8 Zr11 2.805346 1_555
Ge8 Zr8 2.808233 1_555
Ge8 Zr2 2.900705 1_555
Ge8 Zr7 2.900705 1_555
Ge8 Zr3 2.922317 1_555
Ge8 Zr6 2.922317 1_555
Ge9 Mn1 2.478781 1_555
Ge9 Mn4 2.478781 1_555
Ge9 Zr10 2.805346 1_555
Ge9 Zr9 2.808233 1_555
Ge9 Zr3 2.900705 1_555
Ge9 Zr6 2.900705 1_555
Ge9 Zr7 2.922317 1_555
Ge9 Zr2 2.922317 1_555
Ge10 Mn7 2.478781 1_555
Ge10 Mn2 2.478781 1_555
Ge10 Ge11 2.580640 1_566
Ge10 Zr9 2.805346 1_565
Ge10 Zr10 2.808233 1_555
Ge10 Zr5 2.900705 1_556
Ge10 Zr0 2.900705 1_556
Ge10 Zr1 2.922317 1_565
Ge10 Zr4 2.922317 1_565
Ge11 Mn6 2.478781 1_555
Ge11 Mn3 2.478781 1_555
Ge11 Zr8 2.805346 1_545
Ge11 Zr11 2.808233 1_555
Ge11 Zr1 2.900705 1_554
Ge11 Zr4 2.900705 1_554
Ge11 Zr5 2.922317 1_545
Ge11 Zr0 2.922317 1_545
Ge12 Mn5 2.464502 1_555
Ge12 Mn0 2.464502 1_455
Ge12 Ge13 2.622691 1_555
Ge12 Zr2 2.901069 1_555
Ge12 Zr7 2.901069 1_455
Ge12 Zr6 3.025984 1_455
Ge12 Zr3 3.025984 1_555
Ge13 Mn4 2.464502 1_555
Ge13 Mn1 2.464502 1_455
Ge13 Zr6 2.901069 1_455
Ge13 Zr3 2.901069 1_555
Ge13 Zr2 3.025984 1_555
Ge13 Zr7 3.025984 1_455
Ge14 Mn2 2.464502 1_555
Ge14 Mn7 2.464502 1_455
Ge14 Ge15 2.622691 1_566
Ge14 Zr5 2.901069 1_556
Ge14 Zr0 2.901069 1_456
Ge14 Zr4 3.025984 1_565
Ge14 Zr1 3.025984 1_465
Ge15 Mn3 2.464502 1_555
Ge15 Mn6 2.464502 1_455
Ge15 Zr4 2.901069 1_554
Ge15 Zr1 2.901069 1_454
Ge15 Zr5 3.025984 1_545
Ge15 Zr0 3.025984 1_445
Ge16 Mn0 2.548007 1_555
Ge16 Mn5 2.548007 1_555
Ge16 Mn9 2.565390 1_555
Ge16 Mn11 2.565390 1_555
Ge16 Zr5 2.786192 1_555
Ge16 Zr0 2.786192 1_555
Ge16 Zr11 2.857048 1_555
Ge16 Zr10 2.895426 1_554
Ge16 Zr8 2.936602 1_555
Ge17 Mn1 2.548007 1_555
Ge17 Mn4 2.548007 1_555
Ge17 Mn9 2.565390 1_556
Ge17 Mn11 2.565390 1_556
Ge17 Zr1 2.786192 1_555
Ge17 Zr4 2.786192 1_555
Ge17 Zr10 2.857048 1_555
Ge17 Zr11 2.895426 1_556
Ge17 Zr9 2.936602 1_555
Ge18 Mn7 2.548007 1_555
Ge18 Mn2 2.548007 1_555
Ge18 Mn10 2.565390 1_565
Ge18 Mn8 2.565390 1_565
Ge18 Zr7 2.786192 1_555
Ge18 Zr2 2.786192 1_555
Ge18 Zr9 2.857048 1_565
Ge18 Zr8 2.895426 1_555
Ge18 Zr10 2.936602 1_555
Ge19 Mn6 2.548007 1_555
Ge19 Mn3 2.548007 1_555
Ge19 Mn10 2.565390 1_555
Ge19 Mn8 2.565390 1_555
Ge19 Zr3 2.786192 1_555
Ge19 Zr6 2.786192 1_555
Ge19 Zr8 2.857048 1_545
Ge19 Zr9 2.895426 1_555
Ge19 Zr11 2.936602 1_555
Ge20 Mn5 2.557131 1_555
Ge20 Mn0 2.557131 1_455
Ge20 Mn11 2.575360 1_455
Ge20 Mn9 2.575360 1_555
Ge20 Zr5 2.862186 1_555
Ge20 Zr0 2.862186 1_455
Ge21 Mn4 2.557131 1_555
Ge21 Mn1 2.557131 1_455
Ge21 Mn11 2.575360 1_456
Ge21 Mn9 2.575360 1_556
Ge21 Zr4 2.862186 1_555
Ge21 Zr1 2.862186 1_455
Ge22 Mn2 2.557131 1_555
Ge22 Mn7 2.557131 1_455
Ge22 Mn8 2.575360 1_465
Ge22 Mn10 2.575360 1_565
Ge22 Zr2 2.862186 1_555
Ge22 Zr7 2.862186 1_455
Ge23 Mn3 2.557131 1_555
Ge23 Mn6 2.557131 1_455
Ge23 Mn8 2.575360 1_455
Ge23 Mn10 2.575360 1_555
Ge23 Zr6 2.862186 1_455
Ge23 Zr3 2.862186 1_555
