# generated using pymatgen
data_Sr(FeSb3)4
_symmetry_space_group_name_H-M   'P 1'
_cell_length_a   7.94883680
_cell_length_b   7.94877370
_cell_length_c   7.94881354
_cell_angle_alpha   109.47098484
_cell_angle_beta   109.47263577
_cell_angle_gamma   109.47076773
_symmetry_Int_Tables_number   1
_chemical_formula_structural   Sr(FeSb3)4
_chemical_formula_sum   'Sr1 Fe4 Sb12'
_cell_volume   386.61636929
_cell_formula_units_Z   1
loop_
 _symmetry_equiv_pos_site_id
 _symmetry_equiv_pos_as_xyz
  1  'x, y, z'
loop_
 _atom_site_type_symbol
 _atom_site_label
 _atom_site_symmetry_multiplicity
 _atom_site_fract_x
 _atom_site_fract_y
 _atom_site_fract_z
 _atom_site_occupancy
  Sr  Sr0  1  0.00000000  -0.00000000  0.00000000  1
  Fe  Fe0  1  0.00000000  -0.00000000  0.50000000  1
  Fe  Fe1  1  0.50000000  -0.00000000  0.00000000  1
  Fe  Fe2  1  0.00000000  0.50000000  0.00000000  1
  Fe  Fe3  1  0.50000000  0.50000000  0.50000000  1
  Sb  Sb0  1  0.33666486  0.17525641  0.83862621  1
  Sb  Sb1  1  0.66333514  0.82474359  0.16137379  1
  Sb  Sb2  1  0.66341315  0.50199238  0.83861515  1
  Sb  Sb3  1  0.33658685  0.49800762  0.16138485  1
  Sb  Sb4  1  0.17526165  0.83860930  0.33664582  1
  Sb  Sb5  1  0.82473835  0.16139070  0.66335418  1
  Sb  Sb6  1  0.50198993  0.83862219  0.66341300  1
  Sb  Sb7  1  0.49801007  0.16137781  0.33658700  1
  Sb  Sb8  1  0.83859998  0.33661885  0.17520967  1
  Sb  Sb9  1  0.16140002  0.66338115  0.82479033  1
  Sb  Sb10  1  0.83858546  0.66333681  0.50196966  1
  Sb  Sb11  1  0.16141454  0.33666319  0.49803034  1
loop_
_geom_bond_atom_site_label_1
_geom_bond_atom_site_label_2
_geom_bond_distance
_geom_bond_site_symmetry_2
Fe0 Sb5 2.561159 1_455
Fe0 Sb4 2.561159 1_545
Fe0 Sb1 2.561201 1_445
Fe0 Sb0 2.561201 1_555
Fe0 Sb10 2.561274 1_445
Fe0 Sb11 2.561274 1_555
Fe1 Sb7 2.560786 1_555
Fe1 Sb6 2.560786 1_544
Fe1 Sb0 2.560933 1_554
Fe1 Sb1 2.560933 1_545
Fe1 Sb9 2.560996 1_544
Fe1 Sb8 2.560996 1_555
Fe2 Sb3 2.560775 1_555
Fe2 Sb2 2.560775 1_454
Fe2 Sb9 2.560948 1_554
Fe2 Sb8 2.560948 1_455
Fe2 Sb5 2.561071 1_454
Fe2 Sb4 2.561071 1_555
Fe3 Sb10 2.560902 1_555
Fe3 Sb11 2.560902 1_555
Fe3 Sb2 2.561064 1_555
Fe3 Sb3 2.561064 1_555
Fe3 Sb6 2.561147 1_555
Fe3 Sb7 2.561147 1_555
Sb0 Sb3 2.962765 1_556
Sb0 Sb2 2.999067 1_555
Sb0 Sr0 3.426684 1_556
Sb1 Sb2 2.962765 1_554
Sb1 Sb3 2.999067 1_555
Sb1 Sr0 3.426684 1_665
Sb2 Sr0 3.426336 1_666
Sb3 Sr0 3.426336 1_555
Sb4 Sb7 2.962722 1_565
Sb4 Sb6 2.998947 1_555
Sb4 Sr0 3.426612 1_565
Sb5 Sb6 2.962722 1_545
Sb5 Sb7 2.998947 1_555
Sb5 Sr0 3.426612 1_656
Sb6 Sr0 3.426327 1_666
Sb7 Sr0 3.426327 1_555
Sb8 Sr0 3.426430 1_655
Sb9 Sr0 3.426430 1_566
Sb10 Sb9 2.962730 1_655
Sb10 Sb8 2.999041 1_555
Sb10 Sr0 3.426563 1_666
Sb11 Sb8 2.962730 1_455
Sb11 Sb9 2.999041 1_555
Sb11 Sr0 3.426563 1_555
