# generated using pymatgen
data_CaNi5H
_symmetry_space_group_name_H-M   'P 1'
_cell_length_a   4.97201881
_cell_length_b   4.97201881
_cell_length_c   3.97469783
_cell_angle_alpha   89.07256086
_cell_angle_beta   89.07256086
_cell_angle_gamma   60.92227668
_symmetry_Int_Tables_number   1
_chemical_formula_structural   CaNi5H
_chemical_formula_sum   'Ca1 Ni5 H1'
_cell_volume   85.85888328
_cell_formula_units_Z   1
loop_
 _symmetry_equiv_pos_site_id
 _symmetry_equiv_pos_as_xyz
  1  'x, y, z'
loop_
 _atom_site_type_symbol
 _atom_site_label
 _atom_site_symmetry_multiplicity
 _atom_site_fract_x
 _atom_site_fract_y
 _atom_site_fract_z
 _atom_site_occupancy
  Ca  Ca0  1  0.99604900  0.99604900  0.97980900  1
  Ni  Ni0  1  0.34019000  0.34019000  0.01155400  1
  Ni  Ni1  1  0.66192100  0.66192100  0.00975900  1
  Ni  Ni2  1  0.50029200  0.50029200  0.51251400  1
  Ni  Ni3  1  0.51101500  0.99182100  0.51720700  1
  Ni  Ni4  1  0.99182100  0.51101500  0.51720700  1
  H  H0  1  0.20288600  0.20288600  0.30585500  1
loop_
_geom_bond_atom_site_label_1
_geom_bond_atom_site_label_2
_geom_bond_distance
_geom_bond_site_symmetry_2
Ca0 H0 2.215607 1_666
Ca0 Ni1 2.864215 1_556
Ca0 Ni1 2.897465 1_656
Ca0 Ni1 2.897465 1_566
Ca0 Ni2 3.130799 1_565
Ca0 Ni2 3.130799 1_655
Ca0 Ni2 3.292521 1_656
Ca0 Ni2 3.292521 1_566
Ni0 Ni2 2.390694 1_554
Ni0 Ni2 2.439386 1_555
Ni1 Ni2 2.410097 1_555
Ni1 Ni4 2.415279 1_554
Ni1 Ni3 2.415279 1_554
Ni1 Ni2 2.434815 1_554
Ni1 Ni4 2.486647 1_555
Ni1 Ni3 2.486647 1_555
Ni2 Ni4 2.470617 1_555
Ni2 Ni3 2.470617 1_555
Ni2 Ni4 2.502421 1_455
Ni2 Ni3 2.502421 1_545
H0 Ni4 1.613846 1_455
H0 Ni3 1.613846 1_545
H0 Ni0 1.643692 1_555
