# generated using pymatgen
data_La10Ga3Co7
_symmetry_space_group_name_H-M   'P 1'
_cell_length_a   4.03448000
_cell_length_b   10.00212300
_cell_length_c   23.89274300
_cell_angle_alpha   90.00000000
_cell_angle_beta   90.00000000
_cell_angle_gamma   90.00000000
_symmetry_Int_Tables_number   1
_chemical_formula_structural   La10Ga3Co7
_chemical_formula_sum   'La20 Ga6 Co14'
_cell_volume   964.15258393
_cell_formula_units_Z   2
loop_
 _symmetry_equiv_pos_site_id
 _symmetry_equiv_pos_as_xyz
  1  'x, y, z'
loop_
 _atom_site_type_symbol
 _atom_site_label
 _atom_site_symmetry_multiplicity
 _atom_site_fract_x
 _atom_site_fract_y
 _atom_site_fract_z
 _atom_site_occupancy
  La  La0  1  0.00000000  0.65275300  0.55521400  1
  La  La1  1  0.00000000  0.34724700  0.05521400  1
  La  La2  1  0.50000000  0.84734800  0.44363800  1
  La  La3  1  0.50000000  0.15265200  0.94363800  1
  La  La4  1  0.00000000  0.48736900  0.68984400  1
  La  La5  1  0.00000000  0.51263100  0.18984400  1
  La  La6  1  0.50000000  0.00124000  0.30452600  1
  La  La7  1  0.50000000  0.99876000  0.80452600  1
  La  La8  1  0.00000000  0.11148800  0.52163200  1
  La  La9  1  0.00000000  0.88851200  0.02163200  1
  La  La10  1  0.50000000  0.39191200  0.48067400  1
  La  La11  1  0.50000000  0.60808800  0.98067400  1
  La  La12  1  0.00000000  0.70143500  0.85608700  1
  La  La13  1  0.00000000  0.29856500  0.35608700  1
  La  La14  1  0.50000000  0.80587000  0.15620400  1
  La  La15  1  0.50000000  0.19413000  0.65620400  1
  La  La16  1  0.00000000  0.86565500  0.68355600  1
  La  La17  1  0.00000000  0.13434500  0.18355600  1
  La  La18  1  0.50000000  0.63986200  0.30886500  1
  La  La19  1  0.50000000  0.36013800  0.80886500  1
  Ga  Ga0  1  0.50000000  0.31696200  0.25251300  1
  Ga  Ga1  1  0.50000000  0.68303800  0.75251300  1
  Ga  Ga2  1  0.00000000  0.39691600  0.91440300  1
  Ga  Ga3  1  0.00000000  0.60308400  0.41440300  1
  Ga  Ga4  1  0.50000000  0.10295600  0.08260600  1
  Ga  Ga5  1  0.50000000  0.89704400  0.58260600  1
  Co  Co0  1  0.00000000  0.18159600  0.85673700  1
  Co  Co1  1  0.00000000  0.81840400  0.35673700  1
  Co  Co2  1  0.50000000  0.31133400  0.14263100  1
  Co  Co3  1  0.50000000  0.68866600  0.64263200  1
  Co  Co4  1  0.00000000  0.64267300  0.07715700  1
  Co  Co5  1  0.00000000  0.35732700  0.57715700  1
  Co  Co6  1  0.50000000  0.85626500  0.92297800  1
  Co  Co7  1  0.50000000  0.14373500  0.42297800  1
  Co  Co8  1  0.00000000  0.95931700  0.89880800  1
  Co  Co9  1  0.00000000  0.04068300  0.39880800  1
  Co  Co10  1  0.50000000  0.54774600  0.10193300  1
  Co  Co11  1  0.50000000  0.45225400  0.60193300  1
  Co  Co12  1  0.00000000  0.19617100  0.74999300  1
  Co  Co13  1  0.00000000  0.80382900  0.24999300  1
loop_
_geom_bond_atom_site_label_1
_geom_bond_atom_site_label_2
_geom_bond_distance
_geom_bond_site_symmetry_2
La16 La7 3.767701 1_455
La16 La7 3.767701 1_555
La17 La6 3.767701 1_555
La17 La6 3.767701 1_455
Ga0 La17 3.181205 1_655
Ga0 La17 3.181205 1_555
Ga0 La5 3.184577 1_655
Ga0 La5 3.184577 1_555
Ga0 La13 3.197983 1_655
Ga0 La13 3.197983 1_555
Ga0 La6 3.393620 1_555
Ga0 La18 3.499096 1_555
Ga1 La16 3.181205 1_555
Ga1 La16 3.181205 1_655
Ga1 La4 3.184577 1_555
Ga1 La4 3.184577 1_655
Ga1 La12 3.197983 1_655
Ga1 La12 3.197983 1_555
Ga1 La7 3.393620 1_555
Ga1 La19 3.499096 1_555
Ga2 La3 3.244409 1_555
Ga2 La3 3.244409 1_455
Ga2 La19 3.250078 1_455
Ga2 La19 3.250078 1_555
Ga2 La11 3.322297 1_555
Ga2 La11 3.322297 1_455
Ga2 La12 3.349401 1_555
Ga2 La1 3.400843 1_556
Ga3 La2 3.244409 1_555
Ga3 La2 3.244409 1_455
Ga3 La18 3.250078 1_455
Ga3 La18 3.250078 1_555
Ga3 La10 3.322297 1_455
Ga3 La10 3.322297 1_555
Ga3 La13 3.349401 1_555
Ga3 La0 3.400843 1_555
Ga4 La17 3.159974 1_555
Ga4 La17 3.159974 1_655
Ga4 La1 3.235418 1_555
Ga4 La1 3.235418 1_655
Ga4 La9 3.285149 1_645
Ga4 La9 3.285149 1_545
Ga4 La3 3.357327 1_554
Ga4 La14 3.452815 1_545
Ga5 La16 3.159974 1_555
Ga5 La16 3.159974 1_655
Ga5 La0 3.235418 1_655
Ga5 La0 3.235418 1_555
Ga5 La8 3.285149 1_665
Ga5 La8 3.285149 1_565
Ga5 La2 3.357327 1_555
Ga5 La15 3.452815 1_565
Co0 Co8 2.439939 1_545
Co0 Co12 2.554570 1_555
Co0 Ga2 2.556671 1_555
Co0 La3 2.909313 1_555
Co0 La3 2.909313 1_455
Co0 La19 2.926875 1_455
Co0 La19 2.926875 1_555
Co0 La7 2.994953 1_545
Co0 La7 2.994953 1_445
Co1 Co9 2.439939 1_565
Co1 Co13 2.554570 1_555
Co1 Ga3 2.556671 1_555
Co1 La2 2.909313 1_455
Co1 La2 2.909313 1_555
Co1 La18 2.926875 1_555
Co1 La18 2.926875 1_455
Co1 La6 2.994953 1_465
Co1 La6 2.994953 1_565
Co2 Ga4 2.529981 1_555
Co2 Ga0 2.625986 1_555
Co2 La17 2.856433 1_555
Co2 La17 2.856433 1_655
Co2 La1 2.925862 1_555
Co2 La1 2.925862 1_655
Co2 La5 3.065211 1_555
Co2 La5 3.065211 1_655
Co3 Ga5 2.529994 1_555
Co3 Ga1 2.625962 1_555
Co3 La16 2.856425 1_555
Co3 La16 2.856425 1_655
Co3 La0 2.925879 1_555
Co3 La0 2.925879 1_655
Co3 La4 3.065202 1_555
Co3 La4 3.065202 1_655
Co4 La9 2.793964 1_555
Co4 La5 2.990123 1_555
Co4 La1 3.001038 1_555
Co4 La11 3.082705 1_554
Co4 La11 3.082705 1_454
Co4 La14 3.209472 1_555
Co4 La14 3.209472 1_455
Co5 La8 2.793964 1_555
Co5 La4 2.990123 1_555
Co5 La0 3.001038 1_555
Co5 La10 3.082705 1_555
Co5 La10 3.082705 1_455
Co5 La15 3.209472 1_555
Co5 La15 3.209472 1_455
Co6 Co8 2.337771 1_655
Co6 Co8 2.337771 1_555
Co6 La11 2.839384 1_555
Co6 La12 3.003628 1_655
Co6 La12 3.003628 1_555
Co6 La3 3.005315 1_565
Co6 La9 3.119179 1_556
Co6 La9 3.119179 1_656
Co6 La7 3.168762 1_555
Co7 Co9 2.337771 1_655
Co7 Co9 2.337771 1_555
Co7 La10 2.839384 1_555
Co7 La13 3.003628 1_655
Co7 La13 3.003628 1_555
Co7 La2 3.005315 1_545
Co7 La8 3.119179 1_555
Co7 La8 3.119179 1_655
Co7 La6 3.168762 1_555
Co8 La12 2.773988 1_555
Co8 La3 2.992652 1_465
Co8 La3 2.992652 1_565
Co8 La9 3.018847 1_556
Co8 La7 3.049484 1_555
Co8 La7 3.049484 1_455
Co9 La13 2.773988 1_555
Co9 La2 2.992652 1_445
Co9 La2 2.992652 1_545
Co9 La8 3.018847 1_555
Co9 La6 3.049484 1_555
Co9 La6 3.049484 1_455
Co10 Co4 2.306768 1_555
Co10 Co4 2.306768 1_655
Co10 Co2 2.556750 1_555
Co10 La14 2.889120 1_555
Co10 La5 2.933333 1_555
Co10 La5 2.933333 1_655
Co10 La11 2.959408 1_554
Co10 La1 3.055643 1_555
Co10 La1 3.055643 1_655
Co11 Co5 2.306768 1_655
Co11 Co5 2.306768 1_555
Co11 Co3 2.556760 1_555
Co11 La15 2.889120 1_555
Co11 La4 2.933333 1_555
Co11 La4 2.933333 1_655
Co11 La10 2.959408 1_555
Co11 La0 3.055643 1_655
Co11 La0 3.055643 1_555
Co12 La19 2.955923 1_455
Co12 La19 2.955923 1_555
Co12 La15 3.015162 1_555
Co12 La15 3.015162 1_455
Co12 La7 3.108968 1_545
Co12 La7 3.108968 1_445
Co12 La4 3.247854 1_555
Co12 La16 3.667211 1_545
Co13 La18 2.955923 1_555
Co13 La18 2.955923 1_455
Co13 La14 3.015162 1_555
Co13 La14 3.015162 1_455
Co13 La6 3.108968 1_465
Co13 La6 3.108968 1_565
Co13 La5 3.247854 1_555
Co13 La17 3.667211 1_565
