# generated using pymatgen
data_K2FeCl5O
_symmetry_space_group_name_H-M   'P 1'
_cell_length_a   7.06303400
_cell_length_b   9.56822800
_cell_length_c   13.72414000
_cell_angle_alpha   90.00000000
_cell_angle_beta   90.00000000
_cell_angle_gamma   90.00000000
_symmetry_Int_Tables_number   1
_chemical_formula_structural   K2FeCl5O
_chemical_formula_sum   'K8 Fe4 Cl20 O4'
_cell_volume   927.48725824
_cell_formula_units_Z   4
loop_
 _symmetry_equiv_pos_site_id
 _symmetry_equiv_pos_as_xyz
  1  'x, y, z'
loop_
 _atom_site_type_symbol
 _atom_site_label
 _atom_site_symmetry_multiplicity
 _atom_site_fract_x
 _atom_site_fract_y
 _atom_site_fract_z
 _atom_site_occupancy
  K  K0  1  0.81918300  0.99966600  0.13582500  1
  K  K1  1  0.68081700  0.50033400  0.63582500  1
  K  K2  1  0.18081700  0.49966600  0.86417500  1
  K  K3  1  0.31918300  0.00033400  0.36417500  1
  K  K4  1  0.18081700  0.00033400  0.86417500  1
  K  K5  1  0.31918300  0.49966600  0.36417500  1
  K  K6  1  0.81918300  0.50033400  0.13582500  1
  K  K7  1  0.68081700  0.99966600  0.63582500  1
  Fe  Fe0  1  0.80104700  0.75000000  0.38609300  1
  Fe  Fe1  1  0.69895300  0.75000000  0.88609300  1
  Fe  Fe2  1  0.19895300  0.25000000  0.61390700  1
  Fe  Fe3  1  0.30104700  0.25000000  0.11390700  1
  Cl  Cl0  1  0.52397300  0.75000000  0.49232100  1
  Cl  Cl1  1  0.97602700  0.75000000  0.99232100  1
  Cl  Cl2  1  0.47602700  0.25000000  0.50767900  1
  Cl  Cl3  1  0.02397300  0.25000000  0.00767900  1
  Cl  Cl4  1  0.59495700  0.75000000  0.25589800  1
  Cl  Cl5  1  0.90504300  0.75000000  0.75589800  1
  Cl  Cl6  1  0.40504300  0.25000000  0.74410200  1
  Cl  Cl7  1  0.09495700  0.25000000  0.24410200  1
  Cl  Cl8  1  0.05994300  0.75000000  0.26913000  1
  Cl  Cl9  1  0.44005700  0.75000000  0.76913000  1
  Cl  Cl10  1  0.94005700  0.25000000  0.73087000  1
  Cl  Cl11  1  0.55994300  0.25000000  0.23087000  1
  Cl  Cl12  1  0.82234400  0.99292700  0.39988500  1
  Cl  Cl13  1  0.67765600  0.50707300  0.89988500  1
  Cl  Cl14  1  0.17765600  0.49292700  0.60011500  1
  Cl  Cl15  1  0.32234400  0.00707300  0.10011500  1
  Cl  Cl16  1  0.17765600  0.00707300  0.60011500  1
  Cl  Cl17  1  0.32234400  0.49292700  0.10011500  1
  Cl  Cl18  1  0.82234400  0.50707300  0.39988500  1
  Cl  Cl19  1  0.67765600  0.99292700  0.89988500  1
  O  O0  1  0.95777400  0.75000000  0.48725600  1
  O  O1  1  0.54222600  0.75000000  0.98725600  1
  O  O2  1  0.04222600  0.25000000  0.51274400  1
  O  O3  1  0.45777400  0.25000000  0.01274400  1
loop_
_geom_bond_atom_site_label_1
_geom_bond_atom_site_label_2
_geom_bond_distance
_geom_bond_site_symmetry_2
Fe0 O0 1.775659 1_555
Fe1 O1 1.775659 1_555
Fe2 O2 1.775659 1_555
Fe3 O3 1.775659 1_555
Cl0 Fe0 2.440332 1_555
Cl0 K7 3.288263 1_555
Cl0 K1 3.288263 1_555
Cl0 K3 3.304909 1_565
Cl0 K5 3.304909 1_555
Cl1 Fe1 2.440332 1_555
Cl1 K0 3.288263 1_556
Cl1 K6 3.288263 1_556
Cl1 K2 3.304909 1_655
Cl1 K4 3.304909 1_665
Cl2 Fe2 2.440332 1_555
Cl2 K5 3.288263 1_555
Cl2 K3 3.288263 1_555
Cl2 K1 3.304909 1_555
Cl2 K7 3.304909 1_545
Cl3 Fe3 2.440332 1_555
Cl3 K2 3.288263 1_554
Cl3 K4 3.288263 1_554
Cl3 K6 3.304909 1_455
Cl3 K0 3.304909 1_445
Cl4 Fe0 2.304677 1_555
Cl4 K0 3.306113 1_555
Cl4 K6 3.306113 1_555
Cl4 K5 3.426279 1_555
Cl4 K3 3.426279 1_565
Cl5 Fe1 2.304677 1_555
Cl5 K7 3.306113 1_555
Cl5 K1 3.306113 1_555
Cl5 K2 3.426279 1_655
Cl5 K4 3.426279 1_665
Cl6 Fe2 2.304677 1_555
Cl6 K4 3.306113 1_555
Cl6 K2 3.306113 1_555
Cl6 K1 3.426279 1_555
Cl6 K7 3.426279 1_545
Cl7 Fe3 2.304677 1_555
Cl7 K3 3.306113 1_555
Cl7 K5 3.306113 1_555
Cl7 K6 3.426279 1_455
Cl7 K0 3.426279 1_445
Cl8 Fe0 2.433201 1_455
Cl8 K5 3.285021 1_555
Cl8 K3 3.285021 1_565
Cl8 K0 3.456212 1_455
Cl8 K6 3.456212 1_455
Cl9 Fe1 2.433201 1_555
Cl9 K4 3.285021 1_565
Cl9 K2 3.285021 1_555
Cl9 K7 3.456212 1_555
Cl9 K1 3.456212 1_555
Cl10 Fe2 2.433201 1_655
Cl10 K1 3.285021 1_555
Cl10 K7 3.285021 1_545
Cl10 K4 3.456212 1_655
Cl10 K2 3.456212 1_655
Cl11 Fe3 2.433201 1_555
Cl11 K6 3.285021 1_555
Cl11 K0 3.285021 1_545
Cl11 K3 3.456212 1_555
Cl11 K5 3.456212 1_555
Cl12 Fe0 2.336921 1_555
Cl12 K7 3.389469 1_555
Cl12 K3 3.543957 1_665
Cl12 K3 3.588177 1_565
Cl12 K0 3.624639 1_555
Cl13 Fe1 2.336921 1_555
Cl13 K6 3.389469 1_556
Cl13 K2 3.543957 1_555
Cl13 K2 3.588177 1_655
Cl13 K1 3.624639 1_555
Cl14 Fe2 2.336921 1_555
Cl14 K5 3.389469 1_555
Cl14 K1 3.543957 1_455
Cl14 K1 3.588177 1_555
Cl14 K2 3.624639 1_555
Cl15 Fe3 2.336921 1_555
Cl15 K4 3.389469 1_554
Cl15 K0 3.543957 1_545
Cl15 K0 3.588177 1_445
Cl15 K3 3.624639 1_555
Cl16 Fe2 2.336921 1_555
Cl16 K3 3.389469 1_555
Cl16 K7 3.543957 1_445
Cl16 K7 3.588177 1_545
Cl16 K4 3.624639 1_555
Cl17 Fe3 2.336921 1_555
Cl17 K2 3.389469 1_554
Cl17 K6 3.543957 1_555
Cl17 K6 3.588177 1_455
Cl17 K5 3.624639 1_555
Cl18 Fe0 2.336921 1_555
Cl18 K1 3.389469 1_555
Cl18 K5 3.543957 1_655
Cl18 K5 3.588177 1_555
Cl18 K6 3.624639 1_555
Cl19 Fe1 2.336921 1_555
Cl19 K0 3.389469 1_556
Cl19 K4 3.543957 1_565
Cl19 K4 3.588177 1_665
Cl19 K7 3.624639 1_555
