# generated using pymatgen
data_LuH3
_symmetry_space_group_name_H-M   'P 1'
_cell_length_a   6.09483922
_cell_length_b   6.09483799
_cell_length_c   6.37774788
_cell_angle_alpha   90.00010289
_cell_angle_beta   89.99992582
_cell_angle_gamma   119.99991017
_symmetry_Int_Tables_number   1
_chemical_formula_structural   LuH3
_chemical_formula_sum   'Lu6 H18'
_cell_volume   205.17422011
_cell_formula_units_Z   6
loop_
 _symmetry_equiv_pos_site_id
 _symmetry_equiv_pos_as_xyz
  1  'x, y, z'
loop_
 _atom_site_type_symbol
 _atom_site_label
 _atom_site_symmetry_multiplicity
 _atom_site_fract_x
 _atom_site_fract_y
 _atom_site_fract_z
 _atom_site_occupancy
  Lu  Lu0  1  0.33761215  0.33761239  0.74999885  1
  Lu  Lu1  1  0.66238628  -0.00000028  0.74999999  1
  Lu  Lu2  1  -0.00000084  0.66238532  0.74999995  1
  Lu  Lu3  1  0.33761372  0.00000028  0.25000001  1
  Lu  Lu4  1  0.00000084  0.33761468  0.25000005  1
  Lu  Lu5  1  0.66238685  0.66238761  0.25000115  1
  H  H0  1  0.68001598  0.64634213  0.58945451  1
  H  H1  1  0.35365813  0.03367433  0.58945454  1
  H  H2  1  0.96632596  0.31998417  0.58945456  1
  H  H3  1  0.68001668  0.03367113  0.08945588  1
  H  H4  1  0.96632914  0.64634541  0.08945557  1
  H  H5  1  0.35365530  0.31998364  0.08945557  1
  H  H6  1  0.31998402  0.35365787  0.41054549  1
  H  H7  1  0.64634187  0.96632567  0.41054546  1
  H  H8  1  0.03367404  0.68001583  0.41054544  1
  H  H9  1  0.31998332  0.96632887  0.91054412  1
  H  H10  1  0.03367086  0.35365459  0.91054443  1
  H  H11  1  0.64634470  0.68001636  0.91054443  1
  H  H12  1  0.00000010  -0.00000009  0.74999657  1
  H  H13  1  -0.00000010  0.00000009  0.25000343  1
  H  H14  1  0.33333268  0.66666652  0.68852986  1
  H  H15  1  0.33333352  0.66666680  0.18852826  1
  H  H16  1  0.66666732  0.33333348  0.31147014  1
  H  H17  1  0.66666648  0.33333320  0.81147174  1
loop_
_geom_bond_atom_site_label_1
_geom_bond_atom_site_label_2
_geom_bond_distance
_geom_bond_site_symmetry_2
H0 Lu2 2.161189 1_655
H0 Lu5 2.172238 1_555
H0 Lu0 2.239945 1_555
H0 Lu1 2.436734 1_565
H1 Lu0 2.161180 1_555
H1 Lu3 2.172245 1_555
H1 Lu1 2.239940 1_555
H1 Lu2 2.436748 1_545
H2 Lu1 2.161193 1_555
H2 Lu4 2.172245 1_655
H2 Lu2 2.239931 1_655
H2 Lu0 2.436732 1_655
H3 Lu4 2.161197 1_655
H3 Lu1 2.172252 1_554
H3 Lu3 2.239944 1_555
H3 Lu5 2.436716 1_545
H4 Lu5 2.161196 1_555
H4 Lu2 2.172250 1_654
H4 Lu4 2.239942 1_655
H4 Lu3 2.436720 1_665
H5 Lu3 2.161191 1_555
H5 Lu0 2.172258 1_554
H5 Lu5 2.239952 1_555
H5 Lu4 2.436719 1_555
H6 Lu4 2.161189 1_555
H6 Lu0 2.172237 1_555
H6 Lu5 2.239942 1_555
H6 Lu3 2.436734 1_555
H7 Lu5 2.161177 1_555
H7 Lu1 2.172245 1_565
H7 Lu3 2.239940 1_565
H7 Lu4 2.436748 1_665
H8 Lu3 2.161193 1_565
H8 Lu2 2.172245 1_555
H8 Lu4 2.239931 1_555
H8 Lu5 2.436737 1_455
H9 Lu2 2.161197 1_555
H9 Lu3 2.172252 1_566
H9 Lu1 2.239944 1_565
H9 Lu0 2.436718 1_565
H10 Lu0 2.161191 1_555
H10 Lu4 2.172250 1_556
H10 Lu2 2.239942 1_555
H10 Lu1 2.436720 1_455
H11 Lu1 2.161191 1_565
H11 Lu5 2.172258 1_556
H11 Lu0 2.239955 1_555
H11 Lu2 2.436719 1_655
H12 Lu0 2.057695 1_555
H12 Lu1 2.057701 1_455
H12 Lu2 2.057703 1_545
H13 Lu5 2.057698 1_445
H13 Lu3 2.057701 1_555
H13 Lu4 2.057703 1_555
H14 Lu2 2.056409 1_555
H14 Lu0 2.056414 1_555
H14 Lu1 2.056415 1_565
H15 Lu4 2.056412 1_555
H15 Lu3 2.056414 1_565
H15 Lu5 2.056414 1_555
H16 Lu4 2.056409 1_655
H16 Lu3 2.056415 1_555
H16 Lu5 2.056417 1_555
H17 Lu2 2.056412 1_655
H17 Lu1 2.056414 1_555
H17 Lu0 2.056420 1_555
