# generated using pymatgen
data_CeCu5Ag
_symmetry_space_group_name_H-M   'P 1'
_cell_length_a   5.04740900
_cell_length_b   8.23893200
_cell_length_c   10.36649400
_cell_angle_alpha   90.00000000
_cell_angle_beta   90.00000000
_cell_angle_gamma   90.00000000
_symmetry_Int_Tables_number   1
_chemical_formula_structural   CeCu5Ag
_chemical_formula_sum   'Ce4 Cu20 Ag4'
_cell_volume   431.09334338
_cell_formula_units_Z   4
loop_
 _symmetry_equiv_pos_site_id
 _symmetry_equiv_pos_as_xyz
  1  'x, y, z'
loop_
 _atom_site_type_symbol
 _atom_site_label
 _atom_site_symmetry_multiplicity
 _atom_site_fract_x
 _atom_site_fract_y
 _atom_site_fract_z
 _atom_site_occupancy
  Ce  Ce0  1  0.25000000  0.25749000  0.56427600  1
  Ce  Ce1  1  0.25000000  0.75749000  0.93572400  1
  Ce  Ce2  1  0.75000000  0.74251000  0.43572400  1
  Ce  Ce3  1  0.75000000  0.24251000  0.06427600  1
  Cu  Cu0  1  0.25000000  0.81473300  0.25208200  1
  Cu  Cu1  1  0.25000000  0.31473300  0.24791800  1
  Cu  Cu2  1  0.75000000  0.18526700  0.74791800  1
  Cu  Cu3  1  0.75000000  0.68526700  0.75208200  1
  Cu  Cu4  1  0.25000000  0.55559200  0.39490800  1
  Cu  Cu5  1  0.25000000  0.05559200  0.10509200  1
  Cu  Cu6  1  0.75000000  0.44440800  0.60509200  1
  Cu  Cu7  1  0.75000000  0.94440800  0.89490800  1
  Cu  Cu8  1  0.25000000  0.90970200  0.48384300  1
  Cu  Cu9  1  0.25000000  0.40970200  0.01615700  1
  Cu  Cu10  1  0.75000000  0.09029800  0.51615700  1
  Cu  Cu11  1  0.75000000  0.59029800  0.98384300  1
  Cu  Cu12  1  0.00138400  0.43490300  0.81247500  1
  Cu  Cu13  1  0.49861600  0.93490300  0.68752500  1
  Cu  Cu14  1  0.50138400  0.56509700  0.18752500  1
  Cu  Cu15  1  0.99861600  0.06509700  0.31247500  1
  Cu  Cu16  1  0.99861600  0.56509700  0.18752500  1
  Cu  Cu17  1  0.50138400  0.06509700  0.31247500  1
  Cu  Cu18  1  0.49861600  0.43490300  0.81247500  1
  Cu  Cu19  1  0.00138400  0.93490300  0.68752500  1
  Ag  Ag0  1  0.25000000  0.14077800  0.86075300  1
  Ag  Ag1  1  0.25000000  0.64077800  0.63924700  1
  Ag  Ag2  1  0.75000000  0.85922200  0.13924700  1
  Ag  Ag3  1  0.75000000  0.35922200  0.36075300  1
loop_
_geom_bond_atom_site_label_1
_geom_bond_atom_site_label_2
_geom_bond_distance
_geom_bond_site_symmetry_2
Ce0 Cu10 2.918111 1_455
Ce0 Cu10 2.918111 1_555
Ce0 Cu8 2.984252 1_545
Ce0 Cu6 2.986591 1_455
Ce0 Cu6 2.986591 1_555
Ce0 Cu4 3.019074 1_555
Ce0 Cu13 3.204818 1_545
Ce0 Cu19 3.204818 1_545
Ce0 Cu12 3.214238 1_555
Ce0 Cu18 3.214238 1_555
Ce0 Cu2 3.216725 1_455
Ce0 Cu2 3.216725 1_555
Ce0 Cu17 3.306987 1_555
Ce0 Cu15 3.306987 1_455
Ce0 Cu1 3.313261 1_555
Ce1 Cu11 2.918111 1_455
Ce1 Cu11 2.918111 1_555
Ce1 Cu9 2.984252 1_556
Ce1 Cu7 2.986591 1_555
Ce1 Cu7 2.986591 1_455
Ce1 Cu5 3.019074 1_566
Ce1 Cu12 3.204818 1_555
Ce1 Cu18 3.204818 1_555
Ce1 Cu13 3.214238 1_555
Ce1 Cu19 3.214238 1_555
Ce1 Cu3 3.216725 1_555
Ce1 Cu3 3.216725 1_455
Ce1 Cu14 3.306987 1_556
Ce1 Cu16 3.306987 1_456
Ce1 Cu0 3.313261 1_556
Ce2 Cu8 2.918111 1_555
Ce2 Cu8 2.918111 1_655
Ce2 Cu10 2.984252 1_565
Ce2 Cu4 2.986591 1_555
Ce2 Cu4 2.986591 1_655
Ce2 Cu6 3.019074 1_555
Ce2 Cu15 3.204818 1_565
Ce2 Cu17 3.204818 1_565
Ce2 Cu16 3.214238 1_555
Ce2 Cu14 3.214238 1_555
Ce2 Cu0 3.216725 1_555
Ce2 Cu0 3.216725 1_655
Ce2 Cu19 3.306987 1_655
Ce2 Cu13 3.306987 1_555
Ce2 Cu3 3.313261 1_555
Ce3 Cu9 2.918111 1_555
Ce3 Cu9 2.918111 1_655
Ce3 Cu11 2.984252 1_554
Ce3 Cu5 2.986591 1_655
Ce3 Cu5 2.986591 1_555
Ce3 Cu7 3.019074 1_544
Ce3 Cu16 3.204818 1_555
Ce3 Cu14 3.204818 1_555
Ce3 Cu15 3.214238 1_555
Ce3 Cu17 3.214238 1_555
Ce3 Cu1 3.216725 1_555
Ce3 Cu1 3.216725 1_655
Ce3 Cu18 3.306987 1_554
Ce3 Cu12 3.306987 1_654
Ce3 Cu2 3.313261 1_554
Cu0 Cu17 2.501353 1_565
Cu0 Cu15 2.501353 1_465
Cu0 Cu5 2.501960 1_565
Cu0 Cu14 2.507583 1_555
Cu0 Cu16 2.507583 1_455
Cu0 Cu8 2.526749 1_555
Cu0 Cu4 2.598193 1_555
Cu1 Cu14 2.501353 1_555
Cu1 Cu16 2.501353 1_455
Cu1 Cu4 2.501960 1_555
Cu1 Cu17 2.507583 1_555
Cu1 Cu15 2.507583 1_455
Cu1 Cu9 2.526749 1_555
Cu1 Cu5 2.598193 1_555
Cu2 Cu7 2.501960 1_545
Cu2 Cu6 2.598193 1_555
Cu3 Cu6 2.501960 1_555
Cu3 Cu7 2.598193 1_555
Cu4 Cu8 3.059693 1_555
Cu5 Cu9 3.059693 1_555
Cu10 Cu15 2.464974 1_555
Cu10 Cu17 2.464974 1_555
Cu10 Cu2 2.526749 1_555
Cu10 Cu13 2.530808 1_545
Cu10 Cu19 2.530808 1_645
Cu10 Cu6 3.059693 1_555
Cu11 Cu16 2.464974 1_556
Cu11 Cu14 2.464974 1_556
Cu11 Cu3 2.526749 1_555
Cu11 Cu18 2.530808 1_555
Cu11 Cu12 2.530808 1_655
Cu11 Cu7 3.059693 1_555
Cu12 Cu9 2.464974 1_556
Cu12 Cu6 2.497573 1_455
Cu12 Cu3 2.501353 1_455
Cu12 Cu2 2.507583 1_455
Cu12 Cu18 2.509733 1_555
Cu12 Cu18 2.537676 1_455
Cu13 Cu8 2.464974 1_555
Cu13 Cu7 2.497573 1_555
Cu13 Cu2 2.501353 1_565
Cu13 Cu3 2.507583 1_555
Cu13 Cu19 2.509733 1_555
Cu13 Cu19 2.537676 1_655
Cu14 Cu4 2.497573 1_555
Cu14 Cu16 2.509733 1_555
Cu14 Cu9 2.530808 1_555
Cu14 Cu16 2.537676 1_455
Cu15 Cu5 2.497573 1_655
Cu15 Cu17 2.509733 1_555
Cu15 Cu8 2.530808 1_645
Cu15 Cu17 2.537676 1_655
Cu16 Cu4 2.497573 1_655
Cu16 Cu9 2.530808 1_655
Cu17 Cu5 2.497573 1_555
Cu17 Cu8 2.530808 1_545
Cu18 Cu9 2.464974 1_556
Cu18 Cu6 2.497573 1_555
Cu18 Cu3 2.501353 1_555
Cu18 Cu2 2.507583 1_555
Cu19 Cu8 2.464974 1_555
Cu19 Cu7 2.497573 1_455
Cu19 Cu2 2.501353 1_465
Cu19 Cu3 2.507583 1_455
Ag0 Cu5 2.628376 1_556
Ag0 Cu9 2.739415 1_556
Ag0 Cu19 2.770655 1_545
Ag0 Cu13 2.770655 1_545
Ag0 Cu18 2.774424 1_555
Ag0 Cu12 2.774424 1_555
Ag0 Cu2 2.805645 1_555
Ag0 Cu2 2.805645 1_455
Ag0 Cu7 3.018606 1_445
Ag0 Cu7 3.018606 1_545
Ag0 Ce0 3.220341 1_555
Ag0 Ce1 3.252114 1_545
Ag0 Ce3 3.394546 1_456
Ag0 Ce3 3.394546 1_556
Ag1 Cu4 2.628376 1_555
Ag1 Cu8 2.739415 1_555
Ag1 Cu12 2.770655 1_555
Ag1 Cu18 2.770655 1_555
Ag1 Cu19 2.774424 1_555
Ag1 Cu13 2.774424 1_555
Ag1 Cu3 2.805645 1_455
Ag1 Cu3 2.805645 1_555
Ag1 Cu6 3.018606 1_555
Ag1 Cu6 3.018606 1_455
Ag1 Ce1 3.220341 1_555
Ag1 Ce0 3.252114 1_555
Ag1 Ce2 3.394546 1_455
Ag1 Ce2 3.394546 1_555
Ag2 Cu7 2.628376 1_554
Ag2 Cu11 2.739415 1_554
Ag2 Cu15 2.770655 1_565
Ag2 Cu17 2.770655 1_565
Ag2 Cu16 2.774424 1_555
Ag2 Cu14 2.774424 1_555
Ag2 Cu0 2.805645 1_555
Ag2 Cu0 2.805645 1_655
Ag2 Cu5 3.018606 1_665
Ag2 Cu5 3.018606 1_565
Ag2 Ce2 3.220341 1_555
Ag2 Ce3 3.252114 1_565
Ag2 Ce1 3.394546 1_554
Ag2 Ce1 3.394546 1_654
Ag3 Cu6 2.628376 1_555
Ag3 Cu10 2.739415 1_555
Ag3 Cu16 2.770655 1_555
Ag3 Cu14 2.770655 1_555
Ag3 Cu15 2.774424 1_555
Ag3 Cu17 2.774424 1_555
Ag3 Cu1 2.805645 1_655
Ag3 Cu1 2.805645 1_555
Ag3 Cu4 3.018606 1_655
Ag3 Cu4 3.018606 1_555
Ag3 Ce3 3.220341 1_555
Ag3 Ce2 3.252114 1_555
Ag3 Ce0 3.394546 1_655
Ag3 Ce0 3.394546 1_555
