# generated using pymatgen
data_Sm6Ta2Ti4O21
_symmetry_space_group_name_H-M   'P 1'
_cell_length_a   7.36724825
_cell_length_b   7.36724825
_cell_length_c   16.39860184
_cell_angle_alpha   77.50846723
_cell_angle_beta   77.50846723
_cell_angle_gamma   89.96841239
_symmetry_Int_Tables_number   1
_chemical_formula_structural   Sm6Ta2Ti4O21
_chemical_formula_sum   'Sm12 Ta4 Ti8 O42'
_cell_volume   847.41761379
_cell_formula_units_Z   2
loop_
 _symmetry_equiv_pos_site_id
 _symmetry_equiv_pos_as_xyz
  1  'x, y, z'
loop_
 _atom_site_type_symbol
 _atom_site_label
 _atom_site_symmetry_multiplicity
 _atom_site_fract_x
 _atom_site_fract_y
 _atom_site_fract_z
 _atom_site_occupancy
  Sm  Sm0  1  0.33627200  0.33407700  0.33785700  1
  Sm  Sm1  1  0.66372800  0.66592300  0.66214300  1
  Sm  Sm2  1  0.00000000  0.00000000  0.00000000  1
  Sm  Sm3  1  0.82623100  0.33202800  0.33697500  1
  Sm  Sm4  1  0.17376900  0.66797200  0.66302500  1
  Sm  Sm5  1  0.50000000  0.00000000  0.00000000  1
  Sm  Sm6  1  0.66592300  0.66372800  0.16214300  1
  Sm  Sm7  1  0.00000000  0.00000000  0.50000000  1
  Sm  Sm8  1  0.33407700  0.33627200  0.83785700  1
  Sm  Sm9  1  0.66797200  0.17376900  0.16302500  1
  Sm  Sm10  1  0.00000000  0.50000000  0.50000000  1
  Sm  Sm11  1  0.33202800  0.82623100  0.83697500  1
  Ta  Ta0  1  0.83217200  0.82677600  0.33372200  1
  Ta  Ta1  1  0.16782800  0.17322400  0.66627800  1
  Ta  Ta2  1  0.17322400  0.16782800  0.16627800  1
  Ta  Ta3  1  0.82677600  0.83217200  0.83372200  1
  Ti  Ti0  1  0.50000000  0.50000000  0.00000000  1
  Ti  Ti1  1  0.00000000  0.50000000  0.00000000  1
  Ti  Ti2  1  0.33751800  0.82330300  0.33796500  1
  Ti  Ti3  1  0.66248200  0.17669700  0.66203500  1
  Ti  Ti4  1  0.50000000  0.50000000  0.50000000  1
  Ti  Ti5  1  0.82330300  0.33751800  0.83796500  1
  Ti  Ti6  1  0.17669700  0.66248200  0.16203500  1
  Ti  Ti7  1  0.50000000  0.00000000  0.50000000  1
  O  O0  1  0.53070900  0.27963900  0.44399700  1
  O  O1  1  0.86240300  0.61014500  0.78135900  1
  O  O2  1  0.19335600  0.94420700  0.11398200  1
  O  O3  1  0.72036100  0.46929100  0.05600300  1
  O  O4  1  0.05579300  0.80664400  0.38601800  1
  O  O5  1  0.38985500  0.13759700  0.71864100  1
  O  O6  1  0.32615200  0.67384800  0.25000000  1
  O  O7  1  0.66824500  0.99938400  0.58308300  1
  O  O8  1  0.00061600  0.33175500  0.91691700  1
  O  O9  1  0.92672600  0.07327400  0.25000000  1
  O  O10  1  0.25144000  0.41355800  0.58345500  1
  O  O11  1  0.58644200  0.74856000  0.91654500  1
  O  O12  1  0.92378900  0.67334000  0.25056100  1
  O  O13  1  0.25137800  0.00105200  0.58482300  1
  O  O14  1  0.58160000  0.32884900  0.91756800  1
  O  O15  1  0.32666000  0.07621100  0.24943900  1
  O  O16  1  0.67115100  0.41840000  0.58243200  1
  O  O17  1  0.99894800  0.74862200  0.91517700  1
  O  O18  1  0.80664400  0.05579300  0.88601800  1
  O  O19  1  0.13759700  0.38985500  0.21864100  1
  O  O20  1  0.46929100  0.72036100  0.55600300  1
  O  O21  1  0.61014500  0.86240300  0.28135900  1
  O  O22  1  0.94420700  0.19335600  0.61398200  1
  O  O23  1  0.27963900  0.53070900  0.94399700  1
  O  O24  1  0.99938400  0.66824500  0.08308300  1
  O  O25  1  0.33175500  0.00061600  0.41691700  1
  O  O26  1  0.67384800  0.32615200  0.75000000  1
  O  O27  1  0.41355800  0.25144000  0.08345500  1
  O  O28  1  0.74856000  0.58644200  0.41654500  1
  O  O29  1  0.07327400  0.92672600  0.75000000  1
  O  O30  1  0.41840000  0.67115100  0.08243200  1
  O  O31  1  0.74862200  0.99894800  0.41517700  1
  O  O32  1  0.07621100  0.32666000  0.74943900  1
  O  O33  1  0.00105200  0.25137800  0.08482300  1
  O  O34  1  0.32884900  0.58160000  0.41756800  1
  O  O35  1  0.67334000  0.92378900  0.75056100  1
  O  O36  1  0.70905600  0.95926900  0.08317100  1
  O  O37  1  0.04073100  0.29094400  0.41682900  1
  O  O38  1  0.37535200  0.62464800  0.75000000  1
  O  O39  1  0.62464800  0.37535200  0.25000000  1
  O  O40  1  0.95926900  0.70905600  0.58317100  1
  O  O41  1  0.29094400  0.04073100  0.91682900  1
loop_
_geom_bond_atom_site_label_1
_geom_bond_atom_site_label_2
_geom_bond_distance
_geom_bond_site_symmetry_2
O0 Ti4 2.021107 1_555
O0 Ti7 2.056955 1_555
O0 Sm0 2.453216 1_555
O0 Sm3 2.454413 1_555
O1 Ta3 1.997864 1_555
O1 Ti5 2.014248 1_555
O1 Sm4 2.631909 1_655
O1 Sm1 2.650063 1_555
O2 Ta2 2.006862 1_565
O2 Ti6 2.048121 1_555
O2 Sm2 2.551603 1_565
O2 Sm5 2.570660 1_565
O3 Ti0 2.021107 1_555
O3 Ti1 2.056955 1_655
O3 Sm6 2.453216 1_555
O3 Sm9 2.454413 1_555
O4 Ta0 2.006862 1_455
O4 Ti2 2.048121 1_555
O4 Sm7 2.551603 1_565
O4 Sm10 2.570660 1_555
O5 Ta1 1.997864 1_555
O5 Ti3 2.014248 1_555
O5 Sm11 2.631909 1_545
O5 Sm8 2.650063 1_555
O6 Ti6 2.009882 1_555
O6 Ti2 2.009882 1_555
O6 Sm0 2.614063 1_555
O6 Sm6 2.614063 1_555
O7 Ti3 2.022941 1_565
O7 Ti7 2.029902 1_565
O7 Sm1 2.514137 1_555
O7 Sm7 2.527217 1_665
O8 Ti5 2.022941 1_455
O8 Ti1 2.029902 1_556
O8 Sm8 2.514137 1_555
O8 Sm2 2.527217 1_556
O9 Ta2 2.043818 1_655
O9 Ta0 2.043818 1_545
O9 Sm9 2.633288 1_555
O9 Sm3 2.633288 1_555
O10 Ta1 1.989502 1_555
O10 Ti4 2.042533 1_555
O10 Sm4 2.505386 1_555
O10 Sm10 2.535408 1_555
O11 Ta3 1.989502 1_555
O11 Ti0 2.042533 1_556
O11 Sm11 2.505386 1_555
O11 Sm5 2.535408 1_566
O12 Ta0 1.964934 1_555
O12 Ti6 2.113163 1_655
O12 Sm3 2.620590 1_555
O12 Sm6 2.636771 1_555
O13 Ta1 2.036771 1_555
O13 Ti7 2.047524 1_555
O13 Sm4 2.513179 1_545
O13 Sm7 2.546312 1_555
O14 Ti5 1.958941 1_555
O14 Ti0 2.040476 1_556
O14 Sm8 2.457058 1_555
O14 Sm5 2.508300 1_556
O15 Ta2 1.964934 1_555
O15 Ti2 2.113163 1_545
O15 Sm9 2.620590 1_555
O15 Sm0 2.636771 1_555
O16 Ti3 1.958941 1_555
O16 Ti4 2.040476 1_555
O16 Sm1 2.457058 1_555
O16 Sm10 2.508300 1_655
O17 Ta3 2.036771 1_555
O17 Ti1 2.047524 1_656
O17 Sm11 2.513179 1_655
O17 Sm2 2.546312 1_666
O18 Ta3 2.006862 1_545
O18 Ti5 2.048121 1_555
O18 Sm2 2.551603 1_656
O18 Sm5 2.570660 1_556
O19 Ta2 1.997864 1_555
O19 Ti6 2.014248 1_555
O19 Sm3 2.631909 1_455
O19 Sm0 2.650063 1_555
O20 Ti4 2.021107 1_555
O20 Ti7 2.056955 1_565
O20 Sm1 2.453216 1_555
O20 Sm4 2.454413 1_555
O21 Ta0 1.997864 1_555
O21 Ti2 2.014248 1_555
O21 Sm9 2.631909 1_565
O21 Sm6 2.650063 1_555
O22 Ta1 2.006862 1_655
O22 Ti3 2.048121 1_555
O22 Sm7 2.551603 1_655
O22 Sm10 2.570660 1_655
O23 Ti0 2.021107 1_556
O23 Ti1 2.056955 1_556
O23 Sm8 2.453216 1_555
O23 Sm11 2.454413 1_555
O24 Ti6 2.022941 1_655
O24 Ti1 2.029902 1_655
O24 Sm6 2.514137 1_555
O24 Sm2 2.527217 1_665
O25 Ti2 2.022941 1_545
O25 Ti7 2.029902 1_555
O25 Sm0 2.514137 1_555
O25 Sm7 2.527217 1_555
O26 Ti5 2.009882 1_555
O26 Ti3 2.009882 1_555
O26 Sm8 2.614063 1_555
O26 Sm1 2.614063 1_555
O27 Ta2 1.989502 1_555
O27 Ti0 2.042533 1_555
O27 Sm9 2.505386 1_555
O27 Sm5 2.535408 1_555
O28 Ta0 1.989502 1_555
O28 Ti4 2.042533 1_555
O28 Sm3 2.505386 1_555
O28 Sm10 2.535408 1_655
O29 Ta1 2.043818 1_565
O29 Ta3 2.043818 1_455
O29 Sm4 2.633288 1_555
O29 Sm11 2.633288 1_555
O30 Ti6 1.958941 1_555
O30 Ti0 2.040476 1_555
O30 Sm6 2.457058 1_555
O30 Sm5 2.508300 1_565
O31 Ta0 2.036771 1_555
O31 Ti7 2.047524 1_565
O31 Sm3 2.513179 1_565
O31 Sm7 2.546312 1_665
O32 Ta1 1.964934 1_555
O32 Ti5 2.113163 1_455
O32 Sm4 2.620590 1_555
O32 Sm8 2.636771 1_555
O33 Ta2 2.036771 1_555
O33 Ti1 2.047524 1_555
O33 Sm9 2.513179 1_455
O33 Sm2 2.546312 1_555
O34 Ti2 1.958941 1_555
O34 Ti4 2.040476 1_555
O34 Sm0 2.457058 1_555
O34 Sm10 2.508300 1_555
O35 Ta3 1.964934 1_555
O35 Ti3 2.113163 1_565
O35 Sm11 2.620590 1_555
O35 Sm1 2.636771 1_555
O36 Sm9 2.242065 1_565
O36 Sm5 2.248000 1_565
O36 Sm2 2.259127 1_665
O36 Sm6 2.263137 1_555
O37 Sm3 2.242065 1_455
O37 Sm10 2.248000 1_555
O37 Sm7 2.259127 1_555
O37 Sm0 2.263137 1_555
O38 Sm4 2.249560 1_555
O38 Sm11 2.249560 1_555
O38 Sm8 2.273525 1_555
O38 Sm1 2.273525 1_555
O39 Sm9 2.249560 1_555
O39 Sm3 2.249560 1_555
O39 Sm6 2.273525 1_555
O39 Sm0 2.273525 1_555
O40 Sm4 2.242065 1_655
O40 Sm10 2.248000 1_655
O40 Sm7 2.259127 1_665
O40 Sm1 2.263137 1_555
O41 Sm11 2.242065 1_545
O41 Sm5 2.248000 1_556
O41 Sm2 2.259127 1_556
O41 Sm8 2.263137 1_555
