# generated using pymatgen
data_K2LiB(PO4)2
_symmetry_space_group_name_H-M   'P 1'
_cell_length_a   8.79863839
_cell_length_b   8.32367147
_cell_length_c   12.31105899
_cell_angle_alpha   52.76884482
_cell_angle_beta   90.00000000
_cell_angle_gamma   90.00000000
_symmetry_Int_Tables_number   1
_chemical_formula_structural   K2LiB(PO4)2
_chemical_formula_sum   'K8 Li4 B4 P8 O32'
_cell_volume   717.87454575
_cell_formula_units_Z   4
loop_
 _symmetry_equiv_pos_site_id
 _symmetry_equiv_pos_as_xyz
  1  'x, y, z'
loop_
 _atom_site_type_symbol
 _atom_site_label
 _atom_site_symmetry_multiplicity
 _atom_site_fract_x
 _atom_site_fract_y
 _atom_site_fract_z
 _atom_site_occupancy
  K  K0  1  0.27501940  0.72536387  0.82145928  1
  K  K1  1  0.22498060  0.72536387  0.32145928  1
  K  K2  1  0.72498060  0.27463613  0.17854072  1
  K  K3  1  0.77501940  0.27463613  0.67854072  1
  K  K4  1  0.77694576  0.93763168  0.58844991  1
  K  K5  1  0.72305424  0.93763168  0.08844991  1
  K  K6  1  0.22305424  0.06236832  0.41155009  1
  K  K7  1  0.27694576  0.06236832  0.91155009  1
  Li  Li0  1  0.58276641  0.80971763  0.87994475  1
  Li  Li1  1  0.91723359  0.80971763  0.37994475  1
  Li  Li2  1  0.41723359  0.19028237  0.12005525  1
  Li  Li3  1  0.08276641  0.19028237  0.62005525  1
  B  B0  1  0.58660633  0.46606694  0.37465392  1
  B  B1  1  0.91339367  0.46606694  0.87465392  1
  B  B2  1  0.41339367  0.53393306  0.62534608  1
  B  B3  1  0.08660633  0.53393306  0.12534608  1
  P  P0  1  0.92255225  0.79281475  0.89174462  1
  P  P1  1  0.57744775  0.79281475  0.39174462  1
  P  P2  1  0.07744775  0.20718525  0.10825538  1
  P  P3  1  0.42255225  0.20718525  0.60825538  1
  P  P4  1  0.39472540  0.52996495  0.17031476  1
  P  P5  1  0.10527460  0.52996495  0.67031476  1
  P  P6  1  0.60527460  0.47003505  0.82968524  1
  P  P7  1  0.89472540  0.47003505  0.32968524  1
  O  O0  1  0.21963440  0.55060915  0.19016592  1
  O  O1  1  0.28036560  0.55060915  0.69016592  1
  O  O2  1  0.78036560  0.44939085  0.80983408  1
  O  O3  1  0.71963440  0.44939085  0.30983408  1
  O  O4  1  0.44257000  0.70560894  0.02874228  1
  O  O5  1  0.05743000  0.70560894  0.52874228  1
  O  O6  1  0.55743000  0.29439106  0.97125772  1
  O  O7  1  0.94257000  0.29439106  0.47125772  1
  O  O8  1  0.46096226  0.55634936  0.27743365  1
  O  O9  1  0.03903774  0.55634936  0.77743365  1
  O  O10  1  0.53903774  0.44365064  0.72256635  1
  O  O11  1  0.96096226  0.44365064  0.22256635  1
  O  O12  1  0.42898043  0.32457303  0.20880235  1
  O  O13  1  0.07101957  0.32457303  0.70880235  1
  O  O14  1  0.57101957  0.67542697  0.79119765  1
  O  O15  1  0.92898043  0.67542697  0.29119765  1
  O  O16  1  0.04839916  0.73805895  0.00085846  1
  O  O17  1  0.45160084  0.73805895  0.50085846  1
  O  O18  1  0.95160084  0.26194105  -0.00085846  1
  O  O19  1  0.54839916  0.26194105  0.49914154  1
  O  O20  1  0.99319969  0.93525518  0.75330977  1
  O  O21  1  0.50680031  0.93525518  0.25330977  1
  O  O22  1  0.00680031  0.06474482  0.24669023  1
  O  O23  1  0.49319969  0.06474482  0.74669023  1
  O  O24  1  0.78159058  0.87280548  0.91305432  1
  O  O25  1  0.71840942  0.87280548  0.41305432  1
  O  O26  1  0.21840942  0.12719452  0.08694568  1
  O  O27  1  0.28159058  0.12719452  0.58694568  1
  O  O28  1  0.87441088  0.59030210  0.91876327  1
  O  O29  1  0.62558912  0.59030210  0.41876327  1
  O  O30  1  0.12558912  0.40969790  0.08123673  1
  O  O31  1  0.37441088  0.40969790  0.58123673  1
loop_
_geom_bond_atom_site_label_1
_geom_bond_atom_site_label_2
_geom_bond_distance
_geom_bond_site_symmetry_2
K0 O14 2.698489 1_555
K0 O9 2.739832 1_555
K0 O1 2.752408 1_555
K0 O27 2.800139 1_565
K0 O20 2.851496 1_455
K0 O4 2.864376 1_556
K0 O30 2.948252 1_556
K0 O16 3.024449 1_556
K0 O23 3.060398 1_565
K1 O15 2.698489 1_455
K1 O8 2.739832 1_555
K1 O0 2.752408 1_555
K1 O26 2.800139 1_565
K1 O21 2.851496 1_555
K1 O5 2.864376 1_555
K1 O31 2.948252 1_555
K1 O17 3.024449 1_555
K1 O22 3.060398 1_565
K2 O12 2.698489 1_555
K2 O11 2.739832 1_555
K2 O3 2.752408 1_555
K2 O25 2.800139 1_545
K2 O22 2.851496 1_655
K2 O6 2.864376 1_554
K2 O28 2.948252 1_554
K2 O18 3.024449 1_555
K2 O21 3.060398 1_545
K3 O13 2.698489 1_655
K3 O10 2.739832 1_555
K3 O2 2.752408 1_555
K3 O24 2.800139 1_545
K3 O23 2.851496 1_555
K3 O7 2.864376 1_555
K3 O29 2.948252 1_555
K3 O19 3.024449 1_555
K3 O20 3.060398 1_545
K4 O25 2.574670 1_555
K4 O14 2.772083 1_555
K4 O20 2.773356 1_555
K4 O7 2.799834 1_565
K4 O19 2.991341 1_565
K5 O24 2.574670 1_554
K5 O15 2.772083 1_555
K5 O21 2.773356 1_555
K5 O6 2.799834 1_564
K5 O18 2.991341 1_565
K6 O27 2.574670 1_555
K6 O12 2.772083 1_555
K6 O22 2.773356 1_555
K6 O5 2.799834 1_545
K6 O17 2.991341 1_545
K7 O26 2.574670 1_556
K7 O13 2.772083 1_555
K7 O23 2.773356 1_555
K7 O4 2.799834 1_546
K7 O16 2.991341 1_546
Li0 O23 1.898550 1_565
Li0 O4 1.925451 1_556
Li0 O24 1.939394 1_555
Li0 O14 1.982842 1_555
Li1 O22 1.898550 1_665
Li1 O5 1.925451 1_655
Li1 O25 1.939394 1_555
Li1 O15 1.982842 1_555
Li2 O21 1.898550 1_545
Li2 O6 1.925451 1_554
Li2 O26 1.939394 1_555
Li2 O12 1.982842 1_555
Li3 O20 1.898550 1_445
Li3 O7 1.925451 1_455
Li3 O27 1.939394 1_555
Li3 O13 1.982842 1_555
B0 O8 1.459796 1_555
B0 O3 1.469727 1_555
B0 O29 1.470165 1_555
B0 O19 1.482463 1_555
B1 O9 1.459796 1_655
B1 O2 1.469727 1_555
B1 O28 1.470165 1_555
B1 O18 1.482463 1_556
B2 O10 1.459796 1_555
B2 O1 1.469727 1_555
B2 O31 1.470165 1_555
B2 O17 1.482463 1_555
B3 O11 1.459796 1_455
B3 O0 1.469727 1_555
B3 O30 1.470165 1_555
B3 O16 1.482463 1_555
O0 P4 1.585371 1_555
O1 P5 1.585371 1_555
O2 P6 1.585371 1_555
O3 P7 1.585371 1_555
O4 P4 1.506315 1_555
O5 P5 1.506315 1_555
O6 P6 1.506315 1_555
O7 P7 1.506315 1_555
O8 P4 1.573985 1_555
O9 P5 1.573985 1_555
O10 P6 1.573985 1_555
O11 P7 1.573985 1_555
O12 P4 1.502635 1_555
O13 P5 1.502635 1_555
O14 P6 1.502635 1_555
O15 P7 1.502635 1_555
O16 P0 1.580324 1_454
O17 P1 1.580324 1_555
O18 P2 1.580324 1_655
O19 P3 1.580324 1_555
O20 P0 1.500521 1_555
O21 P1 1.500521 1_555
O22 P2 1.500521 1_555
O23 P3 1.500521 1_555
O24 P0 1.503920 1_555
O25 P1 1.503920 1_555
O26 P2 1.503920 1_555
O27 P3 1.503920 1_555
O28 P0 1.566204 1_555
O29 P1 1.566204 1_555
O30 P2 1.566204 1_555
O31 P3 1.566204 1_555
