# generated using pymatgen
data_Li5Mn2CoO8
_symmetry_space_group_name_H-M   'P 1'
_cell_length_a   4.98124499
_cell_length_b   7.77784593
_cell_length_c   7.77805903
_cell_angle_alpha   81.55333690
_cell_angle_beta   77.78109596
_cell_angle_gamma   102.18200233
_symmetry_Int_Tables_number   1
_chemical_formula_structural   Li5Mn2CoO8
_chemical_formula_sum   'Li10 Mn4 Co2 O16'
_cell_volume   282.04318476
_cell_formula_units_Z   2
loop_
 _symmetry_equiv_pos_site_id
 _symmetry_equiv_pos_as_xyz
  1  'x, y, z'
loop_
 _atom_site_type_symbol
 _atom_site_label
 _atom_site_symmetry_multiplicity
 _atom_site_fract_x
 _atom_site_fract_y
 _atom_site_fract_z
 _atom_site_occupancy
  Li  Li0  1  0.99962400  0.38018600  0.88157900  1
  Li  Li1  1  0.99994300  0.88053900  0.38116200  1
  Li  Li2  1  0.49731000  0.49804000  0.00073900  1
  Li  Li3  1  0.49812600  0.99867500  0.49982400  1
  Li  Li4  1  0.00046200  0.61909500  0.11859300  1
  Li  Li5  1  0.00086300  0.11948200  0.61737300  1
  Li  Li6  1  0.50200300  0.75018500  0.24994800  1
  Li  Li7  1  0.50190200  0.25013200  0.75000900  1
  Li  Li8  1  0.99948200  0.74983800  0.75081000  1
  Li  Li9  1  0.99908300  0.24983600  0.25106600  1
  Mn  Mn0  1  0.00051000  0.50219100  0.50161200  1
  Mn  Mn1  1  0.99995500  0.00165800  0.00102500  1
  Mn  Mn2  1  0.50003800  0.62698500  0.62732900  1
  Mn  Mn3  1  0.49950800  0.12710900  0.12726800  1
  Co  Co0  1  0.50005700  0.86911800  0.86871400  1
  Co  Co1  1  0.50024000  0.36899400  0.36867700  1
  O  O0  1  0.75045200  0.11788200  0.89411000  1
  O  O1  1  0.75227900  0.61831300  0.39378700  1
  O  O2  1  0.24995900  0.22767600  0.00710100  1
  O  O3  1  0.25122200  0.72824100  0.50661800  1
  O  O4  1  0.72119000  0.36022700  0.12590300  1
  O  O5  1  0.72112400  0.86025500  0.62573400  1
  O  O6  1  0.24738900  0.49628200  0.27381000  1
  O  O7  1  0.24646100  0.99618400  0.77426600  1
  O  O8  1  0.27955900  0.62584800  0.86008100  1
  O  O9  1  0.27844200  0.12592800  0.36038200  1
  O  O10  1  0.75407600  0.77466200  0.99561200  1
  O  O11  1  0.75363000  0.27436100  0.49571900  1
  O  O12  1  0.24769300  0.39403900  0.61826600  1
  O  O13  1  0.24831300  0.89418800  0.11783500  1
  O  O14  1  0.74962100  0.50685100  0.72765700  1
  O  O15  1  0.74948200  0.00699900  0.22738900  1
loop_
_geom_bond_atom_site_label_1
_geom_bond_atom_site_label_2
_geom_bond_distance
_geom_bond_site_symmetry_2
Li0 O4 2.065406 1_556
Li0 O8 2.075144 1_655
Li0 O0 2.129316 1_555
Li0 O12 2.130922 1_655
Li0 O2 2.171313 1_656
Li0 O14 2.181083 1_555
Li1 O5 2.067260 1_555
Li1 O9 2.071331 1_665
Li1 O1 2.125877 1_555
Li1 O13 2.131900 1_655
Li1 O3 2.173762 1_655
Li1 O15 2.181386 1_565
Li2 O4 1.999469 1_555
Li2 O8 1.999874 1_554
Li2 O2 2.189219 1_555
Li2 O14 2.210602 1_554
Li2 O6 2.219516 1_555
Li2 O10 2.249079 1_554
Li3 O9 1.999392 1_565
Li3 O5 2.001881 1_555
Li3 O3 2.188091 1_555
Li3 O15 2.205563 1_565
Li3 O7 2.230113 1_555
Li3 O11 2.242670 1_565
Li4 O6 2.160682 1_555
Li4 O10 2.160781 1_454
Li4 O8 2.175645 1_554
Li4 O4 2.177882 1_455
Li4 O13 2.231742 1_555
Li4 O1 2.232240 1_455
Li5 O11 2.155840 1_455
Li5 O9 2.163629 1_555
Li5 O7 2.165365 1_545
Li5 O5 2.179108 1_445
Li5 O12 2.229764 1_555
Li5 O0 2.244613 1_455
Li6 O10 2.064784 1_554
Li6 O6 2.068467 1_555
Li6 O15 2.075230 1_565
Li6 O3 2.080742 1_555
Li6 O1 2.156589 1_555
Li6 O13 2.171684 1_555
Li7 O11 2.064171 1_555
Li7 O7 2.069820 1_545
Li7 O14 2.075362 1_555
Li7 O2 2.084900 1_556
Li7 O0 2.152521 1_555
Li7 O12 2.171808 1_555
Li8 O14 2.086966 1_555
Li8 O10 2.092724 1_555
Li8 O3 2.093472 1_655
Li8 O7 2.102597 1_655
Li8 O8 2.104215 1_655
Li8 O5 2.105863 1_555
Li9 O15 2.086905 1_555
Li9 O11 2.091083 1_555
Li9 O2 2.091743 1_655
Li9 O9 2.101016 1_655
Li9 O6 2.104043 1_655
Li9 O4 2.104182 1_555
Mn0 O12 1.932023 1_555
Mn0 O1 1.932818 1_455
Mn0 O14 1.939624 1_455
Mn0 O3 1.940719 1_555
Mn0 O6 1.944053 1_555
Mn0 O11 1.944876 1_455
Mn1 O13 1.934884 1_645
Mn1 O0 1.934980 1_554
Mn1 O7 1.935911 1_644
Mn1 O10 1.936505 1_544
Mn1 O2 1.941342 1_655
Mn1 O15 1.942129 1_555
Mn2 O8 1.906105 1_555
Mn2 O5 1.910271 1_555
Mn2 O14 1.927273 1_555
Mn2 O3 1.930082 1_555
Mn2 O12 1.995382 1_555
Mn2 O1 1.997148 1_555
Mn3 O9 1.909441 1_555
Mn3 O4 1.910866 1_555
Mn3 O15 1.928034 1_555
Mn3 O2 1.928216 1_555
Mn3 O0 1.993250 1_554
Mn3 O13 1.993554 1_545
Co0 O7 1.954112 1_555
Co0 O10 1.955237 1_555
Co0 O5 1.994620 1_555
Co0 O8 1.995610 1_555
Co0 O0 2.129891 1_565
Co0 O13 2.133256 1_556
Co1 O6 1.953468 1_555
Co1 O11 1.953889 1_555
Co1 O4 1.992855 1_555
Co1 O9 1.995848 1_555
Co1 O1 2.135952 1_555
Co1 O12 2.137751 1_555
