# generated using pymatgen
data_Li20Si3P3S23Cl
_symmetry_space_group_name_H-M   'P 1'
_cell_length_a   8.78311200
_cell_length_b   8.77628800
_cell_length_c   12.75154308
_cell_angle_alpha   89.70147209
_cell_angle_beta   90.00000000
_cell_angle_gamma   90.00000000
_symmetry_Int_Tables_number   1
_chemical_formula_structural   Li20Si3P3S23Cl
_chemical_formula_sum   'Li20 Si3 P3 S23 Cl1'
_cell_volume   982.91538959
_cell_formula_units_Z   1
loop_
 _symmetry_equiv_pos_site_id
 _symmetry_equiv_pos_as_xyz
  1  'x, y, z'
loop_
 _atom_site_type_symbol
 _atom_site_label
 _atom_site_symmetry_multiplicity
 _atom_site_fract_x
 _atom_site_fract_y
 _atom_site_fract_z
 _atom_site_occupancy
  Li  Li0  1  0.23568500  0.76615800  0.30056600  1
  Li  Li1  1  0.77027900  0.22541000  0.29137700  1
  Li  Li2  1  0.72736000  0.73438300  0.78196100  1
  Li  Li3  1  0.27063100  0.26750700  0.78846800  1
  Li  Li4  1  0.76431500  0.76615800  0.30056600  1
  Li  Li5  1  0.22972100  0.22541000  0.29137700  1
  Li  Li6  1  0.27264000  0.73438300  0.78196100  1
  Li  Li7  1  0.72936900  0.26750700  0.78846800  1
  Li  Li8  1  0.50000000  0.00148000  0.93249600  1
  Li  Li9  1  0.50000000  0.00076000  0.45228800  1
  Li  Li10  1  0.00000000  0.50499600  0.55835400  1
  Li  Li11  1  0.00000000  0.49189400  0.03903800  1
  Li  Li12  1  0.74538100  0.74796300  0.01008400  1
  Li  Li13  1  0.24824700  0.25405300  0.02044100  1
  Li  Li14  1  0.24882300  0.73067600  0.54196000  1
  Li  Li15  1  0.75020500  0.27401500  0.54178900  1
  Li  Li16  1  0.75117700  0.73067600  0.54196000  1
  Li  Li17  1  0.24979500  0.27401500  0.54178900  1
  Li  Li18  1  0.25461900  0.74796300  0.01008400  1
  Li  Li19  1  0.75175300  0.25405300  0.02044100  1
  Si  Si0  1  0.00000000  0.49944600  0.80531500  1
  Si  Si1  1  0.00000000  0.48619300  0.31786400  1
  Si  Si2  1  0.50000000  0.00120100  0.69269600  1
  P  P0  1  0.50000000  0.99848100  0.18672600  1
  P  P1  1  0.00000000  0.99967000  0.49957100  1
  P  P2  1  0.50000000  0.50200300  0.00633400  1
  S  S0  1  0.80540500  0.99753100  0.40816200  1
  S  S1  1  0.19459500  0.99753100  0.40816200  1
  S  S2  1  0.50000000  0.69385300  0.91087700  1
  S  S3  1  0.50000000  0.30723800  0.91561300  1
  S  S4  1  0.30765300  0.50254300  0.09678000  1
  S  S5  1  0.69234700  0.50254300  0.09678000  1
  S  S6  1  0.00000000  0.81106400  0.59467600  1
  S  S7  1  0.00000000  0.19093500  0.59030900  1
  S  S8  1  0.69692500  0.99754700  0.09715400  1
  S  S9  1  0.30307500  0.99754700  0.09715400  1
  S  S10  1  0.50000000  0.79780600  0.59811700  1
  S  S11  1  0.50000000  0.20230400  0.59503400  1
  S  S12  1  0.20422700  0.50468100  0.40349000  1
  S  S13  1  0.79577300  0.50468100  0.40349000  1
  S  S14  1  0.00000000  0.69856300  0.90422800  1
  S  S15  1  0.00000000  0.29687300  0.90234300  1
  S  S16  1  0.30220800  0.00104200  0.78925200  1
  S  S17  1  0.69779200  0.00104200  0.78925200  1
  S  S18  1  0.50000000  0.19136700  0.27615400  1
  S  S19  1  0.50000000  0.80635300  0.27881000  1
  S  S20  1  0.80313200  0.49978400  0.70508900  1
  S  S21  1  0.19686800  0.49978400  0.70508900  1
  S  S22  1  0.00000000  0.31140000  0.20718600  1
  Cl  Cl0  1  0.00000000  0.69952900  0.21724500  1
loop_
_geom_bond_atom_site_label_1
_geom_bond_atom_site_label_2
_geom_bond_distance
_geom_bond_site_symmetry_2
Li0 S19 2.364273 1_555
Li0 S1 2.482947 1_555
Li0 S12 2.652084 1_555
Li1 S18 2.400606 1_555
Li1 S22 2.405120 1_655
Li1 S0 2.506304 1_545
Li1 S13 2.852659 1_555
Li2 S17 2.356957 1_565
Li2 S20 2.379896 1_555
Li2 S2 2.609691 1_555
Li2 S14 2.873801 1_655
Li3 S16 2.354932 1_555
Li3 S21 2.383940 1_555
Li3 S3 2.610475 1_555
Li3 S15 2.798019 1_555
Li4 S19 2.364273 1_555
Li4 S0 2.482947 1_555
Li4 S13 2.652084 1_555
Li5 S18 2.400606 1_555
Li5 S22 2.405120 1_555
Li5 S1 2.506304 1_545
Li5 S12 2.852659 1_555
Li6 S16 2.356957 1_565
Li6 S21 2.379896 1_555
Li6 S2 2.609691 1_555
Li6 S14 2.873801 1_555
Li7 S17 2.354932 1_555
Li7 S20 2.383940 1_555
Li7 S3 2.610475 1_555
Li7 S15 2.798019 1_655
Li8 S17 2.520805 1_555
Li8 S16 2.520805 1_555
Li8 S3 2.690924 1_555
Li8 S2 2.715290 1_545
Li8 S8 2.720387 1_546
Li8 S9 2.720387 1_546
Li9 S11 2.544696 1_555
Li9 S10 2.568269 1_545
Li9 S0 2.740963 1_545
Li9 S1 2.740963 1_545
Li9 S18 2.793494 1_555
Li9 S19 2.800677 1_545
Li10 S21 2.547948 1_555
Li10 S20 2.547948 1_455
Li10 S12 2.667819 1_555
Li10 S13 2.667819 1_455
Li10 S6 2.728156 1_555
Li10 S7 2.784146 1_555
Li11 S15 2.449251 1_554
Li11 S14 2.492472 1_554
Li11 S22 2.659180 1_555
Li11 S5 2.802357 1_455
Li11 S4 2.802357 1_555
Li12 S5 2.460385 1_555
Li12 S8 2.497425 1_555
Li12 S2 2.545002 1_554
Li12 S14 2.649027 1_654
Li13 S4 2.449066 1_555
Li13 S9 2.496721 1_545
Li13 S3 2.624401 1_554
Li13 S15 2.675298 1_554
Li14 S6 2.393888 1_555
Li14 S10 2.393998 1_555
Li14 S12 2.691003 1_555
Li14 S1 2.929342 1_555
Li14 S21 2.932152 1_555
Li15 S11 2.383688 1_555
Li15 S7 2.392335 1_655
Li15 S13 2.707612 1_555
Li15 S20 2.919106 1_555
Li15 S0 3.011562 1_545
Li16 S6 2.393888 1_655
Li16 S10 2.393998 1_555
Li16 S13 2.691003 1_555
Li16 S0 2.929342 1_555
Li16 S20 2.932152 1_555
Li17 S11 2.383688 1_555
Li17 S7 2.392335 1_555
Li17 S12 2.707612 1_555
Li17 S21 2.919106 1_555
Li17 S1 3.011562 1_545
Li18 S4 2.460385 1_555
Li18 S9 2.497425 1_555
Li18 S2 2.545002 1_554
Li18 S14 2.649027 1_554
Li19 S5 2.449066 1_555
Li19 S8 2.496721 1_545
Li19 S3 2.624401 1_554
Li19 S15 2.675298 1_654
P0 S18 2.046009 1_565
P0 S19 2.049711 1_555
P0 S8 2.072754 1_555
P0 S9 2.072754 1_555
P1 S7 2.043695 1_565
P1 S6 2.046875 1_555
P1 S1 2.068915 1_555
P1 S0 2.068915 1_455
P2 S4 2.045564 1_555
P2 S5 2.045564 1_555
P2 S3 2.068966 1_554
P2 S2 2.072493 1_554
S10 Si2 2.159480 1_565
S11 Si2 2.154757 1_555
S12 Si1 2.106626 1_555
S13 Si1 2.106626 1_655
S14 Si0 2.160466 1_555
S15 Si0 2.160693 1_555
S16 Si2 2.129295 1_555
S17 Si2 2.129295 1_555
S20 Si0 2.150158 1_655
S21 Si0 2.150158 1_555
S22 Si1 2.089888 1_555
Cl0 Si1 2.264217 1_555
Cl0 Li0 2.400491 1_555
Cl0 Li4 2.400491 1_455
Cl0 Li11 2.920217 1_555
