# generated using pymatgen
data_Gd3Cd
_symmetry_space_group_name_H-M   'P 1'
_cell_length_a   6.96356833
_cell_length_b   6.96349563
_cell_length_c   5.66574874
_cell_angle_alpha   90.00000000
_cell_angle_beta   90.00000000
_cell_angle_gamma   119.99959941
_symmetry_Int_Tables_number   1
_chemical_formula_structural   Gd3Cd
_chemical_formula_sum   'Gd6 Cd2'
_cell_volume   237.92980246
_cell_formula_units_Z   2
loop_
 _symmetry_equiv_pos_site_id
 _symmetry_equiv_pos_as_xyz
  1  'x, y, z'
loop_
 _atom_site_type_symbol
 _atom_site_label
 _atom_site_symmetry_multiplicity
 _atom_site_fract_x
 _atom_site_fract_y
 _atom_site_fract_z
 _atom_site_occupancy
  Gd  Gd0  1  0.17044370  0.34088801  0.25000000  1
  Gd  Gd1  1  0.65910929  0.82955565  0.25000000  1
  Gd  Gd2  1  0.17044470  0.82955669  0.25000000  1
  Gd  Gd3  1  0.82955630  0.65911199  0.75000000  1
  Gd  Gd4  1  0.34089071  0.17044435  0.75000000  1
  Gd  Gd5  1  0.82955530  0.17044331  0.75000000  1
  Cd  Cd0  1  0.33333046  0.66666623  0.75000000  1
  Cd  Cd1  1  0.66666954  0.33333377  0.25000000  1
loop_
_geom_bond_atom_site_label_1
_geom_bond_atom_site_label_2
_geom_bond_distance
_geom_bond_site_symmetry_2
Gd0 Gd2 3.402839 1_555
Gd0 Gd1 3.402866 1_555
Gd0 Gd4 3.500195 1_554
Gd0 Gd4 3.500195 1_555
Gd0 Gd5 3.500201 1_454
Gd0 Gd5 3.500201 1_455
Gd0 Gd2 3.560657 1_545
Gd0 Gd1 3.560708 1_445
Gd1 Gd2 3.402853 1_555
Gd1 Gd5 3.500185 1_565
Gd1 Gd5 3.500185 1_564
Gd1 Gd3 3.500195 1_554
Gd1 Gd3 3.500195 1_555
Gd1 Gd2 3.560715 1_655
Gd2 Gd4 3.500185 1_565
Gd2 Gd4 3.500185 1_564
Gd2 Gd3 3.500201 1_454
Gd2 Gd3 3.500201 1_455
Gd3 Gd5 3.402839 1_555
Gd3 Gd4 3.402866 1_555
Gd3 Gd5 3.560657 1_565
Gd3 Gd4 3.560708 1_665
Gd4 Gd5 3.402853 1_555
Gd4 Gd5 3.560715 1_455
Cd0 Gd2 3.447450 1_555
Cd0 Gd2 3.447450 1_556
Cd0 Gd0 3.447458 1_555
Cd0 Gd0 3.447458 1_556
Cd0 Gd1 3.447472 1_556
Cd0 Gd1 3.447472 1_555
Cd0 Gd4 3.482032 1_565
Cd0 Gd4 3.482060 1_555
Cd0 Gd3 3.482062 1_455
Cd0 Gd5 3.482079 1_455
Cd0 Gd5 3.482091 1_565
Cd0 Gd3 3.482102 1_555
Cd1 Gd5 3.447450 1_555
Cd1 Gd5 3.447450 1_554
Cd1 Gd3 3.447458 1_555
Cd1 Gd3 3.447458 1_554
Cd1 Gd4 3.447472 1_554
Cd1 Gd4 3.447472 1_555
Cd1 Gd1 3.482032 1_545
Cd1 Gd1 3.482060 1_555
Cd1 Gd0 3.482062 1_655
Cd1 Gd2 3.482079 1_655
Cd1 Gd2 3.482091 1_545
Cd1 Gd0 3.482102 1_555
