# generated using pymatgen
data_Zr2Fe3Si
_symmetry_space_group_name_H-M   'P 1'
_cell_length_a   4.97937507
_cell_length_b   4.97937507
_cell_length_c   8.16306619
_cell_angle_alpha   90.00000000
_cell_angle_beta   90.00000000
_cell_angle_gamma   119.99931297
_symmetry_Int_Tables_number   1
_chemical_formula_structural   Zr2Fe3Si
_chemical_formula_sum   'Zr4 Fe6 Si2'
_cell_volume   175.28172467
_cell_formula_units_Z   2
loop_
 _symmetry_equiv_pos_site_id
 _symmetry_equiv_pos_as_xyz
  1  'x, y, z'
loop_
 _atom_site_type_symbol
 _atom_site_label
 _atom_site_symmetry_multiplicity
 _atom_site_fract_x
 _atom_site_fract_y
 _atom_site_fract_z
 _atom_site_occupancy
  Zr  Zr0  1  0.66666884  0.33333116  0.93666876  1
  Zr  Zr1  1  0.33333330  0.66666670  0.43667332  1
  Zr  Zr2  1  0.66666884  0.33333116  0.56333124  1
  Zr  Zr3  1  0.33333330  0.66666670  0.06332668  1
  Fe  Fe0  1  0.16939604  0.83060396  0.75000000  1
  Fe  Fe1  1  0.66120572  0.83060338  0.75000000  1
  Fe  Fe2  1  0.83060960  0.16939040  0.25000000  1
  Fe  Fe3  1  0.16939662  0.33879428  0.75000000  1
  Fe  Fe4  1  0.83060878  0.66121796  0.25000000  1
  Fe  Fe5  1  0.33878204  0.16939122  0.25000000  1
  Si  Si0  1  -0.00000155  0.00000155  0.50000387  1
  Si  Si1  1  -0.00000155  0.00000155  -0.00000387  1
loop_
_geom_bond_atom_site_label_1
_geom_bond_atom_site_label_2
_geom_bond_distance
_geom_bond_site_symmetry_2
Fe0 Fe1 2.448906 1_555
Fe0 Fe3 2.448906 1_555
Fe0 Si0 2.509787 1_565
Fe0 Si1 2.509787 1_566
Fe0 Fe1 2.530469 1_455
Fe0 Fe3 2.530469 1_565
Fe0 Zr0 2.919103 1_455
Fe0 Zr2 2.919103 1_565
Fe0 Zr0 2.919103 1_565
Fe0 Zr2 2.919103 1_455
Fe0 Zr1 2.922484 1_555
Fe0 Zr3 2.922484 1_556
Fe1 Fe3 2.448927 1_555
Fe1 Si1 2.509790 1_666
Fe1 Si0 2.509790 1_665
Fe1 Fe3 2.530499 1_665
Fe1 Zr0 2.919065 1_565
Fe1 Zr2 2.919065 1_565
Fe1 Zr2 2.919097 1_555
Fe1 Zr0 2.919097 1_555
Fe1 Zr1 2.922486 1_555
Fe1 Zr3 2.922486 1_556
Fe2 Fe4 2.448996 1_555
Fe2 Fe5 2.448996 1_555
Fe2 Si0 2.509795 1_655
Fe2 Si1 2.509795 1_655
Fe2 Fe5 2.530379 1_655
Fe2 Fe4 2.530379 1_545
Fe2 Zr3 2.919122 1_655
Fe2 Zr3 2.919122 1_545
Fe2 Zr1 2.919122 1_655
Fe2 Zr1 2.919122 1_545
Fe2 Zr2 2.922531 1_555
Fe2 Zr0 2.922531 1_554
Fe3 Si1 2.509790 1_556
Fe3 Si0 2.509790 1_555
Fe3 Zr2 2.919065 1_455
Fe3 Zr0 2.919065 1_455
Fe3 Zr2 2.919097 1_555
Fe3 Zr0 2.919097 1_555
Fe3 Zr1 2.922486 1_555
Fe3 Zr3 2.922486 1_556
Fe4 Fe5 2.449015 1_555
Fe4 Si1 2.509818 1_665
Fe4 Si0 2.509818 1_665
Fe4 Fe5 2.530412 1_665
Fe4 Zr1 2.919099 1_555
Fe4 Zr3 2.919099 1_555
Fe4 Zr3 2.919101 1_655
Fe4 Zr1 2.919101 1_655
Fe4 Zr0 2.922549 1_554
Fe4 Zr2 2.922549 1_555
Fe5 Si1 2.509818 1_555
Fe5 Si0 2.509818 1_555
Fe5 Zr1 2.919099 1_555
Fe5 Zr3 2.919099 1_555
Fe5 Zr1 2.919101 1_545
Fe5 Zr3 2.919101 1_545
Fe5 Zr0 2.922549 1_554
Fe5 Zr2 2.922549 1_555
Si0 Zr2 2.920910 1_455
Si0 Zr1 2.920959 1_545
Si0 Zr1 2.920969 1_445
Si0 Zr1 2.920969 1_555
Si0 Zr2 2.920987 1_555
Si0 Zr2 2.920987 1_445
Si1 Zr0 2.920910 1_454
Si1 Zr3 2.920959 1_545
Si1 Zr3 2.920969 1_555
Si1 Zr3 2.920969 1_445
Si1 Zr0 2.920987 1_554
Si1 Zr0 2.920987 1_444
