# generated using pymatgen
data_La(BOs)4
_symmetry_space_group_name_H-M   'P 1'
_cell_length_a   4.00720300
_cell_length_b   7.65788400
_cell_length_c   7.65788400
_cell_angle_alpha   90.00000000
_cell_angle_beta   90.00000000
_cell_angle_gamma   90.00000000
_symmetry_Int_Tables_number   1
_chemical_formula_structural   La(BOs)4
_chemical_formula_sum   'La2 B8 Os8'
_cell_volume   234.99515631
_cell_formula_units_Z   2
loop_
 _symmetry_equiv_pos_site_id
 _symmetry_equiv_pos_as_xyz
  1  'x, y, z'
loop_
 _atom_site_type_symbol
 _atom_site_label
 _atom_site_symmetry_multiplicity
 _atom_site_fract_x
 _atom_site_fract_y
 _atom_site_fract_z
 _atom_site_occupancy
  La  La0  1  0.25000000  0.25000000  0.25000000  1
  La  La1  1  0.75000000  0.75000000  0.75000000  1
  B  B0  1  0.36028200  0.91494600  0.03244400  1
  B  B1  1  0.36028200  0.58505400  0.46755600  1
  B  B2  1  0.86028200  0.53244400  0.08505400  1
  B  B3  1  0.86028200  0.96755600  0.41494600  1
  B  B4  1  0.63971800  0.08505400  0.96755600  1
  B  B5  1  0.63971800  0.41494600  0.53244400  1
  B  B6  1  0.13971800  0.46755600  0.91494600  1
  B  B7  1  0.13971800  0.03244400  0.58505400  1
  Os  Os0  1  0.13962300  0.39551100  0.64351300  1
  Os  Os1  1  0.13962300  0.10448900  0.85648700  1
  Os  Os2  1  0.63962300  0.14351300  0.60448900  1
  Os  Os3  1  0.63962300  0.35648700  0.89551100  1
  Os  Os4  1  0.86037700  0.60448900  0.35648700  1
  Os  Os5  1  0.86037700  0.89551100  0.14351300  1
  Os  Os6  1  0.36037700  0.85648700  0.39551100  1
  Os  Os7  1  0.36037700  0.64351300  0.10448900  1
loop_
_geom_bond_atom_site_label_1
_geom_bond_atom_site_label_2
_geom_bond_distance
_geom_bond_site_symmetry_2
La0 Os2 3.236029 1_555
La0 Os4 3.236029 1_455
La0 Os3 3.236029 1_554
La0 Os5 3.236029 1_445
La0 Os0 3.243201 1_555
La0 Os1 3.243201 1_554
La0 Os7 3.243201 1_555
La0 Os6 3.243201 1_545
La1 Os6 3.236029 1_555
La1 Os7 3.236029 1_556
La1 Os0 3.236029 1_655
La1 Os1 3.236029 1_665
La1 Os5 3.243201 1_556
La1 Os2 3.243201 1_565
La1 Os3 3.243201 1_555
La1 Os4 3.243201 1_555
B0 B4 1.788215 1_564
B0 Os7 2.150575 1_555
B0 Os1 2.168950 1_564
B0 Os5 2.181395 1_455
B0 Os5 2.182095 1_555
B0 La1 2.951711 1_554
B0 La0 3.090998 1_565
B0 La1 3.500620 1_454
B1 B5 1.788215 1_555
B1 Os6 2.150575 1_555
B1 Os0 2.168950 1_555
B1 Os4 2.181395 1_455
B1 Os4 2.182095 1_555
B1 La1 2.951711 1_555
B1 La0 3.090998 1_555
B1 La1 3.500620 1_455
B2 B6 1.788215 1_654
B2 Os4 2.150575 1_555
B2 Os3 2.168950 1_554
B2 Os7 2.181395 1_555
B2 Os7 2.182095 1_655
B2 La0 2.951711 1_655
B2 La1 3.090998 1_554
B2 La0 3.500620 1_555
B3 B7 1.788215 1_665
B3 Os5 2.150575 1_555
B3 Os2 2.168950 1_565
B3 Os6 2.181395 1_555
B3 Os6 2.182095 1_655
B3 La0 2.951711 1_665
B3 La1 3.090998 1_555
B3 La0 3.500620 1_565
B4 Os3 2.150575 1_555
B4 Os5 2.168950 1_546
B4 Os1 2.181395 1_655
B4 Os1 2.182095 1_555
B4 La0 2.951711 1_556
B4 La1 3.090998 1_545
B4 La0 3.500620 1_656
B5 Os2 2.150575 1_555
B5 Os4 2.168950 1_555
B5 Os0 2.181395 1_655
B5 Os0 2.182095 1_555
B5 La0 2.951711 1_555
B5 La1 3.090998 1_555
B5 La0 3.500620 1_655
B6 Os0 2.150575 1_555
B6 Os7 2.168950 1_556
B6 Os3 2.181395 1_555
B6 Os3 2.182095 1_455
B6 La1 2.951711 1_455
B6 La0 3.090998 1_556
B6 La1 3.500620 1_555
B7 Os1 2.150575 1_555
B7 Os6 2.168950 1_545
B7 Os2 2.181395 1_555
B7 Os2 2.182095 1_455
B7 La1 2.951711 1_445
B7 La0 3.090998 1_555
B7 La1 3.500620 1_545
