# generated using pymatgen
data_Ba4Fe12Si8ClO35
_symmetry_space_group_name_H-M   'P 1'
_cell_length_a   8.89488700
_cell_length_b   8.90544000
_cell_length_c   10.83090829
_cell_angle_alpha   71.90251630
_cell_angle_beta   78.47192052
_cell_angle_gamma   75.49520261
_symmetry_Int_Tables_number   1
_chemical_formula_structural   Ba4Fe12Si8ClO35
_chemical_formula_sum   'Ba4 Fe12 Si8 Cl1 O35'
_cell_volume   782.53707379
_cell_formula_units_Z   1
loop_
 _symmetry_equiv_pos_site_id
 _symmetry_equiv_pos_as_xyz
  1  'x, y, z'
loop_
 _atom_site_type_symbol
 _atom_site_label
 _atom_site_symmetry_multiplicity
 _atom_site_fract_x
 _atom_site_fract_y
 _atom_site_fract_z
 _atom_site_occupancy
  Ba  Ba0  1  0.51107000  0.27020800  0.43741300  1
  Ba  Ba1  1  0.00902200  0.76885000  0.44459800  1
  Ba  Ba2  1  0.98898200  0.22943600  0.56264300  1
  Ba  Ba3  1  0.48967700  0.72985900  0.56125600  1
  Fe  Fe0  1  0.38461900  0.37413400  0.00347200  1
  Fe  Fe1  1  0.86323900  0.88900500  0.98566600  1
  Fe  Fe2  1  0.12059900  0.14002200  0.98996500  1
  Fe  Fe3  1  0.61967300  0.60686600  0.00307900  1
  Fe  Fe4  1  0.78679500  0.57285600  0.27955200  1
  Fe  Fe5  1  0.28623900  0.07311400  0.27939000  1
  Fe  Fe6  1  0.71061600  0.92731900  0.71879900  1
  Fe  Fe7  1  0.21365200  0.42792400  0.71902600  1
  Fe  Fe8  1  0.75418600  0.24582300  0.00073100  1
  Fe  Fe9  1  0.26706900  0.74055500  0.98699200  1
  Fe  Fe10  1  0.99990200  0.50013000  0.00230400  1
  Fe  Fe11  1  0.49714500  0.00001600  0.99982100  1
  Si  Si0  1  0.17598400  0.46522500  0.26868200  1
  Si  Si1  1  0.67282100  0.96566300  0.26999200  1
  Si  Si2  1  0.90029900  0.19118200  0.27081100  1
  Si  Si3  1  0.40130000  0.68761700  0.27037400  1
  Si  Si4  1  0.32422200  0.03518600  0.72967200  1
  Si  Si5  1  0.82422900  0.53712200  0.72855100  1
  Si  Si6  1  0.59971700  0.30938800  0.73039200  1
  Si  Si7  1  0.10108200  0.81008700  0.73012600  1
  Cl  Cl0  1  0.06811700  0.86575700  0.13509300  1
  O  O0  1  0.19754100  0.51699900  0.10697200  1
  O  O1  1  0.68498100  0.01849200  0.10947500  1
  O  O2  1  0.92940000  0.25883100  0.11036900  1
  O  O3  1  0.43693400  0.74174000  0.10829000  1
  O  O4  1  0.30287800  0.97950700  0.89112400  1
  O  O5  1  0.80423300  0.49262900  0.88931700  1
  O  O6  1  0.57128000  0.24510800  0.89082200  1
  O  O7  1  0.07641000  0.75026900  0.89153000  1
  O  O8  1  0.24663000  0.27560200  0.33476000  1
  O  O9  1  0.74556300  0.77587200  0.33571400  1
  O  O10  1  0.05588200  0.08511400  0.33865400  1
  O  O11  1  0.55763500  0.58400300  0.33719300  1
  O  O12  1  0.25303400  0.22491800  0.66441700  1
  O  O13  1  0.75325400  0.72624700  0.66029700  1
  O  O14  1  0.44363900  0.41491900  0.66317600  1
  O  O15  1  0.94224200  0.91322500  0.66682800  1
  O  O16  1  0.77949500  0.06246700  0.31659200  1
  O  O17  1  0.28173100  0.55798600  0.31980400  1
  O  O18  1  0.71932900  0.43927600  0.68212200  1
  O  O19  1  0.22023800  0.94013900  0.67929800  1
  O  O20  1  0.80979000  0.62964200  0.09288000  1
  O  O21  1  0.31813600  0.13131600  0.09427200  1
  O  O22  1  0.67135200  0.86041100  0.90363400  1
  O  O23  1  0.17933900  0.37448300  0.90277900  1
  O  O24  1  0.99842500  0.52278900  0.33667400  1
  O  O25  1  0.49637000  0.02221900  0.34114400  1
  O  O26  1  0.80800000  0.33295000  0.34069200  1
  O  O27  1  0.31019500  0.83233100  0.33651200  1
  O  O28  1  0.50109000  0.97855600  0.66076700  1
  O  O29  1  0.00162900  0.47820700  0.66118400  1
  O  O30  1  0.69199600  0.16676600  0.66133300  1
  O  O31  1  0.19211000  0.66809800  0.66017900  1
  O  O32  1  0.58601700  0.38585000  0.08901200  1
  O  O33  1  0.44090200  0.62832300  0.90138700  1
  O  O34  1  0.92206300  0.12137400  0.91239900  1
loop_
_geom_bond_atom_site_label_1
_geom_bond_atom_site_label_2
_geom_bond_distance
_geom_bond_site_symmetry_2
Ba0 O25 2.758855 1_555
Ba0 O26 2.766772 1_555
Ba0 O11 2.770291 1_555
Ba0 O8 2.779684 1_555
Ba0 O28 2.955010 1_545
Ba0 O17 2.956948 1_555
Ba0 O30 2.958002 1_555
Ba0 O16 2.979648 1_555
Ba0 O14 2.997327 1_555
Ba0 O12 3.011267 1_555
Ba1 O10 2.794993 1_565
Ba1 O9 2.805670 1_455
Ba1 O24 2.813503 1_455
Ba1 O27 2.821442 1_555
Ba1 O31 2.897499 1_555
Ba1 O29 2.908258 1_555
Ba1 O13 2.921460 1_455
Ba1 O15 2.961072 1_455
Ba1 O16 3.022002 1_465
Ba1 O17 3.036762 1_555
Ba1 Cl0 3.159759 1_555
Ba2 O30 2.769777 1_555
Ba2 O12 2.773638 1_655
Ba2 O29 2.775182 1_655
Ba2 O15 2.792991 1_545
Ba2 O26 2.940550 1_555
Ba2 O19 2.971008 1_645
Ba2 O10 2.977999 1_655
Ba2 O24 2.979491 1_555
Ba2 O18 2.989353 1_555
Ba2 O8 3.015582 1_655
Ba3 O13 2.755785 1_555
Ba3 O31 2.772323 1_555
Ba3 O28 2.777850 1_555
Ba3 O14 2.779145 1_555
Ba3 O25 2.937764 1_565
Ba3 O27 2.958067 1_555
Ba3 O18 2.983167 1_555
Ba3 O19 2.983243 1_555
Ba3 O11 2.986751 1_555
Ba3 O9 2.989783 1_555
Fe0 O6 2.161310 1_554
Fe0 O0 2.173549 1_555
Fe0 O32 2.212569 1_555
Fe0 O21 2.253833 1_555
Fe0 O23 2.305313 1_554
Fe0 O33 2.321378 1_554
Fe1 O34 2.131175 1_565
Fe1 O22 2.175282 1_555
Fe1 O1 2.199306 1_566
Fe1 O7 2.235559 1_655
Fe1 O20 2.360605 1_556
Fe2 O23 2.156079 1_555
Fe2 O34 2.162992 1_455
Fe2 O2 2.186742 1_456
Fe2 O4 2.216794 1_545
Fe2 O21 2.245077 1_556
Fe3 O32 1.968642 1_555
Fe3 O33 2.048237 1_554
Fe3 O5 2.093280 1_554
Fe3 O3 2.124922 1_555
Fe3 O20 2.190582 1_555
Fe3 O22 2.297992 1_554
Fe4 O20 1.907004 1_555
Fe4 O11 1.995745 1_555
Fe4 O24 1.999695 1_555
Fe4 O26 2.001923 1_555
Fe4 O9 2.008760 1_555
Fe5 O21 1.889395 1_555
Fe5 O8 2.001156 1_555
Fe5 O27 2.006421 1_545
Fe5 O10 2.007256 1_555
Fe5 O25 2.008302 1_555
Fe6 O22 1.889032 1_555
Fe6 O28 1.985127 1_555
Fe6 O30 2.000402 1_565
Fe6 O13 2.005082 1_555
Fe6 O15 2.007039 1_555
Fe7 O23 1.876730 1_555
Fe7 O14 1.998620 1_555
Fe7 O12 2.001290 1_555
Fe7 O31 2.003556 1_555
Fe7 O29 2.006145 1_555
Fe8 O34 1.905805 1_554
Fe8 O32 1.985326 1_555
Fe8 O1 2.172040 1_555
Fe8 O2 2.183596 1_555
Fe8 O6 2.201822 1_554
Fe8 O5 2.261151 1_554
Fe9 O33 1.864941 1_555
Fe9 O7 2.127052 1_555
Fe9 O4 2.131307 1_555
Fe9 O0 2.173231 1_556
Fe9 O3 2.195224 1_556
Fe10 O23 2.031876 1_654
Fe10 O20 2.053073 1_555
Fe10 O2 2.280337 1_555
Fe10 O0 2.330852 1_655
Fe10 O5 2.343404 1_554
Fe10 O7 2.374319 1_654
Fe11 O21 2.026945 1_556
Fe11 O22 2.055850 1_545
Fe11 O1 2.298114 1_556
Fe11 O6 2.324110 1_555
Fe11 O4 2.347356 1_545
Fe11 O3 2.375736 1_546
Cl0 Fe9 2.436402 1_554
Cl0 Fe2 2.558697 1_564
Cl0 Fe1 2.600940 1_454
O0 Si0 1.650858 1_555
O1 Si1 1.642484 1_545
O2 Si2 1.642433 1_555
O3 Si3 1.656219 1_555
O4 Si4 1.647888 1_565
O5 Si5 1.644214 1_555
O6 Si6 1.640070 1_555
O7 Si7 1.647615 1_555
O8 Si0 1.629744 1_555
O9 Si1 1.634277 1_555
O10 Si2 1.633327 1_455
O11 Si3 1.628964 1_555
O12 Si4 1.629850 1_555
O13 Si5 1.631596 1_555
O14 Si6 1.632769 1_555
O15 Si7 1.629638 1_655
O16 Si2 1.662929 1_555
O16 Si1 1.664253 1_545
O17 Si3 1.659495 1_555
O17 Si0 1.659905 1_555
O18 Si5 1.658257 1_555
O18 Si6 1.661837 1_555
O19 Si4 1.658431 1_565
O19 Si7 1.659317 1_555
O24 Si0 1.632053 1_655
O25 Si1 1.634821 1_545
O26 Si2 1.633062 1_555
O27 Si3 1.627594 1_555
O28 Si4 1.628938 1_565
O29 Si5 1.631111 1_455
O30 Si6 1.633699 1_555
O31 Si7 1.632648 1_555
