# generated using pymatgen
data_HoInNi4
_symmetry_space_group_name_H-M   'P 1'
_cell_length_a   4.92436119
_cell_length_b   4.92436119
_cell_length_c   4.92436119
_cell_angle_alpha   60.00000000
_cell_angle_beta   60.00000000
_cell_angle_gamma   60.00000000
_symmetry_Int_Tables_number   1
_chemical_formula_structural   HoInNi4
_chemical_formula_sum   'Ho1 In1 Ni4'
_cell_volume   84.43737076
_cell_formula_units_Z   1
loop_
 _symmetry_equiv_pos_site_id
 _symmetry_equiv_pos_as_xyz
  1  'x, y, z'
loop_
 _atom_site_type_symbol
 _atom_site_label
 _atom_site_symmetry_multiplicity
 _atom_site_fract_x
 _atom_site_fract_y
 _atom_site_fract_z
 _atom_site_occupancy
  Ho  Ho0  1  0.25000000  0.25000000  0.25000000  1
  In  In0  1  0.00000000  0.00000000  0.00000000  1
  Ni  Ni0  1  0.62610032  0.62610032  0.62610032  1
  Ni  Ni1  1  0.62610032  0.62610032  0.12170104  1
  Ni  Ni2  1  0.62610032  0.12170104  0.62610032  1
  Ni  Ni3  1  0.12170104  0.62610032  0.62610032  1
loop_
_geom_bond_atom_site_label_1
_geom_bond_atom_site_label_2
_geom_bond_distance
_geom_bond_site_symmetry_2
Ho0 Ni2 2.889498 1_554
Ho0 Ni1 2.889498 1_455
Ho0 Ni1 2.889498 1_545
Ho0 Ni3 2.889498 1_545
Ho0 Ni2 2.889498 1_455
Ho0 Ni3 2.889498 1_554
Ho0 Ni0 2.889503 1_545
Ho0 Ni0 2.889503 1_554
Ho0 Ni0 2.889503 1_455
Ho0 Ni2 2.889507 1_555
Ho0 Ni3 2.889507 1_555
Ho0 Ni1 2.889507 1_555
Ho0 In0 3.015543 1_556
Ho0 In0 3.015543 1_555
Ho0 In0 3.015543 1_565
Ho0 In0 3.015543 1_655
In0 Ni3 2.884878 1_544
In0 Ni1 2.884878 1_445
In0 Ni2 2.884878 1_454
In0 Ni0 2.884882 1_445
In0 Ni0 2.884882 1_454
In0 Ni0 2.884882 1_544
In0 Ni1 2.884886 1_545
In0 Ni2 2.884886 1_455
In0 Ni3 2.884886 1_554
In0 Ni1 2.884886 1_455
In0 Ni2 2.884886 1_554
In0 Ni3 2.884886 1_545
Ni0 Ni2 2.440517 1_565
Ni0 Ni1 2.440517 1_556
Ni0 Ni3 2.440517 1_655
Ni0 Ni2 2.483844 1_555
Ni0 Ni3 2.483844 1_555
Ni0 Ni1 2.483844 1_555
Ni1 Ni3 2.440517 1_654
Ni1 Ni2 2.440517 1_564
Ni1 Ni2 2.483844 1_555
Ni1 Ni3 2.483844 1_555
Ni2 Ni3 2.440517 1_645
Ni2 Ni3 2.483844 1_555
