# generated using pymatgen
data_PrMn5Co7
_symmetry_space_group_name_H-M   'P 1'
_cell_length_a   4.58888500
_cell_length_b   6.38569013
_cell_length_c   6.38569013
_cell_angle_alpha   97.17573123
_cell_angle_beta   111.05783335
_cell_angle_gamma   68.94216665
_symmetry_Int_Tables_number   1
_chemical_formula_structural   PrMn5Co7
_chemical_formula_sum   'Pr1 Mn5 Co7'
_cell_volume   162.96121178
_cell_formula_units_Z   1
loop_
 _symmetry_equiv_pos_site_id
 _symmetry_equiv_pos_as_xyz
  1  'x, y, z'
loop_
 _atom_site_type_symbol
 _atom_site_label
 _atom_site_symmetry_multiplicity
 _atom_site_fract_x
 _atom_site_fract_y
 _atom_site_fract_z
 _atom_site_occupancy
  Pr  Pr0  1  0.99728300  0.00271700  0.99728300  1
  Mn  Mn0  1  0.49666300  0.00180100  0.50095800  1
  Mn  Mn1  1  0.00249400  0.00180100  0.50095800  1
  Mn  Mn2  1  0.49666300  0.49904200  0.99819900  1
  Mn  Mn3  1  0.00249400  0.49904200  0.99819900  1
  Mn  Mn4  1  0.73141400  0.76858600  0.23141400  1
  Co  Co0  1  0.64162400  0.35837600  0.64162400  1
  Co  Co1  1  0.36119300  0.63880700  0.36119300  1
  Co  Co2  1  0.99781400  0.36181100  0.35743900  1
  Co  Co3  1  0.99781400  0.64256100  0.63818900  1
  Co  Co4  1  0.27074000  0.22926000  0.77074000  1
  Co  Co5  1  0.50190300  0.76389900  0.76770500  1
  Co  Co6  1  0.50190300  0.23229500  0.23610100  1
loop_
_geom_bond_atom_site_label_1
_geom_bond_atom_site_label_2
_geom_bond_distance
_geom_bond_site_symmetry_2
Mn0 Mn1 2.267685 1_555
Mn0 Mn1 2.321200 1_655
Mn0 Mn4 2.424893 1_545
Mn0 Pr0 3.177309 1_555
Mn0 Pr0 3.208520 1_454
Mn1 Mn4 2.424893 1_445
Mn1 Pr0 3.177309 1_455
Mn1 Pr0 3.208520 1_454
Mn2 Mn3 2.267685 1_555
Mn2 Mn3 2.321200 1_655
Mn2 Mn4 2.424893 1_556
Mn2 Pr0 3.177309 1_555
Mn2 Pr0 3.208520 1_465
Mn3 Mn4 2.424893 1_456
Mn3 Pr0 3.177309 1_455
Mn3 Pr0 3.208520 1_465
Mn4 Pr0 3.023101 1_464
Mn4 Pr0 3.023101 1_564
Co0 Co1 2.357679 1_555
Co0 Co5 2.534167 1_555
Co0 Co6 2.534167 1_555
Co0 Co4 2.538272 1_655
Co0 Co4 2.538272 1_555
Co0 Mn3 2.565559 1_655
Co0 Mn1 2.565559 1_655
Co0 Mn2 2.565559 1_555
Co0 Mn0 2.565559 1_555
Co0 Co3 2.851769 1_455
Co0 Co2 2.851769 1_455
Co0 Co3 2.851769 1_555
Co0 Co2 2.851769 1_555
Co0 Pr0 2.990146 1_555
Co1 Co5 2.538032 1_555
Co1 Co6 2.538032 1_555
Co1 Mn4 2.540661 1_455
Co1 Mn4 2.540661 1_555
Co1 Mn1 2.583786 1_565
Co1 Mn3 2.583786 1_554
Co1 Mn0 2.583786 1_565
Co1 Mn2 2.583786 1_554
Co1 Co3 2.826674 1_555
Co1 Co2 2.826674 1_555
Co1 Co2 2.826674 1_455
Co1 Co3 2.826674 1_455
Co1 Pr0 3.059515 1_464
Co2 Co3 2.371746 1_555
Co2 Co6 2.527526 1_655
Co2 Co6 2.527526 1_555
Co2 Mn4 2.534289 1_555
Co2 Mn2 2.565530 1_554
Co2 Mn3 2.565530 1_654
Co2 Mn0 2.569455 1_655
Co2 Mn1 2.569456 1_655
Co2 Co4 2.582905 1_655
Co2 Pr0 3.038077 1_554
Co3 Co5 2.527526 1_655
Co3 Co5 2.527526 1_555
Co3 Mn4 2.534289 1_555
Co3 Mn0 2.565530 1_565
Co3 Mn1 2.565530 1_665
Co3 Mn2 2.569455 1_655
Co3 Mn3 2.569456 1_655
Co3 Co4 2.582905 1_655
Co3 Pr0 3.038077 1_565
Co4 Mn3 2.393448 1_555
Co4 Mn1 2.393448 1_555
Co4 Mn2 2.393448 1_555
Co4 Mn0 2.393448 1_555
Co4 Co6 2.773345 1_556
Co4 Co5 2.773345 1_545
Co4 Pr0 2.981955 1_555
Co4 Pr0 2.981956 1_455
Co5 Mn3 2.388305 1_655
Co5 Mn2 2.388305 1_555
Co5 Mn1 2.408462 1_565
Co5 Mn0 2.408462 1_565
Co5 Mn4 2.763630 1_556
Co5 Pr0 3.029911 1_465
Co5 Pr0 3.029911 1_565
Co6 Mn1 2.388305 1_655
Co6 Mn0 2.388305 1_555
Co6 Mn3 2.408462 1_554
Co6 Mn2 2.408462 1_554
Co6 Mn4 2.763630 1_545
Co6 Pr0 3.029911 1_454
Co6 Pr0 3.029911 1_554
