# generated using pymatgen
data_K2Zn5As4
_symmetry_space_group_name_H-M   'P 1'
_cell_length_a   6.87396264
_cell_length_b   6.87396264
_cell_length_c   11.77323700
_cell_angle_alpha   90.00000000
_cell_angle_beta   90.00000000
_cell_angle_gamma   117.10569704
_symmetry_Int_Tables_number   1
_chemical_formula_structural   K2Zn5As4
_chemical_formula_sum   'K4 Zn10 As8'
_cell_volume   495.20150772
_cell_formula_units_Z   2
loop_
 _symmetry_equiv_pos_site_id
 _symmetry_equiv_pos_as_xyz
  1  'x, y, z'
loop_
 _atom_site_type_symbol
 _atom_site_label
 _atom_site_symmetry_multiplicity
 _atom_site_fract_x
 _atom_site_fract_y
 _atom_site_fract_z
 _atom_site_occupancy
  K  K0  1  0.21416000  0.78584000  0.50000000  1
  K  K1  1  0.21416000  0.78584000  0.00000000  1
  K  K2  1  0.78584000  0.21416000  0.50000000  1
  K  K3  1  0.78584000  0.21416000  0.00000000  1
  Zn  Zn0  1  0.52908300  0.24305200  0.25000000  1
  Zn  Zn1  1  0.75694800  0.47091700  0.75000000  1
  Zn  Zn2  1  0.47091700  0.75694800  0.75000000  1
  Zn  Zn3  1  0.24305200  0.52908300  0.25000000  1
  Zn  Zn4  1  0.65225200  0.65225200  0.39140500  1
  Zn  Zn5  1  0.34774800  0.34774800  0.60859500  1
  Zn  Zn6  1  0.65225200  0.65225200  0.10859500  1
  Zn  Zn7  1  0.34774800  0.34774800  0.89140500  1
  Zn  Zn8  1  0.00704700  0.00704700  0.25000000  1
  Zn  Zn9  1  0.99295300  0.99295300  0.75000000  1
  As  As0  1  0.60011200  0.91552400  0.25000000  1
  As  As1  1  0.08447600  0.39988800  0.75000000  1
  As  As2  1  0.39988800  0.08447600  0.75000000  1
  As  As3  1  0.91552400  0.60011200  0.25000000  1
  As  As4  1  0.27659700  0.27659700  0.40143800  1
  As  As5  1  0.72340300  0.72340300  0.59856200  1
  As  As6  1  0.27659700  0.27659700  0.09856200  1
  As  As7  1  0.72340300  0.72340300  0.90143800  1
loop_
_geom_bond_atom_site_label_1
_geom_bond_atom_site_label_2
_geom_bond_distance
_geom_bond_site_symmetry_2
K0 Zn2 3.483811 1_555
K0 Zn3 3.483811 1_555
K0 K2 3.683453 1_455
K0 K2 3.683453 1_565
K0 Zn4 3.750532 1_555
K0 Zn5 3.750532 1_555
K0 Zn5 3.763622 1_565
K0 Zn4 3.763622 1_455
K0 Zn8 3.869729 1_565
K0 Zn9 3.869729 1_455
K1 Zn2 3.483811 1_554
K1 Zn3 3.483811 1_555
K1 K3 3.683453 1_455
K1 K3 3.683453 1_565
K1 Zn6 3.750532 1_555
K1 Zn7 3.750532 1_554
K1 Zn7 3.763622 1_564
K1 Zn6 3.763622 1_455
K1 Zn8 3.869729 1_565
K1 Zn9 3.869729 1_454
K2 Zn1 3.483811 1_555
K2 Zn0 3.483811 1_555
K2 Zn4 3.750532 1_555
K2 Zn5 3.750532 1_555
K2 Zn5 3.763622 1_655
K2 Zn4 3.763622 1_545
K2 Zn8 3.869729 1_655
K2 Zn9 3.869729 1_545
K3 Zn1 3.483811 1_554
K3 Zn0 3.483811 1_555
K3 Zn6 3.750532 1_555
K3 Zn7 3.750532 1_554
K3 Zn7 3.763622 1_654
K3 Zn6 3.763622 1_545
K3 Zn8 3.869729 1_655
K3 Zn9 3.869729 1_544
As0 Zn0 2.511767 1_565
As0 Zn8 2.572308 1_665
As0 Zn6 2.601184 1_555
As0 Zn4 2.601184 1_555
As0 Zn3 2.671925 1_555
As0 K2 3.481206 1_565
As0 K3 3.481206 1_565
As0 K0 3.786964 1_555
As0 K1 3.786964 1_555
As1 Zn1 2.511767 1_455
As1 Zn9 2.572308 1_445
As1 Zn5 2.601184 1_555
As1 Zn7 2.601184 1_555
As1 Zn2 2.671925 1_555
As1 K2 3.481206 1_455
As1 K3 3.481206 1_456
As1 K1 3.786964 1_556
As1 K0 3.786964 1_555
As2 Zn2 2.511767 1_545
As2 Zn9 2.572308 1_445
As2 Zn5 2.601184 1_555
As2 Zn7 2.601184 1_555
As2 Zn1 2.671925 1_555
As2 K0 3.481206 1_545
As2 K1 3.481206 1_546
As2 K3 3.786964 1_556
As2 K2 3.786964 1_555
As3 Zn3 2.511767 1_655
As3 Zn8 2.572308 1_665
As3 Zn6 2.601184 1_555
As3 Zn4 2.601184 1_555
As3 Zn0 2.671925 1_555
As3 K1 3.481206 1_655
As3 K0 3.481206 1_655
As3 K2 3.786964 1_555
As3 K3 3.786964 1_555
As4 Zn5 2.491728 1_555
As4 Zn3 2.570775 1_555
As4 Zn0 2.570775 1_555
As4 Zn8 2.629938 1_555
As4 Zn4 2.696957 1_555
As4 K2 3.404626 1_455
As4 K0 3.404626 1_545
As4 K0 3.892739 1_555
As4 K2 3.892739 1_555
As5 Zn4 2.491728 1_555
As5 Zn1 2.570775 1_555
As5 Zn2 2.570775 1_555
As5 Zn9 2.629938 1_555
As5 Zn5 2.696957 1_555
As5 K2 3.404626 1_565
As5 K0 3.404626 1_655
As5 K0 3.892739 1_555
As5 K2 3.892739 1_555
As6 Zn7 2.491728 1_554
As6 Zn3 2.570775 1_555
As6 Zn0 2.570775 1_555
As6 Zn8 2.629938 1_555
As6 Zn6 2.696957 1_555
As6 K1 3.404626 1_545
As6 K3 3.404626 1_455
As6 K3 3.892739 1_555
As6 K1 3.892739 1_555
As7 Zn6 2.491728 1_556
As7 Zn1 2.570775 1_555
As7 Zn2 2.570775 1_555
As7 Zn9 2.629938 1_555
As7 Zn7 2.696957 1_555
As7 K1 3.404626 1_656
As7 K3 3.404626 1_566
As7 K1 3.892739 1_556
As7 K3 3.892739 1_556
