# generated using pymatgen
data_EuH2
_symmetry_space_group_name_H-M   'P 1'
_cell_length_a   4.00060594
_cell_length_b   4.00060594
_cell_length_c   5.48267556
_cell_angle_alpha   90.00000000
_cell_angle_beta   90.00000000
_cell_angle_gamma   119.99999571
_symmetry_Int_Tables_number   1
_chemical_formula_structural   EuH2
_chemical_formula_sum   'Eu2 H4'
_cell_volume   75.99320278
_cell_formula_units_Z   2
loop_
 _symmetry_equiv_pos_site_id
 _symmetry_equiv_pos_as_xyz
  1  'x, y, z'
loop_
 _atom_site_type_symbol
 _atom_site_label
 _atom_site_symmetry_multiplicity
 _atom_site_fract_x
 _atom_site_fract_y
 _atom_site_fract_z
 _atom_site_occupancy
  Eu  Eu0  1  0.66666700  0.33333300  0.75000000  1
  Eu  Eu1  1  0.33333300  0.66666700  0.25000000  1
  H  H0  1  0.33333300  0.66666700  0.75000000  1
  H  H1  1  0.66666700  0.33333300  0.25000000  1
  H  H2  1  0.00000000  0.00000000  0.50000000  1
  H  H3  1  0.00000000  0.00000000  -0.00000000  1
loop_
_geom_bond_atom_site_label_1
_geom_bond_atom_site_label_2
_geom_bond_distance
_geom_bond_site_symmetry_2
Eu0 H0 2.309749 1_545
Eu0 H0 2.309749 1_655
Eu0 H0 2.309755 1_555
Eu0 H2 2.685828 1_655
Eu0 H3 2.685828 1_656
Eu0 H3 2.685831 1_556
Eu0 H3 2.685831 1_666
Eu0 H2 2.685831 1_665
Eu0 H2 2.685831 1_555
Eu0 H1 2.741338 1_556
Eu0 H1 2.741338 1_555
Eu1 H1 2.309749 1_455
Eu1 H1 2.309749 1_565
Eu1 H1 2.309755 1_555
Eu1 H2 2.685828 1_565
Eu1 H3 2.685828 1_565
Eu1 H2 2.685831 1_555
Eu1 H3 2.685831 1_555
Eu1 H3 2.685831 1_665
Eu1 H2 2.685831 1_665
Eu1 H0 2.741338 1_554
Eu1 H0 2.741338 1_555
