# generated using pymatgen
data_La3FeW(SO2)3
_symmetry_space_group_name_H-M   'P 1'
_cell_length_a   5.60928500
_cell_length_b   9.53236600
_cell_length_c   9.53230052
_cell_angle_alpha   59.99959839
_cell_angle_beta   90.00041366
_cell_angle_gamma   90.00030348
_symmetry_Int_Tables_number   1
_chemical_formula_structural   La3FeW(SO2)3
_chemical_formula_sum   'La6 Fe2 W2 S6 O12'
_cell_volume   441.40252716
_cell_formula_units_Z   2
loop_
 _symmetry_equiv_pos_site_id
 _symmetry_equiv_pos_as_xyz
  1  'x, y, z'
loop_
 _atom_site_type_symbol
 _atom_site_label
 _atom_site_symmetry_multiplicity
 _atom_site_fract_x
 _atom_site_fract_y
 _atom_site_fract_z
 _atom_site_occupancy
  La  La0  1  0.25003100  0.91124500  0.68066700  1
  La  La1  1  0.25000300  0.40806900  0.91123800  1
  La  La2  1  0.25003800  0.68068500  0.40807600  1
  La  La3  1  0.74996100  0.08874000  0.31932600  1
  La  La4  1  0.74998700  0.59193300  0.08876900  1
  La  La5  1  0.74998500  0.31932700  0.59194000  1
  Fe  Fe0  1  0.99999200  0.00000300  0.00000000  1
  Fe  Fe1  1  0.49999200  0.99999900  0.99999700  1
  W  W0  1  0.24999000  0.33333900  0.33332800  1
  W  W1  1  0.75002900  0.66665800  0.66667900  1
  S  S0  1  0.75000100  0.81656300  0.22935600  1
  S  S1  1  0.75000200  0.95407900  0.81656600  1
  S  S2  1  0.75000100  0.22934600  0.95408800  1
  S  S3  1  0.25000100  0.18343300  0.77065100  1
  S  S4  1  0.24999700  0.04591600  0.18343400  1
  S  S5  1  0.24999900  0.77065200  0.04592000  1
  O  O0  1  0.52416800  0.83886100  0.52697700  1
  O  O1  1  0.52416900  0.63415000  0.83887000  1
  O  O2  1  0.52417100  0.52697400  0.63415100  1
  O  O3  1  0.02417400  0.16113600  0.47301400  1
  O  O4  1  0.02416100  0.36586000  0.16112100  1
  O  O5  1  0.02417000  0.47303100  0.36584700  1
  O  O6  1  0.47582600  0.16113000  0.47301700  1
  O  O7  1  0.47583000  0.36585900  0.16112400  1
  O  O8  1  0.47583700  0.47302800  0.36584500  1
  O  O9  1  0.97582600  0.83886400  0.52698100  1
  O  O10  1  0.97582600  0.63413900  0.83887500  1
  O  O11  1  0.97583300  0.52698000  0.63414400  1
loop_
_geom_bond_atom_site_label_1
_geom_bond_atom_site_label_2
_geom_bond_distance
_geom_bond_site_symmetry_2
La0 O0 2.449048 1_555
La0 O9 2.449225 1_455
La0 O6 2.545794 1_565
La0 O3 2.546006 1_565
La0 O1 2.762656 1_555
La0 O10 2.762937 1_455
La0 S5 3.041736 1_556
La0 S3 3.113394 1_565
La0 S1 3.199819 1_555
La0 S1 3.200124 1_455
La1 O10 2.449189 1_455
La1 O1 2.449212 1_555
La1 O7 2.545956 1_556
La1 O4 2.545992 1_556
La1 O2 2.762679 1_555
La1 O11 2.762717 1_455
La1 S3 3.041509 1_555
La1 S4 3.113267 1_556
La1 S2 3.199903 1_555
La1 S2 3.199912 1_455
La2 O2 2.449045 1_555
La2 O11 2.449261 1_455
La2 O8 2.545863 1_555
La2 O5 2.546008 1_555
La2 O0 2.762494 1_555
La2 O9 2.762815 1_455
La2 S4 3.041562 1_565
La2 S5 3.113262 1_555
La2 S0 3.199721 1_555
La2 S0 3.200075 1_455
La3 O6 2.449081 1_555
La3 O3 2.449350 1_655
La3 O0 2.545760 1_545
La3 O9 2.545956 1_545
La3 O7 2.762790 1_555
La3 O4 2.763011 1_655
La3 S2 3.041588 1_554
La3 S0 3.113200 1_545
La3 S4 3.199722 1_555
La3 S4 3.200096 1_655
La4 O7 2.449151 1_555
La4 O4 2.449216 1_655
La4 O1 2.546017 1_554
La4 O10 2.546082 1_554
La4 O8 2.762544 1_555
La4 O5 2.762649 1_655
La4 S0 3.041457 1_555
La4 S1 3.113240 1_554
La4 S5 3.199838 1_555
La4 S5 3.199945 1_655
La5 O8 2.449194 1_555
La5 O5 2.449328 1_655
La5 O2 2.545719 1_555
La5 O11 2.545813 1_555
La5 O6 2.762878 1_555
La5 O3 2.762966 1_655
La5 S1 3.041671 1_545
La5 S2 3.113151 1_555
La5 S3 3.199817 1_555
La5 S3 3.199965 1_655
Fe0 S2 2.445511 1_554
Fe0 S4 2.445564 1_655
Fe0 S1 2.445572 1_544
Fe0 S3 2.445580 1_654
Fe0 S0 2.445583 1_545
Fe0 S5 2.445603 1_645
Fe1 S3 2.445509 1_565
Fe1 S5 2.445510 1_556
Fe1 S4 2.445593 1_566
Fe1 S2 2.445597 1_565
Fe1 S1 2.445610 1_555
Fe1 S0 2.445639 1_556
O0 W1 1.971548 1_555
O1 W1 1.971447 1_555
O2 W1 1.971539 1_555
O3 W0 1.971347 1_555
O4 W0 1.971405 1_555
O5 W0 1.971429 1_555
O6 W0 1.971454 1_555
O7 W0 1.971439 1_555
O8 W0 1.971483 1_555
O9 W1 1.971323 1_555
O10 W1 1.971215 1_555
O11 W1 1.971346 1_555
