# generated using pymatgen
data_Mg14ZnCr
_symmetry_space_group_name_H-M   'P 1'
_cell_length_a   6.28266093
_cell_length_b   6.28266043
_cell_length_c   10.14599528
_cell_angle_alpha   90.00000000
_cell_angle_beta   90.00000000
_cell_angle_gamma   120.00000260
_symmetry_Int_Tables_number   1
_chemical_formula_structural   Mg14ZnCr
_chemical_formula_sum   'Mg14 Zn1 Cr1'
_cell_volume   346.82666920
_cell_formula_units_Z   1
loop_
 _symmetry_equiv_pos_site_id
 _symmetry_equiv_pos_as_xyz
  1  'x, y, z'
loop_
 _atom_site_type_symbol
 _atom_site_label
 _atom_site_symmetry_multiplicity
 _atom_site_fract_x
 _atom_site_fract_y
 _atom_site_fract_z
 _atom_site_occupancy
  Mg  Mg0  1  0.16552865  0.83276382  0.12500000  1
  Mg  Mg1  1  0.16760669  0.83380284  0.62500000  1
  Mg  Mg2  1  0.66723618  0.33447135  0.12500000  1
  Mg  Mg3  1  0.66619716  0.33239331  0.62500000  1
  Mg  Mg4  1  0.66723618  0.83276382  0.12500000  1
  Mg  Mg5  1  0.66619716  0.83380284  0.62500000  1
  Mg  Mg6  1  0.33059198  0.16940802  0.37469414  1
  Mg  Mg7  1  0.33059198  0.16940802  0.87530586  1
  Mg  Mg8  1  0.33059198  0.66118497  0.37469414  1
  Mg  Mg9  1  0.33059198  0.66118497  0.87530586  1
  Mg  Mg10  1  0.83881503  0.16940802  0.37469414  1
  Mg  Mg11  1  0.83881503  0.16940802  0.87530586  1
  Mg  Mg12  1  0.83333300  0.66666700  0.37448394  1
  Mg  Mg13  1  0.83333300  0.66666700  0.87551606  1
  Zn  Zn0  1  0.16666700  0.33333300  0.12500000  1
  Cr  Cr0  1  0.16666700  0.33333300  0.62500000  1
loop_
_geom_bond_atom_site_label_1
_geom_bond_atom_site_label_2
_geom_bond_distance
_geom_bond_site_symmetry_2
Mg0 Mg13 3.110337 1_454
Mg0 Mg12 3.110337 1_455
Mg0 Mg8 3.126253 1_555
Mg0 Mg9 3.126253 1_554
Mg0 Mg6 3.126259 1_565
Mg0 Mg7 3.126259 1_564
Mg0 Mg2 3.130602 1_455
Mg0 Mg4 3.130603 1_455
Mg0 Zn0 3.141336 1_555
Mg0 Zn0 3.141336 1_565
Mg0 Mg2 3.152058 1_565
Mg0 Mg4 3.152058 1_555
Mg1 Mg12 3.125431 1_455
Mg1 Mg13 3.125431 1_455
Mg1 Mg9 3.128061 1_555
Mg1 Mg8 3.128061 1_555
Mg1 Mg7 3.128067 1_565
Mg1 Mg6 3.128067 1_565
Mg1 Mg3 3.132475 1_565
Mg1 Mg5 3.132475 1_555
Mg1 Mg3 3.150186 1_455
Mg1 Mg5 3.150186 1_455
Mg2 Mg6 3.126260 1_555
Mg2 Mg7 3.126260 1_554
Mg2 Mg4 3.130602 1_555
Mg2 Zn0 3.141337 1_655
Mg2 Zn0 3.141337 1_555
Mg2 Mg4 3.152058 1_545
Mg3 Mg6 3.128067 1_555
Mg3 Mg7 3.128067 1_555
Mg3 Mg5 3.132475 1_545
Mg3 Mg5 3.150186 1_555
Mg4 Mg8 3.126259 1_555
Mg4 Mg9 3.126259 1_554
Mg4 Zn0 3.141336 1_665
Mg4 Zn0 3.141336 1_555
Mg5 Mg9 3.128067 1_555
Mg5 Mg8 3.128067 1_555
Mg6 Mg8 3.089668 1_555
Mg6 Zn0 3.098400 1_555
Mg6 Mg8 3.192993 1_545
Mg7 Mg9 3.089668 1_555
Mg7 Zn0 3.098400 1_556
Mg7 Mg9 3.192993 1_545
Mg8 Zn0 3.098406 1_555
Mg9 Zn0 3.098406 1_556
Mg10 Mg8 3.089668 1_655
Mg10 Mg6 3.089668 1_655
Mg10 Zn0 3.098406 1_655
Mg10 Mg2 3.126253 1_555
Mg10 Mg4 3.126259 1_545
Mg10 Mg3 3.128061 1_555
Mg10 Mg5 3.128067 1_545
Mg10 Mg12 3.141473 1_555
Mg10 Mg12 3.141473 1_545
Mg10 Mg8 3.192993 1_545
Mg10 Mg6 3.192993 1_555
Mg11 Mg9 3.089668 1_655
Mg11 Mg7 3.089668 1_655
Mg11 Zn0 3.098406 1_656
Mg11 Mg2 3.126253 1_556
Mg11 Mg4 3.126259 1_546
Mg11 Mg3 3.128061 1_555
Mg11 Mg5 3.128067 1_545
Mg11 Mg13 3.141473 1_555
Mg11 Mg13 3.141473 1_545
Mg11 Mg9 3.192993 1_545
Mg11 Mg7 3.192993 1_555
Mg12 Mg4 3.110331 1_555
Mg12 Mg2 3.110337 1_555
Mg12 Mg5 3.125425 1_555
Mg12 Mg3 3.125431 1_555
Mg12 Mg6 3.141473 1_665
Mg12 Mg6 3.141473 1_555
Mg12 Mg8 3.141473 1_655
Mg12 Mg8 3.141473 1_555
Mg13 Mg4 3.110331 1_556
Mg13 Mg2 3.110337 1_556
Mg13 Mg5 3.125425 1_555
Mg13 Mg3 3.125431 1_555
Mg13 Mg7 3.141473 1_665
Mg13 Mg7 3.141473 1_555
Mg13 Mg9 3.141473 1_655
Mg13 Mg9 3.141473 1_555
Cr0 Mg7 3.103477 1_555
Cr0 Mg6 3.103477 1_555
Cr0 Mg8 3.103483 1_555
Cr0 Mg9 3.103483 1_555
Cr0 Mg11 3.103483 1_455
Cr0 Mg10 3.103483 1_455
Cr0 Mg1 3.141334 1_555
Cr0 Mg5 3.141334 1_555
Cr0 Mg5 3.141334 1_445
Cr0 Mg1 3.141334 1_545
Cr0 Mg3 3.141335 1_455
Cr0 Mg3 3.141335 1_555
