# generated using pymatgen
data_EuGa
_symmetry_space_group_name_H-M   'P 1'
_cell_length_a   5.79140438
_cell_length_b   6.23602738
_cell_length_c   6.47864823
_cell_angle_alpha   67.32973675
_cell_angle_beta   79.00539643
_cell_angle_gamma   83.69653311
_symmetry_Int_Tables_number   1
_chemical_formula_structural   EuGa
_chemical_formula_sum   'Eu4 Ga4'
_cell_volume   211.76811973
_cell_formula_units_Z   4
loop_
 _symmetry_equiv_pos_site_id
 _symmetry_equiv_pos_as_xyz
  1  'x, y, z'
loop_
 _atom_site_type_symbol
 _atom_site_label
 _atom_site_symmetry_multiplicity
 _atom_site_fract_x
 _atom_site_fract_y
 _atom_site_fract_z
 _atom_site_occupancy
  Eu  Eu0  1  0.76240344  0.85042691  0.92174644  1
  Eu  Eu1  1  0.23759656  0.14957309  0.07825356  1
  Eu  Eu2  1  0.32454610  0.69857598  0.64921791  1
  Eu  Eu3  1  0.67545390  0.30142402  0.35078209  1
  Ga  Ga0  1  0.86011438  0.75477587  0.42855438  1
  Ga  Ga1  1  0.13988562  0.24522413  0.57144562  1
  Ga  Ga2  1  0.79096638  0.38975508  0.80653679  1
  Ga  Ga3  1  0.20903362  0.61024492  0.19346321  1
loop_
_geom_bond_atom_site_label_1
_geom_bond_atom_site_label_2
_geom_bond_distance
_geom_bond_site_symmetry_2
Eu0 Ga2 3.167963 1_565
Eu0 Ga2 3.215384 1_555
Eu0 Ga0 3.252968 1_556
Eu0 Ga3 3.299456 1_656
Eu0 Ga1 3.312618 1_665
Eu0 Ga0 3.404526 1_555
Eu0 Eu3 3.494243 1_556
Eu0 Ga3 3.533069 1_556
Eu0 Eu1 3.575394 1_566
Eu0 Eu2 3.610034 1_655
Eu0 Eu2 3.737423 1_555
Eu0 Eu3 3.771805 1_565
Eu1 Ga3 3.167963 1_545
Eu1 Ga3 3.215384 1_555
Eu1 Ga1 3.252968 1_554
Eu1 Ga2 3.299456 1_454
Eu1 Ga0 3.312618 1_445
Eu1 Ga1 3.404526 1_555
Eu1 Eu2 3.494243 1_554
Eu1 Ga2 3.533069 1_554
Eu1 Eu3 3.610034 1_455
Eu1 Eu3 3.737423 1_555
Eu1 Eu2 3.771805 1_545
Eu2 Ga0 3.154080 1_555
Eu2 Ga0 3.205404 1_455
Eu2 Ga2 3.230939 1_555
Eu2 Ga3 3.296583 1_556
Eu2 Ga1 3.331551 1_565
Eu2 Ga1 3.370114 1_555
Eu2 Ga3 3.399609 1_555
Eu2 Ga2 3.590147 1_455
Eu2 Eu3 3.884503 1_555
Eu2 Eu3 4.071497 1_565
Eu3 Ga1 3.154080 1_555
Eu3 Ga1 3.205404 1_655
Eu3 Ga3 3.230939 1_555
Eu3 Ga2 3.296583 1_554
Eu3 Ga0 3.331551 1_545
Eu3 Ga0 3.370114 1_555
Eu3 Ga2 3.399609 1_555
Eu3 Ga3 3.590147 1_655
Ga0 Ga3 2.588389 1_655
Ga0 Ga2 2.620638 1_555
Ga1 Ga2 2.588389 1_455
Ga1 Ga3 2.620638 1_555
