# generated using pymatgen
data_Y2Ga3Ag
_symmetry_space_group_name_H-M   'P 1'
_cell_length_a   4.46157402
_cell_length_b   4.46157402
_cell_length_c   7.27245756
_cell_angle_alpha   90.00000000
_cell_angle_beta   90.00000000
_cell_angle_gamma   119.99998191
_symmetry_Int_Tables_number   1
_chemical_formula_structural   Y2Ga3Ag
_chemical_formula_sum   'Y2 Ga3 Ag1'
_cell_volume   125.36840815
_cell_formula_units_Z   1
loop_
 _symmetry_equiv_pos_site_id
 _symmetry_equiv_pos_as_xyz
  1  'x, y, z'
loop_
 _atom_site_type_symbol
 _atom_site_label
 _atom_site_symmetry_multiplicity
 _atom_site_fract_x
 _atom_site_fract_y
 _atom_site_fract_z
 _atom_site_occupancy
  Y  Y0  1  0.33333300  0.66666700  0.23992822  1
  Y  Y1  1  0.33333300  0.66666700  0.75811294  1
  Ga  Ga0  1  0.00000000  -0.00000000  0.96938779  1
  Ga  Ga1  1  0.00000000  -0.00000000  0.54753261  1
  Ga  Ga2  1  0.66666700  0.33333300  0.45445007  1
  Ag  Ag0  1  0.66666700  0.33333300  0.03058736  1
loop_
_geom_bond_atom_site_label_1
_geom_bond_atom_site_label_2
_geom_bond_distance
_geom_bond_site_symmetry_2
Ga0 Y1 2.999332 1_545
Ga0 Y1 2.999336 1_445
Ga0 Y1 2.999336 1_555
Ga0 Ga1 3.067924 1_555
Ga0 Y0 3.241332 1_546
Ga0 Y0 3.241335 1_446
Ga0 Y0 3.241335 1_556
Ga1 Ga2 2.663352 1_455
Ga1 Ga2 2.663357 1_445
Ga1 Ga2 2.663357 1_555
Ga1 Y1 2.996748 1_545
Ga1 Y1 2.996752 1_445
Ga1 Y1 2.996752 1_555
Ga1 Y0 3.411678 1_545
Ga1 Y0 3.411682 1_555
Ga1 Y0 3.411682 1_445
Ga2 Y0 3.011498 1_545
Ga2 Y0 3.011498 1_655
Ga2 Y0 3.011504 1_555
Ga2 Y1 3.392952 1_655
Ga2 Y1 3.392952 1_545
Ga2 Y1 3.392958 1_555
Ag0 Ga0 2.614056 1_654
Ag0 Ga0 2.614060 1_554
Ag0 Ga0 2.614060 1_664
Ag0 Y0 2.992152 1_545
Ag0 Y0 2.992152 1_655
Ag0 Y0 2.992158 1_555
Ag0 Ga2 3.082524 1_555
Ag0 Y1 3.249889 1_654
Ag0 Y1 3.249889 1_544
Ag0 Y1 3.249895 1_554
