# generated using pymatgen
data_Na2Ge(S2O7)3
_symmetry_space_group_name_H-M   'P 1'
_cell_length_a   9.89426900
_cell_length_b   12.92300300
_cell_length_c   14.85824400
_cell_angle_alpha   90.00000000
_cell_angle_beta   90.00000000
_cell_angle_gamma   90.00000000
_symmetry_Int_Tables_number   1
_chemical_formula_structural   Na2Ge(S2O7)3
_chemical_formula_sum   'Na8 Ge4 S24 O84'
_cell_volume   1899.82957743
_cell_formula_units_Z   4
loop_
 _symmetry_equiv_pos_site_id
 _symmetry_equiv_pos_as_xyz
  1  'x, y, z'
loop_
 _atom_site_type_symbol
 _atom_site_label
 _atom_site_symmetry_multiplicity
 _atom_site_fract_x
 _atom_site_fract_y
 _atom_site_fract_z
 _atom_site_occupancy
  Na  Na0  1  0.55979500  0.19803300  0.95965600  1
  Na  Na1  1  0.94020500  0.80196700  0.45965600  1
  Na  Na2  1  0.05979500  0.30196700  0.04034400  1
  Na  Na3  1  0.44020500  0.69803300  0.54034400  1
  Na  Na4  1  0.88512100  0.18325400  0.38444200  1
  Na  Na5  1  0.61487900  0.81674600  0.88444200  1
  Na  Na6  1  0.38512100  0.31674600  0.61555800  1
  Na  Na7  1  0.11487900  0.68325400  0.11555800  1
  Ge  Ge0  1  0.43303900  0.03319700  0.27659100  1
  Ge  Ge1  1  0.06696100  0.96680300  0.77659100  1
  Ge  Ge2  1  0.93303900  0.46680300  0.72340900  1
  Ge  Ge3  1  0.56696100  0.53319700  0.22340900  1
  S  S0  1  0.16554000  0.90316800  0.27575800  1
  S  S1  1  0.33446000  0.09683200  0.77575800  1
  S  S2  1  0.66554000  0.59683200  0.72424200  1
  S  S3  1  0.83446000  0.40316800  0.22424200  1
  S  S4  1  0.52035400  0.96832300  0.08637800  1
  S  S5  1  0.97964600  0.03167700  0.58637800  1
  S  S6  1  0.02035400  0.53167700  0.91362200  1
  S  S7  1  0.47964600  0.46832300  0.41362200  1
  S  S8  1  0.15184500  0.11964900  0.22611600  1
  S  S9  1  0.34815500  0.88035100  0.72611600  1
  S  S10  1  0.65184500  0.38035100  0.77388400  1
  S  S11  1  0.84815500  0.61964900  0.27388400  1
  S  S12  1  0.69935300  0.10613000  0.17981200  1
  S  S13  1  0.80064700  0.89387000  0.67981200  1
  S  S14  1  0.19935300  0.39387000  0.82018800  1
  S  S15  1  0.30064700  0.60613000  0.32018800  1
  S  S16  1  0.52805500  0.11503100  0.46162900  1
  S  S17  1  0.97194500  0.88496900  0.96162900  1
  S  S18  1  0.02805500  0.38496900  0.53837100  1
  S  S19  1  0.47194500  0.61503100  0.03837100  1
  S  S20  1  0.61552800  0.90781400  0.41733300  1
  S  S21  1  0.88447200  0.09218600  0.91733300  1
  S  S22  1  0.11552800  0.59218600  0.58266700  1
  S  S23  1  0.38447200  0.40781400  0.08266700  1
  O  O0  1  0.56540100  0.12569500  0.22863100  1
  O  O1  1  0.93459900  0.87430500  0.72863100  1
  O  O2  1  0.06540100  0.37430500  0.77136900  1
  O  O3  1  0.43459900  0.62569500  0.27136900  1
  O  O4  1  0.30625900  0.12696100  0.22500200  1
  O  O5  1  0.19374100  0.87303900  0.72500200  1
  O  O6  1  0.80625900  0.37303900  0.77499800  1
  O  O7  1  0.69374100  0.62696100  0.27499800  1
  O  O8  1  0.29154500  0.94641600  0.32252400  1
  O  O9  1  0.20845500  0.05358400  0.82252400  1
  O  O10  1  0.79154500  0.55358400  0.67747600  1
  O  O11  1  0.70845500  0.44641600  0.17747600  1
  O  O12  1  0.47088400  0.05849800  0.04071100  1
  O  O13  1  0.02911600  0.94150200  0.54071100  1
  O  O14  1  0.97088400  0.44150200  0.95928900  1
  O  O15  1  0.52911600  0.55849800  0.45928900  1
  O  O16  1  0.56899800  0.94302800  0.32471200  1
  O  O17  1  0.93100200  0.05697200  0.82471200  1
  O  O18  1  0.06899800  0.55697200  0.67528800  1
  O  O19  1  0.43100200  0.44302800  0.17528800  1
  O  O20  1  0.12505600  0.99669900  0.20345900  1
  O  O21  1  0.37494400  0.00330100  0.70345900  1
  O  O22  1  0.62505600  0.50330100  0.79654100  1
  O  O23  1  0.87494400  0.49669900  0.29654100  1
  O  O24  1  0.43900300  0.94623100  0.17184800  1
  O  O25  1  0.06099700  0.05376900  0.67184800  1
  O  O26  1  0.93900300  0.55376900  0.82815200  1
  O  O27  1  0.56099700  0.44623100  0.32815200  1
  O  O28  1  0.75940600  0.92036000  0.42366200  1
  O  O29  1  0.74059400  0.07964000  0.92366200  1
  O  O30  1  0.25940600  0.57964000  0.57633800  1
  O  O31  1  0.24059400  0.42036000  0.07633800  1
  O  O32  1  0.42454300  0.11237700  0.38493900  1
  O  O33  1  0.07545700  0.88762300  0.88493900  1
  O  O34  1  0.92454300  0.38762300  0.61506100  1
  O  O35  1  0.57545700  0.61237700  0.11506100  1
  O  O36  1  0.19359900  0.81774800  0.21741800  1
  O  O37  1  0.30640100  0.18225200  0.71741800  1
  O  O38  1  0.69359900  0.68225200  0.78258200  1
  O  O39  1  0.80640100  0.31774800  0.28258200  1
  O  O40  1  0.10035000  0.17114700  0.14816400  1
  O  O41  1  0.39965000  0.82885300  0.64816400  1
  O  O42  1  0.60035000  0.32885300  0.85183600  1
  O  O43  1  0.89965000  0.67114700  0.35183600  1
  O  O44  1  0.05878400  0.89475900  0.34023800  1
  O  O45  1  0.44121600  0.10524100  0.84023800  1
  O  O46  1  0.55878400  0.60524100  0.65976200  1
  O  O47  1  0.94121600  0.39475900  0.15976200  1
  O  O48  1  0.46592500  0.15718000  0.54013900  1
  O  O49  1  0.03407500  0.84282000  0.04013900  1
  O  O50  1  0.96592500  0.34282000  0.45986100  1
  O  O51  1  0.53407500  0.65718000  0.95986100  1
  O  O52  1  0.09702100  0.14283800  0.31327200  1
  O  O53  1  0.40297900  0.85716200  0.81327200  1
  O  O54  1  0.59702100  0.35716200  0.68672800  1
  O  O55  1  0.90297900  0.64283800  0.18672800  1
  O  O56  1  0.54022400  0.87408100  0.03758800  1
  O  O57  1  0.95977600  0.12591900  0.53758800  1
  O  O58  1  0.04022400  0.62591900  0.96241200  1
  O  O59  1  0.45977600  0.37408100  0.46241200  1
  O  O60  1  0.54246000  0.99035400  0.48709900  1
  O  O61  1  0.95754000  0.00964600  0.98709900  1
  O  O62  1  0.04246000  0.50964600  0.51290100  1
  O  O63  1  0.45754000  0.49035400  0.01290100  1
  O  O64  1  0.80797400  0.08223600  0.23996600  1
  O  O65  1  0.69202600  0.91776400  0.73996600  1
  O  O66  1  0.30797400  0.41776400  0.76003400  1
  O  O67  1  0.19202600  0.58223600  0.26003400  1
  O  O68  1  0.65793800  0.15127200  0.43284100  1
  O  O69  1  0.84206200  0.84872800  0.93284100  1
  O  O70  1  0.15793800  0.34872800  0.56715900  1
  O  O71  1  0.34206200  0.65127200  0.06715900  1
  O  O72  1  0.71730400  0.18334400  0.11155400  1
  O  O73  1  0.78269600  0.81665600  0.61155400  1
  O  O74  1  0.21730400  0.31665600  0.88844600  1
  O  O75  1  0.28269600  0.68334400  0.38844600  1
  O  O76  1  0.55766400  0.81073100  0.44309800  1
  O  O77  1  0.94233600  0.18926900  0.94309800  1
  O  O78  1  0.05766400  0.68926900  0.55690200  1
  O  O79  1  0.44233600  0.31073100  0.05690200  1
  O  O80  1  0.67180200  0.99354500  0.12768800  1
  O  O81  1  0.82819800  0.00645500  0.62768800  1
  O  O82  1  0.17180200  0.50645500  0.87231200  1
  O  O83  1  0.32819800  0.49354500  0.37231200  1
loop_
_geom_bond_atom_site_label_1
_geom_bond_atom_site_label_2
_geom_bond_distance
_geom_bond_site_symmetry_2
Na0 O12 2.340060 1_556
Na0 O79 2.357855 1_556
Na0 O42 2.363377 1_555
Na0 O29 2.413911 1_555
Na0 O45 2.441879 1_555
Na0 O72 2.749277 1_556
Na1 O13 2.340060 1_655
Na1 O78 2.357855 1_655
Na1 O43 2.363377 1_555
Na1 O28 2.413911 1_555
Na1 O44 2.441879 1_655
Na1 O73 2.749277 1_555
Na2 O14 2.340060 1_454
Na2 O77 2.357855 1_454
Na2 O40 2.363377 1_555
Na2 O31 2.413911 1_555
Na2 O47 2.441879 1_455
Na2 O74 2.749277 1_554
Na3 O15 2.340060 1_555
Na3 O76 2.357855 1_555
Na3 O41 2.363377 1_555
Na3 O30 2.413911 1_555
Na3 O46 2.441879 1_555
Na3 O75 2.749277 1_555
Na4 O68 2.395957 1_555
Na4 O52 2.405562 1_655
Na4 O39 2.432712 1_555
Na4 O50 2.479328 1_555
Na4 O57 2.504480 1_555
Na4 O64 2.625835 1_555
Na5 O69 2.395957 1_555
Na5 O53 2.405562 1_555
Na5 O38 2.432712 1_555
Na5 O51 2.479328 1_555
Na5 O56 2.504480 1_556
Na5 O65 2.625835 1_555
Na6 O70 2.395957 1_555
Na6 O54 2.405562 1_555
Na6 O37 2.432712 1_555
Na6 O48 2.479328 1_555
Na6 O59 2.504480 1_555
Na6 O66 2.625835 1_555
Na7 O71 2.395957 1_555
Na7 O55 2.405562 1_455
Na7 O36 2.432712 1_555
Na7 O49 2.479328 1_555
Na7 O58 2.504480 1_554
Na7 O67 2.625835 1_555
Ge0 O4 1.905075 1_555
Ge0 O32 1.909384 1_555
Ge0 O0 1.910964 1_555
Ge0 O16 1.917977 1_545
Ge0 O8 1.919225 1_545
Ge0 O24 1.920575 1_545
Ge1 O5 1.905075 1_555
Ge1 O33 1.909384 1_555
Ge1 O1 1.910964 1_455
Ge1 O17 1.917977 1_465
Ge1 O9 1.919225 1_565
Ge1 O25 1.920575 1_565
Ge2 O6 1.905075 1_555
Ge2 O34 1.909384 1_555
Ge2 O2 1.910964 1_655
Ge2 O18 1.917977 1_655
Ge2 O10 1.919225 1_555
Ge2 O26 1.920575 1_555
Ge3 O7 1.905075 1_555
Ge3 O35 1.909384 1_555
Ge3 O3 1.910964 1_555
Ge3 O19 1.917977 1_555
Ge3 O11 1.919225 1_555
Ge3 O27 1.920575 1_555
O0 S12 1.531879 1_555
O1 S13 1.531879 1_555
O2 S14 1.531879 1_555
O3 S15 1.531879 1_555
O4 S8 1.530822 1_555
O5 S9 1.530822 1_555
O6 S10 1.530822 1_555
O7 S11 1.530822 1_555
O8 S0 1.532815 1_555
O9 S1 1.532815 1_555
O10 S2 1.532815 1_555
O11 S3 1.532815 1_555
O12 S4 1.434567 1_545
O13 S5 1.434567 1_465
O14 S6 1.434567 1_655
O15 S7 1.434567 1_555
O16 S20 1.520831 1_555
O17 S21 1.520831 1_555
O18 S22 1.520831 1_555
O19 S23 1.520831 1_555
O20 S8 1.645641 1_565
O20 S0 1.665950 1_555
O21 S9 1.645641 1_545
O21 S1 1.665950 1_555
O22 S10 1.645641 1_555
O22 S2 1.665950 1_555
O23 S11 1.645641 1_555
O23 S3 1.665950 1_555
O24 S4 1.530398 1_555
O25 S5 1.530398 1_455
O26 S6 1.530398 1_655
O27 S7 1.530398 1_555
O28 S20 1.435853 1_555
O29 S21 1.435853 1_555
O30 S22 1.435853 1_555
O31 S23 1.435853 1_555
O32 S16 1.532489 1_555
O33 S17 1.532489 1_455
O34 S18 1.532489 1_655
O35 S19 1.532489 1_555
O36 S0 1.430743 1_555
O37 S1 1.430743 1_555
O38 S2 1.430743 1_555
O39 S3 1.430743 1_555
O40 S8 1.429683 1_555
O41 S9 1.429683 1_555
O42 S10 1.429683 1_555
O43 S11 1.429683 1_555
O44 S0 1.430174 1_555
O45 S1 1.430174 1_555
O46 S2 1.430174 1_555
O47 S3 1.430174 1_555
O48 S16 1.426658 1_555
O49 S17 1.426658 1_454
O50 S18 1.426658 1_655
O51 S19 1.426658 1_556
O52 S8 1.435630 1_555
O53 S9 1.435630 1_555
O54 S10 1.435630 1_555
O55 S11 1.435630 1_555
O56 S4 1.430886 1_555
O57 S5 1.430886 1_555
O58 S6 1.430886 1_555
O59 S7 1.430886 1_555
O60 S20 1.653777 1_555
O60 S16 1.661174 1_565
O61 S21 1.653777 1_555
O61 S17 1.661174 1_545
O62 S22 1.653777 1_555
O62 S18 1.661174 1_555
O63 S23 1.653777 1_555
O63 S19 1.661174 1_555
O64 S12 1.431513 1_555
O65 S13 1.431513 1_555
O66 S14 1.431513 1_555
O67 S15 1.431513 1_555
O68 S16 1.433102 1_555
O69 S17 1.433102 1_555
O70 S18 1.433102 1_555
O71 S19 1.433102 1_555
O72 S12 1.433811 1_555
O73 S13 1.433811 1_555
O74 S14 1.433811 1_555
O75 S15 1.433811 1_555
O76 S20 1.431211 1_555
O77 S21 1.431211 1_555
O78 S22 1.431211 1_555
O79 S23 1.431211 1_555
O80 S4 1.651783 1_555
O80 S12 1.670615 1_565
O81 S5 1.651783 1_555
O81 S13 1.670615 1_545
O82 S6 1.651783 1_555
O82 S14 1.670615 1_555
O83 S7 1.651783 1_555
O83 S15 1.670615 1_555
