# generated using pymatgen
data_Ce15Ni32
_symmetry_space_group_name_H-M   'P 1'
_cell_length_a   10.09239791
_cell_length_b   10.09239791
_cell_length_c   10.09239791
_cell_angle_alpha   60.00000000
_cell_angle_beta   60.00000000
_cell_angle_gamma   60.00000000
_symmetry_Int_Tables_number   1
_chemical_formula_structural   Ce15Ni32
_chemical_formula_sum   'Ce15 Ni32'
_cell_volume   726.88900046
_cell_formula_units_Z   1
loop_
 _symmetry_equiv_pos_site_id
 _symmetry_equiv_pos_as_xyz
  1  'x, y, z'
loop_
 _atom_site_type_symbol
 _atom_site_label
 _atom_site_symmetry_multiplicity
 _atom_site_fract_x
 _atom_site_fract_y
 _atom_site_fract_z
 _atom_site_occupancy
  Ce  Ce0  1  0.99219500  0.99219500  0.50780500  1
  Ce  Ce1  1  0.50780500  0.99219500  0.99219500  1
  Ce  Ce2  1  0.99219500  0.50780500  0.99219500  1
  Ce  Ce3  1  0.50780500  0.50780500  0.99219500  1
  Ce  Ce4  1  0.99219500  0.50780500  0.50780500  1
  Ce  Ce5  1  0.50780500  0.99219500  0.50780500  1
  Ce  Ce6  1  0.37425800  0.37425800  0.37425800  1
  Ce  Ce7  1  0.37425800  0.87722700  0.37425800  1
  Ce  Ce8  1  0.87722700  0.37425800  0.37425800  1
  Ce  Ce9  1  0.37425800  0.37425800  0.87722700  1
  Ce  Ce10  1  0.50000000  0.50000000  0.50000000  1
  Ce  Ce11  1  0.89444600  0.89444600  0.89444600  1
  Ce  Ce12  1  0.89444600  0.31666200  0.89444600  1
  Ce  Ce13  1  0.31666200  0.89444600  0.89444600  1
  Ce  Ce14  1  0.89444600  0.89444600  0.31666200  1
  Ni  Ni0  1  0.18860300  0.68415000  0.18860300  1
  Ni  Ni1  1  0.18860300  0.18860300  0.68415000  1
  Ni  Ni2  1  0.68415000  0.18860300  0.18860300  1
  Ni  Ni3  1  0.18860300  0.93864400  0.18860300  1
  Ni  Ni4  1  0.68415000  0.93864400  0.18860300  1
  Ni  Ni5  1  0.18860300  0.93864400  0.68415000  1
  Ni  Ni6  1  0.93864400  0.18860300  0.68415000  1
  Ni  Ni7  1  0.93864400  0.68415000  0.18860300  1
  Ni  Ni8  1  0.93864400  0.18860300  0.18860300  1
  Ni  Ni9  1  0.68415000  0.18860300  0.93864400  1
  Ni  Ni10  1  0.18860300  0.18860300  0.93864400  1
  Ni  Ni11  1  0.18860300  0.68415000  0.93864400  1
  Ni  Ni12  1  0.68825400  0.18546200  0.68825400  1
  Ni  Ni13  1  0.68825400  0.68825400  0.18546200  1
  Ni  Ni14  1  0.18546200  0.68825400  0.68825400  1
  Ni  Ni15  1  0.68825400  0.43802900  0.68825400  1
  Ni  Ni16  1  0.18546200  0.43802900  0.68825400  1
  Ni  Ni17  1  0.68825400  0.43802900  0.18546200  1
  Ni  Ni18  1  0.43802900  0.68825400  0.18546200  1
  Ni  Ni19  1  0.43802900  0.18546200  0.68825400  1
  Ni  Ni20  1  0.43802900  0.68825400  0.68825400  1
  Ni  Ni21  1  0.18546200  0.68825400  0.43802900  1
  Ni  Ni22  1  0.68825400  0.68825400  0.43802900  1
  Ni  Ni23  1  0.68825400  0.18546200  0.43802900  1
  Ni  Ni24  1  0.68824200  0.68824200  0.68824200  1
  Ni  Ni25  1  0.68824200  0.93527300  0.68824200  1
  Ni  Ni26  1  0.93527300  0.68824200  0.68824200  1
  Ni  Ni27  1  0.68824200  0.68824200  0.93527300  1
  Ni  Ni28  1  0.18786000  0.18786000  0.18786000  1
  Ni  Ni29  1  0.18786000  0.43642000  0.18786000  1
  Ni  Ni30  1  0.43642000  0.18786000  0.18786000  1
  Ni  Ni31  1  0.18786000  0.18786000  0.43642000  1
loop_
_geom_bond_atom_site_label_1
_geom_bond_atom_site_label_2
_geom_bond_distance
_geom_bond_site_symmetry_2
Ce0 Ni25 2.861181 1_555
Ce0 Ni26 2.861181 1_555
Ce0 Ni14 2.917756 1_655
Ce0 Ni12 2.917756 1_565
Ce0 Ni21 2.917761 1_655
Ce0 Ni23 2.917761 1_565
Ce0 Ni3 2.980517 1_655
Ce0 Ni8 2.980517 1_565
Ce0 Ni5 2.980517 1_655
Ce0 Ni6 2.980517 1_565
Ce0 Ni28 3.061427 1_665
Ce0 Ni31 3.061427 1_665
Ce1 Ni27 2.861181 1_555
Ce1 Ni25 2.861181 1_555
Ce1 Ni13 2.917756 1_556
Ce1 Ni12 2.917756 1_565
Ce1 Ni19 2.917761 1_565
Ce1 Ni18 2.917761 1_556
Ce1 Ni10 2.980517 1_565
Ce1 Ni3 2.980517 1_556
Ce1 Ni4 2.980517 1_556
Ce1 Ni9 2.980517 1_565
Ce1 Ni28 3.061427 1_566
Ce1 Ni30 3.061427 1_566
Ce2 Ni27 2.861181 1_555
Ce2 Ni26 2.861181 1_555
Ce2 Ni13 2.917756 1_556
Ce2 Ni14 2.917756 1_655
Ce2 Ni17 2.917761 1_556
Ce2 Ni16 2.917761 1_655
Ce2 Ni10 2.980517 1_655
Ce2 Ni8 2.980517 1_556
Ce2 Ni7 2.980517 1_556
Ce2 Ni11 2.980517 1_655
Ce2 Ni28 3.061427 1_656
Ce2 Ni29 3.061427 1_656
Ce3 Ni27 2.861172 1_555
Ce3 Ni24 2.861177 1_555
Ce3 Ni17 2.917752 1_556
Ce3 Ni18 2.917752 1_556
Ce3 Ni15 2.917761 1_555
Ce3 Ni20 2.917761 1_555
Ce3 Ni11 2.980517 1_555
Ce3 Ni9 2.980517 1_555
Ce3 Ni0 2.980517 1_556
Ce3 Ni2 2.980517 1_556
Ce3 Ni29 3.061427 1_556
Ce3 Ni30 3.061427 1_556
Ce4 Ni26 2.861172 1_555
Ce4 Ni24 2.861177 1_555
Ce4 Ni16 2.917752 1_655
Ce4 Ni21 2.917752 1_655
Ce4 Ni22 2.917761 1_555
Ce4 Ni15 2.917761 1_555
Ce4 Ni6 2.980517 1_555
Ce4 Ni7 2.980517 1_555
Ce4 Ni0 2.980517 1_655
Ce4 Ni1 2.980517 1_655
Ce4 Ni31 3.061427 1_655
Ce4 Ni29 3.061427 1_655
Ce5 Ni25 2.861172 1_555
Ce5 Ni24 2.861177 1_555
Ce5 Ni19 2.917752 1_565
Ce5 Ni23 2.917752 1_565
Ce5 Ni22 2.917761 1_555
Ce5 Ni20 2.917761 1_555
Ce5 Ni5 2.980517 1_555
Ce5 Ni4 2.980517 1_555
Ce5 Ni1 2.980517 1_565
Ce5 Ni2 2.980517 1_565
Ce5 Ni30 3.061427 1_565
Ce5 Ni31 3.061427 1_565
Ce6 Ni1 2.931497 1_555
Ce6 Ni2 2.931497 1_555
Ce6 Ni0 2.931497 1_555
Ce6 Ni30 2.941082 1_555
Ce6 Ni31 2.941082 1_555
Ce6 Ni29 2.941082 1_555
Ce6 Ni16 2.976951 1_555
Ce6 Ni17 2.976951 1_555
Ce6 Ni18 2.976951 1_555
Ce6 Ni19 2.976951 1_555
Ce6 Ni23 2.976951 1_555
Ce6 Ni21 2.976951 1_555
Ce7 Ni5 2.931492 1_555
Ce7 Ni4 2.931492 1_555
Ce7 Ni3 2.931501 1_555
Ce7 Ni30 2.941073 1_565
Ce7 Ni31 2.941073 1_565
Ce7 Ni28 2.941077 1_565
Ce7 Ni20 2.976951 1_555
Ce7 Ni22 2.976951 1_555
Ce7 Ni14 2.976960 1_555
Ce7 Ni13 2.976960 1_555
Ce7 Ni18 2.976968 1_555
Ce7 Ni21 2.976968 1_555
Ce8 Ni6 2.931492 1_555
Ce8 Ni7 2.931492 1_555
Ce8 Ni8 2.931501 1_555
Ce8 Ni29 2.941073 1_655
Ce8 Ni31 2.941073 1_655
Ce8 Ni28 2.941077 1_655
Ce8 Ni22 2.976951 1_555
Ce8 Ni15 2.976951 1_555
Ce8 Ni13 2.976960 1_555
Ce8 Ni12 2.976960 1_555
Ce8 Ni17 2.976968 1_555
Ce8 Ni23 2.976968 1_555
Ce9 Ni9 2.931492 1_555
Ce9 Ni11 2.931492 1_555
Ce9 Ni10 2.931501 1_555
Ce9 Ni29 2.941073 1_556
Ce9 Ni30 2.941073 1_556
Ce9 Ni28 2.941077 1_556
Ce9 Ni20 2.976951 1_555
Ce9 Ni15 2.976951 1_555
Ce9 Ni14 2.976960 1_555
Ce9 Ni12 2.976960 1_555
Ce9 Ni19 2.976968 1_555
Ce9 Ni16 2.976968 1_555
Ce10 Ni22 2.973861 1_555
Ce10 Ni15 2.973861 1_555
Ce10 Ni20 2.973861 1_555
Ce10 Ni12 2.973865 1_555
Ce10 Ni13 2.973865 1_555
Ce10 Ni14 2.973865 1_555
Ce10 Ni19 2.973869 1_555
Ce10 Ni16 2.973869 1_555
Ce10 Ni21 2.973869 1_555
Ce10 Ni23 2.973869 1_555
Ce10 Ni17 2.973869 1_555
Ce10 Ni18 2.973869 1_555
Ce11 Ni9 2.755662 1_565
Ce11 Ni4 2.755662 1_556
Ce11 Ni6 2.755662 1_565
Ce11 Ni5 2.755662 1_655
Ce11 Ni11 2.755662 1_655
Ce11 Ni7 2.755662 1_556
Ce11 Ni12 3.064923 1_565
Ce11 Ni13 3.064923 1_556
Ce11 Ni14 3.064923 1_655
Ce11 Ni27 3.383434 1_555
Ce11 Ni25 3.383434 1_555
Ce11 Ni26 3.383434 1_555
Ce12 Ni8 2.755662 1_556
Ce12 Ni10 2.755662 1_655
Ce12 Ni1 2.755662 1_655
Ce12 Ni2 2.755662 1_556
Ce12 Ni9 2.755662 1_555
Ce12 Ni6 2.755662 1_555
Ce12 Ni16 3.064918 1_655
Ce12 Ni17 3.064918 1_556
Ce12 Ni15 3.064926 1_555
Ce12 Ni27 3.383425 1_555
Ce12 Ni26 3.383425 1_555
Ce12 Ni24 3.383429 1_555
Ce13 Ni10 2.755662 1_565
Ce13 Ni3 2.755662 1_556
Ce13 Ni0 2.755662 1_556
Ce13 Ni1 2.755662 1_565
Ce13 Ni11 2.755662 1_555
Ce13 Ni5 2.755662 1_555
Ce13 Ni19 3.064918 1_565
Ce13 Ni18 3.064918 1_556
Ce13 Ni20 3.064926 1_555
Ce13 Ni27 3.383425 1_555
Ce13 Ni25 3.383425 1_555
Ce13 Ni24 3.383429 1_555
Ce14 Ni8 2.755662 1_565
Ce14 Ni3 2.755662 1_655
Ce14 Ni2 2.755662 1_565
Ce14 Ni0 2.755662 1_655
Ce14 Ni4 2.755662 1_555
Ce14 Ni7 2.755662 1_555
Ce14 Ni21 3.064918 1_655
Ce14 Ni23 3.064918 1_565
Ce14 Ni22 3.064926 1_555
Ce14 Ni25 3.383425 1_555
Ce14 Ni26 3.383425 1_555
Ce14 Ni24 3.383429 1_555
Ni0 Ni29 2.507711 1_555
Ni0 Ni21 2.522440 1_555
Ni0 Ni18 2.522440 1_555
Ni0 Ni11 2.522686 1_554
Ni0 Ni7 2.522686 1_455
Ni0 Ni3 2.568455 1_555
Ni1 Ni31 2.507711 1_555
Ni1 Ni16 2.522440 1_555
Ni1 Ni19 2.522440 1_555
Ni1 Ni6 2.522686 1_455
Ni1 Ni5 2.522686 1_545
Ni1 Ni10 2.568455 1_555
Ni2 Ni30 2.507711 1_555
Ni2 Ni23 2.522440 1_555
Ni2 Ni9 2.522686 1_554
Ni2 Ni4 2.522686 1_545
Ni2 Ni8 2.568455 1_555
Ni3 Ni8 2.522686 1_465
Ni4 Ni9 2.522686 1_564
Ni4 Ni7 2.568455 1_555
Ni5 Ni6 2.522686 1_465
Ni6 Ni9 2.568455 1_555
Ni10 Ni28 2.507711 1_556
Ni10 Ni19 2.522445 1_555
Ni10 Ni16 2.522445 1_555
Ni10 Ni8 2.522686 1_456
Ni10 Ni3 2.522686 1_546
Ni11 Ni29 2.507711 1_556
Ni11 Ni20 2.522445 1_555
Ni11 Ni14 2.522450 1_555
Ni11 Ni7 2.522686 1_456
Ni11 Ni5 2.568455 1_555
Ni12 Ni9 2.522450 1_555
Ni12 Ni6 2.522450 1_555
Ni12 Ni25 2.525128 1_545
Ni12 Ni19 2.525370 1_555
Ni12 Ni23 2.525370 1_555
Ni12 Ni15 2.549007 1_555
Ni13 Ni4 2.522450 1_555
Ni13 Ni7 2.522450 1_555
Ni13 Ni27 2.525128 1_554
Ni13 Ni18 2.525370 1_555
Ni13 Ni17 2.525370 1_555
Ni13 Ni22 2.549007 1_555
Ni14 Ni5 2.522450 1_555
Ni14 Ni26 2.525128 1_455
Ni14 Ni16 2.525370 1_555
Ni14 Ni21 2.525370 1_555
Ni14 Ni20 2.549007 1_555
Ni15 Ni9 2.522445 1_555
Ni15 Ni6 2.522445 1_555
Ni15 Ni24 2.525128 1_555
Ni15 Ni20 2.525370 1_555
Ni15 Ni22 2.525370 1_555
Ni16 Ni26 2.525128 1_455
Ni16 Ni21 2.525370 1_555
Ni16 Ni19 2.549007 1_555
Ni17 Ni2 2.522440 1_555
Ni17 Ni8 2.522445 1_555
Ni17 Ni27 2.525128 1_554
Ni17 Ni18 2.525370 1_555
Ni17 Ni23 2.549007 1_555
Ni18 Ni3 2.522445 1_555
Ni18 Ni27 2.525128 1_554
Ni18 Ni21 2.549007 1_555
Ni19 Ni25 2.525128 1_545
Ni19 Ni23 2.525370 1_555
Ni20 Ni5 2.522445 1_555
Ni20 Ni24 2.525128 1_555
Ni20 Ni22 2.525370 1_555
Ni21 Ni3 2.522445 1_555
Ni21 Ni26 2.525128 1_455
Ni22 Ni4 2.522445 1_555
Ni22 Ni7 2.522445 1_555
Ni22 Ni24 2.525128 1_555
Ni23 Ni8 2.522445 1_555
Ni23 Ni25 2.525128 1_545
Ni24 Ni25 2.493135 1_555
Ni24 Ni26 2.493135 1_555
Ni24 Ni27 2.493135 1_555
Ni25 Ni27 2.493135 1_555
Ni25 Ni26 2.493135 1_555
Ni26 Ni27 2.493135 1_555
Ni28 Ni3 2.507711 1_545
Ni28 Ni8 2.507711 1_455
Ni28 Ni29 2.508566 1_555
Ni28 Ni30 2.508566 1_555
Ni28 Ni31 2.508566 1_555
Ni29 Ni7 2.507711 1_455
Ni29 Ni30 2.508566 1_555
Ni29 Ni31 2.508566 1_555
Ni30 Ni9 2.507711 1_554
Ni30 Ni4 2.507711 1_545
Ni30 Ni31 2.508566 1_555
Ni31 Ni5 2.507711 1_545
Ni31 Ni6 2.507711 1_455
