# generated using pymatgen
data_MgMn2O4
_symmetry_space_group_name_H-M   'P 1'
_cell_length_a   5.81698200
_cell_length_b   6.08458174
_cell_length_c   6.11376382
_cell_angle_alpha   118.36386505
_cell_angle_beta   117.74350659
_cell_angle_gamma   91.12685724
_symmetry_Int_Tables_number   1
_chemical_formula_structural   MgMn2O4
_chemical_formula_sum   'Mg2 Mn4 O8'
_cell_volume   160.26309948
_cell_formula_units_Z   2
loop_
 _symmetry_equiv_pos_site_id
 _symmetry_equiv_pos_as_xyz
  1  'x, y, z'
loop_
 _atom_site_type_symbol
 _atom_site_label
 _atom_site_symmetry_multiplicity
 _atom_site_fract_x
 _atom_site_fract_y
 _atom_site_fract_z
 _atom_site_occupancy
  Mg  Mg0  1  0.00000000  0.00000000  0.00000000  1
  Mg  Mg1  1  0.00000000  0.50000000  0.50000000  1
  Mn  Mn0  1  0.50000000  0.00000000  0.00000000  1
  Mn  Mn1  1  0.50000000  0.00000000  0.50000000  1
  Mn  Mn2  1  0.00000000  0.00000000  0.50000000  1
  Mn  Mn3  1  0.50000000  0.50000000  0.00000000  1
  O  O0  1  0.76982200  0.80821800  0.06981200  1
  O  O1  1  0.24696500  0.75752800  0.96517300  1
  O  O2  1  0.75431500  0.21142500  0.49591300  1
  O  O3  1  0.24017400  0.21666600  0.48865300  1
  O  O4  1  0.24568500  0.78857500  0.50408700  1
  O  O5  1  0.75303500  0.24247200  0.03482700  1
  O  O6  1  0.75982600  0.78333400  0.51134700  1
  O  O7  1  0.23017800  0.19178200  0.93018800  1
loop_
_geom_bond_atom_site_label_1
_geom_bond_atom_site_label_2
_geom_bond_distance
_geom_bond_site_symmetry_2
Mg0 O7 2.068925 1_554
Mg0 O0 2.068925 1_445
Mg0 O5 2.086969 1_455
Mg0 O1 2.086969 1_544
Mg0 O3 2.216875 1_555
Mg0 O6 2.216875 1_444
Mg1 O1 2.116773 1_555
Mg1 O5 2.116773 1_455
Mg1 O2 2.225418 1_455
Mg1 O4 2.225418 1_555
Mg1 O6 2.236084 1_455
Mg1 O3 2.236084 1_555
Mn0 O5 1.926859 1_555
Mn0 O1 1.926859 1_544
Mn0 O0 1.982146 1_545
Mn0 O7 1.982146 1_554
Mn0 O2 2.253705 1_555
Mn0 O4 2.253705 1_544
Mn1 O4 1.958086 1_545
Mn1 O2 1.958086 1_555
Mn1 O3 2.023554 1_555
Mn1 O6 2.023554 1_545
Mn1 O5 2.425885 1_556
Mn1 O1 2.425885 1_544
Mn2 O4 1.941030 1_545
Mn2 O2 1.941030 1_455
Mn2 O3 1.949187 1_555
Mn2 O6 1.949187 1_445
Mn2 O7 1.953355 1_555
Mn2 O0 1.953355 1_445
Mn3 O7 2.159328 1_554
Mn3 O0 2.159328 1_555
Mn3 O1 2.187028 1_554
Mn3 O5 2.187028 1_555
Mn3 O6 2.325386 1_555
Mn3 O3 2.325386 1_554
