# generated using pymatgen
data_PWO5
_symmetry_space_group_name_H-M   'P 1'
_cell_length_a   10.35183420
_cell_length_b   9.08327451
_cell_length_c   7.11518996
_cell_angle_alpha   78.40890849
_cell_angle_beta   59.26734726
_cell_angle_gamma   42.32374424
_symmetry_Int_Tables_number   1
_chemical_formula_structural   PWO5
_chemical_formula_sum   'P4 W4 O20'
_cell_volume   368.67523774
_cell_formula_units_Z   4
loop_
 _symmetry_equiv_pos_site_id
 _symmetry_equiv_pos_as_xyz
  1  'x, y, z'
loop_
 _atom_site_type_symbol
 _atom_site_label
 _atom_site_symmetry_multiplicity
 _atom_site_fract_x
 _atom_site_fract_y
 _atom_site_fract_z
 _atom_site_occupancy
  P  P0  1  0.78563400  0.78563400  0.21436600  1
  P  P1  1  0.46436600  0.46436600  0.03563400  1
  P  P2  1  0.21436600  0.21436600  0.78563400  1
  P  P3  1  0.03563400  0.03563400  0.46436600  1
  W  W0  1  0.62500000  0.62500000  0.12500000  1
  W  W1  1  0.62500000  0.12500000  0.62500000  1
  W  W2  1  0.62500000  0.62500000  0.62500000  1
  W  W3  1  0.12500000  0.62500000  0.62500000  1
  O  O0  1  0.96941900  0.35268100  0.99029300  1
  O  O1  1  0.41761200  0.41761200  0.58238800  1
  O  O2  1  0.89606000  0.06189400  0.40174600  1
  O  O3  1  0.25970700  0.56239300  0.28058100  1
  O  O4  1  0.35268100  0.96941900  0.68760700  1
  O  O5  1  0.35394000  0.18810600  0.84825400  1
  O  O6  1  0.83238800  0.83238800  0.66761200  1
  O  O7  1  0.58238800  0.58238800  0.41761200  1
  O  O8  1  0.66761200  0.66761200  0.83238800  1
  O  O9  1  0.28058100  0.89731900  0.25970700  1
  O  O10  1  0.68760700  0.99029300  0.35268100  1
  O  O11  1  0.56239300  0.25970700  0.89731900  1
  O  O12  1  0.99029300  0.68760700  0.96941900  1
  O  O13  1  0.06189400  0.89606000  0.64030000  1
  O  O14  1  0.60970000  0.84825400  0.18810600  1
  O  O15  1  0.40174600  0.64030000  0.89606000  1
  O  O16  1  0.84825400  0.60970000  0.35394000  1
  O  O17  1  0.64030000  0.40174600  0.06189400  1
  O  O18  1  0.89731900  0.28058100  0.56239300  1
  O  O19  1  0.18810600  0.35394000  0.60970000  1
loop_
_geom_bond_atom_site_label_1
_geom_bond_atom_site_label_2
_geom_bond_distance
_geom_bond_site_symmetry_2
O0 P2 1.542428 1_655
O0 W0 2.041597 1_556
O1 W3 1.915478 1_555
O1 W1 1.915478 1_555
O2 P3 1.564812 1_655
O2 W1 2.038938 1_555
O3 P1 1.542428 1_555
O3 W3 2.041597 1_555
O4 P2 1.542428 1_565
O4 W2 2.041597 1_555
O5 P2 1.564812 1_555
O5 W1 2.038938 1_555
O6 W1 1.915478 1_565
O6 W3 1.915478 1_655
O7 W2 1.915478 1_555
O7 W0 1.915478 1_555
O8 W2 1.915478 1_555
O8 W0 1.915478 1_556
O9 P3 1.542428 1_565
O9 W0 2.041597 1_555
O10 P0 1.542428 1_555
O10 W1 2.041597 1_565
O11 P1 1.542428 1_556
O11 W1 2.041597 1_555
O12 P0 1.542428 1_556
O12 W3 2.041597 1_655
O13 P3 1.564812 1_565
O13 W3 2.038938 1_555
O14 P0 1.564812 1_555
O14 W0 2.038938 1_555
O15 P1 1.564812 1_556
O15 W2 2.038938 1_555
O16 P0 1.564812 1_555
O16 W2 2.038938 1_555
O17 P1 1.564812 1_555
O17 W0 2.038938 1_555
O18 P3 1.542428 1_655
O18 W2 2.041597 1_555
O19 P2 1.564812 1_555
O19 W3 2.038938 1_555
