# generated using pymatgen
data_KTiPO5
_symmetry_space_group_name_H-M   'P 1'
_cell_length_a   6.42726046
_cell_length_b   10.44750828
_cell_length_c   12.80035444
_cell_angle_alpha   90.00000000
_cell_angle_beta   90.00000000
_cell_angle_gamma   90.00000000
_symmetry_Int_Tables_number   1
_chemical_formula_structural   KTiPO5
_chemical_formula_sum   'K8 Ti8 P8 O40'
_cell_volume   859.52916822
_cell_formula_units_Z   8
loop_
 _symmetry_equiv_pos_site_id
 _symmetry_equiv_pos_as_xyz
  1  'x, y, z'
loop_
 _atom_site_type_symbol
 _atom_site_label
 _atom_site_symmetry_multiplicity
 _atom_site_fract_x
 _atom_site_fract_y
 _atom_site_fract_z
 _atom_site_occupancy
  K  K0  1  0.70992610  0.61193005  0.89382925  1
  K  K1  1  0.29007390  0.11193005  0.10617075  1
  K  K2  1  0.20992610  0.11193005  0.60617075  1
  K  K3  1  0.79007390  0.61193005  0.39382925  1
  K  K4  1  0.79624598  0.87137997  0.61431822  1
  K  K5  1  0.20375402  0.37137997  0.38568178  1
  K  K6  1  0.29624598  0.37137997  0.88568178  1
  K  K7  1  0.70375402  0.87137997  0.11431822  1
  Ti  Ti0  1  0.00489577  0.99032412  0.87256907  1
  Ti  Ti1  1  0.99510423  0.49032412  0.12743093  1
  Ti  Ti2  1  0.50489577  0.49032412  0.62743093  1
  Ti  Ti3  1  0.49510423  0.99032412  0.37256907  1
  Ti  Ti4  1  0.24986434  0.73098869  0.76071110  1
  Ti  Ti5  1  0.75013566  0.23098869  0.23928890  1
  Ti  Ti6  1  0.74986434  0.23098869  0.73928890  1
  Ti  Ti7  1  0.25013566  0.73098869  0.26071110  1
  P  P0  1  0.16855114  0.74563698  0.01076676  1
  P  P1  1  0.83144886  0.24563698  0.98923324  1
  P  P2  1  0.66855114  0.24563698  0.48923324  1
  P  P3  1  0.33144886  0.74563698  0.51076676  1
  P  P4  1  0.00698245  0.48366094  0.67829665  1
  P  P5  1  0.99301755  0.98366094  0.32170335  1
  P  P6  1  0.50698245  0.98366094  0.82170335  1
  P  P7  1  0.49301755  0.48366094  0.17829665  1
  O  O0  1  0.04847563  0.87111494  0.99875128  1
  O  O1  1  0.95152437  0.37111494  0.00124872  1
  O  O2  1  0.54847563  0.37111494  0.50124872  1
  O  O3  1  0.45152437  0.87111494  0.49875128  1
  O  O4  1  0.01247677  0.63632415  0.02354377  1
  O  O5  1  0.98752323  0.13632415  0.97645623  1
  O  O6  1  0.51247677  0.13632415  0.47645623  1
  O  O7  1  0.48752323  0.63632415  0.52354377  1
  O  O8  1  0.30574761  0.71583706  0.91500406  1
  O  O9  1  0.69425239  0.21583706  0.08499594  1
  O  O10  1  0.80574761  0.21583706  0.58499594  1
  O  O11  1  0.19425239  0.71583706  0.41500406  1
  O  O12  1  0.30871696  0.75682959  0.10771791  1
  O  O13  1  0.69128304  0.25682959  0.89228209  1
  O  O14  1  0.80871696  0.25682959  0.39228209  1
  O  O15  1  0.19128304  0.75682959  0.60771791  1
  O  O16  1  0.54072994  0.34923478  0.71150602  1
  O  O17  1  0.45927006  0.84923478  0.28849398  1
  O  O18  1  0.04072994  0.84923478  0.78849398  1
  O  O19  1  0.95927006  0.34923478  0.21150602  1
  O  O20  1  0.45508990  0.60223903  0.73296009  1
  O  O21  1  0.54491010  0.10223903  0.26703991  1
  O  O22  1  0.95508990  0.10223903  0.76703991  1
  O  O23  1  0.04491010  0.60223903  0.23296009  1
  O  O24  1  0.19449117  0.46293879  0.60613302  1
  O  O25  1  0.80550883  0.96293879  0.39386698  1
  O  O26  1  0.69449117  0.96293879  0.89386698  1
  O  O27  1  0.30550883  0.46293879  0.10613302  1
  O  O28  1  0.81557408  0.51982451  0.61432599  1
  O  O29  1  0.18442592  0.01982451  0.38567401  1
  O  O30  1  0.31557408  0.01982451  0.88567401  1
  O  O31  1  0.68442592  0.51982451  0.11432599  1
  O  O32  1  0.97061118  0.36080872  0.74223011  1
  O  O33  1  0.02938882  0.86080872  0.25776989  1
  O  O34  1  0.47061118  0.86080872  0.75776989  1
  O  O35  1  0.52938882  0.36080872  0.24223011  1
  O  O36  1  0.04745316  0.58882467  0.76008940  1
  O  O37  1  0.95254684  0.08882467  0.23991060  1
  O  O38  1  0.54745316  0.08882467  0.73991060  1
  O  O39  1  0.45254684  0.58882467  0.26008940  1
loop_
_geom_bond_atom_site_label_1
_geom_bond_atom_site_label_2
_geom_bond_distance
_geom_bond_site_symmetry_2
K0 O4 2.569672 1_656
K0 O20 2.633096 1_555
K0 O36 2.774007 1_655
K0 O8 2.828478 1_555
K0 O31 2.986466 1_556
K0 O1 3.260632 1_556
K1 O5 2.569672 1_454
K1 O21 2.633096 1_555
K1 O37 2.774007 1_455
K1 O9 2.828478 1_555
K1 O30 2.986466 1_554
K1 O0 3.260632 1_544
K2 O6 2.569672 1_555
K2 O22 2.633096 1_455
K2 O38 2.774007 1_555
K2 O10 2.828478 1_455
K2 O29 2.986466 1_555
K2 O3 3.260632 1_545
K3 O7 2.569672 1_555
K3 O23 2.633096 1_655
K3 O39 2.774007 1_555
K3 O11 2.828478 1_655
K3 O28 2.986466 1_555
K3 O2 3.260632 1_555
K4 O3 2.664072 1_555
K4 O18 2.737413 1_655
K4 O34 2.786457 1_555
K4 O15 2.808191 1_655
K4 O25 2.980170 1_555
K5 O2 2.664072 1_555
K5 O19 2.737413 1_455
K5 O35 2.786457 1_555
K5 O14 2.808191 1_455
K5 O24 2.980170 1_555
K6 O1 2.664072 1_456
K6 O16 2.737413 1_555
K6 O32 2.786457 1_455
K6 O13 2.808191 1_555
K6 O27 2.980170 1_556
K7 O0 2.664072 1_654
K7 O17 2.737413 1_555
K7 O33 2.786457 1_655
K7 O12 2.808191 1_555
K7 O26 2.980170 1_554
O0 P0 1.528989 1_556
O0 Ti0 2.058730 1_555
O1 P1 1.528989 1_554
O1 Ti1 2.058730 1_555
O2 P2 1.528989 1_555
O2 Ti2 2.058730 1_555
O3 P3 1.528989 1_555
O3 Ti3 2.058730 1_555
O4 P0 1.528820 1_555
O4 Ti1 2.026689 1_455
O5 P1 1.528820 1_555
O5 Ti0 2.026689 1_645
O6 P2 1.528820 1_555
O6 Ti3 2.026689 1_545
O7 P3 1.528820 1_555
O7 Ti2 2.026689 1_555
O8 P0 1.541776 1_556
O8 Ti4 2.013631 1_555
O9 P1 1.541776 1_554
O9 Ti5 2.013631 1_555
O10 P2 1.541776 1_555
O10 Ti6 2.013631 1_555
O11 P3 1.541776 1_555
O11 Ti7 2.013631 1_555
O12 P0 1.537975 1_555
O12 Ti7 2.012424 1_555
O13 P1 1.537975 1_555
O13 Ti6 2.012424 1_555
O14 P2 1.537975 1_555
O14 Ti5 2.012424 1_555
O15 P3 1.537975 1_555
O15 Ti4 2.012424 1_555
O16 Ti2 1.839566 1_555
O16 Ti6 1.859946 1_555
O17 Ti3 1.839566 1_555
O17 Ti7 1.859946 1_555
O18 Ti0 1.839566 1_555
O18 Ti4 1.859946 1_555
O19 Ti1 1.839566 1_555
O19 Ti5 1.859946 1_555
O20 Ti2 1.815011 1_555
O20 Ti4 1.917127 1_555
O21 Ti3 1.815011 1_545
O21 Ti5 1.917127 1_555
O22 Ti0 1.815011 1_645
O22 Ti6 1.917127 1_555
O23 Ti1 1.815011 1_455
O23 Ti7 1.917127 1_555
O24 P4 1.533805 1_555
O24 Ti2 2.033816 1_555
O25 P5 1.533805 1_555
O25 Ti3 2.033816 1_555
O26 P6 1.533805 1_555
O26 Ti0 2.033816 1_655
O27 P7 1.533805 1_555
O27 Ti1 2.033816 1_455
O28 P4 1.525361 1_655
O28 Ti2 2.027408 1_555
O29 P5 1.525361 1_445
O29 Ti3 2.027408 1_545
O30 P6 1.525361 1_545
O30 Ti0 2.027408 1_545
O31 P7 1.525361 1_555
O31 Ti1 2.027408 1_555
O32 P4 1.540049 1_655
O32 Ti6 1.963146 1_555
O33 P5 1.540049 1_455
O33 Ti7 1.963146 1_555
O34 P6 1.540049 1_555
O34 Ti4 1.963146 1_555
O35 P7 1.540049 1_555
O35 Ti5 1.963146 1_555
O36 P4 1.539792 1_555
O36 Ti4 1.974469 1_555
O37 P5 1.539792 1_545
O37 Ti5 1.974469 1_555
O38 P6 1.539792 1_545
O38 Ti6 1.974469 1_555
O39 P7 1.539792 1_555
O39 Ti7 1.974469 1_555
