# generated using pymatgen
data_K3Sm(PO4)2
_symmetry_space_group_name_H-M   'P 1'
_cell_length_a   5.63126931
_cell_length_b   7.39896890
_cell_length_c   9.46807822
_cell_angle_alpha   89.24689369
_cell_angle_beta   90.00000000
_cell_angle_gamma   90.00000000
_symmetry_Int_Tables_number   1
_chemical_formula_structural   K3Sm(PO4)2
_chemical_formula_sum   'K6 Sm2 P4 O16'
_cell_volume   394.45895429
_cell_formula_units_Z   2
loop_
 _symmetry_equiv_pos_site_id
 _symmetry_equiv_pos_as_xyz
  1  'x, y, z'
loop_
 _atom_site_type_symbol
 _atom_site_label
 _atom_site_symmetry_multiplicity
 _atom_site_fract_x
 _atom_site_fract_y
 _atom_site_fract_z
 _atom_site_occupancy
  K  K0  1  0.25000000  0.49267676  0.19082822  1
  K  K1  1  0.75000000  0.50732324  0.80917178  1
  K  K2  1  0.25000000  0.63578150  0.59192463  1
  K  K3  1  0.75000000  0.36421850  0.40807537  1
  K  K4  1  0.75000000  0.79817036  0.08251633  1
  K  K5  1  0.25000000  0.20182964  0.91748367  1
  Sm  Sm0  1  0.25000000  0.99332544  0.29118027  1
  Sm  Sm1  1  0.75000000  0.00667456  0.70881973  1
  P  P0  1  0.75000000  0.80754952  0.42615915  1
  P  P1  1  0.75000000  0.23313669  0.08725935  1
  P  P2  1  0.25000000  0.76686331  0.91274065  1
  P  P3  1  0.25000000  0.19245048  0.57384085  1
  O  O0  1  0.75000000  0.43783809  0.10145868  1
  O  O1  1  0.47285220  0.84632640  0.83922843  1
  O  O2  1  0.97285220  0.15367360  0.16077157  1
  O  O3  1  0.52714780  0.15367360  0.16077157  1
  O  O4  1  0.75000000  0.71706368  0.57426566  1
  O  O5  1  0.25000000  0.28293632  0.42573434  1
  O  O6  1  0.75000000  0.01265730  0.45011678  1
  O  O7  1  0.25000000  0.98734270  0.54988322  1
  O  O8  1  0.02652085  0.24829616  0.65656997  1
  O  O9  1  0.52652085  0.75170384  0.34343003  1
  O  O10  1  0.97347915  0.75170384  0.34343003  1
  O  O11  1  0.47347915  0.24829616  0.65656997  1
  O  O12  1  0.25000000  0.82335270  0.06911471  1
  O  O13  1  0.75000000  0.17664730  0.93088529  1
  O  O14  1  0.25000000  0.56216191  0.89854132  1
  O  O15  1  0.02714780  0.84632640  0.83922843  1
loop_
_geom_bond_atom_site_label_1
_geom_bond_atom_site_label_2
_geom_bond_distance
_geom_bond_site_symmetry_2
K0 O12 2.690733 1_555
K0 O5 2.695220 1_555
K0 O14 2.808094 1_554
K0 O9 2.873714 1_555
K0 O10 2.873714 1_455
K0 O0 2.969417 1_555
K0 O0 2.969417 1_455
K0 O2 2.971019 1_455
K0 O3 2.971019 1_555
K1 O13 2.690733 1_555
K1 O4 2.695220 1_555
K1 O0 2.808094 1_556
K1 O11 2.873714 1_555
K1 O8 2.873714 1_655
K1 O14 2.969417 1_555
K1 O14 2.969417 1_655
K1 O15 2.971019 1_655
K1 O1 2.971019 1_555
K2 O7 2.626294 1_555
K2 O4 2.883539 1_455
K2 O4 2.883539 1_555
K2 O10 2.939877 1_455
K2 O9 2.939877 1_555
K2 O14 2.946686 1_555
K2 O5 3.065877 1_555
K2 O15 3.095179 1_555
K2 O1 3.095179 1_555
K2 O11 3.183063 1_555
K2 O8 3.183063 1_555
K3 O6 2.626294 1_555
K3 O5 2.883539 1_655
K3 O5 2.883539 1_555
K3 O11 2.939877 1_555
K3 O8 2.939877 1_655
K3 O0 2.946686 1_555
K3 O4 3.065877 1_555
K3 O2 3.095179 1_555
K3 O3 3.095179 1_555
K3 O10 3.183063 1_555
K3 O9 3.183063 1_555
K4 O0 2.669760 1_555
K4 O10 2.789670 1_555
K4 O9 2.789670 1_555
K4 O15 2.801270 1_654
K4 O1 2.801270 1_554
K4 O12 2.824534 1_555
K4 O12 2.824534 1_655
K4 O3 3.015603 1_565
K4 O2 3.015603 1_565
K4 O13 3.130067 1_564
K5 O14 2.669760 1_555
K5 O8 2.789670 1_555
K5 O11 2.789670 1_555
K5 O2 2.801270 1_456
K5 O3 2.801270 1_556
K5 O13 2.824534 1_555
K5 O13 2.824534 1_455
K5 O1 3.015603 1_545
K5 O15 3.015603 1_545
K5 O12 3.130067 1_546
O0 P1 1.522293 1_555
O1 P2 1.547334 1_555
O1 Sm1 2.308541 1_565
O2 P1 1.547334 1_555
O2 Sm0 2.308541 1_645
O3 P1 1.547334 1_555
O3 Sm0 2.308541 1_545
O4 P0 1.545947 1_555
O4 Sm1 2.507278 1_565
O5 P3 1.545947 1_555
O5 Sm0 2.507278 1_545
O6 P0 1.537391 1_545
O6 Sm1 2.449238 1_555
O7 P3 1.537391 1_565
O7 Sm0 2.449238 1_555
O8 P3 1.541600 1_555
O8 Sm1 2.417084 1_455
O9 P0 1.541600 1_555
O9 Sm0 2.417084 1_555
O10 P0 1.541600 1_555
O10 Sm0 2.417084 1_655
O11 P3 1.541600 1_555
O11 Sm1 2.417084 1_555
O12 P2 1.543705 1_554
O12 Sm0 2.464097 1_555
O13 P1 1.543705 1_556
O13 Sm1 2.464097 1_555
O14 P2 1.522293 1_555
O15 P2 1.547334 1_555
O15 Sm1 2.308541 1_465
