# generated using pymatgen
data_Tb(AlAu)2
_symmetry_space_group_name_H-M   'P 1'
_cell_length_a   4.29558341
_cell_length_b   4.29558341
_cell_length_c   10.53254227
_cell_angle_alpha   90.00000000
_cell_angle_beta   90.00000000
_cell_angle_gamma   90.00000000
_symmetry_Int_Tables_number   1
_chemical_formula_structural   Tb(AlAu)2
_chemical_formula_sum   'Tb2 Al4 Au4'
_cell_volume   194.34685790
_cell_formula_units_Z   2
loop_
 _symmetry_equiv_pos_site_id
 _symmetry_equiv_pos_as_xyz
  1  'x, y, z'
loop_
 _atom_site_type_symbol
 _atom_site_label
 _atom_site_symmetry_multiplicity
 _atom_site_fract_x
 _atom_site_fract_y
 _atom_site_fract_z
 _atom_site_occupancy
  Tb  Tb0  1  0.00000000  0.50000000  0.24951609  1
  Tb  Tb1  1  0.50000000  -0.00000000  0.75048391  1
  Al  Al0  1  -0.00000000  0.00000000  0.50000000  1
  Al  Al1  1  0.50000000  0.50000000  0.50000000  1
  Al  Al2  1  0.00000000  0.50000000  0.86713610  1
  Al  Al3  1  0.50000000  0.00000000  0.13286390  1
  Au  Au0  1  0.00000000  0.00000000  -0.00000000  1
  Au  Au1  1  0.50000000  0.50000000  -0.00000000  1
  Au  Au2  1  0.00000000  0.50000000  0.63361010  1
  Au  Au3  1  0.50000000  -0.00000000  0.36638990  1
loop_
_geom_bond_atom_site_label_1
_geom_bond_atom_site_label_2
_geom_bond_distance
_geom_bond_site_symmetry_2
Al0 Au2 2.567756 1_545
Al0 Au2 2.567756 1_555
Al0 Au3 2.567756 1_555
Al0 Au3 2.567756 1_455
Al0 Tb0 3.401952 1_555
Al0 Tb0 3.401952 1_545
Al0 Tb1 3.401952 1_455
Al0 Tb1 3.401952 1_555
Al1 Au2 2.567756 1_555
Al1 Au2 2.567756 1_655
Al1 Au3 2.567756 1_555
Al1 Au3 2.567756 1_565
Al1 Tb0 3.401952 1_555
Al1 Tb1 3.401952 1_565
Al1 Tb0 3.401952 1_655
Al1 Tb1 3.401952 1_555
Al2 Au2 2.459622 1_555
Al2 Au0 2.563458 1_556
Al2 Au1 2.563458 1_556
Al2 Au0 2.563458 1_566
Al2 Au1 2.563458 1_456
Al2 Tb1 3.276520 1_455
Al2 Tb1 3.276520 1_555
Al2 Tb1 3.276520 1_465
Al2 Tb1 3.276520 1_565
Al3 Au3 2.459622 1_555
Al3 Au0 2.563458 1_555
Al3 Au1 2.563458 1_555
Al3 Au1 2.563458 1_545
Al3 Au0 2.563458 1_655
Al3 Tb0 3.276520 1_555
Al3 Tb0 3.276520 1_645
Al3 Tb0 3.276520 1_545
Al3 Tb0 3.276520 1_655
Au0 Tb0 3.394053 1_555
Au0 Tb1 3.394053 1_554
Au0 Tb0 3.394053 1_545
Au0 Tb1 3.394053 1_454
Au1 Tb0 3.394053 1_555
Au1 Tb1 3.394053 1_554
Au1 Tb0 3.394053 1_655
Au1 Tb1 3.394053 1_564
Au2 Tb1 3.277396 1_455
Au2 Tb1 3.277396 1_555
Au2 Tb1 3.277396 1_565
Au2 Tb1 3.277396 1_465
Au3 Tb0 3.277396 1_545
Au3 Tb0 3.277396 1_655
Au3 Tb0 3.277396 1_555
Au3 Tb0 3.277396 1_645
