# generated using pymatgen
data_CeMg6Ga
_symmetry_space_group_name_H-M   'P 1'
_cell_length_a   6.65310730
_cell_length_b   6.65310730
_cell_length_c   4.96745400
_cell_angle_alpha   90.00000000
_cell_angle_beta   90.00000000
_cell_angle_gamma   120.90102483
_symmetry_Int_Tables_number   1
_chemical_formula_structural   CeMg6Ga
_chemical_formula_sum   'Ce1 Mg6 Ga1'
_cell_volume   188.66806739
_cell_formula_units_Z   1
loop_
 _symmetry_equiv_pos_site_id
 _symmetry_equiv_pos_as_xyz
  1  'x, y, z'
loop_
 _atom_site_type_symbol
 _atom_site_label
 _atom_site_symmetry_multiplicity
 _atom_site_fract_x
 _atom_site_fract_y
 _atom_site_fract_z
 _atom_site_occupancy
  Ce  Ce0  1  0.17905000  0.82095000  0.00000000  1
  Mg  Mg0  1  0.18176900  0.33442900  0.00000000  1
  Mg  Mg1  1  0.66557100  0.81823100  0.00000000  1
  Mg  Mg2  1  0.66296800  0.33703200  0.00000000  1
  Mg  Mg3  1  0.33791500  0.18480100  0.50000000  1
  Mg  Mg4  1  0.81519900  0.66208500  0.50000000  1
  Mg  Mg5  1  0.82982100  0.17017900  0.50000000  1
  Ga  Ga0  1  0.32770700  0.67229300  0.50000000  1
loop_
_geom_bond_atom_site_label_1
_geom_bond_atom_site_label_2
_geom_bond_distance
_geom_bond_site_symmetry_2
Ce0 Ga0 3.021584 1_555
Ce0 Ga0 3.021584 1_554
Ce0 Mg4 3.243155 1_455
Ce0 Mg4 3.243155 1_454
Ce0 Mg3 3.243155 1_564
Ce0 Mg3 3.243155 1_565
Ce0 Mg1 3.246204 1_555
Ce0 Mg0 3.246204 1_555
Ce0 Mg2 3.286424 1_455
Ce0 Mg2 3.286424 1_565
Ce0 Mg1 3.406976 1_455
Ce0 Mg0 3.406976 1_565
Mg0 Mg3 3.049809 1_554
Mg0 Mg3 3.049809 1_555
Mg0 Mg1 3.174851 1_555
Mg0 Mg2 3.192609 1_555
Mg0 Mg5 3.196520 1_455
Mg0 Mg5 3.196520 1_454
Mg0 Mg1 3.387443 1_445
Mg0 Mg2 3.460564 1_455
Mg1 Mg4 3.049809 1_555
Mg1 Mg4 3.049809 1_554
Mg1 Mg2 3.192609 1_555
Mg1 Mg5 3.196520 1_565
Mg1 Mg5 3.196520 1_564
Mg1 Mg2 3.460564 1_565
Mg2 Mg3 3.101915 1_554
Mg2 Mg3 3.101915 1_555
Mg2 Mg4 3.101915 1_555
Mg2 Mg4 3.101915 1_554
Mg2 Mg5 3.146302 1_554
Mg2 Mg5 3.146302 1_555
Mg3 Mg4 3.132078 1_555
Mg3 Mg5 3.323711 1_555
Mg3 Mg5 3.331490 1_455
Mg3 Mg4 3.430216 1_445
Mg4 Mg5 3.323711 1_555
Mg4 Mg5 3.331490 1_565
Ga0 Mg1 3.150037 1_556
Ga0 Mg1 3.150037 1_555
Ga0 Mg0 3.150037 1_555
Ga0 Mg0 3.150037 1_556
Ga0 Mg4 3.278733 1_555
Ga0 Mg3 3.278733 1_555
Ga0 Mg5 3.281238 1_455
Ga0 Mg5 3.281238 1_565
Ga0 Mg4 3.375396 1_455
Ga0 Mg3 3.375396 1_565
