# generated using pymatgen
data_Ce2TeMo6(H6O7)6
_symmetry_space_group_name_H-M   'P 1'
_cell_length_a   9.38060200
_cell_length_b   10.45103457
_cell_length_c   10.96464829
_cell_angle_alpha   102.64820218
_cell_angle_beta   108.17136284
_cell_angle_gamma   106.95206388
_symmetry_Int_Tables_number   1
_chemical_formula_structural   Ce2TeMo6(H6O7)6
_chemical_formula_sum   'Ce2 Te1 Mo6 H36 O42'
_cell_volume   918.40713122
_cell_formula_units_Z   1
loop_
 _symmetry_equiv_pos_site_id
 _symmetry_equiv_pos_as_xyz
  1  'x, y, z'
loop_
 _atom_site_type_symbol
 _atom_site_label
 _atom_site_symmetry_multiplicity
 _atom_site_fract_x
 _atom_site_fract_y
 _atom_site_fract_z
 _atom_site_occupancy
  Ce  Ce0  1  0.02660800  0.26438100  0.74254000  1
  Ce  Ce1  1  0.97339200  0.73561900  0.25746000  1
  Te  Te0  1  0.50000000  0.50000000  0.50000000  1
  Mo  Mo0  1  0.38176800  0.60485900  0.74481900  1
  Mo  Mo1  1  0.61823200  0.39514100  0.25518100  1
  Mo  Mo2  1  0.45085100  0.30844400  0.69679600  1
  Mo  Mo3  1  0.54914900  0.69155600  0.30320400  1
  Mo  Mo4  1  0.57952900  0.20433100  0.45610700  1
  Mo  Mo5  1  0.42047100  0.79566900  0.54389300  1
  H  H0  1  0.00471100  0.56759500  0.80888300  1
  H  H1  1  0.99528900  0.43240500  0.19111700  1
  H  H2  1  0.82155000  0.45747900  0.72350600  1
  H  H3  1  0.17845000  0.54252100  0.27649400  1
  H  H4  1  0.16625100  0.50723900  0.01778100  1
  H  H5  1  0.83374900  0.49276100  0.98221900  1
  H  H6  1  0.29448400  0.43787900  0.05407100  1
  H  H7  1  0.70551600  0.56212100  0.94592900  1
  H  H8  1  0.87373400  0.20367200  0.95957400  1
  H  H9  1  0.12626600  0.79632800  0.04042600  1
  H  H10  1  0.73541700  0.17103700  0.81793000  1
  H  H11  1  0.26458300  0.82896300  0.18207000  1
  H  H12  1  0.16959500  0.15308000  0.98978300  1
  H  H13  1  0.83040500  0.84692000  0.01021700  1
  H  H14  1  0.21835900  0.09222400  0.86741800  1
  H  H15  1  0.78164100  0.90777600  0.13258200  1
  H  H16  1  0.79771600  0.94721700  0.55893400  1
  H  H17  1  0.20228400  0.05278300  0.44106600  1
  H  H18  1  0.97177300  0.93955700  0.59022100  1
  H  H19  1  0.02822700  0.06044300  0.40977900  1
  H  H20  1  0.91285700  0.27255900  0.43623800  1
  H  H21  1  0.08714300  0.72744100  0.56376200  1
  H  H22  1  0.10377100  0.30964400  0.49011000  1
  H  H23  1  0.89622800  0.69035600  0.50989000  1
  H  H24  1  0.98850900  0.20461200  0.15433700  1
  H  H25  1  0.01149100  0.79538800  0.84566300  1
  H  H26  1  0.80372600  0.17620900  0.13245200  1
  H  H27  1  0.19627400  0.82379100  0.86754800  1
  H  H28  1  0.25461600  0.21427500  0.23363800  1
  H  H29  1  0.74538400  0.78572500  0.76636200  1
  H  H30  1  0.12291800  0.05645500  0.16504400  1
  H  H31  1  0.87708200  0.94354500  0.83495600  1
  H  H32  1  0.60217900  0.00968700  0.20759100  1
  H  H33  1  0.39782100  0.99031300  0.79240900  1
  H  H34  1  0.56437300  0.92251700  0.05752100  1
  H  H35  1  0.43562700  0.07748300  0.94247900  1
  O  O0  1  0.32767900  0.41519900  0.55384700  1
  O  O1  1  0.67232100  0.58480100  0.44615300  1
  O  O2  1  0.55806000  0.67508000  0.65112800  1
  O  O3  1  0.44194000  0.32492000  0.34887200  1
  O  O4  1  0.51810000  0.50200600  0.81523600  1
  O  O5  1  0.48190000  0.49799400  0.18476400  1
  O  O6  1  0.47465500  0.75509900  0.89066200  1
  O  O7  1  0.52534500  0.24490100  0.10933800  1
  O  O8  1  0.27460000  0.67855300  0.60700700  1
  O  O9  1  0.72540000  0.32144700  0.39299300  1
  O  O10  1  0.20302800  0.48968200  0.74854700  1
  O  O11  1  0.79697200  0.51031800  0.25145300  1
  O  O12  1  0.62648800  0.41883600  0.61510700  1
  O  O13  1  0.37351200  0.58116400  0.38489300  1
  O  O14  1  0.40589000  0.16631800  0.52292100  1
  O  O15  1  0.59411000  0.83368200  0.47707900  1
  O  O16  1  0.25943400  0.22979800  0.70406900  1
  O  O17  1  0.74056600  0.77020200  0.29593100  1
  O  O18  1  0.59069300  0.26434100  0.80846800  1
  O  O19  1  0.40930700  0.73565900  0.19153200  1
  O  O20  1  0.49132800  0.04930900  0.31510600  1
  O  O21  1  0.50867200  0.95069100  0.68489400  1
  O  O22  1  0.73757500  0.18617400  0.58298600  1
  O  O23  1  0.26242500  0.81382600  0.41701400  1
  O  O24  1  0.93141500  0.46727400  0.78416100  1
  O  O25  1  0.06858500  0.53272600  0.21583900  1
  O  O26  1  0.18373700  0.42048000  0.98799900  1
  O  O27  1  0.81626300  0.57952000  0.01200100  1
  O  O28  1  0.84742100  0.17602600  0.85910200  1
  O  O29  1  0.15257900  0.82397400  0.14089800  1
  O  O30  1  0.15107900  0.14207800  0.89335500  1
  O  O31  1  0.84892100  0.85792200  0.10664500  1
  O  O32  1  0.91655700  0.00268200  0.61154300  1
  O  O33  1  0.08344300  0.99731800  0.38845700  1
  O  O34  1  0.99967200  0.24342900  0.48335500  1
  O  O35  1  0.00032800  0.75657100  0.51664500  1
  O  O36  1  0.89945000  0.24036600  0.12593800  1
  O  O37  1  0.10055000  0.75963400  0.87406200  1
  O  O38  1  0.14849700  0.15036900  0.15525600  1
  O  O39  1  0.85150300  0.84963100  0.84474400  1
  O  O40  1  0.65192400  0.99733700  0.14059300  1
  O  O41  1  0.34807600  0.00266300  0.85940700  1
loop_
_geom_bond_atom_site_label_1
_geom_bond_atom_site_label_2
_geom_bond_distance
_geom_bond_site_symmetry_2
Ce0 O10 2.424693 1_555
Ce0 O16 2.459025 1_555
Ce0 O22 2.490549 1_455
Ce0 O28 2.502620 1_455
Ce0 O26 2.505628 1_555
Ce0 O32 2.513454 1_455
Ce0 O30 2.514608 1_555
Ce0 O24 2.537026 1_455
Ce0 O34 2.726788 1_455
Ce1 O11 2.424693 1_555
Ce1 O17 2.459025 1_555
Ce1 O23 2.490549 1_655
Ce1 O29 2.502620 1_655
Ce1 O27 2.505628 1_555
Ce1 O33 2.513454 1_655
Ce1 O31 2.514608 1_555
Ce1 O25 2.537026 1_655
Ce1 O35 2.726788 1_655
Mo0 O6 1.736473 1_555
Mo0 O10 1.774614 1_555
Mo0 O8 1.975042 1_555
Mo0 O4 1.984020 1_555
Mo0 O2 2.238471 1_555
Mo0 O0 2.346096 1_555
Mo1 O7 1.736473 1_555
Mo1 O11 1.774614 1_555
Mo1 O9 1.975042 1_555
Mo1 O5 1.984020 1_555
Mo1 O3 2.238471 1_555
Mo1 O1 2.346096 1_555
Mo2 O18 1.740818 1_555
Mo2 O16 1.778626 1_555
Mo2 O4 1.941921 1_555
Mo2 O14 1.977846 1_555
Mo2 O12 2.261052 1_555
Mo2 O0 2.329055 1_555
Mo3 O19 1.740818 1_555
Mo3 O17 1.778626 1_555
Mo3 O5 1.941921 1_555
Mo3 O15 1.977846 1_555
Mo3 O13 2.261052 1_555
Mo3 O1 2.329055 1_555
Mo4 O20 1.738729 1_555
Mo4 O22 1.778379 1_555
Mo4 O9 1.958141 1_555
Mo4 O14 1.960104 1_555
Mo4 O3 2.299470 1_555
Mo4 O12 2.343642 1_555
Mo5 O21 1.738729 1_555
Mo5 O23 1.778379 1_555
Mo5 O8 1.958141 1_555
Mo5 O15 1.960104 1_555
Mo5 O2 2.299470 1_555
Mo5 O13 2.343642 1_555
H0 O24 0.992169 1_455
H1 O25 0.992169 1_655
H2 O24 0.998038 1_555
H2 O12 1.710647 1_555
H3 O25 0.998038 1_555
H3 O13 1.710647 1_555
H4 O26 0.972706 1_554
H5 O27 0.972706 1_556
H6 O26 0.999944 1_554
H6 O5 1.711524 1_555
H7 O27 0.999944 1_556
H7 O4 1.711524 1_555
H8 O28 1.003711 1_555
H9 O29 1.003711 1_555
H10 O28 0.986063 1_555
H11 O29 0.986063 1_555
H12 O30 0.990880 1_555
H13 O31 0.990880 1_555
H14 O30 0.994728 1_555
H15 O31 0.994728 1_555
H16 O32 0.993569 1_565
H16 O15 1.733273 1_555
H17 O33 0.993569 1_545
H17 O14 1.733273 1_555
H18 O32 0.982558 1_565
H19 O33 0.982558 1_545
H20 O34 0.986829 1_555
H21 O35 0.986829 1_555
H22 O34 0.988090 1_455
H23 O35 0.988098 1_655
H24 O36 1.002630 1_555
H25 O37 1.002630 1_555
H26 O36 0.985326 1_555
H27 O37 0.985326 1_555
H28 O38 1.001472 1_555
H28 O3 1.676847 1_555
H29 O39 1.001472 1_555
H29 O2 1.676847 1_555
H30 O38 0.978411 1_555
H31 O39 0.978411 1_555
H32 O40 0.990692 1_545
H33 O41 0.990692 1_565
H34 O40 0.981128 1_555
H35 O41 0.981128 1_555
O0 Te0 1.932882 1_555
O1 Te0 1.932882 1_555
O2 Te0 1.979566 1_555
O3 Te0 1.979566 1_555
O12 Te0 1.960106 1_555
O13 Te0 1.960106 1_555
