# generated using pymatgen
data_Ag4Sn3S8
_symmetry_space_group_name_H-M   'P 1'
_cell_length_a   10.90748600
_cell_length_b   10.90748600
_cell_length_c   10.90748600
_cell_angle_alpha   90.00000000
_cell_angle_beta   90.00000000
_cell_angle_gamma   90.00000000
_symmetry_Int_Tables_number   1
_chemical_formula_structural   Ag4Sn3S8
_chemical_formula_sum   'Ag16 Sn12 S32'
_cell_volume   1297.69906791
_cell_formula_units_Z   4
loop_
 _symmetry_equiv_pos_site_id
 _symmetry_equiv_pos_as_xyz
  1  'x, y, z'
loop_
 _atom_site_type_symbol
 _atom_site_label
 _atom_site_symmetry_multiplicity
 _atom_site_fract_x
 _atom_site_fract_y
 _atom_site_fract_z
 _atom_site_occupancy
  Ag  Ag0  1  0.37500000  0.62500000  0.12500000  1
  Ag  Ag1  1  0.12500000  0.37500000  0.62500000  1
  Ag  Ag2  1  0.62500000  0.12500000  0.37500000  1
  Ag  Ag3  1  0.87500000  0.87500000  0.87500000  1
  Ag  Ag4  1  0.85476000  0.89524000  0.37500000  1
  Ag  Ag5  1  0.64524000  0.10476000  0.87500000  1
  Ag  Ag6  1  0.14524000  0.39524000  0.12500000  1
  Ag  Ag7  1  0.35476000  0.60476000  0.62500000  1
  Ag  Ag8  1  0.89524000  0.37500000  0.85476000  1
  Ag  Ag9  1  0.10476000  0.87500000  0.64524000  1
  Ag  Ag10  1  0.39524000  0.12500000  0.14524000  1
  Ag  Ag11  1  0.60476000  0.62500000  0.35476000  1
  Ag  Ag12  1  0.37500000  0.85476000  0.89524000  1
  Ag  Ag13  1  0.87500000  0.64524000  0.10476000  1
  Ag  Ag14  1  0.12500000  0.14524000  0.39524000  1
  Ag  Ag15  1  0.62500000  0.35476000  0.60476000  1
  Sn  Sn0  1  0.11404000  0.63596000  0.37500000  1
  Sn  Sn1  1  0.38596000  0.36404000  0.87500000  1
  Sn  Sn2  1  0.88596000  0.13596000  0.12500000  1
  Sn  Sn3  1  0.61404000  0.86404000  0.62500000  1
  Sn  Sn4  1  0.63596000  0.37500000  0.11404000  1
  Sn  Sn5  1  0.36404000  0.87500000  0.38596000  1
  Sn  Sn6  1  0.13596000  0.12500000  0.88596000  1
  Sn  Sn7  1  0.86404000  0.62500000  0.61404000  1
  Sn  Sn8  1  0.37500000  0.11404000  0.63596000  1
  Sn  Sn9  1  0.87500000  0.38596000  0.36404000  1
  Sn  Sn10  1  0.12500000  0.88596000  0.13596000  1
  Sn  Sn11  1  0.62500000  0.61404000  0.86404000  1
  S  S0  1  0.35104900  0.63835100  0.38757700  1
  S  S1  1  0.14895100  0.36164900  0.88757700  1
  S  S2  1  0.64895100  0.13835100  0.11242300  1
  S  S3  1  0.85104900  0.86164900  0.61242300  1
  S  S4  1  0.63835100  0.38757700  0.35104900  1
  S  S5  1  0.36164900  0.88757700  0.14895100  1
  S  S6  1  0.13835100  0.11242300  0.64895100  1
  S  S7  1  0.86164900  0.61242300  0.85104900  1
  S  S8  1  0.38757700  0.35104900  0.63835100  1
  S  S9  1  0.88757700  0.14895100  0.36164900  1
  S  S10  1  0.11242300  0.64895100  0.13835100  1
  S  S11  1  0.61242300  0.85104900  0.86164900  1
  S  S12  1  0.39895100  0.36242300  0.11164900  1
  S  S13  1  0.60104900  0.86242300  0.38835100  1
  S  S14  1  0.10104900  0.63757700  0.61164900  1
  S  S15  1  0.89895100  0.13757700  0.88835100  1
  S  S16  1  0.11164900  0.39895100  0.36242300  1
  S  S17  1  0.38835100  0.60104900  0.86242300  1
  S  S18  1  0.61164900  0.10104900  0.63757700  1
  S  S19  1  0.88835100  0.89895100  0.13757700  1
  S  S20  1  0.36242300  0.11164900  0.39895100  1
  S  S21  1  0.86242300  0.38835100  0.60104900  1
  S  S22  1  0.63757700  0.61164900  0.10104900  1
  S  S23  1  0.13757700  0.88835100  0.89895100  1
  S  S24  1  0.12108000  0.87892000  0.37892000  1
  S  S25  1  0.37892000  0.12108000  0.87892000  1
  S  S26  1  0.87892000  0.37892000  0.12108000  1
  S  S27  1  0.62108000  0.62108000  0.62108000  1
  S  S28  1  0.62892000  0.37108000  0.87108000  1
  S  S29  1  0.37108000  0.87108000  0.62892000  1
  S  S30  1  0.87108000  0.62892000  0.37108000  1
  S  S31  1  0.12892000  0.12892000  0.12892000  1
loop_
_geom_bond_atom_site_label_1
_geom_bond_atom_site_label_2
_geom_bond_distance
_geom_bond_site_symmetry_2
Ag0 S22 2.879630 1_555
Ag0 S5 2.879630 1_555
Ag0 S10 2.879630 1_555
Ag0 S0 2.879630 1_555
Ag0 S12 2.879630 1_555
Ag0 S17 2.879630 1_554
Ag1 S14 2.879630 1_555
Ag1 S1 2.879630 1_555
Ag1 S8 2.879630 1_555
Ag1 S6 2.879630 1_555
Ag1 S16 2.879630 1_555
Ag1 S21 2.879630 1_455
Ag2 S9 2.879630 1_555
Ag2 S18 2.879630 1_555
Ag2 S20 2.879630 1_555
Ag2 S4 2.879630 1_555
Ag2 S2 2.879630 1_555
Ag2 S13 2.879630 1_545
Ag3 S19 2.879630 1_556
Ag3 S23 2.879630 1_655
Ag3 S15 2.879630 1_565
Ag3 S7 2.879630 1_555
Ag3 S11 2.879630 1_555
Ag3 S3 2.879630 1_555
Ag4 S3 2.615792 1_555
Ag4 S19 2.615792 1_555
Ag4 S9 2.794201 1_565
Ag4 S13 2.794201 1_555
Ag4 S24 2.910645 1_655
Ag4 S30 2.910645 1_555
Ag5 S2 2.615792 1_556
Ag5 S18 2.615792 1_555
Ag5 S15 2.794201 1_555
Ag5 S11 2.794201 1_545
Ag5 S28 2.910645 1_555
Ag5 S25 2.910645 1_555
Ag6 S16 2.615792 1_555
Ag6 S1 2.615792 1_554
Ag6 S10 2.794201 1_555
Ag6 S12 2.794201 1_555
Ag6 S31 2.910645 1_555
Ag6 S26 2.910645 1_455
Ag7 S17 2.615792 1_555
Ag7 S0 2.615792 1_555
Ag7 S14 2.794201 1_555
Ag7 S8 2.794201 1_555
Ag7 S29 2.910645 1_555
Ag7 S27 2.910645 1_555
Ag8 S7 2.615792 1_555
Ag8 S15 2.615792 1_555
Ag8 S1 2.794201 1_655
Ag8 S21 2.794201 1_555
Ag8 S28 2.910645 1_555
Ag8 S26 2.910645 1_556
Ag9 S6 2.615792 1_565
Ag9 S14 2.615792 1_555
Ag9 S23 2.794201 1_555
Ag9 S3 2.794201 1_455
Ag9 S29 2.910645 1_555
Ag9 S24 2.910645 1_555
Ag10 S12 2.615792 1_555
Ag10 S5 2.615792 1_545
Ag10 S2 2.794201 1_555
Ag10 S20 2.794201 1_555
Ag10 S31 2.910645 1_555
Ag10 S25 2.910645 1_554
Ag11 S13 2.615792 1_555
Ag11 S4 2.615792 1_555
Ag11 S22 2.794201 1_555
Ag11 S0 2.794201 1_555
Ag11 S30 2.910645 1_555
Ag11 S27 2.910645 1_555
Ag12 S11 2.615792 1_555
Ag12 S23 2.615792 1_555
Ag12 S5 2.794201 1_556
Ag12 S17 2.794201 1_555
Ag12 S25 2.910645 1_565
Ag12 S29 2.910645 1_555
Ag13 S10 2.615792 1_655
Ag13 S22 2.615792 1_555
Ag13 S19 2.794201 1_555
Ag13 S7 2.794201 1_554
Ag13 S26 2.910645 1_555
Ag13 S30 2.910645 1_555
Ag14 S20 2.615792 1_555
Ag14 S9 2.615792 1_455
Ag14 S6 2.794201 1_555
Ag14 S16 2.794201 1_555
Ag14 S31 2.910645 1_555
Ag14 S24 2.910645 1_545
Ag15 S21 2.615792 1_555
Ag15 S8 2.615792 1_555
Ag15 S18 2.794201 1_555
Ag15 S4 2.794201 1_555
Ag15 S28 2.910645 1_555
Ag15 S27 2.910645 1_555
S0 Sn5 2.585192 1_555
S0 Sn0 2.588941 1_555
S1 Sn6 2.585192 1_555
S1 Sn1 2.588941 1_555
S2 Sn4 2.585192 1_555
S2 Sn2 2.588941 1_555
S3 Sn7 2.585192 1_555
S3 Sn3 2.588941 1_555
S4 Sn9 2.585192 1_555
S4 Sn4 2.588941 1_555
S5 Sn10 2.585192 1_555
S5 Sn5 2.588941 1_555
S6 Sn8 2.585192 1_555
S6 Sn6 2.588941 1_555
S7 Sn11 2.585192 1_555
S7 Sn7 2.588941 1_555
S8 Sn1 2.585192 1_555
S8 Sn8 2.588941 1_555
S9 Sn2 2.585192 1_555
S9 Sn9 2.588941 1_555
S10 Sn0 2.585192 1_555
S10 Sn10 2.588941 1_555
S11 Sn3 2.585192 1_555
S11 Sn11 2.588941 1_555
S12 Sn1 2.585192 1_554
S12 Sn4 2.588941 1_555
S13 Sn3 2.585192 1_555
S13 Sn5 2.588941 1_555
S14 Sn0 2.585192 1_555
S14 Sn7 2.588941 1_455
S15 Sn2 2.585192 1_556
S15 Sn6 2.588941 1_655
S16 Sn9 2.585192 1_455
S16 Sn0 2.588941 1_555
S17 Sn11 2.585192 1_555
S17 Sn1 2.588941 1_555
S18 Sn8 2.585192 1_555
S18 Sn3 2.588941 1_545
S19 Sn10 2.585192 1_655
S19 Sn2 2.588941 1_565
S20 Sn5 2.585192 1_545
S20 Sn8 2.588941 1_555
S21 Sn7 2.585192 1_555
S21 Sn9 2.588941 1_555
S22 Sn4 2.585192 1_555
S22 Sn11 2.588941 1_554
S23 Sn6 2.585192 1_565
S23 Sn10 2.588941 1_556
S24 Sn0 2.651540 1_555
S24 Sn10 2.651540 1_555
S24 Sn5 2.651540 1_555
S25 Sn8 2.651540 1_555
S25 Sn1 2.651540 1_555
S25 Sn6 2.651540 1_555
S26 Sn4 2.651540 1_555
S26 Sn9 2.651540 1_555
S26 Sn2 2.651540 1_555
S27 Sn7 2.651540 1_555
S27 Sn11 2.651540 1_555
S27 Sn3 2.651540 1_555
S28 Sn4 2.651540 1_556
S28 Sn1 2.651540 1_555
S28 Sn11 2.651540 1_555
S29 Sn8 2.651540 1_565
S29 Sn5 2.651540 1_555
S29 Sn3 2.651540 1_555
S30 Sn0 2.651540 1_655
S30 Sn9 2.651540 1_555
S30 Sn7 2.651540 1_555
S31 Sn10 2.651540 1_545
S31 Sn6 2.651540 1_554
S31 Sn2 2.651540 1_455
