# generated using pymatgen
data_Lu(GaFe)6
_symmetry_space_group_name_H-M   'P 1'
_cell_length_a   5.03507400
_cell_length_b   6.56599429
_cell_length_c   6.56599429
_cell_angle_alpha   80.63382557
_cell_angle_beta   67.45428033
_cell_angle_gamma   67.45428033
_symmetry_Int_Tables_number   1
_chemical_formula_structural   Lu(GaFe)6
_chemical_formula_sum   'Lu1 Ga6 Fe6'
_cell_volume   185.12976834
_cell_formula_units_Z   1
loop_
 _symmetry_equiv_pos_site_id
 _symmetry_equiv_pos_as_xyz
  1  'x, y, z'
loop_
 _atom_site_type_symbol
 _atom_site_label
 _atom_site_symmetry_multiplicity
 _atom_site_fract_x
 _atom_site_fract_y
 _atom_site_fract_z
 _atom_site_occupancy
  Lu  Lu0  1  0.00000000  0.00000000  0.00000000  1
  Ga  Ga0  1  0.00000000  0.66739600  0.33260400  1
  Ga  Ga1  1  0.00000000  0.33260400  0.66739600  1
  Ga  Ga2  1  0.34256700  0.65743300  0.65743300  1
  Ga  Ga3  1  0.65743300  0.34256700  0.34256700  1
  Ga  Ga4  1  0.32211100  0.17788900  0.17788900  1
  Ga  Ga5  1  0.67788900  0.82211100  0.82211100  1
  Fe  Fe0  1  0.50000000  0.24321300  0.75678700  1
  Fe  Fe1  1  0.50000000  0.75678700  0.24321300  1
  Fe  Fe2  1  0.00000000  0.50000000  0.00000000  1
  Fe  Fe3  1  0.50000000  0.50000000  0.00000000  1
  Fe  Fe4  1  0.00000000  0.00000000  0.50000000  1
  Fe  Fe5  1  0.50000000  0.00000000  0.50000000  1
loop_
_geom_bond_atom_site_label_1
_geom_bond_atom_site_label_2
_geom_bond_distance
_geom_bond_site_symmetry_2
Ga0 Lu0 2.826000 1_565
Ga0 Ga1 2.844591 1_555
Ga1 Lu0 2.826000 1_556
Ga2 Ga3 2.725093 1_555
Ga2 Ga5 2.892980 1_555
Ga2 Ga5 2.892980 1_455
Ga2 Lu0 2.964839 1_566
Ga3 Ga4 2.892980 1_555
Ga3 Ga4 2.892980 1_655
Ga3 Lu0 2.964839 1_655
Ga4 Lu0 2.950987 1_655
Ga4 Lu0 2.950987 1_555
Ga5 Lu0 2.950987 1_566
Ga5 Lu0 2.950987 1_666
Fe0 Fe5 2.503875 1_555
Fe0 Fe4 2.503875 1_655
Fe0 Fe2 2.503875 1_556
Fe0 Fe3 2.503875 1_556
Fe0 Ga2 2.572323 1_555
Fe0 Ga3 2.572323 1_555
Fe0 Ga5 2.576952 1_545
Fe0 Ga4 2.576952 1_556
Fe0 Ga1 2.629612 1_555
Fe0 Ga1 2.629612 1_655
Fe0 Lu0 3.257044 1_556
Fe0 Lu0 3.257044 1_656
Fe1 Fe3 2.503875 1_555
Fe1 Fe2 2.503875 1_655
Fe1 Fe4 2.503875 1_565
Fe1 Fe5 2.503875 1_565
Fe1 Ga2 2.572323 1_555
Fe1 Ga3 2.572323 1_555
Fe1 Ga5 2.576952 1_554
Fe1 Ga4 2.576952 1_565
Fe1 Ga0 2.629612 1_555
Fe1 Ga0 2.629612 1_655
Fe1 Lu0 3.257044 1_565
Fe1 Lu0 3.257044 1_665
Fe2 Fe3 2.517537 1_555
Fe2 Fe3 2.517537 1_455
Fe2 Ga4 2.546764 1_555
Fe2 Ga5 2.546764 1_454
Fe2 Ga2 2.595831 1_554
Fe2 Ga3 2.595831 1_455
Fe2 Ga0 2.599743 1_555
Fe2 Ga1 2.599743 1_554
Fe2 Lu0 3.282997 1_555
Fe2 Lu0 3.282997 1_565
Fe3 Ga5 2.546764 1_554
Fe3 Ga4 2.546764 1_555
Fe3 Ga3 2.595831 1_555
Fe3 Ga2 2.595831 1_554
Fe3 Ga0 2.599743 1_555
Fe3 Ga1 2.599743 1_654
Fe3 Lu0 3.282997 1_655
Fe3 Lu0 3.282997 1_565
Fe4 Fe5 2.517537 1_455
Fe4 Fe5 2.517537 1_555
Fe4 Ga4 2.546764 1_555
Fe4 Ga5 2.546764 1_445
Fe4 Ga2 2.595831 1_545
Fe4 Ga3 2.595831 1_455
Fe4 Ga0 2.599743 1_545
Fe4 Ga1 2.599743 1_555
Fe4 Lu0 3.282997 1_556
Fe4 Lu0 3.282997 1_555
Fe5 Ga5 2.546764 1_545
Fe5 Ga4 2.546764 1_555
Fe5 Ga3 2.595831 1_555
Fe5 Ga2 2.595831 1_545
Fe5 Ga1 2.599743 1_555
Fe5 Ga0 2.599743 1_645
Fe5 Lu0 3.282997 1_556
Fe5 Lu0 3.282997 1_655
