# generated using pymatgen
data_Mg2CrMo3S8
_symmetry_space_group_name_H-M   'P 1'
_cell_length_a   7.41842571
_cell_length_b   7.38627448
_cell_length_c   7.41769100
_cell_angle_alpha   59.85836506
_cell_angle_beta   60.00097151
_cell_angle_gamma   59.85067270
_symmetry_Int_Tables_number   1
_chemical_formula_structural   Mg2CrMo3S8
_chemical_formula_sum   'Mg2 Cr1 Mo3 S8'
_cell_volume   286.77124809
_cell_formula_units_Z   1
loop_
 _symmetry_equiv_pos_site_id
 _symmetry_equiv_pos_as_xyz
  1  'x, y, z'
loop_
 _atom_site_type_symbol
 _atom_site_label
 _atom_site_symmetry_multiplicity
 _atom_site_fract_x
 _atom_site_fract_y
 _atom_site_fract_z
 _atom_site_occupancy
  Mg  Mg0  1  0.87576100  0.87279500  0.87572200  1
  Mg  Mg1  1  0.12425000  0.12721600  0.12427500  1
  Cr  Cr0  1  0.49983500  0.99994300  0.50005000  1
  Mo  Mo0  1  0.50008400  0.49996500  0.49995000  1
  Mo  Mo1  1  0.50008500  0.49997400  0.00000800  1
  Mo  Mo2  1  0.00000300  0.50006900  0.49999000  1
  S  S0  1  0.73451600  0.74550200  0.73454300  1
  S  S1  1  0.26541500  0.25463800  0.71458600  1
  S  S2  1  0.26076100  0.71788100  0.26070600  1
  S  S3  1  0.71453000  0.25448200  0.26547900  1
  S  S4  1  0.73934400  0.28213000  0.73924700  1
  S  S5  1  0.28540200  0.74535600  0.73464500  1
  S  S6  1  0.26542000  0.25462000  0.26536400  1
  S  S7  1  0.73459700  0.74542200  0.28543600  1
loop_
_geom_bond_atom_site_label_1
_geom_bond_atom_site_label_2
_geom_bond_distance
_geom_bond_site_symmetry_2
Mg0 S4 2.463197 1_565
Mg0 S5 2.480289 1_655
Mg0 S7 2.480679 1_556
Mg0 S0 2.480791 1_555
Mg1 S2 2.463197 1_545
Mg1 S6 2.480442 1_555
Mg1 S1 2.480518 1_554
Mg1 S3 2.480803 1_455
Cr0 S5 2.458700 1_555
Cr0 S6 2.458791 1_565
Cr0 S7 2.458850 1_555
Cr0 S0 2.459064 1_555
Cr0 S1 2.459401 1_565
Cr0 S3 2.459757 1_565
Mo0 S4 2.510673 1_555
Mo0 S2 2.510687 1_555
Mo0 S3 2.519167 1_555
Mo0 S7 2.519631 1_555
Mo0 S1 2.519696 1_555
Mo0 S5 2.519749 1_555
Mo1 S2 2.510838 1_555
Mo1 S4 2.510870 1_554
Mo1 S3 2.519008 1_555
Mo1 S0 2.519575 1_554
Mo1 S5 2.519578 1_554
Mo1 S6 2.519796 1_555
Mo2 S2 2.511112 1_555
Mo2 S4 2.511201 1_455
Mo2 S7 2.519186 1_455
Mo2 S0 2.519303 1_455
Mo2 S1 2.519430 1_555
Mo2 S6 2.519702 1_555
