# generated using pymatgen
data_MgNi3P3O13
_symmetry_space_group_name_H-M   'P 1'
_cell_length_a   6.21703800
_cell_length_b   7.45856400
_cell_length_c   10.20131081
_cell_angle_alpha   79.71816948
_cell_angle_beta   90.00000000
_cell_angle_gamma   90.00000000
_symmetry_Int_Tables_number   1
_chemical_formula_structural   MgNi3P3O13
_chemical_formula_sum   'Mg2 Ni6 P6 O26'
_cell_volume   465.44040788
_cell_formula_units_Z   2
loop_
 _symmetry_equiv_pos_site_id
 _symmetry_equiv_pos_as_xyz
  1  'x, y, z'
loop_
 _atom_site_type_symbol
 _atom_site_label
 _atom_site_symmetry_multiplicity
 _atom_site_fract_x
 _atom_site_fract_y
 _atom_site_fract_z
 _atom_site_occupancy
  Mg  Mg0  1  0.75000000  0.36420500  0.16989300  1
  Mg  Mg1  1  0.25000000  0.63579500  0.83010700  1
  Ni  Ni0  1  0.25000000  0.63972800  0.20074700  1
  Ni  Ni1  1  0.75000000  0.36027200  0.79925300  1
  Ni  Ni2  1  0.25000000  0.23744400  0.43559700  1
  Ni  Ni3  1  0.50000000  0.00000000  0.00000000  1
  Ni  Ni4  1  0.75000000  0.76255600  0.56440300  1
  Ni  Ni5  1  0.00000000  0.00000000  0.00000000  1
  P  P0  1  0.25000000  0.79077600  0.48842800  1
  P  P1  1  0.75000000  0.20922400  0.51157200  1
  P  P2  1  0.25000000  0.26365300  0.76302800  1
  P  P3  1  0.75000000  0.73634700  0.23697200  1
  P  P4  1  0.75000000  0.68220200  0.88640600  1
  P  P5  1  0.25000000  0.31779800  0.11359400  1
  O  O0  1  0.75000000  0.62579400  0.74608100  1
  O  O1  1  0.56202100  0.24602500  0.40919100  1
  O  O2  1  0.25000000  0.20355100  0.62962200  1
  O  O3  1  0.53728400  0.78663300  0.89694000  1
  O  O4  1  0.75000000  0.35117300  0.60354900  1
  O  O5  1  0.75000000  0.12381900  0.90425100  1
  O  O6  1  0.25000000  0.64882700  0.39645100  1
  O  O7  1  0.03728400  0.21336700  0.10306000  1
  O  O8  1  0.25000000  0.98104800  0.40301200  1
  O  O9  1  0.75000000  0.01895200  0.59698800  1
  O  O10  1  0.06305500  0.39254400  0.78911000  1
  O  O11  1  0.25000000  0.87618100  0.09574900  1
  O  O12  1  0.56305500  0.60745600  0.21089000  1
  O  O13  1  0.75000000  0.49181900  0.97571900  1
  O  O14  1  0.75000000  0.79644900  0.37037800  1
  O  O15  1  0.46271600  0.21336700  0.10306000  1
  O  O16  1  0.93797900  0.24602500  0.40919100  1
  O  O17  1  0.43797900  0.75397500  0.59080900  1
  O  O18  1  0.43694500  0.39254400  0.78911000  1
  O  O19  1  0.25000000  0.37420600  0.25391900  1
  O  O20  1  0.75000000  0.91018000  0.12690800  1
  O  O21  1  0.25000000  0.08982000  0.87309200  1
  O  O22  1  0.93694500  0.60745600  0.21089000  1
  O  O23  1  0.96271600  0.78663300  0.89694000  1
  O  O24  1  0.06202100  0.75397500  0.59080900  1
  O  O25  1  0.25000000  0.50818100  0.02428100  1
loop_
_geom_bond_atom_site_label_1
_geom_bond_atom_site_label_2
_geom_bond_distance
_geom_bond_site_symmetry_2
Mg0 O13 2.038773 1_554
Mg0 O12 2.255724 1_555
Mg0 O22 2.255724 1_555
Mg0 O15 2.279110 1_555
Mg0 O7 2.279110 1_655
Mg0 O16 2.708108 1_555
Mg0 O1 2.708108 1_555
Mg1 O25 2.038773 1_556
Mg1 O18 2.255724 1_555
Mg1 O10 2.255724 1_555
Mg1 O3 2.279110 1_555
Mg1 O23 2.279110 1_455
Mg1 O17 2.708108 1_555
Mg1 O24 2.708108 1_555
Ni0 O11 1.892943 1_555
Ni0 O19 1.957749 1_555
Ni0 O12 1.961565 1_555
Ni0 O22 1.961565 1_455
Ni0 O6 2.009660 1_555
Ni0 O25 2.198600 1_555
Ni1 O5 1.892943 1_555
Ni1 O0 1.957749 1_555
Ni1 O18 1.961565 1_555
Ni1 O10 1.961565 1_655
Ni1 O4 2.009660 1_555
Ni1 O13 2.198600 1_555
Ni2 O19 1.949498 1_555
Ni2 O2 1.950116 1_555
Ni2 O16 1.957935 1_455
Ni2 O1 1.957935 1_555
Ni2 O8 1.998622 1_545
Ni3 O5 1.975007 1_554
Ni3 O11 1.975007 1_545
Ni3 O20 2.056934 1_545
Ni3 O21 2.056934 1_554
Ni3 O3 2.070972 1_544
Ni3 O15 2.070972 1_555
Ni4 O0 1.949498 1_555
Ni4 O14 1.950116 1_555
Ni4 O17 1.957935 1_555
Ni4 O24 1.957935 1_655
Ni4 O9 1.998622 1_565
Ni5 O5 1.975007 1_454
Ni5 O11 1.975007 1_545
Ni5 O20 2.056934 1_445
Ni5 O21 2.056934 1_554
Ni5 O7 2.070972 1_555
Ni5 O23 2.070972 1_444
O0 P4 1.562432 1_555
O1 P1 1.558722 1_555
O2 P2 1.506925 1_555
O3 P4 1.548235 1_555
O4 P1 1.534902 1_555
O6 P0 1.534902 1_555
O7 P5 1.548235 1_555
O8 P0 1.527032 1_555
O9 P1 1.527032 1_555
O10 P2 1.561119 1_555
O12 P3 1.561119 1_555
O13 P4 1.544224 1_555
O14 P3 1.506925 1_555
O15 P5 1.548235 1_555
O16 P1 1.558722 1_555
O17 P0 1.558722 1_555
O18 P2 1.561119 1_555
O19 P5 1.562432 1_555
O20 P3 1.556285 1_555
O21 P2 1.556285 1_555
O22 P3 1.561119 1_555
O23 P4 1.548235 1_555
O24 P0 1.558722 1_555
O25 P5 1.544224 1_555
