# generated using pymatgen
data_Te4MoW3(SeS)2
_symmetry_space_group_name_H-M   'P 1'
_cell_length_a   3.39950775
_cell_length_b   3.39950775
_cell_length_c   38.89044500
_cell_angle_alpha   90.00000000
_cell_angle_beta   90.00000000
_cell_angle_gamma   119.99999514
_symmetry_Int_Tables_number   1
_chemical_formula_structural   Te4MoW3(SeS)2
_chemical_formula_sum   'Te4 Mo1 W3 Se2 S2'
_cell_volume   389.22939999
_cell_formula_units_Z   1
loop_
 _symmetry_equiv_pos_site_id
 _symmetry_equiv_pos_as_xyz
  1  'x, y, z'
loop_
 _atom_site_type_symbol
 _atom_site_label
 _atom_site_symmetry_multiplicity
 _atom_site_fract_x
 _atom_site_fract_y
 _atom_site_fract_z
 _atom_site_occupancy
  Te  Te0  1  0.00000000  0.00000000  0.33009100  1
  Te  Te1  1  0.33333300  0.66666700  0.42133700  1
  Te  Te2  1  0.33333300  0.66666700  0.51805500  1
  Te  Te3  1  0.00000000  0.00000000  0.23336800  1
  Mo  Mo0  1  0.00000000  0.00000000  0.09395000  1
  W  W0  1  0.00000000  0.00000000  0.46971300  1
  W  W1  1  0.33333300  0.66666700  0.28172700  1
  W  W2  1  0.33333300  0.66666700  0.65754600  1
  Se  Se0  1  0.00000000  0.00000000  0.69999100  1
  Se  Se1  1  0.00000000  0.00000000  0.61508800  1
  S  S0  1  0.33333300  0.66666700  0.05526400  1
  S  S1  1  0.33333300  0.66666700  0.13262000  1
loop_
_geom_bond_atom_site_label_1
_geom_bond_atom_site_label_2
_geom_bond_distance
_geom_bond_site_symmetry_2
Te0 W1 2.718453 1_545
Te0 W1 2.718455 1_555
Te0 W1 2.718455 1_445
Te1 W0 2.718776 1_565
Te1 W0 2.718778 1_665
Te1 W0 2.718778 1_555
Te2 W0 2.717861 1_565
Te2 W0 2.717863 1_555
Te2 W0 2.717863 1_665
Te3 W1 2.718318 1_545
Te3 W1 2.718320 1_555
Te3 W1 2.718320 1_445
Mo0 S1 2.472631 1_545
Mo0 S1 2.472634 1_555
Mo0 S1 2.472634 1_445
Mo0 S0 2.473010 1_545
Mo0 S0 2.473012 1_445
Mo0 S0 2.473012 1_555
Se0 W2 2.564573 1_545
Se0 W2 2.564576 1_555
Se0 W2 2.564576 1_445
Se1 W2 2.564899 1_545
Se1 W2 2.564901 1_555
Se1 W2 2.564901 1_445
