# generated using pymatgen
data_Ni2As2O9
_symmetry_space_group_name_H-M   'P 1'
_cell_length_a   14.20947500
_cell_length_b   6.51908200
_cell_length_c   9.59405395
_cell_angle_alpha   51.80349187
_cell_angle_beta   90.00000000
_cell_angle_gamma   90.00000000
_symmetry_Int_Tables_number   1
_chemical_formula_structural   Ni2As2O9
_chemical_formula_sum   'Ni8 As8 O36'
_cell_volume   698.44293079
_cell_formula_units_Z   4
loop_
 _symmetry_equiv_pos_site_id
 _symmetry_equiv_pos_as_xyz
  1  'x, y, z'
loop_
 _atom_site_type_symbol
 _atom_site_label
 _atom_site_symmetry_multiplicity
 _atom_site_fract_x
 _atom_site_fract_y
 _atom_site_fract_z
 _atom_site_occupancy
  Ni  Ni0  1  0.74784100  0.68309000  0.86277200  1
  Ni  Ni1  1  0.75215900  0.68309000  0.36277200  1
  Ni  Ni2  1  0.25215900  0.31691000  0.13722800  1
  Ni  Ni3  1  0.24784100  0.31691000  0.63722800  1
  Ni  Ni4  1  0.88435600  0.17748500  0.59140500  1
  Ni  Ni5  1  0.61564400  0.17748500  0.09140500  1
  Ni  Ni6  1  0.11564400  0.82251500  0.40859500  1
  Ni  Ni7  1  0.38435600  0.82251500  0.90859500  1
  As  As0  1  0.81373900  0.10684700  0.94808600  1
  As  As1  1  0.68626100  0.10684700  0.44808600  1
  As  As2  1  0.18626100  0.89315300  0.05191400  1
  As  As3  1  0.31373900  0.89315300  0.55191400  1
  As  As4  1  0.92318900  0.61069600  0.65369700  1
  As  As5  1  0.57681100  0.61069600  0.15369700  1
  As  As6  1  0.07681100  0.38930400  0.34630300  1
  As  As7  1  0.42318900  0.38930400  0.84630300  1
  O  O0  1  0.78918300  0.03900200  0.80444200  1
  O  O1  1  0.71081700  0.03900200  0.30444200  1
  O  O2  1  0.21081700  0.96099800  0.19555800  1
  O  O3  1  0.28918300  0.96099800  0.69555800  1
  O  O4  1  0.84204100  0.84665600  0.15674500  1
  O  O5  1  0.65795900  0.84665600  0.65674500  1
  O  O6  1  0.15795900  0.15334400  0.84325500  1
  O  O7  1  0.34204100  0.15334400  0.34325500  1
  O  O8  1  0.72852900  0.31655100  0.92220700  1
  O  O9  1  0.77147100  0.31655100  0.42220700  1
  O  O10  1  0.27147100  0.68344900  0.07779300  1
  O  O11  1  0.22852900  0.68344900  0.57779300  1
  O  O12  1  0.91999400  0.29552000  0.86846100  1
  O  O13  1  0.58000600  0.29552000  0.36846100  1
  O  O14  1  0.08000600  0.70448000  0.13153900  1
  O  O15  1  0.41999400  0.70448000  0.63153900  1
  O  O16  1  0.03531300  0.70853400  0.61903700  1
  O  O17  1  0.46468700  0.70853400  0.11903700  1
  O  O18  1  0.96468700  0.29146600  0.38096300  1
  O  O19  1  0.53531300  0.29146600  0.88096300  1
  O  O20  1  0.87485600  0.55355000  0.51620200  1
  O  O21  1  0.62514400  0.55355000  0.01620200  1
  O  O22  1  0.12514400  0.44645000  0.48379800  1
  O  O23  1  0.37485600  0.44645000  0.98379800  1
  O  O24  1  0.85009100  0.80909600  0.66680200  1
  O  O25  1  0.64990900  0.80909600  0.16680200  1
  O  O26  1  0.14990900  0.19090400  0.33319800  1
  O  O27  1  0.35009100  0.19090400  0.83319800  1
  O  O28  1  0.83368500  0.50946100  0.05008300  1
  O  O29  1  0.66631500  0.50946100  0.55008300  1
  O  O30  1  0.16631500  0.49053900  0.94991700  1
  O  O31  1  0.33368500  0.49053900  0.44991700  1
  O  O32  1  0.98512700  0.01360100  0.74713500  1
  O  O33  1  0.51487300  0.01360100  0.24713500  1
  O  O34  1  0.01487300  0.98639900  0.25286500  1
  O  O35  1  0.48512700  0.98639900  0.75286500  1
loop_
_geom_bond_atom_site_label_1
_geom_bond_atom_site_label_2
_geom_bond_distance
_geom_bond_site_symmetry_2
Ni0 O28 1.866267 1_556
Ni0 O5 2.017087 1_555
Ni0 O21 2.093389 1_556
Ni0 O24 2.100157 1_555
Ni0 O8 2.103584 1_555
Ni0 O0 2.106152 1_565
Ni1 O29 1.866267 1_555
Ni1 O4 2.017087 1_555
Ni1 O20 2.093389 1_555
Ni1 O25 2.100157 1_555
Ni1 O9 2.103584 1_555
Ni1 O1 2.106152 1_565
Ni2 O30 1.866267 1_554
Ni2 O7 2.017087 1_555
Ni2 O23 2.093389 1_554
Ni2 O26 2.100157 1_555
Ni2 O10 2.103584 1_555
Ni2 O2 2.106152 1_545
Ni3 O31 1.866267 1_555
Ni3 O6 2.017087 1_555
Ni3 O22 2.093389 1_555
Ni3 O27 2.100157 1_555
Ni3 O11 2.103584 1_555
Ni3 O3 2.106152 1_545
Ni4 O32 1.857404 1_555
Ni4 O18 2.018921 1_555
Ni4 O9 2.051802 1_555
Ni4 O20 2.088437 1_555
Ni4 O24 2.092693 1_545
Ni4 O0 2.130584 1_555
Ni5 O33 1.857404 1_555
Ni5 O19 2.018921 1_554
Ni5 O8 2.051802 1_554
Ni5 O21 2.088437 1_555
Ni5 O25 2.092693 1_545
Ni5 O1 2.130584 1_555
Ni6 O34 1.857404 1_555
Ni6 O16 2.018921 1_555
Ni6 O11 2.051802 1_555
Ni6 O22 2.088437 1_555
Ni6 O26 2.092693 1_565
Ni6 O2 2.130584 1_555
Ni7 O35 1.857404 1_555
Ni7 O17 2.018921 1_556
Ni7 O10 2.051802 1_556
Ni7 O23 2.088437 1_555
Ni7 O27 2.092693 1_565
Ni7 O3 2.130584 1_555
As0 O4 1.687296 1_546
As0 O0 1.723491 1_555
As0 O8 1.725336 1_555
As0 O12 1.792754 1_555
As1 O5 1.687296 1_545
As1 O1 1.723491 1_555
As1 O9 1.725336 1_555
As1 O13 1.792754 1_555
As2 O6 1.687296 1_564
As2 O2 1.723491 1_555
As2 O10 1.725336 1_555
As2 O14 1.792754 1_555
As3 O7 1.687296 1_565
As3 O3 1.723491 1_555
As3 O11 1.725336 1_555
As3 O15 1.792754 1_555
As4 O16 1.671360 1_655
As4 O20 1.719982 1_555
As4 O24 1.722972 1_555
As4 O12 1.798183 1_555
As5 O17 1.671360 1_555
As5 O21 1.719982 1_555
As5 O25 1.722972 1_555
As5 O13 1.798183 1_555
As6 O18 1.671360 1_455
As6 O22 1.719982 1_555
As6 O26 1.722972 1_555
As6 O14 1.798183 1_555
As7 O19 1.671360 1_555
As7 O23 1.719982 1_555
As7 O27 1.722972 1_555
As7 O15 1.798183 1_555
