# generated using pymatgen
data_Sr20P12Br3ClO48
_symmetry_space_group_name_H-M   'P 1'
_cell_length_a   10.10610200
_cell_length_b   12.43761320
_cell_length_c   12.43762715
_cell_angle_alpha   71.31579600
_cell_angle_beta   66.03114296
_cell_angle_gamma   66.03116480
_symmetry_Int_Tables_number   1
_chemical_formula_structural   Sr20P12Br3ClO48
_chemical_formula_sum   'Sr20 P12 Br3 Cl1 O48'
_cell_volume   1282.57145776
_cell_formula_units_Z   1
loop_
 _symmetry_equiv_pos_site_id
 _symmetry_equiv_pos_as_xyz
  1  'x, y, z'
loop_
 _atom_site_type_symbol
 _atom_site_label
 _atom_site_symmetry_multiplicity
 _atom_site_fract_x
 _atom_site_fract_y
 _atom_site_fract_z
 _atom_site_occupancy
  Sr  Sr0  1  0.66687000  0.58237900  0.08428300  1
  Sr  Sr1  1  0.66647900  0.08235800  0.58433300  1
  Sr  Sr2  1  0.33343300  0.66564700  0.66758400  1
  Sr  Sr3  1  0.33321700  0.16571600  0.16769900  1
  Sr  Sr4  1  0.33313000  0.41762100  0.91571700  1
  Sr  Sr5  1  0.33352100  0.91764200  0.41566700  1
  Sr  Sr6  1  0.66656700  0.33435300  0.33241600  1
  Sr  Sr7  1  0.66678300  0.83428400  0.83230100  1
  Sr  Sr8  1  0.99596500  0.25454100  0.00658800  1
  Sr  Sr9  1  0.99555100  0.75670600  0.50676700  1
  Sr  Sr10  1  0.74091700  0.62281400  0.37280100  1
  Sr  Sr11  1  0.74296800  0.12190100  0.87402000  1
  Sr  Sr12  1  0.26344400  0.49542600  0.24549800  1
  Sr  Sr13  1  0.26119700  0.99544200  0.74747900  1
  Sr  Sr14  1  0.00403500  0.74545900  0.99341200  1
  Sr  Sr15  1  0.00444900  0.24329400  0.49323300  1
  Sr  Sr16  1  0.25908300  0.37718600  0.62719900  1
  Sr  Sr17  1  0.25703200  0.87809900  0.12598000  1
  Sr  Sr18  1  0.73655600  0.50457400  0.75450200  1
  Sr  Sr19  1  0.73880300  0.00455800  0.25252100  1
  P  P0  1  0.59082400  0.31145100  0.06136000  1
  P  P1  1  0.59058300  0.81161000  0.56140400  1
  P  P2  1  0.03641100  0.42040100  0.17018400  1
  P  P3  1  0.03637700  0.92045600  0.67037100  1
  P  P4  1  0.37304600  0.14319600  0.89312400  1
  P  P5  1  0.37280700  0.64332300  0.39309900  1
  P  P6  1  0.40917600  0.68854900  0.93864000  1
  P  P7  1  0.40941700  0.18839000  0.43859600  1
  P  P8  1  0.96358900  0.57959900  0.82981600  1
  P  P9  1  0.96362300  0.07954400  0.32962900  1
  P  P10  1  0.62695400  0.85680400  0.10687600  1
  P  P11  1  0.62719300  0.35667700  0.60690100  1
  Br  Br0  1  0.00000000  0.50000000  0.50000000  1
  Br  Br1  1  0.00001100  0.75078300  0.24921900  1
  Br  Br2  1  0.99998900  0.24921700  0.75078100  1
  Cl  Cl0  1  0.00000000  0.00000000  0.00000000  1
  O  O0  1  0.64150200  0.34655900  0.92240300  1
  O  O1  1  0.64149900  0.84668300  0.42236700  1
  O  O2  1  0.08946000  0.53291400  0.10861000  1
  O  O3  1  0.08947700  0.03285100  0.60870500  1
  O  O4  1  0.26905100  0.25678800  0.83272400  1
  O  O5  1  0.26899600  0.75689200  0.33250600  1
  O  O6  1  0.35769200  0.82766800  0.90390600  1
  O  O7  1  0.35864600  0.32745100  0.40349300  1
  O  O8  1  0.91042300  0.64127200  0.71733600  1
  O  O9  1  0.91076900  0.14070500  0.21694200  1
  O  O10  1  0.73148300  0.91724300  0.99350600  1
  O  O11  1  0.73100800  0.41721500  0.49325000  1
  O  O12  1  0.35849800  0.65344100  0.07759700  1
  O  O13  1  0.35850100  0.15331700  0.57763300  1
  O  O14  1  0.91054000  0.46708600  0.89139000  1
  O  O15  1  0.91052300  0.96714900  0.39129500  1
  O  O16  1  0.73094900  0.74321200  0.16727600  1
  O  O17  1  0.73100400  0.24310800  0.66749400  1
  O  O18  1  0.64230800  0.17233200  0.09609400  1
  O  O19  1  0.64135400  0.67254900  0.59650700  1
  O  O20  1  0.08957700  0.35872800  0.28266400  1
  O  O21  1  0.08923100  0.85929500  0.78305800  1
  O  O22  1  0.26851700  0.08275700  0.00649400  1
  O  O23  1  0.26899200  0.58278500  0.50675000  1
  O  O24  1  0.41200900  0.35653100  0.10682400  1
  O  O25  1  0.41167100  0.85699700  0.60701900  1
  O  O26  1  0.12431600  0.33082800  0.08085400  1
  O  O27  1  0.12460800  0.83086500  0.58114900  1
  O  O28  1  0.46387500  0.18698300  0.93733800  1
  O  O29  1  0.46350300  0.68733000  0.43728700  1
  O  O30  1  0.58799100  0.64346900  0.89317600  1
  O  O31  1  0.58832900  0.14300300  0.39298100  1
  O  O32  1  0.87568400  0.66917200  0.91914600  1
  O  O33  1  0.87539200  0.16913500  0.41885100  1
  O  O34  1  0.53612500  0.81301700  0.06266200  1
  O  O35  1  0.53649700  0.31267000  0.56271300  1
  O  O36  1  0.65472500  0.36717800  0.11728600  1
  O  O37  1  0.65485400  0.86718800  0.61725700  1
  O  O38  1  0.86071200  0.45240100  0.20245400  1
  O  O39  1  0.86080400  0.95231500  0.70243700  1
  O  O40  1  0.48451900  0.55538400  0.30538500  1
  O  O41  1  0.48443000  0.05526700  0.80544200  1
  O  O42  1  0.34527500  0.63282200  0.88271400  1
  O  O43  1  0.34514600  0.13281200  0.38274300  1
  O  O44  1  0.13928800  0.54759900  0.79754600  1
  O  O45  1  0.13919600  0.04768500  0.29756300  1
  O  O46  1  0.51548100  0.44461600  0.69461500  1
  O  O47  1  0.51557000  0.94473300  0.19455800  1
loop_
_geom_bond_atom_site_label_1
_geom_bond_atom_site_label_2
_geom_bond_distance
_geom_bond_site_symmetry_2
Br0 Sr9 3.202437 1_455
Br0 Sr15 3.202437 1_555
Br0 Sr12 3.202568 1_555
Br0 Sr18 3.202568 1_455
Br0 Sr16 3.203043 1_555
Br0 Sr10 3.203043 1_455
Br1 Sr17 3.186812 1_555
Br1 Sr14 3.186925 1_554
Br1 Sr19 3.187172 1_465
Br1 Sr9 3.209313 1_455
Br1 Sr10 3.209465 1_455
Br1 Sr12 3.209551 1_555
Br2 Sr11 3.186812 1_555
Br2 Sr8 3.186925 1_556
Br2 Sr13 3.187172 1_645
Br2 Sr15 3.209313 1_655
Br2 Sr16 3.209465 1_655
Br2 Sr18 3.209551 1_555
Cl0 Sr17 3.175902 1_545
Cl0 Sr11 3.175902 1_454
Cl0 Sr8 3.176443 1_455
Cl0 Sr14 3.176443 1_544
Cl0 Sr13 3.176801 1_544
Cl0 Sr19 3.176801 1_455
O0 P0 1.555309 1_556
O0 Sr18 2.533919 1_555
O0 Sr11 2.732991 1_555
O0 Sr4 2.902728 1_555
O1 P1 1.556148 1_555
O1 Sr19 2.551202 1_565
O1 Sr10 2.732393 1_555
O1 Sr5 2.899143 1_555
O2 P2 1.556133 1_555
O2 Sr14 2.551577 1_554
O2 Sr12 2.732266 1_555
O2 Sr4 2.900224 1_554
O3 P3 1.555177 1_545
O3 Sr15 2.533522 1_555
O3 Sr13 2.733205 1_545
O3 Sr5 2.902128 1_545
O4 P4 1.555642 1_555
O4 Sr16 2.533978 1_555
O4 Sr8 2.732898 1_456
O4 Sr4 2.899135 1_555
O5 P5 1.555692 1_555
O5 Sr17 2.551204 1_555
O5 Sr9 2.733121 1_455
O5 Sr5 2.902531 1_555
O6 P6 1.556774 1_555
O6 Sr13 2.525400 1_555
O6 Sr17 2.714041 1_556
O6 Sr7 2.908447 1_555
O7 P7 1.556444 1_555
O7 Sr12 2.534680 1_555
O7 Sr16 2.731131 1_555
O7 Sr6 2.899306 1_555
O8 P8 1.556456 1_555
O8 Sr9 2.534616 1_555
O8 Sr18 2.730490 1_555
O8 Sr7 2.899388 1_555
O9 P9 1.556718 1_555
O9 Sr8 2.525444 1_555
O9 Sr19 2.714706 1_555
O9 Sr6 2.908853 1_555
O10 P10 1.557275 1_556
O10 Sr11 2.525389 1_565
O10 Sr14 2.714662 1_655
O10 Sr7 2.907065 1_555
O11 P11 1.555881 1_555
O11 Sr10 2.534780 1_555
O11 Sr15 2.731082 1_655
O11 Sr6 2.900432 1_555
O12 P6 1.555309 1_554
O12 Sr12 2.533919 1_555
O12 Sr17 2.732991 1_555
O12 Sr0 2.902728 1_555
O13 P7 1.556148 1_555
O13 Sr13 2.551202 1_545
O13 Sr16 2.732393 1_555
O13 Sr1 2.899143 1_555
O14 P8 1.556133 1_555
O14 Sr8 2.551577 1_556
O14 Sr18 2.732266 1_555
O14 Sr0 2.900224 1_556
O15 P9 1.555177 1_565
O15 Sr9 2.533522 1_555
O15 Sr19 2.733205 1_565
O15 Sr1 2.902128 1_565
O16 P10 1.555642 1_555
O16 Sr10 2.533978 1_555
O16 Sr14 2.732898 1_654
O16 Sr0 2.899135 1_555
O17 P11 1.555692 1_555
O17 Sr11 2.551204 1_555
O17 Sr15 2.733121 1_655
O17 Sr1 2.902531 1_555
O18 P0 1.556774 1_555
O18 Sr19 2.525400 1_555
O18 Sr11 2.714041 1_554
O18 Sr3 2.908447 1_555
O19 P1 1.556444 1_555
O19 Sr18 2.534680 1_555
O19 Sr10 2.731131 1_555
O19 Sr2 2.899306 1_555
O20 P2 1.556456 1_555
O20 Sr15 2.534616 1_555
O20 Sr12 2.730490 1_555
O20 Sr3 2.899388 1_555
O21 P3 1.556718 1_555
O21 Sr14 2.525444 1_555
O21 Sr13 2.714706 1_555
O21 Sr2 2.908853 1_555
O22 P4 1.557275 1_554
O22 Sr17 2.525389 1_545
O22 Sr8 2.714662 1_455
O22 Sr3 2.907065 1_555
O23 P5 1.555881 1_555
O23 Sr16 2.534780 1_555
O23 Sr9 2.731082 1_455
O23 Sr2 2.900432 1_555
O24 P0 1.565080 1_555
O24 Sr12 2.431278 1_555
O24 Sr3 2.595013 1_555
O24 Sr4 2.598607 1_554
O25 P1 1.565963 1_555
O25 Sr13 2.443544 1_555
O25 Sr5 2.598069 1_555
O25 Sr2 2.598666 1_555
O26 P2 1.565824 1_555
O26 Sr8 2.443560 1_455
O26 Sr4 2.597296 1_554
O26 Sr3 2.598094 1_555
O27 P3 1.565005 1_555
O27 Sr9 2.431505 1_455
O27 Sr2 2.595512 1_555
O27 Sr5 2.599267 1_555
O28 P4 1.565174 1_555
O28 Sr11 2.445323 1_555
O28 Sr3 2.597494 1_556
O28 Sr4 2.600362 1_555
O29 P5 1.565691 1_555
O29 Sr10 2.429979 1_555
O29 Sr2 2.595976 1_555
O29 Sr5 2.596081 1_555
O30 P6 1.565080 1_555
O30 Sr18 2.431278 1_555
O30 Sr7 2.595013 1_555
O30 Sr0 2.598607 1_556
O31 P7 1.565963 1_555
O31 Sr19 2.443544 1_555
O31 Sr1 2.598069 1_555
O31 Sr6 2.598666 1_555
O32 P8 1.565824 1_555
O32 Sr14 2.443560 1_655
O32 Sr0 2.597296 1_556
O32 Sr7 2.598094 1_555
O33 P9 1.565005 1_555
O33 Sr15 2.431505 1_655
O33 Sr6 2.595512 1_555
O33 Sr1 2.599267 1_555
O34 P10 1.565174 1_555
O34 Sr17 2.445323 1_555
O34 Sr7 2.597494 1_554
O34 Sr0 2.600362 1_555
O35 P11 1.565691 1_555
O35 Sr16 2.429979 1_555
O35 Sr6 2.595976 1_555
O35 Sr1 2.596081 1_555
O36 P0 1.555256 1_555
O36 Sr6 2.619347 1_555
O36 Sr0 2.621016 1_555
O36 Sr8 3.033792 1_555
O37 P1 1.556075 1_555
O37 Sr7 2.618451 1_555
O37 Sr1 2.618733 1_565
O37 Sr9 3.025435 1_555
O38 P2 1.556117 1_655
O38 Sr0 2.618248 1_555
O38 Sr6 2.619421 1_555
O38 Sr10 3.025781 1_555
O39 P3 1.555466 1_655
O39 Sr7 2.618208 1_555
O39 Sr1 2.621342 1_565
O39 Sr11 3.033109 1_565
O40 P5 1.556150 1_555
O40 Sr6 2.618485 1_555
O40 Sr0 2.620096 1_555
O40 Sr12 3.027255 1_555
O41 P4 1.555308 1_555
O41 Sr7 2.618901 1_545
O41 Sr1 2.619249 1_555
O41 Sr13 3.031828 1_545
O42 P6 1.555256 1_555
O42 Sr2 2.619347 1_555
O42 Sr4 2.621016 1_555
O42 Sr14 3.033792 1_555
O43 P7 1.556075 1_555
O43 Sr3 2.618451 1_555
O43 Sr5 2.618733 1_545
O43 Sr15 3.025435 1_555
O44 P8 1.556117 1_455
O44 Sr4 2.618248 1_555
O44 Sr2 2.619421 1_555
O44 Sr16 3.025781 1_555
O45 P9 1.555466 1_455
O45 Sr3 2.618208 1_555
O45 Sr5 2.621342 1_545
O45 Sr17 3.033109 1_545
O46 P11 1.556150 1_555
O46 Sr2 2.618485 1_555
O46 Sr4 2.620096 1_555
O46 Sr18 3.027255 1_555
O47 P10 1.555308 1_555
O47 Sr3 2.618901 1_565
O47 Sr5 2.619249 1_555
O47 Sr19 3.031828 1_565
