# generated using pymatgen
data_KNaV4H4O11
_symmetry_space_group_name_H-M   'P 1'
_cell_length_a   8.37513564
_cell_length_b   8.42076230
_cell_length_c   9.06735393
_cell_angle_alpha   90.10186933
_cell_angle_beta   62.49479798
_cell_angle_gamma   90.22058527
_symmetry_Int_Tables_number   1
_chemical_formula_structural   KNaV4H4O11
_chemical_formula_sum   'K2 Na2 V8 H8 O22'
_cell_volume   567.19057128
_cell_formula_units_Z   2
loop_
 _symmetry_equiv_pos_site_id
 _symmetry_equiv_pos_as_xyz
  1  'x, y, z'
loop_
 _atom_site_type_symbol
 _atom_site_label
 _atom_site_symmetry_multiplicity
 _atom_site_fract_x
 _atom_site_fract_y
 _atom_site_fract_z
 _atom_site_occupancy
  K  K0  1  0.51246400  0.75000000  0.97507200  1
  K  K1  1  0.48753600  0.25000000  0.02492800  1
  Na  Na0  1  0.84730900  0.75000000  0.30538300  1
  Na  Na1  1  0.15269100  0.25000000  0.69461700  1
  V  V0  1  0.99882000  0.34402200  0.41595300  1
  V  V1  1  0.58522700  0.15597800  0.41595300  1
  V  V2  1  0.00118000  0.65597800  0.58404700  1
  V  V3  1  0.41477300  0.84402200  0.58404700  1
  V  V4  1  0.80048200  0.03844200  0.59187100  1
  V  V5  1  0.60764700  0.46155800  0.59187100  1
  V  V6  1  0.19951800  0.96155800  0.40812900  1
  V  V7  1  0.39235300  0.53844200  0.40812900  1
  H  H0  1  0.86999600  0.82068900  0.97515200  1
  H  H1  1  0.15485200  0.67931100  0.97515200  1
  H  H2  1  0.13000400  0.17931100  0.02484800  1
  H  H3  1  0.84514800  0.32068900  0.02484800  1
  H  H4  1  0.76998300  0.96490400  0.09573900  1
  H  H5  1  0.13427800  0.53509600  0.09573900  1
  H  H6  1  0.23001700  0.03509700  0.90426100  1
  H  H7  1  0.86572200  0.46490400  0.90426100  1
  O  O0  1  0.14245600  0.46037500  0.50393400  1
  O  O1  1  0.35361000  0.03962500  0.50393400  1
  O  O2  1  0.85754400  0.53962500  0.49606700  1
  O  O3  1  0.64639000  0.96037500  0.49606700  1
  O  O4  1  0.03579100  0.14472000  0.50914600  1
  O  O5  1  0.45506200  0.35528000  0.50914600  1
  O  O6  1  0.96420900  0.85528000  0.49085400  1
  O  O7  1  0.54493800  0.64472000  0.49085400  1
  O  O8  1  0.74445200  0.25000000  0.51109500  1
  O  O9  1  0.25554800  0.75000000  0.48890500  1
  O  O10  1  0.10185500  0.33781400  0.20887400  1
  O  O11  1  0.68927200  0.16218600  0.20887400  1
  O  O12  1  0.89814500  0.66218600  0.79112600  1
  O  O13  1  0.31072800  0.83781400  0.79112600  1
  O  O14  1  0.69466200  0.02464800  0.79712300  1
  O  O15  1  0.50821500  0.47535200  0.79712300  1
  O  O16  1  0.30533800  0.97535200  0.20287700  1
  O  O17  1  0.49178500  0.52464800  0.20287700  1
  O  O18  1  0.79460000  0.85015600  0.09119700  1
  O  O19  1  0.11420300  0.64984400  0.09119700  1
  O  O20  1  0.20540000  0.14984400  0.90880300  1
  O  O21  1  0.88579700  0.35015600  0.90880300  1
loop_
_geom_bond_atom_site_label_1
_geom_bond_atom_site_label_2
_geom_bond_distance
_geom_bond_site_symmetry_2
K0 O17 2.752935 1_556
K0 O16 2.752935 1_556
K0 O14 2.827129 1_565
K0 O15 2.827129 1_555
K0 O12 2.966514 1_555
K0 O13 2.966521 1_555
K1 O15 2.752935 1_554
K1 O14 2.752935 1_554
K1 O16 2.827129 1_545
K1 O17 2.827129 1_555
K1 O10 2.966514 1_555
K1 O11 2.966521 1_555
Na0 O19 2.340616 1_655
Na0 O18 2.340621 1_555
Na0 O7 2.466077 1_555
Na0 O6 2.466077 1_555
Na0 O2 2.506794 1_555
Na0 O3 2.506794 1_555
Na1 O21 2.340616 1_455
Na1 O20 2.340621 1_555
Na1 O5 2.466077 1_555
Na1 O4 2.466077 1_555
Na1 O0 2.506788 1_555
Na1 O1 2.506791 1_555
H0 O18 0.976753 1_556
H1 O19 0.976753 1_556
H2 O20 0.976753 1_554
H3 O21 0.976753 1_554
H4 O18 0.985607 1_555
H5 O19 0.985607 1_555
H6 O20 0.985599 1_555
H7 O21 0.985607 1_555
O0 V2 1.964064 1_555
O0 V7 1.969575 1_555
O0 V0 1.979414 1_455
O1 V3 1.964064 1_545
O1 V6 1.969576 1_545
O1 V1 1.979414 1_555
O2 V0 1.964065 1_555
O2 V5 1.969576 1_555
O2 V2 1.979408 1_655
O3 V1 1.964069 1_565
O3 V4 1.969569 1_565
O3 V3 1.979415 1_555
O4 V4 1.967438 1_455
O4 V0 1.969073 1_455
O4 V6 1.987285 1_545
O5 V5 1.967445 1_555
O5 V1 1.969076 1_555
O5 V7 1.987281 1_555
O6 V6 1.967438 1_655
O6 V2 1.969073 1_655
O6 V4 1.987285 1_565
O7 V7 1.967445 1_555
O7 V3 1.969076 1_555
O7 V5 1.987281 1_555
O8 V1 2.049735 1_555
O8 V0 2.049742 1_555
O8 V5 2.063696 1_555
O8 V4 2.063699 1_555
O9 V3 2.049735 1_555
O9 V2 2.049742 1_555
O9 V7 2.063696 1_555
O9 V6 2.063699 1_555
O10 V0 1.666250 1_455
O11 V1 1.666250 1_555
O12 V2 1.666250 1_655
O13 V3 1.666250 1_555
O14 V4 1.655022 1_555
O15 V5 1.655022 1_555
O16 V6 1.655022 1_555
O17 V7 1.655022 1_555
