# generated using pymatgen
data_CeThUS5
_symmetry_space_group_name_H-M   'P 1'
_cell_length_a   7.43497400
_cell_length_b   8.03452400
_cell_length_c   11.91178000
_cell_angle_alpha   90.00000000
_cell_angle_beta   90.00000000
_cell_angle_gamma   90.00000000
_symmetry_Int_Tables_number   1
_chemical_formula_structural   CeThUS5
_chemical_formula_sum   'Ce4 Th4 U4 S20'
_cell_volume   711.56777250
_cell_formula_units_Z   4
loop_
 _symmetry_equiv_pos_site_id
 _symmetry_equiv_pos_as_xyz
  1  'x, y, z'
loop_
 _atom_site_type_symbol
 _atom_site_label
 _atom_site_symmetry_multiplicity
 _atom_site_fract_x
 _atom_site_fract_y
 _atom_site_fract_z
 _atom_site_occupancy
  Ce  Ce0  1  0.03091300  0.49916100  0.82223600  1
  Ce  Ce1  1  0.96908700  0.99916100  0.17776400  1
  Ce  Ce2  1  0.53091300  0.99916100  0.67776400  1
  Ce  Ce3  1  0.46908700  0.49916100  0.32223600  1
  Th  Th0  1  0.47466100  0.00079500  0.32139200  1
  Th  Th1  1  0.52533900  0.50079500  0.67860800  1
  Th  Th2  1  0.97466100  0.50079500  0.17860800  1
  Th  Th3  1  0.02533900  0.00079500  0.82139200  1
  U  U0  1  0.57127300  0.24992000  0.99424500  1
  U  U1  1  0.92872700  0.24992000  0.49424500  1
  U  U2  1  0.42872700  0.74992000  0.00575500  1
  U  U3  1  0.07127300  0.74992000  0.50575500  1
  S  S0  1  0.95941000  0.25065800  0.99976300  1
  S  S1  1  0.54059000  0.25065800  0.49976300  1
  S  S2  1  0.04059000  0.75065800  0.00023700  1
  S  S3  1  0.45941000  0.75065800  0.50023700  1
  S  S4  1  0.33675100  0.04133500  0.09882500  1
  S  S5  1  0.16882900  0.45780600  0.59545400  1
  S  S6  1  0.66324900  0.54133500  0.90117500  1
  S  S7  1  0.83117100  0.95780600  0.40454600  1
  S  S8  1  0.66882900  0.95780600  0.90454600  1
  S  S9  1  0.83675100  0.54133500  0.40117500  1
  S  S10  1  0.33117100  0.45780600  0.09545400  1
  S  S11  1  0.16324900  0.04133500  0.59882500  1
  S  S12  1  0.69466100  0.25123000  0.21638500  1
  S  S13  1  0.80533900  0.25123000  0.71638500  1
  S  S14  1  0.30533900  0.75123000  0.78361500  1
  S  S15  1  0.19466100  0.75123000  0.28361500  1
  S  S16  1  0.33354900  0.24909500  0.81106400  1
  S  S17  1  0.16645100  0.24909500  0.31106400  1
  S  S18  1  0.66645100  0.74909500  0.18893600  1
  S  S19  1  0.83354900  0.74909500  0.68893600  1
loop_
_geom_bond_atom_site_label_1
_geom_bond_atom_site_label_2
_geom_bond_distance
_geom_bond_site_symmetry_2
Ce0 S13 2.893214 1_455
Ce0 S5 2.908486 1_555
Ce0 S6 2.910568 1_455
Ce0 S14 2.911413 1_555
Ce0 S2 2.929837 1_556
Ce0 S19 2.950755 1_455
Ce0 S0 2.956492 1_455
Ce0 S16 3.019495 1_555
Ce1 S15 2.893214 1_655
Ce1 S7 2.908486 1_555
Ce1 S4 2.910568 1_665
Ce1 S12 2.911413 1_565
Ce1 S0 2.929837 1_564
Ce1 S17 2.950755 1_665
Ce1 S2 2.956492 1_655
Ce1 S18 3.019495 1_555
Ce2 S14 2.893214 1_555
Ce2 S8 2.908486 1_555
Ce2 S11 2.910568 1_565
Ce2 S13 2.911413 1_565
Ce2 S1 2.929837 1_565
Ce2 S16 2.950755 1_565
Ce2 S3 2.956492 1_555
Ce2 S19 3.019495 1_555
Ce3 S12 2.893214 1_555
Ce3 S10 2.908486 1_555
Ce3 S9 2.910568 1_555
Ce3 S15 2.911413 1_555
Ce3 S3 2.929837 1_555
Ce3 S18 2.950755 1_555
Ce3 S1 2.956492 1_555
Ce3 S17 3.019495 1_555
S0 U0 2.886543 1_555
S0 Th2 2.930925 1_556
S0 Th3 2.963929 1_655
S1 U1 2.886543 1_555
S1 Th1 2.930925 1_555
S1 Th0 2.963929 1_555
S2 U2 2.886543 1_555
S2 Th3 2.930925 1_564
S2 Th2 2.963929 1_455
S3 U3 2.886543 1_555
S3 Th0 2.930925 1_565
S3 Th1 2.963929 1_555
S4 U2 2.679321 1_545
S4 U0 2.720441 1_554
S4 Th0 2.861145 1_555
S5 U3 2.678830 1_555
S5 U1 2.725798 1_455
S5 Th1 2.850670 1_555
S6 U0 2.679321 1_555
S6 U2 2.720441 1_556
S6 Th1 2.861145 1_555
S7 U1 2.678830 1_565
S7 U3 2.725798 1_655
S7 Th0 2.850670 1_565
S8 U0 2.678830 1_565
S8 U2 2.725798 1_556
S8 Th3 2.850670 1_665
S9 U1 2.679321 1_555
S9 U3 2.720441 1_655
S9 Th2 2.861145 1_555
S10 U2 2.678830 1_555
S10 U0 2.725798 1_554
S10 Th2 2.850670 1_455
S11 U3 2.679321 1_545
S11 U1 2.720441 1_455
S11 Th3 2.861145 1_555
S12 U0 2.800618 1_554
S12 Th0 2.879010 1_555
S12 Th2 2.925222 1_555
S13 U1 2.800618 1_555
S13 Th3 2.879010 1_655
S13 Th1 2.925222 1_555
S14 U2 2.800618 1_556
S14 Th1 2.879010 1_555
S14 Th3 2.925222 1_565
S15 U3 2.800618 1_555
S15 Th2 2.879010 1_455
S15 Th0 2.925222 1_565
S16 U0 2.808056 1_555
S16 Th1 2.934691 1_555
S16 Th3 3.040752 1_555
S17 U1 2.808056 1_455
S17 Th2 2.934691 1_455
S17 Th0 3.040752 1_555
S18 U2 2.808056 1_555
S18 Th0 2.934691 1_565
S18 Th2 3.040752 1_555
S19 U3 2.808056 1_655
S19 Th3 2.934691 1_665
S19 Th1 3.040752 1_555
