# generated using pymatgen
data_SmAlFe
_symmetry_space_group_name_H-M   'P 1'
_cell_length_a   5.41288520
_cell_length_b   5.41288520
_cell_length_c   8.84982800
_cell_angle_alpha   90.00000000
_cell_angle_beta   90.00000000
_cell_angle_gamma   118.93989012
_symmetry_Int_Tables_number   1
_chemical_formula_structural   SmAlFe
_chemical_formula_sum   'Sm4 Al4 Fe4'
_cell_volume   226.91539763
_cell_formula_units_Z   4
loop_
 _symmetry_equiv_pos_site_id
 _symmetry_equiv_pos_as_xyz
  1  'x, y, z'
loop_
 _atom_site_type_symbol
 _atom_site_label
 _atom_site_symmetry_multiplicity
 _atom_site_fract_x
 _atom_site_fract_y
 _atom_site_fract_z
 _atom_site_occupancy
  Sm  Sm0  1  0.66653800  0.33346200  0.30429800  1
  Sm  Sm1  1  0.33112300  0.66887700  0.17673100  1
  Sm  Sm2  1  0.33112300  0.66887700  0.82326900  1
  Sm  Sm3  1  0.66653800  0.33346200  0.69570200  1
  Al  Al0  1  0.00441700  0.99558300  0.23612900  1
  Al  Al1  1  0.00441700  0.99558300  0.76387100  1
  Al  Al2  1  0.66233400  0.83570400  0.50000000  1
  Al  Al3  1  0.16429600  0.33766600  0.50000000  1
  Fe  Fe0  1  0.16561100  0.83438900  0.50000000  1
  Fe  Fe1  1  0.35142800  0.17676800  0.00000000  1
  Fe  Fe2  1  0.82323200  0.64857200  0.00000000  1
  Fe  Fe3  1  0.82862500  0.17137500  0.00000000  1
loop_
_geom_bond_atom_site_label_1
_geom_bond_atom_site_label_2
_geom_bond_distance
_geom_bond_site_symmetry_2
Sm0 Sm1 3.325226 1_555
Sm0 Sm1 3.345260 1_655
Sm0 Sm1 3.345260 1_545
Sm1 Sm2 3.128078 1_554
Sm2 Sm3 3.325226 1_555
Sm2 Sm3 3.345260 1_455
Sm2 Sm3 3.345260 1_565
Al0 Fe3 2.655932 1_465
Al0 Fe1 2.659703 1_565
Al0 Fe2 2.659703 1_455
Al0 Fe0 2.777155 1_555
Al0 Al3 2.842528 1_565
Al0 Al2 2.842528 1_455
Al0 Sm1 3.091524 1_555
Al0 Sm0 3.195340 1_455
Al0 Sm0 3.195340 1_565
Al0 Sm0 3.207931 1_465
Al0 Sm1 3.232404 1_565
Al0 Sm1 3.232404 1_455
Al1 Fe3 2.655932 1_466
Al1 Fe1 2.659703 1_566
Al1 Fe2 2.659703 1_456
Al1 Fe0 2.777155 1_555
Al1 Al3 2.842528 1_565
Al1 Al2 2.842528 1_455
Al1 Sm2 3.091524 1_555
Al1 Sm3 3.195340 1_455
Al1 Sm3 3.195340 1_565
Al1 Sm3 3.207931 1_465
Al1 Sm2 3.232404 1_565
Al1 Sm2 3.232404 1_455
Al2 Fe0 2.685267 1_555
Al2 Fe0 2.727632 1_655
Al2 Al3 2.738903 1_555
Al2 Al3 2.760483 1_665
Al2 Sm3 3.193752 1_565
Al2 Sm0 3.193752 1_565
Al2 Sm3 3.232744 1_555
Al2 Sm0 3.232744 1_555
Al2 Sm2 3.263039 1_555
Al2 Sm1 3.263039 1_555
Al3 Fe0 2.685267 1_555
Al3 Fe0 2.727632 1_545
Al3 Sm3 3.193752 1_455
Al3 Sm0 3.193752 1_455
Al3 Sm3 3.232744 1_555
Al3 Sm0 3.232744 1_555
Al3 Sm2 3.263039 1_555
Al3 Sm1 3.263039 1_555
Fe0 Sm3 3.249687 1_455
Fe0 Sm0 3.249687 1_455
Fe0 Sm3 3.249687 1_565
Fe0 Sm0 3.249687 1_565
Fe0 Sm2 3.250638 1_555
Fe0 Sm1 3.250638 1_555
Fe1 Fe2 2.594632 1_555
Fe1 Fe3 2.597264 1_555
Fe1 Fe3 2.815863 1_455
Fe1 Fe2 2.904754 1_445
Fe1 Sm0 3.079081 1_555
Fe1 Sm3 3.079081 1_554
Fe1 Sm1 3.118290 1_545
Fe1 Sm2 3.118290 1_544
Fe1 Sm1 3.136413 1_555
Fe1 Sm2 3.136413 1_554
Fe2 Fe3 2.597264 1_555
Fe2 Fe3 2.815863 1_565
Fe2 Sm0 3.079081 1_555
Fe2 Sm3 3.079081 1_554
Fe2 Sm1 3.118290 1_655
Fe2 Sm2 3.118290 1_654
Fe2 Sm1 3.136413 1_555
Fe2 Sm2 3.136413 1_554
Fe3 Sm0 3.088145 1_555
Fe3 Sm3 3.088145 1_554
Fe3 Sm1 3.163475 1_655
Fe3 Sm2 3.163475 1_654
Fe3 Sm1 3.163475 1_545
Fe3 Sm2 3.163475 1_544
