# generated using pymatgen
data_Li(CoO2)2
_symmetry_space_group_name_H-M   'P 1'
_cell_length_a   5.86587343
_cell_length_b   5.89330762
_cell_length_c   5.73760758
_cell_angle_alpha   120.02429555
_cell_angle_beta   59.24140938
_cell_angle_gamma   120.47192444
_symmetry_Int_Tables_number   1
_chemical_formula_structural   Li(CoO2)2
_chemical_formula_sum   'Li2 Co4 O8'
_cell_volume   138.90629138
_cell_formula_units_Z   2
loop_
 _symmetry_equiv_pos_site_id
 _symmetry_equiv_pos_as_xyz
  1  'x, y, z'
loop_
 _atom_site_type_symbol
 _atom_site_label
 _atom_site_symmetry_multiplicity
 _atom_site_fract_x
 _atom_site_fract_y
 _atom_site_fract_z
 _atom_site_occupancy
  Li  Li0  1  0.49998300  0.99996400  0.49996900  1
  Li  Li1  1  0.00003600  0.00003800  0.00004800  1
  Co  Co0  1  0.50002100  0.49999800  0.50001900  1
  Co  Co1  1  0.99997800  0.49997500  0.99999500  1
  Co  Co2  1  0.99976600  0.50000800  0.50017700  1
  Co  Co3  1  0.50017600  0.50002000  0.99978300  1
  O  O0  1  0.71918000  0.71302400  0.23799900  1
  O  O1  1  0.21928700  0.71346900  0.73784000  1
  O  O2  1  0.78073400  0.28654300  0.26214900  1
  O  O3  1  0.28082900  0.28698500  0.76202000  1
  O  O4  1  0.24747900  0.29429300  0.26044800  1
  O  O5  1  0.74758300  0.29415400  0.76070100  1
  O  O6  1  0.75250100  0.70562500  0.73954100  1
  O  O7  1  0.25244800  0.70590200  0.23931200  1
loop_
_geom_bond_atom_site_label_1
_geom_bond_atom_site_label_2
_geom_bond_distance
_geom_bond_site_symmetry_2
Li0 O7 2.103237 1_555
Li0 O5 2.103849 1_565
Li0 O0 2.111135 1_555
Li0 O3 2.111331 1_565
Li0 O1 2.147652 1_555
Li0 O2 2.147833 1_565
Li1 O4 2.102068 1_555
Li1 O6 2.102921 1_444
Li1 O2 2.109605 1_455
Li1 O1 2.109695 1_544
Li1 O3 2.150156 1_554
Li1 O0 2.150173 1_445
Co0 O3 1.939934 1_555
Co0 O0 1.940082 1_555
Co0 O6 2.036056 1_555
Co0 O4 2.036496 1_555
Co0 O2 2.059272 1_555
Co0 O1 2.059447 1_555
Co1 O2 1.942308 1_556
Co1 O1 1.942544 1_655
Co1 O5 2.034565 1_555
Co1 O7 2.034934 1_656
Co1 O0 2.057980 1_556
Co1 O3 2.057990 1_655
Co2 O2 1.880058 1_555
Co2 O1 1.880561 1_655
Co2 O6 1.880942 1_555
Co2 O4 1.883261 1_655
Co2 O5 1.904545 1_555
Co2 O7 1.906231 1_655
Co3 O3 1.880360 1_555
Co3 O0 1.880854 1_556
Co3 O5 1.882508 1_555
Co3 O7 1.883968 1_556
Co3 O6 1.902514 1_555
Co3 O4 1.904801 1_556
