# generated using pymatgen
data_NaHg3
_symmetry_space_group_name_H-M   'P 1'
_cell_length_a   6.59461980
_cell_length_b   6.59462325
_cell_length_c   5.21492703
_cell_angle_alpha   90.00018814
_cell_angle_beta   89.99981574
_cell_angle_gamma   119.99998269
_symmetry_Int_Tables_number   1
_chemical_formula_structural   NaHg3
_chemical_formula_sum   'Na2 Hg6'
_cell_volume   196.40778372
_cell_formula_units_Z   2
loop_
 _symmetry_equiv_pos_site_id
 _symmetry_equiv_pos_as_xyz
  1  'x, y, z'
loop_
 _atom_site_type_symbol
 _atom_site_label
 _atom_site_symmetry_multiplicity
 _atom_site_fract_x
 _atom_site_fract_y
 _atom_site_fract_z
 _atom_site_occupancy
  Na  Na0  1  0.66666600  0.33333300  0.25000100  1
  Na  Na1  1  0.33333300  0.66666600  0.75000100  1
  Hg  Hg0  1  0.83369372  0.16630628  0.75000100  1
  Hg  Hg1  1  0.33261555  0.16630728  0.75000000  1
  Hg  Hg2  1  0.83369272  0.66738545  0.75000000  1
  Hg  Hg3  1  0.16630628  0.83369372  0.25000100  1
  Hg  Hg4  1  0.66738445  0.83369272  0.25000100  1
  Hg  Hg5  1  0.16630828  0.33261555  0.25000100  1
loop_
_geom_bond_atom_site_label_1
_geom_bond_atom_site_label_2
_geom_bond_distance
_geom_bond_site_symmetry_2
Hg0 Na0 3.230884 1_556
Hg0 Na0 3.230896 1_555
Hg0 Na1 3.297311 1_655
Hg0 Na1 3.297317 1_545
Hg1 Na0 3.230869 1_555
Hg1 Na0 3.230883 1_556
Hg1 Na1 3.297314 1_555
Hg1 Na1 3.297314 1_545
Hg2 Na0 3.230876 1_555
Hg2 Na0 3.230891 1_556
Hg2 Na1 3.297312 1_555
Hg2 Na1 3.297312 1_655
Hg3 Na1 3.230884 1_554
Hg3 Na1 3.230896 1_555
Hg3 Na0 3.297311 1_565
Hg3 Na0 3.297317 1_455
Hg4 Na1 3.230877 1_555
Hg4 Na1 3.230882 1_554
Hg4 Na0 3.297311 1_565
Hg4 Na0 3.297317 1_555
Hg5 Na1 3.230874 1_555
Hg5 Na1 3.230880 1_554
Hg5 Na0 3.297306 1_555
Hg5 Na0 3.297319 1_455
