# generated using pymatgen
data_La2NiMoO6
_symmetry_space_group_name_H-M   'P 1'
_cell_length_a   5.65037008
_cell_length_b   5.65037008
_cell_length_c   5.65037008
_cell_angle_alpha   60.00000000
_cell_angle_beta   60.00000000
_cell_angle_gamma   60.00000000
_symmetry_Int_Tables_number   1
_chemical_formula_structural   La2NiMoO6
_chemical_formula_sum   'La2 Ni1 Mo1 O6'
_cell_volume   127.56034434
_cell_formula_units_Z   1
loop_
 _symmetry_equiv_pos_site_id
 _symmetry_equiv_pos_as_xyz
  1  'x, y, z'
loop_
 _atom_site_type_symbol
 _atom_site_label
 _atom_site_symmetry_multiplicity
 _atom_site_fract_x
 _atom_site_fract_y
 _atom_site_fract_z
 _atom_site_occupancy
  La  La0  1  0.25000000  0.25000000  0.25000000  1
  La  La1  1  0.75000000  0.75000000  0.75000000  1
  Ni  Ni0  1  0.50000000  0.50000000  0.50000000  1
  Mo  Mo0  1  0.00000000  0.00000000  0.00000000  1
  O  O0  1  0.74868400  0.25131600  0.25131600  1
  O  O1  1  0.25131600  0.74868400  0.74868400  1
  O  O2  1  0.25131600  0.74868400  0.25131600  1
  O  O3  1  0.74868400  0.25131600  0.74868400  1
  O  O4  1  0.25131600  0.25131600  0.74868400  1
  O  O5  1  0.74868400  0.74868400  0.25131600  1
loop_
_geom_bond_atom_site_label_1
_geom_bond_atom_site_label_2
_geom_bond_distance
_geom_bond_site_symmetry_2
La0 O1 2.825205 1_545
La0 O0 2.825205 1_555
La0 O3 2.825205 1_554
La0 O2 2.825205 1_555
La0 O4 2.825205 1_554
La0 O4 2.825205 1_555
La0 O1 2.825205 1_554
La0 O5 2.825205 1_455
La0 O3 2.825205 1_455
La0 O0 2.825205 1_455
La0 O2 2.825205 1_545
La0 O5 2.825205 1_545
La1 O3 2.825205 1_555
La1 O1 2.825205 1_555
La1 O5 2.825205 1_555
La1 O4 2.825205 1_655
La1 O0 2.825205 1_565
La1 O2 2.825205 1_655
La1 O4 2.825205 1_565
La1 O2 2.825205 1_556
La1 O0 2.825205 1_556
La1 O5 2.825205 1_556
La1 O3 2.825205 1_565
La1 O1 2.825205 1_655
Ni0 O4 1.987192 1_555
Ni0 O1 1.987192 1_555
Ni0 O5 1.987192 1_555
Ni0 O3 1.987192 1_555
Ni0 O0 1.987192 1_555
Ni0 O2 1.987192 1_555
Mo0 O1 2.008223 1_544
Mo0 O0 2.008223 1_455
Mo0 O2 2.008223 1_545
Mo0 O5 2.008223 1_445
Mo0 O4 2.008223 1_554
Mo0 O3 2.008223 1_454
