# generated using pymatgen
data_CsCN
_symmetry_space_group_name_H-M   'P 1'
_cell_length_a   4.94460400
_cell_length_b   8.35666800
_cell_length_c   18.44202900
_cell_angle_alpha   90.00000000
_cell_angle_beta   90.00000000
_cell_angle_gamma   90.00000000
_symmetry_Int_Tables_number   1
_chemical_formula_structural   CsCN
_chemical_formula_sum   'Cs8 C8 N8'
_cell_volume   762.03227364
_cell_formula_units_Z   8
loop_
 _symmetry_equiv_pos_site_id
 _symmetry_equiv_pos_as_xyz
  1  'x, y, z'
loop_
 _atom_site_type_symbol
 _atom_site_label
 _atom_site_symmetry_multiplicity
 _atom_site_fract_x
 _atom_site_fract_y
 _atom_site_fract_z
 _atom_site_occupancy
  Cs  Cs0  1  0.71227400  0.12846700  0.87045900  1
  Cs  Cs1  1  0.78772600  0.87153300  0.37045900  1
  Cs  Cs2  1  0.21227400  0.37153300  0.12954100  1
  Cs  Cs3  1  0.28772600  0.62846700  0.62954100  1
  Cs  Cs4  1  0.19602300  0.63440700  0.87881300  1
  Cs  Cs5  1  0.30397700  0.36559300  0.37881300  1
  Cs  Cs6  1  0.69602300  0.86559300  0.12118700  1
  Cs  Cs7  1  0.80397700  0.13440700  0.62118700  1
  C  C0  1  0.68328800  0.48735300  0.76929300  1
  C  C1  1  0.81671200  0.51264700  0.26929300  1
  C  C2  1  0.18328800  0.01264700  0.23070700  1
  C  C3  1  0.31671200  0.98735300  0.73070700  1
  C  C4  1  0.69129000  0.45096400  0.98111500  1
  C  C5  1  0.80871000  0.54903600  0.48111500  1
  C  C6  1  0.19129000  0.04903600  0.01888500  1
  C  C7  1  0.30871000  0.95096400  0.51888500  1
  N  N0  1  0.84861800  0.43724600  0.72890000  1
  N  N1  1  0.65138200  0.56275400  0.22890000  1
  N  N2  1  0.34861800  0.06275400  0.27110000  1
  N  N3  1  0.15138200  0.93724600  0.77110000  1
  N  N4  1  0.73631200  0.54014700  0.02942600  1
  N  N5  1  0.76368800  0.45985300  0.52942600  1
  N  N6  1  0.23631200  0.95985300  0.97057400  1
  N  N7  1  0.26368800  0.04014700  0.47057400  1
loop_
_geom_bond_atom_site_label_1
_geom_bond_atom_site_label_2
_geom_bond_distance
_geom_bond_site_symmetry_2
Cs0 N3 3.259648 1_645
Cs0 N6 3.306514 1_545
Cs0 N6 3.479720 1_645
Cs1 N2 3.259648 1_565
Cs1 N7 3.306514 1_665
Cs1 N7 3.479720 1_565
Cs2 N1 3.259648 1_555
Cs2 N4 3.306514 1_455
Cs2 N4 3.479720 1_555
Cs3 N0 3.259648 1_455
Cs3 N5 3.306514 1_555
Cs3 N5 3.479720 1_455
Cs4 N6 3.209344 1_555
Cs4 N3 3.224788 1_555
Cs4 N0 3.648143 1_455
Cs4 N4 3.674577 1_456
Cs5 N7 3.209344 1_555
Cs5 N2 3.224788 1_555
Cs5 N1 3.648143 1_555
Cs5 N5 3.674577 1_555
Cs6 N4 3.209344 1_555
Cs6 N1 3.224788 1_555
Cs6 N2 3.648143 1_565
Cs6 N6 3.674577 1_554
Cs7 N5 3.209344 1_555
Cs7 N0 3.224788 1_555
Cs7 N3 3.648143 1_645
Cs7 N7 3.674577 1_655
C0 N0 1.182601 1_555
C0 Cs4 3.375575 1_555
C0 Cs3 3.443643 1_555
C0 Cs4 3.466587 1_655
C0 Cs0 3.534961 1_555
C1 N1 1.182601 1_555
C1 Cs5 3.375575 1_655
C1 Cs2 3.443643 1_655
C1 Cs5 3.466587 1_555
C1 Cs1 3.534961 1_555
C2 N2 1.182601 1_555
C2 Cs6 3.375575 1_445
C2 Cs1 3.443643 1_445
C2 Cs6 3.466587 1_545
C2 Cs2 3.534961 1_555
C3 N3 1.182601 1_555
C3 Cs7 3.375575 1_565
C3 Cs0 3.443643 1_565
C3 Cs7 3.466587 1_465
C3 Cs3 3.534961 1_555
C4 N4 1.182703 1_556
C4 Cs0 3.382061 1_555
C4 Cs4 3.450592 1_555
C4 Cs4 3.483966 1_655
C5 N5 1.182703 1_555
C5 Cs1 3.382061 1_555
C5 Cs5 3.450592 1_655
C5 Cs5 3.483966 1_555
C6 N6 1.182703 1_544
C6 Cs2 3.382061 1_555
C6 Cs6 3.450592 1_445
C6 Cs6 3.483966 1_545
C7 N7 1.182703 1_565
C7 Cs3 3.382061 1_555
C7 Cs7 3.450592 1_565
C7 Cs7 3.483966 1_465
