# generated using pymatgen
data_Hf4FeS8
_symmetry_space_group_name_H-M   'P 1'
_cell_length_a   6.87527979
_cell_length_b   6.87527979
_cell_length_c   8.53716609
_cell_angle_alpha   54.28420273
_cell_angle_beta   54.28420273
_cell_angle_gamma   63.19716825
_symmetry_Int_Tables_number   1
_chemical_formula_structural   Hf4FeS8
_chemical_formula_sum   'Hf4 Fe1 S8'
_cell_volume   262.28651345
_cell_formula_units_Z   1
loop_
 _symmetry_equiv_pos_site_id
 _symmetry_equiv_pos_as_xyz
  1  'x, y, z'
loop_
 _atom_site_type_symbol
 _atom_site_label
 _atom_site_symmetry_multiplicity
 _atom_site_fract_x
 _atom_site_fract_y
 _atom_site_fract_z
 _atom_site_occupancy
  Hf  Hf0  1  0.25117000  0.25117000  0.00296600  1
  Hf  Hf1  1  0.74883000  0.74883000  0.99703400  1
  Hf  Hf2  1  0.24556400  0.75443600  0.50000000  1
  Hf  Hf3  1  0.75443600  0.24556400  0.50000000  1
  Fe  Fe0  1  0.00000000  0.00000000  0.00000000  1
  S  S0  1  0.28867300  0.28867300  0.66990600  1
  S  S1  1  0.79022500  0.79022500  0.66520700  1
  S  S2  1  0.28499400  0.79099000  0.16532900  1
  S  S3  1  0.79099000  0.28499400  0.16532900  1
  S  S4  1  0.20901000  0.71500600  0.83467100  1
  S  S5  1  0.71500600  0.20901000  0.83467100  1
  S  S6  1  0.20977500  0.20977500  0.33479300  1
  S  S7  1  0.71132700  0.71132700  0.33009400  1
loop_
_geom_bond_atom_site_label_1
_geom_bond_atom_site_label_2
_geom_bond_distance
_geom_bond_site_symmetry_2
Hf0 S6 2.525379 1_555
Hf0 S0 2.562388 1_554
Hf0 S3 2.564774 1_455
Hf0 S2 2.564774 1_545
Hf0 S5 2.573170 1_554
Hf0 S4 2.573170 1_554
Hf1 S1 2.525379 1_555
Hf1 S7 2.562388 1_556
Hf1 S5 2.564774 1_565
Hf1 S4 2.564774 1_655
Hf1 S3 2.573170 1_556
Hf1 S2 2.573170 1_556
Hf2 S6 2.530953 1_565
Hf2 S1 2.530953 1_455
Hf2 S2 2.572683 1_555
Hf2 S4 2.572683 1_555
Hf2 S0 2.582473 1_555
Hf2 S7 2.582473 1_555
Hf3 S1 2.530953 1_545
Hf3 S6 2.530953 1_655
Hf3 S3 2.572683 1_555
Hf3 S5 2.572683 1_555
Hf3 S0 2.582473 1_555
Hf3 S7 2.582473 1_555
Fe0 S5 2.493596 1_454
Fe0 S4 2.493596 1_544
Fe0 S3 2.493596 1_455
Fe0 S2 2.493596 1_545
Fe0 S7 2.512363 1_445
Fe0 S0 2.512363 1_554
