# generated using pymatgen
data_Nd2MnCoO6
_symmetry_space_group_name_H-M   'P 1'
_cell_length_a   5.63625700
_cell_length_b   5.45194000
_cell_length_c   9.48479305
_cell_angle_alpha   54.91892773
_cell_angle_beta   90.00000000
_cell_angle_gamma   90.00000000
_symmetry_Int_Tables_number   1
_chemical_formula_structural   Nd2MnCoO6
_chemical_formula_sum   'Nd4 Mn2 Co2 O12'
_cell_volume   238.50818976
_cell_formula_units_Z   2
loop_
 _symmetry_equiv_pos_site_id
 _symmetry_equiv_pos_as_xyz
  1  'x, y, z'
loop_
 _atom_site_type_symbol
 _atom_site_label
 _atom_site_symmetry_multiplicity
 _atom_site_fract_x
 _atom_site_fract_y
 _atom_site_fract_z
 _atom_site_occupancy
  Nd  Nd0  1  0.55683500  0.73663500  0.74979400  1
  Nd  Nd1  1  0.05683500  0.26336500  0.75020600  1
  Nd  Nd2  1  0.44316500  0.26336500  0.25020600  1
  Nd  Nd3  1  0.94316500  0.73663500  0.24979400  1
  Mn  Mn0  1  0.50000000  0.50000000  0.50000000  1
  Mn  Mn1  1  0.00000000  0.50000000  0.00000000  1
  Co  Co0  1  0.50000000  0.00000000  0.00000000  1
  Co  Co1  1  0.00000000  0.00000000  0.50000000  1
  O  O0  1  0.47793800  0.17076800  0.74283700  1
  O  O1  1  0.21491000  0.35007500  0.45315600  1
  O  O2  1  0.71491000  0.64992500  0.04684400  1
  O  O3  1  0.19882900  0.74159900  0.04457700  1
  O  O4  1  0.52206200  0.82923200  0.25716300  1
  O  O5  1  0.78509000  0.64992500  0.54684400  1
  O  O6  1  0.30117100  0.74159900  0.54457700  1
  O  O7  1  0.02206200  0.17076800  0.24283700  1
  O  O8  1  0.97793800  0.82923200  0.75716300  1
  O  O9  1  0.80117100  0.25840100  0.95542300  1
  O  O10  1  0.69882900  0.25840100  0.45542300  1
  O  O11  1  0.28509000  0.35007500  0.95315600  1
loop_
_geom_bond_atom_site_label_1
_geom_bond_atom_site_label_2
_geom_bond_distance
_geom_bond_site_symmetry_2
Nd0 O0 2.371631 1_565
Nd0 O6 2.409411 1_555
Nd0 O11 2.415624 1_555
Nd0 O8 2.435886 1_555
Nd0 O5 2.574873 1_555
Nd0 O9 2.579376 1_555
Nd0 O10 2.720016 1_565
Nd0 O2 2.724765 1_556
Nd1 O8 2.371631 1_445
Nd1 O9 2.409411 1_455
Nd1 O5 2.415624 1_455
Nd1 O0 2.435886 1_555
Nd1 O11 2.574873 1_555
Nd1 O6 2.579376 1_555
Nd1 O3 2.720016 1_546
Nd1 O1 2.724765 1_555
Nd2 O4 2.371631 1_545
Nd2 O10 2.409411 1_555
Nd2 O2 2.415624 1_555
Nd2 O7 2.435886 1_555
Nd2 O1 2.574873 1_555
Nd2 O3 2.579376 1_555
Nd2 O6 2.720016 1_545
Nd2 O11 2.724765 1_554
Nd3 O7 2.371631 1_665
Nd3 O3 2.409411 1_655
Nd3 O1 2.415624 1_655
Nd3 O4 2.435886 1_555
Nd3 O2 2.574873 1_555
Nd3 O10 2.579376 1_555
Nd3 O9 2.720016 1_564
Nd3 O5 2.724765 1_555
Mn0 O0 1.946827 1_555
Mn0 O4 1.946827 1_555
Mn0 O6 1.951857 1_555
Mn0 O10 1.951857 1_555
Mn0 O5 1.965937 1_555
Mn0 O1 1.965937 1_555
Mn1 O8 1.946827 1_454
Mn1 O7 1.946827 1_555
Mn1 O3 1.951857 1_555
Mn1 O9 1.951857 1_454
Mn1 O2 1.965937 1_455
Mn1 O11 1.965937 1_554
Co0 O4 2.054590 1_545
Co0 O0 2.054590 1_554
Co0 O11 2.081487 1_554
Co0 O2 2.081487 1_545
Co0 O3 2.088110 1_545
Co0 O9 2.088110 1_554
Co1 O7 2.054590 1_555
Co1 O8 2.054590 1_445
Co1 O1 2.081487 1_555
Co1 O5 2.081487 1_445
Co1 O10 2.088110 1_455
Co1 O6 2.088110 1_545
