# generated using pymatgen
data_Be4AlCr
_symmetry_space_group_name_H-M   'P 1'
_cell_length_a   4.36369313
_cell_length_b   4.36369313
_cell_length_c   4.36369313
_cell_angle_alpha   60.00000000
_cell_angle_beta   60.00000000
_cell_angle_gamma   60.00000000
_symmetry_Int_Tables_number   1
_chemical_formula_structural   Be4AlCr
_chemical_formula_sum   'Be4 Al1 Cr1'
_cell_volume   58.75537555
_cell_formula_units_Z   1
loop_
 _symmetry_equiv_pos_site_id
 _symmetry_equiv_pos_as_xyz
  1  'x, y, z'
loop_
 _atom_site_type_symbol
 _atom_site_label
 _atom_site_symmetry_multiplicity
 _atom_site_fract_x
 _atom_site_fract_y
 _atom_site_fract_z
 _atom_site_occupancy
  Be  Be0  1  0.62660300  0.62660300  0.12019000  1
  Be  Be1  1  0.62660300  0.12019000  0.62660300  1
  Be  Be2  1  0.12019000  0.62660300  0.62660300  1
  Be  Be3  1  0.62660300  0.62660300  0.62660300  1
  Al  Al0  1  0.25000000  0.25000000  0.25000000  1
  Cr  Cr0  1  0.00000000  0.00000000  0.00000000  1
loop_
_geom_bond_atom_site_label_1
_geom_bond_atom_site_label_2
_geom_bond_distance
_geom_bond_site_symmetry_2
Be0 Be2 2.153862 1_654
Be0 Be3 2.153862 1_554
Be0 Be1 2.153862 1_564
Be0 Be3 2.209831 1_555
Be0 Be1 2.209831 1_555
Be0 Be2 2.209831 1_555
Be0 Cr0 2.555513 1_565
Be0 Cr0 2.555513 1_655
Be0 Cr0 2.555517 1_665
Be1 Be3 2.153862 1_545
Be1 Be2 2.153862 1_645
Be1 Be3 2.209831 1_555
Be1 Be2 2.209831 1_555
Be1 Cr0 2.555513 1_556
Be1 Cr0 2.555513 1_655
Be1 Cr0 2.555517 1_656
Be2 Be3 2.153862 1_455
Be2 Be3 2.209831 1_555
Be2 Cr0 2.555513 1_556
Be2 Cr0 2.555513 1_565
Be2 Cr0 2.555517 1_566
Be3 Cr0 2.555515 1_566
Be3 Cr0 2.555515 1_665
Be3 Cr0 2.555515 1_656
Al0 Be0 2.561478 1_555
Al0 Be1 2.561478 1_555
Al0 Be2 2.561478 1_555
Al0 Be3 2.561480 1_554
Al0 Be3 2.561480 1_455
Al0 Be3 2.561480 1_545
Al0 Be1 2.561482 1_455
Al0 Be0 2.561482 1_455
Al0 Be1 2.561482 1_554
Al0 Be0 2.561482 1_545
Al0 Be2 2.561482 1_554
Al0 Be2 2.561482 1_545
Al0 Cr0 2.672205 1_565
Al0 Cr0 2.672205 1_655
Al0 Cr0 2.672205 1_555
Al0 Cr0 2.672205 1_556
