# generated using pymatgen
data_CaVBiO5
_symmetry_space_group_name_H-M   'P 1'
_cell_length_a   5.86148843
_cell_length_b   8.32997509
_cell_length_c   11.88559600
_cell_angle_alpha   90.00000000
_cell_angle_beta   90.00000000
_cell_angle_gamma   111.00310457
_symmetry_Int_Tables_number   1
_chemical_formula_structural   CaVBiO5
_chemical_formula_sum   'Ca4 V4 Bi4 O20'
_cell_volume   541.77041195
_cell_formula_units_Z   4
loop_
 _symmetry_equiv_pos_site_id
 _symmetry_equiv_pos_as_xyz
  1  'x, y, z'
loop_
 _atom_site_type_symbol
 _atom_site_label
 _atom_site_symmetry_multiplicity
 _atom_site_fract_x
 _atom_site_fract_y
 _atom_site_fract_z
 _atom_site_occupancy
  Ca  Ca0  1  0.64121600  0.18781300  0.91438100  1
  Ca  Ca1  1  0.35878400  0.81218700  0.08561900  1
  Ca  Ca2  1  0.85878400  0.31218700  0.41438100  1
  Ca  Ca3  1  0.14121600  0.68781300  0.58561900  1
  V  V0  1  0.80141600  0.97053000  0.64611800  1
  V  V1  1  0.19858400  0.02947100  0.35388200  1
  V  V2  1  0.69858400  0.52947000  0.14611800  1
  V  V3  1  0.30141600  0.47052900  0.85388200  1
  Bi  Bi0  1  0.13238200  0.16741600  0.09204800  1
  Bi  Bi1  1  0.86761800  0.83258400  0.90795200  1
  Bi  Bi2  1  0.63238200  0.66741600  0.40795200  1
  Bi  Bi3  1  0.36761800  0.33258400  0.59204800  1
  O  O0  1  0.55797400  0.33280500  0.07599500  1
  O  O1  1  0.07094500  0.32783900  0.94100700  1
  O  O2  1  0.48600900  0.61871800  0.18166700  1
  O  O3  1  0.74148900  0.51267800  0.52610700  1
  O  O4  1  0.81176000  0.49980900  0.27722300  1
  O  O5  1  0.31176000  0.99980900  0.22277700  1
  O  O6  1  0.57094500  0.82783900  0.55899300  1
  O  O7  1  0.42905500  0.17216100  0.44100700  1
  O  O8  1  0.25851100  0.48732200  0.47389300  1
  O  O9  1  0.94202600  0.16719500  0.57599500  1
  O  O10  1  0.18824000  0.50019100  0.72277700  1
  O  O11  1  0.44202600  0.66719500  0.92400500  1
  O  O12  1  0.05797400  0.83280500  0.42400500  1
  O  O13  1  0.68824000  0.00019100  0.77722300  1
  O  O14  1  0.75851100  0.98732200  0.02610700  1
  O  O15  1  0.24148900  0.01267800  0.97389300  1
  O  O16  1  0.51399100  0.38128200  0.81833300  1
  O  O17  1  0.92905500  0.67216100  0.05899300  1
  O  O18  1  0.01399100  0.88128200  0.68166700  1
  O  O19  1  0.98600900  0.11871800  0.31833300  1
loop_
_geom_bond_atom_site_label_1
_geom_bond_atom_site_label_2
_geom_bond_distance
_geom_bond_site_symmetry_2
Ca0 O16 2.306092 1_555
Ca0 O13 2.341998 1_555
Ca0 O15 2.380759 1_555
Ca0 O1 2.387300 1_655
Ca0 O0 2.410188 1_556
Ca0 O14 2.418338 1_546
Ca1 O2 2.306092 1_555
Ca1 O5 2.341998 1_555
Ca1 O14 2.380759 1_555
Ca1 O17 2.387300 1_455
Ca1 O11 2.410188 1_554
Ca1 O15 2.418338 1_564
Ca2 O19 2.306092 1_555
Ca2 O4 2.341998 1_555
Ca2 O8 2.380759 1_655
Ca2 O7 2.387300 1_555
Ca2 O9 2.410188 1_555
Ca2 O3 2.418338 1_555
Ca3 O18 2.306092 1_555
Ca3 O10 2.341998 1_555
Ca3 O3 2.380759 1_455
Ca3 O6 2.387300 1_555
Ca3 O12 2.410188 1_555
Ca3 O8 2.418338 1_555
Bi0 O15 2.152560 1_554
Bi0 O14 2.304467 1_445
Bi0 O1 2.341619 1_554
Bi0 O0 2.386180 1_555
Bi0 O5 2.553686 1_545
Bi0 O19 2.807980 1_455
Bi1 O14 2.152560 1_556
Bi1 O15 2.304467 1_665
Bi1 O17 2.341619 1_556
Bi1 O11 2.386180 1_555
Bi1 O13 2.553686 1_565
Bi1 O18 2.807980 1_655
Bi2 O3 2.152560 1_555
Bi2 O8 2.304467 1_555
Bi2 O6 2.341619 1_555
Bi2 O12 2.386180 1_655
Bi2 O4 2.553686 1_555
Bi2 O2 2.807980 1_555
Bi3 O8 2.152560 1_555
Bi3 O3 2.304467 1_555
Bi3 O7 2.341619 1_555
Bi3 O9 2.386180 1_455
Bi3 O10 2.553686 1_555
Bi3 O16 2.807980 1_555
O0 V2 1.757784 1_555
O1 V3 1.777366 1_555
O2 V2 1.716907 1_555
O4 V2 1.745506 1_555
O5 V1 1.745508 1_565
O6 V0 1.777369 1_555
O7 V1 1.777366 1_555
O9 V0 1.757784 1_545
O10 V3 1.745508 1_555
O11 V3 1.757790 1_555
O12 V1 1.757790 1_565
O13 V0 1.745506 1_545
O16 V3 1.716902 1_555
O17 V2 1.777369 1_555
O18 V0 1.716907 1_455
O19 V1 1.716902 1_655
