# generated using pymatgen
data_Tm5Co19P12
_symmetry_space_group_name_H-M   'P 1'
_cell_length_a   11.82619904
_cell_length_b   11.82617724
_cell_length_c   3.64293048
_cell_angle_alpha   89.99999917
_cell_angle_beta   90.00000184
_cell_angle_gamma   120.00020777
_symmetry_Int_Tables_number   1
_chemical_formula_structural   Tm5Co19P12
_chemical_formula_sum   'Tm5 Co19 P12'
_cell_volume   441.23522237
_cell_formula_units_Z   1
loop_
 _symmetry_equiv_pos_site_id
 _symmetry_equiv_pos_as_xyz
  1  'x, y, z'
loop_
 _atom_site_type_symbol
 _atom_site_label
 _atom_site_symmetry_multiplicity
 _atom_site_fract_x
 _atom_site_fract_y
 _atom_site_fract_z
 _atom_site_occupancy
  Tm  Tm0  1  0.66664490  0.33331334  0.00000012  1
  Tm  Tm1  1  0.33333786  0.66669111  -0.00000002  1
  Tm  Tm2  1  0.18759668  0.18757377  0.50000049  1
  Tm  Tm3  1  0.81240671  -0.00000025  0.49999979  1
  Tm  Tm4  1  0.00002412  0.81242617  0.50000006  1
  Co  Co0  1  0.82247193  0.19961654  -0.00000001  1
  Co  Co1  1  0.80037765  0.62285587  0.00000002  1
  Co  Co2  1  0.37714755  0.17752719  0.00000003  1
  Co  Co3  1  0.19962076  0.82246799  -0.00000002  1
  Co  Co4  1  0.62284662  0.80038815  -0.00000004  1
  Co  Co5  1  0.17752469  0.37714046  -0.00000006  1
  Co  Co6  1  0.55344789  0.55346658  -0.00000012  1
  Co  Co7  1  0.44654545  0.99999640  -0.00000013  1
  Co  Co8  1  0.00000716  0.44654327  -0.00000002  1
  Co  Co9  1  0.64173772  0.12543647  0.50000000  1
  Co  Co10  1  0.87456390  0.51629734  0.49999998  1
  Co  Co11  1  0.48369973  0.35826166  0.50000001  1
  Co  Co12  1  0.12544473  0.64173769  0.49999997  1
  Co  Co13  1  0.51630159  0.87456478  0.50000000  1
  Co  Co14  1  0.35825730  0.48370446  0.49999992  1
  Co  Co15  1  0.71549997  0.71551046  0.50000002  1
  Co  Co16  1  0.28450125  -0.00000209  0.50000004  1
  Co  Co17  1  -0.00000256  0.28449308  0.49999995  1
  Co  Co18  1  -0.00000300  -0.00000418  -0.00000004  1
  P  P0  1  0.36710410  0.36710305  0.00000007  1
  P  P1  1  0.63289761  -0.00000038  -0.00000002  1
  P  P2  1  0.00000629  0.63289205  -0.00000001  1
  P  P3  1  0.83305862  0.31345268  0.49999993  1
  P  P4  1  0.68654403  0.51960332  0.50000003  1
  P  P5  1  0.48039609  0.16693451  0.50000007  1
  P  P6  1  0.31346216  0.83306243  0.50000000  1
  P  P7  1  0.51958994  0.68654115  0.49999996  1
  P  P8  1  0.16693748  0.48039461  0.49999987  1
  P  P9  1  0.82108838  0.82109155  0.00000003  1
  P  P10  1  0.17891411  -0.00000331  0.00000010  1
  P  P11  1  0.00000158  0.17892306  0.00000005  1
loop_
_geom_bond_atom_site_label_1
_geom_bond_atom_site_label_2
_geom_bond_distance
_geom_bond_site_symmetry_2
Co0 P3 2.230972 1_555
Co0 P3 2.230973 1_554
Co0 P11 2.231949 1_655
Co0 P1 2.303614 1_555
Co0 Tm3 2.936634 1_555
Co0 Tm3 2.936635 1_554
Co0 Tm0 2.968129 1_555
Co1 P4 2.230970 1_554
Co1 P4 2.230971 1_555
Co1 P9 2.232007 1_555
Co1 P2 2.303797 1_655
Co1 Tm4 2.936859 1_654
Co1 Tm4 2.936859 1_655
Co1 Tm0 2.968294 1_555
Co2 P5 2.230991 1_554
Co2 P5 2.230992 1_555
Co2 P10 2.232015 1_555
Co2 P0 2.303644 1_555
Co2 Tm2 2.936538 1_554
Co2 Tm2 2.936540 1_555
Co2 Tm0 2.967836 1_555
Co3 P6 2.230987 1_554
Co3 P6 2.230987 1_555
Co3 P10 2.232025 1_565
Co3 P2 2.303608 1_555
Co3 Tm4 2.936551 1_554
Co3 Tm4 2.936551 1_555
Co3 Tm1 2.967804 1_555
Co4 P7 2.231034 1_554
Co4 P7 2.231034 1_555
Co4 P9 2.232119 1_555
Co4 P1 2.303509 1_565
Co4 Tm3 2.936641 1_565
Co4 Tm3 2.936642 1_564
Co4 Tm1 2.967964 1_555
Co5 P8 2.231007 1_555
Co5 P8 2.231007 1_554
Co5 P11 2.231868 1_555
Co5 P0 2.303651 1_555
Co5 Tm2 2.936808 1_554
Co5 Tm2 2.936810 1_555
Co5 Tm1 2.968376 1_555
Co6 P0 2.203847 1_555
Co6 P7 2.566116 1_554
Co6 P7 2.566116 1_555
Co6 P4 2.566323 1_554
Co6 P4 2.566324 1_555
Co7 P1 2.203819 1_565
Co7 P6 2.566143 1_554
Co7 P6 2.566144 1_555
Co7 P5 2.566179 1_564
Co7 P5 2.566180 1_565
Co8 P2 2.203799 1_555
Co8 P8 2.566116 1_555
Co8 P8 2.566117 1_554
Co8 P3 2.566244 1_455
Co8 P3 2.566244 1_454
Co9 P5 2.194982 1_555
Co9 P3 2.243304 1_555
Co9 P1 2.318225 1_556
Co9 P1 2.318225 1_555
Co9 Tm0 2.953647 1_555
Co9 Tm0 2.953648 1_556
Co9 Tm3 3.044425 1_555
Co10 P3 2.195005 1_555
Co10 P4 2.243365 1_555
Co10 P2 2.318239 1_655
Co10 P2 2.318239 1_656
Co10 Tm0 2.953930 1_555
Co10 Tm0 2.953931 1_556
Co10 Tm4 3.044636 1_655
Co11 P4 2.195010 1_555
Co11 P5 2.243389 1_555
Co11 P0 2.318224 1_555
Co11 P0 2.318224 1_556
Co11 Tm0 2.953652 1_555
Co11 Tm0 2.953652 1_556
Co11 Tm2 3.044410 1_555
Co12 P8 2.194955 1_555
Co12 P6 2.243335 1_555
Co12 P2 2.318220 1_555
Co12 P2 2.318221 1_556
Co12 Tm1 2.953629 1_556
Co12 Tm1 2.953629 1_555
Co12 Tm4 3.044476 1_555
Co13 P6 2.194960 1_555
Co13 P7 2.243298 1_555
Co13 P1 2.318213 1_566
Co13 P1 2.318213 1_565
Co13 Tm1 2.953604 1_556
Co13 Tm1 2.953604 1_555
Co13 Tm3 3.044414 1_565
Co14 P7 2.194914 1_555
Co14 P8 2.243271 1_555
Co14 P0 2.318286 1_555
Co14 P0 2.318287 1_556
Co14 Tm1 2.953874 1_555
Co14 Tm1 2.953874 1_556
Co14 Tm2 3.044644 1_555
Co15 P7 2.165989 1_555
Co15 P4 2.166010 1_555
Co15 P9 2.208368 1_555
Co15 P9 2.208368 1_556
Co15 Tm3 2.962592 1_565
Co15 Tm4 2.962967 1_655
Co16 P5 2.165853 1_555
Co16 P6 2.165865 1_545
Co16 P10 2.208383 1_555
Co16 P10 2.208383 1_556
Co16 Tm4 2.962461 1_545
Co16 Tm2 2.962507 1_555
Co17 P3 2.165897 1_455
Co17 P8 2.165916 1_555
Co17 P11 2.208285 1_555
Co17 P11 2.208285 1_556
Co17 Tm3 2.962643 1_455
Co17 Tm2 2.962902 1_555
Co18 P9 2.115775 1_445
Co18 P10 2.115904 1_555
Co18 P11 2.115998 1_555
Co18 Tm4 2.870366 1_544
Co18 Tm4 2.870366 1_545
Co18 Tm2 2.870412 1_554
Co18 Tm2 2.870414 1_555
Co18 Tm3 2.870451 1_455
Co18 Tm3 2.870452 1_454
P0 Tm2 2.797303 1_554
P0 Tm2 2.797305 1_555
P1 Tm3 2.797227 1_555
P1 Tm3 2.797228 1_554
P2 Tm4 2.797369 1_554
P2 Tm4 2.797370 1_555
P3 Tm0 2.776389 1_555
P3 Tm0 2.776390 1_556
P4 Tm0 2.776382 1_555
P4 Tm0 2.776382 1_556
P5 Tm0 2.776122 1_555
P5 Tm0 2.776122 1_556
P6 Tm1 2.776088 1_556
P6 Tm1 2.776089 1_555
P7 Tm1 2.776230 1_555
P7 Tm1 2.776230 1_556
P8 Tm1 2.776448 1_555
P8 Tm1 2.776448 1_556
P9 Tm3 2.832334 1_565
P9 Tm3 2.832335 1_564
P9 Tm4 2.832508 1_654
P9 Tm4 2.832508 1_655
P10 Tm4 2.832160 1_545
P10 Tm4 2.832160 1_544
P10 Tm2 2.832214 1_554
P10 Tm2 2.832216 1_555
P11 Tm3 2.832418 1_455
P11 Tm3 2.832419 1_454
P11 Tm2 2.832514 1_554
P11 Tm2 2.832516 1_555
