# generated using pymatgen
data_Cs2Re3Se4I3
_symmetry_space_group_name_H-M   'P 1'
_cell_length_a   10.37616831
_cell_length_b   11.99612512
_cell_length_c   29.89910774
_cell_angle_alpha   90.00000000
_cell_angle_beta   90.00000000
_cell_angle_gamma   106.32771558
_symmetry_Int_Tables_number   1
_chemical_formula_structural   Cs2Re3Se4I3
_chemical_formula_sum   'Cs16 Re24 Se32 I24'
_cell_volume   3571.55938542
_cell_formula_units_Z   8
loop_
 _symmetry_equiv_pos_site_id
 _symmetry_equiv_pos_as_xyz
  1  'x, y, z'
loop_
 _atom_site_type_symbol
 _atom_site_label
 _atom_site_symmetry_multiplicity
 _atom_site_fract_x
 _atom_site_fract_y
 _atom_site_fract_z
 _atom_site_occupancy
  Cs  Cs0  1  0.33430210  0.83328328  0.77012794  1
  Cs  Cs1  1  0.66569790  0.16671672  0.22987206  1
  Cs  Cs2  1  0.66569790  0.66671672  0.27012794  1
  Cs  Cs3  1  0.33430210  0.33328328  0.72987206  1
  Cs  Cs4  1  0.72771616  0.93350888  0.45623973  1
  Cs  Cs5  1  0.27228384  0.06649112  0.54376027  1
  Cs  Cs6  1  0.27228384  0.56649112  0.95623973  1
  Cs  Cs7  1  0.72771616  0.43350888  0.04376027  1
  Cs  Cs8  1  0.74542185  0.43275385  0.45720125  1
  Cs  Cs9  1  0.25457815  0.56724615  0.54279875  1
  Cs  Cs10  1  0.25457815  0.06724615  0.95720125  1
  Cs  Cs11  1  0.74542185  0.93275385  0.04279875  1
  Cs  Cs12  1  0.83775057  0.71076247  0.63697224  1
  Cs  Cs13  1  0.16224943  0.28923753  0.36302776  1
  Cs  Cs14  1  0.16224943  0.78923753  0.13697224  1
  Cs  Cs15  1  0.83775057  0.21076247  0.86302776  1
  Re  Re0  1  0.93066248  0.62288219  0.84753770  1
  Re  Re1  1  0.06933752  0.37711781  0.15246230  1
  Re  Re2  1  0.06933752  0.87711781  0.34753770  1
  Re  Re3  1  0.93066248  0.12288219  0.65246230  1
  Re  Re4  1  0.69638075  0.78818426  0.88903692  1
  Re  Re5  1  0.30361925  0.21181574  0.11096308  1
  Re  Re6  1  0.30361925  0.71181574  0.38903692  1
  Re  Re7  1  0.69638075  0.28818426  0.61096308  1
  Re  Re8  1  0.93393990  0.84496891  0.84870318  1
  Re  Re9  1  0.06606010  0.15503109  0.15129682  1
  Re  Re10  1  0.06606010  0.65503109  0.34870318  1
  Re  Re11  1  0.93393990  0.34496891  0.65129682  1
  Re  Re12  1  0.69339626  0.56579658  0.88765093  1
  Re  Re13  1  0.30660374  0.43420342  0.11234907  1
  Re  Re14  1  0.30660374  0.93420342  0.38765093  1
  Re  Re15  1  0.69339626  0.06579658  0.61234907  1
  Re  Re16  1  0.89863227  0.72364383  0.92421421  1
  Re  Re17  1  0.10136773  0.27635617  0.07578579  1
  Re  Re18  1  0.10136773  0.77635617  0.42421421  1
  Re  Re19  1  0.89863227  0.22364383  0.57578579  1
  Re  Re20  1  0.72681228  0.68705071  0.81250782  1
  Re  Re21  1  0.27318772  0.31294929  0.18749218  1
  Re  Re22  1  0.27318772  0.81294929  0.31250782  1
  Re  Re23  1  0.72681228  0.18705071  0.68749218  1
  Se  Se0  1  0.87584251  0.72240186  0.38339476  1
  Se  Se1  1  0.12415749  0.27759814  0.61660524  1
  Se  Se2  1  0.12415749  0.77759814  0.88339476  1
  Se  Se3  1  0.87584251  0.22240186  0.11660524  1
  Se  Se4  1  0.66677000  0.66762463  0.96092219  1
  Se  Se5  1  0.33323000  0.33237537  0.03907781  1
  Se  Se6  1  0.33323000  0.83237537  0.46092219  1
  Se  Se7  1  0.66677000  0.16762463  0.53907781  1
  Se  Se8  1  0.73462958  0.90088736  0.81543368  1
  Se  Se9  1  0.26537042  0.09911264  0.18456632  1
  Se  Se10  1  0.26537042  0.59911264  0.31543368  1
  Se  Se11  1  0.73462958  0.40088736  0.68456632  1
  Se  Se12  1  0.72913536  0.97597248  0.68689974  1
  Se  Se13  1  0.27086464  0.02402752  0.31310026  1
  Se  Se14  1  0.27086464  0.52402752  0.18689974  1
  Se  Se15  1  0.72913536  0.47597248  0.81310026  1
  Se  Se16  1  0.89236741  0.50995544  0.92125682  1
  Se  Se17  1  0.10763259  0.49004456  0.07874318  1
  Se  Se18  1  0.10763259  0.99004456  0.42125682  1
  Se  Se19  1  0.89236741  0.00995544  0.57874318  1
  Se  Se20  1  0.95716329  0.74195272  0.77565365  1
  Se  Se21  1  0.04283671  0.25804728  0.22434635  1
  Se  Se22  1  0.04283671  0.75804728  0.27565365  1
  Se  Se23  1  0.95716329  0.24195272  0.72434635  1
  Se  Se24  1  0.50293140  0.63364838  0.85374332  1
  Se  Se25  1  0.49706860  0.36635162  0.14625668  1
  Se  Se26  1  0.49706860  0.86635162  0.35374332  1
  Se  Se27  1  0.50293140  0.13364838  0.64625668  1
  Se  Se28  1  0.89784615  0.93623019  0.92324086  1
  Se  Se29  1  0.10215385  0.06376981  0.07675914  1
  Se  Se30  1  0.10215385  0.56376981  0.42324086  1
  Se  Se31  1  0.89784615  0.43623019  0.57675914  1
  I  I0  1  0.11190324  0.99678098  0.67891120  1
  I  I1  1  0.88809676  0.00321902  0.32108880  1
  I  I2  1  0.88809676  0.50321902  0.17891120  1
  I  I3  1  0.11190324  0.49678098  0.82108880  1
  I  I4  1  0.57729974  0.65326408  0.73105132  1
  I  I5  1  0.42270026  0.34673592  0.26894868  1
  I  I6  1  0.42270026  0.84673592  0.23105132  1
  I  I7  1  0.57729974  0.15326408  0.76894868  1
  I  I8  1  0.51732303  0.85103245  0.58429246  1
  I  I9  1  0.48267697  0.14896755  0.41570754  1
  I  I10  1  0.48267697  0.64896755  0.08429246  1
  I  I11  1  0.51732303  0.35103245  0.91570754  1
  I  I12  1  0.87598130  0.94180072  0.17525689  1
  I  I13  1  0.12401870  0.05819928  0.82474311  1
  I  I14  1  0.12401870  0.55819928  0.67525689  1
  I  I15  1  0.87598130  0.44180072  0.32474311  1
  I  I16  1  0.97300599  0.74802363  0.50932888  1
  I  I17  1  0.02699401  0.25197637  0.49067112  1
  I  I18  1  0.02699401  0.75197637  0.00932888  1
  I  I19  1  0.97300599  0.24802363  0.99067112  1
  I  I20  1  0.52653664  0.91831467  0.92230700  1
  I  I21  1  0.47346336  0.08168533  0.07769300  1
  I  I22  1  0.47346336  0.58168533  0.42230700  1
  I  I23  1  0.52653664  0.41831467  0.57769300  1
loop_
_geom_bond_atom_site_label_1
_geom_bond_atom_site_label_2
_geom_bond_distance
_geom_bond_site_symmetry_2
Cs0 Se20 3.759067 1_455
Cs0 I4 3.930336 1_555
Cs0 I7 3.956151 1_565
Cs0 Se2 3.981296 1_555
Cs0 Se24 4.171692 1_555
Cs0 Se8 4.225297 1_555
Cs0 I13 4.244681 1_565
Cs0 I3 4.324850 1_555
Cs0 I0 4.376653 1_555
Cs0 I14 4.432618 1_555
Cs1 Se21 3.759067 1_655
Cs1 I5 3.930336 1_555
Cs1 I6 3.956151 1_545
Cs1 Se3 3.981296 1_555
Cs1 Se25 4.171692 1_555
Cs1 Se9 4.225297 1_555
Cs1 I12 4.244681 1_545
Cs1 I2 4.324850 1_555
Cs1 I1 4.376653 1_555
Cs1 I15 4.432618 1_555
Cs2 Se22 3.759067 1_655
Cs2 I6 3.930336 1_555
Cs2 I5 3.956151 1_555
Cs2 Se0 3.981296 1_555
Cs2 Se26 4.171692 1_555
Cs2 Se10 4.225297 1_555
Cs2 I15 4.244681 1_555
Cs2 I1 4.324850 1_565
Cs2 I2 4.376653 1_555
Cs2 I12 4.432618 1_555
Cs3 Se23 3.759067 1_455
Cs3 I7 3.930336 1_555
Cs3 I4 3.956151 1_555
Cs3 Se1 3.981296 1_555
Cs3 Se27 4.171692 1_555
Cs3 Se11 4.225297 1_555
Cs3 I14 4.244681 1_555
Cs3 I0 4.324850 1_545
Cs3 I3 4.376653 1_555
Cs3 I13 4.432618 1_555
Cs4 Se26 3.831974 1_555
Cs4 Se7 3.926901 1_565
Cs4 Se6 3.931162 1_555
Cs4 Se18 3.948510 1_655
Cs4 Se0 3.963321 1_555
Cs4 Se19 4.036653 1_565
Cs4 I16 4.139177 1_555
Cs4 I9 4.278881 1_565
Cs4 I17 4.315999 1_665
Cs4 I1 4.360621 1_565
Cs4 I8 4.380517 1_555
Cs4 I22 4.420586 1_555
Cs5 Se27 3.831974 1_555
Cs5 Se6 3.926901 1_545
Cs5 Se7 3.931162 1_555
Cs5 Se19 3.948510 1_455
Cs5 Se1 3.963321 1_555
Cs5 Se18 4.036653 1_545
Cs5 I17 4.139177 1_555
Cs5 I8 4.278881 1_545
Cs5 I16 4.315999 1_445
Cs5 I0 4.360621 1_545
Cs5 I9 4.380517 1_555
Cs5 I23 4.420586 1_555
Cs6 Se24 3.831974 1_555
Cs6 Se5 3.926901 1_556
Cs6 Se4 3.931162 1_555
Cs6 Se16 3.948510 1_455
Cs6 Se2 3.963321 1_555
Cs6 Se17 4.036653 1_556
Cs6 I18 4.139177 1_556
Cs6 I11 4.278881 1_555
Cs6 I19 4.315999 1_455
Cs6 I3 4.360621 1_555
Cs6 I10 4.380517 1_556
Cs6 I20 4.420586 1_555
Cs7 Se25 3.831974 1_555
Cs7 Se4 3.926901 1_554
Cs7 Se5 3.931162 1_555
Cs7 Se17 3.948510 1_655
Cs7 Se3 3.963321 1_555
Cs7 Se16 4.036653 1_554
Cs7 I19 4.139177 1_554
Cs7 I10 4.278881 1_555
Cs7 I18 4.315999 1_655
Cs7 I2 4.360621 1_555
Cs7 I11 4.380517 1_554
Cs7 I21 4.420586 1_555
Cs8 Se30 3.732474 1_655
Cs8 I22 3.883062 1_555
Cs8 Se31 3.904401 1_555
Cs8 Se7 3.913465 1_555
Cs8 I9 3.916992 1_555
Cs8 Se0 4.016274 1_555
Cs8 I16 4.157842 1_555
Cs8 I15 4.177195 1_555
Cs8 I17 4.219341 1_655
Cs8 I23 4.236249 1_555
Cs9 Se31 3.732474 1_455
Cs9 I23 3.883062 1_555
Cs9 Se30 3.904401 1_555
Cs9 Se6 3.913465 1_555
Cs9 I8 3.916992 1_555
Cs9 Se1 4.016274 1_555
Cs9 I17 4.157842 1_555
Cs9 I14 4.177195 1_555
Cs9 I16 4.219341 1_455
Cs9 I22 4.236249 1_555
Cs10 Se28 3.732474 1_445
Cs10 I20 3.883062 1_545
Cs10 Se29 3.904401 1_556
Cs10 Se5 3.913465 1_556
Cs10 I11 3.916992 1_555
Cs10 Se2 4.016274 1_545
Cs10 I18 4.157842 1_546
Cs10 I13 4.177195 1_555
Cs10 I19 4.219341 1_455
Cs10 I21 4.236249 1_556
Cs11 Se29 3.732474 1_665
Cs11 I21 3.883062 1_565
Cs11 Se28 3.904401 1_554
Cs11 Se4 3.913465 1_554
Cs11 I10 3.916992 1_555
Cs11 Se3 4.016274 1_565
Cs11 I19 4.157842 1_564
Cs11 I12 4.177195 1_555
Cs11 I18 4.219341 1_655
Cs11 I20 4.236249 1_554
Cs12 I4 3.826667 1_555
Cs12 Se11 3.840808 1_555
Cs12 Se19 3.884665 1_565
Cs12 Se31 3.953557 1_555
Cs12 Se12 3.954300 1_555
Cs12 I0 3.993632 1_655
Cs12 I16 4.047442 1_555
Cs12 I14 4.066876 1_655
Cs12 Se20 4.313655 1_555
Cs12 I23 4.416690 1_555
Cs12 I8 4.417279 1_555
Cs13 I5 3.826667 1_555
Cs13 Se10 3.840808 1_555
Cs13 Se18 3.884665 1_545
Cs13 Se30 3.953557 1_555
Cs13 Se13 3.954300 1_555
Cs13 I1 3.993632 1_455
Cs13 I17 4.047442 1_555
Cs13 I15 4.066876 1_455
Cs13 Se21 4.313655 1_555
Cs13 I22 4.416690 1_555
Cs13 I9 4.417279 1_555
Cs14 I6 3.826667 1_555
Cs14 Se9 3.840808 1_565
Cs14 Se17 3.884665 1_555
Cs14 Se29 3.953557 1_565
Cs14 Se14 3.954300 1_555
Cs14 I2 3.993632 1_455
Cs14 I18 4.047442 1_555
Cs14 I12 4.066876 1_455
Cs14 Se22 4.313655 1_555
Cs14 I21 4.416690 1_565
Cs14 I10 4.417279 1_555
Cs15 I7 3.826667 1_555
Cs15 Se8 3.840808 1_545
Cs15 Se16 3.884665 1_555
Cs15 Se28 3.953557 1_545
Cs15 Se15 3.954300 1_555
Cs15 I3 3.993632 1_655
Cs15 I19 4.047442 1_555
Cs15 I13 4.066876 1_655
Cs15 Se23 4.313655 1_555
Cs15 I20 4.416690 1_545
Cs15 I11 4.417279 1_555
Re0 Se15 2.542952 1_555
Re0 Se20 2.552335 1_555
Re0 Se2 2.555370 1_655
Re0 Se16 2.559026 1_555
Re1 Se14 2.542952 1_555
Re1 Se21 2.552335 1_555
Re1 Se3 2.555370 1_455
Re1 Se17 2.559026 1_555
Re2 Se13 2.542952 1_565
Re2 Se22 2.552335 1_555
Re2 Se0 2.555370 1_455
Re2 Se18 2.559026 1_555
Re3 Se12 2.542952 1_545
Re3 Se23 2.552335 1_555
Re3 Se1 2.555370 1_655
Re3 Se19 2.559026 1_555
Re4 Se28 2.546064 1_555
Re4 Se24 2.546978 1_555
Re4 Se8 2.554735 1_555
Re4 Se4 2.560411 1_555
Re5 Se29 2.546064 1_555
Re5 Se25 2.546978 1_555
Re5 Se9 2.554735 1_555
Re5 Se5 2.560411 1_555
Re6 Se30 2.546064 1_555
Re6 Se26 2.546978 1_555
Re6 Se10 2.554735 1_555
Re6 Se6 2.560411 1_555
Re7 Se31 2.546064 1_555
Re7 Se27 2.546978 1_555
Re7 Se11 2.554735 1_555
Re7 Se7 2.560411 1_555
Re8 Se8 2.548808 1_555
Re8 Se2 2.553732 1_655
Re8 Se20 2.554027 1_555
Re8 Se28 2.556569 1_555
Re9 Se9 2.548808 1_555
Re9 Se3 2.553732 1_455
Re9 Se21 2.554027 1_555
Re9 Se29 2.556569 1_555
Re10 Se10 2.548808 1_555
Re10 Se0 2.553732 1_455
Re10 Se22 2.554027 1_555
Re10 Se30 2.556569 1_555
Re11 Se11 2.548808 1_555
Re11 Se1 2.553732 1_655
Re11 Se23 2.554027 1_555
Re11 Se31 2.556569 1_555
Re12 Se15 2.547886 1_555
Re12 Se16 2.549184 1_555
Re12 Se24 2.549617 1_555
Re12 Se4 2.560784 1_555
Re13 Se14 2.547886 1_555
Re13 Se17 2.549184 1_555
Re13 Se25 2.549617 1_555
Re13 Se5 2.560784 1_555
Re14 Se13 2.547886 1_565
Re14 Se18 2.549184 1_555
Re14 Se26 2.549617 1_555
Re14 Se6 2.560784 1_555
Re15 Se12 2.547886 1_545
Re15 Se19 2.549184 1_555
Re15 Se27 2.549617 1_555
Re15 Se7 2.560784 1_555
Re16 Se16 2.547457 1_555
Re16 Se28 2.552684 1_555
Re16 Se2 2.555947 1_655
Re16 Se4 2.556408 1_555
Re17 Se17 2.547457 1_555
Re17 Se29 2.552684 1_555
Re17 Se3 2.555947 1_455
Re17 Se5 2.556408 1_555
Re18 Se18 2.547457 1_555
Re18 Se30 2.552684 1_555
Re18 Se0 2.555947 1_455
Re18 Se6 2.556408 1_555
Re19 Se19 2.547457 1_555
Re19 Se31 2.552684 1_555
Re19 Se1 2.555947 1_655
Re19 Se7 2.556408 1_555
Re20 Se15 2.539065 1_555
Re20 Se20 2.544746 1_555
Re20 Se8 2.545103 1_555
Re20 Se24 2.547577 1_555
Re21 Se14 2.539065 1_555
Re21 Se21 2.544746 1_555
Re21 Se9 2.545103 1_555
Re21 Se25 2.547577 1_555
Re22 Se13 2.539065 1_565
Re22 Se22 2.544746 1_555
Re22 Se10 2.545103 1_555
Re22 Se26 2.547577 1_555
Re23 Se12 2.539065 1_545
Re23 Se23 2.544746 1_555
Re23 Se11 2.545103 1_555
Re23 Se27 2.547577 1_555
I0 Re3 2.837222 1_465
I1 Re2 2.837222 1_645
I2 Re1 2.837222 1_655
I3 Re0 2.837222 1_455
I4 Re20 2.854649 1_555
I5 Re21 2.854649 1_555
I6 Re22 2.854649 1_555
I7 Re23 2.854649 1_555
I8 Re15 2.834170 1_565
I9 Re14 2.834170 1_545
I10 Re13 2.834170 1_555
I11 Re12 2.834170 1_555
I12 Re9 2.847731 1_665
I13 Re8 2.847731 1_445
I14 Re11 2.847731 1_455
I15 Re10 2.847731 1_655
I16 Re18 2.848022 1_655
I17 Re19 2.848022 1_455
I18 Re16 2.848022 1_454
I19 Re17 2.848022 1_656
I20 Re4 2.842373 1_555
I21 Re5 2.842373 1_555
I22 Re6 2.842373 1_555
I23 Re7 2.842373 1_555
