# generated using pymatgen
data_ErMgSe3
_symmetry_space_group_name_H-M   'P 1'
_cell_length_a   6.87352400
_cell_length_b   6.87352366
_cell_length_c   19.18964100
_cell_angle_alpha   90.00000000
_cell_angle_beta   90.00000000
_cell_angle_gamma   120.00000166
_symmetry_Int_Tables_number   1
_chemical_formula_structural   ErMgSe3
_chemical_formula_sum   'Er6 Mg6 Se18'
_cell_volume   785.15673350
_cell_formula_units_Z   6
loop_
 _symmetry_equiv_pos_site_id
 _symmetry_equiv_pos_as_xyz
  1  'x, y, z'
loop_
 _atom_site_type_symbol
 _atom_site_label
 _atom_site_symmetry_multiplicity
 _atom_site_fract_x
 _atom_site_fract_y
 _atom_site_fract_z
 _atom_site_occupancy
  Er  Er0  1  0.00000000  0.00000000  0.34771600  1
  Er  Er1  1  0.00000000  0.00000000  0.65228400  1
  Er  Er2  1  0.66666700  0.33333300  0.68104900  1
  Er  Er3  1  0.66666700  0.33333300  0.98561700  1
  Er  Er4  1  0.33333300  0.66666700  0.01438300  1
  Er  Er5  1  0.33333300  0.66666700  0.31895100  1
  Mg  Mg0  1  0.00000000  0.00000000  0.16170300  1
  Mg  Mg1  1  0.00000000  0.00000000  0.83829700  1
  Mg  Mg2  1  0.66666700  0.33333300  0.49503600  1
  Mg  Mg3  1  0.66666700  0.33333300  0.17163000  1
  Mg  Mg4  1  0.33333300  0.66666700  0.82837000  1
  Mg  Mg5  1  0.33333300  0.66666700  0.50496400  1
  Se  Se0  1  0.99252400  0.35806400  0.58425800  1
  Se  Se1  1  0.00747600  0.64193600  0.41574200  1
  Se  Se2  1  0.64193600  0.63446000  0.58425800  1
  Se  Se3  1  0.35806400  0.36554000  0.41574200  1
  Se  Se4  1  0.36554000  0.00747600  0.58425800  1
  Se  Se5  1  0.63446000  0.99252400  0.41574200  1
  Se  Se6  1  0.65919100  0.69139700  0.91759100  1
  Se  Se7  1  0.67414300  0.97526900  0.74907500  1
  Se  Se8  1  0.30860300  0.96779300  0.91759100  1
  Se  Se9  1  0.02473100  0.69887300  0.74907500  1
  Se  Se10  1  0.03220700  0.34080900  0.91759100  1
  Se  Se11  1  0.30112700  0.32585700  0.74907500  1
  Se  Se12  1  0.32585700  0.02473100  0.25092500  1
  Se  Se13  1  0.34080900  0.30860300  0.08240900  1
  Se  Se14  1  0.97526900  0.30112700  0.25092500  1
  Se  Se15  1  0.69139700  0.03220700  0.08240900  1
  Se  Se16  1  0.69887300  0.67414300  0.25092500  1
  Se  Se17  1  0.96779300  0.65919100  0.08240900  1
loop_
_geom_bond_atom_site_label_1
_geom_bond_atom_site_label_2
_geom_bond_distance
_geom_bond_site_symmetry_2
Er0 Se3 2.809000 1_555
Er0 Se1 2.809000 1_545
Er0 Se5 2.809000 1_445
Er0 Se12 2.848627 1_555
Er0 Se16 2.848629 1_445
Er0 Se14 2.848632 1_455
Er1 Se2 2.809000 1_445
Er1 Se0 2.809000 1_455
Er1 Se4 2.809000 1_555
Er1 Se7 2.848627 1_445
Er1 Se11 2.848629 1_555
Er1 Se9 2.848632 1_545
Er2 Se9 2.809000 1_655
Er2 Se7 2.809000 1_545
Er2 Se11 2.809000 1_555
Er2 Se0 2.848627 1_555
Er2 Se4 2.848629 1_555
Er2 Se2 2.848632 1_555
Er3 Se8 2.809000 1_545
Er3 Se6 2.809000 1_555
Er3 Se10 2.809000 1_655
Er3 Se15 2.848636 1_556
Er3 Se17 2.848642 1_556
Er3 Se13 2.848647 1_556
Er4 Se15 2.809000 1_565
Er4 Se13 2.809000 1_555
Er4 Se17 2.809000 1_455
Er4 Se8 2.848636 1_554
Er4 Se10 2.848642 1_554
Er4 Se6 2.848647 1_554
Er5 Se14 2.809000 1_455
Er5 Se12 2.809000 1_565
Er5 Se16 2.809000 1_555
Er5 Se1 2.848627 1_555
Er5 Se5 2.848629 1_555
Er5 Se3 2.848632 1_555
Mg0 Se17 2.708014 1_445
Mg0 Se13 2.708017 1_555
Mg0 Se15 2.708020 1_455
Mg0 Se12 2.756123 1_555
Mg0 Se16 2.756125 1_445
Mg0 Se14 2.756128 1_455
Mg1 Se10 2.708014 1_555
Mg1 Se6 2.708017 1_445
Mg1 Se8 2.708020 1_545
Mg1 Se7 2.756123 1_445
Mg1 Se11 2.756125 1_555
Mg1 Se9 2.756128 1_545
Mg2 Se5 2.708014 1_545
Mg2 Se1 2.708017 1_655
Mg2 Se3 2.708020 1_555
Mg2 Se0 2.756123 1_555
Mg2 Se4 2.756125 1_555
Mg2 Se2 2.756128 1_555
Mg3 Se14 2.708022 1_555
Mg3 Se12 2.708028 1_555
Mg3 Se16 2.708033 1_555
Mg3 Se15 2.756108 1_555
Mg3 Se17 2.756114 1_555
Mg3 Se13 2.756119 1_555
Mg4 Se9 2.708022 1_555
Mg4 Se7 2.708028 1_555
Mg4 Se11 2.708033 1_555
Mg4 Se8 2.756108 1_555
Mg4 Se10 2.756114 1_555
Mg4 Se6 2.756119 1_555
Mg5 Se4 2.708014 1_565
Mg5 Se0 2.708017 1_455
Mg5 Se2 2.708020 1_555
Mg5 Se1 2.756123 1_555
Mg5 Se5 2.756125 1_555
Mg5 Se3 2.756128 1_555
