# generated using pymatgen
data_Cd2Hg13(As2Cl3)4
_symmetry_space_group_name_H-M   'P 1'
_cell_length_a   12.51251800
_cell_length_b   12.51232700
_cell_length_c   12.51261935
_cell_angle_alpha   89.94702050
_cell_angle_beta   90.00000000
_cell_angle_gamma   90.00000000
_symmetry_Int_Tables_number   1
_chemical_formula_structural   Cd2Hg13(As2Cl3)4
_chemical_formula_sum   'Cd4 Hg26 As16 Cl24'
_cell_volume   1958.98381700
_cell_formula_units_Z   2
loop_
 _symmetry_equiv_pos_site_id
 _symmetry_equiv_pos_as_xyz
  1  'x, y, z'
loop_
 _atom_site_type_symbol
 _atom_site_label
 _atom_site_symmetry_multiplicity
 _atom_site_fract_x
 _atom_site_fract_y
 _atom_site_fract_z
 _atom_site_occupancy
  Cd  Cd0  1  0.50000000  0.50000000  0.50000000  1
  Cd  Cd1  1  0.00000000  0.50000000  0.00000000  1
  Cd  Cd2  1  0.50000000  0.00000000  0.00000000  1
  Cd  Cd3  1  0.00000000  0.00000000  0.50000000  1
  Hg  Hg0  1  0.00000000  0.50000000  0.50000000  1
  Hg  Hg1  1  0.50000000  0.50000000  0.00000000  1
  Hg  Hg2  1  0.78155500  0.29206100  0.47167700  1
  Hg  Hg3  1  0.28155500  0.70793900  0.02832300  1
  Hg  Hg4  1  0.21882100  0.20767900  0.97184600  1
  Hg  Hg5  1  0.71882100  0.79232100  0.52815400  1
  Hg  Hg6  1  0.29249600  0.47154200  0.78154000  1
  Hg  Hg7  1  0.70811600  0.02804900  0.28120100  1
  Hg  Hg8  1  0.20811600  0.97195100  0.21879900  1
  Hg  Hg9  1  0.79249600  0.52845800  0.71846000  1
  Hg  Hg10  1  0.47183800  0.78145500  0.29205700  1
  Hg  Hg11  1  0.02834300  0.28127500  0.70767900  1
  Hg  Hg12  1  0.97183800  0.21854500  0.20794300  1
  Hg  Hg13  1  0.52834300  0.71872500  0.79232100  1
  Hg  Hg14  1  0.21844500  0.70793900  0.52832300  1
  Hg  Hg15  1  0.71844500  0.29206100  0.97167700  1
  Hg  Hg16  1  0.78117900  0.79232100  0.02815400  1
  Hg  Hg17  1  0.28117900  0.20767900  0.47184600  1
  Hg  Hg18  1  0.70750400  0.52845800  0.21846000  1
  Hg  Hg19  1  0.29188400  0.97195100  0.71879900  1
  Hg  Hg20  1  0.79188400  0.02804900  0.78120100  1
  Hg  Hg21  1  0.20750400  0.47154200  0.28154000  1
  Hg  Hg22  1  0.52816200  0.21854500  0.70794300  1
  Hg  Hg23  1  0.97165700  0.71872500  0.29232100  1
  Hg  Hg24  1  0.02816200  0.78145500  0.79205700  1
  Hg  Hg25  1  0.47165700  0.28127500  0.20767900  1
  As  As0  1  0.83380200  0.33380900  0.66615400  1
  As  As1  1  0.33380200  0.66619100  0.83384600  1
  As  As2  1  0.16591600  0.16593500  0.16595600  1
  As  As3  1  0.66591600  0.83406500  0.33404400  1
  As  As4  1  0.16619800  0.66619100  0.33384600  1
  As  As5  1  0.66619800  0.33380900  0.16615400  1
  As  As6  1  0.83408400  0.83406500  0.83404400  1
  As  As7  1  0.33408400  0.16593500  0.66595600  1
  As  As8  1  0.77946000  0.22044300  0.27939600  1
  As  As9  1  0.27946000  0.77955700  0.22060400  1
  As  As10  1  0.22095600  0.27893900  0.77911200  1
  As  As11  1  0.72095600  0.72106100  0.72088800  1
  As  As12  1  0.22054000  0.77955700  0.72060400  1
  As  As13  1  0.72054000  0.22044300  0.77939600  1
  As  As14  1  0.77904400  0.72106100  0.22088800  1
  As  As15  1  0.27904400  0.27893900  0.27911200  1
  Cl  Cl0  1  0.54037000  0.29048000  0.46463600  1
  Cl  Cl1  1  0.04037000  0.70952000  0.03536400  1
  Cl  Cl2  1  0.45926600  0.20812100  0.96450200  1
  Cl  Cl3  1  0.95926600  0.79187900  0.53549800  1
  Cl  Cl4  1  0.29184600  0.46437500  0.54068100  1
  Cl  Cl5  1  0.70948900  0.03523200  0.04042500  1
  Cl  Cl6  1  0.20948900  0.96476800  0.45957500  1
  Cl  Cl7  1  0.79184600  0.53562500  0.95931900  1
  Cl  Cl8  1  0.46429300  0.54056500  0.29182400  1
  Cl  Cl9  1  0.03514800  0.04054400  0.70946500  1
  Cl  Cl10  1  0.96429300  0.45943500  0.20817600  1
  Cl  Cl11  1  0.53514800  0.95945600  0.79053500  1
  Cl  Cl12  1  0.45963000  0.70952000  0.53536400  1
  Cl  Cl13  1  0.95963000  0.29048000  0.96463600  1
  Cl  Cl14  1  0.54073400  0.79187900  0.03549800  1
  Cl  Cl15  1  0.04073400  0.20812100  0.46450200  1
  Cl  Cl16  1  0.70815400  0.53562500  0.45931900  1
  Cl  Cl17  1  0.29051100  0.96476800  0.95957500  1
  Cl  Cl18  1  0.79051100  0.03523200  0.54042500  1
  Cl  Cl19  1  0.20815400  0.46437500  0.04068100  1
  Cl  Cl20  1  0.53570700  0.45943500  0.70817600  1
  Cl  Cl21  1  0.96485200  0.95945600  0.29053500  1
  Cl  Cl22  1  0.03570700  0.54056500  0.79182400  1
  Cl  Cl23  1  0.46485200  0.04054400  0.20946500  1
loop_
_geom_bond_atom_site_label_1
_geom_bond_atom_site_label_2
_geom_bond_distance
_geom_bond_site_symmetry_2
Cd0 Cl20 2.690709 1_555
Cd0 Cl8 2.690709 1_555
Cd0 Cl16 2.690904 1_555
Cd0 Cl4 2.690904 1_555
Cd0 Cl0 2.706622 1_555
Cd0 Cl12 2.706622 1_555
Cd1 Cl22 2.690709 1_554
Cd1 Cl10 2.690709 1_455
Cd1 Cl19 2.690904 1_555
Cd1 Cl7 2.690904 1_454
Cd1 Cl1 2.706622 1_555
Cd1 Cl13 2.706622 1_454
Cd2 Cl14 2.690010 1_545
Cd2 Cl2 2.690010 1_554
Cd2 Cl5 2.705823 1_555
Cd2 Cl17 2.705823 1_544
Cd2 Cl23 2.706037 1_555
Cd2 Cl11 2.706037 1_544
Cd3 Cl3 2.690010 1_445
Cd3 Cl15 2.690010 1_555
Cd3 Cl6 2.705823 1_545
Cd3 Cl18 2.705823 1_455
Cd3 Cl9 2.706037 1_555
Cd3 Cl21 2.706037 1_445
As0 As13 2.454494 1_555
As0 Hg2 2.573735 1_555
As0 Hg11 2.574244 1_655
As0 Hg9 2.574906 1_555
As1 As12 2.454494 1_555
As1 Hg3 2.573735 1_556
As1 Hg13 2.574244 1_555
As1 Hg6 2.574906 1_555
As2 Hg8 2.569882 1_545
As2 Hg12 2.570432 1_455
As2 Hg4 2.570577 1_554
As3 Hg7 2.569882 1_565
As3 Hg10 2.570432 1_555
As3 Hg5 2.570577 1_555
As4 As9 2.454494 1_555
As4 Hg14 2.573735 1_555
As4 Hg23 2.574244 1_455
As4 Hg21 2.574906 1_555
As5 As8 2.454494 1_555
As5 Hg15 2.573735 1_554
As5 Hg25 2.574244 1_555
As5 Hg18 2.574906 1_555
As6 Hg20 2.569882 1_565
As6 Hg24 2.570432 1_655
As6 Hg16 2.570577 1_556
As7 Hg19 2.569882 1_545
As7 Hg22 2.570432 1_555
As7 Hg17 2.570577 1_555
As8 Hg7 2.567565 1_555
As8 Hg12 2.567926 1_555
As8 Hg2 2.568312 1_555
As9 Hg8 2.567565 1_555
As9 Hg10 2.567926 1_555
As9 Hg3 2.568312 1_555
As10 As7 2.451802 1_555
As10 Hg4 2.570523 1_555
As10 Hg11 2.570635 1_555
As10 Hg6 2.570996 1_555
As11 As6 2.451802 1_555
As11 Hg5 2.570523 1_555
As11 Hg13 2.570635 1_555
As11 Hg9 2.570996 1_555
As12 Hg19 2.567565 1_555
As12 Hg24 2.567926 1_555
As12 Hg14 2.568312 1_555
As13 Hg20 2.567565 1_555
As13 Hg22 2.567926 1_555
As13 Hg15 2.568312 1_555
As14 As3 2.451802 1_555
As14 Hg16 2.570523 1_555
As14 Hg23 2.570635 1_555
As14 Hg18 2.570996 1_555
As15 As2 2.451802 1_555
As15 Hg17 2.570523 1_555
As15 Hg25 2.570635 1_555
As15 Hg21 2.570996 1_555
Cl0 Hg2 3.019183 1_555
Cl1 Hg3 3.019183 1_555
Cl2 Hg4 3.009980 1_555
Cl3 Hg5 3.009980 1_555
Cl4 Hg6 3.015205 1_555
Cl5 Hg7 3.014045 1_555
Cl6 Hg8 3.014045 1_555
Cl7 Hg9 3.015205 1_555
Cl8 Hg10 3.015577 1_555
Cl9 Hg11 3.013370 1_555
Cl10 Hg12 3.015577 1_555
Cl11 Hg13 3.013370 1_555
Cl12 Hg14 3.019183 1_555
Cl13 Hg15 3.019183 1_555
Cl14 Hg16 3.009980 1_555
Cl15 Hg17 3.009980 1_555
Cl16 Hg18 3.015205 1_555
Cl17 Hg19 3.014045 1_555
Cl18 Hg20 3.014045 1_555
Cl19 Hg21 3.015205 1_555
Cl20 Hg22 3.015577 1_555
Cl21 Hg23 3.013370 1_555
Cl22 Hg24 3.015577 1_555
Cl23 Hg25 3.013370 1_555
