# generated using pymatgen
data_Li6Zn3(PS4)4
_symmetry_space_group_name_H-M   'P 1'
_cell_length_a   9.33610413
_cell_length_b   11.58860141
_cell_length_c   23.14102881
_cell_angle_alpha   89.98678362
_cell_angle_beta   90.00030449
_cell_angle_gamma   89.94317813
_symmetry_Int_Tables_number   1
_chemical_formula_structural   Li6Zn3(PS4)4
_chemical_formula_sum   'Li24 Zn12 P16 S64'
_cell_volume   2503.68190480
_cell_formula_units_Z   4
loop_
 _symmetry_equiv_pos_site_id
 _symmetry_equiv_pos_as_xyz
  1  'x, y, z'
loop_
 _atom_site_type_symbol
 _atom_site_label
 _atom_site_symmetry_multiplicity
 _atom_site_fract_x
 _atom_site_fract_y
 _atom_site_fract_z
 _atom_site_occupancy
  Li  Li0  1  0.75121750  0.99854965  0.87927724  1
  Li  Li1  1  0.25529276  0.75006341  0.75173784  1
  Li  Li2  1  0.24823204  0.25148526  0.75181022  1
  Li  Li3  1  0.25077910  0.24413433  0.99889586  1
  Li  Li4  1  0.50048813  0.50017401  0.25016896  1
  Li  Li5  1  0.50347584  0.99845151  0.25096361  1
  Li  Li6  1  0.50325031  0.50205606  0.49985364  1
  Li  Li7  1  0.50024527  0.99800814  0.49916461  1
  Li  Li8  1  0.00424662  0.75187667  0.37393572  1
  Li  Li9  1  0.00181935  0.25040363  0.37504701  1
  Li  Li10  1  0.51105199  0.50104018  0.75139625  1
  Li  Li11  1  0.50891413  0.99975791  0.74724774  1
  Li  Li12  1  0.99627681  0.75246889  0.62206416  1
  Li  Li13  1  0.99270212  0.25239210  0.62234717  1
  Li  Li14  1  0.50178432  0.50387272  0.99957996  1
  Li  Li15  1  0.50138993  0.99712581  0.00114385  1
  Li  Li16  1  0.99893925  0.74494930  0.87818603  1
  Li  Li17  1  0.98862156  0.25077282  0.87535540  1
  Li  Li18  1  0.00211425  0.74953233  0.12551945  1
  Li  Li19  1  0.99888496  0.24786681  0.12705790  1
  Li  Li20  1  0.50645090  0.74878319  0.62370398  1
  Li  Li21  1  0.50570453  0.25335829  0.87513843  1
  Li  Li22  1  0.49970503  0.74879430  0.87642834  1
  Li  Li23  1  0.99939203  0.99748900  0.00190169  1
  Zn  Zn0  1  0.50623950  0.24774317  0.12617635  1
  Zn  Zn1  1  0.50027578  0.75130567  0.12423918  1
  Zn  Zn2  1  0.49854339  0.24969475  0.37479648  1
  Zn  Zn3  1  0.50009573  0.75039934  0.37524225  1
  Zn  Zn4  1  0.99877608  0.50030969  0.25014481  1
  Zn  Zn5  1  0.99986132  0.99993970  0.25011741  1
  Zn  Zn6  1  0.50455018  0.24999008  0.62325976  1
  Zn  Zn7  1  0.99852063  0.50071636  0.49870658  1
  Zn  Zn8  1  0.99772139  0.99833840  0.49952809  1
  Zn  Zn9  1  0.98738928  0.50075653  0.74970472  1
  Zn  Zn10  1  0.99402381  0.00011296  0.74987264  1
  Zn  Zn11  1  0.99116853  0.50278140  0.00043260  1
  P  P0  1  0.75043069  0.25017924  0.25042371  1
  P  P1  1  0.74982741  0.74952671  0.24994226  1
  P  P2  1  0.74969983  0.25042240  0.49937412  1
  P  P3  1  0.75097063  0.74608638  0.49860158  1
  P  P4  1  0.25046625  0.49994161  0.37502617  1
  P  P5  1  0.25013895  0.00032029  0.37505980  1
  P  P6  1  0.75143778  0.24481509  0.74928335  1
  P  P7  1  0.74695948  0.75101730  0.75055806  1
  P  P8  1  0.24931990  0.49834565  0.62794036  1
  P  P9  1  0.24890724  0.00176912  0.62367549  1
  P  P10  1  0.74688943  0.25419979  0.99862171  1
  P  P11  1  0.75242590  0.75403937  0.00288940  1
  P  P12  1  0.25046673  0.49744200  0.87427713  1
  P  P13  1  0.24795115  0.99787458  0.87351285  1
  P  P14  1  0.24742982  0.49927683  0.12428122  1
  P  P15  1  0.25403312  0.00540066  0.12581698  1
  S  S0  1  0.87252897  0.35631905  0.05194695  1
  S  S1  1  0.86922974  0.85700870  0.05489875  1
  S  S2  1  0.86540752  0.36125942  0.30242009  1
  S  S3  1  0.86437667  0.86127199  0.30186711  1
  S  S4  1  0.36522510  0.60889365  0.17556391  1
  S  S5  1  0.37135573  0.11218583  0.17911257  1
  S  S6  1  0.86154406  0.36359611  0.55130392  1
  S  S7  1  0.86258863  0.86110915  0.55077452  1
  S  S8  1  0.36424117  0.61140385  0.42710789  1
  S  S9  1  0.36435430  0.11172914  0.42718281  1
  S  S10  1  0.86189991  0.35837261  0.80169050  1
  S  S11  1  0.87405553  0.85869031  0.80405039  1
  S  S12  1  0.36856428  0.60567925  0.67921598  1
  S  S13  1  0.36683228  0.11350992  0.67726131  1
  S  S14  1  0.36091670  0.60489856  0.92579656  1
  S  S15  1  0.37090606  0.10538819  0.92428627  1
  S  S16  1  0.63527362  0.64575325  0.30574597  1
  S  S17  1  0.63601015  0.14639263  0.30622128  1
  S  S18  1  0.63997912  0.64340149  0.55317241  1
  S  S19  1  0.63736043  0.14456558  0.55528969  1
  S  S20  1  0.13671465  0.89626756  0.43109335  1
  S  S21  1  0.13739121  0.39538225  0.43111261  1
  S  S22  1  0.63808131  0.64716391  0.80526370  1
  S  S23  1  0.63288206  0.14304780  0.80364928  1
  S  S24  1  0.13084542  0.89704083  0.68061164  1
  S  S25  1  0.12409549  0.39243761  0.68140709  1
  S  S26  1  0.62929433  0.64744359  0.05474142  1
  S  S27  1  0.63469640  0.14695473  0.05456173  1
  S  S28  1  0.12595637  0.89806588  0.92514090  1
  S  S29  1  0.12330344  0.39415154  0.92810183  1
  S  S30  1  0.13661915  0.90034068  0.18020098  1
  S  S31  1  0.13480335  0.39536533  0.18030744  1
  S  S32  1  0.86265247  0.13767116  0.19831345  1
  S  S33  1  0.86435852  0.63808160  0.19780185  1
  S  S34  1  0.86525518  0.13948476  0.44766136  1
  S  S35  1  0.87295160  0.64073413  0.44566912  1
  S  S36  1  0.36441333  0.38844259  0.32276669  1
  S  S37  1  0.36364248  0.88848509  0.32292215  1
  S  S38  1  0.86907015  0.13894110  0.69580080  1
  S  S39  1  0.87271360  0.64649243  0.69796668  1
  S  S40  1  0.36417192  0.38938224  0.57494614  1
  S  S41  1  0.36541302  0.89438306  0.57428334  1
  S  S42  1  0.86774006  0.14289262  0.94844958  1
  S  S43  1  0.85891743  0.63913080  0.94866165  1
  S  S44  1  0.36635952  0.39043877  0.82124497  1
  S  S45  1  0.37349010  0.89663619  0.82058911  1
  S  S46  1  0.37002357  0.38778582  0.07282307  1
  S  S47  1  0.36406203  0.89157405  0.07345841  1
  S  S48  1  0.63800591  0.35545122  0.19447968  1
  S  S49  1  0.63480665  0.85337950  0.19439555  1
  S  S50  1  0.63357580  0.35370923  0.44408863  1
  S  S51  1  0.63773838  0.85302740  0.44311384  1
  S  S52  1  0.13656175  0.60357652  0.31884161  1
  S  S53  1  0.13505746  0.10424694  0.31943868  1
  S  S54  1  0.63442754  0.35030507  0.69503009  1
  S  S55  1  0.63790177  0.85468798  0.69565814  1
  S  S56  1  0.13265859  0.60010353  0.57230011  1
  S  S57  1  0.12685888  0.10546963  0.57123731  1
  S  S58  1  0.63028952  0.35871320  0.94682709  1
  S  S59  1  0.63357250  0.85513011  0.94697565  1
  S  S60  1  0.12371895  0.60145117  0.82014584  1
  S  S61  1  0.12602458  0.10793113  0.81903938  1
  S  S62  1  0.13611954  0.60330346  0.06805674  1
  S  S63  1  0.13462036  0.10770770  0.07147832  1
loop_
_geom_bond_atom_site_label_1
_geom_bond_atom_site_label_2
_geom_bond_distance
_geom_bond_site_symmetry_2
Li0 S59 2.534841 1_555
Li0 S42 2.559027 1_565
Li0 S11 2.640121 1_555
Li0 S23 2.661289 1_565
Li1 S45 2.578059 1_555
Li1 S12 2.594655 1_555
Li1 S24 2.637208 1_555
Li1 S60 2.642704 1_555
Li2 S44 2.528981 1_555
Li2 S61 2.547987 1_555
Li2 S25 2.580812 1_555
Li2 S13 2.599333 1_555
Li3 S63 2.549309 1_556
Li3 S15 2.611845 1_555
Li3 S46 2.634829 1_556
Li3 S29 2.667801 1_555
Li4 S16 2.467578 1_555
Li4 S36 2.472875 1_555
Li4 S48 2.473588 1_555
Li4 S4 2.481635 1_555
Li5 S5 2.453367 1_565
Li5 S49 2.457697 1_555
Li5 S37 2.470532 1_555
Li5 S17 2.471971 1_565
Li6 S18 2.416603 1_555
Li6 S50 2.469419 1_555
Li6 S8 2.473796 1_555
Li6 S40 2.532373 1_555
Li7 S41 2.459780 1_555
Li7 S9 2.473190 1_565
Li7 S51 2.479862 1_555
Li7 S19 2.493077 1_565
Li8 S35 2.432935 1_455
Li8 S20 2.466580 1_555
Li8 S3 2.467683 1_455
Li8 S52 2.470185 1_555
Li9 S53 2.463520 1_555
Li9 S2 2.468332 1_455
Li9 S34 2.470573 1_455
Li9 S21 2.472500 1_555
Li10 S22 2.415124 1_555
Li10 S12 2.454776 1_555
Li10 S54 2.465067 1_555
Li10 S44 2.466330 1_555
Li11 S55 2.387187 1_555
Li11 S23 2.409398 1_565
Li11 S45 2.430885 1_555
Li11 S13 2.473013 1_565
Li12 S7 2.420813 1_555
Li12 S39 2.434351 1_555
Li12 S56 2.462029 1_655
Li12 S24 2.495225 1_655
Li13 S6 2.420498 1_555
Li13 S57 2.421419 1_655
Li13 S38 2.439693 1_555
Li13 S25 2.451846 1_655
Li14 S58 2.399241 1_555
Li14 S26 2.412400 1_556
Li14 S14 2.451852 1_555
Li14 S46 2.489583 1_556
Li15 S59 2.408096 1_554
Li15 S47 2.437741 1_555
Li15 S27 2.469213 1_565
Li15 S15 2.493449 1_564
Li16 S28 2.395926 1_655
Li16 S43 2.423789 1_555
Li16 S60 2.433855 1_655
Li16 S11 2.456798 1_555
Li17 S42 2.387370 1_555
Li17 S29 2.415944 1_655
Li17 S10 2.420029 1_555
Li17 S61 2.465947 1_655
Li18 S1 2.399400 1_455
Li18 S33 2.474346 1_455
Li18 S62 2.490367 1_555
Li18 S30 2.497555 1_555
Li19 S63 2.428005 1_655
Li19 S32 2.443292 1_555
Li19 S0 2.447116 1_555
Li19 S31 2.460820 1_655
Li20 S18 2.389016 1_555
Li20 S55 2.405992 1_555
Li20 S41 2.425573 1_555
Li20 S12 2.461887 1_555
Li21 S58 2.366299 1_555
Li21 S44 2.401324 1_555
Li21 S23 2.403903 1_555
Li21 S15 2.412705 1_555
Li22 S59 2.397846 1_555
Li22 S22 2.401255 1_555
Li22 S14 2.401717 1_555
Li22 S45 2.447148 1_555
Li23 S1 2.373628 1_555
Li23 S63 2.412847 1_665
Li23 S42 2.423832 1_564
Li23 S28 2.424318 1_654
P0 S32 2.061508 1_555
P0 S17 2.063203 1_555
P0 S2 2.064113 1_555
P0 S48 2.064627 1_555
P1 S49 2.061689 1_555
P1 S16 2.063848 1_555
P1 S33 2.065221 1_555
P1 S3 2.065900 1_555
P2 S50 2.059499 1_555
P2 S34 2.060757 1_555
P2 S6 2.063483 1_555
P2 S19 2.069059 1_555
P3 S18 2.021460 1_555
P3 S35 2.070228 1_555
P3 S51 2.073364 1_555
P3 S7 2.079383 1_555
P4 S8 2.062222 1_555
P4 S52 2.064074 1_555
P4 S36 2.064411 1_555
P4 S21 2.066164 1_555
P5 S37 2.063074 1_545
P5 S53 2.063556 1_555
P5 S20 2.063628 1_545
P5 S9 2.064516 1_555
P6 S23 2.049549 1_555
P6 S38 2.059433 1_555
P6 S54 2.064144 1_555
P6 S10 2.066283 1_555
P7 S22 2.021403 1_555
P7 S55 2.022600 1_555
P7 S39 2.079580 1_555
P7 S11 2.121528 1_555
P8 S12 2.048879 1_555
P8 S56 2.057047 1_555
P8 S40 2.060634 1_555
P8 S25 2.099084 1_555
P9 S41 2.009024 1_545
P9 S57 2.052234 1_555
P9 S24 2.103754 1_545
P9 S13 2.104795 1_555
P10 S58 2.021198 1_555
P10 S42 2.069456 1_555
P10 S0 2.074257 1_556
P10 S27 2.078306 1_556
P11 S1 2.016143 1_555
P11 S59 2.067505 1_554
P11 S26 2.071085 1_555
P11 S43 2.081970 1_554
P12 S14 2.009629 1_555
P12 S44 2.052428 1_555
P12 S29 2.096621 1_555
P12 S60 2.102063 1_555
P13 S28 2.016037 1_555
P13 S45 2.061062 1_555
P13 S15 2.062540 1_565
P13 S61 2.123164 1_565
P14 S62 2.054957 1_555
P14 S4 2.057891 1_555
P14 S31 2.058746 1_555
P14 S46 2.096450 1_555
P15 S63 2.055818 1_555
P15 S5 2.062908 1_555
P15 S47 2.064301 1_545
P15 S30 2.066329 1_545
S0 Zn11 2.351925 1_555
S2 Zn4 2.369275 1_555
S3 Zn5 2.370563 1_555
S4 Zn1 2.393177 1_555
S5 Zn0 2.357387 1_555
S6 Zn7 2.375931 1_555
S7 Zn8 2.351633 1_555
S8 Zn3 2.376340 1_555
S9 Zn2 2.366109 1_555
S10 Zn9 2.354858 1_555
S11 Zn10 2.348401 1_565
S13 Zn6 2.391531 1_555
S16 Zn3 2.376472 1_555
S17 Zn2 2.365659 1_555
S19 Zn6 2.345622 1_555
S20 Zn8 2.364076 1_455
S21 Zn7 2.369695 1_455
S24 Zn10 2.371749 1_465
S25 Zn9 2.387532 1_455
S26 Zn1 2.341814 1_555
S27 Zn0 2.355223 1_555
S29 Zn11 2.430253 1_456
S30 Zn5 2.361795 1_455
S31 Zn4 2.387786 1_455
S32 Zn5 2.370800 1_545
S33 Zn4 2.363522 1_555
S34 Zn8 2.374998 1_545
S35 Zn7 2.347098 1_555
S36 Zn2 2.366057 1_555
S37 Zn3 2.375831 1_555
S38 Zn10 2.347393 1_555
S39 Zn9 2.329691 1_555
S40 Zn6 2.360500 1_555
S43 Zn11 2.334897 1_556
S46 Zn0 2.402168 1_555
S47 Zn1 2.373908 1_555
S48 Zn0 2.360844 1_555
S49 Zn1 2.369871 1_555
S50 Zn2 2.370089 1_555
S51 Zn3 2.352983 1_555
S52 Zn4 2.370235 1_455
S53 Zn5 2.373088 1_445
S54 Zn6 2.362997 1_555
S56 Zn7 2.408095 1_455
S57 Zn8 2.398434 1_445
S60 Zn9 2.375422 1_455
S61 Zn10 2.376077 1_455
S62 Zn11 2.375123 1_455
