# generated using pymatgen
data_TiFeGe
_symmetry_space_group_name_H-M   'P 1'
_cell_length_a   6.40637600
_cell_length_b   7.09806100
_cell_length_c   7.28222728
_cell_angle_alpha   119.16688229
_cell_angle_beta   116.09518995
_cell_angle_gamma   90.00000000
_symmetry_Int_Tables_number   1
_chemical_formula_structural   TiFeGe
_chemical_formula_sum   'Ti6 Fe6 Ge6'
_cell_volume   249.78962773
_cell_formula_units_Z   6
loop_
 _symmetry_equiv_pos_site_id
 _symmetry_equiv_pos_as_xyz
  1  'x, y, z'
loop_
 _atom_site_type_symbol
 _atom_site_label
 _atom_site_symmetry_multiplicity
 _atom_site_fract_x
 _atom_site_fract_y
 _atom_site_fract_z
 _atom_site_occupancy
  Ti  Ti0  1  0.24129400  0.47642400  0.45284800  1
  Ti  Ti1  1  0.78844500  0.52357600  0.54715200  1
  Ti  Ti2  1  0.66266100  0.74880500  0.99761100  1
  Ti  Ti3  1  0.66505000  0.25119500  0.00238900  1
  Ti  Ti4  1  0.85353100  0.05351700  0.60703500  1
  Ti  Ti5  1  0.24649600  0.94648300  0.39296500  1
  Fe  Fe0  1  0.00116400  0.00000000  0.00000000  1
  Fe  Fe1  1  0.00116400  0.50000000  0.00000000  1
  Fe  Fe2  1  0.49537900  0.66088500  0.24639700  1
  Fe  Fe3  1  0.24898200  0.33911500  0.75360300  1
  Fe  Fe4  1  0.24898200  0.91448800  0.75360300  1
  Fe  Fe5  1  0.49537900  0.08551200  0.24639700  1
  Ge  Ge0  1  0.28624700  0.28199400  0.06398800  1
  Ge  Ge1  1  0.22225900  0.71800600  0.93601200  1
  Ge  Ge2  1  0.57853000  0.83874800  0.66537600  1
  Ge  Ge3  1  0.91315400  0.16125200  0.33462400  1
  Ge  Ge4  1  0.91315400  0.67337200  0.33462400  1
  Ge  Ge5  1  0.57853000  0.32662800  0.66537600  1
loop_
_geom_bond_atom_site_label_1
_geom_bond_atom_site_label_2
_geom_bond_distance
_geom_bond_site_symmetry_2
Fe0 Ge0 2.429267 1_555
Fe0 Ge1 2.429267 1_544
Fe0 Ge2 2.460914 1_444
Fe0 Ge3 2.460914 1_455
Fe0 Fe5 2.748278 1_555
Fe0 Fe4 2.748278 1_544
Fe0 Ti2 2.796191 1_444
Fe0 Ti3 2.796191 1_455
Fe0 Ti4 2.811844 1_454
Fe0 Ti5 2.811844 1_545
Fe0 Ti1 3.056894 1_444
Fe0 Ti0 3.056894 1_555
Fe1 Ge1 2.429267 1_554
Fe1 Ge0 2.429267 1_555
Fe1 Ge5 2.460914 1_454
Fe1 Ge4 2.460914 1_455
Fe1 Fe2 2.748278 1_555
Fe1 Fe3 2.748278 1_554
Fe1 Ti2 2.796187 1_454
Fe1 Ti3 2.796187 1_455
Fe1 Ti5 2.811849 1_555
Fe1 Ti4 2.811849 1_454
Fe1 Ti1 3.056894 1_454
Fe1 Ti0 3.056894 1_555
Fe2 Ge0 2.396790 1_555
Fe2 Ge1 2.397678 1_554
Fe2 Ge2 2.449993 1_555
Fe2 Ge4 2.452678 1_555
Fe2 Ti5 2.679384 1_555
Fe2 Ti4 2.737432 1_565
Fe2 Ti2 2.762304 1_554
Fe2 Ti1 2.781161 1_555
Fe3 Ge1 2.396790 1_555
Fe3 Ge0 2.397678 1_556
Fe3 Ge3 2.449993 1_455
Fe3 Ge5 2.452678 1_555
Fe3 Ti4 2.679384 1_455
Fe3 Ti5 2.737432 1_545
Fe3 Ti3 2.762304 1_556
Fe3 Ti0 2.781163 1_555
Fe4 Ge1 2.396790 1_555
Fe4 Ge0 2.397678 1_566
Fe4 Ge4 2.449993 1_455
Fe4 Ge2 2.452678 1_555
Fe4 Ti4 2.679380 1_465
Fe4 Ti5 2.737436 1_555
Fe4 Ti3 2.762308 1_566
Fe4 Ti0 2.781163 1_555
Fe5 Ge0 2.396790 1_555
Fe5 Ge1 2.397678 1_544
Fe5 Ge5 2.449993 1_555
Fe5 Ge3 2.452678 1_555
Fe5 Ti5 2.679380 1_545
Fe5 Ti4 2.737436 1_555
Fe5 Ti2 2.762308 1_544
Fe5 Ti1 2.781161 1_555
Ge0 Ti0 2.629573 1_555
Ge0 Ti3 2.645794 1_555
Ge0 Ti4 2.830669 1_454
Ge0 Ti1 3.135572 1_555
Ge1 Ti1 2.629577 1_455
Ge1 Ti2 2.645794 1_555
Ge1 Ti5 2.830669 1_556
Ge1 Ti0 3.135575 1_555
Ge2 Ti1 2.587581 1_555
Ge2 Ti3 2.588662 1_566
Ge2 Ti5 2.609830 1_555
Ge2 Ti0 2.618367 1_555
Ge2 Ti4 2.626400 1_565
Ge2 Ti2 2.628687 1_555
Ge3 Ti0 2.587585 1_655
Ge3 Ti2 2.588662 1_544
Ge3 Ti4 2.609830 1_555
Ge3 Ti1 2.618371 1_555
Ge3 Ti5 2.626400 1_645
Ge3 Ti3 2.628687 1_555
Ge4 Ti0 2.587585 1_655
Ge4 Ti2 2.588657 1_554
Ge4 Ti4 2.609825 1_565
Ge4 Ti1 2.618371 1_555
Ge4 Ti5 2.626404 1_655
Ge4 Ti3 2.628683 1_555
Ge5 Ti1 2.587581 1_555
Ge5 Ti3 2.588657 1_556
Ge5 Ti5 2.609825 1_545
Ge5 Ti0 2.618367 1_555
Ge5 Ti4 2.626404 1_555
Ge5 Ti2 2.628683 1_555
