# generated using pymatgen
data_TaBiO5
_symmetry_space_group_name_H-M   'P 1'
_cell_length_a   6.16346200
_cell_length_b   11.90974800
_cell_length_c   16.07263400
_cell_angle_alpha   90.00000000
_cell_angle_beta   90.00000000
_cell_angle_gamma   90.00000000
_symmetry_Int_Tables_number   1
_chemical_formula_structural   TaBiO5
_chemical_formula_sum   'Ta8 Bi8 O40'
_cell_volume   1179.81618669
_cell_formula_units_Z   8
loop_
 _symmetry_equiv_pos_site_id
 _symmetry_equiv_pos_as_xyz
  1  'x, y, z'
loop_
 _atom_site_type_symbol
 _atom_site_label
 _atom_site_symmetry_multiplicity
 _atom_site_fract_x
 _atom_site_fract_y
 _atom_site_fract_z
 _atom_site_occupancy
  Ta  Ta0  1  0.97960000  0.39778100  0.61573800  1
  Ta  Ta1  1  0.52040000  0.89778100  0.38426300  1
  Ta  Ta2  1  0.02040000  0.60221900  0.38426300  1
  Ta  Ta3  1  0.47960000  0.10221900  0.61573800  1
  Ta  Ta4  1  0.02040000  0.10221900  0.11573700  1
  Ta  Ta5  1  0.97960000  0.89778100  0.88426200  1
  Ta  Ta6  1  0.52040000  0.39778100  0.11573700  1
  Ta  Ta7  1  0.47960000  0.60221900  0.88426200  1
  Bi  Bi0  1  0.91969800  0.81794400  0.20637000  1
  Bi  Bi1  1  0.08030200  0.18205600  0.79363000  1
  Bi  Bi2  1  0.58030200  0.31794400  0.79363000  1
  Bi  Bi3  1  0.08030200  0.68205600  0.70637000  1
  Bi  Bi4  1  0.41969800  0.18205600  0.29363000  1
  Bi  Bi5  1  0.41969800  0.68205600  0.20637000  1
  Bi  Bi6  1  0.58030200  0.81794400  0.70637000  1
  Bi  Bi7  1  0.91969800  0.31794400  0.29363000  1
  O  O0  1  0.87736100  0.29347600  0.70380600  1
  O  O1  1  0.25969000  0.04435500  0.06896400  1
  O  O2  1  0.24031000  0.54435500  0.93103600  1
  O  O3  1  0.22544400  0.79940000  0.14510400  1
  O  O4  1  0.27455600  0.29940000  0.85489600  1
  O  O5  1  0.87736100  0.79347600  0.79619400  1
  O  O6  1  0.27455600  0.79940000  0.64510400  1
  O  O7  1  0.62263900  0.79347600  0.29619400  1
  O  O8  1  0.25969000  0.54435500  0.43103600  1
  O  O9  1  0.12263900  0.70652400  0.29619400  1
  O  O10  1  0.62263900  0.29347600  0.20380600  1
  O  O11  1  0.63681400  0.17728500  0.53824700  1
  O  O12  1  0.75969000  0.95564500  0.43103600  1
  O  O13  1  0.77455600  0.70060000  0.64510400  1
  O  O14  1  0.15476800  0.01286700  0.83103200  1
  O  O15  1  0.75969000  0.45564500  0.06896400  1
  O  O16  1  0.12263900  0.20652400  0.20380600  1
  O  O17  1  0.72544400  0.20060000  0.35489600  1
  O  O18  1  0.13681400  0.82271500  0.96175300  1
  O  O19  1  0.24031000  0.04435500  0.56896400  1
  O  O20  1  0.36318600  0.82271500  0.46175300  1
  O  O21  1  0.84523200  0.98713300  0.16896800  1
  O  O22  1  0.77455600  0.20060000  0.85489600  1
  O  O23  1  0.65476800  0.98713300  0.66896800  1
  O  O24  1  0.36318600  0.32271500  0.03824700  1
  O  O25  1  0.13681400  0.32271500  0.53824700  1
  O  O26  1  0.74031000  0.45564500  0.56896400  1
  O  O27  1  0.74031000  0.95564500  0.93103600  1
  O  O28  1  0.65476800  0.48713300  0.83103200  1
  O  O29  1  0.86318600  0.67728500  0.46175300  1
  O  O30  1  0.86318600  0.17728500  0.03824700  1
  O  O31  1  0.63681400  0.67728500  0.96175300  1
  O  O32  1  0.84523200  0.48713300  0.33103200  1
  O  O33  1  0.72544400  0.70060000  0.14510400  1
  O  O34  1  0.22544400  0.29940000  0.35489600  1
  O  O35  1  0.15476800  0.51286700  0.66896800  1
  O  O36  1  0.34523200  0.51286700  0.16896800  1
  O  O37  1  0.37736100  0.20652400  0.70380600  1
  O  O38  1  0.34523200  0.01286700  0.33103200  1
  O  O39  1  0.37736100  0.70652400  0.79619400  1
loop_
_geom_bond_atom_site_label_1
_geom_bond_atom_site_label_2
_geom_bond_distance
_geom_bond_site_symmetry_2
Bi0 O33 2.087158 1_555
Bi0 O3 2.137660 1_655
Bi0 O21 2.152266 1_555
Bi0 O9 2.325882 1_655
Bi0 O7 2.349777 1_555
Bi1 O4 2.087158 1_555
Bi1 O22 2.137660 1_455
Bi1 O14 2.152266 1_555
Bi1 O0 2.325882 1_455
Bi1 O37 2.349777 1_555
Bi2 O22 2.087158 1_555
Bi2 O4 2.137660 1_555
Bi2 O28 2.152266 1_555
Bi2 O37 2.325882 1_555
Bi2 O0 2.349777 1_555
Bi3 O6 2.087158 1_555
Bi3 O13 2.137660 1_455
Bi3 O35 2.152266 1_555
Bi3 O5 2.325882 1_455
Bi3 O39 2.349777 1_555
Bi4 O34 2.087158 1_555
Bi4 O17 2.137660 1_555
Bi4 O38 2.152266 1_555
Bi4 O10 2.325882 1_555
Bi4 O16 2.349777 1_555
Bi5 O3 2.087158 1_555
Bi5 O33 2.137660 1_555
Bi5 O36 2.152266 1_555
Bi5 O7 2.325882 1_555
Bi5 O9 2.349777 1_555
Bi6 O13 2.087158 1_555
Bi6 O6 2.137660 1_555
Bi6 O23 2.152266 1_555
Bi6 O39 2.325882 1_555
Bi6 O5 2.349777 1_555
Bi7 O17 2.087158 1_555
Bi7 O34 2.137660 1_655
Bi7 O32 2.152266 1_555
Bi7 O16 2.325882 1_655
Bi7 O10 2.349777 1_555
O0 Ta0 1.985915 1_555
O1 Ta4 1.793117 1_555
O2 Ta7 1.793124 1_555
O5 Ta5 1.985915 1_555
O7 Ta1 1.985926 1_555
O8 Ta2 1.793117 1_555
O9 Ta2 1.985926 1_555
O10 Ta6 1.985926 1_555
O11 Ta3 1.813677 1_555
O12 Ta1 1.793117 1_555
O14 Ta5 1.943258 1_445
O15 Ta6 1.793117 1_555
O16 Ta4 1.985926 1_555
O18 Ta5 1.813677 1_455
O19 Ta3 1.793124 1_555
O20 Ta1 1.813666 1_555
O21 Ta4 1.943265 1_665
O23 Ta3 1.943258 1_565
O24 Ta6 1.813666 1_555
O25 Ta0 1.813677 1_455
O26 Ta0 1.793124 1_555
O27 Ta5 1.793124 1_555
O28 Ta7 1.943258 1_555
O29 Ta2 1.813666 1_655
O30 Ta4 1.813666 1_655
O31 Ta7 1.813677 1_555
O32 Ta2 1.943265 1_655
O35 Ta0 1.943258 1_455
O36 Ta6 1.943265 1_555
O37 Ta3 1.985915 1_555
O38 Ta1 1.943265 1_545
O39 Ta7 1.985915 1_555
