# generated using pymatgen
data_SmBiTe3
_symmetry_space_group_name_H-M   'P 1'
_cell_length_a   10.98769055
_cell_length_b   10.98769055
_cell_length_c   10.98769005
_cell_angle_alpha   23.32620416
_cell_angle_beta   23.32620416
_cell_angle_gamma   23.32620596
_symmetry_Int_Tables_number   1
_chemical_formula_structural   SmBiTe3
_chemical_formula_sum   'Sm1 Bi1 Te3'
_cell_volume   182.60768130
_cell_formula_units_Z   1
loop_
 _symmetry_equiv_pos_site_id
 _symmetry_equiv_pos_as_xyz
  1  'x, y, z'
loop_
 _atom_site_type_symbol
 _atom_site_label
 _atom_site_symmetry_multiplicity
 _atom_site_fract_x
 _atom_site_fract_y
 _atom_site_fract_z
 _atom_site_occupancy
  Sm  Sm0  1  0.60251130  0.60251130  0.60251130  1
  Bi  Bi0  1  0.39818355  0.39818355  0.39818355  1
  Te  Te0  1  0.99800352  0.99800352  0.99800352  1
  Te  Te1  1  0.78335395  0.78335395  0.78335395  1
  Te  Te2  1  0.21794767  0.21794767  0.21794767  1
loop_
_geom_bond_atom_site_label_1
_geom_bond_atom_site_label_2
_geom_bond_distance
_geom_bond_site_symmetry_2
Sm0 Te2 3.045465 1_655
Sm0 Te2 3.045465 1_565
Sm0 Te2 3.045465 1_556
Sm0 Te0 3.247759 1_455
Sm0 Te0 3.247759 1_545
Sm0 Te0 3.247759 1_554
Bi0 Te1 3.055995 1_455
Bi0 Te1 3.055995 1_545
Bi0 Te1 3.055995 1_554
Bi0 Te0 3.342041 1_544
Bi0 Te0 3.342041 1_454
Bi0 Te0 3.342041 1_445
