# generated using pymatgen
data_Ca2La2Cu3O8
_symmetry_space_group_name_H-M   'P 1'
_cell_length_a   13.47490119
_cell_length_b   13.47490119
_cell_length_c   13.47490119
_cell_angle_alpha   163.33270147
_cell_angle_beta   163.33270147
_cell_angle_gamma   23.65575701
_symmetry_Int_Tables_number   1
_chemical_formula_structural   Ca2La2Cu3O8
_chemical_formula_sum   'Ca2 La2 Cu3 O8'
_cell_volume   201.22264038
_cell_formula_units_Z   1
loop_
 _symmetry_equiv_pos_site_id
 _symmetry_equiv_pos_as_xyz
  1  'x, y, z'
loop_
 _atom_site_type_symbol
 _atom_site_label
 _atom_site_symmetry_multiplicity
 _atom_site_fract_x
 _atom_site_fract_y
 _atom_site_fract_z
 _atom_site_occupancy
  Ca  Ca0  1  0.29596500  0.29596500  0.00000000  1
  Ca  Ca1  1  0.70403500  0.70403500  0.00000000  1
  La  La0  1  0.43149300  0.43149300  0.00000000  1
  La  La1  1  0.56850700  0.56850700  0.00000000  1
  Cu  Cu0  1  0.13696300  0.13696300  0.00000000  1
  Cu  Cu1  1  0.86303700  0.86303700  0.00000000  1
  Cu  Cu2  1  0.00000000  0.00000000  0.00000000  1
  O  O0  1  0.21356900  0.21356900  0.00000000  1
  O  O1  1  0.78643100  0.78643100  0.00000000  1
  O  O2  1  0.62266500  0.12266500  0.50000000  1
  O  O3  1  0.37733500  0.87733500  0.50000000  1
  O  O4  1  0.12266500  0.62266500  0.50000000  1
  O  O5  1  0.87733500  0.37733500  0.50000000  1
  O  O6  1  0.50000000  0.00000000  0.50000000  1
  O  O7  1  0.00000000  0.50000000  0.50000000  1
loop_
_geom_bond_atom_site_label_1
_geom_bond_atom_site_label_2
_geom_bond_distance
_geom_bond_site_symmetry_2
Ca0 O0 2.173409 1_555
Ca0 O1 2.773407 1_444
Ca0 O1 2.773407 1_545
Ca0 O1 2.773407 1_455
Ca0 O1 2.773407 1_556
Ca0 O5 2.901908 1_555
Ca0 O3 2.901908 1_555
Ca0 O5 2.901908 1_454
Ca0 O3 2.901908 1_544
Ca1 O1 2.173409 1_555
Ca1 O0 2.773407 1_666
Ca1 O0 2.773407 1_554
Ca1 O0 2.773407 1_655
Ca1 O0 2.773407 1_565
Ca1 O2 2.901908 1_565
Ca1 O4 2.901908 1_554
Ca1 O4 2.901908 1_655
Ca1 O2 2.901908 1_554
La0 O3 2.419721 1_544
La0 O5 2.419721 1_555
La0 O5 2.419721 1_454
La0 O3 2.419721 1_555
La0 O6 2.660771 1_565
La0 O7 2.660771 1_554
La0 O7 2.660771 1_655
La0 O6 2.660771 1_554
La1 O4 2.419721 1_554
La1 O4 2.419721 1_655
La1 O2 2.419721 1_554
La1 O2 2.419721 1_565
La1 O7 2.660771 1_655
La1 O6 2.660771 1_554
La1 O6 2.660771 1_565
La1 O7 2.660771 1_554
Cu0 O2 1.989098 1_454
Cu0 O4 1.989098 1_544
Cu0 O2 1.989098 1_555
Cu0 O4 1.989098 1_555
Cu0 O0 2.020682 1_555
Cu1 O3 1.989098 1_655
Cu1 O5 1.989098 1_565
Cu1 O5 1.989098 1_554
Cu1 O3 1.989098 1_554
Cu1 O1 2.020682 1_555
Cu2 O7 1.953016 1_544
Cu2 O6 1.953016 1_555
Cu2 O6 1.953016 1_454
Cu2 O7 1.953016 1_555
