# generated using pymatgen
data_KCoH2CN4O7
_symmetry_space_group_name_H-M   'P 1'
_cell_length_a   8.38923100
_cell_length_b   9.45583900
_cell_length_c   13.88126388
_cell_angle_alpha   84.25764518
_cell_angle_beta   90.00000000
_cell_angle_gamma   90.00000000
_symmetry_Int_Tables_number   1
_chemical_formula_structural   KCoH2CN4O7
_chemical_formula_sum   'K4 Co4 H8 C4 N16 O28'
_cell_volume   1095.63627553
_cell_formula_units_Z   4
loop_
 _symmetry_equiv_pos_site_id
 _symmetry_equiv_pos_as_xyz
  1  'x, y, z'
loop_
 _atom_site_type_symbol
 _atom_site_label
 _atom_site_symmetry_multiplicity
 _atom_site_fract_x
 _atom_site_fract_y
 _atom_site_fract_z
 _atom_site_occupancy
  K  K0  1  0.24191700  0.44924900  0.80511600  1
  K  K1  1  0.75808300  0.55075100  0.19488400  1
  K  K2  1  0.74191700  0.55075100  0.69488400  1
  K  K3  1  0.25808300  0.44924900  0.30511600  1
  Co  Co0  1  0.23860900  0.92099500  0.64758300  1
  Co  Co1  1  0.76139100  0.07900500  0.35241700  1
  Co  Co2  1  0.73860900  0.07900500  0.85241700  1
  Co  Co3  1  0.26139100  0.92099500  0.14758300  1
  H  H0  1  0.40817700  0.64685800  0.93812300  1
  H  H1  1  0.59182300  0.35314200  0.06187700  1
  H  H2  1  0.90817700  0.35314200  0.56187700  1
  H  H3  1  0.09182300  0.64685800  0.43812300  1
  H  H4  1  0.00203700  0.58701100  0.91512000  1
  H  H5  1  0.99796300  0.41298900  0.08488000  1
  H  H6  1  0.50203700  0.41298900  0.58488000  1
  H  H7  1  0.49796300  0.58701100  0.41512000  1
  C  C0  1  0.74625300  0.82914200  0.84949200  1
  C  C1  1  0.25374700  0.17085800  0.15050800  1
  C  C2  1  0.24625300  0.17085800  0.65050800  1
  C  C3  1  0.75374700  0.82914200  0.34949200  1
  N  N0  1  0.05043200  0.78396500  0.65235500  1
  N  N1  1  0.94956800  0.21603500  0.34764500  1
  N  N2  1  0.55043200  0.21603500  0.84764500  1
  N  N3  1  0.44956800  0.78396500  0.15235500  1
  N  N4  1  0.25688500  0.87921700  0.77194600  1
  N  N5  1  0.74311500  0.12078300  0.22805400  1
  N  N6  1  0.75688500  0.12078300  0.72805400  1
  N  N7  1  0.24311500  0.87921700  0.27194600  1
  N  N8  1  0.25049000  0.92343500  0.52299600  1
  N  N9  1  0.74951000  0.07656500  0.47700400  1
  N  N10  1  0.75049000  0.07656500  0.97700400  1
  N  N11  1  0.24951000  0.92343500  0.02299600  1
  N  N12  1  0.41160600  0.76483000  0.64055100  1
  N  N13  1  0.58839400  0.23517000  0.35944900  1
  N  N14  1  0.91160600  0.23517000  0.85944900  1
  N  N15  1  0.08839400  0.76483000  0.14055100  1
  O  O0  1  0.92731900  0.82507000  0.61103200  1
  O  O1  1  0.07268100  0.17493000  0.38896800  1
  O  O2  1  0.42731900  0.17493000  0.88896800  1
  O  O3  1  0.57268100  0.82507000  0.11103200  1
  O  O4  1  0.41875700  0.66321800  0.70452100  1
  O  O5  1  0.58124300  0.33678200  0.29547900  1
  O  O6  1  0.91875700  0.33678200  0.79547900  1
  O  O7  1  0.08124300  0.66321800  0.20452100  1
  O  O8  1  0.50651400  0.78112100  0.57292100  1
  O  O9  1  0.49348600  0.21887900  0.42707900  1
  O  O10  1  0.00651400  0.21887900  0.92707900  1
  O  O11  1  0.99348600  0.78112100  0.07292100  1
  O  O12  1  0.61526600  0.90699200  0.85185200  1
  O  O13  1  0.38473400  0.09300800  0.14814800  1
  O  O14  1  0.11526600  0.09300800  0.64814800  1
  O  O15  1  0.88473400  0.90699200  0.35185200  1
  O  O16  1  0.87525000  0.90919900  0.84961900  1
  O  O17  1  0.12475000  0.09080100  0.15038100  1
  O  O18  1  0.37525000  0.09080100  0.65038100  1
  O  O19  1  0.62475000  0.90919900  0.34961900  1
  O  O20  1  0.06511200  0.66479800  0.69830000  1
  O  O21  1  0.93488800  0.33520200  0.30170000  1
  O  O22  1  0.56511200  0.33520200  0.80170000  1
  O  O23  1  0.43488800  0.66479800  0.19830000  1
  O  O24  1  0.24665800  0.30192900  0.65350100  1
  O  O25  1  0.75334200  0.69807100  0.34649900  1
  O  O26  1  0.74665800  0.69807100  0.84649900  1
  O  O27  1  0.25334200  0.30192900  0.15350100  1
loop_
_geom_bond_atom_site_label_1
_geom_bond_atom_site_label_2
_geom_bond_distance
_geom_bond_site_symmetry_2
K0 O24 2.637837 1_555
K0 O4 2.771105 1_555
K0 O20 2.819231 1_555
K0 O22 2.920087 1_555
K0 O6 2.920137 1_455
K0 O2 3.146149 1_555
K0 O10 3.282295 1_555
K1 O25 2.637837 1_555
K1 O5 2.771105 1_555
K1 O21 2.819231 1_555
K1 O23 2.920087 1_555
K1 O7 2.920137 1_655
K1 O3 3.146149 1_555
K1 O11 3.282295 1_555
K2 O26 2.637837 1_555
K2 O6 2.771105 1_555
K2 O22 2.819231 1_555
K2 O20 2.920087 1_655
K2 O4 2.920137 1_555
K2 O0 3.146149 1_555
K2 O8 3.282295 1_555
K3 O27 2.637837 1_555
K3 O7 2.771105 1_555
K3 O23 2.819231 1_555
K3 O21 2.920087 1_455
K3 O5 2.920137 1_555
K3 O1 3.146149 1_555
K3 O9 3.282295 1_555
Co0 N8 1.730143 1_555
Co0 N4 1.738754 1_555
Co0 O14 1.928450 1_565
Co0 O18 1.976401 1_565
Co0 N0 2.039193 1_555
Co0 N12 2.079720 1_555
Co1 N9 1.730143 1_555
Co1 N5 1.738754 1_555
Co1 O15 1.928450 1_545
Co1 O19 1.976401 1_545
Co1 N1 2.039193 1_555
Co1 N13 2.079720 1_555
Co2 N10 1.730143 1_555
Co2 N6 1.738754 1_555
Co2 O12 1.928450 1_545
Co2 O16 1.976401 1_545
Co2 N2 2.039193 1_555
Co2 N14 2.079720 1_555
Co3 N11 1.730143 1_555
Co3 N7 1.738754 1_555
Co3 O13 1.928450 1_565
Co3 O17 1.976401 1_565
Co3 N3 2.039193 1_555
Co3 N15 2.079720 1_555
H0 K0 3.088069 1_555
H1 K1 3.088069 1_555
H2 K2 3.088069 1_555
H3 K3 3.088069 1_555
H4 K0 2.911436 1_555
H5 K1 2.911436 1_555
H6 K2 2.911436 1_555
H7 K3 2.911436 1_555
C0 O26 1.244235 1_555
C0 O16 1.320778 1_555
C0 O12 1.324890 1_555
C1 O27 1.244235 1_555
C1 O17 1.320778 1_555
C1 O13 1.324890 1_555
C2 O24 1.244235 1_555
C2 O18 1.320778 1_555
C2 O14 1.324890 1_555
C3 O25 1.244235 1_555
C3 O19 1.320778 1_555
C3 O15 1.324890 1_555
N0 O0 1.225650 1_455
N0 O20 1.244124 1_555
N1 O1 1.225650 1_655
N1 O21 1.244124 1_555
N2 O2 1.225650 1_555
N2 O22 1.244124 1_555
N3 O3 1.225650 1_555
N3 O23 1.244124 1_555
N12 O8 1.228845 1_555
N12 O4 1.242807 1_555
N13 O9 1.228845 1_555
N13 O5 1.242807 1_555
N14 O10 1.228845 1_655
N14 O6 1.242807 1_555
N15 O11 1.228845 1_455
N15 O7 1.242807 1_555
