# generated using pymatgen
data_SrMg14AlO16
_symmetry_space_group_name_H-M   'P 1'
_cell_length_a   4.38832767
_cell_length_b   8.50394937
_cell_length_c   8.61602189
_cell_angle_alpha   90.00000000
_cell_angle_beta   90.00000000
_cell_angle_gamma   90.00000000
_symmetry_Int_Tables_number   1
_chemical_formula_structural   SrMg14AlO16
_chemical_formula_sum   'Sr1 Mg14 Al1 O16'
_cell_volume   321.53370715
_cell_formula_units_Z   1
loop_
 _symmetry_equiv_pos_site_id
 _symmetry_equiv_pos_as_xyz
  1  'x, y, z'
loop_
 _atom_site_type_symbol
 _atom_site_label
 _atom_site_symmetry_multiplicity
 _atom_site_fract_x
 _atom_site_fract_y
 _atom_site_fract_z
 _atom_site_occupancy
  Sr  Sr0  1  0.00000000  0.50000000  0.00000000  1
  Mg  Mg0  1  0.00000000  0.00000000  0.50000000  1
  Mg  Mg1  1  0.00000000  0.50000000  0.50000000  1
  Mg  Mg2  1  0.50000000  0.75736276  -0.00000000  1
  Mg  Mg3  1  0.50000000  0.24263724  0.00000000  1
  Mg  Mg4  1  0.50000000  0.75065647  0.50000000  1
  Mg  Mg5  1  0.50000000  0.24934353  0.50000000  1
  Mg  Mg6  1  0.50000000  0.00000000  0.74870818  1
  Mg  Mg7  1  0.50000000  0.50000000  0.73932754  1
  Mg  Mg8  1  0.50000000  -0.00000000  0.25129182  1
  Mg  Mg9  1  0.50000000  0.50000000  0.26067246  1
  Mg  Mg10  1  0.00000000  0.75447747  0.74137134  1
  Mg  Mg11  1  -0.00000000  0.24552253  0.74137134  1
  Mg  Mg12  1  0.00000000  0.75447747  0.25862866  1
  Mg  Mg13  1  -0.00000000  0.24552253  0.25862866  1
  Al  Al0  1  0.00000000  0.00000000  0.00000000  1
  O  O0  1  0.00000000  -0.00000000  0.76510235  1
  O  O1  1  0.00000000  0.50000000  0.72837581  1
  O  O2  1  -0.00000000  0.00000000  0.23489765  1
  O  O3  1  0.00000000  0.50000000  0.27162419  1
  O  O4  1  0.50000000  0.75038798  0.75052603  1
  O  O5  1  0.50000000  0.24961202  0.75052603  1
  O  O6  1  0.50000000  0.75038798  0.24947397  1
  O  O7  1  0.50000000  0.24961202  0.24947397  1
  O  O8  1  0.50000000  0.00000000  0.00000000  1
  O  O9  1  0.50000000  0.50000000  0.00000000  1
  O  O10  1  0.50000000  0.00000000  0.50000000  1
  O  O11  1  0.50000000  0.50000000  0.50000000  1
  O  O12  1  -0.00000000  0.78403682  -0.00000000  1
  O  O13  1  0.00000000  0.21596318  0.00000000  1
  O  O14  1  -0.00000000  0.75735596  0.50000000  1
  O  O15  1  0.00000000  0.24264404  0.50000000  1
loop_
_geom_bond_atom_site_label_1
_geom_bond_atom_site_label_2
_geom_bond_distance
_geom_bond_site_symmetry_2
Mg0 O14 2.063433 1_545
Mg0 O15 2.063433 1_555
Mg0 O10 2.194164 1_555
Mg0 O10 2.194164 1_455
Mg0 O2 2.284128 1_555
Mg0 O0 2.284128 1_555
Mg1 O3 1.967691 1_555
Mg1 O1 1.967691 1_555
Mg1 O15 2.188542 1_555
Mg1 O14 2.188542 1_555
Mg1 O11 2.194164 1_555
Mg1 O11 2.194164 1_455
Mg2 O8 2.063375 1_565
Mg2 O4 2.150291 1_554
Mg2 O6 2.150291 1_555
Mg2 O9 2.188600 1_555
Mg2 O12 2.205858 1_655
Mg2 O12 2.205858 1_555
Mg3 O8 2.063375 1_555
Mg3 O5 2.150291 1_554
Mg3 O7 2.150291 1_555
Mg3 O9 2.188600 1_555
Mg3 O13 2.205858 1_555
Mg3 O13 2.205858 1_655
Mg4 O10 2.120405 1_565
Mg4 O11 2.131570 1_555
Mg4 O6 2.158539 1_555
Mg4 O4 2.158539 1_555
Mg4 O14 2.194903 1_555
Mg4 O14 2.194903 1_655
Mg5 O10 2.120405 1_555
Mg5 O11 2.131570 1_555
Mg5 O7 2.158539 1_555
Mg5 O5 2.158539 1_555
Mg5 O15 2.194903 1_555
Mg5 O15 2.194903 1_655
Mg6 O4 2.122746 1_545
Mg6 O5 2.122746 1_555
Mg6 O10 2.142875 1_555
Mg6 O8 2.165136 1_556
Mg6 O0 2.198706 1_655
Mg6 O0 2.198706 1_555
Mg7 O11 2.062051 1_555
Mg7 O5 2.131472 1_555
Mg7 O4 2.131472 1_555
Mg7 O1 2.196192 1_655
Mg7 O1 2.196192 1_555
Mg7 O9 2.245960 1_556
Mg8 O6 2.122746 1_545
Mg8 O7 2.122746 1_555
Mg8 O10 2.142875 1_555
Mg8 O8 2.165136 1_555
Mg8 O2 2.198706 1_655
Mg8 O2 2.198706 1_555
Mg9 O11 2.062051 1_555
Mg9 O7 2.131472 1_555
Mg9 O6 2.131472 1_555
Mg9 O3 2.196192 1_655
Mg9 O3 2.196192 1_555
Mg9 O9 2.245960 1_555
Mg10 O14 2.079805 1_555
Mg10 O0 2.097899 1_565
Mg10 O1 2.166958 1_555
Mg10 O4 2.195857 1_555
Mg10 O4 2.195857 1_455
Mg10 O12 2.242483 1_556
Mg11 O15 2.079805 1_555
Mg11 O0 2.097899 1_555
Mg11 O1 2.166958 1_555
Mg11 O5 2.195857 1_555
Mg11 O5 2.195857 1_455
Mg11 O13 2.242483 1_556
Mg12 O14 2.079805 1_555
Mg12 O2 2.097899 1_565
Mg12 O3 2.166958 1_555
Mg12 O6 2.195857 1_455
Mg12 O6 2.195857 1_555
Mg12 O12 2.242483 1_555
Mg13 O15 2.079805 1_555
Mg13 O2 2.097899 1_555
Mg13 O3 2.166958 1_555
Mg13 O7 2.195857 1_555
Mg13 O7 2.195857 1_455
Mg13 O13 2.242483 1_555
Al0 O13 1.836540 1_555
Al0 O12 1.836540 1_545
Al0 O0 2.023883 1_554
Al0 O2 2.023883 1_555
Al0 O8 2.194164 1_555
Al0 O8 2.194164 1_455
O1 Sr0 2.340320 1_556
O3 Sr0 2.340320 1_555
O9 Sr0 2.194164 1_655
O9 Sr0 2.194164 1_555
O12 Sr0 2.415435 1_555
O13 Sr0 2.415435 1_555
