# generated using pymatgen
data_K2Er2(PO4)3
_symmetry_space_group_name_H-M   'P 1'
_cell_length_a   10.68595800
_cell_length_b   10.68595800
_cell_length_c   10.68595800
_cell_angle_alpha   90.00000000
_cell_angle_beta   90.00000000
_cell_angle_gamma   90.00000000
_symmetry_Int_Tables_number   1
_chemical_formula_structural   K2Er2(PO4)3
_chemical_formula_sum   'K8 Er8 P12 O48'
_cell_volume   1220.22632090
_cell_formula_units_Z   4
loop_
 _symmetry_equiv_pos_site_id
 _symmetry_equiv_pos_as_xyz
  1  'x, y, z'
loop_
 _atom_site_type_symbol
 _atom_site_label
 _atom_site_symmetry_multiplicity
 _atom_site_fract_x
 _atom_site_fract_y
 _atom_site_fract_z
 _atom_site_occupancy
  K  K0  1  0.04581400  0.04581400  0.04581400  1
  K  K1  1  0.45418600  0.95418600  0.54581400  1
  K  K2  1  0.95418600  0.54581400  0.45418600  1
  K  K3  1  0.54581400  0.45418600  0.95418600  1
  K  K4  1  0.81887100  0.81887100  0.81887100  1
  K  K5  1  0.68112900  0.18112900  0.31887100  1
  K  K6  1  0.18112900  0.31887100  0.68112900  1
  K  K7  1  0.31887100  0.68112900  0.18112900  1
  Er  Er0  1  0.33357800  0.33357800  0.33357800  1
  Er  Er1  1  0.16642200  0.66642200  0.83357800  1
  Er  Er2  1  0.66642200  0.83357800  0.16642200  1
  Er  Er3  1  0.83357800  0.16642200  0.66642200  1
  Er  Er4  1  0.60232800  0.60232800  0.60232800  1
  Er  Er5  1  0.89767200  0.39767200  0.10232800  1
  Er  Er6  1  0.39767200  0.10232800  0.89767200  1
  Er  Er7  1  0.10232800  0.89767200  0.39767200  1
  P  P0  1  0.01534600  0.21293200  0.37371900  1
  P  P1  1  0.48465400  0.78706800  0.87371900  1
  P  P2  1  0.98465400  0.71293200  0.12628100  1
  P  P3  1  0.37371900  0.01534600  0.21293200  1
  P  P4  1  0.51534600  0.28706800  0.62628100  1
  P  P5  1  0.87371900  0.48465400  0.78706800  1
  P  P6  1  0.12628100  0.98465400  0.71293200  1
  P  P7  1  0.62628100  0.51534600  0.28706800  1
  P  P8  1  0.21293200  0.37371900  0.01534600  1
  P  P9  1  0.71293200  0.12628100  0.98465400  1
  P  P10  1  0.28706800  0.62628100  0.51534600  1
  P  P11  1  0.78706800  0.87371900  0.48465400  1
  O  O0  1  0.15066800  0.25770500  0.40011300  1
  O  O1  1  0.34933200  0.74229500  0.90011300  1
  O  O2  1  0.84933200  0.75770500  0.09988700  1
  O  O3  1  0.40011300  0.15066800  0.25770500  1
  O  O4  1  0.65066800  0.24229500  0.59988700  1
  O  O5  1  0.90011300  0.34933200  0.74229500  1
  O  O6  1  0.09988700  0.84933200  0.75770500  1
  O  O7  1  0.59988700  0.65066800  0.24229500  1
  O  O8  1  0.25770500  0.40011300  0.15066800  1
  O  O9  1  0.75770500  0.09988700  0.84933200  1
  O  O10  1  0.24229500  0.59988700  0.65066800  1
  O  O11  1  0.74229500  0.90011300  0.34933200  1
  O  O12  1  0.04538800  0.79457200  0.22895700  1
  O  O13  1  0.45461200  0.20542800  0.72895700  1
  O  O14  1  0.95461200  0.29457200  0.27104300  1
  O  O15  1  0.22895700  0.04538800  0.79457200  1
  O  O16  1  0.54538800  0.70542800  0.77104300  1
  O  O17  1  0.72895700  0.45461200  0.20542800  1
  O  O18  1  0.27104300  0.95461200  0.29457200  1
  O  O19  1  0.77104300  0.54538800  0.70542800  1
  O  O20  1  0.79457200  0.22895700  0.04538800  1
  O  O21  1  0.29457200  0.27104300  0.95461200  1
  O  O22  1  0.70542800  0.77104300  0.54538800  1
  O  O23  1  0.20542800  0.72895700  0.45461200  1
  O  O24  1  0.01470800  0.07476500  0.33007100  1
  O  O25  1  0.48529200  0.92523500  0.83007100  1
  O  O26  1  0.98529200  0.57476500  0.16992900  1
  O  O27  1  0.33007100  0.01470800  0.07476500  1
  O  O28  1  0.51470800  0.42523500  0.66992900  1
  O  O29  1  0.83007100  0.48529200  0.92523500  1
  O  O30  1  0.16992900  0.98529200  0.57476500  1
  O  O31  1  0.66992900  0.51470800  0.42523500  1
  O  O32  1  0.07476500  0.33007100  0.01470800  1
  O  O33  1  0.57476500  0.16992900  0.98529200  1
  O  O34  1  0.42523500  0.66992900  0.51470800  1
  O  O35  1  0.92523500  0.83007100  0.48529200  1
  O  O36  1  0.27164300  0.50651300  0.43465300  1
  O  O37  1  0.22835700  0.49348700  0.93465300  1
  O  O38  1  0.72835700  0.00651300  0.06534700  1
  O  O39  1  0.43465300  0.27164300  0.50651300  1
  O  O40  1  0.77164300  0.99348700  0.56534700  1
  O  O41  1  0.93465300  0.22835700  0.49348700  1
  O  O42  1  0.06534700  0.72835700  0.00651300  1
  O  O43  1  0.56534700  0.77164300  0.99348700  1
  O  O44  1  0.50651300  0.43465300  0.27164300  1
  O  O45  1  0.00651300  0.06534700  0.72835700  1
  O  O46  1  0.99348700  0.56534700  0.77164300  1
  O  O47  1  0.49348700  0.93465300  0.22835700  1
loop_
_geom_bond_atom_site_label_1
_geom_bond_atom_site_label_2
_geom_bond_distance
_geom_bond_site_symmetry_2
K0 O32 3.071312 1_555
K0 O27 3.071312 1_555
K0 O24 3.071312 1_555
K1 O30 3.071312 1_555
K1 O25 3.071312 1_555
K1 O34 3.071312 1_555
K2 O31 3.071312 1_555
K2 O26 3.071312 1_555
K2 O35 3.071312 1_555
K3 O29 3.071312 1_555
K3 O28 3.071312 1_555
K3 O33 3.071312 1_555
K4 O2 3.090425 1_556
K4 O6 3.090425 1_655
K4 O9 3.090425 1_565
K4 O19 3.204893 1_555
K4 O22 3.204893 1_555
K4 O16 3.204893 1_555
K4 O40 3.328048 1_555
K4 O46 3.328048 1_555
K4 O43 3.328048 1_555
K5 O11 3.090425 1_545
K5 O4 3.090425 1_555
K5 O3 3.090425 1_555
K5 O17 3.204893 1_555
K5 O20 3.204893 1_555
K5 O14 3.204893 1_555
K5 O41 3.328048 1_555
K5 O44 3.328048 1_555
K5 O38 3.328048 1_555
K6 O10 3.090425 1_555
K6 O5 3.090425 1_455
K6 O0 3.090425 1_555
K6 O15 3.204893 1_555
K6 O13 3.204893 1_555
K6 O21 3.204893 1_555
K6 O37 3.328048 1_555
K6 O39 3.328048 1_555
K6 O45 3.328048 1_555
K7 O7 3.090425 1_555
K7 O1 3.090425 1_554
K7 O8 3.090425 1_555
K7 O12 3.204893 1_555
K7 O23 3.204893 1_555
K7 O18 3.204893 1_555
K7 O36 3.328048 1_555
K7 O47 3.328048 1_555
K7 O42 3.328048 1_555
Er0 O8 2.232309 1_555
Er0 O3 2.232309 1_555
Er0 O0 2.232309 1_555
Er0 O36 2.240451 1_555
Er0 O39 2.240451 1_555
Er0 O44 2.240451 1_555
Er1 O1 2.232309 1_555
Er1 O6 2.232309 1_555
Er1 O10 2.232309 1_555
Er1 O46 2.240451 1_455
Er1 O37 2.240451 1_555
Er1 O42 2.240451 1_556
Er2 O11 2.232309 1_555
Er2 O2 2.232309 1_555
Er2 O7 2.232309 1_555
Er2 O47 2.240451 1_555
Er2 O38 2.240451 1_565
Er2 O43 2.240451 1_554
Er3 O5 2.232309 1_555
Er3 O9 2.232309 1_555
Er3 O4 2.232309 1_555
Er3 O41 2.240451 1_555
Er3 O40 2.240451 1_545
Er3 O45 2.240451 1_655
Er4 O22 2.198726 1_555
Er4 O19 2.198726 1_555
Er4 O16 2.198726 1_555
Er4 O31 2.231526 1_555
Er4 O34 2.231526 1_555
Er4 O28 2.231526 1_555
Er5 O14 2.198726 1_555
Er5 O17 2.198726 1_555
Er5 O20 2.198726 1_555
Er5 O26 2.231526 1_555
Er5 O32 2.231526 1_655
Er5 O29 2.231526 1_554
Er6 O21 2.198726 1_555
Er6 O13 2.198726 1_555
Er6 O15 2.198726 1_555
Er6 O33 2.231526 1_555
Er6 O27 2.231526 1_556
Er6 O25 2.231526 1_545
Er7 O18 2.198726 1_555
Er7 O23 2.198726 1_555
Er7 O12 2.198726 1_555
Er7 O30 2.231526 1_555
Er7 O24 2.231526 1_565
Er7 O35 2.231526 1_455
O0 P0 1.549033 1_555
O1 P1 1.549033 1_555
O2 P2 1.549033 1_555
O3 P3 1.549033 1_555
O4 P4 1.549033 1_555
O5 P5 1.549033 1_555
O6 P6 1.549033 1_555
O7 P7 1.549033 1_555
O8 P8 1.549033 1_555
O9 P9 1.549033 1_555
O10 P10 1.549033 1_555
O11 P11 1.549033 1_555
O12 P2 1.544706 1_455
O13 P4 1.544706 1_555
O14 P0 1.544706 1_655
O15 P6 1.544706 1_545
O16 P1 1.544706 1_555
O17 P7 1.544706 1_555
O18 P3 1.544706 1_565
O19 P5 1.544706 1_555
O20 P9 1.544706 1_554
O21 P8 1.544706 1_556
O22 P11 1.544706 1_555
O23 P10 1.544706 1_555
O24 P0 1.548383 1_555
O25 P1 1.548383 1_555
O26 P2 1.548383 1_555
O27 P3 1.548383 1_555
O28 P4 1.548383 1_555
O29 P5 1.548383 1_555
O30 P6 1.548383 1_555
O31 P7 1.548383 1_555
O32 P8 1.548383 1_555
O33 P9 1.548383 1_555
O34 P10 1.548383 1_555
O35 P11 1.548383 1_555
O36 P10 1.551992 1_555
O37 P8 1.551992 1_556
O38 P9 1.551992 1_554
O39 P4 1.551992 1_555
O40 P11 1.551992 1_555
O41 P0 1.551992 1_655
O42 P2 1.551992 1_455
O43 P1 1.551992 1_555
O44 P7 1.551992 1_555
O45 P6 1.551992 1_545
O46 P5 1.551992 1_555
O47 P3 1.551992 1_565
