# generated using pymatgen
data_Li9Mn2Co5O16
_symmetry_space_group_name_H-M   'P 1'
_cell_length_a   2.94733700
_cell_length_b   10.18708767
_cell_length_c   10.23911166
_cell_angle_alpha   108.72480515
_cell_angle_beta   91.37156626
_cell_angle_gamma   92.60418469
_symmetry_Int_Tables_number   1
_chemical_formula_structural   Li9Mn2Co5O16
_chemical_formula_sum   'Li9 Mn2 Co5 O16'
_cell_volume   290.61350049
_cell_formula_units_Z   1
loop_
 _symmetry_equiv_pos_site_id
 _symmetry_equiv_pos_as_xyz
  1  'x, y, z'
loop_
 _atom_site_type_symbol
 _atom_site_label
 _atom_site_symmetry_multiplicity
 _atom_site_fract_x
 _atom_site_fract_y
 _atom_site_fract_z
 _atom_site_occupancy
  Li  Li0  1  0.00777900  0.24580100  0.25264500  1
  Li  Li1  1  0.51301200  0.49054300  0.74356600  1
  Li  Li2  1  0.99761700  0.75077800  0.25170900  1
  Li  Li3  1  0.49504300  0.50264300  0.25154200  1
  Li  Li4  1  0.99615100  0.75376600  0.75376300  1
  Li  Li5  1  0.48970300  0.99920900  0.25446000  1
  Li  Li6  1  0.50108400  0.99981000  0.74558900  1
  Li  Li7  1  0.00209500  0.25142900  0.73984100  1
  Li  Li8  1  0.48652100  0.25450100  0.50938900  1
  Mn  Mn0  1  0.99925700  0.00051200  0.00100500  1
  Mn  Mn1  1  0.00668400  0.49512100  0.50088100  1
  Co  Co0  1  0.00044400  0.49976600  0.99926400  1
  Co  Co1  1  0.50996700  0.75084300  0.49693500  1
  Co  Co2  1  0.50185500  0.74820400  0.99688900  1
  Co  Co3  1  0.99477800  0.00786300  0.49811800  1
  Co  Co4  1  0.49858900  0.25145900  0.00301800  1
  O  O0  1  0.46127300  0.12305600  0.12279900  1
  O  O1  1  0.99574100  0.38973100  0.61690700  1
  O  O2  1  0.49035700  0.61831000  0.11461600  1
  O  O3  1  0.98530200  0.36876700  0.11585900  1
  O  O4  1  0.52926100  0.61893700  0.60450000  1
  O  O5  1  0.98865400  0.86958100  0.11230400  1
  O  O6  1  0.97209800  0.87552500  0.60602000  1
  O  O7  1  0.46442100  0.11256600  0.61595200  1
  O  O8  1  0.48386500  0.39135000  0.39068900  1
  O  O9  1  0.01166900  0.63276600  0.88554100  1
  O  O10  1  0.51815000  0.87546100  0.38834500  1
  O  O11  1  0.04084600  0.62711300  0.38825300  1
  O  O12  1  0.53663000  0.87722700  0.87853000  1
  O  O13  1  0.00041200  0.10585300  0.38676500  1
  O  O14  1  0.01031900  0.13013300  0.88890100  1
  O  O15  1  0.51042300  0.38137700  0.88540400  1
loop_
_geom_bond_atom_site_label_1
_geom_bond_atom_site_label_2
_geom_bond_distance
_geom_bond_site_symmetry_2
Li0 O0 2.070558 1_555
Li0 O8 2.129707 1_555
Li0 O0 2.138387 1_455
Li0 O3 2.159787 1_455
Li0 O13 2.274748 1_555
Li0 O8 2.355349 1_455
Li1 O1 1.992196 1_455
Li1 O1 2.031459 1_555
Li1 O15 2.093480 1_555
Li1 O9 2.173563 1_655
Li1 O4 2.221242 1_555
Li1 O9 2.311031 1_555
Li2 O10 2.122163 1_655
Li2 O2 2.127598 1_555
Li2 O5 2.147807 1_555
Li2 O10 2.164354 1_555
Li2 O11 2.166758 1_655
Li2 O2 2.227111 1_655
Li3 O8 2.086221 1_555
Li3 O2 2.101289 1_555
Li3 O11 2.112733 1_555
Li3 O3 2.131805 1_455
Li3 O11 2.173083 1_655
Li3 O3 2.221856 1_555
Li4 O12 2.062564 1_555
Li4 O9 2.100495 1_655
Li4 O12 2.107210 1_655
Li4 O4 2.120309 1_555
Li4 O6 2.244895 1_555
Li4 O4 2.377910 1_655
Li5 O13 2.022378 1_665
Li5 O13 2.094294 1_565
Li5 O0 2.124218 1_565
Li5 O5 2.128160 1_455
Li5 O10 2.142229 1_555
Li5 O5 2.251642 1_555
Li6 O7 2.018991 1_565
Li6 O12 2.125951 1_555
Li6 O6 2.151350 1_455
Li6 O14 2.152012 1_665
Li6 O6 2.159965 1_555
Li6 O14 2.243507 1_565
Li7 O7 2.138410 1_555
Li7 O15 2.159761 1_555
Li7 O7 2.160897 1_455
Li7 O1 2.170170 1_455
Li7 O14 2.251362 1_555
Li7 O15 2.254934 1_455
Li8 O1 2.030165 1_555
Li8 O7 2.071996 1_555
Li8 O13 2.101960 1_555
Li8 O1 2.117942 1_455
Li8 O8 2.123465 1_555
Li8 O13 2.289606 1_655
Mn0 O0 1.931982 1_655
Mn0 O12 1.939185 1_544
Mn0 O14 2.008294 1_654
Mn0 O5 2.013092 1_545
Mn0 O0 2.214222 1_555
Mn0 O12 2.218795 1_644
Mn1 O1 1.839195 1_455
Mn1 O8 1.941111 1_455
Mn1 O8 1.952892 1_555
Mn1 O4 1.993708 1_555
Mn1 O4 2.017460 1_455
Mn1 O11 2.033924 1_555
Co0 O15 1.938539 1_455
Co0 O2 1.944850 1_556
Co0 O9 2.050215 1_555
Co0 O3 2.056241 1_456
Co0 O15 2.102096 1_555
Co0 O2 2.108974 1_456
Co1 O6 1.890799 1_555
Co1 O11 1.899007 1_555
Co1 O10 1.937317 1_555
Co1 O4 1.993997 1_555
Co1 O11 2.153440 1_655
Co1 O6 2.175044 1_455
Co2 O9 1.917286 1_555
Co2 O5 1.950231 1_556
Co2 O12 2.055031 1_555
Co2 O2 2.056000 1_556
Co2 O9 2.079018 1_655
Co2 O5 2.128534 1_456
Co3 O13 1.739781 1_655
Co3 O7 1.862524 1_655
Co3 O10 1.958281 1_545
Co3 O6 1.998554 1_545
Co3 O7 2.110051 1_555
Co3 O10 2.181915 1_645
Co4 O3 1.923335 1_555
Co4 O14 1.947956 1_554
Co4 O15 2.055287 1_554
Co4 O0 2.061716 1_555
Co4 O3 2.100749 1_455
Co4 O14 2.119957 1_654
