# generated using pymatgen
data_Na2Cu3Bi2As2O13
_symmetry_space_group_name_H-M   'P 1'
_cell_length_a   5.22728700
_cell_length_b   5.62521429
_cell_length_c   12.67582301
_cell_angle_alpha   80.84270034
_cell_angle_beta   78.10076108
_cell_angle_gamma   62.31372472
_symmetry_Int_Tables_number   1
_chemical_formula_structural   Na2Cu3Bi2As2O13
_chemical_formula_sum   'Na2 Cu3 Bi2 As2 O13'
_cell_volume   322.09577137
_cell_formula_units_Z   1
loop_
 _symmetry_equiv_pos_site_id
 _symmetry_equiv_pos_as_xyz
  1  'x, y, z'
loop_
 _atom_site_type_symbol
 _atom_site_label
 _atom_site_symmetry_multiplicity
 _atom_site_fract_x
 _atom_site_fract_y
 _atom_site_fract_z
 _atom_site_occupancy
  Na  Na0  1  0.93142900  0.75166600  0.57585300  1
  Na  Na1  1  0.25894800  0.24833400  0.42414700  1
  Cu  Cu0  1  0.99545600  0.00000000  0.00000000  1
  Cu  Cu1  1  0.69915500  0.80941500  0.83176900  1
  Cu  Cu2  1  0.34033900  0.19058500  0.16823100  1
  Bi  Bi0  1  0.34218300  0.41619600  0.89775100  1
  Bi  Bi1  1  0.65613100  0.58380400  0.10224900  1
  As  As0  1  0.11552100  0.08691200  0.71614600  1
  As  As1  1  0.91857900  0.91308800  0.28385400  1
  O  O0  1  0.92098300  0.29306300  0.82350100  1
  O  O1  1  0.03754700  0.70693700  0.17649900  1
  O  O2  1  0.06590600  0.79017000  0.74347000  1
  O  O3  1  0.59954600  0.20983000  0.25653000  1
  O  O4  1  0.01390000  0.24517800  0.59600500  1
  O  O5  1  0.85508200  0.75482200  0.40399500  1
  O  O6  1  0.49089200  0.97273700  0.71101200  1
  O  O7  1  0.17464200  0.02726300  0.28898800  1
  O  O8  1  0.09847300  0.23714400  0.06094600  1
  O  O9  1  0.39656200  0.76285600  0.93905400  1
  O  O10  1  0.58837700  0.26112700  0.04345100  1
  O  O11  1  0.89295400  0.73887300  0.95654900  1
  O  O12  1  0.46729500  0.50000000  0.50000000  1
loop_
_geom_bond_atom_site_label_1
_geom_bond_atom_site_label_2
_geom_bond_distance
_geom_bond_site_symmetry_2
Na0 O5 2.290157 1_555
Na0 O2 2.441148 1_655
Na0 O6 2.484890 1_555
Na0 O12 2.532300 1_655
Na0 O4 2.653468 1_655
Na1 O4 2.290156 1_555
Na1 O3 2.441148 1_555
Na1 O7 2.484887 1_555
Na1 O12 2.532300 1_555
Na1 O5 2.653470 1_455
Cu0 O9 1.957911 1_644
Cu0 O8 1.957914 1_655
Cu0 O10 1.964348 1_555
Cu0 O11 1.964351 1_544
Cu0 O1 2.542338 1_645
Cu0 O0 2.542338 1_554
Cu1 O6 1.918959 1_555
Cu1 O11 1.942396 1_555
Cu1 O9 1.950496 1_555
Cu1 O2 1.975000 1_655
Cu2 O7 1.918956 1_555
Cu2 O10 1.942399 1_555
Cu2 O8 1.950492 1_555
Cu2 O3 1.975000 1_555
Bi0 O9 2.249216 1_555
Bi0 O11 2.261074 1_455
Bi0 O10 2.291768 1_556
Bi0 O8 2.521716 1_556
Bi0 O2 2.714352 1_555
Bi0 O0 2.757781 1_555
Bi1 O8 2.249216 1_655
Bi1 O10 2.261073 1_555
Bi1 O11 2.291763 1_554
Bi1 O9 2.521721 1_554
Bi1 O3 2.714353 1_555
Bi1 O1 2.757776 1_655
As0 O4 1.690135 1_555
As0 O6 1.748262 1_545
As0 O0 1.751135 1_455
As0 O2 1.776179 1_545
As1 O5 1.690136 1_555
As1 O7 1.748267 1_665
As1 O1 1.751135 1_655
As1 O3 1.776179 1_565
