# generated using pymatgen
data_Al2Pb3F12
_symmetry_space_group_name_H-M   'P 1'
_cell_length_a   9.54133794
_cell_length_b   9.40603544
_cell_length_c   13.68821547
_cell_angle_alpha   47.17859939
_cell_angle_beta   90.00000000
_cell_angle_gamma   90.00000000
_symmetry_Int_Tables_number   1
_chemical_formula_structural   Al2Pb3F12
_chemical_formula_sum   'Al8 Pb12 F48'
_cell_volume   901.04950087
_cell_formula_units_Z   4
loop_
 _symmetry_equiv_pos_site_id
 _symmetry_equiv_pos_as_xyz
  1  'x, y, z'
loop_
 _atom_site_type_symbol
 _atom_site_label
 _atom_site_symmetry_multiplicity
 _atom_site_fract_x
 _atom_site_fract_y
 _atom_site_fract_z
 _atom_site_occupancy
  Al  Al0  1  0.36141694  0.27093731  0.41813852  1
  Al  Al1  1  0.86141694  0.72906269  0.08186148  1
  Al  Al2  1  0.63858306  0.72906269  0.58186148  1
  Al  Al3  1  0.13858306  0.27093731  0.91813852  1
  Al  Al4  1  0.64943356  0.05414146  0.62794978  1
  Al  Al5  1  0.14943356  0.94585854  0.87205022  1
  Al  Al6  1  0.35056644  0.94585854  0.37205022  1
  Al  Al7  1  0.85056644  0.05414146  0.12794978  1
  Pb  Pb0  1  0.00323619  0.70912445  0.50165065  1
  Pb  Pb1  1  0.50323619  0.29087555  -0.00165065  1
  Pb  Pb2  1  0.99676381  0.29087555  0.49834935  1
  Pb  Pb3  1  0.49676381  0.70912445  0.00165065  1
  Pb  Pb4  1  0.21743637  0.77103195  0.21426064  1
  Pb  Pb5  1  0.71743637  0.22896805  0.28573936  1
  Pb  Pb6  1  0.78256363  0.22896805  0.78573936  1
  Pb  Pb7  1  0.28256363  0.77103195  0.71426064  1
  Pb  Pb8  1  0.11996490  0.34766558  0.16866367  1
  Pb  Pb9  1  0.61996490  0.65233442  0.33133633  1
  Pb  Pb10  1  0.88003510  0.65233442  0.83133633  1
  Pb  Pb11  1  0.38003510  0.34766558  0.66866367  1
  F  F0  1  0.96656560  0.21954902  0.34226848  1
  F  F1  1  0.46656560  0.78045098  0.15773152  1
  F  F2  1  0.03343440  0.78045098  0.65773152  1
  F  F3  1  0.53343440  0.21954902  0.84226848  1
  F  F4  1  0.36219467  0.54993346  0.94543354  1
  F  F5  1  0.86219467  0.45006654  0.55456646  1
  F  F6  1  0.63780533  0.45006654  0.05456646  1
  F  F7  1  0.13780533  0.54993346  0.44543354  1
  F  F8  1  0.76401365  0.84032870  0.44997817  1
  F  F9  1  0.26401365  0.15967130  0.05002183  1
  F  F10  1  0.23598635  0.15967130  0.55002183  1
  F  F11  1  0.73598635  0.84032870  0.94997817  1
  F  F12  1  0.58129667  0.56644755  0.56286047  1
  F  F13  1  0.08129667  0.43355245  0.93713953  1
  F  F14  1  0.41870333  0.43355245  0.43713953  1
  F  F15  1  0.91870333  0.56644755  0.06286047  1
  F  F16  1  0.51540755  0.63513984  0.70956371  1
  F  F17  1  0.27106852  0.43696169  0.80112331  1
  F  F18  1  0.72893148  0.56303831  0.19887669  1
  F  F19  1  0.22893148  0.43696169  0.30112331  1
  F  F20  1  0.08247058  0.15992055  0.71673134  1
  F  F21  1  0.58247058  0.84007945  0.78326866  1
  F  F22  1  0.91752942  0.84007945  0.28326866  1
  F  F23  1  0.41752942  0.15992055  0.21673134  1
  F  F24  1  0.09495559  0.80021204  0.83948188  1
  F  F25  1  0.59495559  0.19978796  0.66051812  1
  F  F26  1  0.90504441  0.19978796  0.16051812  1
  F  F27  1  0.40504441  0.80021204  0.33948188  1
  F  F28  1  0.71459938  0.26227043  0.46584892  1
  F  F29  1  0.21459938  0.73772957  0.03415108  1
  F  F30  1  0.28540062  0.73772957  0.53415108  1
  F  F31  1  0.78540062  0.26227043  0.96584892  1
  F  F32  1  0.82307635  0.01785221  0.69403973  1
  F  F33  1  0.32307635  0.98214779  0.80596027  1
  F  F34  1  0.17692365  0.98214779  0.30596027  1
  F  F35  1  0.67692365  0.01785221  0.19403973  1
  F  F36  1  0.70354633  0.90255009  0.59363096  1
  F  F37  1  0.20354633  0.09744991  0.90636904  1
  F  F38  1  0.29645367  0.09744991  0.40636904  1
  F  F39  1  0.79645367  0.90255009  0.09363096  1
  F  F40  1  0.51764716  0.91484275  0.45081440  1
  F  F41  1  0.01764716  0.08515725  0.04918560  1
  F  F42  1  0.48235284  0.08515725  0.54918560  1
  F  F43  1  0.98235284  0.91484275  0.95081440  1
  F  F44  1  0.98459245  0.63513984  0.20956371  1
  F  F45  1  0.48459245  0.36486016  0.29043629  1
  F  F46  1  0.01540755  0.36486016  0.79043629  1
  F  F47  1  0.77106852  0.56303831  0.69887669  1
loop_
_geom_bond_atom_site_label_1
_geom_bond_atom_site_label_2
_geom_bond_distance
_geom_bond_site_symmetry_2
Al0 F45 1.765767 1_555
Al0 F19 1.789355 1_555
Al0 F10 1.793907 1_555
Al0 F14 1.801884 1_555
Al0 F42 1.827985 1_555
Al0 F38 1.852134 1_555
Al1 F44 1.765767 1_555
Al1 F18 1.789355 1_555
Al1 F11 1.793907 1_554
Al1 F15 1.801884 1_555
Al1 F43 1.827985 1_554
Al1 F39 1.852134 1_555
Al2 F16 1.765767 1_555
Al2 F47 1.789355 1_555
Al2 F8 1.793907 1_555
Al2 F12 1.801884 1_555
Al2 F40 1.827985 1_555
Al2 F36 1.852134 1_555
Al3 F46 1.765767 1_555
Al3 F17 1.789355 1_555
Al3 F9 1.793907 1_556
Al3 F13 1.801884 1_555
Al3 F41 1.827985 1_556
Al3 F37 1.852134 1_555
Al4 F21 1.778479 1_545
Al4 F25 1.782119 1_555
Al4 F28 1.799261 1_555
Al4 F32 1.805564 1_555
Al4 F42 1.833386 1_555
Al4 F36 1.852281 1_545
Al5 F20 1.778479 1_565
Al5 F24 1.782119 1_555
Al5 F29 1.799261 1_556
Al5 F33 1.805564 1_555
Al5 F43 1.833386 1_455
Al5 F37 1.852281 1_565
Al6 F23 1.778479 1_565
Al6 F27 1.782119 1_555
Al6 F30 1.799261 1_555
Al6 F34 1.805564 1_555
Al6 F40 1.833386 1_555
Al6 F38 1.852281 1_565
Al7 F22 1.778479 1_545
Al7 F26 1.782119 1_555
Al7 F31 1.799261 1_554
Al7 F35 1.805564 1_555
Al7 F41 1.833386 1_655
Al7 F39 1.852281 1_545
F0 Pb8 2.312676 1_655
F0 Pb5 2.482670 1_555
F0 Pb2 2.654463 1_555
F1 Pb9 2.312676 1_555
F1 Pb4 2.482670 1_555
F1 Pb3 2.654463 1_555
F2 Pb10 2.312676 1_455
F2 Pb7 2.482670 1_555
F2 Pb0 2.654463 1_555
F3 Pb11 2.312676 1_555
F3 Pb6 2.482670 1_555
F3 Pb1 2.654463 1_556
F4 Pb1 2.423596 1_556
F4 Pb7 2.443205 1_555
F4 Pb3 2.459509 1_556
F5 Pb0 2.423596 1_655
F5 Pb6 2.443205 1_555
F5 Pb2 2.459509 1_555
F6 Pb3 2.423596 1_555
F6 Pb5 2.443205 1_555
F6 Pb1 2.459509 1_555
F7 Pb2 2.423596 1_455
F7 Pb4 2.443205 1_555
F7 Pb0 2.459509 1_555
F8 Pb0 2.458962 1_655
F8 Pb5 2.728122 1_565
F9 Pb1 2.458962 1_555
F9 Pb4 2.728122 1_545
F10 Pb2 2.458962 1_455
F10 Pb7 2.728122 1_545
F11 Pb3 2.458962 1_556
F11 Pb6 2.728122 1_565
F12 Pb11 2.443011 1_555
F12 Pb9 2.711428 1_555
F13 Pb10 2.443011 1_455
F13 Pb8 2.711428 1_556
F14 Pb9 2.443011 1_555
F14 Pb11 2.711428 1_555
F15 Pb8 2.443011 1_655
F15 Pb10 2.711428 1_554
F16 Pb7 2.585606 1_555
F17 Pb7 2.494114 1_555
F17 Pb11 2.672854 1_555
F18 Pb5 2.494114 1_555
F18 Pb9 2.672854 1_555
F19 Pb4 2.494114 1_555
F19 Pb8 2.672854 1_555
F20 Pb2 2.473081 1_455
F21 Pb3 2.473081 1_556
F22 Pb0 2.473081 1_655
F23 Pb1 2.473081 1_555
F24 Pb10 2.522511 1_455
F24 Pb7 2.618603 1_555
F25 Pb11 2.522511 1_555
F25 Pb6 2.618603 1_555
F26 Pb8 2.522511 1_655
F26 Pb5 2.618603 1_555
F27 Pb9 2.522511 1_555
F27 Pb4 2.618603 1_555
F28 Pb5 2.688268 1_555
F28 Pb2 2.771481 1_555
F29 Pb4 2.688268 1_555
F29 Pb3 2.771481 1_555
F30 Pb7 2.688268 1_555
F30 Pb0 2.771481 1_555
F31 Pb6 2.688268 1_555
F31 Pb1 2.771481 1_556
F32 Pb10 2.619907 1_545
F32 Pb2 2.676757 1_555
F33 Pb11 2.619907 1_565
F33 Pb3 2.676757 1_556
F34 Pb8 2.619907 1_565
F34 Pb0 2.676757 1_555
F35 Pb9 2.619907 1_545
F35 Pb1 2.676757 1_555
F44 Pb4 2.585606 1_655
F45 Pb5 2.585606 1_555
F46 Pb6 2.585606 1_455
F47 Pb6 2.494114 1_555
F47 Pb10 2.672854 1_555
