# generated using pymatgen
data_Li4CrTe(WO6)2
_symmetry_space_group_name_H-M   'P 1'
_cell_length_a   7.55439726
_cell_length_b   7.56218095
_cell_length_c   7.55320391
_cell_angle_alpha   86.65510705
_cell_angle_beta   93.26888384
_cell_angle_gamma   93.42188691
_symmetry_Int_Tables_number   1
_chemical_formula_structural   Li4CrTe(WO6)2
_chemical_formula_sum   'Li8 Cr2 Te2 W4 O24'
_cell_volume   429.37316513
_cell_formula_units_Z   2
loop_
 _symmetry_equiv_pos_site_id
 _symmetry_equiv_pos_as_xyz
  1  'x, y, z'
loop_
 _atom_site_type_symbol
 _atom_site_label
 _atom_site_symmetry_multiplicity
 _atom_site_fract_x
 _atom_site_fract_y
 _atom_site_fract_z
 _atom_site_occupancy
  Li  Li0  1  0.20048100  0.79155000  0.26595100  1
  Li  Li1  1  0.70264600  0.29398000  0.26941200  1
  Li  Li2  1  0.72059400  0.78171000  0.81043200  1
  Li  Li3  1  0.23019300  0.27583000  0.79768500  1
  Li  Li4  1  0.70832600  0.29667700  0.80960400  1
  Li  Li5  1  0.20788700  0.79906100  0.80482900  1
  Li  Li6  1  0.28313800  0.21674000  0.19889700  1
  Li  Li7  1  0.74595700  0.74342500  0.23618900  1
  Cr  Cr0  1  0.99613100  0.00059500  0.99880500  1
  Cr  Cr1  1  0.49461700  0.50132900  0.99786800  1
  Te  Te0  1  0.99992500  0.50146200  0.50423600  1
  Te  Te1  1  0.49427800  0.01172900  0.51737200  1
  W  W0  1  0.99703600  0.01090400  0.49783700  1
  W  W1  1  0.49849500  0.50746700  0.50312800  1
  W  W2  1  0.49660400  0.99270000  0.00725900  1
  W  W3  1  0.99888800  0.49594100  0.00385300  1
  O  O0  1  0.94534900  0.74595700  0.42843900  1
  O  O1  1  0.44022700  0.25398400  0.42696900  1
  O  O2  1  0.93900300  0.94306500  0.73489800  1
  O  O3  1  0.44617600  0.42853800  0.73972300  1
  O  O4  1  0.74295100  0.93446700  0.05180200  1
  O  O5  1  0.24094400  0.43700100  0.04580400  1
  O  O6  1  0.77642200  0.08089600  0.41816900  1
  O  O7  1  0.24791200  0.57053600  0.43909100  1
  O  O8  1  0.44892400  0.75624300  0.92166300  1
  O  O9  1  0.94245500  0.25625800  0.94515500  1
  O  O10  1  0.56975700  0.07642400  0.75927900  1
  O  O11  1  0.06506100  0.56141200  0.74595500  1
  O  O12  1  0.42694900  0.92312900  0.23535700  1
  O  O13  1  0.93905400  0.43964500  0.25736500  1
  O  O14  1  0.54624500  0.24195600  0.06128900  1
  O  O15  1  0.05710100  0.74147800  0.04384100  1
  O  O16  1  0.24397700  0.94254700  0.57455900  1
  O  O17  1  0.75654100  0.41884800  0.55536500  1
  O  O18  1  0.25164200  0.05237000  0.93731600  1
  O  O19  1  0.75452500  0.54593300  0.94584400  1
  O  O20  1  0.07650900  0.03915200  0.25752100  1
  O  O21  1  0.55595400  0.55147500  0.25744400  1
  O  O22  1  0.07635100  0.25829500  0.56279100  1
  O  O23  1  0.59237000  0.72169200  0.57340900  1
loop_
_geom_bond_atom_site_label_1
_geom_bond_atom_site_label_2
_geom_bond_distance
_geom_bond_site_symmetry_2
Li0 O12 1.945623 1_555
Li0 O15 1.987211 1_555
Li0 O7 2.096431 1_555
Li0 O20 2.139087 1_565
Li0 O0 2.341145 1_455
Li1 O14 1.956217 1_555
Li1 O6 1.998535 1_555
Li1 O13 2.045283 1_555
Li1 O21 2.292056 1_555
Li1 O1 2.364989 1_555
Li1 O17 2.411272 1_555
Li2 O19 2.025516 1_555
Li2 O23 2.047918 1_555
Li2 O2 2.079060 1_555
Li2 O4 2.207728 1_556
Li2 O8 2.255098 1_555
Li2 O10 2.562652 1_565
Li3 O18 1.949197 1_555
Li3 O3 1.996239 1_555
Li3 O22 2.071220 1_555
Li3 O5 2.289470 1_556
Li3 O9 2.491187 1_455
Li3 O11 2.557416 1_555
Li4 O10 1.958278 1_555
Li4 O9 2.022744 1_555
Li4 O17 2.122831 1_555
Li4 O19 2.200119 1_555
Li4 O3 2.291278 1_555
Li4 O14 2.323259 1_556
Li5 O8 2.013212 1_555
Li5 O16 2.018743 1_555
Li5 O11 2.097309 1_555
Li5 O15 2.197696 1_556
Li5 O18 2.211435 1_565
Li5 O2 2.380224 1_455
Li6 O5 2.002428 1_555
Li6 O20 2.048260 1_555
Li6 O1 2.058833 1_555
Li6 O14 2.287907 1_555
Li6 O18 2.388096 1_554
Li6 O12 2.523590 1_545
Li7 O4 1.947518 1_555
Li7 O21 1.985805 1_555
Li7 O0 2.031803 1_555
Cr0 O4 2.004548 1_546
Cr0 O9 2.012455 1_555
Cr0 O18 2.021285 1_655
Cr0 O15 2.044394 1_646
Cr0 O20 2.045090 1_656
Cr0 O2 2.080773 1_545
Cr1 O5 1.996851 1_556
Cr1 O8 2.023315 1_555
Cr1 O19 2.028983 1_555
Cr1 O21 2.040774 1_556
Cr1 O14 2.046741 1_556
Cr1 O3 2.063626 1_555
O0 Te0 1.963873 1_555
O0 W0 2.108878 1_565
O1 Te1 1.975006 1_555
O1 W1 2.048946 1_555
O2 W0 1.901842 1_565
O3 W1 1.906290 1_555
O4 W2 1.944116 1_555
O5 W3 1.912467 1_455
O6 W0 1.836734 1_555
O6 Te1 2.319771 1_555
O7 Te0 1.995716 1_455
O7 W1 2.005323 1_555
O8 W2 1.943349 1_556
O9 W3 1.908806 1_556
O10 Te1 1.963475 1_555
O10 W2 2.037754 1_546
O11 Te0 1.936112 1_455
O11 W3 2.063619 1_456
O12 W2 1.867226 1_555
O12 Te1 2.290702 1_565
O13 Te0 1.971101 1_555
O13 W3 2.008165 1_555
O14 W2 1.961638 1_545
O15 W3 1.919669 1_455
O16 Te1 1.996088 1_565
O16 W0 2.009965 1_465
O17 Te0 1.958486 1_555
O17 W1 2.107664 1_555
O18 W2 1.966616 1_546
O19 W3 1.927280 1_556
O20 W0 1.940255 1_455
O21 W1 1.935290 1_555
O22 Te0 1.978158 1_455
O22 W0 2.009833 1_455
O23 W1 1.824670 1_555
O23 Te1 2.364066 1_565
