# generated using pymatgen
data_Pt3O4
_symmetry_space_group_name_H-M   'P 1'
_cell_length_a   5.60264674
_cell_length_b   5.60267625
_cell_length_c   5.60263251
_cell_angle_alpha   89.99999366
_cell_angle_beta   90.00000839
_cell_angle_gamma   89.99998384
_symmetry_Int_Tables_number   1
_chemical_formula_structural   Pt3O4
_chemical_formula_sum   'Pt6 O8'
_cell_volume   175.86560264
_cell_formula_units_Z   2
loop_
 _symmetry_equiv_pos_site_id
 _symmetry_equiv_pos_as_xyz
  1  'x, y, z'
loop_
 _atom_site_type_symbol
 _atom_site_label
 _atom_site_symmetry_multiplicity
 _atom_site_fract_x
 _atom_site_fract_y
 _atom_site_fract_z
 _atom_site_occupancy
  Pt  Pt0  1  0.50000010  0.25000080  0.00000493  1
  Pt  Pt1  1  0.50000002  0.74999916  0.00000505  1
  Pt  Pt2  1  -0.00000098  0.49999662  0.74999748  1
  Pt  Pt3  1  0.99999779  0.49999637  0.25000258  1
  Pt  Pt4  1  0.75000684  0.00000350  0.49999453  1
  Pt  Pt5  1  0.24999770  0.00000329  0.49999515  1
  O  O0  1  0.75000330  0.24999940  0.25000205  1
  O  O1  1  0.24999888  0.24999950  0.74999735  1
  O  O2  1  0.24999483  0.74999879  0.25000305  1
  O  O3  1  0.75000259  0.75000193  0.74999641  1
  O  O4  1  0.24999754  0.75000065  0.74999683  1
  O  O5  1  0.75000447  0.75000058  0.25000323  1
  O  O6  1  0.24999683  0.25000150  0.25000264  1
  O  O7  1  0.75000207  0.24999792  0.74999771  1
loop_
_geom_bond_atom_site_label_1
_geom_bond_atom_site_label_2
_geom_bond_distance
_geom_bond_site_symmetry_2
O0 Pt4 1.980791 1_555
O0 Pt3 1.980806 1_555
O0 Pt0 1.980833 1_555
O1 Pt2 1.980828 1_555
O1 Pt5 1.980831 1_555
O1 Pt0 1.980867 1_556
O2 Pt5 1.980824 1_565
O2 Pt3 1.980838 1_455
O2 Pt1 1.980845 1_555
O3 Pt2 1.980847 1_655
O3 Pt4 1.980851 1_565
O3 Pt1 1.980877 1_556
O4 Pt2 1.980850 1_555
O4 Pt5 1.980854 1_565
O4 Pt1 1.980874 1_556
O5 Pt4 1.980815 1_565
O5 Pt3 1.980830 1_555
O5 Pt1 1.980843 1_555
O6 Pt5 1.980801 1_555
O6 Pt3 1.980816 1_455
O6 Pt0 1.980836 1_555
O7 Pt2 1.980823 1_655
O7 Pt4 1.980828 1_555
O7 Pt0 1.980869 1_556
