# generated using pymatgen
data_SrCa7TiMn7O24
_symmetry_space_group_name_H-M   'P 1'
_cell_length_a   10.86911127
_cell_length_b   15.23740215
_cell_length_c   10.73663429
_cell_angle_alpha   90.00695867
_cell_angle_beta   90.02352602
_cell_angle_gamma   89.99006106
_symmetry_Int_Tables_number   1
_chemical_formula_structural   SrCa7TiMn7O24
_chemical_formula_sum   'Sr4 Ca28 Ti4 Mn28 O96'
_cell_volume   1778.16917891
_cell_formula_units_Z   4
loop_
 _symmetry_equiv_pos_site_id
 _symmetry_equiv_pos_as_xyz
  1  'x, y, z'
loop_
 _atom_site_type_symbol
 _atom_site_label
 _atom_site_symmetry_multiplicity
 _atom_site_fract_x
 _atom_site_fract_y
 _atom_site_fract_z
 _atom_site_occupancy
  Sr  Sr0  1  0.01540963  0.12466243  0.49819878  1
  Sr  Sr1  1  0.48527995  0.37661118  0.00179703  1
  Sr  Sr2  1  0.23445203  0.37722691  0.24730142  1
  Sr  Sr3  1  0.26815733  0.12448503  0.25489185  1
  Ca  Ca0  1  0.01794708  0.12467150  0.99438644  1
  Ca  Ca1  1  0.02295245  0.62516742  0.49561366  1
  Ca  Ca2  1  0.02275799  0.62519819  0.99620989  1
  Ca  Ca3  1  0.52317478  0.12480125  0.49583687  1
  Ca  Ca4  1  0.52389869  0.12493129  0.99488970  1
  Ca  Ca5  1  0.52292346  0.62524258  0.49526746  1
  Ca  Ca6  1  0.52278209  0.62513685  0.99576785  1
  Ca  Ca7  1  0.47843811  0.37491768  0.50628751  1
  Ca  Ca8  1  0.47886182  0.87324194  0.00411921  1
  Ca  Ca9  1  0.47774636  0.87501167  0.50550218  1
  Ca  Ca10  1  0.97741529  0.37596215  0.00359632  1
  Ca  Ca11  1  0.97656555  0.37588443  0.50480154  1
  Ca  Ca12  1  0.97680879  0.87394641  0.00381523  1
  Ca  Ca13  1  0.97710895  0.87407676  0.50435997  1
  Ca  Ca14  1  0.22704665  0.37583917  0.74367653  1
  Ca  Ca15  1  0.22861184  0.87254427  0.24609911  1
  Ca  Ca16  1  0.22726086  0.87410027  0.74473855  1
  Ca  Ca17  1  0.72884546  0.37507765  0.24703639  1
  Ca  Ca18  1  0.72765638  0.37468678  0.74470791  1
  Ca  Ca19  1  0.72751073  0.87491955  0.24601309  1
  Ca  Ca20  1  0.72731354  0.87526917  0.74486441  1
  Ca  Ca21  1  0.27361795  0.12451932  0.75386225  1
  Ca  Ca22  1  0.27277001  0.62535203  0.25353997  1
  Ca  Ca23  1  0.27335936  0.62543572  0.75442627  1
  Ca  Ca24  1  0.76634427  0.12479940  0.25294805  1
  Ca  Ca25  1  0.77226993  0.12505202  0.75606218  1
  Ca  Ca26  1  0.77264786  0.62511661  0.25440981  1
  Ca  Ca27  1  0.77253865  0.62494775  0.75481096  1
  Ti  Ti0  1  0.99697384  0.99703405  0.24954320  1
  Ti  Ti1  1  0.25047193  0.99777838  0.99769025  1
  Ti  Ti2  1  0.24916843  0.25029636  0.99660251  1
  Ti  Ti3  1  0.99589767  0.25226696  0.24989626  1
  Mn  Mn0  1  0.00005469  0.99940289  0.75060410  1
  Mn  Mn1  1  0.99944315  0.50200770  0.25085513  1
  Mn  Mn2  1  0.99964314  0.50037634  0.74973306  1
  Mn  Mn3  1  0.50118405  0.99841198  0.25156931  1
  Mn  Mn4  1  0.50173932  0.00014128  0.74982699  1
  Mn  Mn5  1  0.50202518  0.50218298  0.25089684  1
  Mn  Mn6  1  0.50048521  0.50099286  0.74793974  1
  Mn  Mn7  1  0.25222822  0.99867873  0.50172499  1
  Mn  Mn8  1  0.24940764  0.50247439  0.99702103  1
  Mn  Mn9  1  0.25012485  0.50113297  0.50232723  1
  Mn  Mn10  1  0.74841254  0.99862631  0.99948298  1
  Mn  Mn11  1  0.74810454  0.99930204  0.50125745  1
  Mn  Mn12  1  0.75193927  0.50133805  0.00086482  1
  Mn  Mn13  1  0.74991570  0.50056295  0.50044777  1
  Mn  Mn14  1  0.25164730  0.25037031  0.50339456  1
  Mn  Mn15  1  0.25024264  0.74882500  0.99838989  1
  Mn  Mn16  1  0.25057697  0.74983508  0.50037673  1
  Mn  Mn17  1  0.74994572  0.25012799  0.00001146  1
  Mn  Mn18  1  0.74804330  0.25025950  0.50151763  1
  Mn  Mn19  1  0.75028889  0.75002949  0.00012941  1
  Mn  Mn20  1  0.74982734  0.74977972  0.50011036  1
  Mn  Mn21  1  0.99984526  0.25033792  0.75049269  1
  Mn  Mn22  1  0.00043193  0.74859184  0.25067559  1
  Mn  Mn23  1  0.99974028  0.74984198  0.74988538  1
  Mn  Mn24  1  0.50249953  0.24932906  0.25193990  1
  Mn  Mn25  1  0.50140621  0.24867384  0.74795768  1
  Mn  Mn26  1  0.50028665  0.75018139  0.25044302  1
  Mn  Mn27  1  0.50065637  0.75003258  0.74992908  1
  O  O0  1  0.10524171  0.26662098  0.10509505  1
  O  O1  1  0.10451397  0.27128647  0.60599239  1
  O  O2  1  0.10465375  0.77063080  0.10328110  1
  O  O3  1  0.10402714  0.77034724  0.60300930  1
  O  O4  1  0.60898663  0.26638041  0.10735316  1
  O  O5  1  0.60408829  0.26970114  0.60197347  1
  O  O6  1  0.60424878  0.77026035  0.10328225  1
  O  O7  1  0.60400707  0.77033670  0.60301673  1
  O  O8  1  0.39836096  0.23237475  0.39872301  1
  O  O9  1  0.39549787  0.23048050  0.88920941  1
  O  O10  1  0.39596448  0.72946827  0.39701273  1
  O  O11  1  0.39656243  0.72903559  0.89664795  1
  O  O12  1  0.88584323  0.23522280  0.39176322  1
  O  O13  1  0.89571746  0.23097536  0.89774798  1
  O  O14  1  0.89605152  0.72897686  0.39732208  1
  O  O15  1  0.89614775  0.72968920  0.89709272  1
  O  O16  1  0.14083877  0.23706476  0.36212200  1
  O  O17  1  0.14277528  0.23160544  0.85177951  1
  O  O18  1  0.14654885  0.72915635  0.35312401  1
  O  O19  1  0.14603580  0.72911071  0.85255355  1
  O  O20  1  0.64601263  0.22958253  0.35473732  1
  O  O21  1  0.64583503  0.23009864  0.85318686  1
  O  O22  1  0.64622114  0.72942474  0.35310479  1
  O  O23  1  0.64598400  0.72940120  0.85302055  1
  O  O24  1  0.36175028  0.26334880  0.14126025  1
  O  O25  1  0.35384978  0.26945082  0.64853558  1
  O  O26  1  0.35488727  0.77031224  0.14638941  1
  O  O27  1  0.35415885  0.77030155  0.64709689  1
  O  O28  1  0.85369495  0.26909685  0.14166564  1
  O  O29  1  0.85454622  0.27001648  0.64631427  1
  O  O30  1  0.85374770  0.77061702  0.14668790  1
  O  O31  1  0.85402184  0.77055535  0.64709009  1
  O  O32  1  0.35808775  0.48703968  0.14269284  1
  O  O33  1  0.35388013  0.48113863  0.64752191  1
  O  O34  1  0.35814584  0.98001252  0.14556753  1
  O  O35  1  0.35408993  0.97908021  0.64819974  1
  O  O36  1  0.85433433  0.47985145  0.14643355  1
  O  O37  1  0.85401264  0.47951144  0.64705265  1
  O  O38  1  0.85298355  0.98035609  0.14204600  1
  O  O39  1  0.85449852  0.97991807  0.64631264  1
  O  O40  1  0.14218370  0.01179665  0.36049575  1
  O  O41  1  0.14294150  0.01752864  0.85249981  1
  O  O42  1  0.14461809  0.52228417  0.35511441  1
  O  O43  1  0.14558749  0.52165408  0.85173679  1
  O  O44  1  0.64587044  0.01989487  0.35360869  1
  O  O45  1  0.64663076  0.02058045  0.85236384  1
  O  O46  1  0.64632034  0.52107857  0.35433035  1
  O  O47  1  0.64510854  0.51990318  0.85392840  1
  O  O48  1  0.39899200  0.01809744  0.39921275  1
  O  O49  1  0.39675710  0.01833119  0.89208043  1
  O  O50  1  0.39530679  0.52001021  0.39671651  1
  O  O51  1  0.39476411  0.52260749  0.89359436  1
  O  O52  1  0.88627374  0.01401787  0.39165179  1
  O  O53  1  0.89566012  0.01883944  0.89782894  1
  O  O54  1  0.89537193  0.52164890  0.39756915  1
  O  O55  1  0.89612079  0.52049374  0.89697431  1
  O  O56  1  0.10216362  0.48220373  0.10176843  1
  O  O57  1  0.10337751  0.48007032  0.60368222  1
  O  O58  1  0.10674216  0.98112348  0.10592817  1
  O  O59  1  0.10517735  0.97823066  0.60531197  1
  O  O60  1  0.61007390  0.48460755  0.10877494  1
  O  O61  1  0.60438030  0.48071877  0.60198977  1
  O  O62  1  0.60325781  0.97886960  0.10200802  1
  O  O63  1  0.60367123  0.97918514  0.60300452  1
  O  O64  1  0.00110887  0.37871705  0.28512666  1
  O  O65  1  0.00988359  0.37545720  0.78925985  1
  O  O66  1  0.00734264  0.87120453  0.28516069  1
  O  O67  1  0.01015565  0.87450856  0.78955550  1
  O  O68  1  0.50962019  0.37562343  0.28770687  1
  O  O69  1  0.51067006  0.37514608  0.77900857  1
  O  O70  1  0.51124042  0.87442196  0.29037254  1
  O  O71  1  0.51052248  0.87487951  0.78963500  1
  O  O72  1  0.49813706  0.12364812  0.21205501  1
  O  O73  1  0.49086495  0.12450809  0.70936121  1
  O  O74  1  0.49044606  0.62649906  0.21165219  1
  O  O75  1  0.49030221  0.62542861  0.70953847  1
  O  O76  1  0.99301970  0.12459763  0.21782916  1
  O  O77  1  0.98802648  0.12491574  0.72018522  1
  O  O78  1  0.98899146  0.62537289  0.20998046  1
  O  O79  1  0.98936174  0.62506831  0.71034049  1
  O  O80  1  0.24040608  0.12419638  0.02524589  1
  O  O81  1  0.24718876  0.12468255  0.53837272  1
  O  O82  1  0.23892786  0.62599079  0.03922341  1
  O  O83  1  0.24004162  0.62535158  0.54024304  1
  O  O84  1  0.74124687  0.12420435  0.03839809  1
  O  O85  1  0.74078012  0.12478823  0.54033563  1
  O  O86  1  0.74054103  0.62584208  0.03902994  1
  O  O87  1  0.73970797  0.62518737  0.53991809  1
  O  O88  1  0.26125886  0.37587922  0.47109520  1
  O  O89  1  0.25271543  0.37788060  0.96468576  1
  O  O90  1  0.26124110  0.87406932  0.46107155  1
  O  O91  1  0.25867383  0.87227527  0.96294755  1
  O  O92  1  0.75932067  0.37591331  0.46194766  1
  O  O93  1  0.75780611  0.37546940  0.96101698  1
  O  O94  1  0.75955932  0.87402776  0.46136909  1
  O  O95  1  0.75952580  0.87453961  0.95978672  1
loop_
_geom_bond_atom_site_label_1
_geom_bond_atom_site_label_2
_geom_bond_distance
_geom_bond_site_symmetry_2
Ca0 O53 2.332616 1_455
Ca0 O13 2.337478 1_455
Ca0 O76 2.414385 1_456
Ca0 O80 2.440402 1_556
Ca0 O41 2.613824 1_555
Ca0 O17 2.615944 1_555
Ca0 O0 2.643972 1_556
Ca0 O58 2.673743 1_546
Ca1 O79 2.334323 1_455
Ca1 O14 2.348760 1_455
Ca1 O54 2.349087 1_455
Ca1 O83 2.407538 1_555
Ca1 O42 2.546020 1_555
Ca1 O18 2.580479 1_555
Ca1 O57 2.645303 1_555
Ca1 O3 2.645559 1_555
Ca2 O78 2.324485 1_456
Ca2 O15 2.357904 1_455
Ca2 O55 2.360993 1_455
Ca2 O82 2.394377 1_556
Ca2 O43 2.584199 1_555
Ca2 O19 2.585418 1_555
Ca2 O56 2.603065 1_556
Ca2 O2 2.650251 1_556
Ca3 O73 2.319422 1_555
Ca3 O48 2.353889 1_555
Ca3 O8 2.369144 1_555
Ca3 O85 2.412756 1_555
Ca3 O20 2.574825 1_555
Ca3 O44 2.581841 1_555
Ca3 O5 2.635540 1_555
Ca3 O63 2.647954 1_545
Ca4 O72 2.348576 1_556
Ca4 O49 2.401165 1_555
Ca4 O84 2.407960 1_556
Ca4 O9 2.412492 1_555
Ca4 O21 2.577234 1_555
Ca4 O45 2.578710 1_555
Ca4 O4 2.637774 1_556
Ca4 O62 2.649370 1_546
Ca5 O75 2.327857 1_555
Ca5 O10 2.353228 1_555
Ca5 O50 2.369355 1_555
Ca5 O87 2.404336 1_555
Ca5 O46 2.570625 1_555
Ca5 O22 2.578519 1_555
Ca5 O61 2.635424 1_555
Ca5 O7 2.646157 1_555
Ca6 O74 2.344598 1_556
Ca6 O11 2.349353 1_555
Ca6 O51 2.362059 1_555
Ca6 O86 2.411832 1_556
Ca6 O47 2.580396 1_555
Ca6 O23 2.582471 1_555
Ca6 O60 2.637514 1_556
Ca6 O6 2.646820 1_556
Ca7 O5 2.342950 1_555
Ca7 O61 2.351130 1_555
Ca7 O68 2.371331 1_555
Ca7 O88 2.390484 1_555
Ca7 O25 2.598448 1_555
Ca7 O33 2.598510 1_555
Ca7 O8 2.609219 1_555
Ca7 O50 2.662189 1_555
Ca8 O71 2.328686 1_554
Ca8 O6 2.334878 1_555
Ca8 O62 2.349965 1_555
Ca8 O91 2.433598 1_554
Ca8 O26 2.571348 1_555
Ca8 O34 2.583611 1_555
Ca8 O11 2.638008 1_554
Ca8 O49 2.670214 1_564
Ca9 O70 2.338446 1_555
Ca9 O63 2.342649 1_555
Ca9 O7 2.349871 1_555
Ca9 O90 2.400937 1_555
Ca9 O27 2.581519 1_555
Ca9 O35 2.582373 1_555
Ca9 O48 2.605322 1_565
Ca9 O10 2.657882 1_555
Ca10 O65 2.328309 1_654
Ca10 O56 2.359938 1_655
Ca10 O0 2.427362 1_655
Ca10 O93 2.430169 1_554
Ca10 O36 2.578336 1_555
Ca10 O28 2.580758 1_555
Ca10 O55 2.634463 1_554
Ca10 O13 2.638171 1_554
Ca11 O57 2.355052 1_655
Ca11 O64 2.374114 1_655
Ca11 O1 2.377602 1_655
Ca11 O92 2.405483 1_555
Ca11 O37 2.569161 1_555
Ca11 O29 2.583149 1_555
Ca11 O54 2.652660 1_555
Ca11 O12 2.652963 1_555
Ca12 O67 2.328971 1_654
Ca12 O2 2.355437 1_655
Ca12 O95 2.408344 1_554
Ca12 O58 2.421275 1_655
Ca12 O30 2.573735 1_555
Ca12 O38 2.577456 1_555
Ca12 O15 2.629159 1_554
Ca12 O53 2.635585 1_564
Ca13 O3 2.349778 1_655
Ca13 O59 2.372811 1_655
Ca13 O66 2.376824 1_655
Ca13 O94 2.409015 1_555
Ca13 O31 2.574762 1_555
Ca13 O39 2.588463 1_555
Ca13 O14 2.642807 1_555
Ca13 O52 2.642896 1_565
Ca14 O33 2.354353 1_555
Ca14 O25 2.360270 1_555
Ca14 O89 2.389326 1_555
Ca14 O65 2.410779 1_555
Ca14 O1 2.548640 1_555
Ca14 O57 2.566440 1_555
Ca14 O17 2.649225 1_555
Ca14 O43 2.658213 1_555
Ca15 O90 2.335138 1_555
Ca15 O26 2.335910 1_555
Ca15 O34 2.414805 1_555
Ca15 O66 2.441552 1_555
Ca15 O2 2.564462 1_555
Ca15 O58 2.599035 1_555
Ca15 O18 2.625208 1_555
Ca15 O40 2.625429 1_565
Ca16 O27 2.345839 1_555
Ca16 O35 2.352824 1_555
Ca16 O91 2.367606 1_555
Ca16 O67 2.408501 1_555
Ca16 O59 2.552930 1_555
Ca16 O3 2.570499 1_555
Ca16 O41 2.637125 1_565
Ca16 O19 2.646199 1_555
Ca17 O92 2.330977 1_555
Ca17 O36 2.361820 1_555
Ca17 O28 2.393580 1_555
Ca17 O68 2.422654 1_555
Ca17 O60 2.579503 1_555
Ca17 O4 2.586139 1_555
Ca17 O20 2.657974 1_555
Ca17 O46 2.660888 1_555
Ca18 O93 2.345333 1_555
Ca18 O37 2.353525 1_555
Ca18 O29 2.358367 1_555
Ca18 O69 2.387187 1_555
Ca18 O5 2.590347 1_555
Ca18 O61 2.598425 1_555
Ca18 O21 2.646401 1_555
Ca18 O47 2.660041 1_555
Ca19 O94 2.338190 1_555
Ca19 O30 2.354945 1_555
Ca19 O38 2.385259 1_555
Ca19 O70 2.398635 1_555
Ca19 O6 2.585530 1_555
Ca19 O62 2.592564 1_555
Ca19 O44 2.646007 1_565
Ca19 O22 2.649483 1_555
Ca20 O95 2.333838 1_555
Ca20 O31 2.354689 1_555
Ca20 O39 2.361282 1_555
Ca20 O71 2.405058 1_555
Ca20 O63 2.575111 1_555
Ca20 O7 2.582750 1_555
Ca20 O45 2.646365 1_565
Ca20 O23 2.659361 1_555
Ca21 O81 2.331282 1_555
Ca21 O17 2.406289 1_555
Ca21 O41 2.408136 1_555
Ca21 O73 2.409328 1_555
Ca21 O9 2.544022 1_555
Ca21 O49 2.570958 1_555
Ca21 O25 2.630271 1_555
Ca21 O35 2.638697 1_545
Ca22 O82 2.330125 1_555
Ca22 O18 2.350993 1_555
Ca22 O42 2.366084 1_555
Ca22 O74 2.408558 1_555
Ca22 O10 2.584791 1_555
Ca22 O50 2.590674 1_555
Ca22 O32 2.591833 1_555
Ca22 O26 2.645969 1_555
Ca23 O83 2.327800 1_555
Ca23 O19 2.349628 1_555
Ca23 O43 2.350174 1_555
Ca23 O75 2.406918 1_555
Ca23 O51 2.535167 1_555
Ca23 O11 2.572024 1_555
Ca23 O33 2.630070 1_555
Ca23 O27 2.640802 1_555
Ca24 O84 2.319546 1_555
Ca24 O44 2.332402 1_555
Ca24 O20 2.335423 1_555
Ca24 O76 2.492601 1_555
Ca24 O12 2.595748 1_555
Ca24 O52 2.600886 1_555
Ca24 O38 2.673629 1_545
Ca24 O28 2.676865 1_555
Ca25 O45 2.338861 1_555
Ca25 O85 2.341193 1_555
Ca25 O21 2.353293 1_555
Ca25 O77 2.376664 1_555
Ca25 O13 2.591898 1_555
Ca25 O53 2.594772 1_555
Ca25 O29 2.658854 1_555
Ca25 O39 2.660338 1_545
Ca26 O86 2.338524 1_555
Ca26 O22 2.353150 1_555
Ca26 O46 2.356203 1_555
Ca26 O78 2.399555 1_555
Ca26 O54 2.574022 1_555
Ca26 O14 2.579996 1_555
Ca26 O36 2.651648 1_555
Ca26 O30 2.651813 1_555
Ca27 O87 2.334516 1_555
Ca27 O23 2.353117 1_555
Ca27 O47 2.369641 1_555
Ca27 O79 2.404748 1_555
Ca27 O55 2.581744 1_555
Ca27 O15 2.585408 1_555
Ca27 O37 2.652031 1_555
Ca27 O31 2.654562 1_555
Mn0 O41 1.919324 1_565
Mn0 O77 1.944583 1_465
Mn0 O67 1.951587 1_555
Mn0 O39 1.960491 1_455
Mn0 O59 1.960674 1_555
Mn0 O53 1.968516 1_465
Mn1 O64 1.914451 1_655
Mn1 O78 1.933676 1_555
Mn1 O42 1.958819 1_655
Mn1 O54 1.962557 1_555
Mn1 O36 1.963959 1_555
Mn1 O56 1.975102 1_655
Mn2 O79 1.949713 1_555
Mn2 O65 1.953374 1_655
Mn2 O43 1.954353 1_655
Mn2 O37 1.954636 1_555
Mn2 O57 1.956304 1_655
Mn2 O55 1.964796 1_555
Mn3 O70 1.937782 1_555
Mn3 O44 1.944014 1_565
Mn3 O34 1.946686 1_555
Mn3 O72 1.955187 1_565
Mn3 O48 1.959021 1_565
Mn3 O62 1.974672 1_555
Mn4 O49 1.926858 1_555
Mn4 O45 1.946218 1_555
Mn4 O73 1.947804 1_555
Mn4 O63 1.953353 1_545
Mn4 O71 1.958287 1_545
Mn4 O35 1.966636 1_545
Mn5 O46 1.942826 1_555
Mn5 O60 1.944373 1_555
Mn5 O74 1.944645 1_555
Mn5 O32 1.961897 1_555
Mn5 O50 1.967653 1_555
Mn5 O68 1.970276 1_555
Mn6 O75 1.943562 1_555
Mn6 O33 1.947240 1_555
Mn6 O69 1.949534 1_555
Mn6 O61 1.956367 1_555
Mn6 O47 1.961516 1_555
Mn6 O51 1.968681 1_555
Mn7 O40 1.941217 1_565
Mn7 O35 1.945954 1_555
Mn7 O90 1.950649 1_555
Mn7 O81 1.960589 1_565
Mn7 O48 1.960937 1_565
Mn7 O59 1.972393 1_555
Mn8 O89 1.930258 1_555
Mn8 O82 1.939131 1_556
Mn8 O43 1.946919 1_555
Mn8 O51 1.955756 1_555
Mn8 O32 1.973659 1_556
Mn8 O56 1.980721 1_556
Mn9 O83 1.939094 1_555
Mn9 O88 1.941499 1_555
Mn9 O33 1.947644 1_555
Mn9 O57 1.957795 1_555
Mn9 O50 1.964754 1_555
Mn9 O42 1.978800 1_555
Mn10 O38 1.926342 1_556
Mn10 O95 1.941900 1_555
Mn10 O62 1.947600 1_556
Mn10 O45 1.956871 1_565
Mn10 O84 1.960060 1_566
Mn10 O53 1.961936 1_565
Mn11 O52 1.921482 1_565
Mn11 O63 1.937387 1_555
Mn11 O85 1.959137 1_565
Mn11 O94 1.960205 1_555
Mn11 O44 1.960812 1_565
Mn11 O39 1.961770 1_555
Mn12 O86 1.944758 1_555
Mn12 O60 1.945921 1_555
Mn12 O55 1.946007 1_554
Mn12 O36 1.946051 1_555
Mn12 O93 1.966029 1_554
Mn12 O47 1.978794 1_554
Mn13 O61 1.945222 1_555
Mn13 O92 1.946426 1_555
Mn13 O87 1.948766 1_555
Mn13 O54 1.955633 1_555
Mn13 O46 1.955833 1_555
Mn13 O37 1.964484 1_555
Mn14 O25 1.935323 1_555
Mn14 O88 1.946490 1_555
Mn14 O16 1.947005 1_555
Mn14 O81 1.952287 1_555
Mn14 O1 1.968159 1_555
Mn14 O8 1.970357 1_555
Mn15 O91 1.921420 1_555
Mn15 O82 1.926349 1_556
Mn15 O11 1.953109 1_555
Mn15 O19 1.955339 1_555
Mn15 O2 1.970768 1_556
Mn15 O26 1.980999 1_556
Mn16 O90 1.943016 1_555
Mn16 O83 1.947949 1_555
Mn16 O10 1.956079 1_555
Mn16 O27 1.960824 1_555
Mn16 O3 1.962229 1_555
Mn16 O18 1.968715 1_555
Mn17 O28 1.914906 1_555
Mn17 O4 1.933426 1_555
Mn17 O13 1.949933 1_554
Mn17 O93 1.957165 1_554
Mn17 O21 1.963981 1_554
Mn17 O84 1.964863 1_555
Mn18 O12 1.919808 1_555
Mn18 O5 1.923633 1_555
Mn18 O20 1.952234 1_555
Mn18 O85 1.958418 1_555
Mn18 O29 1.961134 1_555
Mn18 O92 1.965116 1_555
Mn19 O86 1.940809 1_555
Mn19 O95 1.948693 1_554
Mn19 O15 1.958169 1_554
Mn19 O30 1.958957 1_555
Mn19 O6 1.960207 1_555
Mn19 O23 1.969082 1_554
Mn20 O94 1.941333 1_555
Mn20 O87 1.949164 1_555
Mn20 O7 1.957564 1_555
Mn20 O14 1.961008 1_555
Mn20 O22 1.963169 1_555
Mn20 O31 1.967640 1_555
Mn21 O17 1.917303 1_655
Mn21 O77 1.942839 1_555
Mn21 O1 1.950598 1_655
Mn21 O65 1.954407 1_655
Mn21 O29 1.957952 1_555
Mn21 O13 1.967055 1_555
Mn22 O66 1.906077 1_555
Mn22 O78 1.931670 1_455
Mn22 O18 1.954055 1_555
Mn22 O14 1.963972 1_455
Mn22 O30 1.974709 1_455
Mn22 O2 1.975376 1_555
Mn23 O67 1.950007 1_655
Mn23 O79 1.951280 1_555
Mn23 O31 1.955686 1_555
Mn23 O19 1.960044 1_655
Mn23 O15 1.965145 1_555
Mn23 O3 1.967474 1_655
Mn24 O20 1.933998 1_555
Mn24 O24 1.948476 1_555
Mn24 O4 1.954142 1_555
Mn24 O8 1.957863 1_555
Mn24 O72 1.962872 1_555
Mn24 O68 1.963827 1_555
Mn25 O9 1.924468 1_555
Mn25 O73 1.940161 1_555
Mn25 O5 1.951054 1_555
Mn25 O25 1.952023 1_555
Mn25 O21 1.954317 1_555
Mn25 O69 1.958293 1_555
Mn26 O74 1.932989 1_555
Mn26 O70 1.944645 1_555
Mn26 O22 1.956886 1_555
Mn26 O26 1.959133 1_555
Mn26 O10 1.965566 1_555
Mn26 O6 1.966873 1_555
Mn27 O75 1.950743 1_555
Mn27 O71 1.952430 1_555
Mn27 O23 1.953846 1_555
Mn27 O7 1.961453 1_555
Mn27 O27 1.961693 1_555
Mn27 O11 1.966119 1_555
O0 Ti2 1.966529 1_554
O0 Ti3 1.969522 1_455
O0 Sr2 2.672517 1_555
O1 Sr0 2.695944 1_555
O4 Sr1 2.431439 1_555
O8 Sr3 2.662429 1_555
O9 Ti2 1.987844 1_555
O9 Sr1 2.714889 1_556
O12 Ti3 1.954504 1_555
O12 Sr0 2.474976 1_655
O16 Ti3 1.996425 1_455
O16 Sr3 2.486597 1_555
O16 Sr0 2.632413 1_555
O16 Sr2 2.668093 1_555
O17 Ti2 1.958226 1_555
O24 Ti2 1.986855 1_554
O24 Sr2 2.494306 1_555
O24 Sr3 2.646284 1_555
O24 Sr1 2.650733 1_555
O28 Ti3 1.950250 1_555
O32 Sr2 2.422717 1_555
O32 Sr1 2.651640 1_555
O34 Ti1 1.990528 1_554
O34 Sr3 2.679568 1_565
O38 Ti0 1.960769 1_555
O40 Ti0 1.989785 1_445
O40 Sr3 2.472096 1_555
O40 Sr0 2.653755 1_555
O41 Ti1 1.971065 1_545
O42 Sr2 2.679230 1_555
O48 Sr3 2.655020 1_555
O49 Ti1 1.978282 1_545
O51 Sr1 2.695428 1_556
O52 Ti0 1.960602 1_545
O52 Sr0 2.473888 1_655
O56 Sr2 2.658110 1_555
O58 Ti1 1.963955 1_554
O58 Ti0 1.964976 1_455
O59 Sr0 2.692943 1_565
O60 Sr1 2.421992 1_555
O64 Ti3 1.964326 1_455
O64 Sr2 2.568802 1_555
O66 Ti0 1.958342 1_455
O69 Sr1 2.408078 1_556
O72 Sr3 2.541850 1_555
O76 Ti0 1.973835 1_545
O76 Ti3 1.975790 1_555
O77 Sr0 2.402023 1_655
O80 Ti2 1.948280 1_554
O80 Ti1 1.951891 1_544
O80 Sr3 2.483887 1_555
O81 Sr0 2.555717 1_555
O88 Sr2 2.420364 1_555
O89 Ti2 1.974450 1_555
O89 Sr1 2.558889 1_556
O91 Ti1 1.950368 1_555
