# generated using pymatgen
data_Sr2Nb2Bi3BrO11
_symmetry_space_group_name_H-M   'P 1'
_cell_length_a   3.97733300
_cell_length_b   3.97733300
_cell_length_c   20.32861000
_cell_angle_alpha   90.00000000
_cell_angle_beta   90.00000000
_cell_angle_gamma   90.00000000
_symmetry_Int_Tables_number   1
_chemical_formula_structural   Sr2Nb2Bi3BrO11
_chemical_formula_sum   'Sr2 Nb2 Bi3 Br1 O11'
_cell_volume   321.58189587
_cell_formula_units_Z   1
loop_
 _symmetry_equiv_pos_site_id
 _symmetry_equiv_pos_as_xyz
  1  'x, y, z'
loop_
 _atom_site_type_symbol
 _atom_site_label
 _atom_site_symmetry_multiplicity
 _atom_site_fract_x
 _atom_site_fract_y
 _atom_site_fract_z
 _atom_site_occupancy
  Sr  Sr0  1  0.00000000  0.00000000  0.72727300  1
  Sr  Sr1  1  0.00000000  0.00000000  0.27272700  1
  Nb  Nb0  1  0.50000000  0.50000000  0.88997700  1
  Nb  Nb1  1  0.50000000  0.50000000  0.11002300  1
  Bi  Bi0  1  0.00000000  0.00000000  0.00000000  1
  Bi  Bi1  1  0.50000000  0.50000000  0.60817800  1
  Bi  Bi2  1  0.50000000  0.50000000  0.39182200  1
  Br  Br0  1  0.00000000  0.00000000  0.50000000  1
  O  O0  1  0.50000000  0.00000000  0.66104700  1
  O  O1  1  0.00000000  0.50000000  0.66104700  1
  O  O2  1  0.50000000  0.00000000  0.33895300  1
  O  O3  1  0.00000000  0.50000000  0.33895300  1
  O  O4  1  0.50000000  0.00000000  0.90936000  1
  O  O5  1  0.00000000  0.50000000  0.90936000  1
  O  O6  1  0.50000000  0.00000000  0.09064000  1
  O  O7  1  0.00000000  0.50000000  0.09064000  1
  O  O8  1  0.50000000  0.50000000  0.80077700  1
  O  O9  1  0.50000000  0.50000000  0.19922300  1
  O  O10  1  0.50000000  0.50000000  0.00000000  1
loop_
_geom_bond_atom_site_label_1
_geom_bond_atom_site_label_2
_geom_bond_distance
_geom_bond_site_symmetry_2
Nb0 O8 1.813312 1_555
Nb0 O5 2.027327 1_555
Nb0 O4 2.027327 1_555
Nb0 O4 2.027327 1_565
Nb0 O5 2.027327 1_655
Nb0 O10 2.236615 1_556
Nb1 O9 1.813312 1_555
Nb1 O7 2.027327 1_555
Nb1 O6 2.027327 1_565
Nb1 O7 2.027327 1_655
Nb1 O6 2.027327 1_555
Nb1 O10 2.236615 1_555
Bi0 O5 2.711073 1_544
Bi0 O4 2.711073 1_554
Bi0 O5 2.711073 1_554
Bi0 O4 2.711073 1_454
Bi0 O6 2.711073 1_555
Bi0 O7 2.711073 1_555
Bi0 O7 2.711073 1_545
Bi0 O6 2.711073 1_455
Bi0 O10 2.812399 1_455
Bi0 O10 2.812399 1_545
Bi0 O10 2.812399 1_445
Bi0 O10 2.812399 1_555
Bi1 O1 2.260506 1_555
Bi1 O1 2.260506 1_655
Bi1 O0 2.260506 1_555
Bi1 O0 2.260506 1_565
Bi2 O3 2.260506 1_655
Bi2 O2 2.260506 1_555
Bi2 O2 2.260506 1_565
Bi2 O3 2.260506 1_555
O0 Sr0 2.401514 1_655
O0 Sr0 2.401514 1_555
O1 Sr0 2.401514 1_555
O1 Sr0 2.401514 1_565
O2 Sr1 2.401514 1_655
O2 Sr1 2.401514 1_555
O3 Sr1 2.401514 1_565
O3 Sr1 2.401514 1_555
O8 Sr0 3.184702 1_555
O8 Sr0 3.184702 1_565
O8 Sr0 3.184702 1_665
O8 Sr0 3.184702 1_655
O9 Sr1 3.184702 1_555
O9 Sr1 3.184702 1_655
O9 Sr1 3.184702 1_565
O9 Sr1 3.184702 1_665
