# generated using pymatgen
data_Li3Mn2O5
_symmetry_space_group_name_H-M   'P 1'
_cell_length_a   2.87567826
_cell_length_b   5.09764414
_cell_length_c   13.16763911
_cell_angle_alpha   99.59077464
_cell_angle_beta   96.26265956
_cell_angle_gamma   73.62163911
_symmetry_Int_Tables_number   1
_chemical_formula_structural   Li3Mn2O5
_chemical_formula_sum   'Li6 Mn4 O10'
_cell_volume   182.21150887
_cell_formula_units_Z   2
loop_
 _symmetry_equiv_pos_site_id
 _symmetry_equiv_pos_as_xyz
  1  'x, y, z'
loop_
 _atom_site_type_symbol
 _atom_site_label
 _atom_site_symmetry_multiplicity
 _atom_site_fract_x
 _atom_site_fract_y
 _atom_site_fract_z
 _atom_site_occupancy
  Li  Li0  1  0.09999100  0.49977700  0.69988000  1
  Li  Li1  1  0.59995200  0.99994500  0.20002700  1
  Li  Li2  1  0.29812900  0.51729900  0.11380100  1
  Li  Li3  1  0.90178600  0.48270600  0.28624600  1
  Li  Li4  1  0.51129700  0.46352700  0.48584100  1
  Li  Li5  1  0.68878300  0.53647700  0.91413700  1
  Mn  Mn0  1  0.21346400  0.95802100  0.38454800  1
  Mn  Mn1  1  0.38999000  0.02518100  0.80638200  1
  Mn  Mn2  1  0.98633600  0.04223800  0.01535100  1
  Mn  Mn3  1  0.80977700  0.97475000  0.59360900  1
  O  O0  1  0.35134800  0.26035100  0.96331700  1
  O  O1  1  0.84865900  0.73973600  0.43671200  1
  O  O2  1  0.94602500  0.24863700  0.14129700  1
  O  O3  1  0.25389200  0.75141500  0.25874700  1
  O  O4  1  0.57994600  0.19374600  0.35310500  1
  O  O5  1  0.61992700  0.80642100  0.04695500  1
  O  O6  1  0.17512400  0.19139600  0.54093400  1
  O  O7  1  0.02517200  0.80860100  0.85912800  1
  O  O8  1  0.75575600  0.24461300  0.75596400  1
  O  O9  1  0.44464600  0.75516200  0.64402000  1
loop_
_geom_bond_atom_site_label_1
_geom_bond_atom_site_label_2
_geom_bond_distance
_geom_bond_site_symmetry_2
Li0 O9 2.102489 1_455
Li0 O8 2.103079 1_455
Li0 O9 2.103328 1_555
Li0 O8 2.103886 1_555
Li0 O6 2.389372 1_555
Li0 O7 2.393557 1_555
Li1 O5 2.090422 1_555
Li1 O4 2.090922 1_565
Li1 O3 2.097280 1_555
Li1 O2 2.098034 1_565
Li1 O3 2.098776 1_655
Li1 O2 2.099140 1_465
Li2 O2 2.014214 1_555
Li2 O2 2.014752 1_455
Li2 O3 2.071610 1_555
Li2 O0 2.180309 1_554
Li2 O5 2.276503 1_555
Li2 O5 2.277565 1_455
Li3 O3 2.014325 1_555
Li3 O3 2.014974 1_655
Li3 O2 2.071546 1_555
Li3 O1 2.180295 1_555
Li3 O4 2.275989 1_555
Li3 O4 2.277169 1_655
Li4 O4 2.026417 1_555
Li4 O1 2.133772 1_555
Li4 O1 2.133899 1_455
Li4 O6 2.151715 1_555
Li4 O6 2.152795 1_655
Li4 O9 2.340877 1_555
Li5 O5 2.027659 1_556
Li5 O0 2.133775 1_655
Li5 O0 2.133869 1_555
Li5 O7 2.151555 1_655
Li5 O7 2.151980 1_555
Li5 O8 2.341356 1_555
Mn0 O3 1.805096 1_555
Mn0 O4 1.923780 1_465
Mn0 O4 1.923853 1_565
Mn0 O1 1.969960 1_455
Mn0 O1 1.970075 1_555
Mn0 O6 2.197076 1_565
Mn1 O8 1.962435 1_455
Mn1 O8 1.965108 1_555
Mn1 O7 1.967132 1_545
Mn1 O7 1.969552 1_645
Mn1 O0 2.206639 1_555
Mn1 O9 2.336832 1_545
Mn2 O2 1.806241 1_555
Mn2 O5 1.924581 1_645
Mn2 O5 1.924882 1_545
Mn2 O0 1.968739 1_554
Mn2 O0 1.968860 1_654
Mn2 O7 2.195743 1_644
Mn3 O9 1.964030 1_655
Mn3 O9 1.964343 1_555
Mn3 O6 1.968031 1_665
Mn3 O6 1.968239 1_565
Mn3 O1 2.205916 1_555
Mn3 O8 2.336422 1_565
