# generated using pymatgen
data_ZnGeP2
_symmetry_space_group_name_H-M   'P 1'
_cell_length_a   3.84694900
_cell_length_b   3.84694900
_cell_length_c   5.51597100
_cell_angle_alpha   90.00000000
_cell_angle_beta   90.00000000
_cell_angle_gamma   90.00000000
_symmetry_Int_Tables_number   1
_chemical_formula_structural   ZnGeP2
_chemical_formula_sum   'Zn1 Ge1 P2'
_cell_volume   81.63094644
_cell_formula_units_Z   1
loop_
 _symmetry_equiv_pos_site_id
 _symmetry_equiv_pos_as_xyz
  1  'x, y, z'
loop_
 _atom_site_type_symbol
 _atom_site_label
 _atom_site_symmetry_multiplicity
 _atom_site_fract_x
 _atom_site_fract_y
 _atom_site_fract_z
 _atom_site_occupancy
  Zn  Zn0  1  0.00000000  0.00000000  0.00000000  1
  Ge  Ge0  1  0.50000000  0.50000000  0.50000000  1
  P  P0  1  0.00000000  0.50000000  0.24621000  1
  P  P1  1  0.50000000  0.00000000  0.75379000  1
loop_
_geom_bond_atom_site_label_1
_geom_bond_atom_site_label_2
_geom_bond_distance
_geom_bond_site_symmetry_2
Ge0 P0 2.378964 1_555
Ge0 P1 2.378964 1_565
Ge0 P1 2.378964 1_555
Ge0 P0 2.378964 1_655
P0 Zn0 2.354603 1_555
P0 Zn0 2.354603 1_565
P1 Zn0 2.354603 1_556
P1 Zn0 2.354603 1_656
