# generated using pymatgen
data_Li7Mn2(CoO4)3
_symmetry_space_group_name_H-M   'P 1'
_cell_length_a   7.70289947
_cell_length_b   7.70289947
_cell_length_c   12.04347449
_cell_angle_alpha   54.45343209
_cell_angle_beta   54.45343209
_cell_angle_gamma   22.17222215
_symmetry_Int_Tables_number   1
_chemical_formula_structural   Li7Mn2(CoO4)3
_chemical_formula_sum   'Li7 Mn2 Co3 O12'
_cell_volume   217.26425090
_cell_formula_units_Z   1
loop_
 _symmetry_equiv_pos_site_id
 _symmetry_equiv_pos_as_xyz
  1  'x, y, z'
loop_
 _atom_site_type_symbol
 _atom_site_label
 _atom_site_symmetry_multiplicity
 _atom_site_fract_x
 _atom_site_fract_y
 _atom_site_fract_z
 _atom_site_occupancy
  Li  Li0  1  0.49089800  0.49089800  0.26320200  1
  Li  Li1  1  0.84585600  0.84585600  0.72204400  1
  Li  Li2  1  0.15414400  0.15414400  0.27795600  1
  Li  Li3  1  0.50910200  0.50910200  0.73679800  1
  Li  Li4  1  0.17177300  0.17177300  0.73122400  1
  Li  Li5  1  0.82822700  0.82822700  0.26877600  1
  Li  Li6  1  0.50000000  0.50000000  0.50000000  1
  Mn  Mn0  1  0.16568100  0.16568100  0.99951700  1
  Mn  Mn1  1  0.83431900  0.83431900  0.00048300  1
  Co  Co0  1  0.16077700  0.16077700  0.49899900  1
  Co  Co1  1  0.50000000  0.50000000  0.00000000  1
  Co  Co2  1  0.83922300  0.83922300  0.50100100  1
  O  O0  1  0.67437300  0.67437300  0.88825200  1
  O  O1  1  0.98481900  0.98481900  0.38159600  1
  O  O2  1  0.32830700  0.32830700  0.89536200  1
  O  O3  1  0.66738300  0.66738300  0.38092700  1
  O  O4  1  0.32089600  0.32089600  0.38935500  1
  O  O5  1  0.98853000  0.98853000  0.88755200  1
  O  O6  1  0.33261700  0.33261700  0.61907300  1
  O  O7  1  0.67169300  0.67169300  0.10463800  1
  O  O8  1  0.01518100  0.01518100  0.61840400  1
  O  O9  1  0.32562700  0.32562700  0.11174800  1
  O  O10  1  0.01147000  0.01147000  0.11244800  1
  O  O11  1  0.67910400  0.67910400  0.61064500  1
loop_
_geom_bond_atom_site_label_1
_geom_bond_atom_site_label_2
_geom_bond_distance
_geom_bond_site_symmetry_2
Li0 O1 2.019923 1_455
Li0 O1 2.019923 1_545
Li0 O4 2.070587 1_555
Li0 O10 2.217629 1_655
Li0 O10 2.217629 1_565
Li0 O7 2.221106 1_555
Li1 O6 2.016399 1_655
Li1 O6 2.016399 1_565
Li1 O8 2.079725 1_665
Li1 O0 2.139945 1_555
Li1 O2 2.442346 1_565
Li1 O2 2.442346 1_655
Li2 O3 2.016399 1_545
Li2 O3 2.016399 1_455
Li2 O1 2.079725 1_445
Li2 O9 2.139945 1_555
Li2 O7 2.442346 1_545
Li2 O7 2.442346 1_455
Li3 O8 2.019923 1_655
Li3 O8 2.019923 1_565
Li3 O11 2.070587 1_555
Li3 O5 2.217629 1_545
Li3 O5 2.217629 1_455
Li3 O2 2.221106 1_555
Li4 O6 1.961103 1_555
Li4 O11 2.030820 1_455
Li4 O11 2.030820 1_545
Li4 O5 2.244889 1_445
Li4 O0 2.420725 1_545
Li4 O0 2.420725 1_455
Li5 O3 1.961103 1_555
Li5 O4 2.030820 1_655
Li5 O4 2.030820 1_565
Li5 O10 2.244889 1_665
Li5 O9 2.420725 1_655
Li5 O9 2.420725 1_565
Li6 O3 2.039724 1_555
Li6 O6 2.039724 1_555
Li6 O8 2.160487 1_655
Li6 O8 2.160487 1_565
Li6 O1 2.160487 1_545
Li6 O1 2.160487 1_455
Mn0 O10 1.878372 1_556
Mn0 O0 1.948863 1_455
Mn0 O0 1.948863 1_545
Mn0 O7 1.985246 1_456
Mn0 O7 1.985246 1_546
Mn0 O2 1.991035 1_555
Mn1 O5 1.878372 1_554
Mn1 O9 1.948863 1_655
Mn1 O9 1.948863 1_565
Mn1 O2 1.985246 1_564
Mn1 O2 1.985246 1_654
Mn1 O7 1.991035 1_555
Co0 O8 1.778383 1_555
Co0 O4 1.953517 1_555
Co0 O3 2.014342 1_545
Co0 O3 2.014342 1_455
Co0 O11 2.126015 1_545
Co0 O11 2.126015 1_455
Co1 O5 2.082340 1_544
Co1 O5 2.082340 1_454
Co1 O10 2.082340 1_655
Co1 O10 2.082340 1_565
Co1 O9 2.134769 1_555
Co1 O0 2.134769 1_554
Co2 O1 1.778383 1_555
Co2 O11 1.953517 1_555
Co2 O6 2.014342 1_655
Co2 O6 2.014342 1_565
Co2 O4 2.126015 1_565
Co2 O4 2.126015 1_655
