# generated using pymatgen
data_CsSm(PO3)4
_symmetry_space_group_name_H-M   'P 1'
_cell_length_a   9.08159900
_cell_length_b   10.59097600
_cell_length_c   13.10810998
_cell_angle_alpha   56.46117462
_cell_angle_beta   90.00000000
_cell_angle_gamma   90.00000000
_symmetry_Int_Tables_number   1
_chemical_formula_structural   CsSm(PO3)4
_chemical_formula_sum   'Cs4 Sm4 P16 O48'
_cell_volume   1050.87253422
_cell_formula_units_Z   4
loop_
 _symmetry_equiv_pos_site_id
 _symmetry_equiv_pos_as_xyz
  1  'x, y, z'
loop_
 _atom_site_type_symbol
 _atom_site_label
 _atom_site_symmetry_multiplicity
 _atom_site_fract_x
 _atom_site_fract_y
 _atom_site_fract_z
 _atom_site_occupancy
  Cs  Cs0  1  0.06588500  0.72342700  0.96112600  1
  Cs  Cs1  1  0.43411500  0.72342700  0.46112600  1
  Cs  Cs2  1  0.93411500  0.27657300  0.03887400  1
  Cs  Cs3  1  0.56588500  0.27657300  0.53887400  1
  Sm  Sm0  1  0.77420300  0.81637500  0.68119900  1
  Sm  Sm1  1  0.72579700  0.81637500  0.18119900  1
  Sm  Sm2  1  0.22579700  0.18362500  0.31880100  1
  Sm  Sm3  1  0.27420300  0.18362500  0.81880100  1
  P  P0  1  0.40852800  0.88670700  0.75877000  1
  P  P1  1  0.09147200  0.88670700  0.25877000  1
  P  P2  1  0.59147200  0.11329300  0.24123000  1
  P  P3  1  0.90852800  0.11329300  0.74123000  1
  P  P4  1  0.03030000  0.53445400  0.71304400  1
  P  P5  1  0.46970000  0.53445400  0.21304400  1
  P  P6  1  0.96970000  0.46554600  0.28695600  1
  P  P7  1  0.53030000  0.46554600  0.78695600  1
  P  P8  1  0.17422600  0.82661300  0.63454000  1
  P  P9  1  0.32577400  0.82661300  0.13454000  1
  P  P10  1  0.82577400  0.17338700  0.36546000  1
  P  P11  1  0.67422600  0.17338700  0.86546000  1
  P  P12  1  0.89535500  0.70139500  0.47366300  1
  P  P13  1  0.60464500  0.70139500  0.97366300  1
  P  P14  1  0.10464500  0.29860500  0.52633700  1
  P  P15  1  0.39535500  0.29860500  0.02633700  1
  O  O0  1  0.09774900  0.38043000  0.79052800  1
  O  O1  1  0.40225100  0.38043000  0.29052800  1
  O  O2  1  0.90225100  0.61957000  0.20947200  1
  O  O3  1  0.59774900  0.61957000  0.70947200  1
  O  O4  1  0.29328000  0.78152600  0.74254100  1
  O  O5  1  0.20672000  0.78152600  0.24254100  1
  O  O6  1  0.70672000  0.21847400  0.25745900  1
  O  O7  1  0.79328000  0.21847400  0.75745900  1
  O  O8  1  0.16143500  0.66051700  0.65517900  1
  O  O9  1  0.33856500  0.66051700  0.15517900  1
  O  O10  1  0.83856500  0.33948300  0.34482100  1
  O  O11  1  0.66143500  0.33948300  0.84482100  1
  O  O12  1  0.96151900  0.54791400  0.59259700  1
  O  O13  1  0.53848100  0.54791400  0.09259700  1
  O  O14  1  0.03848100  0.45208600  0.40740300  1
  O  O15  1  0.46151900  0.45208600  0.90740300  1
  O  O16  1  0.45011700  0.76706100  0.90022600  1
  O  O17  1  0.04988300  0.76706100  0.40022600  1
  O  O18  1  0.54988300  0.23293900  0.09977400  1
  O  O19  1  0.95011700  0.23293900  0.59977400  1
  O  O20  1  0.91792300  0.57879000  0.77243700  1
  O  O21  1  0.58207700  0.57879000  0.27243700  1
  O  O22  1  0.08207700  0.42121000  0.22756300  1
  O  O23  1  0.41792300  0.42121000  0.72756300  1
  O  O24  1  0.79164300  0.66542500  0.40357300  1
  O  O25  1  0.70835700  0.66542500  0.90357300  1
  O  O26  1  0.20835700  0.33457500  0.59642700  1
  O  O27  1  0.29164300  0.33457500  0.09642700  1
  O  O28  1  0.53991700  0.92014700  0.67821900  1
  O  O29  1  0.96008300  0.92014700  0.17821900  1
  O  O30  1  0.46008300  0.07985300  0.32178100  1
  O  O31  1  0.03991700  0.07985300  0.82178100  1
  O  O32  1  0.32606200  0.01569200  0.74848400  1
  O  O33  1  0.17393800  0.01569200  0.24848400  1
  O  O34  1  0.67393800  0.98430800  0.25151600  1
  O  O35  1  0.82606200  0.98430800  0.75151600  1
  O  O36  1  0.83894000  0.79958400  0.51444600  1
  O  O37  1  0.66106000  0.79958400  0.01444600  1
  O  O38  1  0.16106000  0.20041600  0.48555400  1
  O  O39  1  0.33894000  0.20041600  0.98555400  1
  O  O40  1  0.24268200  0.92995500  0.51142600  1
  O  O41  1  0.25731800  0.92995500  0.01142600  1
  O  O42  1  0.75731800  0.07004500  0.48857400  1
  O  O43  1  0.74268200  0.07004500  0.98857400  1
  O  O44  1  0.03292700  0.86733000  0.66873600  1
  O  O45  1  0.46707300  0.86733000  0.16873600  1
  O  O46  1  0.96707300  0.13267000  0.33126400  1
  O  O47  1  0.53292700  0.13267000  0.83126400  1
loop_
_geom_bond_atom_site_label_1
_geom_bond_atom_site_label_2
_geom_bond_distance
_geom_bond_site_symmetry_2
Cs0 O41 3.136116 1_556
Cs0 O31 3.165868 1_565
Cs0 O2 3.171567 1_456
Cs0 O22 3.179870 1_556
Cs0 O44 3.263002 1_555
Cs0 O4 3.302227 1_555
Cs0 O9 3.342729 1_556
Cs0 O35 3.396797 1_455
Cs0 O25 3.464263 1_455
Cs0 O16 3.552375 1_555
Cs0 O32 3.660560 1_565
Cs0 O20 3.802144 1_455
Cs1 O40 3.136116 1_555
Cs1 O30 3.165868 1_565
Cs1 O3 3.171567 1_555
Cs1 O23 3.179870 1_555
Cs1 O45 3.263002 1_555
Cs1 O5 3.302227 1_555
Cs1 O8 3.342729 1_555
Cs1 O34 3.396797 1_555
Cs1 O24 3.464263 1_555
Cs1 O17 3.552375 1_555
Cs1 O33 3.660560 1_565
Cs1 O21 3.802144 1_555
Cs2 O43 3.136116 1_554
Cs2 O29 3.165868 1_545
Cs2 O0 3.171567 1_654
Cs2 O20 3.179870 1_554
Cs2 O46 3.263002 1_555
Cs2 O6 3.302227 1_555
Cs2 O11 3.342729 1_554
Cs2 O33 3.396797 1_655
Cs2 O27 3.464263 1_655
Cs2 O18 3.552375 1_555
Cs2 O34 3.660560 1_545
Cs2 O22 3.802144 1_655
Cs3 O42 3.136116 1_555
Cs3 O28 3.165868 1_545
Cs3 O1 3.171567 1_555
Cs3 O21 3.179870 1_555
Cs3 O47 3.263002 1_555
Cs3 O7 3.302227 1_555
Cs3 O10 3.342729 1_555
Cs3 O32 3.396797 1_555
Cs3 O26 3.464263 1_555
Cs3 O19 3.552375 1_555
Cs3 O35 3.660560 1_545
Cs3 O23 3.802144 1_555
O0 P4 1.495667 1_555
O0 Sm3 2.489229 1_555
O1 P5 1.495667 1_555
O1 Sm2 2.489229 1_555
O2 P6 1.495667 1_555
O2 Sm1 2.489229 1_555
O3 P7 1.495667 1_555
O3 Sm0 2.489229 1_555
O4 P0 1.625881 1_555
O4 P8 1.629170 1_555
O5 P1 1.625881 1_555
O5 P9 1.629170 1_555
O6 P2 1.625881 1_555
O6 P10 1.629170 1_555
O7 P3 1.625881 1_555
O7 P11 1.629170 1_555
O8 P8 1.629510 1_555
O8 P4 1.630074 1_555
O9 P9 1.629510 1_555
O9 P5 1.630074 1_555
O10 P10 1.629510 1_555
O10 P6 1.630074 1_555
O11 P11 1.629510 1_555
O11 P7 1.630074 1_555
O12 P12 1.622822 1_555
O12 P4 1.629266 1_655
O13 P13 1.622822 1_554
O13 P5 1.629266 1_555
O14 P14 1.622822 1_555
O14 P6 1.629266 1_455
O15 P15 1.622822 1_556
O15 P7 1.629266 1_555
O16 P0 1.609402 1_555
O16 P13 1.624798 1_555
O17 P1 1.609402 1_555
O17 P12 1.624798 1_455
O18 P2 1.609402 1_555
O18 P15 1.624798 1_555
O19 P3 1.609402 1_555
O19 P14 1.624798 1_655
O20 P4 1.507348 1_655
O20 Sm0 2.477923 1_555
O21 P5 1.507348 1_555
O21 Sm1 2.477923 1_555
O22 P6 1.507348 1_455
O22 Sm2 2.477923 1_555
O23 P7 1.507348 1_555
O23 Sm3 2.477923 1_555
O24 P12 1.504361 1_555
O24 Sm1 2.502141 1_555
O25 P13 1.504361 1_555
O25 Sm0 2.502141 1_555
O26 P14 1.504361 1_555
O26 Sm3 2.502141 1_555
O27 P15 1.504361 1_555
O27 Sm2 2.502141 1_555
O28 P0 1.500286 1_555
O28 Sm0 2.385175 1_555
O29 P1 1.500286 1_655
O29 Sm1 2.385175 1_555
O30 P2 1.500286 1_555
O30 Sm2 2.385175 1_555
O31 P3 1.500286 1_455
O31 Sm3 2.385175 1_555
O32 P0 1.497232 1_545
O32 Sm3 2.458902 1_555
O33 P1 1.497232 1_545
O33 Sm2 2.458902 1_555
O34 P2 1.497232 1_565
O34 Sm1 2.458902 1_555
O35 P3 1.497232 1_565
O35 Sm0 2.458902 1_555
O36 P12 1.498000 1_555
O36 Sm0 2.363174 1_555
O37 P13 1.498000 1_554
O37 Sm1 2.363174 1_555
O38 P14 1.498000 1_555
O38 Sm2 2.363174 1_555
O39 P15 1.498000 1_556
O39 Sm3 2.363174 1_555
O40 P8 1.495656 1_555
O40 Sm2 2.474048 1_565
O41 P9 1.495656 1_555
O41 Sm3 2.474048 1_564
O42 P10 1.495656 1_555
O42 Sm0 2.474048 1_545
O43 P11 1.495656 1_555
O43 Sm1 2.474048 1_546
O44 P8 1.499045 1_555
O44 Sm0 2.396092 1_455
O45 P9 1.499045 1_555
O45 Sm1 2.396092 1_555
O46 P10 1.499045 1_555
O46 Sm2 2.396092 1_655
O47 P11 1.499045 1_555
O47 Sm3 2.396092 1_555
