# generated using pymatgen
data_Ce(Al4Co)2
_symmetry_space_group_name_H-M   'P 1'
_cell_length_a   3.98553243
_cell_length_b   12.34172752
_cell_length_c   14.25046222
_cell_angle_alpha   90.00000000
_cell_angle_beta   90.00000000
_cell_angle_gamma   90.00000000
_symmetry_Int_Tables_number   1
_chemical_formula_structural   Ce(Al4Co)2
_chemical_formula_sum   'Ce4 Al32 Co8'
_cell_volume   700.95679848
_cell_formula_units_Z   4
loop_
 _symmetry_equiv_pos_site_id
 _symmetry_equiv_pos_as_xyz
  1  'x, y, z'
loop_
 _atom_site_type_symbol
 _atom_site_label
 _atom_site_symmetry_multiplicity
 _atom_site_fract_x
 _atom_site_fract_y
 _atom_site_fract_z
 _atom_site_occupancy
  Ce  Ce0  1  -0.00000000  0.84108109  0.18153116  1
  Ce  Ce1  1  0.00000000  0.15891891  0.81846884  1
  Ce  Ce2  1  -0.00000000  0.34108109  0.31846884  1
  Ce  Ce3  1  0.00000000  0.65891891  0.68153116  1
  Al  Al0  1  0.50000000  0.50000000  0.00000000  1
  Al  Al1  1  0.50000000  0.00000000  0.50000000  1
  Al  Al2  1  -0.00000000  0.50000000  0.50000000  1
  Al  Al3  1  -0.00000000  0.00000000  0.00000000  1
  Al  Al4  1  0.50000000  0.65872835  0.12055194  1
  Al  Al5  1  0.50000000  0.34127165  0.87944806  1
  Al  Al6  1  0.50000000  0.15872835  0.37944806  1
  Al  Al7  1  0.50000000  0.84127165  0.62055194  1
  Al  Al8  1  0.50000000  0.95306263  0.32144637  1
  Al  Al9  1  0.50000000  0.04693737  0.67855363  1
  Al  Al10  1  0.50000000  0.45306263  0.17855363  1
  Al  Al11  1  0.50000000  0.54693737  0.82144637  1
  Al  Al12  1  0.50000000  0.73562852  0.32783726  1
  Al  Al13  1  0.50000000  0.26437148  0.67216274  1
  Al  Al14  1  0.50000000  0.23562852  0.17216274  1
  Al  Al15  1  0.50000000  0.76437148  0.82783726  1
  Al  Al16  1  0.50000000  0.83168357  0.00808812  1
  Al  Al17  1  0.50000000  0.16831643  0.99191188  1
  Al  Al18  1  0.50000000  0.33168357  0.49191188  1
  Al  Al19  1  0.50000000  0.66831643  0.50808812  1
  Al  Al20  1  0.50000000  0.52599238  0.36856823  1
  Al  Al21  1  0.50000000  0.47400762  0.63143177  1
  Al  Al22  1  0.50000000  0.02599238  0.13143177  1
  Al  Al23  1  0.50000000  0.97400762  0.86856823  1
  Al  Al24  1  -0.00000000  0.84088040  0.45555068  1
  Al  Al25  1  -0.00000000  0.15911960  0.54444932  1
  Al  Al26  1  0.00000000  0.34088040  0.04444932  1
  Al  Al27  1  0.00000000  0.65911960  0.95555068  1
  Al  Al28  1  0.00000000  0.59496755  0.24757273  1
  Al  Al29  1  0.00000000  0.40503245  0.75242727  1
  Al  Al30  1  -0.00000000  0.09496755  0.25242727  1
  Al  Al31  1  -0.00000000  0.90503245  0.74757273  1
  Co  Co0  1  0.00000000  0.65165206  0.40330922  1
  Co  Co1  1  -0.00000000  0.34834794  0.59669078  1
  Co  Co2  1  -0.00000000  0.15165206  0.09669078  1
  Co  Co3  1  -0.00000000  0.84834794  0.90330922  1
  Co  Co4  1  -0.00000000  0.53516318  0.09483034  1
  Co  Co5  1  -0.00000000  0.46483682  0.90516966  1
  Co  Co6  1  0.00000000  0.03516318  0.40516966  1
  Co  Co7  1  0.00000000  0.96483682  0.59483034  1
loop_
_geom_bond_atom_site_label_1
_geom_bond_atom_site_label_2
_geom_bond_distance
_geom_bond_site_symmetry_2
Al0 Co4 2.446563 1_555
Al0 Co5 2.446563 1_554
Al0 Co4 2.446563 1_655
Al0 Co5 2.446563 1_654
Al0 Al4 2.605545 1_555
Al0 Al5 2.605545 1_554
Al0 Al10 2.609581 1_555
Al0 Al11 2.609581 1_554
Al0 Al27 2.868605 1_654
Al0 Al27 2.868605 1_554
Al0 Al26 2.868605 1_555
Al0 Al26 2.868605 1_655
Al1 Co6 2.446563 1_555
Al1 Co7 2.446563 1_545
Al1 Co6 2.446563 1_655
Al1 Co7 2.446563 1_645
Al1 Al6 2.605545 1_555
Al1 Al7 2.605545 1_545
Al1 Al8 2.609581 1_545
Al1 Al9 2.609581 1_555
Al1 Al25 2.868605 1_655
Al1 Al25 2.868605 1_555
Al1 Al24 2.868605 1_545
Al1 Al24 2.868605 1_645
Al2 Co0 2.324144 1_555
Al2 Co1 2.324144 1_555
Al2 Al20 2.753546 1_555
Al2 Al20 2.753546 1_455
Al2 Al21 2.753546 1_555
Al2 Al21 2.753546 1_455
Al2 Ce2 3.246367 1_555
Al2 Ce3 3.246367 1_555
Al3 Co3 2.324144 1_544
Al3 Co2 2.324144 1_555
Al3 Ce1 3.246367 1_554
Al3 Ce0 3.246367 1_545
Al4 Co4 2.535965 1_555
Al4 Co4 2.535965 1_655
Al4 Ce0 3.129091 1_655
Al4 Ce0 3.129091 1_555
Al5 Co5 2.535965 1_555
Al5 Co5 2.535965 1_655
Al5 Ce1 3.129091 1_555
Al5 Ce1 3.129091 1_655
Al6 Co6 2.535965 1_655
Al6 Co6 2.535965 1_555
Al6 Al8 2.669457 1_545
Al6 Ce2 3.129091 1_555
Al6 Ce2 3.129091 1_655
Al7 Co7 2.535965 1_555
Al7 Co7 2.535965 1_655
Al7 Al9 2.669457 1_565
Al7 Ce3 3.129091 1_655
Al7 Ce3 3.129091 1_555
Al8 Co6 2.534028 1_565
Al8 Co6 2.534028 1_665
Al8 Ce0 3.139527 1_555
Al8 Ce0 3.139527 1_655
Al9 Co7 2.534028 1_645
Al9 Co7 2.534028 1_545
Al9 Ce1 3.139527 1_555
Al9 Ce1 3.139527 1_655
Al10 Co4 2.534028 1_655
Al10 Co4 2.534028 1_555
Al10 Al4 2.669457 1_555
Al10 Al14 2.685058 1_555
Al10 Al28 2.829440 1_555
Al10 Al28 2.829440 1_655
Al10 Al20 2.853472 1_555
Al10 Al26 3.088709 1_655
Al10 Al26 3.088709 1_555
Al10 Ce2 3.139527 1_655
Al10 Ce2 3.139527 1_555
Al11 Co5 2.534028 1_555
Al11 Co5 2.534028 1_655
Al11 Al5 2.669457 1_555
Al11 Al15 2.685058 1_555
Al11 Al29 2.829440 1_655
Al11 Al29 2.829440 1_555
Al11 Al21 2.853472 1_555
Al11 Al27 3.088709 1_655
Al11 Al27 3.088709 1_555
Al11 Ce3 3.139527 1_655
Al11 Ce3 3.139527 1_555
Al12 Co0 2.490380 1_555
Al12 Co0 2.490380 1_655
Al12 Al20 2.651581 1_555
Al12 Al8 2.685058 1_555
Al12 Al19 2.699657 1_555
Al12 Al28 2.879775 1_555
Al12 Al28 2.879775 1_655
Al12 Al24 2.995130 1_555
Al12 Al24 2.995130 1_655
Al12 Al4 3.102636 1_555
Al12 Ce0 3.164153 1_655
Al12 Ce0 3.164153 1_555
Al13 Co1 2.490380 1_655
Al13 Co1 2.490380 1_555
Al13 Al21 2.651581 1_555
Al13 Al9 2.685058 1_555
Al13 Al18 2.699657 1_555
Al13 Al29 2.879775 1_555
Al13 Al29 2.879775 1_655
Al13 Al25 2.995130 1_655
Al13 Al25 2.995130 1_555
Al13 Al5 3.102636 1_555
Al13 Ce1 3.164153 1_655
Al13 Ce1 3.164153 1_555
Al14 Co2 2.490380 1_555
Al14 Co2 2.490380 1_655
Al14 Al22 2.651581 1_555
Al14 Al17 2.699657 1_554
Al14 Al30 2.879775 1_655
Al14 Al30 2.879775 1_555
Al14 Al26 2.995130 1_655
Al14 Al26 2.995130 1_555
Al14 Al6 3.102636 1_555
Al14 Ce2 3.164153 1_655
Al14 Ce2 3.164153 1_555
Al15 Co3 2.490380 1_655
Al15 Co3 2.490380 1_555
Al15 Al23 2.651581 1_555
Al15 Al16 2.699657 1_556
Al15 Al31 2.879775 1_655
Al15 Al31 2.879775 1_555
Al15 Al27 2.995130 1_655
Al15 Al27 2.995130 1_555
Al15 Al7 3.102636 1_555
Al15 Ce3 3.164153 1_655
Al15 Ce3 3.164153 1_555
Al16 Co3 2.498581 1_654
Al16 Co3 2.498581 1_554
Al16 Al23 2.653000 1_554
Al16 Al4 2.669250 1_555
Al16 Al3 2.880910 1_565
Al16 Al3 2.880910 1_665
Al16 Al22 2.973287 1_565
Al16 Al27 3.011217 1_654
Al16 Al27 3.011217 1_554
Al16 Ce0 3.177041 1_555
Al16 Ce0 3.177041 1_655
Al17 Co2 2.498581 1_556
Al17 Co2 2.498581 1_656
Al17 Al22 2.653000 1_556
Al17 Al5 2.669250 1_555
Al17 Al3 2.880910 1_656
Al17 Al3 2.880910 1_556
Al17 Al23 2.973287 1_545
Al17 Al26 3.011217 1_556
Al17 Al26 3.011217 1_656
Al17 Ce1 3.177041 1_555
Al17 Ce1 3.177041 1_655
Al18 Co1 2.498581 1_555
Al18 Co1 2.498581 1_655
Al18 Al21 2.653000 1_555
Al18 Al6 2.669250 1_555
Al18 Al2 2.880910 1_655
Al18 Al2 2.880910 1_555
Al18 Al20 2.973287 1_555
Al18 Al25 3.011217 1_655
Al18 Al25 3.011217 1_555
Al18 Ce2 3.177041 1_555
Al18 Ce2 3.177041 1_655
Al19 Co0 2.498581 1_655
Al19 Co0 2.498581 1_555
Al19 Al20 2.653000 1_555
Al19 Al7 2.669250 1_555
Al19 Al2 2.880910 1_655
Al19 Al2 2.880910 1_555
Al19 Al21 2.973287 1_555
Al19 Al24 3.011217 1_655
Al19 Al24 3.011217 1_555
Al19 Ce3 3.177041 1_655
Al19 Ce3 3.177041 1_555
Al20 Co0 2.573203 1_555
Al20 Co0 2.573203 1_655
Al20 Al28 2.769258 1_655
Al20 Al28 2.769258 1_555
Al20 Ce2 3.112703 1_555
Al20 Ce2 3.112703 1_655
Al21 Co1 2.573203 1_555
Al21 Co1 2.573203 1_655
Al21 Al29 2.769258 1_655
Al21 Al29 2.769258 1_555
Al21 Ce3 3.112703 1_655
Al21 Ce3 3.112703 1_555
Al22 Co2 2.573203 1_555
Al22 Co2 2.573203 1_655
Al22 Al3 2.753546 1_655
Al22 Al3 2.753546 1_555
Al22 Al30 2.769258 1_655
Al22 Al30 2.769258 1_555
Al22 Al8 2.853472 1_545
Al22 Ce0 3.112703 1_645
Al22 Ce0 3.112703 1_545
Al23 Co3 2.573203 1_655
Al23 Co3 2.573203 1_555
Al23 Al3 2.753546 1_566
Al23 Al3 2.753546 1_666
Al23 Al31 2.769258 1_555
Al23 Al31 2.769258 1_655
Al23 Al9 2.853472 1_565
Al23 Ce1 3.112703 1_565
Al23 Ce1 3.112703 1_665
Al24 Co0 2.451192 1_555
Al24 Co6 2.502964 1_565
Al24 Co7 2.505959 1_555
Al24 Al7 3.082201 1_555
Al24 Al7 3.082201 1_455
Al24 Al8 3.088709 1_555
Al24 Al8 3.088709 1_455
Al25 Co1 2.451192 1_555
Al25 Co7 2.502964 1_545
Al25 Co6 2.505959 1_555
Al25 Al6 3.082201 1_455
Al25 Al6 3.082201 1_555
Al25 Al9 3.088709 1_555
Al25 Al9 3.088709 1_455
Al26 Co2 2.451192 1_555
Al26 Co4 2.502964 1_555
Al26 Co5 2.505959 1_554
Al26 Al5 3.082201 1_554
Al26 Al5 3.082201 1_454
Al27 Co3 2.451192 1_555
Al27 Co5 2.502964 1_555
Al27 Co4 2.505959 1_556
Al27 Al4 3.082201 1_456
Al27 Al4 3.082201 1_556
Al28 Co4 2.298386 1_555
Al28 Co0 2.326969 1_555
Al28 Al4 2.804788 1_455
Al28 Al4 2.804788 1_555
Al28 Ce0 3.179924 1_555
Al28 Ce2 3.292247 1_555
Al29 Co5 2.298386 1_555
Al29 Co1 2.326969 1_555
Al29 Al5 2.804788 1_455
Al29 Al5 2.804788 1_555
Al29 Ce1 3.179924 1_555
Al29 Ce3 3.292247 1_555
Al30 Co6 2.298386 1_555
Al30 Co2 2.326969 1_555
Al30 Al6 2.804788 1_455
Al30 Al6 2.804788 1_555
Al30 Al8 2.829440 1_445
Al30 Al8 2.829440 1_545
Al30 Ce2 3.179924 1_555
Al30 Ce0 3.292247 1_545
Al31 Co7 2.298386 1_555
Al31 Co3 2.326969 1_555
Al31 Al7 2.804788 1_555
Al31 Al7 2.804788 1_455
Al31 Al9 2.829440 1_565
Al31 Al9 2.829440 1_465
Al31 Ce3 3.179924 1_555
Al31 Ce1 3.292247 1_565
