# generated using pymatgen
data_K2LiIn(MoO4)3
_symmetry_space_group_name_H-M   'P 1'
_cell_length_a   9.43258900
_cell_length_b   7.15186600
_cell_length_c   10.35271626
_cell_angle_alpha   72.50596430
_cell_angle_beta   90.00000000
_cell_angle_gamma   90.00000000
_symmetry_Int_Tables_number   1
_chemical_formula_structural   K2LiIn(MoO4)3
_chemical_formula_sum   'K4 Li2 In2 Mo6 O24'
_cell_volume   666.09833046
_cell_formula_units_Z   2
loop_
 _symmetry_equiv_pos_site_id
 _symmetry_equiv_pos_as_xyz
  1  'x, y, z'
loop_
 _atom_site_type_symbol
 _atom_site_label
 _atom_site_symmetry_multiplicity
 _atom_site_fract_x
 _atom_site_fract_y
 _atom_site_fract_z
 _atom_site_occupancy
  K  K0  1  0.50232100  0.15962300  0.20283000  1
  K  K1  1  0.00232100  0.84037700  0.79717000  1
  K  K2  1  0.00652000  0.45364000  0.57995000  1
  K  K3  1  0.50652000  0.54636000  0.42005000  1
  Li  Li0  1  0.35075600  0.94983200  0.87087200  1
  Li  Li1  1  0.85075600  0.05016800  0.12912800  1
  In  In0  1  0.59549500  0.72246000  0.73865000  1
  In  In1  1  0.09549500  0.27754000  0.26135000  1
  Mo  Mo0  1  0.17138100  0.80441900  0.18795600  1
  Mo  Mo1  1  0.67138100  0.19558100  0.81204400  1
  Mo  Mo2  1  0.78466700  0.57162500  0.07913800  1
  Mo  Mo3  1  0.28466700  0.42837500  0.92086200  1
  Mo  Mo4  1  0.28701700  0.95228800  0.54194100  1
  Mo  Mo5  1  0.78701700  0.04771200  0.45805900  1
  O  O0  1  0.34212000  0.83152900  0.24929100  1
  O  O1  1  0.84212000  0.16847100  0.75070900  1
  O  O2  1  0.19207700  0.82383100  0.01380400  1
  O  O3  1  0.69207700  0.17616900  0.98619600  1
  O  O4  1  0.06442900  0.01037000  0.20551300  1
  O  O5  1  0.56442900  0.98963000  0.79448700  1
  O  O6  1  0.10645500  0.56352400  0.29101800  1
  O  O7  1  0.60645500  0.43647600  0.70898200  1
  O  O8  1  0.62588800  0.52949800  0.17312000  1
  O  O9  1  0.12588800  0.47050200  0.82688000  1
  O  O10  1  0.87014500  0.78355700  0.09651500  1
  O  O11  1  0.37014500  0.21644300  0.90348500  1
  O  O12  1  0.74996100  0.62319000  0.89857900  1
  O  O13  1  0.24996100  0.37681000  0.10142100  1
  O  O14  1  0.90313800  0.35947600  0.14071000  1
  O  O15  1  0.40313800  0.64052400  0.85929000  1
  O  O16  1  0.15395400  0.78596600  0.53090800  1
  O  O17  1  0.65395400  0.21403400  0.46909200  1
  O  O18  1  0.24986500  0.02426100  0.68819700  1
  O  O19  1  0.74986500  0.97573900  0.31180300  1
  O  O20  1  0.46049300  0.83029000  0.55828700  1
  O  O21  1  0.96049300  0.16971000  0.44171300  1
  O  O22  1  0.27943600  0.17071100  0.39252900  1
  O  O23  1  0.77943600  0.82928900  0.60747100  1
loop_
_geom_bond_atom_site_label_1
_geom_bond_atom_site_label_2
_geom_bond_distance
_geom_bond_site_symmetry_2
K0 O0 2.709657 1_545
K0 O19 2.749985 1_545
K0 O8 2.821622 1_555
K0 O3 2.843955 1_554
K0 O13 2.863711 1_555
K0 O22 2.894276 1_555
K0 O17 3.231185 1_555
K0 O11 3.250604 1_554
K1 O1 2.709657 1_465
K1 O18 2.749985 1_565
K1 O9 2.821622 1_555
K1 O2 2.843955 1_556
K1 O12 2.863711 1_455
K1 O23 2.894276 1_455
K1 O16 3.231185 1_555
K1 O10 3.250604 1_456
K2 O16 2.667439 1_555
K2 O1 2.742588 1_455
K2 O9 2.828924 1_555
K2 O21 2.847324 1_455
K2 O6 3.006718 1_555
K3 O17 2.667439 1_555
K3 O0 2.742588 1_555
K3 O8 2.828924 1_555
K3 O20 2.847324 1_555
K3 O7 3.006718 1_555
Li0 O18 2.039694 1_565
Li0 O11 2.042120 1_565
Li0 O2 2.107191 1_556
Li0 O5 2.152497 1_555
Li0 O15 2.304668 1_555
Li1 O19 2.039694 1_545
Li1 O10 2.042120 1_545
Li1 O3 2.107191 1_554
Li1 O4 2.152497 1_655
Li1 O14 2.304668 1_555
In0 O12 2.159065 1_555
In0 O7 2.160103 1_555
In0 O5 2.176031 1_555
In0 O15 2.180686 1_555
In0 O23 2.194222 1_555
In0 O20 2.199361 1_555
In1 O13 2.159065 1_555
In1 O6 2.160103 1_555
In1 O4 2.176031 1_555
In1 O14 2.180686 1_455
In1 O22 2.194222 1_555
In1 O21 2.199361 1_455
Mo0 O0 1.763111 1_555
Mo0 O2 1.776939 1_555
Mo0 O6 1.837533 1_555
Mo0 O4 1.838825 1_565
Mo1 O1 1.763111 1_555
Mo1 O3 1.776939 1_555
Mo1 O7 1.837533 1_555
Mo1 O5 1.838825 1_545
Mo2 O8 1.761902 1_555
Mo2 O10 1.773065 1_555
Mo2 O12 1.822886 1_554
Mo2 O14 1.837313 1_555
Mo3 O9 1.761902 1_555
Mo3 O11 1.773065 1_555
Mo3 O13 1.822886 1_556
Mo3 O15 1.837313 1_555
Mo4 O16 1.756423 1_555
Mo4 O18 1.774539 1_565
Mo4 O20 1.838128 1_555
Mo4 O22 1.839915 1_565
Mo5 O17 1.756423 1_555
Mo5 O19 1.774539 1_545
Mo5 O21 1.838128 1_555
Mo5 O23 1.839915 1_545
