# generated using pymatgen
data_Er3Rh2
_symmetry_space_group_name_H-M   'P 1'
_cell_length_a   14.79389434
_cell_length_b   14.79389434
_cell_length_c   14.79389434
_cell_angle_alpha   135.77349722
_cell_angle_beta   135.77349722
_cell_angle_gamma   64.33070708
_symmetry_Int_Tables_number   1
_chemical_formula_structural   Er3Rh2
_chemical_formula_sum   'Er42 Rh28'
_cell_volume   1553.56873467
_cell_formula_units_Z   14
loop_
 _symmetry_equiv_pos_site_id
 _symmetry_equiv_pos_as_xyz
  1  'x, y, z'
loop_
 _atom_site_type_symbol
 _atom_site_label
 _atom_site_symmetry_multiplicity
 _atom_site_fract_x
 _atom_site_fract_y
 _atom_site_fract_z
 _atom_site_occupancy
  Er  Er0  1  0.63212600  0.50421200  0.27913100  1
  Er  Er1  1  0.22508100  0.35299500  0.72086900  1
  Er  Er2  1  0.13212600  0.85299500  0.12791300  1
  Er  Er3  1  0.72508100  0.00421200  0.87208700  1
  Er  Er4  1  0.35299500  0.63212600  0.12791300  1
  Er  Er5  1  0.50421200  0.22508100  0.87208700  1
  Er  Er6  1  0.00421200  0.13212600  0.27913100  1
  Er  Er7  1  0.85299500  0.72508100  0.72086900  1
  Er  Er8  1  0.36787400  0.49578800  0.72086900  1
  Er  Er9  1  0.77491900  0.64700500  0.27913100  1
  Er  Er10  1  0.86787400  0.14700500  0.87208700  1
  Er  Er11  1  0.27491900  0.99578800  0.12791300  1
  Er  Er12  1  0.64700500  0.36787400  0.87208700  1
  Er  Er13  1  0.49578800  0.77491900  0.12791300  1
  Er  Er14  1  0.99578800  0.86787400  0.72086900  1
  Er  Er15  1  0.14700500  0.27491900  0.27913100  1
  Er  Er16  1  0.38627300  0.51694600  0.29015200  1
  Er  Er17  1  0.22679400  0.09612100  0.70984800  1
  Er  Er18  1  0.88627300  0.59612100  0.86932700  1
  Er  Er19  1  0.72679400  0.01694600  0.13067300  1
  Er  Er20  1  0.09612100  0.38627300  0.86932700  1
  Er  Er21  1  0.51694600  0.22679400  0.13067300  1
  Er  Er22  1  0.01694600  0.88627300  0.29015200  1
  Er  Er23  1  0.59612100  0.72679400  0.70984800  1
  Er  Er24  1  0.61372700  0.48305400  0.70984800  1
  Er  Er25  1  0.77320600  0.90387900  0.29015200  1
  Er  Er26  1  0.11372700  0.40387900  0.13067300  1
  Er  Er27  1  0.27320600  0.98305400  0.86932700  1
  Er  Er28  1  0.90387900  0.61372700  0.13067300  1
  Er  Er29  1  0.48305400  0.77320600  0.86932700  1
  Er  Er30  1  0.98305400  0.11372700  0.70984800  1
  Er  Er31  1  0.40387900  0.27320600  0.29015200  1
  Er  Er32  1  0.84962200  0.34962200  0.19924400  1
  Er  Er33  1  0.15037800  0.65037800  0.80075600  1
  Er  Er34  1  0.34962200  0.15037800  0.50000000  1
  Er  Er35  1  0.65037800  0.84962200  0.50000000  1
  Er  Er36  1  0.38807100  0.88807100  0.50000000  1
  Er  Er37  1  0.88807100  0.38807100  0.50000000  1
  Er  Er38  1  0.61192900  0.11192900  0.50000000  1
  Er  Er39  1  0.11192900  0.61192900  0.50000000  1
  Er  Er40  1  0.25000000  0.75000000  0.50000000  1
  Er  Er41  1  0.75000000  0.25000000  0.50000000  1
  Rh  Rh0  1  0.71472800  0.21472800  0.14207900  1
  Rh  Rh1  1  0.07264900  0.57264900  0.85792100  1
  Rh  Rh2  1  0.21472800  0.07264900  0.50000000  1
  Rh  Rh3  1  0.57264900  0.71472800  0.50000000  1
  Rh  Rh4  1  0.28527200  0.78527200  0.85792100  1
  Rh  Rh5  1  0.92735100  0.42735100  0.14207900  1
  Rh  Rh6  1  0.78527200  0.92735100  0.50000000  1
  Rh  Rh7  1  0.42735100  0.28527200  0.50000000  1
  Rh  Rh8  1  0.46586500  0.96586500  0.80841700  1
  Rh  Rh9  1  0.15744800  0.65744800  0.19158300  1
  Rh  Rh10  1  0.96586500  0.15744800  0.50000000  1
  Rh  Rh11  1  0.65744800  0.46586500  0.50000000  1
  Rh  Rh12  1  0.53413500  0.03413500  0.19158300  1
  Rh  Rh13  1  0.84255200  0.34255200  0.80841700  1
  Rh  Rh14  1  0.03413500  0.84255200  0.50000000  1
  Rh  Rh15  1  0.34255200  0.53413500  0.50000000  1
  Rh  Rh16  1  0.59674600  0.09674600  0.69349300  1
  Rh  Rh17  1  0.40325400  0.90325400  0.30650700  1
  Rh  Rh18  1  0.09674600  0.40325400  0.50000000  1
  Rh  Rh19  1  0.90325400  0.59674600  0.50000000  1
  Rh  Rh20  1  0.36645600  0.36645600  0.00000000  1
  Rh  Rh21  1  0.86645600  0.86645600  0.00000000  1
  Rh  Rh22  1  0.63354400  0.63354400  0.00000000  1
  Rh  Rh23  1  0.13354400  0.13354400  0.00000000  1
  Rh  Rh24  1  0.50000000  0.50000000  0.00000000  1
  Rh  Rh25  1  0.00000000  0.00000000  0.00000000  1
  Rh  Rh26  1  0.25000000  0.25000000  0.00000000  1
  Rh  Rh27  1  0.75000000  0.75000000  0.00000000  1
loop_
_geom_bond_atom_site_label_1
_geom_bond_atom_site_label_2
_geom_bond_distance
_geom_bond_site_symmetry_2
Er0 Rh19 2.863927 1_555
Er0 Rh20 2.875871 1_555
Er0 Rh3 2.883088 1_555
Er0 Rh24 3.007570 1_555
Er0 Rh0 3.243052 1_555
Er0 Rh11 3.443406 1_555
Er1 Rh18 2.863927 1_555
Er1 Rh20 2.875871 1_556
Er1 Rh2 2.883088 1_555
Er1 Rh24 3.007570 1_556
Er1 Rh1 3.243052 1_555
Er1 Rh10 3.443406 1_455
Er2 Rh17 2.863927 1_555
Er2 Rh21 2.875875 1_455
Er2 Rh1 2.883086 1_554
Er2 Rh25 3.007560 1_565
Er2 Rh2 3.243062 1_565
Er2 Rh9 3.443417 1_555
Er3 Rh16 2.863927 1_555
Er3 Rh21 2.875861 1_546
Er3 Rh0 2.883078 1_556
Er3 Rh25 3.007574 1_656
Er3 Rh3 3.243056 1_545
Er3 Rh8 3.443396 1_545
Er4 Rh17 2.863927 1_555
Er4 Rh20 2.875875 1_555
Er4 Rh1 2.883086 1_554
Er4 Rh24 3.007560 1_555
Er4 Rh3 3.243062 1_555
Er4 Rh9 3.443417 1_555
Er5 Rh16 2.863927 1_555
Er5 Rh20 2.875861 1_556
Er5 Rh0 2.883078 1_556
Er5 Rh24 3.007574 1_556
Er5 Rh2 3.243056 1_555
Er5 Rh8 3.443396 1_545
Er6 Rh18 2.863927 1_555
Er6 Rh21 2.875871 1_445
Er6 Rh2 2.883088 1_555
Er6 Rh25 3.007570 1_555
Er6 Rh0 3.243052 1_455
Er6 Rh10 3.443406 1_455
Er7 Rh19 2.863927 1_555
Er7 Rh21 2.875871 1_556
Er7 Rh3 2.883088 1_555
Er7 Rh25 3.007570 1_666
Er7 Rh1 3.243052 1_655
Er7 Rh11 3.443406 1_555
Er8 Rh18 2.863927 1_555
Er8 Rh22 2.875871 1_556
Er8 Rh7 2.883088 1_555
Er8 Rh24 3.007570 1_556
Er8 Rh4 3.243052 1_555
Er8 Rh15 3.443406 1_555
Er9 Rh19 2.863927 1_555
Er9 Rh22 2.875871 1_555
Er9 Rh6 2.883088 1_555
Er9 Rh24 3.007570 1_555
Er9 Rh5 3.243052 1_555
Er9 Rh14 3.443406 1_655
Er10 Rh16 2.863927 1_555
Er10 Rh23 2.875875 1_656
Er10 Rh5 2.883086 1_556
Er10 Rh25 3.007560 1_656
Er10 Rh6 3.243062 1_545
Er10 Rh13 3.443417 1_555
Er11 Rh17 2.863927 1_555
Er11 Rh23 2.875861 1_565
Er11 Rh4 2.883078 1_554
Er11 Rh25 3.007574 1_565
Er11 Rh7 3.243056 1_565
Er11 Rh12 3.443396 1_565
Er12 Rh16 2.863927 1_555
Er12 Rh22 2.875875 1_556
Er12 Rh5 2.883086 1_556
Er12 Rh24 3.007560 1_556
Er12 Rh7 3.243062 1_555
Er12 Rh13 3.443417 1_555
Er13 Rh17 2.863927 1_555
Er13 Rh22 2.875861 1_555
Er13 Rh4 2.883078 1_554
Er13 Rh24 3.007574 1_555
Er13 Rh6 3.243056 1_555
Er13 Rh12 3.443396 1_565
Er14 Rh19 2.863927 1_555
Er14 Rh23 2.875871 1_666
Er14 Rh6 2.883088 1_555
Er14 Rh25 3.007570 1_666
Er14 Rh4 3.243052 1_655
Er14 Rh14 3.443406 1_655
Er15 Rh18 2.863927 1_555
Er15 Rh23 2.875871 1_555
Er15 Rh7 2.883088 1_555
Er15 Rh25 3.007570 1_555
Er15 Rh5 3.243052 1_455
Er15 Rh15 3.443406 1_555
Er16 Rh3 2.739470 1_555
Er16 Rh26 2.878554 1_555
Er16 Rh20 2.921243 1_555
Er16 Rh9 3.013270 1_555
Er16 Rh11 3.031400 1_555
Er16 Rh15 3.424126 1_555
Er17 Rh2 2.739470 1_555
Er17 Rh26 2.878554 1_556
Er17 Rh20 2.921243 1_556
Er17 Rh8 3.013270 1_545
Er17 Rh10 3.031400 1_455
Er17 Rh14 3.424126 1_545
Er18 Rh1 2.739470 1_655
Er18 Rh27 2.878554 1_556
Er18 Rh21 2.921243 1_556
Er18 Rh11 3.013270 1_555
Er18 Rh9 3.031400 1_656
Er18 Rh13 3.424126 1_555
Er19 Rh0 2.739470 1_555
Er19 Rh27 2.878554 1_545
Er19 Rh21 2.921243 1_545
Er19 Rh10 3.013270 1_555
Er19 Rh8 3.031400 1_544
Er19 Rh12 3.424126 1_555
Er20 Rh1 2.739470 1_555
Er20 Rh26 2.878554 1_556
Er20 Rh20 2.921243 1_556
Er20 Rh10 3.013270 1_455
Er20 Rh9 3.031400 1_556
Er20 Rh13 3.424126 1_455
Er21 Rh0 2.739470 1_555
Er21 Rh26 2.878554 1_555
Er21 Rh20 2.921243 1_555
Er21 Rh11 3.013270 1_555
Er21 Rh8 3.031400 1_544
Er21 Rh12 3.424126 1_555
Er22 Rh2 2.739470 1_565
Er22 Rh27 2.878554 1_455
Er22 Rh21 2.921243 1_455
Er22 Rh9 3.013270 1_555
Er22 Rh10 3.031400 1_465
Er22 Rh14 3.424126 1_555
Er23 Rh3 2.739470 1_555
Er23 Rh27 2.878554 1_556
Er23 Rh21 2.921243 1_556
Er23 Rh8 3.013270 1_555
Er23 Rh11 3.031400 1_555
Er23 Rh15 3.424126 1_555
Er24 Rh7 2.739470 1_555
Er24 Rh27 2.878554 1_556
Er24 Rh22 2.921243 1_556
Er24 Rh13 3.013270 1_555
Er24 Rh15 3.031400 1_555
Er24 Rh11 3.424126 1_555
Er25 Rh6 2.739470 1_555
Er25 Rh27 2.878554 1_555
Er25 Rh22 2.921243 1_555
Er25 Rh12 3.013270 1_565
Er25 Rh14 3.031400 1_655
Er25 Rh10 3.424126 1_565
Er26 Rh5 2.739470 1_455
Er26 Rh26 2.878554 1_555
Er26 Rh23 2.921243 1_555
Er26 Rh15 3.013270 1_555
Er26 Rh13 3.031400 1_454
Er26 Rh9 3.424126 1_555
Er27 Rh4 2.739470 1_555
Er27 Rh26 2.878554 1_566
Er27 Rh23 2.921243 1_566
Er27 Rh14 3.013270 1_555
Er27 Rh12 3.031400 1_566
Er27 Rh8 3.424126 1_555
Er28 Rh5 2.739470 1_555
Er28 Rh27 2.878554 1_555
Er28 Rh22 2.921243 1_555
Er28 Rh14 3.013270 1_655
Er28 Rh13 3.031400 1_554
Er28 Rh9 3.424126 1_655
Er29 Rh4 2.739470 1_555
Er29 Rh27 2.878554 1_556
Er29 Rh22 2.921243 1_556
Er29 Rh15 3.013270 1_555
Er29 Rh12 3.031400 1_566
Er29 Rh8 3.424126 1_555
Er30 Rh6 2.739470 1_545
Er30 Rh26 2.878554 1_656
Er30 Rh23 2.921243 1_656
Er30 Rh13 3.013270 1_555
Er30 Rh14 3.031400 1_645
Er30 Rh10 3.424126 1_555
Er31 Rh7 2.739470 1_555
Er31 Rh26 2.878554 1_555
Er31 Rh23 2.921243 1_555
Er31 Rh12 3.013270 1_555
Er31 Rh15 3.031400 1_555
Er31 Rh11 3.424126 1_555
Er32 Rh0 2.700526 1_555
Er32 Rh5 2.700526 1_555
Er32 Rh19 2.816537 1_555
Er32 Rh18 2.816537 1_655
Er33 Rh4 2.700526 1_555
Er33 Rh1 2.700526 1_555
Er33 Rh18 2.816537 1_555
Er33 Rh19 2.816537 1_455
Er34 Rh7 2.700526 1_555
Er34 Rh2 2.700526 1_555
Er34 Rh16 2.816542 1_555
Er34 Rh17 2.816542 1_545
Er35 Rh6 2.700526 1_555
Er35 Rh3 2.700526 1_555
Er35 Rh17 2.816542 1_555
Er35 Rh16 2.816542 1_565
Er36 Rh2 2.822403 1_565
Er36 Rh3 2.822403 1_555
Er36 Rh9 3.092440 1_555
Er36 Rh8 3.092440 1_555
Er36 Rh16 3.190836 1_565
Er36 Rh17 3.190858 1_555
Er37 Rh0 2.822403 1_555
Er37 Rh1 2.822403 1_655
Er37 Rh10 3.092440 1_555
Er37 Rh11 3.092440 1_555
Er37 Rh19 3.190843 1_555
Er37 Rh18 3.190843 1_655
Er38 Rh7 2.822403 1_555
Er38 Rh6 2.822403 1_545
Er38 Rh13 3.092440 1_555
Er38 Rh12 3.092440 1_555
Er38 Rh17 3.190836 1_545
Er38 Rh16 3.190858 1_555
Er39 Rh5 2.822403 1_455
Er39 Rh4 2.822403 1_555
Er39 Rh14 3.092440 1_555
Er39 Rh15 3.092440 1_555
Er39 Rh18 3.190843 1_555
Er39 Rh19 3.190843 1_455
Er40 Rh8 2.878352 1_555
Er40 Rh15 2.878352 1_555
Er40 Rh14 2.878352 1_555
Er40 Rh9 2.878352 1_555
Er41 Rh10 2.878352 1_555
Er41 Rh12 2.878352 1_555
Er41 Rh11 2.878352 1_555
Er41 Rh13 2.878352 1_555
