# generated using pymatgen
data_Cr4CdAgSe8
_symmetry_space_group_name_H-M   'P 1'
_cell_length_a   7.65316943
_cell_length_b   7.65316943
_cell_length_c   7.65316943
_cell_angle_alpha   60.00000000
_cell_angle_beta   60.00000000
_cell_angle_gamma   60.00000000
_symmetry_Int_Tables_number   1
_chemical_formula_structural   Cr4CdAgSe8
_chemical_formula_sum   'Cr4 Cd1 Ag1 Se8'
_cell_volume   316.96330457
_cell_formula_units_Z   1
loop_
 _symmetry_equiv_pos_site_id
 _symmetry_equiv_pos_as_xyz
  1  'x, y, z'
loop_
 _atom_site_type_symbol
 _atom_site_label
 _atom_site_symmetry_multiplicity
 _atom_site_fract_x
 _atom_site_fract_y
 _atom_site_fract_z
 _atom_site_occupancy
  Cr  Cr0  1  0.62974700  0.12341800  0.12341800  1
  Cr  Cr1  1  0.12341800  0.62974700  0.12341800  1
  Cr  Cr2  1  0.12341800  0.12341800  0.62974700  1
  Cr  Cr3  1  0.12341800  0.12341800  0.12341800  1
  Cd  Cd0  1  0.50000000  0.50000000  0.50000000  1
  Ag  Ag0  1  0.75000000  0.75000000  0.75000000  1
  Se  Se0  1  0.33177800  0.88940700  0.88940700  1
  Se  Se1  1  0.88940700  0.33177800  0.88940700  1
  Se  Se2  1  0.88940700  0.88940700  0.33177800  1
  Se  Se3  1  0.88940700  0.88940700  0.88940700  1
  Se  Se4  1  0.92212900  0.35929000  0.35929000  1
  Se  Se5  1  0.35929000  0.92212900  0.35929000  1
  Se  Se6  1  0.35929000  0.35929000  0.92212900  1
  Se  Se7  1  0.35929000  0.35929000  0.35929000  1
loop_
_geom_bond_atom_site_label_1
_geom_bond_atom_site_label_2
_geom_bond_distance
_geom_bond_site_symmetry_2
Cr0 Se1 2.540337 1_554
Cr0 Se2 2.540337 1_545
Cr0 Se3 2.540347 1_544
Cr0 Se7 2.566578 1_555
Cr0 Se6 2.566588 1_554
Cr0 Se5 2.566588 1_545
Cr1 Se2 2.540337 1_455
Cr1 Se0 2.540337 1_554
Cr1 Se3 2.540347 1_454
Cr1 Se7 2.566578 1_555
Cr1 Se4 2.566588 1_455
Cr1 Se6 2.566588 1_554
Cr2 Se0 2.540337 1_545
Cr2 Se1 2.540337 1_455
Cr2 Se3 2.540347 1_445
Cr2 Se7 2.566578 1_555
Cr2 Se4 2.566588 1_455
Cr2 Se5 2.566588 1_545
Cr3 Se0 2.540348 1_544
Cr3 Se1 2.540348 1_454
Cr3 Se2 2.540348 1_445
Cr3 Se6 2.566577 1_554
Cr3 Se5 2.566577 1_545
Cr3 Se4 2.566577 1_455
Cd0 Se5 2.637794 1_555
Cd0 Se4 2.637794 1_555
Cd0 Se6 2.637794 1_555
Cd0 Se7 2.637800 1_555
Ag0 Se3 2.613374 1_555
Ag0 Se0 2.613380 1_555
Ag0 Se1 2.613380 1_555
Ag0 Se2 2.613380 1_555
