# generated using pymatgen
data_K2MgMn2P6(HO10)2
_symmetry_space_group_name_H-M   'P 1'
_cell_length_a   7.44694215
_cell_length_b   7.32572218
_cell_length_c   9.46477879
_cell_angle_alpha   74.76764666
_cell_angle_beta   76.01260775
_cell_angle_gamma   75.60583054
_symmetry_Int_Tables_number   1
_chemical_formula_structural   K2MgMn2P6(HO10)2
_chemical_formula_sum   'K2 Mg1 Mn2 P6 H2 O20'
_cell_volume   473.89097197
_cell_formula_units_Z   1
loop_
 _symmetry_equiv_pos_site_id
 _symmetry_equiv_pos_as_xyz
  1  'x, y, z'
loop_
 _atom_site_type_symbol
 _atom_site_label
 _atom_site_symmetry_multiplicity
 _atom_site_fract_x
 _atom_site_fract_y
 _atom_site_fract_z
 _atom_site_occupancy
  K  K0  1  0.42353900  0.54638600  0.27903900  1
  K  K1  1  0.50054800  0.45189700  0.80640700  1
  Mg  Mg0  1  0.89066400  0.10881300  0.53167900  1
  Mn  Mn0  1  0.97896800  0.50900700  0.98639200  1
  Mn  Mn1  1  0.48554300  0.01053400  0.49883700  1
  P  P0  1  0.28065400  0.14365100  0.18421900  1
  P  P1  1  0.14422500  0.29268400  0.68075800  1
  P  P2  1  0.15228100  0.88053900  0.78936300  1
  P  P3  1  0.87374900  0.11694700  0.22417100  1
  P  P4  1  0.81785600  0.71065100  0.30552100  1
  P  P5  1  0.73061000  0.89127800  0.80440900  1
  H  H0  1  0.98291900  0.51526400  0.46972700  1
  H  H1  1  0.49661000  0.98613300  0.02843700  1
  O  O0  1  0.07456800  0.08439000  0.27801600  1
  O  O1  1  0.98864200  0.30192200  0.59015500  1
  O  O2  1  0.24181300  0.32560900  0.06730400  1
  O  O3  1  0.14203800  0.09166500  0.81197200  1
  O  O4  1  0.36806600  0.16159700  0.30677600  1
  O  O5  1  0.09696300  0.44971700  0.76677200  1
  O  O6  1  0.33942000  0.27474100  0.58184400  1
  O  O7  1  0.14276700  0.73779300  0.93552300  1
  O  O8  1  0.38193900  0.96042300  0.11899300  1
  O  O9  1  0.74095200  0.15766200  0.36873300  1
  O  O10  1  0.31071200  0.83420500  0.66235600  1
  O  O11  1  0.64821900  0.03289400  0.90599800  1
  O  O12  1  0.85403500  0.25889400  0.08187600  1
  O  O13  1  0.63198000  0.75099600  0.41142000  1
  O  O14  1  0.82366000  0.58468500  0.20158100  1
  O  O15  1  0.67315400  0.97106000  0.65016400  1
  O  O16  1  0.86901300  0.91248400  0.20023400  1
  O  O17  1  0.73073700  0.68107700  0.87551500  1
  O  O18  1  0.99195200  0.63840100  0.39077500  1
  O  O19  1  0.95972100  0.91171300  0.72646100  1
loop_
_geom_bond_atom_site_label_1
_geom_bond_atom_site_label_2
_geom_bond_distance
_geom_bond_site_symmetry_2
K0 O4 2.884997 1_555
K0 O14 2.957401 1_555
K0 O8 2.989279 1_555
K0 O13 3.051226 1_555
K0 O6 3.053087 1_555
K0 O18 3.091431 1_455
K0 O9 3.281833 1_555
K1 O2 2.837569 1_556
K1 O10 2.942451 1_555
K1 O17 2.955509 1_555
K1 O11 2.970213 1_555
K1 O5 3.121843 1_555
K1 O7 3.158370 1_555
K1 O6 3.331382 1_555
Mg0 O1 1.989921 1_555
Mg0 O9 2.022974 1_555
Mg0 O15 2.059026 1_545
Mg0 O19 2.106760 1_545
Mg0 O0 2.487197 1_655
Mn0 O12 2.147198 1_556
Mn0 O5 2.164086 1_655
Mn0 O7 2.199385 1_655
Mn0 O14 2.220140 1_556
Mn0 O2 2.258187 1_656
Mn0 O17 2.278506 1_555
Mn1 O4 2.127165 1_555
Mn1 O10 2.137878 1_545
Mn1 O15 2.153103 1_545
Mn1 O13 2.201890 1_545
Mn1 O6 2.210463 1_555
Mn1 O9 2.342072 1_555
H0 O18 1.014058 1_555
H0 O1 1.672697 1_555
H1 O8 1.068003 1_555
H1 O11 1.444365 1_564
O0 P3 1.637168 1_455
O0 P0 1.673927 1_555
O1 P1 1.578977 1_655
O2 P0 1.507628 1_555
O3 P2 1.597217 1_545
O3 P1 1.659015 1_555
O4 P0 1.508068 1_555
O5 P1 1.504099 1_555
O6 P1 1.522668 1_555
O7 P2 1.497187 1_555
O8 P0 1.568028 1_565
O9 P3 1.533861 1_555
O10 P2 1.510602 1_555
O11 P5 1.516493 1_545
O12 P3 1.483405 1_555
O13 P4 1.513135 1_555
O14 P4 1.502617 1_555
O15 P5 1.544421 1_555
O16 P3 1.582573 1_565
O16 P4 1.626853 1_555
O17 P5 1.509691 1_555
O18 P4 1.597576 1_555
O19 P2 1.625223 1_655
O19 P5 1.714116 1_555
