# generated using pymatgen
data_SrMg
_symmetry_space_group_name_H-M   'P 1'
_cell_length_a   6.50103742
_cell_length_b   6.50103742
_cell_length_c   6.91954702
_cell_angle_alpha   67.27791885
_cell_angle_beta   67.27791885
_cell_angle_gamma   59.50184637
_symmetry_Int_Tables_number   1
_chemical_formula_structural   SrMg
_chemical_formula_sum   'Sr3 Mg3'
_cell_volume   225.67070168
_cell_formula_units_Z   3
loop_
 _symmetry_equiv_pos_site_id
 _symmetry_equiv_pos_as_xyz
  1  'x, y, z'
loop_
 _atom_site_type_symbol
 _atom_site_label
 _atom_site_symmetry_multiplicity
 _atom_site_fract_x
 _atom_site_fract_y
 _atom_site_fract_z
 _atom_site_occupancy
  Sr  Sr0  1  0.36061400  0.63938600  0.00000000  1
  Sr  Sr1  1  0.82971400  0.84929400  0.48925700  1
  Sr  Sr2  1  0.15070600  0.17028600  0.51074300  1
  Mg  Mg0  1  0.99792400  0.33992500  0.00464900  1
  Mg  Mg1  1  0.66007500  0.00207600  0.99535100  1
  Mg  Mg2  1  0.50096600  0.49903400  0.50000000  1
loop_
_geom_bond_atom_site_label_1
_geom_bond_atom_site_label_2
_geom_bond_distance
_geom_bond_site_symmetry_2
Sr0 Sr2 3.872638 1_564
Sr0 Sr1 3.872638 1_455
Sr0 Sr1 3.978038 1_554
Sr0 Sr2 3.978038 1_555
Sr1 Sr2 3.691995 1_665
Sr1 Sr2 3.774274 1_565
Sr1 Sr2 3.774274 1_655
Mg0 Sr0 3.581125 1_555
Mg0 Sr2 3.613593 1_655
Mg0 Sr2 3.613903 1_654
Mg0 Sr0 3.728656 1_655
Mg0 Sr1 3.880568 1_545
Mg0 Sr1 3.885074 1_554
Mg0 Sr0 3.931488 1_645
Mg1 Sr0 3.581125 1_556
Mg1 Sr1 3.613593 1_545
Mg1 Sr1 3.613903 1_546
Mg1 Sr0 3.728656 1_546
Mg1 Sr2 3.880568 1_655
Mg1 Sr2 3.885074 1_556
Mg1 Sr0 3.931488 1_646
Mg2 Sr0 3.576320 1_555
Mg2 Sr0 3.576320 1_556
Mg2 Sr1 3.656764 1_545
Mg2 Sr2 3.656764 1_655
Mg2 Sr2 3.777227 1_565
Mg2 Sr1 3.777227 1_455
Mg2 Sr1 3.800561 1_555
Mg2 Sr2 3.800561 1_555
