# generated using pymatgen
data_Ce6Mg23C
_symmetry_space_group_name_H-M   'P 1'
_cell_length_a   10.18590997
_cell_length_b   10.18598226
_cell_length_c   10.18592018
_cell_angle_alpha   60.00020162
_cell_angle_beta   59.99996689
_cell_angle_gamma   60.00019689
_symmetry_Int_Tables_number   1
_chemical_formula_structural   Ce6Mg23C
_chemical_formula_sum   'Ce6 Mg23 C1'
_cell_volume   747.29008241
_cell_formula_units_Z   1
loop_
 _symmetry_equiv_pos_site_id
 _symmetry_equiv_pos_as_xyz
  1  'x, y, z'
loop_
 _atom_site_type_symbol
 _atom_site_label
 _atom_site_symmetry_multiplicity
 _atom_site_fract_x
 _atom_site_fract_y
 _atom_site_fract_z
 _atom_site_occupancy
  Ce  Ce0  1  0.81772085  0.81770894  0.18228510  1
  Ce  Ce1  1  0.18228546  0.81770814  0.18228931  1
  Ce  Ce2  1  0.81771454  0.18229186  0.18228291  1
  Ce  Ce3  1  0.18227915  0.18229106  0.81771490  1
  Ce  Ce4  1  0.81771454  0.18229186  0.81771069  1
  Ce  Ce5  1  0.18228546  0.81770814  0.81771709  1
  Mg  Mg0  1  0.82776944  0.82777716  0.51668284  1
  Mg  Mg1  1  0.82777889  0.51667261  0.82777425  1
  Mg  Mg2  1  0.51668331  0.82777955  0.82776857  1
  Mg  Mg3  1  0.82776944  0.82777716  0.82777056  1
  Mg  Mg4  1  0.17223056  0.17222284  0.48331716  1
  Mg  Mg5  1  0.17222111  0.48332739  0.17222575  1
  Mg  Mg6  1  0.48331669  0.17222045  0.17223143  1
  Mg  Mg7  1  0.17223056  0.17222284  0.17222944  1
  Mg  Mg8  1  0.61997638  0.61997932  0.14007327  1
  Mg  Mg9  1  0.61997289  0.14007632  0.61997590  1
  Mg  Mg10  1  0.14007275  0.61997578  0.61997623  1
  Mg  Mg11  1  0.61997638  0.61997932  0.61997202  1
  Mg  Mg12  1  0.38002362  0.38002068  0.85992673  1
  Mg  Mg13  1  0.38002711  0.85992368  0.38002410  1
  Mg  Mg14  1  0.85992725  0.38002422  0.38002377  1
  Mg  Mg15  1  0.38002362  0.38002068  0.38002798  1
  Mg  Mg16  1  -0.00000000  -0.00000000  0.50000000  1
  Mg  Mg17  1  0.50000000  -0.00000000  0.50000000  1
  Mg  Mg18  1  -0.00000000  0.50000000  0.50000000  1
  Mg  Mg19  1  0.50000000  0.50000000  0.00000000  1
  Mg  Mg20  1  -0.00000000  0.50000000  0.00000000  1
  Mg  Mg21  1  0.50000000  -0.00000000  0.00000000  1
  Mg  Mg22  1  0.50000000  0.50000000  0.50000000  1
  C  C0  1  -0.00000000  -0.00000000  0.00000000  1
loop_
_geom_bond_atom_site_label_1
_geom_bond_atom_site_label_2
_geom_bond_distance
_geom_bond_site_symmetry_2
Ce0 Mg5 3.511457 1_655
Ce0 Mg3 3.511593 1_554
Ce0 Mg0 3.511593 1_555
Ce0 Mg6 3.511628 1_565
Ce0 Mg20 3.731007 1_655
Ce0 Mg18 3.731007 1_655
Ce0 Mg21 3.731077 1_565
Ce0 Mg17 3.731077 1_565
Ce0 Mg8 3.753283 1_555
Ce0 Mg11 3.753290 1_555
Ce0 Mg14 3.753311 1_555
Ce0 Mg13 3.753336 1_555
Ce1 Mg5 3.511500 1_555
Ce1 Mg0 3.511577 1_455
Ce1 Mg2 3.511624 1_554
Ce1 Mg7 3.511627 1_565
Ce1 Mg18 3.730994 1_555
Ce1 Mg19 3.731021 1_555
Ce1 Mg16 3.731046 1_565
Ce1 Mg21 3.731070 1_565
Ce1 Mg10 3.753291 1_555
Ce1 Mg8 3.753315 1_555
Ce1 Mg13 3.753322 1_555
Ce1 Mg15 3.753326 1_555
Ce2 Mg1 3.511500 1_554
Ce2 Mg7 3.511577 1_655
Ce2 Mg6 3.511624 1_555
Ce2 Mg0 3.511627 1_545
Ce2 Mg20 3.730994 1_655
Ce2 Mg19 3.731021 1_555
Ce2 Mg16 3.731046 1_655
Ce2 Mg17 3.731070 1_555
Ce2 Mg14 3.753283 1_555
Ce2 Mg15 3.753313 1_555
Ce2 Mg8 3.753328 1_555
Ce2 Mg9 3.753331 1_555
Ce3 Mg1 3.511457 1_455
Ce3 Mg7 3.511593 1_556
Ce3 Mg4 3.511593 1_555
Ce3 Mg2 3.511628 1_545
Ce3 Mg20 3.731007 1_556
Ce3 Mg18 3.731007 1_555
Ce3 Mg21 3.731077 1_556
Ce3 Mg17 3.731077 1_555
Ce3 Mg12 3.753283 1_555
Ce3 Mg15 3.753290 1_555
Ce3 Mg10 3.753311 1_555
Ce3 Mg9 3.753336 1_555
Ce4 Mg1 3.511500 1_555
Ce4 Mg4 3.511577 1_655
Ce4 Mg6 3.511624 1_556
Ce4 Mg3 3.511627 1_545
Ce4 Mg18 3.730994 1_655
Ce4 Mg19 3.731021 1_556
Ce4 Mg16 3.731046 1_655
Ce4 Mg21 3.731070 1_556
Ce4 Mg14 3.753291 1_555
Ce4 Mg12 3.753315 1_555
Ce4 Mg9 3.753322 1_555
Ce4 Mg11 3.753326 1_555
Ce5 Mg5 3.511500 1_556
Ce5 Mg3 3.511577 1_455
Ce5 Mg2 3.511624 1_555
Ce5 Mg4 3.511627 1_565
Ce5 Mg20 3.730994 1_556
Ce5 Mg19 3.731021 1_556
Ce5 Mg16 3.731046 1_565
Ce5 Mg17 3.731070 1_565
Ce5 Mg10 3.753283 1_555
Ce5 Mg11 3.753313 1_555
Ce5 Mg12 3.753328 1_555
Ce5 Mg13 3.753331 1_555
Mg0 Mg17 2.943671 1_565
Mg0 Mg16 2.943682 1_665
Mg0 Mg18 2.943758 1_655
Mg0 Mg2 3.168693 1_555
Mg0 Mg3 3.168715 1_555
Mg0 Mg1 3.168839 1_555
Mg0 Mg11 3.176960 1_555
Mg0 Mg9 3.176970 1_565
Mg0 Mg10 3.176995 1_655
Mg1 Mg20 2.943675 1_656
Mg1 Mg18 2.943675 1_655
Mg1 Mg19 2.943713 1_556
Mg1 Mg3 3.168839 1_555
Mg1 Mg2 3.168870 1_555
Mg1 Mg10 3.176956 1_655
Mg1 Mg11 3.177012 1_555
Mg1 Mg8 3.177021 1_556
Mg2 Mg21 2.943668 1_566
Mg2 Mg3 3.168693 1_555
Mg2 Mg9 3.176932 1_565
Mg2 Mg8 3.177007 1_556
Mg3 Mg8 3.176963 1_556
Mg3 Mg9 3.176965 1_565
Mg4 Mg6 3.168693 1_555
Mg4 Mg7 3.168715 1_555
Mg4 Mg5 3.168839 1_555
Mg5 Mg7 3.168839 1_555
Mg5 Mg6 3.168870 1_555
Mg6 Mg7 3.168693 1_555
Mg10 Mg22 2.993431 1_555
Mg10 Mg20 3.162781 1_556
Mg10 Mg18 3.162789 1_555
Mg10 Mg16 3.162812 1_565
Mg10 Mg3 3.176990 1_455
Mg10 Mg12 3.456515 1_555
Mg10 Mg13 3.456520 1_555
Mg10 Mg15 3.456529 1_555
Mg11 Mg22 2.993438 1_555
Mg11 Mg18 3.162776 1_655
Mg11 Mg17 3.162783 1_565
Mg11 Mg19 3.162816 1_556
Mg11 Mg2 3.176999 1_555
Mg11 Mg13 3.456485 1_555
Mg11 Mg14 3.456529 1_555
Mg11 Mg12 3.456586 1_555
Mg12 Mg22 2.993430 1_555
Mg12 Mg20 3.162777 1_556
Mg12 Mg21 3.162783 1_556
Mg12 Mg19 3.162824 1_556
Mg12 Mg7 3.176963 1_556
Mg12 Mg6 3.177007 1_556
Mg12 Mg5 3.177021 1_556
Mg12 Mg9 3.456471 1_555
Mg13 Mg22 2.993430 1_555
Mg13 Mg21 3.162786 1_565
Mg13 Mg17 3.162794 1_565
Mg13 Mg16 3.162807 1_565
Mg13 Mg6 3.176932 1_565
Mg13 Mg7 3.176965 1_565
Mg13 Mg4 3.176970 1_565
Mg13 Mg8 3.456471 1_555
Mg14 Mg22 2.993431 1_555
Mg14 Mg20 3.162781 1_655
Mg14 Mg18 3.162789 1_655
Mg14 Mg16 3.162812 1_655
Mg14 Mg5 3.176956 1_655
Mg14 Mg7 3.176990 1_655
Mg14 Mg4 3.176995 1_655
Mg14 Mg8 3.456515 1_555
Mg14 Mg9 3.456520 1_555
Mg15 Mg22 2.993438 1_555
Mg15 Mg18 3.162776 1_555
Mg15 Mg17 3.162783 1_555
Mg15 Mg19 3.162816 1_555
Mg15 Mg4 3.176960 1_555
Mg15 Mg6 3.176999 1_555
Mg15 Mg5 3.177012 1_555
Mg15 Mg9 3.456485 1_555
Mg15 Mg8 3.456586 1_555
Mg16 Mg4 2.943682 1_555
Mg16 Mg7 2.943682 1_555
Mg16 Mg3 2.943682 1_445
Mg16 Mg9 3.162807 1_455
Mg17 Mg2 2.943668 1_545
Mg17 Mg6 2.943668 1_555
Mg17 Mg4 2.943671 1_555
Mg17 Mg9 3.162794 1_555
Mg18 Mg5 2.943675 1_555
Mg18 Mg4 2.943758 1_555
Mg19 Mg5 2.943713 1_555
Mg19 Mg6 2.943781 1_555
Mg19 Mg2 2.943781 1_554
Mg19 Mg8 3.162824 1_555
Mg20 Mg5 2.943675 1_555
Mg20 Mg3 2.943758 1_454
Mg20 Mg7 2.943758 1_555
Mg20 Mg8 3.162777 1_455
Mg21 Mg6 2.943668 1_555
Mg21 Mg3 2.943671 1_544
Mg21 Mg7 2.943671 1_555
Mg21 Mg8 3.162783 1_545
Mg21 Mg9 3.162786 1_554
Mg22 Mg9 2.993430 1_555
Mg22 Mg8 2.993430 1_555
C0 Ce0 2.625835 1_445
C0 Ce3 2.625835 1_554
C0 Ce1 2.625869 1_545
C0 Ce4 2.625869 1_454
C0 Ce5 2.625869 1_544
C0 Ce2 2.625869 1_455
