# generated using pymatgen
data_Nb2Zn3O8
_symmetry_space_group_name_H-M   'P 1'
_cell_length_a   10.13770846
_cell_length_b   10.13770846
_cell_length_c   5.27124514
_cell_angle_alpha   89.86452575
_cell_angle_beta   89.86452575
_cell_angle_gamma   34.30934913
_symmetry_Int_Tables_number   1
_chemical_formula_structural   Nb2Zn3O8
_chemical_formula_sum   'Nb4 Zn6 O16'
_cell_volume   305.35802752
_cell_formula_units_Z   2
loop_
 _symmetry_equiv_pos_site_id
 _symmetry_equiv_pos_as_xyz
  1  'x, y, z'
loop_
 _atom_site_type_symbol
 _atom_site_label
 _atom_site_symmetry_multiplicity
 _atom_site_fract_x
 _atom_site_fract_y
 _atom_site_fract_z
 _atom_site_occupancy
  Nb  Nb0  1  0.72195600  0.04889200  0.26309500  1
  Nb  Nb1  1  0.95110800  0.27804400  0.23690500  1
  Nb  Nb2  1  0.27804400  0.95110800  0.73690500  1
  Nb  Nb3  1  0.04889200  0.72195600  0.76309500  1
  Zn  Zn0  1  0.34663000  0.65337000  0.25000000  1
  Zn  Zn1  1  0.65337000  0.34663000  0.75000000  1
  Zn  Zn2  1  0.56632300  0.87517200  0.23840500  1
  Zn  Zn3  1  0.12482800  0.43367700  0.26159500  1
  Zn  Zn4  1  0.87517200  0.56632300  0.73840500  1
  Zn  Zn5  1  0.43367700  0.12482800  0.76159500  1
  O  O0  1  0.31673700  0.56709300  0.91427000  1
  O  O1  1  0.43290700  0.68326300  0.58573000  1
  O  O2  1  0.68326300  0.43290700  0.08573000  1
  O  O3  1  0.56709300  0.31673700  0.41427000  1
  O  O4  1  0.95455100  0.18479100  0.57546600  1
  O  O5  1  0.81520900  0.04544900  0.92453400  1
  O  O6  1  0.04544900  0.81520900  0.42453400  1
  O  O7  1  0.18479100  0.95455100  0.07546600  1
  O  O8  1  0.16237300  0.45185700  0.63151800  1
  O  O9  1  0.54814300  0.83762700  0.86848200  1
  O  O10  1  0.28274000  0.07709000  0.44277400  1
  O  O11  1  0.92291000  0.71726000  0.05722600  1
  O  O12  1  0.71726000  0.92291000  0.55722600  1
  O  O13  1  0.07709000  0.28274000  0.94277400  1
  O  O14  1  0.45185700  0.16237300  0.13151800  1
  O  O15  1  0.83762700  0.54814300  0.36848200  1
loop_
_geom_bond_atom_site_label_1
_geom_bond_atom_site_label_2
_geom_bond_distance
_geom_bond_site_symmetry_2
Nb0 O3 1.853289 1_555
Nb0 O5 2.004416 1_554
Nb0 O14 2.025684 1_555
Nb0 O12 2.031751 1_545
Nb0 O6 2.064060 1_645
Nb0 O11 2.307131 1_545
Nb1 O2 1.853289 1_555
Nb1 O4 2.004416 1_555
Nb1 O15 2.025684 1_555
Nb1 O13 2.031751 1_654
Nb1 O7 2.064060 1_645
Nb1 O10 2.307131 1_655
Nb2 O1 1.853289 1_555
Nb2 O7 2.004416 1_556
Nb2 O9 2.025684 1_555
Nb2 O10 2.031751 1_565
Nb2 O4 2.064060 1_465
Nb2 O13 2.307131 1_565
Nb3 O0 1.853289 1_555
Nb3 O6 2.004416 1_555
Nb3 O8 2.025684 1_555
Nb3 O11 2.031751 1_456
Nb3 O5 2.064060 1_465
Nb3 O12 2.307131 1_455
O0 Zn0 2.106296 1_556
O0 Zn1 2.187728 1_555
O1 Zn0 2.106296 1_555
O1 Zn1 2.187728 1_555
O2 Zn1 2.106296 1_554
O2 Zn0 2.187728 1_555
O3 Zn1 2.106296 1_555
O3 Zn0 2.187728 1_555
O4 Zn1 2.139852 1_555
O5 Zn1 2.139852 1_555
O6 Zn0 2.139852 1_555
O7 Zn0 2.139852 1_555
O8 Zn5 1.990116 1_555
O8 Zn3 2.025404 1_555
O8 Zn4 2.134242 1_455
O9 Zn4 1.990116 1_555
O9 Zn2 2.025404 1_556
O9 Zn5 2.134242 1_565
O10 Zn2 1.972201 1_545
O11 Zn3 1.972201 1_655
O12 Zn5 1.972201 1_565
O13 Zn4 1.972201 1_455
O14 Zn3 1.990116 1_555
O14 Zn5 2.025404 1_554
O14 Zn2 2.134242 1_545
O15 Zn2 1.990116 1_555
O15 Zn4 2.025404 1_555
O15 Zn3 2.134242 1_655
