# generated using pymatgen
data_Tb3(Al3Os)4
_symmetry_space_group_name_H-M   'P 1'
_cell_length_a   8.78755757
_cell_length_b   8.78807925
_cell_length_c   9.52706649
_cell_angle_alpha   90.00000000
_cell_angle_beta   90.00000000
_cell_angle_gamma   120.00158769
_symmetry_Int_Tables_number   1
_chemical_formula_structural   Tb3(Al3Os)4
_chemical_formula_sum   'Tb6 Al24 Os8'
_cell_volume   637.15490075
_cell_formula_units_Z   2
loop_
 _symmetry_equiv_pos_site_id
 _symmetry_equiv_pos_as_xyz
  1  'x, y, z'
loop_
 _atom_site_type_symbol
 _atom_site_label
 _atom_site_symmetry_multiplicity
 _atom_site_fract_x
 _atom_site_fract_y
 _atom_site_fract_z
 _atom_site_occupancy
  Tb  Tb0  1  0.19270567  0.38542942  0.25000000  1
  Tb  Tb1  1  0.80729433  0.61457058  0.75000000  1
  Tb  Tb2  1  0.61460138  0.80730411  0.25000000  1
  Tb  Tb3  1  0.38539862  0.19269589  0.75000000  1
  Tb  Tb4  1  0.19270552  0.80728754  0.25000000  1
  Tb  Tb5  1  0.80729448  0.19271246  0.75000000  1
  Al  Al0  1  0.33329576  0.66664130  0.01059952  1
  Al  Al1  1  0.66670424  0.33335870  0.98940048  1
  Al  Al2  1  0.66670424  0.33335870  0.51059952  1
  Al  Al3  1  0.33329576  0.66664130  0.48940048  1
  Al  Al4  1  0.16319475  0.32640472  0.57526230  1
  Al  Al5  1  0.83680525  0.67359528  0.42473770  1
  Al  Al6  1  0.67362095  0.83680685  0.57526270  1
  Al  Al7  1  0.83680525  0.67359528  0.07526230  1
  Al  Al8  1  0.32637905  0.16319315  0.42473730  1
  Al  Al9  1  0.16319475  0.32640472  0.92473770  1
  Al  Al10  1  0.16319502  0.83679541  0.57526329  1
  Al  Al11  1  0.32637905  0.16319315  0.07526270  1
  Al  Al12  1  0.83680498  0.16320459  0.42473671  1
  Al  Al13  1  0.67362095  0.83680685  0.92473730  1
  Al  Al14  1  0.83680498  0.16320459  0.07526329  1
  Al  Al15  1  0.16319502  0.83679541  0.92473671  1
  Al  Al16  1  0.56146600  0.12293297  0.25000000  1
  Al  Al17  1  0.43853400  0.87706703  0.75000000  1
  Al  Al18  1  0.87708683  0.43854751  0.25000000  1
  Al  Al19  1  0.12291317  0.56145249  0.75000000  1
  Al  Al20  1  0.56146518  0.43854463  0.25000000  1
  Al  Al21  1  0.43853482  0.56145537  0.75000000  1
  Al  Al22  1  0.00000550  0.00000793  0.25000000  1
  Al  Al23  1  -0.00000550  -0.00000793  0.75000000  1
  Os  Os0  1  0.50000000  -0.00000000  0.00000000  1
  Os  Os1  1  -0.00000000  0.50000000  0.00000000  1
  Os  Os2  1  0.50000000  -0.00000000  0.50000000  1
  Os  Os3  1  0.50000000  0.50000000  0.00000000  1
  Os  Os4  1  -0.00000000  0.50000000  0.50000000  1
  Os  Os5  1  0.50000000  0.50000000  0.50000000  1
  Os  Os6  1  -0.00000000  -0.00000000  0.00000000  1
  Os  Os7  1  -0.00000000  -0.00000000  0.50000000  1
loop_
_geom_bond_atom_site_label_1
_geom_bond_atom_site_label_2
_geom_bond_distance
_geom_bond_site_symmetry_2
Al0 Os1 2.538432 1_555
Al0 Os3 2.538947 1_555
Al0 Os0 2.539061 1_565
Al0 Tb0 3.127678 1_555
Al0 Tb4 3.127798 1_555
Al0 Tb2 3.128079 1_555
Al1 Os1 2.538432 1_656
Al1 Os3 2.538947 1_556
Al1 Os0 2.539061 1_556
Al1 Tb1 3.127678 1_555
Al1 Tb5 3.127798 1_555
Al1 Tb3 3.128079 1_555
Al2 Os4 2.538432 1_655
Al2 Os5 2.538947 1_555
Al2 Os2 2.539061 1_555
Al2 Tb1 3.127678 1_555
Al2 Tb5 3.127798 1_555
Al2 Tb3 3.128079 1_555
Al3 Os4 2.538432 1_555
Al3 Os5 2.538947 1_555
Al3 Os2 2.539061 1_565
Al3 Tb0 3.127678 1_555
Al3 Tb4 3.127798 1_555
Al3 Tb2 3.128079 1_555
Al4 Os7 2.585542 1_555
Al4 Os5 2.661926 1_555
Al4 Os4 2.661951 1_555
Al4 Tb0 3.131186 1_555
Al4 Tb5 3.202857 1_455
Al4 Tb3 3.203026 1_555
Al5 Os7 2.585542 1_665
Al5 Os5 2.661926 1_555
Al5 Os4 2.661951 1_655
Al5 Tb1 3.131186 1_555
Al5 Tb4 3.202857 1_655
Al5 Tb2 3.203026 1_555
Al6 Os7 2.585213 1_665
Al6 Os5 2.662086 1_555
Al6 Os2 2.662125 1_565
Al6 Tb2 3.131180 1_555
Al6 Tb5 3.203068 1_565
Al6 Tb1 3.203086 1_555
Al7 Os6 2.585542 1_665
Al7 Os3 2.661926 1_555
Al7 Os1 2.661951 1_655
Al7 Tb1 3.131186 1_554
Al7 Tb4 3.202857 1_655
Al7 Tb2 3.203026 1_555
Al8 Os7 2.585213 1_555
Al8 Os5 2.662086 1_555
Al8 Os2 2.662125 1_555
Al8 Tb3 3.131180 1_555
Al8 Tb4 3.203068 1_545
Al8 Tb0 3.203086 1_555
Al9 Os6 2.585542 1_556
Al9 Os3 2.661926 1_556
Al9 Os1 2.661951 1_556
Al9 Tb0 3.131186 1_556
Al9 Tb5 3.202857 1_455
Al9 Tb3 3.203026 1_555
Al10 Os7 2.585493 1_565
Al10 Os2 2.661927 1_565
Al10 Os4 2.662007 1_555
Al10 Tb4 3.131188 1_555
Al10 Tb1 3.202877 1_455
Al10 Tb3 3.202964 1_565
Al11 Os6 2.585213 1_555
Al11 Os3 2.662086 1_555
Al11 Os0 2.662125 1_555
Al11 Tb3 3.131180 1_554
Al11 Tb4 3.203068 1_545
Al11 Tb0 3.203086 1_555
Al12 Os7 2.585493 1_655
Al12 Os2 2.661927 1_555
Al12 Os4 2.662007 1_655
Al12 Tb5 3.131188 1_555
Al12 Tb0 3.202877 1_655
Al12 Tb2 3.202964 1_545
Al13 Os6 2.585213 1_666
Al13 Os3 2.662086 1_556
Al13 Os0 2.662125 1_566
Al13 Tb2 3.131180 1_556
Al13 Tb5 3.203068 1_565
Al13 Tb1 3.203086 1_555
Al14 Os6 2.585493 1_655
Al14 Os0 2.661927 1_555
Al14 Os1 2.662007 1_655
Al14 Tb5 3.131188 1_554
Al14 Tb0 3.202877 1_655
Al14 Tb2 3.202964 1_545
Al15 Os6 2.585493 1_566
Al15 Os0 2.661927 1_566
Al15 Os1 2.662007 1_556
Al15 Tb4 3.131188 1_556
Al15 Tb1 3.202877 1_455
Al15 Tb3 3.202964 1_565
Al16 Os0 2.558934 1_555
Al16 Os2 2.558934 1_555
Al16 Tb4 3.034166 1_545
Al16 Tb2 3.034312 1_545
Al17 Os0 2.558934 1_566
Al17 Os2 2.558934 1_565
Al17 Tb5 3.034166 1_565
Al17 Tb3 3.034312 1_565
Al18 Os4 2.558859 1_655
Al18 Os1 2.558859 1_655
Al18 Tb0 3.033986 1_655
Al18 Tb4 3.034021 1_655
Al19 Os4 2.558859 1_555
Al19 Os1 2.558859 1_556
Al19 Tb1 3.033986 1_455
Al19 Tb5 3.034021 1_455
Al20 Os3 2.558897 1_555
Al20 Os5 2.558897 1_555
Al20 Tb0 3.034143 1_555
Al20 Tb2 3.034273 1_555
Al21 Os3 2.558897 1_556
Al21 Os5 2.558897 1_555
Al21 Tb1 3.034143 1_555
Al21 Tb3 3.034273 1_555
Al22 Os7 2.381767 1_555
Al22 Os6 2.381767 1_555
Al22 Tb2 2.932974 1_445
Al22 Tb4 2.933255 1_545
Al22 Tb0 2.933280 1_555
Al23 Os7 2.381767 1_555
Al23 Os6 2.381767 1_556
Al23 Tb3 2.932974 1_555
Al23 Tb5 2.933255 1_455
Al23 Tb1 2.933280 1_445
Os0 Tb4 3.355518 1_545
Os0 Tb5 3.355518 1_554
Os0 Tb2 3.355617 1_545
Os0 Tb3 3.355617 1_554
Os1 Tb0 3.355491 1_555
Os1 Tb1 3.355491 1_454
Os1 Tb4 3.355556 1_555
Os1 Tb5 3.355556 1_454
Os2 Tb4 3.355518 1_545
Os2 Tb5 3.355518 1_555
Os2 Tb2 3.355617 1_545
Os2 Tb3 3.355617 1_555
Os3 Tb1 3.355524 1_554
Os3 Tb0 3.355524 1_555
Os3 Tb3 3.355664 1_554
Os3 Tb2 3.355664 1_555
Os4 Tb0 3.355491 1_555
Os4 Tb1 3.355491 1_455
Os4 Tb4 3.355556 1_555
Os4 Tb5 3.355556 1_455
Os5 Tb1 3.355524 1_555
Os5 Tb0 3.355524 1_555
Os5 Tb3 3.355664 1_555
Os5 Tb2 3.355664 1_555
