# generated using pymatgen
data_Rb3LiTbV2O8
_symmetry_space_group_name_H-M   'P 1'
_cell_length_a   5.98489242
_cell_length_b   5.98489242
_cell_length_c   8.80243700
_cell_angle_alpha   90.00000000
_cell_angle_beta   90.00000000
_cell_angle_gamma   120.00000468
_symmetry_Int_Tables_number   1
_chemical_formula_structural   Rb3LiTbV2O8
_chemical_formula_sum   'Rb3 Li1 Tb1 V2 O8'
_cell_volume   273.05254811
_cell_formula_units_Z   1
loop_
 _symmetry_equiv_pos_site_id
 _symmetry_equiv_pos_as_xyz
  1  'x, y, z'
loop_
 _atom_site_type_symbol
 _atom_site_label
 _atom_site_symmetry_multiplicity
 _atom_site_fract_x
 _atom_site_fract_y
 _atom_site_fract_z
 _atom_site_occupancy
  Rb  Rb0  1  0.66666700  0.33333300  0.27271500  1
  Rb  Rb1  1  0.33333300  0.66666700  0.73137500  1
  Rb  Rb2  1  0.00000000  0.00000000  0.93155000  1
  Li  Li0  1  0.00000000  0.00000000  0.23308000  1
  Tb  Tb0  1  0.00000000  0.00000000  0.51496900  1
  V  V0  1  0.66666700  0.33333300  0.74273300  1
  V  V1  1  0.33333300  0.66666700  0.26487000  1
  O  O0  1  0.66666700  0.33333300  0.93459800  1
  O  O1  1  0.33333300  0.66666700  0.06738600  1
  O  O2  1  0.82777200  0.65554300  0.67765200  1
  O  O3  1  0.16354500  0.32708900  0.33847900  1
  O  O4  1  0.82777200  0.17222800  0.67765200  1
  O  O5  1  0.16354500  0.83645500  0.33847900  1
  O  O6  1  0.34445700  0.17222800  0.67765200  1
  O  O7  1  0.67291100  0.83645500  0.33847900  1
loop_
_geom_bond_atom_site_label_1
_geom_bond_atom_site_label_2
_geom_bond_distance
_geom_bond_site_symmetry_2
Li0 O3 1.932584 1_555
Li0 O7 1.932584 1_445
Li0 O5 1.932588 1_545
Li0 Rb2 2.654199 1_554
O0 V0 1.688880 1_555
O0 Rb0 2.976254 1_556
O0 Rb2 3.455480 1_655
O0 Rb2 3.455485 1_665
O0 Rb2 3.455485 1_555
O1 V1 1.738340 1_555
O1 Rb1 2.957716 1_554
O2 V0 1.765560 1_555
O2 Tb0 2.288689 1_665
O2 Rb2 2.860477 1_665
O2 Rb1 3.030124 1_655
O2 Rb1 3.030136 1_555
O3 V1 1.875532 1_555
O3 Tb0 2.299482 1_555
O3 Rb0 3.048096 1_555
O3 Rb0 3.048096 1_455
O4 V0 1.765561 1_555
O4 Tb0 2.288685 1_655
O4 Rb2 2.860474 1_655
O4 Rb1 3.030129 1_545
O4 Rb1 3.030129 1_655
O5 V1 1.875523 1_555
O5 Tb0 2.299486 1_565
O5 Rb0 3.048096 1_455
O5 Rb0 3.048096 1_565
O6 V0 1.765560 1_555
O6 Tb0 2.288689 1_555
O6 Rb2 2.860477 1_555
O6 Rb1 3.030124 1_545
O6 Rb1 3.030136 1_555
O7 V1 1.875532 1_555
O7 Tb0 2.299482 1_665
O7 Rb0 3.048096 1_555
O7 Rb0 3.048096 1_565
