# generated using pymatgen
data_Cs3Hg20
_symmetry_space_group_name_H-M   'P 1'
_cell_length_a   11.37172770
_cell_length_b   11.37172770
_cell_length_c   11.37172770
_cell_angle_alpha   90.00000000
_cell_angle_beta   90.00000000
_cell_angle_gamma   90.00000000
_symmetry_Int_Tables_number   1
_chemical_formula_structural   Cs3Hg20
_chemical_formula_sum   'Cs6 Hg40'
_cell_volume   1470.54850992
_cell_formula_units_Z   2
loop_
 _symmetry_equiv_pos_site_id
 _symmetry_equiv_pos_as_xyz
  1  'x, y, z'
loop_
 _atom_site_type_symbol
 _atom_site_label
 _atom_site_symmetry_multiplicity
 _atom_site_fract_x
 _atom_site_fract_y
 _atom_site_fract_z
 _atom_site_occupancy
  Cs  Cs0  1  -0.00000000  0.25000000  0.50000000  1
  Cs  Cs1  1  -0.00000000  0.75000000  0.50000000  1
  Cs  Cs2  1  0.50000000  -0.00000000  0.75000000  1
  Cs  Cs3  1  0.50000000  -0.00000000  0.25000000  1
  Cs  Cs4  1  0.75000000  0.50000000  0.00000000  1
  Cs  Cs5  1  0.25000000  0.50000000  0.00000000  1
  Hg  Hg0  1  0.50000000  0.63470651  0.75597573  1
  Hg  Hg1  1  0.36529349  0.75597573  0.50000000  1
  Hg  Hg2  1  0.63470651  0.24402427  0.50000000  1
  Hg  Hg3  1  -0.00000000  0.25597573  0.13470651  1
  Hg  Hg4  1  0.13470651  -0.00000000  0.25597573  1
  Hg  Hg5  1  0.86529349  -0.00000000  0.25597573  1
  Hg  Hg6  1  -0.00000000  0.74402427  0.86529349  1
  Hg  Hg7  1  0.86529349  -0.00000000  0.74402427  1
  Hg  Hg8  1  -0.00000000  0.74402427  0.13470651  1
  Hg  Hg9  1  -0.00000000  0.25597573  0.86529349  1
  Hg  Hg10  1  0.13470651  -0.00000000  0.74402427  1
  Hg  Hg11  1  0.25597573  0.86529349  0.00000000  1
  Hg  Hg12  1  0.74402427  0.13470651  0.00000000  1
  Hg  Hg13  1  0.74402427  0.86529349  0.00000000  1
  Hg  Hg14  1  0.63470651  0.75597573  0.50000000  1
  Hg  Hg15  1  0.36529349  0.24402427  0.50000000  1
  Hg  Hg16  1  0.50000000  0.36529349  0.75597573  1
  Hg  Hg17  1  0.50000000  0.36529349  0.24402427  1
  Hg  Hg18  1  0.24402427  0.50000000  0.63470651  1
  Hg  Hg19  1  0.24402427  0.50000000  0.36529349  1
  Hg  Hg20  1  0.25000000  0.25000000  0.25000000  1
  Hg  Hg21  1  0.75000000  0.25000000  0.75000000  1
  Hg  Hg22  1  0.75000000  0.75000000  0.25000000  1
  Hg  Hg23  1  0.25000000  0.75000000  0.75000000  1
  Hg  Hg24  1  0.75000000  0.75000000  0.75000000  1
  Hg  Hg25  1  0.25000000  0.75000000  0.25000000  1
  Hg  Hg26  1  0.25000000  0.25000000  0.75000000  1
  Hg  Hg27  1  0.75000000  0.25000000  0.25000000  1
  Hg  Hg28  1  0.25000000  -0.00000000  0.50000000  1
  Hg  Hg29  1  0.75000000  -0.00000000  0.50000000  1
  Hg  Hg30  1  -0.00000000  0.50000000  0.25000000  1
  Hg  Hg31  1  -0.00000000  0.50000000  0.75000000  1
  Hg  Hg32  1  0.50000000  0.75000000  0.00000000  1
  Hg  Hg33  1  0.50000000  0.25000000  0.00000000  1
  Hg  Hg34  1  0.50000000  0.63470651  0.24402427  1
  Hg  Hg35  1  0.75597573  0.50000000  0.36529349  1
  Hg  Hg36  1  0.75597573  0.50000000  0.63470651  1
  Hg  Hg37  1  0.25597573  0.13470651  0.00000000  1
  Hg  Hg38  1  0.50000000  0.50000000  0.50000000  1
  Hg  Hg39  1  -0.00000000  -0.00000000  0.00000000  1
loop_
_geom_bond_atom_site_label_1
_geom_bond_atom_site_label_2
_geom_bond_distance
_geom_bond_site_symmetry_2
Cs0 Hg27 4.020513 1_455
Cs0 Hg21 4.020513 1_455
Cs0 Hg28 4.020513 1_555
Cs0 Hg31 4.020513 1_555
Cs0 Hg26 4.020513 1_555
Cs0 Hg29 4.020513 1_455
Cs0 Hg20 4.020513 1_555
Cs0 Hg30 4.020513 1_555
Cs0 Hg9 4.154574 1_555
Cs0 Hg2 4.154574 1_455
Cs0 Hg15 4.154574 1_555
Cs0 Hg3 4.154574 1_555
Cs0 Hg36 4.257853 1_455
Cs0 Hg5 4.257853 1_455
Cs0 Hg35 4.257853 1_455
Cs0 Hg4 4.257853 1_555
Cs0 Hg7 4.257853 1_455
Cs0 Hg18 4.257853 1_555
Cs0 Hg10 4.257853 1_555
Cs0 Hg19 4.257853 1_555
Cs1 Hg24 4.020513 1_455
Cs1 Hg22 4.020513 1_455
Cs1 Hg29 4.020513 1_465
Cs1 Hg31 4.020513 1_555
Cs1 Hg25 4.020513 1_555
Cs1 Hg23 4.020513 1_555
Cs1 Hg28 4.020513 1_565
Cs1 Hg30 4.020513 1_555
Cs1 Hg6 4.154574 1_555
Cs1 Hg8 4.154574 1_555
Cs1 Hg14 4.154574 1_455
Cs1 Hg1 4.154574 1_555
Cs1 Hg36 4.257853 1_455
Cs1 Hg5 4.257853 1_465
Cs1 Hg4 4.257853 1_565
Cs1 Hg35 4.257853 1_455
Cs1 Hg18 4.257853 1_555
Cs1 Hg7 4.257853 1_465
Cs1 Hg19 4.257853 1_555
Cs1 Hg10 4.257853 1_565
Cs2 Hg28 4.020513 1_555
Cs2 Hg29 4.020513 1_555
Cs2 Hg24 4.020513 1_545
Cs2 Hg26 4.020513 1_555
Cs2 Hg21 4.020513 1_555
Cs2 Hg33 4.020513 1_556
Cs2 Hg23 4.020513 1_545
Cs2 Hg32 4.020513 1_546
Cs2 Hg10 4.154574 1_555
Cs2 Hg16 4.154574 1_555
Cs2 Hg7 4.154574 1_555
Cs2 Hg0 4.154574 1_545
Cs2 Hg37 4.257853 1_556
Cs2 Hg14 4.257853 1_545
Cs2 Hg1 4.257853 1_545
Cs2 Hg11 4.257853 1_546
Cs2 Hg12 4.257853 1_556
Cs2 Hg13 4.257853 1_546
Cs2 Hg2 4.257853 1_555
Cs2 Hg15 4.257853 1_555
Cs3 Hg22 4.020513 1_545
Cs3 Hg33 4.020513 1_555
Cs3 Hg32 4.020513 1_545
Cs3 Hg28 4.020513 1_555
Cs3 Hg29 4.020513 1_555
Cs3 Hg27 4.020513 1_555
Cs3 Hg25 4.020513 1_545
Cs3 Hg20 4.020513 1_555
Cs3 Hg34 4.154574 1_545
Cs3 Hg4 4.154574 1_555
Cs3 Hg17 4.154574 1_555
Cs3 Hg5 4.154574 1_555
Cs3 Hg37 4.257853 1_555
Cs3 Hg14 4.257853 1_545
Cs3 Hg11 4.257853 1_545
Cs3 Hg1 4.257853 1_545
Cs3 Hg12 4.257853 1_555
Cs3 Hg13 4.257853 1_545
Cs3 Hg2 4.257853 1_555
Cs3 Hg15 4.257853 1_555
Cs4 Hg32 4.020513 1_555
Cs4 Hg33 4.020513 1_555
Cs4 Hg30 4.020513 1_655
Cs4 Hg24 4.020513 1_554
Cs4 Hg27 4.020513 1_555
Cs4 Hg21 4.020513 1_554
Cs4 Hg22 4.020513 1_555
Cs4 Hg31 4.020513 1_654
Cs4 Hg13 4.154574 1_555
Cs4 Hg12 4.154574 1_555
Cs4 Hg36 4.154574 1_554
Cs4 Hg35 4.154574 1_555
Cs4 Hg0 4.257853 1_554
Cs4 Hg3 4.257853 1_655
Cs4 Hg9 4.257853 1_654
Cs4 Hg16 4.257853 1_554
Cs4 Hg34 4.257853 1_555
Cs4 Hg6 4.257853 1_654
Cs4 Hg17 4.257853 1_555
Cs4 Hg8 4.257853 1_655
Cs5 Hg32 4.020513 1_555
Cs5 Hg26 4.020513 1_554
Cs5 Hg33 4.020513 1_555
Cs5 Hg31 4.020513 1_554
Cs5 Hg25 4.020513 1_555
Cs5 Hg23 4.020513 1_554
Cs5 Hg20 4.020513 1_555
Cs5 Hg30 4.020513 1_555
Cs5 Hg11 4.154574 1_555
Cs5 Hg19 4.154574 1_555
Cs5 Hg18 4.154574 1_554
Cs5 Hg37 4.154574 1_555
Cs5 Hg0 4.257853 1_554
Cs5 Hg9 4.257853 1_554
Cs5 Hg3 4.257853 1_555
Cs5 Hg16 4.257853 1_554
Cs5 Hg34 4.257853 1_555
Cs5 Hg8 4.257853 1_555
Cs5 Hg6 4.257853 1_554
Cs5 Hg17 4.257853 1_555
Hg0 Hg16 3.063692 1_555
Hg0 Hg32 3.069112 1_556
Hg0 Hg24 3.131426 1_555
Hg0 Hg23 3.131426 1_555
Hg0 Hg38 3.289348 1_555
Hg1 Hg14 3.063692 1_555
Hg1 Hg28 3.069112 1_565
Hg1 Hg25 3.131426 1_555
Hg1 Hg23 3.131426 1_555
Hg1 Hg38 3.289348 1_555
Hg2 Hg29 3.069112 1_555
Hg2 Hg27 3.131426 1_555
Hg2 Hg21 3.131426 1_555
Hg2 Hg38 3.289348 1_555
Hg3 Hg9 3.063692 1_554
Hg3 Hg30 3.069112 1_555
Hg3 Hg39 3.289348 1_555
Hg4 Hg5 3.063692 1_455
Hg6 Hg8 3.063692 1_556
Hg10 Hg7 3.063692 1_455
Hg10 Hg28 3.069112 1_555
Hg10 Hg23 3.131426 1_545
Hg10 Hg26 3.131426 1_555
Hg10 Hg39 3.289348 1_556
Hg11 Hg37 3.063692 1_565
Hg11 Hg32 3.069112 1_555
Hg11 Hg25 3.131426 1_555
Hg11 Hg23 3.131426 1_554
Hg11 Hg39 3.289348 1_565
Hg12 Hg13 3.063692 1_545
Hg12 Hg33 3.069112 1_555
Hg12 Hg27 3.131426 1_555
Hg12 Hg21 3.131426 1_554
Hg12 Hg39 3.289348 1_655
Hg13 Hg32 3.069112 1_555
Hg13 Hg22 3.131426 1_555
Hg13 Hg24 3.131426 1_554
Hg13 Hg39 3.289348 1_665
Hg14 Hg29 3.069112 1_565
Hg14 Hg22 3.131426 1_555
Hg14 Hg24 3.131426 1_555
Hg14 Hg38 3.289348 1_555
Hg15 Hg2 3.063692 1_555
Hg15 Hg28 3.069112 1_555
Hg15 Hg26 3.131426 1_555
Hg15 Hg20 3.131426 1_555
Hg15 Hg38 3.289348 1_555
Hg16 Hg33 3.069112 1_556
Hg16 Hg26 3.131426 1_555
Hg16 Hg21 3.131426 1_555
Hg16 Hg38 3.289348 1_555
Hg17 Hg34 3.063692 1_555
Hg17 Hg33 3.069112 1_555
Hg17 Hg27 3.131426 1_555
Hg17 Hg20 3.131426 1_555
Hg17 Hg38 3.289348 1_555
Hg18 Hg19 3.063692 1_555
Hg18 Hg31 3.069112 1_555
Hg18 Hg26 3.131426 1_555
Hg18 Hg23 3.131426 1_555
Hg18 Hg38 3.289348 1_555
Hg19 Hg30 3.069112 1_555
Hg19 Hg25 3.131426 1_555
Hg19 Hg20 3.131426 1_555
Hg19 Hg38 3.289348 1_555
Hg20 Hg37 3.131426 1_555
Hg20 Hg3 3.131426 1_555
Hg20 Hg4 3.131426 1_555
Hg21 Hg9 3.131426 1_655
Hg21 Hg7 3.131426 1_555
Hg21 Hg36 3.131426 1_555
Hg22 Hg5 3.131426 1_565
Hg22 Hg34 3.131426 1_555
Hg22 Hg35 3.131426 1_555
Hg22 Hg8 3.131426 1_655
Hg23 Hg6 3.131426 1_555
Hg24 Hg6 3.131426 1_655
Hg24 Hg7 3.131426 1_565
Hg24 Hg36 3.131426 1_555
Hg25 Hg34 3.131426 1_555
Hg25 Hg4 3.131426 1_565
Hg25 Hg8 3.131426 1_555
Hg26 Hg37 3.131426 1_556
Hg26 Hg9 3.131426 1_555
Hg27 Hg35 3.131426 1_555
Hg27 Hg3 3.131426 1_655
Hg27 Hg5 3.131426 1_555
Hg28 Hg4 3.069112 1_555
Hg29 Hg5 3.069112 1_555
Hg29 Hg7 3.069112 1_555
Hg30 Hg35 3.069112 1_455
Hg30 Hg8 3.069112 1_555
Hg31 Hg36 3.069112 1_455
Hg31 Hg9 3.069112 1_555
Hg31 Hg6 3.069112 1_555
Hg32 Hg34 3.069112 1_555
Hg33 Hg37 3.069112 1_555
Hg34 Hg38 3.289348 1_555
Hg35 Hg36 3.063692 1_555
Hg35 Hg38 3.289348 1_555
Hg36 Hg38 3.289348 1_555
Hg37 Hg39 3.289348 1_555
Hg39 Hg7 3.289348 1_454
Hg39 Hg8 3.289348 1_545
Hg39 Hg6 3.289348 1_544
Hg39 Hg4 3.289348 1_555
Hg39 Hg5 3.289348 1_455
Hg39 Hg9 3.289348 1_554
