# generated using pymatgen
data_NbCr3(AgS4)2
_symmetry_space_group_name_H-M   'P 1'
_cell_length_a   11.64701769
_cell_length_b   7.25417600
_cell_length_c   12.26616525
_cell_angle_alpha   90.00000000
_cell_angle_beta   89.64305116
_cell_angle_gamma   90.00000000
_symmetry_Int_Tables_number   1
_chemical_formula_structural   NbCr3(AgS4)2
_chemical_formula_sum   'Nb4 Cr12 Ag8 S32'
_cell_volume   1036.34225577
_cell_formula_units_Z   4
loop_
 _symmetry_equiv_pos_site_id
 _symmetry_equiv_pos_as_xyz
  1  'x, y, z'
loop_
 _atom_site_type_symbol
 _atom_site_label
 _atom_site_symmetry_multiplicity
 _atom_site_fract_x
 _atom_site_fract_y
 _atom_site_fract_z
 _atom_site_occupancy
  Nb  Nb0  1  0.89352500  0.09655000  0.18600600  1
  Nb  Nb1  1  0.39352500  0.90345000  0.18600600  1
  Nb  Nb2  1  0.86079300  0.61005000  0.82078200  1
  Nb  Nb3  1  0.36079300  0.38995000  0.82078200  1
  Cr  Cr0  1  0.11040600  0.88556700  0.69152100  1
  Cr  Cr1  1  0.61040600  0.11443300  0.69152100  1
  Cr  Cr2  1  0.12794400  0.36580200  0.33038700  1
  Cr  Cr3  1  0.62794400  0.63419800  0.33038700  1
  Cr  Cr4  1  0.16173400  0.62949700  0.94105000  1
  Cr  Cr5  1  0.84259200  0.37890000  0.44615700  1
  Cr  Cr6  1  0.34259200  0.62110000  0.44615700  1
  Cr  Cr7  1  0.66173400  0.37050300  0.94105000  1
  Cr  Cr8  1  0.12685100  0.14778300  0.98709200  1
  Cr  Cr9  1  0.86336900  0.87926900  0.49357400  1
  Cr  Cr10  1  0.36336900  0.12073100  0.49357400  1
  Cr  Cr11  1  0.62685100  0.85221700  0.98709200  1
  Ag  Ag0  1  0.09130300  0.37324200  0.66426600  1
  Ag  Ag1  1  0.90031700  0.61940600  0.17590500  1
  Ag  Ag2  1  0.40031700  0.38059400  0.17590500  1
  Ag  Ag3  1  0.59130300  0.62675800  0.66426600  1
  Ag  Ag4  1  0.11376100  0.88082400  0.33662200  1
  Ag  Ag5  1  0.88590500  0.12314300  0.82780100  1
  Ag  Ag6  1  0.38590500  0.87685700  0.82780100  1
  Ag  Ag7  1  0.61376100  0.11917600  0.33662200  1
  S  S0  1  0.02920000  0.84906600  0.87371000  1
  S  S1  1  0.97546200  0.15375700  0.38050700  1
  S  S2  1  0.47546200  0.84624300  0.38050700  1
  S  S3  1  0.52920000  0.15093400  0.87371000  1
  S  S4  1  0.04262400  0.32989300  0.14876700  1
  S  S5  1  0.95998000  0.67485700  0.64407900  1
  S  S6  1  0.45998000  0.32514300  0.64407900  1
  S  S7  1  0.54262400  0.67010700  0.14876700  1
  S  S8  1  0.01930400  0.41433000  0.89138000  1
  S  S9  1  0.98511200  0.58362100  0.38334500  1
  S  S10  1  0.48511200  0.41637900  0.38334500  1
  S  S11  1  0.51930400  0.58567000  0.89138000  1
  S  S12  1  0.02935700  0.89116100  0.12554400  1
  S  S13  1  0.97377300  0.07911100  0.62966700  1
  S  S14  1  0.47377300  0.92088900  0.62966700  1
  S  S15  1  0.52935700  0.10883900  0.12554400  1
  S  S16  1  0.22908000  0.87338500  0.52864700  1
  S  S17  1  0.77400700  0.12592300  0.02973600  1
  S  S18  1  0.27400700  0.87407700  0.02973600  1
  S  S19  1  0.72908000  0.12661500  0.52864700  1
  S  S20  1  0.22778000  0.37185200  0.50137600  1
  S  S21  1  0.77315400  0.62378400  0.00536100  1
  S  S22  1  0.27315400  0.37621600  0.00536100  1
  S  S23  1  0.72778000  0.62814800  0.50137600  1
  S  S24  1  0.22209900  0.12678200  0.80307700  1
  S  S25  1  0.78439800  0.87794900  0.30767900  1
  S  S26  1  0.28439800  0.12205100  0.30767900  1
  S  S27  1  0.72209900  0.87321800  0.80307700  1
  S  S28  1  0.23873500  0.63217600  0.76249300  1
  S  S29  1  0.75743400  0.38234900  0.27747000  1
  S  S30  1  0.25743400  0.61765100  0.27747000  1
  S  S31  1  0.73873500  0.36782400  0.76249300  1
loop_
_geom_bond_atom_site_label_1
_geom_bond_atom_site_label_2
_geom_bond_distance
_geom_bond_site_symmetry_2
Nb0 S12 2.293062 1_645
Nb0 S17 2.385507 1_555
Nb0 S4 2.465699 1_655
Nb0 S25 2.516729 1_545
Nb0 S1 2.608307 1_555
Nb0 S29 2.836765 1_555
Nb1 S15 2.293062 1_565
Nb1 S18 2.385507 1_555
Nb1 S7 2.465699 1_555
Nb1 S26 2.516729 1_565
Nb1 S2 2.608307 1_555
Nb1 S30 2.836765 1_555
Nb2 S31 2.373272 1_555
Nb2 S21 2.479732 1_556
Nb2 S8 2.488774 1_655
Nb2 S5 2.494453 1_555
Nb2 S27 2.511075 1_555
Nb2 S0 2.700164 1_655
Nb3 S28 2.373272 1_555
Nb3 S22 2.479732 1_556
Nb3 S11 2.488774 1_555
Nb3 S6 2.494453 1_555
Nb3 S24 2.511075 1_555
Nb3 S3 2.700164 1_555
Cr0 S13 2.257068 1_465
Cr0 S5 2.399437 1_455
Cr0 S16 2.423889 1_555
Cr0 S0 2.435669 1_555
Cr0 S28 2.527217 1_555
Cr0 S24 2.578521 1_565
Cr1 S14 2.257068 1_545
Cr1 S6 2.399437 1_555
Cr1 S19 2.423889 1_555
Cr1 S3 2.435669 1_555
Cr1 S31 2.527217 1_555
Cr1 S27 2.578521 1_545
Cr2 S9 2.381736 1_455
Cr2 S20 2.404870 1_555
Cr2 S1 2.425795 1_455
Cr2 S30 2.453869 1_555
Cr2 S4 2.458848 1_555
Cr2 S26 2.553102 1_555
Cr3 S10 2.381736 1_555
Cr3 S23 2.404870 1_555
Cr3 S2 2.425795 1_555
Cr3 S29 2.453869 1_555
Cr3 S7 2.458848 1_555
Cr3 S25 2.553102 1_555
Cr4 S8 2.360502 1_555
Cr4 S28 2.361616 1_555
Cr4 S0 2.370219 1_555
Cr4 S22 2.386405 1_556
Cr4 S18 2.461489 1_556
Cr5 S29 2.300280 1_555
Cr5 S23 2.346235 1_555
Cr5 S9 2.353407 1_555
Cr5 S1 2.386472 1_555
Cr5 S19 2.470702 1_555
Cr6 S30 2.300280 1_555
Cr6 S20 2.346235 1_555
Cr6 S10 2.353407 1_555
Cr6 S2 2.386472 1_555
Cr6 S16 2.470702 1_555
Cr7 S11 2.360502 1_555
Cr7 S31 2.361616 1_555
Cr7 S3 2.370219 1_555
Cr7 S21 2.386405 1_556
Cr7 S17 2.461489 1_556
Cr8 S22 2.388415 1_556
Cr8 S24 2.513452 1_555
Cr8 S4 2.572181 1_556
Cr8 S8 2.589282 1_555
Cr8 S18 2.676675 1_546
Cr8 S12 2.759527 1_546
Cr8 S0 2.818356 1_545
Cr9 S23 2.412400 1_555
Cr9 S19 2.417123 1_565
Cr9 S25 2.464064 1_555
Cr9 S13 2.562912 1_565
Cr9 S5 2.626594 1_555
Cr9 S1 2.751400 1_565
Cr9 S9 2.900772 1_555
Cr10 S20 2.412400 1_555
Cr10 S16 2.417123 1_545
Cr10 S26 2.464064 1_555
Cr10 S14 2.562912 1_545
Cr10 S6 2.626594 1_555
Cr10 S2 2.751400 1_545
Cr10 S10 2.900772 1_555
Cr11 S21 2.388415 1_556
Cr11 S27 2.513452 1_555
Cr11 S7 2.572181 1_556
Cr11 S11 2.589282 1_555
Cr11 S17 2.676675 1_566
Cr11 S15 2.759527 1_566
Cr11 S3 2.818356 1_565
Ag0 S20 2.545456 1_555
Ag0 S13 2.571721 1_455
Ag0 S5 2.681916 1_455
Ag0 S28 2.820333 1_555
Ag0 S24 2.906646 1_555
Ag0 S8 2.919541 1_555
Ag1 S12 2.552467 1_655
Ag1 S21 2.570858 1_555
Ag1 S29 2.693113 1_555
Ag1 S4 2.694778 1_655
Ag1 S9 2.747456 1_555
Ag1 S25 2.815279 1_555
Ag2 S15 2.552467 1_555
Ag2 S22 2.570858 1_555
Ag2 S30 2.693113 1_555
Ag2 S7 2.694778 1_555
Ag2 S10 2.747456 1_555
Ag2 S26 2.815279 1_555
Ag3 S23 2.545456 1_555
Ag3 S14 2.571721 1_555
Ag3 S6 2.681916 1_555
Ag3 S31 2.820333 1_555
Ag3 S27 2.906646 1_555
Ag3 S11 2.919541 1_555
Ag4 S1 2.606447 1_465
Ag4 S30 2.637449 1_555
Ag4 S26 2.670059 1_565
Ag4 S9 2.685343 1_455
Ag4 S16 2.719240 1_555
Ag4 S12 2.776196 1_555
Ag5 S31 2.597581 1_555
Ag5 S13 2.650464 1_555
Ag5 S27 2.650669 1_545
Ag5 S0 2.658420 1_645
Ag5 S8 2.738464 1_655
Ag5 S17 2.791790 1_556
Ag6 S28 2.597581 1_555
Ag6 S14 2.650464 1_555
Ag6 S24 2.650669 1_565
Ag6 S3 2.658420 1_565
Ag6 S11 2.738464 1_555
Ag6 S18 2.791790 1_556
Ag7 S2 2.606447 1_545
Ag7 S29 2.637449 1_555
Ag7 S25 2.670059 1_545
Ag7 S10 2.685343 1_555
Ag7 S19 2.719240 1_555
Ag7 S15 2.776196 1_555
