# generated using pymatgen
data_KAl3Si3(HO6)2
_symmetry_space_group_name_H-M   'P 1'
_cell_length_a   9.08652800
_cell_length_b   5.23354700
_cell_length_c   20.44006743
_cell_angle_alpha   84.35849675
_cell_angle_beta   90.00000000
_cell_angle_gamma   90.00000000
_symmetry_Int_Tables_number   1
_chemical_formula_structural   KAl3Si3(HO6)2
_chemical_formula_sum   'K4 Al12 Si12 H8 O48'
_cell_volume   967.31469519
_cell_formula_units_Z   4
loop_
 _symmetry_equiv_pos_site_id
 _symmetry_equiv_pos_as_xyz
  1  'x, y, z'
loop_
 _atom_site_type_symbol
 _atom_site_label
 _atom_site_symmetry_multiplicity
 _atom_site_fract_x
 _atom_site_fract_y
 _atom_site_fract_z
 _atom_site_occupancy
  K  K0  1  0.59784000  0.00000000  0.25000000  1
  K  K1  1  0.40216000  0.00000000  0.75000000  1
  K  K2  1  0.10297000  0.50000000  0.25000000  1
  K  K3  1  0.89703000  0.50000000  0.75000000  1
  Al  Al0  1  0.08608300  0.25148400  0.00127900  1
  Al  Al1  1  0.26032800  0.03716000  0.13501400  1
  Al  Al2  1  0.08608300  0.74851600  0.49872100  1
  Al  Al3  1  0.26032800  0.96284000  0.36498600  1
  Al  Al4  1  0.91391700  0.74851600  0.99872100  1
  Al  Al5  1  0.73967200  0.96284000  0.86498600  1
  Al  Al6  1  0.91391700  0.25148400  0.50127900  1
  Al  Al7  1  0.73967200  0.03716000  0.63501400  1
  Al  Al8  1  0.58441000  0.75258700  0.99902100  1
  Al  Al9  1  0.58441000  0.24741300  0.50097900  1
  Al  Al10  1  0.41559000  0.24741300  0.00097900  1
  Al  Al11  1  0.41559000  0.75258700  0.49902100  1
  Si  Si0  1  0.93036300  0.03949700  0.13433700  1
  Si  Si1  1  0.93036300  0.96050300  0.36566300  1
  Si  Si2  1  0.06963700  0.96050300  0.86566300  1
  Si  Si3  1  0.06963700  0.03949700  0.63433700  1
  Si  Si4  1  0.43100600  0.51823700  0.13510400  1
  Si  Si5  1  0.75678800  0.55140100  0.13340600  1
  Si  Si6  1  0.43100600  0.48176300  0.36489600  1
  Si  Si7  1  0.75678800  0.44859900  0.36659400  1
  Si  Si8  1  0.56899400  0.48176300  0.86489600  1
  Si  Si9  1  0.24321200  0.44859900  0.86659400  1
  Si  Si10  1  0.56899400  0.51823700  0.63510400  1
  Si  Si11  1  0.24321200  0.55140100  0.63340600  1
  H  H0  1  0.65718900  0.13677200  0.05365200  1
  H  H1  1  0.65718900  0.86322800  0.44634800  1
  H  H2  1  0.34281100  0.86322800  0.94634800  1
  H  H3  1  0.34281100  0.13677200  0.55365200  1
  H  H4  1  0.14414700  0.62365800  0.06718900  1
  H  H5  1  0.14414700  0.37634200  0.43281100  1
  H  H6  1  0.85585300  0.37634200  0.93281100  1
  H  H7  1  0.85585300  0.62365800  0.56718900  1
  O  O0  1  0.94403200  0.03668300  0.05420500  1
  O  O1  1  0.25028600  0.12488200  0.04992800  1
  O  O2  1  0.56584800  0.04501300  0.04803500  1
  O  O3  1  0.08527300  0.08394200  0.16947700  1
  O  O4  1  0.81183000  0.25672600  0.15623300  1
  O  O5  1  0.86366000  0.75843100  0.16618600  1
  O  O6  1  0.94403200  0.96331700  0.44579500  1
  O  O7  1  0.25028600  0.87511800  0.45007200  1
  O  O8  1  0.56584800  0.95498700  0.45196500  1
  O  O9  1  0.08527300  0.91605800  0.33052300  1
  O  O10  1  0.81183000  0.74327400  0.34376700  1
  O  O11  1  0.86366000  0.24156900  0.33381400  1
  O  O12  1  0.05596800  0.96331700  0.94579500  1
  O  O13  1  0.74971400  0.87511800  0.95007200  1
  O  O14  1  0.43415200  0.95498700  0.95196500  1
  O  O15  1  0.91472700  0.91605800  0.83052300  1
  O  O16  1  0.18817000  0.74327400  0.84376700  1
  O  O17  1  0.13634000  0.24156900  0.83381400  1
  O  O18  1  0.05596800  0.03668300  0.55420500  1
  O  O19  1  0.74971400  0.12488200  0.54992800  1
  O  O20  1  0.43415200  0.04501300  0.54803500  1
  O  O21  1  0.91472700  0.08394200  0.66947700  1
  O  O22  1  0.18817000  0.25672600  0.65623300  1
  O  O23  1  0.13634000  0.75843100  0.66618600  1
  O  O24  1  0.45048900  0.53249200  0.05431000  1
  O  O25  1  0.75176000  0.60879900  0.05401800  1
  O  O26  1  0.05824900  0.54561600  0.04883100  1
  O  O27  1  0.59441400  0.58613100  0.16621800  1
  O  O28  1  0.30717300  0.71635900  0.15614100  1
  O  O29  1  0.38886400  0.23462600  0.16891700  1
  O  O30  1  0.45048900  0.46750800  0.44569000  1
  O  O31  1  0.75176000  0.39120100  0.44598200  1
  O  O32  1  0.05824900  0.45438400  0.45116900  1
  O  O33  1  0.59441400  0.41386900  0.33378200  1
  O  O34  1  0.30717300  0.28364100  0.34385900  1
  O  O35  1  0.38886400  0.76537400  0.33108300  1
  O  O36  1  0.54951100  0.46750800  0.94569000  1
  O  O37  1  0.24824000  0.39120100  0.94598200  1
  O  O38  1  0.94175100  0.45438400  0.95116900  1
  O  O39  1  0.40558600  0.41386900  0.83378200  1
  O  O40  1  0.69282700  0.28364100  0.84385900  1
  O  O41  1  0.61113600  0.76537400  0.83108300  1
  O  O42  1  0.54951100  0.53249200  0.55431000  1
  O  O43  1  0.24824000  0.60879900  0.55401800  1
  O  O44  1  0.94175100  0.54561600  0.54883100  1
  O  O45  1  0.40558600  0.58613100  0.66621800  1
  O  O46  1  0.69282700  0.71635900  0.65614100  1
  O  O47  1  0.61113600  0.23462600  0.66891700  1
loop_
_geom_bond_atom_site_label_1
_geom_bond_atom_site_label_2
_geom_bond_distance
_geom_bond_site_symmetry_2
K0 O35 2.731330 1_545
K0 O29 2.731330 1_555
K0 O33 2.890416 1_555
K0 O27 2.890416 1_545
K0 O10 2.958564 1_545
K0 O4 2.958564 1_555
K1 O47 2.731330 1_555
K1 O41 2.731330 1_545
K1 O39 2.890416 1_555
K1 O45 2.890416 1_545
K1 O16 2.958564 1_545
K1 O22 2.958564 1_555
K2 O34 2.824625 1_555
K2 O28 2.824625 1_555
K2 O9 2.860205 1_555
K2 O3 2.860205 1_555
K2 O5 3.006177 1_455
K2 O11 3.006177 1_455
K3 O40 2.824625 1_555
K3 O46 2.824625 1_555
K3 O15 2.860205 1_555
K3 O21 2.860205 1_555
K3 O17 3.006177 1_655
K3 O23 3.006177 1_655
Al0 O1 1.877352 1_555
Al0 O26 1.916366 1_555
Al0 O38 1.919070 1_454
Al0 O37 1.954672 1_554
Al0 O0 1.964945 1_455
Al0 O12 1.992937 1_544
Al1 O28 1.744683 1_545
Al1 O29 1.747322 1_555
Al1 O1 1.756931 1_555
Al1 O3 1.766412 1_555
Al2 O7 1.877352 1_555
Al2 O32 1.916366 1_555
Al2 O44 1.919070 1_455
Al2 O43 1.954672 1_555
Al2 O6 1.964945 1_455
Al2 O18 1.992937 1_565
Al3 O34 1.744683 1_565
Al3 O35 1.747322 1_555
Al3 O7 1.756931 1_555
Al3 O9 1.766412 1_555
Al4 O13 1.877352 1_555
Al4 O38 1.916366 1_555
Al4 O26 1.919070 1_656
Al4 O25 1.954672 1_556
Al4 O12 1.964945 1_655
Al4 O0 1.992937 1_566
Al5 O40 1.744683 1_565
Al5 O41 1.747322 1_555
Al5 O13 1.756931 1_555
Al5 O15 1.766412 1_555
Al6 O19 1.877352 1_555
Al6 O44 1.916366 1_555
Al6 O32 1.919070 1_655
Al6 O31 1.954672 1_555
Al6 O18 1.964945 1_655
Al6 O6 1.992937 1_545
Al7 O46 1.744683 1_545
Al7 O47 1.747322 1_555
Al7 O19 1.756931 1_555
Al7 O21 1.766412 1_555
Al8 O13 1.882086 1_555
Al8 O2 1.917238 1_566
Al8 O14 1.926386 1_555
Al8 O24 1.956739 1_556
Al8 O36 1.958214 1_555
Al8 O25 1.993987 1_556
Al9 O19 1.882086 1_555
Al9 O8 1.917238 1_545
Al9 O20 1.926386 1_555
Al9 O30 1.956739 1_555
Al9 O42 1.958214 1_555
Al9 O31 1.993987 1_555
Al10 O1 1.882086 1_555
Al10 O14 1.917238 1_544
Al10 O2 1.926386 1_555
Al10 O36 1.956739 1_554
Al10 O24 1.958214 1_555
Al10 O37 1.993987 1_554
Al11 O7 1.882086 1_555
Al11 O20 1.917238 1_565
Al11 O8 1.926386 1_555
Al11 O42 1.956739 1_555
Al11 O30 1.958214 1_555
Al11 O43 1.993987 1_555
H0 O2 0.971335 1_555
H1 O8 0.971335 1_555
H2 O14 0.971335 1_555
H3 O20 0.971335 1_555
H4 O26 0.973119 1_555
H5 O32 0.973119 1_555
H6 O38 0.973119 1_555
H7 O44 0.973119 1_555
O0 Si0 1.644115 1_555
O3 Si0 1.607537 1_455
O4 Si5 1.644609 1_555
O4 Si0 1.659180 1_555
O5 Si5 1.645803 1_555
O5 Si0 1.663322 1_565
O6 Si1 1.644115 1_555
O9 Si1 1.607537 1_455
O10 Si7 1.644609 1_555
O10 Si1 1.659180 1_555
O11 Si7 1.645803 1_555
O11 Si1 1.663322 1_545
O12 Si2 1.644115 1_555
O15 Si2 1.607537 1_655
O16 Si9 1.644609 1_555
O16 Si2 1.659180 1_555
O17 Si9 1.645803 1_555
O17 Si2 1.663322 1_545
O18 Si3 1.644115 1_555
O21 Si3 1.607537 1_655
O22 Si11 1.644609 1_555
O22 Si3 1.659180 1_555
O23 Si11 1.645803 1_555
O23 Si3 1.663322 1_565
O24 Si4 1.655271 1_555
O25 Si5 1.621614 1_555
O27 Si5 1.638190 1_555
O27 Si4 1.667277 1_555
O28 Si4 1.616719 1_555
O29 Si4 1.620412 1_555
O30 Si6 1.655271 1_555
O31 Si7 1.621614 1_555
O33 Si7 1.638190 1_555
O33 Si6 1.667277 1_555
O34 Si6 1.616719 1_555
O35 Si6 1.620412 1_555
O36 Si8 1.655271 1_555
O37 Si9 1.621614 1_555
O39 Si9 1.638190 1_555
O39 Si8 1.667277 1_555
O40 Si8 1.616719 1_555
O41 Si8 1.620412 1_555
O42 Si10 1.655271 1_555
O43 Si11 1.621614 1_555
O45 Si11 1.638190 1_555
O45 Si10 1.667277 1_555
O46 Si10 1.616719 1_555
O47 Si10 1.620412 1_555
