# generated using pymatgen
data_Y4Mg(WO5)4
_symmetry_space_group_name_H-M   'P 1'
_cell_length_a   5.34521377
_cell_length_b   6.53318713
_cell_length_c   12.77175996
_cell_angle_alpha   91.36829903
_cell_angle_beta   90.31863214
_cell_angle_gamma   109.69386947
_symmetry_Int_Tables_number   1
_chemical_formula_structural   Y4Mg(WO5)4
_chemical_formula_sum   'Y4 Mg1 W4 O20'
_cell_volume   419.75419705
_cell_formula_units_Z   1
loop_
 _symmetry_equiv_pos_site_id
 _symmetry_equiv_pos_as_xyz
  1  'x, y, z'
loop_
 _atom_site_type_symbol
 _atom_site_label
 _atom_site_symmetry_multiplicity
 _atom_site_fract_x
 _atom_site_fract_y
 _atom_site_fract_z
 _atom_site_occupancy
  Y  Y0  1  0.14003600  0.79155000  0.45019200  1
  Y  Y1  1  0.82458600  0.21655600  0.55809800  1
  Y  Y2  1  0.35186600  0.71902600  0.95171800  1
  Y  Y3  1  0.66409800  0.29158900  0.06176500  1
  Mg  Mg0  1  0.71579900  0.46924800  0.80622300  1
  W  W0  1  0.95680400  0.84943200  0.13817400  1
  W  W1  1  0.05078600  0.14507900  0.86631100  1
  W  W2  1  0.53320400  0.69948200  0.63974500  1
  W  W3  1  0.46515400  0.35621000  0.36116900  1
  O  O0  1  0.07106100  0.57139900  0.09286700  1
  O  O1  1  0.96881500  0.43836700  0.91272400  1
  O  O2  1  0.43696300  0.94791100  0.61796500  1
  O  O3  1  0.51369400  0.07844700  0.41682200  1
  O  O4  1  0.84066300  0.85182000  0.56265300  1
  O  O5  1  0.14490100  0.17057100  0.42689100  1
  O  O6  1  0.64832100  0.65658200  0.06943500  1
  O  O7  1  0.40344500  0.32869900  0.90671500  1
  O  O8  1  0.26167500  0.98842200  0.05816400  1
  O  O9  1  0.74330400  0.03174300  0.94569600  1
  O  O10  1  0.22312200  0.52991600  0.57231300  1
  O  O11  1  0.79478300  0.47119500  0.42968200  1
  O  O12  1  0.01583900  0.79263300  0.27168000  1
  O  O13  1  0.96072400  0.19916600  0.73606000  1
  O  O14  1  0.53448600  0.70261800  0.78676600  1
  O  O15  1  0.49352600  0.30785800  0.22350200  1
  O  O16  1  0.11804300  0.89103800  0.84706200  1
  O  O17  1  0.84504200  0.08066600  0.15633600  1
  O  O18  1  0.37154200  0.59796600  0.36644400  1
  O  O19  1  0.67021900  0.45481000  0.65224600  1
loop_
_geom_bond_atom_site_label_1
_geom_bond_atom_site_label_2
_geom_bond_distance
_geom_bond_site_symmetry_2
Mg0 O1 1.973945 1_555
Mg0 O19 1.976342 1_555
Mg0 O7 2.079620 1_555
Mg0 O14 2.082521 1_555
Mg0 O13 2.669245 1_555
O0 W0 2.169956 1_455
O0 Y3 2.346712 1_455
O0 Y2 2.360157 1_554
O1 W1 2.174698 1_655
O1 Y2 2.284082 1_655
O1 Y3 2.502958 1_556
O2 W2 1.886520 1_555
O2 Y1 2.364041 1_565
O2 Y0 2.630368 1_555
O3 W3 2.059727 1_555
O3 Y0 2.282200 1_545
O3 Y1 2.389481 1_555
O4 W2 1.903481 1_555
O4 Y0 2.280785 1_655
O4 Y1 2.415265 1_565
O5 W3 1.941941 1_555
O5 Y1 2.486844 1_455
O5 Y0 2.492541 1_545
O6 W0 1.899450 1_555
O6 Y2 2.318686 1_554
O6 Y3 2.413989 1_555
O7 W1 1.922044 1_555
O7 Y3 2.478156 1_556
O7 Y2 2.704605 1_555
O8 W0 1.894693 1_455
O8 Y2 2.375541 1_554
O8 Y3 2.382245 1_565
O9 W1 1.873945 1_655
O9 Y3 2.372741 1_556
O9 Y2 2.384518 1_545
O10 W2 1.848546 1_555
O10 Y1 2.408472 1_455
O10 Y0 2.486540 1_555
O11 W3 1.869171 1_555
O11 Y0 2.284713 1_655
O11 Y1 2.406013 1_555
O12 W0 1.802170 1_455
O12 Y0 2.371890 1_555
O13 W1 1.804931 1_655
O13 Y1 2.399607 1_555
O14 W2 1.877289 1_555
O14 Y2 2.342063 1_555
O15 W3 1.795260 1_555
O15 Y3 2.277131 1_555
O16 W1 1.824259 1_565
O16 Y2 2.368839 1_555
O17 W0 1.812718 1_545
O17 Y3 2.293028 1_555
O18 W3 1.810385 1_555
O18 Y0 2.297779 1_555
O19 W2 1.979128 1_555
O19 Y1 2.310161 1_555
