# generated using pymatgen
data_Zr(Fe2P)2
_symmetry_space_group_name_H-M   'P 1'
_cell_length_a   6.88698600
_cell_length_b   6.88698600
_cell_length_c   3.63502100
_cell_angle_alpha   90.00000000
_cell_angle_beta   90.00000000
_cell_angle_gamma   90.00000000
_symmetry_Int_Tables_number   1
_chemical_formula_structural   Zr(Fe2P)2
_chemical_formula_sum   'Zr2 Fe8 P4'
_cell_volume   172.41114040
_cell_formula_units_Z   2
loop_
 _symmetry_equiv_pos_site_id
 _symmetry_equiv_pos_as_xyz
  1  'x, y, z'
loop_
 _atom_site_type_symbol
 _atom_site_label
 _atom_site_symmetry_multiplicity
 _atom_site_fract_x
 _atom_site_fract_y
 _atom_site_fract_z
 _atom_site_occupancy
  Zr  Zr0  1  0.50000000  0.50000000  0.00000000  1
  Zr  Zr1  1  0.00000000  0.00000000  0.50000000  1
  Fe  Fe0  1  0.58654300  0.15814900  0.50000000  1
  Fe  Fe1  1  0.41345700  0.84185100  0.50000000  1
  Fe  Fe2  1  0.08654300  0.34185100  0.00000000  1
  Fe  Fe3  1  0.91345700  0.65814900  0.00000000  1
  Fe  Fe4  1  0.15814900  0.58654300  0.50000000  1
  Fe  Fe5  1  0.84185100  0.41345700  0.50000000  1
  Fe  Fe6  1  0.34185100  0.08654300  0.00000000  1
  Fe  Fe7  1  0.65814900  0.91345700  0.00000000  1
  P  P0  1  0.71700800  0.71700800  0.50000000  1
  P  P1  1  0.28299200  0.28299200  0.50000000  1
  P  P2  1  0.21700800  0.78299200  0.00000000  1
  P  P3  1  0.78299200  0.21700800  0.00000000  1
loop_
_geom_bond_atom_site_label_1
_geom_bond_atom_site_label_2
_geom_bond_distance
_geom_bond_site_symmetry_2
Fe0 P1 2.260453 1_555
Fe0 P3 2.301763 1_555
Fe0 P3 2.301763 1_556
Fe1 P0 2.260453 1_555
Fe1 P2 2.301763 1_556
Fe1 P2 2.301763 1_555
Fe2 P3 2.260453 1_455
Fe2 P1 2.301763 1_555
Fe2 P1 2.301763 1_554
Fe3 P2 2.260453 1_655
Fe3 P0 2.301763 1_554
Fe3 P0 2.301763 1_555
Fe4 P1 2.260453 1_555
Fe4 P2 2.301763 1_556
Fe4 P2 2.301763 1_555
Fe5 P0 2.260453 1_555
Fe5 P3 2.301763 1_555
Fe5 P3 2.301763 1_556
Fe6 P2 2.260453 1_545
Fe6 P1 2.301763 1_555
Fe6 P1 2.301763 1_554
Fe7 P3 2.260453 1_565
Fe7 P0 2.301763 1_554
Fe7 P0 2.301763 1_555
P0 Zr1 2.756248 1_665
P0 Zr0 2.787578 1_555
P0 Zr0 2.787578 1_556
P1 Zr1 2.756248 1_555
P1 Zr0 2.787578 1_555
P1 Zr0 2.787578 1_556
P2 Zr0 2.756248 1_555
P2 Zr1 2.787578 1_565
P2 Zr1 2.787578 1_564
P3 Zr0 2.756248 1_555
P3 Zr1 2.787578 1_655
P3 Zr1 2.787578 1_654
