# generated using pymatgen
data_YZnSi
_symmetry_space_group_name_H-M   'P 1'
_cell_length_a   4.08180305
_cell_length_b   4.08180305
_cell_length_c   4.07150644
_cell_angle_alpha   90.00000000
_cell_angle_beta   90.00000000
_cell_angle_gamma   119.99998195
_symmetry_Int_Tables_number   1
_chemical_formula_structural   YZnSi
_chemical_formula_sum   'Y1 Zn1 Si1'
_cell_volume   58.74757274
_cell_formula_units_Z   1
loop_
 _symmetry_equiv_pos_site_id
 _symmetry_equiv_pos_as_xyz
  1  'x, y, z'
loop_
 _atom_site_type_symbol
 _atom_site_label
 _atom_site_symmetry_multiplicity
 _atom_site_fract_x
 _atom_site_fract_y
 _atom_site_fract_z
 _atom_site_occupancy
  Y  Y0  1  -0.00000000  0.00000000  0.00000000  1
  Zn  Zn0  1  0.33333300  0.66666700  0.50000000  1
  Si  Si0  1  0.66666700  0.33333300  0.50000000  1
loop_
_geom_bond_atom_site_label_1
_geom_bond_atom_site_label_2
_geom_bond_distance
_geom_bond_site_symmetry_2
Y0 Zn0 3.114159 1_544
Y0 Zn0 3.114159 1_545
Y0 Zn0 3.114162 1_554
Y0 Zn0 3.114162 1_445
Y0 Zn0 3.114162 1_555
Y0 Zn0 3.114162 1_444
Si0 Zn0 2.356628 1_545
Si0 Zn0 2.356628 1_655
Si0 Zn0 2.356635 1_555
Si0 Y0 3.114159 1_656
Si0 Y0 3.114159 1_655
Si0 Y0 3.114162 1_666
Si0 Y0 3.114162 1_556
Si0 Y0 3.114162 1_555
Si0 Y0 3.114162 1_665
