# generated using pymatgen
data_Tb4Ni3Bi8
_symmetry_space_group_name_H-M   'P 1'
_cell_length_a   4.54063200
_cell_length_b   4.54063200
_cell_length_c   18.71378300
_cell_angle_alpha   90.00000000
_cell_angle_beta   90.00000000
_cell_angle_gamma   90.00000000
_symmetry_Int_Tables_number   1
_chemical_formula_structural   Tb4Ni3Bi8
_chemical_formula_sum   'Tb4 Ni3 Bi8'
_cell_volume   385.82840732
_cell_formula_units_Z   1
loop_
 _symmetry_equiv_pos_site_id
 _symmetry_equiv_pos_as_xyz
  1  'x, y, z'
loop_
 _atom_site_type_symbol
 _atom_site_label
 _atom_site_symmetry_multiplicity
 _atom_site_fract_x
 _atom_site_fract_y
 _atom_site_fract_z
 _atom_site_occupancy
  Tb  Tb0  1  0.50000000  0.00000000  0.38664300  1
  Tb  Tb1  1  0.50000000  0.00000000  0.88703700  1
  Tb  Tb2  1  0.00000000  0.50000000  0.11296300  1
  Tb  Tb3  1  0.00000000  0.50000000  0.61335700  1
  Ni  Ni0  1  0.50000000  0.50000000  0.50000000  1
  Ni  Ni1  1  0.00000000  0.00000000  0.00000000  1
  Ni  Ni2  1  0.00000000  0.00000000  0.50000000  1
  Bi  Bi0  1  0.50000000  0.00000000  0.06948600  1
  Bi  Bi1  1  0.50000000  0.00000000  0.57500100  1
  Bi  Bi2  1  0.00000000  0.50000000  0.42499900  1
  Bi  Bi3  1  0.00000000  0.50000000  0.93051400  1
  Bi  Bi4  1  0.50000000  0.50000000  0.24898100  1
  Bi  Bi5  1  0.50000000  0.50000000  0.75101900  1
  Bi  Bi6  1  0.00000000  0.00000000  0.24907700  1
  Bi  Bi7  1  0.00000000  0.00000000  0.75092300  1
loop_
_geom_bond_atom_site_label_1
_geom_bond_atom_site_label_2
_geom_bond_distance
_geom_bond_site_symmetry_2
Ni0 Tb0 3.107155 1_555
Ni0 Tb0 3.107155 1_565
Ni0 Tb3 3.107155 1_555
Ni0 Tb3 3.107155 1_655
Ni1 Tb2 3.102126 1_545
Ni1 Tb2 3.102126 1_555
Ni1 Tb1 3.102126 1_454
Ni1 Tb1 3.102126 1_554
Ni2 Tb0 3.107155 1_555
Ni2 Tb0 3.107155 1_455
Ni2 Tb3 3.107155 1_555
Ni2 Tb3 3.107155 1_545
Bi0 Ni1 2.616340 1_655
Bi0 Ni1 2.616340 1_555
Bi0 Tb2 3.312196 1_645
Bi0 Tb2 3.312196 1_555
Bi0 Tb2 3.312196 1_655
Bi0 Tb2 3.312196 1_545
Bi0 Tb1 3.414311 1_554
Bi1 Ni2 2.669137 1_555
Bi1 Ni0 2.669137 1_555
Bi1 Ni0 2.669137 1_545
Bi1 Ni2 2.669137 1_655
Bi1 Tb3 3.289967 1_545
Bi1 Tb3 3.289967 1_655
Bi1 Tb3 3.289967 1_555
Bi1 Tb3 3.289967 1_645
Bi2 Ni2 2.669137 1_555
Bi2 Ni2 2.669137 1_565
Bi2 Ni0 2.669137 1_455
Bi2 Ni0 2.669137 1_555
Bi2 Tb0 3.289967 1_555
Bi2 Tb0 3.289967 1_455
Bi2 Tb0 3.289967 1_565
Bi2 Tb0 3.289967 1_465
Bi3 Ni1 2.616340 1_566
Bi3 Ni1 2.616340 1_556
Bi3 Tb1 3.312196 1_465
Bi3 Tb1 3.312196 1_455
Bi3 Tb1 3.312196 1_565
Bi3 Tb1 3.312196 1_555
Bi3 Tb2 3.414311 1_556
Bi4 Bi6 3.210712 1_665
Bi4 Bi6 3.210712 1_565
Bi4 Bi6 3.210712 1_655
Bi4 Bi6 3.210712 1_555
Bi4 Tb2 3.410785 1_555
Bi4 Tb2 3.410785 1_655
Bi4 Tb0 3.433806 1_555
Bi4 Tb0 3.433806 1_565
Bi5 Bi7 3.210712 1_665
Bi5 Bi7 3.210712 1_655
Bi5 Bi7 3.210712 1_565
Bi5 Bi7 3.210712 1_555
Bi5 Tb1 3.410785 1_555
Bi5 Tb1 3.410785 1_565
Bi5 Tb3 3.433806 1_655
Bi5 Tb3 3.433806 1_555
Bi6 Tb2 3.412126 1_555
Bi6 Tb2 3.412126 1_545
Bi6 Tb0 3.432458 1_555
Bi6 Tb0 3.432458 1_455
Bi7 Tb1 3.412126 1_455
Bi7 Tb1 3.412126 1_555
Bi7 Tb3 3.432458 1_545
Bi7 Tb3 3.432458 1_555
