# generated using pymatgen
data_Li3Pr3(TeO6)2
_symmetry_space_group_name_H-M   'P 1'
_cell_length_a   10.94932260
_cell_length_b   10.94932260
_cell_length_c   10.94932260
_cell_angle_alpha   109.47122063
_cell_angle_beta   109.47122063
_cell_angle_gamma   109.47122063
_symmetry_Int_Tables_number   1
_chemical_formula_structural   Li3Pr3(TeO6)2
_chemical_formula_sum   'Li12 Pr12 Te8 O48'
_cell_volume   1010.50825078
_cell_formula_units_Z   4
loop_
 _symmetry_equiv_pos_site_id
 _symmetry_equiv_pos_as_xyz
  1  'x, y, z'
loop_
 _atom_site_type_symbol
 _atom_site_label
 _atom_site_symmetry_multiplicity
 _atom_site_fract_x
 _atom_site_fract_y
 _atom_site_fract_z
 _atom_site_occupancy
  Li  Li0  1  0.25000000  0.62500000  0.37500000  1
  Li  Li1  1  0.75000000  0.37500000  0.62500000  1
  Li  Li2  1  0.75000000  0.87500000  0.12500000  1
  Li  Li3  1  0.37500000  0.25000000  0.62500000  1
  Li  Li4  1  0.62500000  0.75000000  0.37500000  1
  Li  Li5  1  0.25000000  0.12500000  0.87500000  1
  Li  Li6  1  0.12500000  0.75000000  0.87500000  1
  Li  Li7  1  0.87500000  0.25000000  0.12500000  1
  Li  Li8  1  0.62500000  0.37500000  0.25000000  1
  Li  Li9  1  0.37500000  0.62500000  0.75000000  1
  Li  Li10  1  0.87500000  0.12500000  0.75000000  1
  Li  Li11  1  0.12500000  0.87500000  0.25000000  1
  Pr  Pr0  1  0.25000000  0.37500000  0.12500000  1
  Pr  Pr1  1  0.75000000  0.62500000  0.87500000  1
  Pr  Pr2  1  0.75000000  0.12500000  0.37500000  1
  Pr  Pr3  1  0.12500000  0.25000000  0.37500000  1
  Pr  Pr4  1  0.37500000  0.75000000  0.12500000  1
  Pr  Pr5  1  0.25000000  0.87500000  0.62500000  1
  Pr  Pr6  1  0.87500000  0.75000000  0.62500000  1
  Pr  Pr7  1  0.62500000  0.25000000  0.87500000  1
  Pr  Pr8  1  0.37500000  0.12500000  0.25000000  1
  Pr  Pr9  1  0.62500000  0.87500000  0.75000000  1
  Pr  Pr10  1  0.12500000  0.37500000  0.75000000  1
  Pr  Pr11  1  0.87500000  0.62500000  0.25000000  1
  Te  Te0  1  -0.00000000  -0.00000000  -0.00000000  1
  Te  Te1  1  0.50000000  -0.00000000  0.50000000  1
  Te  Te2  1  -0.00000000  0.50000000  0.50000000  1
  Te  Te3  1  0.50000000  -0.00000000  -0.00000000  1
  Te  Te4  1  0.50000000  0.50000000  -0.00000000  1
  Te  Te5  1  0.50000000  0.50000000  0.50000000  1
  Te  Te6  1  -0.00000000  -0.00000000  0.50000000  1
  Te  Te7  1  -0.00000000  0.50000000  -0.00000000  1
  O  O0  1  0.47868574  0.38561189  0.30875309  1
  O  O1  1  0.52131426  0.61438811  0.69124691  1
  O  O2  1  0.57685880  0.16993265  0.19124691  1
  O  O3  1  0.92314120  0.11438811  0.59307385  1
  O  O4  1  0.30875309  0.47868574  0.38561189  1
  O  O5  1  0.33006735  0.92314120  0.30875309  1
  O  O6  1  0.42314120  0.83006735  0.80875309  1
  O  O7  1  0.07685880  0.88561189  0.40692615  1
  O  O8  1  0.69124691  0.52131426  0.61438811  1
  O  O9  1  0.66993265  0.07685880  0.69124691  1
  O  O10  1  0.02131426  0.33006735  0.90692615  1
  O  O11  1  0.19124691  0.57685880  0.16993265  1
  O  O12  1  0.11438811  0.02131426  0.19124691  1
  O  O13  1  0.97868574  0.66993265  0.09307385  1
  O  O14  1  0.80875309  0.42314120  0.83006735  1
  O  O15  1  0.88561189  0.97868574  0.80875309  1
  O  O16  1  0.59307385  0.92314120  0.11438811  1
  O  O17  1  0.16993265  0.47868574  0.59307385  1
  O  O18  1  0.40692615  0.07685880  0.88561189  1
  O  O19  1  0.83006735  0.52131426  0.40692615  1
  O  O20  1  0.90692615  0.02131426  0.33006735  1
  O  O21  1  0.38561189  0.57685880  0.90692615  1
  O  O22  1  0.09307385  0.97868574  0.66993265  1
  O  O23  1  0.61438811  0.42314120  0.09307385  1
  O  O24  1  0.38561189  0.30875309  0.47868574  1
  O  O25  1  0.57685880  0.90692615  0.38561189  1
  O  O26  1  0.61438811  0.69124691  0.52131426  1
  O  O27  1  0.42314120  0.09307385  0.61438811  1
  O  O28  1  0.11438811  0.59307385  0.92314120  1
  O  O29  1  0.02131426  0.19124691  0.11438811  1
  O  O30  1  0.88561189  0.40692615  0.07685880  1
  O  O31  1  0.97868574  0.80875309  0.88561189  1
  O  O32  1  0.33006735  0.90692615  0.02131426  1
  O  O33  1  0.92314120  0.30875309  0.33006735  1
  O  O34  1  0.66993265  0.09307385  0.97868574  1
  O  O35  1  0.07685880  0.69124691  0.66993265  1
  O  O36  1  0.16993265  0.19124691  0.57685880  1
  O  O37  1  0.47868574  0.59307385  0.16993265  1
  O  O38  1  0.83006735  0.80875309  0.42314120  1
  O  O39  1  0.52131426  0.40692615  0.83006735  1
  O  O40  1  0.30875309  0.33006735  0.92314120  1
  O  O41  1  0.69124691  0.66993265  0.07685880  1
  O  O42  1  0.19124691  0.11438811  0.02131426  1
  O  O43  1  0.80875309  0.88561189  0.97868574  1
  O  O44  1  0.90692615  0.38561189  0.57685880  1
  O  O45  1  0.09307385  0.61438811  0.42314120  1
  O  O46  1  0.59307385  0.16993265  0.47868574  1
  O  O47  1  0.40692615  0.83006735  0.52131426  1
loop_
_geom_bond_atom_site_label_1
_geom_bond_atom_site_label_2
_geom_bond_distance
_geom_bond_site_symmetry_2
Li0 O4 1.937838 1_555
Li0 O45 1.937838 1_555
Li0 O47 1.937838 1_555
Li0 O11 1.937838 1_555
Li1 O46 1.937838 1_555
Li1 O44 1.937838 1_555
Li1 O14 1.937838 1_555
Li1 O8 1.937838 1_555
Li2 O41 1.937838 1_555
Li2 O16 1.937838 1_555
Li2 O20 1.937838 1_565
Li2 O43 1.937838 1_554
Li3 O24 1.937838 1_555
Li3 O39 1.937838 1_555
Li3 O27 1.937838 1_555
Li3 O36 1.937838 1_555
Li4 O25 1.937838 1_555
Li4 O26 1.937838 1_555
Li4 O38 1.937838 1_555
Li4 O37 1.937838 1_555
Li5 O40 1.937838 1_555
Li5 O22 1.937838 1_545
Li5 O42 1.937838 1_556
Li5 O18 1.937838 1_555
Li6 O35 1.937838 1_555
Li6 O28 1.937838 1_555
Li6 O32 1.937838 1_556
Li6 O31 1.937838 1_455
Li7 O33 1.937838 1_555
Li7 O34 1.937838 1_554
Li7 O29 1.937838 1_655
Li7 O30 1.937838 1_555
Li8 O23 1.937838 1_555
Li8 O0 1.937838 1_555
Li8 O19 1.937838 1_555
Li8 O2 1.937838 1_555
Li9 O6 1.937838 1_555
Li9 O17 1.937838 1_555
Li9 O21 1.937838 1_555
Li9 O1 1.937838 1_555
Li10 O9 1.937838 1_555
Li10 O10 1.937838 1_655
Li10 O3 1.937838 1_555
Li10 O15 1.937838 1_545
Li11 O5 1.937838 1_555
Li11 O13 1.937838 1_455
Li11 O12 1.937838 1_565
Li11 O7 1.937838 1_555
O0 Te5 1.933638 1_555
O0 Pr8 2.444365 1_555
O0 Pr0 2.573502 1_555
O1 Te5 1.933638 1_555
O1 Pr9 2.444365 1_555
O1 Pr1 2.573502 1_555
O2 Te3 1.933638 1_555
O2 Pr8 2.444365 1_555
O2 Pr2 2.573502 1_555
O3 Te6 1.933638 1_655
O3 Pr10 2.444365 1_655
O3 Pr2 2.573502 1_555
O4 Te5 1.933638 1_555
O4 Pr0 2.444365 1_555
O4 Pr3 2.573502 1_555
O5 Te1 1.933638 1_565
O5 Pr8 2.444365 1_565
O5 Pr4 2.573502 1_555
O6 Te3 1.933638 1_566
O6 Pr9 2.444365 1_555
O6 Pr5 2.573502 1_555
O7 Te6 1.933638 1_565
O7 Pr11 2.444365 1_455
O7 Pr5 2.573502 1_555
O8 Te5 1.933638 1_555
O8 Pr1 2.444365 1_555
O8 Pr6 2.573502 1_555
O9 Te1 1.933638 1_555
O9 Pr9 2.444365 1_545
O9 Pr7 2.573502 1_555
O10 Te7 1.933638 1_556
O10 Pr10 2.444365 1_555
O10 Pr0 2.573502 1_556
O11 Te7 1.933638 1_555
O11 Pr0 2.444365 1_555
O11 Pr4 2.573502 1_555
O12 Te0 1.933638 1_555
O12 Pr8 2.444365 1_555
O12 Pr3 2.573502 1_555
O13 Te7 1.933638 1_655
O13 Pr11 2.444365 1_555
O13 Pr1 2.573502 1_554
O14 Te7 1.933638 1_656
O14 Pr1 2.444365 1_555
O14 Pr7 2.573502 1_555
O15 Te0 1.933638 1_666
O15 Pr9 2.444365 1_555
O15 Pr6 2.573502 1_555
O16 Te3 1.933638 1_565
O16 Pr2 2.444365 1_565
O16 Pr4 2.573502 1_555
O17 Te2 1.933638 1_555
O17 Pr10 2.444365 1_555
O17 Pr3 2.573502 1_555
O18 Te3 1.933638 1_556
O18 Pr5 2.444365 1_545
O18 Pr7 2.573502 1_555
O19 Te2 1.933638 1_655
O19 Pr11 2.444365 1_555
O19 Pr6 2.573502 1_555
O20 Te6 1.933638 1_655
O20 Pr2 2.444365 1_555
O20 Pr3 2.573502 1_655
O21 Te4 1.933638 1_556
O21 Pr10 2.444365 1_555
O21 Pr4 2.573502 1_556
O22 Te6 1.933638 1_565
O22 Pr5 2.444365 1_555
O22 Pr6 2.573502 1_455
O23 Te4 1.933638 1_555
O23 Pr11 2.444365 1_555
O23 Pr7 2.573502 1_554
O24 Te5 1.933638 1_555
O24 Pr3 2.444365 1_555
O24 Pr8 2.573502 1_555
O25 Te1 1.933638 1_565
O25 Pr4 2.444365 1_555
O25 Pr2 2.573502 1_565
O26 Te5 1.933638 1_555
O26 Pr6 2.444365 1_555
O26 Pr9 2.573502 1_555
O27 Te1 1.933638 1_555
O27 Pr7 2.444365 1_555
O27 Pr5 2.573502 1_545
O28 Te7 1.933638 1_556
O28 Pr4 2.444365 1_556
O28 Pr10 2.573502 1_555
O29 Te0 1.933638 1_555
O29 Pr3 2.444365 1_555
O29 Pr0 2.573502 1_555
O30 Te7 1.933638 1_655
O30 Pr7 2.444365 1_554
O30 Pr11 2.573502 1_555
O31 Te0 1.933638 1_666
O31 Pr6 2.444365 1_555
O31 Pr1 2.573502 1_555
O32 Te3 1.933638 1_565
O32 Pr4 2.444365 1_555
O32 Pr8 2.573502 1_565
O33 Te2 1.933638 1_655
O33 Pr3 2.444365 1_655
O33 Pr2 2.573502 1_555
O34 Te3 1.933638 1_556
O34 Pr7 2.444365 1_555
O34 Pr9 2.573502 1_545
O35 Te2 1.933638 1_555
O35 Pr6 2.444365 1_455
O35 Pr5 2.573502 1_555
O36 Te6 1.933638 1_555
O36 Pr3 2.444365 1_555
O36 Pr10 2.573502 1_555
O37 Te4 1.933638 1_555
O37 Pr4 2.444365 1_555
O37 Pr0 2.573502 1_555
O38 Te6 1.933638 1_665
O38 Pr6 2.444365 1_555
O38 Pr11 2.573502 1_555
O39 Te4 1.933638 1_556
O39 Pr7 2.444365 1_555
O39 Pr1 2.573502 1_555
O40 Te4 1.933638 1_556
O40 Pr0 2.444365 1_556
O40 Pr10 2.573502 1_555
O41 Te4 1.933638 1_555
O41 Pr1 2.444365 1_554
O41 Pr11 2.573502 1_555
O42 Te0 1.933638 1_555
O42 Pr0 2.444365 1_555
O42 Pr8 2.573502 1_555
O43 Te0 1.933638 1_666
O43 Pr1 2.444365 1_555
O43 Pr9 2.573502 1_555
O44 Te2 1.933638 1_655
O44 Pr2 2.444365 1_555
O44 Pr10 2.573502 1_655
O45 Te2 1.933638 1_555
O45 Pr5 2.444365 1_555
O45 Pr11 2.573502 1_455
O46 Te1 1.933638 1_555
O46 Pr2 2.444365 1_555
O46 Pr8 2.573502 1_555
O47 Te1 1.933638 1_565
O47 Pr5 2.444365 1_555
O47 Pr9 2.573502 1_555
