# generated using pymatgen
data_SrU2S5
_symmetry_space_group_name_H-M   'P 1'
_cell_length_a   7.50599509
_cell_length_b   8.29129683
_cell_length_c   11.79833700
_cell_angle_alpha   89.60200427
_cell_angle_beta   90.00000000
_cell_angle_gamma   90.00000000
_symmetry_Int_Tables_number   1
_chemical_formula_structural   SrU2S5
_chemical_formula_sum   'Sr4 U8 S20'
_cell_volume   734.24510236
_cell_formula_units_Z   4
loop_
 _symmetry_equiv_pos_site_id
 _symmetry_equiv_pos_as_xyz
  1  'x, y, z'
loop_
 _atom_site_type_symbol
 _atom_site_label
 _atom_site_symmetry_multiplicity
 _atom_site_fract_x
 _atom_site_fract_y
 _atom_site_fract_z
 _atom_site_occupancy
  Sr  Sr0  1  0.04562485  0.49257439  0.32854161  1
  Sr  Sr1  1  0.54562485  0.50742561  0.17145839  1
  Sr  Sr2  1  0.95437515  0.50742561  0.67145839  1
  Sr  Sr3  1  0.45437515  0.49257439  0.82854161  1
  U  U0  1  0.01794397  -0.00206522  0.32179401  1
  U  U1  1  0.51794397  0.00206522  0.17820599  1
  U  U2  1  0.98205603  0.00206522  0.67820599  1
  U  U3  1  0.48205603  -0.00206522  0.82179401  1
  U  U4  1  0.06760859  0.75043480  0.00749389  1
  U  U5  1  0.56760859  0.24956520  0.49250611  1
  U  U6  1  0.93239141  0.24956520  0.99250611  1
  U  U7  1  0.43239141  0.75043480  0.50749389  1
  S  S0  1  0.65842130  0.95933034  0.39960335  1
  S  S1  1  0.15842130  0.04066966  0.10039665  1
  S  S2  1  0.34157870  0.04066966  0.60039665  1
  S  S3  1  0.84157870  0.95933034  0.89960335  1
  S  S4  1  0.45520284  0.78455709  0.00157480  1
  S  S5  1  0.95520284  0.21544291  0.49842520  1
  S  S6  1  0.54479716  0.21544291  0.99842520  1
  S  S7  1  0.04479716  0.78455709  0.50157480  1
  S  S8  1  0.83688398  0.77482996  0.18863743  1
  S  S9  1  0.33688398  0.22517004  0.31136257  1
  S  S10  1  0.16311602  0.22517004  0.81136257  1
  S  S11  1  0.66311602  0.77482996  0.68863743  1
  S  S12  1  0.30876528  0.76682310  0.28441359  1
  S  S13  1  0.80876528  0.23317690  0.21558641  1
  S  S14  1  0.69123472  0.23317690  0.71558641  1
  S  S15  1  0.19123472  0.76682310  0.78441359  1
  S  S16  1  0.17616581  0.46225464  0.07938407  1
  S  S17  1  0.67616581  0.53774536  0.42061593  1
  S  S18  1  0.82383419  0.53774536  0.92061593  1
  S  S19  1  0.32383419  0.46225464  0.57938407  1
loop_
_geom_bond_atom_site_label_1
_geom_bond_atom_site_label_2
_geom_bond_distance
_geom_bond_site_symmetry_2
S0 U7 2.732760 1_555
S0 U5 2.737441 1_565
S0 U1 2.836842 1_565
S0 U0 2.867654 1_665
S1 U6 2.732760 1_454
S1 U4 2.737441 1_545
S1 U0 2.836842 1_555
S1 U1 2.867654 1_555
S2 U5 2.732760 1_555
S2 U7 2.737441 1_545
S2 U3 2.836842 1_555
S2 U2 2.867654 1_455
S3 U4 2.732760 1_656
S3 U6 2.737441 1_565
S3 U2 2.836842 1_565
S3 U3 2.867654 1_565
S4 U3 2.760002 1_564
S4 U1 2.805209 1_565
S4 U4 2.923792 1_555
S4 Sr1 3.113494 1_555
S4 Sr3 3.177620 1_554
S5 U2 2.760002 1_555
S5 U0 2.805209 1_655
S5 U5 2.923792 1_555
S5 Sr0 3.113494 1_655
S5 Sr2 3.177620 1_555
S6 U1 2.760002 1_556
S6 U3 2.805209 1_555
S6 U6 2.923792 1_555
S6 Sr3 3.113494 1_555
S6 Sr1 3.177620 1_556
S7 U0 2.760002 1_565
S7 U2 2.805209 1_465
S7 U7 2.923792 1_555
S7 Sr2 3.113494 1_455
S7 Sr0 3.177620 1_555
S8 U4 2.759294 1_655
S8 U0 2.788788 1_665
S8 U1 3.048396 1_565
S8 Sr1 3.121283 1_555
S8 Sr0 3.256173 1_655
S9 U5 2.759294 1_555
S9 U1 2.788788 1_555
S9 U0 3.048396 1_555
S9 Sr0 3.121283 1_555
S9 Sr1 3.256173 1_555
S10 U6 2.759294 1_455
S10 U2 2.788788 1_455
S10 U3 3.048396 1_555
S10 Sr3 3.121283 1_555
S10 Sr2 3.256173 1_455
S11 U7 2.759294 1_555
S11 U3 2.788788 1_565
S11 U2 3.048396 1_565
S11 Sr2 3.121283 1_555
S11 Sr3 3.256173 1_555
S12 U7 2.793182 1_555
S12 U1 2.793875 1_565
S12 U0 2.939931 1_565
S12 Sr0 3.053895 1_555
S12 Sr1 3.098768 1_555
S13 U6 2.793182 1_554
S13 U0 2.793875 1_655
S13 U1 2.939931 1_555
S13 Sr1 3.053895 1_555
S13 Sr0 3.098768 1_655
S14 U5 2.793182 1_555
S14 U3 2.793875 1_555
S14 U2 2.939931 1_555
S14 Sr2 3.053895 1_555
S14 Sr3 3.098768 1_555
S15 U4 2.793182 1_556
S15 U2 2.793875 1_465
S15 U3 2.939931 1_565
S15 Sr3 3.053895 1_555
S15 Sr2 3.098768 1_455
S16 U4 2.657890 1_555
S16 U6 2.744751 1_454
S16 Sr1 3.002736 1_555
S16 Sr0 3.110476 1_555
S16 Sr3 3.629377 1_554
S17 U5 2.657890 1_555
S17 U7 2.744751 1_555
S17 Sr0 3.002736 1_655
S17 Sr1 3.110476 1_555
S17 Sr2 3.629377 1_555
S18 U6 2.657890 1_555
S18 U4 2.744751 1_656
S18 Sr3 3.002736 1_555
S18 Sr2 3.110476 1_555
S18 Sr1 3.629377 1_556
S19 U7 2.657890 1_555
S19 U5 2.744751 1_555
S19 Sr2 3.002736 1_455
S19 Sr3 3.110476 1_555
S19 Sr0 3.629377 1_555
