# generated using pymatgen
data_TbDy3Co8
_symmetry_space_group_name_H-M   'P 1'
_cell_length_a   5.07816937
_cell_length_b   5.07816937
_cell_length_c   8.74795818
_cell_angle_alpha   73.12715073
_cell_angle_beta   90.00000000
_cell_angle_gamma   120.00000000
_symmetry_Int_Tables_number   1
_chemical_formula_structural   TbDy3Co8
_chemical_formula_sum   'Tb1 Dy3 Co8'
_cell_volume   184.06808557
_cell_formula_units_Z   1
loop_
 _symmetry_equiv_pos_site_id
 _symmetry_equiv_pos_as_xyz
  1  'x, y, z'
loop_
 _atom_site_type_symbol
 _atom_site_label
 _atom_site_symmetry_multiplicity
 _atom_site_fract_x
 _atom_site_fract_y
 _atom_site_fract_z
 _atom_site_occupancy
  Tb  Tb0  1  0.87494500  0.74989000  0.37516400  1
  Dy  Dy0  1  0.37498000  0.74996100  0.87505900  1
  Dy  Dy1  1  0.00022600  0.00045200  0.99932200  1
  Dy  Dy2  1  0.49984300  0.99968600  0.50047000  1
  Co  Co0  1  0.43786300  0.37529100  0.18684600  1
  Co  Co1  1  0.93725800  0.37462800  0.68811400  1
  Co  Co2  1  0.43786300  0.87572600  0.18684600  1
  Co  Co3  1  0.93725800  0.87451600  0.68811400  1
  Co  Co4  1  0.18740400  0.37480800  0.43778700  1
  Co  Co5  1  0.68756100  0.37512200  0.93731700  1
  Co  Co6  1  0.93742800  0.37529100  0.18684600  1
  Co  Co7  1  0.43737000  0.37462800  0.68811400  1
loop_
_geom_bond_atom_site_label_1
_geom_bond_atom_site_label_2
_geom_bond_distance
_geom_bond_site_symmetry_2
Dy0 Dy2 3.087369 1_555
Dy0 Dy1 3.105617 1_565
Dy0 Dy1 3.105621 1_665
Dy0 Dy1 3.105621 1_555
Dy1 Tb0 3.097696 1_446
Dy2 Tb0 3.108465 1_455
Dy2 Tb0 3.108465 1_555
Dy2 Tb0 3.108466 1_565
Co0 Co5 2.524865 1_554
Co0 Co4 2.535827 1_555
Co0 Co2 2.536876 1_545
Co0 Co6 2.536876 1_555
Co0 Co6 2.541294 1_455
Co0 Co2 2.541294 1_555
Co0 Dy0 2.959116 1_554
Co0 Dy2 2.971015 1_545
Co0 Dy1 2.972500 1_554
Co0 Dy1 2.972500 1_664
Co0 Tb0 2.975906 1_555
Co0 Tb0 2.975910 1_445
Co1 Co5 2.523226 1_555
Co1 Co4 2.531154 1_655
Co1 Co3 2.538516 1_555
Co1 Co7 2.538516 1_555
Co1 Co7 2.539653 1_655
Co1 Co3 2.539653 1_545
Co1 Dy1 2.954501 1_655
Co1 Tb0 2.966649 1_555
Co1 Dy0 2.970021 1_655
Co1 Dy0 2.970022 1_545
Co1 Dy2 2.973012 1_655
Co1 Dy2 2.973016 1_545
Co2 Co5 2.524865 1_564
Co2 Co4 2.535830 1_555
Co2 Co6 2.536876 1_565
Co2 Co6 2.541294 1_455
Co2 Dy0 2.959114 1_554
Co2 Dy2 2.971013 1_555
Co2 Dy1 2.972500 1_564
Co2 Dy1 2.972500 1_664
Co2 Tb0 2.975908 1_455
Co2 Tb0 2.975908 1_555
Co3 Co5 2.523227 1_555
Co3 Co4 2.531152 1_665
Co3 Co7 2.538516 1_555
Co3 Co7 2.539653 1_665
Co3 Dy1 2.954501 1_665
Co3 Tb0 2.966651 1_555
Co3 Dy0 2.970019 1_655
Co3 Dy0 2.970024 1_555
Co3 Dy2 2.973014 1_555
Co3 Dy2 2.973014 1_655
Co4 Co7 2.531154 1_555
Co4 Co6 2.535827 1_455
Co4 Tb0 2.976967 1_445
Co4 Tb0 2.976967 1_555
Co4 Tb0 2.976967 1_455
Co4 Dy2 2.977053 1_555
Co4 Dy2 2.977053 1_445
Co4 Dy2 2.977053 1_545
Co5 Co7 2.523226 1_555
Co5 Co6 2.524865 1_556
Co5 Dy1 2.976088 1_665
Co5 Dy1 2.976089 1_555
Co5 Dy1 2.976089 1_655
Co5 Dy0 2.976446 1_545
Co5 Dy0 2.976446 1_655
Co5 Dy0 2.976450 1_555
Co6 Dy0 2.959114 1_654
Co6 Dy2 2.971015 1_545
Co6 Dy1 2.972500 1_654
Co6 Dy1 2.972500 1_664
Co6 Tb0 2.975906 1_555
Co6 Tb0 2.975910 1_545
Co7 Dy1 2.954501 1_555
Co7 Tb0 2.966649 1_555
Co7 Dy0 2.970019 1_545
Co7 Dy0 2.970024 1_555
Co7 Dy2 2.973012 1_555
Co7 Dy2 2.973016 1_545
