# generated using pymatgen
data_Sr3Ge2(B3O8)2
_symmetry_space_group_name_H-M   'P 1'
_cell_length_a   5.06346100
_cell_length_b   7.46609876
_cell_length_c   8.56458977
_cell_angle_alpha   103.28458590
_cell_angle_beta   102.84686043
_cell_angle_gamma   89.52854245
_symmetry_Int_Tables_number   1
_chemical_formula_structural   Sr3Ge2(B3O8)2
_chemical_formula_sum   'Sr3 Ge2 B6 O16'
_cell_volume   306.91262640
_cell_formula_units_Z   1
loop_
 _symmetry_equiv_pos_site_id
 _symmetry_equiv_pos_as_xyz
  1  'x, y, z'
loop_
 _atom_site_type_symbol
 _atom_site_label
 _atom_site_symmetry_multiplicity
 _atom_site_fract_x
 _atom_site_fract_y
 _atom_site_fract_z
 _atom_site_occupancy
  Sr  Sr0  1  0.09142200  0.09117900  0.74249000  1
  Sr  Sr1  1  0.90857800  0.90882100  0.25751000  1
  Sr  Sr2  1  0.00000000  0.50000000  0.50000000  1
  Ge  Ge0  1  0.69975800  0.31489500  0.05415900  1
  Ge  Ge1  1  0.30024200  0.68510500  0.94584100  1
  B  B0  1  0.45821300  0.80843900  0.53861600  1
  B  B1  1  0.54178700  0.19156100  0.46138400  1
  B  B2  1  0.45937500  0.58915700  0.25818900  1
  B  B3  1  0.54062500  0.41084300  0.74181100  1
  B  B4  1  0.26992100  0.24486800  0.19596900  1
  B  B5  1  0.73007900  0.75513200  0.80403100  1
  O  O0  1  0.62526700  0.88328800  0.69560900  1
  O  O1  1  0.37473300  0.11671200  0.30439100  1
  O  O2  1  0.18656400  0.82208000  0.51233800  1
  O  O3  1  0.81343600  0.17792000  0.48766200  1
  O  O4  1  0.58711400  0.72363000  0.41408000  1
  O  O5  1  0.41288600  0.27637000  0.58592000  1
  O  O6  1  0.70577900  0.53467600  0.19016000  1
  O  O7  1  0.29422100  0.46532400  0.80984000  1
  O  O8  1  0.26789400  0.68415600  0.14606700  1
  O  O9  1  0.73210600  0.31584400  0.85393300  1
  O  O10  1  0.32528800  0.43602800  0.29295600  1
  O  O11  1  0.67471200  0.56397200  0.70704400  1
  O  O12  1  0.97184500  0.19321100  0.14073400  1
  O  O13  1  0.02815500  0.80678900  0.85926600  1
  O  O14  1  0.38670200  0.20473800  0.04645200  1
  O  O15  1  0.61329800  0.79526200  0.95354800  1
loop_
_geom_bond_atom_site_label_1
_geom_bond_atom_site_label_2
_geom_bond_distance
_geom_bond_site_symmetry_2
Ge0 O9 1.760145 1_554
Ge0 O12 1.762939 1_555
Ge0 O14 1.772974 1_555
Ge0 O6 1.776762 1_555
Ge1 O8 1.760145 1_556
Ge1 O13 1.762939 1_555
Ge1 O15 1.772974 1_555
Ge1 O7 1.776762 1_555
B0 O2 1.350388 1_555
B0 O4 1.398913 1_555
B0 O0 1.411516 1_555
B1 O3 1.350388 1_555
B1 O5 1.398913 1_555
B1 O1 1.411516 1_555
B2 O10 1.454592 1_555
B2 O4 1.489821 1_555
B2 O8 1.500971 1_555
B2 O6 1.505844 1_555
B3 O11 1.454592 1_555
B3 O5 1.489821 1_555
B3 O9 1.500971 1_555
B3 O7 1.505844 1_555
B4 O10 1.470961 1_555
B4 O14 1.495567 1_555
B4 O1 1.496755 1_555
B4 O12 1.502908 1_455
B5 O11 1.470961 1_555
B5 O15 1.495567 1_555
B5 O0 1.496755 1_555
B5 O13 1.502908 1_655
O0 Sr0 2.737528 1_665
O0 Sr0 3.162956 1_565
O1 Sr1 2.737528 1_445
O1 Sr1 3.162956 1_545
O2 Sr1 2.536223 1_455
O2 Sr2 2.561689 1_555
O2 Sr0 2.596228 1_565
O3 Sr0 2.536223 1_655
O3 Sr2 2.561689 1_655
O3 Sr1 2.596228 1_545
O4 Sr2 2.742816 1_655
O4 Sr1 2.866903 1_555
O5 Sr2 2.742816 1_555
O5 Sr0 2.866903 1_555
O6 Sr2 2.807080 1_655
O6 Sr1 2.869420 1_555
O7 Sr2 2.807080 1_555
O7 Sr0 2.869420 1_555
O8 Sr1 2.649708 1_455
O9 Sr0 2.649708 1_655
O10 Sr2 2.642354 1_555
O11 Sr2 2.642354 1_655
O12 Sr1 2.596315 1_545
O13 Sr0 2.596315 1_565
O14 Sr0 2.647094 1_554
O15 Sr1 2.647094 1_556
