# generated using pymatgen
data_SrSm2BeO5
_symmetry_space_group_name_H-M   'P 1'
_cell_length_a   6.55802000
_cell_length_b   7.20248700
_cell_length_c   9.55503000
_cell_angle_alpha   90.00000000
_cell_angle_beta   90.00000000
_cell_angle_gamma   90.00000000
_symmetry_Int_Tables_number   1
_chemical_formula_structural   SrSm2BeO5
_chemical_formula_sum   'Sr4 Sm8 Be4 O20'
_cell_volume   451.32280104
_cell_formula_units_Z   4
loop_
 _symmetry_equiv_pos_site_id
 _symmetry_equiv_pos_as_xyz
  1  'x, y, z'
loop_
 _atom_site_type_symbol
 _atom_site_label
 _atom_site_symmetry_multiplicity
 _atom_site_fract_x
 _atom_site_fract_y
 _atom_site_fract_z
 _atom_site_occupancy
  Sr  Sr0  1  0.58337000  0.98148800  0.67504000  1
  Sr  Sr1  1  0.41663000  0.48148800  0.32496000  1
  Sr  Sr2  1  0.08337000  0.48148800  0.82496000  1
  Sr  Sr3  1  0.91663000  0.98148800  0.17504000  1
  Sm  Sm0  1  0.09500700  0.74628700  0.52193500  1
  Sm  Sm1  1  0.40499300  0.74628700  0.02193500  1
  Sm  Sm2  1  0.90499300  0.24628700  0.47806500  1
  Sm  Sm3  1  0.59500700  0.24628700  0.97806500  1
  Sm  Sm4  1  0.92720500  0.52647400  0.17327800  1
  Sm  Sm5  1  0.07279500  0.02647400  0.82672200  1
  Sm  Sm6  1  0.42720500  0.02647400  0.32672200  1
  Sm  Sm7  1  0.57279500  0.52647400  0.67327800  1
  Be  Be0  1  0.69274700  0.74909400  0.39897000  1
  Be  Be1  1  0.80725300  0.74909400  0.89897000  1
  Be  Be2  1  0.30725300  0.24909400  0.60103000  1
  Be  Be3  1  0.19274700  0.24909400  0.10103000  1
  O  O0  1  0.02054000  0.75007500  0.99024000  1
  O  O1  1  0.47946000  0.75007500  0.49024000  1
  O  O2  1  0.97946000  0.25007500  0.00976000  1
  O  O3  1  0.52054000  0.25007500  0.50976000  1
  O  O4  1  0.16204800  0.74682800  0.27899700  1
  O  O5  1  0.33795200  0.74682800  0.77899700  1
  O  O6  1  0.83795200  0.24682800  0.72100300  1
  O  O7  1  0.66204800  0.24682800  0.22100300  1
  O  O8  1  0.63403000  0.75004600  0.22486200  1
  O  O9  1  0.86597000  0.75004600  0.72486200  1
  O  O10  1  0.36597000  0.25004600  0.77513800  1
  O  O11  1  0.13403000  0.25004600  0.27513800  1
  O  O12  1  0.31637100  0.05691900  0.07088300  1
  O  O13  1  0.19474500  0.44278900  0.56742000  1
  O  O14  1  0.68362900  0.55691900  0.92911700  1
  O  O15  1  0.80525500  0.94278900  0.43258000  1
  O  O16  1  0.69474500  0.94278900  0.93258000  1
  O  O17  1  0.81637100  0.55691900  0.42911700  1
  O  O18  1  0.30525500  0.44278900  0.06742000  1
  O  O19  1  0.18362900  0.05691900  0.57088300  1
loop_
_geom_bond_atom_site_label_1
_geom_bond_atom_site_label_2
_geom_bond_distance
_geom_bond_site_symmetry_2
Be0 O15 1.610525 1_555
Be0 O17 1.629753 1_555
Be0 O1 1.648351 1_555
Be0 O8 1.707604 1_555
Be1 O16 1.610525 1_555
Be1 O14 1.629753 1_555
Be1 O0 1.648351 1_655
Be1 O9 1.707604 1_555
Be2 O13 1.610525 1_555
Be2 O19 1.629753 1_555
Be2 O3 1.648351 1_555
Be2 O10 1.707604 1_555
Be3 O18 1.610525 1_555
Be3 O12 1.629753 1_555
Be3 O2 1.648351 1_455
Be3 O11 1.707604 1_555
O0 Sm4 2.455012 1_456
O0 Sr3 2.521976 1_456
O0 Sr2 2.531026 1_555
O0 Sm1 2.539520 1_556
O0 Sm5 2.553765 1_565
O1 Sm7 2.455012 1_555
O1 Sr0 2.521976 1_555
O1 Sr1 2.531026 1_555
O1 Sm0 2.539520 1_555
O1 Sm6 2.553765 1_565
O2 Sm5 2.455012 1_654
O2 Sr2 2.521976 1_654
O2 Sr3 2.531026 1_545
O2 Sm3 2.539520 1_554
O2 Sm4 2.553765 1_555
O3 Sm6 2.455012 1_555
O3 Sr1 2.521976 1_555
O3 Sr0 2.531026 1_545
O3 Sm2 2.539520 1_555
O3 Sm7 2.553765 1_555
O4 Sm0 2.362552 1_555
O4 Sm4 2.431296 1_455
O4 Sr3 2.536450 1_455
O4 Sr1 2.575387 1_555
O4 Sm6 2.699727 1_565
O4 Sm1 2.927715 1_555
O5 Sm1 2.362552 1_556
O5 Sm7 2.431296 1_555
O5 Sr0 2.536450 1_555
O5 Sr2 2.575387 1_555
O5 Sm5 2.699727 1_565
O5 Sm0 2.927715 1_555
O6 Sm2 2.362552 1_555
O6 Sm5 2.431296 1_655
O6 Sr2 2.536450 1_655
O6 Sr0 2.575387 1_545
O6 Sm7 2.699727 1_555
O6 Sm3 2.927715 1_555
O7 Sm3 2.362552 1_554
O7 Sm6 2.431296 1_555
O7 Sr1 2.536450 1_555
O7 Sr3 2.575387 1_545
O7 Sm4 2.699727 1_555
O7 Sm2 2.927715 1_555
O8 Sm1 2.452844 1_555
O8 Sr3 2.537731 1_555
O8 Sm4 2.555874 1_555
O8 Sr1 2.586290 1_555
O8 Sm6 2.598257 1_565
O9 Sm0 2.452844 1_655
O9 Sr0 2.537731 1_555
O9 Sm7 2.555874 1_555
O9 Sr2 2.586290 1_655
O9 Sm5 2.598257 1_665
O10 Sm3 2.452844 1_555
O10 Sr2 2.537731 1_555
O10 Sm5 2.555874 1_555
O10 Sr0 2.586290 1_545
O10 Sm7 2.598257 1_555
O11 Sm2 2.452844 1_455
O11 Sr1 2.537731 1_555
O11 Sm6 2.555874 1_555
O11 Sr3 2.586290 1_445
O11 Sm4 2.598257 1_455
O12 Sm1 2.358417 1_545
O12 Sm3 2.446602 1_554
O12 Sm6 2.559730 1_555
O12 Sm5 2.835917 1_554
O12 Sr3 2.856212 1_445
O13 Sm0 2.322724 1_555
O13 Sm2 2.518491 1_455
O13 Sr2 2.582000 1_555
O13 Sm7 2.744651 1_555
O13 Sr1 2.749953 1_555
O14 Sm3 2.358417 1_555
O14 Sm1 2.446602 1_556
O14 Sm7 2.559730 1_555
O14 Sm4 2.835917 1_556
O14 Sr2 2.856212 1_655
O15 Sm2 2.322724 1_565
O15 Sm0 2.518491 1_655
O15 Sr3 2.582000 1_555
O15 Sm6 2.744651 1_565
O15 Sr0 2.749953 1_555
O16 Sm3 2.322724 1_565
O16 Sm1 2.518491 1_556
O16 Sr0 2.582000 1_555
O16 Sm5 2.744651 1_665
O16 Sr3 2.749953 1_556
O17 Sm2 2.358417 1_555
O17 Sm0 2.446602 1_655
O17 Sm4 2.559730 1_555
O17 Sm7 2.835917 1_555
O17 Sr1 2.856212 1_555
O18 Sm1 2.322724 1_555
O18 Sm3 2.518491 1_554
O18 Sr1 2.582000 1_555
O18 Sm4 2.744651 1_455
O18 Sr2 2.749953 1_554
O19 Sm0 2.358417 1_545
O19 Sm2 2.446602 1_455
O19 Sm5 2.559730 1_555
O19 Sm6 2.835917 1_555
O19 Sr0 2.856212 1_545
