# generated using pymatgen
data_Ag6P6O19
_symmetry_space_group_name_H-M   'P 1'
_cell_length_a   8.95651253
_cell_length_b   8.95651253
_cell_length_c   8.95651251
_cell_angle_alpha   114.07068519
_cell_angle_beta   114.07068519
_cell_angle_gamma   114.07068440
_symmetry_Int_Tables_number   1
_chemical_formula_structural   Ag6P6O19
_chemical_formula_sum   'Ag6 P6 O19'
_cell_volume   434.21867895
_cell_formula_units_Z   1
loop_
 _symmetry_equiv_pos_site_id
 _symmetry_equiv_pos_as_xyz
  1  'x, y, z'
loop_
 _atom_site_type_symbol
 _atom_site_label
 _atom_site_symmetry_multiplicity
 _atom_site_fract_x
 _atom_site_fract_y
 _atom_site_fract_z
 _atom_site_occupancy
  Ag  Ag0  1  0.84202300  0.37924000  0.51858800  1
  Ag  Ag1  1  0.37924000  0.51858800  0.84202300  1
  Ag  Ag2  1  0.51858800  0.84202300  0.37924000  1
  Ag  Ag3  1  0.15804600  0.62056600  0.48130100  1
  Ag  Ag4  1  0.62056600  0.48130100  0.15804600  1
  Ag  Ag5  1  0.48130100  0.15804600  0.62056600  1
  P  P0  1  0.02370900  0.26803400  0.89793100  1
  P  P1  1  0.26803400  0.89793100  0.02370900  1
  P  P2  1  0.89793100  0.02370900  0.26803400  1
  P  P3  1  0.97636500  0.73198800  0.10214100  1
  P  P4  1  0.73198800  0.10214100  0.97636500  1
  P  P5  1  0.10214100  0.97636500  0.73198800  1
  O  O0  1  0.45969000  0.05856100  0.27466200  1
  O  O1  1  0.05856100  0.27466200  0.45969000  1
  O  O2  1  0.27466200  0.45969000  0.05856100  1
  O  O3  1  0.54031000  0.94115500  0.72515800  1
  O  O4  1  0.94115500  0.72515800  0.54031000  1
  O  O5  1  0.72515800  0.54031000  0.94115500  1
  O  O6  1  0.97154600  0.25396700  0.04690400  1
  O  O7  1  0.25396700  0.04690400  0.97154600  1
  O  O8  1  0.04690400  0.97154600  0.25396700  1
  O  O9  1  0.02832100  0.74599000  0.95296800  1
  O  O10  1  0.74599000  0.95296800  0.02832100  1
  O  O11  1  0.95296800  0.02832100  0.74599000  1
  O  O12  1  0.86322000  0.25909300  0.73712300  1
  O  O13  1  0.25909300  0.73712300  0.86322000  1
  O  O14  1  0.73712300  0.86322000  0.25909300  1
  O  O15  1  0.13664800  0.74079200  0.26270800  1
  O  O16  1  0.74079200  0.26270800  0.13664800  1
  O  O17  1  0.26270800  0.13664800  0.74079200  1
  O  O18  1  0.47925400  0.47925400  0.47925400  1
loop_
_geom_bond_atom_site_label_1
_geom_bond_atom_site_label_2
_geom_bond_distance
_geom_bond_site_symmetry_2
Ag0 O0 2.346147 1_555
Ag0 O13 2.551939 1_655
Ag0 O12 2.570362 1_555
Ag0 O1 2.613484 1_655
Ag0 O16 2.720139 1_555
Ag0 O4 2.747472 1_555
Ag1 O1 2.346147 1_555
Ag1 O14 2.551939 1_556
Ag1 O13 2.570362 1_555
Ag1 O2 2.613484 1_556
Ag1 O17 2.720139 1_555
Ag1 O5 2.747472 1_555
Ag2 O2 2.346147 1_555
Ag2 O12 2.551939 1_565
Ag2 O14 2.570362 1_555
Ag2 O0 2.613484 1_565
Ag2 O15 2.720139 1_555
Ag2 O3 2.747472 1_555
Ag3 O3 2.345688 1_555
Ag3 O16 2.552676 1_455
Ag3 O15 2.571250 1_555
Ag3 O4 2.616982 1_455
Ag3 O13 2.720452 1_555
Ag3 O1 2.747347 1_555
Ag4 O4 2.345688 1_555
Ag4 O17 2.552676 1_554
Ag4 O16 2.571250 1_555
Ag4 O5 2.616982 1_554
Ag4 O14 2.720452 1_555
Ag4 O2 2.747347 1_555
Ag5 O5 2.345688 1_555
Ag5 O15 2.552676 1_545
Ag5 O17 2.571250 1_555
Ag5 O3 2.616982 1_545
Ag5 O12 2.720452 1_555
Ag5 O0 2.747347 1_555
O0 P1 1.506254 1_545
O1 P2 1.506255 1_455
O2 P0 1.506255 1_554
O3 P4 1.507359 1_565
O4 P5 1.507359 1_655
O5 P3 1.507359 1_556
O6 P0 1.616188 1_654
O6 P4 1.632582 1_554
O7 P1 1.616188 1_546
O7 P5 1.632582 1_545
O8 P2 1.616188 1_465
O8 P3 1.632582 1_455
O9 P3 1.616662 1_456
O9 P1 1.632976 1_556
O10 P4 1.616662 1_564
O10 P2 1.632976 1_565
O11 P5 1.616662 1_645
O11 P0 1.632976 1_655
O12 P0 1.506727 1_655
O13 P1 1.506727 1_556
O14 P2 1.506727 1_565
O15 P3 1.505440 1_455
O16 P4 1.505440 1_554
O17 P5 1.505440 1_545
