# generated using pymatgen
data_Li3Rh
_symmetry_space_group_name_H-M   'P 1'
_cell_length_a   5.29445180
_cell_length_b   5.29445180
_cell_length_c   4.43693367
_cell_angle_alpha   90.00000000
_cell_angle_beta   90.00000000
_cell_angle_gamma   120.00000971
_symmetry_Int_Tables_number   1
_chemical_formula_structural   Li3Rh
_chemical_formula_sum   'Li6 Rh2'
_cell_volume   107.70987523
_cell_formula_units_Z   2
loop_
 _symmetry_equiv_pos_site_id
 _symmetry_equiv_pos_as_xyz
  1  'x, y, z'
loop_
 _atom_site_type_symbol
 _atom_site_label
 _atom_site_symmetry_multiplicity
 _atom_site_fract_x
 _atom_site_fract_y
 _atom_site_fract_z
 _atom_site_occupancy
  Li  Li0  1  0.17548707  0.35097313  0.25000000  1
  Li  Li1  1  0.64902687  0.82451293  0.25000000  1
  Li  Li2  1  0.17548707  0.82451293  0.25000000  1
  Li  Li3  1  0.82451293  0.64902687  0.75000000  1
  Li  Li4  1  0.35097313  0.17548707  0.75000000  1
  Li  Li5  1  0.82451293  0.17548707  0.75000000  1
  Rh  Rh0  1  0.33333300  0.66666700  0.75000000  1
  Rh  Rh1  1  0.66666700  0.33333300  0.25000000  1
loop_
_geom_bond_atom_site_label_1
_geom_bond_atom_site_label_2
_geom_bond_distance
_geom_bond_site_symmetry_2
Li0 Rh1 2.648461 1_555
Li0 Rh1 2.648461 1_455
Li0 Rh0 2.648932 1_554
Li0 Rh0 2.648932 1_555
Li1 Rh1 2.648461 1_555
Li1 Rh1 2.648461 1_565
Li1 Rh0 2.648932 1_554
Li1 Rh0 2.648932 1_555
Li2 Rh1 2.648461 1_455
Li2 Rh1 2.648461 1_565
Li2 Rh0 2.648928 1_554
Li2 Rh0 2.648928 1_555
Li3 Rh0 2.648461 1_555
Li3 Rh0 2.648461 1_655
Li3 Rh1 2.648932 1_555
Li3 Rh1 2.648932 1_556
Li4 Rh0 2.648461 1_555
Li4 Rh0 2.648461 1_545
Li4 Rh1 2.648932 1_556
Li4 Rh1 2.648932 1_555
Li5 Rh0 2.648461 1_545
Li5 Rh0 2.648461 1_655
Li5 Rh1 2.648928 1_555
Li5 Rh1 2.648928 1_556
