# generated using pymatgen
data_Yb2(Ga3Rh)3
_symmetry_space_group_name_H-M   'P 1'
_cell_length_a   7.51054757
_cell_length_b   7.51054757
_cell_length_c   9.69493000
_cell_angle_alpha   90.00000000
_cell_angle_beta   90.00000000
_cell_angle_gamma   119.53578816
_symmetry_Int_Tables_number   1
_chemical_formula_structural   Yb2(Ga3Rh)3
_chemical_formula_sum   'Yb4 Ga18 Rh6'
_cell_volume   475.80726269
_cell_formula_units_Z   2
loop_
 _symmetry_equiv_pos_site_id
 _symmetry_equiv_pos_as_xyz
  1  'x, y, z'
loop_
 _atom_site_type_symbol
 _atom_site_label
 _atom_site_symmetry_multiplicity
 _atom_site_fract_x
 _atom_site_fract_y
 _atom_site_fract_z
 _atom_site_occupancy
  Yb  Yb0  1  0.99707000  0.66826100  0.25000000  1
  Yb  Yb1  1  0.00293000  0.33173900  0.75000000  1
  Yb  Yb2  1  0.66826100  0.99707000  0.25000000  1
  Yb  Yb3  1  0.33173900  0.00293000  0.75000000  1
  Ga  Ga0  1  0.12467600  0.12467600  0.25000000  1
  Ga  Ga1  1  0.87532400  0.87532400  0.75000000  1
  Ga  Ga2  1  0.00207300  0.33416100  0.07537000  1
  Ga  Ga3  1  0.99792700  0.66583900  0.92463000  1
  Ga  Ga4  1  0.99792700  0.66583900  0.57537000  1
  Ga  Ga5  1  0.33416100  0.00207300  0.42463000  1
  Ga  Ga6  1  0.00207300  0.33416100  0.42463000  1
  Ga  Ga7  1  0.66583900  0.99792700  0.57537000  1
  Ga  Ga8  1  0.66583900  0.99792700  0.92463000  1
  Ga  Ga9  1  0.33416100  0.00207300  0.07537000  1
  Ga  Ga10  1  0.33456900  0.33456900  0.56032900  1
  Ga  Ga11  1  0.66543100  0.66543100  0.43967100  1
  Ga  Ga12  1  0.66543100  0.66543100  0.06032900  1
  Ga  Ga13  1  0.33456900  0.33456900  0.93967100  1
  Ga  Ga14  1  0.33571000  0.54666100  0.25000000  1
  Ga  Ga15  1  0.66429000  0.45333900  0.75000000  1
  Ga  Ga16  1  0.54666100  0.33571000  0.25000000  1
  Ga  Ga17  1  0.45333900  0.66429000  0.75000000  1
  Rh  Rh0  1  0.67198900  0.32801100  0.00000000  1
  Rh  Rh1  1  0.32801100  0.67198900  0.00000000  1
  Rh  Rh2  1  0.32801100  0.67198900  0.50000000  1
  Rh  Rh3  1  0.67198900  0.32801100  0.50000000  1
  Rh  Rh4  1  0.00000000  0.00000000  0.00000000  1
  Rh  Rh5  1  0.00000000  0.00000000  0.50000000  1
loop_
_geom_bond_atom_site_label_1
_geom_bond_atom_site_label_2
_geom_bond_distance
_geom_bond_site_symmetry_2
Ga0 Rh4 2.600698 1_555
Ga0 Rh5 2.600698 1_555
Ga0 Ga14 2.757569 1_555
Ga0 Ga16 2.757569 1_555
Ga0 Ga5 2.760080 1_555
Ga0 Ga9 2.760080 1_555
Ga0 Ga2 2.760080 1_555
Ga0 Ga6 2.760080 1_555
Ga0 Yb2 3.070848 1_445
Ga0 Yb0 3.070848 1_445
Ga1 Rh5 2.600698 1_665
Ga1 Rh4 2.600698 1_666
Ga1 Ga17 2.757569 1_555
Ga1 Ga15 2.757569 1_555
Ga1 Ga4 2.760080 1_555
Ga1 Ga8 2.760080 1_555
Ga1 Ga3 2.760080 1_555
Ga1 Ga7 2.760080 1_555
Ga1 Yb1 3.070848 1_665
Ga1 Yb3 3.070848 1_665
Ga2 Rh0 2.563037 1_455
Ga2 Rh4 2.606608 1_555
Ga2 Rh1 2.615425 1_555
Ga2 Ga3 2.901495 1_454
Ga2 Ga8 2.933015 1_444
Ga2 Yb0 3.042559 1_455
Ga2 Yb2 3.050176 1_445
Ga2 Yb1 3.154517 1_554
Ga3 Rh1 2.563037 1_656
Ga3 Rh4 2.606608 1_666
Ga3 Rh0 2.615425 1_556
Ga3 Ga9 2.933015 1_666
Ga3 Yb1 3.042559 1_655
Ga3 Yb3 3.050176 1_665
Ga3 Yb0 3.154517 1_556
Ga4 Rh2 2.563037 1_655
Ga4 Rh5 2.606608 1_665
Ga4 Rh3 2.615425 1_555
Ga4 Ga6 2.901495 1_655
Ga4 Ga5 2.933015 1_665
Ga4 Yb1 3.042559 1_655
Ga4 Yb3 3.050176 1_665
Ga4 Yb0 3.154517 1_555
Ga5 Rh2 2.563037 1_545
Ga5 Rh5 2.606608 1_555
Ga5 Rh3 2.615425 1_555
Ga5 Ga7 2.901495 1_545
Ga5 Yb2 3.042559 1_545
Ga5 Yb0 3.050176 1_445
Ga5 Yb3 3.154517 1_555
Ga6 Rh3 2.563037 1_455
Ga6 Rh5 2.606608 1_555
Ga6 Rh2 2.615425 1_555
Ga6 Ga7 2.933015 1_445
Ga6 Yb0 3.042559 1_455
Ga6 Yb2 3.050176 1_445
Ga6 Yb1 3.154517 1_555
Ga7 Rh3 2.563037 1_565
Ga7 Rh5 2.606608 1_665
Ga7 Rh2 2.615425 1_555
Ga7 Yb3 3.042559 1_565
Ga7 Yb1 3.050176 1_665
Ga7 Yb2 3.154517 1_555
Ga8 Rh0 2.563037 1_566
Ga8 Rh4 2.606608 1_666
Ga8 Rh1 2.615425 1_556
Ga8 Ga9 2.901495 1_566
Ga8 Yb3 3.042559 1_565
Ga8 Yb1 3.050176 1_665
Ga8 Yb2 3.154517 1_556
Ga9 Rh1 2.563037 1_545
Ga9 Rh4 2.606608 1_555
Ga9 Rh0 2.615425 1_555
Ga9 Yb2 3.042559 1_545
Ga9 Yb0 3.050176 1_445
Ga9 Yb3 3.154517 1_554
Ga10 Rh5 2.597123 1_555
Ga10 Rh3 2.624842 1_555
Ga10 Rh2 2.624842 1_555
Ga10 Ga11 2.762285 1_555
Ga10 Ga5 2.821239 1_555
Ga10 Ga6 2.821239 1_555
Ga10 Ga17 2.851600 1_555
Ga10 Ga15 2.851600 1_555
Ga10 Yb1 3.087661 1_555
Ga10 Yb3 3.087661 1_555
Ga11 Rh5 2.597123 1_665
Ga11 Rh3 2.624842 1_555
Ga11 Rh2 2.624842 1_555
Ga11 Ga4 2.821239 1_555
Ga11 Ga7 2.821239 1_555
Ga11 Ga14 2.851600 1_555
Ga11 Ga16 2.851600 1_555
Ga11 Yb0 3.087661 1_555
Ga11 Yb2 3.087661 1_555
Ga12 Rh4 2.597123 1_665
Ga12 Rh0 2.624842 1_555
Ga12 Rh1 2.624842 1_555
Ga12 Ga13 2.762285 1_554
Ga12 Ga8 2.821239 1_554
Ga12 Ga3 2.821239 1_554
Ga12 Ga16 2.851600 1_555
Ga12 Ga14 2.851600 1_555
Ga12 Yb2 3.087661 1_555
Ga12 Yb0 3.087661 1_555
Ga13 Rh4 2.597123 1_556
Ga13 Rh0 2.624842 1_556
Ga13 Rh1 2.624842 1_556
Ga13 Ga9 2.821239 1_556
Ga13 Ga2 2.821239 1_556
Ga13 Ga17 2.851600 1_555
Ga13 Ga15 2.851600 1_555
Ga13 Yb1 3.087661 1_555
Ga13 Yb3 3.087661 1_555
Ga14 Rh1 2.611034 1_555
Ga14 Rh2 2.611034 1_555
Ga14 Ga16 2.737747 1_555
Ga14 Ga6 2.783804 1_555
Ga14 Ga2 2.783804 1_555
Ga14 Yb2 3.058013 1_555
Ga14 Yb0 3.097252 1_455
Ga15 Rh3 2.611034 1_555
Ga15 Rh0 2.611034 1_556
Ga15 Ga17 2.737747 1_555
Ga15 Ga3 2.783804 1_555
Ga15 Ga4 2.783804 1_555
Ga15 Yb3 3.058013 1_555
Ga15 Yb1 3.097252 1_655
Ga16 Rh3 2.611034 1_555
Ga16 Rh0 2.611034 1_555
Ga16 Ga5 2.783804 1_555
Ga16 Ga9 2.783804 1_555
Ga16 Yb0 3.058013 1_555
Ga16 Yb2 3.097252 1_545
Ga17 Rh2 2.611034 1_555
Ga17 Rh1 2.611034 1_556
Ga17 Ga8 2.783804 1_555
Ga17 Ga7 2.783804 1_555
Ga17 Yb1 3.058013 1_555
Ga17 Yb3 3.097252 1_565
