# generated using pymatgen
data_Li9Mn2Co5O16
_symmetry_space_group_name_H-M   'P 1'
_cell_length_a   9.90902704
_cell_length_b   9.90902704
_cell_length_c   10.32815321
_cell_angle_alpha   83.60037618
_cell_angle_beta   83.60037618
_cell_angle_gamma   16.68795373
_symmetry_Int_Tables_number   1
_chemical_formula_structural   Li9Mn2Co5O16
_chemical_formula_sum   'Li9 Mn2 Co5 O16'
_cell_volume   289.35690760
_cell_formula_units_Z   1
loop_
 _symmetry_equiv_pos_site_id
 _symmetry_equiv_pos_as_xyz
  1  'x, y, z'
loop_
 _atom_site_type_symbol
 _atom_site_label
 _atom_site_symmetry_multiplicity
 _atom_site_fract_x
 _atom_site_fract_y
 _atom_site_fract_z
 _atom_site_occupancy
  Li  Li0  1  0.38051700  0.38051700  0.93330000  1
  Li  Li1  1  0.11939700  0.11939700  0.80724700  1
  Li  Li2  1  0.87689200  0.87689200  0.68004100  1
  Li  Li3  1  0.61700500  0.61700500  0.55056300  1
  Li  Li4  1  0.38262100  0.38262100  0.43755900  1
  Li  Li5  1  0.12386800  0.12386800  0.32247500  1
  Li  Li6  1  0.87795400  0.87795400  0.20095300  1
  Li  Li7  1  0.62086100  0.62086100  0.06875200  1
  Li  Li8  1  0.00015900  0.00015900  0.49942000  1
  Mn  Mn0  1  0.00019400  0.00019400  0.99985200  1
  Mn  Mn1  1  0.74948400  0.74948400  0.87576200  1
  Co  Co0  1  0.49568900  0.49568900  0.72903000  1
  Co  Co1  1  0.24837100  0.24837100  0.62197600  1
  Co  Co2  1  0.75081800  0.75081800  0.37472500  1
  Co  Co3  1  0.50440900  0.50440900  0.26990000  1
  Co  Co4  1  0.25085600  0.25085600  0.12797300  1
  O  O0  1  0.44409400  0.44409400  0.08192100  1
  O  O1  1  0.19274800  0.19274800  0.95325100  1
  O  O2  1  0.94612600  0.94612600  0.85183800  1
  O  O3  1  0.69904300  0.69904300  0.72191000  1
  O  O4  1  0.43725500  0.43725500  0.60649400  1
  O  O5  1  0.19121600  0.19121600  0.46467400  1
  O  O6  1  0.94184100  0.94184100  0.33617600  1
  O  O7  1  0.69594500  0.69594500  0.20887400  1
  O  O8  1  0.30662700  0.30662700  0.79828700  1
  O  O9  1  0.05946200  0.05946200  0.66489500  1
  O  O10  1  0.80356800  0.80356800  0.54054600  1
  O  O11  1  0.56173200  0.56173200  0.39382600  1
  O  O12  1  0.31004200  0.31004200  0.28320400  1
  O  O13  1  0.05407600  0.05407600  0.14761100  1
  O  O14  1  0.80101000  0.80101000  0.02930000  1
  O  O15  1  0.55612200  0.55612200  0.91766400  1
loop_
_geom_bond_atom_site_label_1
_geom_bond_atom_site_label_2
_geom_bond_distance
_geom_bond_site_symmetry_2
Li0 O2 2.046154 1_545
Li0 O2 2.046154 1_455
Li0 O0 2.083605 1_556
Li0 O8 2.121045 1_555
Li0 O14 2.265609 1_546
Li0 O14 2.265609 1_456
Li1 O9 1.982936 1_555
Li1 O15 2.142151 1_455
Li1 O15 2.142151 1_545
Li1 O1 2.198011 1_555
Li1 O3 2.230107 1_455
Li1 O3 2.230107 1_545
Li2 O4 1.960379 1_565
Li2 O4 1.960379 1_655
Li2 O10 2.146985 1_555
Li2 O8 2.253520 1_655
Li2 O8 2.253520 1_565
Li2 O2 2.352444 1_555
Li3 O11 2.047063 1_555
Li3 O9 2.105945 1_655
Li3 O9 2.105945 1_565
Li3 O5 2.163618 1_655
Li3 O5 2.163618 1_565
Li3 O3 2.522084 1_555
Li4 O6 2.058778 1_545
Li4 O6 2.058778 1_455
Li4 O4 2.147803 1_555
Li4 O12 2.253445 1_555
Li4 O10 2.287007 1_455
Li4 O10 2.287007 1_545
Li5 O11 1.973050 1_455
Li5 O11 1.973050 1_545
Li5 O5 2.082751 1_555
Li5 O7 2.251253 1_455
Li5 O7 2.251253 1_545
Li5 O13 2.385660 1_555
Li6 O6 1.978379 1_555
Li6 O12 2.075511 1_565
Li6 O12 2.075511 1_655
Li6 O0 2.213999 1_655
Li6 O0 2.213999 1_565
Li6 O14 2.453971 1_555
Li7 O13 2.050769 1_565
Li7 O13 2.050769 1_655
Li7 O15 2.119617 1_554
Li7 O7 2.177619 1_555
Li7 O1 2.258054 1_564
Li7 O1 2.258054 1_654
Li8 O11 2.101929 1_455
Li8 O11 2.101929 1_545
Li8 O4 2.122432 1_545
Li8 O4 2.122432 1_455
Li8 O6 2.141179 1_445
Li8 O9 2.172739 1_555
Mn0 O15 1.944522 1_545
Mn0 O15 1.944522 1_455
Mn0 O0 1.945803 1_546
Mn0 O0 1.945803 1_456
Mn0 O13 1.951526 1_556
Mn0 O2 1.956042 1_445
Mn1 O1 1.935269 1_655
Mn1 O1 1.935269 1_565
Mn1 O8 1.939446 1_655
Mn1 O8 1.939446 1_565
Mn1 O3 1.963998 1_555
Mn1 O14 1.973932 1_556
Co0 O4 1.800339 1_555
Co0 O9 1.970673 1_655
Co0 O9 1.970673 1_565
Co0 O2 2.084047 1_455
Co0 O2 2.084047 1_545
Co0 O15 2.391651 1_555
Co1 O10 1.934258 1_545
Co1 O10 1.934258 1_455
Co1 O3 1.960518 1_545
Co1 O3 1.960518 1_455
Co1 O5 2.075013 1_555
Co1 O8 2.255977 1_555
Co2 O5 2.012955 1_565
Co2 O5 2.012955 1_655
Co2 O12 2.015552 1_655
Co2 O12 2.015552 1_565
Co2 O10 2.098108 1_555
Co2 O7 2.122994 1_555
Co3 O11 1.796035 1_555
Co3 O6 1.962706 1_545
Co3 O6 1.962706 1_455
Co3 O13 2.081885 1_565
Co3 O13 2.081885 1_655
Co3 O0 2.384405 1_555
Co4 O7 1.929372 1_545
Co4 O7 1.929372 1_455
Co4 O14 1.961537 1_455
Co4 O14 1.961537 1_545
Co4 O12 2.082419 1_555
Co4 O1 2.240069 1_554
