# generated using pymatgen
data_YbMgGa4
_symmetry_space_group_name_H-M   'P 1'
_cell_length_a   4.42243252
_cell_length_b   4.42243252
_cell_length_c   6.52248327
_cell_angle_alpha   90.00000000
_cell_angle_beta   90.00000000
_cell_angle_gamma   119.99998543
_symmetry_Int_Tables_number   1
_chemical_formula_structural   YbMgGa4
_chemical_formula_sum   'Yb1 Mg1 Ga4'
_cell_volume   110.47553166
_cell_formula_units_Z   1
loop_
 _symmetry_equiv_pos_site_id
 _symmetry_equiv_pos_as_xyz
  1  'x, y, z'
loop_
 _atom_site_type_symbol
 _atom_site_label
 _atom_site_symmetry_multiplicity
 _atom_site_fract_x
 _atom_site_fract_y
 _atom_site_fract_z
 _atom_site_occupancy
  Yb  Yb0  1  0.00000000  0.00000000  0.50000000  1
  Mg  Mg0  1  0.00000000  0.00000000  0.00000000  1
  Ga  Ga0  1  0.66666700  0.33333300  0.27243191  1
  Ga  Ga1  1  0.66666700  0.33333300  0.72756809  1
  Ga  Ga2  1  0.33333300  0.66666700  0.20164600  1
  Ga  Ga3  1  0.33333300  0.66666700  0.79835400  1
loop_
_geom_bond_atom_site_label_1
_geom_bond_atom_site_label_2
_geom_bond_distance
_geom_bond_site_symmetry_2
Mg0 Yb0 3.261242 1_555
Mg0 Yb0 3.261242 1_554
Ga0 Ga2 2.594698 1_655
Ga0 Ga2 2.594698 1_545
Ga0 Ga2 2.594705 1_555
Ga0 Yb0 2.953382 1_655
Ga0 Yb0 2.953385 1_555
Ga0 Yb0 2.953385 1_665
Ga0 Ga1 2.968618 1_555
Ga0 Mg0 3.110752 1_655
Ga0 Mg0 3.110756 1_555
Ga0 Mg0 3.110756 1_665
Ga1 Ga3 2.594698 1_655
Ga1 Ga3 2.594698 1_545
Ga1 Ga3 2.594705 1_555
Ga1 Yb0 2.953382 1_655
Ga1 Yb0 2.953385 1_555
Ga1 Yb0 2.953385 1_665
Ga1 Mg0 3.110752 1_656
Ga1 Mg0 3.110756 1_556
Ga1 Mg0 3.110756 1_666
Ga2 Ga3 2.630465 1_554
Ga2 Mg0 2.872129 1_565
Ga2 Mg0 2.872133 1_555
Ga2 Mg0 2.872133 1_665
Ga2 Yb0 3.210333 1_565
Ga2 Yb0 3.210337 1_555
Ga2 Yb0 3.210337 1_665
Ga3 Mg0 2.872129 1_566
Ga3 Mg0 2.872133 1_556
Ga3 Mg0 2.872133 1_666
Ga3 Yb0 3.210333 1_565
Ga3 Yb0 3.210337 1_555
Ga3 Yb0 3.210337 1_665
