# generated using pymatgen
data_Sn3Mo
_symmetry_space_group_name_H-M   'P 1'
_cell_length_a   5.45158579
_cell_length_b   5.45158579
_cell_length_c   5.45158579
_cell_angle_alpha   131.25204875
_cell_angle_beta   131.25204875
_cell_angle_gamma   71.41293122
_symmetry_Int_Tables_number   1
_chemical_formula_structural   Sn3Mo
_chemical_formula_sum   'Sn3 Mo1'
_cell_volume   89.62795412
_cell_formula_units_Z   1
loop_
 _symmetry_equiv_pos_site_id
 _symmetry_equiv_pos_as_xyz
  1  'x, y, z'
loop_
 _atom_site_type_symbol
 _atom_site_label
 _atom_site_symmetry_multiplicity
 _atom_site_fract_x
 _atom_site_fract_y
 _atom_site_fract_z
 _atom_site_occupancy
  Sn  Sn0  1  0.75000000  0.25000000  0.50000000  1
  Sn  Sn1  1  0.25000000  0.75000000  0.50000000  1
  Sn  Sn2  1  0.50000000  0.50000000  0.00000000  1
  Mo  Mo0  1  0.00000000  0.00000000  0.00000000  1
loop_
_geom_bond_atom_site_label_1
_geom_bond_atom_site_label_2
_geom_bond_distance
_geom_bond_site_symmetry_2
Sn0 Sn2 3.156072 1_656
Sn0 Sn2 3.156072 1_555
Sn0 Sn2 3.156072 1_545
Sn0 Sn2 3.156072 1_556
Sn0 Sn1 3.181725 1_656
Sn0 Sn1 3.181725 1_544
Sn0 Sn1 3.181725 1_645
Sn0 Sn1 3.181725 1_555
Sn1 Sn2 3.156072 1_455
Sn1 Sn2 3.156072 1_555
Sn1 Sn2 3.156072 1_566
Sn1 Sn2 3.156072 1_556
Mo0 Sn0 3.156072 1_555
Mo0 Sn1 3.156072 1_444
Mo0 Sn0 3.156072 1_455
Mo0 Sn0 3.156072 1_444
Mo0 Sn0 3.156072 1_454
Mo0 Sn1 3.156072 1_555
Mo0 Sn1 3.156072 1_544
Mo0 Sn1 3.156072 1_545
Mo0 Sn2 3.181725 1_556
Mo0 Sn2 3.181725 1_444
Mo0 Sn2 3.181725 1_455
Mo0 Sn2 3.181725 1_545
