# generated using pymatgen
data_U3Sb4Pd3
_symmetry_space_group_name_H-M   'P 1'
_cell_length_a   8.43023942
_cell_length_b   8.43023942
_cell_length_c   8.43023942
_cell_angle_alpha   109.47122063
_cell_angle_beta   109.47122063
_cell_angle_gamma   109.47122063
_symmetry_Int_Tables_number   1
_chemical_formula_structural   U3Sb4Pd3
_chemical_formula_sum   'U6 Sb8 Pd6'
_cell_volume   461.20906652
_cell_formula_units_Z   2
loop_
 _symmetry_equiv_pos_site_id
 _symmetry_equiv_pos_as_xyz
  1  'x, y, z'
loop_
 _atom_site_type_symbol
 _atom_site_label
 _atom_site_symmetry_multiplicity
 _atom_site_fract_x
 _atom_site_fract_y
 _atom_site_fract_z
 _atom_site_occupancy
  U  U0  1  0.87500000  0.25000000  0.12500000  1
  U  U1  1  0.62500000  0.75000000  0.37500000  1
  U  U2  1  0.25000000  0.12500000  0.87500000  1
  U  U3  1  0.75000000  0.37500000  0.62500000  1
  U  U4  1  0.12500000  0.87500000  0.25000000  1
  U  U5  1  0.37500000  0.62500000  0.75000000  1
  Sb  Sb0  1  0.67096500  0.50000000  0.00000000  1
  Sb  Sb1  1  0.50000000  0.00000000  0.67096500  1
  Sb  Sb2  1  0.00000000  0.67096500  0.50000000  1
  Sb  Sb3  1  0.82903500  0.82903500  0.82903500  1
  Sb  Sb4  1  0.50000000  0.00000000  0.17096500  1
  Sb  Sb5  1  0.17096500  0.50000000  0.00000000  1
  Sb  Sb6  1  0.00000000  0.17096500  0.50000000  1
  Sb  Sb7  1  0.32903500  0.32903500  0.32903500  1
  Pd  Pd0  1  0.37500000  0.25000000  0.62500000  1
  Pd  Pd1  1  0.12500000  0.75000000  0.87500000  1
  Pd  Pd2  1  0.25000000  0.62500000  0.37500000  1
  Pd  Pd3  1  0.75000000  0.87500000  0.12500000  1
  Pd  Pd4  1  0.62500000  0.37500000  0.25000000  1
  Pd  Pd5  1  0.87500000  0.12500000  0.75000000  1
loop_
_geom_bond_atom_site_label_1
_geom_bond_atom_site_label_2
_geom_bond_distance
_geom_bond_site_symmetry_2
Sb0 U4 3.346620 1_655
Sb0 U0 3.346620 1_555
Sb0 U3 3.346620 1_554
Sb0 U2 3.391952 1_554
Sb0 U1 3.391952 1_555
Sb0 U5 3.391952 1_554
Sb1 U5 3.346620 1_545
Sb1 U2 3.346620 1_555
Sb1 U0 3.346620 1_556
Sb1 U4 3.391952 1_545
Sb1 U1 3.391952 1_545
Sb1 U3 3.391952 1_555
Sb2 U2 3.346620 1_565
Sb2 U1 3.346620 1_455
Sb2 U4 3.346620 1_555
Sb2 U5 3.391952 1_555
Sb2 U0 3.391952 1_455
Sb2 U3 3.391952 1_455
Sb3 U1 3.346620 1_555
Sb3 U3 3.346620 1_555
Sb3 U5 3.346620 1_555
Sb3 U0 3.391952 1_566
Sb3 U4 3.391952 1_656
Sb3 U2 3.391952 1_665
Sb4 U1 3.346620 1_545
Sb4 U4 3.346620 1_545
Sb4 U3 3.346620 1_555
Sb4 U0 3.391952 1_555
Sb4 U5 3.391952 1_544
Sb4 U2 3.391952 1_554
Sb5 U5 3.346620 1_554
Sb5 U2 3.346620 1_554
Sb5 U1 3.346620 1_555
Sb5 U4 3.391952 1_555
Sb5 U0 3.391952 1_455
Sb5 U3 3.391952 1_454
Sb6 U5 3.346620 1_555
Sb6 U0 3.346620 1_455
Sb6 U3 3.346620 1_455
Sb6 U1 3.391952 1_445
Sb6 U4 3.391952 1_545
Sb6 U2 3.391952 1_555
Sb7 U4 3.346620 1_545
Sb7 U2 3.346620 1_554
Sb7 U0 3.346620 1_455
Sb7 U5 3.391952 1_555
Sb7 U1 3.391952 1_555
Sb7 U3 3.391952 1_555
Pd0 Sb1 2.730429 1_555
Pd0 Sb0 2.730429 1_556
Pd0 Sb6 2.730429 1_555
Pd0 Sb7 2.730429 1_555
Pd0 U2 2.980540 1_555
Pd0 U3 2.980540 1_555
Pd0 U4 2.980540 1_545
Pd0 U5 2.980540 1_555
Pd1 Sb2 2.730429 1_555
Pd1 Sb5 2.730429 1_556
Pd1 Sb3 2.730429 1_455
Pd1 Sb4 2.730429 1_566
Pd1 U3 2.980540 1_455
Pd1 U2 2.980540 1_565
Pd1 U4 2.980540 1_556
Pd1 U5 2.980540 1_555
Pd2 Sb2 2.730429 1_555
Pd2 Sb1 2.730429 1_565
Pd2 Sb5 2.730429 1_555
Pd2 Sb7 2.730429 1_555
Pd2 U1 2.980540 1_555
Pd2 U5 2.980540 1_555
Pd2 U0 2.980540 1_455
Pd2 U4 2.980540 1_555
Pd3 Sb0 2.730429 1_555
Pd3 Sb4 2.730429 1_565
Pd3 Sb3 2.730429 1_554
Pd3 Sb6 2.730429 1_665
Pd3 U1 2.980540 1_555
Pd3 U0 2.980540 1_565
Pd3 U5 2.980540 1_554
Pd3 U4 2.980540 1_655
Pd4 Sb0 2.730429 1_555
Pd4 Sb2 2.730429 1_655
Pd4 Sb4 2.730429 1_555
Pd4 Sb7 2.730429 1_555
Pd4 U3 2.980540 1_555
Pd4 U2 2.980540 1_554
Pd4 U0 2.980540 1_555
Pd4 U1 2.980540 1_555
Pd5 Sb1 2.730429 1_555
Pd5 Sb3 2.730429 1_545
Pd5 Sb5 2.730429 1_656
Pd5 Sb6 2.730429 1_655
Pd5 U0 2.980540 1_556
Pd5 U2 2.980540 1_655
Pd5 U3 2.980540 1_555
Pd5 U1 2.980540 1_545
