# generated using pymatgen
data_Rb3H(SO4)2
_symmetry_space_group_name_H-M   'P 1'
_cell_length_a   8.32328093
_cell_length_b   8.32328093
_cell_length_c   10.33993631
_cell_angle_alpha   78.70816082
_cell_angle_beta   78.70816082
_cell_angle_gamma   42.13031725
_symmetry_Int_Tables_number   1
_chemical_formula_structural   Rb3H(SO4)2
_chemical_formula_sum   'Rb6 H2 S4 O16'
_cell_volume   469.82374505
_cell_formula_units_Z   2
loop_
 _symmetry_equiv_pos_site_id
 _symmetry_equiv_pos_as_xyz
  1  'x, y, z'
loop_
 _atom_site_type_symbol
 _atom_site_label
 _atom_site_symmetry_multiplicity
 _atom_site_fract_x
 _atom_site_fract_y
 _atom_site_fract_z
 _atom_site_occupancy
  Rb  Rb0  1  0.73935900  0.25341400  0.75023600  1
  Rb  Rb1  1  0.25341400  0.73935900  0.25023600  1
  Rb  Rb2  1  0.53587500  0.08549600  0.15196100  1
  Rb  Rb3  1  0.92062800  0.46542300  0.34825200  1
  Rb  Rb4  1  0.46542300  0.92062800  0.84825200  1
  Rb  Rb5  1  0.08549600  0.53587500  0.65196100  1
  H  H0  1  0.03753600  0.96712500  0.51094600  1
  H  H1  1  0.96712500  0.03753600  0.01094600  1
  S  S0  1  0.34112500  0.89570500  0.53604000  1
  S  S1  1  0.10251400  0.67085000  0.96451800  1
  S  S2  1  0.67085000  0.10251400  0.46451800  1
  S  S3  1  0.89570500  0.34112500  0.03604000  1
  O  O0  1  0.38439700  0.91855900  0.39165400  1
  O  O1  1  0.07953400  0.61763600  0.10920800  1
  O  O2  1  0.61763600  0.07953400  0.60920800  1
  O  O3  1  0.91855900  0.38439700  0.89165400  1
  O  O4  1  0.56241000  0.69475300  0.60355600  1
  O  O5  1  0.30367700  0.44600100  0.89684200  1
  O  O6  1  0.44600100  0.30367700  0.39684200  1
  O  O7  1  0.69475300  0.56241000  0.10355600  1
  O  O8  1  0.20292900  0.82610000  0.55821200  1
  O  O9  1  0.15586200  0.81507400  0.94775000  1
  O  O10  1  0.81507400  0.15586200  0.44775000  1
  O  O11  1  0.82610000  0.20292900  0.05821200  1
  O  O12  1  0.17995800  0.12517600  0.59612300  1
  O  O13  1  0.87222900  0.82265500  0.90470100  1
  O  O14  1  0.82265500  0.87222900  0.40470100  1
  O  O15  1  0.12517600  0.17995800  0.09612300  1
loop_
_geom_bond_atom_site_label_1
_geom_bond_atom_site_label_2
_geom_bond_distance
_geom_bond_site_symmetry_2
H0 O8 1.074158 1_555
H0 O10 1.442469 1_465
H0 Rb0 3.015263 1_465
H0 Rb1 3.023479 1_555
H1 O11 1.074158 1_555
H1 O9 1.442469 1_644
H1 Rb1 3.015263 1_645
H1 Rb0 3.023479 1_554
O0 S0 1.474656 1_555
O0 Rb3 3.042522 1_555
O0 Rb1 3.072731 1_555
O0 Rb3 3.104448 1_465
O0 Rb2 3.112689 1_565
O1 S1 1.491685 1_554
O1 Rb1 2.971066 1_555
O1 Rb2 3.029467 1_555
O1 Rb3 3.072870 1_455
O1 Rb2 3.096780 1_465
O2 S2 1.491685 1_555
O2 Rb0 2.971066 1_555
O2 Rb5 3.029467 1_555
O2 Rb4 3.072870 1_545
O2 Rb5 3.096780 1_645
O3 S3 1.474656 1_556
O3 Rb4 3.042522 1_555
O3 Rb0 3.072731 1_555
O3 Rb4 3.104448 1_645
O3 Rb5 3.112689 1_655
O4 S0 1.467715 1_555
O4 Rb0 2.937955 1_555
O4 Rb4 3.065885 1_555
O4 Rb3 3.154589 1_555
O5 S1 1.483853 1_555
O5 Rb0 2.862611 1_555
O5 Rb5 3.051674 1_555
O5 Rb2 3.161103 1_556
O6 S2 1.483853 1_555
O6 Rb1 2.862611 1_555
O6 Rb2 3.051674 1_555
O6 Rb5 3.161103 1_555
O7 S3 1.467715 1_555
O7 Rb1 2.937955 1_555
O7 Rb3 3.065885 1_555
O7 Rb4 3.154589 1_554
O8 S0 1.595113 1_555
O8 Rb5 3.153457 1_555
O8 Rb1 3.280990 1_555
O8 Rb0 3.300031 1_465
O9 S1 1.532048 1_555
O9 Rb1 3.209750 1_556
O9 Rb4 3.230244 1_555
O9 Rb0 3.254918 1_465
O10 S2 1.532048 1_555
O10 Rb0 3.209750 1_555
O10 Rb3 3.230244 1_555
O10 Rb1 3.254918 1_645
O11 S3 1.595113 1_555
O11 Rb2 3.153457 1_555
O11 Rb0 3.280990 1_554
O11 Rb1 3.300031 1_645
O12 S0 1.473586 1_545
O12 Rb5 3.040631 1_555
O12 Rb3 3.083057 1_455
O12 Rb0 3.114308 1_455
O12 Rb4 3.166702 1_545
O13 S1 1.489611 1_655
O13 Rb4 2.993752 1_555
O13 Rb0 3.032589 1_565
O13 Rb2 3.076229 1_566
O13 Rb5 3.165362 1_655
O14 S2 1.489611 1_565
O14 Rb3 2.993752 1_555
O14 Rb1 3.032589 1_655
O14 Rb5 3.076229 1_655
O14 Rb2 3.165362 1_565
O15 S3 1.473586 1_455
O15 Rb2 3.040631 1_555
O15 Rb4 3.083057 1_544
O15 Rb1 3.114308 1_545
O15 Rb3 3.166702 1_455
