# generated using pymatgen
data_RbDyP2O7
_symmetry_space_group_name_H-M   'P 1'
_cell_length_a   7.88909480
_cell_length_b   8.84131746
_cell_length_c   11.08292800
_cell_angle_alpha   90.00000000
_cell_angle_beta   90.00000000
_cell_angle_gamma   105.86746670
_symmetry_Int_Tables_number   1
_chemical_formula_structural   RbDyP2O7
_chemical_formula_sum   'Rb4 Dy4 P8 O28'
_cell_volume   743.57899265
_cell_formula_units_Z   4
loop_
 _symmetry_equiv_pos_site_id
 _symmetry_equiv_pos_as_xyz
  1  'x, y, z'
loop_
 _atom_site_type_symbol
 _atom_site_label
 _atom_site_symmetry_multiplicity
 _atom_site_fract_x
 _atom_site_fract_y
 _atom_site_fract_z
 _atom_site_occupancy
  Rb  Rb0  1  0.81760200  0.94247900  0.31818000  1
  Rb  Rb1  1  0.18239800  0.05752100  0.68182000  1
  Rb  Rb2  1  0.18239800  0.55752100  0.81818000  1
  Rb  Rb3  1  0.81760200  0.44247900  0.18182000  1
  Dy  Dy0  1  0.76316000  0.74306600  0.89999700  1
  Dy  Dy1  1  0.23684000  0.25693400  0.10000300  1
  Dy  Dy2  1  0.23684000  0.75693400  0.39999700  1
  Dy  Dy3  1  0.76316000  0.24306600  0.60000300  1
  P  P0  1  0.56697000  0.80889400  0.63329000  1
  P  P1  1  0.43303000  0.19110600  0.36671000  1
  P  P2  1  0.43303000  0.69110600  0.13329000  1
  P  P3  1  0.56697000  0.30889400  0.86671000  1
  P  P4  1  0.86778600  0.67693800  0.59806300  1
  P  P5  1  0.13221400  0.32306200  0.40193700  1
  P  P6  1  0.13221400  0.82306200  0.09806300  1
  P  P7  1  0.86778600  0.17693800  0.90193700  1
  O  O0  1  0.38552900  0.76603700  0.57357300  1
  O  O1  1  0.61447100  0.23396300  0.42642700  1
  O  O2  1  0.61447100  0.73396300  0.07357300  1
  O  O3  1  0.38552900  0.26603700  0.92642700  1
  O  O4  1  0.91987900  0.74290800  0.72545900  1
  O  O5  1  0.08012100  0.25709200  0.27454100  1
  O  O6  1  0.08012100  0.75709200  0.22545900  1
  O  O7  1  0.91987900  0.24290800  0.77454100  1
  O  O8  1  0.55261200  0.76203000  0.76677600  1
  O  O9  1  0.44738800  0.23797000  0.23322400  1
  O  O10  1  0.44738800  0.73797000  0.26677600  1
  O  O11  1  0.55261200  0.26203000  0.73322400  1
  O  O12  1  0.67170500  0.97887100  0.60877900  1
  O  O13  1  0.32829500  0.02112900  0.39122100  1
  O  O14  1  0.32829500  0.52112900  0.10877900  1
  O  O15  1  0.67170500  0.47887100  0.89122100  1
  O  O16  1  0.85063400  0.00234100  0.90966700  1
  O  O17  1  0.14936600  0.99765900  0.09033300  1
  O  O18  1  0.14936600  0.49765900  0.40966700  1
  O  O19  1  0.85063400  0.50234100  0.59033300  1
  O  O20  1  0.67393700  0.69814200  0.56548400  1
  O  O21  1  0.32606300  0.30185800  0.43451600  1
  O  O22  1  0.32606300  0.80185800  0.06548400  1
  O  O23  1  0.67393700  0.19814200  0.93451600  1
  O  O24  1  0.00688900  0.72621000  0.00256700  1
  O  O25  1  0.99311100  0.27379000  0.99743300  1
  O  O26  1  0.99311100  0.77379000  0.50256700  1
  O  O27  1  0.00688900  0.22621000  0.49743300  1
loop_
_geom_bond_atom_site_label_1
_geom_bond_atom_site_label_2
_geom_bond_distance
_geom_bond_site_symmetry_2
Dy0 O16 2.208499 1_565
Dy0 O2 2.243116 1_556
Dy0 O15 2.250459 1_555
Dy0 O8 2.262614 1_555
Dy0 O24 2.273396 1_656
Dy0 O4 2.295960 1_555
Dy1 O17 2.208499 1_545
Dy1 O3 2.243116 1_554
Dy1 O14 2.250459 1_555
Dy1 O9 2.262614 1_555
Dy1 O25 2.273396 1_454
Dy1 O5 2.295960 1_555
Dy2 O18 2.208499 1_555
Dy2 O0 2.243116 1_555
Dy2 O13 2.250459 1_565
Dy2 O10 2.262614 1_555
Dy2 O26 2.273396 1_455
Dy2 O6 2.295960 1_555
Dy3 O19 2.208499 1_555
Dy3 O1 2.243116 1_555
Dy3 O12 2.250459 1_545
Dy3 O11 2.262614 1_555
Dy3 O27 2.273396 1_655
Dy3 O7 2.295960 1_555
O0 P0 1.527724 1_555
O0 Rb2 3.420610 1_555
O0 Rb1 3.592646 1_565
O1 P1 1.527724 1_555
O1 Rb3 3.420610 1_555
O1 Rb0 3.592646 1_545
O2 P2 1.527724 1_555
O2 Rb0 3.420610 1_555
O2 Rb3 3.592646 1_555
O3 P3 1.527724 1_555
O3 Rb1 3.420610 1_555
O3 Rb2 3.592646 1_555
O4 P4 1.539978 1_555
O4 Rb1 3.018315 1_665
O4 Rb2 3.144514 1_655
O5 P5 1.539978 1_555
O5 Rb0 3.018315 1_445
O5 Rb3 3.144514 1_455
O6 P6 1.539978 1_555
O6 Rb3 3.018315 1_455
O6 Rb0 3.144514 1_455
O7 P7 1.539978 1_555
O7 Rb2 3.018315 1_655
O7 Rb1 3.144514 1_655
O8 P0 1.532160 1_555
O8 Rb2 3.039139 1_555
O9 P1 1.532160 1_555
O9 Rb3 3.039139 1_555
O10 P2 1.532160 1_555
O10 Rb0 3.039139 1_555
O11 P3 1.532160 1_555
O11 Rb1 3.039139 1_555
O12 P0 1.528388 1_555
O12 Rb0 3.464629 1_555
O13 P1 1.528388 1_555
O13 Rb1 3.464629 1_555
O14 P2 1.528388 1_555
O14 Rb2 3.464629 1_554
O15 P3 1.528388 1_555
O15 Rb3 3.464629 1_556
O16 P7 1.514707 1_555
O16 Rb1 3.573068 1_655
O17 P6 1.514707 1_555
O17 Rb0 3.573068 1_455
O18 P5 1.514707 1_555
O18 Rb3 3.573068 1_455
O19 P4 1.514707 1_555
O19 Rb2 3.573068 1_655
O20 P4 1.631266 1_555
O20 P0 1.639368 1_555
O20 Rb0 3.482055 1_555
O21 P5 1.631266 1_555
O21 P1 1.639368 1_555
O21 Rb1 3.482055 1_555
O22 P6 1.631266 1_555
O22 P2 1.639368 1_555
O22 Rb2 3.482055 1_554
O23 P7 1.631266 1_555
O23 P3 1.639368 1_555
O23 Rb3 3.482055 1_556
O24 P6 1.538824 1_555
O24 Rb2 3.073568 1_554
O24 Rb3 3.228180 1_455
O25 P7 1.538824 1_555
O25 Rb3 3.073568 1_556
O25 Rb2 3.228180 1_655
O26 P4 1.538824 1_555
O26 Rb0 3.073568 1_555
O26 Rb1 3.228180 1_665
O27 P5 1.538824 1_555
O27 Rb1 3.073568 1_555
O27 Rb0 3.228180 1_445
