# generated using pymatgen
data_Li9Mn2Co5O16
_symmetry_space_group_name_H-M   'P 1'
_cell_length_a   5.78741400
_cell_length_b   5.85339200
_cell_length_c   8.44861004
_cell_angle_alpha   89.70492097
_cell_angle_beta   90.00000000
_cell_angle_gamma   90.00000000
_symmetry_Int_Tables_number   1
_chemical_formula_structural   Li9Mn2Co5O16
_chemical_formula_sum   'Li9 Mn2 Co5 O16'
_cell_volume   286.20134197
_cell_formula_units_Z   1
loop_
 _symmetry_equiv_pos_site_id
 _symmetry_equiv_pos_as_xyz
  1  'x, y, z'
loop_
 _atom_site_type_symbol
 _atom_site_label
 _atom_site_symmetry_multiplicity
 _atom_site_fract_x
 _atom_site_fract_y
 _atom_site_fract_z
 _atom_site_occupancy
  Li  Li0  1  0.50000000  0.74818700  0.74720200  1
  Li  Li1  1  0.50000000  0.25009100  0.25854900  1
  Li  Li2  1  0.75586600  0.00557800  0.50755200  1
  Li  Li3  1  0.75392900  0.49764900  0.99054500  1
  Li  Li4  1  0.00000000  0.25438100  0.25331900  1
  Li  Li5  1  0.00000000  0.74888900  0.74264900  1
  Li  Li6  1  0.24607100  0.49764900  0.99054500  1
  Li  Li7  1  0.24413400  0.00557800  0.50755200  1
  Li  Li8  1  0.00000000  0.25040900  0.74799000  1
  Mn  Mn0  1  0.24803800  0.00271200  0.99707300  1
  Mn  Mn1  1  0.75196200  0.00271200  0.99707300  1
  Co  Co0  1  0.24492100  0.49201300  0.50768200  1
  Co  Co1  1  0.50000000  0.25337600  0.75020500  1
  Co  Co2  1  0.50000000  0.74277800  0.25892600  1
  Co  Co3  1  0.75507900  0.49201300  0.50768200  1
  Co  Co4  1  0.00000000  0.74820200  0.25355200  1
  O  O0  1  0.50000000  0.77425700  0.00873300  1
  O  O1  1  0.50000000  0.25633200  0.49376800  1
  O  O2  1  0.73311600  0.01773600  0.77241200  1
  O  O3  1  0.76127500  0.52190000  0.25132200  1
  O  O4  1  0.00000000  0.26577500  0.49896600  1
  O  O5  1  0.00000000  0.77805400  0.98677500  1
  O  O6  1  0.23872500  0.52190000  0.25132200  1
  O  O7  1  0.26688400  0.01773600  0.77241200  1
  O  O8  1  0.50000000  0.73899700  0.48527800  1
  O  O9  1  0.50000000  0.22370200  0.01440900  1
  O  O10  1  0.76107200  0.97711500  0.22995200  1
  O  O11  1  0.73227400  0.48394900  0.74091100  1
  O  O12  1  0.00000000  0.22336500  0.00234200  1
  O  O13  1  0.00000000  0.74590100  0.50243800  1
  O  O14  1  0.26772600  0.48394900  0.74091100  1
  O  O15  1  0.23892800  0.97711500  0.22995200  1
loop_
_geom_bond_atom_site_label_1
_geom_bond_atom_site_label_2
_geom_bond_distance
_geom_bond_site_symmetry_2
Li0 O11 2.050114 1_555
Li0 O14 2.050114 1_555
Li0 O7 2.087673 1_565
Li0 O2 2.087673 1_565
Li0 O8 2.213824 1_555
Li0 O0 2.215620 1_556
Li1 O1 1.987797 1_555
Li1 O9 2.069212 1_555
Li1 O3 2.195561 1_555
Li1 O6 2.195561 1_555
Li1 O10 2.213220 1_545
Li1 O15 2.213220 1_545
Li2 O13 2.075865 1_645
Li2 O4 2.078475 1_655
Li2 O1 2.087798 1_555
Li2 O8 2.160109 1_545
Li2 O2 2.243064 1_555
Li2 O10 2.352293 1_545
Li3 O11 2.114714 1_555
Li3 O12 2.148021 1_656
Li3 O5 2.173134 1_655
Li3 O9 2.183643 1_556
Li3 O0 2.192566 1_556
Li3 O3 2.208910 1_556
Li4 O4 2.076790 1_555
Li4 O6 2.088266 1_555
Li4 O3 2.088266 1_455
Li4 O12 2.129096 1_555
Li4 O10 2.142031 1_445
Li4 O15 2.142031 1_545
Li5 O13 2.029614 1_555
Li5 O5 2.070454 1_555
Li5 O14 2.192303 1_555
Li5 O11 2.192303 1_455
Li5 O7 2.220231 1_565
Li5 O2 2.220231 1_465
Li6 O14 2.114714 1_555
Li6 O12 2.148021 1_556
Li6 O5 2.173134 1_555
Li6 O9 2.183643 1_556
Li6 O0 2.192566 1_556
Li6 O6 2.208910 1_556
Li7 O13 2.075865 1_545
Li7 O4 2.078475 1_555
Li7 O1 2.087798 1_555
Li7 O8 2.160109 1_545
Li7 O7 2.243064 1_555
Li7 O15 2.352293 1_545
Li8 O14 2.066929 1_555
Li8 O11 2.066929 1_455
Li8 O2 2.068867 1_455
Li8 O7 2.068867 1_555
Li8 O4 2.105366 1_555
Li8 O12 2.153930 1_556
Mn0 O7 1.902785 1_555
Mn0 O12 1.931678 1_556
Mn0 O5 1.949015 1_545
Mn0 O9 1.955255 1_556
Mn0 O15 1.973135 1_546
Mn0 O0 1.980637 1_546
Mn1 O2 1.902785 1_555
Mn1 O12 1.931678 1_656
Mn1 O5 1.949015 1_645
Mn1 O9 1.955255 1_556
Mn1 O10 1.973135 1_546
Mn1 O0 1.980637 1_546
Co0 O4 1.941464 1_555
Co0 O14 1.975198 1_555
Co0 O1 2.024329 1_555
Co0 O13 2.054017 1_555
Co0 O8 2.074210 1_555
Co0 O6 2.172337 1_555
Co1 O11 1.906210 1_555
Co1 O14 1.906210 1_555
Co1 O7 1.937824 1_555
Co1 O2 1.937824 1_555
Co1 O1 2.166516 1_555
Co1 O9 2.238012 1_556
Co2 O8 1.912374 1_555
Co2 O3 1.990729 1_555
Co2 O6 1.990729 1_555
Co2 O15 2.054470 1_555
Co2 O10 2.054470 1_555
Co2 O0 2.120853 1_555
Co3 O4 1.941464 1_655
Co3 O11 1.975198 1_555
Co3 O1 2.024329 1_555
Co3 O13 2.054017 1_655
Co3 O8 2.074210 1_555
Co3 O3 2.172337 1_555
Co4 O6 1.914181 1_555
Co4 O3 1.914181 1_455
Co4 O15 1.935058 1_555
Co4 O10 1.935058 1_455
Co4 O13 2.102715 1_555
Co4 O5 2.259761 1_554
