# generated using pymatgen
data_CrCo3
_symmetry_space_group_name_H-M   'P 1'
_cell_length_a   4.07108832
_cell_length_b   5.01771823
_cell_length_c   5.01772022
_cell_angle_alpha   120.00031106
_cell_angle_beta   90.00000000
_cell_angle_gamma   90.00000000
_symmetry_Int_Tables_number   1
_chemical_formula_structural   CrCo3
_chemical_formula_sum   'Cr2 Co6'
_cell_volume   88.76719692
_cell_formula_units_Z   2
loop_
 _symmetry_equiv_pos_site_id
 _symmetry_equiv_pos_as_xyz
  1  'x, y, z'
loop_
 _atom_site_type_symbol
 _atom_site_label
 _atom_site_symmetry_multiplicity
 _atom_site_fract_x
 _atom_site_fract_y
 _atom_site_fract_z
 _atom_site_occupancy
  Cr  Cr0  1  0.75000000  0.66666384  0.33333616  1
  Cr  Cr1  1  0.25000000  0.33333616  0.66666384  1
  Co  Co0  1  0.75000000  0.16143782  0.32288470  1
  Co  Co1  1  0.75000000  0.16144799  0.83855501  1
  Co  Co2  1  0.75000000  0.67711330  0.83856318  1
  Co  Co3  1  0.25000000  0.83856218  0.67711530  1
  Co  Co4  1  0.25000000  0.83855201  0.16144499  1
  Co  Co5  1  0.25000000  0.32288670  0.16143682  1
loop_
_geom_bond_atom_site_label_1
_geom_bond_atom_site_label_2
_geom_bond_distance
_geom_bond_site_symmetry_2
Co0 Co2 2.430186 1_544
Co0 Co1 2.430256 1_554
Co0 Co4 2.472265 1_645
Co0 Co4 2.472265 1_545
Co0 Co5 2.472296 1_655
Co0 Co5 2.472296 1_555
Co0 Cr0 2.509269 1_545
Co0 Cr0 2.509271 1_555
Co0 Cr1 2.524899 1_555
Co0 Cr1 2.524899 1_655
Co0 Co1 2.587464 1_555
Co0 Co2 2.587510 1_555
Co1 Co2 2.430275 1_545
Co1 Co5 2.472255 1_556
Co1 Co5 2.472255 1_656
Co1 Co3 2.472265 1_645
Co1 Co3 2.472265 1_545
Co1 Cr0 2.509250 1_556
Co1 Cr0 2.509265 1_545
Co1 Cr1 2.524903 1_555
Co1 Cr1 2.524903 1_655
Co1 Co2 2.587443 1_555
Co2 Co4 2.472255 1_556
Co2 Co4 2.472255 1_656
Co2 Co3 2.472296 1_655
Co2 Co3 2.472296 1_555
Co2 Cr0 2.509260 1_556
Co2 Cr0 2.509282 1_555
Co2 Cr1 2.524893 1_655
Co2 Cr1 2.524893 1_555
Co3 Co5 2.430186 1_566
Co3 Co4 2.430256 1_556
Co3 Cr1 2.509269 1_565
Co3 Cr1 2.509271 1_555
Co3 Cr0 2.524899 1_455
Co3 Cr0 2.524899 1_555
Co3 Co4 2.587464 1_555
Co3 Co5 2.587510 1_555
Co4 Co5 2.430275 1_565
Co4 Cr1 2.509250 1_554
Co4 Cr1 2.509265 1_565
Co4 Cr0 2.524903 1_455
Co4 Cr0 2.524903 1_555
Co4 Co5 2.587443 1_555
Co5 Cr1 2.509260 1_554
Co5 Cr1 2.509282 1_555
Co5 Cr0 2.524893 1_455
Co5 Cr0 2.524893 1_555
