# generated using pymatgen
data_ErCd2Cu
_symmetry_space_group_name_H-M   'P 1'
_cell_length_a   6.30990022
_cell_length_b   6.30990022
_cell_length_c   4.62766700
_cell_angle_alpha   90.00000000
_cell_angle_beta   90.00000000
_cell_angle_gamma   113.09889535
_symmetry_Int_Tables_number   1
_chemical_formula_structural   ErCd2Cu
_chemical_formula_sum   'Er2 Cd4 Cu2'
_cell_volume   169.47834340
_cell_formula_units_Z   2
loop_
 _symmetry_equiv_pos_site_id
 _symmetry_equiv_pos_as_xyz
  1  'x, y, z'
loop_
 _atom_site_type_symbol
 _atom_site_label
 _atom_site_symmetry_multiplicity
 _atom_site_fract_x
 _atom_site_fract_y
 _atom_site_fract_z
 _atom_site_occupancy
  Er  Er0  1  0.14064800  0.85935200  0.75000000  1
  Er  Er1  1  0.85935200  0.14064800  0.25000000  1
  Cd  Cd0  1  0.38695900  0.19636100  0.25000000  1
  Cd  Cd1  1  0.61304100  0.80363900  0.75000000  1
  Cd  Cd2  1  0.80363900  0.61304100  0.25000000  1
  Cd  Cd3  1  0.19636100  0.38695900  0.75000000  1
  Cu  Cu0  1  0.32022800  0.67977200  0.25000000  1
  Cu  Cu1  1  0.67977200  0.32022800  0.75000000  1
loop_
_geom_bond_atom_site_label_1
_geom_bond_atom_site_label_2
_geom_bond_distance
_geom_bond_site_symmetry_2
Cd0 Cu1 2.871468 1_555
Cd0 Cu1 2.871468 1_554
Cd0 Cd2 2.898530 1_555
Cd0 Cd3 3.062918 1_555
Cd0 Cd3 3.062918 1_554
Cd0 Er0 3.114178 1_544
Cd0 Er0 3.114178 1_545
Cd0 Cu0 3.118577 1_545
Cd0 Er1 3.135389 1_555
Cd0 Er1 3.207571 1_455
Cd0 Cu0 3.238710 1_555
Cd1 Cu0 2.871468 1_556
Cd1 Cu0 2.871468 1_555
Cd1 Cd3 2.898530 1_555
Cd1 Cd2 3.062918 1_555
Cd1 Cd2 3.062918 1_556
Cd1 Er1 3.114178 1_565
Cd1 Er1 3.114178 1_566
Cd1 Cu1 3.118577 1_565
Cd1 Er0 3.135389 1_555
Cd1 Er0 3.207571 1_655
Cd1 Cu1 3.238710 1_555
Cd2 Cu1 2.871468 1_554
Cd2 Cu1 2.871468 1_555
Cd2 Er0 3.114178 1_655
Cd2 Er0 3.114178 1_654
Cd2 Cu0 3.118577 1_655
Cd2 Er1 3.135389 1_555
Cd2 Er1 3.207571 1_565
Cd2 Cu0 3.238710 1_555
Cd3 Cu0 2.871468 1_555
Cd3 Cu0 2.871468 1_556
Cd3 Er1 3.114178 1_455
Cd3 Er1 3.114178 1_456
Cd3 Cu1 3.118577 1_455
Cd3 Er0 3.135389 1_555
Cd3 Er0 3.207571 1_545
Cd3 Cu1 3.238710 1_555
Cu0 Er0 2.988188 1_554
Cu0 Er0 2.988188 1_555
Cu0 Er1 3.502436 1_565
Cu0 Er1 3.502436 1_455
Cu1 Er1 2.988188 1_556
Cu1 Er1 2.988188 1_555
Cu1 Er0 3.502436 1_655
Cu1 Er0 3.502436 1_545
