# generated using pymatgen
data_Lu(BRh)4
_symmetry_space_group_name_H-M   'P 1'
_cell_length_a   9.15010259
_cell_length_b   9.15010259
_cell_length_c   9.15010259
_cell_angle_alpha   131.49654737
_cell_angle_beta   131.49654737
_cell_angle_gamma   71.02534735
_symmetry_Int_Tables_number   1
_chemical_formula_structural   Lu(BRh)4
_chemical_formula_sum   'Lu4 B16 Rh16'
_cell_volume   420.82617647
_cell_formula_units_Z   4
loop_
 _symmetry_equiv_pos_site_id
 _symmetry_equiv_pos_as_xyz
  1  'x, y, z'
loop_
 _atom_site_type_symbol
 _atom_site_label
 _atom_site_symmetry_multiplicity
 _atom_site_fract_x
 _atom_site_fract_y
 _atom_site_fract_z
 _atom_site_occupancy
  Lu  Lu0  1  0.75000000  0.75000000  0.00000000  1
  Lu  Lu1  1  0.50000000  0.00000000  0.50000000  1
  Lu  Lu2  1  0.00000000  0.50000000  0.50000000  1
  Lu  Lu3  1  0.25000000  0.25000000  0.00000000  1
  B  B0  1  0.74764300  0.05482500  0.96704900  1
  B  B1  1  0.08777600  0.78059400  0.03295100  1
  B  B2  1  0.50235700  0.96940600  0.80718300  1
  B  B3  1  0.16222400  0.69517500  0.19281700  1
  B  B4  1  0.44517500  0.75235700  0.03295100  1
  B  B5  1  0.71940600  0.41222400  0.96704900  1
  B  B6  1  0.53059400  0.99764300  0.19281700  1
  B  B7  1  0.80482500  0.33777600  0.80718300  1
  B  B8  1  0.00235700  0.19517500  0.53295100  1
  B  B9  1  0.66222400  0.46940600  0.46704900  1
  B  B10  1  0.24764300  0.28059400  0.69281700  1
  B  B11  1  0.58777600  0.55482500  0.30718300  1
  B  B12  1  0.30482500  0.49764300  0.46704900  1
  B  B13  1  0.03059400  0.83777600  0.53295100  1
  B  B14  1  0.21940600  0.25235700  0.30718300  1
  B  B15  1  0.94517500  0.91222400  0.69281700  1
  Rh  Rh0  1  0.69678300  0.15907200  0.22926800  1
  Rh  Rh1  1  0.92980500  0.46751500  0.77073200  1
  Rh  Rh2  1  0.55321700  0.28248500  0.96228900  1
  Rh  Rh3  1  0.32019500  0.59092800  0.03771100  1
  Rh  Rh4  1  0.34092800  0.80321700  0.77073200  1
  Rh  Rh5  1  0.03248500  0.57019500  0.22926800  1
  Rh  Rh6  1  0.21751500  0.94678300  0.03771100  1
  Rh  Rh7  1  0.90907200  0.17980500  0.96228900  1
  Rh  Rh8  1  0.05321700  0.09092800  0.27073200  1
  Rh  Rh9  1  0.82019500  0.78248500  0.72926800  1
  Rh  Rh10  1  0.19678300  0.96751500  0.53771100  1
  Rh  Rh11  1  0.42980500  0.65907200  0.46228900  1
  Rh  Rh12  1  0.40907200  0.44678300  0.72926800  1
  Rh  Rh13  1  0.71751500  0.67980500  0.27073200  1
  Rh  Rh14  1  0.53248500  0.30321700  0.46228900  1
  Rh  Rh15  1  0.84092800  0.07019500  0.53771100  1
loop_
_geom_bond_atom_site_label_1
_geom_bond_atom_site_label_2
_geom_bond_distance
_geom_bond_site_symmetry_2
Lu0 Rh4 2.900238 1_554
Lu0 Rh0 2.900238 1_565
Lu0 Rh1 2.900245 1_554
Lu0 Rh5 2.900245 1_655
Lu0 Rh13 3.137816 1_555
Lu0 Rh9 3.137816 1_554
Lu0 Rh8 3.137823 1_665
Lu0 Rh12 3.137823 1_554
Lu0 Rh10 3.246861 1_655
Lu0 Rh14 3.246861 1_554
Lu0 Rh11 3.246861 1_554
Lu0 Rh15 3.246861 1_565
Lu1 Rh2 2.900238 1_555
Lu1 Rh6 2.900238 1_545
Lu1 Rh3 2.900238 1_545
Lu1 Rh7 2.900238 1_555
Lu1 Rh15 3.137819 1_555
Lu1 Rh11 3.137819 1_545
Lu1 Rh10 3.137823 1_545
Lu1 Rh14 3.137823 1_555
Lu1 Rh13 3.246858 1_545
Lu1 Rh9 3.246858 1_545
Lu1 Rh12 3.246861 1_555
Lu1 Rh8 3.246861 1_555
Lu2 Rh12 2.900238 1_555
Lu2 Rh8 2.900238 1_555
Lu2 Rh13 2.900245 1_455
Lu2 Rh9 2.900245 1_455
Lu2 Rh1 3.137816 1_455
Lu2 Rh5 3.137816 1_555
Lu2 Rh4 3.137823 1_555
Lu2 Rh0 3.137823 1_455
Lu2 Rh6 3.246861 1_556
Lu2 Rh2 3.246861 1_454
Lu2 Rh3 3.246861 1_556
Lu2 Rh7 3.246861 1_454
Lu3 Rh10 2.900238 1_544
Lu3 Rh14 2.900238 1_555
Lu3 Rh15 2.900238 1_454
Lu3 Rh11 2.900238 1_555
Lu3 Rh7 3.137819 1_454
Lu3 Rh3 3.137819 1_555
Lu3 Rh6 3.137823 1_545
Lu3 Rh2 3.137823 1_554
Lu3 Rh5 3.246858 1_555
Lu3 Rh1 3.246858 1_454
Lu3 Rh4 3.246861 1_544
Lu3 Rh0 3.246861 1_555
B0 B2 1.750165 1_545
B0 Rh8 2.176435 1_656
B0 Rh7 2.177429 1_555
B0 Rh9 2.244504 1_545
B0 Rh0 2.245305 1_556
B0 Rh2 2.261364 1_555
B0 Lu1 2.952185 1_555
B0 Lu0 2.989573 1_546
B0 Lu2 3.252257 1_656
B1 B3 1.750154 1_555
B1 Rh9 2.176437 1_454
B1 Rh6 2.177422 1_555
B1 Rh8 2.244509 1_565
B1 Rh1 2.245302 1_454
B1 Rh3 2.261358 1_555
B1 Lu1 2.952185 1_565
B1 Lu0 2.989573 1_455
B1 Lu2 3.252257 1_554
B2 Rh10 2.176437 1_555
B2 Rh4 2.177415 1_555
B2 Rh11 2.244515 1_555
B2 Rh2 2.245309 1_565
B2 Rh0 2.261358 1_566
B2 Lu0 2.952180 1_556
B2 Lu1 2.989582 1_565
B2 Lu3 3.252253 1_566
B3 Rh11 2.176442 1_555
B3 Rh5 2.177437 1_555
B3 Rh10 2.244515 1_555
B3 Rh3 2.245290 1_555
B3 Rh1 2.261359 1_454
B3 Lu0 2.952187 1_455
B3 Lu1 2.989570 1_565
B3 Lu3 3.252258 1_555
B4 B6 1.750165 1_555
B4 Rh12 2.176435 1_554
B4 Rh3 2.177429 1_555
B4 Rh13 2.244504 1_555
B4 Rh4 2.245305 1_554
B4 Rh6 2.261364 1_555
B4 Lu1 2.952185 1_565
B4 Lu0 2.989573 1_555
B4 Lu2 3.252257 1_554
B5 B7 1.750154 1_555
B5 Rh13 2.176437 1_556
B5 Rh2 2.177422 1_555
B5 Rh12 2.244509 1_555
B5 Rh5 2.245302 1_656
B5 Rh7 2.261358 1_555
B5 Lu1 2.952185 1_555
B5 Lu0 2.989573 1_556
B5 Lu2 3.252257 1_656
B6 Rh14 2.176437 1_565
B6 Rh0 2.177415 1_565
B6 Rh15 2.244515 1_565
B6 Rh6 2.245309 1_555
B6 Rh4 2.261358 1_554
B6 Lu0 2.952180 1_555
B6 Lu1 2.989582 1_565
B6 Lu3 3.252253 1_565
B7 Rh15 2.176442 1_555
B7 Rh1 2.177437 1_555
B7 Rh14 2.244515 1_555
B7 Rh7 2.245290 1_555
B7 Rh5 2.261359 1_656
B7 Lu0 2.952187 1_556
B7 Lu1 2.989570 1_555
B7 Lu3 3.252258 1_656
B8 Rh0 2.176435 1_455
B8 Rh15 2.177429 1_455
B8 Rh1 2.244504 1_455
B8 Rh8 2.245305 1_555
B8 Rh10 2.261364 1_545
B8 Lu3 2.952185 1_556
B8 Lu2 2.989573 1_555
B8 Lu0 3.252257 1_445
B9 Rh1 2.176437 1_555
B9 Rh14 2.177422 1_555
B9 Rh0 2.244509 1_555
B9 Rh9 2.245302 1_555
B9 Rh11 2.261358 1_555
B9 Lu3 2.952185 1_555
B9 Lu2 2.989573 1_655
B9 Lu0 3.252257 1_556
B10 B8 1.750165 1_555
B10 Rh2 2.176437 1_555
B10 Rh12 2.177415 1_555
B10 Rh3 2.244515 1_556
B10 Rh10 2.245309 1_545
B10 Rh8 2.261358 1_555
B10 Lu2 2.952180 1_555
B10 Lu3 2.989582 1_556
B10 Lu1 3.252253 1_555
B11 B9 1.750154 1_555
B11 Rh3 2.176442 1_555
B11 Rh13 2.177437 1_555
B11 Rh2 2.244515 1_554
B11 Rh11 2.245290 1_555
B11 Rh9 2.261359 1_555
B11 Lu2 2.952187 1_655
B11 Lu3 2.989570 1_555
B11 Lu1 3.252258 1_565
B12 B14 1.750165 1_555
B12 Rh4 2.176435 1_555
B12 Rh11 2.177429 1_555
B12 Rh5 2.244504 1_555
B12 Rh12 2.245305 1_555
B12 Rh14 2.261364 1_555
B12 Lu3 2.952185 1_555
B12 Lu2 2.989573 1_555
B12 Lu0 3.252257 1_556
B13 B15 1.750154 1_455
B13 Rh5 2.176437 1_555
B13 Rh10 2.177422 1_555
B13 Rh4 2.244509 1_555
B13 Rh13 2.245302 1_455
B13 Rh15 2.261358 1_465
B13 Lu3 2.952185 1_566
B13 Lu2 2.989573 1_555
B13 Lu0 3.252257 1_455
B14 Rh6 2.176437 1_545
B14 Rh8 2.177415 1_555
B14 Rh7 2.244515 1_454
B14 Rh14 2.245309 1_555
B14 Rh12 2.261358 1_555
B14 Lu2 2.952180 1_555
B14 Lu3 2.989582 1_555
B14 Lu1 3.252253 1_555
B15 Rh7 2.176442 1_565
B15 Rh9 2.177437 1_555
B15 Rh6 2.244515 1_656
B15 Rh15 2.245290 1_565
B15 Rh13 2.261359 1_555
B15 Lu2 2.952187 1_655
B15 Lu3 2.989570 1_666
B15 Lu1 3.252258 1_565
