# generated using pymatgen
data_Gd4(SiS4)3
_symmetry_space_group_name_H-M   'P 1'
_cell_length_a   7.76713793
_cell_length_b   11.25165473
_cell_length_c   11.25167912
_cell_angle_alpha   114.88085528
_cell_angle_beta   103.30734945
_cell_angle_gamma   103.30628062
_symmetry_Int_Tables_number   1
_chemical_formula_structural   Gd4(SiS4)3
_chemical_formula_sum   'Gd8 Si6 S24'
_cell_volume   806.35460108
_cell_formula_units_Z   2
loop_
 _symmetry_equiv_pos_site_id
 _symmetry_equiv_pos_as_xyz
  1  'x, y, z'
loop_
 _atom_site_type_symbol
 _atom_site_label
 _atom_site_symmetry_multiplicity
 _atom_site_fract_x
 _atom_site_fract_y
 _atom_site_fract_z
 _atom_site_occupancy
  Gd  Gd0  1  0.50868548  0.00005507  0.00008528  1
  Gd  Gd1  1  0.00868573  0.00008427  0.00005657  1
  Gd  Gd2  1  0.06388595  0.53754750  0.77832246  1
  Gd  Gd3  1  0.28659969  0.22200914  0.75932545  1
  Gd  Gd4  1  0.52611848  0.24045222  0.46262409  1
  Gd  Gd5  1  0.56388609  0.77832293  0.53754920  1
  Gd  Gd6  1  0.02612088  0.46262329  0.24045164  1
  Gd  Gd7  1  0.78659881  0.75932429  0.22200973  1
  Si  Si0  1  0.35801124  0.82720070  0.21207239  1
  Si  Si1  1  0.14570566  0.78781020  0.61514585  1
  Si  Si2  1  0.53044295  0.38491886  0.17278701  1
  Si  Si3  1  0.85801426  0.21207294  0.82720306  1
  Si  Si4  1  0.03044155  0.17278867  0.38491819  1
  Si  Si5  1  0.64570255  0.61514369  0.78780849  1
  S  S0  1  0.11042627  0.39049684  0.92178709  1
  S  S1  1  0.18817313  0.07797987  0.46857022  1
  S  S2  1  0.71977310  0.53127604  0.60946067  1
  S  S3  1  0.61042465  0.92178609  0.39049588  1
  S  S4  1  0.21976953  0.60945804  0.53127490  1
  S  S5  1  0.68817791  0.46856937  0.07798068  1
  S  S6  1  0.32207409  0.00100202  0.18718717  1
  S  S7  1  0.13478389  0.81293877  0.81393637  1
  S  S8  1  0.32096767  0.18611622  0.99889369  1
  S  S9  1  0.82207567  0.18718523  0.00100125  1
  S  S10  1  0.82096573  0.99889396  0.18611713  1
  S  S11  1  0.63478397  0.81393707  0.81293829  1
  S  S12  1  0.41137143  0.71121883  0.03151054  1
  S  S13  1  0.37971214  0.96845339  0.67968669  1
  S  S14  1  0.69986785  0.32026700  0.28870568  1
  S  S15  1  0.91137085  0.03151155  0.71121600  1
  S  S16  1  0.19986906  0.28870444  0.32026630  1
  S  S17  1  0.87971155  0.67969040  0.96845467  1
  S  S18  1  0.64746482  0.26913927  0.73238805  1
  S  S19  1  0.91471711  0.26768911  0.53668926  1
  S  S20  1  0.37822202  0.46331160  0.73094320  1
  S  S21  1  0.14746176  0.73238592  0.26913571  1
  S  S22  1  0.87822186  0.73094456  0.46331326  1
  S  S23  1  0.41472064  0.53669163  0.26768791  1
loop_
_geom_bond_atom_site_label_1
_geom_bond_atom_site_label_2
_geom_bond_distance
_geom_bond_site_symmetry_2
Gd0 S6 2.815283 1_555
Gd0 S7 2.815720 1_544
Gd0 S8 2.815746 1_554
Gd0 S11 2.821647 1_544
Gd0 S10 2.822249 1_545
Gd0 S9 2.823016 1_555
Gd0 S14 3.347233 1_555
Gd0 S12 3.349230 1_545
Gd0 S13 3.349785 1_544
Gd1 S9 2.815248 1_455
Gd1 S11 2.815721 1_444
Gd1 S10 2.815773 1_445
Gd1 S7 2.821649 1_544
Gd1 S8 2.822299 1_554
Gd1 S6 2.822968 1_555
Gd1 S16 3.347217 1_555
Gd1 S15 3.349281 1_454
Gd1 S17 3.349743 1_444
Gd2 S0 2.779937 1_555
Gd2 S19 2.817388 1_455
Gd2 S20 2.847097 1_555
Gd2 S7 2.851902 1_555
Gd2 S2 2.867268 1_455
Gd2 S12 2.926945 1_556
Gd2 S17 2.960365 1_455
Gd3 S1 2.780378 1_555
Gd3 S20 2.815092 1_555
Gd3 S18 2.841021 1_555
Gd3 S8 2.852144 1_555
Gd3 S0 2.870082 1_555
Gd3 S13 2.926106 1_545
Gd3 S15 2.967017 1_455
Gd4 S2 2.782240 1_555
Gd4 S18 2.814984 1_555
Gd4 S19 2.846036 1_555
Gd4 S6 2.850009 1_555
Gd4 S1 2.865529 1_555
Gd4 S14 2.931502 1_555
Gd4 S16 2.962805 1_555
Gd5 S3 2.779956 1_555
Gd5 S23 2.817398 1_555
Gd5 S22 2.847098 1_555
Gd5 S11 2.851874 1_555
Gd5 S4 2.867320 1_555
Gd5 S15 2.926955 1_565
Gd5 S13 2.960323 1_555
Gd6 S4 2.782220 1_555
Gd6 S21 2.814991 1_555
Gd6 S23 2.846056 1_555
Gd6 S9 2.850020 1_455
Gd6 S5 2.865478 1_455
Gd6 S16 2.931474 1_555
Gd6 S14 2.962865 1_455
Gd7 S5 2.780383 1_555
Gd7 S22 2.815079 1_555
Gd7 S21 2.840994 1_655
Gd7 S10 2.852158 1_555
Gd7 S3 2.870080 1_555
Gd7 S17 2.926117 1_554
Gd7 S12 2.967005 1_555
S0 Si3 2.106303 1_455
S1 Si4 2.107233 1_555
S2 Si5 2.106254 1_555
S3 Si0 2.106292 1_555
S4 Si1 2.106258 1_555
S5 Si2 2.107238 1_555
S6 Si0 2.157900 1_545
S7 Si1 2.157852 1_555
S8 Si2 2.157652 1_556
S9 Si3 2.157891 1_554
S10 Si4 2.157647 1_665
S11 Si5 2.157866 1_555
S12 Si0 2.099505 1_555
S13 Si1 2.100462 1_555
S14 Si2 2.100219 1_555
S15 Si3 2.099495 1_555
S16 Si4 2.100233 1_555
S17 Si5 2.100459 1_555
S18 Si3 2.116940 1_555
S19 Si4 2.116203 1_655
S20 Si5 2.116287 1_555
S21 Si0 2.116939 1_555
S22 Si1 2.116290 1_655
S23 Si2 2.116198 1_555
