# generated using pymatgen
data_CePr2O6
_symmetry_space_group_name_H-M   'P 1'
_cell_length_a   9.11179882
_cell_length_b   9.11179882
_cell_length_c   9.11179882
_cell_angle_alpha   155.06054241
_cell_angle_beta   155.06054241
_cell_angle_gamma   35.55992789
_symmetry_Int_Tables_number   1
_chemical_formula_structural   CePr2O6
_chemical_formula_sum   'Ce1 Pr2 O6'
_cell_volume   134.34391225
_cell_formula_units_Z   1
loop_
 _symmetry_equiv_pos_site_id
 _symmetry_equiv_pos_as_xyz
  1  'x, y, z'
loop_
 _atom_site_type_symbol
 _atom_site_label
 _atom_site_symmetry_multiplicity
 _atom_site_fract_x
 _atom_site_fract_y
 _atom_site_fract_z
 _atom_site_occupancy
  Ce  Ce0  1  0.00000000  0.00000000  0.00000000  1
  Pr  Pr0  1  0.33886600  0.33886600  0.00000000  1
  Pr  Pr1  1  0.66113400  0.66113400  0.00000000  1
  O  O0  1  0.42264100  0.92264100  0.50000000  1
  O  O1  1  0.75000000  0.25000000  0.50000000  1
  O  O2  1  0.07735900  0.57735900  0.50000000  1
  O  O3  1  0.25000000  0.75000000  0.50000000  1
  O  O4  1  0.57735900  0.07735900  0.50000000  1
  O  O5  1  0.92264100  0.42264100  0.50000000  1
loop_
_geom_bond_atom_site_label_1
_geom_bond_atom_site_label_2
_geom_bond_distance
_geom_bond_site_symmetry_2
Ce0 O2 2.381801 1_555
Ce0 O4 2.381801 1_555
Ce0 O4 2.381801 1_454
Ce0 O2 2.381801 1_544
Ce0 O0 2.381801 1_444
Ce0 O5 2.381801 1_444
Ce0 O0 2.381801 1_545
Ce0 O5 2.381801 1_455
O0 Pr0 2.446283 1_555
O0 Pr0 2.446283 1_566
O1 Pr0 2.499794 1_656
O1 Pr0 2.499794 1_555
O1 Pr1 2.499794 1_545
O1 Pr1 2.499794 1_556
O2 Pr1 2.446283 1_455
O2 Pr1 2.446283 1_556
O3 Pr0 2.499794 1_566
O3 Pr1 2.499794 1_556
O3 Pr1 2.499794 1_455
O3 Pr0 2.499794 1_555
O4 Pr1 2.446283 1_545
O4 Pr1 2.446283 1_556
O5 Pr0 2.446283 1_555
O5 Pr0 2.446283 1_656
