# generated using pymatgen
data_NaZn(BH4)3
_symmetry_space_group_name_H-M   'P 1'
_cell_length_a   8.24129900
_cell_length_b   5.00649000
_cell_length_c   17.45617471
_cell_angle_alpha   90.00000000
_cell_angle_beta   98.90966947
_cell_angle_gamma   90.00000000
_symmetry_Int_Tables_number   1
_chemical_formula_structural   NaZn(BH4)3
_chemical_formula_sum   'Na4 Zn4 B12 H48'
_cell_volume   711.55081830
_cell_formula_units_Z   4
loop_
 _symmetry_equiv_pos_site_id
 _symmetry_equiv_pos_as_xyz
  1  'x, y, z'
loop_
 _atom_site_type_symbol
 _atom_site_label
 _atom_site_symmetry_multiplicity
 _atom_site_fract_x
 _atom_site_fract_y
 _atom_site_fract_z
 _atom_site_occupancy
  Na  Na0  1  0.70096000  0.39188800  0.34368600  1
  Na  Na1  1  0.29904000  0.89188800  0.15631400  1
  Na  Na2  1  0.29904000  0.60811200  0.65631400  1
  Na  Na3  1  0.70096000  0.10811200  0.84368600  1
  Zn  Zn0  1  0.23082500  0.01020000  0.39427500  1
  Zn  Zn1  1  0.76917500  0.51020000  0.10572500  1
  Zn  Zn2  1  0.76917500  0.98980000  0.60572500  1
  Zn  Zn3  1  0.23082500  0.48980000  0.89427500  1
  B  B0  1  0.73313400  0.38193600  0.98330300  1
  B  B1  1  0.26686600  0.88193600  0.51669700  1
  B  B2  1  0.26686600  0.61806400  0.01669700  1
  B  B3  1  0.73313400  0.11806400  0.48330300  1
  B  B4  1  0.40987200  0.70151400  0.82471800  1
  B  B5  1  0.59012800  0.20151400  0.67528200  1
  B  B6  1  0.59012800  0.29848600  0.17528200  1
  B  B7  1  0.40987200  0.79848600  0.32471800  1
  B  B8  1  0.03261400  0.29431400  0.35301500  1
  B  B9  1  0.96738600  0.79431400  0.14698500  1
  B  B10  1  0.96738600  0.70568600  0.64698500  1
  B  B11  1  0.03261400  0.20568600  0.85301500  1
  H  H0  1  0.77956500  0.49568400  0.92921100  1
  H  H1  1  0.22043500  0.99568400  0.57078900  1
  H  H2  1  0.22043500  0.50431600  0.07078900  1
  H  H3  1  0.77956500  0.00431600  0.42921100  1
  H  H4  1  0.63936900  0.54452300  0.00844100  1
  H  H5  1  0.36063100  0.04452300  0.49155900  1
  H  H6  1  0.36063100  0.45547700  0.99155900  1
  H  H7  1  0.63936900  0.95547700  0.50844100  1
  H  H8  1  0.86074900  0.32465900  0.02893500  1
  H  H9  1  0.13925100  0.82465900  0.47106500  1
  H  H10  1  0.13925100  0.67534100  0.97106500  1
  H  H11  1  0.86074900  0.17534100  0.52893500  1
  H  H12  1  0.65704000  0.17508400  0.96963500  1
  H  H13  1  0.34296000  0.67508400  0.53036500  1
  H  H14  1  0.34296000  0.82491600  0.03036500  1
  H  H15  1  0.65704000  0.32491600  0.46963500  1
  H  H16  1  0.49277200  0.65694100  0.77433800  1
  H  H17  1  0.50722800  0.15694100  0.72566200  1
  H  H18  1  0.50722800  0.34305900  0.22566200  1
  H  H19  1  0.49277200  0.84305900  0.27433800  1
  H  H20  1  0.26512000  0.73346800  0.79510300  1
  H  H21  1  0.73488000  0.23346800  0.70489700  1
  H  H22  1  0.73488000  0.26653200  0.20489700  1
  H  H23  1  0.26512000  0.76653200  0.29510300  1
  H  H24  1  0.45656100  0.89028600  0.86589700  1
  H  H25  1  0.54343900  0.39028600  0.63410300  1
  H  H26  1  0.54343900  0.10971400  0.13410300  1
  H  H27  1  0.45656100  0.60971400  0.36589700  1
  H  H28  1  0.43348300  0.49058100  0.86429600  1
  H  H29  1  0.56651700  0.99058100  0.63570400  1
  H  H30  1  0.56651700  0.50941900  0.13570400  1
  H  H31  1  0.43348300  0.00941900  0.36429600  1
  H  H32  1  0.18248500  0.35092300  0.35942900  1
  H  H33  1  0.81751500  0.85092300  0.14057100  1
  H  H34  1  0.81751500  0.64907700  0.64057100  1
  H  H35  1  0.18248500  0.14907700  0.85942900  1
  H  H36  1  0.98101000  0.40104400  0.40671700  1
  H  H37  1  0.01899000  0.90104400  0.09328300  1
  H  H38  1  0.01899000  0.59895600  0.59328300  1
  H  H39  1  0.98101000  0.09895600  0.90671700  1
  H  H40  1  0.00300200  0.04893000  0.35538300  1
  H  H41  1  0.99699800  0.54893000  0.14461700  1
  H  H42  1  0.99699800  0.95107000  0.64461700  1
  H  H43  1  0.00300200  0.45107000  0.85538300  1
  H  H44  1  0.97640500  0.36794100  0.28831700  1
  H  H45  1  0.02359500  0.86794100  0.21168300  1
  H  H46  1  0.02359500  0.63205900  0.71168300  1
  H  H47  1  0.97640500  0.13205900  0.78831700  1
loop_
_geom_bond_atom_site_label_1
_geom_bond_atom_site_label_2
_geom_bond_distance
_geom_bond_site_symmetry_2
B0 H0 1.214181 1_555
B0 H12 1.215040 1_555
B0 H4 1.247921 1_556
B0 H8 1.250336 1_556
B1 H1 1.214181 1_555
B1 H13 1.215040 1_555
B1 H5 1.247921 1_565
B1 H9 1.250336 1_555
B2 H2 1.214181 1_555
B2 H14 1.215040 1_555
B2 H6 1.247921 1_554
B2 H10 1.250336 1_554
B3 H3 1.214181 1_555
B3 H15 1.215040 1_555
B3 H7 1.247921 1_545
B3 H11 1.250336 1_555
B4 H24 1.213375 1_555
B4 H16 1.214947 1_555
B4 H20 1.234882 1_555
B4 H28 1.260454 1_555
B5 H25 1.213375 1_555
B5 H17 1.214947 1_555
B5 H21 1.234882 1_555
B5 H29 1.260454 1_545
B6 H26 1.213375 1_555
B6 H18 1.214947 1_555
B6 H22 1.234882 1_555
B6 H30 1.260454 1_555
B7 H27 1.213375 1_555
B7 H19 1.214947 1_555
B7 H23 1.234882 1_555
B7 H31 1.260454 1_565
B8 H44 1.209920 1_455
B8 H36 1.211882 1_455
B8 H40 1.254445 1_555
B8 H32 1.255218 1_555
B9 H45 1.209920 1_655
B9 H37 1.211882 1_655
B9 H41 1.254445 1_555
B9 H33 1.255218 1_555
B10 H46 1.209920 1_655
B10 H38 1.211882 1_655
B10 H42 1.254445 1_555
B10 H34 1.255218 1_555
B11 H47 1.209920 1_455
B11 H39 1.211882 1_455
B11 H43 1.254445 1_555
B11 H35 1.255218 1_555
H0 Na3 2.472651 1_555
H1 Na2 2.472651 1_555
H2 Na1 2.472651 1_555
H3 Na0 2.472651 1_555
H4 Zn1 1.869522 1_555
H5 Zn0 1.869522 1_555
H6 Zn3 1.869522 1_555
H7 Zn2 1.869522 1_555
H8 Zn1 1.882184 1_555
H9 Zn0 1.882184 1_565
H10 Zn3 1.882184 1_555
H11 Zn2 1.882184 1_545
H12 Na3 2.307320 1_555
H13 Na2 2.307320 1_555
H14 Na1 2.307320 1_555
H15 Na0 2.307320 1_555
H16 Na2 2.415496 1_555
H17 Na3 2.415496 1_555
H18 Na0 2.415496 1_555
H19 Na1 2.415496 1_555
H20 Zn3 2.171768 1_555
H20 Na2 2.559570 1_555
H21 Zn2 2.171768 1_545
H21 Na3 2.559570 1_555
H22 Zn1 2.171768 1_555
H22 Na0 2.559570 1_555
H23 Zn0 2.171768 1_565
H23 Na1 2.559570 1_555
H24 Na3 2.374525 1_565
H25 Na2 2.374525 1_555
H26 Na1 2.374525 1_545
H27 Na0 2.374525 1_555
H28 Zn3 1.825942 1_555
H29 Zn2 1.825942 1_555
H30 Zn1 1.825942 1_555
H31 Zn0 1.825942 1_555
H32 Zn0 1.833983 1_555
H33 Zn1 1.833983 1_555
H34 Zn2 1.833983 1_555
H35 Zn3 1.833983 1_555
H36 Na0 2.398515 1_555
H37 Na1 2.398515 1_555
H38 Na2 2.398515 1_555
H39 Na3 2.398515 1_555
H40 Zn0 1.904966 1_555
H41 Zn1 1.904966 1_555
H42 Zn2 1.904966 1_555
H43 Zn3 1.904966 1_555
H44 Na0 2.604071 1_555
H45 Na1 2.604071 1_555
H46 Na2 2.604071 1_555
H47 Na3 2.604071 1_555
