# generated using pymatgen
data_Li9Mn2Co5O16
_symmetry_space_group_name_H-M   'P 1'
_cell_length_a   4.98104500
_cell_length_b   5.92258832
_cell_length_c   9.81055278
_cell_angle_alpha   88.22582923
_cell_angle_beta   79.12955666
_cell_angle_gamma   88.49638343
_symmetry_Int_Tables_number   1
_chemical_formula_structural   Li9Mn2Co5O16
_chemical_formula_sum   'Li9 Mn2 Co5 O16'
_cell_volume   284.02707095
_cell_formula_units_Z   1
loop_
 _symmetry_equiv_pos_site_id
 _symmetry_equiv_pos_as_xyz
  1  'x, y, z'
loop_
 _atom_site_type_symbol
 _atom_site_label
 _atom_site_symmetry_multiplicity
 _atom_site_fract_x
 _atom_site_fract_y
 _atom_site_fract_z
 _atom_site_occupancy
  Li  Li0  1  0.24665100  0.99745700  0.24500300  1
  Li  Li1  1  0.24944100  0.25757500  0.75340900  1
  Li  Li2  1  0.24519200  0.50138700  0.24498300  1
  Li  Li3  1  0.75032200  0.25676200  0.24565100  1
  Li  Li4  1  0.75480800  0.49861300  0.75501700  1
  Li  Li5  1  0.75055900  0.74242500  0.24659100  1
  Li  Li6  1  0.24967800  0.74323800  0.75434900  1
  Li  Li7  1  0.75334900  0.00254300  0.75499700  1
  Li  Li8  1  0.00000000  0.50000000  0.00000000  1
  Mn  Mn0  1  0.00000000  0.00000000  0.00000000  1
  Mn  Mn1  1  0.50000000  0.00000000  0.50000000  1
  Co  Co0  1  0.00174400  0.25113200  0.49877000  1
  Co  Co1  1  0.99825600  0.74886800  0.50123000  1
  Co  Co2  1  0.50000000  0.50000000  0.50000000  1
  Co  Co3  1  0.49988000  0.74032000  0.99963100  1
  Co  Co4  1  0.50012000  0.25968000  0.00036900  1
  O  O0  1  0.13446000  0.76514000  0.11218600  1
  O  O1  1  0.13603800  0.99549100  0.61546100  1
  O  O2  1  0.13929100  0.22941200  0.10831300  1
  O  O3  1  0.63501500  0.01465500  0.11119700  1
  O  O4  1  0.63815800  0.27417100  0.61560400  1
  O  O5  1  0.60467800  0.51085700  0.11281000  1
  O  O6  1  0.14039700  0.49464700  0.61561900  1
  O  O7  1  0.63989100  0.76520500  0.61732900  1
  O  O8  1  0.36010900  0.23479500  0.38267100  1
  O  O9  1  0.39532200  0.48914300  0.88719000  1
  O  O10  1  0.36184200  0.72582900  0.38439600  1
  O  O11  1  0.85960300  0.50535300  0.38438100  1
  O  O12  1  0.86070900  0.77058800  0.89168700  1
  O  O13  1  0.86396200  0.00450900  0.38453900  1
  O  O14  1  0.36498500  0.98534500  0.88880300  1
  O  O15  1  0.86554000  0.23486000  0.88781400  1
loop_
_geom_bond_atom_site_label_1
_geom_bond_atom_site_label_2
_geom_bond_distance
_geom_bond_site_symmetry_2
Li0 O2 2.022221 1_565
Li0 O0 2.080692 1_555
Li0 O3 2.126024 1_565
Li0 O13 2.127065 1_465
Li0 O8 2.136938 1_565
Li0 O10 2.213292 1_555
Li1 O6 2.052607 1_555
Li1 O15 2.113025 1_455
Li1 O4 2.144944 1_555
Li1 O9 2.157546 1_555
Li1 O14 2.191382 1_545
Li1 O1 2.241521 1_545
Li2 O5 2.003962 1_555
Li2 O10 2.104303 1_555
Li2 O0 2.131079 1_555
Li2 O11 2.137421 1_455
Li2 O8 2.181149 1_555
Li2 O2 2.261808 1_555
Li3 O13 2.128259 1_555
Li3 O3 2.138218 1_555
Li3 O2 2.146590 1_655
Li3 O8 2.149122 1_555
Li3 O5 2.160400 1_555
Li3 O11 2.182180 1_555
Li4 O9 2.003962 1_555
Li4 O4 2.104303 1_555
Li4 O15 2.131079 1_555
Li4 O6 2.137421 1_655
Li4 O7 2.181149 1_555
Li4 O12 2.261808 1_555
Li5 O11 2.052607 1_555
Li5 O0 2.113025 1_655
Li5 O10 2.144944 1_555
Li5 O5 2.157546 1_555
Li5 O3 2.191382 1_565
Li5 O13 2.241521 1_565
Li6 O1 2.128259 1_555
Li6 O14 2.138218 1_555
Li6 O12 2.146590 1_455
Li6 O7 2.149122 1_555
Li6 O9 2.160400 1_555
Li6 O6 2.182180 1_555
Li7 O12 2.022221 1_545
Li7 O15 2.080692 1_555
Li7 O14 2.126024 1_545
Li7 O1 2.127065 1_645
Li7 O7 2.136938 1_545
Li7 O4 2.213292 1_555
Li8 O9 2.069345 1_554
Li8 O5 2.069345 1_455
Li8 O12 2.071971 1_454
Li8 O2 2.071971 1_555
Li8 O15 2.136828 1_454
Li8 O0 2.136828 1_555
Mn0 O15 1.931080 1_454
Mn0 O0 1.931080 1_545
Mn0 O3 1.937083 1_455
Mn0 O14 1.937083 1_544
Mn0 O2 1.968138 1_555
Mn0 O12 1.968138 1_444
Mn1 O1 1.948478 1_545
Mn1 O13 1.948478 1_555
Mn1 O8 1.974028 1_555
Mn1 O7 1.974028 1_545
Mn1 O4 2.205367 1_555
Mn1 O10 2.205367 1_545
Co0 O8 1.929745 1_555
Co0 O4 1.956024 1_455
Co0 O11 2.041260 1_455
Co0 O1 2.044202 1_545
Co0 O13 2.074717 1_455
Co0 O6 2.079525 1_555
Co1 O7 1.929745 1_555
Co1 O10 1.956024 1_655
Co1 O6 2.041260 1_655
Co1 O13 2.044202 1_565
Co1 O1 2.074717 1_655
Co1 O11 2.079525 1_555
Co2 O4 1.923769 1_555
Co2 O10 1.923769 1_555
Co2 O11 1.931433 1_555
Co2 O6 1.931433 1_555
Co2 O7 2.179332 1_555
Co2 O8 2.179332 1_555
Co3 O5 1.854786 1_556
Co3 O12 1.916028 1_555
Co3 O0 1.947276 1_556
Co3 O14 1.966283 1_555
Co3 O9 2.014959 1_555
Co3 O3 2.176315 1_566
Co4 O9 1.854786 1_554
Co4 O2 1.916028 1_555
Co4 O15 1.947276 1_554
Co4 O3 1.966283 1_555
Co4 O5 2.014959 1_555
Co4 O14 2.176315 1_544
