# generated using pymatgen
data_Rb3Lu(PO4)2
_symmetry_space_group_name_H-M   'P 1'
_cell_length_a   5.61420589
_cell_length_b   5.61420684
_cell_length_c   8.05688216
_cell_angle_alpha   90.00000000
_cell_angle_beta   90.00000000
_cell_angle_gamma   120.00000026
_symmetry_Int_Tables_number   1
_chemical_formula_structural   Rb3Lu(PO4)2
_chemical_formula_sum   'Rb3 Lu1 P2 O8'
_cell_volume   219.92489155
_cell_formula_units_Z   1
loop_
 _symmetry_equiv_pos_site_id
 _symmetry_equiv_pos_as_xyz
  1  'x, y, z'
loop_
 _atom_site_type_symbol
 _atom_site_label
 _atom_site_symmetry_multiplicity
 _atom_site_fract_x
 _atom_site_fract_y
 _atom_site_fract_z
 _atom_site_occupancy
  Rb  Rb0  1  0.00000000  -0.00000000  0.50000000  1
  Rb  Rb1  1  0.33333300  0.66666700  0.25545867  1
  Rb  Rb2  1  0.66666700  0.33333300  0.74454133  1
  Lu  Lu0  1  0.00000000  -0.00000000  0.00000000  1
  P  P0  1  0.33333300  0.66666700  0.77989004  1
  P  P1  1  0.66666700  0.33333300  0.22010996  1
  O  O0  1  0.63270297  0.81635148  0.84541442  1
  O  O1  1  0.18364852  0.36729703  0.84541442  1
  O  O2  1  0.18364852  0.81635148  0.84541442  1
  O  O3  1  0.36729703  0.18364852  0.15458558  1
  O  O4  1  0.81635148  0.63270297  0.15458558  1
  O  O5  1  0.81635148  0.18364852  0.15458558  1
  O  O6  1  0.33333300  0.66666700  0.59205224  1
  O  O7  1  0.66666700  0.33333300  0.40794776  1
loop_
_geom_bond_atom_site_label_1
_geom_bond_atom_site_label_2
_geom_bond_distance
_geom_bond_site_symmetry_2
Lu0 O0 2.177234 1_444
Lu0 O3 2.177234 1_555
Lu0 O2 2.177234 1_544
Lu0 O5 2.177234 1_455
Lu0 O4 2.177234 1_445
Lu0 O1 2.177234 1_554
O0 P0 1.548331 1_555
O0 Rb2 2.927047 1_565
O0 Rb2 2.927052 1_555
O0 Rb0 3.306663 1_665
O1 P0 1.548331 1_555
O1 Rb2 2.927046 1_455
O1 Rb2 2.927051 1_555
O1 Rb0 3.306663 1_555
O2 P0 1.548326 1_555
O2 Rb2 2.927049 1_455
O2 Rb2 2.927049 1_565
O2 Rb0 3.306663 1_565
O3 P1 1.548331 1_555
O3 Rb1 2.927047 1_545
O3 Rb1 2.927052 1_555
O3 Rb0 3.306663 1_555
O4 P1 1.548331 1_555
O4 Rb1 2.927046 1_655
O4 Rb1 2.927051 1_555
O4 Rb0 3.306663 1_665
O5 P1 1.548326 1_555
O5 Rb1 2.927049 1_655
O5 Rb1 2.927049 1_545
O5 Rb0 3.306663 1_655
O6 P0 1.513387 1_555
O6 Rb1 2.711895 1_555
O6 Rb0 3.325127 1_565
O6 Rb0 3.325131 1_665
O6 Rb0 3.325132 1_555
O7 P1 1.513387 1_555
O7 Rb2 2.711895 1_555
O7 Rb0 3.325127 1_655
O7 Rb0 3.325131 1_555
O7 Rb0 3.325132 1_665
