# generated using pymatgen
data_BiPd6Se
_symmetry_space_group_name_H-M   'P 1'
_cell_length_a   7.92963182
_cell_length_b   7.92963182
_cell_length_c   7.92963128
_cell_angle_alpha   33.70215233
_cell_angle_beta   33.70215233
_cell_angle_gamma   33.70215281
_symmetry_Int_Tables_number   1
_chemical_formula_structural   BiPd6Se
_chemical_formula_sum   'Bi1 Pd6 Se1'
_cell_volume   136.77193897
_cell_formula_units_Z   1
loop_
 _symmetry_equiv_pos_site_id
 _symmetry_equiv_pos_as_xyz
  1  'x, y, z'
loop_
 _atom_site_type_symbol
 _atom_site_label
 _atom_site_symmetry_multiplicity
 _atom_site_fract_x
 _atom_site_fract_y
 _atom_site_fract_z
 _atom_site_occupancy
  Bi  Bi0  1  0.00000000  0.00000000  0.00000000  1
  Pd  Pd0  1  0.61499600  0.61499600  0.61499600  1
  Pd  Pd1  1  0.13253100  0.13253100  0.13253100  1
  Pd  Pd2  1  0.86746900  0.86746900  0.86746900  1
  Pd  Pd3  1  0.38500400  0.38500400  0.38500400  1
  Pd  Pd4  1  0.25641000  0.25641000  0.25641000  1
  Pd  Pd5  1  0.74359000  0.74359000  0.74359000  1
  Se  Se0  1  0.50000000  0.50000000  0.50000000  1
loop_
_geom_bond_atom_site_label_1
_geom_bond_atom_site_label_2
_geom_bond_distance
_geom_bond_site_symmetry_2
Bi0 Pd3 2.896009 1_545
Bi0 Pd0 2.896009 1_544
Bi0 Pd3 2.896009 1_455
Bi0 Pd0 2.896009 1_454
Bi0 Pd0 2.896009 1_445
Bi0 Pd3 2.896009 1_554
Bi0 Pd2 2.970895 1_444
Bi0 Pd1 2.970895 1_555
Bi0 Pd4 3.165228 1_554
Bi0 Pd5 3.165228 1_445
Bi0 Pd4 3.165228 1_545
Bi0 Pd5 3.165228 1_544
Bi0 Pd4 3.165228 1_455
Bi0 Pd5 3.165228 1_454
Pd0 Se0 2.577820 1_555
Pd0 Pd4 2.713982 1_556
Pd0 Pd4 2.713982 1_565
Pd0 Pd4 2.713982 1_655
Pd0 Pd5 2.882641 1_555
Pd1 Se0 2.762389 1_455
Pd1 Se0 2.762389 1_545
Pd1 Se0 2.762389 1_554
Pd1 Pd4 2.776947 1_555
Pd1 Pd5 2.932422 1_544
Pd1 Pd5 2.932422 1_454
Pd1 Pd5 2.932423 1_445
Pd2 Se0 2.762389 1_565
Pd2 Se0 2.762389 1_655
Pd2 Se0 2.762389 1_556
Pd2 Pd5 2.776947 1_555
Pd2 Pd4 2.932422 1_566
Pd2 Pd4 2.932422 1_656
Pd2 Pd4 2.932423 1_665
Pd3 Se0 2.577820 1_555
Pd3 Pd5 2.713982 1_554
Pd3 Pd5 2.713982 1_545
Pd3 Pd5 2.713982 1_455
Pd3 Pd4 2.882641 1_555
