# generated using pymatgen
data_Na2Ge2Se5
_symmetry_space_group_name_H-M   'P 1'
_cell_length_a   9.50087150
_cell_length_b   9.50087139
_cell_length_c   11.07984875
_cell_angle_alpha   90.00000000
_cell_angle_beta   90.00000000
_cell_angle_gamma   89.12442773
_symmetry_Int_Tables_number   1
_chemical_formula_structural   Na2Ge2Se5
_chemical_formula_sum   'Na8 Ge8 Se20'
_cell_volume   1000.02303436
_cell_formula_units_Z   4
loop_
 _symmetry_equiv_pos_site_id
 _symmetry_equiv_pos_as_xyz
  1  'x, y, z'
loop_
 _atom_site_type_symbol
 _atom_site_label
 _atom_site_symmetry_multiplicity
 _atom_site_fract_x
 _atom_site_fract_y
 _atom_site_fract_z
 _atom_site_occupancy
  Na  Na0  1  0.42262029  0.07458121  0.75000000  1
  Na  Na1  1  0.57737971  0.92541879  0.25000000  1
  Na  Na2  1  0.07458121  0.42262029  0.75000000  1
  Na  Na3  1  0.92541879  0.57737971  0.25000000  1
  Na  Na4  1  0.14436186  0.85563814  0.50000000  1
  Na  Na5  1  0.85563814  0.14436186  0.00000000  1
  Na  Na6  1  0.85563814  0.14436186  0.50000000  1
  Na  Na7  1  0.14436186  0.85563814  0.00000000  1
  Ge  Ge0  1  0.68570318  0.40519218  0.75000000  1
  Ge  Ge1  1  0.31429682  0.59480782  0.25000000  1
  Ge  Ge2  1  0.40519218  0.68570318  0.75000000  1
  Ge  Ge3  1  0.59480782  0.31429682  0.25000000  1
  Ge  Ge4  1  0.74379379  0.74379379  0.92072808  1
  Ge  Ge5  1  0.25620621  0.25620621  0.42072808  1
  Ge  Ge6  1  0.74379379  0.74379379  0.57927192  1
  Ge  Ge7  1  0.25620621  0.25620621  0.07927192  1
  Se  Se0  1  0.83228076  0.26809112  0.25000000  1
  Se  Se1  1  0.16771924  0.73190888  0.75000000  1
  Se  Se2  1  0.26809112  0.83228076  0.25000000  1
  Se  Se3  1  0.73190888  0.16771924  0.75000000  1
  Se  Se4  1  0.84408973  0.84408973  0.08783090  1
  Se  Se5  1  0.15591027  0.15591027  0.58783090  1
  Se  Se6  1  0.84408973  0.84408973  0.41216910  1
  Se  Se7  1  0.15591027  0.15591027  0.91216910  1
  Se  Se8  1  0.84860922  0.84860922  0.75000000  1
  Se  Se9  1  0.15139078  0.15139078  0.25000000  1
  Se  Se10  1  0.20320991  0.50233110  0.07426744  1
  Se  Se11  1  0.79678909  0.49766890  0.57426744  1
  Se  Se12  1  0.50233110  0.20320991  0.42573256  1
  Se  Se13  1  0.49766890  0.79678909  0.92573256  1
  Se  Se14  1  0.79678909  0.49766890  0.92573256  1
  Se  Se15  1  0.20320991  0.50233110  0.42573256  1
  Se  Se16  1  0.49766890  0.79678909  0.57426744  1
  Se  Se17  1  0.50233110  0.20320991  0.07426744  1
  Se  Se18  1  0.43967070  0.43967070  0.75000000  1
  Se  Se19  1  0.56032930  0.56032930  0.25000000  1
loop_
_geom_bond_atom_site_label_1
_geom_bond_atom_site_label_2
_geom_bond_distance
_geom_bond_site_symmetry_2
Na0 Se3 3.081777 1_555
Na0 Se7 3.191674 1_555
Na0 Se5 3.191674 1_555
Na0 Se13 3.347803 1_545
Na0 Se16 3.347803 1_545
Na0 Se18 3.474921 1_555
Na1 Se2 3.081777 1_555
Na1 Se6 3.191674 1_555
Na1 Se4 3.191674 1_555
Na1 Se12 3.347796 1_565
Na1 Se17 3.347796 1_565
Na1 Se19 3.474921 1_555
Na2 Se1 3.081777 1_555
Na2 Se7 3.191674 1_555
Na2 Se5 3.191674 1_555
Na2 Se11 3.347803 1_455
Na2 Se14 3.347803 1_455
Na2 Se18 3.474921 1_555
Na3 Se0 3.081777 1_555
Na3 Se4 3.191674 1_555
Na3 Se6 3.191674 1_555
Na3 Se15 3.347796 1_655
Na3 Se10 3.347796 1_655
Na3 Se19 3.474921 1_555
Na4 Se1 3.015932 1_555
Na4 Se2 3.015932 1_555
Na4 Se5 3.017841 1_565
Na4 Se6 3.017841 1_455
Na4 Se15 3.492845 1_555
Na4 Se16 3.492846 1_555
Na5 Se0 3.015932 1_555
Na5 Se3 3.015932 1_554
Na5 Se4 3.017841 1_545
Na5 Se7 3.017841 1_654
Na5 Se17 3.492845 1_555
Na5 Se14 3.492846 1_554
Na6 Se0 3.015932 1_555
Na6 Se3 3.015932 1_555
Na6 Se6 3.017841 1_545
Na6 Se5 3.017841 1_655
Na6 Se12 3.492845 1_555
Na6 Se11 3.492846 1_555
Na7 Se1 3.015932 1_554
Na7 Se2 3.015932 1_555
Na7 Se7 3.017841 1_564
Na7 Se4 3.017841 1_455
Na7 Se10 3.492845 1_555
Na7 Se13 3.492846 1_554
Ge0 Se3 2.291917 1_555
Ge0 Se18 2.355402 1_555
Ge0 Se14 2.388588 1_555
Ge0 Se11 2.388588 1_555
Ge1 Se2 2.291917 1_555
Ge1 Se19 2.355402 1_555
Ge1 Se15 2.388592 1_555
Ge1 Se10 2.388592 1_555
Ge2 Se1 2.291917 1_555
Ge2 Se18 2.355402 1_555
Ge2 Se13 2.388588 1_555
Ge2 Se16 2.388588 1_555
Ge3 Se0 2.291917 1_555
Ge3 Se19 2.355402 1_555
Ge3 Se12 2.388592 1_555
Ge3 Se17 2.388592 1_555
Ge4 Se4 2.296027 1_556
Ge4 Se8 2.364741 1_555
Ge4 Se14 2.385105 1_555
Ge4 Se13 2.385105 1_555
Ge5 Se5 2.296027 1_555
Ge5 Se9 2.364741 1_555
Ge5 Se15 2.385106 1_555
Ge5 Se12 2.385106 1_555
Ge6 Se6 2.296027 1_555
Ge6 Se8 2.364741 1_555
Ge6 Se11 2.385105 1_555
Ge6 Se16 2.385105 1_555
Ge7 Se7 2.296027 1_554
Ge7 Se9 2.364741 1_555
Ge7 Se10 2.385106 1_555
Ge7 Se17 2.385106 1_555
