# generated using pymatgen
data_Ba3Na3(CO3)5
_symmetry_space_group_name_H-M   'P 1'
_cell_length_a   10.81122370
_cell_length_b   10.81145588
_cell_length_c   6.83327853
_cell_angle_alpha   90.00000000
_cell_angle_beta   90.00000000
_cell_angle_gamma   120.00070987
_symmetry_Int_Tables_number   1
_chemical_formula_structural   Ba3Na3(CO3)5
_chemical_formula_sum   'Ba6 Na6 C10 O30'
_cell_volume   691.69666620
_cell_formula_units_Z   2
loop_
 _symmetry_equiv_pos_site_id
 _symmetry_equiv_pos_as_xyz
  1  'x, y, z'
loop_
 _atom_site_type_symbol
 _atom_site_label
 _atom_site_symmetry_multiplicity
 _atom_site_fract_x
 _atom_site_fract_y
 _atom_site_fract_z
 _atom_site_occupancy
  Ba  Ba0  1  0.84125523  0.68248677  0.83020959  1
  Ba  Ba1  1  0.84125523  0.15876846  0.83020959  1
  Ba  Ba2  1  0.15874477  0.31751323  0.33020959  1
  Ba  Ba3  1  0.31751766  0.15875883  0.83019867  1
  Ba  Ba4  1  0.15874477  0.84123154  0.33020959  1
  Ba  Ba5  1  0.68248234  0.84124117  0.33019867  1
  Na  Na0  1  0.52359425  0.04719300  0.52675443  1
  Na  Na1  1  0.52359425  0.47640125  0.52675443  1
  Na  Na2  1  0.47640575  0.95280700  0.02675443  1
  Na  Na3  1  0.95281568  0.47640784  0.52674753  1
  Na  Na4  1  0.47640575  0.52359875  0.02675443  1
  Na  Na5  1  0.04718432  0.52359216  0.02674753  1
  C  C0  1  0.20708288  0.41421381  0.79306414  1
  C  C1  1  0.20708288  0.79286807  0.79306414  1
  C  C2  1  0.79291712  0.58578619  0.29306414  1
  C  C3  1  0.58580291  0.79290095  0.79305864  1
  C  C4  1  0.79291712  0.20713193  0.29306414  1
  C  C5  1  0.41419709  0.20709905  0.29305864  1
  C  C6  1  0.66668656  0.33334278  0.83262107  1
  C  C7  1  0.33331344  0.66665722  0.33262107  1
  C  C8  1  0.00000011  0.00000006  0.00600578  1
  C  C9  1  -0.00000011  -0.00000006  0.50600578  1
  O  O0  1  0.60747127  0.69992542  0.70333006  1
  O  O1  1  0.09245684  0.39257214  0.70331986  1
  O  O2  1  0.39252873  0.30007458  0.20333006  1
  O  O3  1  0.09245684  0.69988470  0.70331986  1
  O  O4  1  0.30005499  0.90751075  0.70334449  1
  O  O5  1  0.90754316  0.60742786  0.20331986  1
  O  O6  1  0.30005499  0.39254424  0.70334449  1
  O  O7  1  0.90754316  0.30011530  0.20331986  1
  O  O8  1  0.69994501  0.09248925  0.20334449  1
  O  O9  1  0.69994501  0.60745576  0.20334449  1
  O  O10  1  0.60747127  0.90754585  0.70333006  1
  O  O11  1  0.39252873  0.09245415  0.20333006  1
  O  O12  1  0.22748090  0.45502082  0.97157339  1
  O  O13  1  0.22748090  0.77245908  0.97157339  1
  O  O14  1  0.77251910  0.54497918  0.47157339  1
  O  O15  1  0.54496853  0.77248376  0.97156109  1
  O  O16  1  0.77251910  0.22754092  0.47157339  1
  O  O17  1  0.45503147  0.22751624  0.47156109  1
  O  O18  1  0.59766225  0.19530102  0.83286372  1
  O  O19  1  0.59766225  0.40236123  0.83286372  1
  O  O20  1  0.40233775  0.80469898  0.33286372  1
  O  O21  1  0.80473442  0.40236721  0.83286986  1
  O  O22  1  0.40233775  0.59763877  0.33286372  1
  O  O23  1  0.19526558  0.59763279  0.33286986  1
  O  O24  1  0.06896521  0.13794261  0.00333682  1
  O  O25  1  0.06896521  0.93102260  0.00333682  1
  O  O26  1  0.93103479  0.86205739  0.50333682  1
  O  O27  1  0.86205426  0.93102713  0.00334236  1
  O  O28  1  0.93103479  0.06897740  0.50333682  1
  O  O29  1  0.13794574  0.06897287  0.50334236  1
loop_
_geom_bond_atom_site_label_1
_geom_bond_atom_site_label_2
_geom_bond_distance
_geom_bond_site_symmetry_2
Ba0 O3 2.766208 1_655
Ba0 O0 2.766222 1_555
Ba0 O14 2.768272 1_555
Ba0 O26 2.795679 1_555
Ba0 O25 2.839918 1_656
Ba0 O27 2.840138 1_556
Ba0 O19 2.851674 1_555
Ba0 O21 2.851711 1_555
Ba0 O9 2.872950 1_556
Ba0 O5 2.872974 1_556
Ba1 O1 2.766208 1_655
Ba1 O10 2.766222 1_545
Ba1 O16 2.768276 1_555
Ba1 O28 2.795679 1_555
Ba1 O24 2.839918 1_656
Ba1 O27 2.840138 1_546
Ba1 O18 2.851674 1_555
Ba1 O21 2.851711 1_555
Ba1 O8 2.872950 1_556
Ba1 O7 2.872974 1_556
Ba2 O7 2.766208 1_455
Ba2 O2 2.766222 1_555
Ba2 O12 2.768272 1_554
Ba2 O24 2.795679 1_555
Ba2 O28 2.839918 1_455
Ba2 O29 2.840138 1_555
Ba2 O22 2.851674 1_555
Ba2 O23 2.851711 1_555
Ba2 O6 2.872950 1_555
Ba2 O1 2.872974 1_555
Ba3 O6 2.766369 1_555
Ba3 O4 2.766369 1_545
Ba3 O17 2.768294 1_555
Ba3 O29 2.795574 1_555
Ba3 O24 2.840144 1_556
Ba3 O25 2.840144 1_546
Ba3 O18 2.851821 1_555
Ba3 O19 2.851821 1_555
Ba3 O11 2.872961 1_556
Ba3 O2 2.872961 1_556
Ba4 O5 2.766208 1_455
Ba4 O11 2.766222 1_565
Ba4 O13 2.768276 1_554
Ba4 O25 2.795679 1_555
Ba4 O26 2.839918 1_455
Ba4 O29 2.840138 1_565
Ba4 O20 2.851674 1_555
Ba4 O23 2.851711 1_555
Ba4 O4 2.872950 1_555
Ba4 O3 2.872974 1_555
Ba5 O9 2.766369 1_555
Ba5 O8 2.766369 1_565
Ba5 O15 2.768294 1_554
Ba5 O27 2.795574 1_555
Ba5 O26 2.840144 1_555
Ba5 O28 2.840144 1_565
Ba5 O20 2.851821 1_555
Ba5 O22 2.851821 1_555
Ba5 O10 2.872961 1_555
Ba5 O0 2.872961 1_555
Na0 O10 2.434494 1_545
Na0 O4 2.434657 1_545
Na0 O17 2.436719 1_555
Na0 O16 2.437009 1_555
Na0 O18 2.509649 1_555
Na0 O20 2.628754 1_545
Na0 O11 2.797319 1_555
Na0 O8 2.797321 1_555
Na1 O0 2.434494 1_555
Na1 O6 2.434657 1_555
Na1 O17 2.436708 1_555
Na1 O14 2.437006 1_555
Na1 O19 2.509649 1_555
Na1 O22 2.628754 1_555
Na1 O2 2.797319 1_555
Na1 O9 2.797321 1_555
Na2 O11 2.434494 1_565
Na2 O8 2.434657 1_565
Na2 O15 2.436719 1_554
Na2 O13 2.437009 1_554
Na2 O20 2.509649 1_555
Na2 O18 2.628754 1_564
Na2 O10 2.797319 1_554
Na2 O4 2.797321 1_554
Na3 O1 2.434113 1_655
Na3 O3 2.434113 1_655
Na3 O16 2.436453 1_555
Na3 O14 2.436460 1_555
Na3 O21 2.509569 1_555
Na3 O23 2.628310 1_655
Na3 O5 2.797111 1_555
Na3 O7 2.797111 1_555
Na4 O2 2.434494 1_555
Na4 O9 2.434657 1_555
Na4 O15 2.436708 1_554
Na4 O12 2.437006 1_554
Na4 O22 2.509649 1_555
Na4 O19 2.628754 1_554
Na4 O0 2.797319 1_554
Na4 O6 2.797321 1_554
Na5 O5 2.434113 1_455
Na5 O7 2.434113 1_455
Na5 O13 2.436453 1_554
Na5 O12 2.436460 1_554
Na5 O23 2.509569 1_555
Na5 O21 2.628310 1_454
Na5 O1 2.797111 1_554
Na5 O3 2.797111 1_554
C0 O12 1.278241 1_555
C0 O6 1.294818 1_555
C0 O1 1.294832 1_555
C1 O13 1.278241 1_555
C1 O4 1.294824 1_555
C1 O3 1.294829 1_555
C2 O14 1.278241 1_555
C2 O9 1.294818 1_555
C2 O5 1.294832 1_555
C3 O15 1.278271 1_555
C3 O0 1.294887 1_555
C3 O10 1.294897 1_555
C4 O16 1.278241 1_555
C4 O8 1.294824 1_555
C4 O7 1.294829 1_555
C5 O17 1.278271 1_555
C5 O2 1.294887 1_555
C5 O11 1.294897 1_555
C6 O18 1.292476 1_555
C6 O19 1.292486 1_555
C6 O21 1.292506 1_555
C7 O20 1.292476 1_555
C7 O22 1.292486 1_555
C7 O23 1.292506 1_555
C8 O24 1.291675 1_555
C8 O25 1.291675 1_545
C8 O27 1.291678 1_445
C9 O26 1.291675 1_445
C9 O28 1.291675 1_455
C9 O29 1.291678 1_555
