# generated using pymatgen
data_ZnCdAu2
_symmetry_space_group_name_H-M   'P 1'
_cell_length_a   6.30595368
_cell_length_b   6.30595368
_cell_length_c   13.87933686
_cell_angle_alpha   90.00000000
_cell_angle_beta   90.00000000
_cell_angle_gamma   90.00000000
_symmetry_Int_Tables_number   1
_chemical_formula_structural   ZnCdAu2
_chemical_formula_sum   'Zn8 Cd8 Au16'
_cell_volume   551.91254939
_cell_formula_units_Z   8
loop_
 _symmetry_equiv_pos_site_id
 _symmetry_equiv_pos_as_xyz
  1  'x, y, z'
loop_
 _atom_site_type_symbol
 _atom_site_label
 _atom_site_symmetry_multiplicity
 _atom_site_fract_x
 _atom_site_fract_y
 _atom_site_fract_z
 _atom_site_occupancy
  Zn  Zn0_0  1  0.25000000  0.25000000  0.25000000  1
  Zn  Zn0_1  1  0.25000000  0.25000000  0.75000000  1
  Zn  Zn0_2  1  0.25000000  0.75000000  0.25000000  1
  Zn  Zn0_3  1  0.25000000  0.75000000  0.75000000  1
  Zn  Zn0_4  1  0.75000000  0.25000000  0.25000000  1
  Zn  Zn0_5  1  0.75000000  0.25000000  0.75000000  1
  Zn  Zn0_6  1  0.75000000  0.75000000  0.25000000  1
  Zn  Zn0_7  1  0.75000000  0.75000000  0.75000000  1
  Cd  Cd0_0  1  0.25000000  0.25000000  0.00000000  1
  Cd  Cd0_1  1  0.25000000  0.25000000  0.50000000  1
  Cd  Cd0_2  1  0.25000000  0.75000000  0.00000000  1
  Cd  Cd0_3  1  0.25000000  0.75000000  0.50000000  1
  Cd  Cd0_4  1  0.75000000  0.25000000  0.00000000  1
  Cd  Cd0_5  1  0.75000000  0.25000000  0.50000000  1
  Cd  Cd0_6  1  0.75000000  0.75000000  0.00000000  1
  Cd  Cd0_7  1  0.75000000  0.75000000  0.50000000  1
  Au  Au0_0  1  0.00000000  0.00000000  0.36092993  1
  Au  Au0_1  1  0.00000000  0.00000000  0.86092993  1
  Au  Au0_2  1  0.00000000  0.50000000  0.36092993  1
  Au  Au0_3  1  0.00000000  0.50000000  0.86092993  1
  Au  Au0_4  1  0.50000000  0.00000000  0.36092993  1
  Au  Au0_5  1  0.50000000  0.00000000  0.86092993  1
  Au  Au0_6  1  0.50000000  0.50000000  0.36092993  1
  Au  Au0_7  1  0.50000000  0.50000000  0.86092993  1
  Au  Au1_0  1  0.00000000  0.00000000  0.13907006  1
  Au  Au1_1  1  0.00000000  0.00000000  0.63907006  1
  Au  Au1_2  1  0.00000000  0.50000000  0.13907006  1
  Au  Au1_3  1  0.00000000  0.50000000  0.63907006  1
  Au  Au1_4  1  0.50000000  0.00000000  0.13907006  1
  Au  Au1_5  1  0.50000000  0.00000000  0.63907006  1
  Au  Au1_6  1  0.50000000  0.50000000  0.13907006  1
  Au  Au1_7  1  0.50000000  0.50000000  0.63907006  1
loop_
_geom_bond_atom_site_label_1
_geom_bond_atom_site_label_2
_geom_bond_distance
_geom_bond_site_symmetry_2
Cd0_0 Cd0_4 3.152977 1_555
Cd0_0 Cd0_2 3.152977 1_555
Cd0_0 Cd0_4 3.152977 1_455
Cd0_0 Cd0_2 3.152977 1_545
Cd0_1 Cd0_3 3.152977 1_555
Cd0_1 Cd0_5 3.152977 1_555
Cd0_1 Cd0_3 3.152977 1_545
Cd0_1 Cd0_5 3.152977 1_455
Cd0_2 Cd0_6 3.152977 1_555
Cd0_2 Cd0_6 3.152977 1_455
Cd0_3 Cd0_7 3.152977 1_555
Cd0_3 Cd0_7 3.152977 1_455
Cd0_4 Cd0_6 3.152977 1_555
Cd0_4 Cd0_6 3.152977 1_545
Cd0_5 Cd0_7 3.152977 1_555
Cd0_5 Cd0_7 3.152977 1_545
Au0_0 Zn0_0 2.709447 1_555
Au0_0 Zn0_2 2.709447 1_545
Au0_0 Zn0_4 2.709447 1_455
Au0_0 Zn0_6 2.709447 1_445
Au0_0 Cd0_1 2.948950 1_555
Au0_0 Cd0_3 2.948950 1_545
Au0_0 Cd0_7 2.948950 1_445
Au0_0 Cd0_5 2.948950 1_455
Au0_0 Au1_0 3.079268 1_555
Au0_0 Au0_2 3.152977 1_555
Au0_0 Au0_2 3.152977 1_545
Au0_0 Au0_4 3.152977 1_455
Au0_0 Au0_4 3.152977 1_555
Au0_1 Zn0_5 2.709447 1_455
Au0_1 Zn0_1 2.709447 1_555
Au0_1 Zn0_3 2.709447 1_545
Au0_1 Zn0_7 2.709447 1_445
Au0_1 Cd0_0 2.948950 1_556
Au0_1 Cd0_4 2.948950 1_456
Au0_1 Cd0_2 2.948950 1_546
Au0_1 Cd0_6 2.948950 1_446
Au0_1 Au1_1 3.079268 1_555
Au0_1 Au0_5 3.152977 1_555
Au0_1 Au0_3 3.152977 1_555
Au0_1 Au0_5 3.152977 1_455
Au0_1 Au0_3 3.152977 1_545
Au0_2 Zn0_2 2.709447 1_555
Au0_2 Zn0_6 2.709447 1_455
Au0_2 Zn0_0 2.709447 1_555
Au0_2 Zn0_4 2.709447 1_455
Au0_2 Cd0_3 2.948950 1_555
Au0_2 Cd0_1 2.948950 1_555
Au0_2 Cd0_7 2.948950 1_455
Au0_2 Cd0_5 2.948950 1_455
Au0_2 Au1_2 3.079268 1_555
Au0_2 Au0_6 3.152977 1_455
Au0_2 Au0_6 3.152977 1_555
Au0_3 Zn0_3 2.709447 1_555
Au0_3 Zn0_5 2.709447 1_455
Au0_3 Zn0_7 2.709447 1_455
Au0_3 Zn0_1 2.709447 1_555
Au0_3 Cd0_2 2.948950 1_556
Au0_3 Cd0_6 2.948950 1_456
Au0_3 Cd0_0 2.948950 1_556
Au0_3 Cd0_4 2.948950 1_456
Au0_3 Au1_3 3.079268 1_555
Au0_3 Au0_7 3.152977 1_555
Au0_3 Au0_7 3.152977 1_455
Au0_4 Zn0_4 2.709447 1_555
Au0_4 Zn0_6 2.709447 1_545
Au0_4 Zn0_0 2.709447 1_555
Au0_4 Zn0_2 2.709447 1_545
Au0_4 Cd0_5 2.948950 1_555
Au0_4 Cd0_1 2.948950 1_555
Au0_4 Cd0_7 2.948950 1_545
Au0_4 Cd0_3 2.948950 1_545
Au0_4 Au1_4 3.079268 1_555
Au0_4 Au0_6 3.152977 1_555
Au0_4 Au0_6 3.152977 1_545
Au0_5 Zn0_5 2.709447 1_555
Au0_5 Zn0_1 2.709447 1_555
Au0_5 Zn0_3 2.709447 1_545
Au0_5 Zn0_7 2.709447 1_545
Au0_5 Cd0_4 2.948950 1_556
Au0_5 Cd0_6 2.948950 1_546
Au0_5 Cd0_0 2.948950 1_556
Au0_5 Cd0_2 2.948950 1_546
Au0_5 Au1_5 3.079268 1_555
Au0_5 Au0_7 3.152977 1_555
Au0_5 Au0_7 3.152977 1_545
Au0_6 Zn0_6 2.709447 1_555
Au0_6 Zn0_2 2.709447 1_555
Au0_6 Zn0_4 2.709447 1_555
Au0_6 Zn0_0 2.709447 1_555
Au0_6 Cd0_7 2.948950 1_555
Au0_6 Cd0_3 2.948950 1_555
Au0_6 Cd0_5 2.948950 1_555
Au0_6 Cd0_1 2.948950 1_555
Au0_6 Au1_6 3.079268 1_555
Au0_7 Zn0_5 2.709447 1_555
Au0_7 Zn0_7 2.709447 1_555
Au0_7 Zn0_3 2.709447 1_555
Au0_7 Zn0_1 2.709447 1_555
Au0_7 Cd0_4 2.948950 1_556
Au0_7 Cd0_2 2.948950 1_556
Au0_7 Cd0_6 2.948950 1_556
Au0_7 Cd0_0 2.948950 1_556
Au0_7 Au1_7 3.079268 1_555
Au1_0 Zn0_0 2.709447 1_555
Au1_0 Zn0_2 2.709447 1_545
Au1_0 Zn0_4 2.709447 1_455
Au1_0 Zn0_6 2.709447 1_445
Au1_0 Cd0_0 2.948950 1_555
Au1_0 Cd0_4 2.948950 1_455
Au1_0 Cd0_2 2.948950 1_545
Au1_0 Cd0_6 2.948950 1_445
Au1_0 Au1_2 3.152977 1_555
Au1_0 Au1_2 3.152977 1_545
Au1_0 Au1_4 3.152977 1_455
Au1_0 Au1_4 3.152977 1_555
Au1_1 Zn0_5 2.709447 1_455
Au1_1 Zn0_3 2.709447 1_545
Au1_1 Zn0_1 2.709447 1_555
Au1_1 Zn0_7 2.709447 1_445
Au1_1 Cd0_1 2.948950 1_555
Au1_1 Cd0_5 2.948950 1_455
Au1_1 Cd0_3 2.948950 1_545
Au1_1 Cd0_7 2.948950 1_445
Au1_1 Au1_5 3.152977 1_455
Au1_1 Au1_3 3.152977 1_555
Au1_1 Au1_5 3.152977 1_555
Au1_1 Au1_3 3.152977 1_545
Au1_2 Zn0_2 2.709447 1_555
Au1_2 Zn0_6 2.709447 1_455
Au1_2 Zn0_0 2.709447 1_555
Au1_2 Zn0_4 2.709447 1_455
Au1_2 Cd0_2 2.948950 1_555
Au1_2 Cd0_0 2.948950 1_555
Au1_2 Cd0_6 2.948950 1_455
Au1_2 Cd0_4 2.948950 1_455
Au1_2 Au1_6 3.152977 1_555
Au1_2 Au1_6 3.152977 1_455
Au1_3 Zn0_3 2.709447 1_555
Au1_3 Zn0_5 2.709447 1_455
Au1_3 Zn0_7 2.709447 1_455
Au1_3 Zn0_1 2.709447 1_555
Au1_3 Cd0_7 2.948950 1_455
Au1_3 Cd0_3 2.948950 1_555
Au1_3 Cd0_1 2.948950 1_555
Au1_3 Cd0_5 2.948950 1_455
Au1_3 Au1_7 3.152977 1_455
Au1_3 Au1_7 3.152977 1_555
Au1_4 Zn0_4 2.709447 1_555
Au1_4 Zn0_6 2.709447 1_545
Au1_4 Zn0_0 2.709447 1_555
Au1_4 Zn0_2 2.709447 1_545
Au1_4 Cd0_4 2.948950 1_555
Au1_4 Cd0_0 2.948950 1_555
Au1_4 Cd0_6 2.948950 1_545
Au1_4 Cd0_2 2.948950 1_545
Au1_4 Au1_6 3.152977 1_555
Au1_4 Au1_6 3.152977 1_545
Au1_5 Zn0_5 2.709447 1_555
Au1_5 Zn0_3 2.709447 1_545
Au1_5 Zn0_1 2.709447 1_555
Au1_5 Zn0_7 2.709447 1_545
Au1_5 Cd0_5 2.948950 1_555
Au1_5 Cd0_7 2.948950 1_545
Au1_5 Cd0_1 2.948950 1_555
Au1_5 Cd0_3 2.948950 1_545
Au1_5 Au1_7 3.152977 1_545
Au1_5 Au1_7 3.152977 1_555
Au1_6 Zn0_6 2.709447 1_555
Au1_6 Zn0_2 2.709447 1_555
Au1_6 Zn0_4 2.709447 1_555
Au1_6 Zn0_0 2.709447 1_555
Au1_6 Cd0_6 2.948950 1_555
Au1_6 Cd0_4 2.948950 1_555
Au1_6 Cd0_2 2.948950 1_555
Au1_6 Cd0_0 2.948950 1_555
Au1_7 Zn0_7 2.709447 1_555
Au1_7 Zn0_3 2.709447 1_555
Au1_7 Zn0_5 2.709447 1_555
Au1_7 Zn0_1 2.709447 1_555
Au1_7 Cd0_7 2.948950 1_555
Au1_7 Cd0_5 2.948950 1_555
Au1_7 Cd0_3 2.948950 1_555
Au1_7 Cd0_1 2.948950 1_555
