# generated using pymatgen
data_LaMg14Sn
_symmetry_space_group_name_H-M   'P 1'
_cell_length_a   6.50939127
_cell_length_b   6.50939071
_cell_length_c   10.59360015
_cell_angle_alpha   90.00000000
_cell_angle_beta   90.00000000
_cell_angle_gamma   120.00000279
_symmetry_Int_Tables_number   1
_chemical_formula_structural   LaMg14Sn
_chemical_formula_sum   'La1 Mg14 Sn1'
_cell_volume   388.73613565
_cell_formula_units_Z   1
loop_
 _symmetry_equiv_pos_site_id
 _symmetry_equiv_pos_as_xyz
  1  'x, y, z'
loop_
 _atom_site_type_symbol
 _atom_site_label
 _atom_site_symmetry_multiplicity
 _atom_site_fract_x
 _atom_site_fract_y
 _atom_site_fract_z
 _atom_site_occupancy
  La  La0  1  0.16666700  0.33333300  0.62500000  1
  Mg  Mg0  1  0.16116619  0.83058259  0.12500000  1
  Mg  Mg1  1  0.17963161  0.83981531  0.62500000  1
  Mg  Mg2  1  0.66941741  0.33883381  0.12500000  1
  Mg  Mg3  1  0.66018469  0.32036839  0.62500000  1
  Mg  Mg4  1  0.66941741  0.83058259  0.12500000  1
  Mg  Mg5  1  0.66018469  0.83981531  0.62500000  1
  Mg  Mg6  1  0.33459843  0.16540157  0.36872858  1
  Mg  Mg7  1  0.33459843  0.16540157  0.88127142  1
  Mg  Mg8  1  0.33459843  0.66919785  0.36872858  1
  Mg  Mg9  1  0.33459843  0.66919785  0.88127142  1
  Mg  Mg10  1  0.83080215  0.16540157  0.36872858  1
  Mg  Mg11  1  0.83080215  0.16540157  0.88127142  1
  Mg  Mg12  1  0.83333300  0.66666700  0.38575135  1
  Mg  Mg13  1  0.83333300  0.66666700  0.86424865  1
  Sn  Sn0  1  0.16666700  0.33333300  0.12500000  1
loop_
_geom_bond_atom_site_label_1
_geom_bond_atom_site_label_2
_geom_bond_distance
_geom_bond_site_symmetry_2
La0 Mg1 3.255516 1_545
La0 Mg5 3.255516 1_555
La0 Mg5 3.255516 1_445
La0 Mg1 3.255516 1_555
La0 Mg3 3.255516 1_555
La0 Mg3 3.255516 1_455
La0 Mg6 3.309856 1_555
La0 Mg7 3.309856 1_555
La0 Mg9 3.309863 1_555
La0 Mg8 3.309863 1_555
La0 Mg10 3.309863 1_455
La0 Mg11 3.309863 1_455
Mg0 Mg9 3.198529 1_554
Mg0 Mg8 3.198529 1_555
Mg0 Mg7 3.198536 1_564
Mg0 Mg6 3.198536 1_565
Mg0 Mg2 3.200985 1_455
Mg0 Mg4 3.200985 1_455
Mg0 Sn0 3.254843 1_555
Mg0 Sn0 3.254843 1_565
Mg0 Mg2 3.308406 1_565
Mg0 Mg4 3.308406 1_555
Mg0 Mg12 3.323511 1_455
Mg0 Mg13 3.323511 1_454
Mg1 Mg3 3.128108 1_565
Mg1 Mg5 3.128108 1_555
Mg1 Mg13 3.199180 1_455
Mg1 Mg12 3.199180 1_455
Mg1 Mg9 3.277451 1_555
Mg1 Mg8 3.277451 1_555
Mg1 Mg7 3.277457 1_565
Mg1 Mg6 3.277457 1_565
Mg1 Mg3 3.381283 1_455
Mg1 Mg5 3.381283 1_455
Mg2 Mg7 3.198536 1_554
Mg2 Mg6 3.198536 1_555
Mg2 Mg4 3.200985 1_555
Mg2 Sn0 3.254843 1_655
Mg2 Sn0 3.254843 1_555
Mg2 Mg4 3.308406 1_545
Mg3 Mg5 3.128108 1_545
Mg3 Mg6 3.277457 1_555
Mg3 Mg7 3.277457 1_555
Mg3 Mg5 3.381283 1_555
Mg4 Mg8 3.198536 1_555
Mg4 Mg9 3.198536 1_554
Mg4 Sn0 3.254843 1_665
Mg4 Sn0 3.254843 1_555
Mg5 Mg8 3.277457 1_555
Mg5 Mg9 3.277457 1_555
Mg6 Sn0 3.201772 1_555
Mg6 Mg8 3.229984 1_545
Mg6 Mg8 3.279407 1_555
Mg7 Sn0 3.201772 1_556
Mg7 Mg9 3.229984 1_545
Mg7 Mg9 3.279407 1_555
Mg8 Sn0 3.201778 1_555
Mg9 Sn0 3.201778 1_556
Mg10 Mg2 3.198529 1_555
Mg10 Mg4 3.198536 1_545
Mg10 Sn0 3.201778 1_655
Mg10 Mg8 3.229984 1_545
Mg10 Mg6 3.229984 1_555
Mg10 Mg12 3.259719 1_545
Mg10 Mg12 3.259719 1_555
Mg10 Mg3 3.277451 1_555
Mg10 Mg5 3.277457 1_545
Mg10 Mg8 3.279407 1_655
Mg10 Mg6 3.279407 1_655
Mg11 Mg2 3.198529 1_556
Mg11 Mg4 3.198536 1_546
Mg11 Sn0 3.201778 1_656
Mg11 Mg9 3.229984 1_545
Mg11 Mg7 3.229984 1_555
Mg11 Mg13 3.259719 1_545
Mg11 Mg13 3.259719 1_555
Mg11 Mg3 3.277451 1_555
Mg11 Mg5 3.277457 1_545
Mg11 Mg9 3.279407 1_655
Mg11 Mg7 3.279407 1_655
Mg12 Mg5 3.199173 1_555
Mg12 Mg3 3.199180 1_555
Mg12 Mg6 3.259719 1_555
Mg12 Mg6 3.259719 1_665
Mg12 Mg8 3.259719 1_555
Mg12 Mg8 3.259719 1_655
Mg12 Mg4 3.323505 1_555
Mg12 Mg2 3.323511 1_555
Mg13 Mg5 3.199173 1_555
Mg13 Mg3 3.199180 1_555
Mg13 Mg7 3.259719 1_555
Mg13 Mg7 3.259719 1_665
Mg13 Mg9 3.259719 1_555
Mg13 Mg9 3.259719 1_655
Mg13 Mg4 3.323505 1_556
Mg13 Mg2 3.323511 1_556
