# generated using pymatgen
data_Cr2Ir2O5
_symmetry_space_group_name_H-M   'P 1'
_cell_length_a   3.42417100
_cell_length_b   3.42417100
_cell_length_c   8.82124200
_cell_angle_alpha   90.00000000
_cell_angle_beta   90.00000000
_cell_angle_gamma   90.00000000
_symmetry_Int_Tables_number   1
_chemical_formula_structural   Cr2Ir2O5
_chemical_formula_sum   'Cr2 Ir2 O5'
_cell_volume   103.42859525
_cell_formula_units_Z   1
loop_
 _symmetry_equiv_pos_site_id
 _symmetry_equiv_pos_as_xyz
  1  'x, y, z'
loop_
 _atom_site_type_symbol
 _atom_site_label
 _atom_site_symmetry_multiplicity
 _atom_site_fract_x
 _atom_site_fract_y
 _atom_site_fract_z
 _atom_site_occupancy
  Cr  Cr0  1  0.50000000  0.50000000  0.27317500  1
  Cr  Cr1  1  0.50000000  0.50000000  0.72682500  1
  Ir  Ir0  1  0.00000000  0.00000000  0.00000000  1
  Ir  Ir1  1  0.00000000  0.00000000  0.50000000  1
  O  O0  1  0.50000000  0.00000000  0.13702800  1
  O  O1  1  0.50000000  0.00000000  0.86297200  1
  O  O2  1  0.50000000  0.50000000  0.50000000  1
  O  O3  1  0.00000000  0.50000000  0.13702800  1
  O  O4  1  0.00000000  0.50000000  0.86297200  1
loop_
_geom_bond_atom_site_label_1
_geom_bond_atom_site_label_2
_geom_bond_distance
_geom_bond_site_symmetry_2
Cr0 O2 2.000878 1_555
Cr0 O0 2.091316 1_565
Cr0 O3 2.091316 1_655
Cr0 O3 2.091316 1_555
Cr0 O0 2.091316 1_555
Cr1 O2 2.000878 1_555
Cr1 O4 2.091316 1_655
Cr1 O1 2.091316 1_565
Cr1 O4 2.091316 1_555
Cr1 O1 2.091316 1_555
Ir0 O3 2.095789 1_545
Ir0 O0 2.095789 1_455
Ir0 O3 2.095789 1_555
Ir0 O0 2.095789 1_555
Ir0 O1 2.095789 1_554
Ir0 O1 2.095789 1_454
Ir0 O4 2.095789 1_544
Ir0 O4 2.095789 1_554
Ir1 O2 2.421255 1_555
Ir1 O2 2.421255 1_545
Ir1 O2 2.421255 1_455
Ir1 O2 2.421255 1_445
