# generated using pymatgen
data_Ag2CO3
_symmetry_space_group_name_H-M   'P 1'
_cell_length_a   9.16008808
_cell_length_b   9.16008808
_cell_length_c   3.40826300
_cell_angle_alpha   90.00000000
_cell_angle_beta   90.00000000
_cell_angle_gamma   120.00000057
_symmetry_Int_Tables_number   1
_chemical_formula_structural   Ag2CO3
_chemical_formula_sum   'Ag6 C3 O9'
_cell_volume   247.66408298
_cell_formula_units_Z   3
loop_
 _symmetry_equiv_pos_site_id
 _symmetry_equiv_pos_as_xyz
  1  'x, y, z'
loop_
 _atom_site_type_symbol
 _atom_site_label
 _atom_site_symmetry_multiplicity
 _atom_site_fract_x
 _atom_site_fract_y
 _atom_site_fract_z
 _atom_site_occupancy
  Ag  Ag0  1  0.66568600  0.00729100  0.50000000  1
  Ag  Ag1  1  0.34160500  0.33431400  0.50000000  1
  Ag  Ag2  1  0.99270900  0.65839500  0.50000000  1
  Ag  Ag3  1  0.66401000  0.69730100  0.00000000  1
  Ag  Ag4  1  0.03329100  0.33599000  0.00000000  1
  Ag  Ag5  1  0.30269900  0.96670900  0.00000000  1
  C  C0  1  0.00000000  0.00000000  0.50000000  1
  C  C1  1  0.33333300  0.66666700  0.50000000  1
  C  C2  1  0.66666700  0.33333300  0.00000000  1
  O  O0  1  0.94611000  0.10731900  0.50000000  1
  O  O1  1  0.16120900  0.05389000  0.50000000  1
  O  O2  1  0.89268100  0.83879100  0.50000000  1
  O  O3  1  0.38870900  0.82810500  0.50000000  1
  O  O4  1  0.17189500  0.56060400  0.50000000  1
  O  O5  1  0.43939600  0.61129100  0.50000000  1
  O  O6  1  0.50244900  0.26108500  0.00000000  1
  O  O7  1  0.75863600  0.49755100  0.00000000  1
  O  O8  1  0.73891500  0.24136400  0.00000000  1
loop_
_geom_bond_atom_site_label_1
_geom_bond_atom_site_label_2
_geom_bond_distance
_geom_bond_site_symmetry_2
Ag0 O3 2.228623 1_545
Ag0 O0 2.254814 1_555
Ag0 O8 2.552069 1_556
Ag0 O8 2.552069 1_555
Ag1 O5 2.228623 1_555
Ag1 O1 2.254814 1_555
Ag1 O6 2.552069 1_556
Ag1 O6 2.552069 1_555
Ag2 O4 2.228623 1_655
Ag2 O2 2.254814 1_555
Ag2 O7 2.552069 1_556
Ag2 O7 2.552069 1_555
Ag3 O7 2.384364 1_555
Ag3 O5 2.477301 1_555
Ag3 O5 2.477301 1_554
Ag3 O2 2.501318 1_555
Ag3 O2 2.501318 1_554
Ag4 O8 2.384364 1_455
Ag4 O4 2.477301 1_554
Ag4 O4 2.477301 1_555
Ag4 O0 2.501318 1_454
Ag4 O0 2.501318 1_455
Ag5 O6 2.384364 1_565
Ag5 O3 2.477301 1_555
Ag5 O3 2.477301 1_554
Ag5 O1 2.501318 1_565
Ag5 O1 2.501318 1_564
C0 O2 1.302052 1_445
C0 O1 1.302052 1_555
C0 O0 1.302052 1_455
C1 O3 1.301537 1_555
C1 O4 1.301538 1_555
C1 O5 1.301545 1_555
C2 O8 1.305839 1_555
C2 O7 1.305847 1_555
C2 O6 1.305848 1_555
