# generated using pymatgen
data_MgZr2H10(S3O14)2
_symmetry_space_group_name_H-M   'P 1'
_cell_length_a   5.32499709
_cell_length_b   8.88745575
_cell_length_c   12.70977931
_cell_angle_alpha   90.62163304
_cell_angle_beta   89.48584329
_cell_angle_gamma   91.88946415
_symmetry_Int_Tables_number   1
_chemical_formula_structural   MgZr2H10(S3O14)2
_chemical_formula_sum   'Mg1 Zr2 H10 S6 O28'
_cell_volume   601.11413900
_cell_formula_units_Z   1
loop_
 _symmetry_equiv_pos_site_id
 _symmetry_equiv_pos_as_xyz
  1  'x, y, z'
loop_
 _atom_site_type_symbol
 _atom_site_label
 _atom_site_symmetry_multiplicity
 _atom_site_fract_x
 _atom_site_fract_y
 _atom_site_fract_z
 _atom_site_occupancy
  Mg  Mg0  1  0.75463832  0.58401416  0.27315622  1
  Zr  Zr0  1  0.75993595  0.89592422  0.81673257  1
  Zr  Zr1  1  0.21445142  0.10569875  0.17069806  1
  H  H0  1  0.42978246  0.67447982  0.56064720  1
  H  H1  1  0.59551675  0.34650500  0.47602857  1
  H  H2  1  0.27444234  0.84085150  0.53876745  1
  H  H3  1  0.67907084  0.17341638  0.48296143  1
  H  H4  1  0.43031525  0.75590956  0.44392945  1
  H  H5  1  0.52068729  0.25038550  0.58936900  1
  H  H6  1  0.13082407  0.37773687  0.82668125  1
  H  H7  1  0.97069459  0.60108881  0.08814600  1
  H  H8  1  0.32728210  0.43151284  0.90756550  1
  H  H9  1  0.72743081  0.49942258  0.07258841  1
  S  S0  1  0.76576295  0.61892719  0.70183585  1
  S  S1  1  0.26187986  0.38684171  0.29457268  1
  S  S2  1  0.26299615  0.06190037  0.67532079  1
  S  S3  1  0.71300143  0.94642942  0.32264269  1
  S  S4  1  0.25426989  0.80278474  0.99290034  1
  S  S5  1  0.71553383  0.20247663  0.00519029  1
  O  O0  1  0.89628822  0.77364573  0.68027768  1
  O  O1  1  0.17540950  0.23545033  0.33278380  1
  O  O2  1  0.58623194  0.58113226  0.61650917  1
  O  O3  1  0.50528591  0.43901456  0.34403007  1
  O  O4  1  0.94092194  0.50239373  0.71760271  1
  O  O5  1  0.07636201  0.50231326  0.31735385  1
  O  O6  1  0.62315307  0.66428041  0.80267936  1
  O  O7  1  0.30697623  0.36138702  0.17920723  1
  O  O8  1  0.23278122  0.99404632  0.57026825  1
  O  O9  1  0.70999343  0.01179119  0.42740768  1
  O  O10  1  0.02588281  0.05368277  0.73793550  1
  O  O11  1  0.96289150  0.96159839  0.26983438  1
  O  O12  1  0.35200114  0.21996908  0.66752564  1
  O  O13  1  0.64581164  0.78039322  0.32960676  1
  O  O14  1  0.45655737  0.97443756  0.73528379  1
  O  O15  1  0.52314319  0.01619943  0.25351966  1
  O  O16  1  0.06533156  0.82907882  0.90897134  1
  O  O17  1  0.90336654  0.17466294  0.09318351  1
  O  O18  1  0.78091403  0.10941550  0.91404065  1
  O  O19  1  0.18152878  0.89910060  0.08634891  1
  O  O20  1  0.24553026  0.64679689  0.02582620  1
  O  O21  1  0.70821265  0.36064272  0.98396277  1
  O  O22  1  0.50550232  0.85386631  0.95445833  1
  O  O23  1  0.46925566  0.14358239  0.05001938  1
  O  O24  1  0.22692102  0.34313814  0.88623332  1
  O  O25  1  0.80282914  0.57723631  0.12112370  1
  O  O26  1  0.32081038  0.73584065  0.50600333  1
  O  O27  1  0.65659023  0.27002641  0.52431128  1
loop_
_geom_bond_atom_site_label_1
_geom_bond_atom_site_label_2
_geom_bond_distance
_geom_bond_site_symmetry_2
Mg0 O25 1.947526 1_555
Mg0 O5 1.971275 1_655
Mg0 O13 1.982110 1_555
Mg0 O3 2.031270 1_555
H0 O26 1.073677 1_555
H0 O2 1.398349 1_555
H1 O27 0.985672 1_555
H2 O26 1.053708 1_555
H2 O8 1.438653 1_555
H3 O27 1.011737 1_555
H3 O9 1.606397 1_555
H4 O26 0.991064 1_555
H5 O27 1.105424 1_555
H5 O12 1.356645 1_555
H6 O24 0.975537 1_555
H7 O25 1.001175 1_555
H7 O20 1.697410 1_655
H8 O24 0.972786 1_555
H9 O25 0.998435 1_555
H9 O21 1.662574 1_554
O0 S0 1.546180 1_555
O0 Zr0 2.169003 1_555
O1 S1 1.492487 1_555
O1 Zr1 2.360823 1_555
O2 S0 1.480676 1_555
O3 S1 1.502920 1_555
O4 S0 1.433294 1_555
O5 S1 1.472482 1_555
O6 S0 1.540588 1_555
O6 Zr0 2.167082 1_555
O7 S1 1.499619 1_555
O7 Zr1 2.310870 1_555
O8 S2 1.467067 1_565
O9 S3 1.447117 1_545
O10 S2 1.486620 1_555
O10 Zr0 2.201909 1_445
O11 S3 1.487760 1_555
O11 Zr1 2.216701 1_665
O12 S2 1.471822 1_555
O13 S3 1.510234 1_555
O14 S2 1.525518 1_565
O14 Zr0 2.070837 1_555
O15 S3 1.499179 1_545
O15 Zr1 2.139677 1_555
O16 S4 1.498300 1_555
O16 Zr0 2.117775 1_455
O17 S5 1.534491 1_555
O17 Zr1 2.049316 1_655
O18 S5 1.462301 1_556
O18 Zr0 2.253831 1_545
O19 S4 1.511616 1_554
O19 Zr1 2.119165 1_565
O20 S4 1.451620 1_554
O21 S5 1.436077 1_556
O22 S4 1.479052 1_555
O22 Zr0 2.231081 1_555
O23 S5 1.505407 1_555
O23 Zr1 2.061704 1_555
