# generated using pymatgen
data_Na2TiSi4H4O13
_symmetry_space_group_name_H-M   'P 1'
_cell_length_a   7.42998500
_cell_length_b   7.42998500
_cell_length_c   10.86566500
_cell_angle_alpha   90.00000000
_cell_angle_beta   90.00000000
_cell_angle_gamma   90.00000000
_symmetry_Int_Tables_number   1
_chemical_formula_structural   Na2TiSi4H4O13
_chemical_formula_sum   'Na4 Ti2 Si8 H8 O26'
_cell_volume   599.83552780
_cell_formula_units_Z   2
loop_
 _symmetry_equiv_pos_site_id
 _symmetry_equiv_pos_as_xyz
  1  'x, y, z'
loop_
 _atom_site_type_symbol
 _atom_site_label
 _atom_site_symmetry_multiplicity
 _atom_site_fract_x
 _atom_site_fract_y
 _atom_site_fract_z
 _atom_site_occupancy
  Na  Na0  1  0.50000000  0.50000000  0.16950300  1
  Na  Na1  1  0.00000000  0.00000000  0.83049700  1
  Na  Na2  1  0.50000000  0.50000000  0.83049700  1
  Na  Na3  1  0.00000000  0.00000000  0.16950300  1
  Ti  Ti0  1  0.00000000  0.50000000  0.21824800  1
  Ti  Ti1  1  0.50000000  0.00000000  0.78175200  1
  Si  Si0  1  0.25993700  0.81836900  0.35555200  1
  Si  Si1  1  0.74006300  0.18163100  0.35555200  1
  Si  Si2  1  0.75993700  0.68163100  0.64444800  1
  Si  Si3  1  0.24006300  0.31836900  0.64444800  1
  Si  Si4  1  0.81836900  0.25993700  0.64444800  1
  Si  Si5  1  0.18163100  0.74006300  0.64444800  1
  Si  Si6  1  0.68163100  0.75993700  0.35555200  1
  Si  Si7  1  0.31836900  0.24006300  0.35555200  1
  H  H0  1  0.22288000  0.62444500  0.00968200  1
  H  H1  1  0.77712000  0.37555500  0.00968200  1
  H  H2  1  0.72288000  0.87555500  0.99031800  1
  H  H3  1  0.27712000  0.12444500  0.99031800  1
  H  H4  1  0.62444500  0.22288000  0.99031800  1
  H  H5  1  0.37555500  0.77712000  0.99031800  1
  H  H6  1  0.87555500  0.72288000  0.00968200  1
  H  H7  1  0.12444500  0.27712000  0.00968200  1
  O  O0  1  0.46455800  0.74787600  0.32638500  1
  O  O1  1  0.53544200  0.25212400  0.32638500  1
  O  O2  1  0.96455800  0.75212400  0.67361500  1
  O  O3  1  0.03544200  0.24787600  0.67361500  1
  O  O4  1  0.74787600  0.46455800  0.67361500  1
  O  O5  1  0.25212400  0.53544200  0.67361500  1
  O  O6  1  0.75212400  0.96455800  0.32638500  1
  O  O7  1  0.24787600  0.03544200  0.32638500  1
  O  O8  1  0.11764000  0.72740700  0.26317100  1
  O  O9  1  0.88236000  0.27259300  0.26317100  1
  O  O10  1  0.61764000  0.77259300  0.73682900  1
  O  O11  1  0.38236000  0.22740700  0.73682900  1
  O  O12  1  0.72740700  0.11764000  0.73682900  1
  O  O13  1  0.27259300  0.88236000  0.73682900  1
  O  O14  1  0.77259300  0.61764000  0.26317100  1
  O  O15  1  0.22740700  0.38236000  0.26317100  1
  O  O16  1  0.00000000  0.50000000  0.05732400  1
  O  O17  1  0.50000000  0.00000000  0.94267600  1
  O  O18  1  0.21562300  0.78437700  0.50000000  1
  O  O19  1  0.78437700  0.21562300  0.50000000  1
  O  O20  1  0.71562300  0.71562300  0.50000000  1
  O  O21  1  0.28437700  0.28437700  0.50000000  1
  O  O22  1  0.35334200  0.64665800  0.00000000  1
  O  O23  1  0.64665800  0.35334200  0.00000000  1
  O  O24  1  0.85334200  0.85334200  0.00000000  1
  O  O25  1  0.14665800  0.14665800  0.00000000  1
loop_
_geom_bond_atom_site_label_1
_geom_bond_atom_site_label_2
_geom_bond_distance
_geom_bond_site_symmetry_2
Na0 O22 2.401424 1_555
Na0 O23 2.401424 1_555
Na0 O15 2.429387 1_555
Na0 O14 2.429387 1_555
Na0 O0 2.523294 1_555
Na0 O1 2.523294 1_555
Na1 O24 2.401424 1_446
Na1 O25 2.401424 1_556
Na1 O12 2.429387 1_455
Na1 O13 2.429387 1_545
Na1 O2 2.523294 1_445
Na1 O3 2.523294 1_555
Na2 O23 2.401424 1_556
Na2 O22 2.401424 1_556
Na2 O10 2.429387 1_555
Na2 O11 2.429387 1_555
Na2 O4 2.523294 1_555
Na2 O5 2.523294 1_555
Na3 O24 2.401424 1_445
Na3 O25 2.401424 1_555
Na3 O9 2.429387 1_455
Na3 O8 2.429387 1_545
Na3 O6 2.523294 1_445
Na3 O7 2.523294 1_555
H0 O22 0.988892 1_555
H1 O23 0.988892 1_555
H2 O24 0.988892 1_556
H3 O25 0.988892 1_556
H4 O23 0.988892 1_556
H5 O22 0.988892 1_556
H6 O24 0.988892 1_555
H7 O25 0.988892 1_555
O0 Si0 1.638954 1_555
O0 Si6 1.646132 1_555
O1 Si1 1.638954 1_555
O1 Si7 1.646132 1_555
O2 Si2 1.638954 1_555
O2 Si5 1.646132 1_655
O3 Si3 1.638954 1_555
O3 Si4 1.646132 1_455
O4 Si4 1.638954 1_555
O4 Si2 1.646132 1_555
O5 Si5 1.638954 1_555
O5 Si3 1.646132 1_555
O6 Si6 1.638954 1_555
O6 Si1 1.646132 1_565
O7 Si7 1.638954 1_555
O7 Si0 1.646132 1_545
O8 Si0 1.606908 1_555
O8 Ti0 1.963950 1_555
O9 Si1 1.606908 1_555
O9 Ti0 1.963950 1_655
O10 Si2 1.606908 1_555
O10 Ti1 1.963950 1_565
O11 Si3 1.606908 1_555
O11 Ti1 1.963950 1_555
O12 Si4 1.606908 1_555
O12 Ti1 1.963950 1_555
O13 Si5 1.606908 1_555
O13 Ti1 1.963950 1_565
O14 Si6 1.606908 1_555
O14 Ti0 1.963950 1_655
O15 Si7 1.606908 1_555
O15 Ti0 1.963950 1_555
O16 Ti0 1.748546 1_555
O17 Ti1 1.748546 1_555
O18 Si5 1.623452 1_555
O18 Si0 1.623452 1_555
O19 Si1 1.623452 1_555
O19 Si4 1.623452 1_555
O20 Si6 1.623452 1_555
O20 Si2 1.623452 1_555
O21 Si3 1.623452 1_555
O21 Si7 1.623452 1_555
