# generated using pymatgen
data_Ba4PrEu(Cu3O7)2
_symmetry_space_group_name_H-M   'P 1'
_cell_length_a   12.58992067
_cell_length_b   12.58992067
_cell_length_c   3.87917800
_cell_angle_alpha   90.00000000
_cell_angle_beta   90.00000000
_cell_angle_gamma   143.50041672
_symmetry_Int_Tables_number   1
_chemical_formula_structural   Ba4PrEu(Cu3O7)2
_chemical_formula_sum   'Ba4 Pr1 Eu1 Cu6 O14'
_cell_volume   365.73710598
_cell_formula_units_Z   1
loop_
 _symmetry_equiv_pos_site_id
 _symmetry_equiv_pos_as_xyz
  1  'x, y, z'
loop_
 _atom_site_type_symbol
 _atom_site_label
 _atom_site_symmetry_multiplicity
 _atom_site_fract_x
 _atom_site_fract_y
 _atom_site_fract_z
 _atom_site_occupancy
  Ba  Ba0  1  0.83984700  0.16015300  0.50000000  1
  Ba  Ba1  1  0.34042000  0.65958000  0.50000000  1
  Ba  Ba2  1  0.16015300  0.83984700  0.50000000  1
  Ba  Ba3  1  0.65958000  0.34042000  0.50000000  1
  Pr  Pr0  1  0.00000000  0.00000000  0.50000000  1
  Eu  Eu0  1  0.50000000  0.50000000  0.50000000  1
  Cu  Cu0  1  0.67153800  0.82450400  0.00000000  1
  Cu  Cu1  1  0.17549600  0.32846200  0.00000000  1
  Cu  Cu2  1  0.82450400  0.67153800  0.00000000  1
  Cu  Cu3  1  0.32846200  0.17549600  0.00000000  1
  Cu  Cu4  1  0.50000000  0.00000000  0.00000000  1
  Cu  Cu5  1  0.00000000  0.50000000  0.00000000  1
  O  O0  1  0.57800200  0.92176500  0.00000000  1
  O  O1  1  0.07823500  0.42199800  0.00000000  1
  O  O2  1  0.92176500  0.57800200  0.00000000  1
  O  O3  1  0.42199800  0.07823500  0.00000000  1
  O  O4  1  0.93513000  0.06487000  0.00000000  1
  O  O5  1  0.43639900  0.56360100  0.00000000  1
  O  O6  1  0.06487000  0.93513000  0.00000000  1
  O  O7  1  0.56360100  0.43639900  0.00000000  1
  O  O8  1  0.68403200  0.81205800  0.50000000  1
  O  O9  1  0.18794200  0.31596800  0.50000000  1
  O  O10  1  0.81205800  0.68403200  0.50000000  1
  O  O11  1  0.31596800  0.18794200  0.50000000  1
  O  O12  1  0.25006700  0.74993300  0.00000000  1
  O  O13  1  0.74993300  0.25006700  0.00000000  1
loop_
_geom_bond_atom_site_label_1
_geom_bond_atom_site_label_2
_geom_bond_distance
_geom_bond_site_symmetry_2
Ba0 O0 2.780367 1_545
Ba0 O1 2.780367 1_655
Ba0 O1 2.780367 1_656
Ba0 O0 2.780367 1_546
Ba0 O13 2.895705 1_556
Ba0 O13 2.895705 1_555
Ba0 O4 2.992275 1_556
Ba0 O4 2.992275 1_555
Ba0 O8 3.038533 1_545
Ba0 O9 3.038533 1_655
Ba1 O0 2.780480 1_555
Ba1 O0 2.780480 1_556
Ba1 O1 2.780480 1_555
Ba1 O1 2.780480 1_556
Ba1 O12 2.903509 1_556
Ba1 O12 2.903509 1_555
Ba1 O5 3.004968 1_556
Ba1 O5 3.004968 1_555
Ba1 O8 3.008040 1_555
Ba1 O9 3.008040 1_555
Ba2 O3 2.780367 1_565
Ba2 O2 2.780367 1_456
Ba2 O3 2.780367 1_566
Ba2 O2 2.780367 1_455
Ba2 O12 2.895705 1_555
Ba2 O12 2.895705 1_556
Ba2 O6 2.992275 1_555
Ba2 O6 2.992275 1_556
Ba2 O10 3.038533 1_455
Ba2 O11 3.038533 1_565
Ba3 O2 2.780480 1_555
Ba3 O2 2.780480 1_556
Ba3 O3 2.780480 1_555
Ba3 O3 2.780480 1_556
Ba3 O13 2.903509 1_555
Ba3 O13 2.903509 1_556
Ba3 O7 3.004968 1_556
Ba3 O7 3.004968 1_555
Ba3 O10 3.008040 1_555
Ba3 O11 3.008040 1_555
Eu0 O5 2.464786 1_556
Eu0 O7 2.464786 1_556
Eu0 O7 2.464786 1_555
Eu0 O5 2.464786 1_555
Eu0 O11 2.483715 1_555
Eu0 O9 2.483715 1_555
Eu0 O8 2.483715 1_555
Eu0 O10 2.483715 1_555
Cu0 O8 1.962378 1_554
Cu0 O8 1.962378 1_555
Cu0 O5 1.979839 1_555
Cu0 O4 2.006250 1_565
Cu0 O0 2.281340 1_555
Cu1 O9 1.962378 1_554
Cu1 O9 1.962378 1_555
Cu1 O5 1.979839 1_555
Cu1 O4 2.006250 1_455
Cu1 O1 2.281340 1_555
Cu2 O10 1.962378 1_555
Cu2 O10 1.962378 1_554
Cu2 O7 1.979839 1_555
Cu2 O6 2.006250 1_655
Cu2 O2 2.281340 1_555
Cu3 O11 1.962378 1_554
Cu3 O11 1.962378 1_555
Cu3 O7 1.979839 1_555
Cu3 O6 2.006250 1_545
Cu3 O3 2.281340 1_555
Cu4 O3 1.868072 1_555
Cu4 O0 1.868072 1_545
Cu4 O13 1.971333 1_555
Cu4 O12 1.971333 1_545
Cu5 O1 1.868072 1_555
Cu5 O2 1.868072 1_455
Cu5 O12 1.971333 1_555
Cu5 O13 1.971333 1_455
O4 Pr0 2.483626 1_655
O4 Pr0 2.483626 1_654
O6 Pr0 2.483626 1_565
O6 Pr0 2.483626 1_564
O8 Pr0 2.508067 1_665
O9 Pr0 2.508067 1_555
O10 Pr0 2.508067 1_665
O11 Pr0 2.508067 1_555
