# generated using pymatgen
data_LiAl2(HO2)2
_symmetry_space_group_name_H-M   'P 1'
_cell_length_a   8.31537299
_cell_length_b   8.31537299
_cell_length_c   3.82123643
_cell_angle_alpha   89.13951039
_cell_angle_beta   89.13951039
_cell_angle_gamma   20.33055863
_symmetry_Int_Tables_number   1
_chemical_formula_structural   LiAl2(HO2)2
_chemical_formula_sum   'Li1 Al2 H2 O4'
_cell_volume   91.78916512
_cell_formula_units_Z   1
loop_
 _symmetry_equiv_pos_site_id
 _symmetry_equiv_pos_as_xyz
  1  'x, y, z'
loop_
 _atom_site_type_symbol
 _atom_site_label
 _atom_site_symmetry_multiplicity
 _atom_site_fract_x
 _atom_site_fract_y
 _atom_site_fract_z
 _atom_site_occupancy
  Li  Li0  1  0.89930700  0.89930700  0.27907300  1
  Al  Al0  1  0.69548500  0.69548500  0.29359400  1
  Al  Al1  1  0.29734100  0.29734100  0.78583300  1
  H  H0  1  0.06910800  0.06910800  0.32396200  1
  H  H1  1  0.93806400  0.93806400  0.77077900  1
  O  O0  1  0.28486800  0.28486800  0.28702700  1
  O  O1  1  0.72383900  0.72383900  0.79158900  1
  O  O2  1  0.12978400  0.12978400  0.29920900  1
  O  O3  1  0.87539700  0.87539700  0.78224300  1
loop_
_geom_bond_atom_site_label_1
_geom_bond_atom_site_label_2
_geom_bond_distance
_geom_bond_site_symmetry_2
Li0 O3 1.944271 1_554
Li0 O3 1.956304 1_555
Li0 O0 2.379560 1_655
Li0 O0 2.379560 1_565
Al0 O2 1.819400 1_565
Al0 O2 1.819400 1_655
Al0 O1 1.965611 1_555
Al0 O1 1.966738 1_554
Al0 O0 2.072229 1_655
Al0 O0 2.072229 1_565
Al1 O1 1.897664 1_545
Al1 O1 1.897664 1_455
Al1 O0 1.920055 1_555
Al1 O0 1.922934 1_556
Al1 O3 1.945779 1_455
Al1 O3 1.945779 1_545
H0 O2 0.996303 1_555
H1 O3 1.026106 1_555
H1 Li0 1.992297 1_555
H1 Li0 2.034081 1_556
