# generated using pymatgen
data_Na2Eu2Ti2O9
_symmetry_space_group_name_H-M   'P 1'
_cell_length_a   15.23091304
_cell_length_b   15.23091304
_cell_length_c   15.23091304
_cell_angle_alpha   166.20754623
_cell_angle_beta   166.05638962
_cell_angle_gamma   19.66112604
_symmetry_Int_Tables_number   1
_chemical_formula_structural   Na2Eu2Ti2O9
_chemical_formula_sum   'Na2 Eu2 Ti2 O9'
_cell_volume   202.95695377
_cell_formula_units_Z   1
loop_
 _symmetry_equiv_pos_site_id
 _symmetry_equiv_pos_as_xyz
  1  'x, y, z'
loop_
 _atom_site_type_symbol
 _atom_site_label
 _atom_site_symmetry_multiplicity
 _atom_site_fract_x
 _atom_site_fract_y
 _atom_site_fract_z
 _atom_site_occupancy
  Na  Na0  1  0.94849900  0.99934000  0.05084000  1
  Na  Na1  1  0.05150100  0.10234100  0.05084000  1
  Eu  Eu0  1  0.79746100  0.80307900  0.00561800  1
  Eu  Eu1  1  0.20253900  0.20815800  0.00561800  1
  Ti  Ti0  1  0.62743900  0.63469400  0.00725500  1
  Ti  Ti1  1  0.37256100  0.37981600  0.00725500  1
  O  O0  1  0.56903500  0.57202900  0.00299500  1
  O  O1  1  0.43096500  0.43396000  0.00299500  1
  O  O2  1  0.72144500  0.72643400  0.00498900  1
  O  O3  1  0.27855500  0.28354400  0.00498900  1
  O  O4  1  0.14672700  0.65186000  0.50513300  1
  O  O5  1  0.64819100  0.15460000  0.50640900  1
  O  O6  1  0.85327300  0.35840600  0.50513300  1
  O  O7  1  0.35180900  0.85821800  0.50640900  1
  O  O8  1  0.00000000  0.55352100  0.55352100  1
loop_
_geom_bond_atom_site_label_1
_geom_bond_atom_site_label_2
_geom_bond_distance
_geom_bond_site_symmetry_2
Na0 O8 2.387075 1_654
Na0 O8 2.402050 1_665
Na0 O1 2.535719 1_565
Na0 O1 2.535722 1_666
Na0 O1 2.776693 1_554
Na0 O1 2.776696 1_655
Na1 O8 2.387083 1_544
Na1 O8 2.402061 1_555
Na1 O0 2.535713 1_455
Na1 O0 2.535715 1_556
Na1 O0 2.776688 1_444
Na1 O0 2.776690 1_545
Eu0 O2 2.281587 1_555
Eu0 O7 2.465516 1_554
Eu0 O7 2.465516 1_655
Eu0 O6 2.478754 1_565
Eu0 O6 2.481370 1_554
Eu0 O3 2.660065 1_565
Eu0 O3 2.660065 1_666
Eu0 O3 2.663226 1_655
Eu0 O3 2.663226 1_554
Eu1 O3 2.281572 1_555
Eu1 O5 2.465525 1_454
Eu1 O5 2.465527 1_555
Eu1 O4 2.478762 1_555
Eu1 O4 2.481381 1_544
Eu1 O2 2.660059 1_455
Eu1 O2 2.660062 1_556
Eu1 O2 2.663223 1_444
Eu1 O2 2.663226 1_545
O0 Ti0 1.753054 1_555
O1 Ti1 1.753039 1_555
O4 Ti0 1.937281 1_556
O4 Ti0 1.937281 1_455
O5 Ti0 1.929029 1_545
O5 Ti0 1.934887 1_556
O6 Ti1 1.937281 1_555
O6 Ti1 1.937281 1_656
O7 Ti1 1.929029 1_555
O7 Ti1 1.934887 1_566
