# generated using pymatgen
data_Mg2Cd
_symmetry_space_group_name_H-M   'P 1'
_cell_length_a   16.27918721
_cell_length_b   16.27918721
_cell_length_c   10.25174578
_cell_angle_alpha   90.00000000
_cell_angle_beta   90.00000000
_cell_angle_gamma   157.35108201
_symmetry_Int_Tables_number   1
_chemical_formula_structural   Mg2Cd
_chemical_formula_sum   'Mg32 Cd16'
_cell_volume   1046.20806116
_cell_formula_units_Z   16
loop_
 _symmetry_equiv_pos_site_id
 _symmetry_equiv_pos_as_xyz
  1  'x, y, z'
loop_
 _atom_site_type_symbol
 _atom_site_label
 _atom_site_symmetry_multiplicity
 _atom_site_fract_x
 _atom_site_fract_y
 _atom_site_fract_z
 _atom_site_occupancy
  Mg  Mg0_0  1  0.30738932  0.19261067  0.12500000  1
  Mg  Mg0_1  1  0.30738932  0.19261067  0.62500000  1
  Mg  Mg0_2  1  0.30738932  0.69261067  0.12500000  1
  Mg  Mg0_3  1  0.30738932  0.69261067  0.62500000  1
  Mg  Mg0_4  1  0.80738932  0.19261067  0.12500000  1
  Mg  Mg0_5  1  0.80738932  0.19261067  0.62500000  1
  Mg  Mg0_6  1  0.80738932  0.69261067  0.12500000  1
  Mg  Mg0_7  1  0.80738932  0.69261067  0.62500000  1
  Mg  Mg1_0  1  0.47143913  0.02856086  0.12500000  1
  Mg  Mg1_1  1  0.47143913  0.02856086  0.62500000  1
  Mg  Mg1_2  1  0.47143914  0.52856086  0.12500000  1
  Mg  Mg1_3  1  0.47143914  0.52856086  0.62500000  1
  Mg  Mg1_4  1  0.97143914  0.02856086  0.12500000  1
  Mg  Mg1_5  1  0.97143914  0.02856086  0.62500000  1
  Mg  Mg1_6  1  0.97143914  0.52856086  0.12500000  1
  Mg  Mg1_7  1  0.97143914  0.52856086  0.62500000  1
  Mg  Mg2_0  1  0.02856087  0.47143913  0.37500000  1
  Mg  Mg2_1  1  0.02856087  0.47143913  0.87500000  1
  Mg  Mg2_2  1  0.02856087  0.97143913  0.37500000  1
  Mg  Mg2_3  1  0.02856087  0.97143913  0.87500000  1
  Mg  Mg2_4  1  0.52856086  0.47143913  0.37500000  1
  Mg  Mg2_5  1  0.52856086  0.47143913  0.87500000  1
  Mg  Mg2_6  1  0.52856086  0.97143913  0.37500000  1
  Mg  Mg2_7  1  0.52856086  0.97143913  0.87500000  1
  Mg  Mg3_0  1  0.19261068  0.30738932  0.37500000  1
  Mg  Mg3_1  1  0.19261068  0.30738932  0.87500000  1
  Mg  Mg3_2  1  0.19261068  0.80738932  0.37500000  1
  Mg  Mg3_3  1  0.19261068  0.80738932  0.87500000  1
  Mg  Mg3_4  1  0.69261067  0.30738932  0.37500000  1
  Mg  Mg3_5  1  0.69261067  0.30738932  0.87500000  1
  Mg  Mg3_6  1  0.69261068  0.80738932  0.37500000  1
  Mg  Mg3_7  1  0.69261068  0.80738932  0.87500000  1
  Cd  Cd0_0  1  0.14013210  0.35986790  0.12500000  1
  Cd  Cd0_1  1  0.14013210  0.35986790  0.62500000  1
  Cd  Cd0_2  1  0.14013210  0.85986790  0.12500000  1
  Cd  Cd0_3  1  0.14013210  0.85986790  0.62500000  1
  Cd  Cd0_4  1  0.64013210  0.35986790  0.12500000  1
  Cd  Cd0_5  1  0.64013210  0.35986790  0.62500000  1
  Cd  Cd0_6  1  0.64013210  0.85986790  0.12500000  1
  Cd  Cd0_7  1  0.64013210  0.85986790  0.62500000  1
  Cd  Cd1_0  1  0.35986790  0.14013209  0.37500000  1
  Cd  Cd1_1  1  0.35986790  0.14013209  0.87500000  1
  Cd  Cd1_2  1  0.35986790  0.64013209  0.37500000  1
  Cd  Cd1_3  1  0.35986790  0.64013209  0.87500000  1
  Cd  Cd1_4  1  0.85986790  0.14013209  0.37500000  1
  Cd  Cd1_5  1  0.85986790  0.14013209  0.87500000  1
  Cd  Cd1_6  1  0.85986790  0.64013209  0.37500000  1
  Cd  Cd1_7  1  0.85986790  0.64013209  0.87500000  1
loop_
_geom_bond_atom_site_label_1
_geom_bond_atom_site_label_2
_geom_bond_distance
_geom_bond_site_symmetry_2
Mg0_0 Mg2_4 3.157580 1_555
Mg0_0 Mg2_2 3.157580 1_545
Mg0_0 Mg2_3 3.157580 1_544
Mg0_0 Mg2_5 3.157580 1_554
Mg0_0 Mg1_2 3.175489 1_555
Mg0_0 Mg1_4 3.175489 1_455
Mg0_0 Mg0_6 3.196658 1_555
Mg0_0 Mg0_6 3.196658 1_445
Mg0_1 Mg2_5 3.157580 1_555
Mg0_1 Mg2_2 3.157580 1_545
Mg0_1 Mg2_3 3.157580 1_545
Mg0_1 Mg2_4 3.157580 1_555
Mg0_1 Mg1_3 3.175489 1_555
Mg0_1 Mg1_5 3.175489 1_455
Mg0_1 Mg0_7 3.196658 1_555
Mg0_1 Mg0_7 3.196658 1_445
Mg0_2 Mg2_7 3.157580 1_554
Mg0_2 Mg2_6 3.157580 1_555
Mg0_2 Mg2_1 3.157580 1_554
Mg0_2 Mg2_0 3.157580 1_555
Mg0_2 Mg1_6 3.175489 1_455
Mg0_2 Mg1_0 3.175489 1_565
Mg0_2 Mg0_4 3.196658 1_565
Mg0_2 Mg0_4 3.196658 1_455
Mg0_3 Mg2_7 3.157580 1_555
Mg0_3 Mg2_6 3.157580 1_555
Mg0_3 Mg2_0 3.157580 1_555
Mg0_3 Mg2_1 3.157580 1_555
Mg0_3 Mg1_7 3.175489 1_455
Mg0_3 Mg1_1 3.175489 1_565
Mg0_3 Mg0_5 3.196658 1_565
Mg0_3 Mg0_5 3.196658 1_455
Mg0_4 Mg2_6 3.157580 1_545
Mg0_4 Mg2_7 3.157580 1_544
Mg0_4 Mg2_0 3.157580 1_655
Mg0_4 Mg2_1 3.157580 1_654
Mg0_4 Mg1_6 3.175489 1_555
Mg0_4 Mg1_0 3.175489 1_555
Mg0_5 Mg2_6 3.157580 1_545
Mg0_5 Mg2_7 3.157580 1_545
Mg0_5 Mg2_0 3.157580 1_655
Mg0_5 Mg2_1 3.157580 1_655
Mg0_5 Mg1_7 3.175489 1_555
Mg0_5 Mg1_1 3.175489 1_555
Mg0_6 Mg2_3 3.157580 1_654
Mg0_6 Mg2_4 3.157580 1_555
Mg0_6 Mg2_5 3.157580 1_554
Mg0_6 Mg2_2 3.157580 1_655
Mg0_6 Mg1_2 3.175489 1_555
Mg0_6 Mg1_4 3.175489 1_565
Mg0_7 Mg2_5 3.157580 1_555
Mg0_7 Mg2_3 3.157580 1_655
Mg0_7 Mg2_4 3.157580 1_555
Mg0_7 Mg2_2 3.157580 1_655
Mg0_7 Mg1_3 3.175489 1_555
Mg0_7 Mg1_5 3.175489 1_565
Mg1_0 Mg2_6 3.145488 1_545
Mg1_0 Mg2_7 3.145488 1_544
Mg1_0 Mg3_3 3.157580 1_544
Mg1_0 Mg3_2 3.157580 1_545
Mg1_0 Mg3_5 3.157580 1_554
Mg1_0 Mg3_4 3.157580 1_555
Mg1_0 Mg1_6 3.196658 1_555
Mg1_0 Mg1_6 3.196658 1_445
Mg1_1 Mg2_6 3.145488 1_545
Mg1_1 Mg2_7 3.145488 1_545
Mg1_1 Mg3_3 3.157580 1_545
Mg1_1 Mg3_2 3.157580 1_545
Mg1_1 Mg3_4 3.157580 1_555
Mg1_1 Mg3_5 3.157580 1_555
Mg1_1 Mg1_7 3.196658 1_555
Mg1_1 Mg1_7 3.196658 1_445
Mg1_2 Mg2_4 3.145488 1_555
Mg1_2 Mg2_5 3.145488 1_554
Mg1_2 Mg3_7 3.157580 1_554
Mg1_2 Mg3_6 3.157580 1_555
Mg1_2 Mg3_1 3.157580 1_554
Mg1_2 Mg3_0 3.157580 1_555
Mg1_2 Mg1_4 3.196658 1_455
Mg1_2 Mg1_4 3.196658 1_565
Mg1_3 Mg2_4 3.145488 1_555
Mg1_3 Mg2_5 3.145488 1_555
Mg1_3 Mg3_7 3.157580 1_555
Mg1_3 Mg3_6 3.157580 1_555
Mg1_3 Mg3_1 3.157580 1_555
Mg1_3 Mg3_0 3.157580 1_555
Mg1_3 Mg1_5 3.196658 1_455
Mg1_3 Mg1_5 3.196658 1_565
Mg1_4 Mg2_3 3.145488 1_644
Mg1_4 Mg2_2 3.145488 1_645
Mg1_4 Mg3_6 3.157580 1_545
Mg1_4 Mg3_7 3.157580 1_544
Mg1_4 Mg3_0 3.157580 1_655
Mg1_4 Mg3_1 3.157580 1_654
Mg1_5 Mg2_3 3.145488 1_645
Mg1_5 Mg2_2 3.145488 1_645
Mg1_5 Mg3_7 3.157580 1_545
Mg1_5 Mg3_6 3.157580 1_545
Mg1_5 Mg3_0 3.157580 1_655
Mg1_5 Mg3_1 3.157580 1_655
Mg1_6 Mg2_0 3.145488 1_655
Mg1_6 Mg2_1 3.145488 1_654
Mg1_6 Mg3_2 3.157580 1_655
Mg1_6 Mg3_3 3.157580 1_654
Mg1_6 Mg3_5 3.157580 1_554
Mg1_6 Mg3_4 3.157580 1_555
Mg1_7 Mg2_0 3.145488 1_655
Mg1_7 Mg2_1 3.145488 1_655
Mg1_7 Mg3_2 3.157580 1_655
Mg1_7 Mg3_3 3.157580 1_655
Mg1_7 Mg3_4 3.157580 1_555
Mg1_7 Mg3_5 3.157580 1_555
Mg2_0 Mg3_2 3.175489 1_555
Mg2_0 Mg3_4 3.175489 1_455
Mg2_0 Mg2_6 3.196658 1_555
Mg2_0 Mg2_6 3.196658 1_445
Mg2_1 Mg3_3 3.175489 1_555
Mg2_1 Mg3_5 3.175489 1_455
Mg2_1 Mg2_7 3.196658 1_555
Mg2_1 Mg2_7 3.196658 1_445
Mg2_2 Mg3_6 3.175489 1_455
Mg2_2 Mg3_0 3.175489 1_565
Mg2_2 Mg2_4 3.196658 1_565
Mg2_2 Mg2_4 3.196658 1_455
Mg2_3 Mg3_7 3.175489 1_455
Mg2_3 Mg3_1 3.175489 1_565
Mg2_3 Mg2_5 3.196658 1_565
Mg2_3 Mg2_5 3.196658 1_455
Mg2_4 Mg3_6 3.175489 1_555
Mg2_4 Mg3_0 3.175489 1_555
Mg2_5 Mg3_7 3.175489 1_555
Mg2_5 Mg3_1 3.175489 1_555
Mg2_6 Mg3_2 3.175489 1_555
Mg2_6 Mg3_4 3.175489 1_565
Mg2_7 Mg3_3 3.175489 1_555
Mg2_7 Mg3_5 3.175489 1_565
Mg3_0 Mg3_6 3.196658 1_555
Mg3_0 Mg3_6 3.196658 1_445
Mg3_1 Mg3_7 3.196658 1_555
Mg3_1 Mg3_7 3.196658 1_445
Mg3_2 Mg3_4 3.196658 1_565
Mg3_2 Mg3_4 3.196658 1_455
Mg3_3 Mg3_5 3.196658 1_565
Mg3_3 Mg3_5 3.196658 1_455
Cd0_0 Mg1_4 3.048318 1_455
Cd0_0 Mg1_2 3.048318 1_555
Cd0_0 Mg3_0 3.061935 1_555
Cd0_0 Mg3_1 3.061935 1_554
Cd0_0 Mg0_2 3.087441 1_555
Cd0_0 Mg0_4 3.087441 1_455
Cd0_0 Cd1_3 3.171243 1_554
Cd0_0 Cd1_2 3.171243 1_555
Cd0_0 Cd1_5 3.171243 1_454
Cd0_0 Cd1_4 3.171243 1_455
Cd0_0 Cd0_6 3.196658 1_555
Cd0_0 Cd0_6 3.196658 1_445
Cd0_1 Mg1_5 3.048318 1_455
Cd0_1 Mg1_3 3.048318 1_555
Cd0_1 Mg3_1 3.061935 1_555
Cd0_1 Mg3_0 3.061935 1_555
Cd0_1 Mg0_3 3.087441 1_555
Cd0_1 Mg0_5 3.087441 1_455
Cd0_1 Cd1_2 3.171243 1_555
Cd0_1 Cd1_3 3.171243 1_555
Cd0_1 Cd1_5 3.171243 1_455
Cd0_1 Cd1_4 3.171243 1_455
Cd0_1 Cd0_7 3.196658 1_555
Cd0_1 Cd0_7 3.196658 1_445
Cd0_2 Mg1_0 3.048318 1_565
Cd0_2 Mg1_6 3.048318 1_455
Cd0_2 Mg3_3 3.061935 1_554
Cd0_2 Mg3_2 3.061935 1_555
Cd0_2 Mg0_6 3.087441 1_455
Cd0_2 Mg0_0 3.087441 1_565
Cd0_2 Cd1_7 3.171243 1_454
Cd0_2 Cd1_6 3.171243 1_455
Cd0_2 Cd1_0 3.171243 1_565
Cd0_2 Cd1_1 3.171243 1_564
Cd0_2 Cd0_4 3.196658 1_565
Cd0_2 Cd0_4 3.196658 1_455
Cd0_3 Mg1_1 3.048318 1_565
Cd0_3 Mg1_7 3.048318 1_455
Cd0_3 Mg3_3 3.061935 1_555
Cd0_3 Mg3_2 3.061935 1_555
Cd0_3 Mg0_7 3.087441 1_455
Cd0_3 Mg0_1 3.087441 1_565
Cd0_3 Cd1_7 3.171243 1_455
Cd0_3 Cd1_6 3.171243 1_455
Cd0_3 Cd1_0 3.171243 1_565
Cd0_3 Cd1_1 3.171243 1_565
Cd0_3 Cd0_5 3.196658 1_565
Cd0_3 Cd0_5 3.196658 1_455
Cd0_4 Mg1_0 3.048318 1_555
Cd0_4 Mg1_6 3.048318 1_555
Cd0_4 Mg3_4 3.061935 1_555
Cd0_4 Mg3_5 3.061935 1_554
Cd0_4 Mg0_6 3.087441 1_555
Cd0_4 Mg0_0 3.087441 1_555
Cd0_4 Cd1_6 3.171243 1_555
Cd0_4 Cd1_7 3.171243 1_554
Cd0_4 Cd1_0 3.171243 1_555
Cd0_4 Cd1_1 3.171243 1_554
Cd0_5 Mg1_1 3.048318 1_555
Cd0_5 Mg1_7 3.048318 1_555
Cd0_5 Mg3_5 3.061935 1_555
Cd0_5 Mg3_4 3.061935 1_555
Cd0_5 Mg0_7 3.087441 1_555
Cd0_5 Mg0_1 3.087441 1_555
Cd0_5 Cd1_6 3.171243 1_555
Cd0_5 Cd1_7 3.171243 1_555
Cd0_5 Cd1_0 3.171243 1_555
Cd0_5 Cd1_1 3.171243 1_555
Cd0_6 Mg1_4 3.048318 1_565
Cd0_6 Mg1_2 3.048318 1_555
Cd0_6 Mg3_6 3.061935 1_555
Cd0_6 Mg3_7 3.061935 1_554
Cd0_6 Mg0_4 3.087441 1_565
Cd0_6 Mg0_2 3.087441 1_555
Cd0_6 Cd1_3 3.171243 1_554
Cd0_6 Cd1_2 3.171243 1_555
Cd0_6 Cd1_4 3.171243 1_565
Cd0_6 Cd1_5 3.171243 1_564
Cd0_7 Mg1_5 3.048318 1_565
Cd0_7 Mg1_3 3.048318 1_555
Cd0_7 Mg3_7 3.061935 1_555
Cd0_7 Mg3_6 3.061935 1_555
Cd0_7 Mg0_5 3.087441 1_565
Cd0_7 Mg0_3 3.087441 1_555
Cd0_7 Cd1_2 3.171243 1_555
Cd0_7 Cd1_3 3.171243 1_555
Cd0_7 Cd1_4 3.171243 1_565
Cd0_7 Cd1_5 3.171243 1_565
Cd1_0 Mg2_2 3.048318 1_545
Cd1_0 Mg2_4 3.048318 1_555
Cd1_0 Mg0_1 3.061935 1_555
Cd1_0 Mg0_0 3.061935 1_555
Cd1_0 Mg3_4 3.087441 1_555
Cd1_0 Mg3_2 3.087441 1_545
Cd1_0 Cd1_6 3.196658 1_555
Cd1_0 Cd1_6 3.196658 1_445
Cd1_1 Mg2_3 3.048318 1_545
Cd1_1 Mg2_5 3.048318 1_555
Cd1_1 Mg0_1 3.061935 1_555
Cd1_1 Mg0_0 3.061935 1_556
Cd1_1 Mg3_5 3.087441 1_555
Cd1_1 Mg3_3 3.087441 1_545
Cd1_1 Cd1_7 3.196658 1_555
Cd1_1 Cd1_7 3.196658 1_445
Cd1_2 Mg2_6 3.048318 1_555
Cd1_2 Mg2_0 3.048318 1_555
Cd1_2 Mg0_2 3.061935 1_555
Cd1_2 Mg0_3 3.061935 1_555
Cd1_2 Mg3_0 3.087441 1_555
Cd1_2 Mg3_6 3.087441 1_555
Cd1_2 Cd1_4 3.196658 1_455
Cd1_2 Cd1_4 3.196658 1_565
Cd1_3 Mg2_7 3.048318 1_555
Cd1_3 Mg2_1 3.048318 1_555
Cd1_3 Mg0_2 3.061935 1_556
Cd1_3 Mg0_3 3.061935 1_555
Cd1_3 Mg3_1 3.087441 1_555
Cd1_3 Mg3_7 3.087441 1_555
Cd1_3 Cd1_5 3.196658 1_455
Cd1_3 Cd1_5 3.196658 1_565
Cd1_4 Mg2_6 3.048318 1_545
Cd1_4 Mg2_0 3.048318 1_655
Cd1_4 Mg0_5 3.061935 1_555
Cd1_4 Mg0_4 3.061935 1_555
Cd1_4 Mg3_0 3.087441 1_655
Cd1_4 Mg3_6 3.087441 1_545
Cd1_5 Mg2_7 3.048318 1_545
Cd1_5 Mg2_1 3.048318 1_655
Cd1_5 Mg0_4 3.061935 1_556
Cd1_5 Mg0_5 3.061935 1_555
Cd1_5 Mg3_1 3.087441 1_655
Cd1_5 Mg3_7 3.087441 1_545
Cd1_6 Mg2_4 3.048318 1_555
Cd1_6 Mg2_2 3.048318 1_655
Cd1_6 Mg0_7 3.061935 1_555
Cd1_6 Mg0_6 3.061935 1_555
Cd1_6 Mg3_4 3.087441 1_555
Cd1_6 Mg3_2 3.087441 1_655
Cd1_7 Mg2_5 3.048318 1_555
Cd1_7 Mg2_3 3.048318 1_655
Cd1_7 Mg0_6 3.061935 1_556
Cd1_7 Mg0_7 3.061935 1_555
Cd1_7 Mg3_5 3.087441 1_555
Cd1_7 Mg3_3 3.087441 1_655
