# generated using pymatgen
data_SrCa7TiMn7O24
_symmetry_space_group_name_H-M   'P 1'
_cell_length_a   7.64703462
_cell_length_b   7.64703462
_cell_length_c   7.64703437
_cell_angle_alpha   89.98743699
_cell_angle_beta   89.98743699
_cell_angle_gamma   89.98743307
_symmetry_Int_Tables_number   1
_chemical_formula_structural   SrCa7TiMn7O24
_chemical_formula_sum   'Sr1 Ca7 Ti1 Mn7 O24'
_cell_volume   447.17665488
_cell_formula_units_Z   1
loop_
 _symmetry_equiv_pos_site_id
 _symmetry_equiv_pos_as_xyz
  1  'x, y, z'
loop_
 _atom_site_type_symbol
 _atom_site_label
 _atom_site_symmetry_multiplicity
 _atom_site_fract_x
 _atom_site_fract_y
 _atom_site_fract_z
 _atom_site_occupancy
  Sr  Sr0  1  0.24815000  0.24815000  0.24815000  1
  Ca  Ca0  1  0.75227400  0.24776000  0.75227400  1
  Ca  Ca1  1  0.75209100  0.24775800  0.24775800  1
  Ca  Ca2  1  0.75229300  0.75229300  0.75229300  1
  Ca  Ca3  1  0.75227400  0.75227400  0.24776000  1
  Ca  Ca4  1  0.24775800  0.24775800  0.75209100  1
  Ca  Ca5  1  0.24776000  0.75227400  0.75227400  1
  Ca  Ca6  1  0.24775800  0.75209100  0.24775800  1
  Ti  Ti0  1  0.50123400  0.50123400  0.50123400  1
  Mn  Mn0  1  0.50056000  0.99942300  0.99942300  1
  Mn  Mn1  1  0.50073300  0.99965100  0.50073300  1
  Mn  Mn2  1  0.50073300  0.50073300  0.99965100  1
  Mn  Mn3  1  0.99924600  0.99924600  0.99924600  1
  Mn  Mn4  1  0.99942300  0.99942300  0.50056000  1
  Mn  Mn5  1  0.99942300  0.50056000  0.99942300  1
  Mn  Mn6  1  0.99965100  0.50073300  0.50073300  1
  O  O0  1  0.75007100  0.99961800  0.99961800  1
  O  O1  1  0.75005500  0.99969500  0.50031200  1
  O  O2  1  0.75005500  0.50031200  0.99969500  1
  O  O3  1  0.75314300  0.50053600  0.50053600  1
  O  O4  1  0.24991600  0.99667700  0.99667700  1
  O  O5  1  0.24992900  0.99654400  0.50340200  1
  O  O6  1  0.24992900  0.50340200  0.99654400  1
  O  O7  1  0.24688700  0.50254300  0.50254300  1
  O  O8  1  0.50340200  0.24992900  0.99654400  1
  O  O9  1  0.50254300  0.24688700  0.50254300  1
  O  O10  1  0.50031200  0.75005500  0.99969500  1
  O  O11  1  0.50053600  0.75314300  0.50053600  1
  O  O12  1  0.99667700  0.24991600  0.99667700  1
  O  O13  1  0.99654400  0.24992900  0.50340200  1
  O  O14  1  0.99961800  0.75007100  0.99961800  1
  O  O15  1  0.99969500  0.75005500  0.50031200  1
  O  O16  1  0.50031200  0.99969500  0.75005500  1
  O  O17  1  0.50340200  0.99654400  0.24992900  1
  O  O18  1  0.50053600  0.50053600  0.75314300  1
  O  O19  1  0.50254300  0.50254300  0.24688700  1
  O  O20  1  0.99961800  0.99961800  0.75007100  1
  O  O21  1  0.99667700  0.99667700  0.24991600  1
  O  O22  1  0.99969500  0.50031200  0.75005500  1
  O  O23  1  0.99654400  0.50340200  0.24992900  1
loop_
_geom_bond_atom_site_label_1
_geom_bond_atom_site_label_2
_geom_bond_distance
_geom_bond_site_symmetry_2
Ca0 O12 2.643452 1_555
Ca0 O13 2.666427 1_555
Ca0 O8 2.666427 1_555
Ca0 O20 2.678989 1_545
Ca0 O0 2.678989 1_545
Ca0 O9 2.701032 1_555
Ca0 O2 2.703976 1_555
Ca0 O22 2.703976 1_555
Ca0 O1 2.704218 1_545
Ca0 O16 2.704218 1_545
Ca0 O18 2.727758 1_555
Ca0 O3 2.727758 1_555
Ca1 O21 2.680192 1_545
Ca1 O12 2.680192 1_554
Ca1 O0 2.683863 1_544
Ca1 O8 2.703487 1_554
Ca1 O17 2.703487 1_545
Ca1 O13 2.705189 1_555
Ca1 O23 2.705189 1_555
Ca1 O1 2.706828 1_545
Ca1 O2 2.706828 1_554
Ca1 O19 2.726921 1_555
Ca1 O9 2.726921 1_555
Ca1 O3 2.733992 1_555
Ca2 O0 2.675048 1_555
Ca2 O14 2.675048 1_555
Ca2 O20 2.675048 1_555
Ca2 O16 2.700170 1_555
Ca2 O22 2.700170 1_555
Ca2 O1 2.700170 1_555
Ca2 O15 2.700170 1_555
Ca2 O10 2.700170 1_555
Ca2 O2 2.700170 1_555
Ca2 O3 2.722940 1_555
Ca2 O11 2.722940 1_555
Ca2 O18 2.722940 1_555
Ca3 O21 2.643452 1_555
Ca3 O23 2.666427 1_555
Ca3 O17 2.666427 1_555
Ca3 O0 2.678989 1_554
Ca3 O14 2.678989 1_554
Ca3 O19 2.701032 1_555
Ca3 O1 2.703976 1_555
Ca3 O15 2.703976 1_555
Ca3 O2 2.704218 1_554
Ca3 O10 2.704218 1_554
Ca3 O3 2.727758 1_555
Ca3 O11 2.727758 1_555
Ca4 O12 2.680192 1_455
Ca4 O4 2.680192 1_545
Ca4 O20 2.683863 1_445
Ca4 O13 2.703487 1_455
Ca4 O5 2.703487 1_545
Ca4 O8 2.705189 1_555
Ca4 O6 2.705189 1_555
Ca4 O16 2.706828 1_545
Ca4 O22 2.706828 1_455
Ca4 O9 2.726921 1_555
Ca4 O7 2.726921 1_555
Ca4 O18 2.733992 1_555
Ca5 O4 2.643452 1_555
Ca5 O5 2.666427 1_555
Ca5 O6 2.666427 1_555
Ca5 O20 2.678989 1_455
Ca5 O14 2.678989 1_455
Ca5 O7 2.701032 1_555
Ca5 O10 2.703976 1_555
Ca5 O16 2.703976 1_555
Ca5 O15 2.704218 1_455
Ca5 O22 2.704218 1_455
Ca5 O18 2.727758 1_555
Ca5 O11 2.727758 1_555
Ca6 O21 2.680192 1_455
Ca6 O4 2.680192 1_554
Ca6 O14 2.683863 1_454
Ca6 O6 2.703487 1_554
Ca6 O23 2.703487 1_455
Ca6 O5 2.705189 1_555
Ca6 O17 2.705189 1_555
Ca6 O15 2.706828 1_455
Ca6 O10 2.706828 1_554
Ca6 O19 2.726921 1_555
Ca6 O7 2.726921 1_555
Ca6 O11 2.733992 1_555
Mn0 O16 1.906928 1_555
Mn0 O10 1.906928 1_555
Mn0 O0 1.908021 1_555
Mn0 O17 1.915878 1_556
Mn0 O8 1.915878 1_565
Mn0 O4 1.916923 1_555
Mn1 O11 1.885057 1_555
Mn1 O9 1.890730 1_565
Mn1 O16 1.906576 1_555
Mn1 O1 1.906576 1_555
Mn1 O17 1.918163 1_555
Mn1 O5 1.918163 1_555
Mn2 O18 1.885057 1_555
Mn2 O19 1.890730 1_556
Mn2 O10 1.906576 1_555
Mn2 O2 1.906576 1_555
Mn2 O8 1.918163 1_555
Mn2 O6 1.918163 1_555
Mn3 O20 1.905453 1_555
Mn3 O14 1.905453 1_555
Mn3 O0 1.905453 1_555
Mn3 O21 1.917075 1_556
Mn3 O12 1.917075 1_565
Mn3 O4 1.917075 1_655
Mn4 O1 1.906928 1_555
Mn4 O15 1.906928 1_555
Mn4 O20 1.908021 1_555
Mn4 O13 1.915878 1_565
Mn4 O5 1.915878 1_655
Mn4 O21 1.916923 1_555
Mn5 O22 1.906928 1_555
Mn5 O2 1.906928 1_555
Mn5 O14 1.908021 1_555
Mn5 O23 1.915878 1_556
Mn5 O6 1.915878 1_655
Mn5 O12 1.916923 1_555
Mn6 O3 1.885057 1_555
Mn6 O7 1.890730 1_655
Mn6 O22 1.906576 1_555
Mn6 O15 1.906576 1_555
Mn6 O23 1.918163 1_555
Mn6 O13 1.918163 1_555
O3 Ti0 1.926369 1_555
O4 Sr0 2.719892 1_566
O5 Sr0 2.740522 1_565
O6 Sr0 2.740522 1_556
O7 Ti0 1.945047 1_555
O7 Sr0 2.751459 1_555
O8 Sr0 2.740522 1_556
O9 Ti0 1.945047 1_555
O9 Sr0 2.751459 1_555
O11 Ti0 1.926369 1_555
O12 Sr0 2.719892 1_656
O13 Sr0 2.740522 1_655
O17 Sr0 2.740522 1_565
O18 Ti0 1.926369 1_555
O19 Ti0 1.945047 1_555
O19 Sr0 2.751459 1_555
O21 Sr0 2.719892 1_665
O23 Sr0 2.740522 1_655
