# generated using pymatgen
data_TiTlAsO5
_symmetry_space_group_name_H-M   'P 1'
_cell_length_a   6.75918200
_cell_length_b   10.98151900
_cell_length_c   13.47147700
_cell_angle_alpha   90.00000000
_cell_angle_beta   90.00000000
_cell_angle_gamma   90.00000000
_symmetry_Int_Tables_number   1
_chemical_formula_structural   TiTlAsO5
_chemical_formula_sum   'Ti8 Tl8 As8 O40'
_cell_volume   999.93500439
_cell_formula_units_Z   8
loop_
 _symmetry_equiv_pos_site_id
 _symmetry_equiv_pos_as_xyz
  1  'x, y, z'
loop_
 _atom_site_type_symbol
 _atom_site_label
 _atom_site_symmetry_multiplicity
 _atom_site_fract_x
 _atom_site_fract_y
 _atom_site_fract_z
 _atom_site_occupancy
  Ti  Ti0  1  0.26749600  0.26555900  0.25314400  1
  Ti  Ti1  1  0.73250400  0.76555900  0.74685600  1
  Ti  Ti2  1  0.23250400  0.26555900  0.75314400  1
  Ti  Ti3  1  0.76749600  0.76555900  0.24685600  1
  Ti  Ti4  1  0.50017500  0.01517500  0.13063600  1
  Ti  Ti5  1  0.49982500  0.51517500  0.86936400  1
  Ti  Ti6  1  0.99982500  0.01517500  0.63063600  1
  Ti  Ti7  1  0.00017500  0.51517500  0.36936400  1
  Tl  Tl0  1  0.20257400  0.57892900  0.10412600  1
  Tl  Tl1  1  0.79742600  0.07892900  0.89587400  1
  Tl  Tl2  1  0.29742600  0.57892900  0.60412600  1
  Tl  Tl3  1  0.70257400  0.07892900  0.39587400  1
  Tl  Tl4  1  0.78205500  0.32597300  0.12408300  1
  Tl  Tl5  1  0.21794500  0.82597300  0.87591700  1
  Tl  Tl6  1  0.71794500  0.32597300  0.62408300  1
  Tl  Tl7  1  0.28205500  0.82597300  0.37591700  1
  As  As0  1  0.00454200  0.02600400  0.18095000  1
  As  As1  1  0.99545800  0.52600400  0.81905000  1
  As  As2  1  0.49545800  0.02600400  0.68095000  1
  As  As3  1  0.50454200  0.52600400  0.31905000  1
  As  As4  1  0.33666300  0.27370200  0.99998000  1
  As  As5  1  0.66333700  0.77370200  0.00002000  1
  As  As6  1  0.16333700  0.27370200  0.49998000  1
  As  As7  1  0.83666300  0.77370200  0.50002000  1
  O  O0  1  0.04055200  0.15098900  0.25767700  1
  O  O1  1  0.95944800  0.65098900  0.74232300  1
  O  O2  1  0.45944800  0.15098900  0.75767700  1
  O  O3  1  0.54055200  0.65098900  0.24232300  1
  O  O4  1  0.45017100  0.15353600  0.21840800  1
  O  O5  1  0.54982900  0.65353600  0.78159200  1
  O  O6  1  0.04982900  0.15353600  0.71840800  1
  O  O7  1  0.95017100  0.65353600  0.28159200  1
  O  O8  1  0.49900000  0.15592700  0.01332800  1
  O  O9  1  0.50100000  0.65592700  0.98667200  1
  O  O10  1  0.00100000  0.15592700  0.51332800  1
  O  O11  1  0.99900000  0.65592700  0.48667200  1
  O  O12  1  0.30126900  0.55995000  0.39042200  1
  O  O13  1  0.69873100  0.05995000  0.60957800  1
  O  O14  1  0.19873100  0.55995000  0.89042200  1
  O  O15  1  0.80126900  0.05995000  0.10957800  1
  O  O16  1  0.02891200  0.40696000  0.48797000  1
  O  O17  1  0.97108800  0.90696000  0.51203000  1
  O  O18  1  0.47108800  0.40696000  0.98797000  1
  O  O19  1  0.52891200  0.90696000  0.01203000  1
  O  O20  1  0.31563300  0.25241100  0.39817600  1
  O  O21  1  0.68436700  0.75241100  0.60182400  1
  O  O22  1  0.18436700  0.25241100  0.89817600  1
  O  O23  1  0.81563300  0.75241100  0.10182400  1
  O  O24  1  0.20667500  0.99636600  0.10838900  1
  O  O25  1  0.79332500  0.49636600  0.89161100  1
  O  O26  1  0.29332500  0.99636600  0.60838900  1
  O  O27  1  0.70667500  0.49636600  0.39161100  1
  O  O28  1  0.46138900  0.40493700  0.24057700  1
  O  O29  1  0.53861100  0.90493700  0.75942300  1
  O  O30  1  0.03861100  0.40493700  0.74057700  1
  O  O31  1  0.96138900  0.90493700  0.25942300  1
  O  O32  1  0.05726700  0.40309900  0.28042200  1
  O  O33  1  0.94273300  0.90309900  0.71957800  1
  O  O34  1  0.44273300  0.40309900  0.78042200  1
  O  O35  1  0.55726700  0.90309900  0.21957800  1
  O  O36  1  0.19295000  0.29634500  0.10447200  1
  O  O37  1  0.80705000  0.79634500  0.89552800  1
  O  O38  1  0.30705000  0.29634500  0.60447200  1
  O  O39  1  0.69295000  0.79634500  0.39552800  1
loop_
_geom_bond_atom_site_label_1
_geom_bond_atom_site_label_2
_geom_bond_distance
_geom_bond_site_symmetry_2
As0 O24 1.711167 1_545
As0 O15 1.717901 1_455
As0 O31 1.723429 1_445
As0 O0 1.735353 1_555
As1 O25 1.711167 1_555
As1 O14 1.717901 1_655
As1 O30 1.723429 1_655
As1 O1 1.735353 1_555
As2 O26 1.711167 1_545
As2 O13 1.717901 1_555
As2 O29 1.723429 1_545
As2 O2 1.735353 1_555
As3 O27 1.711167 1_555
As3 O12 1.717901 1_555
As3 O28 1.723429 1_555
As3 O3 1.735353 1_555
As4 O8 1.705601 1_556
As4 O36 1.728272 1_556
As4 O18 1.730088 1_555
As4 O22 1.730664 1_555
As5 O9 1.705601 1_554
As5 O37 1.728272 1_554
As5 O19 1.730088 1_555
As5 O23 1.730664 1_555
As6 O10 1.705601 1_555
As6 O38 1.728272 1_555
As6 O16 1.730088 1_555
As6 O20 1.730664 1_555
As7 O11 1.705601 1_555
As7 O39 1.728272 1_555
As7 O17 1.730088 1_555
As7 O21 1.730664 1_555
O0 Ti0 1.984867 1_555
O1 Ti1 1.984867 1_555
O2 Ti2 1.984867 1_555
O3 Ti3 1.984867 1_555
O4 Ti0 1.804685 1_555
O4 Ti4 1.954729 1_555
O5 Ti1 1.804685 1_555
O5 Ti5 1.954729 1_555
O6 Ti2 1.804685 1_555
O6 Ti6 1.954729 1_455
O7 Ti3 1.804685 1_555
O7 Ti7 1.954729 1_655
O8 Ti4 2.210554 1_555
O8 Tl1 2.699505 1_554
O9 Ti5 2.210554 1_555
O9 Tl0 2.699505 1_556
O10 Ti6 2.210554 1_455
O10 Tl3 2.699505 1_455
O11 Ti7 2.210554 1_655
O11 Tl2 2.699505 1_655
O12 Ti7 2.112836 1_555
O13 Ti6 2.112836 1_555
O14 Ti5 2.112836 1_555
O15 Ti4 2.112836 1_555
O16 Ti7 2.000725 1_555
O17 Ti6 2.000725 1_565
O18 Ti5 2.000725 1_555
O19 Ti4 2.000725 1_565
O20 Ti0 1.985957 1_555
O21 Ti1 1.985957 1_555
O22 Ti2 1.985957 1_555
O23 Ti3 1.985957 1_555
O24 Ti4 2.016935 1_565
O25 Ti5 2.016935 1_555
O26 Ti6 2.016935 1_465
O27 Ti7 2.016935 1_655
O28 Ti0 2.022104 1_555
O28 Tl4 2.812931 1_555
O29 Ti1 2.022104 1_555
O29 Tl5 2.812931 1_555
O30 Ti2 2.022104 1_555
O30 Tl6 2.812931 1_455
O31 Ti3 2.022104 1_555
O31 Tl7 2.812931 1_655
O32 Ti7 1.760492 1_555
O32 Ti0 2.106066 1_555
O33 Ti6 1.760492 1_565
O33 Ti1 2.106066 1_555
O34 Ti5 1.760492 1_555
O34 Ti2 2.106066 1_555
O35 Ti4 1.760492 1_565
O35 Ti3 2.106066 1_555
O36 Ti0 2.092729 1_555
O36 Tl4 2.808759 1_455
O37 Ti1 2.092729 1_555
O37 Tl5 2.808759 1_655
O38 Ti2 2.092729 1_555
O38 Tl6 2.808759 1_555
O39 Ti3 2.092729 1_555
O39 Tl7 2.808759 1_555
