# generated using pymatgen
data_W4O9
_symmetry_space_group_name_H-M   'P 1'
_cell_length_a   6.85444300
_cell_length_b   6.85444300
_cell_length_c   3.86989400
_cell_angle_alpha   90.00000000
_cell_angle_beta   90.00000000
_cell_angle_gamma   90.00000000
_symmetry_Int_Tables_number   1
_chemical_formula_structural   W4O9
_chemical_formula_sum   'W4 O9'
_cell_volume   181.82073457
_cell_formula_units_Z   1
loop_
 _symmetry_equiv_pos_site_id
 _symmetry_equiv_pos_as_xyz
  1  'x, y, z'
loop_
 _atom_site_type_symbol
 _atom_site_label
 _atom_site_symmetry_multiplicity
 _atom_site_fract_x
 _atom_site_fract_y
 _atom_site_fract_z
 _atom_site_occupancy
  W  W0  1  0.69688700  0.87109200  0.50000000  1
  W  W1  1  0.87109200  0.30311300  0.50000000  1
  W  W2  1  0.30311300  0.12890800  0.50000000  1
  W  W3  1  0.12890800  0.69688700  0.50000000  1
  O  O0  1  0.00000000  0.00000000  0.50000000  1
  O  O1  1  0.13262300  0.69911100  0.00000000  1
  O  O2  1  0.30088900  0.13262300  0.00000000  1
  O  O3  1  0.69911100  0.86737700  0.00000000  1
  O  O4  1  0.86737700  0.30088900  0.00000000  1
  O  O5  1  0.15978700  0.39448900  0.50000000  1
  O  O6  1  0.60551100  0.15978700  0.50000000  1
  O  O7  1  0.39448900  0.84021300  0.50000000  1
  O  O8  1  0.84021300  0.60551100  0.50000000  1
loop_
_geom_bond_atom_site_label_1
_geom_bond_atom_site_label_2
_geom_bond_distance
_geom_bond_site_symmetry_2
O0 W2 2.257754 1_555
O0 W1 2.257754 1_455
O0 W3 2.257754 1_545
O0 W0 2.257754 1_445
O1 W3 1.935175 1_555
O1 W3 1.935175 1_554
O2 W2 1.935175 1_554
O2 W2 1.935175 1_555
O3 W0 1.935175 1_554
O3 W0 1.935175 1_555
O4 W1 1.935175 1_555
O4 W1 1.935175 1_554
O5 W2 2.068584 1_555
O5 W1 2.075599 1_455
O5 W3 2.083548 1_555
O6 W1 2.068584 1_555
O6 W0 2.075599 1_545
O6 W2 2.083548 1_555
O7 W3 2.068584 1_555
O7 W2 2.075599 1_565
O7 W0 2.083548 1_555
O8 W0 2.068584 1_555
O8 W3 2.075599 1_655
O8 W1 2.083548 1_555
