# generated using pymatgen
data_AlPb3
_symmetry_space_group_name_H-M   'P 1'
_cell_length_a   6.94153642
_cell_length_b   6.94153642
_cell_length_c   5.59190600
_cell_angle_alpha   90.00000000
_cell_angle_beta   90.00000000
_cell_angle_gamma   120.00000398
_symmetry_Int_Tables_number   1
_chemical_formula_structural   AlPb3
_chemical_formula_sum   'Al2 Pb6'
_cell_volume   233.34671401
_cell_formula_units_Z   2
loop_
 _symmetry_equiv_pos_site_id
 _symmetry_equiv_pos_as_xyz
  1  'x, y, z'
loop_
 _atom_site_type_symbol
 _atom_site_label
 _atom_site_symmetry_multiplicity
 _atom_site_fract_x
 _atom_site_fract_y
 _atom_site_fract_z
 _atom_site_occupancy
  Al  Al0  1  0.66666700  0.33333300  0.25000000  1
  Al  Al1  1  0.33333300  0.66666700  0.75000000  1
  Pb  Pb0  1  0.82883300  0.17116700  0.75000000  1
  Pb  Pb1  1  0.34233400  0.17116700  0.75000000  1
  Pb  Pb2  1  0.82883300  0.65766600  0.75000000  1
  Pb  Pb3  1  0.17116700  0.82883300  0.25000000  1
  Pb  Pb4  1  0.65766600  0.82883300  0.25000000  1
  Pb  Pb5  1  0.17116700  0.34233400  0.25000000  1
loop_
_geom_bond_atom_site_label_1
_geom_bond_atom_site_label_2
_geom_bond_distance
_geom_bond_site_symmetry_2
Al0 Pb0 3.408640 1_554
Al0 Pb0 3.408640 1_555
Al0 Pb1 3.408644 1_555
Al0 Pb2 3.408644 1_554
Al0 Pb2 3.408644 1_555
Al0 Pb1 3.408644 1_554
Al0 Pb4 3.471187 1_545
Al0 Pb5 3.471187 1_655
Al0 Pb3 3.471190 1_545
Al0 Pb3 3.471190 1_655
Al0 Pb5 3.471193 1_555
Al0 Pb4 3.471193 1_555
Al1 Pb3 3.408640 1_555
Al1 Pb3 3.408640 1_556
Al1 Pb4 3.408644 1_555
Al1 Pb5 3.408644 1_555
Al1 Pb4 3.408644 1_556
Al1 Pb5 3.408644 1_556
Al1 Pb2 3.471187 1_455
Al1 Pb1 3.471187 1_565
Al1 Pb0 3.471190 1_455
Al1 Pb0 3.471190 1_565
Al1 Pb2 3.471193 1_555
Al1 Pb1 3.471193 1_555
Pb0 Pb2 3.377051 1_555
Pb0 Pb1 3.377051 1_555
Pb0 Pb4 3.471677 1_546
Pb0 Pb5 3.471677 1_655
Pb0 Pb5 3.471677 1_656
Pb0 Pb4 3.471677 1_545
Pb0 Pb2 3.564486 1_545
Pb0 Pb1 3.564486 1_655
Pb1 Pb2 3.377050 1_555
Pb1 Pb3 3.471677 1_545
Pb1 Pb3 3.471677 1_546
Pb1 Pb5 3.471677 1_556
Pb1 Pb5 3.471677 1_555
Pb1 Pb2 3.564486 1_445
Pb2 Pb3 3.471677 1_655
Pb2 Pb3 3.471677 1_656
Pb2 Pb4 3.471677 1_556
Pb2 Pb4 3.471677 1_555
Pb3 Pb4 3.377051 1_555
Pb3 Pb5 3.377051 1_555
Pb3 Pb4 3.564486 1_455
Pb3 Pb5 3.564486 1_565
Pb4 Pb5 3.377050 1_555
Pb4 Pb5 3.564486 1_665
