# generated using pymatgen
data_GdEr3Mn8
_symmetry_space_group_name_H-M   'P 1'
_cell_length_a   4.89243056
_cell_length_b   4.89243056
_cell_length_c   7.91387633
_cell_angle_alpha   89.59873312
_cell_angle_beta   90.40126688
_cell_angle_gamma   120.01715378
_symmetry_Int_Tables_number   1
_chemical_formula_structural   GdEr3Mn8
_chemical_formula_sum   'Gd1 Er3 Mn8'
_cell_volume   164.01362891
_cell_formula_units_Z   1
loop_
 _symmetry_equiv_pos_site_id
 _symmetry_equiv_pos_as_xyz
  1  'x, y, z'
loop_
 _atom_site_type_symbol
 _atom_site_label
 _atom_site_symmetry_multiplicity
 _atom_site_fract_x
 _atom_site_fract_y
 _atom_site_fract_z
 _atom_site_occupancy
  Gd  Gd0  1  0.66667500  0.33332500  0.56266100  1
  Er  Er0  1  0.33338300  0.66661700  0.43686100  1
  Er  Er1  1  0.33337100  0.66662900  0.06310200  1
  Er  Er2  1  0.66664800  0.33335200  0.93704500  1
  Mn  Mn0  1  0.00004600  0.99995400  0.49970100  1
  Mn  Mn1  1  0.99998500  0.00001500  0.00054700  1
  Mn  Mn2  1  0.16845700  0.33676800  0.75087800  1
  Mn  Mn3  1  0.16844500  0.83155500  0.75081300  1
  Mn  Mn4  1  0.66323200  0.83154300  0.75087800  1
  Mn  Mn5  1  0.83129500  0.66298700  0.24918200  1
  Mn  Mn6  1  0.83144900  0.16855100  0.24915000  1
  Mn  Mn7  1  0.33701300  0.16870500  0.24918200  1
loop_
_geom_bond_atom_site_label_1
_geom_bond_atom_site_label_2
_geom_bond_distance
_geom_bond_site_symmetry_2
Gd0 Mn7 2.841965 1_555
Gd0 Mn5 2.841965 1_555
Gd0 Mn4 2.855421 1_545
Gd0 Mn2 2.855421 1_655
Gd0 Mn6 2.856882 1_555
Gd0 Mn3 2.863195 1_545
Gd0 Mn3 2.863195 1_655
Gd0 Mn0 2.865632 1_545
Gd0 Mn0 2.865632 1_655
Gd0 Mn2 2.872742 1_555
Gd0 Mn4 2.872742 1_555
Gd0 Mn0 2.872775 1_645
Er0 Mn4 2.846066 1_555
Er0 Mn2 2.846066 1_555
Er0 Mn5 2.854121 1_455
Er0 Mn7 2.854121 1_565
Er0 Mn3 2.860615 1_555
Er0 Mn6 2.861384 1_565
Er0 Mn6 2.861384 1_455
Er0 Mn0 2.865613 1_545
Er0 Mn0 2.865613 1_655
Er0 Mn7 2.869628 1_555
Er0 Mn5 2.869628 1_555
Er0 Mn0 2.872319 1_555
Er0 Er1 2.957882 1_555
Er0 Gd0 2.987256 1_555
Er0 Gd0 2.998459 1_565
Er0 Gd0 2.998459 1_455
Er1 Mn3 2.829414 1_554
Er1 Mn4 2.843577 1_554
Er1 Mn2 2.843577 1_554
Er1 Mn5 2.845366 1_555
Er1 Mn7 2.845366 1_555
Er1 Mn6 2.854709 1_565
Er1 Mn6 2.854709 1_455
Er1 Mn1 2.864434 1_465
Er1 Mn5 2.865167 1_455
Er1 Mn7 2.865167 1_565
Er1 Mn1 2.868970 1_455
Er1 Mn1 2.868970 1_565
Er1 Er2 2.991593 1_454
Er1 Er2 2.991593 1_564
Er1 Er2 3.003012 1_554
Er2 Mn6 2.827632 1_556
Er2 Mn7 2.842508 1_556
Er2 Mn5 2.842508 1_556
Er2 Mn4 2.846359 1_555
Er2 Mn2 2.846359 1_555
Er2 Mn3 2.855451 1_545
Er2 Mn3 2.855451 1_655
Er2 Mn4 2.864876 1_545
Er2 Mn2 2.864876 1_655
Er2 Mn1 2.865270 1_556
Er2 Mn1 2.870507 1_456
Er2 Mn1 2.870507 1_566
Er2 Gd0 2.962831 1_555
Mn0 Mn6 2.434600 1_465
Mn0 Mn3 2.437224 1_555
Mn0 Mn7 2.447681 1_565
Mn0 Mn5 2.447681 1_455
Mn0 Mn4 2.451540 1_455
Mn0 Mn2 2.451540 1_565
Mn1 Mn5 2.426402 1_545
Mn1 Mn7 2.426402 1_655
Mn1 Mn4 2.432342 1_544
Mn1 Mn2 2.432342 1_654
Mn1 Mn6 2.440525 1_555
Mn1 Mn3 2.447409 1_644
Mn2 Mn4 2.420025 1_555
Mn2 Mn3 2.420737 1_555
Mn2 Mn4 2.471137 1_445
Mn2 Mn3 2.471694 1_545
Mn3 Mn4 2.420737 1_555
Mn3 Mn4 2.471694 1_455
Mn5 Mn7 2.417613 1_555
Mn5 Mn6 2.419373 1_555
Mn5 Mn6 2.473058 1_565
Mn5 Mn7 2.473549 1_665
Mn6 Mn7 2.419373 1_555
Mn6 Mn7 2.473058 1_655
