# generated using pymatgen
data_BaMo4O7
_symmetry_space_group_name_H-M   'P 1'
_cell_length_a   6.81640398
_cell_length_b   6.81640398
_cell_length_c   11.30111700
_cell_angle_alpha   90.00000000
_cell_angle_beta   90.00000000
_cell_angle_gamma   119.99999978
_symmetry_Int_Tables_number   1
_chemical_formula_structural   BaMo4O7
_chemical_formula_sum   'Ba2 Mo8 O14'
_cell_volume   454.73946467
_cell_formula_units_Z   2
loop_
 _symmetry_equiv_pos_site_id
 _symmetry_equiv_pos_as_xyz
  1  'x, y, z'
loop_
 _atom_site_type_symbol
 _atom_site_label
 _atom_site_symmetry_multiplicity
 _atom_site_fract_x
 _atom_site_fract_y
 _atom_site_fract_z
 _atom_site_occupancy
  Ba  Ba0  1  0.66666700  0.33333300  0.46046200  1
  Ba  Ba1  1  0.33333300  0.66666700  0.96046200  1
  Mo  Mo0  1  0.81285900  0.18714100  0.18331100  1
  Mo  Mo1  1  0.62571800  0.81285900  0.68331100  1
  Mo  Mo2  1  0.18714100  0.37428200  0.68331100  1
  Mo  Mo3  1  0.81285900  0.62571800  0.18331100  1
  Mo  Mo4  1  0.37428200  0.18714100  0.18331100  1
  Mo  Mo5  1  0.18714100  0.81285900  0.68331100  1
  Mo  Mo6  1  0.00000000  0.00000000  0.42314000  1
  Mo  Mo7  1  0.00000000  0.00000000  0.92314000  1
  O  O0  1  0.85823500  0.14176500  0.01138300  1
  O  O1  1  0.71647000  0.85823500  0.51138300  1
  O  O2  1  0.14176500  0.28353000  0.51138300  1
  O  O3  1  0.85823500  0.71647000  0.01138300  1
  O  O4  1  0.28353000  0.14176500  0.01138300  1
  O  O5  1  0.14176500  0.85823500  0.51138300  1
  O  O6  1  0.00000000  0.00000000  0.74522500  1
  O  O7  1  0.00000000  0.00000000  0.24522500  1
  O  O8  1  0.52449600  0.47550400  0.28038100  1
  O  O9  1  0.04899100  0.52449600  0.78038100  1
  O  O10  1  0.47550400  0.95100900  0.78038100  1
  O  O11  1  0.52449600  0.04899100  0.28038100  1
  O  O12  1  0.47550400  0.52449600  0.78038100  1
  O  O13  1  0.95100900  0.47550400  0.28038100  1
loop_
_geom_bond_atom_site_label_1
_geom_bond_atom_site_label_2
_geom_bond_distance
_geom_bond_site_symmetry_2
Ba0 O8 2.638017 1_555
Ba0 O13 2.638017 1_555
Ba0 O11 2.638017 1_555
Ba1 O12 2.638017 1_555
Ba1 O9 2.638017 1_555
Ba1 O10 2.638017 1_555
Mo0 O0 2.015482 1_555
Mo0 O13 2.025532 1_555
Mo0 O11 2.025532 1_555
Mo0 O7 2.317598 1_655
Mo1 O1 2.015482 1_555
Mo1 O12 2.025533 1_555
Mo1 O10 2.025537 1_555
Mo1 O6 2.317598 1_665
Mo2 O2 2.015482 1_555
Mo2 O12 2.025533 1_555
Mo2 O9 2.025537 1_555
Mo2 O6 2.317598 1_555
Mo3 O3 2.015482 1_555
Mo3 O8 2.025533 1_555
Mo3 O13 2.025537 1_555
Mo3 O7 2.317598 1_665
Mo4 O4 2.015482 1_555
Mo4 O8 2.025533 1_555
Mo4 O11 2.025537 1_555
Mo4 O7 2.317598 1_555
Mo5 O5 2.015482 1_555
Mo5 O10 2.025532 1_555
Mo5 O9 2.025532 1_555
Mo5 O6 2.317598 1_565
Mo6 O5 1.948297 1_545
Mo6 O1 1.948297 1_445
Mo6 O2 1.948297 1_555
Mo6 O7 2.010638 1_555
Mo7 O0 1.948297 1_456
Mo7 O3 1.948297 1_446
Mo7 O4 1.948297 1_556
Mo7 O6 2.010638 1_555
