# generated using pymatgen
data_BaLa2FeS5
_symmetry_space_group_name_H-M   'P 1'
_cell_length_a   8.81711954
_cell_length_b   8.81711954
_cell_length_c   8.81711954
_cell_angle_alpha   125.95357441
_cell_angle_beta   125.95357441
_cell_angle_gamma   79.96445718
_symmetry_Int_Tables_number   1
_chemical_formula_structural   BaLa2FeS5
_chemical_formula_sum   'Ba2 La4 Fe2 S10'
_cell_volume   433.70154191
_cell_formula_units_Z   2
loop_
 _symmetry_equiv_pos_site_id
 _symmetry_equiv_pos_as_xyz
  1  'x, y, z'
loop_
 _atom_site_type_symbol
 _atom_site_label
 _atom_site_symmetry_multiplicity
 _atom_site_fract_x
 _atom_site_fract_y
 _atom_site_fract_z
 _atom_site_occupancy
  Ba  Ba0  1  0.75000000  0.75000000  0.00000000  1
  Ba  Ba1  1  0.25000000  0.25000000  0.00000000  1
  La  La0  1  0.83714800  0.66285200  0.50000000  1
  La  La1  1  0.66285200  0.16285200  0.82570400  1
  La  La2  1  0.33714800  0.83714800  0.17429600  1
  La  La3  1  0.16285200  0.33714800  0.50000000  1
  Fe  Fe0  1  0.25000000  0.75000000  0.50000000  1
  Fe  Fe1  1  0.75000000  0.25000000  0.50000000  1
  S  S0  1  0.98917100  0.48917100  0.20393500  1
  S  S1  1  0.71476300  0.21476300  0.20393500  1
  S  S2  1  0.01082900  0.51082900  0.79606500  1
  S  S3  1  0.51082900  0.71476300  0.50000000  1
  S  S4  1  0.21476300  0.01082900  0.50000000  1
  S  S5  1  0.48917100  0.28523700  0.50000000  1
  S  S6  1  0.78523700  0.98917100  0.50000000  1
  S  S7  1  0.28523700  0.78523700  0.79606500  1
  S  S8  1  0.00000000  0.00000000  0.00000000  1
  S  S9  1  0.50000000  0.50000000  0.00000000  1
loop_
_geom_bond_atom_site_label_1
_geom_bond_atom_site_label_2
_geom_bond_distance
_geom_bond_site_symmetry_2
Ba0 S8 3.378032 1_665
Ba0 S9 3.378032 1_555
Ba0 S7 3.417910 1_554
Ba0 S1 3.417910 1_565
Ba0 S6 3.417911 1_555
Ba0 S4 3.417911 1_665
Ba0 S3 3.417911 1_554
Ba0 S5 3.417911 1_554
Ba0 S2 3.417916 1_654
Ba0 S0 3.417916 1_555
Ba1 S8 3.378032 1_555
Ba1 S9 3.378032 1_555
Ba1 S1 3.417910 1_555
Ba1 S7 3.417910 1_544
Ba1 S5 3.417911 1_555
Ba1 S6 3.417911 1_444
Ba1 S4 3.417911 1_554
Ba1 S3 3.417911 1_555
Ba1 S0 3.417916 1_455
Ba1 S2 3.417916 1_554
La0 S6 2.833509 1_555
La0 S3 2.833509 1_555
La0 S8 2.999898 1_666
La0 S9 2.999898 1_555
La0 S0 3.107317 1_555
La0 S2 3.107317 1_655
La0 S7 3.107325 1_655
La0 S1 3.107325 1_555
La1 S0 2.833509 1_556
La1 S1 2.833517 1_556
La1 S9 2.999898 1_556
La1 S8 2.999898 1_656
La1 S4 3.107325 1_555
La1 S3 3.107325 1_545
La1 S6 3.107325 1_545
La1 S5 3.107325 1_555
La2 S2 2.833509 1_554
La2 S7 2.833517 1_554
La2 S8 2.999898 1_565
La2 S9 2.999898 1_555
La2 S5 3.107325 1_565
La2 S6 3.107325 1_555
La2 S4 3.107325 1_565
La2 S3 3.107325 1_555
La3 S5 2.833509 1_555
La3 S4 2.833509 1_555
La3 S9 2.999898 1_556
La3 S8 2.999898 1_555
La3 S2 3.107317 1_555
La3 S0 3.107317 1_455
La3 S1 3.107325 1_455
La3 S7 3.107325 1_555
Fe0 S7 2.266355 1_555
Fe0 S3 2.266364 1_555
Fe0 S4 2.266364 1_565
Fe0 S0 2.266364 1_455
Fe1 S1 2.266355 1_555
Fe1 S5 2.266364 1_555
Fe1 S6 2.266364 1_545
Fe1 S2 2.266364 1_655
