# generated using pymatgen
data_K2YSbO7
_symmetry_space_group_name_H-M   'P 1'
_cell_length_a   8.16112729
_cell_length_b   8.16112729
_cell_length_c   8.16112729
_cell_angle_alpha   120.39944591
_cell_angle_beta   117.81636864
_cell_angle_gamma   91.56638916
_symmetry_Int_Tables_number   1
_chemical_formula_structural   K2YSbO7
_chemical_formula_sum   'K4 Y2 Sb2 O14'
_cell_volume   389.14354797
_cell_formula_units_Z   2
loop_
 _symmetry_equiv_pos_site_id
 _symmetry_equiv_pos_as_xyz
  1  'x, y, z'
loop_
 _atom_site_type_symbol
 _atom_site_label
 _atom_site_symmetry_multiplicity
 _atom_site_fract_x
 _atom_site_fract_y
 _atom_site_fract_z
 _atom_site_occupancy
  K  K0  1  0.00000000  0.00000000  0.00000000  1
  K  K1  1  0.50000000  0.50000000  0.00000000  1
  K  K2  1  0.50000000  0.00000000  0.00000000  1
  K  K3  1  0.50000000  0.50000000  0.50000000  1
  Y  Y0  1  0.00000000  0.00000000  0.50000000  1
  Y  Y1  1  0.00000000  0.50000000  0.00000000  1
  Sb  Sb0  1  0.50000000  0.00000000  0.50000000  1
  Sb  Sb1  1  0.00000000  0.50000000  0.50000000  1
  O  O0  1  0.37916000  0.08392800  0.29523300  1
  O  O1  1  0.71130500  0.41607200  0.29523300  1
  O  O2  1  0.67951600  0.28748100  0.74404000  1
  O  O3  1  0.95655900  0.21251900  0.39203600  1
  O  O4  1  0.95655900  0.56452300  0.74404000  1
  O  O5  1  0.67951600  0.93547700  0.39203600  1
  O  O6  1  0.32048400  0.06452300  0.60796400  1
  O  O7  1  0.04344100  0.43547700  0.25596000  1
  O  O8  1  0.04344100  0.78748100  0.60796400  1
  O  O9  1  0.32048400  0.71251900  0.25596000  1
  O  O10  1  0.88627600  0.75000000  0.13627600  1
  O  O11  1  0.62084000  0.91607200  0.70476700  1
  O  O12  1  0.28869500  0.58392800  0.70476700  1
  O  O13  1  0.11372400  0.25000000  0.86372400  1
loop_
_geom_bond_atom_site_label_1
_geom_bond_atom_site_label_2
_geom_bond_distance
_geom_bond_site_symmetry_2
K0 O0 2.665584 1_555
K0 O11 2.665584 1_444
K0 O3 2.974319 1_455
K0 O7 2.974319 1_555
K0 O4 2.974319 1_444
K0 O8 2.974319 1_544
K0 O13 3.068772 1_554
K0 O10 3.068772 1_445
K1 O12 2.665590 1_554
K1 O1 2.665590 1_555
K1 O2 2.974312 1_554
K1 O9 2.974312 1_555
K1 O5 2.974319 1_555
K1 O6 2.974319 1_554
K1 O10 3.068772 1_555
K1 O13 3.068772 1_554
K2 O12 2.798462 1_544
K2 O1 2.798462 1_555
K2 O11 2.798468 1_544
K2 O0 2.798468 1_555
K2 O8 3.167461 1_544
K2 O3 3.167461 1_555
K2 O6 3.167461 1_554
K2 O5 3.167461 1_545
K3 O1 2.798462 1_555
K3 O12 2.798462 1_555
K3 O11 2.798462 1_555
K3 O0 2.798462 1_555
K3 O9 3.167460 1_555
K3 O2 3.167460 1_555
K3 O7 3.167461 1_555
K3 O4 3.167461 1_555
O0 Sb0 1.972730 1_555
O1 Sb1 1.972729 1_655
O2 Sb0 1.994340 1_555
O2 Y1 2.280105 1_656
O3 Sb1 1.994342 1_655
O3 Y0 2.280099 1_655
O4 Sb1 1.994342 1_655
O4 Y1 2.280099 1_656
O5 Sb0 1.994335 1_565
O5 Y0 2.280107 1_665
O6 Sb0 1.994335 1_555
O6 Y0 2.280107 1_555
O7 Sb1 1.994342 1_555
O7 Y1 2.280099 1_555
O8 Sb1 1.994342 1_555
O8 Y0 2.280099 1_565
O9 Sb0 1.994340 1_565
O9 Y1 2.280105 1_555
O10 Y0 2.243091 1_665
O10 Y1 2.243091 1_655
O11 Sb0 1.972730 1_565
O12 Sb1 1.972729 1_555
O13 Y0 2.243091 1_555
O13 Y1 2.243091 1_556
