# generated using pymatgen
data_MnZn4S5
_symmetry_space_group_name_H-M   'P 1'
_cell_length_a   3.87457802
_cell_length_b   3.87457802
_cell_length_c   31.70936000
_cell_angle_alpha   90.00000000
_cell_angle_beta   90.00000000
_cell_angle_gamma   120.00000034
_symmetry_Int_Tables_number   1
_chemical_formula_structural   MnZn4S5
_chemical_formula_sum   'Mn2 Zn8 S10'
_cell_volume   412.25594549
_cell_formula_units_Z   2
loop_
 _symmetry_equiv_pos_site_id
 _symmetry_equiv_pos_as_xyz
  1  'x, y, z'
loop_
 _atom_site_type_symbol
 _atom_site_label
 _atom_site_symmetry_multiplicity
 _atom_site_fract_x
 _atom_site_fract_y
 _atom_site_fract_z
 _atom_site_occupancy
  Mn  Mn0  1  0.00000000  0.00000000  0.79978500  1
  Mn  Mn1  1  0.00000000  0.00000000  0.99980300  1
  Zn  Zn0  1  0.66666700  0.33333300  0.10022700  1
  Zn  Zn1  1  0.66666700  0.33333300  0.30004800  1
  Zn  Zn2  1  0.66666700  0.33333300  0.50004600  1
  Zn  Zn3  1  0.66666700  0.33333300  0.69980900  1
  Zn  Zn4  1  0.66666700  0.33333300  0.89999500  1
  Zn  Zn5  1  0.00000000  0.00000000  0.20005000  1
  Zn  Zn6  1  0.00000000  0.00000000  0.40004600  1
  Zn  Zn7  1  0.00000000  0.00000000  0.60004400  1
  S  S0  1  0.66666700  0.33333300  0.02624300  1
  S  S1  1  0.66666700  0.33333300  0.22515100  1
  S  S2  1  0.66666700  0.33333300  0.42514900  1
  S  S3  1  0.66666700  0.33333300  0.62507800  1
  S  S4  1  0.66666700  0.33333300  0.82615600  1
  S  S5  1  0.00000000  0.00000000  0.12518000  1
  S  S6  1  0.00000000  0.00000000  0.32514800  1
  S  S7  1  0.00000000  0.00000000  0.52514900  1
  S  S8  1  0.00000000  0.00000000  0.72443700  1
  S  S9  1  0.00000000  0.00000000  0.92445700  1
loop_
_geom_bond_atom_site_label_1
_geom_bond_atom_site_label_2
_geom_bond_distance
_geom_bond_site_symmetry_2
Mn0 S4 2.388169 1_455
Mn0 S4 2.388172 1_555
Mn0 S4 2.388172 1_445
Mn0 S8 2.389237 1_555
Mn1 S0 2.388936 1_456
Mn1 S0 2.388939 1_446
Mn1 S0 2.388939 1_556
Mn1 S9 2.389173 1_555
S0 Zn0 2.345985 1_555
S1 Zn5 2.374368 1_655
S1 Zn5 2.374371 1_555
S1 Zn5 2.374371 1_665
S1 Zn1 2.374936 1_555
S2 Zn6 2.374389 1_655
S2 Zn6 2.374392 1_665
S2 Zn6 2.374392 1_555
S2 Zn2 2.374936 1_555
S3 Zn3 2.369672 1_555
S3 Zn7 2.373657 1_655
S3 Zn7 2.373660 1_555
S3 Zn7 2.373660 1_665
S4 Zn4 2.341387 1_555
S5 Zn0 2.372799 1_455
S5 Zn0 2.372802 1_445
S5 Zn0 2.372802 1_555
S5 Zn5 2.374080 1_555
S6 Zn1 2.374357 1_455
S6 Zn1 2.374361 1_445
S6 Zn1 2.374361 1_555
S6 Zn6 2.374968 1_555
S7 Zn2 2.374389 1_455
S7 Zn2 2.374392 1_555
S7 Zn2 2.374392 1_445
S7 Zn7 2.374873 1_555
S8 Zn3 2.369382 1_455
S8 Zn3 2.369385 1_445
S8 Zn3 2.369385 1_555
S9 Zn4 2.367653 1_455
S9 Zn4 2.367656 1_555
S9 Zn4 2.367656 1_445
