# generated using pymatgen
data_Y3(CuGe)4
_symmetry_space_group_name_H-M   'P 1'
_cell_length_a   8.02401576
_cell_length_b   8.02401576
_cell_length_c   8.02401576
_cell_angle_alpha   149.47565853
_cell_angle_beta   130.91461107
_cell_angle_gamma   58.91246680
_symmetry_Int_Tables_number   1
_chemical_formula_structural   Y3(CuGe)4
_chemical_formula_sum   'Y3 Cu4 Ge4'
_cell_volume   196.74400699
_cell_formula_units_Z   1
loop_
 _symmetry_equiv_pos_site_id
 _symmetry_equiv_pos_as_xyz
  1  'x, y, z'
loop_
 _atom_site_type_symbol
 _atom_site_label
 _atom_site_symmetry_multiplicity
 _atom_site_fract_x
 _atom_site_fract_y
 _atom_site_fract_z
 _atom_site_occupancy
  Y  Y0  1  0.50000000  0.00000000  0.50000000  1
  Y  Y1  1  0.87054200  0.87054200  0.00000000  1
  Y  Y2  1  0.12945800  0.12945800  0.00000000  1
  Cu  Cu0  1  0.47939600  0.66935800  0.81003800  1
  Cu  Cu1  1  0.85932000  0.66935800  0.18996200  1
  Cu  Cu2  1  0.14068000  0.33064200  0.81003800  1
  Cu  Cu3  1  0.52060400  0.33064200  0.18996200  1
  Ge  Ge0  1  0.28354700  0.78354700  0.50000000  1
  Ge  Ge1  1  0.71645300  0.21645300  0.50000000  1
  Ge  Ge2  1  0.80860900  0.50000000  0.30860900  1
  Ge  Ge3  1  0.19139100  0.50000000  0.69139100  1
loop_
_geom_bond_atom_site_label_1
_geom_bond_atom_site_label_2
_geom_bond_distance
_geom_bond_site_symmetry_2
Cu0 Ge3 2.495188 1_555
Cu0 Cu1 2.532532 1_556
Cu0 Ge1 2.549105 1_566
Cu0 Ge1 2.549105 1_555
Cu0 Ge0 2.610972 1_555
Cu0 Y2 3.007233 1_566
Cu0 Y2 3.007233 1_555
Cu0 Y1 3.083271 1_556
Cu1 Ge2 2.495188 1_555
Cu1 Ge1 2.549105 1_565
Cu1 Ge1 2.549105 1_554
Cu1 Ge0 2.610972 1_655
Cu1 Y2 3.007233 1_666
Cu1 Y2 3.007233 1_655
Cu1 Y1 3.083271 1_555
Cu2 Ge3 2.495188 1_555
Cu2 Cu3 2.532532 1_556
Cu2 Ge0 2.549105 1_545
Cu2 Ge0 2.549105 1_556
Cu2 Ge1 2.610972 1_455
Cu2 Y1 3.007233 1_456
Cu2 Y1 3.007233 1_445
Cu2 Y2 3.083271 1_556
Cu3 Ge2 2.495188 1_555
Cu3 Ge0 2.549105 1_544
Cu3 Ge0 2.549105 1_555
Cu3 Ge1 2.610972 1_555
Cu3 Y1 3.007233 1_545
Cu3 Y1 3.007233 1_556
Cu3 Y2 3.083271 1_555
Ge0 Y2 3.016217 1_566
Ge0 Y2 3.016217 1_555
Ge0 Y0 3.024612 1_565
Ge1 Y1 3.016217 1_545
Ge1 Y1 3.016217 1_556
Ge1 Y0 3.024612 1_555
Ge2 Ge3 2.551583 1_655
Ge2 Y0 2.948443 1_554
Ge2 Y0 2.948443 1_565
Ge2 Y1 3.059658 1_545
Ge2 Y1 3.059658 1_556
Ge2 Y2 3.059658 1_655
Ge2 Y2 3.059658 1_666
Ge3 Y0 2.948443 1_555
Ge3 Y0 2.948443 1_566
Ge3 Y1 3.059658 1_456
Ge3 Y2 3.059658 1_555
Ge3 Y1 3.059658 1_445
Ge3 Y2 3.059658 1_566
