# generated using pymatgen
data_SrCa7Mn7CrO23
_symmetry_space_group_name_H-M   'P 1'
_cell_length_a   10.88615615
_cell_length_b   15.41378681
_cell_length_c   10.79068862
_cell_angle_alpha   90.08686459
_cell_angle_beta   90.23768130
_cell_angle_gamma   90.09195199
_symmetry_Int_Tables_number   1
_chemical_formula_structural   SrCa7Mn7CrO23
_chemical_formula_sum   'Sr4 Ca28 Mn28 Cr4 O92'
_cell_volume   1810.62398118
_cell_formula_units_Z   4
loop_
 _symmetry_equiv_pos_site_id
 _symmetry_equiv_pos_as_xyz
  1  'x, y, z'
loop_
 _atom_site_type_symbol
 _atom_site_label
 _atom_site_symmetry_multiplicity
 _atom_site_fract_x
 _atom_site_fract_y
 _atom_site_fract_z
 _atom_site_occupancy
  Sr  Sr0  1  0.01276698  0.11929055  0.50491835  1
  Sr  Sr1  1  0.49843073  0.38158889  0.99748453  1
  Sr  Sr2  1  0.23819922  0.38434492  0.25497386  1
  Sr  Sr3  1  0.24603195  0.11715555  0.26380606  1
  Ca  Ca0  1  0.00963224  0.11611199  0.99066170  1
  Ca  Ca1  1  0.02004452  0.62652145  0.49616823  1
  Ca  Ca2  1  0.02006492  0.62654194  0.99459691  1
  Ca  Ca3  1  0.52517136  0.12952152  0.50682964  1
  Ca  Ca4  1  0.53868717  0.12066355  0.97386286  1
  Ca  Ca5  1  0.52488407  0.62506711  0.49808756  1
  Ca  Ca6  1  0.52102904  0.62541353  0.99448381  1
  Ca  Ca7  1  0.48030621  0.38507175  0.50996432  1
  Ca  Ca8  1  0.48657254  0.86792773  0.99664150  1
  Ca  Ca9  1  0.48199613  0.86454476  0.51563784  1
  Ca  Ca10  1  0.96550142  0.38564221  0.00033816  1
  Ca  Ca11  1  0.97621750  0.37891610  0.50403645  1
  Ca  Ca12  1  0.97450716  0.87243777  0.00425089  1
  Ca  Ca13  1  0.97276251  0.87314530  0.50594137  1
  Ca  Ca14  1  0.22495711  0.38064132  0.72314939  1
  Ca  Ca15  1  0.22484217  0.87123215  0.24649274  1
  Ca  Ca16  1  0.22690283  0.86962474  0.74443474  1
  Ca  Ca17  1  0.73833846  0.38726482  0.24722017  1
  Ca  Ca18  1  0.72761549  0.38016232  0.74751755  1
  Ca  Ca19  1  0.73532521  0.86530073  0.24850760  1
  Ca  Ca20  1  0.72882728  0.87235798  0.74507674  1
  Ca  Ca21  1  0.27025012  0.11377238  0.73054259  1
  Ca  Ca22  1  0.27276607  0.62753807  0.25598142  1
  Ca  Ca23  1  0.27151542  0.62594731  0.75511585  1
  Ca  Ca24  1  0.77489051  0.11813520  0.25325137  1
  Ca  Ca25  1  0.77348612  0.12350162  0.75574877  1
  Ca  Ca26  1  0.77206536  0.62522011  0.25457316  1
  Ca  Ca27  1  0.77120771  0.62610222  0.75462793  1
  Mn  Mn0  1  0.99683572  0.99596309  0.75386265  1
  Mn  Mn1  1  0.00044224  0.50247230  0.24984442  1
  Mn  Mn2  1  0.00036035  0.50141957  0.74929510  1
  Mn  Mn3  1  0.50898551  0.98396471  0.23993142  1
  Mn  Mn4  1  0.50043596  0.99789115  0.74803670  1
  Mn  Mn5  1  0.50125482  0.50599764  0.25096389  1
  Mn  Mn6  1  0.49956302  0.50319794  0.74856760  1
  Mn  Mn7  1  0.24117743  0.99053547  0.50603611  1
  Mn  Mn8  1  0.24914744  0.50684483  0.00087223  1
  Mn  Mn9  1  0.24988133  0.50471296  0.50084020  1
  Mn  Mn10  1  0.75120088  0.99719710  0.99605171  1
  Mn  Mn11  1  0.74446826  0.99927893  0.50106743  1
  Mn  Mn12  1  0.74996566  0.50494477  0.00050722  1
  Mn  Mn13  1  0.75114522  0.50151185  0.50088693  1
  Mn  Mn14  1  0.25002258  0.25043942  0.49658310  1
  Mn  Mn15  1  0.24985866  0.74984008  0.00317379  1
  Mn  Mn16  1  0.25034121  0.74912453  0.49996636  1
  Mn  Mn17  1  0.75252366  0.24921035  0.00026137  1
  Mn  Mn18  1  0.74883563  0.25078799  0.50364888  1
  Mn  Mn19  1  0.74986397  0.74963892  0.99981497  1
  Mn  Mn20  1  0.75049588  0.74880084  0.50045170  1
  Mn  Mn21  1  0.99294771  0.25273173  0.74664930  1
  Mn  Mn22  1  0.00054966  0.74863117  0.24928110  1
  Mn  Mn23  1  0.00044734  0.74949638  0.75018958  1
  Mn  Mn24  1  0.52162476  0.25806299  0.26481498  1
  Mn  Mn25  1  0.50327513  0.25062160  0.74106084  1
  Mn  Mn26  1  0.49954867  0.74868411  0.25239155  1
  Mn  Mn27  1  0.50021986  0.74822308  0.75193811  1
  Cr  Cr0  1  0.99454976  0.99519292  0.24831292  1
  Cr  Cr1  1  0.25130966  0.99190931  0.99546443  1
  Cr  Cr2  1  0.25805400  0.24238595  0.95911214  1
  Cr  Cr3  1  0.98510095  0.25132693  0.26496745  1
  O  O0  1  0.10093926  0.26828555  0.60307967  1
  O  O1  1  0.10647167  0.77445433  0.10463047  1
  O  O2  1  0.10555443  0.77278066  0.60292417  1
  O  O3  1  0.59222381  0.25075137  0.10660570  1
  O  O4  1  0.59697945  0.26754805  0.59378694  1
  O  O5  1  0.60779906  0.77323546  0.10888988  1
  O  O6  1  0.60795650  0.76623838  0.60733483  1
  O  O7  1  0.39737363  0.22108530  0.37000014  1
  O  O8  1  0.40428059  0.23246264  0.89953703  1
  O  O9  1  0.39634134  0.72613736  0.39753400  1
  O  O10  1  0.39676986  0.73150908  0.89854106  1
  O  O11  1  0.89064514  0.22977015  0.40252916  1
  O  O12  1  0.90228675  0.23580686  0.90423323  1
  O  O13  1  0.89621707  0.73079742  0.39501536  1
  O  O14  1  0.89534697  0.72945952  0.89555863  1
  O  O15  1  0.14456742  0.24225002  0.34613176  1
  O  O16  1  0.15370541  0.22755603  0.84209065  1
  O  O17  1  0.14694221  0.73173769  0.35156563  1
  O  O18  1  0.14695523  0.73151925  0.85341879  1
  O  O19  1  0.65278008  0.21907572  0.35582012  1
  O  O20  1  0.64720101  0.22975281  0.85250389  1
  O  O21  1  0.64689853  0.72810377  0.35455869  1
  O  O22  1  0.64451693  0.72903561  0.85635660  1
  O  O23  1  0.35136456  0.26249490  0.64736002  1
  O  O24  1  0.35767680  0.77502552  0.14635067  1
  O  O25  1  0.35511053  0.76929927  0.64629378  1
  O  O26  1  0.85961046  0.27579807  0.14193062  1
  O  O27  1  0.84857157  0.27269839  0.64975998  1
  O  O28  1  0.85756468  0.76978173  0.14380030  1
  O  O29  1  0.85657138  0.77147674  0.64487937  1
  O  O30  1  0.36117907  0.48777907  0.13986177  1
  O  O31  1  0.35552954  0.48523718  0.64442313  1
  O  O32  1  0.35569325  0.99075228  0.15780935  1
  O  O33  1  0.35426395  0.97854231  0.64523944  1
  O  O34  1  0.85805949  0.48344670  0.14367096  1
  O  O35  1  0.85611319  0.47861132  0.64531691  1
  O  O36  1  0.85247545  0.97875629  0.14717938  1
  O  O37  1  0.85226128  0.97829477  0.64546808  1
  O  O38  1  0.13655390  0.00452470  0.35928801  1
  O  O39  1  0.14579424  0.02503757  0.86116040  1
  O  O40  1  0.14639000  0.52248377  0.35339429  1
  O  O41  1  0.14801482  0.51592283  0.85174672  1
  O  O42  1  0.62055517  0.03067631  0.35535207  1
  O  O43  1  0.64795808  0.01954080  0.84988006  1
  O  O44  1  0.64634152  0.52111427  0.35553430  1
  O  O45  1  0.64371651  0.52049098  0.85636310  1
  O  O46  1  0.39174448  0.02260018  0.90110957  1
  O  O47  1  0.39499352  0.52205373  0.39529138  1
  O  O48  1  0.39421273  0.51647548  0.89400820  1
  O  O49  1  0.88183502  0.01837227  0.38739574  1
  O  O50  1  0.89498286  0.01400288  0.89887156  1
  O  O51  1  0.89626587  0.52036946  0.39518728  1
  O  O52  1  0.89581375  0.51877321  0.89656614  1
  O  O53  1  0.10429042  0.48136417  0.10262406  1
  O  O54  1  0.10419730  0.48069831  0.60310069  1
  O  O55  1  0.10945946  0.98428433  0.10214912  1
  O  O56  1  0.09991327  0.97839429  0.61598859  1
  O  O57  1  0.61351656  0.48665734  0.11280531  1
  O  O58  1  0.60731858  0.48397359  0.60465557  1
  O  O59  1  0.60345099  0.98644074  0.09301255  1
  O  O60  1  0.59723579  0.98108600  0.59872263  1
  O  O61  1  0.00759164  0.37836783  0.28390565  1
  O  O62  1  0.01348693  0.37554866  0.78916981  1
  O  O63  1  0.00327935  0.87365196  0.28600277  1
  O  O64  1  0.01087375  0.87341484  0.79299496  1
  O  O65  1  0.50134300  0.37946264  0.28022397  1
  O  O66  1  0.50719545  0.37535089  0.77234106  1
  O  O67  1  0.51049268  0.87119809  0.30134208  1
  O  O68  1  0.50990773  0.87435402  0.78504256  1
  O  O69  1  0.48969301  0.12392984  0.71857757  1
  O  O70  1  0.49042559  0.62892477  0.20929903  1
  O  O71  1  0.48967253  0.62583594  0.71351732  1
  O  O72  1  0.99846571  0.12412720  0.21479454  1
  O  O73  1  0.98817711  0.12523963  0.72729818  1
  O  O74  1  0.99069732  0.62632001  0.20924634  1
  O  O75  1  0.99008133  0.62520466  0.71178110  1
  O  O76  1  0.23449943  0.15274977  0.04937264  1
  O  O77  1  0.25728918  0.11632956  0.51360676  1
  O  O78  1  0.23823811  0.63154871  0.03933065  1
  O  O79  1  0.23653233  0.62736988  0.54046683  1
  O  O80  1  0.75025292  0.12341035  0.03621966  1
  O  O81  1  0.74227776  0.12427369  0.54324187  1
  O  O82  1  0.74081401  0.62733461  0.03870043  1
  O  O83  1  0.74461028  0.62522209  0.53951868  1
  O  O84  1  0.26514738  0.37754027  0.47736776  1
  O  O85  1  0.24845294  0.34611872  0.01256012  1
  O  O86  1  0.27020660  0.87351031  0.45811274  1
  O  O87  1  0.26510552  0.87829384  0.96125526  1
  O  O88  1  0.75570971  0.37538204  0.46097631  1
  O  O89  1  0.74643174  0.37602667  0.96694112  1
  O  O90  1  0.75402845  0.87457462  0.46190062  1
  O  O91  1  0.75665569  0.87379284  0.96081084  1
loop_
_geom_bond_atom_site_label_1
_geom_bond_atom_site_label_2
_geom_bond_distance
_geom_bond_site_symmetry_2
Ca0 O50 2.234864 1_455
Ca0 O12 2.375353 1_455
Ca0 O72 2.425076 1_456
Ca0 O39 2.477596 1_555
Ca0 O76 2.587334 1_556
Ca0 O55 2.600152 1_546
Ca0 O16 2.828675 1_555
Ca0 O73 2.854190 1_455
Ca0 O80 2.870481 1_456
Ca1 O75 2.350818 1_455
Ca1 O13 2.364730 1_455
Ca1 O51 2.378136 1_455
Ca1 O79 2.402776 1_555
Ca1 O40 2.618026 1_555
Ca1 O17 2.644165 1_555
Ca1 O54 2.688581 1_555
Ca1 O2 2.693030 1_555
Ca2 O74 2.339495 1_456
Ca2 O14 2.345628 1_455
Ca2 O52 2.384005 1_455
Ca2 O78 2.422745 1_556
Ca2 O18 2.620095 1_555
Ca2 O53 2.685633 1_556
Ca2 O41 2.690890 1_555
Ca2 O1 2.732784 1_556
Ca3 O69 2.320604 1_555
Ca3 O81 2.395797 1_555
Ca3 O4 2.449565 1_555
Ca3 O42 2.466342 1_555
Ca3 O7 2.470423 1_555
Ca3 O19 2.551453 1_555
Ca3 O60 2.615265 1_545
Ca3 O77 2.924187 1_555
Ca4 O46 2.331975 1_555
Ca4 O43 2.376385 1_555
Ca4 O80 2.397027 1_556
Ca4 O8 2.399218 1_555
Ca4 O20 2.439444 1_555
Ca4 O3 2.528363 1_556
Ca4 O59 2.536850 1_546
Ca4 O69 2.804232 1_555
Ca5 O71 2.357611 1_555
Ca5 O9 2.358381 1_555
Ca5 O47 2.392795 1_555
Ca5 O83 2.431568 1_555
Ca5 O44 2.588053 1_555
Ca5 O21 2.589032 1_555
Ca5 O58 2.619668 1_555
Ca5 O6 2.630493 1_555
Ca6 O70 2.343747 1_556
Ca6 O10 2.361475 1_555
Ca6 O48 2.423953 1_555
Ca6 O82 2.437906 1_556
Ca6 O22 2.568413 1_555
Ca6 O45 2.576200 1_555
Ca6 O57 2.687503 1_556
Ca6 O5 2.753675 1_556
Ca7 O58 2.292723 1_555
Ca7 O84 2.369707 1_555
Ca7 O4 2.390741 1_555
Ca7 O65 2.491940 1_555
Ca7 O31 2.519962 1_555
Ca7 O47 2.618479 1_555
Ca7 O23 2.784848 1_555
Ca7 O66 2.849303 1_555
Ca7 O88 3.050345 1_555
Ca7 O7 3.074887 1_555
Ca8 O68 2.300698 1_555
Ca8 O5 2.310259 1_556
Ca8 O87 2.444928 1_555
Ca8 O59 2.452155 1_556
Ca8 O10 2.544763 1_555
Ca8 O24 2.578481 1_556
Ca8 O46 2.796200 1_565
Ca8 O32 2.942430 1_556
Ca8 O91 2.968321 1_555
Ca9 O6 2.270534 1_555
Ca9 O67 2.336773 1_555
Ca9 O60 2.362837 1_555
Ca9 O86 2.389454 1_555
Ca9 O25 2.463114 1_555
Ca9 O33 2.644493 1_555
Ca9 O9 2.649613 1_555
Ca10 O62 2.344867 1_654
Ca10 O53 2.377388 1_655
Ca10 O89 2.414707 1_554
Ca10 O52 2.458708 1_554
Ca10 O34 2.458955 1_555
Ca10 O26 2.558528 1_555
Ca10 O12 2.620050 1_554
Ca11 O54 2.349587 1_655
Ca11 O61 2.401198 1_655
Ca11 O0 2.427843 1_655
Ca11 O88 2.443651 1_555
Ca11 O35 2.531976 1_555
Ca11 O51 2.626089 1_555
Ca11 O27 2.665079 1_555
Ca11 O11 2.707311 1_555
Ca12 O64 2.315403 1_654
Ca12 O1 2.348837 1_655
Ca12 O91 2.415667 1_554
Ca12 O55 2.493958 1_655
Ca12 O28 2.531521 1_555
Ca12 O50 2.609458 1_564
Ca12 O36 2.616366 1_555
Ca12 O14 2.636816 1_554
Ca13 O2 2.361709 1_655
Ca13 O63 2.397815 1_655
Ca13 O90 2.426340 1_555
Ca13 O56 2.435407 1_655
Ca13 O29 2.513943 1_555
Ca13 O37 2.574928 1_555
Ca13 O13 2.630428 1_555
Ca13 O49 2.762660 1_565
Ca14 O31 2.312618 1_555
Ca14 O54 2.404844 1_555
Ca14 O62 2.413821 1_555
Ca14 O23 2.427276 1_555
Ca14 O0 2.543971 1_555
Ca14 O41 2.642291 1_555
Ca14 O84 2.690155 1_555
Ca14 O16 2.797910 1_555
Ca15 O86 2.334513 1_555
Ca15 O24 2.339400 1_555
Ca15 O63 2.451432 1_555
Ca15 O1 2.489891 1_555
Ca15 O32 2.519327 1_555
Ca15 O38 2.575808 1_565
Ca15 O17 2.576294 1_555
Ca15 O55 2.653165 1_555
Ca16 O25 2.339874 1_555
Ca16 O87 2.378138 1_555
Ca16 O64 2.412297 1_555
Ca16 O33 2.428333 1_555
Ca16 O2 2.505012 1_555
Ca16 O56 2.577126 1_555
Ca16 O18 2.584974 1_555
Ca16 O39 2.848048 1_565
Ca17 O34 2.270660 1_555
Ca17 O88 2.321072 1_555
Ca17 O26 2.449383 1_555
Ca17 O57 2.508845 1_555
Ca17 O44 2.575766 1_555
Ca17 O65 2.608504 1_555
Ca18 O35 2.342382 1_555
Ca18 O27 2.367182 1_555
Ca18 O89 2.376689 1_555
Ca18 O66 2.416568 1_555
Ca18 O58 2.578623 1_555
Ca18 O45 2.626741 1_555
Ca18 O20 2.726592 1_555
Ca18 O4 2.784074 1_555
Ca19 O28 2.286661 1_555
Ca19 O90 2.314982 1_555
Ca19 O36 2.427014 1_555
Ca19 O5 2.486094 1_555
Ca19 O67 2.517140 1_555
Ca19 O21 2.591954 1_555
Ca19 O59 2.891531 1_555
Ca20 O91 2.346368 1_555
Ca20 O29 2.352679 1_555
Ca20 O37 2.374335 1_555
Ca20 O68 2.423893 1_555
Ca20 O6 2.566238 1_555
Ca20 O22 2.678666 1_555
Ca20 O43 2.684697 1_565
Ca20 O60 2.711427 1_555
Ca21 O77 2.344946 1_555
Ca21 O39 2.389273 1_555
Ca21 O69 2.397790 1_555
Ca21 O33 2.456785 1_545
Ca21 O16 2.479488 1_555
Ca21 O23 2.616625 1_555
Ca21 O46 2.665589 1_555
Ca21 O8 2.959812 1_555
Ca22 O17 2.352309 1_555
Ca22 O78 2.367211 1_555
Ca22 O40 2.372699 1_555
Ca22 O70 2.424540 1_555
Ca22 O9 2.534154 1_555
Ca22 O47 2.582940 1_555
Ca22 O30 2.673111 1_555
Ca22 O24 2.726252 1_555
Ca23 O79 2.345892 1_555
Ca23 O18 2.371847 1_555
Ca23 O41 2.404271 1_555
Ca23 O71 2.418773 1_555
Ca23 O10 2.621010 1_555
Ca23 O48 2.622187 1_555
Ca23 O31 2.640982 1_555
Ca23 O25 2.664516 1_555
Ca24 O19 2.329469 1_555
Ca24 O80 2.357664 1_555
Ca24 O49 2.411181 1_555
Ca24 O42 2.422089 1_555
Ca24 O72 2.472297 1_555
Ca24 O36 2.577841 1_545
Ca24 O11 2.666699 1_555
Ca24 O26 2.865340 1_555
Ca25 O81 2.316783 1_555
Ca25 O43 2.340151 1_555
Ca25 O73 2.358614 1_555
Ca25 O20 2.382464 1_555
Ca25 O50 2.642208 1_555
Ca25 O37 2.677228 1_545
Ca25 O27 2.697113 1_555
Ca25 O12 2.737682 1_555
Ca26 O82 2.353013 1_555
Ca26 O21 2.355734 1_555
Ca26 O44 2.376058 1_555
Ca26 O74 2.431823 1_555
Ca26 O51 2.596095 1_555
Ca26 O13 2.596154 1_555
Ca26 O34 2.663044 1_555
Ca26 O28 2.696443 1_555
Ca27 O83 2.337990 1_555
Ca27 O22 2.374595 1_555
Ca27 O45 2.406689 1_555
Ca27 O75 2.429075 1_555
Ca27 O14 2.577921 1_555
Ca27 O52 2.630662 1_555
Ca27 O29 2.701406 1_555
Ca27 O35 2.724264 1_555
Mn0 O56 1.886665 1_655
Mn0 O50 1.941448 1_565
Mn0 O64 1.942302 1_655
Mn0 O37 1.975265 1_555
Mn0 O73 2.015882 1_565
Mn0 O39 2.037507 1_665
Mn1 O34 1.945221 1_455
Mn1 O61 1.950072 1_555
Mn1 O51 1.958675 1_455
Mn1 O74 1.962169 1_455
Mn1 O40 1.962305 1_555
Mn1 O53 1.980428 1_555
Mn2 O75 1.954352 1_455
Mn2 O35 1.957222 1_455
Mn2 O41 1.959391 1_555
Mn2 O54 1.970491 1_555
Mn2 O52 1.976602 1_455
Mn2 O62 1.993148 1_555
Mn3 O67 1.861206 1_555
Mn3 O42 1.877947 1_565
Mn3 O32 1.889327 1_555
Mn3 O59 1.893655 1_555
Mn4 O60 1.946076 1_555
Mn4 O68 1.948990 1_555
Mn4 O33 1.958137 1_555
Mn4 O43 1.969941 1_565
Mn4 O69 1.972621 1_565
Mn4 O46 2.071030 1_565
Mn5 O44 1.950744 1_555
Mn5 O70 1.951680 1_555
Mn5 O57 1.954455 1_555
Mn5 O30 1.955469 1_555
Mn5 O47 1.959478 1_555
Mn5 O65 1.976248 1_555
Mn6 O71 1.931429 1_555
Mn6 O31 1.944511 1_555
Mn6 O48 1.958294 1_555
Mn6 O45 1.967043 1_555
Mn6 O58 1.972359 1_555
Mn6 O66 1.989444 1_555
Mn7 O86 1.902982 1_555
Mn7 O33 1.947372 1_555
Mn7 O77 1.948159 1_565
Mn7 O56 1.955123 1_555
Mn7 O38 1.959100 1_565
Mn8 O41 1.951296 1_554
Mn8 O30 1.952040 1_555
Mn8 O53 1.964742 1_555
Mn8 O48 1.964820 1_554
Mn8 O78 1.969706 1_555
Mn8 O85 2.480798 1_555
Mn9 O79 1.943528 1_555
Mn9 O31 1.949641 1_555
Mn9 O40 1.965494 1_555
Mn9 O47 1.969423 1_555
Mn9 O54 1.970715 1_555
Mn9 O84 1.983455 1_555
Mn10 O50 1.905215 1_565
Mn10 O59 1.929469 1_556
Mn10 O91 1.940252 1_555
Mn10 O43 1.964138 1_565
Mn10 O36 1.985747 1_556
Mn10 O80 1.992535 1_566
Mn11 O60 1.942030 1_555
Mn11 O49 1.960168 1_565
Mn11 O90 1.970461 1_555
Mn11 O37 1.974111 1_555
Mn11 O81 1.979194 1_565
Mn11 O42 2.124380 1_565
Mn12 O82 1.933187 1_555
Mn12 O57 1.941368 1_555
Mn12 O45 1.949783 1_554
Mn12 O52 1.959258 1_554
Mn12 O34 1.966908 1_555
Mn12 O89 2.019593 1_554
Mn13 O58 1.947426 1_555
Mn13 O83 1.952731 1_555
Mn13 O44 1.959774 1_555
Mn13 O35 1.961495 1_555
Mn13 O51 1.973743 1_555
Mn13 O88 1.991372 1_555
Mn14 O23 1.970343 1_555
Mn14 O84 1.977037 1_555
Mn14 O15 1.988205 1_555
Mn14 O0 2.011506 1_555
Mn14 O77 2.077169 1_555
Mn14 O7 2.159207 1_555
Mn15 O78 1.869369 1_555
Mn15 O1 1.947777 1_555
Mn15 O24 1.974072 1_555
Mn15 O10 1.981875 1_554
Mn15 O18 1.982058 1_554
Mn15 O87 2.038301 1_554
Mn16 O79 1.933319 1_555
Mn16 O2 1.966394 1_555
Mn16 O25 1.968022 1_555
Mn16 O17 1.971274 1_555
Mn16 O9 1.971951 1_555
Mn16 O86 1.982098 1_555
Mn17 O12 1.946506 1_554
Mn17 O26 1.961042 1_555
Mn17 O80 1.978208 1_555
Mn17 O20 1.982159 1_554
Mn17 O89 1.989209 1_554
Mn17 O3 2.092665 1_555
Mn18 O11 1.921788 1_555
Mn18 O4 1.938963 1_555
Mn18 O27 1.939507 1_555
Mn18 O19 1.964461 1_555
Mn18 O88 1.976948 1_555
Mn18 O81 1.998177 1_555
Mn19 O82 1.934371 1_556
Mn19 O22 1.948081 1_555
Mn19 O91 1.961385 1_555
Mn19 O28 1.966537 1_556
Mn19 O14 1.971277 1_555
Mn19 O5 1.981161 1_556
Mn20 O83 1.952540 1_555
Mn20 O6 1.955883 1_555
Mn20 O21 1.958219 1_555
Mn20 O29 1.966364 1_555
Mn20 O13 1.975691 1_555
Mn20 O90 1.983742 1_555
Mn21 O27 1.909694 1_555
Mn21 O62 1.959439 1_655
Mn21 O0 1.963401 1_655
Mn21 O73 1.976461 1_555
Mn21 O12 1.986973 1_555
Mn21 O16 2.064531 1_655
Mn22 O74 1.936208 1_455
Mn22 O28 1.952621 1_455
Mn22 O17 1.952778 1_555
Mn22 O13 1.963078 1_455
Mn22 O63 1.966926 1_555
Mn22 O1 1.984873 1_555
Mn23 O29 1.961475 1_455
Mn23 O18 1.961870 1_555
Mn23 O75 1.962480 1_455
Mn23 O64 1.967417 1_555
Mn23 O14 1.969840 1_455
Mn23 O2 1.994680 1_555
Mn24 O19 1.832192 1_555
Mn24 O7 1.858744 1_555
Mn24 O3 1.878415 1_555
Mn24 O65 1.891713 1_555
Mn25 O4 1.909974 1_555
Mn25 O23 1.943776 1_555
Mn25 O66 1.951820 1_555
Mn25 O69 1.972685 1_555
Mn25 O20 1.997901 1_555
Mn25 O8 2.044460 1_555
Mn26 O70 1.905262 1_555
Mn26 O24 1.961689 1_555
Mn26 O9 1.962406 1_555
Mn26 O67 1.963416 1_555
Mn26 O21 1.969037 1_555
Mn26 O5 1.986250 1_555
Mn27 O71 1.933984 1_555
Mn27 O22 1.952533 1_555
Mn27 O10 1.962722 1_555
Mn27 O25 1.971879 1_555
Mn27 O6 1.975566 1_555
Mn27 O68 1.978735 1_555
Cr0 O36 1.905552 1_555
Cr0 O63 1.920065 1_655
Cr0 O38 1.956486 1_665
Cr0 O49 1.975022 1_565
Cr0 O72 2.020963 1_565
Cr0 O55 2.024083 1_655
Cr1 O87 1.795835 1_555
Cr1 O46 1.899919 1_565
Cr1 O39 1.915920 1_565
Cr1 O55 1.933447 1_556
Cr1 O32 2.084244 1_556
Cr1 O76 2.552660 1_566
Cr2 O85 1.702446 1_556
Cr2 O16 1.709840 1_555
Cr2 O76 1.711227 1_556
Cr2 O8 1.726153 1_555
Cr3 O11 1.839616 1_555
Cr3 O26 1.938895 1_555
Cr3 O15 1.946480 1_655
Cr3 O61 1.983183 1_655
Cr3 O72 2.038799 1_555
O0 Sr0 2.700865 1_555
O3 Sr1 2.549499 1_554
O7 Sr3 2.562031 1_555
O8 Sr1 2.725292 1_555
O11 Sr0 2.426681 1_655
O15 Sr3 2.395178 1_555
O15 Sr2 2.609844 1_555
O15 Sr0 2.933942 1_555
O30 Sr2 2.426935 1_555
O30 Sr1 2.700220 1_554
O32 Sr3 2.557631 1_565
O38 Sr3 2.346237 1_555
O38 Sr0 2.726070 1_555
O40 Sr2 2.582489 1_555
O48 Sr1 2.619300 1_555
O49 Sr0 2.455891 1_655
O53 Sr2 2.656790 1_555
O56 Sr0 2.656693 1_565
O57 Sr1 2.390680 1_554
O61 Sr2 2.532599 1_555
O65 Sr2 2.877543 1_555
O66 Sr1 2.433482 1_555
O72 Sr3 2.746596 1_655
O73 Sr0 2.417238 1_655
O76 Sr3 2.381699 1_555
O77 Sr0 2.663635 1_555
O77 Sr3 2.697848 1_555
O84 Sr2 2.418893 1_555
O85 Sr2 2.683292 1_555
O85 Sr1 2.780288 1_554
O89 Sr1 2.722649 1_555
