# generated using pymatgen
data_Th(NiH)2
_symmetry_space_group_name_H-M   'P 1'
_cell_length_a   4.32743419
_cell_length_b   4.32743419
_cell_length_c   3.54359800
_cell_angle_alpha   90.00000000
_cell_angle_beta   90.00000000
_cell_angle_gamma   120.00000295
_symmetry_Int_Tables_number   1
_chemical_formula_structural   Th(NiH)2
_chemical_formula_sum   'Th1 Ni2 H2'
_cell_volume   57.46931376
_cell_formula_units_Z   1
loop_
 _symmetry_equiv_pos_site_id
 _symmetry_equiv_pos_as_xyz
  1  'x, y, z'
loop_
 _atom_site_type_symbol
 _atom_site_label
 _atom_site_symmetry_multiplicity
 _atom_site_fract_x
 _atom_site_fract_y
 _atom_site_fract_z
 _atom_site_occupancy
  Th  Th0  1  0.00000000  0.00000000  0.00000000  1
  Ni  Ni0  1  0.33333300  0.66666700  0.50000000  1
  Ni  Ni1  1  0.66666700  0.33333300  0.50000000  1
  H  H0  1  0.66666700  0.33333300  0.00000000  1
  H  H1  1  0.33333300  0.66666700  0.00000000  1
loop_
_geom_bond_atom_site_label_1
_geom_bond_atom_site_label_2
_geom_bond_distance
_geom_bond_site_symmetry_2
H0 Ni1 1.771799 1_554
H0 Ni1 1.771799 1_555
H0 Th0 2.498443 1_655
H0 Th0 2.498446 1_555
H0 Th0 2.498446 1_665
H1 Ni0 1.771799 1_555
H1 Ni0 1.771799 1_554
H1 Th0 2.498443 1_565
H1 Th0 2.498446 1_555
H1 Th0 2.498446 1_665
