# generated using pymatgen
data_Ti3Nb
_symmetry_space_group_name_H-M   'P 1'
_cell_length_a   5.83596393
_cell_length_b   5.83596393
_cell_length_c   4.79590500
_cell_angle_alpha   90.00000000
_cell_angle_beta   90.00000000
_cell_angle_gamma   119.99999922
_symmetry_Int_Tables_number   1
_chemical_formula_structural   Ti3Nb
_chemical_formula_sum   'Ti6 Nb2'
_cell_volume   141.45763895
_cell_formula_units_Z   2
loop_
 _symmetry_equiv_pos_site_id
 _symmetry_equiv_pos_as_xyz
  1  'x, y, z'
loop_
 _atom_site_type_symbol
 _atom_site_label
 _atom_site_symmetry_multiplicity
 _atom_site_fract_x
 _atom_site_fract_y
 _atom_site_fract_z
 _atom_site_occupancy
  Ti  Ti0  1  0.16580900  0.33161800  0.25000000  1
  Ti  Ti1  1  0.66838200  0.83419100  0.25000000  1
  Ti  Ti2  1  0.16580900  0.83419100  0.25000000  1
  Ti  Ti3  1  0.83419100  0.66838200  0.75000000  1
  Ti  Ti4  1  0.33161800  0.16580900  0.75000000  1
  Ti  Ti5  1  0.83419100  0.16580900  0.75000000  1
  Nb  Nb0  1  0.33333300  0.66666700  0.75000000  1
  Nb  Nb1  1  0.66666700  0.33333300  0.25000000  1
loop_
_geom_bond_atom_site_label_1
_geom_bond_atom_site_label_2
_geom_bond_distance
_geom_bond_site_symmetry_2
Ti0 Ti2 2.902966 1_545
Ti0 Ti1 2.902966 1_445
Ti0 Ti4 2.925619 1_555
Ti0 Ti4 2.925619 1_554
Ti0 Ti5 2.925619 1_455
Ti0 Ti5 2.925619 1_454
Ti0 Ti2 2.932998 1_555
Ti0 Ti1 2.932998 1_555
Ti1 Ti2 2.902966 1_655
Ti1 Ti3 2.925619 1_555
Ti1 Ti3 2.925619 1_554
Ti1 Ti5 2.925619 1_565
Ti1 Ti5 2.925619 1_564
Ti1 Ti2 2.932998 1_555
Ti2 Ti4 2.925619 1_564
Ti2 Ti3 2.925619 1_454
Ti2 Ti3 2.925619 1_455
Ti2 Ti4 2.925619 1_565
Ti3 Ti5 2.902966 1_565
Ti3 Ti4 2.902966 1_665
Ti3 Ti5 2.932998 1_555
Ti3 Ti4 2.932998 1_555
Ti4 Ti5 2.902966 1_455
Ti4 Ti5 2.932998 1_555
Nb0 Ti4 2.917992 1_565
Nb0 Ti3 2.917992 1_455
Nb0 Ti5 2.917995 1_565
Nb0 Ti5 2.917995 1_455
Nb0 Ti3 2.917998 1_555
Nb0 Ti4 2.917998 1_555
Nb0 Ti2 2.935585 1_555
Nb0 Ti2 2.935585 1_556
Nb0 Ti1 2.935588 1_555
Nb0 Ti1 2.935588 1_556
Nb0 Ti0 2.935588 1_556
Nb0 Ti0 2.935588 1_555
Nb1 Ti1 2.917992 1_545
Nb1 Ti0 2.917992 1_655
Nb1 Ti2 2.917995 1_655
Nb1 Ti2 2.917995 1_545
Nb1 Ti0 2.917998 1_555
Nb1 Ti1 2.917998 1_555
Nb1 Ti5 2.935585 1_554
Nb1 Ti5 2.935585 1_555
Nb1 Ti3 2.935588 1_555
Nb1 Ti3 2.935588 1_554
Nb1 Ti4 2.935588 1_554
Nb1 Ti4 2.935588 1_555
