# generated using pymatgen
data_Ca2FeOsO6
_symmetry_space_group_name_H-M   'P 1'
_cell_length_a   5.58241200
_cell_length_b   5.44968900
_cell_length_c   9.48637089
_cell_angle_alpha   54.96414945
_cell_angle_beta   90.00000000
_cell_angle_gamma   90.00000000
_symmetry_Int_Tables_number   1
_chemical_formula_structural   Ca2FeOsO6
_chemical_formula_sum   'Ca4 Fe2 Os2 O12'
_cell_volume   236.30223078
_cell_formula_units_Z   2
loop_
 _symmetry_equiv_pos_site_id
 _symmetry_equiv_pos_as_xyz
  1  'x, y, z'
loop_
 _atom_site_type_symbol
 _atom_site_label
 _atom_site_symmetry_multiplicity
 _atom_site_fract_x
 _atom_site_fract_y
 _atom_site_fract_z
 _atom_site_occupancy
  Ca  Ca0  1  0.45007200  0.76203200  0.74895800  1
  Ca  Ca1  1  0.04992800  0.76203200  0.24895800  1
  Ca  Ca2  1  0.54992800  0.23796800  0.25104200  1
  Ca  Ca3  1  0.95007200  0.23796800  0.75104200  1
  Fe  Fe0  1  0.00000000  0.00000000  0.50000000  1
  Fe  Fe1  1  0.50000000  0.00000000  0.00000000  1
  Os  Os0  1  0.50000000  0.50000000  0.50000000  1
  Os  Os1  1  0.00000000  0.50000000  0.00000000  1
  O  O0  1  0.70204200  0.16111700  0.54480900  1
  O  O1  1  0.79795800  0.16111700  0.04480900  1
  O  O2  1  0.29795800  0.83888300  0.45519100  1
  O  O3  1  0.20204200  0.83888300  0.95519100  1
  O  O4  1  0.70774700  0.74545600  0.95254300  1
  O  O5  1  0.79225300  0.74545600  0.45254300  1
  O  O6  1  0.29225300  0.25454400  0.04745700  1
  O  O7  1  0.20774700  0.25454400  0.54745700  1
  O  O8  1  0.52606500  0.34052200  0.74745000  1
  O  O9  1  0.97393500  0.34052200  0.24745000  1
  O  O10  1  0.47393500  0.65947800  0.25255000  1
  O  O11  1  0.02606500  0.65947800  0.75255000  1
loop_
_geom_bond_atom_site_label_1
_geom_bond_atom_site_label_2
_geom_bond_distance
_geom_bond_site_symmetry_2
Ca0 O8 2.344048 1_555
Ca0 O4 2.367876 1_555
Ca0 O0 2.371315 1_565
Ca0 O11 2.427808 1_555
Ca0 O7 2.607122 1_565
Ca0 O3 2.619319 1_555
Ca0 O2 2.706022 1_555
Ca0 O6 2.729746 1_556
Ca1 O9 2.344048 1_455
Ca1 O5 2.367876 1_455
Ca1 O1 2.371315 1_465
Ca1 O10 2.427808 1_555
Ca1 O6 2.607122 1_565
Ca1 O2 2.619319 1_555
Ca1 O3 2.706022 1_554
Ca1 O7 2.729746 1_555
Ca2 O10 2.344048 1_555
Ca2 O6 2.367876 1_555
Ca2 O2 2.371315 1_545
Ca2 O9 2.427808 1_555
Ca2 O5 2.607122 1_545
Ca2 O1 2.619319 1_555
Ca2 O0 2.706022 1_555
Ca2 O4 2.729746 1_554
Ca3 O11 2.344048 1_655
Ca3 O7 2.367876 1_655
Ca3 O3 2.371315 1_645
Ca3 O8 2.427808 1_555
Ca3 O4 2.607122 1_545
Ca3 O0 2.619319 1_555
Ca3 O1 2.706022 1_556
Ca3 O5 2.729746 1_555
Fe0 O9 2.024840 1_455
Fe0 O11 2.024840 1_545
Fe0 O0 2.036375 1_455
Fe0 O2 2.036375 1_545
Fe0 O5 2.046698 1_445
Fe0 O7 2.046698 1_555
Fe1 O10 2.024840 1_545
Fe1 O8 2.024840 1_554
Fe1 O1 2.036375 1_555
Fe1 O3 2.036375 1_544
Fe1 O6 2.046698 1_555
Fe1 O4 2.046698 1_544
O0 Os0 1.990514 1_555
O1 Os1 1.990514 1_655
O2 Os0 1.990514 1_555
O3 Os1 1.990514 1_556
O4 Os1 1.990548 1_656
O5 Os0 1.990548 1_555
O6 Os1 1.990548 1_555
O7 Os0 1.990548 1_555
O8 Os0 1.986044 1_555
O9 Os1 1.986044 1_655
O10 Os0 1.986044 1_555
O11 Os1 1.986044 1_556
