# generated using pymatgen
data_SrNdFeRuO6
_symmetry_space_group_name_H-M   'P 1'
_cell_length_a   5.58795675
_cell_length_b   5.64612123
_cell_length_c   7.88006233
_cell_angle_alpha   90.00000000
_cell_angle_beta   90.22881345
_cell_angle_gamma   90.00000000
_symmetry_Int_Tables_number   1
_chemical_formula_structural   SrNdFeRuO6
_chemical_formula_sum   'Sr2 Nd2 Fe2 Ru2 O12'
_cell_volume   248.61620006
_cell_formula_units_Z   2
loop_
 _symmetry_equiv_pos_site_id
 _symmetry_equiv_pos_as_xyz
  1  'x, y, z'
loop_
 _atom_site_type_symbol
 _atom_site_label
 _atom_site_symmetry_multiplicity
 _atom_site_fract_x
 _atom_site_fract_y
 _atom_site_fract_z
 _atom_site_occupancy
  Sr  Sr0  1  0.49628768  0.46966809  0.24977635  1
  Sr  Sr1  1  0.99628768  0.03033191  0.74977635  1
  Nd  Nd0  1  0.01455147  0.95167183  0.25067401  1
  Nd  Nd1  1  0.51455147  0.54832817  0.75067401  1
  Fe  Fe0  1  0.50073988  0.00488404  0.00034725  1
  Fe  Fe1  1  0.00073988  0.49511596  0.50034725  1
  Ru  Ru0  1  0.49977482  0.00200769  0.49948448  1
  Ru  Ru1  1  -0.00022518  0.49799231  0.99948448  1
  O  O0  1  0.77472019  0.77588863  0.53877350  1
  O  O1  1  0.70797408  0.29265521  0.95591405  1
  O  O2  1  0.20492809  0.20960356  0.04442693  1
  O  O3  1  0.27708998  0.72531819  0.46057638  1
  O  O4  1  0.20797408  0.20734479  0.45591405  1
  O  O5  1  0.27472019  0.72411137  0.03877350  1
  O  O6  1  0.77708998  0.77468181  0.96057638  1
  O  O7  1  0.70492809  0.29039644  0.54442693  1
  O  O8  1  0.58915959  0.01201123  0.24987990  1
  O  O9  1  0.93477423  0.52352778  0.25014716  1
  O  O10  1  0.43477423  0.97647222  0.75014716  1
  O  O11  1  0.08915959  0.48798877  0.74987990  1
loop_
_geom_bond_atom_site_label_1
_geom_bond_atom_site_label_2
_geom_bond_distance
_geom_bond_site_symmetry_2
Nd0 O8 2.401344 1_465
Nd0 O4 2.419460 1_565
Nd0 O2 2.430590 1_565
Nd0 O9 2.458115 1_455
Nd0 O3 2.549914 1_555
Nd0 O5 2.563582 1_555
Nd0 O0 2.821239 1_455
Nd0 O6 2.821499 1_454
Nd1 O11 2.401344 1_555
Nd1 O1 2.419460 1_555
Nd1 O7 2.430590 1_555
Nd1 O10 2.458115 1_555
Nd1 O6 2.549914 1_555
Nd1 O0 2.563582 1_555
Nd1 O5 2.821239 1_556
Nd1 O3 2.821499 1_555
Fe0 O10 2.010716 1_544
Fe0 O8 2.025943 1_555
Fe0 O1 2.026519 1_554
Fe0 O6 2.043547 1_544
Fe0 O2 2.047836 1_555
Fe0 O5 2.050118 1_545
Fe1 O9 2.010716 1_455
Fe1 O11 2.025943 1_555
Fe1 O4 2.026519 1_555
Fe1 O3 2.043547 1_555
Fe1 O7 2.047836 1_455
Fe1 O0 2.050118 1_455
O0 Ru0 2.020514 1_565
O0 Sr1 2.518922 1_565
O1 Ru1 2.028861 1_655
O1 Sr1 2.729246 1_555
O1 Sr0 2.789667 1_556
O2 Ru1 2.021799 1_554
O2 Sr0 2.721069 1_555
O2 Sr1 2.784461 1_454
O3 Ru0 2.019879 1_565
O3 Sr0 2.521776 1_555
O4 Ru0 2.028861 1_555
O4 Sr0 2.729246 1_555
O4 Sr1 2.789667 1_455
O5 Ru1 2.020514 1_554
O5 Sr0 2.518922 1_555
O6 Ru1 2.019879 1_655
O6 Sr1 2.521776 1_565
O7 Ru0 2.021799 1_555
O7 Sr1 2.721069 1_555
O7 Sr0 2.784461 1_555
O8 Ru0 2.032046 1_555
O8 Sr0 2.635584 1_555
O9 Ru1 2.014947 1_654
O9 Sr0 2.469033 1_555
O10 Ru0 2.014947 1_565
O10 Sr1 2.469033 1_465
O11 Ru1 2.032046 1_555
O11 Sr1 2.635584 1_455
