# generated using pymatgen
data_KTl2
_symmetry_space_group_name_H-M   'P 1'
_cell_length_a   8.81422038
_cell_length_b   8.81422038
_cell_length_c   8.81422038
_cell_angle_alpha   60.00000000
_cell_angle_beta   60.00000000
_cell_angle_gamma   60.00000000
_symmetry_Int_Tables_number   1
_chemical_formula_structural   KTl2
_chemical_formula_sum   'K4 Tl8'
_cell_volume   484.21330261
_cell_formula_units_Z   4
loop_
 _symmetry_equiv_pos_site_id
 _symmetry_equiv_pos_as_xyz
  1  'x, y, z'
loop_
 _atom_site_type_symbol
 _atom_site_label
 _atom_site_symmetry_multiplicity
 _atom_site_fract_x
 _atom_site_fract_y
 _atom_site_fract_z
 _atom_site_occupancy
  K  K0  1  0.62500000  0.62500000  0.62500000  1
  K  K1  1  0.62500000  0.62500000  0.12500000  1
  K  K2  1  0.62500000  0.12500000  0.62500000  1
  K  K3  1  0.12500000  0.62500000  0.62500000  1
  Tl  Tl0  1  0.90665000  0.90665000  0.90665000  1
  Tl  Tl1  1  0.90665000  0.90665000  0.28005100  1
  Tl  Tl2  1  0.90665000  0.28005100  0.90665000  1
  Tl  Tl3  1  0.34335000  0.34335000  0.96994900  1
  Tl  Tl4  1  0.34335000  0.34335000  0.34335000  1
  Tl  Tl5  1  0.28005100  0.90665000  0.90665000  1
  Tl  Tl6  1  0.34335000  0.96994900  0.34335000  1
  Tl  Tl7  1  0.96994900  0.34335000  0.34335000  1
loop_
_geom_bond_atom_site_label_1
_geom_bond_atom_site_label_2
_geom_bond_distance
_geom_bond_site_symmetry_2
K0 Tl3 3.554877 1_555
K0 Tl6 3.554877 1_555
K0 Tl7 3.554877 1_555
K0 Tl1 3.554877 1_555
K0 Tl2 3.554877 1_555
K0 Tl5 3.554877 1_555
K1 Tl2 3.554871 1_554
K1 Tl5 3.554871 1_554
K1 Tl7 3.554871 1_555
K1 Tl6 3.554871 1_555
K1 Tl4 3.554878 1_555
K1 Tl0 3.554878 1_554
K2 Tl5 3.554871 1_545
K2 Tl1 3.554871 1_545
K2 Tl3 3.554871 1_555
K2 Tl7 3.554871 1_555
K2 Tl4 3.554878 1_555
K2 Tl0 3.554878 1_545
K3 Tl1 3.554871 1_455
K3 Tl2 3.554871 1_455
K3 Tl3 3.554871 1_555
K3 Tl6 3.554871 1_555
K3 Tl4 3.554878 1_555
K3 Tl0 3.554878 1_455
Tl0 Tl2 3.291239 1_565
Tl0 Tl5 3.291239 1_655
Tl0 Tl1 3.291239 1_556
Tl1 Tl2 3.291239 1_564
Tl1 Tl5 3.291239 1_654
Tl2 Tl5 3.291239 1_645
Tl3 Tl7 3.291239 1_456
Tl3 Tl6 3.291239 1_546
Tl3 Tl4 3.291239 1_556
Tl4 Tl6 3.291239 1_545
Tl4 Tl7 3.291239 1_455
Tl6 Tl7 3.291239 1_465
