# generated using pymatgen
data_ZrAlNi
_symmetry_space_group_name_H-M   'P 1'
_cell_length_a   5.33251426
_cell_length_b   5.33251426
_cell_length_c   5.33251426
_cell_angle_alpha   69.64948809
_cell_angle_beta   88.06751209
_cell_angle_gamma   128.20782815
_symmetry_Int_Tables_number   1
_chemical_formula_structural   ZrAlNi
_chemical_formula_sum   'Zr2 Al2 Ni2'
_cell_volume   105.14857150
_cell_formula_units_Z   2
loop_
 _symmetry_equiv_pos_site_id
 _symmetry_equiv_pos_as_xyz
  1  'x, y, z'
loop_
 _atom_site_type_symbol
 _atom_site_label
 _atom_site_symmetry_multiplicity
 _atom_site_fract_x
 _atom_site_fract_y
 _atom_site_fract_z
 _atom_site_occupancy
  Zr  Zr0  1  0.75000000  0.37500000  0.87500000  1
  Zr  Zr1  1  0.25000000  0.37500000  0.37500000  1
  Al  Al0  1  0.50000000  0.76734700  0.73265300  1
  Al  Al1  1  0.00000000  0.98265300  0.01734700  1
  Ni  Ni0  1  0.25000000  0.87500000  0.37500000  1
  Ni  Ni1  1  0.75000000  0.37500000  0.37500000  1
loop_
_geom_bond_atom_site_label_1
_geom_bond_atom_site_label_2
_geom_bond_distance
_geom_bond_site_symmetry_2
Al0 Ni1 2.469987 1_565
Al0 Ni0 2.469987 1_555
Al0 Al1 2.903507 1_656
Al0 Al1 2.903507 1_546
Al0 Zr0 3.024014 1_555
Al0 Zr1 3.024014 1_556
Al0 Zr0 3.047683 1_455
Al0 Zr1 3.047683 1_665
Al0 Zr1 3.047683 1_555
Al0 Zr0 3.047683 1_565
Al1 Ni1 2.469987 1_455
Al1 Ni0 2.469987 1_555
Al1 Zr1 3.024014 1_564
Al1 Zr0 3.024014 1_464
Al1 Zr0 3.047683 1_454
Al1 Zr0 3.047683 1_564
Al1 Zr1 3.047683 1_455
Al1 Zr1 3.047683 1_565
Ni0 Ni1 2.328924 1_455
Ni0 Ni1 2.328924 1_565
Ni0 Zr1 2.666257 1_565
Ni0 Zr1 2.666257 1_555
Ni0 Zr0 2.666257 1_564
Ni0 Zr0 2.666257 1_455
Ni1 Zr0 2.666257 1_555
Ni1 Zr0 2.666257 1_554
Ni1 Zr1 2.666257 1_555
Ni1 Zr1 2.666257 1_655
