# generated using pymatgen
data_Mg16Al12Cr
_symmetry_space_group_name_H-M   'P 1'
_cell_length_a   9.09226388
_cell_length_b   9.09226388
_cell_length_c   9.09226388
_cell_angle_alpha   109.47122063
_cell_angle_beta   109.47122063
_cell_angle_gamma   109.47122063
_symmetry_Int_Tables_number   1
_chemical_formula_structural   Mg16Al12Cr
_chemical_formula_sum   'Mg16 Al12 Cr1'
_cell_volume   578.62101687
_cell_formula_units_Z   1
loop_
 _symmetry_equiv_pos_site_id
 _symmetry_equiv_pos_as_xyz
  1  'x, y, z'
loop_
 _atom_site_type_symbol
 _atom_site_label
 _atom_site_symmetry_multiplicity
 _atom_site_fract_x
 _atom_site_fract_y
 _atom_site_fract_z
 _atom_site_occupancy
  Mg  Mg0  1  0.28631100  0.60105800  0.60105800  1
  Mg  Mg1  1  0.71368900  0.31474800  0.31474800  1
  Mg  Mg2  1  0.33764300  0.33764300  0.33764300  1
  Mg  Mg3  1  0.66235700  0.00000000  0.00000000  1
  Mg  Mg4  1  0.00000000  0.68525200  0.39894200  1
  Mg  Mg5  1  0.60105800  0.60105800  0.28631100  1
  Mg  Mg6  1  0.39894200  0.00000000  0.68525200  1
  Mg  Mg7  1  0.00000000  0.00000000  0.66235700  1
  Mg  Mg8  1  0.68525200  0.39894200  0.00000000  1
  Mg  Mg9  1  0.31474800  0.71368900  0.31474800  1
  Mg  Mg10  1  0.31474800  0.31474800  0.71368900  1
  Mg  Mg11  1  0.68525200  0.00000000  0.39894200  1
  Mg  Mg12  1  0.00000000  0.66235700  0.00000000  1
  Mg  Mg13  1  0.39894200  0.68525200  0.00000000  1
  Mg  Mg14  1  0.60105800  0.28631100  0.60105800  1
  Mg  Mg15  1  0.00000000  0.39894200  0.68525200  1
  Al  Al0  1  0.18007500  0.81505700  0.81505700  1
  Al  Al1  1  0.81992500  0.63498100  0.63498100  1
  Al  Al2  1  0.00000000  0.36501900  0.18494300  1
  Al  Al3  1  0.36501900  0.18494300  0.00000000  1
  Al  Al4  1  0.63498100  0.81992500  0.63498100  1
  Al  Al5  1  0.18494300  0.36501900  0.00000000  1
  Al  Al6  1  0.81505700  0.18007500  0.81505700  1
  Al  Al7  1  0.18494300  0.00000000  0.36501900  1
  Al  Al8  1  0.81505700  0.81505700  0.18007500  1
  Al  Al9  1  0.63498100  0.63498100  0.81992500  1
  Al  Al10  1  0.36501900  0.00000000  0.18494300  1
  Al  Al11  1  0.00000000  0.18494300  0.36501900  1
  Cr  Cr0  1  0.00000000  0.00000000  0.00000000  1
loop_
_geom_bond_atom_site_label_1
_geom_bond_atom_site_label_2
_geom_bond_distance
_geom_bond_site_symmetry_2
Mg0 Mg2 3.058846 1_555
Mg0 Mg15 3.133204 1_555
Mg0 Mg4 3.133204 1_555
Mg0 Mg9 3.153046 1_555
Mg0 Mg10 3.153046 1_555
Mg0 Mg13 3.153054 1_556
Mg0 Mg6 3.153054 1_565
Mg1 Mg3 3.058857 1_555
Mg1 Mg4 3.133201 1_655
Mg1 Mg15 3.133201 1_655
Mg1 Mg14 3.153046 1_555
Mg1 Mg5 3.153046 1_555
Mg1 Mg8 3.153054 1_555
Mg1 Mg11 3.153054 1_555
Mg2 Mg5 3.058846 1_555
Mg3 Mg6 3.058853 1_554
Mg4 Mg7 3.058853 1_565
Mg4 Mg8 3.153053 1_455
Mg4 Mg6 3.153053 1_565
Mg4 Mg9 3.153054 1_555
Mg4 Mg5 3.153054 1_455
Mg5 Mg8 3.133204 1_555
Mg5 Mg9 3.153046 1_555
Mg6 Mg9 3.133201 1_545
Mg6 Mg8 3.153053 1_556
Mg10 Mg7 3.058857 1_555
Mg10 Mg8 3.133201 1_556
Mg10 Mg13 3.133201 1_556
Mg10 Mg14 3.153046 1_555
Mg10 Mg6 3.153054 1_555
Mg10 Mg15 3.153054 1_555
Mg11 Mg7 3.058853 1_655
Mg11 Mg9 3.133201 1_545
Mg11 Mg14 3.133204 1_555
Mg11 Mg15 3.153053 1_655
Mg11 Mg13 3.153053 1_545
Mg11 Mg5 3.153054 1_545
Mg12 Mg15 3.058853 1_554
Mg12 Mg8 3.058853 1_455
Mg12 Mg9 3.058857 1_555
Mg13 Mg3 3.058853 1_565
Mg13 Mg5 3.133204 1_555
Mg13 Mg15 3.153053 1_554
Mg13 Mg9 3.153054 1_555
Mg14 Mg2 3.058846 1_555
Mg14 Mg6 3.133204 1_555
Mg14 Mg8 3.153054 1_556
Mg14 Mg15 3.153054 1_655
Al0 Al1 2.673682 1_455
Al0 Al3 2.745961 1_566
Al0 Al10 2.745961 1_566
Al0 Mg0 2.913207 1_555
Al0 Mg13 2.972977 1_556
Al0 Mg6 2.972977 1_565
Al0 Mg7 3.051619 1_565
Al0 Mg12 3.051619 1_556
Al0 Mg15 3.161195 1_555
Al0 Mg4 3.161195 1_555
Al0 Cr0 3.181474 1_566
Al1 Al4 2.745975 1_555
Al1 Al9 2.745975 1_555
Al1 Mg1 2.913187 1_555
Al1 Mg14 2.972967 1_555
Al1 Mg5 2.972967 1_555
Al1 Mg7 3.051623 1_665
Al1 Mg12 3.051623 1_656
Al1 Mg4 3.161189 1_655
Al1 Mg15 3.161189 1_655
Al1 Cr0 3.181484 1_666
Al2 Al5 2.745961 1_555
Al2 Al6 2.745961 1_454
Al2 Mg4 2.913193 1_555
Al2 Mg9 2.972966 1_555
Al2 Mg8 2.972972 1_455
Al2 Mg2 3.051624 1_555
Al2 Mg3 3.051624 1_455
Al2 Mg0 3.161197 1_555
Al2 Mg1 3.161203 1_455
Al2 Cr0 3.181482 1_555
Al3 Al5 2.673697 1_555
Al3 Mg8 2.913193 1_555
Al3 Mg1 2.972966 1_555
Al3 Mg6 2.972972 1_554
Al3 Mg2 3.051624 1_555
Al3 Mg7 3.051624 1_554
Al3 Mg5 3.161197 1_555
Al3 Mg10 3.161203 1_554
Al3 Cr0 3.181482 1_555
Al4 Al6 2.673682 1_565
Al4 Al9 2.745975 1_555
Al4 Mg9 2.913187 1_555
Al4 Mg0 2.972967 1_555
Al4 Mg5 2.972967 1_555
Al4 Mg7 3.051623 1_665
Al4 Mg3 3.051623 1_566
Al4 Mg11 3.161189 1_565
Al4 Mg6 3.161189 1_565
Al4 Cr0 3.181484 1_666
Al5 Al6 2.745961 1_454
Al5 Mg13 2.913193 1_555
Al5 Mg9 2.972966 1_555
Al5 Mg15 2.972972 1_554
Al5 Mg2 3.051624 1_555
Al5 Mg7 3.051624 1_554
Al5 Mg5 3.161197 1_555
Al5 Mg10 3.161203 1_554
Al5 Cr0 3.181482 1_555
Al6 Mg14 2.913207 1_555
Al6 Mg15 2.972977 1_655
Al6 Mg8 2.972977 1_556
Al6 Mg7 3.051619 1_655
Al6 Mg3 3.051619 1_556
Al6 Mg6 3.161195 1_555
Al6 Mg11 3.161195 1_555
Al6 Cr0 3.181474 1_656
Al7 Al8 2.745961 1_445
Al7 Mg6 2.913193 1_555
Al7 Mg10 2.972966 1_555
Al7 Mg4 2.972972 1_545
Al7 Mg2 3.051624 1_555
Al7 Mg12 3.051624 1_545
Al7 Mg14 3.161197 1_555
Al7 Mg9 3.161203 1_545
Al7 Cr0 3.181482 1_555
Al8 Al9 2.673682 1_554
Al8 Mg5 2.913207 1_555
Al8 Mg11 2.972977 1_565
Al8 Mg4 2.972977 1_655
Al8 Mg12 3.051619 1_655
Al8 Mg3 3.051619 1_565
Al8 Mg13 3.161195 1_555
Al8 Mg8 3.161195 1_555
Al8 Cr0 3.181474 1_665
Al9 Mg10 2.913187 1_555
Al9 Mg14 2.972967 1_555
Al9 Mg0 2.972967 1_555
Al9 Mg3 3.051623 1_566
Al9 Mg12 3.051623 1_656
Al9 Mg13 3.161189 1_556
Al9 Mg8 3.161189 1_556
Al9 Cr0 3.181484 1_666
Al10 Al7 2.673697 1_555
Al10 Al3 2.745961 1_555
Al10 Mg11 2.913193 1_555
Al10 Mg1 2.972966 1_555
Al10 Mg13 2.972972 1_545
Al10 Mg2 3.051624 1_555
Al10 Mg12 3.051624 1_545
Al10 Mg14 3.161197 1_555
Al10 Mg9 3.161203 1_545
Al10 Cr0 3.181482 1_555
Al11 Al2 2.673697 1_555
Al11 Al7 2.745961 1_555
Al11 Al8 2.745961 1_445
Al11 Mg15 2.913193 1_555
Al11 Mg10 2.972966 1_555
Al11 Mg11 2.972972 1_455
Al11 Mg2 3.051624 1_555
Al11 Mg3 3.051624 1_455
Al11 Mg0 3.161197 1_555
Al11 Mg1 3.161203 1_455
Al11 Cr0 3.181482 1_555
Cr0 Mg2 3.069939 1_555
Cr0 Mg12 3.069939 1_545
Cr0 Mg3 3.069939 1_455
Cr0 Mg7 3.069939 1_554
