# generated using pymatgen
data_Li5Mn4(P2O7)4
_symmetry_space_group_name_H-M   'P 1'
_cell_length_a   9.76407300
_cell_length_b   9.87425154
_cell_length_c   11.16133660
_cell_angle_alpha   79.60876252
_cell_angle_beta   89.81237846
_cell_angle_gamma   89.76290737
_symmetry_Int_Tables_number   1
_chemical_formula_structural   Li5Mn4(P2O7)4
_chemical_formula_sum   'Li10 Mn8 P16 O56'
_cell_volume   1058.43542005
_cell_formula_units_Z   2
loop_
 _symmetry_equiv_pos_site_id
 _symmetry_equiv_pos_as_xyz
  1  'x, y, z'
loop_
 _atom_site_type_symbol
 _atom_site_label
 _atom_site_symmetry_multiplicity
 _atom_site_fract_x
 _atom_site_fract_y
 _atom_site_fract_z
 _atom_site_occupancy
  Li  Li0  1  0.71291800  0.11757900  0.55074100  1
  Li  Li1  1  0.10484900  0.08978800  0.97945500  1
  Li  Li2  1  0.60020500  0.42352800  0.02099800  1
  Li  Li3  1  0.20476500  0.39176600  0.45537100  1
  Li  Li4  1  0.79836400  0.60286000  0.54271700  1
  Li  Li5  1  0.59389400  0.85159900  0.04727800  1
  Li  Li6  1  0.09559400  0.64506500  0.95003300  1
  Li  Li7  1  0.89200500  0.90939000  0.02494300  1
  Li  Li8  1  0.57486600  0.83168400  0.54379700  1
  Li  Li9  1  0.28286000  0.88618800  0.45061200  1
  Mn  Mn0  1  0.92527300  0.19784400  0.33336200  1
  Mn  Mn1  1  0.22621400  0.28545900  0.16058100  1
  Mn  Mn2  1  0.70923700  0.23881000  0.82783100  1
  Mn  Mn3  1  0.42359500  0.30306800  0.66582300  1
  Mn  Mn4  1  0.58026600  0.69978600  0.32680200  1
  Mn  Mn5  1  0.28928900  0.76676500  0.16710100  1
  Mn  Mn6  1  0.77789200  0.72324800  0.83202400  1
  Mn  Mn7  1  0.07136800  0.79948300  0.67093200  1
  P  P0  1  0.43999300  0.02883100  0.24362700  1
  P  P1  1  0.70797700  0.12315900  0.11822900  1
  P  P2  1  0.93107300  0.05726100  0.75867500  1
  P  P3  1  0.14663400  0.12922800  0.56666700  1
  P  P4  1  0.64704500  0.37226400  0.42938800  1
  P  P5  1  0.42497100  0.43814600  0.24189700  1
  P  P6  1  0.06162700  0.53788200  0.23820700  1
  P  P7  1  0.21051600  0.37865400  0.88067100  1
  P  P8  1  0.79859400  0.61640500  0.11213100  1
  P  P9  1  0.94468600  0.46159400  0.75535600  1
  P  P10  1  0.57168600  0.56242600  0.75097600  1
  P  P11  1  0.34309200  0.62708000  0.58130700  1
  P  P12  1  0.85644700  0.87386300  0.43744700  1
  P  P13  1  0.06765700  0.94262000  0.24391500  1
  P  P14  1  0.28950500  0.88408800  0.88243300  1
  P  P15  1  0.55745500  0.97390300  0.76619300  1
  O  O0  1  0.42180900  0.00939500  0.37859600  1
  O  O1  1  0.84564700  0.02309100  0.45396900  1
  O  O2  1  0.07571100  0.09013100  0.27423300  1
  O  O3  1  0.33500700  0.11602000  0.16125000  1
  O  O4  1  0.58537700  0.10413300  0.21706100  1
  O  O5  1  0.82488200  0.18276200  0.18494600  1
  O  O6  1  0.65840400  0.22908500  0.00597200  1
  O  O7  1  0.25217500  0.02181300  0.90813600  1
  O  O8  1  0.06557800  0.12580400  0.69369400  1
  O  O9  1  0.93996000  0.06033900  0.89252000  1
  O  O10  1  0.54635600  0.12638400  0.78971500  1
  O  O11  1  0.27992600  0.20436600  0.58339400  1
  O  O12  1  0.80865100  0.14743200  0.70315300  1
  O  O13  1  0.06407500  0.22118700  0.46452000  1
  O  O14  1  0.56537600  0.28211700  0.53365100  1
  O  O15  1  0.30730000  0.34414100  0.30572500  1
  O  O16  1  0.78013500  0.29466300  0.41270300  1
  O  O17  1  0.06039400  0.39261600  0.19780700  1
  O  O18  1  0.56457100  0.37537400  0.30382800  1
  O  O19  1  0.42574600  0.41565700  0.11147500  1
  O  O20  1  0.76497200  0.47867100  0.08408800  1
  O  O21  1  0.16567100  0.27084400  0.99594400  1
  O  O22  1  0.32959700  0.31564800  0.81701500  1
  O  O23  1  0.08852300  0.38124700  0.78305000  1
  O  O24  1  0.57789100  0.40860400  0.73170000  1
  O  O25  1  0.84147300  0.37701000  0.84690900  1
  O  O26  1  0.10331600  0.53852200  0.36609600  1
  O  O27  1  0.33411900  0.48034900  0.55719000  1
  O  O28  1  0.66557900  0.52139900  0.44227600  1
  O  O29  1  0.91288300  0.46300100  0.62463600  1
  O  O30  1  0.14760200  0.63675600  0.13875800  1
  O  O31  1  0.41244700  0.58833700  0.26169300  1
  O  O32  1  0.90769700  0.59432700  0.22493900  1
  O  O33  1  0.67908000  0.69477000  0.15939700  1
  O  O34  1  0.87265000  0.71507900  0.00586800  1
  O  O35  1  0.22927400  0.51658400  0.91378200  1
  O  O36  1  0.59464100  0.57573300  0.88195400  1
  O  O37  1  0.42000800  0.61649200  0.71125600  1
  O  O38  1  0.96053700  0.60665400  0.79168900  1
  O  O39  1  0.20335600  0.69132400  0.59911900  1
  O  O40  1  0.67236700  0.65772800  0.66958700  1
  O  O41  1  0.42641200  0.72542700  0.48626200  1
  O  O42  1  0.93732700  0.77811000  0.53740700  1
  O  O43  1  0.19090400  0.85153100  0.29770900  1
  O  O44  1  0.71722000  0.80835000  0.42311100  1
  O  O45  1  0.45250200  0.88326900  0.19782800  1
  O  O46  1  0.05677700  0.93879400  0.11026200  1
  O  O47  1  0.93211200  0.87255300  0.30876500  1
  O  O48  1  0.73352400  0.98367800  0.08586100  1
  O  O49  1  0.35131400  0.78546600  0.99508800  1
  O  O50  1  0.17409200  0.80606400  0.82561800  1
  O  O51  1  0.40687400  0.90579100  0.77786200  1
  O  O52  1  0.64611800  0.88836600  0.86522000  1
  O  O53  1  0.92201600  0.90764600  0.73055000  1
  O  O54  1  0.16241500  0.97873100  0.55393700  1
  O  O55  1  0.59844100  0.96976800  0.63640700  1
loop_
_geom_bond_atom_site_label_1
_geom_bond_atom_site_label_2
_geom_bond_distance
_geom_bond_site_symmetry_2
Li0 O55 1.948564 1_545
Li0 O12 2.011974 1_555
Li0 O1 2.015197 1_555
Li0 O14 2.149883 1_555
Li0 O16 2.212017 1_555
Li1 O7 1.825017 1_555
Li1 O21 1.926382 1_555
Li1 O9 1.932359 1_455
Li1 O46 1.947014 1_546
Li2 O20 1.879771 1_555
Li2 O36 1.956689 1_554
Li2 O19 1.972059 1_555
Li2 O6 2.035649 1_555
Li3 O26 1.883529 1_555
Li3 O27 2.007218 1_555
Li3 O15 2.069225 1_555
Li3 O13 2.165799 1_555
Li3 O11 2.246389 1_555
Li4 O29 1.879331 1_555
Li4 O28 1.981964 1_555
Li4 O40 2.017924 1_555
Li4 O42 2.195666 1_555
Li4 O44 2.354449 1_555
Li5 O33 1.988211 1_555
Li5 O48 1.991543 1_555
Li5 O52 2.061434 1_554
Li5 O45 2.235637 1_555
Li5 O49 2.556349 1_554
Li6 O35 1.909163 1_555
Li6 O50 2.061509 1_555
Li6 O30 2.155444 1_556
Li6 O38 2.295105 1_455
Li6 O34 2.395628 1_456
Li7 O48 1.886404 1_555
Li7 O46 1.921756 1_655
Li7 O9 1.957533 1_564
Li7 O34 1.978126 1_555
Li8 O55 1.868971 1_555
Li8 O41 1.968768 1_555
Li8 O44 1.973971 1_555
Li8 O40 2.225578 1_555
Li9 O0 1.902778 1_565
Li9 O54 1.977480 1_555
Li9 O43 2.014700 1_555
Li9 O41 2.097657 1_555
Li9 O39 2.430179 1_555
Mn0 O5 1.956506 1_555
Mn0 O2 1.989553 1_655
Mn0 O16 1.998103 1_555
Mn0 O13 2.042104 1_655
Mn0 O1 2.135510 1_555
Mn0 O17 2.585882 1_655
Mn1 O21 1.962249 1_554
Mn1 O3 1.976993 1_555
Mn1 O15 1.984392 1_555
Mn1 O17 2.013361 1_555
Mn1 O19 2.346998 1_555
Mn1 O2 2.572398 1_555
Mn2 O25 1.922456 1_555
Mn2 O12 2.032161 1_555
Mn2 O10 2.032753 1_555
Mn2 O6 2.033207 1_556
Mn2 O24 2.224678 1_555
Mn3 O22 1.941648 1_555
Mn3 O11 2.026660 1_555
Mn3 O24 2.047669 1_555
Mn3 O14 2.056662 1_555
Mn3 O27 2.127517 1_555
Mn3 O10 2.348591 1_555
Mn4 O33 2.108479 1_555
Mn4 O44 2.128331 1_555
Mn4 O28 2.152582 1_555
Mn4 O31 2.176087 1_555
Mn4 O41 2.372840 1_555
Mn4 O45 2.441960 1_555
Mn5 O30 1.956027 1_555
Mn5 O49 1.988036 1_554
Mn5 O45 2.035123 1_555
Mn5 O43 2.042740 1_555
Mn5 O31 2.232618 1_555
Mn6 O34 2.140587 1_556
Mn6 O52 2.156025 1_555
Mn6 O38 2.207534 1_555
Mn6 O40 2.282123 1_555
Mn6 O36 2.314298 1_555
Mn6 O53 2.417686 1_555
Mn7 O39 1.932497 1_555
Mn7 O53 1.986751 1_455
Mn7 O50 2.010822 1_555
Mn7 O42 2.026580 1_455
Mn7 O54 2.190852 1_555
Mn7 O38 2.386375 1_455
O0 P0 1.493967 1_555
O1 P12 1.520849 1_545
O2 P13 1.556016 1_545
O3 P0 1.533196 1_555
O4 P0 1.606962 1_555
O4 P1 1.613556 1_555
O5 P1 1.540471 1_555
O6 P1 1.557296 1_555
O7 P14 1.483414 1_545
O8 P2 1.591521 1_455
O8 P3 1.616548 1_555
O9 P2 1.502467 1_555
O10 P15 1.577551 1_545
O11 P3 1.529281 1_555
O12 P2 1.550039 1_555
O13 P3 1.549407 1_555
O14 P4 1.551958 1_555
O15 P5 1.566567 1_555
O16 P4 1.533680 1_555
O17 P6 1.579385 1_555
O18 P5 1.601423 1_555
O18 P4 1.614018 1_555
O19 P5 1.511591 1_555
O20 P8 1.487724 1_555
O21 P7 1.576836 1_555
O22 P7 1.546547 1_555
O23 P9 1.613248 1_455
O23 P7 1.613958 1_555
O24 P10 1.572889 1_555
O25 P9 1.565157 1_555
O26 P6 1.486714 1_555
O27 P11 1.523554 1_555
O28 P4 1.516830 1_555
O29 P9 1.490285 1_555
O30 P6 1.581043 1_555
O31 P5 1.542614 1_555
O32 P6 1.598838 1_655
O32 P8 1.635700 1_555
O33 P8 1.540968 1_555
O34 P8 1.569143 1_555
O35 P7 1.486312 1_555
O36 P10 1.508743 1_555
O37 P10 1.608500 1_555
O37 P11 1.621853 1_555
O38 P9 1.565835 1_555
O39 P11 1.529725 1_555
O40 P10 1.539672 1_555
O41 P11 1.536071 1_555
O42 P12 1.543186 1_555
O43 P13 1.555184 1_555
O44 P12 1.529099 1_555
O45 P0 1.614087 1_565
O46 P13 1.503137 1_555
O47 P13 1.604620 1_655
O47 P12 1.615090 1_555
O48 P1 1.505214 1_565
O49 P14 1.565869 1_555
O50 P14 1.566427 1_555
O51 P15 1.614422 1_555
O51 P14 1.620040 1_555
O52 P15 1.532291 1_555
O53 P2 1.567622 1_565
O54 P3 1.525251 1_565
O55 P15 1.509179 1_555
