# generated using pymatgen
data_Sr2CoGe2O7
_symmetry_space_group_name_H-M   'P 1'
_cell_length_a   5.39526700
_cell_length_b   8.26178500
_cell_length_c   8.26193500
_cell_angle_alpha   89.99713585
_cell_angle_beta   89.99806965
_cell_angle_gamma   89.99902602
_symmetry_Int_Tables_number   1
_chemical_formula_structural   Sr2CoGe2O7
_chemical_formula_sum   'Sr4 Co2 Ge4 O14'
_cell_volume   368.27191849
_cell_formula_units_Z   2
loop_
 _symmetry_equiv_pos_site_id
 _symmetry_equiv_pos_as_xyz
  1  'x, y, z'
loop_
 _atom_site_type_symbol
 _atom_site_label
 _atom_site_symmetry_multiplicity
 _atom_site_fract_x
 _atom_site_fract_y
 _atom_site_fract_z
 _atom_site_occupancy
  Sr  Sr0  1  0.50708400  0.83428700  0.33426100  1
  Sr  Sr1  1  0.49290600  0.66574100  0.83428200  1
  Sr  Sr2  1  0.50708800  0.16571300  0.66573800  1
  Sr  Sr3  1  0.49290500  0.33425500  0.16571800  1
  Co  Co0  1  0.99996100  0.99999600  0.99999400  1
  Co  Co1  1  0.00000400  0.50000000  0.49999800  1
  Ge  Ge0  1  0.95141800  0.35723900  0.85712200  1
  Ge  Ge1  1  0.04858600  0.14288000  0.35723100  1
  Ge  Ge2  1  0.95141800  0.64276100  0.14287600  1
  Ge  Ge3  1  0.04859100  0.85712000  0.64277200  1
  O  O0  1  0.18435100  0.00000100  0.50000100  1
  O  O1  1  0.81565300  0.50000100  0.99999800  1
  O  O2  1  0.27409300  0.36150800  0.86139100  1
  O  O3  1  0.72591000  0.13860600  0.36150900  1
  O  O4  1  0.27409300  0.63849000  0.13860700  1
  O  O5  1  0.72590700  0.86139400  0.63849500  1
  O  O6  1  0.20828500  0.32113900  0.41811800  1
  O  O7  1  0.79140900  0.17902300  0.91800900  1
  O  O8  1  0.20830000  0.67886200  0.58188000  1
  O  O9  1  0.79141500  0.82098200  0.08199800  1
  O  O10  1  0.79170500  0.58188500  0.32114100  1
  O  O11  1  0.20859600  0.91800100  0.82097400  1
  O  O12  1  0.79170800  0.41811800  0.67886600  1
  O  O13  1  0.20861200  0.08199800  0.17902100  1
loop_
_geom_bond_atom_site_label_1
_geom_bond_atom_site_label_2
_geom_bond_distance
_geom_bond_site_symmetry_2
Co0 O9 1.977949 1_556
Co0 O7 1.977991 1_565
Co0 O11 1.978264 1_655
Co0 O13 1.978446 1_666
Co1 O6 1.975862 1_555
Co1 O10 1.975921 1_455
Co1 O12 1.975928 1_455
Co1 O8 1.975974 1_555
Ge0 O2 1.741634 1_655
Ge0 O12 1.778883 1_555
Ge0 O7 1.779375 1_555
Ge0 O1 1.822404 1_555
Ge1 O3 1.741639 1_455
Ge1 O6 1.778916 1_555
Ge1 O13 1.779396 1_555
Ge1 O0 1.822419 1_555
Ge2 O4 1.741631 1_655
Ge2 O10 1.778906 1_555
Ge2 O9 1.779365 1_555
Ge2 O1 1.822453 1_554
Ge3 O5 1.741683 1_455
Ge3 O8 1.778906 1_555
Ge3 O11 1.779340 1_555
Ge3 O0 1.822408 1_565
O0 Sr0 2.604097 1_545
O0 Sr2 2.604182 1_555
O1 Sr1 2.604146 1_555
O1 Sr3 2.604162 1_556
O2 Sr2 2.609587 1_555
O2 Sr1 2.785968 1_555
O2 Sr3 2.786823 1_556
O3 Sr3 2.609525 1_555
O3 Sr2 2.785967 1_555
O3 Sr0 2.786758 1_545
O4 Sr0 2.609671 1_555
O4 Sr3 2.785953 1_555
O4 Sr1 2.786740 1_554
O5 Sr1 2.609488 1_555
O5 Sr0 2.786081 1_555
O5 Sr2 2.786696 1_565
O6 Sr3 2.591931 1_555
O6 Sr2 2.903982 1_555
O7 Sr2 2.590278 1_555
O7 Sr3 2.902910 1_556
O8 Sr1 2.591983 1_555
O8 Sr0 2.903863 1_555
O9 Sr0 2.590169 1_555
O9 Sr1 2.903100 1_554
O10 Sr0 2.591945 1_555
O10 Sr3 2.904112 1_555
O11 Sr1 2.590068 1_555
O11 Sr2 2.902846 1_565
O12 Sr2 2.592011 1_555
O12 Sr1 2.903965 1_555
O13 Sr3 2.590030 1_555
O13 Sr0 2.902804 1_545
