# generated using pymatgen
data_Li6VCr3(PO4)6
_symmetry_space_group_name_H-M   'P 1'
_cell_length_a   8.59949000
_cell_length_b   8.61234957
_cell_length_c   8.62106286
_cell_angle_alpha   61.30510685
_cell_angle_beta   61.09031901
_cell_angle_gamma   61.27077750
_symmetry_Int_Tables_number   1
_chemical_formula_structural   Li6VCr3(PO4)6
_chemical_formula_sum   'Li6 V1 Cr3 P6 O24'
_cell_volume   463.88717549
_cell_formula_units_Z   1
loop_
 _symmetry_equiv_pos_site_id
 _symmetry_equiv_pos_as_xyz
  1  'x, y, z'
loop_
 _atom_site_type_symbol
 _atom_site_label
 _atom_site_symmetry_multiplicity
 _atom_site_fract_x
 _atom_site_fract_y
 _atom_site_fract_z
 _atom_site_occupancy
  Li  Li0  1  0.02990200  0.00561900  0.99740700  1
  Li  Li1  1  0.74929400  0.14801000  0.35279900  1
  Li  Li2  1  0.47019600  0.50165200  0.49569300  1
  Li  Li3  1  0.25577500  0.84545400  0.65400400  1
  Li  Li4  1  0.65054100  0.25987600  0.84215600  1
  Li  Li5  1  0.84705800  0.65485700  0.25398800  1
  V  V0  1  0.85474300  0.85316600  0.85440200  1
  Cr  Cr0  1  0.14263600  0.14546900  0.13859300  1
  Cr  Cr1  1  0.35742100  0.36134600  0.35490200  1
  Cr  Cr2  1  0.64515400  0.64680600  0.64587400  1
  P  P0  1  0.04857100  0.75182200  0.44868000  1
  P  P1  1  0.44930000  0.05036000  0.74866500  1
  P  P2  1  0.75076400  0.45154800  0.04512500  1
  P  P3  1  0.25209900  0.53994900  0.95995800  1
  P  P4  1  0.54043900  0.96237600  0.25201100  1
  P  P5  1  0.95762000  0.25162500  0.53668100  1
  O  O0  1  0.13049300  0.28742800  0.50104100  1
  O  O1  1  0.29499100  0.51331200  0.12443500  1
  O  O2  1  0.04683700  0.92503200  0.26718100  1
  O  O3  1  0.52902200  0.12404800  0.29232600  1
  O  O4  1  0.23833600  0.59277300  0.42840400  1
  O  O5  1  0.01691900  0.80523900  0.61201300  1
  O  O6  1  0.25863800  0.07281900  0.90730000  1
  O  O7  1  0.45227800  0.23202600  0.57486800  1
  O  O8  1  0.59194000  0.43131400  0.23893700  1
  O  O9  1  0.20802400  0.37565100  0.98628600  1
  O  O10  1  0.09219800  0.73366500  0.93126200  1
  O  O11  1  0.36835000  0.99887000  0.21439200  1
  O  O12  1  0.61092900  0.01618200  0.80483000  1
  O  O13  1  0.90779400  0.25757000  0.07055000  1
  O  O14  1  0.81079600  0.60997200  0.01208100  1
  O  O15  1  0.41729900  0.56243300  0.76700500  1
  O  O16  1  0.56236800  0.77048100  0.41594700  1
  O  O17  1  0.73134400  0.92929500  0.08919100  1
  O  O18  1  0.97080500  0.20793800  0.37622200  1
  O  O19  1  0.76857100  0.41824300  0.56241500  1
  O  O20  1  0.47884900  0.88662900  0.69641000  1
  O  O21  1  0.92971000  0.09150600  0.73042500  1
  O  O22  1  0.69620400  0.48052900  0.88506800  1
  O  O23  1  0.88579500  0.69610900  0.48147500  1
loop_
_geom_bond_atom_site_label_1
_geom_bond_atom_site_label_2
_geom_bond_distance
_geom_bond_site_symmetry_2
Li0 O6 1.998207 1_555
Li0 O2 2.142944 1_546
Li0 O13 2.166097 1_456
Li0 O10 2.424637 1_545
Li0 O21 2.501396 1_455
Li0 O17 2.609346 1_446
Li1 O13 2.119883 1_555
Li1 O8 2.134981 1_555
Li1 O3 2.310067 1_555
Li1 O18 2.313626 1_555
Li1 O7 2.353363 1_555
Li1 O2 2.364542 1_645
Li2 O4 2.026041 1_555
Li2 O7 2.145244 1_555
Li2 O8 2.190893 1_555
Li2 O15 2.422805 1_555
Li2 O16 2.483969 1_555
Li2 O19 2.586288 1_555
Li3 O10 2.111911 1_555
Li3 O15 2.143117 1_555
Li3 O20 2.322906 1_555
Li3 O16 2.446327 1_555
Li3 O5 2.448127 1_555
Li3 O21 2.574744 1_465
Li4 O19 2.124160 1_555
Li4 O21 2.133726 1_555
Li4 O22 2.331371 1_555
Li4 O15 2.417331 1_555
Li4 O12 2.462982 1_555
Li4 O17 2.613548 1_546
Li5 O17 2.115727 1_555
Li5 O16 2.149715 1_555
Li5 O23 2.344768 1_555
Li5 O19 2.462126 1_555
Li5 O14 2.472811 1_555
Li5 O10 2.556720 1_654
Cr0 O9 1.956616 1_554
Cr0 O11 1.966423 1_545
Cr0 O18 2.009242 1_455
Cr0 O6 2.009340 1_554
Cr0 O13 2.020357 1_455
Cr0 O2 2.027650 1_545
Cr1 O1 1.951288 1_555
Cr1 O0 1.961565 1_555
Cr1 O3 2.008762 1_555
Cr1 O4 2.011475 1_555
Cr1 O8 2.017479 1_555
Cr1 O7 2.023859 1_555
Cr2 O23 1.975468 1_555
Cr2 O20 1.980701 1_555
Cr2 O22 1.982648 1_555
Cr2 O15 2.029688 1_555
Cr2 O19 2.032804 1_555
Cr2 O16 2.044129 1_555
O0 P5 1.519073 1_455
O1 P3 1.520286 1_554
O2 P0 1.559989 1_555
O3 P4 1.539302 1_545
O4 P0 1.541144 1_555
O5 P0 1.549066 1_555
O5 V0 1.984736 1_455
O6 P1 1.541805 1_555
O7 P1 1.563257 1_555
O8 P2 1.558953 1_555
O9 P3 1.523603 1_555
O10 P3 1.569253 1_555
O10 V0 2.073888 1_455
O11 P4 1.520861 1_555
O12 P1 1.540622 1_555
O12 V0 2.002526 1_545
O13 P2 1.558298 1_555
O14 P2 1.539790 1_555
O14 V0 1.976778 1_554
O15 P3 1.578949 1_555
O16 P4 1.574612 1_555
O17 P4 1.566199 1_555
O17 V0 2.044960 1_554
O18 P5 1.541154 1_555
O19 P5 1.570240 1_555
O20 P1 1.552674 1_565
O21 P5 1.570926 1_555
O21 V0 2.066534 1_545
O22 P2 1.539189 1_556
O23 P0 1.549949 1_655
