# generated using pymatgen
data_KRe6Se5Cl7O3
_symmetry_space_group_name_H-M   'P 1'
_cell_length_a   9.01123400
_cell_length_b   9.06050383
_cell_length_c   9.11462591
_cell_angle_alpha   65.19754427
_cell_angle_beta   66.59527003
_cell_angle_gamma   64.87665670
_symmetry_Int_Tables_number   1
_chemical_formula_structural   KRe6Se5Cl7O3
_chemical_formula_sum   'K1 Re6 Se5 Cl7 O3'
_cell_volume   589.48649840
_cell_formula_units_Z   1
loop_
 _symmetry_equiv_pos_site_id
 _symmetry_equiv_pos_as_xyz
  1  'x, y, z'
loop_
 _atom_site_type_symbol
 _atom_site_label
 _atom_site_symmetry_multiplicity
 _atom_site_fract_x
 _atom_site_fract_y
 _atom_site_fract_z
 _atom_site_occupancy
  K  K0  1  0.49201500  0.49979900  0.49437600  1
  Re  Re0  1  0.94488900  0.79440900  0.10336300  1
  Re  Re1  1  0.80579300  0.10044700  0.94072700  1
  Re  Re2  1  0.10583800  0.93961600  0.79846600  1
  Re  Re3  1  0.04934500  0.20420100  0.88552500  1
  Re  Re4  1  0.19722200  0.89384000  0.05666600  1
  Re  Re5  1  0.88031600  0.05362200  0.20249100  1
  Se  Se0  1  0.76290400  0.35723600  0.04145200  1
  Se  Se1  1  0.34492000  0.04850800  0.74974300  1
  Se  Se2  1  0.03529900  0.75817200  0.35563000  1
  Se  Se3  1  0.24297200  0.64010300  0.97036300  1
  Se  Se4  1  0.85501200  0.85014400  0.84898100  1
  Cl  Cl0  1  0.11518400  0.46781600  0.74436400  1
  Cl  Cl1  1  0.46254600  0.75971100  0.12652300  1
  Cl  Cl2  1  0.73916400  0.12340000  0.45832700  1
  Cl  Cl3  1  0.85694000  0.54308700  0.25857200  1
  Cl  Cl4  1  0.53932900  0.25327800  0.87193700  1
  Cl  Cl5  1  0.24261600  0.88578700  0.53263100  1
  Cl  Cl6  1  0.14109500  0.14766700  0.14307300  1
  O  O0  1  0.71061000  0.96475200  0.20784300  1
  O  O1  1  0.97088000  0.20273900  0.70587100  1
  O  O2  1  0.34611000  0.35266500  0.34407700  1
loop_
_geom_bond_atom_site_label_1
_geom_bond_atom_site_label_2
_geom_bond_distance
_geom_bond_site_symmetry_2
K0 O2 3.135912 1_555
Re0 Se3 2.507090 1_654
Re0 Se4 2.539502 1_554
Re0 Se2 2.585754 1_655
Re1 Se4 2.545894 1_545
Re1 Se0 2.674344 1_556
Re2 Se4 2.528609 1_455
Re2 Se3 2.543545 1_555
Re2 Se1 2.547429 1_565
Re3 Se1 2.504261 1_555
Re3 Se0 2.510946 1_456
Re4 Se3 2.555164 1_554
Re4 Se2 2.572817 1_555
Re4 Se1 2.626387 1_564
Re5 Se0 2.493193 1_555
Re5 Se2 2.510767 1_645
Cl0 Re3 2.393918 1_555
Cl0 K0 3.307770 1_555
Cl1 Re4 2.385720 1_555
Cl1 K0 3.226413 1_555
Cl2 Re5 2.377560 1_555
Cl2 K0 3.256983 1_555
Cl3 Re0 2.398676 1_555
Cl3 K0 3.218686 1_555
Cl4 Re1 2.391756 1_555
Cl4 K0 3.304786 1_555
Cl5 Re2 2.395065 1_555
Cl5 K0 3.336114 1_555
Cl6 Re4 2.525986 1_545
Cl6 Re3 2.574868 1_554
Cl6 Re5 2.616036 1_455
O0 Re5 1.985638 1_565
O0 Re0 2.148259 1_555
O0 Re1 2.213578 1_564
O1 Re3 2.031606 1_655
O1 Re2 2.130796 1_645
O1 Re1 2.151902 1_555
