# generated using pymatgen
data_Rb2Ba8Mg(Sb3O)2
_symmetry_space_group_name_H-M   'P 1'
_cell_length_a   9.34543788
_cell_length_b   9.34543819
_cell_length_c   10.87069971
_cell_angle_alpha   117.12275939
_cell_angle_beta   117.12276493
_cell_angle_gamma   86.52513087
_symmetry_Int_Tables_number   1
_chemical_formula_structural   Rb2Ba8Mg(Sb3O)2
_chemical_formula_sum   'Rb2 Ba8 Mg1 Sb6 O2'
_cell_volume   738.98193238
_cell_formula_units_Z   1
loop_
 _symmetry_equiv_pos_site_id
 _symmetry_equiv_pos_as_xyz
  1  'x, y, z'
loop_
 _atom_site_type_symbol
 _atom_site_label
 _atom_site_symmetry_multiplicity
 _atom_site_fract_x
 _atom_site_fract_y
 _atom_site_fract_z
 _atom_site_occupancy
  Rb  Rb0  1  0.99798800  0.01348700  0.00000000  1
  Rb  Rb1  1  0.51348700  0.49798800  0.00000000  1
  Ba  Ba0  1  0.50587200  0.69919800  0.71350500  1
  Ba  Ba1  1  0.19919800  0.00587200  0.71350500  1
  Ba  Ba2  1  0.79236700  0.98569300  0.28649500  1
  Ba  Ba3  1  0.96425400  0.46425400  0.62546600  1
  Ba  Ba4  1  0.48569300  0.29236700  0.28649500  1
  Ba  Ba5  1  0.69992800  0.19992800  0.69555500  1
  Ba  Ba6  1  0.00437300  0.50437300  0.30444500  1
  Ba  Ba7  1  0.33878800  0.83878800  0.37453400  1
  Mg  Mg0  1  0.17746400  0.67746400  0.00000000  1
  Sb  Sb0  1  0.88855100  0.62118200  0.00000000  1
  Sb  Sb1  1  0.64120100  0.14120100  0.00000000  1
  Sb  Sb2  1  0.12118200  0.38855100  0.00000000  1
  Sb  Sb3  1  0.37240100  0.87240100  0.00000000  1
  Sb  Sb4  1  0.25176000  0.25176000  0.50000000  1
  Sb  Sb5  1  0.75176000  0.75176000  0.50000000  1
  O  O0  1  0.73387100  0.23387100  0.48115400  1
  O  O1  1  0.25271800  0.75271800  0.51884600  1
loop_
_geom_bond_atom_site_label_1
_geom_bond_atom_site_label_2
_geom_bond_distance
_geom_bond_site_symmetry_2
Rb0 Sb1 3.472735 1_555
Rb0 Sb3 3.663685 1_645
Rb0 Sb2 3.755086 1_655
Rb0 Sb0 3.865489 1_545
Rb0 Sb4 4.239925 1_655
Rb0 Sb5 4.239925 1_544
Rb1 Sb1 3.472735 1_555
Rb1 Sb3 3.663685 1_555
Rb1 Sb0 3.755086 1_555
Rb1 Sb2 3.865489 1_555
Rb1 Sb4 4.239925 1_554
Rb1 Sb5 4.239925 1_555
Ba0 O1 2.565543 1_555
Ba0 Sb3 3.546301 1_556
Ba0 Sb1 3.697791 1_566
Ba0 Sb4 3.980013 1_555
Ba0 Sb5 4.116783 1_555
Ba1 O1 2.565543 1_545
Ba1 Sb3 3.546301 1_546
Ba1 Sb1 3.697790 1_556
Ba1 Sb5 3.980012 1_445
Ba1 Sb4 4.116783 1_555
Ba2 O0 2.565543 1_565
Ba2 Sb3 3.546301 1_555
Ba2 Sb1 3.697791 1_565
Ba2 Sb5 3.980013 1_555
Ba2 Sb4 4.116783 1_665
Ba3 O0 2.476823 1_555
Ba3 Mg0 3.194439 1_656
Ba3 Sb5 3.639792 1_555
Ba3 Sb4 3.639792 1_655
Ba4 O0 2.565543 1_555
Ba4 Sb3 3.546301 1_545
Ba4 Sb1 3.697791 1_555
Ba4 Sb4 3.980013 1_555
Ba4 Sb5 4.116783 1_555
Ba5 O0 2.644576 1_555
Ba5 Sb4 3.856228 1_555
Ba5 Sb5 3.856228 1_545
Ba5 Sb1 3.860602 1_556
Ba6 O1 2.644586 1_555
Ba6 Sb4 3.856228 1_555
Ba6 Sb5 3.856228 1_455
Ba6 Sb1 3.860602 1_455
Ba7 O1 2.476811 1_555
Ba7 Mg0 3.194439 1_555
Ba7 Sb5 3.639792 1_555
Ba7 Sb4 3.639792 1_565
Mg0 Sb3 2.653304 1_555
Mg0 Sb0 2.781889 1_455
Mg0 Sb2 2.781889 1_555
Mg0 Rb1 3.469316 1_555
Mg0 Rb0 3.469316 1_465
