# generated using pymatgen
data_Cu4As3PbO12
_symmetry_space_group_name_H-M   'P 1'
_cell_length_a   5.30281811
_cell_length_b   8.56325392
_cell_length_c   11.51994975
_cell_angle_alpha   89.52680902
_cell_angle_beta   90.10292048
_cell_angle_gamma   86.25310760
_symmetry_Int_Tables_number   1
_chemical_formula_structural   Cu4As3PbO12
_chemical_formula_sum   'Cu8 As6 Pb2 O24'
_cell_volume   521.97634786
_cell_formula_units_Z   2
loop_
 _symmetry_equiv_pos_site_id
 _symmetry_equiv_pos_as_xyz
  1  'x, y, z'
loop_
 _atom_site_type_symbol
 _atom_site_label
 _atom_site_symmetry_multiplicity
 _atom_site_fract_x
 _atom_site_fract_y
 _atom_site_fract_z
 _atom_site_occupancy
  Cu  Cu0  1  0.27230000  0.94979900  0.97672700  1
  Cu  Cu1  1  0.72770000  0.05020100  0.02327300  1
  Cu  Cu2  1  0.50000000  0.50000000  0.00000000  1
  Cu  Cu3  1  0.50000000  0.00000000  0.50000000  1
  Cu  Cu4  1  0.98337500  0.70504200  0.16870500  1
  Cu  Cu5  1  0.01662500  0.29495800  0.83129500  1
  Cu  Cu6  1  0.96574600  0.08110900  0.32045900  1
  Cu  Cu7  1  0.03425400  0.91889100  0.67954100  1
  As  As0  1  0.48157400  0.90285800  0.23193800  1
  As  As1  1  0.51842600  0.09714200  0.76806200  1
  As  As2  1  0.96071900  0.72936300  0.44920500  1
  As  As3  1  0.03928100  0.27063700  0.55079500  1
  As  As4  1  0.04136000  0.33961700  0.11059400  1
  As  As5  1  0.95864000  0.66038300  0.88940600  1
  Pb  Pb0  1  0.49749700  0.45913500  0.33114700  1
  Pb  Pb1  1  0.50250300  0.54086500  0.66885300  1
  O  O0  1  0.32477800  0.97440600  0.35566500  1
  O  O1  1  0.67522200  0.02559400  0.64433500  1
  O  O2  1  0.63287300  0.71857000  0.23701400  1
  O  O3  1  0.36712700  0.28143000  0.76298600  1
  O  O4  1  0.23549400  0.89460300  0.13290700  1
  O  O5  1  0.76450600  0.10539700  0.86709300  1
  O  O6  1  0.69712300  0.03690600  0.18649200  1
  O  O7  1  0.30287700  0.96309400  0.81350800  1
  O  O8  1  0.17514400  0.75152600  0.55889600  1
  O  O9  1  0.82485600  0.24847400  0.44110400  1
  O  O10  1  0.81143500  0.91809200  0.41727600  1
  O  O11  1  0.18856500  0.08190800  0.58272400  1
  O  O12  1  0.11821700  0.65953900  0.32549800  1
  O  O13  1  0.88178300  0.34046100  0.67450200  1
  O  O14  1  0.72589100  0.60924000  0.48585200  1
  O  O15  1  0.27410900  0.39076000  0.51414800  1
  O  O16  1  0.13419500  0.24277400  0.23585300  1
  O  O17  1  0.86580500  0.75722600  0.76414600  1
  O  O18  1  0.13594300  0.23364500  0.98862200  1
  O  O19  1  0.86405700  0.76635500  0.01137800  1
  O  O20  1  0.21608600  0.50861800  0.11175500  1
  O  O21  1  0.78391400  0.49138200  0.88824500  1
  O  O22  1  0.72141900  0.39579900  0.11847300  1
  O  O23  1  0.27858100  0.60420100  0.88152700  1
loop_
_geom_bond_atom_site_label_1
_geom_bond_atom_site_label_2
_geom_bond_distance
_geom_bond_site_symmetry_2
Cu0 O4 1.870251 1_556
Cu0 O7 1.890676 1_555
Cu0 O18 2.495156 1_565
Cu1 O5 1.870251 1_554
Cu1 O6 1.890676 1_555
Cu1 O19 2.495156 1_545
Cu2 O22 1.968425 1_555
Cu2 O23 1.968425 1_554
Cu2 O20 1.980795 1_555
Cu2 O21 1.980795 1_554
Cu3 O0 1.924358 1_545
Cu3 O1 1.924358 1_555
Cu3 O11 1.998205 1_555
Cu3 O10 1.998205 1_545
Cu4 O12 1.967985 1_655
Cu4 O19 1.974218 1_555
Cu4 O2 2.016395 1_555
Cu4 O20 2.128920 1_655
Cu4 O4 2.206131 1_655
Cu5 O13 1.967985 1_455
Cu5 O18 1.974218 1_555
Cu5 O3 2.016395 1_555
Cu5 O21 2.128920 1_455
Cu5 O5 2.206131 1_455
Cu6 O16 1.951109 1_655
Cu6 O10 1.997271 1_545
Cu6 O0 2.094728 1_645
Cu6 O9 2.107251 1_555
Cu6 O6 2.150892 1_555
Cu7 O17 1.951103 1_455
Cu7 O11 1.997271 1_565
Cu7 O1 2.094728 1_465
Cu7 O8 2.107251 1_555
Cu7 O7 2.150892 1_555
As0 O2 1.723474 1_555
As0 O4 1.737051 1_555
As0 O0 1.746531 1_555
As0 O6 1.749837 1_565
As1 O3 1.723474 1_555
As1 O5 1.737051 1_555
As1 O1 1.746531 1_555
As1 O7 1.749837 1_545
As2 O14 1.717299 1_555
As2 O8 1.718340 1_655
As2 O12 1.743281 1_655
As2 O10 1.787674 1_555
As3 O15 1.717299 1_555
As3 O9 1.718340 1_455
As3 O13 1.743281 1_455
As3 O11 1.787674 1_555
As4 O16 1.713645 1_555
As4 O22 1.735715 1_455
As4 O18 1.735942 1_554
As4 O20 1.768775 1_555
As5 O17 1.713655 1_555
As5 O23 1.735715 1_655
As5 O19 1.735942 1_556
As5 O21 1.768775 1_555
O2 Pb0 2.607349 1_555
O3 Pb1 2.607349 1_555
O8 Pb1 2.723463 1_555
O9 Pb0 2.723463 1_555
O12 Pb0 2.557535 1_555
O13 Pb1 2.557535 1_555
O14 Pb1 2.503927 1_555
O14 Pb0 2.555157 1_555
O15 Pb0 2.503927 1_555
O15 Pb1 2.555157 1_555
O22 Pb0 2.766734 1_555
O23 Pb1 2.766734 1_555
