# generated using pymatgen
data_Li9Mn2Co5O16
_symmetry_space_group_name_H-M   'P 1'
_cell_length_a   5.76641500
_cell_length_b   5.84906513
_cell_length_c   10.11867272
_cell_angle_alpha   74.49571398
_cell_angle_beta   73.54907099
_cell_angle_gamma   60.58289712
_symmetry_Int_Tables_number   1
_chemical_formula_structural   Li9Mn2Co5O16
_chemical_formula_sum   'Li9 Mn2 Co5 O16'
_cell_volume   281.73344732
_cell_formula_units_Z   1
loop_
 _symmetry_equiv_pos_site_id
 _symmetry_equiv_pos_as_xyz
  1  'x, y, z'
loop_
 _atom_site_type_symbol
 _atom_site_label
 _atom_site_symmetry_multiplicity
 _atom_site_fract_x
 _atom_site_fract_y
 _atom_site_fract_z
 _atom_site_occupancy
  Li  Li0  1  0.74372500  0.25595900  0.75480500  1
  Li  Li1  1  0.75150300  0.75318300  0.24404400  1
  Li  Li2  1  0.25595200  0.74551100  0.75198400  1
  Li  Li3  1  0.25457800  0.25237800  0.24439500  1
  Li  Li4  1  0.74542200  0.74762200  0.75560500  1
  Li  Li5  1  0.74404800  0.25448900  0.24801600  1
  Li  Li6  1  0.24849700  0.24681700  0.75595600  1
  Li  Li7  1  0.25627500  0.74404100  0.24519500  1
  Li  Li8  1  0.50000000  0.50000000  0.00000000  1
  Mn  Mn0  1  0.00000000  0.00000000  0.00000000  1
  Mn  Mn1  1  0.00000000  0.00000000  0.50000000  1
  Co  Co0  1  0.00000000  0.50000000  0.50000000  1
  Co  Co1  1  0.50000000  0.00000000  0.50000000  1
  Co  Co2  1  0.00000000  0.50000000  0.00000000  1
  Co  Co3  1  0.50000000  0.00000000  0.00000000  1
  Co  Co4  1  0.50000000  0.50000000  0.50000000  1
  O  O0  1  0.85706300  0.90372500  0.88337400  1
  O  O1  1  0.88235000  0.35157300  0.38288600  1
  O  O2  1  0.36109500  0.34841900  0.89638000  1
  O  O3  1  0.35766000  0.87369700  0.38455500  1
  O  O4  1  0.89086500  0.35757500  0.89276200  1
  O  O5  1  0.88368200  0.87361900  0.38430000  1
  O  O6  1  0.36386200  0.88951900  0.88844000  1
  O  O7  1  0.36706500  0.38775800  0.37956400  1
  O  O8  1  0.63293500  0.61224200  0.62043600  1
  O  O9  1  0.63613800  0.11048100  0.11156000  1
  O  O10  1  0.11631800  0.12638100  0.61570000  1
  O  O11  1  0.10913500  0.64242500  0.10723800  1
  O  O12  1  0.64234000  0.12630300  0.61544500  1
  O  O13  1  0.63890500  0.65158100  0.10362000  1
  O  O14  1  0.11765000  0.64842700  0.61711400  1
  O  O15  1  0.14293700  0.09627500  0.11662600  1
loop_
_geom_bond_atom_site_label_1
_geom_bond_atom_site_label_2
_geom_bond_distance
_geom_bond_site_symmetry_2
Li0 O0 2.022410 1_545
Li0 O8 2.066124 1_555
Li0 O12 2.092746 1_555
Li0 O10 2.104680 1_655
Li0 O4 2.152117 1_555
Li0 O2 2.159791 1_555
Li1 O11 2.034454 1_655
Li1 O13 2.036350 1_555
Li1 O9 2.061259 1_565
Li1 O5 2.183096 1_555
Li1 O3 2.193276 1_555
Li1 O1 2.270685 1_555
Li2 O14 2.072798 1_555
Li2 O8 2.087168 1_555
Li2 O6 2.150918 1_555
Li2 O10 2.176525 1_565
Li2 O0 2.179314 1_455
Li2 O2 2.280593 1_555
Li3 O1 2.101245 1_455
Li3 O9 2.112831 1_555
Li3 O7 2.122381 1_555
Li3 O15 2.144640 1_555
Li3 O3 2.185266 1_545
Li3 O11 2.218398 1_555
Li4 O14 2.101245 1_655
Li4 O6 2.112831 1_555
Li4 O8 2.122381 1_555
Li4 O0 2.144640 1_555
Li4 O12 2.185266 1_565
Li4 O4 2.218398 1_555
Li5 O1 2.072798 1_555
Li5 O7 2.087168 1_555
Li5 O9 2.150918 1_555
Li5 O5 2.176525 1_545
Li5 O15 2.179314 1_655
Li5 O13 2.280593 1_555
Li6 O4 2.034454 1_455
Li6 O2 2.036350 1_555
Li6 O6 2.061259 1_545
Li6 O10 2.183096 1_555
Li6 O12 2.193276 1_555
Li6 O14 2.270685 1_555
Li7 O15 2.022410 1_565
Li7 O7 2.066124 1_555
Li7 O3 2.092746 1_555
Li7 O5 2.104680 1_455
Li7 O11 2.152117 1_555
Li7 O13 2.159791 1_555
Li8 O13 2.048721 1_555
Li8 O2 2.048721 1_554
Li8 O4 2.050628 1_554
Li8 O11 2.050628 1_555
Li8 O6 2.109812 1_554
Li8 O9 2.109812 1_555
Mn0 O15 1.936809 1_555
Mn0 O0 1.936809 1_444
Mn0 O6 1.952130 1_544
Mn0 O9 1.952130 1_455
Mn0 O4 1.956605 1_454
Mn0 O11 1.956605 1_545
Mn1 O10 1.939436 1_555
Mn1 O5 1.939436 1_445
Mn1 O12 1.940107 1_455
Mn1 O3 1.940107 1_545
Mn1 O1 1.968592 1_455
Mn1 O14 1.968592 1_545
Co0 O7 1.999508 1_555
Co0 O8 1.999508 1_455
Co0 O1 2.049927 1_455
Co0 O14 2.049927 1_555
Co0 O10 2.057481 1_555
Co0 O5 2.057481 1_455
Co1 O12 2.045508 1_555
Co1 O3 2.045508 1_545
Co1 O10 2.049657 1_555
Co1 O5 2.049657 1_545
Co1 O7 2.135474 1_555
Co1 O8 2.135474 1_545
Co2 O11 1.911154 1_555
Co2 O4 1.911154 1_454
Co2 O2 1.915210 1_554
Co2 O13 1.915210 1_455
Co2 O15 2.190296 1_555
Co2 O0 2.190296 1_454
Co3 O13 1.903648 1_545
Co3 O2 1.903648 1_554
Co3 O9 1.923114 1_555
Co3 O6 1.923114 1_544
Co3 O15 1.946593 1_555
Co3 O0 1.946593 1_544
Co4 O8 1.988699 1_555
Co4 O7 1.988699 1_555
Co4 O14 2.051588 1_555
Co4 O1 2.051588 1_555
Co4 O3 2.057070 1_555
Co4 O12 2.057070 1_555
