# generated using pymatgen
data_YMg30CO32
_symmetry_space_group_name_H-M   'P 1'
_cell_length_a   8.61554500
_cell_length_b   8.61554500
_cell_length_c   8.54168500
_cell_angle_alpha   90.00000000
_cell_angle_beta   90.00000000
_cell_angle_gamma   90.00000000
_symmetry_Int_Tables_number   1
_chemical_formula_structural   YMg30CO32
_chemical_formula_sum   'Y1 Mg30 C1 O32'
_cell_volume   634.02891116
_cell_formula_units_Z   1
loop_
 _symmetry_equiv_pos_site_id
 _symmetry_equiv_pos_as_xyz
  1  'x, y, z'
loop_
 _atom_site_type_symbol
 _atom_site_label
 _atom_site_symmetry_multiplicity
 _atom_site_fract_x
 _atom_site_fract_y
 _atom_site_fract_z
 _atom_site_occupancy
  Y  Y0  1  0.00000000  0.00000000  0.00000000  1
  Mg  Mg0  1  0.50000000  0.00000000  0.00000000  1
  Mg  Mg1  1  0.50000000  0.00000000  0.50000000  1
  Mg  Mg2  1  0.00000000  0.50000000  0.00000000  1
  Mg  Mg3  1  0.00000000  0.50000000  0.50000000  1
  Mg  Mg4  1  0.50000000  0.50000000  0.00000000  1
  Mg  Mg5  1  0.50000000  0.50000000  0.50000000  1
  Mg  Mg6  1  0.25449900  0.00000000  0.26076600  1
  Mg  Mg7  1  0.25449900  0.00000000  0.73923400  1
  Mg  Mg8  1  0.74550100  0.00000000  0.26076600  1
  Mg  Mg9  1  0.74550100  0.00000000  0.73923400  1
  Mg  Mg10  1  0.25027600  0.50000000  0.25232400  1
  Mg  Mg11  1  0.25027600  0.50000000  0.74767600  1
  Mg  Mg12  1  0.74972400  0.50000000  0.25232400  1
  Mg  Mg13  1  0.74972400  0.50000000  0.74767600  1
  Mg  Mg14  1  0.00000000  0.25449900  0.26076600  1
  Mg  Mg15  1  0.00000000  0.25449900  0.73923400  1
  Mg  Mg16  1  0.50000000  0.25027600  0.25232400  1
  Mg  Mg17  1  0.50000000  0.25027600  0.74767600  1
  Mg  Mg18  1  0.00000000  0.74550100  0.26076600  1
  Mg  Mg19  1  0.00000000  0.74550100  0.73923400  1
  Mg  Mg20  1  0.50000000  0.74972400  0.25232400  1
  Mg  Mg21  1  0.50000000  0.74972400  0.74767600  1
  Mg  Mg22  1  0.25599900  0.25599900  0.00000000  1
  Mg  Mg23  1  0.24751200  0.24751200  0.50000000  1
  Mg  Mg24  1  0.74400100  0.25599900  0.00000000  1
  Mg  Mg25  1  0.75248800  0.24751200  0.50000000  1
  Mg  Mg26  1  0.25599900  0.74400100  0.00000000  1
  Mg  Mg27  1  0.24751200  0.75248800  0.50000000  1
  Mg  Mg28  1  0.74400100  0.74400100  0.00000000  1
  Mg  Mg29  1  0.75248800  0.75248800  0.50000000  1
  C  C0  1  0.00000000  0.00000000  0.50000000  1
  O  O0  1  0.00000000  0.25853300  0.00000000  1
  O  O1  1  0.00000000  0.27096600  0.50000000  1
  O  O2  1  0.50000000  0.25183700  0.00000000  1
  O  O3  1  0.50000000  0.25313400  0.50000000  1
  O  O4  1  0.00000000  0.74146700  0.00000000  1
  O  O5  1  0.00000000  0.72903400  0.50000000  1
  O  O6  1  0.50000000  0.74816300  0.00000000  1
  O  O7  1  0.50000000  0.74686600  0.50000000  1
  O  O8  1  0.24888900  0.24888900  0.24962700  1
  O  O9  1  0.24888900  0.24888900  0.75037300  1
  O  O10  1  0.75111100  0.24888900  0.24962700  1
  O  O11  1  0.75111100  0.24888900  0.75037300  1
  O  O12  1  0.24888900  0.75111100  0.24962700  1
  O  O13  1  0.24888900  0.75111100  0.75037300  1
  O  O14  1  0.75111100  0.75111100  0.24962700  1
  O  O15  1  0.75111100  0.75111100  0.75037300  1
  O  O16  1  0.00000000  0.00000000  0.25672700  1
  O  O17  1  0.00000000  0.00000000  0.74327300  1
  O  O18  1  0.50000000  0.00000000  0.24744800  1
  O  O19  1  0.50000000  0.00000000  0.75255200  1
  O  O20  1  0.00000000  0.50000000  0.24744800  1
  O  O21  1  0.00000000  0.50000000  0.75255200  1
  O  O22  1  0.50000000  0.50000000  0.24889200  1
  O  O23  1  0.50000000  0.50000000  0.75110800  1
  O  O24  1  0.25853300  0.00000000  0.00000000  1
  O  O25  1  0.27096600  0.00000000  0.50000000  1
  O  O26  1  0.74146700  0.00000000  0.00000000  1
  O  O27  1  0.72903400  0.00000000  0.50000000  1
  O  O28  1  0.25183700  0.50000000  0.00000000  1
  O  O29  1  0.25313400  0.50000000  0.50000000  1
  O  O30  1  0.74816300  0.50000000  0.00000000  1
  O  O31  1  0.74686600  0.50000000  0.50000000  1
loop_
_geom_bond_atom_site_label_1
_geom_bond_atom_site_label_2
_geom_bond_distance
_geom_bond_site_symmetry_2
Mg0 O24 2.080370 1_555
Mg0 O26 2.080370 1_555
Mg0 O18 2.113623 1_555
Mg0 O19 2.113623 1_554
Mg0 O2 2.169713 1_555
Mg0 O6 2.169713 1_545
Mg1 O27 1.973253 1_555
Mg1 O25 1.973253 1_555
Mg1 O19 2.157220 1_555
Mg1 O18 2.157220 1_555
Mg1 O7 2.180887 1_545
Mg1 O3 2.180887 1_555
Mg2 O0 2.080370 1_555
Mg2 O4 2.080370 1_555
Mg2 O20 2.113623 1_555
Mg2 O21 2.113623 1_554
Mg2 O28 2.169713 1_555
Mg2 O30 2.169713 1_455
Mg3 O5 1.973253 1_555
Mg3 O1 1.973253 1_555
Mg3 O21 2.157220 1_555
Mg3 O20 2.157220 1_555
Mg3 O31 2.180887 1_455
Mg3 O29 2.180887 1_555
Mg4 O22 2.125957 1_555
Mg4 O23 2.125957 1_554
Mg4 O28 2.138059 1_555
Mg4 O6 2.138059 1_555
Mg4 O30 2.138059 1_555
Mg4 O2 2.138059 1_555
Mg5 O3 2.126885 1_555
Mg5 O29 2.126885 1_555
Mg5 O7 2.126885 1_555
Mg5 O31 2.126885 1_555
Mg5 O23 2.144885 1_555
Mg5 O22 2.144885 1_555
Mg6 O25 2.048380 1_555
Mg6 O18 2.118182 1_555
Mg6 O12 2.146968 1_545
Mg6 O8 2.146968 1_555
Mg6 O16 2.192919 1_555
Mg6 O24 2.227652 1_555
Mg7 O25 2.048380 1_555
Mg7 O19 2.118182 1_555
Mg7 O13 2.146968 1_545
Mg7 O9 2.146968 1_555
Mg7 O17 2.192919 1_555
Mg7 O24 2.227652 1_556
Mg8 O27 2.048380 1_555
Mg8 O18 2.118182 1_555
Mg8 O10 2.146968 1_555
Mg8 O14 2.146968 1_545
Mg8 O16 2.192919 1_655
Mg8 O26 2.227652 1_555
Mg9 O27 2.048380 1_555
Mg9 O19 2.118182 1_555
Mg9 O11 2.146968 1_555
Mg9 O15 2.146968 1_545
Mg9 O17 2.192919 1_655
Mg9 O26 2.227652 1_556
Mg10 O29 2.115714 1_555
Mg10 O22 2.151708 1_555
Mg10 O28 2.155314 1_555
Mg10 O20 2.156666 1_555
Mg10 O12 2.163614 1_555
Mg10 O8 2.163614 1_555
Mg11 O29 2.115714 1_555
Mg11 O23 2.151708 1_555
Mg11 O28 2.155314 1_556
Mg11 O21 2.156666 1_555
Mg11 O9 2.163614 1_555
Mg11 O13 2.163614 1_555
Mg12 O31 2.115714 1_555
Mg12 O22 2.151708 1_555
Mg12 O30 2.155314 1_555
Mg12 O20 2.156666 1_655
Mg12 O10 2.163614 1_555
Mg12 O14 2.163614 1_555
Mg13 O31 2.115714 1_555
Mg13 O23 2.151708 1_555
Mg13 O30 2.155314 1_556
Mg13 O21 2.156666 1_655
Mg13 O15 2.163614 1_555
Mg13 O11 2.163614 1_555
Mg14 O1 2.048380 1_555
Mg14 O20 2.118182 1_555
Mg14 O10 2.146968 1_455
Mg14 O8 2.146968 1_555
Mg14 O16 2.192919 1_555
Mg14 O0 2.227652 1_555
Mg15 O1 2.048380 1_555
Mg15 O21 2.118182 1_555
Mg15 O11 2.146968 1_455
Mg15 O9 2.146968 1_555
Mg15 O17 2.192919 1_555
Mg15 O0 2.227652 1_556
Mg16 O3 2.115714 1_555
Mg16 O22 2.151708 1_555
Mg16 O2 2.155314 1_555
Mg16 O18 2.156666 1_555
Mg16 O10 2.163614 1_555
Mg16 O8 2.163614 1_555
Mg17 O3 2.115714 1_555
Mg17 O23 2.151708 1_555
Mg17 O2 2.155314 1_556
Mg17 O19 2.156666 1_555
Mg17 O9 2.163614 1_555
Mg17 O11 2.163614 1_555
Mg18 O5 2.048380 1_555
Mg18 O20 2.118182 1_555
Mg18 O14 2.146968 1_455
Mg18 O12 2.146968 1_555
Mg18 O16 2.192919 1_565
Mg18 O4 2.227652 1_555
Mg19 O5 2.048380 1_555
Mg19 O21 2.118182 1_555
Mg19 O13 2.146968 1_555
Mg19 O15 2.146968 1_455
Mg19 O17 2.192919 1_565
Mg19 O4 2.227652 1_556
Mg20 O7 2.115714 1_555
Mg20 O22 2.151708 1_555
Mg20 O6 2.155314 1_555
Mg20 O18 2.156666 1_565
Mg20 O12 2.163614 1_555
Mg20 O14 2.163614 1_555
Mg21 O7 2.115714 1_555
Mg21 O23 2.151708 1_555
Mg21 O6 2.155314 1_556
Mg21 O19 2.156666 1_565
Mg21 O15 2.163614 1_555
Mg21 O13 2.163614 1_555
Mg22 O2 2.102507 1_555
Mg22 O28 2.102507 1_555
Mg22 O8 2.133994 1_555
Mg22 O9 2.133994 1_554
Mg22 O24 2.205679 1_555
Mg22 O0 2.205679 1_555
Mg23 O9 2.138673 1_555
Mg23 O8 2.138673 1_555
Mg23 O1 2.142003 1_555
Mg23 O25 2.142003 1_555
Mg23 O29 2.175861 1_555
Mg23 O3 2.175861 1_555
Mg24 O30 2.102507 1_555
Mg24 O2 2.102507 1_555
Mg24 O10 2.133994 1_555
Mg24 O11 2.133994 1_554
Mg24 O26 2.205679 1_555
Mg24 O0 2.205679 1_655
Mg25 O11 2.138673 1_555
Mg25 O10 2.138673 1_555
Mg25 O27 2.142003 1_555
Mg25 O1 2.142003 1_655
Mg25 O31 2.175861 1_555
Mg25 O3 2.175861 1_555
Mg26 O6 2.102507 1_555
Mg26 O28 2.102507 1_555
Mg26 O12 2.133994 1_555
Mg26 O13 2.133994 1_554
Mg26 O24 2.205679 1_565
Mg26 O4 2.205679 1_555
Mg27 O13 2.138673 1_555
Mg27 O12 2.138673 1_555
Mg27 O25 2.142003 1_565
Mg27 O5 2.142003 1_555
Mg27 O7 2.175861 1_555
Mg27 O29 2.175861 1_555
Mg28 O6 2.102507 1_555
Mg28 O30 2.102507 1_555
Mg28 O14 2.133994 1_555
Mg28 O15 2.133994 1_554
Mg28 O26 2.205679 1_565
Mg28 O4 2.205679 1_655
Mg29 O15 2.138673 1_555
Mg29 O14 2.138673 1_555
Mg29 O27 2.142003 1_565
Mg29 O5 2.142003 1_655
Mg29 O31 2.175861 1_555
Mg29 O7 2.175861 1_555
C0 O17 2.077961 1_555
C0 O16 2.077961 1_555
O0 Y0 2.227403 1_555
O4 Y0 2.227403 1_565
O16 Y0 2.192881 1_555
O17 Y0 2.192881 1_556
O24 Y0 2.227403 1_555
O26 Y0 2.227403 1_655
