# generated using pymatgen
data_SrLa3Mn2Cr2O12
_symmetry_space_group_name_H-M   'P 1'
_cell_length_a   5.49069700
_cell_length_b   5.59185007
_cell_length_c   7.93605240
_cell_angle_alpha   89.64923161
_cell_angle_beta   89.01225518
_cell_angle_gamma   88.97254832
_symmetry_Int_Tables_number   1
_chemical_formula_structural   SrLa3Mn2Cr2O12
_chemical_formula_sum   'Sr1 La3 Mn2 Cr2 O12'
_cell_volume   243.58234667
_cell_formula_units_Z   1
loop_
 _symmetry_equiv_pos_site_id
 _symmetry_equiv_pos_as_xyz
  1  'x, y, z'
loop_
 _atom_site_type_symbol
 _atom_site_label
 _atom_site_symmetry_multiplicity
 _atom_site_fract_x
 _atom_site_fract_y
 _atom_site_fract_z
 _atom_site_occupancy
  Sr  Sr0  1  0.49954500  0.99642300  0.74756300  1
  La  La0  1  0.00068500  0.50490600  0.25118800  1
  La  La1  1  0.50063500  0.00096400  0.25366500  1
  La  La2  1  0.99858400  0.49680600  0.74784900  1
  Mn  Mn0  1  0.99989700  0.99959600  0.50076500  1
  Mn  Mn1  1  0.50032400  0.50087100  0.99932000  1
  Cr  Cr0  1  0.00092200  0.00068200  0.99877900  1
  Cr  Cr1  1  0.49966800  0.49960100  0.50094600  1
  O  O0  1  0.27706900  0.78603000  0.52280900  1
  O  O1  1  0.77686000  0.28828400  0.03711400  1
  O  O2  1  0.22080600  0.28761300  0.46570500  1
  O  O3  1  0.71504600  0.77058100  0.97363900  1
  O  O4  1  0.00075800  0.93555100  0.24356000  1
  O  O5  1  0.50273600  0.44332500  0.75747900  1
  O  O6  1  0.78606000  0.70573000  0.52510100  1
  O  O7  1  0.28440900  0.22799700  0.04144000  1
  O  O8  1  0.99988700  0.07169700  0.75557500  1
  O  O9  1  0.49765500  0.56576300  0.24436900  1
  O  O10  1  0.72377400  0.21425700  0.46187800  1
  O  O11  1  0.21468000  0.70332100  0.97125800  1
loop_
_geom_bond_atom_site_label_1
_geom_bond_atom_site_label_2
_geom_bond_distance
_geom_bond_site_symmetry_2
La0 O4 2.408500 1_555
La0 O2 2.414192 1_555
La0 O1 2.452440 1_455
La0 O6 2.696158 1_455
La0 O7 2.729645 1_555
La0 O11 2.733753 1_554
La0 O9 2.755465 1_555
La0 O10 2.777886 1_455
La0 O9 2.778222 1_455
La1 O10 2.408392 1_555
La1 O7 2.417968 1_555
La1 O9 2.435505 1_545
La1 O0 2.728493 1_545
La1 O2 2.759932 1_555
La1 O4 2.763624 1_645
La1 O4 2.778022 1_545
La1 O1 2.792628 1_555
La1 O3 2.806185 1_544
La2 O8 2.377447 1_555
La2 O6 2.418341 1_555
La2 O11 2.455932 1_655
La2 O5 2.743958 1_555
La2 O5 2.781229 1_655
La2 O2 2.785220 1_655
La2 O3 2.798240 1_555
La2 O1 2.834322 1_556
La2 O0 2.846479 1_655
Mn0 O0 1.927255 1_655
Mn0 O10 1.944479 1_565
Mn0 O6 2.042944 1_555
Mn0 O2 2.048280 1_665
Mn0 O8 2.064404 1_565
Mn0 O4 2.074440 1_655
Mn1 O11 1.932948 1_555
Mn1 O1 1.937825 1_556
Mn1 O3 1.938514 1_555
Mn1 O5 1.947775 1_555
Mn1 O7 1.972422 1_556
Mn1 O9 1.980226 1_556
Cr0 O8 1.968209 1_455
Cr0 O4 1.974236 1_546
Cr0 O1 2.028451 1_456
Cr0 O11 2.028730 1_545
Cr0 O3 2.060480 1_445
Cr0 O7 2.060961 1_556
Cr1 O2 1.977809 1_555
Cr1 O6 1.978930 1_555
Cr1 O0 2.003787 1_555
Cr1 O10 2.019576 1_555
Cr1 O5 2.058442 1_555
Cr1 O9 2.067498 1_555
O0 Sr0 2.492006 1_555
O3 Sr0 2.491139 1_555
O5 Sr0 2.501114 1_545
O6 Sr0 2.842833 1_555
O7 Sr0 2.898031 1_544
O8 Sr0 2.767806 1_645
O8 Sr0 2.788600 1_545
O10 Sr0 2.839634 1_545
O11 Sr0 2.871377 1_555
