# generated using pymatgen
data_NaLuTi2O6
_symmetry_space_group_name_H-M   'P 1'
_cell_length_a   5.26758900
_cell_length_b   5.51360600
_cell_length_c   7.59579600
_cell_angle_alpha   90.00000000
_cell_angle_beta   90.00000000
_cell_angle_gamma   90.00000000
_symmetry_Int_Tables_number   1
_chemical_formula_structural   NaLuTi2O6
_chemical_formula_sum   'Na2 Lu2 Ti4 O12'
_cell_volume   220.60781990
_cell_formula_units_Z   2
loop_
 _symmetry_equiv_pos_site_id
 _symmetry_equiv_pos_as_xyz
  1  'x, y, z'
loop_
 _atom_site_type_symbol
 _atom_site_label
 _atom_site_symmetry_multiplicity
 _atom_site_fract_x
 _atom_site_fract_y
 _atom_site_fract_z
 _atom_site_occupancy
  Na  Na0  1  0.49054400  0.70528600  0.50000000  1
  Na  Na1  1  0.99054400  0.29471400  0.00000000  1
  Lu  Lu0  1  0.01970600  0.17738500  0.50000000  1
  Lu  Lu1  1  0.51970600  0.82261500  0.00000000  1
  Ti  Ti0  1  0.50726900  0.26135100  0.75174100  1
  Ti  Ti1  1  0.00726900  0.73864900  0.25174100  1
  Ti  Ti2  1  0.50726900  0.26135100  0.24825900  1
  Ti  Ti3  1  0.00726900  0.73864900  0.74825900  1
  O  O0  1  0.92078500  0.78288900  0.50000000  1
  O  O1  1  0.61502600  0.27726200  0.50000000  1
  O  O2  1  0.11502600  0.72273800  0.00000000  1
  O  O3  1  0.42078500  0.21711100  0.00000000  1
  O  O4  1  0.18497100  0.44025100  0.69285300  1
  O  O5  1  0.28472900  0.96347700  0.29453500  1
  O  O6  1  0.78472900  0.03652300  0.20546500  1
  O  O7  1  0.68497100  0.55974900  0.80714700  1
  O  O8  1  0.78472900  0.03652300  0.79453500  1
  O  O9  1  0.68497100  0.55974900  0.19285300  1
  O  O10  1  0.18497100  0.44025100  0.30714700  1
  O  O11  1  0.28472900  0.96347700  0.70546500  1
loop_
_geom_bond_atom_site_label_1
_geom_bond_atom_site_label_2
_geom_bond_distance
_geom_bond_site_symmetry_2
Na0 O0 2.306369 1_555
Na0 O5 2.374364 1_555
Na0 O11 2.374364 1_555
Na0 O1 2.449359 1_555
Na0 O4 2.621481 1_555
Na0 O10 2.621481 1_555
Na0 O7 2.671295 1_555
Na0 O9 2.671295 1_555
Na1 O3 2.306369 1_655
Na1 O6 2.374364 1_555
Na1 O8 2.374364 1_554
Na1 O2 2.449359 1_655
Na1 O9 2.621481 1_555
Na1 O7 2.621481 1_554
Na1 O10 2.671295 1_655
Na1 O4 2.671295 1_654
Lu0 O1 2.201669 1_455
Lu0 O0 2.236640 1_445
Lu0 O4 2.237027 1_555
Lu0 O10 2.237027 1_555
Lu0 O11 2.403246 1_545
Lu0 O5 2.403246 1_545
Lu0 O8 2.672160 1_455
Lu0 O6 2.672160 1_455
Lu1 O2 2.201669 1_555
Lu1 O3 2.236640 1_565
Lu1 O7 2.237027 1_554
Lu1 O9 2.237027 1_555
Lu1 O6 2.403246 1_565
Lu1 O8 2.403246 1_564
Lu1 O5 2.672160 1_555
Lu1 O11 2.672160 1_554
O0 Ti3 1.955247 1_655
O0 Ti1 1.955247 1_655
O1 Ti0 1.996571 1_555
O1 Ti2 1.996571 1_555
O2 Ti1 1.996571 1_555
O2 Ti3 1.996571 1_554
O3 Ti2 1.955247 1_555
O3 Ti0 1.955247 1_554
O4 Ti3 1.939116 1_555
O4 Ti0 2.013785 1_555
O5 Ti1 1.943815 1_555
O5 Ti2 2.048187 1_565
O6 Ti2 1.943815 1_555
O6 Ti1 2.048187 1_645
O7 Ti0 1.939116 1_555
O7 Ti3 2.013785 1_655
O8 Ti0 1.943815 1_555
O8 Ti3 2.048187 1_645
O9 Ti2 1.939116 1_555
O9 Ti1 2.013785 1_655
O10 Ti1 1.939116 1_555
O10 Ti2 2.013785 1_555
O11 Ti3 1.943815 1_555
O11 Ti0 2.048187 1_565
