# generated using pymatgen
data_CeGa2Ni3
_symmetry_space_group_name_H-M   'P 1'
_cell_length_a   4.95915622
_cell_length_b   4.95915622
_cell_length_c   4.09279509
_cell_angle_alpha   90.00000000
_cell_angle_beta   90.00000000
_cell_angle_gamma   117.85254703
_symmetry_Int_Tables_number   1
_chemical_formula_structural   CeGa2Ni3
_chemical_formula_sum   'Ce1 Ga2 Ni3'
_cell_volume   88.99445369
_cell_formula_units_Z   1
loop_
 _symmetry_equiv_pos_site_id
 _symmetry_equiv_pos_as_xyz
  1  'x, y, z'
loop_
 _atom_site_type_symbol
 _atom_site_label
 _atom_site_symmetry_multiplicity
 _atom_site_fract_x
 _atom_site_fract_y
 _atom_site_fract_z
 _atom_site_occupancy
  Ce  Ce0  1  0.50000000  0.50000000  -0.00000000  1
  Ga  Ga0  1  -0.00000000  0.50000000  0.50000000  1
  Ga  Ga1  1  0.50000000  0.00000000  0.50000000  1
  Ni  Ni0  1  0.16658576  0.83341424  0.00000000  1
  Ni  Ni1  1  0.83341424  0.16658576  -0.00000000  1
  Ni  Ni2  1  -0.00000000  0.00000000  0.50000000  1
loop_
_geom_bond_atom_site_label_1
_geom_bond_atom_site_label_2
_geom_bond_distance
_geom_bond_site_symmetry_2
Ce0 Ni0 2.832378 1_555
Ce0 Ni1 2.832378 1_555
Ce0 Ni1 2.924780 1_455
Ce0 Ni0 2.924780 1_655
Ce0 Ni1 2.924780 1_565
Ce0 Ni0 2.924780 1_545
Ce0 Ga0 3.214973 1_555
Ce0 Ga1 3.214973 1_565
Ce0 Ga0 3.214973 1_655
Ce0 Ga0 3.214973 1_654
Ce0 Ga1 3.214973 1_555
Ce0 Ga0 3.214973 1_554
Ce0 Ga1 3.214973 1_554
Ce0 Ga1 3.214973 1_564
Ce0 Ni2 3.277104 1_664
Ce0 Ni2 3.277104 1_555
Ce0 Ni2 3.277104 1_665
Ce0 Ni2 3.277104 1_554
Ga0 Ni2 2.479578 1_555
Ga0 Ni2 2.479578 1_565
Ga0 Ni0 2.515509 1_556
Ga0 Ni0 2.515509 1_555
Ga0 Ni1 2.515509 1_455
Ga0 Ni1 2.515509 1_456
Ga0 Ga1 2.559622 1_565
Ga0 Ga1 2.559622 1_455
Ga1 Ni2 2.479578 1_555
Ga1 Ni2 2.479578 1_655
Ga1 Ni0 2.515509 1_546
Ga1 Ni0 2.515509 1_545
Ga1 Ni1 2.515509 1_555
Ga1 Ni1 2.515509 1_556
Ni0 Ni2 2.488055 1_564
Ni0 Ni2 2.488055 1_565
Ni0 Ni1 2.830316 1_465
Ni0 Ni1 2.925778 1_455
Ni0 Ni1 2.925778 1_565
Ni1 Ni2 2.488055 1_654
Ni1 Ni2 2.488055 1_655
