# generated using pymatgen
data_BaZr5Pb4O15
_symmetry_space_group_name_H-M   'P 1'
_cell_length_a   4.25037979
_cell_length_b   4.25037979
_cell_length_c   21.22038931
_cell_angle_alpha   89.46271555
_cell_angle_beta   89.46271555
_cell_angle_gamma   89.26172946
_symmetry_Int_Tables_number   1
_chemical_formula_structural   BaZr5Pb4O15
_chemical_formula_sum   'Ba1 Zr5 Pb4 O15'
_cell_volume   383.29668536
_cell_formula_units_Z   1
loop_
 _symmetry_equiv_pos_site_id
 _symmetry_equiv_pos_as_xyz
  1  'x, y, z'
loop_
 _atom_site_type_symbol
 _atom_site_label
 _atom_site_symmetry_multiplicity
 _atom_site_fract_x
 _atom_site_fract_y
 _atom_site_fract_z
 _atom_site_occupancy
  Ba  Ba0  1  0.47871700  0.47871700  0.08979000  1
  Zr  Zr0  1  0.98268700  0.98268700  0.99393300  1
  Zr  Zr1  1  0.97595500  0.97595500  0.79549100  1
  Zr  Zr2  1  0.97561600  0.97561600  0.59616100  1
  Zr  Zr3  1  0.97480700  0.97480700  0.39670900  1
  Zr  Zr4  1  0.97817100  0.97817100  0.19599100  1
  Pb  Pb0  1  0.42279300  0.42279300  0.88525700  1
  Pb  Pb1  1  0.41966400  0.41966400  0.68601300  1
  Pb  Pb2  1  0.41895000  0.41895000  0.48670300  1
  Pb  Pb3  1  0.41564300  0.41564300  0.28808000  1
  O  O0  1  0.02091800  0.02091800  0.89706000  1
  O  O1  1  0.02234600  0.02234600  0.69808900  1
  O  O2  1  0.02227500  0.02227500  0.49883100  1
  O  O3  1  0.02125100  0.02125100  0.29979400  1
  O  O4  1  0.99171500  0.99171500  0.10006800  1
  O  O5  1  0.02218500  0.49600800  0.80240700  1
  O  O6  1  0.02263500  0.49603400  0.60288000  1
  O  O7  1  0.02326300  0.49529500  0.40321300  1
  O  O8  1  0.01651400  0.49256600  0.20249800  1
  O  O9  1  0.99834200  0.49265000  0.00271800  1
  O  O10  1  0.49600800  0.02218500  0.80240700  1
  O  O11  1  0.49603400  0.02263500  0.60288000  1
  O  O12  1  0.49529500  0.02326300  0.40321300  1
  O  O13  1  0.49256600  0.01651400  0.20249800  1
  O  O14  1  0.49265000  0.99834200  0.00271800  1
loop_
_geom_bond_atom_site_label_1
_geom_bond_atom_site_label_2
_geom_bond_distance
_geom_bond_site_symmetry_2
Ba0 O9 2.766215 1_455
Ba0 O14 2.766215 1_545
Ba0 O14 2.867093 1_555
Ba0 O9 2.867093 1_555
Ba0 O4 2.951336 1_445
Ba0 O4 2.995109 1_545
Ba0 O4 2.995109 1_455
Ba0 O8 3.081344 1_555
Ba0 O13 3.081344 1_555
Ba0 O4 3.113925 1_555
Ba0 O8 3.325273 1_655
Ba0 O13 3.325273 1_565
O0 Zr0 2.065622 1_445
O0 Zr1 2.175983 1_445
O0 Pb0 2.440744 1_555
O1 Zr1 2.082207 1_445
O1 Zr2 2.185038 1_445
O1 Pb1 2.413855 1_555
O2 Zr2 2.080891 1_445
O2 Zr3 2.189760 1_445
O2 Pb2 2.410091 1_555
O3 Zr3 2.072006 1_445
O3 Zr4 2.221511 1_445
O3 Pb3 2.395547 1_555
O4 Zr4 2.036093 1_555
O4 Zr0 2.253607 1_554
O5 Zr1 2.050895 1_455
O5 Zr1 2.227989 1_445
O5 Pb0 2.473727 1_555
O6 Zr2 2.049378 1_455
O6 Zr2 2.229560 1_445
O6 Pb1 2.469044 1_555
O7 Zr3 2.049339 1_455
O7 Zr3 2.230160 1_445
O7 Pb2 2.470575 1_555
O8 Zr4 2.071752 1_455
O8 Zr4 2.200256 1_445
O8 Pb3 2.513036 1_555
O9 Zr0 2.089688 1_554
O9 Zr0 2.179202 1_544
O10 Zr1 2.050895 1_545
O10 Zr1 2.227989 1_445
O10 Pb0 2.473727 1_555
O11 Zr2 2.049378 1_545
O11 Zr2 2.229560 1_445
O11 Pb1 2.469044 1_555
O12 Zr3 2.049339 1_545
O12 Zr3 2.230160 1_445
O12 Pb2 2.470575 1_555
O13 Zr4 2.071752 1_545
O13 Zr4 2.200256 1_445
O13 Pb3 2.513036 1_555
O14 Zr0 2.089688 1_554
O14 Zr0 2.179202 1_454
