# generated using pymatgen
data_Nd2Mn3Cu9As7
_symmetry_space_group_name_H-M   'P 1'
_cell_length_a   9.90079613
_cell_length_b   9.90079613
_cell_length_c   3.98839400
_cell_angle_alpha   90.00000000
_cell_angle_beta   90.00000000
_cell_angle_gamma   120.00000085
_symmetry_Int_Tables_number   1
_chemical_formula_structural   Nd2Mn3Cu9As7
_chemical_formula_sum   'Nd2 Mn3 Cu9 As7'
_cell_volume   338.58593845
_cell_formula_units_Z   1
loop_
 _symmetry_equiv_pos_site_id
 _symmetry_equiv_pos_as_xyz
  1  'x, y, z'
loop_
 _atom_site_type_symbol
 _atom_site_label
 _atom_site_symmetry_multiplicity
 _atom_site_fract_x
 _atom_site_fract_y
 _atom_site_fract_z
 _atom_site_occupancy
  Nd  Nd0  1  0.00000000  0.00000000  0.00000000  1
  Nd  Nd1  1  0.33333300  0.66666700  0.50000000  1
  Mn  Mn0  1  0.88757700  0.45781000  0.50000000  1
  Mn  Mn1  1  0.54219000  0.42976700  0.50000000  1
  Mn  Mn2  1  0.57023300  0.11242300  0.50000000  1
  Cu  Cu0  1  0.09029500  0.71011000  0.00000000  1
  Cu  Cu1  1  0.28989000  0.38018500  0.00000000  1
  Cu  Cu2  1  0.61981500  0.90970500  0.00000000  1
  Cu  Cu3  1  0.82992200  0.21351200  0.00000000  1
  Cu  Cu4  1  0.78648800  0.61641000  0.00000000  1
  Cu  Cu5  1  0.38359000  0.17007800  0.00000000  1
  Cu  Cu6  1  0.04894100  0.29063400  0.50000000  1
  Cu  Cu7  1  0.70936600  0.75830800  0.50000000  1
  Cu  Cu8  1  0.24169200  0.95105900  0.50000000  1
  As  As0  1  0.08399300  0.45738600  0.00000000  1
  As  As1  1  0.54261400  0.62660700  0.00000000  1
  As  As2  1  0.37339300  0.91600700  0.00000000  1
  As  As3  1  0.78762800  0.04033700  0.50000000  1
  As  As4  1  0.95966300  0.74729100  0.50000000  1
  As  As5  1  0.25270900  0.21237200  0.50000000  1
  As  As6  1  0.66666700  0.33333300  0.00000000  1
loop_
_geom_bond_atom_site_label_1
_geom_bond_atom_site_label_2
_geom_bond_distance
_geom_bond_site_symmetry_2
Cu0 Cu8 2.887702 1_555
Cu0 Cu8 2.887702 1_554
Cu0 Mn0 3.038323 1_455
Cu0 Mn0 3.038323 1_454
Cu0 Nd0 3.406291 1_565
Cu1 Cu6 2.887703 1_555
Cu1 Cu6 2.887703 1_554
Cu1 Mn1 3.038323 1_554
Cu1 Mn1 3.038323 1_555
Cu1 Nd0 3.406291 1_555
Cu2 Cu7 2.887696 1_555
Cu2 Cu7 2.887696 1_554
Cu2 Mn2 3.038323 1_565
Cu2 Mn2 3.038323 1_564
Cu2 Nd0 3.406291 1_665
Cu3 Cu6 2.757955 1_654
Cu3 Cu6 2.757955 1_655
Cu3 Mn0 2.961807 1_554
Cu3 Mn0 2.961807 1_555
Cu3 Mn2 3.002649 1_554
Cu3 Mn2 3.002649 1_555
Cu3 Nd0 3.296052 1_655
Cu4 Cu7 2.757962 1_554
Cu4 Cu7 2.757962 1_555
Cu4 Mn1 2.961807 1_554
Cu4 Mn1 2.961807 1_555
Cu4 Mn0 3.002649 1_554
Cu4 Mn0 3.002649 1_555
Cu4 Nd0 3.296052 1_665
Cu5 Cu8 2.757957 1_544
Cu5 Cu8 2.757957 1_545
Cu5 Mn2 2.961807 1_554
Cu5 Mn2 2.961807 1_555
Cu5 Mn1 3.002649 1_554
Cu5 Mn1 3.002649 1_555
Cu5 Nd0 3.296052 1_555
Cu6 Mn0 2.817161 1_455
Cu6 Nd0 3.331270 1_555
Cu6 Nd0 3.331270 1_556
Cu6 Nd1 3.362466 1_555
Cu7 Mn1 2.817169 1_555
Cu7 Nd0 3.331267 1_665
Cu7 Nd0 3.331267 1_666
Cu7 Nd1 3.362466 1_555
Cu8 Mn2 2.817170 1_565
Cu8 Nd0 3.331262 1_565
Cu8 Nd0 3.331262 1_566
Cu8 Nd1 3.362466 1_555
As0 Cu3 2.466576 1_455
As0 Cu0 2.471562 1_555
As0 Cu6 2.500005 1_555
As0 Cu6 2.500005 1_554
As0 Cu1 2.509594 1_555
As0 Mn0 2.786891 1_455
As0 Mn0 2.786891 1_454
As0 Nd1 3.041269 1_554
As0 Nd1 3.041269 1_555
As1 Cu4 2.466576 1_555
As1 Cu1 2.471562 1_555
As1 Cu7 2.500007 1_555
As1 Cu7 2.500007 1_554
As1 Cu2 2.509594 1_555
As1 Mn1 2.786891 1_555
As1 Mn1 2.786891 1_554
As1 Nd1 3.041274 1_555
As1 Nd1 3.041274 1_554
As2 Cu5 2.466576 1_565
As2 Cu2 2.471562 1_555
As2 Cu8 2.500011 1_554
As2 Cu8 2.500011 1_555
As2 Cu0 2.509593 1_555
As2 Mn2 2.786891 1_565
As2 Mn2 2.786891 1_564
As2 Nd1 3.041267 1_554
As2 Nd1 3.041267 1_555
As3 Cu7 2.496751 1_545
As3 Cu2 2.502245 1_545
As3 Cu2 2.502245 1_546
As3 Cu3 2.524669 1_556
As3 Cu3 2.524669 1_555
As3 Cu6 2.534434 1_655
As3 Mn2 2.584243 1_555
As3 Nd0 3.065484 1_655
As3 Nd0 3.065484 1_656
As4 Cu8 2.496754 1_655
As4 Cu0 2.502245 1_655
As4 Cu0 2.502245 1_656
As4 Cu4 2.524669 1_555
As4 Cu4 2.524669 1_556
As4 Cu7 2.534439 1_555
As4 Mn0 2.584243 1_555
As4 Nd0 3.065484 1_665
As4 Nd0 3.065484 1_666
As5 Cu6 2.496761 1_555
As5 Cu1 2.502245 1_555
As5 Cu1 2.502245 1_556
As5 Cu5 2.524669 1_555
As5 Cu5 2.524669 1_556
As5 Cu8 2.534429 1_545
As5 Mn1 2.584243 1_555
As5 Nd0 3.065484 1_555
As5 Nd0 3.065484 1_556
As6 Cu3 2.436695 1_555
As6 Cu5 2.436703 1_555
As6 Cu4 2.436704 1_555
As6 Mn2 2.753893 1_554
As6 Mn2 2.753893 1_555
As6 Mn0 2.753893 1_554
As6 Mn0 2.753893 1_555
As6 Mn1 2.753899 1_554
As6 Mn1 2.753899 1_555
