# generated using pymatgen
data_Ba4In2O7
_symmetry_space_group_name_H-M   'P 1'
_cell_length_a   14.83233105
_cell_length_b   14.83233105
_cell_length_c   14.83233105
_cell_angle_alpha   163.60853586
_cell_angle_beta   163.60853586
_cell_angle_gamma   23.26148663
_symmetry_Int_Tables_number   1
_chemical_formula_structural   Ba4In2O7
_chemical_formula_sum   'Ba4 In2 O7'
_cell_volume   259.80307471
_cell_formula_units_Z   1
loop_
 _symmetry_equiv_pos_site_id
 _symmetry_equiv_pos_as_xyz
  1  'x, y, z'
loop_
 _atom_site_type_symbol
 _atom_site_label
 _atom_site_symmetry_multiplicity
 _atom_site_fract_x
 _atom_site_fract_y
 _atom_site_fract_z
 _atom_site_occupancy
  Ba  Ba0  1  0.78961200  0.78961200  0.00000000  1
  Ba  Ba1  1  0.19242700  0.19242700  0.00000000  1
  Ba  Ba2  1  0.93725100  0.93725100  0.00000000  1
  Ba  Ba3  1  0.06511100  0.06511100  0.00000000  1
  In  In0  1  0.36359400  0.36359400  0.00000000  1
  In  In1  1  0.62604100  0.62604100  0.00000000  1
  O  O0  1  0.88636400  0.38636400  0.50000000  1
  O  O1  1  0.38636400  0.88636400  0.50000000  1
  O  O2  1  0.12823300  0.62823300  0.50000000  1
  O  O3  1  0.62823300  0.12823300  0.50000000  1
  O  O4  1  0.29227300  0.29227300  0.00000000  1
  O  O5  1  0.70809600  0.70809600  0.00000000  1
  O  O6  1  0.54510100  0.54510100  0.00000000  1
loop_
_geom_bond_atom_site_label_1
_geom_bond_atom_site_label_2
_geom_bond_distance
_geom_bond_site_symmetry_2
Ba0 O5 2.368493 1_555
Ba0 O4 2.991249 1_655
Ba0 O4 2.991249 1_666
Ba0 O4 2.991249 1_565
Ba0 O4 2.991249 1_554
Ba1 O2 2.819529 1_555
Ba1 O3 2.819529 1_555
Ba1 O3 2.819529 1_454
Ba1 O2 2.819529 1_544
Ba1 O4 2.901082 1_555
Ba1 O5 3.024709 1_455
Ba1 O5 3.024709 1_556
Ba1 O5 3.024709 1_444
Ba1 O5 3.024709 1_545
Ba2 O0 2.580099 1_554
Ba2 O1 2.580099 1_554
Ba2 O0 2.580099 1_565
Ba2 O1 2.580099 1_655
Ba3 O3 2.799021 1_454
Ba3 O2 2.799021 1_544
Ba3 O2 2.799021 1_555
Ba3 O3 2.799021 1_555
Ba3 O6 3.046247 1_556
Ba3 O6 3.046247 1_444
Ba3 O6 3.046247 1_545
Ba3 O6 3.046247 1_455
In0 O4 2.072272 1_555
In0 O1 2.215515 1_555
In0 O0 2.215515 1_555
In0 O1 2.215515 1_544
In0 O0 2.215515 1_454
In1 O3 2.115385 1_565
In1 O2 2.115385 1_554
In1 O3 2.115385 1_554
In1 O2 2.115385 1_655
In1 O6 2.351757 1_555
In1 O5 2.384154 1_555
