# generated using pymatgen
data_SmC10
_symmetry_space_group_name_H-M   'P 1'
_cell_length_a   9.37735771
_cell_length_b   9.37735771
_cell_length_c   9.37735771
_cell_angle_alpha   109.47122063
_cell_angle_beta   109.47122063
_cell_angle_gamma   109.47122063
_symmetry_Int_Tables_number   1
_chemical_formula_structural   SmC10
_chemical_formula_sum   'Sm6 C60'
_cell_volume   634.77462654
_cell_formula_units_Z   6
loop_
 _symmetry_equiv_pos_site_id
 _symmetry_equiv_pos_as_xyz
  1  'x, y, z'
loop_
 _atom_site_type_symbol
 _atom_site_label
 _atom_site_symmetry_multiplicity
 _atom_site_fract_x
 _atom_site_fract_y
 _atom_site_fract_z
 _atom_site_occupancy
  Sm  Sm0  1  0.74697800  0.24697800  0.50000000  1
  Sm  Sm1  1  0.50000000  0.25302200  0.75302200  1
  Sm  Sm2  1  0.24697800  0.50000000  0.74697800  1
  Sm  Sm3  1  0.50000000  0.74697800  0.24697800  1
  Sm  Sm4  1  0.75302200  0.50000000  0.25302200  1
  Sm  Sm5  1  0.25302200  0.75302200  0.50000000  1
  C  C0  1  0.73795300  0.67043200  0.06752100  1
  C  C1  1  0.06752100  0.39708900  0.32956800  1
  C  C2  1  0.67043200  0.93247900  0.60291100  1
  C  C3  1  0.93247900  0.60291100  0.67043200  1
  C  C4  1  0.32956800  0.93247900  0.26204700  1
  C  C5  1  0.06752100  0.73795300  0.67043200  1
  C  C6  1  0.67043200  0.06752100  0.73795300  1
  C  C7  1  0.32956800  0.06752100  0.39708900  1
  C  C8  1  0.93247900  0.26204700  0.32956800  1
  C  C9  1  0.60291100  0.67043200  0.93247900  1
  C  C10  1  0.26204700  0.32956800  0.93247900  1
  C  C11  1  0.39708900  0.32956800  0.06752100  1
  C  C12  1  0.84962400  0.82510400  0.24098900  1
  C  C13  1  0.02451900  0.41588500  0.17489600  1
  C  C14  1  0.60863400  0.75901100  0.58411500  1
  C  C15  1  0.75901100  0.58411500  0.60863400  1
  C  C16  1  0.39136600  0.97548100  0.15037600  1
  C  C17  1  0.24098900  0.84962400  0.82510400  1
  C  C18  1  0.82510400  0.24098900  0.84962400  1
  C  C19  1  0.17489600  0.02451900  0.41588500  1
  C  C20  1  0.97548100  0.15037600  0.39136600  1
  C  C21  1  0.58411500  0.60863400  0.75901100  1
  C  C22  1  0.15037600  0.39136600  0.97548100  1
  C  C23  1  0.41588500  0.17489600  0.02451900  1
  C  C24  1  0.15037600  0.17489600  0.75901100  1
  C  C25  1  0.97548100  0.58411500  0.82510400  1
  C  C26  1  0.39136600  0.24098900  0.41588500  1
  C  C27  1  0.24098900  0.41588500  0.39136600  1
  C  C28  1  0.60863400  0.02451900  0.84962400  1
  C  C29  1  0.75901100  0.15037600  0.17489600  1
  C  C30  1  0.17489600  0.75901100  0.15037600  1
  C  C31  1  0.82510400  0.97548100  0.58411500  1
  C  C32  1  0.02451900  0.84962400  0.60863400  1
  C  C33  1  0.41588500  0.39136600  0.24098900  1
  C  C34  1  0.84962400  0.60863400  0.02451900  1
  C  C35  1  0.58411500  0.82510400  0.97548100  1
  C  C36  1  0.82648200  0.97446800  0.28139500  1
  C  C37  1  0.85201400  0.30692600  0.02553200  1
  C  C38  1  0.54508700  0.71860500  0.69307400  1
  C  C39  1  0.71860500  0.69307400  0.54508700  1
  C  C40  1  0.45491300  0.14798600  0.17351800  1
  C  C41  1  0.28139500  0.82648200  0.97446800  1
  C  C42  1  0.97446800  0.28139500  0.82648200  1
  C  C43  1  0.02553200  0.85201400  0.30692600  1
  C  C44  1  0.14798600  0.17351800  0.45491300  1
  C  C45  1  0.69307400  0.54508700  0.71860500  1
  C  C46  1  0.17351800  0.45491300  0.14798600  1
  C  C47  1  0.30692600  0.02553200  0.85201400  1
  C  C48  1  0.17351800  0.02553200  0.71860500  1
  C  C49  1  0.14798600  0.69307400  0.97446800  1
  C  C50  1  0.45491300  0.28139500  0.30692600  1
  C  C51  1  0.28139500  0.30692600  0.45491300  1
  C  C52  1  0.54508700  0.85201400  0.82648200  1
  C  C53  1  0.71860500  0.17351800  0.02553200  1
  C  C54  1  0.02553200  0.71860500  0.17351800  1
  C  C55  1  0.97446800  0.14798600  0.69307400  1
  C  C56  1  0.85201400  0.82648200  0.54508700  1
  C  C57  1  0.30692600  0.45491300  0.28139500  1
  C  C58  1  0.82648200  0.54508700  0.85201400  1
  C  C59  1  0.69307400  0.97446800  0.14798600  1
loop_
_geom_bond_atom_site_label_1
_geom_bond_atom_site_label_2
_geom_bond_distance
_geom_bond_site_symmetry_2
C0 C12 1.457832 1_555
C0 C34 1.457841 1_555
C0 C9 1.462240 1_554
C0 Sm4 2.727671 1_555
C0 Sm3 3.330468 1_555
C0 Sm1 3.330468 1_554
C1 C13 1.457832 1_555
C1 C27 1.457832 1_555
C1 C8 1.462240 1_455
C1 Sm5 2.727671 1_555
C1 Sm4 3.330468 1_455
C1 Sm2 3.330468 1_555
C2 C31 1.457832 1_555
C2 C6 1.462240 1_565
C2 Sm3 2.727671 1_555
C2 Sm0 3.330468 1_565
C2 Sm5 3.330468 1_555
C3 C5 1.462240 1_655
C3 Sm0 2.727671 1_555
C3 Sm2 3.330468 1_655
C3 Sm4 3.330468 1_555
C4 C7 1.462240 1_565
C4 Sm3 2.727671 1_555
C4 Sm0 3.330468 1_565
C4 Sm5 3.330468 1_555
C5 Sm5 2.727671 1_555
C5 Sm2 3.330468 1_555
C5 Sm4 3.330468 1_455
C6 Sm1 2.727671 1_555
C6 Sm0 3.330468 1_555
C6 Sm5 3.330468 1_545
C7 Sm1 2.727671 1_555
C7 Sm5 3.330468 1_545
C7 Sm0 3.330468 1_555
C8 Sm0 2.727671 1_555
C8 Sm2 3.330468 1_655
C8 Sm4 3.330468 1_555
C9 Sm2 2.727671 1_555
C9 Sm3 3.330468 1_556
C9 Sm1 3.330468 1_555
C10 C24 1.457832 1_555
C10 C22 1.457841 1_555
C10 C11 1.462240 1_556
C10 Sm2 2.727671 1_555
C10 Sm3 3.330468 1_556
C10 Sm1 3.330468 1_555
C11 C23 1.457832 1_555
C11 C33 1.457832 1_555
C11 Sm4 2.727671 1_555
C11 Sm1 3.330468 1_554
C11 Sm3 3.330468 1_555
C12 C36 1.433911 1_555
C12 C43 1.451044 1_655
C12 Sm4 2.929807 1_555
C12 Sm3 3.136506 1_555
C13 C37 1.433906 1_455
C13 C46 1.451053 1_555
C13 Sm5 2.929808 1_555
C13 Sm4 3.136497 1_455
C14 C38 1.433915 1_555
C14 C39 1.451047 1_555
C14 C2 1.457832 1_555
C14 Sm3 2.929808 1_555
C14 Sm5 3.136497 1_555
C15 C39 1.433915 1_555
C15 C45 1.451047 1_555
C15 C3 1.457832 1_555
C15 Sm0 2.929808 1_555
C15 Sm4 3.136497 1_555
C16 C40 1.433903 1_565
C16 C41 1.451047 1_554
C16 C4 1.457841 1_555
C16 Sm3 2.929812 1_555
C16 Sm0 3.136501 1_565
C17 C41 1.433911 1_555
C17 C47 1.451044 1_565
C17 C5 1.457832 1_555
C17 Sm5 2.929807 1_555
C17 Sm2 3.136506 1_555
C18 C42 1.433911 1_555
C18 C37 1.451044 1_556
C18 C6 1.457832 1_555
C18 Sm1 2.929807 1_555
C18 Sm0 3.136506 1_555
C19 C43 1.433906 1_545
C19 C44 1.451053 1_555
C19 C7 1.457832 1_555
C19 Sm1 2.929808 1_555
C19 Sm5 3.136497 1_545
C20 C44 1.433903 1_655
C20 C36 1.451047 1_545
C20 C8 1.457841 1_555
C20 Sm0 2.929812 1_555
C20 Sm2 3.136501 1_655
C21 C45 1.433915 1_555
C21 C38 1.451047 1_555
C21 C9 1.457832 1_555
C21 Sm2 2.929808 1_555
C21 Sm1 3.136497 1_555
C22 C46 1.433903 1_556
C22 C42 1.451047 1_455
C22 Sm2 2.929812 1_555
C22 Sm3 3.136501 1_556
C23 C47 1.433906 1_554
C23 C40 1.451053 1_555
C23 Sm4 2.929808 1_555
C23 Sm1 3.136497 1_554
C24 C48 1.433911 1_555
C24 C55 1.451044 1_455
C24 Sm2 2.929807 1_555
C24 Sm1 3.136506 1_555
C25 C49 1.433906 1_655
C25 C58 1.451053 1_555
C25 C3 1.457832 1_555
C25 Sm0 2.929808 1_555
C25 Sm2 3.136497 1_655
C26 C50 1.433915 1_555
C26 C51 1.451047 1_555
C26 C7 1.457832 1_555
C26 Sm1 2.929808 1_555
C26 Sm0 3.136497 1_555
C27 C51 1.433915 1_555
C27 C57 1.451047 1_555
C27 Sm5 2.929808 1_555
C27 Sm2 3.136497 1_555
C28 C52 1.433903 1_545
C28 C53 1.451047 1_556
C28 C6 1.457841 1_555
C28 Sm1 2.929812 1_555
C28 Sm5 3.136501 1_545
C29 C53 1.433911 1_555
C29 C59 1.451044 1_545
C29 C8 1.457832 1_555
C29 Sm0 2.929807 1_555
C29 Sm4 3.136506 1_555
C30 C54 1.433911 1_555
C30 C49 1.451044 1_554
C30 C4 1.457832 1_555
C30 Sm3 2.929807 1_555
C30 Sm5 3.136506 1_555
C31 C55 1.433906 1_565
C31 C56 1.451053 1_555
C31 Sm3 2.929808 1_555
C31 Sm0 3.136497 1_565
C32 C56 1.433903 1_455
C32 C48 1.451047 1_565
C32 C5 1.457841 1_555
C32 Sm5 2.929812 1_555
C32 Sm4 3.136501 1_455
C33 C57 1.433915 1_555
C33 C50 1.451047 1_555
C33 Sm4 2.929808 1_555
C33 Sm3 3.136497 1_555
C34 C58 1.433903 1_554
C34 C54 1.451047 1_655
C34 Sm4 2.929812 1_555
C34 Sm1 3.136501 1_554
C35 C59 1.433906 1_556
C35 C52 1.451053 1_555
C35 C9 1.457832 1_555
C35 Sm2 2.929808 1_555
C35 Sm3 3.136497 1_556
C36 C59 1.444553 1_555
C36 Sm3 2.925101 1_555
C36 Sm0 3.175678 1_565
C37 C53 1.444553 1_555
C37 Sm4 2.925105 1_555
C37 Sm1 3.175683 1_554
C38 C52 1.444553 1_555
C38 Sm5 2.925104 1_555
C38 Sm2 3.175672 1_555
C39 C56 1.444553 1_555
C39 Sm4 2.925104 1_555
C39 Sm3 3.175672 1_555
C40 C50 1.444553 1_555
C40 Sm0 2.925101 1_555
C40 Sm4 3.175678 1_555
C41 C49 1.444553 1_555
C41 Sm2 2.925101 1_555
C41 Sm3 3.175678 1_556
C42 C55 1.444553 1_555
C42 Sm0 2.925101 1_555
C42 Sm2 3.175678 1_655
C43 C54 1.444553 1_555
C43 Sm5 2.925105 1_555
C43 Sm4 3.175683 1_455
C44 C51 1.444553 1_555
C44 Sm2 2.925101 1_555
C44 Sm1 3.175678 1_555
C45 C58 1.444553 1_555
C45 Sm1 2.925104 1_555
C45 Sm0 3.175672 1_555
C46 C57 1.444553 1_555
C46 Sm3 2.925101 1_555
C46 Sm5 3.175678 1_555
C47 C48 1.444553 1_555
C47 Sm1 2.925105 1_555
C47 Sm5 3.175683 1_545
C48 Sm1 2.925101 1_555
C48 Sm5 3.175678 1_545
C49 Sm2 2.925105 1_555
C49 Sm3 3.175683 1_556
C50 Sm0 2.925104 1_555
C50 Sm4 3.175672 1_555
C51 Sm2 2.925104 1_555
C51 Sm1 3.175672 1_555
C52 Sm5 2.925101 1_555
C52 Sm2 3.175678 1_555
C53 Sm4 2.925101 1_555
C53 Sm1 3.175678 1_554
C54 Sm5 2.925101 1_555
C54 Sm4 3.175678 1_455
C55 Sm0 2.925105 1_555
C55 Sm2 3.175683 1_655
C56 Sm4 2.925101 1_555
C56 Sm3 3.175678 1_555
C57 Sm3 2.925104 1_555
C57 Sm5 3.175672 1_555
C58 Sm1 2.925101 1_555
C58 Sm0 3.175678 1_555
C59 Sm3 2.925105 1_555
C59 Sm0 3.175683 1_565
