# generated using pymatgen
data_Ba3SrMg2(Si2O7)2
_symmetry_space_group_name_H-M   'P 1'
_cell_length_a   8.26320210
_cell_length_b   8.26320210
_cell_length_c   5.41676652
_cell_angle_alpha   89.65588287
_cell_angle_beta   89.65588287
_cell_angle_gamma   90.90256771
_symmetry_Int_Tables_number   1
_chemical_formula_structural   Ba3SrMg2(Si2O7)2
_chemical_formula_sum   'Ba3 Sr1 Mg2 Si4 O14'
_cell_volume   369.80013225
_cell_formula_units_Z   1
loop_
 _symmetry_equiv_pos_site_id
 _symmetry_equiv_pos_as_xyz
  1  'x, y, z'
loop_
 _atom_site_type_symbol
 _atom_site_label
 _atom_site_symmetry_multiplicity
 _atom_site_fract_x
 _atom_site_fract_y
 _atom_site_fract_z
 _atom_site_occupancy
  Ba  Ba0  1  0.16648600  0.83434600  0.49010200  1
  Ba  Ba1  1  0.66260300  0.66260300  0.51176700  1
  Ba  Ba2  1  0.83434600  0.16648600  0.49010200  1
  Sr  Sr0  1  0.33164800  0.33164800  0.50901400  1
  Mg  Mg0  1  0.49922700  0.00233000  0.99708100  1
  Mg  Mg1  1  0.00233000  0.49922700  0.99708100  1
  Si  Si0  1  0.14377100  0.14377100  0.94974200  1
  Si  Si1  1  0.36124900  0.63101200  0.04833900  1
  Si  Si2  1  0.86406600  0.86406600  0.95541300  1
  Si  Si3  1  0.63101200  0.36124900  0.04833900  1
  O  O0  1  0.49481000  0.49481000  0.15454500  1
  O  O1  1  0.00373400  0.00373400  0.86266300  1
  O  O2  1  0.15070300  0.15070300  0.25000300  1
  O  O3  1  0.35880300  0.62942100  0.74800200  1
  O  O4  1  0.86050200  0.86050200  0.25483100  1
  O  O5  1  0.62942100  0.35880300  0.74800200  1
  O  O6  1  0.31103000  0.08619500  0.80999400  1
  O  O7  1  0.19262000  0.57232800  0.18793100  1
  O  O8  1  0.69542000  0.92285600  0.82238500  1
  O  O9  1  0.80371300  0.42164800  0.17217500  1
  O  O10  1  0.57232800  0.19262000  0.18793100  1
  O  O11  1  0.92285600  0.69542000  0.82238500  1
  O  O12  1  0.42164800  0.80371300  0.17217500  1
  O  O13  1  0.08619500  0.31103000  0.80999400  1
loop_
_geom_bond_atom_site_label_1
_geom_bond_atom_site_label_2
_geom_bond_distance
_geom_bond_site_symmetry_2
Ba0 O3 2.725325 1_555
Ba0 O12 2.730173 1_555
Ba0 O7 2.732482 1_555
Ba0 O1 2.810875 1_565
Ba0 O4 2.848910 1_455
Ba0 O11 2.910182 1_455
Ba0 O2 2.917883 1_565
Ba0 O6 2.958018 1_565
Ba1 O4 2.673267 1_555
Ba1 O11 2.749512 1_555
Ba1 O8 2.749512 1_555
Ba1 O0 2.755517 1_555
Ba1 O3 2.819585 1_555
Ba1 O5 2.819585 1_555
Ba1 O12 2.966314 1_555
Ba1 O9 2.966314 1_555
Ba2 O5 2.725325 1_555
Ba2 O9 2.730173 1_555
Ba2 O10 2.732482 1_555
Ba2 O1 2.810875 1_655
Ba2 O4 2.848910 1_545
Ba2 O8 2.910182 1_545
Ba2 O2 2.917883 1_655
Ba2 O13 2.958018 1_655
Mg0 O10 1.975641 1_556
Mg0 O12 1.986183 1_546
Mg0 O6 1.992497 1_555
Mg0 O8 1.994377 1_545
Mg1 O7 1.975641 1_556
Mg1 O9 1.986183 1_456
Mg1 O13 1.992497 1_555
Mg1 O11 1.994377 1_455
O0 Si3 1.689568 1_555
O0 Si1 1.689568 1_555
O0 Sr0 2.683792 1_555
O1 Si2 1.691282 1_445
O1 Si0 1.694529 1_555
O2 Si0 1.629115 1_554
O2 Sr0 2.533681 1_555
O3 Si1 1.627232 1_556
O3 Sr0 2.793724 1_555
O4 Si2 1.622050 1_554
O5 Si3 1.627232 1_556
O5 Sr0 2.793724 1_555
O6 Si0 1.649858 1_555
O6 Sr0 2.597459 1_555
O7 Si1 1.646253 1_555
O7 Sr0 2.890400 1_555
O8 Si2 1.651186 1_555
O9 Si3 1.651860 1_555
O10 Si3 1.646253 1_555
O10 Sr0 2.890400 1_555
O11 Si2 1.651186 1_555
O12 Si1 1.651860 1_555
O13 Si0 1.649858 1_555
O13 Sr0 2.597459 1_555
