# generated using pymatgen
data_CsTbSiS4
_symmetry_space_group_name_H-M   'P 1'
_cell_length_a   6.39746200
_cell_length_b   6.74206900
_cell_length_c   17.84204000
_cell_angle_alpha   90.00000000
_cell_angle_beta   90.00000000
_cell_angle_gamma   90.00000000
_symmetry_Int_Tables_number   1
_chemical_formula_structural   CsTbSiS4
_chemical_formula_sum   'Cs4 Tb4 Si4 S16'
_cell_volume   769.56519283
_cell_formula_units_Z   4
loop_
 _symmetry_equiv_pos_site_id
 _symmetry_equiv_pos_as_xyz
  1  'x, y, z'
loop_
 _atom_site_type_symbol
 _atom_site_label
 _atom_site_symmetry_multiplicity
 _atom_site_fract_x
 _atom_site_fract_y
 _atom_site_fract_z
 _atom_site_occupancy
  Cs  Cs0  1  0.50256800  0.49265700  0.96788600  1
  Cs  Cs1  1  0.99743200  0.50734300  0.46788600  1
  Cs  Cs2  1  0.00256800  0.00734300  0.03211400  1
  Cs  Cs3  1  0.49743200  0.99265700  0.53211400  1
  Tb  Tb0  1  0.29250500  0.48203100  0.22823300  1
  Tb  Tb1  1  0.20749500  0.51796900  0.72823300  1
  Tb  Tb2  1  0.79250500  0.01796900  0.77176700  1
  Tb  Tb3  1  0.70749500  0.98203100  0.27176700  1
  Si  Si0  1  0.78989000  0.51649600  0.16676300  1
  Si  Si1  1  0.71011000  0.48350400  0.66676300  1
  Si  Si2  1  0.28989000  0.98350400  0.83323700  1
  Si  Si3  1  0.21011000  0.01649600  0.33323700  1
  S  S0  1  0.05426100  0.51214400  0.09575300  1
  S  S1  1  0.44573900  0.48785600  0.59575300  1
  S  S2  1  0.55426100  0.98785600  0.90424700  1
  S  S3  1  0.94573900  0.01214400  0.40424700  1
  S  S4  1  0.61037500  0.43032300  0.77939800  1
  S  S5  1  0.88962500  0.56967700  0.27939800  1
  S  S6  1  0.11037500  0.06967700  0.22060200  1
  S  S7  1  0.38962500  0.93032300  0.72060200  1
  S  S8  1  0.56989400  0.74968200  0.14656600  1
  S  S9  1  0.93010600  0.25031800  0.64656600  1
  S  S10  1  0.06989400  0.75031800  0.85343400  1
  S  S11  1  0.43010600  0.24968200  0.35343400  1
  S  S12  1  0.60314700  0.25399900  0.15469000  1
  S  S13  1  0.89685300  0.74600100  0.65469000  1
  S  S14  1  0.10314700  0.24600100  0.84531000  1
  S  S15  1  0.39685300  0.75399900  0.34531000  1
loop_
_geom_bond_atom_site_label_1
_geom_bond_atom_site_label_2
_geom_bond_distance
_geom_bond_site_symmetry_2
Cs0 S4 3.458631 1_555
Cs0 S2 3.541935 1_555
Cs0 S2 3.603022 1_545
Cs0 S8 3.654016 1_556
Cs0 S0 3.667106 1_556
Cs0 S14 3.752057 1_555
Cs0 S12 3.756557 1_556
Cs0 S10 3.853526 1_555
Cs1 S5 3.458631 1_555
Cs1 S3 3.541935 1_555
Cs1 S3 3.603022 1_565
Cs1 S9 3.654016 1_555
Cs1 S1 3.667106 1_655
Cs1 S15 3.752057 1_655
Cs1 S13 3.756557 1_555
Cs1 S11 3.853526 1_655
Cs2 S6 3.458631 1_555
Cs2 S0 3.541935 1_545
Cs2 S0 3.603022 1_555
Cs2 S10 3.654016 1_544
Cs2 S2 3.667106 1_444
Cs2 S12 3.752057 1_455
Cs2 S14 3.756557 1_554
Cs2 S8 3.853526 1_445
Cs3 S7 3.458631 1_555
Cs3 S1 3.541935 1_565
Cs3 S1 3.603022 1_555
Cs3 S11 3.654016 1_565
Cs3 S3 3.667106 1_565
Cs3 S13 3.752057 1_555
Cs3 S15 3.756557 1_555
Cs3 S9 3.853526 1_565
S0 Si0 2.113425 1_455
S0 Tb0 2.819825 1_555
S1 Si1 2.113425 1_555
S1 Tb1 2.819825 1_555
S2 Si2 2.113425 1_555
S2 Tb2 2.819825 1_565
S3 Si3 2.113425 1_655
S3 Tb3 2.819825 1_545
S4 Si1 2.138764 1_555
S4 Tb1 2.797425 1_555
S4 Tb2 3.017486 1_555
S5 Si0 2.138764 1_555
S5 Tb0 2.797425 1_655
S5 Tb3 3.017486 1_555
S6 Si3 2.138764 1_555
S6 Tb3 2.797425 1_445
S6 Tb0 3.017486 1_555
S7 Si2 2.138764 1_555
S7 Tb2 2.797425 1_565
S7 Tb1 3.017486 1_555
S8 Si0 2.140643 1_555
S8 Tb3 2.866868 1_555
S8 Tb0 2.920378 1_555
S9 Si1 2.140643 1_555
S9 Tb2 2.866868 1_555
S9 Tb1 2.920378 1_655
S10 Si2 2.140643 1_555
S10 Tb1 2.866868 1_555
S10 Tb2 2.920378 1_465
S11 Si3 2.140643 1_555
S11 Tb0 2.866868 1_555
S11 Tb3 2.920378 1_545
S12 Si0 2.146103 1_555
S12 Tb0 2.834576 1_555
S12 Tb3 2.858548 1_545
S13 Si1 2.146103 1_555
S13 Tb1 2.834576 1_655
S13 Tb2 2.858548 1_565
S14 Si2 2.146103 1_545
S14 Tb2 2.834576 1_455
S14 Tb1 2.858548 1_555
S15 Si3 2.146103 1_565
S15 Tb3 2.834576 1_555
S15 Tb0 2.858548 1_555
