# generated using pymatgen
data_Dy3Ge5
_symmetry_space_group_name_H-M   'P 1'
_cell_length_a   6.88476382
_cell_length_b   6.88480106
_cell_length_c   8.28088715
_cell_angle_alpha   90.00000000
_cell_angle_beta   90.00000000
_cell_angle_gamma   119.99896670
_symmetry_Int_Tables_number   1
_chemical_formula_structural   Dy3Ge5
_chemical_formula_sum   'Dy6 Ge10'
_cell_volume   339.93232286
_cell_formula_units_Z   2
loop_
 _symmetry_equiv_pos_site_id
 _symmetry_equiv_pos_as_xyz
  1  'x, y, z'
loop_
 _atom_site_type_symbol
 _atom_site_label
 _atom_site_symmetry_multiplicity
 _atom_site_fract_x
 _atom_site_fract_y
 _atom_site_fract_z
 _atom_site_occupancy
  Dy  Dy0  1  0.66715071  0.66715071  0.00000000  1
  Dy  Dy1  1  0.33286229  0.00000647  -0.00000185  1
  Dy  Dy2  1  0.00000747  0.33286329  0.00000185  1
  Dy  Dy3  1  0.66715071  0.66715071  0.50000000  1
  Dy  Dy4  1  0.33286229  0.00000647  0.50000185  1
  Dy  Dy5  1  0.00000747  0.33286329  0.49999815  1
  Ge  Ge0  1  0.66667099  0.33333656  0.75000000  1
  Ge  Ge1  1  0.33333656  0.66667199  0.25000000  1
  Ge  Ge2  1  0.00001014  0.00000951  0.75000000  1
  Ge  Ge3  1  0.00000951  0.00001014  0.25000000  1
  Ge  Ge4  1  0.60163568  0.93198768  0.75000000  1
  Ge  Ge5  1  0.06801894  0.66964868  0.75000000  1
  Ge  Ge6  1  0.33036165  0.39837921  0.75000000  1
  Ge  Ge7  1  0.93198768  0.60163568  0.25000000  1
  Ge  Ge8  1  0.66964868  0.06801894  0.25000000  1
  Ge  Ge9  1  0.39837821  0.33036165  0.25000000  1
loop_
_geom_bond_atom_site_label_1
_geom_bond_atom_site_label_2
_geom_bond_distance
_geom_bond_site_symmetry_2
Dy0 Ge7 2.938749 1_555
Dy0 Ge4 2.938755 1_554
Dy0 Ge6 2.965783 1_554
Dy0 Ge9 2.965788 1_555
Dy0 Ge2 3.088317 1_664
Dy0 Ge3 3.088317 1_665
Dy0 Ge1 3.091945 1_555
Dy0 Ge0 3.091952 1_554
Dy0 Ge5 3.443197 1_654
Dy0 Ge8 3.443209 1_565
Dy1 Ge9 2.938791 1_555
Dy1 Ge5 2.938798 1_544
Dy1 Ge4 2.965757 1_544
Dy1 Ge8 2.965769 1_555
Dy1 Ge2 3.088247 1_554
Dy1 Ge3 3.088273 1_555
Dy1 Ge0 3.091938 1_554
Dy1 Ge1 3.091948 1_545
Dy1 Ge6 3.443220 1_554
Dy1 Ge7 3.443265 1_445
Dy2 Ge6 2.938777 1_554
Dy2 Ge8 2.938799 1_455
Dy2 Ge7 2.965761 1_455
Dy2 Ge5 2.965775 1_554
Dy2 Ge3 3.088259 1_555
Dy2 Ge2 3.088285 1_554
Dy2 Ge1 3.091936 1_555
Dy2 Ge0 3.091946 1_454
Dy2 Ge9 3.443200 1_555
Dy2 Ge4 3.443271 1_444
Dy3 Ge7 2.938749 1_555
Dy3 Ge4 2.938755 1_555
Dy3 Ge6 2.965783 1_555
Dy3 Ge9 2.965788 1_555
Dy3 Ge2 3.088317 1_665
Dy3 Ge3 3.088317 1_665
Dy3 Ge1 3.091945 1_555
Dy3 Ge0 3.091952 1_555
Dy3 Ge5 3.443197 1_655
Dy3 Ge8 3.443209 1_565
Dy4 Ge9 2.938791 1_555
Dy4 Ge5 2.938798 1_545
Dy4 Ge4 2.965757 1_545
Dy4 Ge8 2.965769 1_555
Dy4 Ge2 3.088247 1_555
Dy4 Ge3 3.088273 1_555
Dy4 Ge0 3.091938 1_555
Dy4 Ge1 3.091948 1_545
Dy4 Ge6 3.443220 1_555
Dy4 Ge7 3.443265 1_445
Dy5 Ge6 2.938777 1_555
Dy5 Ge8 2.938799 1_455
Dy5 Ge7 2.965761 1_455
Dy5 Ge5 2.965775 1_555
Dy5 Ge3 3.088259 1_555
Dy5 Ge2 3.088285 1_555
Dy5 Ge1 3.091936 1_555
Dy5 Ge0 3.091946 1_455
Dy5 Ge9 3.443200 1_555
Dy5 Ge4 3.443271 1_445
Ge0 Ge6 2.568750 1_555
Ge0 Ge4 2.568774 1_545
Ge0 Ge5 2.568788 1_655
Ge1 Ge7 2.568756 1_455
Ge1 Ge9 2.568763 1_555
Ge1 Ge8 2.568788 1_565
Ge2 Ge5 2.541136 1_545
Ge2 Ge4 2.541138 1_445
Ge2 Ge6 2.541155 1_555
Ge3 Ge8 2.541125 1_455
Ge3 Ge9 2.541146 1_555
Ge3 Ge7 2.541154 1_445
