# generated using pymatgen
data_Bi2O3
_symmetry_space_group_name_H-M   'P 1'
_cell_length_a   5.89112637
_cell_length_b   5.89112637
_cell_length_c   5.89112576
_cell_angle_alpha   65.06655009
_cell_angle_beta   65.06655009
_cell_angle_gamma   65.06655648
_symmetry_Int_Tables_number   1
_chemical_formula_structural   Bi2O3
_chemical_formula_sum   'Bi4 O6'
_cell_volume   160.55631417
_cell_formula_units_Z   2
loop_
 _symmetry_equiv_pos_site_id
 _symmetry_equiv_pos_as_xyz
  1  'x, y, z'
loop_
 _atom_site_type_symbol
 _atom_site_label
 _atom_site_symmetry_multiplicity
 _atom_site_fract_x
 _atom_site_fract_y
 _atom_site_fract_z
 _atom_site_occupancy
  Bi  Bi0  1  0.86514199  0.86514199  0.86514199  1
  Bi  Bi1  1  0.63485801  0.63485801  0.63485801  1
  Bi  Bi2  1  0.36514199  0.36514199  0.36514199  1
  Bi  Bi3  1  0.13485801  0.13485801  0.13485801  1
  O  O0  1  0.50223976  0.99776024  0.25000000  1
  O  O1  1  0.25000000  0.50223976  0.99776024  1
  O  O2  1  0.99776024  0.25000000  0.50223976  1
  O  O3  1  0.00223976  0.75000000  0.49776024  1
  O  O4  1  0.75000000  0.49776024  0.00223976  1
  O  O5  1  0.49776024  0.00223976  0.75000000  1
loop_
_geom_bond_atom_site_label_1
_geom_bond_atom_site_label_2
_geom_bond_distance
_geom_bond_site_symmetry_2
Bi0 O3 2.258020 1_655
Bi0 O4 2.258020 1_556
Bi0 O5 2.258020 1_565
Bi0 O2 2.513929 1_565
Bi0 O0 2.513929 1_556
Bi0 O1 2.513929 1_655
Bi1 O4 2.258020 1_556
Bi1 O3 2.258020 1_655
Bi1 O5 2.258020 1_565
Bi1 O1 2.513929 1_555
Bi1 O0 2.513929 1_555
Bi1 O2 2.513929 1_555
Bi2 O1 2.258020 1_554
Bi2 O2 2.258020 1_455
Bi2 O0 2.258020 1_545
Bi2 O4 2.513929 1_555
Bi2 O5 2.513929 1_555
Bi2 O3 2.513929 1_555
Bi3 O2 2.258020 1_455
Bi3 O1 2.258020 1_554
Bi3 O0 2.258020 1_545
Bi3 O3 2.513929 1_545
Bi3 O5 2.513929 1_554
Bi3 O4 2.513929 1_455
