# generated using pymatgen
data_Nb10(AlSi)3
_symmetry_space_group_name_H-M   'P 1'
_cell_length_a   5.15899600
_cell_length_b   7.66646701
_cell_length_c   7.68518247
_cell_angle_alpha   96.48441904
_cell_angle_beta   109.61180385
_cell_angle_gamma   70.33835011
_symmetry_Int_Tables_number   1
_chemical_formula_structural   Nb10(AlSi)3
_chemical_formula_sum   'Nb10 Al3 Si3'
_cell_volume   269.63165319
_cell_formula_units_Z   1
loop_
 _symmetry_equiv_pos_site_id
 _symmetry_equiv_pos_as_xyz
  1  'x, y, z'
loop_
 _atom_site_type_symbol
 _atom_site_label
 _atom_site_symmetry_multiplicity
 _atom_site_fract_x
 _atom_site_fract_y
 _atom_site_fract_z
 _atom_site_occupancy
  Nb  Nb0  1  0.42241300  0.85336000  0.69818500  1
  Nb  Nb1  1  0.58173800  0.14108500  0.30456100  1
  Nb  Nb2  1  0.92384700  0.29973500  0.14742900  1
  Nb  Nb3  1  0.07299400  0.70060300  0.84659100  1
  Nb  Nb4  1  0.72358200  0.70026500  0.14742900  1
  Nb  Nb5  1  0.27359700  0.29939700  0.84659100  1
  Nb  Nb6  1  0.77577200  0.14664000  0.69818500  1
  Nb  Nb7  1  0.22282300  0.85891500  0.30456100  1
  Nb  Nb8  1  0.25062600  0.50000000  0.50372500  1
  Nb  Nb9  1  0.75309900  0.50000000  0.50372500  1
  Al  Al0  1  0.25010100  0.00000000  0.00020300  1
  Al  Al1  1  0.75010100  0.00000000  0.00020300  1
  Al  Al2  1  0.33490200  0.50000000  0.16980500  1
  Si  Si0  1  0.66533400  0.50000000  0.83066700  1
  Si  Si1  1  0.83610600  0.82685800  0.49907000  1
  Si  Si2  1  0.16296400  0.17314200  0.49907000  1
loop_
_geom_bond_atom_site_label_1
_geom_bond_atom_site_label_2
_geom_bond_distance
_geom_bond_site_symmetry_2
Nb0 Si2 2.721714 1_565
Nb0 Si0 2.725404 1_555
Nb0 Si1 2.961118 1_555
Nb0 Si1 2.961123 1_455
Nb1 Si1 2.670046 1_545
Nb1 Si2 2.947910 1_655
Nb1 Si2 2.947910 1_555
Nb2 Si2 2.704742 1_655
Nb2 Si0 2.710887 1_554
Nb3 Si1 2.675857 1_455
Nb3 Si0 2.960492 1_455
Nb3 Si0 2.960496 1_555
Nb4 Si1 2.704742 1_555
Nb4 Si0 2.710887 1_554
Nb5 Si2 2.675857 1_555
Nb5 Si0 2.960492 1_455
Nb5 Si0 2.960496 1_555
Nb6 Si1 2.721714 1_545
Nb6 Si0 2.725404 1_555
Nb6 Si2 2.961118 1_555
Nb6 Si2 2.961123 1_655
Nb7 Si2 2.670046 1_565
Nb7 Si1 2.947910 1_555
Nb7 Si1 2.947910 1_455
Nb8 Nb9 2.566740 1_455
Nb8 Nb9 2.592256 1_555
Nb8 Si2 2.686368 1_555
Nb8 Si1 2.686368 1_455
Nb8 Si0 2.698504 1_555
Nb9 Si1 2.686368 1_555
Nb9 Si2 2.686368 1_655
Nb9 Si0 2.698502 1_555
Al0 Al1 2.579498 1_455
Al0 Al1 2.579498 1_555
Al0 Nb2 2.735328 1_455
Al0 Nb4 2.735330 1_545
Al0 Nb7 2.748760 1_545
Al0 Nb1 2.748763 1_555
Al0 Nb6 2.750388 1_454
Al0 Nb0 2.750390 1_544
Al0 Nb3 2.751753 1_544
Al0 Nb5 2.751756 1_554
Al1 Nb4 2.735328 1_545
Al1 Nb2 2.735330 1_555
Al1 Nb1 2.748760 1_555
Al1 Nb7 2.748763 1_645
Al1 Nb0 2.750385 1_544
Al1 Nb6 2.750388 1_554
Al1 Nb5 2.751753 1_554
Al1 Nb3 2.751756 1_644
Al2 Nb8 2.742917 1_555
Al2 Nb9 2.742919 1_555
Al2 Nb3 2.751794 1_554
Al2 Nb5 2.751794 1_554
Al2 Nb7 2.768737 1_555
Al2 Nb1 2.768737 1_555
Al2 Nb4 2.961486 1_455
Al2 Nb2 2.961486 1_455
Al2 Nb4 2.961491 1_555
Al2 Nb2 2.961491 1_555
