# generated using pymatgen
data_CuSeO5
_symmetry_space_group_name_H-M   'P 1'
_cell_length_a   6.22467500
_cell_length_b   7.96221200
_cell_length_c   10.71093777
_cell_angle_alpha   90.00000000
_cell_angle_beta   124.58675671
_cell_angle_gamma   90.00000000
_symmetry_Int_Tables_number   1
_chemical_formula_structural   CuSeO5
_chemical_formula_sum   'Cu4 Se4 O20'
_cell_volume   437.03773472
_cell_formula_units_Z   4
loop_
 _symmetry_equiv_pos_site_id
 _symmetry_equiv_pos_as_xyz
  1  'x, y, z'
loop_
 _atom_site_type_symbol
 _atom_site_label
 _atom_site_symmetry_multiplicity
 _atom_site_fract_x
 _atom_site_fract_y
 _atom_site_fract_z
 _atom_site_occupancy
  Cu  Cu0  1  0.17596800  0.14452800  0.03024300  1
  Cu  Cu1  1  0.17596800  0.35547200  0.53024300  1
  Cu  Cu2  1  0.82403200  0.85547200  0.96975700  1
  Cu  Cu3  1  0.82403200  0.64452800  0.46975700  1
  Se  Se0  1  0.21995400  0.62504600  0.33598400  1
  Se  Se1  1  0.21995400  0.87495400  0.83598400  1
  Se  Se2  1  0.78004600  0.37495400  0.66401600  1
  Se  Se3  1  0.78004600  0.12504600  0.16401600  1
  O  O0  1  0.06747100  0.80156200  0.24585100  1
  O  O1  1  0.06747100  0.69843800  0.74585100  1
  O  O2  1  0.93252900  0.19843800  0.75414900  1
  O  O3  1  0.93252900  0.30156200  0.25414900  1
  O  O4  1  0.86743200  0.09563400  0.02593200  1
  O  O5  1  0.86743200  0.40436600  0.52593200  1
  O  O6  1  0.13256800  0.90436600  0.97406800  1
  O  O7  1  0.13256800  0.59563400  0.47406800  1
  O  O8  1  0.53809800  0.69245400  0.47905900  1
  O  O9  1  0.53809800  0.80754600  0.97905900  1
  O  O10  1  0.46190200  0.30754600  0.52094100  1
  O  O11  1  0.46190200  0.19245400  0.02094100  1
  O  O12  1  0.61544500  0.97335600  0.38177300  1
  O  O13  1  0.61544500  0.52664400  0.88177300  1
  O  O14  1  0.38455500  0.02664400  0.61822700  1
  O  O15  1  0.38455500  0.47335600  0.11822700  1
  O  O16  1  0.23299700  0.37181100  0.12148400  1
  O  O17  1  0.23299700  0.12818900  0.62148400  1
  O  O18  1  0.76700300  0.62818900  0.87851600  1
  O  O19  1  0.76700300  0.87181100  0.37851600  1
loop_
_geom_bond_atom_site_label_1
_geom_bond_atom_site_label_2
_geom_bond_distance
_geom_bond_site_symmetry_2
Cu0 O11 1.877424 1_555
Cu0 O4 1.934288 1_455
Cu0 O6 1.976628 1_544
Cu0 O16 1.990515 1_555
Cu0 O2 2.477529 1_454
Cu1 O10 1.877424 1_555
Cu1 O5 1.934288 1_455
Cu1 O7 1.976628 1_555
Cu1 O17 1.990515 1_555
Cu1 O3 2.477529 1_455
Cu2 O9 1.877424 1_555
Cu2 O6 1.934288 1_655
Cu2 O4 1.976628 1_566
Cu2 O18 1.990515 1_555
Cu2 O0 2.477529 1_656
Cu3 O8 1.877424 1_555
Cu3 O7 1.934288 1_655
Cu3 O5 1.976628 1_555
Cu3 O19 1.990515 1_555
Cu3 O1 2.477529 1_655
O0 Se0 1.663705 1_555
O1 Se1 1.663705 1_555
O2 Se2 1.663705 1_555
O3 Se3 1.663705 1_555
O4 Se3 1.857836 1_555
O5 Se2 1.857836 1_555
O6 Se1 1.857836 1_555
O7 Se0 1.857836 1_555
O8 Se0 1.764324 1_555
O9 Se1 1.764324 1_555
O10 Se2 1.764324 1_555
O11 Se3 1.764324 1_555
O12 O19 1.257892 1_555
O13 O18 1.257892 1_555
O14 O17 1.257892 1_555
O15 O16 1.257892 1_555
