# generated using pymatgen
data_TiZn2IrO6
_symmetry_space_group_name_H-M   'P 1'
_cell_length_a   5.24089100
_cell_length_b   5.22239900
_cell_length_c   9.23728763
_cell_angle_alpha   55.88171086
_cell_angle_beta   90.00000000
_cell_angle_gamma   90.00000000
_symmetry_Int_Tables_number   1
_chemical_formula_structural   TiZn2IrO6
_chemical_formula_sum   'Ti2 Zn4 Ir2 O12'
_cell_volume   209.30891877
_cell_formula_units_Z   2
loop_
 _symmetry_equiv_pos_site_id
 _symmetry_equiv_pos_as_xyz
  1  'x, y, z'
loop_
 _atom_site_type_symbol
 _atom_site_label
 _atom_site_symmetry_multiplicity
 _atom_site_fract_x
 _atom_site_fract_y
 _atom_site_fract_z
 _atom_site_occupancy
  Ti  Ti0  1  0.50000000  0.00000000  0.00000000  1
  Ti  Ti1  1  0.00000000  0.00000000  0.50000000  1
  Zn  Zn0  1  0.96769800  0.25516400  0.75132500  1
  Zn  Zn1  1  0.46769800  0.74483600  0.74867500  1
  Zn  Zn2  1  0.53230200  0.25516400  0.25132500  1
  Zn  Zn3  1  0.03230200  0.74483600  0.24867500  1
  Ir  Ir0  1  0.50000000  0.50000000  0.50000000  1
  Ir  Ir1  1  0.00000000  0.50000000  0.00000000  1
  O  O0  1  0.42119500  0.63307000  0.24973900  1
  O  O1  1  0.18221100  0.89115000  0.93580200  1
  O  O2  1  0.17519900  0.25941600  0.56253900  1
  O  O3  1  0.67519900  0.74058400  0.93746100  1
  O  O4  1  0.68221100  0.10885000  0.56419800  1
  O  O5  1  0.92119500  0.36693000  0.25026100  1
  O  O6  1  0.07880500  0.63307000  0.74973900  1
  O  O7  1  0.31778900  0.89115000  0.43580200  1
  O  O8  1  0.32480100  0.25941600  0.06253900  1
  O  O9  1  0.81778900  0.10885000  0.06419800  1
  O  O10  1  0.82480100  0.74058400  0.43746100  1
  O  O11  1  0.57880500  0.36693000  0.75026100  1
loop_
_geom_bond_atom_site_label_1
_geom_bond_atom_site_label_2
_geom_bond_distance
_geom_bond_site_symmetry_2
Ir0 O10 1.998935 1_555
Ir0 O2 1.998935 1_555
Ir0 O7 2.019271 1_555
Ir0 O4 2.019271 1_555
Ir0 O11 2.048273 1_555
Ir0 O0 2.048273 1_555
Ir1 O3 1.998935 1_454
Ir1 O8 1.998935 1_555
Ir1 O1 2.019271 1_554
Ir1 O9 2.019271 1_455
Ir1 O5 2.048273 1_455
Ir1 O6 2.048273 1_554
O0 Zn2 2.049842 1_555
O0 Ti0 2.050696 1_565
O0 Zn3 2.118582 1_555
O1 Ti0 1.956236 1_566
O1 Zn0 2.036564 1_465
O2 Ti1 1.972359 1_555
O2 Zn0 2.044694 1_455
O3 Ti0 1.972359 1_566
O3 Zn1 2.044694 1_555
O4 Ti1 1.956236 1_655
O4 Zn1 2.036564 1_545
O5 Zn3 2.049842 1_655
O5 Ti1 2.050696 1_655
O5 Zn2 2.118582 1_555
O6 Zn0 2.049842 1_455
O6 Ti1 2.050696 1_565
O6 Zn1 2.118582 1_555
O7 Ti1 1.956236 1_565
O7 Zn2 2.036564 1_565
O8 Ti0 1.972359 1_555
O8 Zn2 2.044694 1_555
O9 Ti0 1.956236 1_555
O9 Zn3 2.036564 1_645
O10 Ti1 1.972359 1_665
O10 Zn3 2.044694 1_655
O11 Zn1 2.049842 1_555
O11 Ti0 2.050696 1_556
O11 Zn0 2.118582 1_555
