# generated using pymatgen
data_TaVOs2
_symmetry_space_group_name_H-M   'P 1'
_cell_length_a   10.28070412
_cell_length_b   10.28070412
_cell_length_c   10.28070412
_cell_angle_alpha   126.01985210
_cell_angle_beta   117.36824974
_cell_angle_gamma   87.26175139
_symmetry_Int_Tables_number   1
_chemical_formula_structural   TaVOs2
_chemical_formula_sum   'Ta1 V1 Os2'
_cell_volume   742.07137181
_cell_formula_units_Z   1
loop_
 _symmetry_equiv_pos_site_id
 _symmetry_equiv_pos_as_xyz
  1  'x, y, z'
loop_
 _atom_site_type_symbol
 _atom_site_label
 _atom_site_symmetry_multiplicity
 _atom_site_fract_x
 _atom_site_fract_y
 _atom_site_fract_z
 _atom_site_occupancy
  Ta  Ta0  1  0.00000000  0.50000000  0.50000000  1
  V  V0  1  0.00000000  0.00000000  0.00000000  1
  Os  Os0  1  0.00000000  0.25236700  0.25236700  1
  Os  Os1  1  0.00000000  0.74763300  0.74763300  1
loop_
_geom_bond_atom_site_label_1
_geom_bond_atom_site_label_2
_geom_bond_distance
_geom_bond_site_symmetry_2
Os0 Ta0 2.310790 1_555
Os0 V0 2.354965 1_555
Os1 Ta0 2.310790 1_555
Os1 V0 2.354965 1_566
