# generated using pymatgen
data_CsYbP2O7
_symmetry_space_group_name_H-M   'P 1'
_cell_length_a   11.15399100
_cell_length_b   7.97043100
_cell_length_c   9.05657373
_cell_angle_alpha   75.77571889
_cell_angle_beta   90.00000000
_cell_angle_gamma   90.00000000
_symmetry_Int_Tables_number   1
_chemical_formula_structural   CsYbP2O7
_chemical_formula_sum   'Cs4 Yb4 P8 O28'
_cell_volume   780.46376092
_cell_formula_units_Z   4
loop_
 _symmetry_equiv_pos_site_id
 _symmetry_equiv_pos_as_xyz
  1  'x, y, z'
loop_
 _atom_site_type_symbol
 _atom_site_label
 _atom_site_symmetry_multiplicity
 _atom_site_fract_x
 _atom_site_fract_y
 _atom_site_fract_z
 _atom_site_occupancy
  Cs  Cs0  1  0.68450300  0.80382800  0.55383500  1
  Cs  Cs1  1  0.18450300  0.19617200  0.94616500  1
  Cs  Cs2  1  0.31549700  0.19617200  0.44616500  1
  Cs  Cs3  1  0.81549700  0.80382800  0.05383500  1
  Yb  Yb0  1  0.09313300  0.76669000  0.75093800  1
  Yb  Yb1  1  0.59313300  0.23331000  0.74906200  1
  Yb  Yb2  1  0.90686700  0.23331000  0.24906200  1
  Yb  Yb3  1  0.40686700  0.76669000  0.25093800  1
  P  P0  1  0.13699400  0.57232800  0.17285500  1
  P  P1  1  0.63699400  0.42767200  0.32714500  1
  P  P2  1  0.86300600  0.42767200  0.82714500  1
  P  P3  1  0.36300600  0.57232800  0.67285500  1
  P  P4  1  0.40057400  0.85909400  0.82215400  1
  P  P5  1  0.90057400  0.14090600  0.67784600  1
  P  P6  1  0.59942600  0.14090600  0.17784600  1
  P  P7  1  0.09942600  0.85909400  0.32215400  1
  O  O0  1  0.07191900  0.66982200  0.29049800  1
  O  O1  1  0.57191900  0.33017800  0.20950200  1
  O  O2  1  0.92808100  0.33017800  0.70950200  1
  O  O3  1  0.42808100  0.66982200  0.79049800  1
  O  O4  1  0.99322700  0.01633800  0.76993600  1
  O  O5  1  0.49322700  0.98366200  0.73006400  1
  O  O6  1  0.00677300  0.98366200  0.23006400  1
  O  O7  1  0.50677300  0.01633800  0.26993600  1
  O  O8  1  0.22824500  0.56532500  0.70506800  1
  O  O9  1  0.72824500  0.43467500  0.79493200  1
  O  O10  1  0.77175500  0.43467500  0.29493200  1
  O  O11  1  0.27175500  0.56532500  0.20506800  1
  O  O12  1  0.08191800  0.83752300  0.49247500  1
  O  O13  1  0.58191800  0.16247700  0.00752500  1
  O  O14  1  0.91808200  0.16247700  0.50752500  1
  O  O15  1  0.41808200  0.83752300  0.99247500  1
  O  O16  1  0.22790400  0.91138900  0.27059700  1
  O  O17  1  0.72790400  0.08861100  0.22940300  1
  O  O18  1  0.77209600  0.08861100  0.72940300  1
  O  O19  1  0.27209600  0.91138900  0.77059700  1
  O  O20  1  0.39306300  0.67554400  0.51150300  1
  O  O21  1  0.89306300  0.32445600  0.98849700  1
  O  O22  1  0.60693700  0.32445600  0.48849700  1
  O  O23  1  0.10693700  0.67554400  0.01150300  1
  O  O24  1  0.58206200  0.60847500  0.28935800  1
  O  O25  1  0.08206200  0.39152500  0.21064200  1
  O  O26  1  0.41793800  0.39152500  0.71064200  1
  O  O27  1  0.91793800  0.60847500  0.78935800  1
loop_
_geom_bond_atom_site_label_1
_geom_bond_atom_site_label_2
_geom_bond_distance
_geom_bond_site_symmetry_2
Cs0 O5 3.205909 1_555
Cs0 O18 3.226244 1_565
Cs0 O9 3.241247 1_555
Cs0 O17 3.277536 1_565
Cs0 O7 3.357002 1_565
Cs0 O24 3.361557 1_555
Cs0 O20 3.457205 1_555
Cs0 O27 3.481590 1_555
Cs0 O3 3.576322 1_555
Cs1 O4 3.205909 1_455
Cs1 O19 3.226244 1_545
Cs1 O8 3.241247 1_555
Cs1 O16 3.277536 1_546
Cs1 O6 3.357002 1_546
Cs1 O25 3.361557 1_556
Cs1 O21 3.457205 1_455
Cs1 O26 3.481590 1_555
Cs1 O2 3.576322 1_455
Cs2 O7 3.205909 1_555
Cs2 O16 3.226244 1_545
Cs2 O11 3.241247 1_555
Cs2 O19 3.277536 1_545
Cs2 O5 3.357002 1_545
Cs2 O26 3.361557 1_555
Cs2 O22 3.457205 1_555
Cs2 O25 3.481590 1_555
Cs2 O1 3.576322 1_555
Cs3 O6 3.205909 1_655
Cs3 O17 3.226244 1_565
Cs3 O10 3.241247 1_555
Cs3 O18 3.277536 1_564
Cs3 O4 3.357002 1_564
Cs3 O27 3.361557 1_554
Cs3 O23 3.457205 1_655
Cs3 O24 3.481590 1_555
Cs3 O0 3.576322 1_655
O0 P7 1.632387 1_555
O0 P0 1.634848 1_555
O1 P6 1.632387 1_555
O1 P1 1.634848 1_555
O2 P5 1.632387 1_555
O2 P2 1.634848 1_555
O3 P4 1.632387 1_555
O3 P3 1.634848 1_555
O4 P5 1.530503 1_555
O4 Yb0 2.323562 1_645
O5 P4 1.530503 1_555
O5 Yb1 2.323562 1_565
O6 P7 1.530503 1_555
O6 Yb2 2.323562 1_465
O7 P6 1.530503 1_555
O7 Yb3 2.323562 1_545
O8 P3 1.529576 1_555
O8 Yb0 2.312427 1_555
O9 P2 1.529576 1_555
O9 Yb1 2.312427 1_555
O10 P1 1.529576 1_555
O10 Yb2 2.312427 1_555
O11 P0 1.529576 1_555
O11 Yb3 2.312427 1_555
O12 P7 1.522086 1_555
O12 Yb0 2.272494 1_555
O13 P6 1.522086 1_555
O13 Yb1 2.272494 1_554
O14 P5 1.522086 1_555
O14 Yb2 2.272494 1_555
O15 P4 1.522086 1_555
O15 Yb3 2.272494 1_556
O16 P7 1.532881 1_555
O16 Yb3 2.333959 1_555
O17 P6 1.532881 1_555
O17 Yb2 2.333959 1_555
O18 P5 1.532881 1_555
O18 Yb1 2.333959 1_555
O19 P4 1.532881 1_555
O19 Yb0 2.333959 1_555
O20 P3 1.527674 1_555
O20 Yb3 2.297337 1_555
O21 P2 1.527674 1_555
O21 Yb2 2.297337 1_556
O22 P1 1.527674 1_555
O22 Yb1 2.297337 1_555
O23 P0 1.527674 1_555
O23 Yb0 2.297337 1_554
O24 P1 1.525410 1_555
O24 Yb3 2.305268 1_555
O25 P0 1.525410 1_555
O25 Yb2 2.305268 1_455
O26 P3 1.525410 1_555
O26 Yb1 2.305268 1_555
O27 P2 1.525410 1_555
O27 Yb0 2.305268 1_655
