# generated using pymatgen
data_Li3TiMn4O8
_symmetry_space_group_name_H-M   'P 1'
_cell_length_a   6.15075393
_cell_length_b   6.06077708
_cell_length_c   10.77651917
_cell_angle_alpha   89.47386534
_cell_angle_beta   107.75335271
_cell_angle_gamma   60.87919007
_symmetry_Int_Tables_number   1
_chemical_formula_structural   Li3TiMn4O8
_chemical_formula_sum   'Li6 Ti2 Mn8 O16'
_cell_volume   328.18812261
_cell_formula_units_Z   2
loop_
 _symmetry_equiv_pos_site_id
 _symmetry_equiv_pos_as_xyz
  1  'x, y, z'
loop_
 _atom_site_type_symbol
 _atom_site_label
 _atom_site_symmetry_multiplicity
 _atom_site_fract_x
 _atom_site_fract_y
 _atom_site_fract_z
 _atom_site_occupancy
  Li  Li0  1  0.00003600  0.75007300  0.24995500  1
  Li  Li1  1  0.00008200  0.24996300  0.75012900  1
  Li  Li2  1  0.01196700  0.50118700  0.99686500  1
  Li  Li3  1  0.98818900  0.99867400  0.50318600  1
  Li  Li4  1  0.50941200  0.49006000  0.49267500  1
  Li  Li5  1  0.49079800  0.00973700  0.00747800  1
  Ti  Ti0  1  0.48299300  0.99277700  0.49990000  1
  Ti  Ti1  1  0.51731600  0.50706300  0.00007300  1
  Mn  Mn0  1  0.00806800  0.99544000  0.00247100  1
  Mn  Mn1  1  0.99209100  0.50473500  0.49752200  1
  Mn  Mn2  1  0.99990700  0.25007100  0.24994900  1
  Mn  Mn3  1  0.00015300  0.74982100  0.75002900  1
  Mn  Mn4  1  0.50001100  0.75000600  0.24990500  1
  Mn  Mn5  1  0.50004400  0.24995500  0.75004100  1
  Mn  Mn6  1  0.50006400  0.74998100  0.75007500  1
  Mn  Mn7  1  0.49953100  0.25018200  0.24993400  1
  O  O0  1  0.27088900  0.87852200  0.38503700  1
  O  O1  1  0.24791500  0.41184000  0.87297800  1
  O  O2  1  0.75206700  0.08816900  0.62701500  1
  O  O3  1  0.72905300  0.62132700  0.11495600  1
  O  O4  1  0.77865100  0.86411800  0.86350200  1
  O  O5  1  0.74205900  0.36643100  0.36731700  1
  O  O6  1  0.25773700  0.13366900  0.13271100  1
  O  O7  1  0.22146200  0.63578100  0.63655600  1
  O  O8  1  0.26450800  0.11292500  0.61122400  1
  O  O9  1  0.27385300  0.60095200  0.12215700  1
  O  O10  1  0.72663400  0.63815000  0.60977000  1
  O  O11  1  0.72922400  0.14843500  0.11006000  1
  O  O12  1  0.27045100  0.35165700  0.38987100  1
  O  O13  1  0.27339400  0.86190500  0.89015500  1
  O  O14  1  0.72592400  0.89932100  0.37778700  1
  O  O15  1  0.73551800  0.38707000  0.88871600  1
loop_
_geom_bond_atom_site_label_1
_geom_bond_atom_site_label_2
_geom_bond_distance
_geom_bond_site_symmetry_2
Li0 O0 2.303202 1_555
Li0 O3 2.304640 1_455
Li0 O11 2.316043 1_465
Li0 O12 2.316332 1_555
Li0 O9 2.346463 1_555
Li0 O14 2.348079 1_455
Li1 O13 2.274698 1_545
Li1 O10 2.276788 1_455
Li1 O1 2.299495 1_555
Li1 O2 2.300973 1_455
Li1 O15 2.399538 1_455
Li1 O8 2.401789 1_555
Li2 O9 2.102370 1_556
Li2 O4 2.138962 1_455
Li2 O1 2.147502 1_555
Li2 O15 2.163065 1_455
Li2 O6 2.168653 1_556
Li2 O3 2.304793 1_456
Li3 O14 2.102837 1_555
Li3 O7 2.138846 1_655
Li3 O2 2.147715 1_565
Li3 O8 2.162657 1_665
Li3 O5 2.169734 1_565
Li3 O0 2.304268 1_655
Li4 O12 2.077337 1_555
Li4 O10 2.083944 1_555
Li4 O5 2.141952 1_555
Li4 O0 2.142693 1_555
Li4 O2 2.309897 1_555
Li4 O7 2.549200 1_555
Li5 O11 2.075476 1_555
Li5 O13 2.084538 1_544
Li5 O3 2.141923 1_545
Li5 O6 2.142638 1_555
Li5 O1 2.311484 1_554
Li5 O4 2.549610 1_544
Mn0 O4 2.166501 1_454
Mn0 O13 2.172640 1_554
Mn0 O15 2.183447 1_464
Mn0 O11 2.197777 1_465
Mn0 O9 2.214890 1_555
Mn0 O6 2.233691 1_565
Mn1 O7 2.165519 1_655
Mn1 O10 2.172649 1_555
Mn1 O8 2.183983 1_655
Mn1 O12 2.196125 1_655
Mn1 O14 2.215582 1_555
Mn1 O5 2.235372 1_555
Mn2 O6 2.181321 1_655
Mn2 O5 2.182536 1_555
Mn2 O3 2.183591 1_555
Mn2 O0 2.185231 1_645
Mn2 O12 2.214917 1_655
Mn2 O11 2.215533 1_555
Mn3 O7 1.985168 1_555
Mn3 O4 1.986036 1_455
Mn3 O1 1.988570 1_555
Mn3 O2 1.990438 1_465
Mn3 O13 2.269069 1_555
Mn3 O10 2.269206 1_455
Mn4 O6 2.156013 1_565
Mn4 O5 2.156497 1_555
Mn4 O9 2.173575 1_555
Mn4 O14 2.174396 1_555
Mn4 O3 2.215560 1_555
Mn4 O0 2.217523 1_555
Mn5 O4 2.160883 1_545
Mn5 O7 2.160904 1_555
Mn5 O15 2.212678 1_555
Mn5 O8 2.213292 1_555
Mn5 O1 2.217800 1_555
Mn5 O2 2.218083 1_555
Mn6 O15 2.165002 1_555
Mn6 O8 2.166196 1_565
Mn6 O4 2.191056 1_555
Mn6 O7 2.191714 1_555
Mn6 O13 2.250453 1_555
Mn6 O10 2.252125 1_555
Mn7 O6 2.049175 1_555
Mn7 O5 2.051923 1_555
Mn7 O9 2.061769 1_555
Mn7 O14 2.062387 1_545
Mn7 O12 2.259899 1_555
Mn7 O11 2.261894 1_555
O0 Ti0 1.903661 1_555
O1 Ti1 2.125078 1_556
O2 Ti0 2.124401 1_545
O3 Ti1 1.902297 1_555
O8 Ti0 1.955045 1_545
O9 Ti1 2.164026 1_555
O10 Ti0 2.000862 1_555
O11 Ti1 2.020215 1_555
O12 Ti0 2.021322 1_545
O13 Ti1 2.002042 1_556
O14 Ti0 2.162011 1_555
O15 Ti1 1.954092 1_556
