# generated using pymatgen
data_Li6V3P8O29
_symmetry_space_group_name_H-M   'P 1'
_cell_length_a   9.82977170
_cell_length_b   9.82887321
_cell_length_c   13.96479057
_cell_angle_alpha   90.13104620
_cell_angle_beta   90.20971808
_cell_angle_gamma   60.00044161
_symmetry_Int_Tables_number   1
_chemical_formula_structural   Li6V3P8O29
_chemical_formula_sum   'Li12 V6 P16 O58'
_cell_volume   1168.45283238
_cell_formula_units_Z   2
loop_
 _symmetry_equiv_pos_site_id
 _symmetry_equiv_pos_as_xyz
  1  'x, y, z'
loop_
 _atom_site_type_symbol
 _atom_site_label
 _atom_site_symmetry_multiplicity
 _atom_site_fract_x
 _atom_site_fract_y
 _atom_site_fract_z
 _atom_site_occupancy
  Li  Li0  1  0.77576800  0.91726200  0.55813100  1
  Li  Li1  1  0.91345700  0.31258900  0.55619200  1
  Li  Li2  1  0.66974100  0.66269900  0.38170100  1
  Li  Li3  1  0.67077200  0.66593600  0.88718600  1
  Li  Li4  1  0.77188300  0.31467100  0.06645400  1
  Li  Li5  1  0.31425500  0.90901200  0.06372300  1
  Li  Li6  1  0.31617400  0.77192400  0.55955300  1
  Li  Li7  1  0.68432600  0.08980700  0.94310100  1
  Li  Li8  1  0.22382600  0.67778000  0.94413600  1
  Li  Li9  1  0.09408800  0.67671000  0.43524600  1
  Li  Li10  1  0.22788900  0.09570300  0.43742600  1
  Li  Li11  1  0.09301500  0.22539600  0.94304800  1
  V  V0  1  0.56595700  0.42929700  0.25474900  1
  V  V1  1  0.43153700  0.56684600  0.74775100  1
  V  V2  1  0.56950600  0.00190900  0.74753000  1
  V  V3  1  0.43535200  0.00144800  0.24878100  1
  V  V4  1  0.00083200  0.57124000  0.24437500  1
  V  V5  1  0.00236200  0.43336200  0.75097900  1
  P  P0  1  0.91181900  0.77150500  0.84038800  1
  P  P1  1  0.77044600  0.90956100  0.34182500  1
  P  P2  1  0.91183400  0.32196500  0.34115100  1
  P  P3  1  0.66342500  0.66612500  0.12748000  1
  P  P4  1  0.66871700  0.66625500  0.62606400  1
  P  P5  1  0.76813100  0.32142200  0.84527700  1
  P  P6  1  0.68514200  0.23236700  0.65899700  1
  P  P7  1  0.32354700  0.90801500  0.84160800  1
  P  P8  1  0.68181900  0.08706300  0.15771300  1
  P  P9  1  0.32012900  0.77091000  0.34239200  1
  P  P10  1  0.23388600  0.67841400  0.15860800  1
  P  P11  1  0.33096000  0.33429500  0.37272300  1
  P  P12  1  0.33330800  0.33484300  0.87299700  1
  P  P13  1  0.08583500  0.68005800  0.65581700  1
  P  P14  1  0.23227200  0.08619900  0.65770700  1
  P  P15  1  0.08835800  0.23162400  0.15769000  1
  O  O0  1  0.00076400  0.75582100  0.56456700  1
  O  O1  1  0.92058300  0.74442500  0.33964500  1
  O  O2  1  0.75454600  0.00449900  0.06662700  1
  O  O3  1  0.74333700  0.92025900  0.83884800  1
  O  O4  1  0.88734800  0.62725700  0.82684700  1
  O  O5  1  0.80693600  0.67067700  0.16916200  1
  O  O6  1  0.89558700  0.48652800  0.32514700  1
  O  O7  1  0.99644200  0.24311500  0.06832500  1
  O  O8  1  0.91939200  0.33249600  0.84423500  1
  O  O9  1  0.67467800  0.81455900  0.66356500  1
  O  O10  1  0.62611500  0.88494300  0.32475400  1
  O  O11  1  0.81706100  0.51499000  0.66835800  1
  O  O12  1  0.65688300  0.66574700  0.01968900  1
  O  O13  1  0.67255700  0.66157700  0.51849800  1
  O  O14  1  0.66412100  0.51579200  0.16737100  1
  O  O15  1  0.48948400  0.88431200  0.82527600  1
  O  O16  1  0.50927700  0.81766400  0.16595500  1
  O  O17  1  0.74713800  0.34354100  0.34188800  1
  O  O18  1  0.78436400  0.21038300  0.75622400  1
  O  O19  1  0.76988000  0.24166600  0.57452200  1
  O  O20  1  0.75208400  0.24698500  0.93495300  1
  O  O21  1  0.62703400  0.48824500  0.82533700  1
  O  O22  1  0.51468800  0.67257200  0.66361900  1
  O  O23  1  0.66849000  0.25050900  0.16306700  1
  O  O24  1  0.48775800  0.62836600  0.32730300  1
  O  O25  1  0.33150600  0.92136400  0.34393200  1
  O  O26  1  0.78899200  0.99637700  0.25008800  1
  O  O27  1  0.75790800  0.99451000  0.43241600  1
  O  O28  1  0.24668100  0.99622800  0.56777600  1
  O  O29  1  0.66456000  0.08577900  0.65912000  1
  O  O30  1  0.52288700  0.38367500  0.67693400  1
  O  O31  1  0.33693400  0.74350500  0.84016400  1
  O  O32  1  0.47834700  0.33663700  0.32855100  1
  O  O33  1  0.38250400  0.51955300  0.17296700  1
  O  O34  1  0.23897700  0.76076800  0.06930700  1
  O  O35  1  0.24336500  0.75387500  0.43126200  1
  O  O36  1  0.21382300  0.78842100  0.25042800  1
  O  O37  1  0.24896500  0.66925400  0.65997800  1
  O  O38  1  0.48342300  0.18827500  0.83213800  1
  O  O39  1  0.51896400  0.10230500  0.17559800  1
  O  O40  1  0.32667400  0.48731400  0.83289400  1
  O  O41  1  0.32416200  0.33463100  0.97936600  1
  O  O42  1  0.33171700  0.33010500  0.47931000  1
  O  O43  1  0.18279900  0.48545400  0.33343700  1
  O  O44  1  0.38321000  0.09499900  0.67803100  1
  O  O45  1  0.33367700  0.18118300  0.33125900  1
  O  O46  1  0.08616800  0.66075900  0.16259100  1
  O  O47  1  0.98933300  0.79327100  0.74379700  1
  O  O48  1  0.00589000  0.76452300  0.92475000  1
  O  O49  1  0.10121300  0.51892800  0.67397600  1
  O  O50  1  0.18165200  0.33261400  0.82925000  1
  O  O51  1  0.10433800  0.37614100  0.17668300  1
  O  O52  1  0.25039600  0.08101900  0.15714400  1
  O  O53  1  0.24399200  0.99851400  0.93046000  1
  O  O54  1  0.21514600  0.99634700  0.74971500  1
  O  O55  1  0.08496400  0.24926400  0.65827700  1
  O  O56  1  0.00592100  0.24408900  0.42992100  1
  O  O57  1  0.99995800  0.21257300  0.24987800  1
loop_
_geom_bond_atom_site_label_1
_geom_bond_atom_site_label_2
_geom_bond_distance
_geom_bond_site_symmetry_2
Li0 O27 1.886775 1_555
Li0 O0 1.976668 1_655
Li0 O29 2.029122 1_565
Li0 O9 2.279223 1_555
Li1 O19 1.878986 1_555
Li1 O56 1.945036 1_655
Li1 O55 2.049161 1_655
Li1 O11 2.328217 1_555
Li2 O13 1.910418 1_555
Li2 O24 2.117421 1_555
Li2 O10 2.157934 1_555
Li2 O6 2.170953 1_555
Li3 O12 1.855978 1_556
Li3 O4 2.142209 1_555
Li3 O15 2.168502 1_555
Li3 O21 2.173099 1_555
Li4 O7 1.953202 1_555
Li4 O23 1.976305 1_555
Li4 O20 1.993501 1_554
Li4 O14 2.218130 1_555
Li5 O34 1.937988 1_555
Li5 O52 1.972041 1_565
Li5 O53 2.026003 1_554
Li5 O16 2.187222 1_555
Li6 O28 1.957997 1_555
Li6 O35 1.967102 1_555
Li6 O37 2.025215 1_555
Li6 O22 2.225655 1_555
Li7 O2 1.890586 1_556
Li7 O20 1.968130 1_555
Li7 O3 2.064360 1_545
Li7 O38 2.304564 1_555
Li8 O48 1.886756 1_555
Li8 O34 1.963675 1_556
Li8 O31 2.120370 1_555
Li8 O40 2.246237 1_555
Li9 O35 1.960909 1_555
Li9 O1 1.996595 1_455
Li9 O0 1.999996 1_555
Li9 O43 2.161748 1_555
Li10 O56 1.927595 1_555
Li10 O25 1.983065 1_545
Li10 O28 2.031915 1_545
Li10 O45 2.208160 1_555
Li11 O7 1.958969 1_456
Li11 O53 1.974065 1_545
Li11 O8 2.029248 1_455
Li11 O50 2.308919 1_555
O0 P13 1.500483 1_555
O1 P1 1.555040 1_555
O1 V4 1.986051 1_655
O2 P8 1.486404 1_555
O3 P0 1.568264 1_555
O3 V2 1.951270 1_565
O4 P0 1.563087 1_555
O4 V5 1.969162 1_655
O5 P3 1.545258 1_555
O5 V4 1.954061 1_655
O6 P2 1.560365 1_555
O6 V4 1.977380 1_655
O7 P15 1.508924 1_655
O8 P5 1.544285 1_555
O8 V5 2.041141 1_655
O9 P4 1.576121 1_555
O9 V2 1.982390 1_565
O10 P1 1.571225 1_555
O10 V3 1.948554 1_565
O11 P4 1.585995 1_555
O11 V5 1.954520 1_655
O12 P3 1.506492 1_555
O13 P4 1.502770 1_555
O14 P3 1.577122 1_555
O14 V0 1.994105 1_555
O15 P7 1.545746 1_555
O15 V2 2.013614 1_565
O16 P3 1.596423 1_555
O16 V3 1.952663 1_565
O17 P2 1.524070 1_555
O17 V0 1.962343 1_555
O18 P5 1.607558 1_555
O18 P6 1.619370 1_555
O19 P6 1.475676 1_555
O20 P5 1.499827 1_555
O21 P5 1.553983 1_555
O21 V1 1.991894 1_555
O22 P4 1.575743 1_555
O22 V1 1.997565 1_555
O23 P8 1.546806 1_555
O23 V0 1.992771 1_555
O24 P9 1.554049 1_555
O24 V0 1.984555 1_555
O25 P9 1.537860 1_555
O25 V3 2.060434 1_565
O26 P1 1.601504 1_555
O26 P8 1.620100 1_565
O27 P1 1.485322 1_555
O28 P14 1.500082 1_565
O29 P6 1.551880 1_555
O29 V2 1.964741 1_555
O30 P6 1.564469 1_555
O30 V1 1.845909 1_555
O31 P7 1.555423 1_555
O31 V1 1.982180 1_555
O32 P11 1.587438 1_555
O32 V0 1.851592 1_555
O33 P10 1.526660 1_555
O33 V0 1.932106 1_555
O34 P10 1.502822 1_555
O35 P9 1.507238 1_555
O36 P9 1.606931 1_555
O36 P10 1.623088 1_555
O37 P13 1.554037 1_555
O37 V1 1.979764 1_555
O38 P12 1.566834 1_555
O38 V2 1.978598 1_555
O39 P8 1.552549 1_555
O39 V3 1.878341 1_555
O40 P12 1.571493 1_555
O40 V1 1.976434 1_555
O41 P12 1.488537 1_555
O42 P11 1.489017 1_555
O43 P11 1.569568 1_555
O43 V4 1.984336 1_555
O44 P14 1.553864 1_555
O44 V2 1.856911 1_555
O45 P11 1.598972 1_555
O45 V3 1.918303 1_555
O46 P10 1.547324 1_555
O46 V4 1.879325 1_555
O47 P13 1.610685 1_655
O47 P0 1.617911 1_555
O48 P0 1.475339 1_455
O49 P13 1.535417 1_555
O49 V5 1.907037 1_555
O50 P12 1.619243 1_555
O50 V5 1.878026 1_555
O51 P15 1.527665 1_555
O51 V4 1.911470 1_555
O52 P15 1.539665 1_555
O52 V3 2.029862 1_555
O53 P7 1.499600 1_555
O54 P7 1.614293 1_555
O54 P14 1.616980 1_565
O55 P14 1.531289 1_555
O55 V5 2.034000 1_555
O56 P2 1.505333 1_455
O57 P2 1.612916 1_555
O57 P15 1.618488 1_655
