# generated using pymatgen
data_Y2Ni2Sn
_symmetry_space_group_name_H-M   'P 1'
_cell_length_a   5.43894151
_cell_length_b   5.43894151
_cell_length_c   5.43894151
_cell_angle_alpha   133.75776905
_cell_angle_beta   118.08415498
_cell_angle_gamma   80.65499617
_symmetry_Int_Tables_number   1
_chemical_formula_structural   Y2Ni2Sn
_chemical_formula_sum   'Y2 Ni2 Sn1'
_cell_volume   99.10704986
_cell_formula_units_Z   1
loop_
 _symmetry_equiv_pos_site_id
 _symmetry_equiv_pos_as_xyz
  1  'x, y, z'
loop_
 _atom_site_type_symbol
 _atom_site_label
 _atom_site_symmetry_multiplicity
 _atom_site_fract_x
 _atom_site_fract_y
 _atom_site_fract_z
 _atom_site_occupancy
  Y  Y0  1  0.70322189  0.20322189  0.50000000  1
  Y  Y1  1  0.29677811  0.79677811  0.50000000  1
  Ni  Ni0  1  0.71179623  0.50000000  0.21179623  1
  Ni  Ni1  1  0.28820377  0.50000000  0.78820377  1
  Sn  Sn0  1  -0.00000000  -0.00000000  -0.00000000  1
loop_
_geom_bond_atom_site_label_1
_geom_bond_atom_site_label_2
_geom_bond_distance
_geom_bond_site_symmetry_2
Ni0 Ni1 2.370286 1_554
Ni0 Sn0 2.676225 1_655
Ni0 Sn0 2.676225 1_666
Ni0 Y0 2.942441 1_555
Ni0 Y1 2.942441 1_655
Ni0 Y1 2.967516 1_555
Ni0 Y0 2.967516 1_565
Ni0 Y1 2.967516 1_544
Ni0 Y0 2.967516 1_554
Ni1 Sn0 2.676225 1_566
Ni1 Sn0 2.676225 1_555
Ni1 Y1 2.942441 1_555
Ni1 Y0 2.942441 1_455
Ni1 Y0 2.967516 1_566
Ni1 Y0 2.967516 1_555
Ni1 Y1 2.967516 1_556
Ni1 Y1 2.967516 1_545
Sn0 Y0 3.258615 1_444
Sn0 Y1 3.258615 1_544
Sn0 Y1 3.258615 1_555
Sn0 Y0 3.258615 1_455
Sn0 Y1 3.266203 1_444
Sn0 Y1 3.266203 1_545
Sn0 Y0 3.266203 1_454
Sn0 Y0 3.266203 1_555
