# generated using pymatgen
data_Mg2VN2
_symmetry_space_group_name_H-M   'P 1'
_cell_length_a   5.40775378
_cell_length_b   5.40775378
_cell_length_c   6.02136639
_cell_angle_alpha   68.55678110
_cell_angle_beta   68.55678110
_cell_angle_gamma   49.02904165
_symmetry_Int_Tables_number   1
_chemical_formula_structural   Mg2VN2
_chemical_formula_sum   'Mg4 V2 N4'
_cell_volume   121.74930916
_cell_formula_units_Z   2
loop_
 _symmetry_equiv_pos_site_id
 _symmetry_equiv_pos_as_xyz
  1  'x, y, z'
loop_
 _atom_site_type_symbol
 _atom_site_label
 _atom_site_symmetry_multiplicity
 _atom_site_fract_x
 _atom_site_fract_y
 _atom_site_fract_z
 _atom_site_occupancy
  Mg  Mg0  1  0.32707000  0.32707000  0.10459300  1
  Mg  Mg1  1  0.67293000  0.67293000  0.89540700  1
  Mg  Mg2  1  0.98494000  0.98494000  0.25155900  1
  Mg  Mg3  1  0.01506000  0.01506000  0.74844100  1
  V  V0  1  0.64971100  0.64971100  0.38062600  1
  V  V1  1  0.35028900  0.35028900  0.61937400  1
  N  N0  1  0.82121000  0.82121000  0.10793100  1
  N  N1  1  0.17879000  0.17879000  0.89206900  1
  N  N2  1  0.50232400  0.50232400  0.72929700  1
  N  N3  1  0.49767600  0.49767600  0.27070300  1
loop_
_geom_bond_atom_site_label_1
_geom_bond_atom_site_label_2
_geom_bond_distance
_geom_bond_site_symmetry_2
Mg0 N2 2.224657 1_554
Mg0 N0 2.244429 1_455
Mg0 N0 2.244429 1_545
Mg0 N3 2.273409 1_555
Mg0 N1 2.295051 1_554
Mg1 N3 2.224657 1_556
Mg1 N1 2.244429 1_565
Mg1 N1 2.244429 1_655
Mg1 N2 2.273409 1_555
Mg1 N0 2.295051 1_556
Mg2 N0 2.112732 1_555
Mg2 N1 2.237469 1_664
Mg2 N3 2.252836 1_655
Mg2 N3 2.252836 1_565
Mg3 N1 2.112732 1_555
Mg3 N0 2.237469 1_446
Mg3 N2 2.252836 1_455
Mg3 N2 2.252836 1_545
N0 V0 1.821385 1_555
N1 V1 1.821385 1_555
N2 V1 1.863384 1_555
N2 V0 2.016037 1_555
N3 V0 1.863384 1_555
N3 V1 2.016037 1_555
