# generated using pymatgen
data_NaFeBO3
_symmetry_space_group_name_H-M   'P 1'
_cell_length_a   5.11799842
_cell_length_b   9.01573308
_cell_length_c   5.70291125
_cell_angle_alpha   89.98474562
_cell_angle_beta   79.10550244
_cell_angle_gamma   89.99416942
_symmetry_Int_Tables_number   1
_chemical_formula_structural   NaFeBO3
_chemical_formula_sum   'Na4 Fe4 B4 O12'
_cell_volume   258.40389021
_cell_formula_units_Z   4
loop_
 _symmetry_equiv_pos_site_id
 _symmetry_equiv_pos_as_xyz
  1  'x, y, z'
loop_
 _atom_site_type_symbol
 _atom_site_label
 _atom_site_symmetry_multiplicity
 _atom_site_fract_x
 _atom_site_fract_y
 _atom_site_fract_z
 _atom_site_occupancy
  Na  Na0  1  0.00035300  0.33908700  0.74986000  1
  Na  Na1  1  0.49954200  0.83949800  0.75013800  1
  Na  Na2  1  0.50043900  0.16049700  0.24984900  1
  Na  Na3  1  0.99964100  0.66092900  0.25014600  1
  Fe  Fe0  1  0.50008100  0.49977200  0.49994700  1
  Fe  Fe1  1  0.50008300  0.50017500  0.00006300  1
  Fe  Fe2  1  0.99991800  0.99999800  0.50005400  1
  Fe  Fe3  1  0.99995400  0.00001900  0.99997900  1
  B  B0  1  0.50006000  0.17327500  0.74995100  1
  B  B1  1  0.99992000  0.67325600  0.75007900  1
  B  B2  1  0.00010500  0.32674000  0.24990600  1
  B  B3  1  0.49991600  0.82673300  0.25005100  1
  O  O0  1  0.50055700  0.32890300  0.74978700  1
  O  O1  1  0.99937600  0.82888900  0.75014200  1
  O  O2  1  0.00060700  0.17111400  0.24985800  1
  O  O3  1  0.49945300  0.67110100  0.25024900  1
  O  O4  1  0.28143500  0.09975800  0.69743800  1
  O  O5  1  0.78220000  0.59940900  0.69637600  1
  O  O6  1  0.71820400  0.09938100  0.80263700  1
  O  O7  1  0.21813600  0.59978700  0.80373100  1
  O  O8  1  0.78187400  0.40020300  0.19624800  1
  O  O9  1  0.28178700  0.90063200  0.19735700  1
  O  O10  1  0.21779800  0.40059300  0.30360400  1
  O  O11  1  0.71855700  0.90025200  0.30255000  1
loop_
_geom_bond_atom_site_label_1
_geom_bond_atom_site_label_2
_geom_bond_distance
_geom_bond_site_symmetry_2
Na0 O0 2.559690 1_455
Na0 O0 2.561601 1_555
Na0 O4 2.579110 1_555
Na0 O6 2.585014 1_455
Na0 O10 2.636588 1_555
Na0 O8 2.638027 1_456
Na0 O5 2.641177 1_455
Na0 O7 2.644143 1_555
Na1 O1 2.559932 1_555
Na1 O1 2.561641 1_455
Na1 O7 2.583068 1_555
Na1 O5 2.589254 1_555
Na1 O6 2.638073 1_565
Na1 O4 2.639706 1_565
Na1 O9 2.641366 1_556
Na1 O11 2.643833 1_555
Na2 O2 2.559910 1_555
Na2 O2 2.561667 1_655
Na2 O8 2.583110 1_555
Na2 O10 2.589260 1_555
Na2 O9 2.637898 1_545
Na2 O11 2.639612 1_545
Na2 O6 2.641309 1_554
Na2 O4 2.643796 1_555
Na3 O3 2.559801 1_655
Na3 O3 2.561483 1_555
Na3 O11 2.579069 1_555
Na3 O9 2.584984 1_655
Na3 O5 2.636478 1_555
Na3 O7 2.638232 1_654
Na3 O10 2.641269 1_655
Na3 O8 2.644345 1_555
Fe0 O0 2.098432 1_555
Fe0 O3 2.101029 1_555
Fe0 O10 2.180102 1_555
Fe0 O5 2.181476 1_555
Fe0 O8 2.223040 1_555
Fe0 O7 2.225375 1_555
Fe1 O3 2.099981 1_555
Fe1 O0 2.102721 1_554
Fe1 O7 2.179995 1_554
Fe1 O8 2.180193 1_555
Fe1 O5 2.222356 1_554
Fe1 O10 2.223507 1_555
Fe2 O1 2.100313 1_555
Fe2 O2 2.100681 1_665
Fe2 O11 2.182862 1_555
Fe2 O4 2.183080 1_665
Fe2 O6 2.217985 1_565
Fe2 O9 2.218748 1_655
Fe3 O2 2.100754 1_656
Fe3 O1 2.100773 1_545
Fe3 O6 2.181988 1_555
Fe3 O9 2.182534 1_646
Fe3 O11 2.218273 1_546
Fe3 O4 2.218274 1_655
B0 O6 1.380993 1_555
B0 O4 1.381272 1_555
B0 O0 1.403103 1_555
B1 O5 1.381293 1_555
B1 O7 1.381514 1_655
B1 O1 1.403148 1_555
B2 O10 1.381191 1_555
B2 O8 1.381566 1_455
B2 O2 1.403085 1_555
B3 O9 1.380966 1_555
B3 O11 1.381321 1_555
B3 O3 1.403139 1_555
