# generated using pymatgen
data_Ba10Gd2Y3(Cu3O7)5
_symmetry_space_group_name_H-M   'P 1'
_cell_length_a   11.73657000
_cell_length_b   5.51555900
_cell_length_c   14.02090527
_cell_angle_alpha   79.64240771
_cell_angle_beta   90.00000000
_cell_angle_gamma   90.00000000
_symmetry_Int_Tables_number   1
_chemical_formula_structural   Ba10Gd2Y3(Cu3O7)5
_chemical_formula_sum   'Ba10 Gd2 Y3 Cu15 O35'
_cell_volume   892.83576626
_cell_formula_units_Z   1
loop_
 _symmetry_equiv_pos_site_id
 _symmetry_equiv_pos_as_xyz
  1  'x, y, z'
loop_
 _atom_site_type_symbol
 _atom_site_label
 _atom_site_symmetry_multiplicity
 _atom_site_fract_x
 _atom_site_fract_y
 _atom_site_fract_z
 _atom_site_occupancy
  Ba  Ba0  1  0.18123300  0.19998500  0.10001700  1
  Ba  Ba1  1  0.18155300  0.00000000  0.50000000  1
  Ba  Ba2  1  0.18146800  0.59996900  0.30011300  1
  Ba  Ba3  1  0.18123300  0.80001500  0.89998300  1
  Ba  Ba4  1  0.18146800  0.40003100  0.69988700  1
  Ba  Ba5  1  0.81876700  0.19998500  0.10001700  1
  Ba  Ba6  1  0.81844700  0.00000000  0.50000000  1
  Ba  Ba7  1  0.81853200  0.59996900  0.30011300  1
  Ba  Ba8  1  0.81876700  0.80001500  0.89998300  1
  Ba  Ba9  1  0.81853200  0.40003100  0.69988700  1
  Gd  Gd0  1  0.50000000  0.80008100  0.89969300  1
  Gd  Gd1  1  0.50000000  0.19991900  0.10030700  1
  Y  Y0  1  0.50000000  0.40019400  0.69961400  1
  Y  Y1  1  0.50000000  0.00000000  0.50000000  1
  Y  Y2  1  0.50000000  0.59980600  0.30038600  1
  Cu  Cu0  1  0.35281300  0.69994600  0.10005200  1
  Cu  Cu1  1  0.35296300  0.50000000  0.50000000  1
  Cu  Cu2  1  0.35290800  0.09991300  0.30005900  1
  Cu  Cu3  1  0.35281300  0.30005400  0.89994800  1
  Cu  Cu4  1  0.35290800  0.90008700  0.69994100  1
  Cu  Cu5  1  0.64718700  0.69994600  0.10005200  1
  Cu  Cu6  1  0.64703700  0.50000000  0.50000000  1
  Cu  Cu7  1  0.64709200  0.09991300  0.30005900  1
  Cu  Cu8  1  0.64718700  0.30005400  0.89994800  1
  Cu  Cu9  1  0.64709200  0.90008700  0.69994100  1
  Cu  Cu10  1  0.00000000  0.69990800  0.10000500  1
  Cu  Cu11  1  0.00000000  0.50000000  0.50000000  1
  Cu  Cu12  1  0.00000000  0.09997000  0.29997500  1
  Cu  Cu13  1  0.00000000  0.30009200  0.89999500  1
  Cu  Cu14  1  0.00000000  0.90003000  0.70002500  1
  O  O0  1  0.16094900  0.69995800  0.09996800  1
  O  O1  1  0.16094800  0.50000000  0.50000000  1
  O  O2  1  0.16093300  0.09993400  0.29996200  1
  O  O3  1  0.16094900  0.30004200  0.90003200  1
  O  O4  1  0.16093300  0.90006600  0.70003800  1
  O  O5  1  0.83905100  0.69995800  0.09996800  1
  O  O6  1  0.83905200  0.50000000  0.50000000  1
  O  O7  1  0.83906700  0.09993400  0.29996200  1
  O  O8  1  0.83905100  0.30004200  0.90003200  1
  O  O9  1  0.83906700  0.90006600  0.70003800  1
  O  O10  1  0.37656200  0.00000000  0.00000000  1
  O  O11  1  0.37797200  0.79999600  0.40002900  1
  O  O12  1  0.37724800  0.40106900  0.20062500  1
  O  O13  1  0.37724800  0.59893100  0.79937500  1
  O  O14  1  0.37797200  0.20000400  0.59997100  1
  O  O15  1  0.62343800  0.00000000  0.00000000  1
  O  O16  1  0.62202800  0.79999600  0.40002900  1
  O  O17  1  0.62275200  0.40106900  0.20062500  1
  O  O18  1  0.62275200  0.59893100  0.79937500  1
  O  O19  1  0.62202800  0.20000400  0.59997100  1
  O  O20  1  0.00000000  0.00000000  0.00000000  1
  O  O21  1  0.00000000  0.80009400  0.39993900  1
  O  O22  1  0.00000000  0.39985600  0.19993000  1
  O  O23  1  0.00000000  0.60014400  0.80007000  1
  O  O24  1  0.00000000  0.19990600  0.60006100  1
  O  O25  1  0.37706200  0.50000000  0.00000000  1
  O  O26  1  0.37782400  0.10141900  0.79944800  1
  O  O27  1  0.37856200  0.69997700  0.60001000  1
  O  O28  1  0.37856200  0.30002300  0.39999000  1
  O  O29  1  0.37782400  0.89858100  0.20055200  1
  O  O30  1  0.62293800  0.50000000  0.00000000  1
  O  O31  1  0.62217600  0.10141900  0.79944800  1
  O  O32  1  0.62143800  0.69997700  0.60001000  1
  O  O33  1  0.62143800  0.30002300  0.39999000  1
  O  O34  1  0.62217600  0.89858100  0.20055200  1
loop_
_geom_bond_atom_site_label_1
_geom_bond_atom_site_label_2
_geom_bond_distance
_geom_bond_site_symmetry_2
Ba0 O0 2.767765 1_555
Ba0 O0 2.768307 1_545
Ba0 O2 2.768413 1_555
Ba0 O3 2.768946 1_554
Ba0 O22 2.873568 1_555
Ba0 O20 2.874676 1_555
Ba0 O10 2.999154 1_555
Ba0 O12 3.012472 1_555
Ba0 O25 3.025355 1_555
Ba0 O29 3.038354 1_545
Ba1 O1 2.768362 1_545
Ba1 O1 2.768362 1_555
Ba1 O4 2.770002 1_545
Ba1 O2 2.770002 1_555
Ba1 O24 2.877594 1_555
Ba1 O21 2.877594 1_545
Ba1 O14 3.008648 1_555
Ba1 O11 3.008648 1_545
Ba1 O28 3.035875 1_555
Ba1 O27 3.035875 1_545
Ba2 O2 2.767720 1_565
Ba2 O1 2.767835 1_555
Ba2 O2 2.768863 1_555
Ba2 O0 2.771369 1_555
Ba2 O21 2.875592 1_555
Ba2 O22 2.878346 1_555
Ba2 O12 2.996559 1_555
Ba2 O11 3.009060 1_555
Ba2 O29 3.024152 1_555
Ba2 O28 3.035760 1_555
Ba3 O3 2.767765 1_555
Ba3 O3 2.768307 1_565
Ba3 O4 2.768413 1_555
Ba3 O0 2.768946 1_556
Ba3 O23 2.873568 1_555
Ba3 O20 2.874676 1_566
Ba3 O10 2.999154 1_566
Ba3 O13 3.012472 1_555
Ba3 O25 3.025355 1_556
Ba3 O26 3.038354 1_565
Ba4 O4 2.767720 1_545
Ba4 O1 2.767835 1_555
Ba4 O4 2.768863 1_555
Ba4 O3 2.771369 1_555
Ba4 O24 2.875592 1_555
Ba4 O23 2.878346 1_555
Ba4 O13 2.996559 1_555
Ba4 O14 3.009060 1_555
Ba4 O26 3.024152 1_555
Ba4 O27 3.035760 1_555
Ba5 O5 2.767765 1_555
Ba5 O5 2.768307 1_545
Ba5 O7 2.768413 1_555
Ba5 O8 2.768946 1_554
Ba5 O22 2.873568 1_655
Ba5 O20 2.874676 1_655
Ba5 O15 2.999154 1_555
Ba5 O17 3.012472 1_555
Ba5 O30 3.025355 1_555
Ba5 O34 3.038354 1_545
Ba6 O6 2.768362 1_545
Ba6 O6 2.768362 1_555
Ba6 O9 2.770002 1_545
Ba6 O7 2.770002 1_555
Ba6 O24 2.877594 1_655
Ba6 O21 2.877594 1_645
Ba6 O19 3.008648 1_555
Ba6 O16 3.008648 1_545
Ba6 O33 3.035875 1_555
Ba6 O32 3.035875 1_545
Ba7 O7 2.767720 1_565
Ba7 O6 2.767835 1_555
Ba7 O7 2.768863 1_555
Ba7 O5 2.771369 1_555
Ba7 O21 2.875592 1_655
Ba7 O22 2.878346 1_655
Ba7 O17 2.996559 1_555
Ba7 O16 3.009060 1_555
Ba7 O34 3.024152 1_555
Ba7 O33 3.035760 1_555
Ba8 O8 2.767765 1_555
Ba8 O8 2.768307 1_565
Ba8 O9 2.768413 1_555
Ba8 O5 2.768946 1_556
Ba8 O23 2.873568 1_655
Ba8 O20 2.874676 1_666
Ba8 O15 2.999154 1_566
Ba8 O18 3.012472 1_555
Ba8 O30 3.025355 1_556
Ba8 O31 3.038354 1_565
Ba9 O9 2.767720 1_545
Ba9 O6 2.767835 1_555
Ba9 O9 2.768863 1_555
Ba9 O8 2.771369 1_555
Ba9 O24 2.875592 1_655
Ba9 O23 2.878346 1_655
Ba9 O18 2.996559 1_555
Ba9 O19 3.009060 1_555
Ba9 O31 3.024152 1_555
Ba9 O32 3.035760 1_555
Gd0 O18 2.417846 1_555
Gd0 O13 2.417846 1_555
Gd0 O15 2.418738 1_566
Gd0 O10 2.418738 1_566
Gd0 O31 2.440092 1_565
Gd0 O26 2.440092 1_565
Gd0 O25 2.441764 1_556
Gd0 O30 2.441764 1_556
Gd1 O17 2.417846 1_555
Gd1 O12 2.417846 1_555
Gd1 O15 2.418738 1_555
Gd1 O10 2.418738 1_555
Gd1 O34 2.440092 1_545
Gd1 O29 2.440092 1_545
Gd1 O30 2.441764 1_555
Gd1 O25 2.441764 1_555
Cu0 O25 1.954838 1_555
Cu0 O29 1.956311 1_555
Cu0 O10 1.987383 1_565
Cu0 O12 1.988038 1_555
Cu0 O0 2.251826 1_555
Cu1 O28 1.956844 1_555
Cu1 O27 1.956844 1_555
Cu1 O14 1.988655 1_555
Cu1 O11 1.988655 1_555
Cu1 O1 2.253597 1_555
Cu2 O29 1.955058 1_545
Cu2 O28 1.956545 1_555
Cu2 O12 1.987872 1_555
Cu2 O11 1.988435 1_545
Cu2 O2 2.253128 1_555
Cu3 O25 1.954838 1_556
Cu3 O26 1.956311 1_555
Cu3 O10 1.987383 1_556
Cu3 O13 1.988038 1_555
Cu3 O3 2.251826 1_555
Cu4 O26 1.955058 1_565
Cu4 O27 1.956545 1_555
Cu4 O13 1.987872 1_555
Cu4 O14 1.988435 1_565
Cu4 O4 2.253128 1_555
Cu5 O30 1.954838 1_555
Cu5 O34 1.956311 1_555
Cu5 O15 1.987383 1_565
Cu5 O17 1.988038 1_555
Cu5 O5 2.251826 1_555
Cu6 O33 1.956844 1_555
Cu6 O32 1.956844 1_555
Cu6 O19 1.988655 1_555
Cu6 O16 1.988655 1_555
Cu6 O6 2.253597 1_555
Cu7 O34 1.955058 1_545
Cu7 O33 1.956545 1_555
Cu7 O17 1.987872 1_555
Cu7 O16 1.988435 1_545
Cu7 O7 2.253128 1_555
Cu8 O30 1.954838 1_556
Cu8 O31 1.956311 1_555
Cu8 O15 1.987383 1_556
Cu8 O18 1.988038 1_555
Cu8 O8 2.251826 1_555
Cu9 O31 1.955058 1_565
Cu9 O32 1.956545 1_555
Cu9 O18 1.987872 1_555
Cu9 O19 1.988435 1_565
Cu9 O9 2.253128 1_555
Cu10 O0 1.888989 1_555
Cu10 O5 1.888989 1_455
Cu10 O22 1.966733 1_555
Cu10 O20 1.967520 1_565
Cu11 O1 1.888977 1_555
Cu11 O6 1.888977 1_455
Cu11 O24 1.967968 1_555
Cu11 O21 1.967968 1_555
Cu12 O7 1.888801 1_455
Cu12 O2 1.888801 1_555
Cu12 O21 1.966347 1_545
Cu12 O22 1.967025 1_555
Cu13 O3 1.888989 1_555
Cu13 O8 1.888989 1_455
Cu13 O23 1.966733 1_555
Cu13 O20 1.967520 1_556
Cu14 O9 1.888801 1_455
Cu14 O4 1.888801 1_555
Cu14 O24 1.966347 1_565
Cu14 O23 1.967025 1_555
O11 Y2 2.403514 1_555
O11 Y1 2.405991 1_565
O12 Y2 2.405183 1_555
O13 Y0 2.405183 1_555
O14 Y0 2.403514 1_555
O14 Y1 2.405991 1_555
O16 Y2 2.403514 1_555
O16 Y1 2.405991 1_565
O17 Y2 2.405183 1_555
O18 Y0 2.405183 1_555
O19 Y0 2.403514 1_555
O19 Y1 2.405991 1_555
O26 Y0 2.429332 1_555
O27 Y0 2.425973 1_555
O27 Y1 2.429321 1_565
O28 Y2 2.425973 1_555
O28 Y1 2.429321 1_555
O29 Y2 2.429332 1_555
O31 Y0 2.429332 1_555
O32 Y0 2.425973 1_555
O32 Y1 2.429321 1_565
O33 Y2 2.425973 1_555
O33 Y1 2.429321 1_555
O34 Y2 2.429332 1_555
