# generated using pymatgen
data_SmPdPb
_symmetry_space_group_name_H-M   'P 1'
_cell_length_a   8.23348526
_cell_length_b   8.23348556
_cell_length_c   3.82310200
_cell_angle_alpha   90.00000000
_cell_angle_beta   90.00000000
_cell_angle_gamma   120.06339619
_symmetry_Int_Tables_number   1
_chemical_formula_structural   SmPdPb
_chemical_formula_sum   'Sm3 Pd3 Pb3'
_cell_volume   224.30355952
_cell_formula_units_Z   3
loop_
 _symmetry_equiv_pos_site_id
 _symmetry_equiv_pos_as_xyz
  1  'x, y, z'
loop_
 _atom_site_type_symbol
 _atom_site_label
 _atom_site_symmetry_multiplicity
 _atom_site_fract_x
 _atom_site_fract_y
 _atom_site_fract_z
 _atom_site_occupancy
  Sm  Sm0  1  0.33196900  0.33196900  0.50000000  1
  Sm  Sm1  1  0.66810300  0.99959300  0.50000000  1
  Sm  Sm2  1  0.99959300  0.66810300  0.50000000  1
  Pd  Pd0  1  0.66669800  0.33338800  0.00000000  1
  Pd  Pd1  1  0.33338800  0.66669800  0.00000000  1
  Pd  Pd2  1  0.00021100  0.00021100  0.00000000  1
  Pb  Pb0  1  0.66648400  0.66648400  0.00000000  1
  Pb  Pb1  1  0.33376900  0.99988600  0.00000000  1
  Pb  Pb2  1  0.99988600  0.33376900  0.00000000  1
loop_
_geom_bond_atom_site_label_1
_geom_bond_atom_site_label_2
_geom_bond_distance
_geom_bond_site_symmetry_2
Pd0 Sm2 3.345640 1_555
Pd0 Sm2 3.345640 1_554
Pd0 Sm0 3.349233 1_555
Pd0 Sm0 3.349233 1_554
Pd0 Sm1 3.352484 1_545
Pd0 Sm1 3.352484 1_544
Pd1 Sm1 3.345640 1_554
Pd1 Sm1 3.345640 1_555
Pd1 Sm0 3.349233 1_555
Pd1 Sm0 3.349233 1_554
Pd1 Sm2 3.352484 1_455
Pd1 Sm2 3.352484 1_454
Pd2 Sm0 3.331810 1_555
Pd2 Sm0 3.331810 1_554
Pd2 Sm1 3.334230 1_444
Pd2 Sm1 3.334230 1_445
Pd2 Sm2 3.334230 1_444
Pd2 Sm2 3.334230 1_445
Pb0 Pd1 2.743424 1_555
Pb0 Pd0 2.743424 1_555
Pb0 Pd2 2.745103 1_665
Pb0 Sm2 3.337618 1_555
Pb0 Sm2 3.337618 1_554
Pb0 Sm1 3.337618 1_554
Pb0 Sm1 3.337618 1_555
Pb0 Sm0 3.350410 1_555
Pb0 Sm0 3.350410 1_554
Pb1 Pd0 2.740899 1_565
Pb1 Pd1 2.741728 1_555
Pb1 Pd2 2.747686 1_565
Pb1 Sm2 3.340088 1_455
Pb1 Sm2 3.340088 1_454
Pb1 Sm0 3.342260 1_565
Pb1 Sm0 3.342260 1_564
Pb1 Sm1 3.352347 1_554
Pb1 Sm1 3.352347 1_555
Pb2 Pd1 2.740899 1_655
Pb2 Pd0 2.741728 1_555
Pb2 Pd2 2.747686 1_655
Pb2 Sm1 3.340088 1_545
Pb2 Sm1 3.340088 1_544
Pb2 Sm0 3.342259 1_654
Pb2 Sm0 3.342259 1_655
Pb2 Sm2 3.352347 1_554
Pb2 Sm2 3.352347 1_555
