# generated using pymatgen
data_Mn3CoP4
_symmetry_space_group_name_H-M   'P 1'
_cell_length_a   3.11820100
_cell_length_b   5.15599362
_cell_length_c   5.83878426
_cell_angle_alpha   90.24887386
_cell_angle_beta   90.00000000
_cell_angle_gamma   90.00000000
_symmetry_Int_Tables_number   1
_chemical_formula_structural   Mn3CoP4
_chemical_formula_sum   'Mn3 Co1 P4'
_cell_volume   93.87172731
_cell_formula_units_Z   1
loop_
 _symmetry_equiv_pos_site_id
 _symmetry_equiv_pos_as_xyz
  1  'x, y, z'
loop_
 _atom_site_type_symbol
 _atom_site_label
 _atom_site_symmetry_multiplicity
 _atom_site_fract_x
 _atom_site_fract_y
 _atom_site_fract_z
 _atom_site_occupancy
  Mn  Mn0  1  0.75000000  0.99644400  0.80575200  1
  Mn  Mn1  1  0.25000000  0.50186800  0.29277400  1
  Mn  Mn2  1  0.25000000  0.00074400  0.20300800  1
  Co  Co0  1  0.75000000  0.49756100  0.69812400  1
  P  P0  1  0.75000000  0.31158200  0.06592800  1
  P  P1  1  0.75000000  0.81490700  0.43744800  1
  P  P2  1  0.25000000  0.68636300  0.92593300  1
  P  P3  1  0.25000000  0.19053000  0.57103300  1
loop_
_geom_bond_atom_site_label_1
_geom_bond_atom_site_label_2
_geom_bond_distance
_geom_bond_site_symmetry_2
Mn0 P0 2.219548 1_566
Mn0 P3 2.307015 1_665
Mn0 P3 2.307015 1_565
Mn0 P1 2.341590 1_555
Mn0 P2 2.342866 1_555
Mn0 P2 2.342866 1_655
Mn1 P0 2.266363 1_555
Mn1 P0 2.266363 1_455
Mn1 P3 2.288916 1_555
Mn1 P2 2.347413 1_554
Mn1 P1 2.395326 1_555
Mn1 P1 2.395326 1_455
Mn2 P2 2.285148 1_544
Mn2 P1 2.287799 1_445
Mn2 P1 2.287799 1_545
Mn2 P3 2.357262 1_555
Mn2 P0 2.377210 1_455
Mn2 P0 2.377210 1_555
Co0 P1 2.239526 1_555
Co0 P2 2.266366 1_555
Co0 P2 2.266366 1_655
Co0 P3 2.340360 1_555
Co0 P3 2.340360 1_655
Co0 P0 2.355689 1_556
