# generated using pymatgen
data_ZnSn3O7
_symmetry_space_group_name_H-M   'P 1'
_cell_length_a   5.26311800
_cell_length_b   10.29611400
_cell_length_c   10.43574400
_cell_angle_alpha   90.00000000
_cell_angle_beta   90.00000000
_cell_angle_gamma   90.00000000
_symmetry_Int_Tables_number   1
_chemical_formula_structural   ZnSn3O7
_chemical_formula_sum   'Zn4 Sn12 O28'
_cell_volume   565.50944972
_cell_formula_units_Z   4
loop_
 _symmetry_equiv_pos_site_id
 _symmetry_equiv_pos_as_xyz
  1  'x, y, z'
loop_
 _atom_site_type_symbol
 _atom_site_label
 _atom_site_symmetry_multiplicity
 _atom_site_fract_x
 _atom_site_fract_y
 _atom_site_fract_z
 _atom_site_occupancy
  Zn  Zn0  1  0.33770300  0.11946700  0.25000000  1
  Zn  Zn1  1  0.83770300  0.38053300  0.75000000  1
  Zn  Zn2  1  0.66229700  0.88053300  0.75000000  1
  Zn  Zn3  1  0.16229700  0.61946700  0.25000000  1
  Sn  Sn0  1  0.63771300  0.64190700  0.01167600  1
  Sn  Sn1  1  0.13771300  0.85809300  0.98832400  1
  Sn  Sn2  1  0.36228700  0.35809300  0.51167600  1
  Sn  Sn3  1  0.86228700  0.14190700  0.48832400  1
  Sn  Sn4  1  0.67828500  0.85044600  0.25000000  1
  Sn  Sn5  1  0.17828500  0.64955400  0.75000000  1
  Sn  Sn6  1  0.32171500  0.14955400  0.75000000  1
  Sn  Sn7  1  0.82171500  0.35044600  0.25000000  1
  Sn  Sn8  1  0.13771300  0.85809300  0.51167600  1
  Sn  Sn9  1  0.63771300  0.64190700  0.48832400  1
  Sn  Sn10  1  0.86228700  0.14190700  0.01167600  1
  Sn  Sn11  1  0.36228700  0.35809300  0.98832400  1
  O  O0  1  0.08568900  0.24676700  0.87880700  1
  O  O1  1  0.58568900  0.25323300  0.12119300  1
  O  O2  1  0.91431100  0.75323300  0.37880700  1
  O  O3  1  0.41431100  0.74676700  0.62119300  1
  O  O4  1  0.91431100  0.75323300  0.12119300  1
  O  O5  1  0.41431100  0.74676700  0.87880700  1
  O  O6  1  0.08568900  0.24676700  0.62119300  1
  O  O7  1  0.58568900  0.25323300  0.37880700  1
  O  O8  1  0.57894800  0.21761700  0.88034500  1
  O  O9  1  0.07894800  0.28238300  0.11965500  1
  O  O10  1  0.42105200  0.78238300  0.38034500  1
  O  O11  1  0.92105200  0.71761700  0.61965500  1
  O  O12  1  0.42105200  0.78238300  0.11965500  1
  O  O13  1  0.92105200  0.71761700  0.88034500  1
  O  O14  1  0.57894800  0.21761700  0.61965500  1
  O  O15  1  0.07894800  0.28238300  0.38034500  1
  O  O16  1  0.80515900  0.53928600  0.25000000  1
  O  O17  1  0.30515900  0.96071400  0.75000000  1
  O  O18  1  0.19484100  0.46071400  0.75000000  1
  O  O19  1  0.69484100  0.03928600  0.25000000  1
  O  O20  1  0.82674300  0.96838000  0.58545900  1
  O  O21  1  0.32674300  0.53162000  0.41454100  1
  O  O22  1  0.17325700  0.03162000  0.08545900  1
  O  O23  1  0.67325700  0.46838000  0.91454100  1
  O  O24  1  0.17325700  0.03162000  0.41454100  1
  O  O25  1  0.67325700  0.46838000  0.58545900  1
  O  O26  1  0.82674300  0.96838000  0.91454100  1
  O  O27  1  0.32674300  0.53162000  0.08545900  1
loop_
_geom_bond_atom_site_label_1
_geom_bond_atom_site_label_2
_geom_bond_distance
_geom_bond_site_symmetry_2
O0 Sn6 2.086107 1_555
O0 Sn10 2.114416 1_456
O0 Sn11 2.176992 1_555
O0 Zn1 2.325345 1_455
O1 Sn7 2.086107 1_555
O1 Sn11 2.114416 1_554
O1 Sn10 2.176992 1_555
O1 Zn0 2.325345 1_555
O2 Sn4 2.086107 1_555
O2 Sn8 2.114416 1_655
O2 Sn9 2.176992 1_555
O2 Zn3 2.325345 1_655
O3 Sn5 2.086107 1_555
O3 Sn9 2.114416 1_555
O3 Sn8 2.176992 1_555
O3 Zn2 2.325345 1_555
O4 Sn4 2.086107 1_555
O4 Sn1 2.114416 1_654
O4 Sn0 2.176992 1_555
O4 Zn3 2.325345 1_655
O5 Sn5 2.086107 1_555
O5 Sn0 2.114416 1_556
O5 Sn1 2.176992 1_555
O5 Zn2 2.325345 1_555
O6 Sn6 2.086107 1_555
O6 Sn3 2.114416 1_455
O6 Sn2 2.176992 1_555
O6 Zn1 2.325345 1_455
O7 Sn7 2.086107 1_555
O7 Sn2 2.114416 1_555
O7 Sn3 2.176992 1_555
O7 Zn0 2.325345 1_555
O8 Sn6 2.043104 1_555
O8 Sn11 2.159174 1_555
O8 Sn10 2.170216 1_556
O8 Zn1 2.553156 1_555
O9 Sn7 2.043104 1_455
O9 Sn10 2.159174 1_455
O9 Sn11 2.170216 1_554
O9 Zn0 2.553156 1_555
O10 Sn4 2.043104 1_555
O10 Sn9 2.159174 1_555
O10 Sn8 2.170216 1_555
O10 Zn3 2.553156 1_555
O11 Sn5 2.043104 1_655
O11 Sn8 2.159174 1_655
O11 Sn9 2.170216 1_555
O11 Zn2 2.553156 1_555
O12 Sn4 2.043104 1_555
O12 Sn0 2.159174 1_555
O12 Sn1 2.170216 1_554
O12 Zn3 2.553156 1_555
O13 Sn5 2.043104 1_655
O13 Sn1 2.159174 1_655
O13 Sn0 2.170216 1_556
O13 Zn2 2.553156 1_555
O14 Sn6 2.043104 1_555
O14 Sn2 2.159174 1_555
O14 Sn3 2.170216 1_555
O14 Zn1 2.553156 1_555
O15 Sn7 2.043104 1_455
O15 Sn3 2.159174 1_455
O15 Sn2 2.170216 1_555
O15 Zn0 2.553156 1_555
O16 Sn7 1.946270 1_555
O16 Zn3 2.052963 1_655
O17 Sn6 1.946270 1_565
O17 Zn2 2.052963 1_555
O18 Sn5 1.946270 1_555
O18 Zn1 2.052963 1_455
O19 Sn4 1.946270 1_545
O19 Zn0 2.052963 1_555
O20 Sn3 2.062684 1_565
O20 Zn2 2.125003 1_555
O20 Sn8 2.135647 1_655
O21 Sn2 2.062684 1_555
O21 Zn3 2.125003 1_555
O21 Sn9 2.135647 1_555
O22 Sn1 2.062684 1_544
O22 Zn0 2.125003 1_555
O22 Sn10 2.135647 1_455
O23 Sn0 2.062684 1_556
O23 Zn1 2.125003 1_555
O23 Sn11 2.135647 1_555
O24 Sn8 2.062684 1_545
O24 Zn0 2.125003 1_555
O24 Sn3 2.135647 1_455
O25 Sn9 2.062684 1_555
O25 Zn1 2.125003 1_555
O25 Sn2 2.135647 1_555
O26 Sn10 2.062684 1_566
O26 Zn2 2.125003 1_555
O26 Sn1 2.135647 1_655
O27 Sn11 2.062684 1_554
O27 Zn3 2.125003 1_555
O27 Sn0 2.135647 1_555
