# generated using pymatgen
data_CsU2F9
_symmetry_space_group_name_H-M   'P 1'
_cell_length_a   7.17246000
_cell_length_b   8.38645340
_cell_length_c   8.72633451
_cell_angle_alpha   115.97331026
_cell_angle_beta   90.00337485
_cell_angle_gamma   114.35801043
_symmetry_Int_Tables_number   1
_chemical_formula_structural   CsU2F9
_chemical_formula_sum   'Cs2 U4 F18'
_cell_volume   419.28877537
_cell_formula_units_Z   2
loop_
 _symmetry_equiv_pos_site_id
 _symmetry_equiv_pos_as_xyz
  1  'x, y, z'
loop_
 _atom_site_type_symbol
 _atom_site_label
 _atom_site_symmetry_multiplicity
 _atom_site_fract_x
 _atom_site_fract_y
 _atom_site_fract_z
 _atom_site_occupancy
  Cs  Cs0  1  0.10782900  0.74685000  0.24494200  1
  Cs  Cs1  1  0.87816100  0.24182200  0.75070800  1
  U  U0  1  0.18464200  0.86311600  0.69993600  1
  U  U1  1  0.37631900  0.36332400  0.20003300  1
  U  U2  1  0.61331500  0.62760900  0.78814100  1
  U  U3  1  0.80427600  0.12819300  0.28891700  1
  F  F0  1  0.02773000  0.10203000  0.57669900  1
  F  F1  1  0.12241500  0.38667900  0.28354400  1
  F  F2  1  0.05570700  0.17985100  0.13233100  1
  F  F3  1  0.26064500  0.64446100  0.98974800  1
  F  F4  1  0.36579100  0.14170900  0.48777600  1
  F  F5  1  0.26174200  0.68065000  0.63054700  1
  F  F6  1  0.33827400  0.39455400  0.92697000  1
  F  F7  1  0.54086600  0.88649000  0.78340300  1
  F  F8  1  0.44300600  0.11354000  0.21938100  1
  F  F9  1  0.64537200  0.60041100  0.07606200  1
  F  F10  1  0.47841200  0.44849500  0.65467600  1
  F  F11  1  0.73330100  0.32217600  0.36609900  1
  F  F12  1  0.64167100  0.86535600  0.51508200  1
  F  F13  1  0.74058200  0.36376500  0.01416600  1
  F  F14  1  0.64149500  0.94830600  0.15631300  1
  F  F15  1  0.94614500  0.82297500  0.86452400  1
  F  F16  1  0.89563400  0.61334300  0.72088100  1
  F  F17  1  0.98587100  0.89329600  0.42852200  1
loop_
_geom_bond_atom_site_label_1
_geom_bond_atom_site_label_2
_geom_bond_distance
_geom_bond_site_symmetry_2
Cs0 F17 2.000725 1_455
Cs0 F3 2.449396 1_554
Cs0 F4 2.771050 1_565
Cs0 F13 2.944022 1_455
Cs0 F9 3.120290 1_455
Cs0 F1 3.224913 1_555
Cs1 F0 2.075898 1_655
Cs1 F13 2.465442 1_556
Cs1 F12 2.639871 1_545
Cs1 F3 3.076991 1_655
Cs1 F7 3.100388 1_545
Cs1 F6 3.111966 1_655
Cs1 F16 3.190540 1_555
F1 F2 1.513059 1_555
F1 U1 2.013767 1_555
F1 U3 2.432497 1_455
F2 U1 2.071129 1_555
F2 U3 2.276251 1_455
F5 U0 1.703103 1_555
F6 U1 2.535054 1_556
F7 U2 2.448389 1_555
F8 U1 2.404528 1_555
F9 U2 2.638690 1_554
F9 U1 2.750821 1_555
F10 U2 1.348201 1_555
F11 U3 1.755788 1_555
F13 U1 3.074814 1_555
F14 U3 1.412775 1_565
F15 F16 1.528919 1_555
F15 U2 2.155097 1_555
F15 U0 2.247466 1_655
F16 U2 2.144197 1_555
F16 U0 2.339190 1_655
