# generated using pymatgen
data_Li3CuOF3
_symmetry_space_group_name_H-M   'P 1'
_cell_length_a   2.82385200
_cell_length_b   2.82385200
_cell_length_c   9.05375300
_cell_angle_alpha   90.00000000
_cell_angle_beta   90.00000000
_cell_angle_gamma   90.00000000
_symmetry_Int_Tables_number   1
_chemical_formula_structural   Li3CuOF3
_chemical_formula_sum   'Li3 Cu1 O1 F3'
_cell_volume   72.19589501
_cell_formula_units_Z   1
loop_
 _symmetry_equiv_pos_site_id
 _symmetry_equiv_pos_as_xyz
  1  'x, y, z'
loop_
 _atom_site_type_symbol
 _atom_site_label
 _atom_site_symmetry_multiplicity
 _atom_site_fract_x
 _atom_site_fract_y
 _atom_site_fract_z
 _atom_site_occupancy
  Li  Li0  1  0.50000000  0.50000000  0.26817400  1
  Li  Li1  1  0.00000000  0.00000000  0.50000000  1
  Li  Li2  1  0.50000000  0.50000000  0.73182600  1
  Cu  Cu0  1  0.00000000  0.00000000  0.00000000  1
  O  O0  1  0.50000000  0.50000000  0.00000000  1
  F  F0  1  0.00000000  0.00000000  0.27110600  1
  F  F1  1  0.50000000  0.50000000  0.50000000  1
  F  F2  1  0.00000000  0.00000000  0.72889400  1
loop_
_geom_bond_atom_site_label_1
_geom_bond_atom_site_label_2
_geom_bond_distance
_geom_bond_site_symmetry_2
Li0 O0 2.427981 1_555
Li2 O0 2.427981 1_556
Cu0 O0 1.996765 1_455
Cu0 O0 1.996765 1_555
Cu0 O0 1.996765 1_445
Cu0 O0 1.996765 1_545
Cu0 F0 2.454527 1_555
Cu0 F2 2.454527 1_554
F0 Li0 1.996941 1_545
F0 Li0 1.996941 1_455
F0 Li0 1.996941 1_555
F0 Li0 1.996941 1_445
F0 Li1 2.072350 1_555
F1 Li1 1.996765 1_665
F1 Li1 1.996765 1_555
F1 Li1 1.996765 1_565
F1 Li1 1.996765 1_655
F1 Li2 2.098895 1_555
F1 Li0 2.098895 1_555
F2 Li2 1.996941 1_455
F2 Li2 1.996941 1_555
F2 Li2 1.996941 1_445
F2 Li2 1.996941 1_545
F2 Li1 2.072350 1_555
