# generated using pymatgen
data_Nb5Si3N
_symmetry_space_group_name_H-M   'P 1'
_cell_length_a   7.52019478
_cell_length_b   7.52019478
_cell_length_c   5.40887122
_cell_angle_alpha   90.00000000
_cell_angle_beta   90.00000000
_cell_angle_gamma   119.99999808
_symmetry_Int_Tables_number   1
_chemical_formula_structural   Nb5Si3N
_chemical_formula_sum   'Nb10 Si6 N2'
_cell_volume   264.90823586
_cell_formula_units_Z   2
loop_
 _symmetry_equiv_pos_site_id
 _symmetry_equiv_pos_as_xyz
  1  'x, y, z'
loop_
 _atom_site_type_symbol
 _atom_site_label
 _atom_site_symmetry_multiplicity
 _atom_site_fract_x
 _atom_site_fract_y
 _atom_site_fract_z
 _atom_site_occupancy
  Nb  Nb0  1  0.23391037  0.00000000  0.25000000  1
  Nb  Nb1  1  0.76608963  -0.00000000  0.75000000  1
  Nb  Nb2  1  0.00000000  0.23391037  0.25000000  1
  Nb  Nb3  1  -0.00000000  0.76608963  0.75000000  1
  Nb  Nb4  1  0.76608963  0.76608963  0.25000000  1
  Nb  Nb5  1  0.23391037  0.23391037  0.75000000  1
  Nb  Nb6  1  0.33333300  0.66666700  -0.00000000  1
  Nb  Nb7  1  0.66666700  0.33333300  -0.00000000  1
  Nb  Nb8  1  0.66666700  0.33333300  0.50000000  1
  Nb  Nb9  1  0.33333300  0.66666700  0.50000000  1
  Si  Si0  1  0.59372297  -0.00000000  0.25000000  1
  Si  Si1  1  0.40627703  0.00000000  0.75000000  1
  Si  Si2  1  -0.00000000  0.59372297  0.25000000  1
  Si  Si3  1  0.00000000  0.40627703  0.75000000  1
  Si  Si4  1  0.40627703  0.40627703  0.25000000  1
  Si  Si5  1  0.59372297  0.59372297  0.75000000  1
  N  N0  1  0.00000000  -0.00000000  -0.00000000  1
  N  N1  1  0.00000000  -0.00000000  0.50000000  1
loop_
_geom_bond_atom_site_label_1
_geom_bond_atom_site_label_2
_geom_bond_distance
_geom_bond_site_symmetry_2
Nb0 Si4 2.656052 1_555
Nb0 Si2 2.656052 1_545
Nb0 Si0 2.705861 1_555
Nb0 Si1 2.999031 1_554
Nb0 Si1 2.999031 1_555
Nb1 Si5 2.656052 1_545
Nb1 Si3 2.656052 1_655
Nb1 Si1 2.705861 1_555
Nb1 Si0 2.999031 1_556
Nb1 Si0 2.999031 1_555
Nb2 Si4 2.656052 1_555
Nb2 Si0 2.656052 1_455
Nb2 Si2 2.705861 1_555
Nb2 Si3 2.999031 1_555
Nb2 Si3 2.999031 1_554
Nb3 Si5 2.656052 1_455
Nb3 Si1 2.656052 1_565
Nb3 Si3 2.705861 1_555
Nb3 Si2 2.999031 1_556
Nb3 Si2 2.999031 1_555
Nb4 Si0 2.656052 1_565
Nb4 Si2 2.656052 1_655
Nb4 Si4 2.705861 1_555
Nb4 Si5 2.999031 1_554
Nb4 Si5 2.999031 1_555
Nb5 Si1 2.656052 1_555
Nb5 Si3 2.656052 1_555
Nb5 Si5 2.705861 1_555
Nb5 Si4 2.999031 1_556
Nb5 Si4 2.999031 1_555
Nb6 Si1 2.652927 1_564
Nb6 Si2 2.652927 1_555
Nb6 Si0 2.652929 1_565
Nb6 Si3 2.652929 1_554
Nb6 Si4 2.652933 1_555
Nb6 Si5 2.652933 1_554
Nb7 Si0 2.652927 1_555
Nb7 Si3 2.652927 1_654
Nb7 Si2 2.652929 1_655
Nb7 Si1 2.652929 1_554
Nb7 Si4 2.652933 1_555
Nb7 Si5 2.652933 1_554
Nb8 Si0 2.652927 1_555
Nb8 Si3 2.652927 1_655
Nb8 Si2 2.652929 1_655
Nb8 Si1 2.652929 1_555
Nb8 Si5 2.652933 1_555
Nb8 Si4 2.652933 1_555
Nb9 Si2 2.652927 1_555
Nb9 Si1 2.652927 1_565
Nb9 Si0 2.652929 1_565
Nb9 Si3 2.652929 1_555
Nb9 Si5 2.652933 1_555
Nb9 Si4 2.652933 1_555
N0 Nb1 2.218728 1_454
N0 Nb3 2.218728 1_544
N0 Nb2 2.218728 1_555
N0 Nb0 2.218728 1_555
N0 Nb5 2.218728 1_554
N0 Nb4 2.218728 1_445
N1 Nb2 2.218728 1_555
N1 Nb0 2.218728 1_555
N1 Nb1 2.218728 1_455
N1 Nb3 2.218728 1_545
N1 Nb5 2.218728 1_555
N1 Nb4 2.218728 1_445
