# generated using pymatgen
data_Lu4(Al8Pt3)3
_symmetry_space_group_name_H-M   'P 1'
_cell_length_a   7.45635006
_cell_length_b   7.46858275
_cell_length_c   13.01816560
_cell_angle_alpha   84.59042917
_cell_angle_beta   79.07044786
_cell_angle_gamma   59.92407689
_symmetry_Int_Tables_number   1
_chemical_formula_structural   Lu4(Al8Pt3)3
_chemical_formula_sum   'Lu4 Al24 Pt9'
_cell_volume   615.97347224
_cell_formula_units_Z   1
loop_
 _symmetry_equiv_pos_site_id
 _symmetry_equiv_pos_as_xyz
  1  'x, y, z'
loop_
 _atom_site_type_symbol
 _atom_site_label
 _atom_site_symmetry_multiplicity
 _atom_site_fract_x
 _atom_site_fract_y
 _atom_site_fract_z
 _atom_site_occupancy
  Lu  Lu0  1  0.39435577  0.16832448  0.80742089  1
  Lu  Lu1  1  0.60564423  0.83167552  0.19257911  1
  Lu  Lu2  1  0.73386728  0.49895824  0.80736425  1
  Lu  Lu3  1  0.26613272  0.50104176  0.19263575  1
  Al  Al0  1  0.68377954  0.83364180  0.94420795  1
  Al  Al1  1  0.31622046  0.16635820  0.05579205  1
  Al  Al2  1  0.14659426  0.83247012  0.56156440  1
  Al  Al3  1  0.85340574  0.16752988  0.43843560  1
  Al  Al4  1  0.48004411  0.16661899  0.55917049  1
  Al  Al5  1  0.51995589  0.83338101  0.44082951  1
  Al  Al6  1  0.21811790  0.16545587  0.32738147  1
  Al  Al7  1  0.78188210  0.83454413  0.67261853  1
  Al  Al8  1  0.43674793  0.50642807  0.67277255  1
  Al  Al9  1  0.56325207  0.49357193  0.32722745  1
  Al  Al10  1  0.10916965  0.16004665  0.67135132  1
  Al  Al11  1  0.89083035  0.83995335  0.32864868  1
  Al  Al12  1  0.35335922  0.49895531  0.94419014  1
  Al  Al13  1  0.64664078  0.50104469  0.05580986  1
  Al  Al14  1  0.01572819  0.16809571  0.95243090  1
  Al  Al15  1  0.98427181  0.83190429  0.04756910  1
  Al  Al16  1  0.18660751  0.49948158  0.44096039  1
  Al  Al17  1  0.81339249  0.50051842  0.55903961  1
  Al  Al18  1  0.73340894  0.16398095  0.18280700  1
  Al  Al19  1  0.26659106  0.83601905  0.81719300  1
  Al  Al20  1  0.06131921  0.63025825  0.81588458  1
  Al  Al21  1  0.93868079  0.36974175  0.18411542  1
  Al  Al22  1  0.85441168  0.04247669  0.81658340  1
  Al  Al23  1  0.14558832  0.95752331  0.18341660  1
  Pt  Pt0  1  0.11992804  0.49074828  0.63983859  1
  Pt  Pt1  1  0.88007196  0.50925172  0.36016141  1
  Pt  Pt2  1  0.65640543  0.17180160  0.99982917  1
  Pt  Pt3  1  0.34359457  0.82819840  0.00017083  1
  Pt  Pt4  1  0.53729575  0.16679028  0.36029308  1
  Pt  Pt5  1  0.46270425  0.83320972  0.63970692  1
  Pt  Pt6  1  0.77821216  0.17561423  0.63813017  1
  Pt  Pt7  1  0.22178784  0.82438577  0.36186983  1
  Pt  Pt8  1  0.00000000  0.50000000  -0.00000000  1
loop_
_geom_bond_atom_site_label_1
_geom_bond_atom_site_label_2
_geom_bond_distance
_geom_bond_site_symmetry_2
Lu0 Pt0 3.241718 1_555
Lu0 Pt5 3.258951 1_545
Lu0 Pt6 3.285356 1_555
Lu0 Pt2 3.465775 1_555
Lu0 Pt8 3.484622 1_556
Lu0 Pt3 3.506310 1_546
Lu1 Pt1 3.241718 1_555
Lu1 Pt4 3.258951 1_565
Lu1 Pt7 3.285356 1_555
Lu1 Pt3 3.465775 1_555
Lu1 Pt8 3.484622 1_655
Lu1 Pt2 3.506310 1_564
Lu2 Pt0 3.242538 1_655
Lu2 Pt5 3.266613 1_555
Lu2 Pt6 3.274368 1_555
Lu2 Pt3 3.469386 1_556
Lu2 Pt8 3.483232 1_656
Lu2 Pt2 3.506130 1_555
Lu3 Pt1 3.242538 1_455
Lu3 Pt4 3.266613 1_555
Lu3 Pt7 3.274368 1_555
Lu3 Pt2 3.469386 1_554
Lu3 Pt8 3.483232 1_555
Lu3 Pt3 3.506130 1_555
Al0 Pt3 2.522591 1_556
Al0 Pt8 2.591431 1_656
Al0 Pt2 2.591635 1_565
Al0 Lu2 3.035251 1_555
Al0 Lu0 3.047537 1_565
Al0 Lu1 3.174808 1_556
Al1 Pt2 2.522591 1_554
Al1 Pt8 2.591431 1_555
Al1 Pt3 2.591635 1_545
Al1 Lu3 3.035251 1_555
Al1 Lu1 3.047537 1_545
Al1 Lu0 3.174808 1_554
Al2 Pt7 2.553266 1_555
Al2 Pt6 2.737536 1_465
Al2 Pt5 2.741129 1_555
Al2 Pt0 2.744617 1_555
Al3 Pt6 2.553266 1_555
Al3 Pt7 2.737536 1_645
Al3 Pt4 2.741129 1_555
Al3 Pt1 2.744617 1_555
Al4 Pt4 2.542848 1_555
Al4 Pt6 2.652028 1_555
Al4 Pt0 2.658574 1_555
Al4 Pt5 2.663747 1_545
Al4 Lu0 3.173215 1_555
Al5 Pt5 2.542848 1_555
Al5 Pt7 2.652028 1_555
Al5 Pt1 2.658574 1_555
Al5 Pt4 2.663747 1_565
Al5 Lu1 3.173215 1_555
Al6 Pt4 2.501767 1_555
Al6 Pt7 2.531851 1_545
Al6 Pt1 2.537759 1_455
Al6 Lu3 3.052746 1_555
Al6 Lu1 3.053788 1_545
Al7 Pt5 2.501767 1_555
Al7 Pt6 2.531851 1_565
Al7 Pt0 2.537759 1_655
Al7 Lu2 3.052746 1_555
Al7 Lu0 3.053788 1_565
Al8 Pt6 2.501984 1_555
Al8 Pt5 2.534367 1_555
Al8 Pt0 2.539468 1_555
Al8 Lu0 3.050282 1_555
Al8 Lu2 3.051371 1_555
Al9 Pt7 2.501984 1_555
Al9 Pt4 2.534367 1_555
Al9 Pt1 2.539468 1_555
Al9 Lu1 3.050282 1_555
Al9 Lu3 3.051371 1_555
Al10 Pt0 2.504009 1_555
Al10 Pt6 2.529410 1_455
Al10 Pt5 2.530907 1_545
Al10 Lu2 3.039682 1_455
Al10 Lu0 3.040420 1_555
Al11 Pt1 2.504009 1_555
Al11 Pt7 2.529410 1_655
Al11 Pt4 2.530907 1_565
Al11 Lu3 3.039682 1_655
Al11 Lu1 3.040420 1_555
Al12 Pt2 2.520670 1_555
Al12 Pt3 2.592547 1_556
Al12 Pt8 2.593165 1_556
Al12 Lu0 3.037639 1_555
Al12 Lu2 3.050597 1_555
Al12 Lu3 3.175792 1_556
Al13 Pt3 2.520670 1_555
Al13 Pt2 2.592547 1_554
Al13 Pt8 2.593165 1_655
Al13 Lu1 3.037639 1_555
Al13 Lu3 3.050597 1_555
Al13 Lu2 3.175792 1_554
Al14 Pt8 2.551956 1_556
Al14 Pt2 2.619505 1_455
Al14 Pt3 2.620200 1_546
Al14 Lu2 3.083748 1_455
Al14 Lu0 3.085006 1_555
Al15 Pt8 2.551956 1_655
Al15 Pt3 2.619505 1_655
Al15 Pt2 2.620200 1_564
Al15 Lu3 3.083748 1_655
Al15 Lu1 3.085006 1_555
Al16 Pt0 2.543042 1_555
Al16 Pt4 2.655699 1_555
Al16 Pt1 2.658173 1_455
Al16 Pt7 2.661141 1_555
Al16 Lu3 3.174149 1_555
Al17 Pt1 2.543042 1_555
Al17 Pt5 2.655699 1_555
Al17 Pt0 2.658173 1_655
Al17 Pt6 2.661141 1_555
Al17 Lu2 3.174149 1_555
Al18 Pt4 2.484858 1_555
Al18 Pt2 2.542824 1_554
Al18 Lu1 3.057387 1_545
Al18 Lu3 3.097353 1_555
Al19 Pt5 2.484858 1_555
Al19 Pt3 2.542824 1_556
Al19 Lu0 3.057387 1_565
Al19 Lu2 3.097353 1_555
Al20 Pt0 2.478512 1_555
Al20 Pt8 2.547734 1_556
Al20 Lu2 3.075436 1_455
Al20 Lu0 3.076063 1_555
Al21 Pt1 2.478512 1_555
Al21 Pt8 2.547734 1_655
Al21 Lu3 3.075436 1_655
Al21 Lu1 3.076063 1_555
Al22 Pt6 2.491429 1_555
Al22 Pt2 2.544209 1_555
Al22 Lu2 3.055783 1_555
Al22 Lu0 3.093105 1_555
Al23 Pt7 2.491429 1_555
Al23 Pt3 2.544209 1_555
Al23 Lu3 3.055783 1_555
Al23 Lu1 3.093105 1_555
