# generated using pymatgen
data_Li3MnV(PO4)3
_symmetry_space_group_name_H-M   'P 1'
_cell_length_a   8.66279400
_cell_length_b   8.67159320
_cell_length_c   12.64493092
_cell_angle_alpha   105.85300428
_cell_angle_beta   105.75683248
_cell_angle_gamma   95.53353289
_symmetry_Int_Tables_number   1
_chemical_formula_structural   Li3MnV(PO4)3
_chemical_formula_sum   'Li12 Mn4 V4 P12 O48'
_cell_volume   864.36398877
_cell_formula_units_Z   4
loop_
 _symmetry_equiv_pos_site_id
 _symmetry_equiv_pos_as_xyz
  1  'x, y, z'
loop_
 _atom_site_type_symbol
 _atom_site_label
 _atom_site_symmetry_multiplicity
 _atom_site_fract_x
 _atom_site_fract_y
 _atom_site_fract_z
 _atom_site_occupancy
  Li  Li0  1  0.00328500  0.00143100  0.12493400  1
  Li  Li1  1  0.00318500  0.99477000  0.62407500  1
  Li  Li2  1  0.70756200  0.28995000  0.37330200  1
  Li  Li3  1  0.50067100  0.50197100  0.25117200  1
  Li  Li4  1  0.71202700  0.29296100  0.87666200  1
  Li  Li5  1  0.49935500  0.50015000  0.49771500  1
  Li  Li6  1  0.29177200  0.71281600  0.12667700  1
  Li  Li7  1  0.50072800  0.50184300  0.75093900  1
  Li  Li8  1  0.50072800  0.49946600  0.00118000  1
  Li  Li9  1  0.28741300  0.70928200  0.62265600  1
  Li  Li10  1  0.99932800  0.99720500  0.37322000  1
  Li  Li11  1  0.99977000  0.00445200  0.87530400  1
  Mn  Mn0  1  0.62678900  0.94182500  0.43480300  1
  Mn  Mn1  1  0.37494600  0.05524400  0.06647300  1
  Mn  Mn2  1  0.05549400  0.37645900  0.31402400  1
  Mn  Mn3  1  0.05516900  0.37577100  0.81428700  1
  V  V0  1  0.94186800  0.62280200  0.17998500  1
  V  V1  1  0.94267300  0.62357700  0.67917700  1
  V  V2  1  0.62347400  0.94196200  0.93284700  1
  V  V3  1  0.37778900  0.05574900  0.56857900  1
  P  P0  1  0.71104900  0.28776300  0.12518200  1
  P  P1  1  0.86769200  0.66694700  0.43326700  1
  P  P2  1  0.66535300  0.85930400  0.18465000  1
  P  P3  1  0.71135300  0.28829900  0.62422800  1
  P  P4  1  0.86055700  0.66637000  0.93161400  1
  P  P5  1  0.66262600  0.86238800  0.68062300  1
  P  P6  1  0.33437200  0.13605100  0.31561600  1
  P  P7  1  0.13303400  0.33801600  0.06591300  1
  P  P8  1  0.28715200  0.71185900  0.37385500  1
  P  P9  1  0.33690300  0.13196400  0.81931900  1
  P  P10  1  0.13970700  0.33835400  0.56780500  1
  P  P11  1  0.28721500  0.71165700  0.87513200  1
  O  O0  1  0.98622100  0.66352800  0.04517400  1
  O  O1  1  0.94947200  0.61084200  0.33623600  1
  O  O2  1  0.73964600  0.17549300  0.01651900  1
  O  O3  1  0.99319700  0.65640100  0.54519300  1
  O  O4  1  0.82621600  0.26795700  0.23796300  1
  O  O5  1  0.84893000  0.84089100  0.20379300  1
  O  O6  1  0.73130400  0.46305500  0.11578800  1
  O  O7  1  0.85735000  0.85182600  0.45538100  1
  O  O8  1  0.94519600  0.61535000  0.83588900  1
  O  O9  1  0.73406000  0.17387000  0.51306700  1
  O  O10  1  0.82701900  0.26537500  0.73526700  1
  O  O11  1  0.84475500  0.84425900  0.69309500  1
  O  O12  1  0.70593100  0.55215500  0.39985500  1
  O  O13  1  0.61592200  0.94749900  0.09105600  1
  O  O14  1  0.66306300  0.98327900  0.30021700  1
  O  O15  1  0.53678400  0.25783900  0.13666200  1
  O  O16  1  0.73509200  0.46250000  0.61347500  1
  O  O17  1  0.54513600  0.70073800  0.14887600  1
  O  O18  1  0.84140400  0.84988700  0.95105800  1
  O  O19  1  0.70217700  0.54610400  0.89751800  1
  O  O20  1  0.60067000  0.95210700  0.58629300  1
  O  O21  1  0.45077500  0.29720900  0.35085800  1
  O  O22  1  0.66343100  0.98638600  0.79578400  1
  O  O23  1  0.53774600  0.26311300  0.63665200  1
  O  O24  1  0.46453900  0.73671400  0.36696800  1
  O  O25  1  0.34181100  0.01268400  0.20095500  1
  O  O26  1  0.54482700  0.70310300  0.64576700  1
  O  O27  1  0.38895000  0.05152400  0.41132100  1
  O  O28  1  0.29580000  0.45111200  0.10180700  1
  O  O29  1  0.14231900  0.15480500  0.05159400  1
  O  O30  1  0.45032300  0.29445500  0.85419400  1
  O  O31  1  0.26055200  0.53481500  0.38174800  1
  O  O32  1  0.46361100  0.73246300  0.86701900  1
  O  O33  1  0.34351300  0.00964700  0.70547700  1
  O  O34  1  0.40306700  0.04582800  0.91545100  1
  O  O35  1  0.29919700  0.45674100  0.60392700  1
  O  O36  1  0.14976500  0.14709300  0.29501900  1
  O  O37  1  0.17650700  0.73813300  0.26376800  1
  O  O38  1  0.26074500  0.82380200  0.48391800  1
  O  O39  1  0.04359600  0.40283200  0.16018900  1
  O  O40  1  0.15843700  0.15690100  0.55724100  1
  O  O41  1  0.25734900  0.53635500  0.88484300  1
  O  O42  1  0.15351900  0.14145900  0.80457100  1
  O  O43  1  0.17584200  0.74046800  0.76668700  1
  O  O44  1  0.01735600  0.33494300  0.45112200  1
  O  O45  1  0.26671400  0.82568500  0.98794100  1
  O  O46  1  0.04781300  0.39999100  0.66131700  1
  O  O47  1  0.01130700  0.34212300  0.95026900  1
loop_
_geom_bond_atom_site_label_1
_geom_bond_atom_site_label_2
_geom_bond_distance
_geom_bond_site_symmetry_2
Li0 O36 2.134411 1_555
Li0 O18 2.217894 1_444
Li0 O29 2.247470 1_555
Li0 O5 2.417423 1_445
Li1 O7 2.114835 1_455
Li1 O42 2.236804 1_565
Li1 O11 2.296996 1_455
Li1 O40 2.324101 1_565
Li2 O21 2.174112 1_555
Li2 O4 2.199200 1_555
Li2 O12 2.207824 1_555
Li2 O9 2.232825 1_555
Li2 O14 2.518092 1_545
Li2 O44 2.544944 1_655
Li3 O12 2.115176 1_555
Li3 O28 2.117768 1_555
Li3 O24 2.264724 1_555
Li3 O15 2.318457 1_555
Li3 O17 2.480551 1_555
Li3 O21 2.509834 1_555
Li4 O19 2.151183 1_555
Li4 O30 2.208717 1_555
Li4 O2 2.241381 1_556
Li4 O10 2.241836 1_555
Li4 O47 2.455427 1_655
Li4 O22 2.521041 1_545
Li5 O21 2.090410 1_555
Li5 O26 2.103095 1_555
Li5 O16 2.277229 1_555
Li5 O31 2.287665 1_555
Li5 O12 2.507773 1_555
Li5 O35 2.523303 1_555
Li6 O17 2.152411 1_555
Li6 O37 2.196525 1_555
Li6 O45 2.203386 1_554
Li6 O28 2.209427 1_555
Li6 O25 2.461494 1_565
Li6 O0 2.512096 1_455
Li7 O19 2.086522 1_555
Li7 O35 2.089273 1_555
Li7 O32 2.243627 1_555
Li7 O23 2.285198 1_555
Li7 O26 2.525040 1_555
Li7 O30 2.563320 1_555
Li8 O17 2.093234 1_555
Li8 O30 2.099983 1_554
Li8 O6 2.233634 1_555
Li8 O41 2.326840 1_554
Li8 O28 2.514186 1_555
Li8 O19 2.514566 1_554
Li9 O35 2.152953 1_555
Li9 O26 2.176811 1_555
Li9 O38 2.212057 1_555
Li9 O43 2.249807 1_555
Li9 O3 2.416419 1_455
Li9 O33 2.471091 1_565
Li10 O5 2.163688 1_555
Li10 O7 2.300407 1_555
Li10 O40 2.315512 1_665
Li10 O36 2.332588 1_665
Li11 O29 2.191025 1_656
Li11 O42 2.215356 1_655
Li11 O11 2.291884 1_545
Li11 O18 2.378380 1_545
Mn0 O14 1.930564 1_555
Mn0 O20 1.968393 1_555
Mn0 O24 1.975959 1_555
Mn0 O9 1.985909 1_565
Mn0 O7 2.189819 1_555
Mn0 O27 2.331986 1_565
Mn1 O25 1.922994 1_555
Mn1 O15 1.958822 1_555
Mn1 O45 1.970340 1_544
Mn1 O34 1.970819 1_554
Mn1 O29 2.249482 1_555
Mn1 O13 2.347284 1_545
Mn2 O31 1.958428 1_555
Mn2 O4 1.965436 1_455
Mn2 O44 1.968048 1_555
Mn2 O39 1.996387 1_555
Mn2 O36 2.199856 1_555
Mn2 O1 2.289456 1_455
Mn3 O47 1.947742 1_555
Mn3 O41 1.950605 1_555
Mn3 O10 1.964948 1_455
Mn3 O46 1.986771 1_555
Mn3 O42 2.263569 1_555
Mn3 O8 2.347623 1_455
O0 P4 1.556651 1_554
O0 V0 1.958757 1_555
O1 P1 1.567299 1_555
O1 V0 1.990326 1_555
O2 P0 1.548452 1_555
O2 V2 2.022688 1_544
O3 P1 1.564501 1_555
O3 V1 1.945540 1_555
O4 P0 1.566128 1_555
O5 P2 1.572936 1_555
O5 V0 2.104663 1_555
O6 P0 1.553710 1_555
O6 V0 1.999820 1_555
O7 P1 1.566153 1_555
O8 P4 1.565403 1_555
O8 V1 1.996590 1_555
O9 P3 1.557203 1_555
O10 P3 1.562613 1_555
O11 P5 1.570067 1_555
O11 V1 2.150054 1_555
O12 P1 1.520756 1_555
O13 P2 1.565676 1_555
O13 V2 2.006978 1_554
O14 P2 1.566268 1_555
O15 P0 1.559300 1_555
O16 P3 1.552477 1_555
O16 V1 1.986226 1_555
O17 P2 1.519213 1_555
O18 P4 1.574737 1_555
O18 V2 2.099923 1_555
O19 P4 1.520876 1_555
O20 P5 1.598737 1_555
O20 V3 2.189874 1_565
O21 P6 1.520636 1_555
O22 P5 1.553815 1_555
O22 V2 1.984162 1_555
O23 P3 1.554953 1_555
O23 V3 1.980023 1_555
O24 P8 1.560270 1_555
O25 P6 1.570791 1_555
O26 P5 1.514847 1_555
O27 P6 1.570368 1_555
O27 V3 2.007533 1_555
O28 P7 1.516078 1_555
O29 P7 1.561638 1_555
O30 P9 1.517721 1_555
O31 P8 1.564622 1_555
O32 P11 1.555697 1_555
O32 V2 1.993397 1_555
O33 P9 1.556548 1_555
O33 V3 1.969500 1_555
O34 P9 1.601341 1_555
O34 V2 2.171864 1_545
O35 P10 1.516236 1_555
O36 P6 1.565703 1_555
O37 P8 1.548917 1_555
O37 V0 2.028230 1_455
O38 P8 1.552162 1_555
O38 V3 2.015046 1_565
O39 P7 1.599025 1_555
O39 V0 2.158913 1_455
O40 P10 1.570415 1_555
O40 V3 2.154739 1_555
O41 P11 1.560850 1_555
O42 P9 1.561403 1_555
O43 P11 1.545570 1_555
O43 V1 2.027391 1_455
O44 P10 1.556275 1_555
O45 P11 1.563622 1_555
O46 P10 1.601743 1_555
O46 V1 2.202897 1_455
O47 P7 1.565184 1_556
