# generated using pymatgen
data_Er2O3
_symmetry_space_group_name_H-M   'P 1'
_cell_length_a   3.60529306
_cell_length_b   3.60529397
_cell_length_c   5.75945262
_cell_angle_alpha   90.00000000
_cell_angle_beta   90.00000000
_cell_angle_gamma   120.00000096
_symmetry_Int_Tables_number   1
_chemical_formula_structural   Er2O3
_chemical_formula_sum   'Er2 O3'
_cell_volume   64.83254837
_cell_formula_units_Z   1
loop_
 _symmetry_equiv_pos_site_id
 _symmetry_equiv_pos_as_xyz
  1  'x, y, z'
loop_
 _atom_site_type_symbol
 _atom_site_label
 _atom_site_symmetry_multiplicity
 _atom_site_fract_x
 _atom_site_fract_y
 _atom_site_fract_z
 _atom_site_occupancy
  Er  Er0  1  0.66666700  0.33333300  0.75021507  1
  Er  Er1  1  0.33333300  0.66666700  0.24978493  1
  O  O0  1  0.66666700  0.33333300  0.35365625  1
  O  O1  1  0.33333300  0.66666700  0.64634375  1
  O  O2  1  -0.00000000  0.00000000  0.00000000  1
loop_
_geom_bond_atom_site_label_1
_geom_bond_atom_site_label_2
_geom_bond_distance
_geom_bond_site_symmetry_2
Er0 O1 2.165779 1_655
Er0 O1 2.165779 1_545
Er0 O1 2.165785 1_555
Er0 O0 2.283962 1_555
Er0 O2 2.530286 1_656
Er0 O2 2.530288 1_556
Er0 O2 2.530288 1_666
Er1 O0 2.165779 1_455
Er1 O0 2.165779 1_565
Er1 O0 2.165785 1_555
Er1 O1 2.283962 1_555
Er1 O2 2.530286 1_565
Er1 O2 2.530288 1_665
Er1 O2 2.530288 1_555
