# generated using pymatgen
data_Na7Cu4(AsO4)5
_symmetry_space_group_name_H-M   'P 1'
_cell_length_a   7.94526884
_cell_length_b   8.75469856
_cell_length_c   30.68877739
_cell_angle_alpha   88.79051775
_cell_angle_beta   87.33383767
_cell_angle_gamma   63.01406571
_symmetry_Int_Tables_number   1
_chemical_formula_structural   Na7Cu4(AsO4)5
_chemical_formula_sum   'Na28 Cu16 As20 O80'
_cell_volume   1900.17763854
_cell_formula_units_Z   4
loop_
 _symmetry_equiv_pos_site_id
 _symmetry_equiv_pos_as_xyz
  1  'x, y, z'
loop_
 _atom_site_type_symbol
 _atom_site_label
 _atom_site_symmetry_multiplicity
 _atom_site_fract_x
 _atom_site_fract_y
 _atom_site_fract_z
 _atom_site_occupancy
  Na  Na0  1  0.71989671  0.47277879  0.06652121  1
  Na  Na1  1  0.80732451  0.47277879  0.43347879  1
  Na  Na2  1  0.28010329  0.52722121  0.93347879  1
  Na  Na3  1  0.19267549  0.52722121  0.56652121  1
  Na  Na4  1  0.05592664  0.94792139  0.31597645  1
  Na  Na5  1  0.99615197  0.94792139  0.18402355  1
  Na  Na6  1  0.94407336  0.05207861  0.68402355  1
  Na  Na7  1  0.00384803  0.05207861  0.81597645  1
  Na  Na8  1  0.53650015  0.97870562  0.05428766  1
  Na  Na9  1  0.48479423  0.97870562  0.44571234  1
  Na  Na10  1  0.46349985  0.02129438  0.94571234  1
  Na  Na11  1  0.51520577  0.02129438  0.55428766  1
  Na  Na12  1  0.58242753  0.93605689  0.17281933  1
  Na  Na13  1  0.48151558  0.93605689  0.32718067  1
  Na  Na14  1  0.41757247  0.06394311  0.82718067  1
  Na  Na15  1  0.51848442  0.06394311  0.67281933  1
  Na  Na16  1  0.37048596  0.73216101  0.12477306  1
  Na  Na17  1  0.89735303  0.73216101  0.37522694  1
  Na  Na18  1  0.62951404  0.26783899  0.87522694  1
  Na  Na19  1  0.10264697  0.26783899  0.62477306  1
  Na  Na20  1  0.89868195  0.75345577  0.98270393  1
  Na  Na21  1  0.34786228  0.75345577  0.51729607  1
  Na  Na22  1  0.10131805  0.24654423  0.01729607  1
  Na  Na23  1  0.65213772  0.24654423  0.48270393  1
  Na  Na24  1  0.17516161  0.21930757  0.23749262  1
  Na  Na25  1  0.60553082  0.21930757  0.26250738  1
  Na  Na26  1  0.82483839  0.78069243  0.76250738  1
  Na  Na27  1  0.39446918  0.78069243  0.73749262  1
  Cu  Cu0  1  0.93043339  0.04396563  0.07634023  1
  Cu  Cu1  1  0.02560098  0.04396563  0.42365977  1
  Cu  Cu2  1  0.06956661  0.95603437  0.92365977  1
  Cu  Cu3  1  0.97439902  0.95603437  0.57634023  1
  Cu  Cu4  1  0.66464007  0.57929093  0.92962789  1
  Cu  Cu5  1  0.75606900  0.57929093  0.57037211  1
  Cu  Cu6  1  0.33535993  0.42070907  0.07037211  1
  Cu  Cu7  1  0.24393100  0.42070907  0.42962789  1
  Cu  Cu8  1  0.19954950  0.51113513  0.17755888  1
  Cu  Cu9  1  0.28931538  0.51113513  0.32244112  1
  Cu  Cu10  1  0.80045050  0.48886487  0.82244112  1
  Cu  Cu11  1  0.71068462  0.48886487  0.67755888  1
  Cu  Cu12  1  0.81533818  0.50162536  0.18674099  1
  Cu  Cu13  1  0.68303646  0.50162536  0.31325901  1
  Cu  Cu14  1  0.18466182  0.49837464  0.81325901  1
  Cu  Cu15  1  0.31696354  0.49837464  0.68674099  1
  As  As0  1  0.39635914  0.71717442  0.23536518  1
  As  As1  1  0.88646644  0.71717442  0.26463482  1
  As  As2  1  0.60364086  0.28282558  0.76463482  1
  As  As3  1  0.11353356  0.28282558  0.73536518  1
  As  As4  1  0.16007087  0.20057285  0.12571550  1
  As  As5  1  0.63935628  0.20057285  0.37428450  1
  As  As6  1  0.83992913  0.79942715  0.87428450  1
  As  As7  1  0.36064372  0.79942715  0.62571550  1
  As  As8  1  0.61471730  0.27100153  0.15712168  1
  As  As9  1  0.11428117  0.27100153  0.34287832  1
  As  As10  1  0.38528270  0.72899847  0.84287832  1
  As  As11  1  0.88571883  0.72899847  0.65712168  1
  As  As12  1  0.93264670  0.69192142  0.09008264  1
  As  As13  1  0.37543188  0.69192142  0.40991736  1
  As  As14  1  0.06735330  0.30807858  0.90991736  1
  As  As15  1  0.62456812  0.30807858  0.59008264  1
  As  As16  1  0.66822859  0.22752025  0.98406149  1
  As  As17  1  0.10425116  0.22752025  0.51593851  1
  As  As18  1  0.33177141  0.77247975  0.01593851  1
  As  As19  1  0.89574884  0.77247975  0.48406149  1
  O  O0  1  0.28799798  0.91531383  0.25868945  1
  O  O1  1  0.79668819  0.91531383  0.24131055  1
  O  O2  1  0.71200202  0.08468617  0.74131055  1
  O  O3  1  0.20331181  0.08468617  0.75868945  1
  O  O4  1  0.24622836  0.69127504  0.20059933  1
  O  O5  1  0.06249660  0.69127504  0.29940067  1
  O  O6  1  0.75377164  0.30872496  0.79940067  1
  O  O7  1  0.93750340  0.30872496  0.70059933  1
  O  O8  1  0.58495115  0.69728605  0.20115288  1
  O  O9  1  0.71776279  0.69728605  0.29884712  1
  O  O10  1  0.41504885  0.30271395  0.79884712  1
  O  O11  1  0.28223721  0.30271395  0.70115288  1
  O  O12  1  0.47268998  0.55212748  0.27296513  1
  O  O13  1  0.97518254  0.55212748  0.22703487  1
  O  O14  1  0.52731002  0.44787252  0.72703487  1
  O  O15  1  0.02481746  0.44787252  0.77296513  1
  O  O16  1  0.24702800  0.01882693  0.15590074  1
  O  O17  1  0.73414507  0.01882693  0.34409926  1
  O  O18  1  0.75297200  0.98117307  0.84409926  1
  O  O19  1  0.26585493  0.98117307  0.65590074  1
  O  O20  1  0.96885689  0.23239402  0.09603105  1
  O  O21  1  0.79874909  0.23239402  0.40396895  1
  O  O22  1  0.03114311  0.76760598  0.90396895  1
  O  O23  1  0.20125091  0.76760598  0.59603105  1
  O  O24  1  0.33727604  0.21262185  0.09367778  1
  O  O25  1  0.45010211  0.21262185  0.40632222  1
  O  O26  1  0.66272396  0.78737815  0.90632222  1
  O  O27  1  0.54989789  0.78737815  0.59367778  1
  O  O28  1  0.55122032  0.37913017  0.33911921  1
  O  O29  1  0.06964951  0.37913017  0.16088079  1
  O  O30  1  0.44877968  0.62086983  0.66088079  1
  O  O31  1  0.93035049  0.62086983  0.83911921  1
  O  O32  1  0.51567592  0.42750951  0.11856656  1
  O  O33  1  0.05681457  0.42750951  0.38143344  1
  O  O34  1  0.48432408  0.57249049  0.88143344  1
  O  O35  1  0.94318543  0.57249049  0.61856656  1
  O  O36  1  0.74513182  0.06989198  0.13466733  1
  O  O37  1  0.18497620  0.06989198  0.36533267  1
  O  O38  1  0.25486818  0.93010802  0.86533267  1
  O  O39  1  0.81502380  0.93010802  0.63466733  1
  O  O40  1  0.76411299  0.30348690  0.19115133  1
  O  O41  1  0.93240011  0.30348690  0.30884867  1
  O  O42  1  0.23588701  0.69651310  0.80884867  1
  O  O43  1  0.06759989  0.69651310  0.69115133  1
  O  O44  1  0.43451197  0.27390973  0.19269321  1
  O  O45  1  0.29157829  0.27390973  0.30730679  1
  O  O46  1  0.56548803  0.72609027  0.80730679  1
  O  O47  1  0.70842171  0.72609027  0.69269321  1
  O  O48  1  0.07483516  0.69863213  0.13008803  1
  O  O49  1  0.22653270  0.69863213  0.36991197  1
  O  O50  1  0.92516484  0.30136787  0.86991197  1
  O  O51  1  0.77346730  0.30136787  0.63008803  1
  O  O52  1  0.72620978  0.69429665  0.10981512  1
  O  O53  1  0.57949357  0.69429665  0.39018488  1
  O  O54  1  0.27379022  0.30570335  0.89018488  1
  O  O55  1  0.42050643  0.30570335  0.60981512  1
  O  O56  1  0.86904127  0.87072579  0.05592855  1
  O  O57  1  0.26023294  0.87072579  0.44407145  1
  O  O58  1  0.13095873  0.12927421  0.94407145  1
  O  O59  1  0.73976706  0.12927421  0.55592855  1
  O  O60  1  0.05727334  0.51847137  0.05504322  1
  O  O61  1  0.42425529  0.51847137  0.44495678  1
  O  O62  1  0.94272666  0.48152863  0.94495678  1
  O  O63  1  0.57574471  0.48152863  0.55504322  1
  O  O64  1  0.80685166  0.23023695  0.02456814  1
  O  O65  1  0.96291139  0.23023695  0.47543186  1
  O  O66  1  0.19314834  0.76976305  0.97543186  1
  O  O67  1  0.03708861  0.76976305  0.52456814  1
  O  O68  1  0.59461586  0.40904133  0.95164323  1
  O  O69  1  0.99634281  0.40904133  0.54835677  1
  O  O70  1  0.40538414  0.59095867  0.04835677  1
  O  O71  1  0.00365719  0.59095867  0.45164323  1
  O  O72  1  0.78015116  0.05394110  0.94864009  1
  O  O73  1  0.16590774  0.05394110  0.55135991  1
  O  O74  1  0.21984884  0.94605890  0.05135991  1
  O  O75  1  0.83409226  0.94605890  0.44864009  1
  O  O76  1  0.46501947  0.22004395  0.00379039  1
  O  O77  1  0.31493658  0.22004395  0.49620961  1
  O  O78  1  0.53498053  0.77995605  0.99620961  1
  O  O79  1  0.68506342  0.77995605  0.50379039  1
loop_
_geom_bond_atom_site_label_1
_geom_bond_atom_site_label_2
_geom_bond_distance
_geom_bond_site_symmetry_2
Na0 O64 2.311921 1_555
Na0 O70 2.320453 1_555
Na0 O20 2.338808 1_555
Na0 O32 2.378385 1_555
Na0 O52 2.394164 1_555
Na0 O60 2.889427 1_655
Na1 O65 2.311921 1_555
Na1 O71 2.320453 1_655
Na1 O21 2.338808 1_555
Na1 O33 2.378385 1_655
Na1 O53 2.394164 1_555
Na1 O61 2.889427 1_555
Na2 O66 2.311921 1_555
Na2 O68 2.320453 1_555
Na2 O22 2.338808 1_555
Na2 O34 2.378385 1_555
Na2 O54 2.394164 1_555
Na2 O62 2.889427 1_455
Na3 O67 2.311921 1_555
Na3 O69 2.320453 1_455
Na3 O23 2.338808 1_555
Na3 O35 2.378385 1_455
Na3 O55 2.394164 1_555
Na3 O63 2.889427 1_555
Na4 O5 2.291117 1_555
Na4 O37 2.385834 1_565
Na4 O0 2.411235 1_555
Na4 O17 2.458381 1_465
Na4 O49 2.590687 1_555
Na4 O41 2.814181 1_465
Na5 O4 2.291116 1_655
Na5 O36 2.385834 1_565
Na5 O1 2.411235 1_555
Na5 O16 2.458381 1_665
Na5 O48 2.590687 1_655
Na5 O40 2.814181 1_565
Na6 O7 2.291117 1_555
Na6 O39 2.385834 1_545
Na6 O2 2.411235 1_555
Na6 O19 2.458381 1_645
Na6 O51 2.590687 1_555
Na6 O43 2.814181 1_645
Na7 O6 2.291116 1_455
Na7 O38 2.385834 1_545
Na7 O3 2.411235 1_555
Na7 O18 2.458381 1_445
Na7 O50 2.590687 1_455
Na7 O42 2.814181 1_545
Na8 O24 2.268309 1_565
Na8 O56 2.370789 1_555
Na8 O76 2.458225 1_565
Na8 O78 2.521202 1_554
Na8 O74 2.663478 1_555
Na8 O52 2.833595 1_555
Na9 O25 2.268309 1_565
Na9 O57 2.370789 1_555
Na9 O77 2.458225 1_565
Na9 O79 2.521202 1_555
Na9 O75 2.663478 1_555
Na9 O53 2.833595 1_555
Na10 O26 2.268309 1_545
Na10 O58 2.370789 1_555
Na10 O78 2.458225 1_545
Na10 O76 2.521202 1_556
Na10 O72 2.663478 1_555
Na10 O54 2.833595 1_555
Na11 O27 2.268309 1_545
Na11 O59 2.370789 1_555
Na11 O79 2.458225 1_545
Na11 O77 2.521202 1_555
Na11 O73 2.663478 1_555
Na11 O55 2.833595 1_555
Na12 O8 2.238963 1_555
Na12 O36 2.364480 1_565
Na12 O16 2.501278 1_565
Na12 O52 2.701149 1_555
Na12 O44 2.712286 1_565
Na12 O1 2.717582 1_555
Na13 O9 2.238963 1_555
Na13 O37 2.364480 1_565
Na13 O17 2.501278 1_565
Na13 O53 2.701149 1_555
Na13 O45 2.712286 1_565
Na13 O0 2.717582 1_555
Na14 O10 2.238963 1_555
Na14 O38 2.364480 1_545
Na14 O18 2.501278 1_545
Na14 O54 2.701149 1_555
Na14 O46 2.712286 1_545
Na14 O3 2.717582 1_555
Na15 O11 2.238963 1_555
Na15 O39 2.364480 1_545
Na15 O19 2.501278 1_545
Na15 O55 2.701149 1_555
Na15 O47 2.712286 1_545
Na15 O2 2.717582 1_555
Na16 O32 2.385234 1_555
Na16 O16 2.439890 1_565
Na16 O48 2.493750 1_555
Na16 O4 2.567026 1_555
Na16 O70 2.618291 1_555
Na16 O52 2.710008 1_555
Na16 O74 2.837902 1_555
Na16 O8 2.891427 1_555
Na17 O33 2.385234 1_655
Na17 O17 2.439890 1_565
Na17 O49 2.493750 1_655
Na17 O5 2.567026 1_655
Na17 O71 2.618291 1_655
Na17 O53 2.710008 1_555
Na17 O75 2.837902 1_555
Na17 O9 2.891427 1_555
Na18 O34 2.385234 1_555
Na18 O18 2.439890 1_545
Na18 O50 2.493750 1_555
Na18 O6 2.567026 1_555
Na18 O68 2.618291 1_555
Na18 O54 2.710008 1_555
Na18 O72 2.837902 1_555
Na18 O10 2.891427 1_555
Na19 O35 2.385234 1_455
Na19 O19 2.439890 1_545
Na19 O51 2.493750 1_455
Na19 O7 2.567026 1_455
Na19 O69 2.618291 1_455
Na19 O55 2.710008 1_555
Na19 O73 2.837902 1_555
Na19 O11 2.891427 1_555
Na20 O66 2.407737 1_655
Na20 O56 2.447044 1_556
Na20 O62 2.540564 1_555
Na20 O72 2.574334 1_565
Na20 O22 2.613521 1_655
Na20 O78 2.803607 1_555
Na20 O60 2.909158 1_656
Na21 O67 2.407737 1_555
Na21 O57 2.447044 1_555
Na21 O63 2.540564 1_555
Na21 O73 2.574334 1_565
Na21 O23 2.613521 1_555
Na21 O79 2.803607 1_555
Na21 O61 2.909158 1_555
Na22 O64 2.407737 1_455
Na22 O58 2.447044 1_554
Na22 O60 2.540564 1_555
Na22 O74 2.574334 1_545
Na22 O20 2.613521 1_455
Na22 O76 2.803607 1_555
Na22 O62 2.909158 1_454
Na23 O65 2.407737 1_555
Na23 O59 2.447044 1_555
Na23 O61 2.540564 1_555
Na23 O75 2.574334 1_545
Na23 O21 2.613521 1_555
Na23 O77 2.803607 1_555
Na23 O63 2.909158 1_555
Na24 O0 2.474997 1_545
Na24 O45 2.510637 1_555
Na24 O13 2.631317 1_455
Na24 O44 2.639591 1_555
Na24 O29 2.677365 1_555
Na24 O41 2.728352 1_455
Na24 O16 2.969741 1_555
Na25 O1 2.474997 1_545
Na25 O44 2.510637 1_555
Na25 O12 2.631317 1_555
Na25 O45 2.639591 1_555
Na25 O28 2.677365 1_555
Na25 O40 2.728352 1_555
Na25 O17 2.969741 1_555
Na26 O2 2.474997 1_565
Na26 O47 2.510637 1_555
Na26 O15 2.631317 1_655
Na26 O46 2.639591 1_555
Na26 O31 2.677365 1_555
Na26 O43 2.728352 1_655
Na26 O18 2.969741 1_555
Na27 O3 2.474997 1_565
Na27 O46 2.510637 1_555
Na27 O14 2.631317 1_555
Na27 O47 2.639591 1_555
Na27 O30 2.677365 1_555
Na27 O42 2.728352 1_555
Na27 O19 2.969741 1_555
Cu0 O56 1.915857 1_545
Cu0 O20 1.922484 1_555
Cu0 O74 2.164486 1_645
Cu0 O64 2.174946 1_555
Cu0 O36 2.211754 1_555
Cu1 O57 1.915857 1_545
Cu1 O21 1.922484 1_455
Cu1 O75 2.164486 1_445
Cu1 O65 2.174946 1_455
Cu1 O37 2.211754 1_555
Cu2 O58 1.915857 1_565
Cu2 O22 1.922484 1_555
Cu2 O72 2.164486 1_465
Cu2 O66 2.174946 1_555
Cu2 O38 2.211754 1_555
Cu3 O59 1.915857 1_565
Cu3 O23 1.922484 1_655
Cu3 O73 2.164486 1_665
Cu3 O67 2.174946 1_655
Cu3 O39 2.211754 1_555
Cu4 O68 1.913804 1_555
Cu4 O26 1.936841 1_555
Cu4 O62 2.049170 1_555
Cu4 O34 2.126462 1_555
Cu4 O78 2.576016 1_555
Cu5 O69 1.913803 1_555
Cu5 O27 1.936841 1_555
Cu5 O63 2.049170 1_555
Cu5 O35 2.126462 1_555
Cu5 O79 2.576016 1_555
Cu6 O70 1.913804 1_555
Cu6 O24 1.936841 1_555
Cu6 O60 2.049170 1_555
Cu6 O32 2.126462 1_555
Cu6 O76 2.576016 1_555
Cu7 O71 1.913803 1_555
Cu7 O25 1.936841 1_555
Cu7 O61 2.049170 1_555
Cu7 O33 2.126462 1_555
Cu7 O77 2.576016 1_555
Cu8 O4 1.930534 1_555
Cu8 O29 1.954310 1_555
Cu8 O48 2.087068 1_555
Cu8 O44 2.129636 1_555
Cu8 O13 2.191495 1_455
Cu9 O5 1.930534 1_555
Cu9 O28 1.954310 1_555
Cu9 O49 2.087068 1_555
Cu9 O45 2.129636 1_555
Cu9 O12 2.191495 1_555
Cu10 O6 1.930534 1_555
Cu10 O31 1.954310 1_555
Cu10 O50 2.087068 1_555
Cu10 O46 2.129636 1_555
Cu10 O15 2.191495 1_655
Cu11 O7 1.930534 1_555
Cu11 O30 1.954310 1_555
Cu11 O51 2.087068 1_555
Cu11 O47 2.129636 1_555
Cu11 O14 2.191495 1_555
Cu12 O8 1.895132 1_555
Cu12 O29 1.944944 1_655
Cu12 O40 1.954133 1_555
Cu12 O13 2.004066 1_555
Cu13 O9 1.895133 1_555
Cu13 O28 1.944944 1_555
Cu13 O41 1.954133 1_555
Cu13 O12 2.004066 1_555
Cu14 O10 1.895132 1_555
Cu14 O31 1.944944 1_455
Cu14 O42 1.954133 1_555
Cu14 O15 2.004066 1_555
Cu15 O11 1.895133 1_555
Cu15 O30 1.944944 1_555
Cu15 O43 1.954133 1_555
Cu15 O14 2.004066 1_555
As0 O0 1.703621 1_555
As0 O12 1.728164 1_555
As0 O4 1.728191 1_555
As0 O8 1.732772 1_555
As1 O1 1.703621 1_555
As1 O13 1.728164 1_555
As1 O5 1.728191 1_655
As1 O9 1.732772 1_555
As2 O2 1.703621 1_555
As2 O14 1.728164 1_555
As2 O6 1.728191 1_555
As2 O10 1.732772 1_555
As3 O3 1.703621 1_555
As3 O15 1.728164 1_555
As3 O7 1.728191 1_455
As3 O11 1.732772 1_555
As4 O16 1.693164 1_555
As4 O20 1.717422 1_455
As4 O24 1.720968 1_555
As4 O29 1.761895 1_555
As5 O17 1.693164 1_555
As5 O21 1.717422 1_555
As5 O25 1.720968 1_555
As5 O28 1.761895 1_555
As6 O18 1.693164 1_555
As6 O22 1.717422 1_655
As6 O26 1.720968 1_555
As6 O31 1.761895 1_555
As7 O19 1.693164 1_555
As7 O23 1.717422 1_555
As7 O27 1.720968 1_555
As7 O30 1.761895 1_555
As8 O32 1.713553 1_555
As8 O36 1.725553 1_555
As8 O40 1.736283 1_555
As8 O44 1.750718 1_555
As9 O33 1.713553 1_555
As9 O37 1.725553 1_555
As9 O41 1.736283 1_455
As9 O45 1.750718 1_555
As10 O34 1.713553 1_555
As10 O38 1.725553 1_555
As10 O42 1.736283 1_555
As10 O46 1.750718 1_555
As11 O35 1.713553 1_555
As11 O39 1.725553 1_555
As11 O43 1.736283 1_655
As11 O47 1.750718 1_555
As12 O52 1.713056 1_555
As12 O48 1.726075 1_655
As12 O60 1.745830 1_655
As12 O56 1.751138 1_555
As13 O53 1.713056 1_555
As13 O49 1.726075 1_555
As13 O61 1.745830 1_555
As13 O57 1.751138 1_555
As14 O54 1.713056 1_555
As14 O50 1.726075 1_455
As14 O62 1.745830 1_455
As14 O58 1.751138 1_555
As15 O55 1.713056 1_555
As15 O51 1.726075 1_555
As15 O63 1.745830 1_555
As15 O59 1.751138 1_555
As16 O64 1.706264 1_556
As16 O76 1.726536 1_556
As16 O68 1.732385 1_555
As16 O72 1.742159 1_555
As17 O65 1.706264 1_455
As17 O77 1.726536 1_555
As17 O69 1.732385 1_455
As17 O73 1.742159 1_555
As18 O66 1.706264 1_554
As18 O78 1.726536 1_554
As18 O70 1.732385 1_555
As18 O74 1.742159 1_555
As19 O67 1.706264 1_655
As19 O79 1.726536 1_555
As19 O71 1.732385 1_655
As19 O75 1.742159 1_555
