# generated using pymatgen
data_SbPb2S2I3
_symmetry_space_group_name_H-M   'P 1'
_cell_length_a   7.74378503
_cell_length_b   7.74378503
_cell_length_c   16.48976800
_cell_angle_alpha   90.00000000
_cell_angle_beta   90.00000000
_cell_angle_gamma   146.03436047
_symmetry_Int_Tables_number   1
_chemical_formula_structural   SbPb2S2I3
_chemical_formula_sum   'Sb2 Pb4 S4 I6'
_cell_volume   552.45434444
_cell_formula_units_Z   2
loop_
 _symmetry_equiv_pos_site_id
 _symmetry_equiv_pos_as_xyz
  1  'x, y, z'
loop_
 _atom_site_type_symbol
 _atom_site_label
 _atom_site_symmetry_multiplicity
 _atom_site_fract_x
 _atom_site_fract_y
 _atom_site_fract_z
 _atom_site_occupancy
  Sb  Sb0  1  0.65533000  0.34467000  0.01678400  1
  Sb  Sb1  1  0.34467000  0.65533000  0.51678400  1
  Pb  Pb0  1  0.30431300  0.69568700  0.23909300  1
  Pb  Pb1  1  0.69568700  0.30431300  0.73909300  1
  Pb  Pb2  1  0.37550400  0.62449600  0.97142100  1
  Pb  Pb3  1  0.62449600  0.37550400  0.47142100  1
  S  S0  1  0.77437600  0.22562400  0.91437300  1
  S  S1  1  0.22342000  0.77658000  0.07596700  1
  S  S2  1  0.77658000  0.22342000  0.57596700  1
  S  S3  1  0.22562400  0.77437600  0.41437300  1
  I  I0  1  0.65448900  0.34551100  0.24727600  1
  I  I1  1  0.34551100  0.65448900  0.74727600  1
  I  I2  1  0.93483200  0.06516800  0.12470500  1
  I  I3  1  0.05897900  0.94102100  0.89018200  1
  I  I4  1  0.94102100  0.05897900  0.39018200  1
  I  I5  1  0.06516800  0.93483200  0.62470500  1
loop_
_geom_bond_atom_site_label_1
_geom_bond_atom_site_label_2
_geom_bond_distance
_geom_bond_site_symmetry_2
Pb0 S1 2.944708 1_555
Pb0 S3 3.116490 1_555
Pb1 S2 2.944708 1_555
Pb1 S0 3.116490 1_555
Pb2 S1 2.836655 1_556
Pb2 S0 2.871350 1_455
Pb2 S0 2.871350 1_565
Pb3 S2 2.836655 1_555
Pb3 S3 2.871350 1_545
Pb3 S3 2.871350 1_655
S0 Sb0 2.441549 1_556
S1 Sb0 2.661868 1_565
S1 Sb0 2.661868 1_455
S2 Sb1 2.661868 1_545
S2 Sb1 2.661868 1_655
S3 Sb1 2.441549 1_555
I0 Pb0 3.171607 1_545
I0 Pb0 3.171607 1_655
I1 Pb1 3.171607 1_455
I1 Pb1 3.171607 1_565
I2 Pb2 3.503860 1_654
I2 Pb2 3.503860 1_544
I2 Pb0 3.522974 1_655
I2 Pb0 3.522974 1_545
I3 Sb0 3.392783 1_456
I3 Sb0 3.392783 1_566
I4 Sb1 3.392783 1_545
I4 Sb1 3.392783 1_655
I5 Pb3 3.503860 1_565
I5 Pb3 3.503860 1_455
I5 Pb1 3.522974 1_565
I5 Pb1 3.522974 1_455
