# generated using pymatgen
data_LiY3(PO4)3
_symmetry_space_group_name_H-M   'P 1'
_cell_length_a   6.47809178
_cell_length_b   7.03211067
_cell_length_c   6.90337494
_cell_angle_alpha   120.61880914
_cell_angle_beta   89.86046022
_cell_angle_gamma   90.27397285
_symmetry_Int_Tables_number   1
_chemical_formula_structural   LiY3(PO4)3
_chemical_formula_sum   'Li1 Y3 P3 O12'
_cell_volume   270.63125454
_cell_formula_units_Z   1
loop_
 _symmetry_equiv_pos_site_id
 _symmetry_equiv_pos_as_xyz
  1  'x, y, z'
loop_
 _atom_site_type_symbol
 _atom_site_label
 _atom_site_symmetry_multiplicity
 _atom_site_fract_x
 _atom_site_fract_y
 _atom_site_fract_z
 _atom_site_occupancy
  Li  Li0  1  0.16666700  0.30183600  0.60367200  1
  Y  Y0  1  0.40379900  0.93962000  0.52921000  1
  Y  Y1  1  0.66666700  0.50136900  0.00273900  1
  Y  Y2  1  0.92953400  0.58958900  0.52921000  1
  P  P0  1  0.84993200  0.03654200  0.49051400  1
  P  P1  1  0.16666600  0.50784200  0.01568400  1
  P  P2  1  0.48340100  0.45397100  0.49051400  1
  O  O0  1  0.71180200  0.85719800  0.29990500  1
  O  O1  1  0.00303800  0.46716500  0.15503200  1
  O  O2  1  0.30007200  0.61734700  0.54282400  1
  O  O3  1  0.70762700  0.15124400  0.70427100  1
  O  O4  1  0.03128500  0.56211900  0.86240400  1
  O  O5  1  0.40163400  0.22546400  0.42886700  1
  O  O6  1  0.62570600  0.55302500  0.70427100  1
  O  O7  1  0.30204800  0.30028400  0.86240400  1
  O  O8  1  0.93170000  0.20340200  0.42886700  1
  O  O9  1  0.62153100  0.44270800  0.29990500  1
  O  O10  1  0.33029500  0.68786900  0.15503200  1
  O  O11  1  0.03326200  0.92547800  0.54282400  1
loop_
_geom_bond_atom_site_label_1
_geom_bond_atom_site_label_2
_geom_bond_distance
_geom_bond_site_symmetry_2
Li0 O5 1.843980 1_555
Li0 O8 1.843980 1_455
Li0 O4 1.996768 1_555
Li0 O7 1.996768 1_555
O0 P0 1.557943 1_565
O0 Y1 2.306965 1_555
O0 Y0 2.425683 1_555
O1 P1 1.550238 1_555
O1 Y2 2.317956 1_455
O1 Y1 2.486995 1_455
O2 P2 1.564965 1_555
O2 Y2 2.405553 1_455
O2 Y0 2.407982 1_555
O3 P0 1.570350 1_555
O3 Y1 2.283369 1_556
O3 Y0 2.387596 1_545
O4 P1 1.566409 1_556
O4 Y2 2.494747 1_455
O4 Y1 2.664773 1_456
O5 P2 1.529749 1_555
O5 Y0 2.437040 1_545
O6 P2 1.570350 1_555
O6 Y1 2.283365 1_556
O6 Y2 2.387599 1_555
O7 P1 1.566417 1_556
O7 Y0 2.494748 1_545
O7 Y1 2.664778 1_556
O8 P0 1.529751 1_555
O8 Y2 2.437041 1_555
O9 P2 1.557949 1_555
O9 Y1 2.306957 1_555
O9 Y2 2.425682 1_555
O10 P1 1.550249 1_555
O10 Y0 2.317952 1_555
O10 Y1 2.487008 1_555
O11 P0 1.564962 1_465
O11 Y0 2.405546 1_555
O11 Y2 2.407997 1_455
