# generated using pymatgen
data_CeSe2
_symmetry_space_group_name_H-M   'P 1'
_cell_length_a   23.81227738
_cell_length_b   23.81227738
_cell_length_c   23.81227738
_cell_angle_alpha   60.00000000
_cell_angle_beta   60.00000000
_cell_angle_gamma   60.00000000
_symmetry_Int_Tables_number   1
_chemical_formula_structural   CeSe2
_chemical_formula_sum   'Ce34 Se68'
_cell_volume   9547.45896853
_cell_formula_units_Z   34
loop_
 _symmetry_equiv_pos_site_id
 _symmetry_equiv_pos_as_xyz
  1  'x, y, z'
loop_
 _atom_site_type_symbol
 _atom_site_label
 _atom_site_symmetry_multiplicity
 _atom_site_fract_x
 _atom_site_fract_y
 _atom_site_fract_z
 _atom_site_occupancy
  Ce  Ce0  1  0.26507814  0.99401250  0.37048403  1
  Ce  Ce1  1  0.87048403  0.37042534  0.76507814  1
  Ce  Ce2  1  0.87042534  0.37048403  0.99401250  1
  Ce  Ce3  1  0.49401250  0.76507814  0.37042534  1
  Ce  Ce4  1  0.26507814  0.37042534  0.99401250  1
  Ce  Ce5  1  0.87048403  0.99401250  0.37042534  1
  Ce  Ce6  1  0.87042534  0.76507814  0.37048403  1
  Ce  Ce7  1  0.49401250  0.37048403  0.76507814  1
  Ce  Ce8  1  0.26507814  0.37048403  0.37042534  1
  Ce  Ce9  1  0.87048403  0.76507814  0.99401250  1
  Ce  Ce10  1  0.87042534  0.99401250  0.76507814  1
  Ce  Ce11  1  0.49401250  0.37042534  0.37048403  1
  Ce  Ce12  1  0.73492186  0.00598750  0.62951597  1
  Ce  Ce13  1  0.12951597  0.62957466  0.23492186  1
  Ce  Ce14  1  0.12957466  0.62951597  0.00598750  1
  Ce  Ce15  1  0.50598750  0.23492186  0.62957466  1
  Ce  Ce16  1  0.73492186  0.62957466  0.00598750  1
  Ce  Ce17  1  0.12951597  0.00598750  0.62957466  1
  Ce  Ce18  1  0.12957466  0.23492186  0.62951597  1
  Ce  Ce19  1  0.50598750  0.62951597  0.23492186  1
  Ce  Ce20  1  0.73492186  0.62951597  0.62957466  1
  Ce  Ce21  1  0.12951597  0.23492186  0.00598750  1
  Ce  Ce22  1  0.12957466  0.00598750  0.23492186  1
  Ce  Ce23  1  0.50598750  0.62957466  0.62951597  1
  Ce  Ce24  1  0.71717415  0.84847755  0.21717415  1
  Ce  Ce25  1  0.71717415  0.21717415  0.21717415  1
  Ce  Ce26  1  0.71717415  0.21717415  0.84847755  1
  Ce  Ce27  1  0.34847755  0.21717415  0.21717415  1
  Ce  Ce28  1  0.28282585  0.15152245  0.78282585  1
  Ce  Ce29  1  0.28282585  0.78282585  0.78282585  1
  Ce  Ce30  1  0.28282585  0.78282585  0.15152245  1
  Ce  Ce31  1  0.65152245  0.78282585  0.78282585  1
  Ce  Ce32  1  0.62500000  0.12500000  0.12500000  1
  Ce  Ce33  1  0.37500000  0.87500000  0.87500000  1
  Se  Se0  1  0.99982701  0.00043177  0.68693913  1
  Se  Se1  1  0.18693913  0.31280209  0.49982701  1
  Se  Se2  1  0.81280209  0.68693913  0.00043177  1
  Se  Se3  1  0.50043177  0.49982701  0.31280209  1
  Se  Se4  1  0.99982701  0.31280209  0.00043177  1
  Se  Se5  1  0.18693913  0.00043177  0.31280209  1
  Se  Se6  1  0.81280209  0.49982701  0.68693913  1
  Se  Se7  1  0.50043177  0.68693913  0.49982701  1
  Se  Se8  1  0.99982701  0.68693913  0.31280209  1
  Se  Se9  1  0.18693913  0.49982701  0.00043177  1
  Se  Se10  1  0.81280209  0.00043177  0.49982701  1
  Se  Se11  1  0.50043177  0.31280209  0.68693913  1
  Se  Se12  1  0.00017299  0.99956823  0.31306087  1
  Se  Se13  1  0.81306087  0.68719791  0.50017299  1
  Se  Se14  1  0.18719791  0.31306087  0.99956823  1
  Se  Se15  1  0.49956823  0.50017299  0.68719791  1
  Se  Se16  1  0.00017299  0.68719791  0.99956823  1
  Se  Se17  1  0.81306087  0.99956823  0.68719791  1
  Se  Se18  1  0.18719791  0.50017299  0.31306087  1
  Se  Se19  1  0.49956823  0.31306087  0.50017299  1
  Se  Se20  1  0.00017299  0.31306087  0.68719791  1
  Se  Se21  1  0.81306087  0.50017299  0.99956823  1
  Se  Se22  1  0.18719791  0.99956823  0.50017299  1
  Se  Se23  1  0.49956823  0.68719791  0.31306087  1
  Se  Se24  1  0.39346780  0.70596478  0.19459027  1
  Se  Se25  1  0.69459027  0.70597715  0.89346780  1
  Se  Se26  1  0.20597715  0.19459027  0.70596478  1
  Se  Se27  1  0.20596478  0.89346780  0.70597715  1
  Se  Se28  1  0.39346780  0.70597715  0.70596478  1
  Se  Se29  1  0.69459027  0.70596478  0.70597715  1
  Se  Se30  1  0.20597715  0.89346780  0.19459027  1
  Se  Se31  1  0.20596478  0.19459027  0.89346780  1
  Se  Se32  1  0.39346780  0.19459027  0.70597715  1
  Se  Se33  1  0.69459027  0.89346780  0.70596478  1
  Se  Se34  1  0.20597715  0.70596478  0.89346780  1
  Se  Se35  1  0.20596478  0.70597715  0.19459027  1
  Se  Se36  1  0.60653220  0.29403522  0.80540973  1
  Se  Se37  1  0.30540973  0.29402285  0.10653220  1
  Se  Se38  1  0.79402285  0.80540973  0.29403522  1
  Se  Se39  1  0.79403522  0.10653220  0.29402285  1
  Se  Se40  1  0.60653220  0.29402285  0.29403522  1
  Se  Se41  1  0.30540973  0.29403522  0.29402285  1
  Se  Se42  1  0.79402285  0.10653220  0.80540973  1
  Se  Se43  1  0.79403522  0.80540973  0.10653220  1
  Se  Se44  1  0.60653220  0.80540973  0.29402285  1
  Se  Se45  1  0.30540973  0.10653220  0.29403522  1
  Se  Se46  1  0.79402285  0.29403522  0.10653220  1
  Se  Se47  1  0.79403522  0.29402285  0.80540973  1
  Se  Se48  1  0.87316230  0.87683770  0.87683770  1
  Se  Se49  1  0.37683770  0.37316230  0.37316230  1
  Se  Se50  1  0.87316230  0.37316230  0.87683770  1
  Se  Se51  1  0.37683770  0.87683770  0.37316230  1
  Se  Se52  1  0.87316230  0.87683770  0.37316230  1
  Se  Se53  1  0.37683770  0.37316230  0.87683770  1
  Se  Se54  1  0.12683770  0.12316230  0.12316230  1
  Se  Se55  1  0.62316230  0.62683770  0.62683770  1
  Se  Se56  1  0.12683770  0.62683770  0.12316230  1
  Se  Se57  1  0.62316230  0.12316230  0.62683770  1
  Se  Se58  1  0.12683770  0.12316230  0.62683770  1
  Se  Se59  1  0.62316230  0.62683770  0.12316230  1
  Se  Se60  1  0.67104718  0.98685846  0.17104718  1
  Se  Se61  1  0.67104718  0.17104718  0.17104718  1
  Se  Se62  1  0.67104718  0.17104718  0.98685846  1
  Se  Se63  1  0.48685846  0.17104718  0.17104718  1
  Se  Se64  1  0.32895282  0.01314154  0.82895282  1
  Se  Se65  1  0.32895282  0.82895282  0.82895282  1
  Se  Se66  1  0.32895282  0.82895282  0.01314154  1
  Se  Se67  1  0.51314154  0.82895282  0.82895282  1
loop_
_geom_bond_atom_site_label_1
_geom_bond_atom_site_label_2
_geom_bond_distance
_geom_bond_site_symmetry_2
Ce0 Se45 2.713402 1_565
Ce0 Se22 2.725757 1_555
Ce0 Se5 2.726423 1_565
Ce0 Se51 2.727249 1_555
Ce1 Se47 2.713403 1_555
Ce1 Se20 2.725757 1_655
Ce1 Se6 2.726423 1_555
Ce1 Se50 2.727249 1_555
Ce2 Se46 2.713403 1_556
Ce2 Se21 2.725757 1_555
Ce2 Se4 2.726423 1_556
Ce2 Se50 2.727249 1_555
Ce3 Se44 2.713402 1_555
Ce3 Se23 2.725757 1_555
Ce3 Se7 2.726423 1_555
Ce3 Se51 2.727249 1_555
Ce4 Se37 2.713402 1_556
Ce4 Se14 2.725757 1_555
Ce4 Se9 2.726423 1_556
Ce4 Se53 2.727249 1_555
Ce5 Se39 2.713403 1_565
Ce5 Se12 2.725757 1_655
Ce5 Se10 2.726423 1_565
Ce5 Se52 2.727249 1_555
Ce6 Se38 2.713403 1_555
Ce6 Se13 2.725757 1_555
Ce6 Se8 2.726423 1_555
Ce6 Se52 2.727249 1_555
Ce7 Se36 2.713402 1_555
Ce7 Se15 2.725757 1_555
Ce7 Se11 2.726423 1_555
Ce7 Se53 2.727249 1_555
Ce8 Se41 2.713403 1_555
Ce8 Se18 2.725757 1_555
Ce8 Se1 2.726423 1_555
Ce8 Se49 2.727249 1_555
Ce9 Se43 2.713402 1_556
Ce9 Se16 2.725757 1_655
Ce9 Se2 2.726423 1_556
Ce9 Se48 2.727249 1_555
Ce10 Se42 2.713402 1_565
Ce10 Se17 2.725757 1_555
Ce10 Se0 2.726423 1_565
Ce10 Se48 2.727249 1_555
Ce11 Se40 2.713403 1_555
Ce11 Se19 2.725757 1_555
Ce11 Se3 2.726423 1_555
Ce11 Se49 2.727249 1_555
Ce12 Se33 2.713402 1_545
Ce12 Se10 2.725757 1_555
Ce12 Se17 2.726423 1_545
Ce12 Se57 2.727249 1_555
Ce13 Se35 2.713403 1_555
Ce13 Se8 2.725757 1_455
Ce13 Se18 2.726423 1_555
Ce13 Se56 2.727249 1_555
Ce14 Se34 2.713403 1_554
Ce14 Se9 2.725757 1_555
Ce14 Se16 2.726423 1_554
Ce14 Se56 2.727249 1_555
Ce15 Se32 2.713402 1_555
Ce15 Se11 2.725757 1_555
Ce15 Se19 2.726423 1_555
Ce15 Se57 2.727249 1_555
Ce16 Se25 2.713402 1_554
Ce16 Se2 2.725757 1_555
Ce16 Se21 2.726423 1_554
Ce16 Se59 2.727249 1_555
Ce17 Se27 2.713403 1_545
Ce17 Se0 2.725757 1_455
Ce17 Se22 2.726423 1_545
Ce17 Se58 2.727249 1_555
Ce18 Se26 2.713403 1_555
Ce18 Se1 2.725757 1_555
Ce18 Se20 2.726423 1_555
Ce18 Se58 2.727249 1_555
Ce19 Se24 2.713402 1_555
Ce19 Se3 2.725757 1_555
Ce19 Se23 2.726423 1_555
Ce19 Se59 2.727249 1_555
Ce20 Se29 2.713403 1_555
Ce20 Se6 2.725757 1_555
Ce20 Se13 2.726423 1_555
Ce20 Se55 2.727249 1_555
Ce21 Se31 2.713402 1_554
Ce21 Se4 2.725757 1_455
Ce21 Se14 2.726423 1_554
Ce21 Se54 2.727249 1_555
Ce22 Se30 2.713402 1_545
Ce22 Se5 2.725757 1_555
Ce22 Se12 2.726423 1_545
Ce22 Se54 2.727249 1_555
Ce23 Se28 2.713403 1_555
Ce23 Se7 2.725757 1_555
Ce23 Se15 2.726423 1_555
Ce23 Se55 2.727249 1_555
Ce24 Se60 2.690491 1_555
Ce24 Se38 2.710305 1_555
Ce24 Se44 2.710305 1_555
Ce24 Se43 2.710305 1_555
Ce25 Se61 2.690491 1_555
Ce25 Se40 2.710305 1_555
Ce25 Se46 2.710305 1_555
Ce25 Se39 2.710305 1_555
Ce26 Se62 2.690491 1_555
Ce26 Se36 2.710305 1_555
Ce26 Se42 2.710305 1_555
Ce26 Se47 2.710305 1_555
Ce27 Se63 2.690491 1_555
Ce27 Se41 2.710305 1_555
Ce27 Se37 2.710305 1_555
Ce27 Se45 2.710305 1_555
Ce28 Se64 2.690491 1_555
Ce28 Se32 2.710305 1_555
Ce28 Se31 2.710305 1_555
Ce28 Se26 2.710305 1_555
Ce29 Se65 2.690491 1_555
Ce29 Se27 2.710305 1_555
Ce29 Se34 2.710305 1_555
Ce29 Se28 2.710305 1_555
Ce30 Se66 2.690491 1_555
Ce30 Se24 2.710305 1_555
Ce30 Se30 2.710305 1_555
Ce30 Se35 2.710305 1_555
Ce31 Se67 2.690491 1_555
Ce31 Se33 2.710305 1_555
Ce31 Se25 2.710305 1_555
Ce31 Se29 2.710305 1_555
Ce32 Se61 2.685837 1_555
Ce32 Se60 2.685837 1_545
Ce32 Se62 2.685837 1_554
Ce32 Se63 2.685837 1_555
Ce33 Se64 2.685837 1_565
Ce33 Se66 2.685837 1_556
Ce33 Se65 2.685837 1_555
Ce33 Se67 2.685837 1_555
