# generated using pymatgen
data_Mg4Si7
_symmetry_space_group_name_H-M   'P 1'
_cell_length_a   4.38167800
_cell_length_b   6.58070420
_cell_length_c   13.84718424
_cell_angle_alpha   86.94507864
_cell_angle_beta   88.33711871
_cell_angle_gamma   86.40823384
_symmetry_Int_Tables_number   1
_chemical_formula_structural   Mg4Si7
_chemical_formula_sum   'Mg8 Si14'
_cell_volume   397.79430484
_cell_formula_units_Z   2
loop_
 _symmetry_equiv_pos_site_id
 _symmetry_equiv_pos_as_xyz
  1  'x, y, z'
loop_
 _atom_site_type_symbol
 _atom_site_label
 _atom_site_symmetry_multiplicity
 _atom_site_fract_x
 _atom_site_fract_y
 _atom_site_fract_z
 _atom_site_occupancy
  Mg  Mg0  1  0.23677900  0.04599500  0.92278700  1
  Mg  Mg1  1  0.24496200  0.37213000  0.51348200  1
  Mg  Mg2  1  0.79472400  0.19880700  0.32892200  1
  Mg  Mg3  1  0.71982400  0.54625700  0.65716900  1
  Mg  Mg4  1  0.19402800  0.52559500  0.85029300  1
  Mg  Mg5  1  0.77152100  0.66367500  0.19423000  1
  Mg  Mg6  1  0.73930000  0.68504100  0.42693800  1
  Mg  Mg7  1  0.75223700  0.05828000  0.58646200  1
  Si  Si0  1  0.68513300  0.35440800  0.95839800  1
  Si  Si1  1  0.78124000  0.73549600  0.98023700  1
  Si  Si2  1  0.29485600  0.62380100  0.05219200  1
  Si  Si3  1  0.38015100  0.34714300  0.17326200  1
  Si  Si4  1  0.21838800  0.75062200  0.56167200  1
  Si  Si5  1  0.31080900  0.01441300  0.44128200  1
  Si  Si6  1  0.24595000  0.00096500  0.13841500  1
  Si  Si7  1  0.72038300  0.83516700  0.80568400  1
  Si  Si8  1  0.22720300  0.24238700  0.70640900  1
  Si  Si9  1  0.74655900  0.05806700  0.06608000  1
  Si  Si10  1  0.25803400  0.49624200  0.32488900  1
  Si  Si11  1  0.72441800  0.21580800  0.79974600  1
  Si  Si12  1  0.22804000  0.87669000  0.71872100  1
  Si  Si13  1  0.21818100  0.85667900  0.29629000  1
loop_
_geom_bond_atom_site_label_1
_geom_bond_atom_site_label_2
_geom_bond_distance
_geom_bond_site_symmetry_2
Mg0 Si9 2.881889 1_456
Mg0 Si11 2.932910 1_555
Mg0 Si7 2.952364 1_545
Mg0 Si0 2.980642 1_555
Mg0 Si11 2.982678 1_455
Mg0 Si6 2.985940 1_556
Mg0 Si1 3.006269 1_445
Mg0 Si9 3.037930 1_556
Mg0 Si12 3.094314 1_545
Mg0 Si0 3.102855 1_455
Mg0 Si1 3.134550 1_545
Mg0 Si8 3.199561 1_555
Mg0 Si2 3.225217 1_546
Mg0 Si7 3.243466 1_445
Mg0 Mg4 3.256214 1_555
Mg1 Si5 2.602546 1_555
Mg1 Si4 2.607480 1_555
Mg1 Si10 2.694444 1_555
Mg1 Si8 2.761352 1_555
Mg2 Si13 2.872672 1_645
Mg2 Si5 2.884229 1_555
Mg2 Si10 2.904325 1_655
Mg2 Si5 2.943789 1_655
Mg2 Si3 2.946086 1_555
Mg2 Si10 2.963707 1_555
Mg3 Si4 2.827285 1_555
Mg3 Si11 2.857669 1_555
Mg3 Si7 2.874292 1_555
Mg3 Si4 2.887984 1_655
Mg3 Si8 2.965087 1_655
Mg3 Si8 3.071292 1_555
Mg3 Si12 3.098713 1_555
Mg4 Si8 2.794490 1_555
Mg4 Si0 2.800701 1_555
Mg4 Si1 2.860085 1_455
Mg4 Si7 2.872179 1_455
Mg4 Si12 2.873751 1_555
Mg4 Si0 2.902287 1_455
Mg4 Si2 2.954488 1_556
Mg4 Si11 3.083975 1_555
Mg4 Si11 3.105024 1_455
Mg5 Si3 2.811558 1_555
Mg5 Si13 2.846758 1_655
Mg5 Si2 2.943054 1_555
Mg5 Si10 2.957844 1_655
Mg5 Si1 2.975177 1_554
Mg5 Si2 2.985526 1_655
Mg5 Si13 3.015877 1_555
Mg5 Si9 3.062950 1_565
Mg5 Si10 3.067821 1_555
Mg5 Si6 3.179194 1_565
Mg5 Si6 3.185500 1_665
Mg6 Si5 2.788711 1_565
Mg6 Si10 2.890251 1_655
Mg6 Si4 2.915536 1_655
Mg6 Si4 2.931204 1_555
Mg6 Si10 2.945444 1_555
Mg6 Si13 2.968223 1_655
Mg6 Si13 3.075914 1_555
Mg7 Si4 2.811409 1_645
Mg7 Si5 2.867643 1_555
Mg7 Si12 2.967274 1_645
Mg7 Si8 3.026959 1_555
Mg7 Si8 3.047743 1_655
Mg7 Si5 3.130930 1_655
Mg7 Si12 3.150263 1_545
Mg7 Si11 3.178295 1_555
Si0 Si9 2.397167 1_556
Si0 Si11 2.420698 1_555
Si0 Si1 2.603560 1_555
Si0 Si2 2.736904 1_556
Si1 Si2 2.463722 1_556
Si1 Si9 2.481965 1_566
Si1 Si7 2.487980 1_555
Si1 Si2 2.538228 1_656
Si2 Si3 2.427065 1_555
Si2 Si6 2.804664 1_565
Si3 Si6 2.463697 1_555
Si3 Si9 2.859919 1_555
Si4 Si5 2.386837 1_565
Si6 Si9 2.427261 1_555
Si6 Si9 2.432413 1_455
Si10 Si13 2.380204 1_555
Si10 Si3 2.397073 1_555
Si11 Si7 2.503006 1_545
Si11 Si8 2.532461 1_655
Si11 Si8 2.557160 1_555
Si12 Si4 2.370938 1_555
Si12 Si8 2.403275 1_565
Si12 Si7 2.494089 1_555
Si12 Si7 2.521563 1_455
Si13 Si6 2.339507 1_565
Si13 Si5 2.365452 1_565
