# generated using pymatgen
data_RbMg6Mn
_symmetry_space_group_name_H-M   'P 1'
_cell_length_a   5.25279700
_cell_length_b   6.91451400
_cell_length_c   11.57104900
_cell_angle_alpha   90.00000000
_cell_angle_beta   90.00000000
_cell_angle_gamma   90.00000000
_symmetry_Int_Tables_number   1
_chemical_formula_structural   RbMg6Mn
_chemical_formula_sum   'Rb2 Mg12 Mn2'
_cell_volume   420.26672948
_cell_formula_units_Z   2
loop_
 _symmetry_equiv_pos_site_id
 _symmetry_equiv_pos_as_xyz
  1  'x, y, z'
loop_
 _atom_site_type_symbol
 _atom_site_label
 _atom_site_symmetry_multiplicity
 _atom_site_fract_x
 _atom_site_fract_y
 _atom_site_fract_z
 _atom_site_occupancy
  Rb  Rb0  1  0.50000000  0.50000000  0.83569600  1
  Rb  Rb1  1  0.50000000  0.00000000  0.33569600  1
  Mg  Mg0  1  0.50000000  0.24571500  0.08139600  1
  Mg  Mg1  1  0.50000000  0.75428500  0.08139600  1
  Mg  Mg2  1  0.00000000  0.21739700  0.91866400  1
  Mg  Mg3  1  0.00000000  0.78260300  0.91866400  1
  Mg  Mg4  1  0.00000000  0.50000000  0.17092100  1
  Mg  Mg5  1  0.00000000  0.50000000  0.65060600  1
  Mg  Mg6  1  0.50000000  0.74571500  0.58139600  1
  Mg  Mg7  1  0.50000000  0.25428500  0.58139600  1
  Mg  Mg8  1  0.00000000  0.71739700  0.41866400  1
  Mg  Mg9  1  0.00000000  0.28260300  0.41866400  1
  Mg  Mg10  1  0.00000000  0.00000000  0.67092100  1
  Mg  Mg11  1  0.00000000  0.00000000  0.15060600  1
  Mn  Mn0  1  0.50000000  0.50000000  0.34266300  1
  Mn  Mn1  1  0.50000000  0.00000000  0.84266300  1
loop_
_geom_bond_atom_site_label_1
_geom_bond_atom_site_label_2
_geom_bond_distance
_geom_bond_site_symmetry_2
Mg0 Mg11 3.228917 1_655
Mg0 Mg11 3.228917 1_555
Mg0 Mg2 3.237580 1_654
Mg0 Mg2 3.237580 1_554
Mg0 Mn1 3.243055 1_554
Mg0 Mg4 3.326037 1_655
Mg0 Mg4 3.326037 1_555
Mg0 Rb0 3.342777 1_554
Mg0 Rb1 3.397795 1_555
Mg0 Mg1 3.398000 1_545
Mg0 Mn0 3.497257 1_555
Mg0 Mg1 3.516514 1_555
Mg1 Mg11 3.228917 1_665
Mg1 Mg11 3.228917 1_565
Mg1 Mg3 3.237580 1_654
Mg1 Mg3 3.237580 1_554
Mg1 Mn1 3.243055 1_564
Mg1 Mg4 3.326037 1_655
Mg1 Mg4 3.326037 1_555
Mg1 Rb0 3.342777 1_554
Mg1 Rb1 3.397795 1_565
Mg1 Mn0 3.497257 1_555
Mg2 Mg3 3.006389 1_545
Mg2 Mn1 3.151337 1_555
Mg2 Mn1 3.151337 1_455
Mg2 Rb0 3.411448 1_455
Mg2 Rb0 3.411448 1_555
Mg2 Mg4 3.512579 1_556
Mg3 Mn1 3.151337 1_465
Mg3 Mn1 3.151337 1_565
Mg3 Rb0 3.411448 1_555
Mg3 Rb0 3.411448 1_455
Mg3 Mg4 3.512579 1_556
Mg4 Mg8 3.236859 1_555
Mg4 Mg9 3.236859 1_555
Mg4 Mn0 3.293489 1_455
Mg4 Mn0 3.293489 1_555
Mg5 Mg8 3.076108 1_555
Mg5 Mg9 3.076108 1_555
Mg5 Mg7 3.228917 1_455
Mg5 Mg7 3.228917 1_555
Mg5 Mg6 3.228917 1_455
Mg5 Mg6 3.228917 1_555
Mg5 Rb0 3.388921 1_455
Mg5 Rb0 3.388921 1_555
Mg6 Mg8 3.237580 1_555
Mg6 Mg8 3.237580 1_655
Mg6 Mn0 3.243055 1_555
Mg6 Rb1 3.342777 1_565
Mg6 Rb0 3.397795 1_555
Mg6 Mg7 3.398000 1_555
Mg6 Mn1 3.497257 1_565
Mg6 Mg7 3.516514 1_565
Mg7 Mg9 3.237580 1_555
Mg7 Mg9 3.237580 1_655
Mg7 Mn0 3.243055 1_555
Mg7 Rb1 3.342777 1_555
Mg7 Rb0 3.397795 1_555
Mg7 Mn1 3.497257 1_555
Mg8 Mg9 3.006389 1_555
Mg8 Mn0 3.151337 1_455
Mg8 Mn0 3.151337 1_555
Mg8 Rb1 3.411448 1_465
Mg8 Rb1 3.411448 1_565
Mg9 Mn0 3.151337 1_555
Mg9 Mn0 3.151337 1_455
Mg9 Rb1 3.411448 1_555
Mg9 Rb1 3.411448 1_455
Mg10 Mg2 3.236859 1_555
Mg10 Mg3 3.236859 1_545
Mg10 Mn1 3.293489 1_455
Mg10 Mn1 3.293489 1_555
Mg10 Mg7 3.326037 1_555
Mg10 Mg6 3.326037 1_545
Mg10 Mg6 3.326037 1_445
Mg10 Mg7 3.326037 1_455
Mg10 Mg5 3.465239 1_555
Mg10 Mg5 3.465239 1_545
Mg10 Mg8 3.512579 1_545
Mg10 Mg9 3.512579 1_555
Mg11 Mg2 3.076108 1_554
Mg11 Mg3 3.076108 1_544
Mg11 Rb1 3.388921 1_455
Mg11 Rb1 3.388921 1_555
Mg11 Mg4 3.465239 1_555
Mg11 Mg4 3.465239 1_545
Mn0 Rb1 3.458197 1_555
Mn0 Rb1 3.458197 1_565
Mn1 Rb0 3.458197 1_545
Mn1 Rb0 3.458197 1_555
