# generated using pymatgen
data_SrCo2BPO7
_symmetry_space_group_name_H-M   'P 1'
_cell_length_a   9.08570700
_cell_length_b   6.52962000
_cell_length_c   10.16142461
_cell_angle_alpha   68.87099568
_cell_angle_beta   90.00000000
_cell_angle_gamma   90.00000000
_symmetry_Int_Tables_number   1
_chemical_formula_structural   SrCo2BPO7
_chemical_formula_sum   'Sr4 Co8 B4 P4 O28'
_cell_volume   562.31070628
_cell_formula_units_Z   4
loop_
 _symmetry_equiv_pos_site_id
 _symmetry_equiv_pos_as_xyz
  1  'x, y, z'
loop_
 _atom_site_type_symbol
 _atom_site_label
 _atom_site_symmetry_multiplicity
 _atom_site_fract_x
 _atom_site_fract_y
 _atom_site_fract_z
 _atom_site_occupancy
  Sr  Sr0  1  0.70303600  0.16454700  0.48597300  1
  Sr  Sr1  1  0.20303600  0.83545300  0.01402700  1
  Sr  Sr2  1  0.29696400  0.83545300  0.51402700  1
  Sr  Sr3  1  0.79696400  0.16454700  0.98597300  1
  Co  Co0  1  0.82161600  0.70829800  0.85540600  1
  Co  Co1  1  0.32161600  0.29170200  0.64459400  1
  Co  Co2  1  0.17838400  0.29170200  0.14459400  1
  Co  Co3  1  0.67838400  0.70829800  0.35540600  1
  Co  Co4  1  0.05363700  0.43033500  0.37930300  1
  Co  Co5  1  0.55363700  0.56966500  0.12069700  1
  Co  Co6  1  0.94636300  0.56966500  0.62069700  1
  Co  Co7  1  0.44636300  0.43033500  0.87930300  1
  B  B0  1  0.62267500  0.53582200  0.67016200  1
  B  B1  1  0.12267500  0.46417800  0.82983800  1
  B  B2  1  0.37732500  0.46417800  0.32983800  1
  B  B3  1  0.87732500  0.53582200  0.17016200  1
  P  P0  1  0.00899000  0.04125800  0.69137700  1
  P  P1  1  0.50899000  0.95874200  0.80862300  1
  P  P2  1  0.99101000  0.95874200  0.30862300  1
  P  P3  1  0.49101000  0.04125800  0.19137700  1
  O  O0  1  0.95500800  0.27113300  0.59064600  1
  O  O1  1  0.45500800  0.72886700  0.90935400  1
  O  O2  1  0.04499200  0.72886700  0.40935400  1
  O  O3  1  0.54499200  0.27113300  0.09064600  1
  O  O4  1  0.97703800  0.98971000  0.85069400  1
  O  O5  1  0.47703800  0.01029000  0.64930600  1
  O  O6  1  0.02296200  0.01029000  0.14930600  1
  O  O7  1  0.52296200  0.98971000  0.35069400  1
  O  O8  1  0.91257500  0.87629700  0.64752500  1
  O  O9  1  0.41257500  0.12370300  0.85247500  1
  O  O10  1  0.08742500  0.12370300  0.35247500  1
  O  O11  1  0.58742500  0.87629700  0.14752500  1
  O  O12  1  0.66413300  0.49646400  0.80915400  1
  O  O13  1  0.16413300  0.50353600  0.69084600  1
  O  O14  1  0.33586700  0.50353600  0.19084600  1
  O  O15  1  0.83586700  0.49646400  0.30915400  1
  O  O16  1  0.97217400  0.46917100  0.85328100  1
  O  O17  1  0.47217400  0.53082900  0.64671900  1
  O  O18  1  0.02782600  0.53082900  0.14671900  1
  O  O19  1  0.52782600  0.46917100  0.35328100  1
  O  O20  1  0.17624000  0.01575100  0.67455900  1
  O  O21  1  0.67624000  0.98424900  0.82544100  1
  O  O22  1  0.82376000  0.98424900  0.32544100  1
  O  O23  1  0.32376000  0.01575100  0.17455900  1
  O  O24  1  0.77326800  0.57693500  0.06504100  1
  O  O25  1  0.27326800  0.42306500  0.43495900  1
  O  O26  1  0.22673200  0.42306500  0.93495900  1
  O  O27  1  0.72673200  0.57693500  0.56504100  1
loop_
_geom_bond_atom_site_label_1
_geom_bond_atom_site_label_2
_geom_bond_distance
_geom_bond_site_symmetry_2
Co0 O24 2.036942 1_556
Co0 O16 2.081824 1_555
Co0 O12 2.156410 1_555
Co0 O8 2.162836 1_555
Co0 O21 2.165291 1_555
Co0 O4 2.304213 1_555
Co1 O25 2.036942 1_555
Co1 O17 2.081824 1_555
Co1 O13 2.156410 1_555
Co1 O9 2.162836 1_555
Co1 O20 2.165291 1_555
Co1 O5 2.304213 1_555
Co2 O26 2.036942 1_554
Co2 O18 2.081824 1_555
Co2 O14 2.156410 1_555
Co2 O10 2.162836 1_555
Co2 O23 2.165291 1_555
Co2 O6 2.304213 1_555
Co3 O27 2.036942 1_555
Co3 O19 2.081824 1_555
Co3 O15 2.156410 1_555
Co3 O11 2.162836 1_555
Co3 O22 2.165291 1_555
Co3 O7 2.304213 1_555
Co4 O25 2.069969 1_555
Co4 O2 2.080461 1_555
Co4 O15 2.094634 1_455
Co4 O10 2.137949 1_555
Co4 O0 2.210463 1_455
Co4 O18 2.225560 1_555
Co5 O24 2.069969 1_555
Co5 O3 2.080461 1_555
Co5 O14 2.094634 1_555
Co5 O11 2.137949 1_555
Co5 O1 2.210463 1_554
Co5 O19 2.225560 1_555
Co6 O27 2.069969 1_555
Co6 O0 2.080461 1_555
Co6 O13 2.094634 1_655
Co6 O8 2.137949 1_555
Co6 O2 2.210463 1_655
Co6 O16 2.225560 1_555
Co7 O26 2.069969 1_555
Co7 O1 2.080461 1_555
Co7 O12 2.094634 1_555
Co7 O9 2.137949 1_555
Co7 O3 2.210463 1_556
Co7 O17 2.225560 1_555
B0 O27 1.378471 1_555
B0 O17 1.390400 1_555
B0 O12 1.393200 1_555
B1 O26 1.378471 1_555
B1 O16 1.390400 1_455
B1 O13 1.393200 1_555
B2 O25 1.378471 1_555
B2 O19 1.390400 1_555
B2 O14 1.393200 1_555
B3 O24 1.378471 1_555
B3 O18 1.390400 1_655
B3 O15 1.393200 1_555
O0 P0 1.560003 1_655
O0 Sr0 2.718536 1_555
O1 P1 1.560003 1_555
O1 Sr1 2.718536 1_556
O2 P2 1.560003 1_455
O2 Sr2 2.718536 1_555
O3 P3 1.560003 1_555
O3 Sr3 2.718536 1_554
O4 P0 1.557411 1_665
O4 Sr1 2.603877 1_656
O4 Sr3 2.645956 1_565
O5 P1 1.557411 1_545
O5 Sr0 2.603877 1_555
O5 Sr2 2.645956 1_545
O6 P2 1.557411 1_445
O6 Sr3 2.603877 1_454
O6 Sr1 2.645956 1_545
O7 P3 1.557411 1_565
O7 Sr2 2.603877 1_555
O7 Sr0 2.645956 1_565
O8 P0 1.572315 1_665
O8 Sr0 2.763033 1_565
O9 P1 1.572315 1_545
O9 Sr1 2.763033 1_546
O10 P2 1.572315 1_445
O10 Sr2 2.763033 1_545
O11 P3 1.572315 1_565
O11 Sr3 2.763033 1_564
O12 Sr3 2.564090 1_555
O13 Sr2 2.564090 1_555
O14 Sr1 2.564090 1_555
O15 Sr0 2.564090 1_555
O16 Sr3 2.524896 1_555
O17 Sr2 2.524896 1_555
O18 Sr1 2.524896 1_555
O19 Sr0 2.524896 1_555
O20 P0 1.544863 1_555
O20 Sr2 2.575755 1_545
O20 Sr1 3.227450 1_546
O21 P1 1.544863 1_555
O21 Sr3 2.575755 1_565
O21 Sr0 3.227450 1_565
O22 P2 1.544863 1_555
O22 Sr0 2.575755 1_565
O22 Sr3 3.227450 1_564
O23 P3 1.544863 1_555
O23 Sr1 2.575755 1_545
O23 Sr2 3.227450 1_545
O24 Sr3 3.082601 1_554
O25 Sr2 3.082601 1_555
O26 Sr1 3.082601 1_556
O27 Sr0 3.082601 1_555
