# generated using pymatgen
data_SiP2O7
_symmetry_space_group_name_H-M   'P 1'
_cell_length_a   12.02293204
_cell_length_b   4.72188503
_cell_length_c   8.90011225
_cell_angle_alpha   59.13442569
_cell_angle_beta   90.00000000
_cell_angle_gamma   90.00000000
_symmetry_Int_Tables_number   1
_chemical_formula_structural   SiP2O7
_chemical_formula_sum   'Si4 P8 O28'
_cell_volume   433.70805581
_cell_formula_units_Z   4
loop_
 _symmetry_equiv_pos_site_id
 _symmetry_equiv_pos_as_xyz
  1  'x, y, z'
loop_
 _atom_site_type_symbol
 _atom_site_label
 _atom_site_symmetry_multiplicity
 _atom_site_fract_x
 _atom_site_fract_y
 _atom_site_fract_z
 _atom_site_occupancy
  Si  Si0  1  0.35080595  0.62479350  0.15356140  1
  Si  Si1  1  0.85080595  0.37520650  0.34643860  1
  Si  Si2  1  0.64919405  0.37520650  0.84643860  1
  Si  Si3  1  0.14919405  0.62479350  0.65356140  1
  P  P0  1  0.19779933  0.22535004  0.05246422  1
  P  P1  1  0.69779933  0.77464996  0.44753578  1
  P  P2  1  0.80220067  0.77464996  0.94753578  1
  P  P3  1  0.30220067  0.22535004  0.55246422  1
  P  P4  1  0.01825290  0.89798067  0.30333733  1
  P  P5  1  0.51825290  0.10201933  0.19666267  1
  P  P6  1  0.98174710  0.10201933  0.69666267  1
  P  P7  1  0.48174710  0.89798067  0.80333733  1
  O  O0  1  0.26423880  0.31985065  0.16353364  1
  O  O1  1  0.76423880  0.68014935  0.33646636  1
  O  O2  1  0.73576120  0.68014935  0.83646636  1
  O  O3  1  0.23576120  0.31985065  0.66353364  1
  O  O4  1  0.23767739  0.90689404  0.06952687  1
  O  O5  1  0.73767739  0.09310596  0.43047313  1
  O  O6  1  0.76232261  0.09310596  0.93047313  1
  O  O7  1  0.26232261  0.90689404  0.56952687  1
  O  O8  1  0.18786554  0.50745544  0.86736810  1
  O  O9  1  0.68786554  0.49254456  0.63263190  1
  O  O10  1  0.81213446  0.49254456  0.13263190  1
  O  O11  1  0.31213446  0.50745544  0.36736810  1
  O  O12  1  0.42592997  0.16522335  0.62607135  1
  O  O13  1  0.92592997  0.83477665  0.87392865  1
  O  O14  1  0.57407003  0.83477665  0.37392865  1
  O  O15  1  0.07407003  0.16522335  0.12607135  1
  O  O16  1  0.53615826  0.65860374  0.76081005  1
  O  O17  1  0.03615826  0.34139626  0.73918995  1
  O  O18  1  0.46384174  0.34139626  0.23918995  1
  O  O19  1  0.96384174  0.65860374  0.26081005  1
  O  O20  1  0.56418500  0.06778966  0.85634930  1
  O  O21  1  0.06418500  0.93221034  0.64365070  1
  O  O22  1  0.43581500  0.93221034  0.14365070  1
  O  O23  1  0.93581500  0.06778966  0.35634930  1
  O  O24  1  0.39007293  0.73772193  0.93738628  1
  O  O25  1  0.89007293  0.26227807  0.56261372  1
  O  O26  1  0.60992707  0.26227807  0.06261372  1
  O  O27  1  0.10992707  0.73772193  0.43738628  1
loop_
_geom_bond_atom_site_label_1
_geom_bond_atom_site_label_2
_geom_bond_distance
_geom_bond_site_symmetry_2
O0 P0 1.505648 1_555
O0 Si0 1.741644 1_555
O1 P1 1.505648 1_555
O1 Si1 1.741644 1_555
O2 P2 1.505648 1_555
O2 Si2 1.741644 1_555
O3 P3 1.505648 1_555
O3 Si3 1.741644 1_555
O4 P0 1.509896 1_565
O4 Si0 1.778057 1_555
O5 P1 1.509896 1_545
O5 Si1 1.778057 1_555
O6 P2 1.509896 1_545
O6 Si2 1.778057 1_555
O7 P3 1.509896 1_565
O7 Si3 1.778057 1_555
O8 P0 1.500312 1_556
O8 Si3 1.749975 1_555
O9 P1 1.500312 1_555
O9 Si2 1.749975 1_555
O10 P2 1.500312 1_554
O10 Si1 1.749975 1_555
O11 P3 1.500312 1_555
O11 Si0 1.749975 1_555
O12 P7 1.577684 1_545
O12 P3 1.591182 1_555
O13 P6 1.577684 1_565
O13 P2 1.591182 1_555
O14 P5 1.577684 1_565
O14 P1 1.591182 1_555
O15 P4 1.577684 1_545
O15 P0 1.591182 1_555
O16 P7 1.512541 1_555
O16 Si2 1.781024 1_555
O17 P6 1.512541 1_455
O17 Si3 1.781024 1_555
O18 P5 1.512541 1_555
O18 Si0 1.781024 1_555
O19 P4 1.512541 1_655
O19 Si1 1.781024 1_555
O20 P7 1.495344 1_545
O20 Si2 1.740147 1_555
O21 P6 1.495344 1_465
O21 Si3 1.740147 1_555
O22 P5 1.495344 1_565
O22 Si0 1.740147 1_555
O23 P4 1.495344 1_645
O23 Si1 1.740147 1_555
O24 P7 1.511456 1_555
O24 Si0 1.776589 1_556
O25 P6 1.511456 1_555
O25 Si1 1.776589 1_555
O26 P5 1.511456 1_555
O26 Si2 1.776589 1_554
O27 P4 1.511456 1_555
O27 Si3 1.776589 1_555
