# generated using pymatgen
data_Cd3In
_symmetry_space_group_name_H-M   'P 1'
_cell_length_a   4.49660846
_cell_length_b   4.49660846
_cell_length_c   4.49660846
_cell_angle_alpha   90.00000000
_cell_angle_beta   90.00000000
_cell_angle_gamma   90.00000000
_symmetry_Int_Tables_number   1
_chemical_formula_structural   Cd3In
_chemical_formula_sum   'Cd3 In1'
_cell_volume   90.91911919
_cell_formula_units_Z   1
loop_
 _symmetry_equiv_pos_site_id
 _symmetry_equiv_pos_as_xyz
  1  'x, y, z'
loop_
 _atom_site_type_symbol
 _atom_site_label
 _atom_site_symmetry_multiplicity
 _atom_site_fract_x
 _atom_site_fract_y
 _atom_site_fract_z
 _atom_site_occupancy
  Cd  Cd0  1  0.50000000  0.50000000  -0.00000000  1
  Cd  Cd1  1  0.50000000  -0.00000000  0.50000000  1
  Cd  Cd2  1  -0.00000000  0.50000000  0.50000000  1
  In  In0  1  0.00000000  -0.00000000  -0.00000000  1
loop_
_geom_bond_atom_site_label_1
_geom_bond_atom_site_label_2
_geom_bond_distance
_geom_bond_site_symmetry_2
Cd0 Cd2 3.179582 1_555
Cd0 Cd2 3.179582 1_554
Cd0 Cd1 3.179582 1_565
Cd0 In0 3.179582 1_665
Cd0 In0 3.179582 1_655
Cd0 In0 3.179582 1_555
Cd0 Cd1 3.179582 1_564
Cd0 Cd1 3.179582 1_554
Cd0 Cd1 3.179582 1_555
Cd0 Cd2 3.179582 1_655
Cd0 Cd2 3.179582 1_654
Cd0 In0 3.179582 1_565
Cd1 Cd2 3.179582 1_645
Cd1 Cd2 3.179582 1_555
Cd1 In0 3.179582 1_655
Cd1 In0 3.179582 1_555
Cd1 Cd2 3.179582 1_545
Cd1 In0 3.179582 1_656
Cd1 Cd2 3.179582 1_655
Cd1 In0 3.179582 1_556
Cd2 In0 3.179582 1_555
Cd2 In0 3.179582 1_556
Cd2 In0 3.179582 1_565
Cd2 In0 3.179582 1_566
