# generated using pymatgen
data_KCrSnS4
_symmetry_space_group_name_H-M   'P 1'
_cell_length_a   3.65879876
_cell_length_b   7.87863437
_cell_length_c   6.22400879
_cell_angle_alpha   74.21452484
_cell_angle_beta   90.00000202
_cell_angle_gamma   90.00000406
_symmetry_Int_Tables_number   1
_chemical_formula_structural   KCrSnS4
_chemical_formula_sum   'K1 Cr1 Sn1 S4'
_cell_volume   172.64908447
_cell_formula_units_Z   1
loop_
 _symmetry_equiv_pos_site_id
 _symmetry_equiv_pos_as_xyz
  1  'x, y, z'
loop_
 _atom_site_type_symbol
 _atom_site_label
 _atom_site_symmetry_multiplicity
 _atom_site_fract_x
 _atom_site_fract_y
 _atom_site_fract_z
 _atom_site_occupancy
  K  K0  1  0.50000000  0.49536110  0.64869433  1
  Cr  Cr0  1  0.50000000  0.00283827  0.50333698  1
  Sn  Sn0  1  0.00000000  0.99791746  0.00331046  1
  S  S0  1  0.00000000  0.82630596  0.41213326  1
  S  S1  1  0.50000000  0.81380230  0.88585237  1
  S  S2  1  1.00000000  0.17764544  0.59591686  1
  S  S3  1  0.50000000  0.18524946  0.11771575  1
loop_
_geom_bond_atom_site_label_1
_geom_bond_atom_site_label_2
_geom_bond_distance
_geom_bond_site_symmetry_2
K0 S2 3.188701 1_455
K0 S2 3.188701 1_555
K0 S0 3.197552 1_655
K0 S0 3.197552 1_555
K0 S1 3.238540 1_555
K0 S3 3.257404 1_556
Cr0 S3 2.439108 1_555
Cr0 S1 2.440714 1_545
Cr0 S2 2.450978 1_555
Cr0 S2 2.450979 1_455
Cr0 S0 2.456196 1_545
Cr0 S0 2.456196 1_645
S0 Sn0 2.535911 1_555
S1 Sn0 2.561696 1_656
S1 Sn0 2.561696 1_556
S2 Sn0 2.545778 1_646
S3 Sn0 2.569798 1_545
S3 Sn0 2.569798 1_645
