# generated using pymatgen
data_Cd11(CN5)2
_symmetry_space_group_name_H-M   'P 1'
_cell_length_a   14.44996100
_cell_length_b   14.44996100
_cell_length_c   3.40993400
_cell_angle_alpha   90.00000000
_cell_angle_beta   90.00000000
_cell_angle_gamma   90.00000000
_symmetry_Int_Tables_number   1
_chemical_formula_structural   Cd11(CN5)2
_chemical_formula_sum   'Cd22 C4 N20'
_cell_volume   711.99890070
_cell_formula_units_Z   2
loop_
 _symmetry_equiv_pos_site_id
 _symmetry_equiv_pos_as_xyz
  1  'x, y, z'
loop_
 _atom_site_type_symbol
 _atom_site_label
 _atom_site_symmetry_multiplicity
 _atom_site_fract_x
 _atom_site_fract_y
 _atom_site_fract_z
 _atom_site_occupancy
  Cd  Cd0  1  0.50000000  0.50000000  0.50000000  1
  Cd  Cd1  1  0.00000000  0.00000000  0.00000000  1
  Cd  Cd2  1  0.98209200  0.79230600  0.50000000  1
  Cd  Cd3  1  0.01790800  0.20769400  0.50000000  1
  Cd  Cd4  1  0.51790800  0.29230600  0.00000000  1
  Cd  Cd5  1  0.48209200  0.70769400  0.00000000  1
  Cd  Cd6  1  0.79230600  0.98209200  0.50000000  1
  Cd  Cd7  1  0.20769400  0.01790800  0.50000000  1
  Cd  Cd8  1  0.29230600  0.51790800  0.00000000  1
  Cd  Cd9  1  0.70769400  0.48209200  0.00000000  1
  Cd  Cd10  1  0.66240400  0.66240400  0.50000000  1
  Cd  Cd11  1  0.33759600  0.33759600  0.50000000  1
  Cd  Cd12  1  0.83759600  0.16240400  0.00000000  1
  Cd  Cd13  1  0.16240400  0.83759600  0.00000000  1
  Cd  Cd14  1  0.38934800  0.90459900  0.50000000  1
  Cd  Cd15  1  0.61065200  0.09540100  0.50000000  1
  Cd  Cd16  1  0.11065200  0.40459900  0.00000000  1
  Cd  Cd17  1  0.88934800  0.59540100  0.00000000  1
  Cd  Cd18  1  0.90459900  0.38934800  0.50000000  1
  Cd  Cd19  1  0.09540100  0.61065200  0.50000000  1
  Cd  Cd20  1  0.40459900  0.11065200  0.00000000  1
  Cd  Cd21  1  0.59540100  0.88934800  0.00000000  1
  C  C0  1  0.30060600  0.69939400  0.50000000  1
  C  C1  1  0.69939400  0.30060600  0.50000000  1
  C  C2  1  0.19939400  0.19939400  0.00000000  1
  C  C3  1  0.80060600  0.80060600  0.00000000  1
  N  N0  1  0.08209600  0.91790400  0.50000000  1
  N  N1  1  0.91790400  0.08209600  0.50000000  1
  N  N2  1  0.41790400  0.41790400  0.00000000  1
  N  N3  1  0.58209600  0.58209600  0.00000000  1
  N  N4  1  0.48603700  0.18384600  0.50000000  1
  N  N5  1  0.51396300  0.81615400  0.50000000  1
  N  N6  1  0.01396300  0.68384600  0.00000000  1
  N  N7  1  0.98603700  0.31615400  0.00000000  1
  N  N8  1  0.18384600  0.48603700  0.50000000  1
  N  N9  1  0.81615400  0.51396300  0.50000000  1
  N  N10  1  0.68384600  0.01396300  0.00000000  1
  N  N11  1  0.31615400  0.98603700  0.00000000  1
  N  N12  1  0.24023800  0.75976200  0.50000000  1
  N  N13  1  0.75976200  0.24023800  0.50000000  1
  N  N14  1  0.25976200  0.25976200  0.00000000  1
  N  N15  1  0.74023800  0.74023800  0.00000000  1
  N  N16  1  0.36152900  0.63847100  0.50000000  1
  N  N17  1  0.63847100  0.36152900  0.50000000  1
  N  N18  1  0.13847100  0.13847100  0.00000000  1
  N  N19  1  0.86152900  0.86152900  0.00000000  1
loop_
_geom_bond_atom_site_label_1
_geom_bond_atom_site_label_2
_geom_bond_distance
_geom_bond_site_symmetry_2
Cd0 N3 2.391956 1_556
Cd0 N3 2.391956 1_555
Cd0 N2 2.391956 1_556
Cd0 N2 2.391956 1_555
Cd0 N16 2.829701 1_555
Cd0 N17 2.829701 1_555
Cd1 N0 2.391956 1_544
Cd1 N1 2.391956 1_455
Cd1 N1 2.391956 1_454
Cd1 N0 2.391956 1_545
Cd1 N18 2.829701 1_555
Cd1 N19 2.829701 1_445
Cd2 N0 2.319912 1_655
Cd2 N6 2.361198 1_655
Cd2 N6 2.361198 1_656
Cd2 N19 2.634857 1_555
Cd2 N19 2.634857 1_556
Cd3 N1 2.319912 1_455
Cd3 N7 2.361198 1_455
Cd3 N7 2.361198 1_456
Cd3 N18 2.634857 1_556
Cd3 N18 2.634857 1_555
Cd4 N2 2.319912 1_555
Cd4 N4 2.361198 1_555
Cd4 N4 2.361198 1_554
Cd4 N17 2.634857 1_555
Cd4 N17 2.634857 1_554
Cd5 N3 2.319912 1_555
Cd5 N5 2.361198 1_555
Cd5 N5 2.361198 1_554
Cd5 N16 2.634857 1_554
Cd5 N16 2.634857 1_555
Cd6 N1 2.319912 1_565
Cd6 N10 2.361198 1_566
Cd6 N10 2.361198 1_565
Cd6 N19 2.634857 1_555
Cd6 N19 2.634857 1_556
Cd7 N0 2.319912 1_545
Cd7 N11 2.361198 1_545
Cd7 N11 2.361198 1_546
Cd7 N18 2.634857 1_556
Cd7 N18 2.634857 1_555
Cd8 N2 2.319912 1_555
Cd8 N8 2.361198 1_555
Cd8 N8 2.361198 1_554
Cd8 N16 2.634857 1_554
Cd8 N16 2.634857 1_555
Cd9 N3 2.319912 1_555
Cd9 N9 2.361198 1_554
Cd9 N9 2.361198 1_555
Cd9 N17 2.634857 1_554
Cd9 N17 2.634857 1_555
Cd10 N15 2.331696 1_556
Cd10 N15 2.331696 1_555
Cd10 N3 2.366472 1_556
Cd10 N3 2.366472 1_555
Cd11 N14 2.331696 1_556
Cd11 N14 2.331696 1_555
Cd11 N2 2.366472 1_556
Cd11 N2 2.366472 1_555
Cd12 N13 2.331696 1_555
Cd12 N13 2.331696 1_554
Cd12 N1 2.366472 1_554
Cd12 N1 2.366472 1_555
Cd13 N12 2.331696 1_555
Cd13 N12 2.331696 1_554
Cd13 N0 2.366472 1_554
Cd13 N0 2.366472 1_555
Cd14 N5 2.208123 1_555
Cd14 N11 2.326013 1_556
Cd14 N11 2.326013 1_555
Cd15 N4 2.208123 1_555
Cd15 N10 2.326013 1_555
Cd15 N10 2.326013 1_556
Cd16 N7 2.208123 1_455
Cd16 N8 2.326013 1_554
Cd16 N8 2.326013 1_555
Cd17 N6 2.208123 1_655
Cd17 N9 2.326013 1_554
Cd17 N9 2.326013 1_555
Cd18 N9 2.208123 1_555
Cd18 N7 2.326013 1_555
Cd18 N7 2.326013 1_556
Cd19 N8 2.208123 1_555
Cd19 N6 2.326013 1_555
Cd19 N6 2.326013 1_556
Cd20 N11 2.208123 1_545
Cd20 N4 2.326013 1_555
Cd20 N4 2.326013 1_554
Cd21 N10 2.208123 1_565
Cd21 N5 2.326013 1_554
Cd21 N5 2.326013 1_555
C0 N12 1.233640 1_555
C0 N16 1.244982 1_555
C1 N13 1.233640 1_555
C1 N17 1.244982 1_555
C2 N14 1.233640 1_555
C2 N18 1.244982 1_555
C3 N15 1.233640 1_555
C3 N19 1.244982 1_555
