# generated using pymatgen
data_SnPt
_symmetry_space_group_name_H-M   'P 1'
_cell_length_a   4.14407046
_cell_length_b   4.14407099
_cell_length_c   5.47557816
_cell_angle_alpha   90.00000000
_cell_angle_beta   90.00000000
_cell_angle_gamma   119.99999574
_symmetry_Int_Tables_number   1
_chemical_formula_structural   SnPt
_chemical_formula_sum   'Sn2 Pt2'
_cell_volume   81.43572193
_cell_formula_units_Z   2
loop_
 _symmetry_equiv_pos_site_id
 _symmetry_equiv_pos_as_xyz
  1  'x, y, z'
loop_
 _atom_site_type_symbol
 _atom_site_label
 _atom_site_symmetry_multiplicity
 _atom_site_fract_x
 _atom_site_fract_y
 _atom_site_fract_z
 _atom_site_occupancy
  Sn  Sn0  1  0.66666700  0.33333300  0.75000000  1
  Sn  Sn1  1  0.33333300  0.66666700  0.25000000  1
  Pt  Pt0  1  -0.00000000  0.00000000  0.50000000  1
  Pt  Pt1  1  -0.00000000  0.00000000  0.00000000  1
loop_
_geom_bond_atom_site_label_1
_geom_bond_atom_site_label_2
_geom_bond_distance
_geom_bond_site_symmetry_2
Pt0 Pt1 2.737789 1_555
Pt0 Pt1 2.737789 1_556
Pt0 Sn0 2.756502 1_455
Pt0 Sn1 2.756502 1_545
Pt0 Sn0 2.756505 1_555
Pt0 Sn1 2.756505 1_445
Pt0 Sn1 2.756505 1_555
Pt0 Sn0 2.756505 1_445
Pt1 Sn0 2.756502 1_454
Pt1 Sn1 2.756502 1_545
Pt1 Sn0 2.756505 1_554
Pt1 Sn1 2.756505 1_445
Pt1 Sn0 2.756505 1_444
Pt1 Sn1 2.756505 1_555
