# generated using pymatgen
data_Sm4As3
_symmetry_space_group_name_H-M   'P 1'
_cell_length_a   7.69923112
_cell_length_b   7.69923112
_cell_length_c   7.69923112
_cell_angle_alpha   109.47122063
_cell_angle_beta   109.47122063
_cell_angle_gamma   109.47122063
_symmetry_Int_Tables_number   1
_chemical_formula_structural   Sm4As3
_chemical_formula_sum   'Sm8 As6'
_cell_volume   351.33399942
_cell_formula_units_Z   2
loop_
 _symmetry_equiv_pos_site_id
 _symmetry_equiv_pos_as_xyz
  1  'x, y, z'
loop_
 _atom_site_type_symbol
 _atom_site_label
 _atom_site_symmetry_multiplicity
 _atom_site_fract_x
 _atom_site_fract_y
 _atom_site_fract_z
 _atom_site_occupancy
  Sm  Sm0  1  0.36692929  0.36692929  0.36692929  1
  Sm  Sm1  1  0.13307071  0.50000000  -0.00000000  1
  Sm  Sm2  1  -0.00000000  0.13307071  0.50000000  1
  Sm  Sm3  1  0.86692929  0.86692929  0.86692929  1
  Sm  Sm4  1  0.50000000  -0.00000000  0.13307071  1
  Sm  Sm5  1  0.63307071  0.50000000  0.00000000  1
  Sm  Sm6  1  0.50000000  0.00000000  0.63307071  1
  Sm  Sm7  1  -0.00000000  0.63307071  0.50000000  1
  As  As0  1  0.12500000  0.87500000  0.25000000  1
  As  As1  1  0.37500000  0.62500000  0.75000000  1
  As  As2  1  0.87500000  0.25000000  0.12500000  1
  As  As3  1  0.62500000  0.75000000  0.37500000  1
  As  As4  1  0.25000000  0.12500000  0.87500000  1
  As  As5  1  0.75000000  0.37500000  0.62500000  1
loop_
_geom_bond_atom_site_label_1
_geom_bond_atom_site_label_2
_geom_bond_distance
_geom_bond_site_symmetry_2
As0 Sm2 2.922190 1_565
As0 Sm3 2.922190 1_454
As0 Sm1 2.922190 1_555
As0 Sm6 2.922190 1_565
As0 Sm5 3.245104 1_455
As0 Sm7 3.245104 1_555
As0 Sm4 3.245104 1_565
As0 Sm0 3.245104 1_565
As1 Sm0 2.922190 1_555
As1 Sm4 2.922190 1_566
As1 Sm7 2.922190 1_555
As1 Sm5 2.922190 1_556
As1 Sm1 3.245104 1_556
As1 Sm2 3.245104 1_555
As1 Sm6 3.245104 1_565
As1 Sm3 3.245104 1_555
As2 Sm4 2.922190 1_555
As2 Sm1 2.922190 1_655
As2 Sm3 2.922190 1_544
As2 Sm7 2.922190 1_655
As2 Sm2 3.245104 1_655
As2 Sm6 3.245104 1_554
As2 Sm5 3.245104 1_555
As2 Sm0 3.245104 1_655
As3 Sm2 2.922190 1_665
As3 Sm0 2.922190 1_555
As3 Sm5 2.922190 1_555
As3 Sm6 2.922190 1_565
As3 Sm7 3.245104 1_655
As3 Sm1 3.245104 1_555
As3 Sm3 3.245104 1_555
As3 Sm4 3.245104 1_565
As4 Sm3 2.922190 1_445
As4 Sm5 2.922190 1_556
As4 Sm2 2.922190 1_555
As4 Sm4 2.922190 1_556
As4 Sm7 3.245104 1_545
As4 Sm6 3.245104 1_555
As4 Sm0 3.245104 1_556
As4 Sm1 3.245104 1_556
As5 Sm1 2.922190 1_656
As5 Sm0 2.922190 1_555
As5 Sm7 2.922190 1_655
As5 Sm6 2.922190 1_555
As5 Sm5 3.245104 1_556
As5 Sm3 3.245104 1_555
As5 Sm4 3.245104 1_555
As5 Sm2 3.245104 1_655
