# generated using pymatgen
data_RhC4N(Cl2O)2
_symmetry_space_group_name_H-M   'P 1'
_cell_length_a   6.37903900
_cell_length_b   8.53232100
_cell_length_c   9.22394200
_cell_angle_alpha   90.00000000
_cell_angle_beta   90.00000000
_cell_angle_gamma   90.00000000
_symmetry_Int_Tables_number   1
_chemical_formula_structural   RhC4N(Cl2O)2
_chemical_formula_sum   'Rh2 C8 N2 Cl8 O4'
_cell_volume   502.04079284
_cell_formula_units_Z   2
loop_
 _symmetry_equiv_pos_site_id
 _symmetry_equiv_pos_as_xyz
  1  'x, y, z'
loop_
 _atom_site_type_symbol
 _atom_site_label
 _atom_site_symmetry_multiplicity
 _atom_site_fract_x
 _atom_site_fract_y
 _atom_site_fract_z
 _atom_site_occupancy
  Rh  Rh0  1  0.50000000  0.50000000  0.95000200  1
  Rh  Rh1  1  0.00000000  0.00000000  0.04999800  1
  C  C0  1  0.50000000  0.89490500  0.43916700  1
  C  C1  1  0.50000000  0.10509500  0.43916700  1
  C  C2  1  0.00000000  0.60509500  0.56083300  1
  C  C3  1  0.00000000  0.39490500  0.56083300  1
  C  C4  1  0.32079800  0.00000000  0.46054300  1
  C  C5  1  0.67920200  0.00000000  0.46054300  1
  C  C6  1  0.17920200  0.50000000  0.53945700  1
  C  C7  1  0.82079800  0.50000000  0.53945700  1
  N  N0  1  0.50000000  0.00000000  0.58599800  1
  N  N1  1  0.00000000  0.50000000  0.41400200  1
  Cl  Cl0  1  0.50000000  0.50000000  0.53401400  1
  Cl  Cl1  1  0.00000000  0.00000000  0.46598600  1
  Cl  Cl2  1  0.50000000  0.50000000  0.19137300  1
  Cl  Cl3  1  0.00000000  0.00000000  0.80862700  1
  Cl  Cl4  1  0.50000000  0.77768900  0.94229200  1
  Cl  Cl5  1  0.50000000  0.22231100  0.94229200  1
  Cl  Cl6  1  0.00000000  0.72231100  0.05770800  1
  Cl  Cl7  1  0.00000000  0.27768900  0.05770800  1
  O  O0  1  0.75832400  0.50000000  0.88954200  1
  O  O1  1  0.24167600  0.50000000  0.88954200  1
  O  O2  1  0.74167600  0.00000000  0.11045800  1
  O  O3  1  0.25832400  0.00000000  0.11045800  1
loop_
_geom_bond_atom_site_label_1
_geom_bond_atom_site_label_2
_geom_bond_distance
_geom_bond_site_symmetry_2
C0 C5 1.466191 1_565
C0 C4 1.466191 1_565
C0 N0 1.624306 1_565
C1 C5 1.466191 1_555
C1 C4 1.466191 1_555
C1 N0 1.624306 1_555
C2 C6 1.466191 1_555
C2 C7 1.466191 1_455
C2 N1 1.624306 1_555
C3 C6 1.466191 1_555
C3 C7 1.466191 1_455
C3 N1 1.624306 1_555
C4 N0 1.626607 1_555
C4 Cl1 2.046999 1_555
C5 N0 1.626607 1_555
C5 Cl1 2.046999 1_655
C6 N1 1.626607 1_555
C6 Cl0 2.046999 1_555
C7 N1 1.626607 1_655
C7 Cl0 2.046999 1_555
Cl2 Rh0 2.226392 1_554
Cl3 Rh1 2.226392 1_556
Cl4 Rh0 2.370399 1_555
Cl5 Rh0 2.370399 1_555
Cl6 Rh1 2.370399 1_565
Cl7 Rh1 2.370399 1_555
O0 Rh0 1.739668 1_555
O1 Rh0 1.739668 1_555
O2 Rh1 1.739668 1_655
O3 Rh1 1.739668 1_555
