# generated using pymatgen
data_K3V5Te4(HO3)8
_symmetry_space_group_name_H-M   'P 1'
_cell_length_a   7.65892100
_cell_length_b   9.03824600
_cell_length_c   17.15362600
_cell_angle_alpha   90.00000000
_cell_angle_beta   90.00000000
_cell_angle_gamma   90.00000000
_symmetry_Int_Tables_number   1
_chemical_formula_structural   K3V5Te4(HO3)8
_chemical_formula_sum   'K6 V10 Te8 H16 O48'
_cell_volume   1187.42909075
_cell_formula_units_Z   2
loop_
 _symmetry_equiv_pos_site_id
 _symmetry_equiv_pos_as_xyz
  1  'x, y, z'
loop_
 _atom_site_type_symbol
 _atom_site_label
 _atom_site_symmetry_multiplicity
 _atom_site_fract_x
 _atom_site_fract_y
 _atom_site_fract_z
 _atom_site_occupancy
  K  K0  1  0.50000000  0.04666300  0.50000000  1
  K  K1  1  0.00000000  0.95333700  0.00000000  1
  K  K2  1  0.00000000  0.02358400  0.50000000  1
  K  K3  1  0.50000000  0.97641600  0.00000000  1
  K  K4  1  0.50000000  0.60900900  0.50000000  1
  K  K5  1  0.00000000  0.39099100  0.00000000  1
  V  V0  1  0.80595500  0.75512500  0.65835500  1
  V  V1  1  0.80595500  0.75512500  0.34164500  1
  V  V2  1  0.19404500  0.75512500  0.65835500  1
  V  V3  1  0.19404500  0.75512500  0.34164500  1
  V  V4  1  0.69404500  0.24487500  0.84164500  1
  V  V5  1  0.69404500  0.24487500  0.15835500  1
  V  V6  1  0.30595500  0.24487500  0.84164500  1
  V  V7  1  0.30595500  0.24487500  0.15835500  1
  V  V8  1  0.00000000  0.55945400  0.50000000  1
  V  V9  1  0.50000000  0.44054600  0.00000000  1
  Te  Te0  1  0.50000000  0.54283400  0.74933700  1
  Te  Te1  1  0.50000000  0.54283400  0.25066300  1
  Te  Te2  1  0.00000000  0.45716600  0.75066300  1
  Te  Te3  1  0.00000000  0.45716600  0.24933700  1
  Te  Te4  1  0.50000000  0.98499100  0.72674600  1
  Te  Te5  1  0.50000000  0.98499100  0.27325400  1
  Te  Te6  1  0.00000000  0.01500900  0.77325400  1
  Te  Te7  1  0.00000000  0.01500900  0.22674600  1
  H  H0  1  0.75674900  0.30031400  0.43032800  1
  H  H1  1  0.75674900  0.30031400  0.56967200  1
  H  H2  1  0.24325100  0.30031400  0.43032800  1
  H  H3  1  0.24325100  0.30031400  0.56967200  1
  H  H4  1  0.74325100  0.69968600  0.06967200  1
  H  H5  1  0.74325100  0.69968600  0.93032800  1
  H  H6  1  0.25674900  0.69968600  0.06967200  1
  H  H7  1  0.25674900  0.69968600  0.93032800  1
  H  H8  1  0.77131400  0.19894600  0.35579900  1
  H  H9  1  0.77131400  0.19894600  0.64420100  1
  H  H10  1  0.22868600  0.19894600  0.35579900  1
  H  H11  1  0.22868600  0.19894600  0.64420100  1
  H  H12  1  0.72868600  0.80105400  0.14420100  1
  H  H13  1  0.72868600  0.80105400  0.85579900  1
  H  H14  1  0.27131400  0.80105400  0.14420100  1
  H  H15  1  0.27131400  0.80105400  0.85579900  1
  O  O0  1  0.69081100  0.83864500  0.58897300  1
  O  O1  1  0.69081100  0.83864500  0.41102700  1
  O  O2  1  0.30918900  0.83864500  0.58897300  1
  O  O3  1  0.30918900  0.83864500  0.41102700  1
  O  O4  1  0.80918900  0.16135500  0.91102700  1
  O  O5  1  0.80918900  0.16135500  0.08897300  1
  O  O6  1  0.19081100  0.16135500  0.91102700  1
  O  O7  1  0.19081100  0.16135500  0.08897300  1
  O  O8  1  0.68506700  0.56318600  0.67396100  1
  O  O9  1  0.68506700  0.56318600  0.32603900  1
  O  O10  1  0.31493300  0.56318600  0.67396100  1
  O  O11  1  0.31493300  0.56318600  0.32603900  1
  O  O12  1  0.81493300  0.43681400  0.82603900  1
  O  O13  1  0.81493300  0.43681400  0.17396100  1
  O  O14  1  0.18506700  0.43681400  0.82603900  1
  O  O15  1  0.18506700  0.43681400  0.17396100  1
  O  O16  1  0.68273700  0.84777900  0.75251900  1
  O  O17  1  0.68273700  0.84777900  0.24748100  1
  O  O18  1  0.31726300  0.84777900  0.75251900  1
  O  O19  1  0.31726300  0.84777900  0.24748100  1
  O  O20  1  0.81726300  0.15222100  0.74748100  1
  O  O21  1  0.81726300  0.15222100  0.25251900  1
  O  O22  1  0.18273700  0.15222100  0.74748100  1
  O  O23  1  0.18273700  0.15222100  0.25251900  1
  O  O24  1  0.00000000  0.91669500  0.67295700  1
  O  O25  1  0.00000000  0.91669500  0.32704300  1
  O  O26  1  0.50000000  0.08330500  0.82704300  1
  O  O27  1  0.50000000  0.08330500  0.17295700  1
  O  O28  1  0.00000000  0.66862000  0.59024500  1
  O  O29  1  0.00000000  0.66862000  0.40975500  1
  O  O30  1  0.50000000  0.33138000  0.90975500  1
  O  O31  1  0.50000000  0.33138000  0.09024500  1
  O  O32  1  0.00000000  0.66774700  0.74618700  1
  O  O33  1  0.00000000  0.66774700  0.25381300  1
  O  O34  1  0.50000000  0.33225300  0.75381300  1
  O  O35  1  0.50000000  0.33225300  0.24618700  1
  O  O36  1  0.81641100  0.45716800  0.50000000  1
  O  O37  1  0.18358900  0.45716800  0.50000000  1
  O  O38  1  0.68358900  0.54283200  0.00000000  1
  O  O39  1  0.31641100  0.54283200  0.00000000  1
  O  O40  1  0.74979500  0.19678100  0.41221800  1
  O  O41  1  0.74979500  0.19678100  0.58778200  1
  O  O42  1  0.25020500  0.19678100  0.41221800  1
  O  O43  1  0.25020500  0.19678100  0.58778200  1
  O  O44  1  0.75020500  0.80321900  0.08778200  1
  O  O45  1  0.75020500  0.80321900  0.91221800  1
  O  O46  1  0.24979500  0.80321900  0.08778200  1
  O  O47  1  0.24979500  0.80321900  0.91221800  1
loop_
_geom_bond_atom_site_label_1
_geom_bond_atom_site_label_2
_geom_bond_distance
_geom_bond_site_symmetry_2
K0 O42 2.787197 1_555
K0 O43 2.787197 1_555
K0 O40 2.787197 1_555
K0 O41 2.787197 1_555
K0 O0 2.828404 1_545
K0 O2 2.828404 1_545
K0 O1 2.828404 1_545
K0 O3 2.828404 1_545
K1 O44 2.787197 1_455
K1 O46 2.787197 1_555
K1 O45 2.787197 1_454
K1 O47 2.787197 1_554
K1 O7 2.828404 1_565
K1 O5 2.828404 1_465
K1 O6 2.828404 1_564
K1 O4 2.828404 1_464
K2 O41 2.896558 1_455
K2 O43 2.896558 1_555
K2 O40 2.896558 1_455
K2 O42 2.896558 1_555
K2 O24 3.120171 1_545
K2 O25 3.120171 1_545
K2 O2 3.275819 1_545
K2 O0 3.275819 1_445
K2 O3 3.275819 1_545
K2 O1 3.275819 1_445
K3 O45 2.896558 1_554
K3 O46 2.896558 1_555
K3 O47 2.896558 1_554
K3 O44 2.896558 1_555
K3 O27 3.120171 1_565
K3 O26 3.120171 1_564
K3 O5 3.275819 1_565
K3 O4 3.275819 1_564
K3 O7 3.275819 1_565
K3 O6 3.275819 1_564
K4 O36 2.784982 1_555
K4 O37 2.784982 1_555
K4 O0 2.961883 1_555
K4 O2 2.961883 1_555
K4 O1 2.961883 1_555
K4 O3 2.961883 1_555
K5 O38 2.784982 1_455
K5 O39 2.784982 1_555
K5 O7 2.961883 1_555
K5 O5 2.961883 1_455
K5 O6 2.961883 1_554
K5 O4 2.961883 1_454
H0 O40 0.987412 1_555
H1 O41 0.987412 1_555
H2 O42 0.987412 1_555
H3 O43 0.987412 1_555
H4 O44 0.987412 1_555
H5 O45 0.987412 1_555
H6 O46 0.987412 1_555
H7 O47 0.987412 1_555
H8 O40 0.981919 1_555
H9 O41 0.981919 1_555
H10 O42 0.981919 1_555
H11 O43 0.981919 1_555
H12 O44 0.981919 1_555
H13 O45 0.981919 1_555
H14 O46 0.981919 1_555
H15 O47 0.981919 1_555
O0 V0 1.662531 1_555
O1 V1 1.662531 1_555
O2 V2 1.662531 1_555
O3 V3 1.662531 1_555
O4 V4 1.662531 1_555
O5 V5 1.662531 1_555
O6 V6 1.662531 1_555
O7 V7 1.662531 1_555
O8 Te0 1.927349 1_555
O8 V0 1.984541 1_555
O9 Te1 1.927349 1_555
O9 V1 1.984541 1_555
O10 Te0 1.927349 1_555
O10 V2 1.984541 1_555
O11 Te1 1.927349 1_555
O11 V3 1.984541 1_555
O12 Te2 1.927349 1_655
O12 V4 1.984541 1_555
O13 Te3 1.927349 1_655
O13 V5 1.984541 1_555
O14 Te2 1.927349 1_555
O14 V6 1.984541 1_555
O15 Te3 1.927349 1_555
O15 V7 1.984541 1_555
O16 Te4 1.921518 1_555
O16 V0 2.049618 1_555
O17 Te5 1.921518 1_555
O17 V1 2.049618 1_555
O18 Te4 1.921518 1_555
O18 V2 2.049618 1_555
O19 Te5 1.921518 1_555
O19 V3 2.049618 1_555
O20 Te6 1.921518 1_655
O20 V4 2.049618 1_555
O21 Te7 1.921518 1_655
O21 V5 2.049618 1_555
O22 Te6 1.921518 1_555
O22 V6 2.049618 1_555
O23 Te7 1.921518 1_555
O23 V7 2.049618 1_555
O24 Te6 1.936378 1_565
O24 V0 2.098561 1_455
O24 V2 2.098561 1_555
O25 Te7 1.936378 1_565
O25 V3 2.098561 1_555
O25 V1 2.098561 1_455
O26 Te4 1.936378 1_545
O26 V6 2.098561 1_555
O26 V4 2.098561 1_555
O27 Te5 1.936378 1_545
O27 V7 2.098561 1_555
O27 V5 2.098561 1_555
O28 V8 1.835731 1_555
O28 V2 2.045731 1_555
O28 V0 2.045731 1_455
O29 V8 1.835731 1_555
O29 V3 2.045731 1_555
O29 V1 2.045731 1_455
O30 V9 1.835731 1_556
O30 V6 2.045731 1_555
O30 V4 2.045731 1_555
O31 V9 1.835731 1_555
O31 V5 2.045731 1_555
O31 V7 2.045731 1_555
O32 Te2 1.904831 1_555
O32 V2 2.258842 1_555
O32 V0 2.258842 1_455
O33 Te3 1.904831 1_555
O33 V3 2.258842 1_555
O33 V1 2.258842 1_455
O34 Te0 1.904831 1_555
O34 V6 2.258842 1_555
O34 V4 2.258842 1_555
O35 Te1 1.904831 1_555
O35 V5 2.258842 1_555
O35 V7 2.258842 1_555
O36 V8 1.682787 1_655
O37 V8 1.682787 1_555
O38 V9 1.682787 1_555
O39 V9 1.682787 1_555
