# generated using pymatgen
data_NaAl5FeP4(H5O12)2
_symmetry_space_group_name_H-M   'P 1'
_cell_length_a   5.09852600
_cell_length_b   12.91149700
_cell_length_c   13.65070856
_cell_angle_alpha   110.57191943
_cell_angle_beta   90.00000000
_cell_angle_gamma   101.38737861
_symmetry_Int_Tables_number   1
_chemical_formula_structural   NaAl5FeP4(H5O12)2
_chemical_formula_sum   'Na2 Al10 Fe2 P8 H20 O48'
_cell_volume   822.39606359
_cell_formula_units_Z   2
loop_
 _symmetry_equiv_pos_site_id
 _symmetry_equiv_pos_as_xyz
  1  'x, y, z'
loop_
 _atom_site_type_symbol
 _atom_site_label
 _atom_site_symmetry_multiplicity
 _atom_site_fract_x
 _atom_site_fract_y
 _atom_site_fract_z
 _atom_site_occupancy
  Na  Na0  1  0.85356200  0.00000000  0.75000000  1
  Na  Na1  1  0.14643800  0.00000000  0.25000000  1
  Al  Al0  1  0.63561400  0.71829300  0.65008000  1
  Al  Al1  1  0.36438600  0.28170700  0.34992000  1
  Al  Al2  1  0.91732000  0.28170700  0.84992000  1
  Al  Al3  1  0.08268000  0.71829300  0.15008000  1
  Al  Al4  1  0.82886200  0.69646300  0.89152800  1
  Al  Al5  1  0.17113800  0.30353700  0.10847200  1
  Al  Al6  1  0.13239900  0.30353700  0.60847200  1
  Al  Al7  1  0.86760100  0.69646300  0.39152800  1
  Al  Al8  1  0.00000000  0.00000000  0.00000000  1
  Al  Al9  1  0.00000000  0.00000000  0.50000000  1
  Fe  Fe0  1  0.50000000  0.50000000  0.50000000  1
  Fe  Fe1  1  0.00000000  0.50000000  0.00000000  1
  P  P0  1  0.35674000  0.16176700  0.89461200  1
  P  P1  1  0.64326000  0.83823300  0.10538800  1
  P  P2  1  0.19497300  0.83823300  0.60538800  1
  P  P3  1  0.80502700  0.16176700  0.39461200  1
  P  P4  1  0.48272400  0.43094400  0.82654600  1
  P  P5  1  0.51727600  0.56905600  0.17345400  1
  P  P6  1  0.05178000  0.56905600  0.67345400  1
  P  P7  1  0.94822000  0.43094400  0.32654600  1
  H  H0  1  0.42968100  0.70800200  0.80374000  1
  H  H1  1  0.57031900  0.29199800  0.19626000  1
  H  H2  1  0.72167900  0.29199800  0.69626000  1
  H  H3  1  0.27832100  0.70800200  0.30374000  1
  H  H4  1  0.54841900  0.30938400  0.52228600  1
  H  H5  1  0.45158100  0.69061600  0.47771400  1
  H  H6  1  0.23903500  0.69061600  0.97771400  1
  H  H7  1  0.76096500  0.30938400  0.02228600  1
  H  H8  1  0.30452400  0.15303200  0.62782300  1
  H  H9  1  0.69547600  0.84696800  0.37217700  1
  H  H10  1  0.15149300  0.84696800  0.87217700  1
  H  H11  1  0.84850700  0.15303200  0.12782300  1
  H  H12  1  0.53479400  0.99194300  0.90510200  1
  H  H13  1  0.46520600  0.00805700  0.09489800  1
  H  H14  1  0.54285000  0.00805700  0.59489800  1
  H  H15  1  0.45715000  0.99194300  0.40510200  1
  H  H16  1  0.64680900  0.87115100  0.86021500  1
  H  H17  1  0.35319100  0.12884900  0.13978500  1
  H  H18  1  0.77565800  0.12884900  0.63978500  1
  H  H19  1  0.22434200  0.87115100  0.36021500  1
  O  O0  1  0.21204100  0.41594500  0.87816000  1
  O  O1  1  0.78795900  0.58405500  0.12184000  1
  O  O2  1  0.79609600  0.58405500  0.62184000  1
  O  O3  1  0.20390400  0.41594500  0.37816000  1
  O  O4  1  0.59004800  0.55480600  0.84286800  1
  O  O5  1  0.40995200  0.44519400  0.15713200  1
  O  O6  1  0.03524300  0.44519400  0.65713200  1
  O  O7  1  0.96475700  0.55480600  0.34286800  1
  O  O8  1  0.46321600  0.83988500  0.65854500  1
  O  O9  1  0.53678400  0.16011500  0.34145500  1
  O  O10  1  0.62333100  0.16011500  0.84145500  1
  O  O11  1  0.37666900  0.83988500  0.15854500  1
  O  O12  1  0.61830000  0.74198000  0.79641300  1
  O  O13  1  0.38170000  0.25802000  0.20358700  1
  O  O14  1  0.87632100  0.25802000  0.70358700  1
  O  O15  1  0.12367900  0.74198000  0.29641300  1
  O  O16  1  0.24529500  0.04238800  0.90175100  1
  O  O17  1  0.75470500  0.95761200  0.09824900  1
  O  O18  1  0.20290700  0.95761200  0.59824900  1
  O  O19  1  0.79709300  0.04238800  0.40175100  1
  O  O20  1  0.80022500  0.85002600  0.43324400  1
  O  O21  1  0.19977500  0.14997400  0.56675600  1
  O  O22  1  0.95019900  0.14997400  0.06675600  1
  O  O23  1  0.04980100  0.85002600  0.93324400  1
  O  O24  1  0.69216000  0.39005200  0.87955900  1
  O  O25  1  0.30784000  0.60994800  0.12044100  1
  O  O26  1  0.30210700  0.60994800  0.62044100  1
  O  O27  1  0.69789300  0.39005200  0.37955900  1
  O  O28  1  0.69717600  0.95791400  0.89783200  1
  O  O29  1  0.30282400  0.04208600  0.10216800  1
  O  O30  1  0.73926200  0.04208600  0.60216800  1
  O  O31  1  0.26073800  0.95791400  0.39783200  1
  O  O32  1  0.43152000  0.35152600  0.70979100  1
  O  O33  1  0.56848000  0.64847400  0.29020900  1
  O  O34  1  0.07999400  0.64847400  0.79020900  1
  O  O35  1  0.92000600  0.35152600  0.20979100  1
  O  O36  1  0.14756900  0.18348000  0.82603000  1
  O  O37  1  0.85243100  0.81652000  0.17397000  1
  O  O38  1  0.96408900  0.81652000  0.67397000  1
  O  O39  1  0.03591100  0.18348000  0.32603000  1
  O  O40  1  0.59254000  0.74801500  0.99395300  1
  O  O41  1  0.40746000  0.25198500  0.00604700  1
  O  O42  1  0.84452500  0.25198500  0.50604700  1
  O  O43  1  0.15547500  0.74801500  0.49395300  1
  O  O44  1  0.61958600  0.66910200  0.49352100  1
  O  O45  1  0.38041400  0.33089800  0.50647900  1
  O  O46  1  0.95048300  0.33089800  0.00647900  1
  O  O47  1  0.04951700  0.66910200  0.99352100  1
loop_
_geom_bond_atom_site_label_1
_geom_bond_atom_site_label_2
_geom_bond_distance
_geom_bond_site_symmetry_2
Na0 O28 2.367053 1_545
Na0 O30 2.367053 1_555
Na0 O36 2.409598 1_655
Na0 O38 2.409598 1_545
Na0 O8 2.520871 1_545
Na0 O10 2.520871 1_555
Na0 O16 2.711337 1_655
Na0 O18 2.711337 1_645
Na1 O29 2.367053 1_555
Na1 O31 2.367053 1_545
Na1 O37 2.409598 1_445
Na1 O39 2.409598 1_555
Na1 O9 2.520871 1_555
Na1 O11 2.520871 1_545
Na1 O17 2.711337 1_445
Na1 O19 2.711337 1_455
Al0 O38 1.841245 1_555
Al0 O8 1.915220 1_555
Al0 O12 1.916470 1_555
Al0 O26 1.917001 1_555
Al0 O2 1.978023 1_555
Al0 O44 2.000759 1_555
Al1 O39 1.841245 1_555
Al1 O9 1.915220 1_555
Al1 O13 1.916470 1_555
Al1 O27 1.917001 1_555
Al1 O3 1.978023 1_555
Al1 O45 2.000759 1_555
Al2 O36 1.841249 1_655
Al2 O10 1.915217 1_555
Al2 O14 1.916469 1_555
Al2 O24 1.916994 1_555
Al2 O0 1.978026 1_655
Al2 O46 2.000759 1_556
Al3 O37 1.841249 1_455
Al3 O11 1.915217 1_555
Al3 O15 1.916469 1_555
Al3 O25 1.916994 1_555
Al3 O1 1.978026 1_455
Al3 O47 2.000759 1_554
Al4 O40 1.874132 1_555
Al4 O4 1.880380 1_555
Al4 O34 1.909786 1_655
Al4 O47 1.957420 1_655
Al4 O23 1.961881 1_655
Al4 O12 1.992260 1_555
Al5 O41 1.874132 1_555
Al5 O5 1.880380 1_555
Al5 O35 1.909786 1_455
Al5 O46 1.957420 1_455
Al5 O22 1.961881 1_455
Al5 O13 1.992260 1_555
Al6 O42 1.874132 1_455
Al6 O6 1.880378 1_555
Al6 O32 1.909785 1_555
Al6 O45 1.957416 1_555
Al6 O21 1.961881 1_555
Al6 O14 1.992257 1_455
Al7 O43 1.874132 1_655
Al7 O7 1.880378 1_555
Al7 O33 1.909785 1_555
Al7 O44 1.957416 1_555
Al7 O20 1.961881 1_555
Al7 O15 1.992257 1_655
Al8 O22 1.896986 1_455
Al8 O23 1.896986 1_544
Al8 O29 1.939144 1_555
Al8 O28 1.939144 1_444
Al8 O17 1.976847 1_445
Al8 O16 1.976847 1_554
Al9 O21 1.896986 1_555
Al9 O20 1.896986 1_445
Al9 O31 1.939144 1_545
Al9 O30 1.939144 1_455
Al9 O19 1.976847 1_455
Al9 O18 1.976847 1_545
Fe0 O2 2.075483 1_555
Fe0 O3 2.075483 1_555
Fe0 O26 2.159097 1_555
Fe0 O27 2.159097 1_555
Fe0 O45 2.180977 1_555
Fe0 O44 2.180977 1_555
Fe1 O0 2.075483 1_554
Fe1 O1 2.075483 1_455
Fe1 O24 2.159094 1_454
Fe1 O25 2.159094 1_555
Fe1 O47 2.180977 1_554
Fe1 O46 2.180977 1_455
H0 O12 0.995757 1_555
H1 O13 0.995757 1_555
H2 O14 0.995761 1_555
H3 O15 0.995761 1_555
H4 O45 0.996758 1_555
H5 O44 0.996758 1_555
H6 O47 0.996753 1_555
H7 O46 0.996753 1_555
H8 O21 0.974797 1_555
H9 O20 0.974797 1_555
H10 O23 0.974800 1_555
H11 O22 0.974800 1_555
H12 O28 1.000660 1_555
H12 O16 1.733639 1_565
H13 O29 1.000660 1_555
H13 O17 1.733639 1_545
H14 O30 1.000665 1_555
H14 O18 1.733634 1_545
H15 O31 1.000665 1_555
H15 O19 1.733634 1_565
H16 O28 1.032815 1_555
H16 O12 1.563543 1_555
H17 O29 1.032815 1_555
H17 O13 1.563543 1_555
H18 O30 1.032815 1_555
H18 O14 1.563543 1_555
H19 O31 1.032815 1_555
H19 O15 1.563543 1_555
O0 P4 1.558494 1_555
O1 P5 1.558494 1_555
O2 P6 1.558494 1_655
O3 P7 1.558494 1_455
O4 P4 1.520090 1_555
O5 P5 1.520090 1_555
O6 P6 1.520091 1_555
O7 P7 1.520091 1_555
O8 P2 1.541119 1_555
O9 P3 1.541119 1_555
O10 P0 1.541119 1_555
O11 P1 1.541119 1_555
O16 P0 1.570945 1_555
O17 P1 1.570945 1_555
O18 P2 1.570945 1_555
O19 P3 1.570945 1_555
O24 P4 1.560070 1_555
O25 P5 1.560070 1_555
O26 P6 1.560066 1_555
O27 P7 1.560066 1_555
O32 P4 1.550983 1_555
O33 P5 1.550983 1_555
O34 P6 1.550983 1_555
O35 P7 1.550983 1_555
O36 P0 1.547548 1_555
O37 P1 1.547548 1_555
O38 P2 1.547548 1_655
O39 P3 1.547548 1_455
O40 P1 1.540615 1_556
O41 P0 1.540615 1_554
O42 P3 1.540615 1_555
O43 P2 1.540615 1_555
