# generated using pymatgen
data_NaNbO3
_symmetry_space_group_name_H-M   'P 1'
_cell_length_a   5.52130513
_cell_length_b   5.58318855
_cell_length_c   7.80092354
_cell_angle_alpha   90.00000000
_cell_angle_beta   90.00000000
_cell_angle_gamma   90.00000000
_symmetry_Int_Tables_number   1
_chemical_formula_structural   NaNbO3
_chemical_formula_sum   'Na4 Nb4 O12'
_cell_volume   240.47507264
_cell_formula_units_Z   4
loop_
 _symmetry_equiv_pos_site_id
 _symmetry_equiv_pos_as_xyz
  1  'x, y, z'
loop_
 _atom_site_type_symbol
 _atom_site_label
 _atom_site_symmetry_multiplicity
 _atom_site_fract_x
 _atom_site_fract_y
 _atom_site_fract_z
 _atom_site_occupancy
  Na  Na0  1  0.49830201  0.26887567  0.00000000  1
  Na  Na1  1  0.99830201  0.73112433  0.50000000  1
  Na  Na2  1  0.49003826  0.21043900  0.50000000  1
  Na  Na3  1  0.99003826  0.78956100  0.00000000  1
  Nb  Nb0  1  0.48584032  0.74451459  0.25374101  1
  Nb  Nb1  1  0.48584032  0.74451459  0.74625899  1
  Nb  Nb2  1  0.98584032  0.25548541  0.24625899  1
  Nb  Nb3  1  0.98584032  0.25548541  0.75374101  1
  O  O0  1  0.08592439  0.23055835  0.00000000  1
  O  O1  1  0.58592439  0.76944165  0.50000000  1
  O  O2  1  0.93877355  0.26581990  0.50000000  1
  O  O3  1  0.43877355  0.73418010  0.00000000  1
  O  O4  1  0.80715226  0.54526124  0.21235780  1
  O  O5  1  0.80715226  0.54526124  0.78764220  1
  O  O6  1  0.30715226  0.45473876  0.28764220  1
  O  O7  1  0.30715226  0.45473876  0.71235780  1
  O  O8  1  0.21968782  0.95842414  0.28885464  1
  O  O9  1  0.21968782  0.95842414  0.71114536  1
  O  O10  1  0.71968782  0.04157586  0.21114536  1
  O  O11  1  0.71968782  0.04157586  0.78885464  1
loop_
_geom_bond_atom_site_label_1
_geom_bond_atom_site_label_2
_geom_bond_distance
_geom_bond_site_symmetry_2
Na0 O0 2.286891 1_555
Na0 O11 2.411981 1_554
Na0 O10 2.411981 1_555
Na0 O3 2.618591 1_555
Na0 O6 2.688061 1_555
Na0 O7 2.688061 1_554
Na0 O4 2.834321 1_555
Na0 O5 2.834321 1_554
Na0 O3 3.003345 1_545
Na1 O1 2.286891 1_555
Na1 O8 2.411981 1_655
Na1 O9 2.411981 1_655
Na1 O2 2.618591 1_555
Na1 O5 2.688061 1_555
Na1 O4 2.688061 1_555
Na1 O7 2.834321 1_655
Na1 O6 2.834321 1_655
Na1 O2 3.003345 1_565
Na2 O7 2.371568 1_555
Na2 O6 2.371568 1_555
Na2 O2 2.496824 1_555
Na2 O1 2.518446 1_545
Na2 O8 2.630766 1_545
Na2 O9 2.630766 1_545
Na2 O10 2.752110 1_555
Na2 O11 2.752110 1_555
Na3 O4 2.371568 1_555
Na3 O5 2.371568 1_554
Na3 O3 2.496824 1_655
Na3 O0 2.518446 1_665
Na3 O11 2.630766 1_564
Na3 O10 2.630766 1_565
Na3 O9 2.752110 1_654
Na3 O8 2.752110 1_655
Nb0 O6 1.913326 1_555
Nb0 O8 1.913331 1_555
Nb0 O3 1.997234 1_555
Nb0 O1 2.003785 1_555
Nb0 O4 2.118749 1_555
Nb0 O10 2.127968 1_565
Nb1 O7 1.913326 1_555
Nb1 O9 1.913331 1_555
Nb1 O3 1.997234 1_556
Nb1 O1 2.003785 1_555
Nb1 O5 2.118749 1_555
Nb1 O11 2.127968 1_565
Nb2 O4 1.913326 1_555
Nb2 O10 1.913331 1_555
Nb2 O2 1.997234 1_555
Nb2 O0 2.003785 1_655
Nb2 O6 2.118749 1_655
Nb2 O8 2.127968 1_645
Nb3 O5 1.913326 1_555
Nb3 O11 1.913331 1_555
Nb3 O2 1.997234 1_555
Nb3 O0 2.003785 1_656
Nb3 O7 2.118749 1_655
Nb3 O9 2.127968 1_645
