# generated using pymatgen
data_CoTe(PbO3)2
_symmetry_space_group_name_H-M   'P 1'
_cell_length_a   5.72702114
_cell_length_b   9.95695247
_cell_length_c   9.97882552
_cell_angle_alpha   100.77882881
_cell_angle_beta   73.30569541
_cell_angle_gamma   89.98649427
_symmetry_Int_Tables_number   1
_chemical_formula_structural   CoTe(PbO3)2
_chemical_formula_sum   'Co4 Te4 Pb8 O24'
_cell_volume   534.54767521
_cell_formula_units_Z   4
loop_
 _symmetry_equiv_pos_site_id
 _symmetry_equiv_pos_as_xyz
  1  'x, y, z'
loop_
 _atom_site_type_symbol
 _atom_site_label
 _atom_site_symmetry_multiplicity
 _atom_site_fract_x
 _atom_site_fract_y
 _atom_site_fract_z
 _atom_site_occupancy
  Co  Co0  1  0.49981700  0.50025300  0.00035200  1
  Co  Co1  1  0.75012100  0.74980800  0.49976800  1
  Co  Co2  1  0.00015800  0.99977100  0.99942000  1
  Co  Co3  1  0.24998500  0.24984700  0.50007000  1
  Te  Te0  1  0.87478700  0.37535400  0.25064200  1
  Te  Te1  1  0.37503800  0.87519400  0.24948400  1
  Te  Te2  1  0.12494300  0.62461100  0.75055200  1
  Te  Te3  1  0.62522600  0.12478900  0.74928800  1
  Pb  Pb0  1  0.30977500  0.55903000  0.37932800  1
  Pb  Pb1  1  0.81130000  0.05877800  0.37913900  1
  Pb  Pb2  1  0.56123700  0.80962600  0.87762000  1
  Pb  Pb3  1  0.06008600  0.30963300  0.88017200  1
  Pb  Pb4  1  0.43956400  0.18995700  0.12097400  1
  Pb  Pb5  1  0.93901500  0.69059100  0.12090600  1
  Pb  Pb6  1  0.68868400  0.44133300  0.62126100  1
  Pb  Pb7  1  0.19060400  0.94074400  0.62024000  1
  O  O0  1  0.92004100  0.18163200  0.15955700  1
  O  O1  1  0.41932000  0.68109800  0.16084300  1
  O  O2  1  0.17015600  0.42994500  0.66032900  1
  O  O3  1  0.67063700  0.93009400  0.65846400  1
  O  O4  1  0.82923400  0.56997600  0.34167600  1
  O  O5  1  0.33024300  0.07019700  0.33900600  1
  O  O6  1  0.08032700  0.81862100  0.84016400  1
  O  O7  1  0.58024000  0.31854400  0.83980200  1
  O  O8  1  0.18390100  0.40950100  0.11514000  1
  O  O9  1  0.68423700  0.90789700  0.11334000  1
  O  O10  1  0.43520200  0.65754500  0.61550500  1
  O  O11  1  0.93411600  0.15737000  0.61304800  1
  O  O12  1  0.05033800  0.34240200  0.38536400  1
  O  O13  1  0.54824400  0.84296900  0.38551900  1
  O  O14  1  0.29797900  0.59111500  0.88661700  1
  O  O15  1  0.79935500  0.09039800  0.88456500  1
  O  O16  1  0.56599000  0.34237900  0.38651300  1
  O  O17  1  0.06484800  0.84328500  0.38524500  1
  O  O18  1  0.81575300  0.59109000  0.88664400  1
  O  O19  1  0.31613100  0.09128400  0.88505900  1
  O  O20  1  0.70051500  0.40948700  0.11554700  1
  O  O21  1  0.20207100  0.90876300  0.11336300  1
  O  O22  1  0.95069000  0.65790000  0.61544100  1
  O  O23  1  0.45009100  0.15718700  0.61403200  1
loop_
_geom_bond_atom_site_label_1
_geom_bond_atom_site_label_2
_geom_bond_distance
_geom_bond_site_symmetry_2
Co0 O1 2.125217 1_555
Co0 O7 2.131614 1_554
Co0 O14 2.140109 1_554
Co0 O18 2.141133 1_554
Co0 O8 2.144583 1_555
Co0 O20 2.146265 1_555
Co1 O4 2.105370 1_555
Co1 O3 2.111766 1_555
Co1 O10 2.152083 1_555
Co1 O17 2.153208 1_655
Co1 O22 2.155366 1_555
Co1 O13 2.156207 1_555
Co2 O6 2.120830 1_555
Co2 O0 2.130503 1_466
Co2 O21 2.142752 1_556
Co2 O15 2.143353 1_465
Co2 O19 2.147193 1_565
Co2 O9 2.147255 1_456
Co3 O2 2.118735 1_555
Co3 O5 2.119901 1_555
Co3 O23 2.144409 1_555
Co3 O11 2.146776 1_455
Co3 O12 2.147734 1_555
Co3 O16 2.149708 1_555
O0 Te0 1.955135 1_555
O0 Pb1 2.627608 1_555
O1 Te1 1.952733 1_555
O1 Pb0 2.613408 1_555
O2 Te2 1.961545 1_555
O2 Pb3 2.614172 1_555
O3 Te3 1.963230 1_565
O3 Pb2 2.609265 1_555
O4 Te0 1.963077 1_555
O4 Pb5 2.623946 1_555
O5 Te1 1.962936 1_545
O5 Pb4 2.595329 1_555
O6 Te2 1.954214 1_555
O6 Pb7 2.625994 1_555
O7 Te3 1.954059 1_555
O7 Pb6 2.618353 1_555
O8 Te0 1.968466 1_455
O8 Pb4 2.649688 1_555
O8 Pb3 2.659458 1_554
O9 Te1 1.967481 1_555
O9 Pb5 2.634247 1_555
O9 Pb2 2.660439 1_554
O10 Te2 1.967400 1_555
O10 Pb6 2.614959 1_555
O10 Pb0 2.672229 1_555
O11 Te3 1.966325 1_555
O11 Pb7 2.632906 1_645
O11 Pb1 2.644452 1_555
O12 Te0 1.966504 1_455
O12 Pb0 2.619614 1_555
O12 Pb6 2.670574 1_455
O13 Te1 1.966227 1_555
O13 Pb1 2.624616 1_565
O13 Pb7 2.649329 1_555
O14 Te2 1.969538 1_555
O14 Pb2 2.647961 1_555
O14 Pb5 2.654200 1_456
O15 Te3 1.969810 1_555
O15 Pb3 2.645077 1_655
O15 Pb4 2.669326 1_556
O16 Te0 1.965405 1_555
O16 Pb0 2.632204 1_555
O16 Pb6 2.652282 1_555
O17 Te1 1.967397 1_555
O17 Pb1 2.610426 1_465
O17 Pb7 2.660595 1_555
O18 Te2 1.969621 1_655
O18 Pb2 2.648535 1_555
O18 Pb5 2.650789 1_556
O19 Te3 1.967711 1_555
O19 Pb3 2.637905 1_555
O19 Pb4 2.664273 1_556
O20 Te0 1.968044 1_555
O20 Pb4 2.648327 1_555
O20 Pb3 2.663179 1_654
O21 Te1 1.969962 1_555
O21 Pb5 2.644211 1_455
O21 Pb2 2.662670 1_554
O22 Te2 1.965595 1_655
O22 Pb6 2.627365 1_555
O22 Pb0 2.664075 1_655
O23 Te3 1.967796 1_555
O23 Pb7 2.618274 1_545
O23 Pb1 2.662282 1_555
