# generated using pymatgen
data_CaHf8(N2O)4
_symmetry_space_group_name_H-M   'P 1'
_cell_length_a   5.80777869
_cell_length_b   5.87398775
_cell_length_c   11.02283296
_cell_angle_alpha   89.08621390
_cell_angle_beta   74.19692285
_cell_angle_gamma   58.67900254
_symmetry_Int_Tables_number   1
_chemical_formula_structural   CaHf8(N2O)4
_chemical_formula_sum   'Ca1 Hf8 N8 O4'
_cell_volume   305.46804950
_cell_formula_units_Z   1
loop_
 _symmetry_equiv_pos_site_id
 _symmetry_equiv_pos_as_xyz
  1  'x, y, z'
loop_
 _atom_site_type_symbol
 _atom_site_label
 _atom_site_symmetry_multiplicity
 _atom_site_fract_x
 _atom_site_fract_y
 _atom_site_fract_z
 _atom_site_occupancy
  Ca  Ca0  1  0.56799000  0.33718800  0.33363000  1
  Hf  Hf0  1  0.89968000  0.66488000  0.31162700  1
  Hf  Hf1  1  0.26437200  0.78066500  0.72675000  1
  Hf  Hf2  1  0.42564700  0.26075100  0.02479200  1
  Hf  Hf3  1  0.60333800  0.15898700  0.74116000  1
  Hf  Hf4  1  0.15000900  0.04932500  0.44875200  1
  Hf  Hf5  1  0.07463300  0.90098300  0.00942100  1
  Hf  Hf6  1  0.74756700  0.58009400  0.01604300  1
  Hf  Hf7  1  0.92892400  0.48442800  0.74087700  1
  N  N0  1  0.18300300  0.32415200  0.34992400  1
  N  N1  1  0.70540500  0.27284400  0.10173400  1
  N  N2  1  0.32300700  0.43765500  0.65185600  1
  N  N3  1  0.52592500  0.71813400  0.40210400  1
  N  N4  1  0.49343900  0.50970300  0.87752500  1
  N  N5  1  0.01351900  0.61877500  0.11023600  1
  N  N6  1  0.99314400  0.12457300  0.65036500  1
  N  N7  1  0.85340200  0.88020300  0.87614100  1
  O  O0  1  0.36789900  0.93985700  0.07369500  1
  O  O1  1  0.91333700  0.96563200  0.38201500  1
  O  O2  1  0.15595500  0.24193400  0.88360500  1
  O  O3  1  0.62880800  0.80390600  0.68176900  1
loop_
_geom_bond_atom_site_label_1
_geom_bond_atom_site_label_2
_geom_bond_distance
_geom_bond_site_symmetry_2
Ca0 N0 2.235239 1_555
Ca0 N3 2.240900 1_555
Ca0 O1 2.250570 1_545
Ca0 N1 2.433060 1_555
Hf0 N0 1.954221 1_655
Hf0 N3 1.982232 1_555
Hf0 O1 1.987993 1_555
Hf0 N5 2.114720 1_655
Hf1 N2 2.010881 1_555
Hf1 O3 2.114468 1_555
Hf1 N6 2.151956 1_465
Hf1 N7 2.278048 1_455
Hf1 N4 2.446172 1_555
Hf1 O2 2.917177 1_565
Hf2 N1 2.058324 1_555
Hf2 O0 2.117165 1_545
Hf2 N5 2.154257 1_555
Hf2 N4 2.259054 1_554
Hf2 N7 2.445305 1_544
Hf2 O2 2.529965 1_554
Hf3 N2 2.085649 1_555
Hf3 N6 2.112902 1_555
Hf3 O3 2.114430 1_545
Hf3 N4 2.262734 1_555
Hf3 N7 2.373027 1_545
Hf3 O2 2.437226 1_555
Hf4 N3 1.954545 1_545
Hf4 O1 1.984189 1_445
Hf4 N0 1.995324 1_555
Hf4 N6 2.115209 1_455
Hf5 N1 2.101821 1_465
Hf5 N5 2.108777 1_555
Hf5 O0 2.126456 1_555
Hf5 N7 2.240754 1_454
Hf5 N4 2.383451 1_554
Hf5 O2 2.587558 1_564
Hf6 O0 2.041278 1_555
Hf6 N1 2.118609 1_555
Hf6 N5 2.182034 1_655
Hf6 O2 2.238466 1_654
Hf6 N7 2.527267 1_554
Hf6 N4 2.561760 1_554
Hf7 O3 2.040367 1_555
Hf7 N2 2.099600 1_655
Hf7 N6 2.155811 1_555
Hf7 O2 2.312663 1_655
Hf7 N4 2.495890 1_555
Hf7 N7 2.552306 1_555
