# generated using pymatgen
data_NdSmFe17
_symmetry_space_group_name_H-M   'P 1'
_cell_length_a   6.45551635
_cell_length_b   6.45551635
_cell_length_c   6.45551613
_cell_angle_alpha   83.02977430
_cell_angle_beta   83.02977430
_cell_angle_gamma   83.02978236
_symmetry_Int_Tables_number   1
_chemical_formula_structural   NdSmFe17
_chemical_formula_sum   'Nd1 Sm1 Fe17'
_cell_volume   263.50660034
_cell_formula_units_Z   1
loop_
 _symmetry_equiv_pos_site_id
 _symmetry_equiv_pos_as_xyz
  1  'x, y, z'
loop_
 _atom_site_type_symbol
 _atom_site_label
 _atom_site_symmetry_multiplicity
 _atom_site_fract_x
 _atom_site_fract_y
 _atom_site_fract_z
 _atom_site_occupancy
  Nd  Nd0  1  0.34170300  0.34170300  0.34170300  1
  Sm  Sm0  1  0.65871800  0.65871800  0.65871800  1
  Fe  Fe0  1  0.29053000  0.99956900  0.70986700  1
  Fe  Fe1  1  0.99956900  0.70986700  0.29053000  1
  Fe  Fe2  1  0.70986700  0.29053000  0.99956900  1
  Fe  Fe3  1  0.99956900  0.29053000  0.70986700  1
  Fe  Fe4  1  0.29053000  0.70986700  0.99956900  1
  Fe  Fe5  1  0.70986700  0.99956900  0.29053000  1
  Fe  Fe6  1  0.99971600  0.50012900  0.99971600  1
  Fe  Fe7  1  0.50012900  0.99971600  0.99971600  1
  Fe  Fe8  1  0.99971600  0.99971600  0.50012900  1
  Fe  Fe9  1  0.09671300  0.09671300  0.09671300  1
  Fe  Fe10  1  0.90290900  0.90290900  0.90290900  1
  Fe  Fe11  1  0.65756500  0.15451900  0.65756500  1
  Fe  Fe12  1  0.15451900  0.65756500  0.65756500  1
  Fe  Fe13  1  0.65756500  0.65756500  0.15451900  1
  Fe  Fe14  1  0.34279300  0.84522700  0.34279300  1
  Fe  Fe15  1  0.84522700  0.34279300  0.34279300  1
  Fe  Fe16  1  0.34279300  0.34279300  0.84522700  1
loop_
_geom_bond_atom_site_label_1
_geom_bond_atom_site_label_2
_geom_bond_distance
_geom_bond_site_symmetry_2
Fe0 Fe7 2.438673 1_555
Fe0 Fe8 2.444151 1_455
Fe0 Fe4 2.479160 1_555
Fe0 Fe3 2.489934 1_465
Fe0 Fe12 2.546118 1_555
Fe0 Fe16 2.551383 1_565
Fe0 Fe14 2.649380 1_555
Fe0 Fe11 2.650984 1_565
Fe0 Fe9 2.761614 1_566
Fe0 Fe10 2.763550 1_455
Fe0 Sm0 3.052303 1_555
Fe0 Nd0 3.057517 1_565
Fe1 Fe8 2.438673 1_555
Fe1 Fe6 2.444151 1_554
Fe1 Fe5 2.479160 1_555
Fe1 Fe4 2.489934 1_654
Fe1 Fe13 2.546118 1_555
Fe1 Fe14 2.551383 1_655
Fe1 Fe15 2.649380 1_555
Fe1 Fe12 2.650985 1_655
Fe1 Fe9 2.761614 1_665
Fe1 Fe10 2.763550 1_554
Fe1 Sm0 3.052303 1_555
Fe1 Nd0 3.057517 1_655
Fe2 Fe6 2.438673 1_555
Fe2 Fe7 2.444151 1_545
Fe2 Fe3 2.479160 1_555
Fe2 Fe5 2.489934 1_546
Fe2 Fe9 2.761614 1_656
Fe2 Sm0 3.052303 1_555
Fe2 Nd0 3.057517 1_556
Fe3 Fe6 2.438673 1_555
Fe3 Fe8 2.444151 1_545
Fe3 Fe9 2.761614 1_656
Fe3 Sm0 3.052303 1_555
Fe3 Nd0 3.057517 1_655
Fe4 Fe7 2.438673 1_555
Fe4 Fe6 2.444151 1_455
Fe4 Fe9 2.761614 1_566
Fe4 Sm0 3.052303 1_555
Fe4 Nd0 3.057517 1_556
Fe5 Fe8 2.438673 1_555
Fe5 Fe7 2.444151 1_554
Fe5 Fe9 2.761614 1_665
Fe5 Sm0 3.052303 1_555
Fe5 Nd0 3.057517 1_565
Fe6 Fe9 2.621055 1_656
Fe6 Sm0 3.289661 1_555
Fe6 Nd0 3.298606 1_656
Fe7 Fe9 2.621055 1_566
Fe7 Sm0 3.289661 1_555
Fe7 Nd0 3.298606 1_566
Fe8 Fe9 2.621055 1_665
Fe8 Sm0 3.289661 1_555
Fe8 Nd0 3.298606 1_665
Fe9 Nd0 3.053686 1_555
Fe10 Fe9 2.415676 1_666
Fe10 Fe8 2.616852 1_555
Fe10 Fe7 2.616852 1_555
Fe10 Fe6 2.616852 1_555
Fe10 Fe13 2.648645 1_556
Fe10 Fe11 2.648645 1_565
Fe10 Fe12 2.648645 1_655
Fe10 Fe3 2.763550 1_565
Fe10 Fe5 2.763550 1_556
Fe10 Fe2 2.763551 1_565
Fe10 Fe4 2.763551 1_655
Fe10 Sm0 3.043727 1_555
Fe11 Fe7 2.464988 1_545
Fe11 Fe8 2.464988 1_545
Fe11 Fe15 2.496877 1_555
Fe11 Fe16 2.496878 1_555
Fe11 Fe3 2.546118 1_555
Fe11 Fe2 2.546118 1_555
Fe11 Fe5 2.650985 1_545
Fe11 Nd0 3.096564 1_555
Fe11 Sm0 3.198864 1_545
Fe11 Sm0 3.256690 1_555
Fe12 Fe6 2.464988 1_455
Fe12 Fe8 2.464988 1_455
Fe12 Fe14 2.496877 1_555
Fe12 Fe16 2.496878 1_555
Fe12 Fe4 2.546118 1_555
Fe12 Fe3 2.650984 1_455
Fe12 Nd0 3.096564 1_555
Fe12 Sm0 3.198864 1_455
Fe12 Sm0 3.256690 1_555
Fe13 Fe6 2.464988 1_554
Fe13 Fe7 2.464988 1_554
Fe13 Fe15 2.496878 1_555
Fe13 Fe14 2.496878 1_555
Fe13 Fe5 2.546118 1_555
Fe13 Fe2 2.650985 1_554
Fe13 Fe4 2.650985 1_554
Fe13 Nd0 3.096564 1_555
Fe13 Sm0 3.198864 1_554
Fe13 Sm0 3.256690 1_555
Fe14 Fe7 2.468827 1_554
Fe14 Fe8 2.468827 1_455
Fe14 Fe4 2.551383 1_554
Fe14 Fe5 2.649380 1_555
Fe14 Fe9 2.653940 1_565
Fe14 Sm0 3.096126 1_555
Fe14 Nd0 3.203318 1_565
Fe14 Nd0 3.252232 1_555
Fe15 Fe6 2.468827 1_554
Fe15 Fe8 2.468827 1_545
Fe15 Fe5 2.551383 1_545
Fe15 Fe2 2.551383 1_554
Fe15 Fe3 2.649380 1_555
Fe15 Fe9 2.653940 1_655
Fe15 Sm0 3.096126 1_555
Fe15 Nd0 3.203318 1_655
Fe15 Nd0 3.252232 1_555
Fe16 Fe6 2.468827 1_455
Fe16 Fe7 2.468827 1_545
Fe16 Fe3 2.551383 1_455
Fe16 Fe2 2.649380 1_555
Fe16 Fe4 2.649380 1_555
Fe16 Fe9 2.653939 1_556
Fe16 Sm0 3.096126 1_555
Fe16 Nd0 3.203318 1_556
Fe16 Nd0 3.252232 1_555
