# generated using pymatgen
data_TmFe3
_symmetry_space_group_name_H-M   'P 1'
_cell_length_a   5.06052147
_cell_length_b   5.06052147
_cell_length_c   8.52890658
_cell_angle_alpha   72.74236852
_cell_angle_beta   72.74236852
_cell_angle_gamma   60.00000689
_symmetry_Int_Tables_number   1
_chemical_formula_structural   TmFe3
_chemical_formula_sum   'Tm3 Fe9'
_cell_volume   177.70877335
_cell_formula_units_Z   3
loop_
 _symmetry_equiv_pos_site_id
 _symmetry_equiv_pos_as_xyz
  1  'x, y, z'
loop_
 _atom_site_type_symbol
 _atom_site_label
 _atom_site_symmetry_multiplicity
 _atom_site_fract_x
 _atom_site_fract_y
 _atom_site_fract_z
 _atom_site_occupancy
  Tm  Tm0  1  0.14190800  0.14190800  0.57427500  1
  Tm  Tm1  1  0.85809200  0.85809200  0.42572500  1
  Tm  Tm2  1  0.00000000  0.00000000  0.00000000  1
  Fe  Fe0  1  0.08217400  0.58173200  0.75436100  1
  Fe  Fe1  1  0.58173200  0.58173200  0.75436100  1
  Fe  Fe2  1  0.58173200  0.08217400  0.75436100  1
  Fe  Fe3  1  0.91782600  0.41826800  0.24563900  1
  Fe  Fe4  1  0.41826800  0.41826800  0.24563900  1
  Fe  Fe5  1  0.41826800  0.91782600  0.24563900  1
  Fe  Fe6  1  0.33269300  0.33269300  0.00192100  1
  Fe  Fe7  1  0.66730700  0.66730700  0.99807900  1
  Fe  Fe8  1  0.50000000  0.50000000  0.50000000  1
loop_
_geom_bond_atom_site_label_1
_geom_bond_atom_site_label_2
_geom_bond_distance
_geom_bond_site_symmetry_2
Fe0 Fe7 2.439586 1_455
Fe0 Fe6 2.462769 1_556
Fe0 Fe8 2.506871 1_555
Fe0 Fe1 2.528024 1_555
Fe0 Fe2 2.528024 1_555
Fe0 Fe1 2.532497 1_455
Fe0 Fe2 2.532498 1_465
Fe0 Tm0 2.912813 1_555
Fe0 Tm0 2.912814 1_565
Fe0 Tm1 3.012007 1_455
Fe0 Tm2 3.205667 1_556
Fe0 Tm2 3.205671 1_566
Fe1 Fe7 2.439588 1_555
Fe1 Fe6 2.462766 1_556
Fe1 Fe8 2.506868 1_555
Fe1 Fe2 2.528024 1_555
Fe1 Fe2 2.532497 1_565
Fe1 Tm0 2.912814 1_565
Fe1 Tm0 2.912814 1_655
Fe1 Tm1 3.012011 1_555
Fe1 Tm2 3.205669 1_656
Fe1 Tm2 3.205669 1_566
Fe2 Fe7 2.439586 1_545
Fe2 Fe6 2.462769 1_556
Fe2 Fe8 2.506871 1_555
Fe2 Tm0 2.912813 1_555
Fe2 Tm0 2.912814 1_655
Fe2 Tm1 3.012007 1_545
Fe2 Tm2 3.205667 1_556
Fe2 Tm2 3.205671 1_656
Fe3 Fe6 2.439586 1_655
Fe3 Fe7 2.462769 1_554
Fe3 Fe8 2.506871 1_555
Fe3 Fe4 2.528024 1_555
Fe3 Fe5 2.528024 1_555
Fe3 Fe4 2.532497 1_655
Fe3 Fe5 2.532498 1_645
Fe3 Tm1 2.912813 1_555
Fe3 Tm1 2.912814 1_545
Fe3 Tm0 3.012007 1_655
Fe3 Tm2 3.205667 1_665
Fe3 Tm2 3.205671 1_655
Fe4 Fe6 2.439588 1_555
Fe4 Fe7 2.462766 1_554
Fe4 Fe8 2.506868 1_555
Fe4 Fe5 2.528024 1_555
Fe4 Fe5 2.532497 1_545
Fe4 Tm1 2.912814 1_545
Fe4 Tm1 2.912814 1_455
Fe4 Tm0 3.012011 1_555
Fe4 Tm2 3.205669 1_565
Fe4 Tm2 3.205669 1_655
Fe5 Fe6 2.439586 1_565
Fe5 Fe7 2.462769 1_554
Fe5 Fe8 2.506871 1_555
Fe5 Tm1 2.912813 1_555
Fe5 Tm1 2.912814 1_455
Fe5 Tm0 3.012007 1_565
Fe5 Tm2 3.205667 1_665
Fe5 Tm2 3.205671 1_565
Fe6 Tm2 2.921734 1_555
Fe6 Tm2 2.921734 1_655
Fe6 Tm2 2.921734 1_565
Fe7 Tm2 2.921734 1_666
Fe7 Tm2 2.921734 1_656
Fe7 Tm2 2.921734 1_566
Fe8 Tm0 2.981693 1_565
Fe8 Tm0 2.981693 1_655
Fe8 Tm1 2.981693 1_455
Fe8 Tm1 2.981693 1_545
Fe8 Tm1 2.981697 1_555
Fe8 Tm0 2.981697 1_555
