# generated using pymatgen
data_Ca3Yb2(GeO4)3
_symmetry_space_group_name_H-M   'P 1'
_cell_length_a   11.16812331
_cell_length_b   11.16812331
_cell_length_c   11.16812331
_cell_angle_alpha   109.47122063
_cell_angle_beta   109.47122063
_cell_angle_gamma   109.47122063
_symmetry_Int_Tables_number   1
_chemical_formula_structural   Ca3Yb2(GeO4)3
_chemical_formula_sum   'Ca12 Yb8 Ge12 O48'
_cell_volume   1072.30593752
_cell_formula_units_Z   4
loop_
 _symmetry_equiv_pos_site_id
 _symmetry_equiv_pos_as_xyz
  1  'x, y, z'
loop_
 _atom_site_type_symbol
 _atom_site_label
 _atom_site_symmetry_multiplicity
 _atom_site_fract_x
 _atom_site_fract_y
 _atom_site_fract_z
 _atom_site_occupancy
  Ca  Ca0  1  0.25000000  0.37500000  0.12500000  1
  Ca  Ca1  1  0.75000000  0.62500000  0.87500000  1
  Ca  Ca2  1  0.75000000  0.12500000  0.37500000  1
  Ca  Ca3  1  0.12500000  0.25000000  0.37500000  1
  Ca  Ca4  1  0.37500000  0.75000000  0.12500000  1
  Ca  Ca5  1  0.25000000  0.87500000  0.62500000  1
  Ca  Ca6  1  0.87500000  0.75000000  0.62500000  1
  Ca  Ca7  1  0.62500000  0.25000000  0.87500000  1
  Ca  Ca8  1  0.37500000  0.12500000  0.25000000  1
  Ca  Ca9  1  0.62500000  0.87500000  0.75000000  1
  Ca  Ca10  1  0.12500000  0.37500000  0.75000000  1
  Ca  Ca11  1  0.87500000  0.62500000  0.25000000  1
  Yb  Yb0  1  0.00000000  0.00000000  0.00000000  1
  Yb  Yb1  1  0.50000000  0.00000000  0.50000000  1
  Yb  Yb2  1  0.00000000  0.50000000  0.50000000  1
  Yb  Yb3  1  0.50000000  0.00000000  0.00000000  1
  Yb  Yb4  1  0.50000000  0.50000000  0.00000000  1
  Yb  Yb5  1  0.50000000  0.50000000  0.50000000  1
  Yb  Yb6  1  0.00000000  0.00000000  0.50000000  1
  Yb  Yb7  1  0.00000000  0.50000000  0.00000000  1
  Ge  Ge0  1  0.25000000  0.62500000  0.37500000  1
  Ge  Ge1  1  0.75000000  0.37500000  0.62500000  1
  Ge  Ge2  1  0.75000000  0.87500000  0.12500000  1
  Ge  Ge3  1  0.37500000  0.25000000  0.62500000  1
  Ge  Ge4  1  0.62500000  0.75000000  0.37500000  1
  Ge  Ge5  1  0.25000000  0.12500000  0.87500000  1
  Ge  Ge6  1  0.12500000  0.75000000  0.87500000  1
  Ge  Ge7  1  0.87500000  0.25000000  0.12500000  1
  Ge  Ge8  1  0.62500000  0.37500000  0.25000000  1
  Ge  Ge9  1  0.37500000  0.62500000  0.75000000  1
  Ge  Ge10  1  0.87500000  0.12500000  0.75000000  1
  Ge  Ge11  1  0.12500000  0.87500000  0.25000000  1
  O  O0  1  0.47634400  0.37309000  0.27834200  1
  O  O1  1  0.52365600  0.62691000  0.72165800  1
  O  O2  1  0.59474700  0.19800200  0.22165800  1
  O  O3  1  0.90525300  0.12691000  0.60325500  1
  O  O4  1  0.27834200  0.47634400  0.37309000  1
  O  O5  1  0.30199800  0.90525200  0.27834200  1
  O  O6  1  0.40525300  0.80199800  0.77834200  1
  O  O7  1  0.09474700  0.87309000  0.39674500  1
  O  O8  1  0.72165800  0.52365600  0.62691000  1
  O  O9  1  0.69800200  0.09474700  0.72165800  1
  O  O10  1  0.02365600  0.30199800  0.89674500  1
  O  O11  1  0.22165800  0.59474700  0.19800200  1
  O  O12  1  0.12691000  0.02365600  0.22165800  1
  O  O13  1  0.97634400  0.69800200  0.10325500  1
  O  O14  1  0.77834200  0.40525300  0.80199800  1
  O  O15  1  0.87309000  0.97634400  0.77834200  1
  O  O16  1  0.60325500  0.90525300  0.12691000  1
  O  O17  1  0.19800200  0.47634400  0.60325500  1
  O  O18  1  0.39674500  0.09474700  0.87309000  1
  O  O19  1  0.80199800  0.52365600  0.39674500  1
  O  O20  1  0.89674500  0.02365600  0.30199800  1
  O  O21  1  0.37309000  0.59474700  0.89674500  1
  O  O22  1  0.10325500  0.97634400  0.69800200  1
  O  O23  1  0.62691000  0.40525200  0.10325500  1
  O  O24  1  0.37309000  0.27834200  0.47634400  1
  O  O25  1  0.59474700  0.89674500  0.37309000  1
  O  O26  1  0.62691000  0.72165800  0.52365600  1
  O  O27  1  0.40525200  0.10325500  0.62691000  1
  O  O28  1  0.12691000  0.60325500  0.90525300  1
  O  O29  1  0.02365600  0.22165800  0.12691000  1
  O  O30  1  0.87309000  0.39674500  0.09474700  1
  O  O31  1  0.97634400  0.77834200  0.87309000  1
  O  O32  1  0.30199800  0.89674500  0.02365600  1
  O  O33  1  0.90525300  0.27834200  0.30199800  1
  O  O34  1  0.69800200  0.10325500  0.97634400  1
  O  O35  1  0.09474700  0.72165800  0.69800200  1
  O  O36  1  0.19800200  0.22165800  0.59474700  1
  O  O37  1  0.47634400  0.60325500  0.19800200  1
  O  O38  1  0.80199800  0.77834200  0.40525300  1
  O  O39  1  0.52365600  0.39674500  0.80199800  1
  O  O40  1  0.27834200  0.30199800  0.90525300  1
  O  O41  1  0.72165800  0.69800200  0.09474700  1
  O  O42  1  0.22165800  0.12691000  0.02365600  1
  O  O43  1  0.77834200  0.87309000  0.97634400  1
  O  O44  1  0.89674500  0.37309000  0.59474700  1
  O  O45  1  0.10325500  0.62691000  0.40525300  1
  O  O46  1  0.60325500  0.19800200  0.47634400  1
  O  O47  1  0.39674500  0.80199800  0.52365600  1
loop_
_geom_bond_atom_site_label_1
_geom_bond_atom_site_label_2
_geom_bond_distance
_geom_bond_site_symmetry_2
Ca0 O11 2.478671 1_555
Ca0 O40 2.478671 1_554
Ca0 O4 2.478681 1_555
Ca0 O42 2.478681 1_555
Ca0 O0 2.549020 1_555
Ca0 O29 2.549020 1_555
Ca0 O10 2.549026 1_554
Ca0 O37 2.549026 1_555
Ca1 O41 2.478671 1_556
Ca1 O14 2.478671 1_555
Ca1 O43 2.478681 1_555
Ca1 O8 2.478681 1_555
Ca1 O1 2.549020 1_555
Ca1 O31 2.549020 1_555
Ca1 O39 2.549026 1_555
Ca1 O13 2.549026 1_556
Ca2 O46 2.478671 1_555
Ca2 O20 2.478671 1_555
Ca2 O44 2.478677 1_555
Ca2 O16 2.478677 1_545
Ca2 O33 2.549026 1_555
Ca2 O2 2.549026 1_555
Ca2 O25 2.549032 1_545
Ca2 O3 2.549032 1_555
Ca3 O33 2.478671 1_455
Ca3 O36 2.478671 1_555
Ca3 O24 2.478681 1_555
Ca3 O29 2.478681 1_555
Ca3 O12 2.549020 1_555
Ca3 O4 2.549020 1_555
Ca3 O20 2.549026 1_455
Ca3 O17 2.549026 1_555
Ca4 O37 2.478671 1_555
Ca4 O32 2.478671 1_555
Ca4 O25 2.478677 1_555
Ca4 O28 2.478677 1_554
Ca4 O5 2.549020 1_555
Ca4 O11 2.549026 1_555
Ca4 O21 2.549032 1_554
Ca4 O16 2.549032 1_555
Ca5 O47 2.478671 1_555
Ca5 O22 2.478671 1_555
Ca5 O18 2.478677 1_565
Ca5 O45 2.478677 1_555
Ca5 O6 2.549026 1_555
Ca5 O35 2.549026 1_555
Ca5 O27 2.549028 1_565
Ca5 O7 2.549032 1_555
Ca6 O35 2.478671 1_655
Ca6 O38 2.478671 1_555
Ca6 O26 2.478681 1_555
Ca6 O31 2.478681 1_555
Ca6 O15 2.549020 1_555
Ca6 O8 2.549020 1_555
Ca6 O19 2.549026 1_555
Ca6 O22 2.549026 1_655
Ca7 O39 2.478671 1_555
Ca7 O34 2.478671 1_555
Ca7 O30 2.478677 1_556
Ca7 O27 2.478681 1_555
Ca7 O14 2.549026 1_555
Ca7 O9 2.549026 1_555
Ca7 O23 2.549028 1_556
Ca7 O18 2.549032 1_555
Ca8 O2 2.478671 1_555
Ca8 O0 2.478681 1_555
Ca8 O12 2.478681 1_555
Ca8 O5 2.478681 1_545
Ca8 O24 2.549020 1_555
Ca8 O42 2.549020 1_555
Ca8 O46 2.549026 1_555
Ca8 O32 2.549026 1_545
Ca9 O9 2.478671 1_565
Ca9 O6 2.478671 1_555
Ca9 O15 2.478681 1_555
Ca9 O1 2.478681 1_555
Ca9 O26 2.549020 1_555
Ca9 O43 2.549020 1_555
Ca9 O47 2.549026 1_555
Ca9 O34 2.549026 1_565
Ca10 O10 2.478671 1_555
Ca10 O17 2.478671 1_555
Ca10 O21 2.478677 1_555
Ca10 O3 2.478677 1_455
Ca10 O40 2.549026 1_555
Ca10 O36 2.549026 1_555
Ca10 O28 2.549032 1_555
Ca10 O44 2.549032 1_455
Ca11 O19 2.478671 1_555
Ca11 O13 2.478671 1_555
Ca11 O7 2.478677 1_655
Ca11 O23 2.478681 1_555
Ca11 O38 2.549026 1_555
Ca11 O41 2.549026 1_555
Ca11 O30 2.549032 1_555
Ca11 O45 2.549032 1_655
Ge0 O45 1.785537 1_555
Ge0 O47 1.785540 1_555
Ge0 O11 1.785540 1_555
Ge0 O4 1.785543 1_555
Ge1 O44 1.785537 1_555
Ge1 O46 1.785540 1_555
Ge1 O14 1.785540 1_555
Ge1 O8 1.785543 1_555
Ge2 O16 1.785537 1_555
Ge2 O20 1.785540 1_565
Ge2 O41 1.785540 1_555
Ge2 O43 1.785543 1_554
Ge3 O27 1.785532 1_555
Ge3 O39 1.785540 1_555
Ge3 O36 1.785540 1_555
Ge3 O24 1.785543 1_555
Ge4 O25 1.785537 1_555
Ge4 O37 1.785540 1_555
Ge4 O38 1.785540 1_555
Ge4 O26 1.785543 1_555
Ge5 O18 1.785537 1_555
Ge5 O40 1.785540 1_555
Ge5 O22 1.785540 1_545
Ge5 O42 1.785543 1_556
Ge6 O28 1.785537 1_555
Ge6 O32 1.785540 1_556
Ge6 O35 1.785540 1_555
Ge6 O31 1.785543 1_455
Ge7 O30 1.785537 1_555
Ge7 O34 1.785540 1_554
Ge7 O33 1.785540 1_555
Ge7 O29 1.785543 1_655
Ge8 O23 1.785532 1_555
Ge8 O2 1.785540 1_555
Ge8 O19 1.785540 1_555
Ge8 O0 1.785543 1_555
Ge9 O21 1.785537 1_555
Ge9 O6 1.785540 1_555
Ge9 O17 1.785540 1_555
Ge9 O1 1.785543 1_555
Ge10 O3 1.785537 1_555
Ge10 O10 1.785540 1_655
Ge10 O9 1.785540 1_555
Ge10 O15 1.785543 1_545
Ge11 O7 1.785537 1_555
Ge11 O13 1.785540 1_455
Ge11 O12 1.785543 1_565
Ge11 O5 1.785543 1_555
O0 Yb5 2.276411 1_555
O1 Yb5 2.276411 1_555
O2 Yb3 2.276414 1_555
O3 Yb6 2.276407 1_655
O4 Yb5 2.276411 1_555
O5 Yb1 2.276411 1_565
O6 Yb3 2.276414 1_566
O7 Yb6 2.276407 1_565
O8 Yb5 2.276411 1_555
O9 Yb1 2.276414 1_555
O10 Yb7 2.276414 1_556
O11 Yb7 2.276414 1_555
O12 Yb0 2.276411 1_555
O13 Yb7 2.276414 1_655
O14 Yb7 2.276414 1_656
O15 Yb0 2.276411 1_666
O16 Yb3 2.276407 1_565
O17 Yb2 2.276414 1_555
O18 Yb3 2.276407 1_556
O19 Yb2 2.276414 1_655
O20 Yb6 2.276414 1_655
O21 Yb4 2.276407 1_556
O22 Yb6 2.276414 1_565
O23 Yb4 2.276416 1_555
O24 Yb5 2.276411 1_555
O25 Yb1 2.276407 1_565
O26 Yb5 2.276411 1_555
O27 Yb1 2.276416 1_555
O28 Yb7 2.276407 1_556
O29 Yb0 2.276411 1_555
O30 Yb7 2.276407 1_655
O31 Yb0 2.276411 1_666
O32 Yb3 2.276414 1_565
O33 Yb2 2.276414 1_655
O34 Yb3 2.276414 1_556
O35 Yb2 2.276414 1_555
O36 Yb6 2.276414 1_555
O37 Yb4 2.276414 1_555
O38 Yb6 2.276414 1_665
O39 Yb4 2.276414 1_556
O40 Yb4 2.276414 1_556
O41 Yb4 2.276414 1_555
O42 Yb0 2.276411 1_555
O43 Yb0 2.276411 1_666
O44 Yb2 2.276407 1_655
O45 Yb2 2.276407 1_555
O46 Yb1 2.276414 1_555
O47 Yb1 2.276414 1_565
