# generated using pymatgen
data_Ba2Na(FeAs)6
_symmetry_space_group_name_H-M   'P 1'
_cell_length_a   8.80283647
_cell_length_b   8.80283647
_cell_length_c   6.99761027
_cell_angle_alpha   67.79618364
_cell_angle_beta   67.79618364
_cell_angle_gamma   36.42256687
_symmetry_Int_Tables_number   1
_chemical_formula_structural   Ba2Na(FeAs)6
_chemical_formula_sum   'Ba2 Na1 Fe6 As6'
_cell_volume   295.37595060
_cell_formula_units_Z   1
loop_
 _symmetry_equiv_pos_site_id
 _symmetry_equiv_pos_as_xyz
  1  'x, y, z'
loop_
 _atom_site_type_symbol
 _atom_site_label
 _atom_site_symmetry_multiplicity
 _atom_site_fract_x
 _atom_site_fract_y
 _atom_site_fract_z
 _atom_site_occupancy
  Ba  Ba0  1  0.66199900  0.66199900  0.99967200  1
  Ba  Ba1  1  0.33800100  0.33800100  0.00032800  1
  Na  Na0  1  0.00000000  0.00000000  0.00000000  1
  Fe  Fe0  1  0.74873600  0.25126400  0.50000000  1
  Fe  Fe1  1  0.08336100  0.58325700  0.50099400  1
  Fe  Fe2  1  0.41674300  0.91663900  0.49900600  1
  Fe  Fe3  1  0.58325700  0.08336100  0.50099400  1
  Fe  Fe4  1  0.91663900  0.41674300  0.49900600  1
  Fe  Fe5  1  0.25126400  0.74873600  0.50000000  1
  As  As0  1  0.88341900  0.88341900  0.69876100  1
  As  As1  1  0.21687400  0.21687400  0.69556500  1
  As  As2  1  0.55093600  0.55093600  0.69891300  1
  As  As3  1  0.44906400  0.44906400  0.30108700  1
  As  As4  1  0.78312600  0.78312600  0.30443500  1
  As  As5  1  0.11658100  0.11658100  0.30123900  1
loop_
_geom_bond_atom_site_label_1
_geom_bond_atom_site_label_2
_geom_bond_distance
_geom_bond_site_symmetry_2
As0 Fe1 2.330906 1_655
As0 Fe3 2.330906 1_565
As0 Fe0 2.342949 1_565
As0 Fe5 2.342949 1_655
As0 Ba1 3.364995 1_566
As0 Ba1 3.364995 1_656
As0 Na0 3.393337 1_666
As0 Ba0 3.455716 1_555
As1 Fe4 2.325413 1_455
As1 Fe2 2.325413 1_545
As1 Fe1 2.329668 1_555
As1 Fe3 2.329668 1_555
As1 Ba0 3.374206 1_545
As1 Ba0 3.374206 1_455
As1 Na0 3.397848 1_556
As1 Ba1 3.476896 1_556
As2 Fe2 2.332611 1_555
As2 Fe4 2.332611 1_555
As2 Fe0 2.340834 1_555
As2 Fe5 2.340834 1_555
As2 Ba0 3.315045 1_555
As2 Ba1 3.339731 1_556
As2 Na0 3.362300 1_656
As2 Na0 3.362300 1_566
As3 Fe1 2.332611 1_555
As3 Fe3 2.332611 1_555
As3 Fe0 2.340834 1_555
As3 Fe5 2.340834 1_555
As3 Ba1 3.315045 1_555
As3 Ba0 3.339731 1_554
As3 Na0 3.362300 1_655
As3 Na0 3.362300 1_565
As4 Fe3 2.325413 1_565
As4 Fe1 2.325413 1_655
As4 Fe4 2.329668 1_555
As4 Fe2 2.329668 1_555
As4 Ba1 3.374206 1_655
As4 Ba1 3.374206 1_565
As4 Na0 3.397848 1_665
As4 Ba0 3.476896 1_554
As5 Fe4 2.330906 1_455
As5 Fe2 2.330906 1_545
As5 Fe5 2.342949 1_545
As5 Fe0 2.342949 1_455
As5 Ba0 3.364995 1_544
As5 Ba0 3.364995 1_454
As5 Na0 3.393337 1_555
As5 Ba1 3.455716 1_555
