# generated using pymatgen
data_Li2FeSiO5
_symmetry_space_group_name_H-M   'P 1'
_cell_length_a   6.45872701
_cell_length_b   6.45718600
_cell_length_c   8.87906701
_cell_angle_alpha   90.00047833
_cell_angle_beta   89.99474380
_cell_angle_gamma   90.00003550
_symmetry_Int_Tables_number   1
_chemical_formula_structural   Li2FeSiO5
_chemical_formula_sum   'Li8 Fe4 Si4 O20'
_cell_volume   370.30327813
_cell_formula_units_Z   4
loop_
 _symmetry_equiv_pos_site_id
 _symmetry_equiv_pos_as_xyz
  1  'x, y, z'
loop_
 _atom_site_type_symbol
 _atom_site_label
 _atom_site_symmetry_multiplicity
 _atom_site_fract_x
 _atom_site_fract_y
 _atom_site_fract_z
 _atom_site_occupancy
  Li  Li0  1  0.00093300  0.00092900  0.00069100  1
  Li  Li1  1  0.00081400  0.00082300  0.50032500  1
  Li  Li2  1  0.00097300  0.49904900  0.00072500  1
  Li  Li3  1  0.00084400  0.49917200  0.50032300  1
  Li  Li4  1  0.49906000  0.49905200  0.00067600  1
  Li  Li5  1  0.49917700  0.49918100  0.50032600  1
  Li  Li6  1  0.49898900  0.00103700  0.00072300  1
  Li  Li7  1  0.49920500  0.00081500  0.50033200  1
  Fe  Fe0  1  0.25010700  0.24997900  0.82791100  1
  Fe  Fe1  1  0.74998100  0.75001000  0.71722700  1
  Fe  Fe2  1  0.25008500  0.24995100  0.28198300  1
  Fe  Fe3  1  0.74989700  0.75002100  0.17177100  1
  Si  Si0  1  0.24995900  0.74997800  0.25442000  1
  Si  Si1  1  0.24998400  0.75000900  0.74555200  1
  Si  Si2  1  0.75003700  0.24999300  0.25446600  1
  Si  Si3  1  0.75000200  0.25000100  0.74559400  1
  O  O0  1  0.25003800  0.24998600  0.07336900  1
  O  O1  1  0.25000600  0.25002700  0.63333900  1
  O  O2  1  0.74996100  0.75000500  0.36623800  1
  O  O3  1  0.74998900  0.74998600  0.92582900  1
  O  O4  1  0.05082300  0.74999100  0.13841700  1
  O  O5  1  0.04304500  0.75001700  0.63899100  1
  O  O6  1  0.25004100  0.54275900  0.36070700  1
  O  O7  1  0.24998500  0.55077100  0.86148700  1
  O  O8  1  0.25000800  0.95719700  0.36073700  1
  O  O9  1  0.25001200  0.94926900  0.86147900  1
  O  O10  1  0.44910400  0.75002200  0.13839100  1
  O  O11  1  0.45696900  0.74998500  0.63897100  1
  O  O12  1  0.54283800  0.25000600  0.36071600  1
  O  O13  1  0.55075600  0.24999900  0.86146700  1
  O  O14  1  0.74996500  0.05082100  0.13838400  1
  O  O15  1  0.75002700  0.04299800  0.63895600  1
  O  O16  1  0.74999600  0.44916800  0.13839100  1
  O  O17  1  0.74999500  0.45699300  0.63894700  1
  O  O18  1  0.95720600  0.24997400  0.36067600  1
  O  O19  1  0.94918900  0.25002700  0.86146200  1
loop_
_geom_bond_atom_site_label_1
_geom_bond_atom_site_label_2
_geom_bond_distance
_geom_bond_site_symmetry_2
Li0 O4 2.055459 1_545
Li0 O14 2.055617 1_455
Li0 O9 2.055919 1_544
Li0 O19 2.056023 1_454
Li0 O0 2.364634 1_555
Li0 O3 2.386332 1_444
Li1 O18 2.050657 1_455
Li1 O8 2.050741 1_545
Li1 O15 2.052457 1_455
Li1 O5 2.052606 1_545
Li1 O1 2.564162 1_555
Li1 O2 2.581825 1_445
Li2 O4 2.055243 1_555
Li2 O16 2.055512 1_455
Li2 O7 2.055787 1_554
Li2 O19 2.055846 1_454
Li2 O0 2.364411 1_555
Li2 O3 2.386575 1_454
Li3 O6 2.050874 1_555
Li3 O18 2.050894 1_455
Li3 O17 2.052742 1_455
Li3 O5 2.052773 1_555
Li3 O1 2.563823 1_555
Li3 O2 2.582013 1_455
Li4 O10 2.055579 1_555
Li4 O13 2.055586 1_554
Li4 O16 2.055742 1_555
Li4 O7 2.056018 1_554
Li4 O0 2.364272 1_555
Li4 O3 2.386115 1_554
Li5 O12 2.050568 1_555
Li5 O6 2.050752 1_555
Li5 O11 2.052418 1_555
Li5 O17 2.052754 1_555
Li5 O1 2.563746 1_555
Li5 O2 2.581450 1_555
Li6 O13 2.055467 1_554
Li6 O10 2.055504 1_545
Li6 O14 2.055556 1_555
Li6 O9 2.055865 1_544
Li6 O0 2.363326 1_555
Li6 O3 2.387049 1_544
Li7 O12 2.050673 1_555
Li7 O8 2.050965 1_545
Li7 O11 2.052558 1_545
Li7 O15 2.052783 1_555
Li7 O1 2.564059 1_555
Li7 O2 2.581293 1_545
Fe0 O1 1.727618 1_555
Fe0 O9 1.964485 1_545
Fe0 O13 1.964562 1_555
Fe0 O7 1.965014 1_555
Fe0 O19 1.966218 1_455
Fe0 O0 2.179438 1_556
Fe1 O3 1.852191 1_555
Fe1 O15 2.015493 1_565
Fe1 O17 2.015686 1_555
Fe1 O11 2.016071 1_555
Fe1 O5 2.016205 1_655
Fe2 O0 1.852298 1_555
Fe2 O8 2.015559 1_545
Fe2 O6 2.015782 1_555
Fe2 O12 2.015966 1_555
Fe2 O18 2.016486 1_455
Fe3 O2 1.726686 1_555
Fe3 O14 1.964816 1_565
Fe3 O16 1.965140 1_555
Fe3 O10 1.965245 1_555
Fe3 O4 1.966005 1_655
Fe3 O3 2.183736 1_554
O4 Si0 1.647835 1_555
O5 Si1 1.637637 1_555
O6 Si0 1.637385 1_555
O7 Si1 1.647665 1_555
O8 Si0 1.637525 1_555
O9 Si1 1.647718 1_555
O10 Si0 1.647877 1_555
O11 Si1 1.637840 1_555
O12 Si2 1.637274 1_555
O13 Si3 1.647521 1_555
O14 Si2 1.648135 1_555
O15 Si3 1.638032 1_555
O16 Si2 1.648125 1_555
O17 Si3 1.638033 1_555
O18 Si2 1.637052 1_555
O19 Si3 1.647343 1_555
