# generated using pymatgen
data_Fe2(WO4)3
_symmetry_space_group_name_H-M   'P 1'
_cell_length_a   9.46047634
_cell_length_b   16.17207456
_cell_length_c   16.12207602
_cell_angle_alpha   109.33525185
_cell_angle_beta   90.00000000
_cell_angle_gamma   90.00000000
_symmetry_Int_Tables_number   1
_chemical_formula_structural   Fe2(WO4)3
_chemical_formula_sum   'Fe16 W24 O96'
_cell_volume   2327.48262994
_cell_formula_units_Z   8
loop_
 _symmetry_equiv_pos_site_id
 _symmetry_equiv_pos_as_xyz
  1  'x, y, z'
loop_
 _atom_site_type_symbol
 _atom_site_label
 _atom_site_symmetry_multiplicity
 _atom_site_fract_x
 _atom_site_fract_y
 _atom_site_fract_z
 _atom_site_occupancy
  Fe  Fe0  1  0.97399651  0.31468952  0.93304835  1
  Fe  Fe1  1  0.02600349  0.68531048  0.06695165  1
  Fe  Fe2  1  0.47399651  0.68531048  0.56695165  1
  Fe  Fe3  1  0.52600349  0.31468952  0.43304835  1
  Fe  Fe4  1  0.98281918  0.91672126  0.81057308  1
  Fe  Fe5  1  0.01718082  0.08327874  0.18942692  1
  Fe  Fe6  1  0.48281918  0.08327874  0.68942692  1
  Fe  Fe7  1  0.51718082  0.91672126  0.31057308  1
  Fe  Fe8  1  0.53421396  0.81920978  0.93788368  1
  Fe  Fe9  1  0.46578604  0.18079022  0.06211632  1
  Fe  Fe10  1  0.03421396  0.18079022  0.56211632  1
  Fe  Fe11  1  0.96578604  0.81920978  0.43788368  1
  Fe  Fe12  1  0.53956301  0.45359458  0.82474775  1
  Fe  Fe13  1  0.46043699  0.54640542  0.17525225  1
  Fe  Fe14  1  0.03956301  0.54640542  0.67525225  1
  Fe  Fe15  1  0.96043699  0.45359458  0.32474775  1
  W  W0  1  0.61157617  0.25028220  0.88997272  1
  W  W1  1  0.38842383  0.74971780  0.11002728  1
  W  W2  1  0.11157617  0.74971780  0.61002728  1
  W  W3  1  0.88842383  0.25028220  0.38997272  1
  W  W4  1  0.24686894  0.98769758  0.99436232  1
  W  W5  1  0.75313106  0.01230242  0.00563768  1
  W  W6  1  0.74686894  0.01230242  0.50563768  1
  W  W7  1  0.25313106  0.98769758  0.49436232  1
  W  W8  1  0.87325630  0.36302959  0.72392657  1
  W  W9  1  0.12674370  0.63697041  0.27607343  1
  W  W10  1  0.37325630  0.63697041  0.77607343  1
  W  W11  1  0.62674370  0.36302959  0.22392657  1
  W  W12  1  0.74486539  0.51912582  0.51676445  1
  W  W13  1  0.25513461  0.48087418  0.48323555  1
  W  W14  1  0.24486539  0.48087418  0.98323555  1
  W  W15  1  0.75513461  0.51912582  0.01676445  1
  W  W16  1  0.87025942  0.71319089  0.86197231  1
  W  W17  1  0.12974058  0.28680911  0.13802769  1
  W  W18  1  0.37025942  0.28680911  0.63802769  1
  W  W19  1  0.62974058  0.71319089  0.36197231  1
  W  W20  1  0.61595147  0.88512880  0.73432003  1
  W  W21  1  0.38404853  0.11487120  0.26567997  1
  W  W22  1  0.11595147  0.11487120  0.76567997  1
  W  W23  1  0.88404853  0.88512880  0.23432003  1
  O  O0  1  0.38989311  0.91244304  0.99284066  1
  O  O1  1  0.61010689  0.08755696  0.00715934  1
  O  O2  1  0.88989311  0.08755696  0.50715934  1
  O  O3  1  0.11010689  0.91244304  0.49284066  1
  O  O4  1  0.60356877  0.16554775  0.78332544  1
  O  O5  1  0.39643123  0.83445225  0.21667456  1
  O  O6  1  0.10356877  0.83445225  0.71667456  1
  O  O7  1  0.89643123  0.16554775  0.28332544  1
  O  O8  1  0.86234592  0.99870973  0.90944049  1
  O  O9  1  0.13765408  0.00129027  0.09055951  1
  O  O10  1  0.36234592  0.00129027  0.59055951  1
  O  O11  1  0.63765408  0.99870973  0.40944049  1
  O  O12  1  0.88768756  0.50105815  0.58379930  1
  O  O13  1  0.11231244  0.49894185  0.41620070  1
  O  O14  1  0.38768756  0.49894185  0.91620070  1
  O  O15  1  0.61231244  0.50105815  0.08379930  1
  O  O16  1  0.81437622  0.90560677  0.50036133  1
  O  O17  1  0.18562378  0.09439323  0.49963867  1
  O  O18  1  0.31437622  0.09439323  0.99963867  1
  O  O19  1  0.68562378  0.90560677  0.00036133  1
  O  O20  1  0.78802735  0.25308555  0.93512409  1
  O  O21  1  0.21197265  0.74691445  0.06487591  1
  O  O22  1  0.28802735  0.74691445  0.56487591  1
  O  O23  1  0.71197265  0.25308555  0.43512409  1
  O  O24  1  0.55610957  0.86379928  0.83210619  1
  O  O25  1  0.44389043  0.13620072  0.16789381  1
  O  O26  1  0.05610957  0.13620072  0.66789381  1
  O  O27  1  0.94389043  0.86379928  0.33210619  1
  O  O28  1  0.65589861  0.62138189  0.57400648  1
  O  O29  1  0.34410139  0.37861811  0.42599352  1
  O  O30  1  0.15589861  0.37861811  0.92599352  1
  O  O31  1  0.84410139  0.62138189  0.07400648  1
  O  O32  1  0.68159676  0.72747433  0.88160970  1
  O  O33  1  0.31840324  0.27252567  0.11839030  1
  O  O34  1  0.18159676  0.27252567  0.61839030  1
  O  O35  1  0.81840324  0.72747433  0.38160970  1
  O  O36  1  0.89896378  0.62350106  0.75996966  1
  O  O37  1  0.10103622  0.37649894  0.24003034  1
  O  O38  1  0.39896378  0.37649894  0.74003034  1
  O  O39  1  0.60103622  0.62350106  0.25996966  1
  O  O40  1  0.69283318  0.40358281  0.73415748  1
  O  O41  1  0.30716682  0.59641719  0.26584252  1
  O  O42  1  0.19283318  0.59641719  0.76584252  1
  O  O43  1  0.80716682  0.40358281  0.23415748  1
  O  O44  1  0.38450116  0.73302931  0.87411911  1
  O  O45  1  0.61549884  0.26697069  0.12588089  1
  O  O46  1  0.88450116  0.26697069  0.62588089  1
  O  O47  1  0.11549884  0.73302931  0.37411911  1
  O  O48  1  0.53847111  0.98756942  0.73445795  1
  O  O49  1  0.46152889  0.01243058  0.26554205  1
  O  O50  1  0.03847111  0.01243058  0.76554205  1
  O  O51  1  0.96152889  0.98756942  0.23445795  1
  O  O52  1  0.91126810  0.32898017  0.81751806  1
  O  O53  1  0.08873190  0.67101983  0.18248194  1
  O  O54  1  0.41126810  0.67101983  0.68248194  1
  O  O55  1  0.58873190  0.32898017  0.31751806  1
  O  O56  1  0.80765025  0.89163136  0.73541674  1
  O  O57  1  0.19234975  0.10836864  0.26458326  1
  O  O58  1  0.30765025  0.10836864  0.76458326  1
  O  O59  1  0.69234975  0.89163136  0.23541674  1
  O  O60  1  0.57239569  0.35560706  0.87805552  1
  O  O61  1  0.42760431  0.64439294  0.12194448  1
  O  O62  1  0.07239569  0.64439294  0.62194448  1
  O  O63  1  0.92760431  0.35560706  0.37805552  1
  O  O64  1  0.93571253  0.81388432  0.85087283  1
  O  O65  1  0.06428747  0.18611568  0.14912717  1
  O  O66  1  0.43571253  0.18611568  0.64912717  1
  O  O67  1  0.56428747  0.81388432  0.35087283  1
  O  O68  1  0.98189092  0.77370028  0.53841133  1
  O  O69  1  0.01810908  0.22629972  0.46158867  1
  O  O70  1  0.48189092  0.22629972  0.96158867  1
  O  O71  1  0.51810908  0.77370028  0.03841133  1
  O  O72  1  0.88096412  0.43031844  0.99653771  1
  O  O73  1  0.11903588  0.56968156  0.00346229  1
  O  O74  1  0.38096412  0.56968156  0.50346229  1
  O  O75  1  0.61903588  0.43031844  0.49653771  1
  O  O76  1  0.14469580  0.94528368  0.89455845  1
  O  O77  1  0.85530420  0.05471632  0.10544155  1
  O  O78  1  0.64469580  0.05471632  0.60544155  1
  O  O79  1  0.35530420  0.94528368  0.39455845  1
  O  O80  1  0.96065065  0.69472349  0.95337455  1
  O  O81  1  0.03934935  0.30527651  0.04662545  1
  O  O82  1  0.46065065  0.30527651  0.54662545  1
  O  O83  1  0.53934935  0.69472349  0.45337455  1
  O  O84  1  0.56289746  0.79868646  0.63531873  1
  O  O85  1  0.43710254  0.20131354  0.36468127  1
  O  O86  1  0.06289746  0.20131354  0.86468127  1
  O  O87  1  0.93710254  0.79868646  0.13531873  1
  O  O88  1  0.68869042  0.52292338  0.91206454  1
  O  O89  1  0.31130958  0.47707662  0.08793546  1
  O  O90  1  0.18869042  0.47707662  0.58793546  1
  O  O91  1  0.81130958  0.52292338  0.41206454  1
  O  O92  1  0.99742430  0.44735913  0.71974183  1
  O  O93  1  0.00257570  0.55264087  0.28025817  1
  O  O94  1  0.49742430  0.55264087  0.78025817  1
  O  O95  1  0.50257570  0.44735913  0.21974183  1
loop_
_geom_bond_atom_site_label_1
_geom_bond_atom_site_label_2
_geom_bond_distance
_geom_bond_site_symmetry_2
Fe0 O81 1.985682 1_656
Fe0 O86 1.986406 1_655
Fe0 O72 2.012866 1_555
Fe0 O20 2.027579 1_555
Fe0 O30 2.030048 1_655
Fe0 O52 2.039575 1_555
Fe1 O80 1.985682 1_454
Fe1 O87 1.986406 1_455
Fe1 O73 2.012866 1_555
Fe1 O21 2.027579 1_555
Fe1 O31 2.030048 1_455
Fe1 O53 2.039575 1_555
Fe2 O83 1.985682 1_555
Fe2 O84 1.986406 1_555
Fe2 O74 2.012866 1_555
Fe2 O22 2.027579 1_555
Fe2 O28 2.030048 1_555
Fe2 O54 2.039575 1_555
Fe3 O82 1.985682 1_555
Fe3 O85 1.986406 1_555
Fe3 O75 2.012866 1_555
Fe3 O23 2.027579 1_555
Fe3 O29 2.030048 1_555
Fe3 O55 2.039575 1_555
Fe4 O50 1.985979 1_665
Fe4 O76 1.994454 1_655
Fe4 O6 2.008252 1_655
Fe4 O56 2.013327 1_555
Fe4 O64 2.025367 1_555
Fe4 O8 2.048958 1_555
Fe5 O51 1.985979 1_445
Fe5 O77 1.994454 1_455
Fe5 O7 2.008252 1_455
Fe5 O57 2.013327 1_555
Fe5 O65 2.025367 1_555
Fe5 O9 2.048958 1_555
Fe6 O48 1.985979 1_545
Fe6 O78 1.994454 1_555
Fe6 O4 2.008252 1_555
Fe6 O58 2.013327 1_555
Fe6 O66 2.025367 1_555
Fe6 O10 2.048958 1_555
Fe7 O49 1.985979 1_565
Fe7 O79 1.994454 1_555
Fe7 O5 2.008252 1_555
Fe7 O59 2.013327 1_555
Fe7 O67 2.025367 1_555
Fe7 O11 2.048958 1_555
Fe8 O71 1.995363 1_556
Fe8 O0 2.009465 1_555
Fe8 O44 2.014091 1_555
Fe8 O32 2.019124 1_555
Fe8 O19 2.021548 1_556
Fe8 O24 2.070132 1_555
Fe9 O70 1.995363 1_554
Fe9 O1 2.009465 1_555
Fe9 O45 2.014091 1_555
Fe9 O33 2.019124 1_555
Fe9 O18 2.021548 1_554
Fe9 O25 2.070132 1_555
Fe10 O69 1.995363 1_555
Fe10 O2 2.009465 1_455
Fe10 O46 2.014091 1_455
Fe10 O34 2.019124 1_555
Fe10 O17 2.021548 1_555
Fe10 O26 2.070132 1_555
Fe11 O68 1.995363 1_555
Fe11 O3 2.009465 1_655
Fe11 O47 2.014091 1_655
Fe11 O35 2.019124 1_555
Fe11 O16 2.021548 1_555
Fe11 O27 2.070132 1_555
Fe12 O94 1.999974 1_555
Fe12 O14 2.014977 1_555
Fe12 O38 2.015337 1_555
Fe12 O40 2.026705 1_555
Fe12 O88 2.045486 1_555
Fe12 O60 2.061091 1_555
Fe13 O95 1.999974 1_555
Fe13 O15 2.014977 1_555
Fe13 O39 2.015337 1_555
Fe13 O41 2.026705 1_555
Fe13 O89 2.045486 1_555
Fe13 O61 2.061091 1_555
Fe14 O92 1.999974 1_455
Fe14 O12 2.014977 1_455
Fe14 O36 2.015337 1_455
Fe14 O42 2.026705 1_555
Fe14 O90 2.045486 1_555
Fe14 O62 2.061091 1_555
Fe15 O93 1.999974 1_655
Fe15 O13 2.014977 1_655
Fe15 O37 2.015337 1_655
Fe15 O43 2.026705 1_555
Fe15 O91 2.045486 1_555
Fe15 O63 2.061091 1_555
O0 W4 1.814605 1_555
O1 W5 1.814605 1_555
O2 W6 1.814605 1_555
O3 W7 1.814605 1_555
O4 W0 1.810968 1_555
O5 W1 1.810968 1_555
O6 W2 1.810968 1_555
O7 W3 1.810968 1_555
O8 W5 1.815325 1_566
O9 W4 1.815325 1_544
O10 W7 1.815325 1_545
O11 W6 1.815325 1_565
O12 W12 1.813321 1_555
O13 W13 1.813321 1_555
O14 W14 1.813321 1_555
O15 W15 1.813321 1_555
O16 W6 1.815277 1_565
O17 W7 1.815277 1_545
O18 W4 1.815277 1_545
O19 W5 1.815277 1_565
O20 W0 1.815680 1_555
O21 W1 1.815680 1_555
O22 W2 1.815680 1_555
O23 W3 1.815680 1_555
O24 W20 1.812456 1_555
O25 W21 1.812456 1_555
O26 W22 1.812456 1_555
O27 W23 1.812456 1_555
O28 W12 1.812233 1_555
O29 W13 1.812233 1_555
O30 W14 1.812233 1_555
O31 W15 1.812233 1_555
O32 W16 1.814060 1_555
O33 W17 1.814060 1_555
O34 W18 1.814060 1_555
O35 W19 1.814060 1_555
O36 W16 1.817266 1_555
O37 W17 1.817266 1_555
O38 W18 1.817266 1_555
O39 W19 1.817266 1_555
O40 W8 1.816358 1_555
O41 W9 1.816358 1_555
O42 W10 1.816358 1_555
O43 W11 1.816358 1_555
O44 W10 1.815805 1_555
O45 W11 1.815805 1_555
O46 W8 1.815805 1_555
O47 W9 1.815805 1_555
O48 W20 1.810921 1_555
O49 W21 1.810921 1_555
O50 W22 1.810921 1_555
O51 W23 1.810921 1_555
O52 W8 1.805401 1_555
O53 W9 1.805401 1_555
O54 W10 1.805401 1_555
O55 W11 1.805401 1_555
O56 W20 1.816355 1_555
O57 W21 1.816355 1_555
O58 W22 1.816355 1_555
O59 W23 1.816355 1_555
O60 W0 1.814475 1_555
O61 W1 1.814475 1_555
O62 W2 1.814475 1_555
O63 W3 1.814475 1_555
O64 W16 1.805595 1_555
O65 W17 1.805595 1_555
O66 W18 1.805595 1_555
O67 W19 1.805595 1_555
O68 W2 1.812539 1_655
O69 W3 1.812539 1_455
O70 W0 1.812539 1_555
O71 W1 1.812539 1_555
O72 W15 1.809958 1_556
O73 W14 1.809958 1_554
O74 W13 1.809958 1_555
O75 W12 1.809958 1_555
O76 W4 1.806377 1_555
O77 W5 1.806377 1_555
O78 W6 1.806377 1_555
O79 W7 1.806377 1_555
O80 W16 1.812008 1_555
O81 W17 1.812008 1_555
O82 W18 1.812008 1_555
O83 W19 1.812008 1_555
O84 W20 1.810031 1_555
O85 W21 1.810031 1_555
O86 W22 1.810031 1_555
O87 W23 1.810031 1_555
O88 W15 1.821215 1_556
O89 W14 1.821215 1_554
O90 W13 1.821215 1_555
O91 W12 1.821215 1_555
O92 W8 1.818042 1_555
O93 W9 1.818042 1_555
O94 W10 1.818042 1_555
O95 W11 1.818042 1_555
