# generated using pymatgen
data_EuGa3Ag
_symmetry_space_group_name_H-M   'P 1'
_cell_length_a   6.24558955
_cell_length_b   6.24558955
_cell_length_c   6.24558955
_cell_angle_alpha   139.53235318
_cell_angle_beta   139.53235318
_cell_angle_gamma   58.56404667
_symmetry_Int_Tables_number   1
_chemical_formula_structural   EuGa3Ag
_chemical_formula_sum   'Eu1 Ga3 Ag1'
_cell_volume   101.66903806
_cell_formula_units_Z   1
loop_
 _symmetry_equiv_pos_site_id
 _symmetry_equiv_pos_as_xyz
  1  'x, y, z'
loop_
 _atom_site_type_symbol
 _atom_site_label
 _atom_site_symmetry_multiplicity
 _atom_site_fract_x
 _atom_site_fract_y
 _atom_site_fract_z
 _atom_site_occupancy
  Eu  Eu0  1  0.00000000  0.00000000  0.00000000  1
  Ga  Ga0  1  0.61412299  0.61412299  -0.00000000  1
  Ga  Ga1  1  0.38587701  0.38587701  0.00000000  1
  Ga  Ga2  1  0.75000000  0.25000000  0.50000000  1
  Ag  Ag0  1  0.25000000  0.75000000  0.50000000  1
loop_
_geom_bond_atom_site_label_1
_geom_bond_atom_site_label_2
_geom_bond_distance
_geom_bond_site_symmetry_2
Eu0 Ga1 3.298126 1_455
Eu0 Ga1 3.298126 1_556
Eu0 Ga1 3.298126 1_545
Eu0 Ga1 3.298126 1_444
Eu0 Ga0 3.298126 1_455
Eu0 Ga0 3.298126 1_545
Eu0 Ga0 3.298126 1_556
Eu0 Ga0 3.298126 1_444
Eu0 Ga2 3.476314 1_555
Eu0 Ga2 3.476314 1_455
Eu0 Ga2 3.476314 1_444
Eu0 Ga2 3.476314 1_454
Ga0 Ga1 2.486761 1_555
Ga0 Ga2 2.618660 1_565
Ga0 Ga2 2.618660 1_554
Ga1 Ga2 2.618660 1_454
Ga1 Ga2 2.618660 1_555
Ag0 Ga1 2.618660 1_566
Ag0 Ga0 2.618660 1_455
Ag0 Ga0 2.618660 1_556
Ag0 Ga1 2.618660 1_555
Ag0 Eu0 3.476314 1_666
Ag0 Eu0 3.476314 1_566
Ag0 Eu0 3.476314 1_565
Ag0 Eu0 3.476314 1_555
