# generated using pymatgen
data_Al8V5
_symmetry_space_group_name_H-M   'P 1'
_cell_length_a   7.96655383
_cell_length_b   7.96655383
_cell_length_c   7.96655383
_cell_angle_alpha   109.47122063
_cell_angle_beta   109.47122063
_cell_angle_gamma   109.47122063
_symmetry_Int_Tables_number   1
_chemical_formula_structural   Al8V5
_chemical_formula_sum   'Al16 V10'
_cell_volume   389.21502288
_cell_formula_units_Z   2
loop_
 _symmetry_equiv_pos_site_id
 _symmetry_equiv_pos_as_xyz
  1  'x, y, z'
loop_
 _atom_site_type_symbol
 _atom_site_label
 _atom_site_symmetry_multiplicity
 _atom_site_fract_x
 _atom_site_fract_y
 _atom_site_fract_z
 _atom_site_occupancy
  Al  Al0  1  0.77733500  0.77733500  0.77733500  1
  Al  Al1  1  0.22266500  0.00000000  0.00000000  1
  Al  Al2  1  0.00000000  0.22266500  0.00000000  1
  Al  Al3  1  0.00000000  0.00000000  0.22266500  1
  Al  Al4  1  0.36267100  0.65694600  0.65694600  1
  Al  Al5  1  0.63732900  0.29427500  0.29427500  1
  Al  Al6  1  0.00000000  0.34305400  0.70572500  1
  Al  Al7  1  0.65694600  0.65694600  0.36267100  1
  Al  Al8  1  0.00000000  0.70572500  0.34305400  1
  Al  Al9  1  0.29427500  0.29427500  0.63732900  1
  Al  Al10  1  0.34305400  0.70572500  0.00000000  1
  Al  Al11  1  0.70572500  0.34305400  0.00000000  1
  Al  Al12  1  0.65694600  0.36267100  0.65694600  1
  Al  Al13  1  0.70572500  0.00000000  0.34305400  1
  Al  Al14  1  0.34305400  0.00000000  0.70572500  1
  Al  Al15  1  0.29427500  0.63732900  0.29427500  1
  V  V0  1  0.65358600  0.65358600  0.00000000  1
  V  V1  1  0.34641400  0.34641400  0.00000000  1
  V  V2  1  0.65358600  0.00000000  0.65358600  1
  V  V3  1  0.34641400  0.00000000  0.34641400  1
  V  V4  1  0.00000000  0.65358600  0.65358600  1
  V  V5  1  0.00000000  0.34641400  0.34641400  1
  V  V6  1  0.34649700  0.34649700  0.34649700  1
  V  V7  1  0.65350300  0.00000000  0.00000000  1
  V  V8  1  0.00000000  0.65350300  0.00000000  1
  V  V9  1  0.00000000  0.00000000  0.65350300  1
loop_
_geom_bond_atom_site_label_1
_geom_bond_atom_site_label_2
_geom_bond_distance
_geom_bond_site_symmetry_2
Al0 V4 2.602730 1_655
Al0 V2 2.602730 1_565
Al0 V0 2.602730 1_556
Al0 V7 2.738974 1_566
Al0 V9 2.738974 1_665
Al0 V8 2.738974 1_656
Al0 Al12 2.813328 1_555
Al0 Al7 2.813328 1_555
Al0 Al4 2.813328 1_555
Al0 Al3 2.896722 1_666
Al0 Al1 2.896722 1_666
Al0 Al2 2.896722 1_666
Al1 V4 2.602730 1_544
Al1 V3 2.602730 1_555
Al1 V1 2.602730 1_555
Al1 V6 2.738974 1_555
Al1 V9 2.738974 1_554
Al1 V8 2.738974 1_545
Al1 Al5 2.813328 1_555
Al1 Al10 2.813328 1_545
Al1 Al14 2.813328 1_554
Al1 Al2 2.896722 1_555
Al1 Al3 2.896722 1_555
Al2 V5 2.602730 1_555
Al2 V2 2.602730 1_454
Al2 V1 2.602730 1_555
Al2 V6 2.738974 1_555
Al2 V9 2.738974 1_554
Al2 V7 2.738974 1_455
Al2 Al6 2.813328 1_554
Al2 Al3 2.896722 1_555
Al3 V5 2.602730 1_555
Al3 V3 2.602730 1_555
Al3 V0 2.602730 1_445
Al3 V6 2.738974 1_555
Al3 V8 2.738974 1_545
Al3 V7 2.738974 1_455
Al3 Al9 2.813328 1_555
Al3 Al8 2.813328 1_545
Al4 V7 2.623766 1_566
Al4 V5 2.641516 1_555
Al4 Al9 2.694754 1_555
Al4 V6 2.783412 1_555
Al4 V4 2.871504 1_555
Al4 V0 2.951024 1_556
Al4 V2 2.951024 1_565
Al5 V6 2.623766 1_555
Al5 V5 2.641516 1_655
Al5 Al7 2.694754 1_555
Al5 V7 2.783412 1_555
Al5 V4 2.871504 1_655
Al5 V3 2.951024 1_555
Al5 V1 2.951024 1_555
Al6 V9 2.623766 1_555
Al6 V4 2.641516 1_555
Al6 Al9 2.694754 1_555
Al6 V8 2.783412 1_556
Al6 V5 2.871504 1_555
Al6 V1 2.951024 1_556
Al6 V2 2.951024 1_455
Al7 V9 2.623766 1_665
Al7 V1 2.641516 1_555
Al7 Al8 2.694754 1_655
Al7 V6 2.783412 1_555
Al7 V0 2.871504 1_555
Al7 V4 2.951024 1_655
Al7 V2 2.951024 1_565
Al8 V8 2.623766 1_555
Al8 V4 2.641516 1_555
Al8 V9 2.783412 1_565
Al8 V5 2.871504 1_555
Al8 V3 2.951024 1_565
Al8 V0 2.951024 1_455
Al9 V6 2.623766 1_555
Al9 V1 2.641516 1_556
Al9 V9 2.783412 1_555
Al9 V0 2.871504 1_556
Al9 V3 2.951024 1_555
Al9 V5 2.951024 1_555
Al10 V8 2.623766 1_555
Al10 V0 2.641516 1_555
Al10 Al15 2.694754 1_555
Al10 Al6 2.694754 1_554
Al10 Al13 2.694754 1_565
Al10 Al4 2.694754 1_554
Al10 V7 2.783412 1_565
Al10 V1 2.871504 1_555
Al10 V3 2.951024 1_565
Al10 V4 2.951024 1_554
Al11 V7 2.623766 1_555
Al11 V0 2.641516 1_555
Al11 Al5 2.694754 1_555
Al11 Al8 2.694754 1_655
Al11 Al14 2.694754 1_554
Al11 Al12 2.694754 1_554
Al11 V8 2.783412 1_655
Al11 Al2 2.813328 1_655
Al11 V1 2.871504 1_555
Al11 V2 2.951024 1_554
Al11 V5 2.951024 1_655
Al12 V8 2.623766 1_656
Al12 V3 2.641516 1_555
Al12 Al5 2.694754 1_555
Al12 Al9 2.694754 1_555
Al12 Al6 2.694754 1_655
Al12 V6 2.783412 1_555
Al12 V2 2.871504 1_555
Al12 V4 2.951024 1_655
Al12 V0 2.951024 1_556
Al13 V7 2.623766 1_555
Al13 V2 2.641516 1_555
Al13 Al5 2.694754 1_555
Al13 Al6 2.694754 1_655
Al13 Al7 2.694754 1_545
Al13 V9 2.783412 1_655
Al13 Al3 2.813328 1_655
Al13 V3 2.871504 1_555
Al13 V0 2.951024 1_545
Al13 V5 2.951024 1_655
Al14 V9 2.623766 1_555
Al14 V2 2.641516 1_555
Al14 Al9 2.694754 1_555
Al14 Al8 2.694754 1_545
Al14 Al4 2.694754 1_545
Al14 V7 2.783412 1_556
Al14 V3 2.871504 1_555
Al14 V1 2.951024 1_556
Al14 V4 2.951024 1_545
Al15 V6 2.623766 1_555
Al15 V3 2.641516 1_565
Al15 Al7 2.694754 1_555
Al15 Al4 2.694754 1_555
Al15 Al8 2.694754 1_555
Al15 V8 2.783412 1_555
Al15 Al2 2.813328 1_555
Al15 V2 2.871504 1_565
Al15 V5 2.951024 1_555
Al15 V1 2.951024 1_555
V0 V7 2.759946 1_565
V0 V8 2.759946 1_655
V0 V1 2.825670 1_555
V1 V6 2.759946 1_555
V1 V9 2.759946 1_554
V2 V9 2.759946 1_655
V2 V7 2.759946 1_556
V2 V3 2.825670 1_555
V3 V6 2.759946 1_555
V3 V8 2.759946 1_545
V4 V8 2.759946 1_556
V4 V9 2.759946 1_565
V4 V5 2.825670 1_555
V5 V6 2.759946 1_555
V5 V7 2.759946 1_455
