# generated using pymatgen
data_Li3V2(O2F)2
_symmetry_space_group_name_H-M   'P 1'
_cell_length_a   6.12146100
_cell_length_b   5.06024365
_cell_length_c   7.46248119
_cell_angle_alpha   97.11397874
_cell_angle_beta   89.99990297
_cell_angle_gamma   90.00036881
_symmetry_Int_Tables_number   1
_chemical_formula_structural   Li3V2(O2F)2
_chemical_formula_sum   'Li6 V4 O8 F4'
_cell_volume   229.37893026
_cell_formula_units_Z   2
loop_
 _symmetry_equiv_pos_site_id
 _symmetry_equiv_pos_as_xyz
  1  'x, y, z'
loop_
 _atom_site_type_symbol
 _atom_site_label
 _atom_site_symmetry_multiplicity
 _atom_site_fract_x
 _atom_site_fract_y
 _atom_site_fract_z
 _atom_site_occupancy
  Li  Li0  1  0.00227200  0.35684700  0.63076200  1
  Li  Li1  1  0.99775100  0.64203800  0.36967300  1
  Li  Li2  1  0.25003000  0.89642900  0.61919600  1
  Li  Li3  1  0.49782200  0.35682500  0.63075700  1
  Li  Li4  1  0.50237000  0.64202000  0.36967200  1
  Li  Li5  1  0.75003600  0.10280400  0.38091700  1
  V  V0  1  0.99997600  0.00051800  0.00021400  1
  V  V1  1  0.24996800  0.49673400  0.99971800  1
  V  V2  1  0.49992200  0.00040200  0.00014000  1
  V  V3  1  0.74996600  0.50396400  0.99983300  1
  O  O0  1  0.00185000  0.36820000  0.13943000  1
  O  O1  1  0.99829000  0.63287800  0.86036500  1
  O  O2  1  0.24996600  0.83904000  0.13137300  1
  O  O3  1  0.24996600  0.15766700  0.85248600  1
  O  O4  1  0.49806600  0.36813800  0.13939100  1
  O  O5  1  0.50164900  0.63281000  0.86032000  1
  O  O6  1  0.74994700  0.84317600  0.14717600  1
  O  O7  1  0.74996500  0.16163000  0.86855700  1
  F  F0  1  0.00004700  0.99953600  0.49994900  1
  F  F1  1  0.25005300  0.53032500  0.51408700  1
  F  F2  1  0.50004700  0.99952400  0.49997700  1
  F  F3  1  0.75004100  0.46849500  0.48600800  1
loop_
_geom_bond_atom_site_label_1
_geom_bond_atom_site_label_2
_geom_bond_distance
_geom_bond_site_symmetry_2
Li0 O1 2.072339 1_455
Li0 O3 2.542775 1_555
Li1 O0 2.069591 1_655
Li1 O6 2.551951 1_555
Li2 O3 2.051410 1_565
Li3 O5 2.071973 1_555
Li3 O3 2.543328 1_555
Li4 O4 2.069944 1_555
Li4 O6 2.551152 1_555
Li5 O6 2.049624 1_545
O0 V1 1.996217 1_554
O0 V0 2.015530 1_455
O0 V3 2.027787 1_454
O1 V3 1.996904 1_555
O1 V0 2.017241 1_566
O1 V1 2.026592 1_655
O2 V1 1.882576 1_554
O2 V2 2.040841 1_565
O2 V0 2.040985 1_465
O3 V1 1.919399 1_555
O3 V2 2.099001 1_556
O3 V0 2.099198 1_456
O4 V1 1.996091 1_554
O4 V2 2.015869 1_555
O4 V3 2.027817 1_554
O5 V3 1.996935 1_555
O5 V2 2.016947 1_566
O5 V1 2.026644 1_555
O6 V3 1.920385 1_554
O6 V0 2.096541 1_565
O6 V2 2.096588 1_565
O7 V3 1.881545 1_555
O7 V0 2.042200 1_556
O7 V2 2.042313 1_556
F0 Li5 1.875983 1_465
F0 Li2 1.876384 1_555
F0 Li1 1.944815 1_455
F0 Li0 1.945536 1_565
F1 Li2 1.920250 1_555
F1 Li1 2.004302 1_455
F1 Li4 2.004336 1_555
F1 Li3 2.004640 1_555
F1 Li0 2.004648 1_555
F2 Li5 1.875991 1_565
F2 Li2 1.876419 1_555
F2 Li4 1.944926 1_555
F2 Li3 1.945397 1_565
F3 Li5 1.918301 1_555
F3 Li4 2.003032 1_555
F3 Li1 2.003243 1_555
F3 Li3 2.005259 1_555
F3 Li0 2.005306 1_655
