# generated using pymatgen
data_LuNpO3
_symmetry_space_group_name_H-M   'P 1'
_cell_length_a   4.19843600
_cell_length_b   4.19843600
_cell_length_c   4.19843600
_cell_angle_alpha   90.00000000
_cell_angle_beta   90.00000000
_cell_angle_gamma   90.00000000
_symmetry_Int_Tables_number   1
_chemical_formula_structural   LuNpO3
_chemical_formula_sum   'Lu1 Np1 O3'
_cell_volume   74.00526394
_cell_formula_units_Z   1
loop_
 _symmetry_equiv_pos_site_id
 _symmetry_equiv_pos_as_xyz
  1  'x, y, z'
loop_
 _atom_site_type_symbol
 _atom_site_label
 _atom_site_symmetry_multiplicity
 _atom_site_fract_x
 _atom_site_fract_y
 _atom_site_fract_z
 _atom_site_occupancy
  Lu  Lu0  1  0.50000000  0.50000000  0.50000000  1
  Np  Np0  1  0.00000000  0.00000000  0.00000000  1
  O  O0  1  0.50000000  0.50000000  0.00000000  1
  O  O1  1  0.50000000  0.00000000  0.50000000  1
  O  O2  1  0.00000000  0.50000000  0.50000000  1
loop_
_geom_bond_atom_site_label_1
_geom_bond_atom_site_label_2
_geom_bond_distance
_geom_bond_site_symmetry_2
Lu0 O0 2.099218 1_555
Lu0 O2 2.099218 1_555
Lu0 O1 2.099218 1_565
Lu0 O2 2.099218 1_655
Lu0 O0 2.099218 1_556
Lu0 O1 2.099218 1_555
Np0 O2 2.968743 1_555
Np0 O2 2.968743 1_554
Np0 O0 2.968743 1_455
Np0 O2 2.968743 1_544
Np0 O2 2.968743 1_545
Np0 O1 2.968743 1_455
Np0 O1 2.968743 1_555
Np0 O1 2.968743 1_454
Np0 O1 2.968743 1_554
Np0 O0 2.968743 1_545
Np0 O0 2.968743 1_555
Np0 O0 2.968743 1_445
