# generated using pymatgen
data_Sr(LuS2)2
_symmetry_space_group_name_H-M   'P 1'
_cell_length_a   3.90364091
_cell_length_b   11.90187346
_cell_length_c   14.07597388
_cell_angle_alpha   90.00000000
_cell_angle_beta   90.00000000
_cell_angle_gamma   90.00000000
_symmetry_Int_Tables_number   1
_chemical_formula_structural   Sr(LuS2)2
_chemical_formula_sum   'Sr4 Lu8 S16'
_cell_volume   653.97875712
_cell_formula_units_Z   4
loop_
 _symmetry_equiv_pos_site_id
 _symmetry_equiv_pos_as_xyz
  1  'x, y, z'
loop_
 _atom_site_type_symbol
 _atom_site_label
 _atom_site_symmetry_multiplicity
 _atom_site_fract_x
 _atom_site_fract_y
 _atom_site_fract_z
 _atom_site_occupancy
  Sr  Sr0  1  0.25000000  0.75985091  0.33584105  1
  Sr  Sr1  1  0.25000000  0.25985091  0.16415895  1
  Sr  Sr2  1  0.75000000  0.24014909  0.66415895  1
  Sr  Sr3  1  0.75000000  0.74014909  0.83584105  1
  Lu  Lu0  1  0.25000000  0.43793950  0.38936746  1
  Lu  Lu1  1  0.25000000  0.93793950  0.11063254  1
  Lu  Lu2  1  0.75000000  0.56206050  0.61063254  1
  Lu  Lu3  1  0.75000000  0.06206050  0.88936746  1
  Lu  Lu4  1  0.25000000  0.41763909  0.90060458  1
  Lu  Lu5  1  0.25000000  0.91763909  0.59939542  1
  Lu  Lu6  1  0.75000000  0.58236091  0.09939542  1
  Lu  Lu7  1  0.75000000  0.08236091  0.40060458  1
  S  S0  1  0.25000000  0.20473453  0.83305793  1
  S  S1  1  0.25000000  0.70473453  0.66694207  1
  S  S2  1  0.75000000  0.79526547  0.16694207  1
  S  S3  1  0.75000000  0.29526547  0.33305793  1
  S  S4  1  0.25000000  0.12565553  0.52772992  1
  S  S5  1  0.25000000  0.62565553  0.97227008  1
  S  S6  1  0.75000000  0.87434447  0.47227008  1
  S  S7  1  0.75000000  0.37434447  0.02772992  1
  S  S8  1  0.25000000  0.02671293  0.28417362  1
  S  S9  1  0.25000000  0.52671293  0.21582638  1
  S  S10  1  0.75000000  0.97328707  0.71582638  1
  S  S11  1  0.75000000  0.47328707  0.78417362  1
  S  S12  1  0.25000000  0.41258164  0.57616986  1
  S  S13  1  0.25000000  0.91258164  0.92383014  1
  S  S14  1  0.75000000  0.58741836  0.42383014  1
  S  S15  1  0.75000000  0.08741836  0.07616986  1
loop_
_geom_bond_atom_site_label_1
_geom_bond_atom_site_label_2
_geom_bond_distance
_geom_bond_site_symmetry_2
Lu0 S12 2.646690 1_555
Lu0 S9 2.661469 1_555
Lu0 S14 2.685152 1_455
Lu0 S14 2.685152 1_555
Lu0 S3 2.705797 1_455
Lu0 S3 2.705797 1_555
Lu1 S13 2.646690 1_554
Lu1 S8 2.661469 1_565
Lu1 S15 2.685152 1_465
Lu1 S15 2.685152 1_565
Lu1 S2 2.705797 1_555
Lu1 S2 2.705797 1_455
Lu2 S14 2.646690 1_555
Lu2 S11 2.661469 1_555
Lu2 S12 2.685152 1_555
Lu2 S12 2.685152 1_655
Lu2 S1 2.705797 1_655
Lu2 S1 2.705797 1_555
Lu3 S15 2.646690 1_556
Lu3 S10 2.661469 1_545
Lu3 S13 2.685152 1_545
Lu3 S13 2.685152 1_645
Lu3 S0 2.705797 1_655
Lu3 S0 2.705797 1_555
Lu4 S11 2.633285 1_555
Lu4 S11 2.633285 1_455
Lu4 S5 2.673409 1_555
Lu4 S7 2.697614 1_456
Lu4 S7 2.697614 1_556
Lu4 S0 2.706467 1_555
Lu5 S10 2.633285 1_555
Lu5 S10 2.633285 1_455
Lu5 S4 2.673409 1_565
Lu5 S6 2.697614 1_455
Lu5 S6 2.697614 1_555
Lu5 S1 2.706467 1_555
Lu6 S9 2.633285 1_555
Lu6 S9 2.633285 1_655
Lu6 S7 2.673409 1_555
Lu6 S5 2.697614 1_554
Lu6 S5 2.697614 1_654
Lu6 S2 2.706467 1_555
Lu7 S8 2.633285 1_655
Lu7 S8 2.633285 1_555
Lu7 S6 2.673409 1_545
Lu7 S4 2.697614 1_555
Lu7 S4 2.697614 1_655
Lu7 S3 2.706467 1_555
S0 Sr2 3.104735 1_555
S0 Sr2 3.104735 1_455
S1 Sr3 3.104735 1_455
S1 Sr3 3.104735 1_555
S2 Sr0 3.104735 1_555
S2 Sr0 3.104735 1_655
S3 Sr1 3.104735 1_655
S3 Sr1 3.104735 1_555
S4 Sr2 3.058488 1_455
S4 Sr2 3.058488 1_555
S5 Sr3 3.058488 1_455
S5 Sr3 3.058488 1_555
S6 Sr0 3.058488 1_555
S6 Sr0 3.058488 1_655
S7 Sr1 3.058488 1_555
S7 Sr1 3.058488 1_655
S8 Sr1 3.248571 1_555
S8 Sr0 3.258359 1_545
S9 Sr0 3.248571 1_555
S9 Sr1 3.258359 1_555
S10 Sr3 3.248571 1_555
S10 Sr2 3.258359 1_565
S11 Sr2 3.248571 1_555
S11 Sr3 3.258359 1_555
S12 Sr2 3.091178 1_455
S12 Sr2 3.091178 1_555
S13 Sr3 3.091178 1_555
S13 Sr3 3.091178 1_455
S14 Sr0 3.091178 1_555
S14 Sr0 3.091178 1_655
S15 Sr1 3.091178 1_655
S15 Sr1 3.091178 1_555
