# generated using pymatgen
data_La3SmCr2(FeO6)2
_symmetry_space_group_name_H-M   'P 1'
_cell_length_a   3.93203000
_cell_length_b   7.86447700
_cell_length_c   7.86543700
_cell_angle_alpha   90.00000000
_cell_angle_beta   90.00000000
_cell_angle_gamma   90.00000000
_symmetry_Int_Tables_number   1
_chemical_formula_structural   La3SmCr2(FeO6)2
_chemical_formula_sum   'La3 Sm1 Cr2 Fe2 O12'
_cell_volume   243.22573596
_cell_formula_units_Z   1
loop_
 _symmetry_equiv_pos_site_id
 _symmetry_equiv_pos_as_xyz
  1  'x, y, z'
loop_
 _atom_site_type_symbol
 _atom_site_label
 _atom_site_symmetry_multiplicity
 _atom_site_fract_x
 _atom_site_fract_y
 _atom_site_fract_z
 _atom_site_occupancy
  La  La0  1  0.50000000  0.00000000  0.25122100  1
  La  La1  1  0.50000000  0.00000000  0.74883200  1
  La  La2  1  0.50000000  0.50000000  0.74881000  1
  Sm  Sm0  1  0.50000000  0.50000000  0.25130500  1
  Cr  Cr0  1  0.00000000  0.74954800  0.49960100  1
  Cr  Cr1  1  0.00000000  0.25045200  0.49960100  1
  Fe  Fe0  1  0.00000000  0.74930300  0.00071900  1
  Fe  Fe1  1  0.00000000  0.25069700  0.00071900  1
  O  O0  1  0.00000000  0.00000000  0.00025600  1
  O  O1  1  0.00000000  0.00000000  0.49982800  1
  O  O2  1  0.00000000  0.50000000  0.00271300  1
  O  O3  1  0.00000000  0.50000000  0.49683000  1
  O  O4  1  0.00000000  0.74711200  0.25114000  1
  O  O5  1  0.00000000  0.74979600  0.74883000  1
  O  O6  1  0.00000000  0.25288800  0.25114000  1
  O  O7  1  0.00000000  0.25020400  0.74883000  1
  O  O8  1  0.50000000  0.74855700  0.00151300  1
  O  O9  1  0.50000000  0.74830300  0.49829900  1
  O  O10  1  0.50000000  0.25144300  0.00151300  1
  O  O11  1  0.50000000  0.25169700  0.49829900  1
loop_
_geom_bond_atom_site_label_1
_geom_bond_atom_site_label_2
_geom_bond_distance
_geom_bond_site_symmetry_2
La0 O1 2.772871 1_555
La0 O1 2.772871 1_655
La0 O11 2.773985 1_555
La0 O9 2.773985 1_545
La0 O0 2.785981 1_555
La0 O0 2.785981 1_655
La0 O10 2.787099 1_555
La0 O8 2.787099 1_545
La0 O6 2.796546 1_655
La0 O4 2.796546 1_545
La0 O4 2.796546 1_645
La0 O6 2.796546 1_555
La1 O1 2.775074 1_555
La1 O1 2.775074 1_655
La1 O7 2.781574 1_555
La1 O5 2.781574 1_545
La1 O5 2.781574 1_645
La1 O7 2.781574 1_655
La1 O0 2.788540 1_656
La1 O0 2.788540 1_556
La1 O11 2.793091 1_555
La1 O9 2.793091 1_545
La1 O10 2.803627 1_556
La1 O8 2.803627 1_546
La2 O9 2.774115 1_555
La2 O11 2.774115 1_555
La2 O7 2.779305 1_555
La2 O7 2.779305 1_655
La2 O5 2.779305 1_555
La2 O5 2.779305 1_655
La2 O8 2.787788 1_556
La2 O10 2.787788 1_556
La2 O3 2.791643 1_555
La2 O3 2.791643 1_655
La2 O2 2.802402 1_556
La2 O2 2.802402 1_656
Cr0 O4 1.954348 1_555
Cr0 O5 1.960296 1_555
Cr0 O3 1.962686 1_555
Cr0 O9 1.966066 1_555
Cr0 O9 1.966066 1_455
Cr0 O1 1.969675 1_565
Cr1 O6 1.954348 1_555
Cr1 O7 1.960296 1_555
Cr1 O3 1.962686 1_555
Cr1 O11 1.966066 1_455
Cr1 O11 1.966066 1_555
Cr1 O1 1.969675 1_555
Fe0 O2 1.960700 1_555
Fe0 O8 1.966034 1_555
Fe0 O8 1.966034 1_455
Fe0 O4 1.969746 1_555
Fe0 O0 1.971604 1_565
Fe0 O5 1.981221 1_554
Fe1 O2 1.960700 1_555
Fe1 O10 1.966034 1_455
Fe1 O10 1.966034 1_555
Fe1 O6 1.969746 1_555
Fe1 O0 1.971604 1_555
Fe1 O7 1.981221 1_554
O2 Sm0 2.772788 1_555
O2 Sm0 2.772788 1_455
O3 Sm0 2.755830 1_455
O3 Sm0 2.755830 1_555
O4 Sm0 2.764425 1_555
O4 Sm0 2.764425 1_455
O6 Sm0 2.764425 1_455
O6 Sm0 2.764425 1_555
O8 Sm0 2.771510 1_555
O9 Sm0 2.754536 1_555
O10 Sm0 2.771510 1_555
O11 Sm0 2.754536 1_555
