# generated using pymatgen
data_MnCoSi
_symmetry_space_group_name_H-M   'P 1'
_cell_length_a   3.66038000
_cell_length_b   5.72787100
_cell_length_c   6.86813000
_cell_angle_alpha   90.00000000
_cell_angle_beta   90.00000000
_cell_angle_gamma   90.00000000
_symmetry_Int_Tables_number   1
_chemical_formula_structural   MnCoSi
_chemical_formula_sum   'Mn4 Co4 Si4'
_cell_volume   143.99848041
_cell_formula_units_Z   4
loop_
 _symmetry_equiv_pos_site_id
 _symmetry_equiv_pos_as_xyz
  1  'x, y, z'
loop_
 _atom_site_type_symbol
 _atom_site_label
 _atom_site_symmetry_multiplicity
 _atom_site_fract_x
 _atom_site_fract_y
 _atom_site_fract_z
 _atom_site_occupancy
  Mn  Mn0  1  0.75000000  0.97274400  0.18403400  1
  Mn  Mn1  1  0.25000000  0.02725600  0.81596600  1
  Mn  Mn2  1  0.75000000  0.47274400  0.31596600  1
  Mn  Mn3  1  0.25000000  0.52725600  0.68403400  1
  Co  Co0  1  0.25000000  0.65786600  0.05973700  1
  Co  Co1  1  0.75000000  0.34213400  0.94026300  1
  Co  Co2  1  0.25000000  0.15786600  0.44026300  1
  Co  Co3  1  0.75000000  0.84213400  0.55973700  1
  Si  Si0  1  0.25000000  0.26656500  0.12320200  1
  Si  Si1  1  0.75000000  0.73343500  0.87679800  1
  Si  Si2  1  0.25000000  0.76656500  0.37679800  1
  Si  Si3  1  0.75000000  0.23343500  0.62320200  1
loop_
_geom_bond_atom_site_label_1
_geom_bond_atom_site_label_2
_geom_bond_distance
_geom_bond_site_symmetry_2
Mn0 Si1 2.516263 1_554
Mn0 Si0 2.521218 1_665
Mn0 Si0 2.521218 1_565
Mn0 Si2 2.548934 1_655
Mn0 Si2 2.548934 1_555
Mn1 Si0 2.516263 1_556
Mn1 Si1 2.521218 1_545
Mn1 Si1 2.521218 1_445
Mn1 Si3 2.548934 1_555
Mn1 Si3 2.548934 1_455
Mn2 Si3 2.516263 1_555
Mn2 Si2 2.521218 1_555
Mn2 Si2 2.521218 1_655
Mn2 Si0 2.548934 1_655
Mn2 Si0 2.548934 1_555
Mn3 Si2 2.516263 1_555
Mn3 Si3 2.521218 1_455
Mn3 Si3 2.521218 1_555
Mn3 Si1 2.548934 1_555
Mn3 Si1 2.548934 1_455
Co0 Si1 2.261773 1_554
Co0 Si1 2.261773 1_454
Co0 Si2 2.264875 1_555
Co0 Si0 2.283313 1_555
Co0 Mn3 2.686638 1_554
Co0 Mn1 2.698111 1_564
Co0 Mn0 2.707634 1_455
Co0 Mn0 2.707634 1_555
Co0 Mn2 2.751526 1_455
Co0 Mn2 2.751526 1_555
Co1 Si0 2.261773 1_556
Co1 Si0 2.261773 1_656
Co1 Si3 2.264875 1_555
Co1 Si1 2.283313 1_555
Co1 Mn2 2.686638 1_556
Co1 Mn0 2.698111 1_546
Co1 Mn1 2.707634 1_655
Co1 Mn1 2.707634 1_555
Co1 Mn3 2.751526 1_655
Co1 Mn3 2.751526 1_555
Co2 Si3 2.261773 1_455
Co2 Si3 2.261773 1_555
Co2 Si0 2.264875 1_555
Co2 Si2 2.283313 1_545
Co2 Mn1 2.686638 1_555
Co2 Mn3 2.698111 1_555
Co2 Mn2 2.707634 1_555
Co2 Mn2 2.707634 1_455
Co2 Mn0 2.751526 1_445
Co2 Mn0 2.751526 1_545
Co3 Si2 2.261773 1_655
Co3 Si2 2.261773 1_555
Co3 Si1 2.264875 1_555
Co3 Si3 2.283313 1_565
Co3 Mn0 2.686638 1_555
Co3 Mn2 2.698111 1_555
Co3 Mn3 2.707634 1_655
Co3 Mn3 2.707634 1_555
Co3 Mn1 2.751526 1_665
Co3 Mn1 2.751526 1_565
