# generated using pymatgen
data_Ni2N11Cl8
_symmetry_space_group_name_H-M   'P 1'
_cell_length_a   6.26839900
_cell_length_b   8.32666500
_cell_length_c   9.48439500
_cell_angle_alpha   90.00000000
_cell_angle_beta   90.00000000
_cell_angle_gamma   90.00000000
_symmetry_Int_Tables_number   1
_chemical_formula_structural   Ni2N11Cl8
_chemical_formula_sum   'Ni2 N11 Cl8'
_cell_volume   495.03665555
_cell_formula_units_Z   1
loop_
 _symmetry_equiv_pos_site_id
 _symmetry_equiv_pos_as_xyz
  1  'x, y, z'
loop_
 _atom_site_type_symbol
 _atom_site_label
 _atom_site_symmetry_multiplicity
 _atom_site_fract_x
 _atom_site_fract_y
 _atom_site_fract_z
 _atom_site_occupancy
  Ni  Ni0  1  0.00000000  0.00000000  0.00000000  1
  Ni  Ni1  1  0.50000000  0.50000000  0.50000000  1
  N  N0  1  0.00000000  0.77269700  0.00000000  1
  N  N1  1  0.50000000  0.27093600  0.50000000  1
  N  N2  1  0.50000000  0.72906400  0.50000000  1
  N  N3  1  0.00000000  0.22730300  0.00000000  1
  N  N4  1  0.50000000  0.64234200  0.00000000  1
  N  N5  1  0.00000000  0.14284100  0.50000000  1
  N  N6  1  0.00000000  0.85715900  0.50000000  1
  N  N7  1  0.50000000  0.35765800  0.00000000  1
  N  N8  1  0.50000000  0.00000000  0.00000000  1
  N  N9  1  0.50000000  0.50000000  0.00000000  1
  N  N10  1  0.00000000  0.00000000  0.50000000  1
  Cl  Cl0  1  0.26021500  0.50000000  0.66915700  1
  Cl  Cl1  1  0.73563800  0.00000000  0.16287600  1
  Cl  Cl2  1  0.26436200  0.00000000  0.83712400  1
  Cl  Cl3  1  0.73978500  0.50000000  0.33084300  1
  Cl  Cl4  1  0.73978500  0.50000000  0.66915700  1
  Cl  Cl5  1  0.26436200  0.00000000  0.16287600  1
  Cl  Cl6  1  0.73563800  0.00000000  0.83712400  1
  Cl  Cl7  1  0.26021500  0.50000000  0.33084300  1
loop_
_geom_bond_atom_site_label_1
_geom_bond_atom_site_label_2
_geom_bond_distance
_geom_bond_site_symmetry_2
N0 Ni0 1.892676 1_565
N1 Ni1 1.907339 1_555
N2 Ni1 1.907339 1_555
N3 Ni0 1.892676 1_555
N4 N9 1.185234 1_555
N7 N9 1.185234 1_555
N10 N5 1.189389 1_555
N10 N6 1.189389 1_545
Cl0 Ni1 2.198445 1_555
Cl1 N8 2.137309 1_555
Cl1 Ni0 2.265483 1_655
Cl2 N8 2.137309 1_556
Cl2 Ni0 2.265483 1_556
Cl3 Ni1 2.198445 1_555
Cl4 Ni1 2.198445 1_555
Cl5 N8 2.137309 1_555
Cl5 Ni0 2.265483 1_555
Cl6 N8 2.137309 1_556
Cl6 Ni0 2.265483 1_656
Cl7 Ni1 2.198445 1_555
