# generated using pymatgen
data_NaMo3(PO7)2
_symmetry_space_group_name_H-M   'P 1'
_cell_length_a   6.48546400
_cell_length_b   8.68854600
_cell_length_c   10.73623861
_cell_angle_alpha   68.41020510
_cell_angle_beta   90.00000000
_cell_angle_gamma   90.00000000
_symmetry_Int_Tables_number   1
_chemical_formula_structural   NaMo3(PO7)2
_chemical_formula_sum   'Na2 Mo6 P4 O28'
_cell_volume   562.53492376
_cell_formula_units_Z   2
loop_
 _symmetry_equiv_pos_site_id
 _symmetry_equiv_pos_as_xyz
  1  'x, y, z'
loop_
 _atom_site_type_symbol
 _atom_site_label
 _atom_site_symmetry_multiplicity
 _atom_site_fract_x
 _atom_site_fract_y
 _atom_site_fract_z
 _atom_site_occupancy
  Na  Na0  1  0.25000000  0.00952800  0.75509800  1
  Na  Na1  1  0.75000000  0.99047200  0.24490200  1
  Mo  Mo0  1  0.25000000  0.74874200  0.16997000  1
  Mo  Mo1  1  0.75000000  0.25125800  0.83003000  1
  Mo  Mo2  1  0.25000000  0.33443100  0.12306600  1
  Mo  Mo3  1  0.75000000  0.66556900  0.87693400  1
  Mo  Mo4  1  0.25000000  0.73565800  0.49315800  1
  Mo  Mo5  1  0.75000000  0.26434200  0.50684200  1
  P  P0  1  0.25000000  0.38403300  0.80106700  1
  P  P1  1  0.75000000  0.61596700  0.19893300  1
  P  P2  1  0.25000000  0.35119000  0.43725900  1
  P  P3  1  0.75000000  0.64881000  0.56274100  1
  O  O0  1  0.25000000  0.56759300  0.11292800  1
  O  O1  1  0.75000000  0.43240700  0.88707200  1
  O  O2  1  0.25000000  0.91669300  0.02258200  1
  O  O3  1  0.75000000  0.08330700  0.97741800  1
  O  O4  1  0.93834500  0.72912400  0.18996700  1
  O  O5  1  0.06165500  0.27087600  0.81003300  1
  O  O6  1  0.43834500  0.27087600  0.81003300  1
  O  O7  1  0.56165500  0.72912400  0.18996700  1
  O  O8  1  0.25000000  0.85455500  0.29482100  1
  O  O9  1  0.75000000  0.14544500  0.70517900  1
  O  O10  1  0.25000000  0.89140400  0.55453700  1
  O  O11  1  0.75000000  0.10859600  0.44546300  1
  O  O12  1  0.46823600  0.21620400  0.13333700  1
  O  O13  1  0.53176400  0.78379600  0.86666300  1
  O  O14  1  0.96823600  0.78379600  0.86666300  1
  O  O15  1  0.03176400  0.21620400  0.13333700  1
  O  O16  1  0.93831200  0.72111800  0.47211400  1
  O  O17  1  0.06168800  0.27888200  0.52788600  1
  O  O18  1  0.43831200  0.27888200  0.52788600  1
  O  O19  1  0.56168800  0.72111800  0.47211400  1
  O  O20  1  0.25000000  0.53419400  0.66973800  1
  O  O21  1  0.75000000  0.46580600  0.33026200  1
  O  O22  1  0.25000000  0.44634700  0.91923800  1
  O  O23  1  0.75000000  0.55365300  0.08076200  1
  O  O24  1  0.25000000  0.28852800  0.32023800  1
  O  O25  1  0.75000000  0.71147200  0.67976200  1
  O  O26  1  0.25000000  0.54189600  0.38525800  1
  O  O27  1  0.75000000  0.45810400  0.61474200  1
loop_
_geom_bond_atom_site_label_1
_geom_bond_atom_site_label_2
_geom_bond_distance
_geom_bond_site_symmetry_2
Na0 O13 2.625222 1_545
Na0 O14 2.625222 1_445
Na0 O2 2.681980 1_546
Na0 O10 2.704860 1_545
Na0 O6 2.825200 1_555
Na0 O5 2.825200 1_555
Na0 O18 2.952612 1_555
Na0 O17 2.952612 1_555
Na1 O12 2.625222 1_565
Na1 O15 2.625222 1_665
Na1 O3 2.681980 1_564
Na1 O11 2.704860 1_565
Na1 O4 2.825200 1_555
Na1 O7 2.825200 1_555
Na1 O16 2.952612 1_555
Na1 O19 2.952612 1_555
Mo0 O2 1.712911 1_555
Mo0 O8 1.883847 1_555
Mo0 O0 1.887228 1_555
Mo0 O4 2.033120 1_455
Mo0 O7 2.033120 1_555
Mo0 O26 2.348486 1_555
Mo1 O3 1.712911 1_555
Mo1 O9 1.883847 1_555
Mo1 O1 1.887228 1_555
Mo1 O5 2.033120 1_655
Mo1 O6 2.033120 1_555
Mo1 O27 2.348486 1_555
Mo2 O15 1.728361 1_555
Mo2 O12 1.728361 1_555
Mo2 O0 1.988366 1_555
Mo2 O24 2.004732 1_555
Mo2 O22 2.041671 1_554
Mo3 O13 1.728361 1_555
Mo3 O14 1.728361 1_555
Mo3 O1 1.988366 1_555
Mo3 O25 2.004732 1_555
Mo3 O23 2.041671 1_556
Mo4 O10 1.709288 1_555
Mo4 O8 1.995659 1_555
Mo4 O19 2.043095 1_555
Mo4 O16 2.043095 1_455
Mo4 O20 2.053279 1_555
Mo4 O26 2.368842 1_555
Mo5 O11 1.709288 1_555
Mo5 O9 1.995659 1_555
Mo5 O17 2.043095 1_655
Mo5 O18 2.043095 1_555
Mo5 O21 2.053279 1_555
Mo5 O27 2.368842 1_555
O4 P1 1.548649 1_555
O5 P0 1.548649 1_555
O6 P0 1.548649 1_555
O7 P1 1.548649 1_555
O16 P3 1.543733 1_555
O17 P2 1.543733 1_555
O18 P2 1.543733 1_555
O19 P3 1.543733 1_555
O20 P0 1.528548 1_555
O21 P1 1.528548 1_555
O22 P0 1.551860 1_555
O23 P1 1.551860 1_555
O24 P2 1.542158 1_555
O25 P3 1.542158 1_555
O26 P2 1.541566 1_555
O27 P3 1.541566 1_555
