# generated using pymatgen
data_B24N4O
_symmetry_space_group_name_H-M   'P 1'
_cell_length_a   5.83847000
_cell_length_b   9.16937400
_cell_length_c   16.52476200
_cell_angle_alpha   90.00000000
_cell_angle_beta   90.00000000
_cell_angle_gamma   90.00000000
_symmetry_Int_Tables_number   1
_chemical_formula_structural   B24N4O
_chemical_formula_sum   'B96 N16 O4'
_cell_volume   884.65503431
_cell_formula_units_Z   4
loop_
 _symmetry_equiv_pos_site_id
 _symmetry_equiv_pos_as_xyz
  1  'x, y, z'
loop_
 _atom_site_type_symbol
 _atom_site_label
 _atom_site_symmetry_multiplicity
 _atom_site_fract_x
 _atom_site_fract_y
 _atom_site_fract_z
 _atom_site_occupancy
  B  B0  1  0.18165500  0.67047100  0.80182400  1
  B  B1  1  0.68165500  0.32952900  0.19817600  1
  B  B2  1  0.68165500  0.17047100  0.69817600  1
  B  B3  1  0.18165500  0.82952900  0.30182400  1
  B  B4  1  0.84605300  0.70389500  0.79027100  1
  B  B5  1  0.34605300  0.29610500  0.20972900  1
  B  B6  1  0.34605300  0.20389500  0.70972900  1
  B  B7  1  0.84605300  0.79610500  0.29027100  1
  B  B8  1  0.02993900  0.62880000  0.71212800  1
  B  B9  1  0.52993900  0.37120000  0.28787200  1
  B  B10  1  0.52993900  0.12880000  0.78787200  1
  B  B11  1  0.02993900  0.87120000  0.21212800  1
  B  B12  1  0.29939900  0.66104500  0.67908400  1
  B  B13  1  0.79939900  0.33895500  0.32091600  1
  B  B14  1  0.79939900  0.16104500  0.82091600  1
  B  B15  1  0.29939900  0.83895500  0.17908400  1
  B  B16  1  0.29937900  0.85248600  0.80658700  1
  B  B17  1  0.79937900  0.14751400  0.19341300  1
  B  B18  1  0.79937900  0.35248600  0.69341300  1
  B  B19  1  0.29937900  0.64751400  0.30658700  1
  B  B20  1  0.02796800  0.81295000  0.84338600  1
  B  B21  1  0.52796800  0.18705000  0.15661400  1
  B  B22  1  0.52796800  0.31295000  0.65661400  1
  B  B23  1  0.02796800  0.68705000  0.34338600  1
  B  B24  1  0.78284700  0.73844100  0.69383500  1
  B  B25  1  0.28284700  0.26155900  0.30616500  1
  B  B26  1  0.28284700  0.23844100  0.80616500  1
  B  B27  1  0.78284700  0.76155900  0.19383500  1
  B  B28  1  0.01578000  0.77792300  0.62766700  1
  B  B29  1  0.51578000  0.22207700  0.37233300  1
  B  B30  1  0.51578000  0.27792300  0.87233300  1
  B  B31  1  0.01578000  0.72207700  0.12766700  1
  B  B32  1  0.25245800  0.89707300  0.64827400  1
  B  B33  1  0.75245800  0.10292700  0.35172600  1
  B  B34  1  0.75245800  0.39707300  0.85172600  1
  B  B35  1  0.25245800  0.60292700  0.14827400  1
  B  B36  1  0.09110200  0.98801800  0.81585800  1
  B  B37  1  0.59110200  0.01198200  0.18414200  1
  B  B38  1  0.59110200  0.48801800  0.68414200  1
  B  B39  1  0.09110200  0.51198200  0.31585800  1
  B  B40  1  0.83891900  0.89933000  0.77397300  1
  B  B41  1  0.33891900  0.10067000  0.22602700  1
  B  B42  1  0.33891900  0.39933000  0.72602700  1
  B  B43  1  0.83891900  0.60067000  0.27397300  1
  B  B44  1  0.91032600  0.93531400  0.67693700  1
  B  B45  1  0.41032600  0.06468600  0.32306300  1
  B  B46  1  0.41032600  0.43531400  0.82306300  1
  B  B47  1  0.91032600  0.56468600  0.17693700  1
  B  B48  1  0.17948500  0.41782500  0.59476900  1
  B  B49  1  0.67948500  0.58217500  0.40523100  1
  B  B50  1  0.67948500  0.91782500  0.90523100  1
  B  B51  1  0.17948500  0.08217500  0.09476900  1
  B  B52  1  0.40206700  0.29212100  0.56290700  1
  B  B53  1  0.90206700  0.70787900  0.43709300  1
  B  B54  1  0.90206700  0.79212100  0.93709300  1
  B  B55  1  0.40206700  0.20787900  0.06290700  1
  B  B56  1  0.19032900  0.22038000  0.62551300  1
  B  B57  1  0.69032900  0.77962000  0.37448700  1
  B  B58  1  0.69032900  0.72038000  0.87448700  1
  B  B59  1  0.19032900  0.27962000  0.12551300  1
  B  B60  1  0.94384100  0.32294900  0.60816700  1
  B  B61  1  0.44384100  0.67705100  0.39183300  1
  B  B62  1  0.44384100  0.82294900  0.89183300  1
  B  B63  1  0.94384100  0.17705100  0.10816700  1
  B  B64  1  0.97326000  0.44088500  0.52150700  1
  B  B65  1  0.47326000  0.55911500  0.47849300  1
  B  B66  1  0.47326000  0.94088500  0.97849300  1
  B  B67  1  0.97326000  0.05911500  0.02150700  1
  B  B68  1  0.28914600  0.42066500  0.49688700  1
  B  B69  1  0.78914600  0.57933500  0.50311300  1
  B  B70  1  0.78914600  0.92066500  0.00311300  1
  B  B71  1  0.28914600  0.07933500  0.99688700  1
  B  B72  1  0.26119100  0.10266200  0.54658200  1
  B  B73  1  0.76119100  0.89733800  0.45341800  1
  B  B74  1  0.76119100  0.60266200  0.95341800  1
  B  B75  1  0.26119100  0.39733800  0.04658200  1
  B  B76  1  0.95724800  0.13841700  0.57960000  1
  B  B77  1  0.45724800  0.86158300  0.42040000  1
  B  B78  1  0.45724800  0.63841700  0.92040000  1
  B  B79  1  0.95724800  0.36158300  0.07960000  1
  B  B80  1  0.87085800  0.27129300  0.51352300  1
  B  B81  1  0.37085800  0.72870700  0.48647700  1
  B  B82  1  0.37085800  0.77129300  0.98647700  1
  B  B83  1  0.87085800  0.22870700  0.01352300  1
  B  B84  1  0.08017000  0.32293900  0.44022400  1
  B  B85  1  0.58017000  0.67706100  0.55977600  1
  B  B86  1  0.58017000  0.82293900  0.05977600  1
  B  B87  1  0.08017000  0.17706100  0.94022400  1
  B  B88  1  0.35532200  0.23433600  0.46459600  1
  B  B89  1  0.85532200  0.76566400  0.53540400  1
  B  B90  1  0.85532200  0.73433600  0.03540400  1
  B  B91  1  0.35532200  0.26566400  0.96459600  1
  B  B92  1  0.01950100  0.12853600  0.47253800  1
  B  B93  1  0.51950100  0.87146400  0.52746200  1
  B  B94  1  0.51950100  0.62853600  0.02746200  1
  B  B95  1  0.01950100  0.37146400  0.97253800  1
  N  N0  1  0.31343700  0.56356500  0.85630000  1
  N  N1  1  0.81343700  0.43643500  0.14370000  1
  N  N2  1  0.81343700  0.06356500  0.64370000  1
  N  N3  1  0.31343700  0.93643500  0.35630000  1
  N  N4  1  0.56058000  0.64886700  0.65717200  1
  N  N5  1  0.06058000  0.35113300  0.34282800  1
  N  N6  1  0.06058000  0.14886700  0.84282800  1
  N  N7  1  0.56058000  0.85113300  0.15717200  1
  N  N8  1  0.19156900  0.50823100  0.67266800  1
  N  N9  1  0.69156900  0.49176900  0.32733200  1
  N  N10  1  0.69156900  0.00823100  0.82733200  1
  N  N11  1  0.19156900  0.99176900  0.17266800  1
  N  N12  1  0.36801800  0.96462900  0.57801600  1
  N  N13  1  0.86801800  0.03537100  0.42198400  1
  N  N14  1  0.86801800  0.46462900  0.92198400  1
  N  N15  1  0.36801800  0.53537100  0.07801600  1
  O  O0  1  0.85895400  0.40495000  0.77545600  1
  O  O1  1  0.35895400  0.59505000  0.22454400  1
  O  O2  1  0.35895400  0.90495000  0.72454400  1
  O  O3  1  0.85895400  0.09505000  0.27545600  1
loop_
_geom_bond_atom_site_label_1
_geom_bond_atom_site_label_2
_geom_bond_distance
_geom_bond_site_symmetry_2
B0 N0 1.537290 1_555
B0 B20 1.727320 1_555
B0 B4 1.992394 1_455
B1 N1 1.537290 1_555
B1 B21 1.727320 1_555
B1 B5 1.992394 1_555
B2 N2 1.537290 1_555
B2 B22 1.727320 1_555
B2 B6 1.992394 1_555
B3 N3 1.537290 1_555
B3 B7 1.992394 1_455
B4 B58 1.669180 1_555
B4 B40 1.812620 1_555
B4 B8 1.814999 1_655
B5 B59 1.669180 1_555
B5 B9 1.814999 1_555
B8 N8 1.593089 1_555
B9 N9 1.593089 1_555
B10 N10 1.593089 1_555
B10 B6 1.814999 1_555
B10 B30 1.955631 1_555
B11 N11 1.593089 1_555
B11 B7 1.814999 1_455
B11 B31 1.955631 1_555
B12 N8 1.539797 1_555
B12 N4 1.571270 1_555
B12 B28 2.147663 1_555
B13 N9 1.539797 1_555
B13 N5 1.571270 1_655
B13 B29 2.147663 1_555
B14 N10 1.539797 1_555
B14 N6 1.571270 1_655
B14 B30 2.147663 1_555
B15 N11 1.539797 1_555
B15 N7 1.571270 1_555
B15 B31 2.147663 1_555
B16 O2 1.480013 1_555
B16 B62 1.664058 1_555
B16 B20 1.735580 1_555
B17 O3 1.480013 1_555
B17 B63 1.664058 1_555
B17 B21 1.735580 1_555
B18 O0 1.480013 1_555
B18 B60 1.664058 1_555
B18 B22 1.735580 1_555
B19 O1 1.480013 1_555
B19 B61 1.664058 1_555
B19 B23 1.735580 1_555
B20 B4 1.702463 1_455
B20 B36 1.708704 1_555
B20 B54 1.724706 1_455
B20 B40 1.778007 1_455
B21 B5 1.702463 1_555
B21 B37 1.708704 1_555
B21 B55 1.724706 1_555
B21 B41 1.778007 1_555
B22 B6 1.702463 1_555
B22 B38 1.708704 1_555
B22 B52 1.724706 1_555
B22 B42 1.778007 1_555
B23 B7 1.702463 1_455
B23 B39 1.708704 1_555
B23 B53 1.724706 1_455
B23 B3 1.727320 1_555
B23 B43 1.778007 1_455
B24 N4 1.650960 1_555
B24 B4 1.666140 1_555
B24 B28 1.782171 1_655
B25 N5 1.650960 1_555
B25 B5 1.666140 1_555
B25 B29 1.782171 1_555
B26 N6 1.650960 1_555
B26 B6 1.666140 1_555
B26 B30 1.782171 1_555
B27 N7 1.650960 1_555
B27 B7 1.666140 1_555
B27 B31 1.782171 1_655
B28 B44 1.767686 1_455
B28 B89 1.792976 1_455
B28 B32 1.794173 1_555
B28 B8 1.955631 1_555
B29 B45 1.767686 1_555
B29 B88 1.792976 1_555
B29 B33 1.794173 1_555
B29 B9 1.955631 1_555
B30 B46 1.767686 1_555
B30 B91 1.792976 1_555
B30 B34 1.794173 1_555
B31 B47 1.767686 1_455
B31 B90 1.792976 1_455
B31 B35 1.794173 1_555
B32 O2 1.407226 1_555
B32 N12 1.478796 1_555
B33 O3 1.407226 1_555
B33 N13 1.478796 1_555
B34 O0 1.407226 1_555
B34 N14 1.478796 1_555
B35 O1 1.407226 1_555
B35 N15 1.478796 1_555
B36 N6 1.551021 1_565
B37 N7 1.551021 1_545
B38 N4 1.551021 1_555
B39 N5 1.551021 1_555
B40 N10 1.585780 1_565
B41 N11 1.585780 1_545
B41 B5 1.812620 1_555
B42 N8 1.585780 1_555
B42 B6 1.812620 1_555
B43 N9 1.585780 1_555
B43 B7 1.812620 1_555
B44 N2 1.415835 1_565
B45 N3 1.415835 1_545
B46 N0 1.415835 1_555
B47 N1 1.415835 1_555
B48 N8 1.532712 1_555
B48 B60 1.642761 1_455
B48 B64 1.720483 1_455
B48 B68 1.739779 1_555
B48 B52 1.815093 1_555
B48 B56 1.881443 1_555
B49 N9 1.532712 1_555
B49 B61 1.642761 1_555
B49 B65 1.720483 1_555
B49 B69 1.739779 1_555
B49 B53 1.815093 1_555
B49 B57 1.881443 1_555
B50 N10 1.532712 1_565
B50 B62 1.642761 1_555
B50 B66 1.720483 1_555
B50 B70 1.739779 1_556
B50 B54 1.815093 1_555
B50 B58 1.881443 1_555
B51 N11 1.532712 1_545
B51 B63 1.642761 1_455
B51 B67 1.720483 1_455
B51 B71 1.739779 1_554
B51 B55 1.815093 1_555
B51 B59 1.881443 1_555
B52 B88 1.730446 1_555
B52 B68 1.736122 1_555
B52 B56 1.741055 1_555
B52 B72 1.940932 1_555
B53 B89 1.730446 1_555
B53 B69 1.736122 1_555
B53 B57 1.741055 1_555
B53 B73 1.940932 1_555
B54 B90 1.730446 1_556
B54 B70 1.736122 1_556
B54 B58 1.741055 1_555
B54 B74 1.940932 1_555
B55 B91 1.730446 1_554
B55 B71 1.736122 1_554
B55 B59 1.741055 1_555
B55 B75 1.940932 1_555
B56 B6 1.669180 1_555
B56 B76 1.729835 1_455
B56 B72 1.742847 1_555
B56 B60 1.742910 1_455
B57 B7 1.669180 1_555
B57 B77 1.729835 1_555
B57 B73 1.742847 1_555
B57 B61 1.742910 1_555
B58 B78 1.729835 1_555
B58 B74 1.742847 1_555
B58 B62 1.742910 1_555
B59 B79 1.729835 1_455
B59 B75 1.742847 1_555
B59 B63 1.742910 1_455
B60 B80 1.688762 1_555
B60 B76 1.758403 1_555
B60 B64 1.802679 1_555
B61 B81 1.688762 1_555
B61 B77 1.758403 1_555
B61 B65 1.802679 1_555
B62 B82 1.688762 1_555
B62 B78 1.758403 1_555
B62 B66 1.802679 1_555
B63 B83 1.688762 1_555
B63 B79 1.758403 1_555
B63 B67 1.802679 1_555
B64 B80 1.671240 1_555
B64 B69 1.691013 1_555
B64 B84 1.833951 1_655
B64 B68 1.897710 1_655
B65 B81 1.671240 1_555
B65 B68 1.691013 1_555
B65 B85 1.833951 1_555
B65 B69 1.897710 1_555
B66 B82 1.671240 1_555
B66 B71 1.691013 1_565
B66 B86 1.833951 1_556
B66 B70 1.897710 1_556
B67 B83 1.671240 1_555
B67 B70 1.691013 1_545
B67 B87 1.833951 1_654
B67 B71 1.897710 1_654
B68 B84 1.779987 1_555
B68 B88 1.831134 1_555
B69 B85 1.779987 1_555
B69 B89 1.831134 1_555
B70 B86 1.779987 1_555
B70 B90 1.831134 1_555
B71 B87 1.779987 1_555
B71 B91 1.831134 1_555
B72 N12 1.503583 1_545
B72 B88 1.896117 1_555
B73 N13 1.503583 1_565
B73 B89 1.896117 1_555
B74 N14 1.503583 1_555
B74 B90 1.896117 1_556
B75 N15 1.503583 1_555
B75 B91 1.896117 1_554
B76 N2 1.515930 1_555
B76 B80 1.712057 1_555
B77 N3 1.515930 1_555
B77 B81 1.712057 1_555
B78 N0 1.515930 1_555
B78 B82 1.712057 1_555
B79 N1 1.515930 1_555
B79 B83 1.712057 1_555
B80 B92 1.710354 1_655
B80 B84 1.784606 1_655
B81 B93 1.710354 1_555
B81 B85 1.784606 1_555
B82 B94 1.710354 1_556
B82 B86 1.784606 1_556
B83 B95 1.710354 1_654
B83 B87 1.784606 1_654
B84 N5 1.634084 1_555
B84 B88 1.844718 1_555
B85 N4 1.634084 1_555
B85 B89 1.844718 1_555
B86 N7 1.634084 1_555
B86 B90 1.844718 1_555
B87 N6 1.634084 1_555
B87 B91 1.844718 1_555
B88 B92 2.191489 1_555
B89 B93 2.191489 1_555
B90 B94 2.191489 1_555
B91 B95 2.191489 1_555
B92 N13 1.486561 1_455
B93 N12 1.486561 1_555
B94 N15 1.486561 1_555
B95 N14 1.486561 1_455
