# generated using pymatgen
data_Ho5Ni2Sb
_symmetry_space_group_name_H-M   'P 1'
_cell_length_a   7.57948236
_cell_length_b   7.57948207
_cell_length_c   8.48804433
_cell_angle_alpha   116.50372582
_cell_angle_beta   116.50373238
_cell_angle_gamma   90.00825882
_symmetry_Int_Tables_number   1
_chemical_formula_structural   Ho5Ni2Sb
_chemical_formula_sum   'Ho10 Ni4 Sb2'
_cell_volume   378.23349456
_cell_formula_units_Z   2
loop_
 _symmetry_equiv_pos_site_id
 _symmetry_equiv_pos_as_xyz
  1  'x, y, z'
loop_
 _atom_site_type_symbol
 _atom_site_label
 _atom_site_symmetry_multiplicity
 _atom_site_fract_x
 _atom_site_fract_y
 _atom_site_fract_z
 _atom_site_occupancy
  Ho  Ho0  1  0.20775727  0.02006446  0.72782151  1
  Ho  Ho1  1  0.02005435  0.52005335  0.72782571  1
  Ho  Ho2  1  0.70776952  0.20776952  0.72781602  1
  Ho  Ho3  1  0.97994565  0.47994665  0.27217429  1
  Ho  Ho4  1  0.52006446  0.70775727  0.72782251  1
  Ho  Ho5  1  0.79224273  0.97993554  0.27217849  1
  Ho  Ho6  1  0.47993554  0.29224273  0.27217749  1
  Ho  Ho7  1  0.29223048  0.79223048  0.27218398  1
  Ho  Ho8  1  0.50000000  0.50000000  -0.00000000  1
  Ho  Ho9  1  0.00000000  -0.00000000  -0.00000000  1
  Ni  Ni0  1  0.36939181  0.86939181  0.00011986  1
  Ni  Ni1  1  0.13067596  0.36932404  -0.00000000  1
  Ni  Ni2  1  0.63060819  0.13060819  0.99988014  1
  Ni  Ni3  1  0.86932404  0.63067596  0.00000000  1
  Sb  Sb0  1  0.24999701  0.25000299  0.50000000  1
  Sb  Sb1  1  0.75000299  0.74999701  0.50000000  1
loop_
_geom_bond_atom_site_label_1
_geom_bond_atom_site_label_2
_geom_bond_distance
_geom_bond_site_symmetry_2
Ho0 Ni2 2.823717 1_555
Ho0 Ni0 2.824203 1_546
Ho0 Ni1 2.903977 1_556
Ho0 Sb0 3.231045 1_555
Ho0 Sb1 3.231751 1_445
Ho1 Ni1 2.823550 1_556
Ho1 Ni3 2.823556 1_456
Ho1 Ni0 2.904770 1_556
Ho1 Sb0 3.231561 1_555
Ho1 Sb1 3.231570 1_455
Ho2 Ni1 2.824195 1_656
Ho2 Ni3 2.824195 1_556
Ho2 Ni2 2.903036 1_555
Ho2 Sb0 3.231869 1_555
Ho2 Sb1 3.231869 1_545
Ho3 Ni3 2.823550 1_555
Ho3 Ni1 2.823556 1_655
Ho3 Ni2 2.904770 1_554
Ho3 Sb1 3.231561 1_555
Ho3 Sb0 3.231570 1_655
Ho4 Ni2 2.823716 1_565
Ho4 Ni0 2.824197 1_556
Ho4 Ni3 2.903973 1_556
Ho4 Sb1 3.231053 1_555
Ho4 Sb0 3.231749 1_555
Ho5 Ni0 2.823717 1_555
Ho5 Ni2 2.824203 1_564
Ho5 Ni3 2.903977 1_555
Ho5 Sb1 3.231045 1_555
Ho5 Sb0 3.231751 1_665
Ho6 Ni0 2.823716 1_545
Ho6 Ni2 2.824197 1_554
Ho6 Ni1 2.903973 1_555
Ho6 Sb0 3.231053 1_555
Ho6 Sb1 3.231749 1_555
Ho7 Ni3 2.824195 1_455
Ho7 Ni1 2.824195 1_555
Ho7 Ni0 2.903036 1_555
Ho7 Sb1 3.231869 1_555
Ho7 Sb0 3.231869 1_565
Ho8 Ni1 2.969209 1_555
Ho8 Ni3 2.969209 1_555
Ho8 Ni0 2.969514 1_555
Ho8 Ni2 2.969514 1_554
Ho8 Sb0 3.291933 1_554
Ho8 Sb1 3.291933 1_555
Ho9 Ni3 2.969209 1_445
Ho9 Ni1 2.969209 1_555
Ho9 Ni2 2.969514 1_454
Ho9 Ni0 2.969514 1_545
Ho9 Sb0 3.291933 1_555
Ho9 Sb1 3.291933 1_444
