# generated using pymatgen
data_Li9Mn2Co5O16
_symmetry_space_group_name_H-M   'P 1'
_cell_length_a   5.90973244
_cell_length_b   10.11772480
_cell_length_c   5.91015104
_cell_angle_alpha   89.33241548
_cell_angle_beta   120.43902560
_cell_angle_gamma   106.98878681
_symmetry_Int_Tables_number   1
_chemical_formula_structural   Li9Mn2Co5O16
_chemical_formula_sum   'Li9 Mn2 Co5 O16'
_cell_volume   287.36967109
_cell_formula_units_Z   1
loop_
 _symmetry_equiv_pos_site_id
 _symmetry_equiv_pos_as_xyz
  1  'x, y, z'
loop_
 _atom_site_type_symbol
 _atom_site_label
 _atom_site_symmetry_multiplicity
 _atom_site_fract_x
 _atom_site_fract_y
 _atom_site_fract_z
 _atom_site_occupancy
  Li  Li0  1  0.00228000  0.00445900  0.50640900  1
  Li  Li1  1  0.00000000  0.25000000  0.25000000  1
  Li  Li2  1  0.99772000  0.49554100  0.99359100  1
  Li  Li3  1  0.49961500  0.00212900  0.00211000  1
  Li  Li4  1  0.50000000  0.25000000  0.75000000  1
  Li  Li5  1  0.50038500  0.49787100  0.49789000  1
  Li  Li6  1  0.50000000  0.75000000  0.25000000  1
  Li  Li7  1  0.00000000  0.75000000  0.75000000  1
  Li  Li8  1  0.00000000  0.25000000  0.75000000  1
  Mn  Mn0  1  0.99786000  0.00452500  0.00299800  1
  Mn  Mn1  1  0.00214000  0.49547500  0.49700200  1
  Co  Co0  1  0.00000000  0.75000000  0.25000000  1
  Co  Co1  1  0.51038700  0.00912100  0.50551500  1
  Co  Co2  1  0.50000000  0.25000000  0.25000000  1
  Co  Co3  1  0.48961300  0.49087900  0.99448500  1
  Co  Co4  1  0.50000000  0.75000000  0.75000000  1
  O  O0  1  0.76111300  0.87725900  0.11518700  1
  O  O1  1  0.75798300  0.11490000  0.87908100  1
  O  O2  1  0.75705600  0.37815300  0.59322900  1
  O  O3  1  0.26941300  0.87080500  0.62233600  1
  O  O4  1  0.22934400  0.11480900  0.35711600  1
  O  O5  1  0.28829200  0.37542200  0.12682700  1
  O  O6  1  0.23624700  0.61422900  0.84868400  1
  O  O7  1  0.77494100  0.62381900  0.37030300  1
  O  O8  1  0.24294400  0.12184700  0.90677100  1
  O  O9  1  0.24201700  0.38510000  0.62091900  1
  O  O10  1  0.23888700  0.62274100  0.38481300  1
  O  O11  1  0.71170800  0.12457800  0.37317300  1
  O  O12  1  0.77065600  0.38519100  0.14288400  1
  O  O13  1  0.73058700  0.62919500  0.87766400  1
  O  O14  1  0.76375300  0.88577100  0.65131600  1
  O  O15  1  0.22505900  0.87618100  0.12969700  1
loop_
_geom_bond_atom_site_label_1
_geom_bond_atom_site_label_2
_geom_bond_distance
_geom_bond_site_symmetry_2
Li0 O4 2.031495 1_555
Li0 O14 2.091083 1_445
Li0 O0 2.166151 1_445
Li0 O8 2.168133 1_555
Li0 O11 2.207495 1_455
Li0 O3 2.218173 1_545
Li1 O4 2.074249 1_555
Li1 O12 2.074249 1_455
Li1 O1 2.114287 1_454
Li1 O9 2.114287 1_555
Li1 O11 2.239355 1_455
Li1 O5 2.239355 1_555
Li2 O12 2.031495 1_556
Li2 O6 2.091083 1_655
Li2 O10 2.166151 1_656
Li2 O2 2.168133 1_555
Li2 O5 2.207495 1_656
Li2 O13 2.218173 1_555
Li3 O1 2.061424 1_554
Li3 O8 2.068161 1_554
Li3 O11 2.070274 1_555
Li3 O0 2.122693 1_545
Li3 O3 2.138534 1_544
Li3 O15 2.198679 1_545
Li4 O9 2.188579 1_555
Li4 O1 2.188579 1_555
Li4 O4 2.203027 1_555
Li4 O12 2.203027 1_556
Li4 O8 2.257119 1_555
Li4 O2 2.257119 1_555
Li5 O9 2.061424 1_555
Li5 O2 2.068161 1_555
Li5 O5 2.070274 1_555
Li5 O10 2.122693 1_555
Li5 O13 2.138534 1_555
Li5 O7 2.198679 1_555
Li6 O0 2.175929 1_555
Li6 O10 2.175929 1_555
Li6 O15 2.189965 1_555
Li6 O7 2.189965 1_555
Li6 O14 2.240746 1_555
Li6 O6 2.240746 1_554
Li7 O6 2.110324 1_555
Li7 O14 2.110324 1_455
Li7 O15 2.117778 1_556
Li7 O7 2.117778 1_455
Li7 O13 2.157943 1_455
Li7 O3 2.157943 1_555
Li8 O8 2.076778 1_555
Li8 O2 2.076778 1_455
Li8 O11 2.104953 1_455
Li8 O5 2.104953 1_556
Li8 O9 2.105915 1_555
Li8 O1 2.105915 1_455
Mn0 O8 1.909056 1_654
Mn0 O1 1.909763 1_554
Mn0 O4 1.938582 1_655
Mn0 O14 1.962391 1_544
Mn0 O0 1.980525 1_545
Mn0 O15 2.006797 1_645
Mn1 O2 1.909056 1_455
Mn1 O9 1.909763 1_555
Mn1 O12 1.938582 1_455
Mn1 O6 1.962391 1_555
Mn1 O10 1.980525 1_555
Mn1 O7 2.006797 1_455
Co0 O15 1.961933 1_555
Co0 O7 1.961933 1_455
Co0 O10 2.045563 1_555
Co0 O0 2.045563 1_455
Co0 O13 2.060780 1_454
Co0 O3 2.060780 1_555
Co1 O11 1.871185 1_555
Co1 O1 2.006881 1_555
Co1 O4 2.052132 1_555
Co1 O3 2.066955 1_545
Co1 O14 2.074050 1_545
Co1 O15 2.129618 1_545
Co2 O5 1.920682 1_555
Co2 O11 1.920682 1_555
Co2 O2 1.972753 1_555
Co2 O8 1.972753 1_554
Co2 O12 2.134822 1_555
Co2 O4 2.134822 1_555
Co3 O5 1.871185 1_556
Co3 O9 2.006881 1_555
Co3 O12 2.052132 1_556
Co3 O13 2.066955 1_555
Co3 O6 2.074050 1_555
Co3 O7 2.129618 1_556
Co4 O13 1.957102 1_555
Co4 O3 1.957102 1_555
Co4 O0 2.055824 1_556
Co4 O10 2.055824 1_555
Co4 O14 2.075572 1_555
Co4 O6 2.075572 1_555
