# generated using pymatgen
data_Mg3V3(AsO4)4
_symmetry_space_group_name_H-M   'P 1'
_cell_length_a   5.23437600
_cell_length_b   8.99816600
_cell_length_c   15.51227186
_cell_angle_alpha   70.93628496
_cell_angle_beta   90.00000000
_cell_angle_gamma   90.00000000
_symmetry_Int_Tables_number   1
_chemical_formula_structural   Mg3V3(AsO4)4
_chemical_formula_sum   'Mg6 V6 As8 O32'
_cell_volume   690.55423898
_cell_formula_units_Z   2
loop_
 _symmetry_equiv_pos_site_id
 _symmetry_equiv_pos_as_xyz
  1  'x, y, z'
loop_
 _atom_site_type_symbol
 _atom_site_label
 _atom_site_symmetry_multiplicity
 _atom_site_fract_x
 _atom_site_fract_y
 _atom_site_fract_z
 _atom_site_occupancy
  Mg  Mg0  1  0.56616700  0.29881000  0.21026200  1
  Mg  Mg1  1  0.06616700  0.70119000  0.28973800  1
  Mg  Mg2  1  0.43383300  0.70119000  0.78973800  1
  Mg  Mg3  1  0.93383300  0.29881000  0.71026200  1
  Mg  Mg4  1  0.50000000  0.00000000  0.50000000  1
  Mg  Mg5  1  0.00000000  0.00000000  0.00000000  1
  V  V0  1  0.43751600  0.23598500  0.61887500  1
  V  V1  1  0.56248400  0.76401500  0.38112500  1
  V  V2  1  0.93751600  0.76401500  0.88112500  1
  V  V3  1  0.06248400  0.23598500  0.11887500  1
  V  V4  1  0.00000000  0.50000000  0.50000000  1
  V  V5  1  0.50000000  0.50000000  0.00000000  1
  As  As0  1  0.99853800  0.04846800  0.34726500  1
  As  As1  1  0.51768100  0.39058200  0.39694600  1
  As  As2  1  0.01768100  0.60941800  0.10305400  1
  As  As3  1  0.98231900  0.39058200  0.89694600  1
  As  As4  1  0.00146200  0.95153200  0.65273500  1
  As  As5  1  0.48231900  0.60941800  0.60305400  1
  As  As6  1  0.50146200  0.04846800  0.84726500  1
  As  As7  1  0.49853800  0.95153200  0.15273500  1
  O  O0  1  0.42688700  0.79720400  0.25661100  1
  O  O1  1  0.89283200  0.77057300  0.00417300  1
  O  O2  1  0.38187200  0.36870500  0.30118700  1
  O  O3  1  0.38168900  0.11319100  0.17754700  1
  O  O4  1  0.61812800  0.63129500  0.69881300  1
  O  O5  1  0.07311300  0.79720400  0.75661100  1
  O  O6  1  0.88187200  0.63129500  0.19881300  1
  O  O7  1  0.69295800  0.60313900  0.89361300  1
  O  O8  1  0.68347500  0.10035700  0.92244200  1
  O  O9  1  0.57311300  0.20279600  0.74338900  1
  O  O10  1  0.11831100  0.11319100  0.67754700  1
  O  O11  1  0.30704200  0.39686100  0.10638700  1
  O  O12  1  0.30103500  0.56200400  0.41158500  1
  O  O13  1  0.31652500  0.89964300  0.07755800  1
  O  O14  1  0.68811000  0.00159900  0.62265900  1
  O  O15  1  0.18811000  0.99840100  0.87734100  1
  O  O16  1  0.80103500  0.43799600  0.08841500  1
  O  O17  1  0.11812800  0.36870500  0.80118700  1
  O  O18  1  0.18347500  0.89964300  0.57755800  1
  O  O19  1  0.19295800  0.39686100  0.60638700  1
  O  O20  1  0.81189000  0.00159900  0.12265900  1
  O  O21  1  0.31189000  0.99840100  0.37734100  1
  O  O22  1  0.10716800  0.22942700  0.99582700  1
  O  O23  1  0.39283200  0.22942700  0.49582700  1
  O  O24  1  0.69896500  0.43799600  0.58841500  1
  O  O25  1  0.92688700  0.20279600  0.24338900  1
  O  O26  1  0.61831100  0.88680900  0.82245300  1
  O  O27  1  0.81652500  0.10035700  0.42244200  1
  O  O28  1  0.60716800  0.77057300  0.50417300  1
  O  O29  1  0.80704200  0.60313900  0.39361300  1
  O  O30  1  0.19896500  0.56200400  0.91158500  1
  O  O31  1  0.88168900  0.88680900  0.32245300  1
loop_
_geom_bond_atom_site_label_1
_geom_bond_atom_site_label_2
_geom_bond_distance
_geom_bond_site_symmetry_2
Mg0 O2 1.973571 1_555
Mg0 O25 2.070157 1_555
Mg0 O11 2.070230 1_555
Mg0 O3 2.129164 1_555
Mg0 O16 2.259679 1_555
Mg1 O6 1.973571 1_455
Mg1 O0 2.070157 1_555
Mg1 O29 2.070230 1_455
Mg1 O31 2.129164 1_455
Mg1 O12 2.259679 1_555
Mg2 O4 1.973571 1_555
Mg2 O5 2.070157 1_555
Mg2 O7 2.070230 1_555
Mg2 O26 2.129164 1_555
Mg2 O30 2.259679 1_555
Mg3 O17 1.973571 1_655
Mg3 O9 2.070157 1_555
Mg3 O19 2.070230 1_655
Mg3 O10 2.129164 1_655
Mg3 O24 2.259679 1_555
Mg4 O27 2.073218 1_555
Mg4 O18 2.073218 1_545
Mg4 O23 2.119766 1_555
Mg4 O28 2.119766 1_545
Mg4 O14 2.146613 1_555
Mg4 O21 2.146613 1_545
Mg5 O8 2.073218 1_454
Mg5 O13 2.073218 1_545
Mg5 O22 2.119766 1_554
Mg5 O1 2.119766 1_445
Mg5 O15 2.146613 1_544
Mg5 O20 2.146613 1_455
As0 O27 1.685619 1_555
As0 O21 1.724410 1_645
As0 O31 1.733184 1_545
As0 O25 1.789919 1_555
As1 O2 1.715121 1_555
As1 O23 1.851928 1_555
As1 O12 1.986355 1_555
As1 O29 2.426992 1_555
As2 O6 1.715121 1_455
As2 O1 1.851928 1_455
As2 O16 1.986355 1_455
As2 O11 2.426992 1_555
As3 O17 1.715121 1_655
As3 O22 1.851928 1_655
As3 O30 1.986355 1_655
As3 O7 2.426992 1_555
As4 O18 1.685619 1_555
As4 O14 1.724410 1_465
As4 O10 1.733184 1_565
As4 O5 1.789919 1_555
As5 O4 1.715121 1_555
As5 O28 1.851928 1_555
As5 O24 1.986355 1_555
As5 O19 2.426992 1_555
As6 O8 1.685619 1_555
As6 O15 1.724410 1_545
As6 O26 1.733184 1_545
As6 O9 1.789919 1_555
As7 O13 1.685619 1_555
As7 O20 1.724410 1_565
As7 O3 1.733184 1_565
As7 O0 1.789919 1_555
O0 V1 1.986661 1_555
O1 V2 1.942964 1_554
O3 V3 2.045479 1_555
O5 V2 1.986661 1_455
O7 V2 1.894343 1_555
O7 V5 1.898537 1_556
O9 V0 1.986661 1_555
O10 V0 2.045479 1_555
O11 V3 1.894343 1_555
O11 V5 1.898537 1_555
O12 V4 2.043381 1_555
O12 V1 2.199817 1_555
O14 V0 2.468037 1_555
O15 V2 2.468037 1_455
O16 V5 2.043381 1_555
O16 V3 2.199817 1_655
O19 V0 1.894343 1_555
O19 V4 1.898537 1_555
O20 V3 2.468037 1_655
O21 V1 2.468037 1_555
O22 V3 1.942964 1_556
O23 V0 1.942964 1_555
O24 V4 2.043381 1_655
O24 V0 2.199817 1_555
O25 V3 1.986661 1_655
O26 V2 2.045479 1_555
O28 V1 1.942964 1_555
O29 V1 1.894343 1_555
O29 V4 1.898537 1_655
O30 V5 2.043381 1_556
O30 V2 2.199817 1_455
O31 V1 2.045479 1_555
