# generated using pymatgen
data_Ca2CuRh
_symmetry_space_group_name_H-M   'P 1'
_cell_length_a   4.94763180
_cell_length_b   4.94763180
_cell_length_c   4.94763180
_cell_angle_alpha   60.00000000
_cell_angle_beta   60.00000000
_cell_angle_gamma   60.00000000
_symmetry_Int_Tables_number   1
_chemical_formula_structural   Ca2CuRh
_chemical_formula_sum   'Ca2 Cu1 Rh1'
_cell_volume   85.64009099
_cell_formula_units_Z   1
loop_
 _symmetry_equiv_pos_site_id
 _symmetry_equiv_pos_as_xyz
  1  'x, y, z'
loop_
 _atom_site_type_symbol
 _atom_site_label
 _atom_site_symmetry_multiplicity
 _atom_site_fract_x
 _atom_site_fract_y
 _atom_site_fract_z
 _atom_site_occupancy
  Ca  Ca0  1  0.75000000  0.75000000  0.75000000  1
  Ca  Ca1  1  0.25000000  0.25000000  0.25000000  1
  Cu  Cu0  1  0.50000000  0.50000000  0.50000000  1
  Rh  Rh0  1  0.00000000  0.00000000  0.00000000  1
loop_
_geom_bond_atom_site_label_1
_geom_bond_atom_site_label_2
_geom_bond_distance
_geom_bond_site_symmetry_2
Ca0 Cu0 3.029793 1_655
Ca0 Rh0 3.029793 1_566
Ca0 Cu0 3.029793 1_556
Ca0 Rh0 3.029793 1_666
Ca0 Cu0 3.029793 1_565
Ca0 Rh0 3.029793 1_665
Ca0 Cu0 3.029793 1_555
Ca0 Rh0 3.029793 1_656
Ca1 Rh0 3.029793 1_655
Ca1 Cu0 3.029793 1_455
Ca1 Cu0 3.029793 1_554
Ca1 Rh0 3.029793 1_565
Ca1 Cu0 3.029793 1_545
Ca1 Cu0 3.029793 1_555
Ca1 Rh0 3.029793 1_555
Ca1 Rh0 3.029793 1_556
