# generated using pymatgen
data_LiMg6Al
_symmetry_space_group_name_H-M   'P 1'
_cell_length_a   5.01385000
_cell_length_b   6.26713100
_cell_length_c   10.94946400
_cell_angle_alpha   90.00000000
_cell_angle_beta   90.00000000
_cell_angle_gamma   90.00000000
_symmetry_Int_Tables_number   1
_chemical_formula_structural   LiMg6Al
_chemical_formula_sum   'Li2 Mg12 Al2'
_cell_volume   344.05903723
_cell_formula_units_Z   2
loop_
 _symmetry_equiv_pos_site_id
 _symmetry_equiv_pos_as_xyz
  1  'x, y, z'
loop_
 _atom_site_type_symbol
 _atom_site_label
 _atom_site_symmetry_multiplicity
 _atom_site_fract_x
 _atom_site_fract_y
 _atom_site_fract_z
 _atom_site_occupancy
  Li  Li0  1  0.50000000  0.50000000  0.16721600  1
  Li  Li1  1  0.50000000  0.00000000  0.66721600  1
  Mg  Mg0  1  0.50000000  0.25066900  0.41651700  1
  Mg  Mg1  1  0.50000000  0.74933100  0.41651700  1
  Mg  Mg2  1  0.00000000  0.75052300  0.08538900  1
  Mg  Mg3  1  0.00000000  0.24947700  0.08538900  1
  Mg  Mg4  1  0.00000000  0.00000000  0.33100200  1
  Mg  Mg5  1  0.00000000  0.50000000  0.33181700  1
  Mg  Mg6  1  0.50000000  0.75066900  0.91651700  1
  Mg  Mg7  1  0.50000000  0.24933100  0.91651700  1
  Mg  Mg8  1  0.00000000  0.25052300  0.58538900  1
  Mg  Mg9  1  0.00000000  0.74947700  0.58538900  1
  Mg  Mg10  1  0.00000000  0.50000000  0.83100200  1
  Mg  Mg11  1  0.00000000  0.00000000  0.83181700  1
  Al  Al0  1  0.50000000  0.00000000  0.16615000  1
  Al  Al1  1  0.50000000  0.50000000  0.66615000  1
loop_
_geom_bond_atom_site_label_1
_geom_bond_atom_site_label_2
_geom_bond_distance
_geom_bond_site_symmetry_2
Li0 Mg5 3.087545 1_555
Li0 Mg5 3.087545 1_655
Li0 Mg2 3.090714 1_655
Li0 Mg2 3.090714 1_555
Li0 Mg3 3.090714 1_555
Li0 Mg3 3.090714 1_655
Li0 Mg1 3.145317 1_555
Li0 Mg0 3.145317 1_555
Li0 Mg6 3.162767 1_554
Li0 Mg7 3.162767 1_554
Li1 Mg11 3.087545 1_555
Li1 Mg11 3.087545 1_655
Li1 Mg8 3.090714 1_555
Li1 Mg8 3.090714 1_655
Li1 Mg9 3.090714 1_545
Li1 Mg9 3.090714 1_645
Li1 Mg7 3.145317 1_555
Li1 Mg6 3.145317 1_545
Li1 Mg0 3.162767 1_555
Li1 Mg1 3.162767 1_545
Mg0 Mg5 3.096202 1_655
Mg0 Mg5 3.096202 1_555
Mg0 Mg4 3.103124 1_655
Mg0 Mg4 3.103124 1_555
Mg0 Mg8 3.115074 1_555
Mg0 Mg8 3.115074 1_655
Mg0 Mg1 3.125180 1_555
Mg0 Mg1 3.141951 1_545
Mg1 Mg5 3.096202 1_555
Mg1 Mg5 3.096202 1_655
Mg1 Mg4 3.103124 1_565
Mg1 Mg4 3.103124 1_665
Mg1 Mg9 3.115074 1_555
Mg1 Mg9 3.115074 1_655
Mg2 Mg4 3.110795 1_565
Mg2 Mg6 3.115074 1_554
Mg2 Mg6 3.115074 1_454
Mg2 Mg5 3.121805 1_555
Mg2 Mg3 3.127010 1_565
Mg2 Mg3 3.140121 1_555
Mg3 Mg4 3.110795 1_555
Mg3 Mg7 3.115074 1_554
Mg3 Mg7 3.115074 1_454
Mg3 Mg5 3.121805 1_555
Mg4 Mg5 3.133578 1_545
Mg4 Mg5 3.133578 1_555
Mg4 Mg8 3.197429 1_555
Mg4 Mg9 3.197429 1_545
Mg5 Mg8 3.186436 1_555
Mg5 Mg9 3.186436 1_555
Mg6 Mg7 3.125180 1_565
Mg6 Mg7 3.141951 1_555
Mg8 Mg9 3.127010 1_555
Mg8 Mg9 3.140121 1_545
Mg10 Mg6 3.103124 1_455
Mg10 Mg6 3.103124 1_555
Mg10 Mg7 3.103124 1_555
Mg10 Mg7 3.103124 1_455
Mg10 Mg9 3.110795 1_555
Mg10 Mg8 3.110795 1_555
Mg10 Mg11 3.133578 1_565
Mg10 Mg11 3.133578 1_555
Mg10 Mg2 3.197429 1_556
Mg10 Mg3 3.197429 1_556
Mg11 Mg7 3.096202 1_555
Mg11 Mg7 3.096202 1_455
Mg11 Mg6 3.096202 1_445
Mg11 Mg6 3.096202 1_545
Mg11 Mg8 3.121805 1_555
Mg11 Mg9 3.121805 1_545
Mg11 Mg3 3.186436 1_556
Mg11 Mg2 3.186436 1_546
Al0 Mg3 3.084022 1_555
Al0 Mg3 3.084022 1_655
Al0 Mg2 3.084022 1_645
Al0 Mg2 3.084022 1_545
Al0 Mg4 3.089150 1_655
Al0 Mg4 3.089150 1_555
Al0 Li0 3.133587 1_555
Al0 Li0 3.133587 1_545
Al0 Mg7 3.148472 1_554
Al0 Mg6 3.148472 1_544
Al0 Mg0 3.159613 1_555
Al0 Mg1 3.159613 1_545
Al1 Mg9 3.084022 1_655
Al1 Mg8 3.084022 1_555
Al1 Mg8 3.084022 1_655
Al1 Mg9 3.084022 1_555
Al1 Mg10 3.089150 1_555
Al1 Mg10 3.089150 1_655
Al1 Li1 3.133587 1_555
Al1 Li1 3.133587 1_565
Al1 Mg0 3.148472 1_555
Al1 Mg1 3.148472 1_555
Al1 Mg6 3.159613 1_555
Al1 Mg7 3.159613 1_555
