# generated using pymatgen
data_K5Na3TaNb7O24
_symmetry_space_group_name_H-M   'P 1'
_cell_length_a   8.07753744
_cell_length_b   8.07753744
_cell_length_c   8.07650001
_cell_angle_alpha   89.99781787
_cell_angle_beta   89.99781787
_cell_angle_gamma   89.99798370
_symmetry_Int_Tables_number   1
_chemical_formula_structural   K5Na3TaNb7O24
_chemical_formula_sum   'K5 Na3 Ta1 Nb7 O24'
_cell_volume   526.96425451
_cell_formula_units_Z   1
loop_
 _symmetry_equiv_pos_site_id
 _symmetry_equiv_pos_as_xyz
  1  'x, y, z'
loop_
 _atom_site_type_symbol
 _atom_site_label
 _atom_site_symmetry_multiplicity
 _atom_site_fract_x
 _atom_site_fract_y
 _atom_site_fract_z
 _atom_site_occupancy
  K  K0  1  0.74996000  0.74996000  0.74994800  1
  K  K1  1  0.74995100  0.25004000  0.74994500  1
  K  K2  1  0.25004000  0.74995100  0.74994500  1
  K  K3  1  0.25004600  0.25004600  0.74993900  1
  K  K4  1  0.25003900  0.25003900  0.25004900  1
  Na  Na0  1  0.75001400  0.75001400  0.24998500  1
  Na  Na1  1  0.75001400  0.24998400  0.24998400  1
  Na  Na2  1  0.24998400  0.75001400  0.24998400  1
  Ta  Ta0  1  0.99963300  0.99963300  0.00110200  1
  Nb  Nb0  1  0.99964500  0.99964500  0.49896600  1
  Nb  Nb1  1  0.99965100  0.50034000  0.00105900  1
  Nb  Nb2  1  0.99964900  0.50035500  0.49893400  1
  Nb  Nb3  1  0.50034000  0.99965100  0.00105900  1
  Nb  Nb4  1  0.50035500  0.99964900  0.49893400  1
  Nb  Nb5  1  0.50035500  0.50035500  0.00105800  1
  Nb  Nb6  1  0.50035400  0.50035400  0.49894400  1
  O  O0  1  0.75103400  0.99986300  0.00202600  1
  O  O1  1  0.75005900  0.99987200  0.49798700  1
  O  O2  1  0.75005800  0.50012700  0.00201900  1
  O  O3  1  0.75001300  0.50012800  0.49797300  1
  O  O4  1  0.24893000  0.99904000  0.00122900  1
  O  O5  1  0.24993600  0.99904300  0.49879000  1
  O  O6  1  0.24993700  0.50095400  0.00121400  1
  O  O7  1  0.24998400  0.50095900  0.49878200  1
  O  O8  1  0.99986300  0.75103400  0.00202600  1
  O  O9  1  0.99987200  0.75005900  0.49798700  1
  O  O10  1  0.99904000  0.24893000  0.00122900  1
  O  O11  1  0.99904300  0.24993600  0.49879000  1
  O  O12  1  0.50012700  0.75005800  0.00201900  1
  O  O13  1  0.50012800  0.75001300  0.49797300  1
  O  O14  1  0.50095400  0.24993700  0.00121400  1
  O  O15  1  0.50095900  0.24998400  0.49878200  1
  O  O16  1  0.99986600  0.99986600  0.75110200  1
  O  O17  1  0.99906500  0.99906500  0.24900200  1
  O  O18  1  0.99987100  0.50012600  0.75006700  1
  O  O19  1  0.99906800  0.50092800  0.24994600  1
  O  O20  1  0.50012600  0.99987100  0.75006700  1
  O  O21  1  0.50092800  0.99906800  0.24994600  1
  O  O22  1  0.50012700  0.50012700  0.75001300  1
  O  O23  1  0.50093500  0.50093500  0.24998400  1
loop_
_geom_bond_atom_site_label_1
_geom_bond_atom_site_label_2
_geom_bond_distance
_geom_bond_site_symmetry_2
K0 O22 2.853983 1_555
K0 O18 2.854334 1_555
K0 O20 2.854334 1_555
K0 O16 2.854833 1_555
K0 O13 2.866057 1_555
K0 O3 2.866057 1_555
K0 O1 2.866323 1_555
K0 O9 2.866323 1_555
K0 O2 2.866504 1_556
K0 O12 2.866504 1_556
K0 O0 2.867065 1_556
K0 O8 2.867065 1_556
K1 O22 2.855283 1_555
K1 O20 2.855858 1_545
K1 O18 2.855926 1_555
K1 O16 2.856314 1_545
K1 O15 2.856622 1_555
K1 O11 2.857037 1_555
K1 O14 2.857150 1_556
K1 O10 2.857882 1_556
K1 O3 2.867387 1_555
K1 O1 2.867871 1_545
K1 O2 2.868075 1_556
K1 O0 2.868531 1_546
K2 O22 2.855283 1_555
K2 O18 2.855858 1_455
K2 O20 2.855926 1_555
K2 O16 2.856314 1_455
K2 O7 2.856622 1_555
K2 O5 2.857037 1_555
K2 O6 2.857150 1_556
K2 O4 2.857882 1_556
K2 O13 2.867387 1_555
K2 O9 2.867871 1_455
K2 O12 2.868075 1_556
K2 O8 2.868531 1_456
K3 O22 2.856816 1_555
K3 O18 2.857247 1_455
K3 O20 2.857247 1_545
K3 O16 2.857962 1_445
K3 O7 2.867425 1_555
K3 O15 2.867425 1_555
K3 O5 2.868003 1_545
K3 O11 2.868003 1_455
K3 O14 2.868180 1_556
K3 O6 2.868180 1_556
K3 O4 2.868730 1_546
K3 O10 2.868730 1_456
K4 O15 2.853759 1_555
K4 O7 2.853759 1_555
K4 O5 2.854132 1_545
K4 O11 2.854132 1_455
K4 O14 2.854202 1_555
K4 O6 2.854202 1_555
K4 O4 2.854721 1_545
K4 O10 2.854721 1_455
K4 O23 2.866127 1_555
K4 O21 2.866414 1_545
K4 O19 2.866414 1_455
K4 O17 2.867030 1_445
Na0 O8 2.843118 1_555
Na0 O0 2.843118 1_555
Na0 O12 2.843472 1_555
Na0 O2 2.843472 1_555
Na0 O13 2.843483 1_555
Na0 O3 2.843483 1_555
Na0 O9 2.843510 1_555
Na0 O1 2.843510 1_555
Na0 O17 2.845061 1_555
Na0 O19 2.845167 1_555
Na0 O21 2.845167 1_555
Na0 O23 2.845370 1_555
Na1 O10 2.842943 1_555
Na1 O14 2.843319 1_555
Na1 O15 2.843342 1_555
Na1 O11 2.843347 1_555
Na1 O0 2.844780 1_545
Na1 O2 2.844826 1_555
Na1 O1 2.844864 1_545
Na1 O3 2.845077 1_555
Na1 O17 2.855650 1_545
Na1 O19 2.855900 1_555
Na1 O21 2.855922 1_545
Na1 O23 2.855982 1_555
Na2 O4 2.842943 1_555
Na2 O6 2.843319 1_555
Na2 O7 2.843342 1_555
Na2 O5 2.843347 1_555
Na2 O8 2.844780 1_455
Na2 O12 2.844826 1_555
Na2 O9 2.844864 1_455
Na2 O13 2.845077 1_555
Na2 O17 2.855650 1_455
Na2 O21 2.855900 1_555
Na2 O19 2.855922 1_455
Na2 O23 2.855982 1_555
Nb0 O9 2.016057 1_555
Nb0 O1 2.016057 1_555
Nb0 O17 2.018845 1_555
Nb0 O11 2.021741 1_565
Nb0 O5 2.021741 1_655
Nb0 O16 2.036378 1_555
Nb1 O19 2.010147 1_555
Nb1 O2 2.016112 1_555
Nb1 O6 2.021701 1_655
Nb1 O8 2.025006 1_555
Nb1 O18 2.027138 1_554
Nb1 O10 2.030780 1_555
Nb2 O19 2.010962 1_555
Nb2 O3 2.016460 1_555
Nb2 O9 2.017008 1_555
Nb2 O7 2.022097 1_655
Nb2 O11 2.022775 1_555
Nb2 O18 2.028277 1_555
Nb3 O21 2.010147 1_555
Nb3 O12 2.016112 1_555
Nb3 O14 2.021701 1_565
Nb3 O0 2.025006 1_555
Nb3 O20 2.027138 1_554
Nb3 O4 2.030780 1_555
Nb4 O21 2.010962 1_555
Nb4 O13 2.016460 1_555
Nb4 O1 2.017008 1_555
Nb4 O15 2.022097 1_565
Nb4 O5 2.022775 1_555
Nb4 O20 2.028277 1_555
Nb5 O23 2.010462 1_555
Nb5 O12 2.017001 1_555
Nb5 O2 2.017001 1_555
Nb5 O14 2.022767 1_555
Nb5 O6 2.022767 1_555
Nb5 O22 2.027567 1_554
Nb6 O23 2.010736 1_555
Nb6 O13 2.016646 1_555
Nb6 O3 2.016646 1_555
Nb6 O7 2.022379 1_555
Nb6 O15 2.022379 1_555
Nb6 O22 2.027760 1_555
O0 Ta0 2.008082 1_555
O4 Ta0 2.013712 1_455
O8 Ta0 2.008082 1_555
O10 Ta0 2.013712 1_545
O16 Ta0 2.019127 1_556
O17 Ta0 2.002175 1_555
