# generated using pymatgen
data_Mn3Nb8FeO24
_symmetry_space_group_name_H-M   'P 1'
_cell_length_a   5.88630500
_cell_length_b   5.14354500
_cell_length_c   14.59176320
_cell_angle_alpha   89.84528456
_cell_angle_beta   90.00000000
_cell_angle_gamma   90.00000000
_symmetry_Int_Tables_number   1
_chemical_formula_structural   Mn3Nb8FeO24
_chemical_formula_sum   'Mn3 Nb8 Fe1 O24'
_cell_volume   441.78553793
_cell_formula_units_Z   1
loop_
 _symmetry_equiv_pos_site_id
 _symmetry_equiv_pos_as_xyz
  1  'x, y, z'
loop_
 _atom_site_type_symbol
 _atom_site_label
 _atom_site_symmetry_multiplicity
 _atom_site_fract_x
 _atom_site_fract_y
 _atom_site_fract_z
 _atom_site_occupancy
  Mn  Mn0  1  0.17622200  0.00000000  0.50000000  1
  Mn  Mn1  1  0.67288800  0.00000000  0.00000000  1
  Mn  Mn2  1  0.82379200  0.50000000  0.50000000  1
  Nb  Nb0  1  0.31847800  0.50817300  0.66265400  1
  Nb  Nb1  1  0.18132200  0.00699500  0.83923300  1
  Nb  Nb2  1  0.18132200  0.99300500  0.16076700  1
  Nb  Nb3  1  0.31847800  0.49182700  0.33734600  1
  Nb  Nb4  1  0.68111200  0.99161700  0.33758200  1
  Nb  Nb5  1  0.81916000  0.49142300  0.16151500  1
  Nb  Nb6  1  0.81916000  0.50857700  0.83848500  1
  Nb  Nb7  1  0.68111200  0.00838300  0.66241800  1
  Fe  Fe0  1  0.33082400  0.50000000  0.00000000  1
  O  O0  1  0.12807800  0.66215200  0.24411800  1
  O  O1  1  0.37195000  0.16089000  0.25494900  1
  O  O2  1  0.37195000  0.83911000  0.74505100  1
  O  O3  1  0.12807800  0.33784800  0.75588200  1
  O  O4  1  0.87245100  0.83811300  0.75649300  1
  O  O5  1  0.62905600  0.33901800  0.74483800  1
  O  O6  1  0.62905600  0.66098200  0.25516200  1
  O  O7  1  0.87245100  0.16188700  0.24350700  1
  O  O8  1  0.10199900  0.68569800  0.90289100  1
  O  O9  1  0.39989300  0.18955400  0.59868000  1
  O  O10  1  0.39989300  0.81044600  0.40132000  1
  O  O11  1  0.10199900  0.31430200  0.09710900  1
  O  O12  1  0.89786100  0.81251100  0.09836500  1
  O  O13  1  0.60089300  0.31026600  0.40123400  1
  O  O14  1  0.60089300  0.68973400  0.59876600  1
  O  O15  1  0.89786100  0.18748900  0.90163500  1
  O  O16  1  0.11784600  0.65441500  0.58124500  1
  O  O17  1  0.37990200  0.15865600  0.91938000  1
  O  O18  1  0.37990200  0.84134400  0.08062000  1
  O  O19  1  0.11784600  0.34558500  0.41875500  1
  O  O20  1  0.88224600  0.84572600  0.41879000  1
  O  O21  1  0.61589100  0.34783200  0.08061100  1
  O  O22  1  0.61589100  0.65216800  0.91938900  1
  O  O23  1  0.88224600  0.15427400  0.58121000  1
loop_
_geom_bond_atom_site_label_1
_geom_bond_atom_site_label_2
_geom_bond_distance
_geom_bond_site_symmetry_2
Mn0 O19 2.161421 1_555
Mn0 O16 2.161421 1_545
Mn0 O10 2.182876 1_545
Mn0 O9 2.182876 1_555
Mn0 O20 2.243515 1_445
Mn0 O23 2.243515 1_455
Mn1 O22 2.169873 1_544
Mn1 O21 2.169873 1_555
Mn1 O12 2.176308 1_545
Mn1 O15 2.176308 1_554
Mn1 O17 2.240293 1_554
Mn1 O18 2.240293 1_545
Mn2 O20 2.161811 1_555
Mn2 O23 2.161811 1_555
Mn2 O14 2.181384 1_555
Mn2 O13 2.181384 1_555
Mn2 O16 2.244397 1_655
Mn2 O19 2.244397 1_655
Nb0 O16 1.834886 1_555
Nb0 O9 1.948103 1_555
Nb0 O3 1.966656 1_555
Nb0 O2 2.110246 1_555
Nb0 O14 2.121317 1_555
Nb0 O5 2.351940 1_555
Nb1 O17 1.829611 1_555
Nb1 O8 1.950295 1_545
Nb1 O2 1.974798 1_545
Nb1 O3 2.112406 1_555
Nb1 O15 2.116502 1_455
Nb1 O4 2.350185 1_445
Nb2 O18 1.829611 1_555
Nb2 O11 1.950295 1_565
Nb2 O1 1.974798 1_565
Nb2 O0 2.112406 1_555
Nb2 O12 2.116502 1_455
Nb2 O7 2.350185 1_465
Nb3 O19 1.834886 1_555
Nb3 O10 1.948103 1_555
Nb3 O0 1.966656 1_555
Nb3 O1 2.110246 1_555
Nb3 O13 2.121317 1_555
Nb3 O6 2.351940 1_555
Nb4 O20 1.834161 1_555
Nb4 O13 1.944253 1_565
Nb4 O7 1.978228 1_565
Nb4 O6 2.107955 1_555
Nb4 O10 2.113961 1_555
Nb4 O1 2.349042 1_565
Nb5 O21 1.837244 1_555
Nb5 O12 1.945006 1_555
Nb5 O6 1.971419 1_555
Nb5 O7 2.095664 1_555
Nb5 O11 2.118875 1_655
Nb5 O0 2.352913 1_655
Nb6 O22 1.837244 1_555
Nb6 O15 1.945006 1_555
Nb6 O5 1.971419 1_555
Nb6 O4 2.095664 1_555
Nb6 O8 2.118875 1_655
Nb6 O3 2.352913 1_655
Nb7 O23 1.834161 1_555
Nb7 O14 1.944253 1_545
Nb7 O4 1.978228 1_545
Nb7 O5 2.107955 1_555
Nb7 O9 2.113961 1_555
Nb7 O2 2.349042 1_545
Fe0 O17 2.135661 1_554
Fe0 O18 2.135661 1_555
Fe0 O8 2.174187 1_554
Fe0 O11 2.174187 1_555
Fe0 O22 2.192454 1_554
Fe0 O21 2.192454 1_555
