# generated using pymatgen
data_K2RbCeBr6
_symmetry_space_group_name_H-M   'P 1'
_cell_length_a   8.69921936
_cell_length_b   8.69921936
_cell_length_c   8.69921936
_cell_angle_alpha   60.00000000
_cell_angle_beta   60.00000000
_cell_angle_gamma   60.00000000
_symmetry_Int_Tables_number   1
_chemical_formula_structural   K2RbCeBr6
_chemical_formula_sum   'K2 Rb1 Ce1 Br6'
_cell_volume   465.50660617
_cell_formula_units_Z   1
loop_
 _symmetry_equiv_pos_site_id
 _symmetry_equiv_pos_as_xyz
  1  'x, y, z'
loop_
 _atom_site_type_symbol
 _atom_site_label
 _atom_site_symmetry_multiplicity
 _atom_site_fract_x
 _atom_site_fract_y
 _atom_site_fract_z
 _atom_site_occupancy
  K  K0  1  0.75000000  0.75000000  0.75000000  1
  K  K1  1  0.25000000  0.25000000  0.25000000  1
  Rb  Rb0  1  0.50000000  0.50000000  0.50000000  1
  Ce  Ce0  1  0.00000000  0.00000000  0.00000000  1
  Br  Br0  1  0.76455500  0.23544500  0.23544500  1
  Br  Br1  1  0.23544500  0.23544500  0.76455500  1
  Br  Br2  1  0.23544500  0.76455500  0.76455500  1
  Br  Br3  1  0.23544500  0.76455500  0.23544500  1
  Br  Br4  1  0.76455500  0.23544500  0.76455500  1
  Br  Br5  1  0.76455500  0.76455500  0.23544500  1
loop_
_geom_bond_atom_site_label_1
_geom_bond_atom_site_label_2
_geom_bond_distance
_geom_bond_site_symmetry_2
Br0 Ce0 2.896575 1_655
Br0 Rb0 3.254702 1_555
Br1 Ce0 2.896575 1_556
Br1 Rb0 3.254702 1_555
Br2 Ce0 2.896575 1_566
Br2 Rb0 3.254702 1_555
Br3 Ce0 2.896575 1_565
Br3 Rb0 3.254702 1_555
Br4 Ce0 2.896575 1_656
Br4 Rb0 3.254702 1_555
Br5 Ce0 2.896575 1_665
Br5 Rb0 3.254702 1_555
