# generated using pymatgen
data_Mg6VFe
_symmetry_space_group_name_H-M   'P 1'
_cell_length_a   4.85853400
_cell_length_b   6.09217100
_cell_length_c   10.58982400
_cell_angle_alpha   90.00000000
_cell_angle_beta   90.00000000
_cell_angle_gamma   90.00000000
_symmetry_Int_Tables_number   1
_chemical_formula_structural   Mg6VFe
_chemical_formula_sum   'Mg12 V2 Fe2'
_cell_volume   313.44841171
_cell_formula_units_Z   2
loop_
 _symmetry_equiv_pos_site_id
 _symmetry_equiv_pos_as_xyz
  1  'x, y, z'
loop_
 _atom_site_type_symbol
 _atom_site_label
 _atom_site_symmetry_multiplicity
 _atom_site_fract_x
 _atom_site_fract_y
 _atom_site_fract_z
 _atom_site_occupancy
  Mg  Mg0  1  0.50000000  0.25064200  0.42054800  1
  Mg  Mg1  1  0.50000000  0.74935800  0.42054800  1
  Mg  Mg2  1  0.00000000  0.75265000  0.08725400  1
  Mg  Mg3  1  0.00000000  0.24735000  0.08725400  1
  Mg  Mg4  1  0.00000000  0.00000000  0.32106600  1
  Mg  Mg5  1  0.00000000  0.50000000  0.32540300  1
  Mg  Mg6  1  0.50000000  0.75064200  0.92054800  1
  Mg  Mg7  1  0.50000000  0.24935800  0.92054800  1
  Mg  Mg8  1  0.00000000  0.25265000  0.58725400  1
  Mg  Mg9  1  0.00000000  0.74735000  0.58725400  1
  Mg  Mg10  1  0.00000000  0.50000000  0.82106600  1
  Mg  Mg11  1  0.00000000  0.00000000  0.82540300  1
  V  V0  1  0.50000000  0.50000000  0.16997200  1
  V  V1  1  0.50000000  0.00000000  0.66997200  1
  Fe  Fe0  1  0.50000000  0.00000000  0.16795000  1
  Fe  Fe1  1  0.50000000  0.50000000  0.66795000  1
loop_
_geom_bond_atom_site_label_1
_geom_bond_atom_site_label_2
_geom_bond_distance
_geom_bond_site_symmetry_2
Mg0 Mg8 3.003012 1_555
Mg0 Mg8 3.003012 1_655
Mg0 Mg5 3.037152 1_655
Mg0 Mg5 3.037152 1_555
Mg0 Mg1 3.038263 1_555
Mg0 V1 3.050959 1_555
Mg0 Mg1 3.053908 1_545
Mg0 Mg4 3.056596 1_555
Mg0 Mg4 3.056596 1_655
Mg0 V0 3.057633 1_555
Mg1 Mg9 3.003012 1_655
Mg1 Mg9 3.003012 1_555
Mg1 Mg5 3.037152 1_655
Mg1 Mg5 3.037152 1_555
Mg1 V1 3.050959 1_565
Mg1 Mg4 3.056596 1_565
Mg1 Mg4 3.056596 1_665
Mg1 V0 3.057633 1_555
Mg2 Mg4 2.898527 1_565
Mg2 Mg5 2.954549 1_555
Mg2 Mg6 3.003012 1_454
Mg2 Mg6 3.003012 1_554
Mg2 V0 3.006286 1_455
Mg2 V0 3.006286 1_555
Mg2 Mg3 3.013797 1_565
Mg2 Mg3 3.078374 1_555
Mg3 Mg4 2.898527 1_555
Mg3 Mg5 2.954549 1_555
Mg3 Mg7 3.003012 1_554
Mg3 Mg7 3.003012 1_454
Mg3 V0 3.006286 1_455
Mg3 V0 3.006286 1_555
Mg4 Mg5 3.046432 1_545
Mg4 Mg5 3.046432 1_555
Mg4 Mg9 3.211729 1_545
Mg4 Mg8 3.211729 1_555
Mg5 V0 2.934384 1_555
Mg5 V0 2.934384 1_455
Mg5 Mg8 3.155951 1_555
Mg5 Mg9 3.155951 1_555
Mg6 Mg7 3.038263 1_565
Mg6 V0 3.050959 1_556
Mg6 Mg7 3.053908 1_555
Mg6 V1 3.057633 1_565
Mg7 V0 3.050959 1_556
Mg7 V1 3.057633 1_555
Mg8 V1 3.006286 1_555
Mg8 V1 3.006286 1_455
Mg8 Mg9 3.013797 1_555
Mg8 Mg9 3.078374 1_545
Mg9 V1 3.006286 1_565
Mg9 V1 3.006286 1_465
Mg10 Mg8 2.898527 1_555
Mg10 Mg9 2.898527 1_555
Mg10 Mg11 3.046432 1_555
Mg10 Mg11 3.046432 1_565
Mg10 Mg6 3.056596 1_455
Mg10 Mg6 3.056596 1_555
Mg10 Mg7 3.056596 1_455
Mg10 Mg7 3.056596 1_555
Mg10 Mg3 3.211729 1_556
Mg10 Mg2 3.211729 1_556
Mg11 V1 2.934384 1_455
Mg11 V1 2.934384 1_555
Mg11 Mg9 2.954549 1_545
Mg11 Mg8 2.954549 1_555
Mg11 Mg7 3.037152 1_455
Mg11 Mg7 3.037152 1_555
Mg11 Mg6 3.037152 1_445
Mg11 Mg6 3.037152 1_545
Mg11 Mg2 3.155951 1_546
Mg11 Mg3 3.155951 1_556
Fe0 Mg4 2.920703 1_555
Fe0 Mg4 2.920703 1_655
Fe0 Mg3 2.983680 1_655
Fe0 Mg2 2.983680 1_645
Fe0 Mg2 2.983680 1_545
Fe0 Mg3 2.983680 1_555
Fe0 Mg7 3.028509 1_554
Fe0 Mg6 3.028509 1_544
Fe0 V0 3.046161 1_545
Fe0 V0 3.046161 1_555
Fe0 Mg1 3.080105 1_545
Fe0 Mg0 3.080105 1_555
Fe1 Mg10 2.920703 1_555
Fe1 Mg10 2.920703 1_655
Fe1 Mg8 2.983680 1_655
Fe1 Mg8 2.983680 1_555
Fe1 Mg9 2.983680 1_555
Fe1 Mg9 2.983680 1_655
Fe1 Mg1 3.028509 1_555
Fe1 Mg0 3.028509 1_555
Fe1 V1 3.046161 1_565
Fe1 V1 3.046161 1_555
Fe1 Mg6 3.080105 1_555
Fe1 Mg7 3.080105 1_555
