# generated using pymatgen
data_CaB3O8
_symmetry_space_group_name_H-M   'P 1'
_cell_length_a   11.53694700
_cell_length_b   5.95058000
_cell_length_c   8.67086665
_cell_angle_alpha   71.31703124
_cell_angle_beta   90.00000000
_cell_angle_gamma   90.00000000
_symmetry_Int_Tables_number   1
_chemical_formula_structural   CaB3O8
_chemical_formula_sum   'Ca4 B12 O32'
_cell_volume   563.90088915
_cell_formula_units_Z   4
loop_
 _symmetry_equiv_pos_site_id
 _symmetry_equiv_pos_as_xyz
  1  'x, y, z'
loop_
 _atom_site_type_symbol
 _atom_site_label
 _atom_site_symmetry_multiplicity
 _atom_site_fract_x
 _atom_site_fract_y
 _atom_site_fract_z
 _atom_site_occupancy
  Ca  Ca0  1  0.20869800  0.27530500  0.63579200  1
  Ca  Ca1  1  0.70869800  0.72469500  0.86420800  1
  Ca  Ca2  1  0.79130200  0.72469500  0.36420800  1
  Ca  Ca3  1  0.29130200  0.27530500  0.13579200  1
  B  B0  1  0.28900000  0.69739000  0.83292100  1
  B  B1  1  0.78900000  0.30261000  0.66707900  1
  B  B2  1  0.71100000  0.30261000  0.16707900  1
  B  B3  1  0.21100000  0.69739000  0.33292100  1
  B  B4  1  0.45334700  0.51634100  0.71918900  1
  B  B5  1  0.95334700  0.48365900  0.78081100  1
  B  B6  1  0.54665300  0.48365900  0.28081100  1
  B  B7  1  0.04665300  0.51634100  0.21918900  1
  B  B8  1  0.33275800  0.85307200  0.53725100  1
  B  B9  1  0.83275800  0.14692800  0.96274900  1
  B  B10  1  0.66724200  0.14692800  0.46274900  1
  B  B11  1  0.16724200  0.85307200  0.03725100  1
  O  O0  1  0.35521200  0.49733100  0.84212800  1
  O  O1  1  0.85521200  0.50266900  0.65787200  1
  O  O2  1  0.64478800  0.50266900  0.15787200  1
  O  O3  1  0.14478800  0.49733100  0.34212800  1
  O  O4  1  0.27777700  0.87898700  0.68951000  1
  O  O5  1  0.77777700  0.12101300  0.81049000  1
  O  O6  1  0.72222300  0.12101300  0.31049000  1
  O  O7  1  0.22222300  0.87898700  0.18951000  1
  O  O8  1  0.44398400  0.73479800  0.57999000  1
  O  O9  1  0.94398400  0.26520200  0.92001000  1
  O  O10  1  0.55601600  0.26520200  0.42001000  1
  O  O11  1  0.05601600  0.73479800  0.07999000  1
  O  O12  1  0.24224500  0.68964900  0.97923500  1
  O  O13  1  0.74224500  0.31035100  0.52076500  1
  O  O14  1  0.75775500  0.31035100  0.02076500  1
  O  O15  1  0.25775500  0.68964900  0.47923500  1
  O  O16  1  0.56368000  0.49711100  0.79273200  1
  O  O17  1  0.06368000  0.50288900  0.70726800  1
  O  O18  1  0.43632000  0.50288900  0.20726800  1
  O  O19  1  0.93632000  0.49711100  0.29273200  1
  O  O20  1  0.43490800  0.31078300  0.66834500  1
  O  O21  1  0.93490800  0.68921700  0.83165500  1
  O  O22  1  0.56509200  0.68921700  0.33165500  1
  O  O23  1  0.06509200  0.31078300  0.16834500  1
  O  O24  1  0.32700200  0.07809600  0.41111600  1
  O  O25  1  0.82700200  0.92190400  0.08888400  1
  O  O26  1  0.67299800  0.92190400  0.58888400  1
  O  O27  1  0.17299800  0.07809600  0.91111600  1
  O  O28  1  0.01072900  0.04441400  0.55365200  1
  O  O29  1  0.51072900  0.95558600  0.94634800  1
  O  O30  1  0.98927100  0.95558600  0.44634800  1
  O  O31  1  0.48927100  0.04441400  0.05365200  1
loop_
_geom_bond_atom_site_label_1
_geom_bond_atom_site_label_2
_geom_bond_distance
_geom_bond_site_symmetry_2
Ca0 O27 2.334764 1_555
Ca0 O17 2.356900 1_555
Ca0 O4 2.389568 1_545
Ca0 O15 2.469394 1_555
Ca0 O3 2.572477 1_555
Ca0 O20 2.640707 1_555
Ca0 O28 2.870252 1_555
Ca0 O24 2.915453 1_555
Ca0 O0 3.052541 1_555
Ca1 O26 2.334764 1_555
Ca1 O16 2.356900 1_555
Ca1 O5 2.389568 1_565
Ca1 O14 2.469394 1_556
Ca1 O2 2.572477 1_556
Ca1 O21 2.640707 1_555
Ca1 O29 2.870252 1_555
Ca1 O25 2.915453 1_556
Ca1 O1 3.052541 1_555
Ca2 O25 2.334764 1_555
Ca2 O19 2.356900 1_555
Ca2 O6 2.389568 1_565
Ca2 O13 2.469394 1_555
Ca2 O1 2.572477 1_555
Ca2 O22 2.640707 1_555
Ca2 O30 2.870252 1_555
Ca2 O26 2.915453 1_555
Ca2 O2 3.052541 1_555
Ca3 O24 2.334764 1_555
Ca3 O18 2.356900 1_555
Ca3 O7 2.389568 1_545
Ca3 O12 2.469394 1_554
Ca3 O0 2.572477 1_554
Ca3 O23 2.640707 1_555
Ca3 O31 2.870252 1_555
Ca3 O27 2.915453 1_554
Ca3 O3 3.052541 1_555
B0 O12 1.365711 1_555
B0 O4 1.367437 1_555
B0 O0 1.395069 1_555
B1 O13 1.365711 1_555
B1 O5 1.367437 1_555
B1 O1 1.395069 1_555
B2 O14 1.365711 1_555
B2 O6 1.367437 1_555
B2 O2 1.395069 1_555
B3 O15 1.365711 1_555
B3 O7 1.367437 1_555
B3 O3 1.395069 1_555
B4 O16 1.411833 1_555
B4 O20 1.442667 1_555
B4 O8 1.467350 1_555
B4 O0 1.534177 1_555
B5 O17 1.411833 1_655
B5 O21 1.442667 1_555
B5 O9 1.467350 1_555
B5 O1 1.534177 1_555
B6 O18 1.411833 1_555
B6 O22 1.442667 1_555
B6 O10 1.467350 1_555
B6 O2 1.534177 1_555
B7 O19 1.411833 1_455
B7 O23 1.442667 1_555
B7 O11 1.467350 1_555
B7 O3 1.534177 1_555
B8 O24 1.433642 1_565
B8 O8 1.453339 1_555
B8 O15 1.503630 1_555
B8 O4 1.516423 1_555
B9 O25 1.433642 1_546
B9 O9 1.453339 1_555
B9 O14 1.503630 1_556
B9 O5 1.516423 1_555
B10 O26 1.433642 1_545
B10 O10 1.453339 1_555
B10 O13 1.503630 1_555
B10 O6 1.516423 1_555
B11 O27 1.433642 1_564
B11 O11 1.453339 1_555
B11 O12 1.503630 1_554
B11 O7 1.516423 1_555
O28 O30 1.233465 1_445
O29 O31 1.233465 1_566
