# generated using pymatgen
data_Sc2Cu2O5
_symmetry_space_group_name_H-M   'P 1'
_cell_length_a   3.24879700
_cell_length_b   10.55464100
_cell_length_c   12.12575400
_cell_angle_alpha   90.00000000
_cell_angle_beta   90.00000000
_cell_angle_gamma   90.00000000
_symmetry_Int_Tables_number   1
_chemical_formula_structural   Sc2Cu2O5
_chemical_formula_sum   'Sc8 Cu8 O20'
_cell_volume   415.79072253
_cell_formula_units_Z   4
loop_
 _symmetry_equiv_pos_site_id
 _symmetry_equiv_pos_as_xyz
  1  'x, y, z'
loop_
 _atom_site_type_symbol
 _atom_site_label
 _atom_site_symmetry_multiplicity
 _atom_site_fract_x
 _atom_site_fract_y
 _atom_site_fract_z
 _atom_site_occupancy
  Sc  Sc0  1  0.78012900  0.78943000  0.00063300  1
  Sc  Sc1  1  0.21987100  0.21057000  0.50063300  1
  Sc  Sc2  1  0.71987100  0.28943000  0.00063300  1
  Sc  Sc3  1  0.28012900  0.71057000  0.50063300  1
  Sc  Sc4  1  0.77918500  0.96042500  0.33039800  1
  Sc  Sc5  1  0.22081500  0.03957500  0.83039800  1
  Sc  Sc6  1  0.72081500  0.46042500  0.33039800  1
  Sc  Sc7  1  0.27918500  0.53957500  0.83039800  1
  Cu  Cu0  1  0.34168300  0.00964400  0.10945900  1
  Cu  Cu1  1  0.65831700  0.99035600  0.60945900  1
  Cu  Cu2  1  0.15831700  0.50964400  0.10945900  1
  Cu  Cu3  1  0.84168300  0.49035600  0.60945900  1
  Cu  Cu4  1  0.34995500  0.73966700  0.22127800  1
  Cu  Cu5  1  0.65004500  0.26033300  0.72127800  1
  Cu  Cu6  1  0.15004500  0.23966700  0.22127800  1
  Cu  Cu7  1  0.84995500  0.76033300  0.72127800  1
  O  O0  1  0.27129700  0.91904300  0.96654000  1
  O  O1  1  0.72870300  0.08095700  0.46654000  1
  O  O2  1  0.22870300  0.41904300  0.96654000  1
  O  O3  1  0.77129700  0.58095700  0.46654000  1
  O  O4  1  0.72008800  0.93277100  0.76509900  1
  O  O5  1  0.27991200  0.06722900  0.26509900  1
  O  O6  1  0.77991200  0.43277100  0.76509900  1
  O  O7  1  0.22008800  0.56722900  0.26509900  1
  O  O8  1  0.20405800  0.62462100  0.66530900  1
  O  O9  1  0.79594200  0.37537900  0.16530900  1
  O  O10  1  0.29594200  0.12462100  0.66530900  1
  O  O11  1  0.70405800  0.87537900  0.16530900  1
  O  O12  1  0.78550600  0.81774000  0.56524100  1
  O  O13  1  0.21449400  0.18226000  0.06524100  1
  O  O14  1  0.71449400  0.31774000  0.56524100  1
  O  O15  1  0.28550600  0.68226000  0.06524100  1
  O  O16  1  0.28210500  0.83076700  0.36404300  1
  O  O17  1  0.71789500  0.16923300  0.86404300  1
  O  O18  1  0.21789500  0.33076700  0.36404300  1
  O  O19  1  0.78210500  0.66923300  0.86404300  1
loop_
_geom_bond_atom_site_label_1
_geom_bond_atom_site_label_2
_geom_bond_distance
_geom_bond_site_symmetry_2
Cu0 O13 1.943592 1_555
Cu0 O11 1.962868 1_545
Cu0 O0 1.992490 1_544
Cu0 O5 1.992838 1_555
Cu0 O11 2.599621 1_445
Cu1 O12 1.943592 1_555
Cu1 O10 1.962868 1_565
Cu1 O1 1.992490 1_565
Cu1 O4 1.992838 1_555
Cu1 O10 2.599621 1_665
Cu2 O15 1.943592 1_555
Cu2 O9 1.962868 1_455
Cu2 O2 1.992490 1_554
Cu2 O7 1.992838 1_555
Cu2 O9 2.599621 1_555
Cu3 O14 1.943592 1_555
Cu3 O8 1.962868 1_655
Cu3 O3 1.992490 1_555
Cu3 O6 1.992838 1_555
Cu3 O8 2.599621 1_555
Cu4 O7 1.942378 1_555
Cu4 O11 1.958513 1_555
Cu4 O16 1.992473 1_555
Cu4 O15 1.997719 1_555
Cu4 O11 2.629746 1_455
Cu5 O6 1.942378 1_555
Cu5 O10 1.958513 1_555
Cu5 O17 1.992473 1_555
Cu5 O14 1.997719 1_555
Cu5 O10 2.629746 1_655
Cu6 O5 1.942378 1_555
Cu6 O9 1.958513 1_455
Cu6 O18 1.992473 1_555
Cu6 O13 1.997719 1_555
Cu6 O9 2.629746 1_555
Cu7 O4 1.942378 1_555
Cu7 O8 1.958513 1_655
Cu7 O19 1.992473 1_555
Cu7 O12 1.997719 1_555
Cu7 O8 2.629746 1_555
O0 Sc5 2.090584 1_565
O0 Sc0 2.142114 1_456
O0 Sc0 2.185198 1_556
O1 Sc4 2.090584 1_545
O1 Sc1 2.142114 1_655
O1 Sc1 2.185198 1_555
O2 Sc7 2.090584 1_555
O2 Sc2 2.142114 1_556
O2 Sc2 2.185198 1_456
O3 Sc6 2.090584 1_555
O3 Sc3 2.142114 1_555
O3 Sc3 2.185198 1_655
O4 Sc5 2.128075 1_565
O4 Sc5 2.131678 1_665
O5 Sc4 2.128075 1_545
O5 Sc4 2.131678 1_445
O6 Sc7 2.128075 1_655
O6 Sc7 2.131678 1_555
O7 Sc6 2.128075 1_455
O7 Sc6 2.131678 1_555
O8 Sc3 2.207105 1_555
O8 Sc7 2.207403 1_555
O9 Sc2 2.207105 1_555
O9 Sc6 2.207403 1_555
O10 Sc1 2.207105 1_555
O10 Sc5 2.207403 1_555
O11 Sc0 2.207105 1_555
O11 Sc4 2.207403 1_555
O12 Sc3 2.115526 1_655
O12 Sc3 2.142185 1_555
O13 Sc2 2.115526 1_455
O13 Sc2 2.142185 1_555
O14 Sc1 2.115526 1_555
O14 Sc1 2.142185 1_655
O15 Sc0 2.115526 1_555
O15 Sc0 2.142185 1_455
O16 Sc3 2.086304 1_555
O16 Sc4 2.155726 1_555
O16 Sc4 2.169976 1_455
O17 Sc2 2.086304 1_556
O17 Sc5 2.155726 1_555
O17 Sc5 2.169976 1_655
O18 Sc1 2.086304 1_555
O18 Sc6 2.155726 1_455
O18 Sc6 2.169976 1_555
O19 Sc0 2.086304 1_556
O19 Sc7 2.155726 1_655
O19 Sc7 2.169976 1_555
