# generated using pymatgen
data_CsMg14Mo
_symmetry_space_group_name_H-M   'P 1'
_cell_length_a   6.48745882
_cell_length_b   6.56030473
_cell_length_c   10.51148476
_cell_angle_alpha   90.00000000
_cell_angle_beta   90.00000000
_cell_angle_gamma   120.37214931
_symmetry_Int_Tables_number   1
_chemical_formula_structural   CsMg14Mo
_chemical_formula_sum   'Cs1 Mg14 Mo1'
_cell_volume   385.96903504
_cell_formula_units_Z   1
loop_
 _symmetry_equiv_pos_site_id
 _symmetry_equiv_pos_as_xyz
  1  'x, y, z'
loop_
 _atom_site_type_symbol
 _atom_site_label
 _atom_site_symmetry_multiplicity
 _atom_site_fract_x
 _atom_site_fract_y
 _atom_site_fract_z
 _atom_site_occupancy
  Cs  Cs0  1  0.13589308  0.31794604  0.12500000  1
  Mg  Mg0  1  0.17400334  0.33700117  0.62500000  1
  Mg  Mg1  1  0.16776925  0.83388412  0.62500000  1
  Mg  Mg2  1  0.65124107  0.32610712  0.12500000  1
  Mg  Mg3  1  0.66690087  0.34210958  0.62500000  1
  Mg  Mg4  1  0.65124107  0.82513295  0.12500000  1
  Mg  Mg5  1  0.66690087  0.82479030  0.62500000  1
  Mg  Mg6  1  0.33617615  0.15179069  0.38147943  1
  Mg  Mg7  1  0.33617615  0.15179069  0.86852057  1
  Mg  Mg8  1  0.33617615  0.68438645  0.38147943  1
  Mg  Mg9  1  0.33617615  0.68438645  0.86852057  1
  Mg  Mg10  1  0.81935810  0.15967955  0.40102069  1
  Mg  Mg11  1  0.81935810  0.15967955  0.84897931  1
  Mg  Mg12  1  0.84841100  0.67420600  0.35934427  1
  Mg  Mg13  1  0.84841100  0.67420600  0.89065573  1
  Mo  Mo0  1  0.20580767  0.85290333  0.12500000  1
loop_
_geom_bond_atom_site_label_1
_geom_bond_atom_site_label_2
_geom_bond_distance
_geom_bond_site_symmetry_2
Cs0 Mg4 3.171566 1_445
Cs0 Mg2 3.171567 1_455
Cs0 Mo0 3.303412 1_555
Cs0 Mo0 3.303412 1_545
Cs0 Mg4 3.316550 1_555
Cs0 Mg2 3.316550 1_555
Cs0 Mg11 3.399546 1_454
Cs0 Mg10 3.399546 1_455
Cs0 Mg7 3.402489 1_554
Cs0 Mg6 3.402489 1_555
Cs0 Mg9 3.402496 1_554
Cs0 Mg8 3.402496 1_555
Mg0 Mg10 3.079477 1_455
Mg0 Mg11 3.079477 1_455
Mg0 Mg5 3.180839 1_555
Mg0 Mg3 3.180839 1_555
Mg0 Mg6 3.229284 1_555
Mg0 Mg7 3.229284 1_555
Mg0 Mg8 3.229291 1_555
Mg0 Mg9 3.229291 1_555
Mg0 Mg1 3.280338 1_555
Mg0 Mg1 3.280338 1_545
Mg0 Mg5 3.306877 1_445
Mg0 Mg3 3.306877 1_455
Mg1 Mg8 3.129124 1_555
Mg1 Mg9 3.129124 1_555
Mg1 Mg6 3.129131 1_565
Mg1 Mg7 3.129131 1_565
Mg1 Mg3 3.219610 1_455
Mg1 Mg5 3.219610 1_455
Mg1 Mg3 3.268665 1_565
Mg1 Mg5 3.268665 1_555
Mg1 Mg13 3.315540 1_455
Mg1 Mg12 3.315540 1_455
Mg2 Mo0 2.985984 1_545
Mg2 Mg7 3.223384 1_554
Mg2 Mg6 3.223384 1_555
Mg2 Mg4 3.273762 1_555
Mg2 Mg4 3.286543 1_545
Mg2 Mo0 3.509136 1_655
Mg3 Mg6 3.163191 1_555
Mg3 Mg7 3.163191 1_555
Mg3 Mg5 3.166533 1_555
Mg3 Mg5 3.393772 1_545
Mg4 Mo0 2.985985 1_555
Mg4 Mg9 3.223384 1_554
Mg4 Mg8 3.223384 1_555
Mg4 Mo0 3.509136 1_655
Mg5 Mg8 3.163192 1_555
Mg5 Mg9 3.163192 1_555
Mg6 Mo0 3.186117 1_545
Mg7 Mo0 3.186117 1_546
Mg8 Mo0 3.186111 1_555
Mg9 Mo0 3.186111 1_556
Mg10 Mg3 3.024987 1_555
Mg10 Mg5 3.024994 1_545
Mg10 Mg8 3.115555 1_545
Mg10 Mg6 3.115555 1_555
Mg10 Mg12 3.313270 1_555
Mg10 Mg12 3.313270 1_545
Mg10 Mg8 3.385535 1_655
Mg10 Mg6 3.385535 1_655
Mg10 Mg2 3.464649 1_555
Mg10 Mg4 3.464655 1_545
Mg11 Mg3 3.024987 1_555
Mg11 Mg5 3.024994 1_545
Mg11 Mg9 3.115555 1_545
Mg11 Mg7 3.115555 1_555
Mg11 Mg13 3.313270 1_555
Mg11 Mg13 3.313270 1_545
Mg11 Mg9 3.385535 1_655
Mg11 Mg7 3.385535 1_655
Mg11 Mg2 3.464649 1_556
Mg11 Mg4 3.464655 1_546
Mg12 Mg4 3.156760 1_555
Mg12 Mg2 3.156766 1_555
Mg12 Mo0 3.173238 1_655
Mg12 Mg5 3.366977 1_555
Mg12 Mg3 3.366983 1_555
Mg13 Mg4 3.156760 1_556
Mg13 Mg2 3.156766 1_556
Mg13 Mo0 3.173238 1_656
Mg13 Mg5 3.366977 1_555
Mg13 Mg3 3.366983 1_555
