# generated using pymatgen
data_MnGeRh
_symmetry_space_group_name_H-M   'P 1'
_cell_length_a   3.62210472
_cell_length_b   6.51755182
_cell_length_c   6.51760099
_cell_angle_alpha   119.99820098
_cell_angle_beta   90.00000000
_cell_angle_gamma   90.00000000
_symmetry_Int_Tables_number   1
_chemical_formula_structural   MnGeRh
_chemical_formula_sum   'Mn3 Ge3 Rh3'
_cell_volume   133.25139629
_cell_formula_units_Z   3
loop_
 _symmetry_equiv_pos_site_id
 _symmetry_equiv_pos_as_xyz
  1  'x, y, z'
loop_
 _atom_site_type_symbol
 _atom_site_label
 _atom_site_symmetry_multiplicity
 _atom_site_fract_x
 _atom_site_fract_y
 _atom_site_fract_z
 _atom_site_occupancy
  Mn  Mn0  1  0.50000000  0.59239698  0.00001536  1
  Mn  Mn1  1  0.50000000  0.40760651  0.40764442  1
  Mn  Mn2  1  0.50000000  0.99996865  0.59236172  1
  Ge  Ge0  1  -0.00000000  0.33331893  0.66667015  1
  Ge  Ge1  1  -0.00000000  0.66664628  0.33332488  1
  Ge  Ge2  1  0.50000000  -0.00000297  0.99999172  1
  Rh  Rh0  1  0.00000000  0.25691107  0.99999848  1
  Rh  Rh1  1  0.00000000  0.74306710  0.74307593  1
  Rh  Rh2  1  -0.00000000  0.99998545  0.25691535  1
loop_
_geom_bond_atom_site_label_1
_geom_bond_atom_site_label_2
_geom_bond_distance
_geom_bond_site_symmetry_2
Mn0 Rh0 2.839130 1_554
Mn0 Rh0 2.839130 1_654
Mn0 Rh2 2.948325 1_655
Mn0 Rh2 2.948325 1_555
Mn0 Rh1 2.948392 1_554
Mn0 Rh1 2.948392 1_654
Mn1 Rh1 2.839024 1_655
Mn1 Rh1 2.839024 1_555
Mn1 Rh2 2.948431 1_645
Mn1 Rh2 2.948431 1_545
Mn1 Rh0 2.948591 1_654
Mn1 Rh0 2.948591 1_554
Mn2 Rh2 2.839028 1_655
Mn2 Rh2 2.839028 1_555
Mn2 Rh1 2.948383 1_655
Mn2 Rh1 2.948383 1_555
Mn2 Rh0 2.948563 1_565
Mn2 Rh0 2.948563 1_665
Ge0 Rh0 2.459591 1_555
Ge0 Rh1 2.459682 1_555
Ge0 Rh2 2.459753 1_545
Ge0 Mn1 2.679887 1_455
Ge0 Mn1 2.679887 1_555
Ge0 Mn2 2.680039 1_445
Ge0 Mn2 2.680039 1_545
Ge0 Mn0 2.680111 1_456
Ge0 Mn0 2.680111 1_556
Ge1 Rh0 2.459648 1_554
Ge1 Rh2 2.459654 1_555
Ge1 Rh1 2.459688 1_555
Ge1 Mn0 2.679946 1_455
Ge1 Mn0 2.679946 1_555
Ge1 Mn2 2.679971 1_555
Ge1 Mn2 2.679971 1_455
Ge1 Mn1 2.680048 1_455
Ge1 Mn1 2.680048 1_555
Ge2 Rh0 2.466500 1_655
Ge2 Rh0 2.466500 1_555
Ge2 Rh1 2.466589 1_645
Ge2 Rh1 2.466589 1_545
Ge2 Rh2 2.466591 1_546
Ge2 Rh2 2.466591 1_646
Ge2 Mn0 2.656631 1_546
Ge2 Mn2 2.656677 1_545
Ge2 Mn1 2.656839 1_556
