# generated using pymatgen
data_Li7Mn2(CoO4)3
_symmetry_space_group_name_H-M   'P 1'
_cell_length_a   5.00950009
_cell_length_b   5.00950009
_cell_length_c   9.71649170
_cell_angle_alpha   85.71814055
_cell_angle_beta   85.71814055
_cell_angle_gamma   118.21633962
_symmetry_Int_Tables_number   1
_chemical_formula_structural   Li7Mn2(CoO4)3
_chemical_formula_sum   'Li7 Mn2 Co3 O12'
_cell_volume   212.57678732
_cell_formula_units_Z   1
loop_
 _symmetry_equiv_pos_site_id
 _symmetry_equiv_pos_as_xyz
  1  'x, y, z'
loop_
 _atom_site_type_symbol
 _atom_site_label
 _atom_site_symmetry_multiplicity
 _atom_site_fract_x
 _atom_site_fract_y
 _atom_site_fract_z
 _atom_site_occupancy
  Li  Li0  1  0.90139100  0.56342000  0.26033700  1
  Li  Li1  1  0.43658000  0.09860900  0.73966300  1
  Li  Li2  1  0.58746200  0.92289100  0.26195700  1
  Li  Li3  1  0.07710900  0.41253800  0.73804300  1
  Li  Li4  1  0.24253300  0.24553200  0.25934800  1
  Li  Li5  1  0.75446800  0.75746700  0.74065200  1
  Li  Li6  1  0.83503100  0.16496900  0.50000000  1
  Mn  Mn0  1  0.99770700  0.00229300  0.00000000  1
  Mn  Mn1  1  0.33560600  0.66439400  0.00000000  1
  Co  Co0  1  0.50028500  0.49971500  0.50000000  1
  Co  Co1  1  0.66674500  0.33325500  0.00000000  1
  Co  Co2  1  0.16102900  0.83897100  0.50000000  1
  O  O0  1  0.30942900  0.97601200  0.10512400  1
  O  O1  1  0.80321700  0.49371400  0.60753300  1
  O  O2  1  0.93959500  0.27687300  0.11788500  1
  O  O3  1  0.42852300  0.76813000  0.61266700  1
  O  O4  1  0.61408500  0.60958700  0.11517200  1
  O  O5  1  0.13898100  0.10545900  0.61651800  1
  O  O6  1  0.50628600  0.19678300  0.39246700  1
  O  O7  1  0.02398800  0.69057100  0.89487600  1
  O  O8  1  0.23187000  0.57147700  0.38733300  1
  O  O9  1  0.72312700  0.06040500  0.88211500  1
  O  O10  1  0.89454100  0.86101900  0.38348200  1
  O  O11  1  0.39041300  0.38591500  0.88482800  1
loop_
_geom_bond_atom_site_label_1
_geom_bond_atom_site_label_2
_geom_bond_distance
_geom_bond_site_symmetry_2
Li0 O10 1.990991 1_555
Li0 O8 2.124706 1_655
Li0 O2 2.128357 1_555
Li0 O4 2.164171 1_555
Li0 O6 2.184044 1_555
Li0 O0 2.409112 1_655
Li1 O5 1.990991 1_555
Li1 O3 2.124706 1_545
Li1 O9 2.128357 1_555
Li1 O11 2.164171 1_555
Li1 O1 2.184044 1_555
Li1 O7 2.409112 1_545
Li2 O8 2.036336 1_555
Li2 O6 2.089595 1_565
Li2 O2 2.125684 1_565
Li2 O10 2.127018 1_555
Li2 O0 2.222556 1_555
Li2 O4 2.240323 1_555
Li3 O3 2.036336 1_555
Li3 O1 2.089595 1_455
Li3 O9 2.125684 1_455
Li3 O5 2.127018 1_555
Li3 O7 2.222556 1_555
Li3 O11 2.240323 1_555
Li4 O6 1.997886 1_555
Li4 O10 2.089957 1_445
Li4 O8 2.142704 1_555
Li4 O2 2.172910 1_455
Li4 O4 2.184529 1_555
Li4 O0 2.199038 1_545
Li5 O1 1.997886 1_555
Li5 O5 2.089957 1_665
Li5 O3 2.142704 1_555
Li5 O9 2.172910 1_565
Li5 O11 2.184529 1_555
Li5 O7 2.199038 1_655
Li6 O1 2.075926 1_555
Li6 O6 2.075926 1_555
Li6 O10 2.079735 1_545
Li6 O5 2.079735 1_655
Li6 O3 2.193493 1_545
Li6 O8 2.193493 1_655
Mn0 O2 1.962881 1_555
Mn0 O9 1.962881 1_554
Mn0 O7 1.977796 1_644
Mn0 O0 1.977796 1_645
Mn0 O4 2.142603 1_545
Mn0 O11 2.142603 1_654
Mn1 O4 1.955314 1_555
Mn1 O11 1.955314 1_554
Mn1 O0 1.977139 1_555
Mn1 O7 1.977139 1_554
Mn1 O9 2.168663 1_564
Mn1 O2 2.168663 1_455
Co0 O6 1.915918 1_555
Co0 O1 1.915918 1_555
Co0 O3 1.937475 1_555
Co0 O8 1.937475 1_555
Co0 O10 2.106720 1_555
Co0 O5 2.106720 1_555
Co1 O4 1.941829 1_555
Co1 O11 1.941829 1_554
Co1 O2 1.952070 1_555
Co1 O9 1.952070 1_554
Co1 O7 1.968490 1_654
Co1 O0 1.968490 1_545
Co2 O10 1.850012 1_455
Co2 O5 1.850012 1_565
Co2 O3 1.931505 1_555
Co2 O8 1.931505 1_555
Co2 O6 1.953190 1_565
Co2 O1 1.953190 1_455
