# generated using pymatgen
data_Ca4TeN4
_symmetry_space_group_name_H-M   'P 1'
_cell_length_a   6.15541853
_cell_length_b   6.13042418
_cell_length_c   9.46285778
_cell_angle_alpha   80.54877753
_cell_angle_beta   75.46083497
_cell_angle_gamma   71.13015151
_symmetry_Int_Tables_number   1
_chemical_formula_structural   Ca4TeN4
_chemical_formula_sum   'Ca8 Te2 N8'
_cell_volume   325.72607475
_cell_formula_units_Z   2
loop_
 _symmetry_equiv_pos_site_id
 _symmetry_equiv_pos_as_xyz
  1  'x, y, z'
loop_
 _atom_site_type_symbol
 _atom_site_label
 _atom_site_symmetry_multiplicity
 _atom_site_fract_x
 _atom_site_fract_y
 _atom_site_fract_z
 _atom_site_occupancy
  Ca  Ca0  1  0.76364300  0.56549500  0.19685000  1
  Ca  Ca1  1  0.23635700  0.43450500  0.80315000  1
  Ca  Ca2  1  0.74440900  0.22142500  0.98054100  1
  Ca  Ca3  1  0.25559100  0.77857500  0.01945900  1
  Ca  Ca4  1  0.72718800  0.47527400  0.57053800  1
  Ca  Ca5  1  0.27281200  0.52472600  0.42946200  1
  Ca  Ca6  1  0.24634400  0.98789800  0.56717700  1
  Ca  Ca7  1  0.75365600  0.01210200  0.43282300  1
  Te  Te0  1  0.72390100  0.83113100  0.79842500  1
  Te  Te1  1  0.27609900  0.16886900  0.20157500  1
  N  N0  1  0.97251300  0.73835700  0.61922600  1
  N  N1  1  0.02748700  0.26164300  0.38077400  1
  N  N2  1  0.91941800  0.78172600  0.95223400  1
  N  N3  1  0.08058200  0.21827400  0.04776600  1
  N  N4  1  0.56687100  0.57508500  0.82733300  1
  N  N5  1  0.43312900  0.42491500  0.17266700  1
  N  N6  1  0.55044500  0.75556400  0.40845400  1
  N  N7  1  0.44955500  0.24443600  0.59154600  1
loop_
_geom_bond_atom_site_label_1
_geom_bond_atom_site_label_2
_geom_bond_distance
_geom_bond_site_symmetry_2
Ca0 N6 2.355251 1_555
Ca0 N5 2.523237 1_555
Ca0 N2 2.595148 1_554
Ca0 N3 2.691739 1_655
Ca0 N1 2.744850 1_655
Ca1 N7 2.355251 1_555
Ca1 N4 2.523237 1_555
Ca1 N3 2.595148 1_556
Ca1 N2 2.691739 1_455
Ca1 N0 2.744850 1_455
Ca2 N3 2.306083 1_656
Ca2 N5 2.445927 1_556
Ca2 N4 2.495464 1_555
Ca2 N2 2.590780 1_545
Ca3 N2 2.306083 1_454
Ca3 N4 2.445927 1_554
Ca3 N5 2.495464 1_555
Ca3 N3 2.590780 1_565
Ca4 N6 2.291653 1_555
Ca4 N1 2.428264 1_655
Ca4 N4 2.479302 1_555
Ca4 N7 2.502793 1_555
Ca4 N0 2.694897 1_555
Ca5 N7 2.291653 1_555
Ca5 N0 2.428264 1_455
Ca5 N5 2.479302 1_555
Ca5 N6 2.502793 1_555
Ca5 N1 2.694897 1_555
Ca6 N6 2.314062 1_555
Ca6 N7 2.372241 1_565
Ca6 N0 2.535258 1_455
Ca6 N1 2.549712 1_565
Ca7 N7 2.314062 1_555
Ca7 N6 2.372241 1_545
Ca7 N1 2.535258 1_655
Ca7 N0 2.549712 1_545
N0 Te0 1.997921 1_555
N1 Te1 1.997921 1_555
N2 Te0 2.038980 1_555
N3 Te1 2.038980 1_555
N4 Te0 2.044653 1_555
N5 Te1 2.044653 1_555
