# generated using pymatgen
data_YZn2
_symmetry_space_group_name_H-M   'P 1'
_cell_length_a   5.50899241
_cell_length_b   5.50899241
_cell_length_c   8.60008179
_cell_angle_alpha   90.00000000
_cell_angle_beta   90.00000000
_cell_angle_gamma   119.99998885
_symmetry_Int_Tables_number   1
_chemical_formula_structural   YZn2
_chemical_formula_sum   'Y4 Zn8'
_cell_volume   226.03599849
_cell_formula_units_Z   4
loop_
 _symmetry_equiv_pos_site_id
 _symmetry_equiv_pos_as_xyz
  1  'x, y, z'
loop_
 _atom_site_type_symbol
 _atom_site_label
 _atom_site_symmetry_multiplicity
 _atom_site_fract_x
 _atom_site_fract_y
 _atom_site_fract_z
 _atom_site_occupancy
  Y  Y0  1  0.33333300  0.66666700  0.44277985  1
  Y  Y1  1  0.66666700  0.33333300  0.55722015  1
  Y  Y2  1  0.66666700  0.33333300  0.94277985  1
  Y  Y3  1  0.33333300  0.66666700  0.05722015  1
  Zn  Zn0  1  0.00000000  -0.00000000  0.50000000  1
  Zn  Zn1  1  0.00000000  -0.00000000  0.00000000  1
  Zn  Zn2  1  0.83253105  0.16746895  0.25000000  1
  Zn  Zn3  1  0.83253105  0.66506310  0.25000000  1
  Zn  Zn4  1  0.33493690  0.16746895  0.25000000  1
  Zn  Zn5  1  0.16746895  0.83253105  0.75000000  1
  Zn  Zn6  1  0.16746895  0.33493690  0.75000000  1
  Zn  Zn7  1  0.66506310  0.83253105  0.75000000  1
loop_
_geom_bond_atom_site_label_1
_geom_bond_atom_site_label_2
_geom_bond_distance
_geom_bond_site_symmetry_2
Y0 Zn5 3.079866 1_555
Y0 Zn6 3.079871 1_555
Y0 Zn7 3.079871 1_555
Y0 Zn3 3.214967 1_555
Y0 Zn4 3.214967 1_555
Y0 Zn3 3.214967 1_455
Y0 Zn4 3.214967 1_565
Y0 Zn2 3.214968 1_565
Y0 Zn2 3.214968 1_455
Y0 Zn0 3.218458 1_565
Y0 Zn0 3.218463 1_555
Y0 Zn0 3.218463 1_665
Y0 Y3 3.315845 1_555
Y0 Y1 3.329408 1_455
Y0 Y1 3.329408 1_565
Y0 Y1 3.329416 1_555
Y1 Zn2 3.079866 1_555
Y1 Zn4 3.079871 1_555
Y1 Zn3 3.079871 1_555
Y1 Zn6 3.214967 1_555
Y1 Zn7 3.214967 1_555
Y1 Zn6 3.214967 1_655
Y1 Zn7 3.214967 1_545
Y1 Zn5 3.214968 1_545
Y1 Zn5 3.214968 1_655
Y1 Zn0 3.218458 1_655
Y1 Zn0 3.218463 1_555
Y1 Zn0 3.218463 1_665
Y1 Y2 3.315845 1_555
Y2 Zn2 3.079866 1_556
Y2 Zn3 3.079871 1_556
Y2 Zn4 3.079871 1_556
Y2 Zn6 3.214967 1_555
Y2 Zn7 3.214967 1_555
Y2 Zn6 3.214967 1_655
Y2 Zn7 3.214967 1_545
Y2 Zn5 3.214968 1_545
Y2 Zn5 3.214968 1_655
Y2 Zn1 3.218458 1_656
Y2 Zn1 3.218463 1_666
Y2 Zn1 3.218463 1_556
Y2 Y3 3.329408 1_546
Y2 Y3 3.329408 1_656
Y2 Y3 3.329416 1_556
Y3 Zn5 3.079866 1_554
Y3 Zn6 3.079871 1_554
Y3 Zn7 3.079871 1_554
Y3 Zn4 3.214967 1_555
Y3 Zn3 3.214967 1_555
Y3 Zn3 3.214967 1_455
Y3 Zn4 3.214967 1_565
Y3 Zn2 3.214968 1_565
Y3 Zn2 3.214968 1_455
Y3 Zn1 3.218458 1_565
Y3 Zn1 3.218463 1_555
Y3 Zn1 3.218463 1_665
Zn0 Zn3 2.678818 1_445
Zn0 Zn7 2.678818 1_445
Zn0 Zn6 2.678818 1_555
Zn0 Zn4 2.678818 1_555
Zn0 Zn2 2.678820 1_455
Zn0 Zn5 2.678820 1_545
Zn1 Zn3 2.678818 1_445
Zn1 Zn7 2.678818 1_444
Zn1 Zn4 2.678818 1_555
Zn1 Zn6 2.678818 1_554
Zn1 Zn2 2.678820 1_455
Zn1 Zn5 2.678820 1_544
Zn2 Zn3 2.741242 1_555
Zn2 Zn4 2.741242 1_555
Zn2 Zn3 2.767750 1_545
Zn2 Zn4 2.767750 1_655
Zn3 Zn4 2.741243 1_555
Zn3 Zn4 2.767750 1_665
Zn5 Zn7 2.741242 1_555
Zn5 Zn6 2.741242 1_555
Zn5 Zn6 2.767750 1_565
Zn5 Zn7 2.767750 1_455
Zn6 Zn7 2.741243 1_555
Zn6 Zn7 2.767750 1_445
