# generated using pymatgen
data_Dy2InNi2
_symmetry_space_group_name_H-M   'P 1'
_cell_length_a   3.57106888
_cell_length_b   7.33346926
_cell_length_c   7.33346926
_cell_angle_alpha   90.00000000
_cell_angle_beta   90.00000000
_cell_angle_gamma   90.00000000
_symmetry_Int_Tables_number   1
_chemical_formula_structural   Dy2InNi2
_chemical_formula_sum   'Dy4 In2 Ni4'
_cell_volume   192.05126797
_cell_formula_units_Z   2
loop_
 _symmetry_equiv_pos_site_id
 _symmetry_equiv_pos_as_xyz
  1  'x, y, z'
loop_
 _atom_site_type_symbol
 _atom_site_label
 _atom_site_symmetry_multiplicity
 _atom_site_fract_x
 _atom_site_fract_y
 _atom_site_fract_z
 _atom_site_occupancy
  Dy  Dy0  1  0.50000000  0.17522848  0.67522848  1
  Dy  Dy1  1  0.50000000  0.82477152  0.32477152  1
  Dy  Dy2  1  0.50000000  0.32477152  0.17522848  1
  Dy  Dy3  1  0.50000000  0.67522848  0.82477152  1
  In  In0  1  -0.00000000  0.50000000  0.50000000  1
  In  In1  1  0.00000000  0.00000000  0.00000000  1
  Ni  Ni0  1  0.00000000  0.61746120  0.11746120  1
  Ni  Ni1  1  -0.00000000  0.38253880  0.88253880  1
  Ni  Ni2  1  0.00000000  0.88253880  0.61746120  1
  Ni  Ni3  1  -0.00000000  0.11746120  0.38253880  1
loop_
_geom_bond_atom_site_label_1
_geom_bond_atom_site_label_2
_geom_bond_distance
_geom_bond_site_symmetry_2
Dy0 Ni1 2.794777 1_655
Dy0 Ni1 2.794777 1_555
Dy0 Ni2 2.823963 1_545
Dy0 Ni2 2.823963 1_645
Dy0 Ni3 2.823963 1_555
Dy0 Ni3 2.823963 1_655
Dy0 In0 3.242213 1_555
Dy0 In0 3.242213 1_655
Dy0 In1 3.242213 1_656
Dy0 In1 3.242213 1_556
Dy1 Ni0 2.794777 1_655
Dy1 Ni0 2.794777 1_555
Dy1 Ni3 2.823963 1_565
Dy1 Ni3 2.823963 1_665
Dy1 Ni2 2.823963 1_555
Dy1 Ni2 2.823963 1_655
Dy1 In0 3.242213 1_555
Dy1 In1 3.242213 1_665
Dy1 In0 3.242213 1_655
Dy1 In1 3.242213 1_565
Dy2 Ni3 2.794777 1_555
Dy2 Ni3 2.794777 1_655
Dy2 Ni0 2.823963 1_555
Dy2 Ni0 2.823963 1_655
Dy2 Ni1 2.823963 1_554
Dy2 Ni1 2.823963 1_654
Dy2 In0 3.242213 1_555
Dy2 In0 3.242213 1_655
Dy2 In1 3.242213 1_555
Dy2 In1 3.242213 1_655
Dy3 Ni2 2.794777 1_655
Dy3 Ni2 2.794777 1_555
Dy3 Ni0 2.823963 1_656
Dy3 Ni0 2.823963 1_556
Dy3 Ni1 2.823963 1_655
Dy3 Ni1 2.823963 1_555
Dy3 In0 3.242213 1_555
Dy3 In0 3.242213 1_655
Dy3 In1 3.242213 1_566
Dy3 In1 3.242213 1_666
In0 Ni2 2.934607 1_555
In0 Ni1 2.934607 1_555
In0 Ni0 2.934607 1_555
In0 Ni3 2.934607 1_555
In1 Ni3 2.934607 1_555
In1 Ni1 2.934607 1_554
In1 Ni0 2.934607 1_545
In1 Ni2 2.934607 1_544
Ni0 Ni1 2.436402 1_554
Ni2 Ni3 2.436402 1_565
