# generated using pymatgen
data_Mg14AlSn
_symmetry_space_group_name_H-M   'P 1'
_cell_length_a   6.32553075
_cell_length_b   6.32553025
_cell_length_c   10.36845657
_cell_angle_alpha   90.00000000
_cell_angle_beta   90.00000000
_cell_angle_gamma   120.00000267
_symmetry_Int_Tables_number   1
_chemical_formula_structural   Mg14AlSn
_chemical_formula_sum   'Mg14 Al1 Sn1'
_cell_volume   359.28463192
_cell_formula_units_Z   1
loop_
 _symmetry_equiv_pos_site_id
 _symmetry_equiv_pos_as_xyz
  1  'x, y, z'
loop_
 _atom_site_type_symbol
 _atom_site_label
 _atom_site_symmetry_multiplicity
 _atom_site_fract_x
 _atom_site_fract_y
 _atom_site_fract_z
 _atom_site_occupancy
  Mg  Mg0  1  0.16682914  0.83341407  0.12500000  1
  Mg  Mg1  1  0.16645610  0.83322755  0.62500000  1
  Mg  Mg2  1  0.66658593  0.33317086  0.12500000  1
  Mg  Mg3  1  0.66677245  0.33354390  0.62500000  1
  Mg  Mg4  1  0.66658593  0.83341407  0.12500000  1
  Mg  Mg5  1  0.66677245  0.83322755  0.62500000  1
  Mg  Mg6  1  0.33323356  0.16676644  0.37178531  1
  Mg  Mg7  1  0.33323356  0.16676644  0.87821469  1
  Mg  Mg8  1  0.33323356  0.66646812  0.37178531  1
  Mg  Mg9  1  0.33323356  0.66646812  0.87821469  1
  Mg  Mg10  1  0.83353188  0.16676644  0.37178531  1
  Mg  Mg11  1  0.83353188  0.16676644  0.87821469  1
  Mg  Mg12  1  0.83333300  0.66666700  0.37422801  1
  Mg  Mg13  1  0.83333300  0.66666700  0.87577199  1
  Al  Al0  1  0.16666700  0.33333300  0.12500000  1
  Sn  Sn0  1  0.16666700  0.33333300  0.62500000  1
loop_
_geom_bond_atom_site_label_1
_geom_bond_atom_site_label_2
_geom_bond_distance
_geom_bond_site_symmetry_2
Mg0 Mg8 3.143577 1_555
Mg0 Mg9 3.143577 1_554
Mg0 Mg7 3.143583 1_564
Mg0 Mg6 3.143583 1_565
Mg0 Mg2 3.161227 1_565
Mg0 Mg4 3.161227 1_555
Mg0 Mg2 3.164304 1_455
Mg0 Mg4 3.164304 1_455
Mg0 Mg13 3.164687 1_454
Mg0 Mg12 3.164687 1_455
Mg1 Mg3 3.160764 1_455
Mg1 Mg5 3.160764 1_455
Mg1 Sn0 3.162765 1_565
Mg1 Sn0 3.162765 1_555
Mg1 Mg3 3.164766 1_565
Mg1 Mg5 3.164766 1_555
Mg1 Mg12 3.176598 1_455
Mg1 Mg13 3.176598 1_455
Mg1 Mg9 3.198656 1_555
Mg1 Mg8 3.198656 1_555
Mg1 Mg6 3.198662 1_565
Mg1 Mg7 3.198662 1_565
Mg2 Mg7 3.143583 1_554
Mg2 Mg6 3.143583 1_555
Mg2 Mg4 3.161227 1_545
Mg2 Mg4 3.164304 1_555
Mg3 Mg5 3.160764 1_555
Mg3 Sn0 3.162766 1_555
Mg3 Sn0 3.162766 1_655
Mg3 Mg5 3.164766 1_545
Mg3 Mg6 3.198662 1_555
Mg3 Mg7 3.198662 1_555
Mg4 Mg9 3.143583 1_554
Mg4 Mg8 3.143583 1_555
Mg5 Sn0 3.162765 1_665
Mg5 Sn0 3.162765 1_555
Mg5 Mg8 3.198662 1_555
Mg5 Mg9 3.198662 1_555
Mg6 Mg8 3.160878 1_555
Mg6 Mg8 3.164652 1_545
Mg6 Sn0 3.197393 1_555
Mg7 Mg9 3.160878 1_555
Mg7 Mg9 3.164652 1_545
Mg7 Sn0 3.197393 1_555
Mg8 Sn0 3.197399 1_555
Mg9 Sn0 3.197399 1_555
Mg10 Mg2 3.143577 1_555
Mg10 Mg4 3.143583 1_545
Mg10 Mg8 3.160878 1_655
Mg10 Mg6 3.160878 1_655
Mg10 Mg12 3.162867 1_545
Mg10 Mg12 3.162867 1_555
Mg10 Mg8 3.164652 1_545
Mg10 Mg6 3.164652 1_555
Mg10 Sn0 3.197399 1_655
Mg10 Mg3 3.198656 1_555
Mg10 Mg5 3.198662 1_545
Mg11 Mg2 3.143577 1_556
Mg11 Mg4 3.143583 1_546
Mg11 Mg9 3.160878 1_655
Mg11 Mg7 3.160878 1_655
Mg11 Mg13 3.162867 1_545
Mg11 Mg13 3.162867 1_555
Mg11 Mg9 3.164652 1_545
Mg11 Mg7 3.164652 1_555
Mg11 Sn0 3.197399 1_655
Mg11 Mg3 3.198656 1_555
Mg11 Mg5 3.198662 1_545
Mg12 Mg6 3.162867 1_665
Mg12 Mg6 3.162867 1_555
Mg12 Mg8 3.162867 1_555
Mg12 Mg8 3.162867 1_655
Mg12 Mg4 3.164681 1_555
Mg12 Mg2 3.164687 1_555
Mg12 Mg5 3.176591 1_555
Mg12 Mg3 3.176598 1_555
Mg13 Mg7 3.162867 1_665
Mg13 Mg7 3.162867 1_555
Mg13 Mg9 3.162867 1_555
Mg13 Mg9 3.162867 1_655
Mg13 Mg4 3.164681 1_556
Mg13 Mg2 3.164687 1_556
Mg13 Mg5 3.176591 1_555
Mg13 Mg3 3.176598 1_555
Al0 Mg7 3.142885 1_554
Al0 Mg6 3.142885 1_555
Al0 Mg9 3.142891 1_554
Al0 Mg8 3.142891 1_555
Al0 Mg10 3.142891 1_455
Al0 Mg11 3.142891 1_454
Al0 Mg4 3.162765 1_555
Al0 Mg4 3.162765 1_445
Al0 Mg0 3.162765 1_555
Al0 Mg0 3.162765 1_545
Al0 Mg2 3.162765 1_455
Al0 Mg2 3.162765 1_555
