# generated using pymatgen
data_ThCrS3
_symmetry_space_group_name_H-M   'P 1'
_cell_length_a   6.26398333
_cell_length_b   7.45661935
_cell_length_c   8.93150794
_cell_angle_alpha   90.00000000
_cell_angle_beta   90.00000000
_cell_angle_gamma   90.00000000
_symmetry_Int_Tables_number   1
_chemical_formula_structural   ThCrS3
_chemical_formula_sum   'Th4 Cr4 S12'
_cell_volume   417.17411708
_cell_formula_units_Z   4
loop_
 _symmetry_equiv_pos_site_id
 _symmetry_equiv_pos_as_xyz
  1  'x, y, z'
loop_
 _atom_site_type_symbol
 _atom_site_label
 _atom_site_symmetry_multiplicity
 _atom_site_fract_x
 _atom_site_fract_y
 _atom_site_fract_z
 _atom_site_occupancy
  Th  Th0  1  0.45279686  0.88283229  0.25000000  1
  Th  Th1  1  0.04720314  0.38283229  0.25000000  1
  Th  Th2  1  0.54720314  0.11716771  0.75000000  1
  Th  Th3  1  0.95279686  0.61716771  0.75000000  1
  Cr  Cr0  1  0.50000000  0.50000000  -0.00000000  1
  Cr  Cr1  1  0.00000000  -0.00000000  0.50000000  1
  Cr  Cr2  1  0.50000000  0.50000000  0.50000000  1
  Cr  Cr3  1  0.00000000  -0.00000000  -0.00000000  1
  S  S0  1  0.63575223  0.53896962  0.25000000  1
  S  S1  1  0.86424777  0.03896962  0.25000000  1
  S  S2  1  0.36424777  0.46103038  0.75000000  1
  S  S3  1  0.13575223  0.96103038  0.75000000  1
  S  S4  1  0.67554767  0.83143819  0.55703560  1
  S  S5  1  0.82445233  0.33143819  0.94296440  1
  S  S6  1  0.32445233  0.16856181  0.05703560  1
  S  S7  1  0.17554767  0.66856181  0.44296440  1
  S  S8  1  0.32445233  0.16856181  0.44296440  1
  S  S9  1  0.17554767  0.66856181  0.05703560  1
  S  S10  1  0.67554767  0.83143819  0.94296440  1
  S  S11  1  0.82445233  0.33143819  0.55703560  1
loop_
_geom_bond_atom_site_label_1
_geom_bond_atom_site_label_2
_geom_bond_distance
_geom_bond_site_symmetry_2
Cr0 S2 2.406922 1_554
Cr0 S0 2.406922 1_555
Cr0 S9 2.443319 1_555
Cr0 S5 2.443319 1_554
Cr0 S6 2.752552 1_555
Cr0 S10 2.752552 1_554
Cr1 S1 2.406922 1_455
Cr1 S3 2.406922 1_545
Cr1 S4 2.443319 1_445
Cr1 S8 2.443319 1_555
Cr1 S7 2.752552 1_545
Cr1 S11 2.752552 1_455
Cr2 S2 2.406922 1_555
Cr2 S0 2.406922 1_555
Cr2 S7 2.443319 1_555
Cr2 S11 2.443319 1_555
Cr2 S8 2.752552 1_555
Cr2 S4 2.752552 1_555
Cr3 S1 2.406922 1_455
Cr3 S3 2.406922 1_544
Cr3 S6 2.443319 1_555
Cr3 S10 2.443319 1_444
Cr3 S9 2.752552 1_545
Cr3 S5 2.752552 1_454
S0 Th0 2.808514 1_555
S0 Th1 2.828088 1_655
S1 Th1 2.808514 1_655
S1 Th0 2.828088 1_545
S2 Th2 2.808514 1_555
S2 Th3 2.828088 1_455
S3 Th3 2.808514 1_455
S3 Th2 2.828088 1_565
S4 Th2 2.855873 1_565
S4 Th3 2.922182 1_555
S4 Th0 3.100630 1_555
S5 Th3 2.855873 1_555
S5 Th2 2.922182 1_555
S5 Th1 3.100630 1_656
S6 Th0 2.855873 1_545
S6 Th1 2.922182 1_555
S6 Th2 3.100630 1_554
S7 Th1 2.855873 1_555
S7 Th0 2.922182 1_555
S7 Th3 3.100630 1_455
S8 Th0 2.855873 1_545
S8 Th1 2.922182 1_555
S8 Th2 3.100630 1_555
S9 Th1 2.855873 1_555
S9 Th0 2.922182 1_555
S9 Th3 3.100630 1_454
S10 Th2 2.855873 1_565
S10 Th3 2.922182 1_555
S10 Th0 3.100630 1_556
S11 Th3 2.855873 1_555
S11 Th2 2.922182 1_555
S11 Th1 3.100630 1_655
