# generated using pymatgen
data_Rb6MoN4
_symmetry_space_group_name_H-M   'P 1'
_cell_length_a   8.54813800
_cell_length_b   8.54813800
_cell_length_c   7.22196100
_cell_angle_alpha   90.00000000
_cell_angle_beta   90.00000000
_cell_angle_gamma   90.00000000
_symmetry_Int_Tables_number   1
_chemical_formula_structural   Rb6MoN4
_chemical_formula_sum   'Rb12 Mo2 N8'
_cell_volume   527.71348036
_cell_formula_units_Z   2
loop_
 _symmetry_equiv_pos_site_id
 _symmetry_equiv_pos_as_xyz
  1  'x, y, z'
loop_
 _atom_site_type_symbol
 _atom_site_label
 _atom_site_symmetry_multiplicity
 _atom_site_fract_x
 _atom_site_fract_y
 _atom_site_fract_z
 _atom_site_occupancy
  Rb  Rb0  1  0.00000000  0.50000000  0.70238900  1
  Rb  Rb1  1  0.50000000  0.00000000  0.79761100  1
  Rb  Rb2  1  0.50000000  0.00000000  0.29761100  1
  Rb  Rb3  1  0.00000000  0.50000000  0.20238900  1
  Rb  Rb4  1  0.20488000  0.20488000  0.50000000  1
  Rb  Rb5  1  0.79512000  0.79512000  0.50000000  1
  Rb  Rb6  1  0.70488000  0.70488000  0.00000000  1
  Rb  Rb7  1  0.29512000  0.29512000  0.00000000  1
  Rb  Rb8  1  0.79512000  0.20488000  0.50000000  1
  Rb  Rb9  1  0.20488000  0.79512000  0.50000000  1
  Rb  Rb10  1  0.29512000  0.70488000  0.00000000  1
  Rb  Rb11  1  0.70488000  0.29512000  0.00000000  1
  Mo  Mo0  1  0.50000000  0.50000000  0.50000000  1
  Mo  Mo1  1  0.00000000  0.00000000  0.00000000  1
  N  N0  1  0.31039300  0.50000000  0.35652100  1
  N  N1  1  0.68960700  0.50000000  0.35652100  1
  N  N2  1  0.81039300  0.00000000  0.14347900  1
  N  N3  1  0.18960700  0.00000000  0.14347900  1
  N  N4  1  0.50000000  0.31039300  0.64347900  1
  N  N5  1  0.50000000  0.68960700  0.64347900  1
  N  N6  1  0.00000000  0.81039300  0.85652100  1
  N  N7  1  0.00000000  0.18960700  0.85652100  1
loop_
_geom_bond_atom_site_label_1
_geom_bond_atom_site_label_2
_geom_bond_distance
_geom_bond_site_symmetry_2
Mo0 N5 1.923710 1_555
Mo0 N1 1.923710 1_555
Mo0 N4 1.923710 1_555
Mo0 N0 1.923710 1_555
Mo1 N2 1.923710 1_455
Mo1 N6 1.923710 1_544
Mo1 N7 1.923710 1_554
Mo1 N3 1.923710 1_555
N0 Rb4 2.872517 1_555
N0 Rb9 2.872517 1_555
N0 Rb3 2.877321 1_555
N0 Rb10 3.116688 1_555
N0 Rb7 3.116688 1_555
N1 Rb5 2.872517 1_555
N1 Rb8 2.872517 1_555
N1 Rb3 2.877321 1_655
N1 Rb6 3.116688 1_555
N1 Rb11 3.116688 1_555
N2 Rb11 2.872517 1_555
N2 Rb6 2.872517 1_545
N2 Rb2 2.877321 1_555
N2 Rb5 3.116688 1_545
N2 Rb8 3.116688 1_555
N3 Rb7 2.872517 1_555
N3 Rb10 2.872517 1_545
N3 Rb2 2.877321 1_555
N3 Rb9 3.116688 1_545
N3 Rb4 3.116688 1_555
N4 Rb4 2.872517 1_555
N4 Rb8 2.872517 1_555
N4 Rb1 2.877321 1_555
N4 Rb11 3.116688 1_556
N4 Rb7 3.116688 1_556
N5 Rb5 2.872517 1_555
N5 Rb9 2.872517 1_555
N5 Rb1 2.877321 1_565
N5 Rb6 3.116688 1_556
N5 Rb10 3.116688 1_556
N6 Rb6 2.872517 1_456
N6 Rb10 2.872517 1_556
N6 Rb0 2.877321 1_555
N6 Rb5 3.116688 1_455
N6 Rb9 3.116688 1_555
N7 Rb7 2.872517 1_556
N7 Rb11 2.872517 1_456
N7 Rb0 2.877321 1_555
N7 Rb8 3.116688 1_455
N7 Rb4 3.116688 1_555
