# generated using pymatgen
data_Zn(SbO2)2
_symmetry_space_group_name_H-M   'P 1'
_cell_length_a   6.52311200
_cell_length_b   7.18049627
_cell_length_c   17.13845314
_cell_angle_alpha   89.19364348
_cell_angle_beta   88.82875252
_cell_angle_gamma   63.08076787
_symmetry_Int_Tables_number   1
_chemical_formula_structural   Zn(SbO2)2
_chemical_formula_sum   'Zn6 Sb12 O24'
_cell_volume   715.60950692
_cell_formula_units_Z   6
loop_
 _symmetry_equiv_pos_site_id
 _symmetry_equiv_pos_as_xyz
  1  'x, y, z'
loop_
 _atom_site_type_symbol
 _atom_site_label
 _atom_site_symmetry_multiplicity
 _atom_site_fract_x
 _atom_site_fract_y
 _atom_site_fract_z
 _atom_site_occupancy
  Zn  Zn0  1  0.60024700  0.21222200  0.08340200  1
  Zn  Zn1  1  0.44154900  0.67346400  0.33988100  1
  Zn  Zn2  1  0.11712800  0.20623700  0.16541700  1
  Zn  Zn3  1  0.72145400  0.24831600  0.65205000  1
  Zn  Zn4  1  0.57143500  0.48486000  0.49649400  1
  Zn  Zn5  1  0.83593100  0.87085000  0.79222200  1
  Sb  Sb0  1  0.12955900  0.73904300  0.17700000  1
  Sb  Sb1  1  0.01616600  0.42899800  0.35786900  1
  Sb  Sb2  1  0.04932700  0.33258900  0.99593300  1
  Sb  Sb3  1  0.63161300  0.72532400  0.17130800  1
  Sb  Sb4  1  0.51923200  0.00634900  0.53410200  1
  Sb  Sb5  1  0.30686200  0.89813500  0.71765000  1
  Sb  Sb6  1  0.04563200  0.99748300  0.46423100  1
  Sb  Sb7  1  0.77907600  0.40550100  0.82649600  1
  Sb  Sb8  1  0.67747000  0.06680800  0.29872000  1
  Sb  Sb9  1  0.34017500  0.32900200  0.82235600  1
  Sb  Sb10  1  0.98225000  0.56444800  0.62692500  1
  Sb  Sb11  1  0.31081700  0.76515300  0.94138200  1
  O  O0  1  0.27134700  0.31218500  0.07754200  1
  O  O1  1  0.99297400  0.41166400  0.24354400  1
  O  O2  1  0.87657300  0.24642100  0.07406200  1
  O  O3  1  0.67297500  0.99557900  0.16188600  1
  O  O4  1  0.71968500  0.43182700  0.39107700  1
  O  O5  1  0.42751100  0.57861900  0.23281600  1
  O  O6  1  0.28391900  0.06228700  0.62163000  1
  O  O7  1  0.62423900  0.80780100  0.28580400  1
  O  O8  1  0.29570100  0.71011000  0.44310700  1
  O  O9  1  0.29285000  0.91019100  0.13948000  1
  O  O10  1  0.18108300  0.12260500  0.38442400  1
  O  O11  1  0.01097200  0.93111000  0.26702600  1
  O  O12  1  0.95715100  0.06930200  0.73142800  1
  O  O13  1  0.79979000  0.86690700  0.59936200  1
  O  O14  1  0.75051700  0.48280300  0.59031100  1
  O  O15  1  0.49130700  0.04236000  0.77086400  1
  O  O16  1  0.58487700  0.28924100  0.89648400  1
  O  O17  1  0.79869200  0.95949500  0.40957100  1
  O  O18  1  0.53245000  0.42131900  0.74859500  1
  O  O19  1  0.52951300  0.26919500  0.55822300  1
  O  O20  1  0.24343000  0.06747300  0.94106000  1
  O  O21  1  0.12347400  0.75972800  0.85398600  1
  O  O22  1  0.86675900  0.60817800  0.73725700  1
  O  O23  1  0.59629300  0.68881900  0.87702100  1
loop_
_geom_bond_atom_site_label_1
_geom_bond_atom_site_label_2
_geom_bond_distance
_geom_bond_site_symmetry_2
O0 Zn0 1.934075 1_555
O0 Sb2 1.989992 1_554
O0 Zn2 2.111329 1_555
O1 Zn2 1.885244 1_655
O1 Sb1 1.978251 1_655
O2 Zn0 1.929466 1_555
O2 Sb2 1.997996 1_654
O2 Zn2 2.162096 1_655
O3 Zn0 1.937320 1_565
O3 Sb3 2.080421 1_555
O3 Sb8 2.410851 1_565
O3 Sb0 2.716851 1_655
O4 Zn4 1.989674 1_555
O4 Sb1 1.996085 1_655
O4 Zn1 2.060079 1_555
O5 Zn1 1.984355 1_555
O5 Sb0 2.009298 1_555
O5 Sb3 2.274813 1_555
O6 Sb5 1.978781 1_545
O6 Sb4 2.032812 1_555
O7 Zn1 2.044536 1_555
O7 Sb3 2.051015 1_555
O7 Sb8 2.056182 1_565
O8 Zn1 1.954948 1_555
O8 Sb6 1.999749 1_555
O8 Zn4 2.019849 1_555
O9 Zn2 1.956985 1_565
O9 Sb0 2.047769 1_555
O9 Sb3 2.077413 1_555
O10 Sb1 2.013321 1_555
O10 Sb6 2.023229 1_545
O11 Sb0 1.981433 1_555
O11 Sb8 2.006085 1_465
O12 Zn3 2.028219 1_555
O12 Sb5 2.053703 1_645
O12 Zn5 2.164767 1_545
O12 Sb7 2.706656 1_555
O13 Sb4 1.998934 1_565
O13 Sb10 2.002511 1_555
O14 Sb10 1.968248 1_555
O14 Zn4 2.002651 1_555
O14 Zn3 2.054551 1_555
O15 Sb9 2.040901 1_555
O15 Zn5 2.053877 1_545
O15 Sb5 2.133418 1_545
O16 Sb9 1.975725 1_555
O16 Sb7 2.146543 1_555
O17 Sb6 2.003358 1_655
O17 Sb8 2.072880 1_565
O17 Sb4 2.701344 1_565
O18 Sb9 2.067605 1_555
O18 Sb7 2.074036 1_555
O18 Zn3 2.094920 1_555
O19 Sb4 1.968564 1_555
O19 Zn4 1.979300 1_555
O19 Zn3 2.020271 1_555
O20 Sb2 1.982610 1_555
O20 Sb11 2.010323 1_545
O21 Sb11 1.964186 1_555
O21 Zn5 1.994387 1_455
O22 Sb10 1.996499 1_555
O22 Zn5 2.045506 1_555
O22 Sb7 2.332279 1_555
O23 Sb11 1.998434 1_555
O23 Sb7 2.030059 1_555
