# generated using pymatgen
data_Mg2Sc3CrS8
_symmetry_space_group_name_H-M   'P 1'
_cell_length_a   7.49133842
_cell_length_b   7.45720084
_cell_length_c   7.49158976
_cell_angle_alpha   59.84914418
_cell_angle_beta   59.99951867
_cell_angle_gamma   59.84919053
_symmetry_Int_Tables_number   1
_chemical_formula_structural   Mg2Sc3CrS8
_chemical_formula_sum   'Mg2 Sc3 Cr1 S8'
_cell_volume   295.25603428
_cell_formula_units_Z   1
loop_
 _symmetry_equiv_pos_site_id
 _symmetry_equiv_pos_as_xyz
  1  'x, y, z'
loop_
 _atom_site_type_symbol
 _atom_site_label
 _atom_site_symmetry_multiplicity
 _atom_site_fract_x
 _atom_site_fract_y
 _atom_site_fract_z
 _atom_site_occupancy
  Mg  Mg0  1  0.87461133  0.87613942  0.87463646  1
  Mg  Mg1  1  0.12539450  0.12384134  0.12537972  1
  Sc  Sc0  1  0.50001590  0.50001189  0.49997817  1
  Sc  Sc1  1  0.50001307  0.49999177  -0.00000407  1
  Sc  Sc2  1  0.00000077  0.49999215  0.50002049  1
  Cr  Cr0  1  0.49993870  0.00006126  0.49996727  1
  S  S0  1  0.73370279  0.75473772  0.73371664  1
  S  S1  1  0.26629059  0.24527225  0.72217303  1
  S  S2  1  0.25786985  0.72640455  0.25786247  1
  S  S3  1  0.72217131  0.24526096  0.26627900  1
  S  S4  1  0.74213463  0.27358082  0.74212446  1
  S  S5  1  0.27783464  0.75471124  0.73373385  1
  S  S6  1  0.26629136  0.24525417  0.26629071  1
  S  S7  1  0.73373456  0.75473546  0.27784282  1
loop_
_geom_bond_atom_site_label_1
_geom_bond_atom_site_label_2
_geom_bond_distance
_geom_bond_site_symmetry_2
Mg0 S4 2.414404 1_565
Mg0 S7 2.466272 1_556
Mg0 S5 2.466288 1_655
Mg0 S0 2.466361 1_555
Mg1 S2 2.414376 1_545
Mg1 S1 2.466267 1_554
Mg1 S3 2.466289 1_455
Mg1 S6 2.466301 1_555
Cr0 S6 2.470881 1_555
Cr0 S1 2.471319 1_555
Cr0 S3 2.471357 1_555
Cr0 S5 2.471502 1_545
Cr0 S7 2.471517 1_545
Cr0 S0 2.471890 1_545
S0 Sc1 2.587406 1_556
S0 Sc2 2.587481 1_655
S1 Sc2 2.587519 1_555
S1 Sc0 2.587536 1_555
S2 Sc0 2.562910 1_555
S2 Sc2 2.562919 1_555
S2 Sc1 2.562956 1_555
S3 Sc1 2.587524 1_555
S3 Sc0 2.587525 1_555
S4 Sc2 2.562897 1_655
S4 Sc0 2.562913 1_555
S4 Sc1 2.562974 1_556
S5 Sc1 2.587508 1_556
S5 Sc0 2.587530 1_555
S6 Sc1 2.587529 1_555
S6 Sc2 2.587605 1_555
S7 Sc0 2.587439 1_555
S7 Sc2 2.587520 1_655
