# generated using pymatgen
data_Li2Ni3SnO8
_symmetry_space_group_name_H-M   'P 1'
_cell_length_a   5.91767012
_cell_length_b   10.05147862
_cell_length_c   6.08838210
_cell_angle_alpha   103.71721475
_cell_angle_beta   59.21580111
_cell_angle_gamma   88.12163124
_symmetry_Int_Tables_number   1
_chemical_formula_structural   Li2Ni3SnO8
_chemical_formula_sum   'Li4 Ni6 Sn2 O16'
_cell_volume   297.04585143
_cell_formula_units_Z   2
loop_
 _symmetry_equiv_pos_site_id
 _symmetry_equiv_pos_as_xyz
  1  'x, y, z'
loop_
 _atom_site_type_symbol
 _atom_site_label
 _atom_site_symmetry_multiplicity
 _atom_site_fract_x
 _atom_site_fract_y
 _atom_site_fract_z
 _atom_site_occupancy
  Li  Li0  1  0.33506900  0.56338100  0.35554800  1
  Li  Li1  1  0.83517400  0.06335600  0.35552200  1
  Li  Li2  1  0.16513900  0.93651500  0.64360900  1
  Li  Li3  1  0.66526900  0.43647100  0.64348500  1
  Ni  Ni0  1  0.24992200  0.75001800  0.00022500  1
  Ni  Ni1  1  0.74985100  0.75016000  0.00009300  1
  Ni  Ni2  1  0.00009400  0.49986000  0.00002900  1
  Ni  Ni3  1  0.74995900  0.25002800  0.00004500  1
  Ni  Ni4  1  0.24993600  0.25015100  0.00002300  1
  Ni  Ni5  1  0.50006000  0.99987200  0.00008500  1
  Sn  Sn0  1  0.74989400  0.75013200  0.50022900  1
  Sn  Sn1  1  0.25014000  0.25008800  0.50015100  1
  O  O0  1  0.11048900  0.63956700  0.80881600  1
  O  O1  1  0.61054600  0.13959200  0.80885000  1
  O  O2  1  0.38898500  0.86036600  0.19181900  1
  O  O3  1  0.88904800  0.36042400  0.19180700  1
  O  O4  1  0.90137400  0.86197800  0.22633700  1
  O  O5  1  0.40139700  0.36205500  0.22628600  1
  O  O6  1  0.13040700  0.63301900  0.22708900  1
  O  O7  1  0.63039600  0.13307600  0.22708700  1
  O  O8  1  0.66839200  0.62925700  0.22111500  1
  O  O9  1  0.16846900  0.12928800  0.22101000  1
  O  O10  1  0.83208400  0.87066600  0.77855800  1
  O  O11  1  0.33212000  0.37073100  0.77845600  1
  O  O12  1  0.36951200  0.86689300  0.77304800  1
  O  O13  1  0.86948300  0.36693900  0.77302400  1
  O  O14  1  0.59838600  0.63801300  0.77386300  1
  O  O15  1  0.09840600  0.13810200  0.77379300  1
loop_
_geom_bond_atom_site_label_1
_geom_bond_atom_site_label_2
_geom_bond_distance
_geom_bond_site_symmetry_2
Li0 O8 1.920722 1_555
Li0 O6 1.934454 1_555
Li0 O5 1.935178 1_555
Li0 O0 2.268318 1_555
Li1 O9 1.920848 1_655
Li1 O7 1.935260 1_555
Li1 O4 1.935675 1_545
Li1 O1 2.268625 1_555
Li2 O10 1.919240 1_455
Li2 O12 1.937820 1_555
Li2 O15 1.937868 1_565
Li2 O2 2.260986 1_555
Li3 O11 1.919168 1_555
Li3 O13 1.937147 1_555
Li3 O14 1.937474 1_555
Li3 O3 2.260403 1_555
Ni0 O6 1.901569 1_555
Ni0 O12 1.901879 1_554
Ni0 O14 1.903154 1_554
Ni0 O4 1.903281 1_455
Ni0 O2 1.922758 1_555
Ni0 O0 1.924104 1_554
Ni1 O10 1.914367 1_554
Ni1 O8 1.915727 1_555
Ni1 O2 1.957046 1_555
Ni1 O0 1.957793 1_654
Ni1 O4 2.135589 1_555
Ni1 O14 2.136546 1_554
Ni2 O11 1.911613 1_554
Ni2 O8 1.911614 1_455
Ni2 O3 1.952063 1_455
Ni2 O0 1.952181 1_554
Ni2 O13 2.139632 1_454
Ni2 O6 2.139762 1_555
Ni3 O13 1.901512 1_554
Ni3 O7 1.901935 1_555
Ni3 O15 1.902759 1_654
Ni3 O5 1.903620 1_555
Ni3 O1 1.923051 1_554
Ni3 O3 1.923795 1_555
Ni4 O11 1.915134 1_554
Ni4 O9 1.915244 1_555
Ni4 O3 1.957374 1_455
Ni4 O1 1.957594 1_554
Ni4 O5 2.135728 1_555
Ni4 O15 2.136458 1_554
Ni5 O9 1.911266 1_565
Ni5 O10 1.911970 1_554
Ni5 O1 1.952403 1_564
Ni5 O2 1.952526 1_555
Ni5 O12 2.139781 1_554
Ni5 O7 2.139837 1_565
O4 Sn0 2.067176 1_555
O5 Sn1 2.067920 1_555
O6 Sn0 2.070357 1_455
O7 Sn1 2.068957 1_555
O8 Sn0 2.120083 1_555
O9 Sn1 2.120574 1_555
O10 Sn0 2.117684 1_555
O11 Sn1 2.117179 1_555
O12 Sn0 2.068419 1_555
O13 Sn1 2.069836 1_655
O14 Sn0 2.068119 1_555
O15 Sn1 2.067204 1_555
