# generated using pymatgen
data_CeFe9Si4
_symmetry_space_group_name_H-M   'P 1'
_cell_length_a   7.79185900
_cell_length_b   7.79185900
_cell_length_c   7.97863255
_cell_angle_alpha   119.22859989
_cell_angle_beta   119.22859989
_cell_angle_gamma   90.00000000
_symmetry_Int_Tables_number   1
_chemical_formula_structural   CeFe9Si4
_chemical_formula_sum   'Ce2 Fe18 Si8'
_cell_volume   350.36254018
_cell_formula_units_Z   2
loop_
 _symmetry_equiv_pos_site_id
 _symmetry_equiv_pos_as_xyz
  1  'x, y, z'
loop_
 _atom_site_type_symbol
 _atom_site_label
 _atom_site_symmetry_multiplicity
 _atom_site_fract_x
 _atom_site_fract_y
 _atom_site_fract_z
 _atom_site_occupancy
  Ce  Ce0  1  0.75000000  0.75000000  0.50000000  1
  Ce  Ce1  1  0.25000000  0.25000000  0.50000000  1
  Fe  Fe0  1  0.29928100  0.56673700  0.00000000  1
  Fe  Fe1  1  0.70071900  0.43326300  0.00000000  1
  Fe  Fe2  1  0.20071900  0.06673700  0.00000000  1
  Fe  Fe3  1  0.79928100  0.93326300  0.00000000  1
  Fe  Fe4  1  0.43326300  0.29928100  0.00000000  1
  Fe  Fe5  1  0.56673700  0.70071900  0.00000000  1
  Fe  Fe6  1  0.93326300  0.20071900  0.00000000  1
  Fe  Fe7  1  0.06673700  0.79928100  0.00000000  1
  Fe  Fe8  1  0.55492800  0.30289000  0.35781800  1
  Fe  Fe9  1  0.80289000  0.05492800  0.35781800  1
  Fe  Fe10  1  0.30289000  0.80289000  0.35781800  1
  Fe  Fe11  1  0.05492800  0.55492800  0.35781800  1
  Fe  Fe12  1  0.44507200  0.69711000  0.64218200  1
  Fe  Fe13  1  0.19711000  0.94507200  0.64218200  1
  Fe  Fe14  1  0.69711000  0.19711000  0.64218200  1
  Fe  Fe15  1  0.94507200  0.44507200  0.64218200  1
  Fe  Fe16  1  0.00000000  0.50000000  0.00000000  1
  Fe  Fe17  1  0.50000000  0.00000000  0.00000000  1
  Si  Si0  1  0.94956600  0.79233900  0.24190500  1
  Si  Si1  1  0.29233900  0.44956600  0.24190500  1
  Si  Si2  1  0.79233900  0.29233900  0.24190500  1
  Si  Si3  1  0.44956600  0.94956600  0.24190500  1
  Si  Si4  1  0.05043400  0.20766100  0.75809500  1
  Si  Si5  1  0.70766100  0.55043400  0.75809500  1
  Si  Si6  1  0.20766100  0.70766100  0.75809500  1
  Si  Si7  1  0.55043400  0.05043400  0.75809500  1
loop_
_geom_bond_atom_site_label_1
_geom_bond_atom_site_label_2
_geom_bond_distance
_geom_bond_site_symmetry_2
Ce0 Fe12 3.192288 1_555
Ce0 Fe9 3.192288 1_565
Ce0 Fe15 3.192288 1_555
Ce0 Fe11 3.192288 1_655
Ce0 Fe10 3.192288 1_555
Ce0 Fe14 3.192288 1_565
Ce0 Fe8 3.192288 1_555
Ce0 Fe13 3.192288 1_655
Ce0 Si5 3.249293 1_555
Ce0 Si0 3.249293 1_555
Ce0 Si7 3.249293 1_565
Ce0 Si3 3.249293 1_555
Ce0 Si6 3.249293 1_655
Ce0 Si2 3.249293 1_555
Ce0 Si4 3.249294 1_665
Ce0 Si1 3.249294 1_555
Ce0 Fe5 3.322940 1_555
Ce0 Fe3 3.322940 1_556
Ce0 Fe7 3.322940 1_656
Ce0 Fe1 3.322940 1_555
Ce0 Fe6 3.322941 1_566
Ce0 Fe0 3.322941 1_555
Ce0 Fe2 3.322941 1_666
Ce0 Fe4 3.322941 1_555
Ce1 Fe13 3.192288 1_545
Ce1 Fe8 3.192288 1_555
Ce1 Fe15 3.192288 1_455
Ce1 Fe11 3.192288 1_555
Ce1 Fe10 3.192288 1_545
Ce1 Fe14 3.192288 1_555
Ce1 Fe9 3.192288 1_455
Ce1 Fe12 3.192288 1_555
Ce1 Si1 3.249293 1_555
Ce1 Si4 3.249293 1_555
Ce1 Si7 3.249293 1_555
Ce1 Si3 3.249293 1_545
Ce1 Si2 3.249293 1_455
Ce1 Si6 3.249293 1_555
Ce1 Si5 3.249294 1_555
Ce1 Si0 3.249294 1_445
Ce1 Fe2 3.322940 1_555
Ce1 Fe4 3.322940 1_556
Ce1 Fe6 3.322940 1_455
Ce1 Fe0 3.322940 1_556
Ce1 Fe7 3.322941 1_545
Ce1 Fe1 3.322941 1_556
Ce1 Fe5 3.322941 1_556
Ce1 Fe3 3.322941 1_445
Fe0 Fe4 2.330846 1_555
Fe0 Fe5 2.330846 1_555
Fe0 Fe16 2.389230 1_555
Fe0 Si6 2.482875 1_554
Fe0 Si3 2.482875 1_555
Fe0 Fe10 2.515642 1_555
Fe0 Fe15 2.515642 1_454
Fe0 Si1 2.526748 1_555
Fe0 Si4 2.526748 1_554
Fe0 Fe7 2.562484 1_555
Fe1 Fe4 2.330846 1_555
Fe1 Fe5 2.330846 1_555
Fe1 Fe16 2.389230 1_655
Fe1 Si2 2.482875 1_555
Fe1 Si7 2.482875 1_554
Fe1 Fe14 2.515642 1_554
Fe1 Fe11 2.515642 1_655
Fe1 Si5 2.526748 1_554
Fe1 Si0 2.526748 1_555
Fe1 Fe6 2.562484 1_555
Fe2 Fe7 2.330846 1_545
Fe2 Fe6 2.330846 1_455
Fe2 Si4 2.482875 1_554
Fe2 Si1 2.482875 1_555
Fe2 Fe8 2.515642 1_555
Fe2 Si3 2.526748 1_545
Fe2 Si6 2.526748 1_544
Fe2 Fe4 2.562484 1_555
Fe3 Fe7 2.330846 1_655
Fe3 Fe6 2.330846 1_565
Fe3 Si0 2.482875 1_555
Fe3 Si5 2.482875 1_554
Fe3 Fe9 2.515641 1_565
Fe3 Si7 2.526748 1_564
Fe3 Si2 2.526748 1_565
Fe3 Fe5 2.562484 1_555
Fe4 Si1 2.482875 1_555
Fe4 Si4 2.482875 1_554
Fe4 Fe8 2.515641 1_555
Fe4 Si7 2.526748 1_554
Fe4 Si2 2.526748 1_555
Fe5 Si5 2.482875 1_554
Fe5 Si0 2.482875 1_555
Fe5 Fe9 2.515642 1_565
Fe5 Si3 2.526748 1_555
Fe5 Si6 2.526748 1_554
Fe6 Si2 2.482875 1_555
Fe6 Si7 2.482875 1_554
Fe6 Si4 2.526748 1_654
Fe6 Si1 2.526748 1_655
Fe7 Si6 2.482875 1_554
Fe7 Si3 2.482875 1_555
Fe7 Si0 2.526748 1_455
Fe7 Si5 2.526748 1_454
Fe8 Si1 2.352040 1_555
Fe8 Si5 2.368246 1_555
Fe8 Si2 2.424996 1_555
Fe8 Si3 2.424996 1_545
Fe9 Si0 2.352040 1_545
Fe9 Si4 2.368246 1_655
Fe9 Si2 2.424996 1_555
Fe9 Si3 2.424996 1_545
Fe10 Si3 2.352040 1_555
Fe10 Si7 2.368246 1_565
Fe10 Si1 2.424996 1_555
Fe10 Si0 2.424996 1_455
Fe10 Fe16 2.475937 1_555
Fe10 Fe7 2.515642 1_555
Fe11 Si2 2.352041 1_455
Fe11 Si6 2.368246 1_555
Fe11 Si1 2.424996 1_555
Fe11 Si0 2.424996 1_455
Fe11 Fe16 2.475936 1_555
Fe11 Fe6 2.515642 1_455
Fe12 Si5 2.352040 1_555
Fe12 Si1 2.368246 1_555
Fe12 Si6 2.424996 1_555
Fe12 Si7 2.424996 1_565
Fe12 Fe17 2.475937 1_566
Fe12 Fe5 2.515641 1_556
Fe12 Fe3 2.515642 1_556
Fe13 Si4 2.352040 1_565
Fe13 Si0 2.368246 1_455
Fe13 Si6 2.424996 1_555
Fe13 Si7 2.424996 1_565
Fe13 Fe17 2.475937 1_566
Fe13 Fe2 2.515641 1_566
Fe13 Fe4 2.515642 1_566
Fe14 Si7 2.352040 1_555
Fe14 Si3 2.368246 1_545
Fe14 Si5 2.424996 1_555
Fe14 Si4 2.424996 1_655
Fe14 Fe16 2.475937 1_656
Fe14 Fe6 2.515642 1_556
Fe15 Si6 2.352041 1_655
Fe15 Si2 2.368246 1_555
Fe15 Si5 2.424996 1_555
Fe15 Si4 2.424996 1_655
Fe15 Fe16 2.475936 1_656
Fe15 Fe7 2.515642 1_656
Fe16 Si1 2.348502 1_555
Fe16 Si5 2.348502 1_454
Fe16 Si0 2.348502 1_455
Fe16 Si4 2.348502 1_554
Fe16 Fe7 2.389230 1_555
Fe16 Fe6 2.389230 1_455
Fe17 Si7 2.348502 1_554
Fe17 Si3 2.348502 1_545
Fe17 Si2 2.348502 1_555
Fe17 Si6 2.348502 1_544
Fe17 Fe4 2.389230 1_555
Fe17 Fe5 2.389230 1_545
Fe17 Fe3 2.389230 1_545
Fe17 Fe2 2.389230 1_555
Fe17 Fe8 2.475937 1_555
Fe17 Fe9 2.475937 1_555
Si0 Si5 2.791967 1_554
Si1 Si4 2.791967 1_554
Si2 Si7 2.791967 1_554
Si3 Si6 2.791967 1_554
