# generated using pymatgen
data_Sb3Ir
_symmetry_space_group_name_H-M   'P 1'
_cell_length_a   8.07734443
_cell_length_b   8.07734367
_cell_length_c   8.07734340
_cell_angle_alpha   109.47122251
_cell_angle_beta   109.47122061
_cell_angle_gamma   109.47120816
_symmetry_Int_Tables_number   1
_chemical_formula_structural   Sb3Ir
_chemical_formula_sum   'Sb12 Ir4'
_cell_volume   405.68026075
_cell_formula_units_Z   4
loop_
 _symmetry_equiv_pos_site_id
 _symmetry_equiv_pos_as_xyz
  1  'x, y, z'
loop_
 _atom_site_type_symbol
 _atom_site_label
 _atom_site_symmetry_multiplicity
 _atom_site_fract_x
 _atom_site_fract_y
 _atom_site_fract_z
 _atom_site_occupancy
  Sb  Sb0  1  0.50657057  0.84634833  0.66022424  1
  Sb  Sb1  1  0.18612609  0.84634833  0.33977576  1
  Sb  Sb2  1  0.81387391  0.15365167  0.66022424  1
  Sb  Sb3  1  0.15365167  0.33977576  0.49342943  1
  Sb  Sb4  1  0.49342943  0.15365167  0.33977576  1
  Sb  Sb5  1  0.15365167  0.66022424  0.81387391  1
  Sb  Sb6  1  0.33977576  0.18612609  0.84634833  1
  Sb  Sb7  1  0.84634833  0.66022424  0.50657057  1
  Sb  Sb8  1  0.66022424  0.81387391  0.15365167  1
  Sb  Sb9  1  0.84634833  0.33977576  0.18612609  1
  Sb  Sb10  1  0.66022424  0.50657057  0.84634833  1
  Sb  Sb11  1  0.33977576  0.49342943  0.15365167  1
  Ir  Ir0  1  0.50000000  -0.00000000  -0.00000000  1
  Ir  Ir1  1  -0.00000000  -0.00000000  0.50000000  1
  Ir  Ir2  1  -0.00000000  0.50000000  -0.00000000  1
  Ir  Ir3  1  0.50000000  0.50000000  0.50000000  1
loop_
_geom_bond_atom_site_label_1
_geom_bond_atom_site_label_2
_geom_bond_distance
_geom_bond_site_symmetry_2
Sb0 Sb2 2.866192 1_565
Sb0 Sb1 2.988777 1_555
Sb1 Sb4 2.866192 1_565
Sb2 Sb4 2.988777 1_555
Sb3 Sb9 2.866192 1_455
Sb3 Sb5 2.988776 1_555
Sb5 Sb7 2.866192 1_455
Sb7 Sb9 2.988776 1_555
Sb10 Sb8 2.866191 1_556
Sb10 Sb6 2.988777 1_555
Sb11 Sb6 2.866191 1_554
Sb11 Sb8 2.988777 1_555
Ir0 Sb4 2.635446 1_555
Ir0 Sb0 2.635446 1_544
Ir0 Sb5 2.635453 1_544
Ir0 Sb9 2.635453 1_555
Ir0 Sb6 2.635469 1_554
Ir0 Sb8 2.635469 1_545
Ir1 Sb3 2.635446 1_555
Ir1 Sb7 2.635446 1_445
Ir1 Sb6 2.635453 1_555
Ir1 Sb8 2.635453 1_445
Ir1 Sb1 2.635469 1_545
Ir1 Sb2 2.635469 1_455
Ir2 Sb11 2.635446 1_555
Ir2 Sb10 2.635446 1_454
Ir2 Sb2 2.635452 1_454
Ir2 Sb1 2.635452 1_555
Ir2 Sb9 2.635469 1_455
Ir2 Sb5 2.635469 1_554
Ir3 Sb11 2.635462 1_555
Ir3 Sb10 2.635462 1_555
Ir3 Sb0 2.635462 1_555
Ir3 Sb4 2.635462 1_555
Ir3 Sb3 2.635463 1_555
Ir3 Sb7 2.635463 1_555
