# generated using pymatgen
data_Ba5Al3F19
_symmetry_space_group_name_H-M   'P 1'
_cell_length_a   11.14996457
_cell_length_b   11.14996457
_cell_length_c   11.14996457
_cell_angle_alpha   96.61431296
_cell_angle_beta   96.61431296
_cell_angle_gamma   140.32062101
_symmetry_Int_Tables_number   1
_chemical_formula_structural   Ba5Al3F19
_chemical_formula_sum   'Ba10 Al6 F38'
_cell_volume   832.53272798
_cell_formula_units_Z   2
loop_
 _symmetry_equiv_pos_site_id
 _symmetry_equiv_pos_as_xyz
  1  'x, y, z'
loop_
 _atom_site_type_symbol
 _atom_site_label
 _atom_site_symmetry_multiplicity
 _atom_site_fract_x
 _atom_site_fract_y
 _atom_site_fract_z
 _atom_site_occupancy
  Ba  Ba0  1  0.75903900  0.08446900  0.84350800  1
  Ba  Ba1  1  0.24096100  0.91553100  0.15649200  1
  Ba  Ba2  1  0.91553100  0.75903900  0.67457000  1
  Ba  Ba3  1  0.08446900  0.24096100  0.32543000  1
  Ba  Ba4  1  0.28529100  0.44296500  0.72825500  1
  Ba  Ba5  1  0.71470900  0.55703500  0.27174500  1
  Ba  Ba6  1  0.55703500  0.28529100  0.84232600  1
  Ba  Ba7  1  0.44296500  0.71470900  0.15767400  1
  Ba  Ba8  1  0.75000000  0.25000000  0.50000000  1
  Ba  Ba9  1  0.25000000  0.75000000  0.50000000  1
  Al  Al0  1  0.32425300  0.15849000  0.48274300  1
  Al  Al1  1  0.67574700  0.84151000  0.51725700  1
  Al  Al2  1  0.84151000  0.32425300  0.16576300  1
  Al  Al3  1  0.15849000  0.67574700  0.83423700  1
  Al  Al4  1  0.24745600  0.24745600  0.00000000  1
  Al  Al5  1  0.75254400  0.75254400  0.00000000  1
  F  F0  1  0.69125600  0.62973100  0.83945900  1
  F  F1  1  0.79027200  0.85179700  0.16054100  1
  F  F2  1  0.85179700  0.69125600  0.06152500  1
  F  F3  1  0.62973100  0.79027200  0.93847500  1
  F  F4  1  0.30874400  0.37026900  0.16054100  1
  F  F5  1  0.20972800  0.14820300  0.83945900  1
  F  F6  1  0.14820300  0.30874400  0.93847500  1
  F  F7  1  0.37026900  0.20972800  0.06152500  1
  F  F8  1  0.57307200  0.36615100  0.60415700  1
  F  F9  1  0.76199400  0.96891500  0.39584300  1
  F  F10  1  0.96891500  0.57307200  0.20692100  1
  F  F11  1  0.36615100  0.76199400  0.79307900  1
  F  F12  1  0.42692800  0.63384900  0.39584300  1
  F  F13  1  0.23800600  0.03108500  0.60415700  1
  F  F14  1  0.03108500  0.42692800  0.79307900  1
  F  F15  1  0.63384900  0.23800600  0.20692100  1
  F  F16  1  0.91884600  0.05453400  0.64097400  1
  F  F17  1  0.41356000  0.27787100  0.35902600  1
  F  F18  1  0.27787100  0.91884600  0.86431100  1
  F  F19  1  0.05453400  0.41356000  0.13568900  1
  F  F20  1  0.08115400  0.94546600  0.35902600  1
  F  F21  1  0.58644000  0.72212900  0.64097400  1
  F  F22  1  0.72212900  0.08115400  0.13568900  1
  F  F23  1  0.94546600  0.58644000  0.86431100  1
  F  F24  1  0.26395500  0.26459700  0.52855200  1
  F  F25  1  0.73604500  0.73540300  0.47144800  1
  F  F26  1  0.73540300  0.26395500  0.99935800  1
  F  F27  1  0.26459700  0.73604500  0.00064200  1
  F  F28  1  0.61778900  0.95009000  0.56787900  1
  F  F29  1  0.38221100  0.04991000  0.43212100  1
  F  F30  1  0.04991000  0.61778900  0.66769900  1
  F  F31  1  0.95009000  0.38221100  0.33230100  1
  F  F32  1  0.11626100  0.42063000  0.53689100  1
  F  F33  1  0.88373900  0.57937000  0.46310900  1
  F  F34  1  0.57937000  0.11626100  0.69563200  1
  F  F35  1  0.42063000  0.88373900  0.30436800  1
  F  F36  1  0.00000000  0.00000000  0.00000000  1
  F  F37  1  0.50000000  0.50000000  0.00000000  1
loop_
_geom_bond_atom_site_label_1
_geom_bond_atom_site_label_2
_geom_bond_distance
_geom_bond_site_symmetry_2
Ba0 F14 2.675173 1_655
Ba0 F11 2.675173 1_545
Ba0 F26 2.685212 1_555
Ba0 F34 2.706335 1_555
Ba0 F3 2.798617 1_545
Ba0 F6 2.798617 1_655
Ba0 F28 2.891741 1_545
Ba0 F21 3.170927 1_545
Ba0 F16 3.170935 1_555
Ba0 F19 3.331252 1_656
Ba0 F22 3.331252 1_556
Ba1 F10 2.675173 1_455
Ba1 F15 2.675173 1_565
Ba1 F27 2.685212 1_555
Ba1 F35 2.706335 1_555
Ba1 F2 2.798617 1_455
Ba1 F7 2.798617 1_565
Ba1 F29 2.891741 1_565
Ba1 F17 3.170927 1_565
Ba1 F20 3.170935 1_555
Ba1 F23 3.331252 1_454
Ba1 F18 3.331252 1_554
Ba2 F13 2.675173 1_665
Ba2 F8 2.675173 1_555
Ba2 F25 2.685212 1_555
Ba2 F33 2.706341 1_555
Ba2 F0 2.798617 1_555
Ba2 F5 2.798617 1_665
Ba2 F30 2.891741 1_655
Ba2 F18 3.170921 1_655
Ba2 F23 3.170927 1_555
Ba2 F16 3.331243 1_565
Ba2 F21 3.331252 1_555
Ba3 F12 2.675173 1_555
Ba3 F9 2.675173 1_445
Ba3 F24 2.685212 1_555
Ba3 F32 2.706341 1_555
Ba3 F1 2.798617 1_445
Ba3 F4 2.798617 1_555
Ba3 F31 2.891741 1_455
Ba3 F22 3.170921 1_455
Ba3 F19 3.170927 1_555
Ba3 F20 3.331243 1_545
Ba3 F17 3.331252 1_555
Ba4 F32 2.528923 1_555
Ba4 F24 2.664497 1_555
Ba4 F21 2.696912 1_555
Ba4 F16 2.696917 1_455
Ba4 F3 2.860508 1_555
Ba4 F6 2.860513 1_555
Ba4 F11 2.882659 1_555
Ba4 F14 2.882662 1_555
Ba4 F0 3.156907 1_555
Ba4 F5 3.156911 1_555
Ba4 F37 3.295129 1_556
Ba5 F33 2.528923 1_555
Ba5 F25 2.664497 1_555
Ba5 F17 2.696912 1_555
Ba5 F20 2.696917 1_655
Ba5 F7 2.860508 1_555
Ba5 F2 2.860513 1_555
Ba5 F15 2.882659 1_555
Ba5 F10 2.882662 1_555
Ba5 F4 3.156907 1_555
Ba5 F1 3.156911 1_555
Ba5 F37 3.295129 1_555
Ba6 F34 2.528925 1_555
Ba6 F26 2.664505 1_555
Ba6 F18 2.696912 1_545
Ba6 F23 2.696919 1_555
Ba6 F5 2.860503 1_555
Ba6 F0 2.860503 1_555
Ba6 F8 2.882658 1_555
Ba6 F13 2.882658 1_555
Ba6 F7 3.156905 1_556
Ba6 F2 3.156905 1_556
Ba6 F37 3.295120 1_556
Ba7 F35 2.528925 1_555
Ba7 F27 2.664505 1_555
Ba7 F22 2.696912 1_565
Ba7 F19 2.696919 1_555
Ba7 F1 2.860503 1_555
Ba7 F4 2.860503 1_555
Ba7 F9 2.882658 1_555
Ba7 F12 2.882658 1_555
Ba7 F6 3.156905 1_554
Ba7 F3 3.156905 1_554
Ba7 F37 3.295120 1_555
Ba8 F29 2.679631 1_555
Ba8 F31 2.679631 1_555
Ba8 F30 2.679631 1_655
Ba8 F28 2.679631 1_545
Ba8 F32 2.817737 1_655
Ba8 F33 2.817737 1_555
Ba8 F35 2.817742 1_545
Ba8 F34 2.817747 1_555
Ba9 F29 2.679631 1_565
Ba9 F31 2.679631 1_455
Ba9 F30 2.679631 1_555
Ba9 F28 2.679631 1_555
Ba9 F33 2.817737 1_455
Ba9 F32 2.817737 1_555
Ba9 F34 2.817742 1_565
Ba9 F35 2.817747 1_555
Al0 F24 1.810207 1_555
Al0 F29 1.825589 1_555
Al0 F17 1.834511 1_555
Al0 F20 1.834515 1_545
Al0 F8 1.848138 1_555
Al0 F13 1.848138 1_555
Al1 F25 1.810207 1_555
Al1 F28 1.825589 1_555
Al1 F21 1.834511 1_555
Al1 F16 1.834515 1_565
Al1 F9 1.848138 1_555
Al1 F12 1.848138 1_555
Al2 F26 1.810207 1_554
Al2 F31 1.825589 1_555
Al2 F19 1.834511 1_655
Al2 F22 1.834521 1_555
Al2 F15 1.848138 1_555
Al2 F10 1.848138 1_555
Al3 F27 1.810207 1_556
Al3 F30 1.825589 1_555
Al3 F23 1.834511 1_455
Al3 F18 1.834521 1_555
Al3 F14 1.848138 1_555
Al3 F11 1.848138 1_555
Al4 F4 1.805397 1_555
Al4 F7 1.805397 1_555
Al4 F6 1.805397 1_554
Al4 F5 1.805397 1_554
Al4 F36 1.872837 1_555
Al4 F37 1.911345 1_555
Al5 F3 1.805397 1_554
Al5 F1 1.805397 1_555
Al5 F0 1.805397 1_554
Al5 F2 1.805397 1_555
Al5 F36 1.872837 1_665
Al5 F37 1.911345 1_555
