# generated using pymatgen
data_Li9Mn2Co5O16
_symmetry_space_group_name_H-M   'P 1'
_cell_length_a   3.01868200
_cell_length_b   9.91025416
_cell_length_c   9.97983048
_cell_angle_alpha   77.77659606
_cell_angle_beta   87.72614014
_cell_angle_gamma   87.41505150
_symmetry_Int_Tables_number   1
_chemical_formula_structural   Li9Mn2Co5O16
_chemical_formula_sum   'Li9 Mn2 Co5 O16'
_cell_volume   291.35154515
_cell_formula_units_Z   1
loop_
 _symmetry_equiv_pos_site_id
 _symmetry_equiv_pos_as_xyz
  1  'x, y, z'
loop_
 _atom_site_type_symbol
 _atom_site_label
 _atom_site_symmetry_multiplicity
 _atom_site_fract_x
 _atom_site_fract_y
 _atom_site_fract_z
 _atom_site_occupancy
  Li  Li0  1  0.00577300  0.24849500  0.12566600  1
  Li  Li1  1  0.50370000  0.74752700  0.12851300  1
  Li  Li2  1  0.49742700  0.24447800  0.37578900  1
  Li  Li3  1  0.00214900  0.75336200  0.37330800  1
  Li  Li4  1  0.99624500  0.24618900  0.62776900  1
  Li  Li5  1  0.50285000  0.75721000  0.62213600  1
  Li  Li6  1  0.49559600  0.25099400  0.87320200  1
  Li  Li7  1  0.99610500  0.75208800  0.87323700  1
  Li  Li8  1  0.99994000  0.00031900  0.49978100  1
  Mn  Mn0  1  0.99989600  0.99951500  0.00028200  1
  Mn  Mn1  1  0.99997400  0.50150700  0.74944500  1
  Co  Co0  1  0.50058200  0.50059600  0.00326800  1
  Co  Co1  1  0.50983300  0.00087500  0.26064800  1
  Co  Co2  1  0.99988400  0.49867500  0.25041200  1
  Co  Co3  1  0.49947500  0.49936400  0.49652400  1
  Co  Co4  1  0.49003700  0.99933600  0.73937200  1
  O  O0  1  0.52560500  0.11111800  0.07436800  1
  O  O1  1  0.98556300  0.61317700  0.06993900  1
  O  O2  1  0.02903400  0.11438400  0.30764200  1
  O  O3  1  0.53629800  0.61247700  0.31553100  1
  O  O4  1  0.50272900  0.11528300  0.58224800  1
  O  O5  1  0.98674600  0.61637000  0.56482600  1
  O  O6  1  0.02312700  0.11407600  0.81811000  1
  O  O7  1  0.53395700  0.61654200  0.82021400  1
  O  O8  1  0.46531100  0.38647900  0.18452900  1
  O  O9  1  0.97772400  0.88529300  0.18230900  1
  O  O10  1  0.01534300  0.38538700  0.43101800  1
  O  O11  1  0.49669700  0.88460300  0.41745000  1
  O  O12  1  0.46497700  0.38456600  0.67995000  1
  O  O13  1  0.97005100  0.88620500  0.69205500  1
  O  O14  1  0.01278900  0.38487700  0.93413200  1
  O  O15  1  0.47458300  0.88863400  0.92632800  1
loop_
_geom_bond_atom_site_label_1
_geom_bond_atom_site_label_2
_geom_bond_distance
_geom_bond_site_symmetry_2
Li0 O2 2.012254 1_555
Li0 O14 2.094361 1_554
Li0 O0 2.148652 1_555
Li0 O8 2.171468 1_555
Li0 O0 2.179130 1_455
Li0 O8 2.222528 1_455
Li1 O3 2.056541 1_555
Li1 O1 2.077905 1_555
Li1 O9 2.172658 1_455
Li1 O9 2.178850 1_555
Li1 O15 2.200642 1_554
Li1 O1 2.269536 1_455
Li2 O10 2.109644 1_555
Li2 O8 2.120859 1_555
Li2 O2 2.176225 1_555
Li2 O4 2.183712 1_555
Li2 O2 2.190440 1_655
Li2 O10 2.299864 1_655
Li3 O11 2.055250 1_455
Li3 O9 2.072536 1_455
Li3 O5 2.097212 1_455
Li3 O11 2.141112 1_555
Li3 O3 2.200402 1_455
Li3 O3 2.223924 1_555
Li4 O4 2.059736 1_655
Li4 O6 2.068492 1_655
Li4 O4 2.141589 1_555
Li4 O10 2.147792 1_655
Li4 O12 2.165591 1_655
Li4 O12 2.182085 1_555
Li5 O5 2.120573 1_555
Li5 O11 2.162370 1_555
Li5 O7 2.167001 1_555
Li5 O13 2.174537 1_555
Li5 O13 2.193431 1_455
Li5 O5 2.303774 1_455
Li6 O14 2.085955 1_555
Li6 O12 2.098201 1_555
Li6 O6 2.174921 1_555
Li6 O6 2.175055 1_655
Li6 O0 2.187444 1_556
Li6 O14 2.274089 1_655
Li7 O13 2.006597 1_555
Li7 O7 2.135253 1_555
Li7 O1 2.145785 1_556
Li7 O15 2.153044 1_555
Li7 O15 2.176865 1_655
Li7 O7 2.180972 1_655
Li8 O2 2.010010 1_655
Li8 O13 2.011385 1_545
Li8 O4 2.091160 1_555
Li8 O11 2.094030 1_645
Li8 O4 2.220618 1_655
Li8 O11 2.225564 1_545
Mn0 O9 1.926733 1_555
Mn0 O6 1.929304 1_664
Mn0 O15 1.980647 1_654
Mn0 O0 1.984749 1_565
Mn0 O15 2.204606 1_554
Mn0 O0 2.210438 1_665
Mn1 O5 1.950816 1_555
Mn1 O14 1.958100 1_655
Mn1 O7 1.973544 1_555
Mn1 O12 1.977580 1_655
Mn1 O7 2.234682 1_655
Mn1 O12 2.242839 1_555
Co0 O8 1.921442 1_555
Co0 O7 1.942886 1_554
Co0 O1 2.044588 1_455
Co0 O14 2.066973 1_654
Co0 O1 2.090406 1_555
Co0 O14 2.127778 1_554
Co1 O11 1.736020 1_545
Co1 O2 1.901047 1_555
Co1 O0 1.946679 1_555
Co1 O9 2.015897 1_545
Co1 O2 2.093455 1_655
Co1 O9 2.268962 1_445
Co2 O10 1.912179 1_655
Co2 O1 1.915661 1_555
Co2 O8 1.933371 1_655
Co2 O3 1.936102 1_555
Co2 O8 2.197331 1_555
Co2 O3 2.207916 1_655
Co3 O3 1.915595 1_555
Co3 O12 1.941597 1_555
Co3 O10 2.049751 1_655
Co3 O5 2.072169 1_455
Co3 O10 2.091995 1_555
Co3 O5 2.130942 1_555
Co4 O4 1.736920 1_565
Co4 O13 1.898147 1_555
Co4 O15 1.953940 1_555
Co4 O6 2.010706 1_565
Co4 O13 2.094181 1_455
Co4 O6 2.268005 1_665
