# generated using pymatgen
data_Li3Co2O5
_symmetry_space_group_name_H-M   'P 1'
_cell_length_a   12.10247957
_cell_length_b   12.10247957
_cell_length_c   5.04774261
_cell_angle_alpha   84.40054314
_cell_angle_beta   84.40054314
_cell_angle_gamma   14.04596037
_symmetry_Int_Tables_number   1
_chemical_formula_structural   Li3Co2O5
_chemical_formula_sum   'Li6 Co4 O10'
_cell_volume   178.56938889
_cell_formula_units_Z   2
loop_
 _symmetry_equiv_pos_site_id
 _symmetry_equiv_pos_as_xyz
  1  'x, y, z'
loop_
 _atom_site_type_symbol
 _atom_site_label
 _atom_site_symmetry_multiplicity
 _atom_site_fract_x
 _atom_site_fract_y
 _atom_site_fract_z
 _atom_site_occupancy
  Li  Li0  1  0.00000000  0.00000000  0.50000000  1
  Li  Li1  1  0.40052800  0.40052800  0.70271300  1
  Li  Li2  1  0.80040500  0.80040500  0.90094000  1
  Li  Li3  1  0.19959500  0.19959500  0.09906000  1
  Li  Li4  1  0.59947200  0.59947200  0.29728700  1
  Li  Li5  1  0.50000000  0.50000000  0.00000000  1
  Co  Co0  1  0.09536200  0.09536200  0.81099500  1
  Co  Co1  1  0.90463800  0.90463800  0.18900500  1
  Co  Co2  1  0.30064100  0.30064100  0.39197000  1
  Co  Co3  1  0.69935900  0.69935900  0.60803000  1
  O  O0  1  0.94475700  0.94475700  0.88509500  1
  O  O1  1  0.35227900  0.35227900  0.06288500  1
  O  O2  1  0.75181200  0.75181200  0.26721700  1
  O  O3  1  0.14968400  0.14968400  0.49098700  1
  O  O4  1  0.55382900  0.55382900  0.65521600  1
  O  O5  1  0.05524300  0.05524300  0.11490500  1
  O  O6  1  0.44617100  0.44617100  0.34478400  1
  O  O7  1  0.85031600  0.85031600  0.50901300  1
  O  O8  1  0.24818800  0.24818800  0.73278300  1
  O  O9  1  0.64772100  0.64772100  0.93711500  1
loop_
_geom_bond_atom_site_label_1
_geom_bond_atom_site_label_2
_geom_bond_distance
_geom_bond_site_symmetry_2
Li0 O6 2.162161 1_545
Li0 O6 2.162161 1_455
Li0 O4 2.162161 1_545
Li0 O4 2.162161 1_455
Li0 O5 2.243349 1_555
Li0 O0 2.243349 1_445
Li1 O6 2.019175 1_555
Li1 O1 2.057790 1_556
Li1 O0 2.087693 1_545
Li1 O0 2.087693 1_455
Li1 O7 2.198314 1_545
Li1 O7 2.198314 1_455
Li2 O2 2.087271 1_556
Li2 O1 2.147358 1_566
Li2 O1 2.147358 1_656
Li2 O8 2.166347 1_565
Li2 O8 2.166347 1_655
Li2 O7 2.210231 1_555
Li3 O8 2.087271 1_554
Li3 O9 2.147358 1_544
Li3 O9 2.147358 1_454
Li3 O2 2.166347 1_455
Li3 O2 2.166347 1_545
Li3 O3 2.210231 1_555
Li4 O4 2.019175 1_555
Li4 O9 2.057790 1_554
Li4 O5 2.087693 1_655
Li4 O5 2.087693 1_565
Li4 O3 2.198314 1_655
Li4 O3 2.198314 1_565
Li5 O6 2.063651 1_555
Li5 O4 2.063651 1_554
Li5 O5 2.106809 1_565
Li5 O5 2.106809 1_655
Li5 O0 2.106809 1_454
Li5 O0 2.106809 1_544
Co0 O5 1.729603 1_556
Co0 O3 1.974283 1_555
Co0 O4 1.989407 1_455
Co0 O4 1.989407 1_545
Co0 O9 2.081951 1_545
Co0 O9 2.081951 1_455
Co1 O0 1.729603 1_554
Co1 O7 1.974283 1_555
Co1 O6 1.989407 1_655
Co1 O6 1.989407 1_565
Co1 O1 2.081951 1_655
Co1 O1 2.081951 1_565
Co2 O1 1.973090 1_555
Co2 O7 2.025194 1_455
Co2 O7 2.025194 1_545
Co2 O2 2.026680 1_455
Co2 O2 2.026680 1_545
Co2 O8 2.030065 1_555
Co3 O9 1.973090 1_555
Co3 O3 2.025194 1_565
Co3 O3 2.025194 1_655
Co3 O8 2.026680 1_565
Co3 O8 2.026680 1_655
Co3 O2 2.030065 1_555
