# generated using pymatgen
data_BaZrSe3
_symmetry_space_group_name_H-M   'P 1'
_cell_length_a   7.26262050
_cell_length_b   7.26262050
_cell_length_c   6.44910600
_cell_angle_alpha   90.00000000
_cell_angle_beta   90.00000000
_cell_angle_gamma   120.00000459
_symmetry_Int_Tables_number   1
_chemical_formula_structural   BaZrSe3
_chemical_formula_sum   'Ba2 Zr2 Se6'
_cell_volume   294.58920587
_cell_formula_units_Z   2
loop_
 _symmetry_equiv_pos_site_id
 _symmetry_equiv_pos_as_xyz
  1  'x, y, z'
loop_
 _atom_site_type_symbol
 _atom_site_label
 _atom_site_symmetry_multiplicity
 _atom_site_fract_x
 _atom_site_fract_y
 _atom_site_fract_z
 _atom_site_occupancy
  Ba  Ba0  1  0.33333300  0.66666700  0.75000000  1
  Ba  Ba1  1  0.66666700  0.33333300  0.25000000  1
  Zr  Zr0  1  0.00000000  0.00000000  0.50000000  1
  Zr  Zr1  1  0.00000000  0.00000000  0.00000000  1
  Se  Se0  1  0.17257300  0.82742700  0.25000000  1
  Se  Se1  1  0.17257300  0.34514700  0.25000000  1
  Se  Se2  1  0.65485300  0.82742700  0.25000000  1
  Se  Se3  1  0.82742700  0.17257300  0.75000000  1
  Se  Se4  1  0.82742700  0.65485300  0.75000000  1
  Se  Se5  1  0.34514700  0.17257300  0.75000000  1
loop_
_geom_bond_atom_site_label_1
_geom_bond_atom_site_label_2
_geom_bond_distance
_geom_bond_site_symmetry_2
Ba0 Se4 3.632063 1_455
Ba0 Se5 3.632063 1_565
Ba0 Se3 3.632070 1_455
Ba0 Se3 3.632070 1_565
Ba0 Se5 3.632078 1_555
Ba0 Se4 3.632078 1_555
Ba0 Se1 3.806203 1_556
Ba0 Se2 3.806203 1_555
Ba0 Se2 3.806203 1_556
Ba0 Se1 3.806203 1_555
Ba0 Se0 3.806203 1_555
Ba0 Se0 3.806203 1_556
Ba1 Se2 3.632063 1_545
Ba1 Se1 3.632063 1_655
Ba1 Se0 3.632070 1_545
Ba1 Se0 3.632070 1_655
Ba1 Se2 3.632078 1_555
Ba1 Se1 3.632078 1_555
Ba1 Se4 3.806203 1_555
Ba1 Se4 3.806203 1_554
Ba1 Se5 3.806203 1_554
Ba1 Se5 3.806203 1_555
Ba1 Se3 3.806203 1_554
Ba1 Se3 3.806203 1_555
Se0 Zr1 2.704064 1_565
Se0 Zr0 2.704064 1_565
Se1 Zr0 2.704069 1_555
Se1 Zr1 2.704069 1_555
Se2 Zr0 2.704069 1_665
Se2 Zr1 2.704069 1_665
Se3 Zr1 2.704064 1_656
Se3 Zr0 2.704064 1_655
Se4 Zr0 2.704069 1_665
Se4 Zr1 2.704069 1_666
Se5 Zr1 2.704069 1_556
Se5 Zr0 2.704069 1_555
