# generated using pymatgen
data_NdCo(BO2)5
_symmetry_space_group_name_H-M   'P 1'
_cell_length_a   7.67707700
_cell_length_b   8.78948300
_cell_length_c   12.63913025
_cell_angle_alpha   48.76959672
_cell_angle_beta   90.00000000
_cell_angle_gamma   90.00000000
_symmetry_Int_Tables_number   1
_chemical_formula_structural   NdCo(BO2)5
_chemical_formula_sum   'Nd4 Co4 B20 O40'
_cell_volume   641.40442898
_cell_formula_units_Z   4
loop_
 _symmetry_equiv_pos_site_id
 _symmetry_equiv_pos_as_xyz
  1  'x, y, z'
loop_
 _atom_site_type_symbol
 _atom_site_label
 _atom_site_symmetry_multiplicity
 _atom_site_fract_x
 _atom_site_fract_y
 _atom_site_fract_z
 _atom_site_occupancy
  Nd  Nd0  1  0.31326400  0.94644100  0.73621600  1
  Nd  Nd1  1  0.81326400  0.05355900  0.76378400  1
  Nd  Nd2  1  0.68673600  0.05355900  0.26378400  1
  Nd  Nd3  1  0.18673600  0.94644100  0.23621600  1
  Co  Co0  1  0.09077200  0.47440100  0.62582300  1
  Co  Co1  1  0.59077200  0.52559900  0.87417700  1
  Co  Co2  1  0.90922800  0.52559900  0.37417700  1
  Co  Co3  1  0.40922800  0.47440100  0.12582300  1
  B  B0  1  0.57981900  0.64754900  0.26356100  1
  B  B1  1  0.18486400  0.51426300  0.91439900  1
  B  B2  1  0.68486400  0.48573700  0.58560100  1
  B  B3  1  0.81513600  0.48573700  0.08560100  1
  B  B4  1  0.31513600  0.51426300  0.41439900  1
  B  B5  1  0.90466800  0.84426600  0.50245900  1
  B  B6  1  0.40466800  0.15573400  0.99754100  1
  B  B7  1  0.09533200  0.15573400  0.49754100  1
  B  B8  1  0.59533200  0.84426600  0.00245900  1
  B  B9  1  0.07981900  0.35245100  0.23643900  1
  B  B10  1  0.42018100  0.35245100  0.73643900  1
  B  B11  1  0.92018100  0.64754900  0.76356100  1
  B  B12  1  0.32724500  0.09320400  0.39190800  1
  B  B13  1  0.82724500  0.90679600  0.10809200  1
  B  B14  1  0.67275500  0.90679600  0.60809200  1
  B  B15  1  0.17275500  0.09320400  0.89190800  1
  B  B16  1  0.53373700  0.27075100  0.44740100  1
  B  B17  1  0.03373700  0.72924900  0.05259900  1
  B  B18  1  0.46626300  0.72924900  0.55259900  1
  B  B19  1  0.96626300  0.27075100  0.94740100  1
  O  O0  1  0.21762100  0.21161600  0.26183300  1
  O  O1  1  0.65406200  0.43306300  0.06890700  1
  O  O2  1  0.15406200  0.56693700  0.43109300  1
  O  O3  1  0.34593800  0.56693700  0.93109300  1
  O  O4  1  0.84593800  0.43306300  0.56890700  1
  O  O5  1  0.45710100  0.11614700  0.11572600  1
  O  O6  1  0.95710100  0.88385300  0.38427400  1
  O  O7  1  0.54289900  0.88385300  0.88427400  1
  O  O8  1  0.71762100  0.78838400  0.23816700  1
  O  O9  1  0.04289900  0.11614700  0.61572600  1
  O  O10  1  0.28237900  0.21161600  0.76183300  1
  O  O11  1  0.78237900  0.78838400  0.73816700  1
  O  O12  1  0.53412000  0.68232800  0.13396800  1
  O  O13  1  0.03412000  0.31767200  0.36603200  1
  O  O14  1  0.46588000  0.31767200  0.86603200  1
  O  O15  1  0.96588000  0.68232800  0.63396800  1
  O  O16  1  0.41640000  0.67724900  0.30976700  1
  O  O17  1  0.91640000  0.32275100  0.19023300  1
  O  O18  1  0.58360000  0.32275100  0.69023300  1
  O  O19  1  0.08360000  0.67724900  0.80976700  1
  O  O20  1  0.65147000  0.44356200  0.36958600  1
  O  O21  1  0.15147000  0.55643800  0.13041400  1
  O  O22  1  0.34853000  0.55643800  0.63041400  1
  O  O23  1  0.84853000  0.44356200  0.86958600  1
  O  O24  1  0.47670000  0.22871100  0.35571200  1
  O  O25  1  0.97670000  0.77128900  0.14428800  1
  O  O26  1  0.52330000  0.77128900  0.64428800  1
  O  O27  1  0.02330000  0.22871100  0.85571200  1
  O  O28  1  0.39228900  0.91372700  0.41499800  1
  O  O29  1  0.89228900  0.08627300  0.08500200  1
  O  O30  1  0.60771100  0.08627300  0.58500200  1
  O  O31  1  0.12554900  0.31990400  0.99123700  1
  O  O32  1  0.22332500  0.02964400  0.51234700  1
  O  O33  1  0.72332500  0.97035600  0.98765300  1
  O  O34  1  0.77667500  0.97035600  0.48765300  1
  O  O35  1  0.27667500  0.02964400  0.01234700  1
  O  O36  1  0.37445100  0.31990400  0.49123700  1
  O  O37  1  0.87445100  0.68009600  0.00876300  1
  O  O38  1  0.62554900  0.68009600  0.50876300  1
  O  O39  1  0.10771100  0.91372700  0.91499800  1
loop_
_geom_bond_atom_site_label_1
_geom_bond_atom_site_label_2
_geom_bond_distance
_geom_bond_site_symmetry_2
Nd0 O7 2.356989 1_555
Nd0 O9 2.420323 1_565
Nd0 O32 2.507996 1_565
Nd0 O3 2.534978 1_555
Nd0 O10 2.566750 1_565
Nd0 O19 2.582971 1_555
Nd0 O39 2.611983 1_555
Nd0 O30 2.678947 1_565
Nd0 O36 2.680533 1_565
Nd0 O26 2.945832 1_555
Nd1 O9 2.356989 1_655
Nd1 O7 2.420323 1_545
Nd1 O33 2.507996 1_545
Nd1 O4 2.534978 1_555
Nd1 O11 2.566750 1_545
Nd1 O18 2.582971 1_555
Nd1 O30 2.611983 1_555
Nd1 O39 2.678947 1_645
Nd1 O37 2.680533 1_546
Nd1 O27 2.945832 1_655
Nd2 O5 2.356989 1_555
Nd2 O6 2.420323 1_545
Nd2 O34 2.507996 1_545
Nd2 O1 2.534978 1_555
Nd2 O8 2.566750 1_545
Nd2 O17 2.582971 1_555
Nd2 O29 2.611983 1_555
Nd2 O28 2.678947 1_545
Nd2 O38 2.680533 1_545
Nd2 O24 2.945832 1_555
Nd3 O6 2.356989 1_455
Nd3 O5 2.420323 1_565
Nd3 O35 2.507996 1_565
Nd3 O2 2.534978 1_555
Nd3 O0 2.566750 1_565
Nd3 O16 2.582971 1_555
Nd3 O28 2.611983 1_555
Nd3 O29 2.678947 1_465
Nd3 O31 2.680533 1_564
Nd3 O25 2.945832 1_455
Co0 O2 2.077608 1_555
Co0 O22 2.119956 1_555
Co0 O15 2.125541 1_455
Co0 O4 2.127670 1_455
Co0 O27 2.259017 1_555
Co0 O10 2.284716 1_555
Co1 O1 2.077608 1_556
Co1 O23 2.119956 1_555
Co1 O14 2.125541 1_555
Co1 O3 2.127670 1_555
Co1 O26 2.259017 1_555
Co1 O11 2.284716 1_555
Co2 O4 2.077608 1_555
Co2 O20 2.119956 1_555
Co2 O13 2.125541 1_655
Co2 O2 2.127670 1_655
Co2 O25 2.259017 1_555
Co2 O8 2.284716 1_555
Co3 O3 2.077608 1_554
Co3 O21 2.119956 1_555
Co3 O12 2.125541 1_555
Co3 O1 2.127670 1_555
Co3 O24 2.259017 1_555
Co3 O0 2.284716 1_555
B0 O20 1.464875 1_555
B0 O16 1.477883 1_555
B0 O8 1.493586 1_555
B0 O12 1.496454 1_555
B1 O31 1.371835 1_555
B1 O19 1.381379 1_555
B1 O3 1.384471 1_555
B2 O38 1.371835 1_555
B2 O18 1.381379 1_555
B2 O4 1.384471 1_555
B3 O37 1.371835 1_555
B3 O17 1.381379 1_555
B3 O1 1.384471 1_555
B4 O36 1.371835 1_555
B4 O16 1.381379 1_555
B4 O2 1.384471 1_555
B5 O6 1.352510 1_555
B5 O15 1.375116 1_555
B5 O34 1.398362 1_555
B6 O5 1.352510 1_556
B6 O14 1.375116 1_555
B6 O35 1.398362 1_556
B7 O9 1.352510 1_555
B7 O13 1.375116 1_555
B7 O32 1.398362 1_555
B8 O7 1.352510 1_554
B8 O12 1.375116 1_555
B8 O33 1.398362 1_554
B9 O21 1.464875 1_555
B9 O17 1.477883 1_455
B9 O0 1.493586 1_555
B9 O13 1.496454 1_555
B10 O22 1.464875 1_555
B10 O18 1.477883 1_555
B10 O10 1.493586 1_555
B10 O14 1.496454 1_555
B11 O23 1.464875 1_555
B11 O19 1.477883 1_655
B11 O11 1.493586 1_555
B11 O15 1.496454 1_555
B12 O32 1.464519 1_555
B12 O28 1.488690 1_545
B12 O24 1.492007 1_555
B12 O0 1.496277 1_555
B13 O33 1.464519 1_554
B13 O29 1.488690 1_565
B13 O25 1.492007 1_555
B13 O8 1.496277 1_555
B14 O34 1.464519 1_555
B14 O30 1.488690 1_565
B14 O26 1.492007 1_555
B14 O11 1.496277 1_555
B15 O35 1.464519 1_556
B15 O39 1.488690 1_545
B15 O27 1.492007 1_555
B15 O10 1.496277 1_555
B16 O20 1.456762 1_555
B16 O24 1.495230 1_555
B16 O30 1.503029 1_555
B16 O36 1.518061 1_555
B17 O21 1.456762 1_555
B17 O25 1.495230 1_455
B17 O39 1.503029 1_554
B17 O37 1.518061 1_455
B18 O22 1.456762 1_555
B18 O26 1.495230 1_555
B18 O28 1.503029 1_555
B18 O38 1.518061 1_555
B19 O23 1.456762 1_555
B19 O27 1.495230 1_655
B19 O29 1.503029 1_556
B19 O31 1.518061 1_655
