# generated using pymatgen
data_NpH4ClO4
_symmetry_space_group_name_H-M   'P 1'
_cell_length_a   9.16535100
_cell_length_b   16.04034121
_cell_length_c   16.04034121
_cell_angle_alpha   85.31815477
_cell_angle_beta   73.39949082
_cell_angle_gamma   73.39949082
_symmetry_Int_Tables_number   1
_chemical_formula_structural   NpH4ClO4
_chemical_formula_sum   'Np16 H64 Cl16 O64'
_cell_volume   2165.69573989
_cell_formula_units_Z   16
loop_
 _symmetry_equiv_pos_site_id
 _symmetry_equiv_pos_as_xyz
  1  'x, y, z'
loop_
 _atom_site_type_symbol
 _atom_site_label
 _atom_site_symmetry_multiplicity
 _atom_site_fract_x
 _atom_site_fract_y
 _atom_site_fract_z
 _atom_site_occupancy
  Np  Np0  1  0.14705774  0.37823185  0.60602718  1
  Np  Np1  1  0.13131677  0.12176815  0.89397282  1
  Np  Np2  1  0.02528959  0.60602718  0.12176815  1
  Np  Np3  1  0.75308492  0.89397282  0.37823185  1
  Np  Np4  1  0.85294226  0.62176815  0.39397282  1
  Np  Np5  1  0.86868323  0.87823185  0.10602718  1
  Np  Np6  1  0.97471041  0.39397282  0.87823185  1
  Np  Np7  1  0.24691508  0.10602718  0.62176815  1
  Np  Np8  1  0.98804285  0.34462604  0.38756110  1
  Np  Np9  1  0.72023000  0.15537396  0.11243890  1
  Np  Np10  1  0.83266889  0.38756110  0.15537396  1
  Np  Np11  1  0.37560395  0.11243890  0.34462604  1
  Np  Np12  1  0.01195715  0.65537396  0.61243890  1
  Np  Np13  1  0.27977000  0.84462604  0.88756110  1
  Np  Np14  1  0.16733111  0.61243890  0.84462604  1
  Np  Np15  1  0.62439605  0.88756110  0.65537396  1
  H  H0  1  0.87241479  0.17671472  0.43159332  1
  H  H1  1  0.48072284  0.32328528  0.06840668  1
  H  H2  1  0.54912951  0.43159332  0.32328528  1
  H  H3  1  0.30400811  0.06840668  0.17671472  1
  H  H4  1  0.12758521  0.82328528  0.56840668  1
  H  H5  1  0.51927716  0.67671472  0.93159332  1
  H  H6  1  0.45087049  0.56840668  0.67671472  1
  H  H7  1  0.69599189  0.93159332  0.82328528  1
  H  H8  1  0.88353184  0.20842840  0.51969873  1
  H  H9  1  0.61165897  0.29157160  0.98030127  1
  H  H10  1  0.59196025  0.51969873  0.29157160  1
  H  H11  1  0.40323057  0.98030127  0.20842840  1
  H  H12  1  0.11646816  0.79157160  0.48030127  1
  H  H13  1  0.38834103  0.70842840  0.01969873  1
  H  H14  1  0.40803975  0.48030127  0.70842840  1
  H  H15  1  0.59676943  0.01969873  0.79157160  1
  H  H16  1  0.68346625  0.46496702  0.51068717  1
  H  H17  1  0.65912043  0.03503298  0.98931283  1
  H  H18  1  0.64843326  0.51068717  0.03503298  1
  H  H19  1  0.19415341  0.98931283  0.46496702  1
  H  H20  1  0.31653375  0.53503298  0.48931283  1
  H  H21  1  0.34087957  0.96496702  0.01068717  1
  H  H22  1  0.35156674  0.48931283  0.96496702  1
  H  H23  1  0.80584659  0.01068717  0.53503298  1
  H  H24  1  0.63235797  0.37874399  0.51224583  1
  H  H25  1  0.52334779  0.12125601  0.98775417  1
  H  H26  1  0.51110196  0.51224583  0.12125601  1
  H  H27  1  0.14460380  0.98775417  0.37874399  1
  H  H28  1  0.36764203  0.62125601  0.48775417  1
  H  H29  1  0.47665221  0.87874399  0.01224583  1
  H  H30  1  0.48889804  0.48775417  0.87874399  1
  H  H31  1  0.85539620  0.01224583  0.62125601  1
  H  H32  1  0.23964317  0.41126811  0.24012287  1
  H  H33  1  0.89103415  0.08873189  0.25987713  1
  H  H34  1  0.15091128  0.24012287  0.08873189  1
  H  H35  1  0.47976604  0.25987713  0.41126811  1
  H  H36  1  0.76035683  0.58873189  0.75987713  1
  H  H37  1  0.10896585  0.91126811  0.74012287  1
  H  H38  1  0.84908872  0.75987713  0.91126811  1
  H  H39  1  0.52023396  0.74012287  0.58873189  1
  H  H40  1  0.27647762  0.40829539  0.33286470  1
  H  H41  1  0.01763772  0.09170461  0.16713530  1
  H  H42  1  0.18477302  0.33286470  0.09170461  1
  H  H43  1  0.60934233  0.16713530  0.40829539  1
  H  H44  1  0.72352238  0.59170461  0.66713530  1
  H  H45  1  0.98236228  0.90829539  0.83286470  1
  H  H46  1  0.81522698  0.66713530  0.90829539  1
  H  H47  1  0.39065767  0.83286470  0.59170461  1
  H  H48  1  0.19472846  0.61989992  0.39085519  1
  H  H49  1  0.20548356  0.88010008  0.10914481  1
  H  H50  1  0.31462837  0.39085519  0.88010008  1
  H  H51  1  0.58558365  0.10914481  0.61989992  1
  H  H52  1  0.80527154  0.38010008  0.60914481  1
  H  H53  1  0.79451644  0.11989992  0.89085519  1
  H  H54  1  0.68537163  0.60914481  0.11989992  1
  H  H55  1  0.41441635  0.89085519  0.38010008  1
  H  H56  1  0.18574676  0.63544232  0.29251237  1
  H  H57  1  0.11370145  0.86455768  0.20748763  1
  H  H58  1  0.32118908  0.29251237  0.86455768  1
  H  H59  1  0.47825913  0.20748763  0.63544232  1
  H  H60  1  0.81425324  0.36455768  0.70748763  1
  H  H61  1  0.88629855  0.13544232  0.79251237  1
  H  H62  1  0.67881092  0.70748763  0.13544232  1
  H  H63  1  0.52174087  0.79251237  0.36455768  1
  Cl  Cl0  1  0.92319074  0.15934287  0.63967370  1
  Cl  Cl1  1  0.72220731  0.34065713  0.86032630  1
  Cl  Cl2  1  0.58253361  0.63967370  0.34065713  1
  Cl  Cl3  1  0.56286444  0.86032630  0.15934287  1
  Cl  Cl4  1  0.07680926  0.84065713  0.36032630  1
  Cl  Cl5  1  0.27779269  0.65934287  0.13967370  1
  Cl  Cl6  1  0.41746639  0.36032630  0.65934287  1
  Cl  Cl7  1  0.43713556  0.13967370  0.84065713  1
  Cl  Cl8  1  0.29330343  0.44366164  0.10619395  1
  Cl  Cl9  1  0.84315901  0.05633836  0.39380605  1
  Cl  Cl10  1  0.23696506  0.10619395  0.05633836  1
  Cl  Cl11  1  0.39949737  0.39380605  0.44366164  1
  Cl  Cl12  1  0.70669657  0.55633836  0.89380605  1
  Cl  Cl13  1  0.15684099  0.94366164  0.60619395  1
  Cl  Cl14  1  0.76303494  0.89380605  0.94366164  1
  Cl  Cl15  1  0.60050263  0.60619395  0.55633836  1
  O  O0  1  0.29992798  0.10087048  0.49997461  1
  O  O1  1  0.90077307  0.39912952  0.00002539  1
  O  O2  1  0.90079846  0.49997461  0.39912952  1
  O  O3  1  0.79990259  0.00002539  0.10087048  1
  O  O4  1  0.70007202  0.89912952  0.50002539  1
  O  O5  1  0.09922693  0.60087048  -0.00002539  1
  O  O6  1  0.09920154  0.50002539  0.60087048  1
  O  O7  1  0.20009741  -0.00002539  0.89912952  1
  O  O8  1  0.19890408  0.25676852  0.61435078  1
  O  O9  1  0.07002338  0.24323148  0.88564922  1
  O  O10  1  0.95567260  0.61435078  0.24323148  1
  O  O11  1  0.81325487  0.88564922  0.25676852  1
  O  O12  1  0.80109592  0.74323148  0.38564922  1
  O  O13  1  0.92997662  0.75676852  0.11435078  1
  O  O14  1  0.04432740  0.38564922  0.75676852  1
  O  O15  1  0.18674513  0.11435078  0.74323148  1
  O  O16  1  0.86887983  0.22889450  0.46152174  1
  O  O17  1  0.55929608  0.27110550  0.03847826  1
  O  O18  1  0.59777434  0.46152174  0.27110550  1
  O  O19  1  0.33040157  0.03847826  0.22889450  1
  O  O20  1  0.13112017  0.77110550  0.53847826  1
  O  O21  1  0.44070392  0.72889450  0.96152174  1
  O  O22  1  0.40222566  0.53847826  0.72889450  1
  O  O23  1  0.66959843  0.96152174  0.77110550  1
  O  O24  1  0.19893631  0.20612474  0.34371344  1
  O  O25  1  0.74877449  0.29387526  0.15628656  1
  O  O26  1  0.90506105  0.34371344  0.29387526  1
  O  O27  1  0.54264975  0.15628656  0.20612474  1
  O  O28  1  0.80106369  0.79387526  0.65628656  1
  O  O29  1  0.25122551  0.70612474  0.84371344  1
  O  O30  1  0.09493895  0.65628656  0.70612474  1
  O  O31  1  0.45735025  0.84371344  0.79387526  1
  O  O32  1  0.06861338  0.34992825  0.48109674  1
  O  O33  1  0.89963837  0.15007175  0.01890326  1
  O  O34  1  0.91854163  0.48109674  0.15007175  1
  O  O35  1  0.54971012  0.01890326  0.34992825  1
  O  O36  1  0.93138662  0.65007175  0.51890326  1
  O  O37  1  0.10036163  0.84992825  0.98109674  1
  O  O38  1  0.08145837  0.51890326  0.84992825  1
  O  O39  1  0.45028988  0.98109674  0.65007175  1
  O  O40  1  0.72437644  0.40115831  0.50525923  1
  O  O41  1  0.63079398  0.09884169  0.99474077  1
  O  O42  1  0.62553474  0.50525923  0.09884169  1
  O  O43  1  0.22963567  0.99474077  0.40115831  1
  O  O44  1  0.27562356  0.59884169  0.49474077  1
  O  O45  1  0.36920602  0.90115831  0.00525923  1
  O  O46  1  0.37446526  0.49474077  0.90115831  1
  O  O47  1  0.77036433  0.00525923  0.59884169  1
  O  O48  1  0.21682592  0.38838311  0.30028763  1
  O  O49  1  0.90549665  0.11161689  0.19971237  1
  O  O50  1  0.10520902  0.30028763  0.11161689  1
  O  O51  1  0.51711354  0.19971237  0.38838311  1
  O  O52  1  0.78317408  0.61161689  0.69971237  1
  O  O53  1  0.09450335  0.88838311  0.80028763  1
  O  O54  1  0.89479098  0.69971237  0.88838311  1
  O  O55  1  0.48288646  0.80028763  0.61161689  1
  O  O56  1  0.14359815  0.60875376  0.34830939  1
  O  O57  1  0.10066129  0.89124624  0.15169061  1
  O  O58  1  0.25235191  0.34830939  0.89124624  1
  O  O59  1  0.49190753  0.15169061  0.60875376  1
  O  O60  1  0.85640185  0.39124624  0.65169061  1
  O  O61  1  0.89933871  0.10875376  0.84830939  1
  O  O62  1  0.74764809  0.65169061  0.10875376  1
  O  O63  1  0.50809247  0.84830939  0.39124624  1
loop_
_geom_bond_atom_site_label_1
_geom_bond_atom_site_label_2
_geom_bond_distance
_geom_bond_site_symmetry_2
Np0 O8 1.871987 1_555
Np0 O6 1.876313 1_555
Np0 O14 2.330071 1_555
Np0 O32 2.428380 1_555
Np0 O60 2.503806 1_455
Np1 O9 1.871987 1_555
Np1 O7 1.876313 1_555
Np1 O15 2.330071 1_555
Np1 O33 2.428380 1_456
Np1 O61 2.503806 1_455
Np2 O10 1.871987 1_455
Np2 O5 1.876313 1_555
Np2 O13 2.330071 1_455
Np2 O34 2.428380 1_455
Np2 O62 2.503806 1_455
Np3 O11 1.871987 1_555
Np3 O4 1.876313 1_555
Np3 O12 2.330071 1_555
Np3 O35 2.428380 1_565
Np3 O63 2.503806 1_555
Np4 O12 1.871987 1_555
Np4 O2 1.876313 1_555
Np4 O10 2.330071 1_555
Np4 O36 2.428380 1_555
Np4 O56 2.503806 1_655
Np5 O13 1.871987 1_555
Np5 O3 1.876313 1_565
Np5 O11 2.330071 1_555
Np5 O37 2.428380 1_654
Np5 O57 2.503806 1_655
Np6 O14 1.871987 1_655
Np6 O1 1.876313 1_556
Np6 O9 2.330071 1_655
Np6 O38 2.428380 1_655
Np6 O58 2.503806 1_655
Np7 O15 1.871987 1_555
Np7 O0 1.876313 1_555
Np7 O8 2.330071 1_555
Np7 O39 2.428380 1_545
Np7 O59 2.503806 1_555
Np8 O32 1.869056 1_655
Np8 O26 1.870814 1_555
Np8 O2 2.394848 1_555
Np8 O48 2.419197 1_655
Np8 O16 2.470832 1_555
Np8 O24 2.488168 1_655
Np8 O40 2.578158 1_555
Np9 O33 1.869056 1_555
Np9 O27 1.870814 1_555
Np9 O3 2.394848 1_555
Np9 O49 2.419197 1_555
Np9 O17 2.470832 1_555
Np9 O25 2.488168 1_555
Np9 O41 2.578158 1_554
Np10 O34 1.869056 1_555
Np10 O25 1.870814 1_555
Np10 O1 2.394848 1_555
Np10 O50 2.419197 1_655
Np10 O18 2.470832 1_555
Np10 O26 2.488168 1_555
Np10 O42 2.578158 1_555
Np11 O35 1.869056 1_555
Np11 O24 1.870814 1_555
Np11 O0 2.394848 1_555
Np11 O51 2.419197 1_555
Np11 O19 2.470832 1_555
Np11 O27 2.488168 1_555
Np11 O43 2.578158 1_545
Np12 O36 1.869056 1_455
Np12 O30 1.870814 1_555
Np12 O6 2.394848 1_555
Np12 O52 2.419197 1_455
Np12 O20 2.470832 1_555
Np12 O28 2.488168 1_455
Np12 O44 2.578158 1_555
Np13 O37 1.869056 1_555
Np13 O31 1.870814 1_555
Np13 O7 2.394848 1_565
Np13 O53 2.419197 1_555
Np13 O21 2.470832 1_555
Np13 O29 2.488168 1_555
Np13 O45 2.578158 1_556
Np14 O38 1.869056 1_555
Np14 O29 1.870814 1_555
Np14 O5 2.394848 1_556
Np14 O54 2.419197 1_455
Np14 O22 2.470832 1_555
Np14 O30 2.488168 1_555
Np14 O46 2.578158 1_555
Np15 O39 1.869056 1_555
Np15 O28 1.870814 1_555
Np15 O4 2.394848 1_555
Np15 O55 2.419197 1_555
Np15 O23 2.470832 1_555
Np15 O31 2.488168 1_555
Np15 O47 2.578158 1_565
H0 O16 0.986538 1_555
H1 O17 0.986538 1_555
H2 O18 0.986538 1_555
H3 O19 0.986538 1_555
H4 O20 0.986538 1_555
H5 O21 0.986538 1_555
H6 O22 0.986538 1_555
H7 O23 0.986538 1_555
H8 O16 0.996510 1_555
H9 O17 0.996510 1_556
H10 O18 0.996510 1_555
H11 O19 0.996510 1_565
H12 O20 0.996510 1_555
H13 O21 0.996510 1_554
H14 O22 0.996510 1_555
H15 O23 0.996510 1_545
H16 O40 0.986084 1_555
H17 O41 0.986084 1_555
H18 O42 0.986084 1_555
H19 O43 0.986084 1_555
H20 O44 0.986084 1_555
H21 O45 0.986084 1_555
H22 O46 0.986084 1_555
H23 O47 0.986084 1_555
H24 O40 0.982748 1_555
H25 O41 0.982748 1_555
H26 O42 0.982748 1_555
H27 O43 0.982748 1_555
H28 O44 0.982748 1_555
H29 O45 0.982748 1_555
H30 O46 0.982748 1_555
H31 O47 0.982748 1_555
H32 O48 0.990225 1_555
H33 O49 0.990225 1_555
H34 O50 0.990225 1_555
H35 O51 0.990225 1_555
H36 O52 0.990225 1_555
H37 O53 0.990225 1_555
H38 O54 0.990225 1_555
H39 O55 0.990225 1_555
H40 O48 0.981963 1_555
H41 O49 0.981964 1_455
H42 O50 0.981964 1_555
H43 O51 0.981964 1_555
H44 O52 0.981963 1_555
H45 O53 0.981964 1_655
H46 O54 0.981964 1_555
H47 O55 0.981964 1_555
H48 O56 0.983792 1_555
H49 O57 0.983792 1_555
H50 O58 0.983792 1_555
H51 O59 0.983792 1_555
H52 O60 0.983792 1_555
H53 O61 0.983792 1_555
H54 O62 0.983792 1_555
H55 O63 0.983792 1_555
H56 O56 0.983829 1_555
H57 O57 0.983829 1_555
H58 O58 0.983829 1_555
H59 O59 0.983829 1_555
H60 O60 0.983829 1_555
H61 O61 0.983829 1_555
H62 O62 0.983829 1_555
H63 O63 0.983829 1_555
Cl0 H8 2.108157 1_555
Cl0 Np7 2.778585 1_655
Cl1 H9 2.108157 1_555
Cl1 Np6 2.778585 1_555
Cl2 H10 2.108157 1_555
Cl2 Np4 2.778585 1_555
Cl3 H11 2.108157 1_555
Cl3 Np5 2.778585 1_555
Cl4 H12 2.108157 1_555
Cl4 Np3 2.778585 1_455
Cl5 H13 2.108157 1_555
Cl5 Np2 2.778585 1_555
Cl6 H14 2.108157 1_555
Cl6 Np0 2.778585 1_555
Cl7 H15 2.108157 1_555
Cl7 Np1 2.778585 1_555
Cl8 Np2 2.996573 1_555
Cl9 Np3 2.996573 1_545
Cl10 Np1 2.996573 1_554
Cl11 Np0 2.996573 1_555
Cl12 Np6 2.996573 1_555
Cl13 Np7 2.996573 1_565
Cl14 Np5 2.996573 1_556
Cl15 Np4 2.996573 1_555
