# generated using pymatgen
data_Ba(H8O5)2
_symmetry_space_group_name_H-M   'P 1'
_cell_length_a   6.41040217
_cell_length_b   6.41040217
_cell_length_c   11.74909851
_cell_angle_alpha   87.68835528
_cell_angle_beta   87.68835528
_cell_angle_gamma   91.01509346
_symmetry_Int_Tables_number   1
_chemical_formula_structural   Ba(H8O5)2
_chemical_formula_sum   'Ba2 H32 O20'
_cell_volume   481.93275586
_cell_formula_units_Z   2
loop_
 _symmetry_equiv_pos_site_id
 _symmetry_equiv_pos_as_xyz
  1  'x, y, z'
loop_
 _atom_site_type_symbol
 _atom_site_label
 _atom_site_symmetry_multiplicity
 _atom_site_fract_x
 _atom_site_fract_y
 _atom_site_fract_z
 _atom_site_occupancy
  Ba  Ba0  1  0.98216600  0.00700200  0.49427200  1
  Ba  Ba1  1  0.00700200  0.98216600  0.99427200  1
  H  H0  1  0.72304200  0.41463900  0.39483300  1
  H  H1  1  0.96330700  0.46788800  0.36015900  1
  H  H2  1  0.22151400  0.73314400  0.28138800  1
  H  H3  1  0.28437600  0.61085400  0.39472100  1
  H  H4  1  0.39635900  0.29358800  0.39562300  1
  H  H5  1  0.28338900  0.20209900  0.28690500  1
  H  H6  1  0.59254500  0.73721700  0.39814000  1
  H  H7  1  0.53460400  0.97192700  0.36608800  1
  H  H8  1  0.20209900  0.28338900  0.78690500  1
  H  H9  1  0.29358800  0.39635900  0.89562300  1
  H  H10  1  0.73721700  0.59254500  0.89814000  1
  H  H11  1  0.97192700  0.53460400  0.86608800  1
  H  H12  1  0.73314400  0.22151400  0.78138800  1
  H  H13  1  0.61085400  0.28437600  0.89472100  1
  H  H14  1  0.41463900  0.72304200  0.89483300  1
  H  H15  1  0.46788800  0.96330700  0.86015900  1
  H  H16  1  0.26853200  0.60387800  0.60703300  1
  H  H17  1  0.12439500  0.69402800  0.70757600  1
  H  H18  1  0.69679100  0.38539300  0.61169500  1
  H  H19  1  0.93144200  0.43162000  0.64154000  1
  H  H20  1  0.64191300  0.85871000  0.71350000  1
  H  H21  1  0.58320300  0.72226100  0.60976200  1
  H  H22  1  0.36900100  0.05797300  0.66283500  1
  H  H23  1  0.36044500  0.29321700  0.61468800  1
  H  H24  1  0.85871000  0.64191300  0.21350000  1
  H  H25  1  0.72226100  0.58320300  0.10976200  1
  H  H26  1  0.05797300  0.36900100  0.16283500  1
  H  H27  1  0.29321700  0.36044500  0.11468800  1
  H  H28  1  0.43162000  0.93144200  0.14154000  1
  H  H29  1  0.38539300  0.69679100  0.11169500  1
  H  H30  1  0.60387800  0.26853200  0.10703300  1
  H  H31  1  0.69402800  0.12439500  0.20757600  1
  O  O0  1  0.49554200  0.50379800  0.44334100  1
  O  O1  1  0.50379800  0.49554200  0.94334100  1
  O  O2  1  0.48619700  0.49675000  0.57065000  1
  O  O3  1  0.49675000  0.48619700  0.07065000  1
  O  O4  1  0.85617500  0.35453600  0.36081400  1
  O  O5  1  0.16153700  0.67837700  0.35672800  1
  O  O6  1  0.33520100  0.16120700  0.36292900  1
  O  O7  1  0.65465400  0.87555000  0.36837400  1
  O  O8  1  0.16120700  0.33520100  0.86292900  1
  O  O9  1  0.87555000  0.65465400  0.86837400  1
  O  O10  1  0.67837700  0.16153700  0.85672800  1
  O  O11  1  0.35453600  0.85617500  0.86081400  1
  O  O12  1  0.12406500  0.66159300  0.62700100  1
  O  O13  1  0.82662300  0.31681400  0.64147300  1
  O  O14  1  0.63495300  0.86586900  0.63059100  1
  O  O15  1  0.27073300  0.17190500  0.65090500  1
  O  O16  1  0.86586900  0.63495300  0.13059100  1
  O  O17  1  0.17190500  0.27073300  0.15090500  1
  O  O18  1  0.31681400  0.82662300  0.14147300  1
  O  O19  1  0.66159300  0.12406500  0.12700100  1
loop_
_geom_bond_atom_site_label_1
_geom_bond_atom_site_label_2
_geom_bond_distance
_geom_bond_site_symmetry_2
Ba0 O7 2.755775 1_545
Ba0 O14 2.803922 1_545
Ba0 O4 2.821048 1_555
Ba0 O6 2.827733 1_655
Ba0 O12 2.840647 1_645
Ba0 O13 2.852666 1_555
Ba0 O15 2.878937 1_655
Ba0 O5 2.929512 1_645
Ba1 O9 2.755775 1_455
Ba1 O16 2.803922 1_456
Ba1 O11 2.821048 1_555
Ba1 O8 2.827733 1_565
Ba1 O19 2.840647 1_466
Ba1 O18 2.852666 1_556
Ba1 O17 2.878937 1_566
Ba1 O10 2.929512 1_465
H0 O4 1.016419 1_555
H0 O0 1.663452 1_555
H1 O4 0.990521 1_555
H2 O5 0.998654 1_555
H3 O5 1.015646 1_555
H3 O0 1.641142 1_555
H4 O6 1.023747 1_555
H4 O0 1.610512 1_555
H5 O6 0.992465 1_555
H6 O7 1.009171 1_555
H6 O0 1.668514 1_555
H7 O7 0.995906 1_555
H8 O8 0.992465 1_555
H9 O8 1.023747 1_555
H9 O1 1.610512 1_555
H10 O9 1.009171 1_555
H10 O1 1.668514 1_555
H11 O9 0.995906 1_555
H12 O10 0.998654 1_555
H13 O10 1.015646 1_555
H13 O1 1.641142 1_555
H14 O11 1.016419 1_555
H14 O1 1.663452 1_555
H15 O11 0.990521 1_555
H16 O12 1.025272 1_555
H16 O2 1.615787 1_555
H17 O12 0.977482 1_555
H18 O13 1.016070 1_555
H18 O2 1.619722 1_555
H19 O13 0.987769 1_555
H20 O14 0.976192 1_555
H21 O14 1.015538 1_555
H21 O2 1.653015 1_555
H22 O15 0.982367 1_555
H23 O15 1.026774 1_555
H23 O2 1.579394 1_555
H24 O16 0.976192 1_555
H25 O16 1.015538 1_555
H25 O3 1.653015 1_555
H26 O17 0.982367 1_555
H27 O17 1.026774 1_555
H27 O3 1.579394 1_555
H28 O18 0.987769 1_555
H29 O18 1.016070 1_555
H29 O3 1.619722 1_555
H30 O19 1.025272 1_555
H30 O3 1.615787 1_555
H31 O19 0.977482 1_555
O0 O2 1.493375 1_555
O1 O3 1.493375 1_556
