# generated using pymatgen
data_Sr2LiV2(Si2O7)2
_symmetry_space_group_name_H-M   'P 1'
_cell_length_a   5.51419580
_cell_length_b   7.13800200
_cell_length_c   7.63403089
_cell_angle_alpha   90.00000000
_cell_angle_beta   101.02859388
_cell_angle_gamma   90.00000000
_symmetry_Int_Tables_number   1
_chemical_formula_structural   Sr2LiV2(Si2O7)2
_chemical_formula_sum   'Sr2 Li1 V2 Si4 O14'
_cell_volume   294.92877846
_cell_formula_units_Z   1
loop_
 _symmetry_equiv_pos_site_id
 _symmetry_equiv_pos_as_xyz
  1  'x, y, z'
loop_
 _atom_site_type_symbol
 _atom_site_label
 _atom_site_symmetry_multiplicity
 _atom_site_fract_x
 _atom_site_fract_y
 _atom_site_fract_z
 _atom_site_occupancy
  Sr  Sr0  1  0.08534300  0.75000000  0.36750900  1
  Sr  Sr1  1  0.92508100  0.25000000  0.66679300  1
  Li  Li0  1  0.43787200  0.25000000  0.44536300  1
  V  V0  1  0.94298900  0.75000000  0.79373100  1
  V  V1  1  0.01070900  0.25000000  0.20355600  1
  Si  Si0  1  0.44568700  0.47860100  0.78579300  1
  Si  Si1  1  0.53271100  0.52235900  0.21329300  1
  Si  Si2  1  0.53271100  0.97764100  0.21329300  1
  Si  Si3  1  0.44568700  0.02139900  0.78579300  1
  O  O0  1  0.54352900  0.75000000  0.25452900  1
  O  O1  1  0.42826800  0.25000000  0.71003800  1
  O  O2  1  0.49548800  0.48435300  0.00049700  1
  O  O3  1  0.49548800  0.01564800  0.00049700  1
  O  O4  1  0.68172900  0.55841300  0.71050100  1
  O  O5  1  0.79838200  0.44185300  0.31615200  1
  O  O6  1  0.29967300  0.05379800  0.29611400  1
  O  O7  1  0.17351400  0.93631100  0.69801800  1
  O  O8  1  0.00607900  0.25000000  0.97089000  1
  O  O9  1  0.00326100  0.75000000  0.01352300  1
  O  O10  1  0.79838200  0.05814700  0.31615200  1
  O  O11  1  0.68172900  0.94158700  0.71050100  1
  O  O12  1  0.17351400  0.56368900  0.69801800  1
  O  O13  1  0.29967300  0.44620200  0.29611400  1
loop_
_geom_bond_atom_site_label_1
_geom_bond_atom_site_label_2
_geom_bond_distance
_geom_bond_site_symmetry_2
Li0 O13 1.872985 1_555
Li0 O6 1.872985 1_555
Li0 O1 2.031333 1_555
O0 Si2 1.654018 1_555
O0 Si1 1.654018 1_555
O0 Sr0 2.821517 1_555
O0 Sr0 2.946890 1_655
O1 Si0 1.727728 1_555
O1 Si3 1.727728 1_555
O1 Sr1 2.730811 1_455
O1 Sr1 2.821348 1_555
O2 Si0 1.609781 1_554
O2 Si1 1.620841 1_555
O3 Si3 1.609781 1_554
O3 Si2 1.620843 1_545
O4 Si0 1.623353 1_555
O4 V0 1.999781 1_555
O4 Sr1 2.632433 1_555
O5 Si1 1.628745 1_555
O5 V1 2.090472 1_655
O5 Sr0 2.694115 1_655
O5 Sr1 2.968714 1_555
O6 Si2 1.630146 1_545
O6 V1 2.137480 1_555
O6 Sr0 2.577351 1_545
O7 Si3 1.638771 1_565
O7 V0 2.067292 1_455
O7 Sr1 2.611926 1_465
O7 Sr0 2.811007 1_555
O8 V1 1.771473 1_556
O8 Sr1 2.278614 1_455
O9 V0 1.646950 1_454
O9 Sr0 2.653213 1_555
O10 Si2 1.628745 1_545
O10 V1 2.090472 1_655
O10 Sr0 2.694115 1_645
O10 Sr1 2.968714 1_555
O11 Si3 1.623353 1_565
O11 V0 1.999781 1_555
O11 Sr1 2.632433 1_565
O12 Si0 1.638771 1_555
O12 V0 2.067292 1_455
O12 Sr1 2.611926 1_455
O12 Sr0 2.811007 1_555
O13 Si1 1.630146 1_555
O13 V1 2.137480 1_555
O13 Sr0 2.577351 1_555
