# generated using pymatgen
data_Nd2Ge6Pd
_symmetry_space_group_name_H-M   'P 1'
_cell_length_a   4.12345500
_cell_length_b   4.18611300
_cell_length_c   11.39693748
_cell_angle_alpha   90.00000000
_cell_angle_beta   100.42229914
_cell_angle_gamma   90.00000000
_symmetry_Int_Tables_number   1
_chemical_formula_structural   Nd2Ge6Pd
_chemical_formula_sum   'Nd2 Ge6 Pd1'
_cell_volume   193.47962647
_cell_formula_units_Z   1
loop_
 _symmetry_equiv_pos_site_id
 _symmetry_equiv_pos_as_xyz
  1  'x, y, z'
loop_
 _atom_site_type_symbol
 _atom_site_label
 _atom_site_symmetry_multiplicity
 _atom_site_fract_x
 _atom_site_fract_y
 _atom_site_fract_z
 _atom_site_occupancy
  Nd  Nd0  1  0.77875100  0.50000000  0.55750200  1
  Nd  Nd1  1  0.11590800  0.50000000  0.23181600  1
  Ge  Ge0  1  0.49492400  0.50000000  0.98984900  1
  Ge  Ge1  1  0.38324400  0.50000000  0.76648800  1
  Ge  Ge2  1  0.99349400  0.00000000  0.98698800  1
  Ge  Ge3  1  0.88160000  0.00000000  0.76320000  1
  Ge  Ge4  1  0.66683900  0.00000000  0.33367800  1
  Ge  Ge5  1  0.23538200  0.00000000  0.47076300  1
  Pd  Pd0  1  0.55685800  0.00000000  0.11371700  1
loop_
_geom_bond_atom_site_label_1
_geom_bond_atom_site_label_2
_geom_bond_distance
_geom_bond_site_symmetry_2
Nd1 Pd0 3.222412 1_555
Nd1 Pd0 3.222412 1_565
Nd1 Pd0 3.222414 1_465
Nd1 Pd0 3.222414 1_455
Ge0 Ge1 2.503631 1_555
Ge0 Pd0 2.511694 1_556
Ge0 Pd0 2.511694 1_566
Ge0 Ge2 2.938133 1_455
Ge0 Ge2 2.938133 1_465
Ge0 Ge2 2.938136 1_555
Ge0 Ge2 2.938136 1_565
Ge0 Nd1 3.406854 1_556
Ge0 Nd1 3.406856 1_656
Ge1 Ge3 2.938191 1_465
Ge1 Ge3 2.938191 1_455
Ge1 Ge3 2.938191 1_565
Ge1 Ge3 2.938191 1_555
Ge1 Nd0 3.120584 1_455
Ge1 Nd0 3.120584 1_555
Ge2 Pd0 2.503700 1_656
Ge2 Pd0 2.503703 1_556
Ge2 Ge3 2.508418 1_555
Ge2 Nd1 3.451349 1_646
Ge2 Nd1 3.451349 1_656
Ge3 Nd0 3.113985 1_555
Ge3 Nd0 3.113985 1_545
Ge4 Pd0 2.465521 1_555
Ge4 Ge5 2.571335 1_555
Ge4 Ge5 2.571339 1_655
Ge4 Nd1 3.152019 1_555
Ge4 Nd1 3.152019 1_545
Ge4 Nd1 3.152019 1_655
Ge4 Nd1 3.152019 1_645
Ge4 Nd0 3.267272 1_555
Ge4 Nd0 3.267272 1_545
Ge5 Nd0 3.094651 1_545
Ge5 Nd0 3.094651 1_555
Ge5 Nd0 3.094654 1_445
Ge5 Nd0 3.094654 1_455
Ge5 Nd1 3.399170 1_555
Ge5 Nd1 3.399170 1_545
