# generated using pymatgen
data_Li6V3P8O29
_symmetry_space_group_name_H-M   'P 1'
_cell_length_a   9.83702651
_cell_length_b   9.83702651
_cell_length_c   14.09450100
_cell_angle_alpha   90.00000000
_cell_angle_beta   90.00000000
_cell_angle_gamma   120.00000341
_symmetry_Int_Tables_number   1
_chemical_formula_structural   Li6V3P8O29
_chemical_formula_sum   'Li12 V6 P16 O58'
_cell_volume   1181.15802475
_cell_formula_units_Z   2
loop_
 _symmetry_equiv_pos_site_id
 _symmetry_equiv_pos_as_xyz
  1  'x, y, z'
loop_
 _atom_site_type_symbol
 _atom_site_label
 _atom_site_symmetry_multiplicity
 _atom_site_fract_x
 _atom_site_fract_y
 _atom_site_fract_z
 _atom_site_occupancy
  Li  Li0  1  0.24634900  0.34609000  0.06206500  1
  Li  Li1  1  0.09974000  0.34609000  0.56206500  1
  Li  Li2  1  0.24634900  0.90026000  0.56206500  1
  Li  Li3  1  0.00000000  0.00000000  0.38785500  1
  Li  Li4  1  0.00000000  0.00000000  0.88785500  1
  Li  Li5  1  0.09974000  0.75365100  0.06206500  1
  Li  Li6  1  0.65391000  0.90026000  0.06206500  1
  Li  Li7  1  0.65391000  0.75365100  0.56206500  1
  Li  Li8  1  0.66666700  0.33333300  0.60626700  1
  Li  Li9  1  0.66666700  0.33333300  0.10626700  1
  Li  Li10  1  0.33333300  0.66666700  0.99240100  1
  Li  Li11  1  0.33333300  0.66666700  0.49240100  1
  V  V0  1  0.89462000  0.66563100  0.25070700  1
  V  V1  1  0.77101100  0.66563100  0.75070700  1
  V  V2  1  0.89462000  0.22898900  0.75070700  1
  V  V3  1  0.77101100  0.10538000  0.25070700  1
  V  V4  1  0.33436900  0.22898900  0.25070700  1
  V  V5  1  0.33436900  0.10538000  0.75070700  1
  P  P0  1  0.24225400  0.35083000  0.84429900  1
  P  P1  1  0.10857700  0.35083000  0.34429900  1
  P  P2  1  0.24225400  0.89142300  0.34429900  1
  P  P3  1  0.00000000  0.00000000  0.12687500  1
  P  P4  1  0.00000000  0.00000000  0.62687500  1
  P  P5  1  0.10857700  0.75774600  0.84429900  1
  P  P6  1  0.02435900  0.57951900  0.66052600  1
  P  P7  1  0.64917000  0.89142300  0.84429900  1
  P  P8  1  0.02435900  0.44484000  0.16052600  1
  P  P9  1  0.64917000  0.75774600  0.34429900  1
  P  P10  1  0.55516000  0.57951900  0.16052600  1
  P  P11  1  0.66666700  0.33333300  0.36878900  1
  P  P12  1  0.66666700  0.33333300  0.86878900  1
  P  P13  1  0.42048100  0.44484000  0.66052600  1
  P  P14  1  0.55516000  0.97564100  0.66052600  1
  P  P15  1  0.42048100  0.97564100  0.16052600  1
  O  O0  1  0.32224100  0.45163800  0.58166500  1
  O  O1  1  0.24984700  0.32734400  0.33106000  1
  O  O2  1  0.12939700  0.45163800  0.08166500  1
  O  O3  1  0.07749700  0.32734400  0.83106000  1
  O  O4  1  0.22609100  0.18507800  0.82986400  1
  O  O5  1  0.15167100  0.14692600  0.16580700  1
  O  O6  1  0.22609100  0.04101300  0.32986400  1
  O  O7  1  0.32224100  0.87060300  0.08166500  1
  O  O8  1  0.24984700  0.92250300  0.83106000  1
  O  O9  1  0.99525400  0.14692600  0.66580700  1
  O  O10  1  0.95898700  0.18507800  0.32986400  1
  O  O11  1  0.15167100  0.00474600  0.66580700  1
  O  O12  1  0.00000000  0.00000000  0.02009100  1
  O  O13  1  0.00000000  0.00000000  0.52009100  1
  O  O14  1  0.99525400  0.84832900  0.16580700  1
  O  O15  1  0.81492200  0.04101300  0.82986400  1
  O  O16  1  0.85307400  0.00474600  0.16580700  1
  O  O17  1  0.07749700  0.75015300  0.33106000  1
  O  O18  1  0.11138600  0.64981800  0.76019000  1
  O  O19  1  0.12939700  0.67775900  0.58166500  1
  O  O20  1  0.11254800  0.68300100  0.93597300  1
  O  O21  1  0.95898700  0.77390900  0.82986400  1
  O  O22  1  0.85307400  0.84832900  0.66580700  1
  O  O23  1  0.99452900  0.58488200  0.15802100  1
  O  O24  1  0.81492200  0.77390900  0.32986400  1
  O  O25  1  0.67265600  0.92250300  0.33106000  1
  O  O26  1  0.11138600  0.46156800  0.26019000  1
  O  O27  1  0.11254800  0.42954600  0.43597300  1
  O  O28  1  0.54836200  0.87060300  0.58166500  1
  O  O29  1  0.99452900  0.40964700  0.65802100  1
  O  O30  1  0.86083300  0.56826400  0.66652100  1
  O  O31  1  0.67265600  0.75015300  0.83106000  1
  O  O32  1  0.80662400  0.48550700  0.32503300  1
  O  O33  1  0.70743100  0.56826400  0.16652100  1
  O  O34  1  0.54836200  0.67775900  0.08166500  1
  O  O35  1  0.57045400  0.68300100  0.43597300  1
  O  O36  1  0.53843200  0.64981800  0.26019000  1
  O  O37  1  0.59035300  0.58488200  0.65802100  1
  O  O38  1  0.80662400  0.32111700  0.82503300  1
  O  O39  1  0.86083300  0.29256900  0.16652100  1
  O  O40  1  0.67888300  0.48550700  0.82503300  1
  O  O41  1  0.66666700  0.33333300  0.97415800  1
  O  O42  1  0.66666700  0.33333300  0.47415800  1
  O  O43  1  0.51449300  0.32111700  0.32503300  1
  O  O44  1  0.70743100  0.13916700  0.66652100  1
  O  O45  1  0.67888300  0.19337600  0.32503300  1
  O  O46  1  0.41511800  0.40964700  0.15802100  1
  O  O47  1  0.35018200  0.46156800  0.76019000  1
  O  O48  1  0.31699900  0.42954600  0.93597300  1
  O  O49  1  0.43173600  0.29256900  0.66652100  1
  O  O50  1  0.51449300  0.19337600  0.82503300  1
  O  O51  1  0.43173600  0.13916700  0.16652100  1
  O  O52  1  0.59035300  0.00547100  0.15802100  1
  O  O53  1  0.57045400  0.88745200  0.93597300  1
  O  O54  1  0.53843200  0.88861400  0.76019000  1
  O  O55  1  0.41511800  0.00547100  0.65802100  1
  O  O56  1  0.31699900  0.88745200  0.43597300  1
  O  O57  1  0.35018200  0.88861400  0.26019000  1
loop_
_geom_bond_atom_site_label_1
_geom_bond_atom_site_label_2
_geom_bond_distance
_geom_bond_site_symmetry_2
Li0 O2 1.916349 1_555
Li0 O48 1.935169 1_554
Li0 O46 1.984506 1_555
Li0 O5 2.240341 1_555
Li1 O0 1.916357 1_555
Li1 O27 1.935166 1_555
Li1 O29 1.984499 1_455
Li1 O9 2.240341 1_455
Li2 O19 1.916357 1_555
Li2 O56 1.935173 1_555
Li2 O55 1.984505 1_565
Li2 O11 2.240341 1_565
Li3 O13 1.863800 1_555
Li3 O24 2.209073 1_445
Li3 O6 2.209073 1_555
Li3 O10 2.209073 1_455
Li4 O12 1.863800 1_556
Li4 O4 2.209073 1_555
Li4 O21 2.209073 1_445
Li4 O15 2.209073 1_455
Li5 O7 1.916357 1_555
Li5 O20 1.935173 1_554
Li5 O23 1.984505 1_455
Li5 O14 2.240341 1_455
Li6 O34 1.916357 1_555
Li6 O53 1.935166 1_554
Li6 O52 1.984499 1_565
Li6 O16 2.240341 1_565
Li7 O28 1.916349 1_555
Li7 O35 1.935169 1_555
Li7 O37 1.984506 1_555
Li7 O22 2.240341 1_555
Li8 O42 1.862010 1_555
Li8 O44 2.301325 1_555
Li8 O30 2.301330 1_555
Li8 O49 2.301334 1_555
Li9 O41 1.862010 1_554
Li9 O39 2.301325 1_555
Li9 O51 2.301330 1_555
Li9 O33 2.301334 1_555
Li10 O20 2.392559 1_555
Li10 O53 2.392569 1_555
Li10 O48 2.392578 1_555
Li10 O7 2.416242 1_556
Li10 O2 2.416247 1_556
Li10 O34 2.416251 1_556
Li11 O56 2.392559 1_555
Li11 O27 2.392569 1_555
Li11 O35 2.392578 1_555
Li11 O19 2.416242 1_555
Li11 O28 2.416247 1_555
Li11 O0 2.416251 1_555
O0 P13 1.496146 1_555
O1 P1 1.529855 1_555
O1 V4 1.927297 1_555
O2 P8 1.496146 1_555
O3 P0 1.529865 1_555
O3 V2 1.927297 1_455
O4 P0 1.570345 1_555
O4 V5 1.956769 1_555
O5 P3 1.568336 1_555
O5 V4 1.965378 1_555
O6 P2 1.570354 1_545
O6 V4 1.956769 1_555
O7 P15 1.496146 1_555
O8 P5 1.529861 1_555
O8 V5 1.927297 1_565
O9 P4 1.568341 1_655
O9 V2 1.965371 1_555
O10 P1 1.570349 1_655
O10 V3 1.956769 1_555
O11 P4 1.568332 1_555
O11 V5 1.965377 1_555
O12 P3 1.505067 1_555
O13 P4 1.505067 1_555
O14 P3 1.568332 1_665
O14 V0 1.965377 1_555
O15 P7 1.570349 1_545
O15 V2 1.956769 1_555
O16 P3 1.568341 1_655
O16 V3 1.965371 1_555
O17 P2 1.529861 1_555
O17 V0 1.927297 1_455
O18 P5 1.600824 1_555
O18 P6 1.610066 1_555
O19 P6 1.496146 1_555
O20 P5 1.496793 1_555
O21 P5 1.570354 1_655
O21 V1 1.956769 1_555
O22 P4 1.568336 1_665
O22 V1 1.965378 1_555
O23 P8 1.545757 1_655
O23 V0 2.020923 1_555
O24 P9 1.570345 1_555
O24 V0 1.956769 1_555
O25 P9 1.529865 1_555
O25 V3 1.927297 1_565
O26 P1 1.600830 1_555
O26 P8 1.610066 1_555
O27 P1 1.496793 1_555
O28 P14 1.496146 1_555
O29 P6 1.545757 1_655
O29 V2 2.020923 1_555
O30 P6 1.558501 1_655
O30 V1 1.988044 1_555
O31 P7 1.529855 1_555
O31 V1 1.927297 1_555
O32 P11 1.567071 1_555
O32 V0 1.858100 1_555
O33 P10 1.558501 1_555
O33 V0 1.988044 1_555
O34 P10 1.496146 1_555
O35 P9 1.496793 1_555
O36 P9 1.600827 1_555
O36 P10 1.610066 1_555
O37 P13 1.545757 1_555
O37 V1 2.020923 1_555
O38 P12 1.567066 1_555
O38 V2 1.858100 1_555
O39 P8 1.558501 1_655
O39 V3 1.988044 1_555
O40 P12 1.567075 1_555
O40 V1 1.858100 1_555
O41 P12 1.485123 1_555
O42 P11 1.485123 1_555
O43 P11 1.567075 1_555
O43 V4 1.858100 1_555
O44 P14 1.558501 1_545
O44 V2 1.988044 1_555
O45 P11 1.567066 1_555
O45 V3 1.858100 1_555
O46 P10 1.545757 1_555
O46 V4 2.020923 1_555
O47 P0 1.600827 1_555
O47 P13 1.610066 1_555
O48 P0 1.496793 1_555
O49 P13 1.558501 1_555
O49 V5 1.988044 1_555
O50 P12 1.567071 1_555
O50 V5 1.858100 1_555
O51 P15 1.558501 1_545
O51 V4 1.988044 1_555
O52 P15 1.545757 1_545
O52 V3 2.020923 1_555
O53 P7 1.496793 1_555
O54 P7 1.600830 1_555
O54 P14 1.610066 1_555
O55 P14 1.545757 1_545
O55 V5 2.020923 1_555
O56 P2 1.496793 1_555
O57 P2 1.600824 1_555
O57 P15 1.610066 1_555
