# generated using pymatgen
data_V5Ga3
_symmetry_space_group_name_H-M   'P 1'
_cell_length_a   7.35133900
_cell_length_b   7.35133847
_cell_length_c   4.90458700
_cell_angle_alpha   90.00000000
_cell_angle_beta   90.00000000
_cell_angle_gamma   119.99999789
_symmetry_Int_Tables_number   1
_chemical_formula_structural   V5Ga3
_chemical_formula_sum   'V10 Ga6'
_cell_volume   229.54400391
_cell_formula_units_Z   2
loop_
 _symmetry_equiv_pos_site_id
 _symmetry_equiv_pos_as_xyz
  1  'x, y, z'
loop_
 _atom_site_type_symbol
 _atom_site_label
 _atom_site_symmetry_multiplicity
 _atom_site_fract_x
 _atom_site_fract_y
 _atom_site_fract_z
 _atom_site_occupancy
  V  V0  1  0.66666700  0.33333300  0.00000000  1
  V  V1  1  0.33333300  0.66666700  0.00000000  1
  V  V2  1  0.33333300  0.66666700  0.50000000  1
  V  V3  1  0.66666700  0.33333300  0.50000000  1
  V  V4  1  0.75690300  0.75690300  0.75000000  1
  V  V5  1  0.24309700  0.00000000  0.75000000  1
  V  V6  1  0.00000000  0.24309700  0.75000000  1
  V  V7  1  0.24309700  0.24309700  0.25000000  1
  V  V8  1  0.75690300  0.00000000  0.25000000  1
  V  V9  1  0.00000000  0.75690300  0.25000000  1
  Ga  Ga0  1  0.39420800  0.39420800  0.75000000  1
  Ga  Ga1  1  0.60579200  0.00000000  0.75000000  1
  Ga  Ga2  1  0.00000000  0.60579200  0.75000000  1
  Ga  Ga3  1  0.60579200  0.60579200  0.25000000  1
  Ga  Ga4  1  0.39420800  0.00000000  0.25000000  1
  Ga  Ga5  1  0.00000000  0.39420800  0.25000000  1
loop_
_geom_bond_atom_site_label_1
_geom_bond_atom_site_label_2
_geom_bond_distance
_geom_bond_site_symmetry_2
V0 V3 2.452294 1_555
V0 V3 2.452294 1_554
V1 V2 2.452294 1_555
V1 V2 2.452294 1_554
Ga0 V5 2.532377 1_555
Ga0 V6 2.532377 1_555
Ga0 V1 2.571343 1_556
Ga0 V2 2.571343 1_555
Ga0 V3 2.571343 1_555
Ga0 V0 2.571343 1_556
Ga0 V4 2.666294 1_555
Ga0 V7 2.692169 1_556
Ga0 V7 2.692169 1_555
Ga1 V4 2.532377 1_545
Ga1 V6 2.532377 1_655
Ga1 V3 2.571337 1_555
Ga1 V0 2.571337 1_556
Ga1 V2 2.571339 1_545
Ga1 V1 2.571339 1_546
Ga1 V5 2.666294 1_555
Ga1 V8 2.692169 1_556
Ga1 V8 2.692169 1_555
Ga2 V5 2.532377 1_565
Ga2 V4 2.532377 1_455
Ga2 V1 2.571337 1_556
Ga2 V2 2.571337 1_555
Ga2 V3 2.571339 1_455
Ga2 V0 2.571339 1_456
Ga2 V6 2.666294 1_555
Ga2 V9 2.692169 1_556
Ga2 V9 2.692169 1_555
Ga3 V8 2.532377 1_565
Ga3 V9 2.532377 1_655
Ga3 V3 2.571343 1_555
Ga3 V0 2.571343 1_555
Ga3 V2 2.571343 1_555
Ga3 V1 2.571343 1_555
Ga3 V7 2.666294 1_555
Ga3 V4 2.692169 1_555
Ga3 V4 2.692169 1_554
Ga4 V7 2.532377 1_555
Ga4 V9 2.532377 1_545
Ga4 V1 2.571337 1_545
Ga4 V2 2.571337 1_545
Ga4 V0 2.571339 1_555
Ga4 V3 2.571339 1_555
Ga4 V8 2.666294 1_555
Ga4 V5 2.692169 1_554
Ga4 V5 2.692169 1_555
Ga5 V8 2.532377 1_455
Ga5 V7 2.532377 1_555
Ga5 V0 2.571337 1_455
Ga5 V3 2.571337 1_455
Ga5 V2 2.571339 1_555
Ga5 V1 2.571339 1_555
Ga5 V9 2.666294 1_555
Ga5 V6 2.692169 1_554
Ga5 V6 2.692169 1_555
