# generated using pymatgen
data_La2MgNbO6
_symmetry_space_group_name_H-M   'P 1'
_cell_length_a   5.73459000
_cell_length_b   5.70928500
_cell_length_c   9.86089251
_cell_angle_alpha   54.56020314
_cell_angle_beta   90.00000000
_cell_angle_gamma   90.00000000
_symmetry_Int_Tables_number   1
_chemical_formula_structural   La2MgNbO6
_chemical_formula_sum   'La4 Mg2 Nb2 O12'
_cell_volume   263.03375853
_cell_formula_units_Z   2
loop_
 _symmetry_equiv_pos_site_id
 _symmetry_equiv_pos_as_xyz
  1  'x, y, z'
loop_
 _atom_site_type_symbol
 _atom_site_label
 _atom_site_symmetry_multiplicity
 _atom_site_fract_x
 _atom_site_fract_y
 _atom_site_fract_z
 _atom_site_occupancy
  La  La0  1  0.44375900  0.23946200  0.75083900  1
  La  La1  1  0.55624100  0.76053800  0.24916100  1
  La  La2  1  0.94375900  0.76053800  0.74916100  1
  La  La3  1  0.05624100  0.23946200  0.25083900  1
  Mg  Mg0  1  0.00000000  0.50000000  0.50000000  1
  Mg  Mg1  1  0.50000000  0.50000000  0.00000000  1
  Nb  Nb0  1  0.00000000  0.00000000  0.00000000  1
  Nb  Nb1  1  0.50000000  0.00000000  0.50000000  1
  O  O0  1  0.70648300  0.85116200  0.94615600  1
  O  O1  1  0.29351700  0.14883800  0.05384400  1
  O  O2  1  0.20648300  0.14883800  0.55384400  1
  O  O3  1  0.79351700  0.85116200  0.44615600  1
  O  O4  1  0.19569900  0.74929100  0.95423800  1
  O  O5  1  0.80430100  0.25070900  0.04576200  1
  O  O6  1  0.69569900  0.25070900  0.54576200  1
  O  O7  1  0.30430100  0.74929100  0.45423800  1
  O  O8  1  0.01792100  0.34367400  0.75082600  1
  O  O9  1  0.98207900  0.65632600  0.24917400  1
  O  O10  1  0.51792100  0.65632600  0.74917400  1
  O  O11  1  0.48207900  0.34367400  0.25082600  1
loop_
_geom_bond_atom_site_label_1
_geom_bond_atom_site_label_2
_geom_bond_distance
_geom_bond_site_symmetry_2
La0 O10 2.408361 1_555
La0 O0 2.437712 1_545
La0 O6 2.455680 1_555
La0 O8 2.513425 1_555
La0 O2 2.656730 1_555
La0 O4 2.714549 1_545
La0 O7 2.791684 1_555
La0 O1 2.853901 1_556
La1 O11 2.408361 1_555
La1 O1 2.437712 1_565
La1 O7 2.455680 1_555
La1 O9 2.513425 1_555
La1 O3 2.656730 1_555
La1 O5 2.714549 1_565
La1 O6 2.791684 1_555
La1 O0 2.853901 1_554
La2 O8 2.408361 1_655
La2 O2 2.437712 1_665
La2 O4 2.455680 1_655
La2 O10 2.513425 1_555
La2 O0 2.656730 1_555
La2 O6 2.714549 1_565
La2 O5 2.791684 1_556
La2 O3 2.853901 1_555
La3 O9 2.408361 1_455
La3 O3 2.437712 1_445
La3 O5 2.455680 1_455
La3 O11 2.513425 1_555
La3 O1 2.656730 1_555
La3 O7 2.714549 1_545
La3 O4 2.791684 1_554
La3 O2 2.853901 1_555
Mg0 O8 2.089175 1_555
Mg0 O9 2.089175 1_455
Mg0 O2 2.114016 1_555
Mg0 O3 2.114016 1_455
Mg0 O7 2.128305 1_555
Mg0 O6 2.128305 1_455
Mg1 O10 2.089175 1_554
Mg1 O11 2.089175 1_555
Mg1 O0 2.114016 1_554
Mg1 O1 2.114016 1_555
Mg1 O5 2.128305 1_555
Mg1 O4 2.128305 1_554
Nb0 O5 2.064209 1_455
Nb0 O4 2.064209 1_544
Nb0 O9 2.075269 1_445
Nb0 O8 2.075269 1_554
Nb0 O1 2.088154 1_555
Nb0 O0 2.088154 1_444
Nb1 O6 2.064209 1_555
Nb1 O7 2.064209 1_545
Nb1 O10 2.075269 1_545
Nb1 O11 2.075269 1_555
Nb1 O3 2.088154 1_545
Nb1 O2 2.088154 1_555
