# generated using pymatgen
data_Yb3Cu3Te4(ClO2)6
_symmetry_space_group_name_H-M   'P 1'
_cell_length_a   5.63392800
_cell_length_b   13.91213700
_cell_length_c   16.54860355
_cell_angle_alpha   54.71012452
_cell_angle_beta   90.00000000
_cell_angle_gamma   90.00000000
_symmetry_Int_Tables_number   1
_chemical_formula_structural   Yb3Cu3Te4(ClO2)6
_chemical_formula_sum   'Yb6 Cu6 Te8 Cl12 O24'
_cell_volume   1058.72750958
_cell_formula_units_Z   2
loop_
 _symmetry_equiv_pos_site_id
 _symmetry_equiv_pos_as_xyz
  1  'x, y, z'
loop_
 _atom_site_type_symbol
 _atom_site_label
 _atom_site_symmetry_multiplicity
 _atom_site_fract_x
 _atom_site_fract_y
 _atom_site_fract_z
 _atom_site_occupancy
  Yb  Yb0  1  0.15928600  0.50000000  0.75000000  1
  Yb  Yb1  1  0.84071400  0.50000000  0.25000000  1
  Yb  Yb2  1  0.68643800  0.48607400  0.59314400  1
  Yb  Yb3  1  0.68643800  0.51392600  0.90685600  1
  Yb  Yb4  1  0.31356200  0.51392600  0.40685600  1
  Yb  Yb5  1  0.31356200  0.48607400  0.09314400  1
  Cu  Cu0  1  0.68697300  0.00000000  0.75000000  1
  Cu  Cu1  1  0.31302700  0.00000000  0.25000000  1
  Cu  Cu2  1  0.13480900  0.25651900  0.00626400  1
  Cu  Cu3  1  0.13480900  0.74348100  0.49373600  1
  Cu  Cu4  1  0.86519100  0.74348100  0.99373600  1
  Cu  Cu5  1  0.86519100  0.25651900  0.50626400  1
  Te  Te0  1  0.61829300  0.70724000  0.62757000  1
  Te  Te1  1  0.61829300  0.29276000  0.87243000  1
  Te  Te2  1  0.38170700  0.29276000  0.37243000  1
  Te  Te3  1  0.38170700  0.70724000  0.12757000  1
  Te  Te4  1  0.15387500  0.29269200  0.66409400  1
  Te  Te5  1  0.15387500  0.70730800  0.83590600  1
  Te  Te6  1  0.84612500  0.70730800  0.33590600  1
  Te  Te7  1  0.84612500  0.29269200  0.16409400  1
  Cl  Cl0  1  0.67133700  0.87063200  0.72347800  1
  Cl  Cl1  1  0.67133700  0.12936800  0.77652200  1
  Cl  Cl2  1  0.32866300  0.12936800  0.27652200  1
  Cl  Cl3  1  0.32866300  0.87063200  0.22347800  1
  Cl  Cl4  1  0.19435900  0.14163900  0.95673500  1
  Cl  Cl5  1  0.19435900  0.85836100  0.54326500  1
  Cl  Cl6  1  0.80564100  0.85836100  0.04326500  1
  Cl  Cl7  1  0.80564100  0.14163900  0.45673500  1
  Cl  Cl8  1  0.85143700  0.13060900  0.10262100  1
  Cl  Cl9  1  0.85143700  0.86939100  0.39737900  1
  Cl  Cl10  1  0.14856300  0.86939100  0.89737900  1
  Cl  Cl11  1  0.14856300  0.13060900  0.60262100  1
  O  O0  1  0.86002300  0.61172900  0.62897500  1
  O  O1  1  0.86002300  0.38827100  0.87102500  1
  O  O2  1  0.13997700  0.38827100  0.37102500  1
  O  O3  1  0.13997700  0.61172900  0.12897500  1
  O  O4  1  0.39157000  0.35320600  0.92490100  1
  O  O5  1  0.39157000  0.64679400  0.57509900  1
  O  O6  1  0.60843000  0.64679400  0.07509900  1
  O  O7  1  0.60843000  0.35320600  0.42490100  1
  O  O8  1  0.49030500  0.39201000  0.74530900  1
  O  O9  1  0.49030500  0.60799000  0.75469100  1
  O  O10  1  0.50969500  0.60799000  0.25469100  1
  O  O11  1  0.50969500  0.39201000  0.24530900  1
  O  O12  1  0.00617300  0.39001800  0.69364600  1
  O  O13  1  0.00617300  0.60998200  0.80635400  1
  O  O14  1  0.99382700  0.60998200  0.30635400  1
  O  O15  1  0.99382700  0.39001800  0.19364600  1
  O  O16  1  0.08253600  0.34562000  0.05798700  1
  O  O17  1  0.08253600  0.65438000  0.44201300  1
  O  O18  1  0.91746400  0.65438000  0.94201300  1
  O  O19  1  0.91746400  0.34562000  0.55798700  1
  O  O20  1  0.38392400  0.39347300  0.57349300  1
  O  O21  1  0.38392400  0.60652700  0.92650700  1
  O  O22  1  0.61607600  0.60652700  0.42650700  1
  O  O23  1  0.61607600  0.39347300  0.07349300  1
loop_
_geom_bond_atom_site_label_1
_geom_bond_atom_site_label_2
_geom_bond_distance
_geom_bond_site_symmetry_2
Cu2 O16 1.892582 1_555
Cu2 O4 1.903210 1_554
Cu2 O1 2.454660 1_454
Cu3 O17 1.892582 1_555
Cu3 O5 1.903210 1_555
Cu3 O0 2.454660 1_455
Cu4 O18 1.892582 1_555
Cu4 O6 1.903210 1_556
Cu4 O3 2.454660 1_656
Cu5 O19 1.892582 1_555
Cu5 O7 1.903210 1_555
Cu5 O2 2.454660 1_655
Cl0 Cu0 2.086223 1_565
Cl1 Cu0 2.086223 1_555
Cl2 Cu1 2.086223 1_555
Cl3 Cu1 2.086223 1_565
Cl4 Cu2 2.202784 1_556
Cl5 Cu3 2.202784 1_555
Cl6 Cu4 2.202784 1_554
Cl7 Cu5 2.202784 1_555
Cl8 Cu2 2.220930 1_655
Cl9 Cu3 2.220930 1_655
Cl10 Cu4 2.220930 1_455
Cl11 Cu5 2.220930 1_455
O0 Te0 1.893461 1_555
O0 Yb2 2.358312 1_555
O0 Yb0 2.381808 1_655
O1 Te1 1.893461 1_555
O1 Yb3 2.358312 1_555
O1 Yb0 2.381808 1_655
O2 Te2 1.893461 1_555
O2 Yb4 2.358312 1_555
O2 Yb1 2.381808 1_455
O3 Te3 1.893461 1_555
O3 Yb5 2.358312 1_555
O3 Yb1 2.381808 1_455
O4 Te1 1.984047 1_555
O4 Yb3 2.660264 1_555
O4 Yb0 2.725985 1_555
O5 Te0 1.984047 1_555
O5 Yb2 2.660264 1_555
O5 Yb0 2.725985 1_555
O6 Te3 1.984047 1_555
O6 Yb5 2.660264 1_555
O6 Yb1 2.725985 1_555
O7 Te2 1.984047 1_555
O7 Yb4 2.660264 1_555
O7 Yb1 2.725985 1_555
O8 Te1 1.869698 1_555
O8 Yb2 2.338160 1_555
O8 Yb0 2.424024 1_555
O9 Te0 1.869698 1_555
O9 Yb3 2.338160 1_555
O9 Yb0 2.424024 1_555
O10 Te3 1.869698 1_555
O10 Yb4 2.338160 1_555
O10 Yb1 2.424024 1_555
O11 Te2 1.869698 1_555
O11 Yb5 2.338160 1_555
O11 Yb1 2.424024 1_555
O12 Te4 1.878847 1_555
O12 Yb2 2.286667 1_455
O12 Yb0 2.367214 1_555
O13 Te5 1.878847 1_555
O13 Yb3 2.286667 1_455
O13 Yb0 2.367214 1_555
O14 Te6 1.878847 1_555
O14 Yb4 2.286667 1_655
O14 Yb1 2.367214 1_555
O15 Te7 1.878847 1_555
O15 Yb5 2.286667 1_655
O15 Yb1 2.367214 1_555
O16 Te7 1.976249 1_455
O16 Yb5 2.676626 1_555
O17 Te6 1.976249 1_455
O17 Yb4 2.676626 1_555
O18 Te5 1.976249 1_655
O18 Yb3 2.676626 1_555
O19 Te4 1.976249 1_655
O19 Yb2 2.676626 1_555
O20 Te4 1.861373 1_555
O20 Yb2 2.270298 1_555
O20 Yb4 2.287005 1_555
O21 Te5 1.861373 1_555
O21 Yb3 2.270298 1_555
O21 Yb5 2.287005 1_556
O22 Te6 1.861373 1_555
O22 Yb4 2.270298 1_555
O22 Yb2 2.287005 1_555
O23 Te7 1.861373 1_555
O23 Yb5 2.270298 1_555
O23 Yb3 2.287005 1_554
