# generated using pymatgen
data_Li(HoGe)4
_symmetry_space_group_name_H-M   'P 1'
_cell_length_a   7.09051838
_cell_length_b   7.64793804
_cell_length_c   14.57148964
_cell_angle_alpha   90.00000000
_cell_angle_beta   90.00000000
_cell_angle_gamma   90.00000000
_symmetry_Int_Tables_number   1
_chemical_formula_structural   Li(HoGe)4
_chemical_formula_sum   'Li4 Ho16 Ge16'
_cell_volume   790.18048514
_cell_formula_units_Z   4
loop_
 _symmetry_equiv_pos_site_id
 _symmetry_equiv_pos_as_xyz
  1  'x, y, z'
loop_
 _atom_site_type_symbol
 _atom_site_label
 _atom_site_symmetry_multiplicity
 _atom_site_fract_x
 _atom_site_fract_y
 _atom_site_fract_z
 _atom_site_occupancy
  Li  Li0  1  0.66281617  0.97228455  0.75000000  1
  Li  Li1  1  0.16281617  0.52771545  0.75000000  1
  Li  Li2  1  0.33718383  0.02771545  0.25000000  1
  Li  Li3  1  0.83718383  0.47228455  0.25000000  1
  Ho  Ho0  1  0.51713813  0.31290905  0.09833456  1
  Ho  Ho1  1  0.01713813  0.18709095  0.40166544  1
  Ho  Ho2  1  0.48286187  0.68709095  0.59833456  1
  Ho  Ho3  1  0.98286187  0.81290905  0.90166544  1
  Ho  Ho4  1  0.48286187  0.68709095  0.90166544  1
  Ho  Ho5  1  0.98286187  0.81290905  0.59833456  1
  Ho  Ho6  1  0.51713813  0.31290905  0.40166544  1
  Ho  Ho7  1  0.01713813  0.18709095  0.09833456  1
  Ho  Ho8  1  0.82902217  0.32309139  0.62763571  1
  Ho  Ho9  1  0.32902217  0.17690861  0.87236429  1
  Ho  Ho10  1  0.17097783  0.67690861  0.12763571  1
  Ho  Ho11  1  0.67097783  0.82309139  0.37236429  1
  Ho  Ho12  1  0.17097783  0.67690861  0.37236429  1
  Ho  Ho13  1  0.67097783  0.82309139  0.12763571  1
  Ho  Ho14  1  0.82902217  0.32309139  0.87236429  1
  Ho  Ho15  1  0.32902217  0.17690861  0.62763571  1
  Ge  Ge0  1  0.66666271  0.03379104  0.53624948  1
  Ge  Ge1  1  0.16666271  0.46620896  0.96375052  1
  Ge  Ge2  1  0.33333729  0.96620896  0.03624948  1
  Ge  Ge3  1  0.83333729  0.53379104  0.46375052  1
  Ge  Ge4  1  0.33333729  0.96620896  0.46375052  1
  Ge  Ge5  1  0.83333729  0.53379104  0.03624948  1
  Ge  Ge6  1  0.66666271  0.03379104  0.96375052  1
  Ge  Ge7  1  0.16666271  0.46620896  0.53624948  1
  Ge  Ge8  1  0.51812007  0.41369349  0.75000000  1
  Ge  Ge9  1  0.01812007  0.08630651  0.75000000  1
  Ge  Ge10  1  0.48187993  0.58630651  0.25000000  1
  Ge  Ge11  1  0.98187993  0.91369349  0.25000000  1
  Ge  Ge12  1  0.78228486  0.63545308  0.75000000  1
  Ge  Ge13  1  0.28228486  0.86454692  0.75000000  1
  Ge  Ge14  1  0.21771514  0.36454692  0.25000000  1
  Ge  Ge15  1  0.71771514  0.13545308  0.25000000  1
loop_
_geom_bond_atom_site_label_1
_geom_bond_atom_site_label_2
_geom_bond_distance
_geom_bond_site_symmetry_2
Ge0 Ge4 2.639898 1_545
Ge0 Ho8 2.827352 1_555
Ge0 Ho11 2.881040 1_545
Ge0 Ho5 2.949368 1_545
Ge0 Ho15 2.950043 1_555
Ge0 Ho6 3.086545 1_555
Ge0 Ho2 3.089910 1_545
Ge0 Li0 3.150103 1_545
Ge0 Ho1 3.375788 1_655
Ge1 Ge5 2.639898 1_456
Ge1 Ho9 2.827352 1_555
Ge1 Ho10 2.881040 1_556
Ge1 Ho4 2.949368 1_555
Ge1 Ho14 2.950043 1_455
Ge1 Ho7 3.086545 1_556
Ge1 Ho3 3.089910 1_455
Ge1 Li1 3.150103 1_555
Ge1 Ho0 3.375788 1_556
Ge2 Ge6 2.639898 1_564
Ge2 Ho10 2.827352 1_555
Ge2 Ho9 2.881040 1_564
Ge2 Ho7 2.949368 1_565
Ge2 Ho13 2.950043 1_555
Ge2 Ho4 3.086545 1_554
Ge2 Ho0 3.089910 1_565
Ge2 Li2 3.150103 1_565
Ge2 Ho3 3.375788 1_454
Ge3 Ge7 2.639898 1_655
Ge3 Ho11 2.827352 1_555
Ge3 Ho8 2.881040 1_555
Ge3 Ho6 2.949368 1_555
Ge3 Ho12 2.950043 1_655
Ge3 Ho5 3.086545 1_555
Ge3 Ho1 3.089910 1_655
Ge3 Li3 3.150103 1_555
Ge3 Ho2 3.375788 1_555
Ge4 Ho12 2.827352 1_555
Ge4 Ho15 2.881040 1_565
Ge4 Ho1 2.949368 1_565
Ge4 Ho11 2.950043 1_555
Ge4 Ho2 3.086545 1_555
Ge4 Ho6 3.089910 1_565
Ge4 Li2 3.150103 1_565
Ge4 Ho5 3.375788 1_455
Ge5 Ho13 2.827352 1_555
Ge5 Ho14 2.881040 1_554
Ge5 Ho0 2.949368 1_555
Ge5 Ho10 2.950043 1_655
Ge5 Ho3 3.086545 1_554
Ge5 Ho7 3.089910 1_655
Ge5 Li3 3.150103 1_555
Ge5 Ho4 3.375788 1_554
Ge6 Ho14 2.827352 1_555
Ge6 Ho13 2.881040 1_546
Ge6 Ho3 2.949368 1_545
Ge6 Ho9 2.950043 1_555
Ge6 Ho0 3.086545 1_556
Ge6 Ho4 3.089910 1_545
Ge6 Li0 3.150103 1_545
Ge6 Ho7 3.375788 1_656
Ge7 Ho15 2.827352 1_555
Ge7 Ho12 2.881040 1_555
Ge7 Ho2 2.949368 1_555
Ge7 Ho8 2.950043 1_455
Ge7 Ho1 3.086545 1_555
Ge7 Ho5 3.089910 1_455
Ge7 Li1 3.150103 1_555
Ge7 Ho6 3.375788 1_555
Ge8 Li1 2.665944 1_555
Ge8 Ho15 2.873389 1_555
Ge8 Ho9 2.873389 1_555
Ge8 Ho14 2.918726 1_555
Ge8 Ho8 2.918726 1_555
Ge8 Ho4 3.052628 1_555
Ge8 Ho2 3.052628 1_555
Ge9 Li0 2.665944 1_445
Ge9 Ho14 2.873389 1_455
Ge9 Ho8 2.873389 1_455
Ge9 Ho15 2.918726 1_555
Ge9 Ho9 2.918726 1_555
Ge9 Ho3 3.052628 1_445
Ge9 Ho5 3.052628 1_445
Ge10 Ge14 2.526817 1_555
Ge10 Li3 2.665944 1_555
Ge10 Ho11 2.873389 1_555
Ge10 Ho13 2.873389 1_555
Ge10 Ho10 2.918726 1_555
Ge10 Ho12 2.918726 1_555
Ge10 Ho0 3.052628 1_555
Ge10 Ho6 3.052628 1_555
Ge11 Ge15 2.526817 1_565
Ge11 Li2 2.665944 1_665
Ge11 Ho12 2.873389 1_655
Ge11 Ho10 2.873389 1_655
Ge11 Ho11 2.918726 1_555
Ge11 Ho13 2.918726 1_555
Ge11 Ho7 3.052628 1_665
Ge11 Ho1 3.052628 1_665
Ge12 Ge8 2.526817 1_555
Ge12 Li0 2.711768 1_555
Ge12 Li1 2.821173 1_655
Ge12 Ho3 2.957806 1_555
Ge12 Ho5 2.957806 1_555
Ge12 Ho8 2.999328 1_555
Ge12 Ho14 2.999328 1_555
Ge12 Ho4 3.089891 1_555
Ge12 Ho2 3.089891 1_555
Ge13 Ge9 2.526817 1_565
Ge13 Li1 2.711768 1_555
Ge13 Li0 2.821173 1_555
Ge13 Ho4 2.957806 1_555
Ge13 Ho2 2.957806 1_555
Ge13 Ho9 2.999328 1_565
Ge13 Ho15 2.999328 1_565
Ge13 Ho5 3.089891 1_455
Ge13 Ho3 3.089891 1_455
Ge14 Li2 2.711768 1_555
Ge14 Li3 2.821173 1_455
Ge14 Ho7 2.957806 1_555
Ge14 Ho1 2.957806 1_555
Ge14 Ho10 2.999328 1_555
Ge14 Ho12 2.999328 1_555
Ge14 Ho0 3.089891 1_555
Ge14 Ho6 3.089891 1_555
Ge15 Li3 2.711768 1_555
Ge15 Li2 2.821173 1_555
Ge15 Ho6 2.957806 1_555
Ge15 Ho0 2.957806 1_555
Ge15 Ho13 2.999328 1_545
Ge15 Ho11 2.999328 1_545
Ge15 Ho7 3.089891 1_655
Ge15 Ho1 3.089891 1_655
