# generated using pymatgen
data_U(AsO6)2
_symmetry_space_group_name_H-M   'P 1'
_cell_length_a   10.94888761
_cell_length_b   10.94888761
_cell_length_c   17.80331306
_cell_angle_alpha   107.90837975
_cell_angle_beta   107.90837975
_cell_angle_gamma   90.00000000
_symmetry_Int_Tables_number   1
_chemical_formula_structural   U(AsO6)2
_chemical_formula_sum   'U8 As16 O96'
_cell_volume   1921.86339055
_cell_formula_units_Z   8
loop_
 _symmetry_equiv_pos_site_id
 _symmetry_equiv_pos_as_xyz
  1  'x, y, z'
loop_
 _atom_site_type_symbol
 _atom_site_label
 _atom_site_symmetry_multiplicity
 _atom_site_fract_x
 _atom_site_fract_y
 _atom_site_fract_z
 _atom_site_occupancy
  U  U0  1  0.08413110  0.08413110  0.50000000  1
  U  U1  1  0.91586890  0.58413110  0.50000000  1
  U  U2  1  0.83413110  0.33413110  0.00000000  1
  U  U3  1  0.66586890  0.83413110  0.00000000  1
  U  U4  1  0.41586890  0.41586890  0.50000000  1
  U  U5  1  0.58413110  0.91586890  0.50000000  1
  U  U6  1  0.16586890  0.66586890  -0.00000000  1
  U  U7  1  0.33413110  0.16586890  -0.00000000  1
  As  As0  1  0.93816152  0.96335638  0.62222895  1
  As  As1  1  0.18406743  0.46335638  0.62222895  1
  As  As2  1  0.56593257  0.09112743  0.87777105  1
  As  As3  1  0.81183848  0.59112743  0.87777105  1
  As  As4  1  0.68406743  0.65887257  0.62222895  1
  As  As5  1  0.43816152  0.15887257  0.62222895  1
  As  As6  1  0.31183848  0.78664362  0.87777105  1
  As  As7  1  0.06593257  0.28664362  0.87777105  1
  As  As8  1  0.34112743  0.06183848  0.37777105  1
  As  As9  1  0.84112743  0.81593257  0.37777105  1
  As  As10  1  0.21335638  0.43406743  0.12222895  1
  As  As11  1  0.71335638  0.18816152  0.12222895  1
  As  As12  1  0.03664362  0.31593257  0.37777105  1
  As  As13  1  0.53664362  0.56183848  0.37777105  1
  As  As14  1  0.90887257  0.68816152  0.12222895  1
  As  As15  1  0.40887257  0.93406743  0.12222895  1
  O  O0  1  0.11461733  0.62500000  0.75000000  1
  O  O1  1  0.13538267  0.12500000  0.75000000  1
  O  O2  1  0.61461733  0.62500000  0.75000000  1
  O  O3  1  0.63538267  0.12500000  0.75000000  1
  O  O4  1  0.87500000  0.88538267  0.25000000  1
  O  O5  1  0.37500000  0.86461733  0.25000000  1
  O  O6  1  0.87500000  0.38538267  0.25000000  1
  O  O7  1  0.37500000  0.36461733  0.25000000  1
  O  O8  1  0.05144476  0.01070330  0.73151767  1
  O  O9  1  0.18007291  0.51070330  0.73151767  1
  O  O10  1  0.56992709  0.02918563  0.76848233  1
  O  O11  1  0.69855524  0.52918563  0.76848233  1
  O  O12  1  0.68007291  0.72081437  0.73151767  1
  O  O13  1  0.55144476  0.22081437  0.73151767  1
  O  O14  1  0.19855524  0.73929670  0.76848233  1
  O  O15  1  0.06992709  0.23929670  0.76848233  1
  O  O16  1  0.27918563  0.94855524  0.26848233  1
  O  O17  1  0.77918563  0.81992709  0.26848233  1
  O  O18  1  0.26070330  0.43007291  0.23151767  1
  O  O19  1  0.76070330  0.30144476  0.23151767  1
  O  O20  1  0.98929670  0.31992709  0.26848233  1
  O  O21  1  0.48929670  0.44855524  0.26848233  1
  O  O22  1  0.97081437  0.80144476  0.23151767  1
  O  O23  1  0.47081437  0.93007291  0.23151767  1
  O  O24  1  0.32264336  0.82264336  0.64528671  1
  O  O25  1  0.82264336  0.32264336  0.64528671  1
  O  O26  1  0.92735664  0.92735664  0.85471329  1
  O  O27  1  0.42735664  0.42735664  0.85471329  1
  O  O28  1  0.17735664  0.67735664  0.35471329  1
  O  O29  1  0.67735664  0.17735664  0.35471329  1
  O  O30  1  0.07264336  0.07264336  0.14528671  1
  O  O31  1  0.57264336  0.57264336  0.14528671  1
  O  O32  1  0.95301133  0.81059228  0.56677015  1
  O  O33  1  0.11375882  0.31059228  0.56677015  1
  O  O34  1  0.63624118  0.99382213  0.93322985  1
  O  O35  1  0.79698867  0.49382213  0.93322985  1
  O  O36  1  0.61375882  0.75617787  0.56677015  1
  O  O37  1  0.45301133  0.25617787  0.56677015  1
  O  O38  1  0.29698867  0.93940772  0.93322985  1
  O  O39  1  0.13624118  0.43940772  0.93322985  1
  O  O40  1  0.24382213  0.04698867  0.43322985  1
  O  O41  1  0.74382213  0.88624118  0.43322985  1
  O  O42  1  0.06059228  0.36375882  0.06677015  1
  O  O43  1  0.56059228  0.20301133  0.06677015  1
  O  O44  1  0.18940772  0.38624118  0.43322985  1
  O  O45  1  0.68940772  0.54698867  0.43322985  1
  O  O46  1  0.00617787  0.70301133  0.06677015  1
  O  O47  1  0.50617787  0.86375882  0.06677015  1
  O  O48  1  0.78562116  0.97367571  0.63185657  1
  O  O49  1  0.34623541  0.47367571  0.63185657  1
  O  O50  1  0.40376459  0.09181914  0.86814343  1
  O  O51  1  0.96437884  0.59181914  0.86814343  1
  O  O52  1  0.84623541  0.65818086  0.63185657  1
  O  O53  1  0.28562116  0.15818086  0.63185657  1
  O  O54  1  0.46437884  0.77632429  0.86814343  1
  O  O55  1  0.90376459  0.27632429  0.86814343  1
  O  O56  1  0.34181914  0.21437884  0.36814343  1
  O  O57  1  0.84181914  0.65376459  0.36814343  1
  O  O58  1  0.22367571  0.59623541  0.13185657  1
  O  O59  1  0.72367571  0.03562116  0.13185657  1
  O  O60  1  0.02632429  0.15376459  0.36814343  1
  O  O61  1  0.52632429  0.71437884  0.36814343  1
  O  O62  1  0.90818086  0.53562116  0.13185657  1
  O  O63  1  0.40818086  0.09623541  0.13185657  1
  O  O64  1  0.97634831  0.08082526  0.58602203  1
  O  O65  1  0.10967372  0.58082526  0.58602203  1
  O  O66  1  0.64032628  0.24480322  0.91397797  1
  O  O67  1  0.77365169  0.74480322  0.91397797  1
  O  O68  1  0.60967372  0.50519678  0.58602203  1
  O  O69  1  0.47634831  0.00519678  0.58602203  1
  O  O70  1  0.27365169  0.66917474  0.91397797  1
  O  O71  1  0.14032628  0.16917474  0.91397797  1
  O  O72  1  0.49480322  0.02365169  0.41397797  1
  O  O73  1  0.99480322  0.89032628  0.41397797  1
  O  O74  1  0.33082526  0.35967372  0.08602203  1
  O  O75  1  0.83082526  0.22634831  0.08602203  1
  O  O76  1  0.91917474  0.39032628  0.41397797  1
  O  O77  1  0.41917474  0.52365169  0.41397797  1
  O  O78  1  0.75519678  0.72634831  0.08602203  1
  O  O79  1  0.25519678  0.85967372  0.08602203  1
  O  O80  1  0.92056155  0.13649091  0.44990320  1
  O  O81  1  0.02934166  0.63649091  0.44990320  1
  O  O82  1  0.72065834  0.43658771  0.05009680  1
  O  O83  1  0.82943845  0.93658771  0.05009680  1
  O  O84  1  0.52934166  0.31341229  0.44990320  1
  O  O85  1  0.42056155  0.81341229  0.44990320  1
  O  O86  1  0.32943845  0.61350909  0.05009680  1
  O  O87  1  0.22065834  0.11350909  0.05009680  1
  O  O88  1  0.68658771  0.07943845  0.55009680  1
  O  O89  1  0.18658771  0.97065834  0.55009680  1
  O  O90  1  0.38649091  0.27934166  0.94990320  1
  O  O91  1  0.88649091  0.17056155  0.94990320  1
  O  O92  1  0.86350909  0.47065834  0.55009680  1
  O  O93  1  0.36350909  0.57943845  0.55009680  1
  O  O94  1  0.56341229  0.67056155  0.94990320  1
  O  O95  1  0.06341229  0.77934166  0.94990320  1
loop_
_geom_bond_atom_site_label_1
_geom_bond_atom_site_label_2
_geom_bond_distance
_geom_bond_site_symmetry_2
As0 O32 1.697640 1_555
As0 O64 1.708837 1_565
As0 O48 1.730803 1_555
As0 O8 1.867733 1_665
As1 O33 1.697640 1_555
As1 O65 1.708837 1_555
As1 O49 1.730803 1_555
As1 O9 1.867733 1_555
As2 O34 1.697640 1_545
As2 O66 1.708837 1_555
As2 O50 1.730803 1_555
As2 O10 1.867733 1_555
As3 O35 1.697640 1_555
As3 O67 1.708837 1_555
As3 O51 1.730803 1_555
As3 O11 1.867733 1_555
As4 O36 1.697640 1_555
As4 O68 1.708837 1_555
As4 O52 1.730803 1_555
As4 O12 1.867733 1_555
As5 O37 1.697640 1_555
As5 O69 1.708837 1_555
As5 O53 1.730803 1_555
As5 O13 1.867733 1_555
As6 O38 1.697640 1_555
As6 O70 1.708837 1_555
As6 O54 1.730803 1_555
As6 O14 1.867733 1_555
As7 O39 1.697640 1_555
As7 O71 1.708837 1_555
As7 O55 1.730803 1_455
As7 O15 1.867733 1_555
As8 O40 1.697640 1_555
As8 O72 1.708837 1_555
As8 O56 1.730803 1_555
As8 O16 1.867733 1_545
As9 O41 1.697640 1_555
As9 O73 1.708837 1_555
As9 O57 1.730803 1_555
As9 O17 1.867733 1_555
As10 O42 1.697640 1_555
As10 O74 1.708837 1_555
As10 O58 1.730803 1_555
As10 O18 1.867733 1_555
As11 O43 1.697640 1_555
As11 O75 1.708837 1_555
As11 O59 1.730803 1_555
As11 O19 1.867733 1_555
As12 O44 1.697640 1_555
As12 O76 1.708837 1_455
As12 O60 1.730803 1_555
As12 O20 1.867733 1_455
As13 O45 1.697640 1_555
As13 O77 1.708837 1_555
As13 O61 1.730803 1_555
As13 O21 1.867733 1_555
As14 O46 1.697640 1_655
As14 O78 1.708837 1_555
As14 O62 1.730803 1_555
As14 O22 1.867733 1_555
As15 O47 1.697640 1_555
As15 O79 1.708837 1_555
As15 O63 1.730803 1_565
As15 O23 1.867733 1_555
O0 O9 1.442125 1_555
O0 O14 1.442125 1_555
O1 O15 1.442125 1_555
O1 O8 1.442125 1_555
O10 O3 1.442125 1_555
O11 O2 1.442125 1_555
O12 O2 1.442125 1_555
O13 O3 1.442125 1_555
O16 O5 1.442125 1_555
O17 O4 1.442125 1_555
O18 O7 1.442125 1_555
O19 O6 1.442125 1_555
O20 O6 1.442125 1_555
O21 O7 1.442125 1_555
O22 O4 1.442125 1_555
O23 O5 1.442125 1_555
O32 U1 2.369897 1_555
O33 U0 2.369897 1_555
O34 U3 2.369897 1_556
O35 U2 2.369897 1_556
O36 U5 2.369897 1_555
O37 U4 2.369897 1_555
O38 U7 2.369897 1_566
O39 U6 2.369897 1_556
O40 U0 2.369897 1_555
O41 U5 2.369897 1_555
O42 U2 2.369897 1_455
O43 U7 2.369897 1_555
O44 U4 2.369897 1_555
O45 U1 2.369897 1_555
O46 U6 2.369897 1_555
O47 U3 2.369897 1_555
O48 U5 2.584468 1_555
O49 U4 2.584468 1_555
O50 U7 2.584468 1_556
O51 U6 2.584468 1_656
O52 U1 2.584468 1_555
O53 U0 2.584468 1_555
O54 U3 2.584468 1_556
O55 U2 2.584468 1_556
O56 U4 2.584468 1_555
O57 U1 2.584468 1_555
O58 U6 2.584468 1_555
O59 U3 2.584468 1_545
O60 U0 2.584468 1_555
O61 U5 2.584468 1_555
O62 U2 2.584468 1_555
O63 U7 2.584468 1_555
O64 U0 2.210189 1_655
O65 U1 2.210189 1_455
O66 U2 2.210189 1_556
O67 U3 2.210189 1_556
O68 U4 2.210189 1_555
O69 U5 2.210189 1_545
O70 U6 2.210189 1_556
O71 U7 2.210189 1_556
O72 U5 2.210189 1_545
O73 U0 2.210189 1_665
O74 U7 2.210189 1_555
O75 U2 2.210189 1_555
O76 U1 2.210189 1_555
O77 U4 2.210189 1_555
O78 U3 2.210189 1_555
O79 U6 2.210189 1_555
O80 U0 1.914050 1_655
O81 U1 1.914050 1_455
O82 U2 1.914050 1_555
O83 U3 1.914050 1_555
O84 U4 1.914050 1_555
O85 U5 1.914050 1_555
O86 U6 1.914050 1_555
O87 U7 1.914050 1_555
O88 U5 1.914050 1_545
O89 U0 1.914050 1_565
O90 U7 1.914050 1_556
O91 U2 1.914050 1_556
O92 U1 1.914050 1_555
O93 U4 1.914050 1_555
O94 U3 1.914050 1_556
O95 U6 1.914050 1_556
