# generated using pymatgen
data_Zn2S2O11
_symmetry_space_group_name_H-M   'P 1'
_cell_length_a   7.32474100
_cell_length_b   9.02325415
_cell_length_c   9.39034044
_cell_angle_alpha   91.95336881
_cell_angle_beta   98.30039542
_cell_angle_gamma   97.46313034
_symmetry_Int_Tables_number   1
_chemical_formula_structural   Zn2S2O11
_chemical_formula_sum   'Zn4 S4 O22'
_cell_volume   608.04830314
_cell_formula_units_Z   2
loop_
 _symmetry_equiv_pos_site_id
 _symmetry_equiv_pos_as_xyz
  1  'x, y, z'
loop_
 _atom_site_type_symbol
 _atom_site_label
 _atom_site_symmetry_multiplicity
 _atom_site_fract_x
 _atom_site_fract_y
 _atom_site_fract_z
 _atom_site_occupancy
  Zn  Zn0  1  0.50000000  0.00000000  0.00000000  1
  Zn  Zn1  1  0.00000000  0.50000000  0.50000000  1
  Zn  Zn2  1  0.50738300  0.50646300  0.73064600  1
  Zn  Zn3  1  0.49261700  0.49353700  0.26935400  1
  S  S0  1  0.74442300  0.61276500  0.03381800  1
  S  S1  1  0.25557700  0.38723500  0.96618200  1
  S  S2  1  0.36753400  0.70985400  0.48261400  1
  S  S3  1  0.63246600  0.29014600  0.51738600  1
  O  O0  1  0.36238900  0.26010800  0.97099900  1
  O  O1  1  0.63761100  0.73989200  0.02900100  1
  O  O2  1  0.29181000  0.49010300  0.84647600  1
  O  O3  1  0.70819000  0.50989700  0.15352400  1
  O  O4  1  0.71994500  0.52294200  0.89208800  1
  O  O5  1  0.28005500  0.47705800  0.10791200  1
  O  O6  1  0.46792200  0.68883900  0.63244100  1
  O  O7  1  0.53207800  0.31116100  0.36755900  1
  O  O8  1  0.50265100  0.31323900  0.62690700  1
  O  O9  1  0.49734900  0.68676100  0.37309300  1
  O  O10  1  0.77557400  0.44598900  0.55576600  1
  O  O11  1  0.22442600  0.55401100  0.44423400  1
  O  O12  1  0.30143900  0.89693200  0.89816200  1
  O  O13  1  0.69856100  0.10306800  0.10183800  1
  O  O14  1  0.09777400  0.16826800  0.49824300  1
  O  O15  1  0.90222600  0.83173200  0.50175700  1
  O  O16  1  0.75110200  0.98579500  0.78405400  1
  O  O17  1  0.24889800  0.01420500  0.21594600  1
  O  O18  1  0.95935500  0.76060100  0.60485800  1
  O  O19  1  0.04064500  0.23939900  0.39514200  1
  O  O20  1  0.91839800  0.99682500  0.83281700  1
  O  O21  1  0.08160200  0.00317500  0.16718300  1
loop_
_geom_bond_atom_site_label_1
_geom_bond_atom_site_label_2
_geom_bond_distance
_geom_bond_site_symmetry_2
O0 S1 1.468483 1_555
O1 S0 1.468483 1_555
O2 S1 1.512886 1_555
O2 Zn2 2.035783 1_555
O3 S0 1.512886 1_555
O3 Zn3 2.035783 1_555
O4 S0 1.510014 1_556
O4 Zn2 1.996867 1_555
O5 S1 1.510014 1_554
O5 Zn3 1.996867 1_555
O6 S2 1.520461 1_555
O6 Zn2 1.947331 1_555
O7 S3 1.520461 1_555
O7 Zn3 1.947331 1_555
O8 S3 1.524615 1_555
O8 Zn2 1.961823 1_555
O9 S2 1.524615 1_555
O9 Zn3 1.961823 1_555
O10 S3 1.636936 1_555
O10 Zn1 1.808824 1_655
O11 S2 1.636936 1_555
O11 Zn1 1.808824 1_555
O12 Zn0 1.755317 1_566
O13 Zn0 1.755317 1_555
O14 O19 1.232695 1_555
O15 O18 1.232695 1_555
O16 O20 1.234661 1_555
O17 O21 1.234661 1_555
O18 Zn1 2.587708 1_655
O19 Zn1 2.587708 1_555
