# generated using pymatgen
data_Cs3Nb6SBr17
_symmetry_space_group_name_H-M   'P 1'
_cell_length_a   13.10252233
_cell_length_b   13.10252233
_cell_length_c   9.60182498
_cell_angle_alpha   89.77777233
_cell_angle_beta   89.77777233
_cell_angle_gamma   96.10437700
_symmetry_Int_Tables_number   1
_chemical_formula_structural   Cs3Nb6SBr17
_chemical_formula_sum   'Cs6 Nb12 S2 Br34'
_cell_volume   1639.02945024
_cell_formula_units_Z   2
loop_
 _symmetry_equiv_pos_site_id
 _symmetry_equiv_pos_as_xyz
  1  'x, y, z'
loop_
 _atom_site_type_symbol
 _atom_site_label
 _atom_site_symmetry_multiplicity
 _atom_site_fract_x
 _atom_site_fract_y
 _atom_site_fract_z
 _atom_site_occupancy
  Cs  Cs0  1  0.27147878  0.16404019  0.83253773  1
  Cs  Cs1  1  0.72852122  0.83595981  0.16746227  1
  Cs  Cs2  1  0.83595981  0.72852122  0.66746227  1
  Cs  Cs3  1  0.16404019  0.27147878  0.33253773  1
  Cs  Cs4  1  0.45079544  0.54920456  0.75000000  1
  Cs  Cs5  1  0.54920456  0.45079544  0.25000000  1
  Nb  Nb0  1  0.80223896  0.16432692  0.52032196  1
  Nb  Nb1  1  0.19776104  0.83567308  0.47967804  1
  Nb  Nb2  1  0.83567308  0.19776104  0.97967804  1
  Nb  Nb3  1  0.16432692  0.80223896  0.02032196  1
  Nb  Nb4  1  0.61668834  0.23783951  0.64074599  1
  Nb  Nb5  1  0.38331166  0.76216049  0.35925401  1
  Nb  Nb6  1  0.76216049  0.38331166  0.85925401  1
  Nb  Nb7  1  0.23783951  0.61668834  0.14074599  1
  Nb  Nb8  1  0.69545216  0.05179668  0.75763653  1
  Nb  Nb9  1  0.30454784  0.94820332  0.24236347  1
  Nb  Nb10  1  0.94820332  0.30454784  0.74236347  1
  Nb  Nb11  1  0.05179668  0.69545216  0.25763653  1
  S  S0  1  0.77692272  0.22307728  0.75000000  1
  S  S1  1  0.22307728  0.77692272  0.25000000  1
  Br  Br0  1  0.87110475  0.00971270  0.88775991  1
  Br  Br1  1  0.12889525  0.99028730  0.11224009  1
  Br  Br2  1  0.99028730  0.12889525  0.61224009  1
  Br  Br3  1  0.00971270  0.87110475  0.38775991  1
  Br  Br4  1  0.35954920  0.80045179  0.62178805  1
  Br  Br5  1  0.64045080  0.19954821  0.37821195  1
  Br  Br6  1  0.19954821  0.64045080  0.87821195  1
  Br  Br7  1  0.80045179  0.35954920  0.12178805  1
  Br  Br8  1  0.64836261  0.09779146  0.02206965  1
  Br  Br9  1  0.35163739  0.90220854  0.97793035  1
  Br  Br10  1  0.90220854  0.35163739  0.47793035  1
  Br  Br11  1  0.09779146  0.64836261  0.52206965  1
  Br  Br12  1  0.56118146  0.30973082  0.89280077  1
  Br  Br13  1  0.43881854  0.69026918  0.10719923  1
  Br  Br14  1  0.69026918  0.43881854  0.60719923  1
  Br  Br15  1  0.30973082  0.56118146  0.39280077  1
  Br  Br16  1  0.43362509  0.30409670  0.55669657  1
  Br  Br17  1  0.56637491  0.69590330  0.44330343  1
  Br  Br18  1  0.69590330  0.56637491  0.94330343  1
  Br  Br19  1  0.30409670  0.43362509  0.05669657  1
  Br  Br20  1  0.11929276  0.88070724  0.75000000  1
  Br  Br21  1  0.88070724  0.11929276  0.25000000  1
  Br  Br22  1  0.50721798  0.06236783  0.67910556  1
  Br  Br23  1  0.49278202  0.93763217  0.32089444  1
  Br  Br24  1  0.93763217  0.49278202  0.82089444  1
  Br  Br25  1  0.06236783  0.50721798  0.17910556  1
  Br  Br26  1  0.62741606  0.85533392  0.82666124  1
  Br  Br27  1  0.37258394  0.14466608  0.17333876  1
  Br  Br28  1  0.14466608  0.37258394  0.67333876  1
  Br  Br29  1  0.85533392  0.62741606  0.32666124  1
  Br  Br30  1  0.74273963  0.96760476  0.52079358  1
  Br  Br31  1  0.25726037  0.03239524  0.47920642  1
  Br  Br32  1  0.03239524  0.25726037  0.97920642  1
  Br  Br33  1  0.96760476  0.74273963  0.02079358  1
loop_
_geom_bond_atom_site_label_1
_geom_bond_atom_site_label_2
_geom_bond_distance
_geom_bond_site_symmetry_2
Nb0 S0 2.372311 1_555
Nb1 S1 2.372311 1_555
Nb2 S0 2.372311 1_555
Nb3 S1 2.372311 1_555
Nb4 S0 2.376460 1_555
Nb5 S1 2.376460 1_555
Nb6 S0 2.376460 1_555
Nb7 S1 2.376460 1_555
Nb8 S0 2.381166 1_555
Nb9 S1 2.381166 1_555
Nb10 S0 2.381166 1_555
Nb11 S1 2.381166 1_555
Br0 Nb2 2.705971 1_555
Br0 Nb8 2.729255 1_555
Br0 Cs1 3.859394 1_546
Br0 Cs2 4.238838 1_545
Br1 Nb3 2.705971 1_555
Br1 Nb9 2.729255 1_555
Br1 Cs0 3.859394 1_564
Br1 Cs3 4.238838 1_565
Br2 Nb0 2.705971 1_555
Br2 Nb10 2.729255 1_555
Br2 Cs3 3.859394 1_655
Br2 Cs0 4.238838 1_655
Br3 Nb1 2.705971 1_555
Br3 Nb11 2.729255 1_555
Br3 Cs2 3.859394 1_455
Br3 Cs1 4.238838 1_455
Br4 Nb5 2.596163 1_555
Br4 Nb1 2.606564 1_555
Br4 Cs4 3.820864 1_555
Br5 Nb4 2.596163 1_555
Br5 Nb0 2.606564 1_555
Br5 Cs5 3.820864 1_555
Br6 Nb7 2.596163 1_556
Br6 Nb3 2.606564 1_556
Br6 Cs4 3.820864 1_555
Br7 Nb6 2.596163 1_554
Br7 Nb2 2.606564 1_554
Br7 Cs5 3.820864 1_555
Br8 Nb2 2.684977 1_554
Br8 Nb8 2.696180 1_554
Br8 Cs1 3.944862 1_545
Br9 Nb3 2.684977 1_556
Br9 Nb9 2.696180 1_556
Br9 Cs0 3.944862 1_565
Br10 Nb0 2.684977 1_555
Br10 Nb10 2.696180 1_555
Br10 Cs3 3.944862 1_655
Br11 Nb1 2.684977 1_555
Br11 Nb11 2.696180 1_555
Br11 Cs2 3.944862 1_455
Br12 Nb6 2.723735 1_555
Br12 Nb4 2.724564 1_555
Br12 Cs4 3.842440 1_555
Br12 Cs5 3.912904 1_556
Br12 Cs0 4.107516 1_555
Br13 Nb7 2.723735 1_555
Br13 Nb5 2.724564 1_555
Br13 Cs5 3.842440 1_555
Br13 Cs4 3.912904 1_554
Br13 Cs1 4.107516 1_555
Br14 Nb4 2.723735 1_555
Br14 Nb6 2.724564 1_555
Br14 Cs4 3.842440 1_555
Br14 Cs5 3.912904 1_555
Br14 Cs2 4.107516 1_555
Br15 Nb5 2.723735 1_555
Br15 Nb7 2.724564 1_555
Br15 Cs5 3.842440 1_555
Br15 Cs4 3.912904 1_555
Br15 Cs3 4.107516 1_555
Br16 Nb4 2.758738 1_555
Br16 Cs4 3.702072 1_555
Br16 Cs5 3.736637 1_555
Br16 Cs0 3.739735 1_555
Br16 Cs3 4.127587 1_555
Br17 Nb5 2.758738 1_555
Br17 Cs5 3.702072 1_555
Br17 Cs4 3.736637 1_555
Br17 Cs1 3.739735 1_555
Br17 Cs2 4.127587 1_555
Br18 Nb6 2.758738 1_555
Br18 Cs4 3.702072 1_555
Br18 Cs5 3.736637 1_556
Br18 Cs2 3.739735 1_555
Br18 Cs1 4.127587 1_556
Br19 Nb7 2.758738 1_555
Br19 Cs5 3.702072 1_555
Br19 Cs4 3.736637 1_554
Br19 Cs3 3.739735 1_555
Br19 Cs0 4.127587 1_554
Br20 Nb1 2.874455 1_555
Br20 Nb3 2.874455 1_556
Br20 Cs0 4.104466 1_565
Br20 Cs2 4.104466 1_455
Br21 Nb2 2.874455 1_554
Br21 Nb0 2.874455 1_555
Br21 Cs3 4.104466 1_655
Br21 Cs1 4.104466 1_545
Br22 Nb8 2.599399 1_555
Br22 Nb4 2.601331 1_555
Br22 Cs0 3.786907 1_555
Br23 Nb9 2.599399 1_555
Br23 Nb5 2.601331 1_555
Br23 Cs1 3.786907 1_555
Br24 Nb10 2.599399 1_555
Br24 Nb6 2.601331 1_555
Br24 Cs2 3.786907 1_555
Br25 Nb11 2.599399 1_555
Br25 Nb7 2.601331 1_555
Br25 Cs3 3.786907 1_555
Br26 Nb8 2.711892 1_565
Br26 Cs1 3.553320 1_556
Br26 Cs2 3.676493 1_555
Br27 Nb9 2.711892 1_545
Br27 Cs0 3.553320 1_554
Br27 Cs3 3.676493 1_555
Br28 Nb10 2.711892 1_455
Br28 Cs3 3.553320 1_555
Br28 Cs0 3.676493 1_555
Br29 Nb11 2.711892 1_655
Br29 Cs2 3.553320 1_555
Br29 Cs1 3.676493 1_555
Br30 Nb0 2.612297 1_565
Br30 Nb8 2.631788 1_565
Br30 Cs2 3.752491 1_555
Br30 Cs1 3.808121 1_555
Br31 Nb1 2.612297 1_545
Br31 Nb9 2.631788 1_545
Br31 Cs3 3.752491 1_555
Br31 Cs0 3.808121 1_555
Br32 Nb2 2.612297 1_455
Br32 Nb10 2.631788 1_455
Br32 Cs0 3.752491 1_555
Br32 Cs3 3.808121 1_556
Br33 Nb3 2.612297 1_655
Br33 Nb11 2.631788 1_655
Br33 Cs1 3.752491 1_555
Br33 Cs2 3.808121 1_554
