# generated using pymatgen
data_Li3Mg
_symmetry_space_group_name_H-M   'P 1'
_cell_length_a   6.09095622
_cell_length_b   6.09095612
_cell_length_c   5.01154367
_cell_angle_alpha   90.00000000
_cell_angle_beta   90.00000000
_cell_angle_gamma   120.00000056
_symmetry_Int_Tables_number   1
_chemical_formula_structural   Li3Mg
_chemical_formula_sum   'Li6 Mg2'
_cell_volume   161.01750645
_cell_formula_units_Z   2
loop_
 _symmetry_equiv_pos_site_id
 _symmetry_equiv_pos_as_xyz
  1  'x, y, z'
loop_
 _atom_site_type_symbol
 _atom_site_label
 _atom_site_symmetry_multiplicity
 _atom_site_fract_x
 _atom_site_fract_y
 _atom_site_fract_z
 _atom_site_occupancy
  Li  Li0  1  0.33355581  0.16677841  0.25000000  1
  Li  Li1  1  0.83322159  0.16677841  0.25000000  1
  Li  Li2  1  0.83322159  0.66644419  0.25000000  1
  Li  Li3  1  0.66644419  0.83322159  0.75000000  1
  Li  Li4  1  0.16677841  0.33355581  0.75000000  1
  Li  Li5  1  0.16677841  0.83322159  0.75000000  1
  Mg  Mg0  1  0.33333300  0.66666700  0.25000000  1
  Mg  Mg1  1  0.66666700  0.33333300  0.75000000  1
loop_
_geom_bond_atom_site_label_1
_geom_bond_atom_site_label_2
_geom_bond_distance
_geom_bond_site_symmetry_2
Li0 Li2 3.043442 1_555
Li0 Li1 3.043442 1_555
Li0 Mg0 3.045478 1_555
Li0 Mg0 3.045478 1_545
Li0 Li2 3.047514 1_445
Li0 Li1 3.047514 1_455
Li0 Mg1 3.060461 1_555
Li0 Mg1 3.060461 1_554
Li0 Li4 3.061805 1_555
Li0 Li4 3.061805 1_554
Li0 Li5 3.061811 1_545
Li0 Li5 3.061811 1_544
Li1 Li2 3.043442 1_555
Li1 Mg0 3.045478 1_545
Li1 Mg0 3.045478 1_655
Li1 Li2 3.047514 1_545
Li1 Mg1 3.060454 1_555
Li1 Mg1 3.060454 1_554
Li1 Li3 3.061811 1_545
Li1 Li3 3.061811 1_544
Li1 Li4 3.061811 1_655
Li1 Li4 3.061811 1_654
Li2 Mg0 3.045478 1_555
Li2 Mg0 3.045478 1_655
Li2 Mg1 3.060461 1_554
Li2 Mg1 3.060461 1_555
Li2 Li3 3.061805 1_554
Li2 Li3 3.061805 1_555
Li2 Li5 3.061811 1_654
Li2 Li5 3.061811 1_655
Li3 Li4 3.043442 1_555
Li3 Li5 3.043442 1_555
Li3 Mg1 3.045478 1_555
Li3 Mg1 3.045478 1_565
Li3 Li4 3.047514 1_665
Li3 Li5 3.047514 1_655
Li3 Mg0 3.060461 1_556
Li3 Mg0 3.060461 1_555
Li4 Li5 3.043442 1_555
Li4 Mg1 3.045478 1_555
Li4 Mg1 3.045478 1_455
Li4 Li5 3.047514 1_545
Li4 Mg0 3.060461 1_555
Li4 Mg0 3.060461 1_556
Li5 Mg1 3.045478 1_565
Li5 Mg1 3.045478 1_455
Li5 Mg0 3.060454 1_556
Li5 Mg0 3.060454 1_555
