# generated using pymatgen
data_ZrNbC2
_symmetry_space_group_name_H-M   'P 1'
_cell_length_a   5.64378269
_cell_length_b   5.64378269
_cell_length_c   5.64378417
_cell_angle_alpha   33.47021382
_cell_angle_beta   33.47021382
_cell_angle_gamma   33.47021659
_symmetry_Int_Tables_number   1
_chemical_formula_structural   ZrNbC2
_chemical_formula_sum   'Zr1 Nb1 C2'
_cell_volume   48.69542681
_cell_formula_units_Z   1
loop_
 _symmetry_equiv_pos_site_id
 _symmetry_equiv_pos_as_xyz
  1  'x, y, z'
loop_
 _atom_site_type_symbol
 _atom_site_label
 _atom_site_symmetry_multiplicity
 _atom_site_fract_x
 _atom_site_fract_y
 _atom_site_fract_z
 _atom_site_occupancy
  Zr  Zr0  1  -0.00000000  -0.00000000  0.00000000  1
  Nb  Nb0  1  0.50000000  0.50000000  0.50000000  1
  C  C0  1  0.24662390  0.24662390  0.24662390  1
  C  C1  1  0.75337610  0.75337610  0.75337610  1
loop_
_geom_bond_atom_site_label_1
_geom_bond_atom_site_label_2
_geom_bond_distance
_geom_bond_site_symmetry_2
C0 Nb0 2.269678 1_545
C0 Nb0 2.269678 1_455
C0 Nb0 2.269679 1_554
C0 Zr0 2.332034 1_655
C0 Zr0 2.332034 1_565
C0 Zr0 2.332035 1_556
C1 Nb0 2.269678 1_565
C1 Nb0 2.269678 1_655
C1 Nb0 2.269679 1_556
C1 Zr0 2.332034 1_566
C1 Zr0 2.332034 1_656
C1 Zr0 2.332035 1_665
