# generated using pymatgen
data_NbFeB
_symmetry_space_group_name_H-M   'P 1'
_cell_length_a   6.01342401
_cell_length_b   6.01343425
_cell_length_c   3.17153497
_cell_angle_alpha   90.00000000
_cell_angle_beta   90.00000000
_cell_angle_gamma   120.00013237
_symmetry_Int_Tables_number   1
_chemical_formula_structural   NbFeB
_chemical_formula_sum   'Nb3 Fe3 B3'
_cell_volume   99.32165580
_cell_formula_units_Z   3
loop_
 _symmetry_equiv_pos_site_id
 _symmetry_equiv_pos_as_xyz
  1  'x, y, z'
loop_
 _atom_site_type_symbol
 _atom_site_label
 _atom_site_symmetry_multiplicity
 _atom_site_fract_x
 _atom_site_fract_y
 _atom_site_fract_z
 _atom_site_occupancy
  Nb  Nb0  1  0.40935895  0.40940355  0.50000000  1
  Nb  Nb1  1  0.59063214  0.00005565  0.50000000  1
  Nb  Nb2  1  0.00000628  0.59051723  0.50000000  1
  Fe  Fe0  1  0.75939620  0.75940420  -0.00000000  1
  Fe  Fe1  1  0.24061155  0.00000976  -0.00000000  1
  Fe  Fe2  1  0.00000071  0.24060970  0.00000000  1
  B  B0  1  0.66667186  0.33332053  -0.00000000  1
  B  B1  1  0.33331330  0.66664743  -0.00000000  1
  B  B2  1  0.00000901  0.00003096  0.50000000  1
loop_
_geom_bond_atom_site_label_1
_geom_bond_atom_site_label_2
_geom_bond_distance
_geom_bond_site_symmetry_2
Fe0 Nb0 2.635315 1_555
Fe0 Nb0 2.635315 1_554
Fe0 Nb1 2.665977 1_565
Fe0 Nb1 2.665977 1_564
Fe0 Nb2 2.666276 1_655
Fe0 Nb2 2.666276 1_654
Fe1 Nb1 2.635214 1_555
Fe1 Nb1 2.635214 1_554
Fe1 Nb0 2.665888 1_555
Fe1 Nb0 2.665888 1_554
Fe1 Nb2 2.666254 1_544
Fe1 Nb2 2.666254 1_545
Fe2 Nb2 2.634771 1_555
Fe2 Nb2 2.634771 1_554
Fe2 Nb0 2.665705 1_555
Fe2 Nb0 2.665705 1_554
Fe2 Nb1 2.665740 1_455
Fe2 Nb1 2.665740 1_454
B0 Fe2 2.333695 1_655
B0 Fe1 2.333740 1_555
B0 Fe0 2.333930 1_555
B0 Nb1 2.413223 1_555
B0 Nb1 2.413223 1_554
B0 Nb2 2.413394 1_655
B0 Nb2 2.413394 1_654
B0 Nb0 2.413743 1_555
B0 Nb0 2.413743 1_554
B1 Fe2 2.333654 1_555
B1 Fe1 2.333858 1_565
B1 Fe0 2.333861 1_555
B1 Nb2 2.413284 1_555
B1 Nb2 2.413284 1_554
B1 Nb0 2.413325 1_555
B1 Nb0 2.413325 1_554
B1 Nb1 2.413787 1_565
B1 Nb1 2.413787 1_564
B2 Fe2 2.146552 1_556
B2 Fe2 2.146552 1_555
B2 Fe1 2.146673 1_555
B2 Fe1 2.146673 1_556
B2 Fe0 2.146699 1_446
B2 Fe0 2.146699 1_445
B2 Nb0 2.461660 1_555
B2 Nb1 2.461831 1_455
B2 Nb2 2.462576 1_545
