# generated using pymatgen
data_SrMg14Cu
_symmetry_space_group_name_H-M   'P 1'
_cell_length_a   6.57711171
_cell_length_b   6.29349819
_cell_length_c   10.38061218
_cell_angle_alpha   90.00000000
_cell_angle_beta   90.00000000
_cell_angle_gamma   118.58352891
_symmetry_Int_Tables_number   1
_chemical_formula_structural   SrMg14Cu
_chemical_formula_sum   'Sr1 Mg14 Cu1'
_cell_volume   377.31531826
_cell_formula_units_Z   1
loop_
 _symmetry_equiv_pos_site_id
 _symmetry_equiv_pos_as_xyz
  1  'x, y, z'
loop_
 _atom_site_type_symbol
 _atom_site_label
 _atom_site_symmetry_multiplicity
 _atom_site_fract_x
 _atom_site_fract_y
 _atom_site_fract_z
 _atom_site_occupancy
  Sr  Sr0  1  0.12450493  0.81225197  0.12500000  1
  Mg  Mg0  1  0.16240890  0.33120395  0.62500000  1
  Mg  Mg1  1  0.16925652  0.83462776  0.62500000  1
  Mg  Mg2  1  0.62043656  0.32096292  0.12500000  1
  Mg  Mg3  1  0.66586377  0.32788286  0.62500000  1
  Mg  Mg4  1  0.62043656  0.79947264  0.12500000  1
  Mg  Mg5  1  0.66586377  0.83797991  0.62500000  1
  Mg  Mg6  1  0.34449497  0.17729607  0.38147731  1
  Mg  Mg7  1  0.34449497  0.17729607  0.86852269  1
  Mg  Mg8  1  0.34449497  0.66719990  0.38147731  1
  Mg  Mg9  1  0.34449497  0.66719990  0.86852269  1
  Mg  Mg10  1  0.86449486  0.18224793  0.34439023  1
  Mg  Mg11  1  0.86449486  0.18224793  0.90560977  1
  Mg  Mg12  1  0.82628827  0.66314464  0.39260977  1
  Mg  Mg13  1  0.82628827  0.66314464  0.85739023  1
  Cu  Cu0  1  0.21168284  0.35584092  0.12500000  1
loop_
_geom_bond_atom_site_label_1
_geom_bond_atom_site_label_2
_geom_bond_distance
_geom_bond_site_symmetry_2
Mg0 Mg6 3.142104 1_555
Mg0 Mg7 3.142104 1_555
Mg0 Mg8 3.142110 1_555
Mg0 Mg9 3.142110 1_555
Mg0 Mg1 3.146998 1_555
Mg0 Mg1 3.146998 1_545
Mg0 Mg5 3.255884 1_445
Mg0 Mg3 3.255885 1_455
Mg0 Mg5 3.321329 1_555
Mg0 Mg3 3.321330 1_555
Mg0 Mg10 3.383114 1_455
Mg0 Mg11 3.383114 1_455
Mg1 Mg12 3.121388 1_455
Mg1 Mg13 3.121388 1_455
Mg1 Mg8 3.160877 1_555
Mg1 Mg9 3.160877 1_555
Mg1 Mg6 3.160884 1_565
Mg1 Mg7 3.160884 1_565
Mg1 Mg3 3.256200 1_565
Mg1 Mg5 3.256201 1_555
Mg1 Mg3 3.321015 1_455
Mg1 Mg5 3.321016 1_455
Mg2 Mg4 3.011500 1_555
Mg2 Mg7 3.103142 1_554
Mg2 Mg6 3.103142 1_555
Mg2 Sr0 3.277595 1_655
Mg2 Mg4 3.281998 1_545
Mg2 Sr0 3.301032 1_545
Mg3 Mg5 3.083203 1_545
Mg3 Mg6 3.136776 1_555
Mg3 Mg7 3.136776 1_555
Mg3 Mg5 3.210295 1_555
Mg4 Mg9 3.103143 1_554
Mg4 Mg8 3.103143 1_555
Mg4 Sr0 3.277596 1_655
Mg4 Sr0 3.301033 1_555
Mg5 Mg8 3.136776 1_555
Mg5 Mg9 3.136776 1_555
Mg6 Mg8 3.083209 1_555
Mg6 Mg8 3.210289 1_545
Mg6 Sr0 3.358443 1_545
Mg7 Mg9 3.083209 1_555
Mg7 Mg9 3.210289 1_545
Mg7 Sr0 3.358443 1_546
Mg8 Sr0 3.358437 1_555
Mg9 Sr0 3.358437 1_556
Mg10 Mg2 3.141064 1_555
Mg10 Mg4 3.141071 1_545
Mg10 Mg12 3.193943 1_545
Mg10 Mg12 3.193943 1_555
Mg10 Mg8 3.195320 1_655
Mg10 Mg6 3.195320 1_655
Mg10 Mg8 3.426990 1_545
Mg10 Mg6 3.426990 1_555
Mg10 Mg3 3.489636 1_555
Mg10 Mg5 3.489642 1_545
Mg11 Mg2 3.141064 1_556
Mg11 Mg4 3.141071 1_546
Mg11 Mg13 3.193943 1_545
Mg11 Mg13 3.193943 1_555
Mg11 Mg9 3.195320 1_655
Mg11 Mg7 3.195320 1_655
Mg11 Mg9 3.426990 1_545
Mg11 Mg7 3.426990 1_555
Mg11 Mg3 3.489636 1_555
Mg11 Mg5 3.489642 1_545
Mg12 Mg5 3.042102 1_555
Mg12 Mg3 3.042109 1_555
Mg12 Mg6 3.183196 1_555
Mg12 Mg8 3.183196 1_555
Mg12 Sr0 3.268564 1_655
Mg12 Mg4 3.376057 1_555
Mg12 Mg2 3.376063 1_555
Mg12 Mg6 3.398132 1_665
Mg12 Mg8 3.398132 1_655
Mg13 Mg5 3.042102 1_555
Mg13 Mg3 3.042109 1_555
Mg13 Mg7 3.183196 1_555
Mg13 Mg9 3.183196 1_555
Mg13 Sr0 3.268564 1_656
Mg13 Mg4 3.376057 1_556
Mg13 Mg2 3.376063 1_556
Mg13 Mg7 3.398132 1_665
Mg13 Mg9 3.398132 1_655
Cu0 Mg4 2.800080 1_555
Cu0 Mg2 2.800081 1_555
Cu0 Mg10 3.034359 1_455
Cu0 Mg11 3.034359 1_454
Cu0 Mg7 3.170683 1_554
Cu0 Mg6 3.170683 1_555
Cu0 Mg9 3.170689 1_554
Cu0 Mg8 3.170689 1_555
Cu0 Sr0 3.186775 1_545
Cu0 Sr0 3.186776 1_555
