# generated using pymatgen
data_SrMg2
_symmetry_space_group_name_H-M   'P 1'
_cell_length_a   19.48903792
_cell_length_b   19.48903792
_cell_length_c   10.96974200
_cell_angle_alpha   90.00000000
_cell_angle_beta   90.00000000
_cell_angle_gamma   157.26672771
_symmetry_Int_Tables_number   1
_chemical_formula_structural   SrMg2
_chemical_formula_sum   'Sr16 Mg32'
_cell_volume   1610.13097380
_cell_formula_units_Z   16
loop_
 _symmetry_equiv_pos_site_id
 _symmetry_equiv_pos_as_xyz
  1  'x, y, z'
loop_
 _atom_site_type_symbol
 _atom_site_label
 _atom_site_symmetry_multiplicity
 _atom_site_fract_x
 _atom_site_fract_y
 _atom_site_fract_z
 _atom_site_occupancy
  Sr  Sr0_0  1  0.05018000  0.44982000  0.25000000  1
  Sr  Sr0_1  1  0.05018000  0.44982000  0.75000000  1
  Sr  Sr0_2  1  0.05018000  0.94982000  0.25000000  1
  Sr  Sr0_3  1  0.05018000  0.94982000  0.75000000  1
  Sr  Sr0_4  1  0.55018000  0.44982000  0.25000000  1
  Sr  Sr0_5  1  0.55018000  0.44982000  0.75000000  1
  Sr  Sr0_6  1  0.55018000  0.94982000  0.25000000  1
  Sr  Sr0_7  1  0.55018000  0.94982000  0.75000000  1
  Sr  Sr1_0  1  0.39601100  0.10398900  0.25000000  1
  Sr  Sr1_1  1  0.39601100  0.10398900  0.75000000  1
  Sr  Sr1_2  1  0.39601100  0.60398900  0.25000000  1
  Sr  Sr1_3  1  0.39601100  0.60398900  0.75000000  1
  Sr  Sr1_4  1  0.89601100  0.10398900  0.25000000  1
  Sr  Sr1_5  1  0.89601100  0.10398900  0.75000000  1
  Sr  Sr1_6  1  0.89601100  0.60398900  0.25000000  1
  Sr  Sr1_7  1  0.89601100  0.60398900  0.75000000  1
  Mg  Mg0_0  1  0.49010300  0.00989700  0.00000000  1
  Mg  Mg0_1  1  0.49010300  0.00989700  0.50000000  1
  Mg  Mg0_2  1  0.49010300  0.50989700  0.00000000  1
  Mg  Mg0_3  1  0.49010300  0.50989700  0.50000000  1
  Mg  Mg0_4  1  0.99010300  0.00989700  0.00000000  1
  Mg  Mg0_5  1  0.99010300  0.00989700  0.50000000  1
  Mg  Mg0_6  1  0.99010300  0.50989700  0.00000000  1
  Mg  Mg0_7  1  0.99010300  0.50989700  0.50000000  1
  Mg  Mg1_0  1  0.17439750  0.32560250  0.00000000  1
  Mg  Mg1_1  1  0.17439750  0.32560250  0.50000000  1
  Mg  Mg1_2  1  0.17439750  0.82560250  0.00000000  1
  Mg  Mg1_3  1  0.17439750  0.82560250  0.50000000  1
  Mg  Mg1_4  1  0.67439750  0.32560250  0.00000000  1
  Mg  Mg1_5  1  0.67439750  0.32560250  0.50000000  1
  Mg  Mg1_6  1  0.67439750  0.82560250  0.00000000  1
  Mg  Mg1_7  1  0.67439750  0.82560250  0.50000000  1
  Mg  Mg2_0  1  0.33410100  0.16589900  0.00000000  1
  Mg  Mg2_1  1  0.33410100  0.16589900  0.50000000  1
  Mg  Mg2_2  1  0.33410100  0.66589900  0.00000000  1
  Mg  Mg2_3  1  0.33410100  0.66589900  0.50000000  1
  Mg  Mg2_4  1  0.83410100  0.16589900  0.00000000  1
  Mg  Mg2_5  1  0.83410100  0.16589900  0.50000000  1
  Mg  Mg2_6  1  0.83410100  0.66589900  0.00000000  1
  Mg  Mg2_7  1  0.83410100  0.66589900  0.50000000  1
  Mg  Mg3_0  1  0.22187450  0.27812550  0.25000000  1
  Mg  Mg3_1  1  0.22187450  0.27812550  0.75000000  1
  Mg  Mg3_2  1  0.22187450  0.77812550  0.25000000  1
  Mg  Mg3_3  1  0.22187450  0.77812550  0.75000000  1
  Mg  Mg3_4  1  0.72187450  0.27812550  0.25000000  1
  Mg  Mg3_5  1  0.72187450  0.27812550  0.75000000  1
  Mg  Mg3_6  1  0.72187450  0.77812550  0.25000000  1
  Mg  Mg3_7  1  0.72187450  0.77812550  0.75000000  1
loop_
_geom_bond_atom_site_label_1
_geom_bond_atom_site_label_2
_geom_bond_distance
_geom_bond_site_symmetry_2
Sr0_0 Sr0_6 3.841026 1_555
Sr0_0 Sr0_6 3.841026 1_445
Sr0_0 Sr1_2 4.135086 1_555
Sr0_0 Sr1_4 4.135086 1_455
Sr0_1 Sr0_7 3.841026 1_555
Sr0_1 Sr0_7 3.841026 1_445
Sr0_1 Sr1_3 4.135086 1_555
Sr0_1 Sr1_5 4.135086 1_455
Sr0_2 Sr0_4 3.841026 1_565
Sr0_2 Sr0_4 3.841026 1_455
Sr0_2 Sr1_6 4.135086 1_455
Sr0_2 Sr1_0 4.135086 1_565
Sr0_3 Sr0_5 3.841026 1_455
Sr0_3 Sr0_5 3.841026 1_565
Sr0_3 Sr1_7 4.135086 1_455
Sr0_3 Sr1_1 4.135086 1_565
Sr0_4 Sr1_6 4.135086 1_555
Sr0_4 Sr1_0 4.135086 1_555
Sr0_5 Sr1_7 4.135086 1_555
Sr0_5 Sr1_1 4.135086 1_555
Sr0_6 Sr1_2 4.135086 1_555
Sr0_6 Sr1_4 4.135086 1_565
Sr0_7 Sr1_3 4.135086 1_555
Sr0_7 Sr1_5 4.135086 1_565
Sr1_0 Sr1_6 3.841026 1_555
Sr1_0 Sr1_6 3.841026 1_445
Sr1_1 Sr1_7 3.841026 1_555
Sr1_1 Sr1_7 3.841026 1_445
Sr1_2 Sr1_4 3.841026 1_565
Sr1_2 Sr1_4 3.841026 1_455
Sr1_3 Sr1_5 3.841026 1_455
Sr1_3 Sr1_5 3.841026 1_565
Mg0_0 Mg1_4 3.161122 1_555
Mg0_0 Mg1_2 3.161122 1_545
Mg0_0 Mg3_5 3.419728 1_554
Mg0_0 Mg3_3 3.419728 1_544
Mg0_0 Mg3_4 3.419728 1_555
Mg0_0 Mg3_2 3.419728 1_545
Mg0_0 Sr0_7 3.576514 1_544
Mg0_0 Sr0_6 3.576514 1_545
Mg0_1 Mg1_5 3.161122 1_555
Mg0_1 Mg1_3 3.161122 1_545
Mg0_1 Mg3_4 3.419728 1_555
Mg0_1 Mg3_5 3.419728 1_555
Mg0_1 Mg3_2 3.419728 1_545
Mg0_1 Mg3_3 3.419728 1_545
Mg0_1 Sr0_6 3.576514 1_545
Mg0_1 Sr0_7 3.576514 1_545
Mg0_2 Mg1_6 3.161122 1_555
Mg0_2 Mg1_0 3.161122 1_555
Mg0_2 Mg3_1 3.419728 1_554
Mg0_2 Mg3_7 3.419728 1_554
Mg0_2 Mg3_0 3.419728 1_555
Mg0_2 Mg3_6 3.419728 1_555
Mg0_2 Sr0_5 3.576514 1_554
Mg0_2 Sr0_4 3.576514 1_555
Mg0_3 Mg1_7 3.161122 1_555
Mg0_3 Mg1_1 3.161122 1_555
Mg0_3 Mg3_0 3.419728 1_555
Mg0_3 Mg3_1 3.419728 1_555
Mg0_3 Mg3_6 3.419728 1_555
Mg0_3 Mg3_7 3.419728 1_555
Mg0_3 Sr0_4 3.576514 1_555
Mg0_3 Sr0_5 3.576514 1_555
Mg0_4 Mg1_0 3.161122 1_655
Mg0_4 Mg1_6 3.161122 1_545
Mg0_4 Mg3_1 3.419728 1_654
Mg0_4 Mg3_7 3.419728 1_544
Mg0_4 Mg3_0 3.419728 1_655
Mg0_4 Mg3_6 3.419728 1_545
Mg0_4 Sr0_3 3.576514 1_644
Mg0_4 Sr0_2 3.576514 1_645
Mg0_5 Mg1_1 3.161122 1_655
Mg0_5 Mg1_7 3.161122 1_545
Mg0_5 Mg3_0 3.419728 1_655
Mg0_5 Mg3_6 3.419728 1_545
Mg0_5 Mg3_1 3.419728 1_655
Mg0_5 Mg3_7 3.419728 1_545
Mg0_5 Sr0_2 3.576514 1_645
Mg0_5 Sr0_3 3.576514 1_645
Mg0_6 Mg1_2 3.161122 1_655
Mg0_6 Mg1_4 3.161122 1_555
Mg0_6 Mg3_3 3.419728 1_654
Mg0_6 Mg3_5 3.419728 1_554
Mg0_6 Mg3_2 3.419728 1_655
Mg0_6 Mg3_4 3.419728 1_555
Mg0_6 Sr0_1 3.576514 1_654
Mg0_6 Sr0_0 3.576514 1_655
Mg0_7 Mg1_5 3.161122 1_555
Mg0_7 Mg1_3 3.161122 1_655
Mg0_7 Mg3_2 3.419728 1_655
Mg0_7 Mg3_4 3.419728 1_555
Mg0_7 Mg3_5 3.419728 1_555
Mg0_7 Mg3_3 3.419728 1_655
Mg0_7 Sr0_0 3.576514 1_655
Mg0_7 Sr0_1 3.576514 1_655
Mg1_0 Mg3_1 3.288238 1_554
Mg1_0 Mg3_0 3.288238 1_555
Mg1_0 Sr1_5 3.519375 1_454
Mg1_0 Sr1_4 3.519375 1_455
Mg1_0 Sr1_3 3.519375 1_554
Mg1_0 Sr1_2 3.519375 1_555
Mg1_1 Mg3_0 3.288238 1_555
Mg1_1 Mg3_1 3.288238 1_555
Mg1_1 Sr1_4 3.519375 1_455
Mg1_1 Sr1_5 3.519375 1_455
Mg1_1 Sr1_2 3.519375 1_555
Mg1_1 Sr1_3 3.519375 1_555
Mg1_2 Mg3_3 3.288238 1_554
Mg1_2 Mg3_2 3.288238 1_555
Mg1_2 Sr1_7 3.519375 1_454
Mg1_2 Sr1_6 3.519375 1_455
Mg1_2 Sr1_1 3.519375 1_564
Mg1_2 Sr1_0 3.519375 1_565
Mg1_3 Mg3_2 3.288238 1_555
Mg1_3 Mg3_3 3.288238 1_555
Mg1_3 Sr1_6 3.519375 1_455
Mg1_3 Sr1_7 3.519375 1_455
Mg1_3 Sr1_0 3.519375 1_565
Mg1_3 Sr1_1 3.519375 1_565
Mg1_4 Mg3_5 3.288238 1_554
Mg1_4 Mg3_4 3.288238 1_555
Mg1_4 Sr1_1 3.519375 1_554
Mg1_4 Sr1_0 3.519375 1_555
Mg1_4 Sr1_7 3.519375 1_554
Mg1_4 Sr1_6 3.519375 1_555
Mg1_5 Mg3_4 3.288238 1_555
Mg1_5 Mg3_5 3.288238 1_555
Mg1_5 Sr1_0 3.519375 1_555
Mg1_5 Sr1_1 3.519375 1_555
Mg1_5 Sr1_6 3.519375 1_555
Mg1_5 Sr1_7 3.519375 1_555
Mg1_6 Mg3_7 3.288238 1_554
Mg1_6 Mg3_6 3.288238 1_555
Mg1_6 Sr1_3 3.519375 1_554
Mg1_6 Sr1_2 3.519375 1_555
Mg1_6 Sr1_5 3.519375 1_564
Mg1_6 Sr1_4 3.519375 1_565
Mg1_7 Mg3_6 3.288238 1_555
Mg1_7 Mg3_7 3.288238 1_555
Mg1_7 Sr1_2 3.519375 1_555
Mg1_7 Sr1_3 3.519375 1_555
Mg1_7 Sr1_4 3.519375 1_565
Mg1_7 Sr1_5 3.519375 1_565
Mg2_0 Sr0_5 3.590204 1_554
Mg2_0 Sr0_4 3.590204 1_555
Mg2_0 Sr0_3 3.590204 1_544
Mg2_0 Sr0_2 3.590204 1_545
Mg2_0 Sr1_1 3.621874 1_554
Mg2_0 Sr1_0 3.621874 1_555
Mg2_1 Sr0_4 3.590204 1_555
Mg2_1 Sr0_5 3.590204 1_555
Mg2_1 Sr0_2 3.590204 1_545
Mg2_1 Sr0_3 3.590204 1_545
Mg2_1 Sr1_0 3.621874 1_555
Mg2_1 Sr1_1 3.621874 1_555
Mg2_2 Sr0_1 3.590204 1_554
Mg2_2 Sr0_0 3.590204 1_555
Mg2_2 Sr0_7 3.590204 1_554
Mg2_2 Sr0_6 3.590204 1_555
Mg2_2 Sr1_3 3.621874 1_554
Mg2_2 Sr1_2 3.621874 1_555
Mg2_3 Sr0_0 3.590204 1_555
Mg2_3 Sr0_6 3.590204 1_555
Mg2_3 Sr0_1 3.590204 1_555
Mg2_3 Sr0_7 3.590204 1_555
Mg2_3 Sr1_2 3.621874 1_555
Mg2_3 Sr1_3 3.621874 1_555
Mg2_4 Sr0_7 3.590204 1_544
Mg2_4 Sr0_1 3.590204 1_654
Mg2_4 Sr0_0 3.590204 1_655
Mg2_4 Sr0_6 3.590204 1_545
Mg2_4 Sr1_5 3.621874 1_554
Mg2_4 Sr1_4 3.621874 1_555
Mg2_5 Sr0_0 3.590204 1_655
Mg2_5 Sr0_6 3.590204 1_545
Mg2_5 Sr0_1 3.590204 1_655
Mg2_5 Sr0_7 3.590204 1_545
Mg2_5 Sr1_4 3.621874 1_555
Mg2_5 Sr1_5 3.621874 1_555
Mg2_6 Sr0_5 3.590204 1_554
Mg2_6 Sr0_4 3.590204 1_555
Mg2_6 Sr0_3 3.590204 1_654
Mg2_6 Sr0_2 3.590204 1_655
Mg2_6 Sr1_7 3.621874 1_554
Mg2_6 Sr1_6 3.621874 1_555
Mg2_7 Sr0_4 3.590204 1_555
Mg2_7 Sr0_5 3.590204 1_555
Mg2_7 Sr0_2 3.590204 1_655
Mg2_7 Sr0_3 3.590204 1_655
Mg2_7 Sr1_6 3.621874 1_555
Mg2_7 Sr1_7 3.621874 1_555
Mg3_0 Sr1_4 3.477450 1_455
Mg3_0 Sr1_2 3.477450 1_555
Mg3_0 Sr0_2 3.555618 1_545
Mg3_0 Sr0_4 3.555618 1_555
Mg3_1 Sr1_5 3.477450 1_455
Mg3_1 Sr1_3 3.477450 1_555
Mg3_1 Sr0_3 3.555618 1_545
Mg3_1 Sr0_5 3.555618 1_555
Mg3_2 Sr1_0 3.477450 1_565
Mg3_2 Sr1_6 3.477450 1_455
Mg3_2 Sr0_0 3.555618 1_555
Mg3_2 Sr0_6 3.555618 1_555
Mg3_3 Sr1_1 3.477450 1_565
Mg3_3 Sr1_7 3.477450 1_455
Mg3_3 Sr0_1 3.555618 1_555
Mg3_3 Sr0_7 3.555618 1_555
Mg3_4 Sr1_0 3.477450 1_555
Mg3_4 Sr1_6 3.477450 1_555
Mg3_4 Sr0_6 3.555618 1_545
Mg3_4 Sr0_0 3.555618 1_655
Mg3_5 Sr1_1 3.477450 1_555
Mg3_5 Sr1_7 3.477450 1_555
Mg3_5 Sr0_7 3.555618 1_545
Mg3_5 Sr0_1 3.555618 1_655
Mg3_6 Sr1_4 3.477450 1_565
Mg3_6 Sr1_2 3.477450 1_555
Mg3_6 Sr0_2 3.555618 1_655
Mg3_6 Sr0_4 3.555618 1_555
Mg3_7 Sr1_5 3.477450 1_565
Mg3_7 Sr1_3 3.477450 1_555
Mg3_7 Sr0_3 3.555618 1_655
Mg3_7 Sr0_5 3.555618 1_555
