# generated using pymatgen
data_La3YTi4O14
_symmetry_space_group_name_H-M   'P 1'
_cell_length_a   7.36346240
_cell_length_b   7.36346240
_cell_length_c   7.36346248
_cell_angle_alpha   60.09232980
_cell_angle_beta   60.09232980
_cell_angle_gamma   60.09232809
_symmetry_Int_Tables_number   1
_chemical_formula_structural   La3YTi4O14
_chemical_formula_sum   'La3 Y1 Ti4 O14'
_cell_volume   282.90385846
_cell_formula_units_Z   1
loop_
 _symmetry_equiv_pos_site_id
 _symmetry_equiv_pos_as_xyz
  1  'x, y, z'
loop_
 _atom_site_type_symbol
 _atom_site_label
 _atom_site_symmetry_multiplicity
 _atom_site_fract_x
 _atom_site_fract_y
 _atom_site_fract_z
 _atom_site_occupancy
  La  La0  1  0.00000000  0.50000000  0.50000000  1
  La  La1  1  0.50000000  0.50000000  0.00000000  1
  La  La2  1  0.50000000  0.00000000  0.50000000  1
  Y  Y0  1  0.50000000  0.50000000  0.50000000  1
  Ti  Ti0  1  0.00000000  0.00000000  0.00000000  1
  Ti  Ti1  1  0.50000000  0.00000000  0.00000000  1
  Ti  Ti2  1  0.00000000  0.00000000  0.50000000  1
  Ti  Ti3  1  0.00000000  0.50000000  0.00000000  1
  O  O0  1  0.38007800  0.38007800  0.38007800  1
  O  O1  1  0.61992200  0.61992200  0.61992200  1
  O  O2  1  0.92236900  0.32503100  0.32503100  1
  O  O3  1  0.32391200  0.92617100  0.92617100  1
  O  O4  1  0.32503100  0.32503100  0.92236900  1
  O  O5  1  0.92617100  0.92617100  0.32391200  1
  O  O6  1  0.92617100  0.32391200  0.92617100  1
  O  O7  1  0.32503100  0.92236900  0.32503100  1
  O  O8  1  0.07763100  0.67496900  0.67496900  1
  O  O9  1  0.67608800  0.07382900  0.07382900  1
  O  O10  1  0.67496900  0.67496900  0.07763100  1
  O  O11  1  0.07382900  0.07382900  0.67608800  1
  O  O12  1  0.07382900  0.67608800  0.07382900  1
  O  O13  1  0.67496900  0.07763100  0.67496900  1
loop_
_geom_bond_atom_site_label_1
_geom_bond_atom_site_label_2
_geom_bond_distance
_geom_bond_site_symmetry_2
La0 O0 2.289292 1_555
La0 O1 2.289292 1_455
La0 O5 2.601643 1_455
La0 O11 2.601643 1_555
La0 O6 2.601643 1_455
La0 O12 2.601643 1_555
La0 O8 2.602062 1_555
La0 O2 2.602062 1_455
La1 O0 2.289292 1_555
La1 O1 2.289292 1_554
La1 O3 2.601643 1_554
La1 O6 2.601643 1_554
La1 O9 2.601643 1_555
La1 O12 2.601643 1_555
La1 O10 2.602062 1_555
La1 O4 2.602062 1_554
La2 O0 2.289292 1_555
La2 O1 2.289292 1_545
La2 O5 2.601643 1_545
La2 O11 2.601643 1_555
La2 O3 2.601643 1_545
La2 O9 2.601643 1_555
La2 O13 2.602062 1_555
La2 O7 2.602062 1_545
O0 Y0 2.161490 1_555
O1 Y0 2.161490 1_555
O2 Ti2 2.002502 1_655
O2 Ti3 2.002502 1_655
O2 Y0 2.579970 1_555
O3 Ti1 1.993203 1_566
O3 Ti0 1.997132 1_566
O4 Ti3 2.002502 1_556
O4 Ti1 2.002502 1_556
O4 Y0 2.579970 1_555
O5 Ti2 1.993203 1_665
O5 Ti0 1.997132 1_665
O6 Ti3 1.993203 1_656
O6 Ti0 1.997132 1_656
O7 Ti2 2.002502 1_565
O7 Ti1 2.002502 1_565
O7 Y0 2.579970 1_555
O8 Ti2 2.002502 1_565
O8 Ti3 2.002502 1_556
O8 Y0 2.579970 1_555
O9 Ti1 1.993203 1_555
O9 Ti0 1.997132 1_655
O10 Ti3 2.002502 1_655
O10 Ti1 2.002502 1_565
O10 Y0 2.579970 1_555
O11 Ti2 1.993203 1_555
O11 Ti0 1.997132 1_556
O12 Ti3 1.993203 1_555
O12 Ti0 1.997132 1_565
O13 Ti2 2.002502 1_655
O13 Ti1 2.002502 1_556
O13 Y0 2.579970 1_555
