# generated using pymatgen
data_AlGa(CuSe2)2
_symmetry_space_group_name_H-M   'P 1'
_cell_length_a   6.86824128
_cell_length_b   6.86824128
_cell_length_c   6.86824128
_cell_angle_alpha   131.38782442
_cell_angle_beta   131.38782442
_cell_angle_gamma   71.19762726
_symmetry_Int_Tables_number   1
_chemical_formula_structural   AlGa(CuSe2)2
_chemical_formula_sum   'Al1 Ga1 Cu2 Se4'
_cell_volume   178.53434866
_cell_formula_units_Z   1
loop_
 _symmetry_equiv_pos_site_id
 _symmetry_equiv_pos_as_xyz
  1  'x, y, z'
loop_
 _atom_site_type_symbol
 _atom_site_label
 _atom_site_symmetry_multiplicity
 _atom_site_fract_x
 _atom_site_fract_y
 _atom_site_fract_z
 _atom_site_occupancy
  Al  Al0  1  0.50000000  0.50000000  0.00000000  1
  Ga  Ga0  1  0.75000000  0.25000000  0.50000000  1
  Cu  Cu0  1  0.25000000  0.75000000  0.50000000  1
  Cu  Cu1  1  0.00000000  0.00000000  0.00000000  1
  Se  Se0  1  0.62363600  0.62869600  0.49971000  1
  Se  Se1  1  0.12898600  0.12392600  0.50029000  1
  Se  Se2  1  0.87607400  0.37636400  0.00505900  1
  Se  Se3  1  0.37130400  0.87101400  0.99494100  1
loop_
_geom_bond_atom_site_label_1
_geom_bond_atom_site_label_2
_geom_bond_distance
_geom_bond_site_symmetry_2
Al0 Se3 2.429084 1_554
Al0 Se1 2.429088 1_554
Al0 Se0 2.429088 1_555
Al0 Se2 2.429091 1_555
Ga0 Se2 2.463276 1_556
Ga0 Se3 2.463282 1_544
Ga0 Se0 2.463282 1_555
Ga0 Se1 2.463282 1_655
Cu0 Se0 2.430226 1_555
Cu0 Se1 2.430226 1_565
Cu0 Se2 2.430226 1_455
Cu0 Se3 2.430232 1_555
Cu1 Se3 2.430992 1_544
Cu1 Se1 2.430995 1_555
Cu1 Se0 2.430995 1_444
Cu1 Se2 2.430998 1_455
