# generated using pymatgen
data_Ce3CoGe2
_symmetry_space_group_name_H-M   'P 1'
_cell_length_a   4.17107700
_cell_length_b   11.33862100
_cell_length_c   11.78641900
_cell_angle_alpha   90.00000000
_cell_angle_beta   90.00000000
_cell_angle_gamma   90.00000000
_symmetry_Int_Tables_number   1
_chemical_formula_structural   Ce3CoGe2
_chemical_formula_sum   'Ce12 Co4 Ge8'
_cell_volume   557.42997956
_cell_formula_units_Z   4
loop_
 _symmetry_equiv_pos_site_id
 _symmetry_equiv_pos_as_xyz
  1  'x, y, z'
loop_
 _atom_site_type_symbol
 _atom_site_label
 _atom_site_symmetry_multiplicity
 _atom_site_fract_x
 _atom_site_fract_y
 _atom_site_fract_z
 _atom_site_occupancy
  Ce  Ce0  1  0.25000000  0.37344600  0.05078100  1
  Ce  Ce1  1  0.75000000  0.62655400  0.94921900  1
  Ce  Ce2  1  0.75000000  0.87344600  0.44921900  1
  Ce  Ce3  1  0.25000000  0.12655400  0.55078100  1
  Ce  Ce4  1  0.25000000  0.70130000  0.22566700  1
  Ce  Ce5  1  0.75000000  0.29870000  0.77433300  1
  Ce  Ce6  1  0.75000000  0.20130000  0.27433300  1
  Ce  Ce7  1  0.25000000  0.79870000  0.72566700  1
  Ce  Ce8  1  0.25000000  0.44346800  0.38222400  1
  Ce  Ce9  1  0.75000000  0.55653200  0.61777600  1
  Ce  Ce10  1  0.75000000  0.94346800  0.11777600  1
  Ce  Ce11  1  0.25000000  0.05653200  0.88222400  1
  Co  Co0  1  0.25000000  0.13055300  0.12998500  1
  Co  Co1  1  0.75000000  0.86944700  0.87001500  1
  Co  Co2  1  0.75000000  0.63055300  0.37001500  1
  Co  Co3  1  0.25000000  0.36944700  0.62998500  1
  Ge  Ge0  1  0.25000000  0.68823100  0.47975600  1
  Ge  Ge1  1  0.75000000  0.31176900  0.52024400  1
  Ge  Ge2  1  0.75000000  0.18823100  0.02024400  1
  Ge  Ge3  1  0.25000000  0.81176900  0.97975600  1
  Ge  Ge4  1  0.25000000  0.99830900  0.30122100  1
  Ge  Ge5  1  0.75000000  0.00169100  0.69877900  1
  Ge  Ge6  1  0.75000000  0.49830900  0.19877900  1
  Ge  Ge7  1  0.25000000  0.50169100  0.80122100  1
loop_
_geom_bond_atom_site_label_1
_geom_bond_atom_site_label_2
_geom_bond_distance
_geom_bond_site_symmetry_2
Ce0 Co0 2.907988 1_555
Ce0 Ge2 2.981503 1_555
Ce0 Ge2 2.981503 1_455
Ce0 Ge6 3.065404 1_455
Ce0 Ge6 3.065404 1_555
Ce0 Ge7 3.281221 1_554
Ce1 Co1 2.907988 1_555
Ce1 Ge3 2.981503 1_555
Ce1 Ge3 2.981503 1_655
Ce1 Ge7 3.065404 1_555
Ce1 Ge7 3.065404 1_655
Ce1 Ge6 3.281221 1_556
Ce2 Co2 2.907988 1_555
Ce2 Ge0 2.981503 1_555
Ce2 Ge0 2.981503 1_655
Ce2 Ge4 3.065404 1_655
Ce2 Ge4 3.065404 1_555
Ce2 Ge5 3.281221 1_565
Ce3 Co3 2.907988 1_555
Ce3 Ge1 2.981503 1_455
Ce3 Ge1 2.981503 1_555
Ce3 Ge5 3.065404 1_455
Ce3 Ge5 3.065404 1_555
Ce3 Ge4 3.281221 1_545
Ce4 Co2 2.808475 1_455
Ce4 Co2 2.808475 1_555
Ce4 Ge0 2.998463 1_555
Ce4 Ge6 3.122089 1_455
Ce4 Ge6 3.122089 1_555
Ce4 Ge3 3.157484 1_554
Ce4 Ge4 3.483422 1_555
Ce5 Co3 2.808475 1_555
Ce5 Co3 2.808475 1_655
Ce5 Ge1 2.998463 1_555
Ce5 Ge7 3.122089 1_555
Ce5 Ge7 3.122089 1_655
Ce5 Ge2 3.157484 1_556
Ce5 Ge5 3.483422 1_555
Ce6 Co0 2.808475 1_555
Ce6 Co0 2.808475 1_655
Ce6 Ge2 2.998463 1_555
Ce6 Ge4 3.122089 1_545
Ce6 Ge4 3.122089 1_645
Ce6 Ge1 3.157484 1_555
Ce6 Ge6 3.483422 1_555
Ce7 Co1 2.808475 1_455
Ce7 Co1 2.808475 1_555
Ce7 Ge3 2.998463 1_555
Ce7 Ge5 3.122089 1_565
Ce7 Ge5 3.122089 1_465
Ce7 Ge0 3.157484 1_555
Ce7 Ge7 3.483422 1_555
Ce8 Co2 2.978260 1_455
Ce8 Co2 2.978260 1_555
Ce8 Ge0 3.003935 1_555
Ce8 Ge1 3.037388 1_555
Ce8 Ge1 3.037388 1_455
Ce8 Co3 3.038433 1_555
Ce8 Ge6 3.067746 1_555
Ce8 Ge6 3.067746 1_455
Ce9 Co3 2.978260 1_555
Ce9 Co3 2.978260 1_655
Ce9 Ge1 3.003935 1_555
Ce9 Ge0 3.037388 1_655
Ce9 Ge0 3.037388 1_555
Ce9 Co2 3.038433 1_555
Ce9 Ge7 3.067746 1_555
Ce9 Ge7 3.067746 1_655
Ce10 Co0 2.978260 1_665
Ce10 Co0 2.978260 1_565
Ce10 Ge2 3.003935 1_565
Ce10 Ge3 3.037388 1_654
Ce10 Ge3 3.037388 1_554
Ce10 Co1 3.038433 1_554
Ce10 Ge4 3.067746 1_655
Ce10 Ge4 3.067746 1_555
Ce11 Co1 2.978260 1_445
Ce11 Co1 2.978260 1_545
Ce11 Ge3 3.003935 1_545
Ce11 Ge2 3.037388 1_556
Ce11 Ge2 3.037388 1_456
Ce11 Co0 3.038433 1_556
Ce11 Ge5 3.067746 1_455
Ce11 Ge5 3.067746 1_555
Co0 Ge4 2.514312 1_545
Co0 Ge2 2.539723 1_455
Co0 Ge2 2.539723 1_555
Co1 Ge5 2.514312 1_565
Co1 Ge3 2.539723 1_655
Co1 Ge3 2.539723 1_555
Co2 Ge6 2.514312 1_555
Co2 Ge0 2.539723 1_655
Co2 Ge0 2.539723 1_555
Co3 Ge7 2.514312 1_555
Co3 Ge1 2.539723 1_455
Co3 Ge1 2.539723 1_555
