# generated using pymatgen
data_La4(CoB2)3
_symmetry_space_group_name_H-M   'P 1'
_cell_length_a   5.34710400
_cell_length_b   5.35066558
_cell_length_c   8.28335245
_cell_angle_alpha   71.30313731
_cell_angle_beta   71.16995421
_cell_angle_gamma   60.02201651
_symmetry_Int_Tables_number   1
_chemical_formula_structural   La4(CoB2)3
_chemical_formula_sum   'La4 Co3 B6'
_cell_volume   190.59678805
_cell_formula_units_Z   1
loop_
 _symmetry_equiv_pos_site_id
 _symmetry_equiv_pos_as_xyz
  1  'x, y, z'
loop_
 _atom_site_type_symbol
 _atom_site_label
 _atom_site_symmetry_multiplicity
 _atom_site_fract_x
 _atom_site_fract_y
 _atom_site_fract_z
 _atom_site_occupancy
  La  La0  1  0.25870400  0.25541500  0.22717800  1
  La  La1  1  0.74129600  0.74458500  0.77282200  1
  La  La2  1  0.40874800  0.40952000  0.77298400  1
  La  La3  1  0.59125200  0.59048000  0.22701600  1
  Co  Co0  1  0.00000000  0.00000000  0.00000000  1
  Co  Co1  1  0.11540200  0.11698800  0.65220700  1
  Co  Co2  1  0.88459800  0.88301200  0.34779300  1
  B  B0  1  0.83238300  0.50000000  0.50000000  1
  B  B1  1  0.50009800  0.16755700  0.50008600  1
  B  B2  1  0.16774100  0.83244300  0.49991400  1
  B  B3  1  0.49990200  0.83244300  0.49991400  1
  B  B4  1  0.83225900  0.16755700  0.50008600  1
  B  B5  1  0.16761700  0.50000000  0.50000000  1
loop_
_geom_bond_atom_site_label_1
_geom_bond_atom_site_label_2
_geom_bond_distance
_geom_bond_site_symmetry_2
La0 La3 3.082114 1_545
La0 La3 3.091735 1_555
La0 La3 3.091740 1_455
La0 La2 3.493112 1_554
La1 La2 3.082114 1_565
La1 La2 3.091735 1_555
La1 La2 3.091740 1_655
La1 La3 3.493112 1_556
Co0 Co2 2.674778 1_445
Co0 Co1 2.674778 1_554
Co0 La1 3.541301 1_544
Co0 La0 3.541301 1_455
Co0 La0 3.541305 1_555
Co0 La1 3.541305 1_444
Co0 La2 3.542657 1_544
Co0 La3 3.542657 1_455
Co0 La3 3.550432 1_545
Co0 La2 3.550432 1_454
Co0 La2 3.550432 1_554
Co0 La3 3.550432 1_445
Co0 La1 3.562791 1_454
Co0 La0 3.562791 1_545
Co1 La2 3.222055 1_455
Co1 La2 3.222060 1_555
Co1 La1 3.222893 1_445
Co1 La1 3.222893 1_545
Co1 La1 3.228656 1_455
Co1 La2 3.231406 1_545
Co2 La3 3.222055 1_655
Co2 La3 3.222060 1_555
Co2 La0 3.222893 1_565
Co2 La0 3.222893 1_665
Co2 La0 3.228656 1_655
Co2 La3 3.231406 1_565
B0 B3 1.778894 1_555
B0 B4 1.778894 1_555
B0 B5 1.792531 1_655
B0 Co1 2.134353 1_655
B0 Co2 2.134356 1_555
B0 La2 2.750695 1_555
B0 La3 2.750695 1_555
B0 La1 2.757821 1_555
B0 La0 2.757823 1_655
B1 B4 1.776099 1_555
B1 B5 1.778894 1_555
B1 B3 1.794064 1_545
B1 Co1 2.134647 1_555
B1 Co2 2.136676 1_545
B1 La2 2.748859 1_555
B1 La1 2.752295 1_545
B1 La3 2.753841 1_555
B1 La0 2.755575 1_555
B2 B3 1.776099 1_555
B2 B5 1.778894 1_555
B2 B4 1.794064 1_465
B2 Co2 2.134642 1_455
B2 Co1 2.136673 1_565
B2 La3 2.748859 1_555
B2 La0 2.752297 1_565
B2 La2 2.753841 1_555
B2 La1 2.755578 1_455
B3 Co2 2.134647 1_555
B3 Co1 2.136676 1_565
B3 La3 2.748859 1_555
B3 La0 2.752295 1_565
B3 La2 2.753841 1_555
B3 La1 2.755575 1_555
B4 Co1 2.134642 1_655
B4 Co2 2.136673 1_545
B4 La2 2.748859 1_555
B4 La1 2.752297 1_545
B4 La3 2.753841 1_555
B4 La0 2.755578 1_655
B5 Co2 2.134353 1_455
B5 Co1 2.134356 1_555
B5 La3 2.750695 1_555
B5 La2 2.750695 1_555
B5 La0 2.757821 1_555
B5 La1 2.757823 1_455
