# generated using pymatgen
data_ZnCu2(TeO4)2
_symmetry_space_group_name_H-M   'P 1'
_cell_length_a   6.51780291
_cell_length_b   8.60304500
_cell_length_c   13.20673384
_cell_angle_alpha   90.00000000
_cell_angle_beta   95.22205217
_cell_angle_gamma   90.00000000
_symmetry_Int_Tables_number   1
_chemical_formula_structural   ZnCu2(TeO4)2
_chemical_formula_sum   'Zn4 Cu8 Te8 O32'
_cell_volume   737.46689203
_cell_formula_units_Z   4
loop_
 _symmetry_equiv_pos_site_id
 _symmetry_equiv_pos_as_xyz
  1  'x, y, z'
loop_
 _atom_site_type_symbol
 _atom_site_label
 _atom_site_symmetry_multiplicity
 _atom_site_fract_x
 _atom_site_fract_y
 _atom_site_fract_z
 _atom_site_occupancy
  Zn  Zn0  1  0.11209700  0.14542200  0.04531800  1
  Zn  Zn1  1  0.88790300  0.85457800  0.95468200  1
  Zn  Zn2  1  0.88790300  0.64542200  0.45468200  1
  Zn  Zn3  1  0.11209700  0.35457800  0.54531800  1
  Cu  Cu0  1  0.73393000  0.18781000  0.88228900  1
  Cu  Cu1  1  0.38043500  0.06174800  0.62632500  1
  Cu  Cu2  1  0.61956500  0.93825200  0.37367500  1
  Cu  Cu3  1  0.26607000  0.81219000  0.11771100  1
  Cu  Cu4  1  0.73393000  0.31219000  0.38228900  1
  Cu  Cu5  1  0.38043500  0.43825200  0.12632500  1
  Cu  Cu6  1  0.26607000  0.68781000  0.61771100  1
  Cu  Cu7  1  0.61956500  0.56174800  0.87367500  1
  Te  Te0  1  0.08986300  0.45205400  0.84356000  1
  Te  Te1  1  0.08986300  0.04794600  0.34356000  1
  Te  Te2  1  0.64599800  0.11077600  0.14045300  1
  Te  Te3  1  0.91013700  0.95205400  0.65644000  1
  Te  Te4  1  0.35400200  0.88922400  0.85954700  1
  Te  Te5  1  0.35400200  0.61077600  0.35954700  1
  Te  Te6  1  0.64599800  0.38922400  0.64045300  1
  Te  Te7  1  0.91013700  0.54794600  0.15644000  1
  O  O0  1  0.02912900  0.24279500  0.40079300  1
  O  O1  1  0.65936800  0.02256700  0.59297300  1
  O  O2  1  0.19233200  0.57225200  0.49285400  1
  O  O3  1  0.80766800  0.07225100  0.00714600  1
  O  O4  1  0.02912900  0.25720500  0.90079300  1
  O  O5  1  0.97087100  0.75720500  0.59920700  1
  O  O6  1  0.08430800  0.10822400  0.61040600  1
  O  O7  1  0.53467600  0.91032000  0.14927800  1
  O  O8  1  0.53467600  0.58968000  0.64927800  1
  O  O9  1  0.32834900  0.87365100  0.69629200  1
  O  O10  1  0.67165100  0.37365100  0.80370800  1
  O  O11  1  0.46532400  0.08968000  0.85072200  1
  O  O12  1  0.91569200  0.89177600  0.38959400  1
  O  O13  1  0.90710800  0.54230500  0.29664700  1
  O  O14  1  0.39820500  0.28043500  0.58628500  1
  O  O15  1  0.39820500  0.21956500  0.08628500  1
  O  O16  1  0.09289200  0.04230500  0.20335300  1
  O  O17  1  0.46532400  0.41032000  0.35072200  1
  O  O18  1  0.09289200  0.45769500  0.70335300  1
  O  O19  1  0.80766800  0.42774800  0.50714600  1
  O  O20  1  0.65936800  0.47743300  0.09297300  1
  O  O21  1  0.67165100  0.12634900  0.30370800  1
  O  O22  1  0.97087100  0.74279500  0.09920700  1
  O  O23  1  0.08430800  0.39177600  0.11040600  1
  O  O24  1  0.19233200  0.92774800  0.99285400  1
  O  O25  1  0.60179500  0.78043500  0.91371500  1
  O  O26  1  0.34063200  0.97743300  0.40702700  1
  O  O27  1  0.34063200  0.52256700  0.90702700  1
  O  O28  1  0.91569200  0.60822400  0.88959400  1
  O  O29  1  0.60179500  0.71956500  0.41371500  1
  O  O30  1  0.32834900  0.62634900  0.19629200  1
  O  O31  1  0.90710800  0.95769500  0.79664700  1
loop_
_geom_bond_atom_site_label_1
_geom_bond_atom_site_label_2
_geom_bond_distance
_geom_bond_site_symmetry_2
Cu0 O10 1.929060 1_555
Cu0 O3 1.947851 1_556
Cu0 O11 1.954142 1_555
Cu0 O4 2.008112 1_655
Cu0 O31 2.589381 1_545
Cu1 O9 1.909133 1_545
Cu1 O1 1.938721 1_555
Cu1 O14 1.960551 1_555
Cu1 O6 1.963537 1_555
Cu2 O21 1.909133 1_565
Cu2 O26 1.938721 1_555
Cu2 O29 1.960551 1_555
Cu2 O12 1.963537 1_555
Cu3 O30 1.929060 1_555
Cu3 O24 1.947847 1_554
Cu3 O7 1.954142 1_555
Cu3 O22 2.008112 1_455
Cu3 O16 2.589381 1_565
Cu4 O21 1.929060 1_555
Cu4 O19 1.947847 1_555
Cu4 O17 1.954142 1_555
Cu4 O0 2.008112 1_655
Cu4 O13 2.589381 1_555
Cu5 O30 1.909133 1_555
Cu5 O20 1.938721 1_555
Cu5 O15 1.960551 1_555
Cu5 O23 1.963537 1_555
Cu6 O9 1.929060 1_555
Cu6 O2 1.947847 1_555
Cu6 O8 1.954142 1_555
Cu6 O5 2.008112 1_455
Cu6 O18 2.589381 1_555
Cu7 O10 1.909133 1_555
Cu7 O27 1.938721 1_555
Cu7 O25 1.960551 1_555
Cu7 O28 1.963537 1_555
O0 Te1 1.895377 1_555
O0 Zn3 2.161599 1_555
O1 Te3 1.868863 1_545
O2 Zn3 2.079994 1_555
O2 Zn2 2.098903 1_455
O2 Te5 2.158108 1_555
O3 Zn1 2.079986 1_544
O3 Zn0 2.098905 1_655
O3 Te2 2.158109 1_555
O4 Te0 1.895377 1_555
O4 Zn0 2.161599 1_556
O5 Te3 1.895377 1_555
O5 Zn2 2.161599 1_555
O6 Te3 1.894478 1_445
O6 Zn3 2.300411 1_555
O7 Te2 1.878682 1_565
O8 Te6 1.878682 1_555
O9 Te4 2.151488 1_555
O10 Te6 2.151488 1_555
O11 Te4 1.878682 1_545
O12 Te1 1.894478 1_665
O12 Zn2 2.300411 1_555
O13 Te7 1.854213 1_555
O13 Zn2 2.281733 1_555
O14 Te6 1.945722 1_555
O14 Zn3 1.998347 1_555
O15 Te2 1.945722 1_555
O15 Zn0 1.998347 1_555
O16 Te1 1.854213 1_555
O16 Zn0 2.281733 1_555
O17 Te5 1.878682 1_555
O18 Te0 1.854213 1_555
O18 Zn3 2.281733 1_555
O19 Zn2 2.079994 1_555
O19 Zn3 2.098903 1_655
O19 Te6 2.158108 1_555
O20 Te7 1.868863 1_555
O21 Te2 2.151488 1_555
O22 Te7 1.895377 1_555
O22 Zn1 2.161599 1_554
O23 Te7 1.894478 1_455
O23 Zn0 2.300411 1_555
O24 Zn0 2.079994 1_566
O24 Zn1 2.098903 1_455
O24 Te4 2.158108 1_555
O25 Te4 1.945722 1_555
O25 Zn1 1.998347 1_555
O26 Te1 1.868863 1_565
O27 Te0 1.868863 1_555
O28 Te0 1.894478 1_655
O28 Zn1 2.300411 1_555
O29 Te5 1.945722 1_555
O29 Zn2 1.998347 1_555
O30 Te5 2.151488 1_555
O31 Te3 1.854213 1_555
O31 Zn1 2.281733 1_555
