# generated using pymatgen
data_KGdHf2O6
_symmetry_space_group_name_H-M   'P 1'
_cell_length_a   5.76041280
_cell_length_b   5.76041426
_cell_length_c   5.76041458
_cell_angle_alpha   59.99997775
_cell_angle_beta   60.00001726
_cell_angle_gamma   60.00000467
_symmetry_Int_Tables_number   1
_chemical_formula_structural   KGdHf2O6
_chemical_formula_sum   'K1 Gd1 Hf2 O6'
_cell_volume   135.15934097
_cell_formula_units_Z   1
loop_
 _symmetry_equiv_pos_site_id
 _symmetry_equiv_pos_as_xyz
  1  'x, y, z'
loop_
 _atom_site_type_symbol
 _atom_site_label
 _atom_site_symmetry_multiplicity
 _atom_site_fract_x
 _atom_site_fract_y
 _atom_site_fract_z
 _atom_site_occupancy
  K  K0  1  0.50000000  0.50000000  0.50000000  1
  Gd  Gd0  1  0.00000000  -0.00000000  0.00000000  1
  Hf  Hf0  1  0.25000010  0.24999979  0.24999984  1
  Hf  Hf1  1  0.74999990  0.75000021  0.75000016  1
  O  O0  1  0.00000000  -0.00000000  0.50000000  1
  O  O1  1  0.50000000  0.50000000  0.00000000  1
  O  O2  1  0.00000000  0.50000000  0.50000000  1
  O  O3  1  0.50000000  -0.00000000  0.00000000  1
  O  O4  1  0.00000000  0.50000000  0.00000000  1
  O  O5  1  0.50000000  -0.00000000  0.50000000  1
loop_
_geom_bond_atom_site_label_1
_geom_bond_atom_site_label_2
_geom_bond_distance
_geom_bond_site_symmetry_2
K0 O3 2.880206 1_556
K0 O3 2.880206 1_565
K0 O2 2.880206 1_655
K0 O2 2.880206 1_555
K0 O0 2.880207 1_565
K0 O0 2.880207 1_655
K0 O5 2.880207 1_555
K0 O5 2.880207 1_565
K0 O1 2.880207 1_555
K0 O1 2.880207 1_556
K0 O4 2.880208 1_655
K0 O4 2.880208 1_556
Gd0 O2 2.880206 1_554
Gd0 O2 2.880206 1_545
Gd0 O3 2.880206 1_455
Gd0 O3 2.880206 1_555
Gd0 O1 2.880207 1_455
Gd0 O1 2.880207 1_545
Gd0 O4 2.880207 1_545
Gd0 O4 2.880207 1_555
Gd0 O0 2.880207 1_554
Gd0 O0 2.880207 1_555
Gd0 O5 2.880208 1_554
Gd0 O5 2.880208 1_455
Hf0 O4 2.036613 1_555
Hf0 O0 2.036613 1_555
Hf0 O3 2.036613 1_555
Hf0 O5 2.036613 1_555
Hf0 O1 2.036614 1_555
Hf0 O2 2.036616 1_555
Hf1 O4 2.036613 1_656
Hf1 O0 2.036613 1_665
Hf1 O3 2.036613 1_566
Hf1 O5 2.036613 1_565
Hf1 O1 2.036614 1_556
Hf1 O2 2.036616 1_655
