# generated using pymatgen
data_K2CN2
_symmetry_space_group_name_H-M   'P 1'
_cell_length_a   4.04809794
_cell_length_b   4.04809783
_cell_length_c   5.77078314
_cell_angle_alpha   76.95677338
_cell_angle_beta   76.95678104
_cell_angle_gamma   89.07626391
_symmetry_Int_Tables_number   1
_chemical_formula_structural   K2CN2
_chemical_formula_sum   'K2 C1 N2'
_cell_volume   89.68931949
_cell_formula_units_Z   1
loop_
 _symmetry_equiv_pos_site_id
 _symmetry_equiv_pos_as_xyz
  1  'x, y, z'
loop_
 _atom_site_type_symbol
 _atom_site_label
 _atom_site_symmetry_multiplicity
 _atom_site_fract_x
 _atom_site_fract_y
 _atom_site_fract_z
 _atom_site_occupancy
  K  K0  1  0.67396174  0.67396174  0.71212393  1
  K  K1  1  0.32603826  0.32603826  0.28787607  1
  C  C0  1  -0.00000000  -0.00000000  0.00000000  1
  N  N0  1  0.84290955  0.84290955  0.20420337  1
  N  N1  1  0.15709045  0.15709045  0.79579663  1
loop_
_geom_bond_atom_site_label_1
_geom_bond_atom_site_label_2
_geom_bond_distance
_geom_bond_site_symmetry_2
K0 N0 2.780691 1_555
K0 N1 2.866720 1_555
K0 N1 2.876511 1_655
K0 N1 2.876511 1_565
K0 N1 2.976394 1_665
K1 N1 2.780691 1_555
K1 N0 2.866720 1_555
K1 N0 2.876511 1_455
K1 N0 2.876511 1_545
K1 N0 2.976394 1_445
C0 N1 1.238542 1_554
C0 N0 1.238542 1_445
C0 K1 2.877372 1_555
C0 K0 2.877372 1_444
