# generated using pymatgen
data_Mn2Fe4SiGe
_symmetry_space_group_name_H-M   'P 1'
_cell_length_a   6.92924033
_cell_length_b   6.92924033
_cell_length_c   6.92923962
_cell_angle_alpha   33.49742506
_cell_angle_beta   33.49742506
_cell_angle_gamma   33.49742321
_symmetry_Int_Tables_number   1
_chemical_formula_structural   Mn2Fe4SiGe
_chemical_formula_sum   'Mn2 Fe4 Si1 Ge1'
_cell_volume   90.25619633
_cell_formula_units_Z   1
loop_
 _symmetry_equiv_pos_site_id
 _symmetry_equiv_pos_as_xyz
  1  'x, y, z'
loop_
 _atom_site_type_symbol
 _atom_site_label
 _atom_site_symmetry_multiplicity
 _atom_site_fract_x
 _atom_site_fract_y
 _atom_site_fract_z
 _atom_site_occupancy
  Mn  Mn0  1  0.25001600  0.25001600  0.25001600  1
  Mn  Mn1  1  0.74998400  0.74998400  0.74998400  1
  Fe  Fe0  1  0.87256900  0.87256900  0.87256900  1
  Fe  Fe1  1  0.37824800  0.37824800  0.37824800  1
  Fe  Fe2  1  0.12743100  0.12743100  0.12743100  1
  Fe  Fe3  1  0.62175200  0.62175200  0.62175200  1
  Si  Si0  1  0.50000000  0.50000000  0.50000000  1
  Ge  Ge0  1  0.00000000  0.00000000  0.00000000  1
loop_
_geom_bond_atom_site_label_1
_geom_bond_atom_site_label_2
_geom_bond_distance
_geom_bond_site_symmetry_2
Mn0 Si0 2.825968 1_554
Mn0 Si0 2.825968 1_455
Mn0 Si0 2.825968 1_545
Mn1 Si0 2.825968 1_556
Mn1 Si0 2.825968 1_655
Mn1 Si0 2.825968 1_565
Fe0 Mn1 2.403045 1_555
Fe0 Si0 2.430643 1_655
Fe0 Si0 2.430643 1_565
Fe0 Si0 2.430644 1_556
Fe0 Mn0 2.462573 1_566
Fe0 Mn0 2.462573 1_656
Fe0 Mn0 2.462574 1_665
Fe0 Ge0 2.498042 1_666
Fe1 Si0 2.386716 1_555
Fe1 Mn1 2.425526 1_545
Fe1 Mn1 2.425526 1_455
Fe1 Mn1 2.425526 1_554
Fe1 Ge0 2.468131 1_565
Fe1 Ge0 2.468131 1_655
Fe1 Ge0 2.468131 1_556
Fe1 Mn0 2.513744 1_555
Fe2 Mn0 2.403045 1_555
Fe2 Si0 2.430643 1_545
Fe2 Si0 2.430643 1_455
Fe2 Si0 2.430644 1_554
Fe2 Mn1 2.462573 1_544
Fe2 Mn1 2.462573 1_454
Fe2 Mn1 2.462574 1_445
Fe2 Ge0 2.498042 1_555
Fe3 Si0 2.386716 1_555
Fe3 Mn0 2.425526 1_565
Fe3 Mn0 2.425526 1_655
Fe3 Mn0 2.425526 1_556
Fe3 Ge0 2.468131 1_656
Fe3 Ge0 2.468131 1_566
Fe3 Ge0 2.468131 1_665
Fe3 Mn1 2.513744 1_555
Ge0 Mn1 2.825605 1_445
Ge0 Mn0 2.825605 1_554
Ge0 Mn1 2.825606 1_454
Ge0 Mn0 2.825606 1_545
Ge0 Mn1 2.825606 1_544
Ge0 Mn0 2.825606 1_455
