# generated using pymatgen
data_Pb(SeO3)2
_symmetry_space_group_name_H-M   'P 1'
_cell_length_a   5.48392400
_cell_length_b   6.44990700
_cell_length_c   15.08153000
_cell_angle_alpha   90.00000000
_cell_angle_beta   90.00000000
_cell_angle_gamma   90.00000000
_symmetry_Int_Tables_number   1
_chemical_formula_structural   Pb(SeO3)2
_chemical_formula_sum   'Pb4 Se8 O24'
_cell_volume   533.44577823
_cell_formula_units_Z   4
loop_
 _symmetry_equiv_pos_site_id
 _symmetry_equiv_pos_as_xyz
  1  'x, y, z'
loop_
 _atom_site_type_symbol
 _atom_site_label
 _atom_site_symmetry_multiplicity
 _atom_site_fract_x
 _atom_site_fract_y
 _atom_site_fract_z
 _atom_site_occupancy
  Pb  Pb0  1  0.75000000  0.19351100  0.50000000  1
  Pb  Pb1  1  0.25000000  0.30648900  0.00000000  1
  Pb  Pb2  1  0.25000000  0.80648900  0.50000000  1
  Pb  Pb3  1  0.75000000  0.69351100  0.00000000  1
  Se  Se0  1  0.25069400  0.27235300  0.65522700  1
  Se  Se1  1  0.75069400  0.22764700  0.84477300  1
  Se  Se2  1  0.74930600  0.22764700  0.15522700  1
  Se  Se3  1  0.24930600  0.27235300  0.34477300  1
  Se  Se4  1  0.74930600  0.72764700  0.34477300  1
  Se  Se5  1  0.24930600  0.77235300  0.15522700  1
  Se  Se6  1  0.25069400  0.77235300  0.84477300  1
  Se  Se7  1  0.75069400  0.72764700  0.65522700  1
  O  O0  1  0.09186000  0.09784000  0.57792600  1
  O  O1  1  0.59186000  0.40216000  0.92207400  1
  O  O2  1  0.90814000  0.40216000  0.07792600  1
  O  O3  1  0.40814000  0.09784000  0.42207400  1
  O  O4  1  0.90814000  0.90216000  0.42207400  1
  O  O5  1  0.40814000  0.59784000  0.07792600  1
  O  O6  1  0.09186000  0.59784000  0.92207400  1
  O  O7  1  0.59186000  0.90216000  0.57792600  1
  O  O8  1  0.48776900  0.37004200  0.58433900  1
  O  O9  1  0.98776900  0.12995800  0.91566100  1
  O  O10  1  0.51223100  0.12995800  0.08433900  1
  O  O11  1  0.01223100  0.37004200  0.41566100  1
  O  O12  1  0.51223100  0.62995800  0.41566100  1
  O  O13  1  0.01223100  0.87004200  0.08433900  1
  O  O14  1  0.48776900  0.87004200  0.91566100  1
  O  O15  1  0.98776900  0.62995800  0.58433900  1
  O  O16  1  0.37451900  0.11107200  0.72658500  1
  O  O17  1  0.87451900  0.38892800  0.77341500  1
  O  O18  1  0.62548100  0.38892800  0.22658500  1
  O  O19  1  0.12548100  0.11107200  0.27341500  1
  O  O20  1  0.62548100  0.88892800  0.27341500  1
  O  O21  1  0.12548100  0.61107200  0.22658500  1
  O  O22  1  0.37451900  0.61107200  0.77341500  1
  O  O23  1  0.87451900  0.88892800  0.72658500  1
loop_
_geom_bond_atom_site_label_1
_geom_bond_atom_site_label_2
_geom_bond_distance
_geom_bond_site_symmetry_2
O0 Se0 1.839779 1_555
O0 Pb0 2.297085 1_455
O0 Pb2 2.380047 1_545
O1 Se1 1.839779 1_555
O1 Pb1 2.297085 1_556
O1 Pb3 2.380047 1_556
O2 Se2 1.839779 1_555
O2 Pb1 2.297085 1_655
O2 Pb3 2.380047 1_555
O3 Se3 1.839779 1_555
O3 Pb0 2.297085 1_555
O3 Pb2 2.380047 1_545
O4 Se4 1.839779 1_555
O4 Pb2 2.297085 1_655
O4 Pb0 2.380047 1_565
O5 Se5 1.839779 1_555
O5 Pb3 2.297085 1_555
O5 Pb1 2.380047 1_555
O6 Se6 1.839779 1_555
O6 Pb3 2.297085 1_456
O6 Pb1 2.380047 1_556
O7 Se7 1.839779 1_555
O7 Pb2 2.297085 1_555
O7 Pb0 2.380047 1_565
O8 Se0 1.797288 1_555
O8 Pb0 2.232110 1_555
O9 Se1 1.797288 1_555
O9 Pb1 2.232110 1_656
O10 Se2 1.797288 1_555
O10 Pb1 2.232110 1_555
O11 Se3 1.797288 1_555
O11 Pb0 2.232110 1_455
O12 Se4 1.797288 1_555
O12 Pb2 2.232110 1_555
O13 Se5 1.797288 1_555
O13 Pb3 2.232110 1_455
O14 Se6 1.797288 1_555
O14 Pb3 2.232110 1_556
O15 Se7 1.797288 1_555
O15 Pb2 2.232110 1_655
O16 Se0 1.643594 1_555
O17 Se1 1.643594 1_555
O18 Se2 1.643594 1_555
O19 Se3 1.643594 1_555
O20 Se4 1.643594 1_555
O21 Se5 1.643594 1_555
O22 Se6 1.643594 1_555
O23 Se7 1.643594 1_555
