# generated using pymatgen
data_Sm2Fe2Si2C
_symmetry_space_group_name_H-M   'P 1'
_cell_length_a   5.71307106
_cell_length_b   5.71307106
_cell_length_c   6.88657994
_cell_angle_alpha   53.72743626
_cell_angle_beta   53.72743626
_cell_angle_gamma   40.74423946
_symmetry_Int_Tables_number   1
_chemical_formula_structural   Sm2Fe2Si2C
_chemical_formula_sum   'Sm2 Fe2 Si2 C1'
_cell_volume   113.79925044
_cell_formula_units_Z   1
loop_
 _symmetry_equiv_pos_site_id
 _symmetry_equiv_pos_as_xyz
  1  'x, y, z'
loop_
 _atom_site_type_symbol
 _atom_site_label
 _atom_site_symmetry_multiplicity
 _atom_site_fract_x
 _atom_site_fract_y
 _atom_site_fract_z
 _atom_site_occupancy
  Sm  Sm0  1  0.44046200  0.44046200  0.29737800  1
  Sm  Sm1  1  0.55953800  0.55953800  0.70262200  1
  Fe  Fe0  1  0.80190100  0.80190100  0.09111100  1
  Fe  Fe1  1  0.19809900  0.19809900  0.90888900  1
  Si  Si0  1  0.83036800  0.83036800  0.72972500  1
  Si  Si1  1  0.16963200  0.16963200  0.27027500  1
  C  C0  1  0.00000000  0.00000000  0.00000000  1
loop_
_geom_bond_atom_site_label_1
_geom_bond_atom_site_label_2
_geom_bond_distance
_geom_bond_site_symmetry_2
Fe0 Si1 2.297514 1_655
Fe0 Si1 2.297514 1_565
Fe0 Si0 2.308426 1_554
Fe1 Si0 2.297514 1_455
Fe1 Si0 2.297514 1_545
Fe1 Si1 2.308426 1_556
Si0 Sm1 3.022246 1_555
Si0 Sm1 3.072079 1_565
Si0 Sm1 3.072079 1_655
Si0 Sm0 3.127160 1_655
Si0 Sm0 3.127160 1_565
Si1 Sm0 3.022246 1_555
Si1 Sm0 3.072079 1_545
Si1 Sm0 3.072079 1_455
Si1 Sm1 3.127160 1_545
Si1 Sm1 3.127160 1_455
C0 Fe1 1.793260 1_554
C0 Fe0 1.793260 1_445
C0 Sm0 2.628224 1_455
C0 Sm0 2.628224 1_545
C0 Sm1 2.628224 1_454
C0 Sm1 2.628224 1_544
