# generated using pymatgen
data_Na4Eu2SiP4
_symmetry_space_group_name_H-M   'P 1'
_cell_length_a   9.27588746
_cell_length_b   9.27588746
_cell_length_c   7.11688248
_cell_angle_alpha   89.36646217
_cell_angle_beta   89.36646217
_cell_angle_gamma   119.44215419
_symmetry_Int_Tables_number   1
_chemical_formula_structural   Na4Eu2SiP4
_chemical_formula_sum   'Na8 Eu4 Si2 P8'
_cell_volume   533.13947251
_cell_formula_units_Z   2
loop_
 _symmetry_equiv_pos_site_id
 _symmetry_equiv_pos_as_xyz
  1  'x, y, z'
loop_
 _atom_site_type_symbol
 _atom_site_label
 _atom_site_symmetry_multiplicity
 _atom_site_fract_x
 _atom_site_fract_y
 _atom_site_fract_z
 _atom_site_occupancy
  Na  Na0  1  0.05509800  0.52655400  0.61277600  1
  Na  Na1  1  0.52655400  0.05509800  0.11277600  1
  Na  Na2  1  0.27529500  0.13456600  0.80666200  1
  Na  Na3  1  0.86858600  0.71823500  0.78552100  1
  Na  Na4  1  0.86473400  0.14872500  0.79268500  1
  Na  Na5  1  0.71823500  0.86858600  0.28552100  1
  Na  Na6  1  0.13456600  0.27529500  0.30666200  1
  Na  Na7  1  0.14872500  0.86473400  0.29268500  1
  Eu  Eu0  1  0.47030900  0.94881100  0.61575200  1
  Eu  Eu1  1  0.46721300  0.51990600  0.61540400  1
  Eu  Eu2  1  0.94881100  0.47030900  0.11575200  1
  Eu  Eu3  1  0.51990600  0.46721300  0.11540400  1
  Si  Si0  1  0.67158700  0.33661100  0.49842600  1
  Si  Si1  1  0.33661100  0.67158700  0.99842600  1
  P  P0  1  0.60672800  0.79842200  0.88782800  1
  P  P1  1  0.19817100  0.39457700  0.90787100  1
  P  P2  1  0.19302500  0.79912300  0.89943100  1
  P  P3  1  0.39457700  0.19817100  0.40787100  1
  P  P4  1  0.79842200  0.60672800  0.38782800  1
  P  P5  1  0.79912300  0.19302500  0.39943100  1
  P  P6  1  0.66283900  0.34004400  0.82468100  1
  P  P7  1  0.34004400  0.66283900  0.32468100  1
loop_
_geom_bond_atom_site_label_1
_geom_bond_atom_site_label_2
_geom_bond_distance
_geom_bond_site_symmetry_2
Na0 P2 3.030344 1_555
Na0 P1 3.045092 1_555
Na0 P7 3.053869 1_555
Na0 Si0 3.218019 1_455
Na0 P5 3.236755 1_455
Na0 P4 3.253209 1_455
Na1 P5 3.030344 1_555
Na1 P3 3.045092 1_555
Na1 P6 3.053869 1_554
Na1 Si1 3.218019 1_544
Na1 P2 3.236755 1_544
Na1 P0 3.253209 1_544
Na2 P2 2.882530 1_545
Na2 P1 2.927593 1_555
Na2 P3 2.979794 1_555
Na2 P6 3.138745 1_555
Na3 P2 2.850366 1_655
Na3 P0 2.955038 1_555
Na3 P4 2.991303 1_555
Na3 P6 3.067770 1_555
Na4 P1 2.932941 1_655
Na4 P5 2.937738 1_555
Na4 P0 3.002497 1_545
Na4 P6 3.158363 1_555
Na5 P5 2.850366 1_565
Na5 P4 2.955038 1_555
Na5 P0 2.991303 1_554
Na5 P7 3.067770 1_555
Na6 P5 2.882530 1_455
Na6 P3 2.927593 1_555
Na6 P1 2.979794 1_554
Na6 P7 3.138745 1_555
Na7 P3 2.932941 1_565
Na7 P2 2.937738 1_554
Na7 P4 3.002497 1_455
Na7 P7 3.158363 1_555
Eu0 P2 2.988589 1_555
Eu0 P0 3.004409 1_555
Eu0 P3 3.094693 1_565
Eu0 P7 3.132663 1_555
Eu0 P5 3.135461 1_565
Eu1 P1 2.981849 1_555
Eu1 P7 2.993501 1_555
Eu1 P0 2.997927 1_555
Eu1 P3 3.112022 1_555
Eu1 P4 3.184223 1_555
Eu2 P5 2.988589 1_555
Eu2 P4 3.004409 1_555
Eu2 P1 3.094693 1_654
Eu2 P6 3.132663 1_554
Eu2 P2 3.135461 1_654
Eu3 P3 2.981849 1_555
Eu3 P6 2.993501 1_554
Eu3 P4 2.997927 1_555
Eu3 P1 3.112022 1_554
Eu3 P0 3.184223 1_554
P0 Si1 2.306416 1_555
P1 Si1 2.340483 1_555
P2 Si1 2.284976 1_555
P3 Si0 2.340483 1_555
P4 Si0 2.306416 1_555
P5 Si0 2.284976 1_555
P6 Si0 2.323556 1_555
P7 Si1 2.323556 1_554
