# generated using pymatgen
data_Nd5(MnB3)2
_symmetry_space_group_name_H-M   'P 1'
_cell_length_a   5.49634131
_cell_length_b   5.49634200
_cell_length_c   8.70374137
_cell_angle_alpha   71.59414862
_cell_angle_beta   71.59414942
_cell_angle_gamma   59.99999583
_symmetry_Int_Tables_number   1
_chemical_formula_structural   Nd5(MnB3)2
_chemical_formula_sum   'Nd5 Mn2 B6'
_cell_volume   212.03706473
_cell_formula_units_Z   1
loop_
 _symmetry_equiv_pos_site_id
 _symmetry_equiv_pos_as_xyz
  1  'x, y, z'
loop_
 _atom_site_type_symbol
 _atom_site_label
 _atom_site_symmetry_multiplicity
 _atom_site_fract_x
 _atom_site_fract_y
 _atom_site_fract_z
 _atom_site_occupancy
  Nd  Nd0  1  0.00000000  0.00000000  0.00000000  1
  Nd  Nd1  1  0.74904400  0.74904400  0.75286900  1
  Nd  Nd2  1  0.25095600  0.25095600  0.24713100  1
  Nd  Nd3  1  0.58285300  0.58285300  0.25144100  1
  Nd  Nd4  1  0.41714700  0.41714700  0.74855900  1
  Mn  Mn0  1  0.88104900  0.88104900  0.35685300  1
  Mn  Mn1  1  0.11895100  0.11895100  0.64314700  1
  B  B0  1  0.50000000  0.16412100  0.50000000  1
  B  B1  1  0.83587900  0.50000000  0.50000000  1
  B  B2  1  0.16412100  0.83587900  0.50000000  1
  B  B3  1  0.16412100  0.50000000  0.50000000  1
  B  B4  1  0.83587900  0.16412100  0.50000000  1
  B  B5  1  0.50000000  0.83587900  0.50000000  1
loop_
_geom_bond_atom_site_label_1
_geom_bond_atom_site_label_2
_geom_bond_distance
_geom_bond_site_symmetry_2
Mn0 Nd0 2.892165 1_665
Mn1 Nd0 2.892165 1_556
B0 B5 1.804130 1_545
B0 B4 1.846106 1_555
B0 B3 1.846106 1_555
B0 Mn1 2.162675 1_555
B0 Mn0 2.162675 1_545
B0 Nd4 2.732442 1_555
B0 Nd3 2.732442 1_555
B0 Nd1 2.744320 1_545
B0 Nd2 2.744322 1_555
B1 B3 1.804130 1_655
B1 B5 1.846106 1_555
B1 B4 1.846106 1_555
B1 Mn1 2.162675 1_655
B1 Mn0 2.162675 1_555
B1 Nd4 2.732442 1_555
B1 Nd3 2.732442 1_555
B1 Nd2 2.744320 1_655
B1 Nd1 2.744322 1_555
B2 B4 1.804130 1_465
B2 B5 1.846106 1_555
B2 B3 1.846106 1_555
B2 Mn0 2.162675 1_455
B2 Mn1 2.162675 1_565
B2 Nd4 2.732442 1_555
B2 Nd3 2.732442 1_555
B2 Nd1 2.744318 1_455
B2 Nd2 2.744318 1_565
B3 Mn0 2.162675 1_455
B3 Mn1 2.162675 1_555
B3 Nd4 2.732442 1_555
B3 Nd3 2.732442 1_555
B3 Nd1 2.744320 1_455
B3 Nd2 2.744322 1_555
B4 Mn1 2.162675 1_655
B4 Mn0 2.162675 1_545
B4 Nd4 2.732442 1_555
B4 Nd3 2.732442 1_555
B4 Nd2 2.744318 1_655
B4 Nd1 2.744318 1_545
B5 Mn0 2.162675 1_555
B5 Mn1 2.162675 1_565
B5 Nd4 2.732442 1_555
B5 Nd3 2.732442 1_555
B5 Nd2 2.744320 1_565
B5 Nd1 2.744322 1_555
