# generated using pymatgen
data_Al2Zn2S5
_symmetry_space_group_name_H-M   'P 1'
_cell_length_a   3.68078584
_cell_length_b   3.68078584
_cell_length_c   30.31018300
_cell_angle_alpha   90.00000000
_cell_angle_beta   90.00000000
_cell_angle_gamma   119.99999717
_symmetry_Int_Tables_number   1
_chemical_formula_structural   Al2Zn2S5
_chemical_formula_sum   'Al4 Zn4 S10'
_cell_volume   355.63156602
_cell_formula_units_Z   2
loop_
 _symmetry_equiv_pos_site_id
 _symmetry_equiv_pos_as_xyz
  1  'x, y, z'
loop_
 _atom_site_type_symbol
 _atom_site_label
 _atom_site_symmetry_multiplicity
 _atom_site_fract_x
 _atom_site_fract_y
 _atom_site_fract_z
 _atom_site_occupancy
  Al  Al0  1  0.33333300  0.66666700  0.91366500  1
  Al  Al1  1  0.66666700  0.33333300  0.08633500  1
  Al  Al2  1  0.66666700  0.33333300  0.41366500  1
  Al  Al3  1  0.33333300  0.66666700  0.58633500  1
  Zn  Zn0  1  0.00000000  0.00000000  0.79955000  1
  Zn  Zn1  1  0.00000000  0.00000000  0.20045000  1
  Zn  Zn2  1  0.00000000  0.00000000  0.29955000  1
  Zn  Zn3  1  0.00000000  0.00000000  0.70045000  1
  S  S0  1  0.33333300  0.66666700  0.25000000  1
  S  S1  1  0.66666700  0.33333300  0.75000000  1
  S  S2  1  0.33333300  0.66666700  0.84186500  1
  S  S3  1  0.66666700  0.33333300  0.15813500  1
  S  S4  1  0.66666700  0.33333300  0.34186500  1
  S  S5  1  0.33333300  0.66666700  0.65813500  1
  S  S6  1  0.66666700  0.33333300  0.94609800  1
  S  S7  1  0.33333300  0.66666700  0.05390200  1
  S  S8  1  0.33333300  0.66666700  0.44609800  1
  S  S9  1  0.66666700  0.33333300  0.55390200  1
loop_
_geom_bond_atom_site_label_1
_geom_bond_atom_site_label_2
_geom_bond_distance
_geom_bond_site_symmetry_2
Al0 S2 2.176271 1_555
Al0 S6 2.341461 1_455
Al0 S6 2.341461 1_565
Al0 S6 2.341467 1_555
Al1 S3 2.176271 1_555
Al1 S7 2.341461 1_545
Al1 S7 2.341461 1_655
Al1 S7 2.341467 1_555
Al2 S4 2.176271 1_555
Al2 S8 2.341461 1_545
Al2 S8 2.341461 1_655
Al2 S8 2.341467 1_555
Al3 S5 2.176271 1_555
Al3 S9 2.341461 1_455
Al3 S9 2.341461 1_565
Al3 S9 2.341467 1_555
S0 Zn1 2.602242 1_565
S0 Zn2 2.602242 1_565
S0 Zn1 2.602245 1_665
S0 Zn1 2.602245 1_555
S0 Zn2 2.602245 1_555
S0 Zn2 2.602245 1_665
S1 Zn3 2.602242 1_655
S1 Zn0 2.602242 1_655
S1 Zn3 2.602245 1_555
S1 Zn3 2.602245 1_665
S1 Zn0 2.602245 1_555
S1 Zn0 2.602245 1_665
S2 Zn0 2.482147 1_565
S2 Zn0 2.482149 1_555
S2 Zn0 2.482149 1_665
S3 Zn1 2.482147 1_655
S3 Zn1 2.482149 1_665
S3 Zn1 2.482149 1_555
S4 Zn2 2.482147 1_655
S4 Zn2 2.482149 1_665
S4 Zn2 2.482149 1_555
S5 Zn3 2.482147 1_565
S5 Zn3 2.482149 1_555
S5 Zn3 2.482149 1_665
