# generated using pymatgen
data_LiAl2BrO6
_symmetry_space_group_name_H-M   'P 1'
_cell_length_a   5.63188473
_cell_length_b   5.63188473
_cell_length_c   10.27482600
_cell_angle_alpha   90.00000000
_cell_angle_beta   90.00000000
_cell_angle_gamma   119.38313585
_symmetry_Int_Tables_number   1
_chemical_formula_structural   LiAl2BrO6
_chemical_formula_sum   'Li2 Al4 Br2 O12'
_cell_volume   283.97410892
_cell_formula_units_Z   2
loop_
 _symmetry_equiv_pos_site_id
 _symmetry_equiv_pos_as_xyz
  1  'x, y, z'
loop_
 _atom_site_type_symbol
 _atom_site_label
 _atom_site_symmetry_multiplicity
 _atom_site_fract_x
 _atom_site_fract_y
 _atom_site_fract_z
 _atom_site_occupancy
  Li  Li0  1  0.00000000  0.00000000  0.50000000  1
  Li  Li1  1  0.00000000  0.00000000  0.00000000  1
  Al  Al0  1  0.32734900  0.67265100  0.50000000  1
  Al  Al1  1  0.67265100  0.32734900  0.50000000  1
  Al  Al2  1  0.67265100  0.32734900  0.00000000  1
  Al  Al3  1  0.32734900  0.67265100  0.00000000  1
  Br  Br0  1  0.97048500  0.97048500  0.25000000  1
  Br  Br1  1  0.02951500  0.02951500  0.75000000  1
  O  O0  1  0.99976500  0.41120600  0.92792000  1
  O  O1  1  0.41120600  0.99976500  0.92792000  1
  O  O2  1  0.57266500  0.57266500  0.93139900  1
  O  O3  1  0.00023500  0.58879400  0.07208000  1
  O  O4  1  0.58879400  0.00023500  0.07208000  1
  O  O5  1  0.42733500  0.42733500  0.06860100  1
  O  O6  1  0.00023500  0.58879400  0.42792000  1
  O  O7  1  0.58879400  0.00023500  0.42792000  1
  O  O8  1  0.42733500  0.42733500  0.43139900  1
  O  O9  1  0.99976500  0.41120600  0.57208000  1
  O  O10  1  0.41120600  0.99976500  0.57208000  1
  O  O11  1  0.57266500  0.57266500  0.56860100  1
loop_
_geom_bond_atom_site_label_1
_geom_bond_atom_site_label_2
_geom_bond_distance
_geom_bond_site_symmetry_2
Li0 O6 2.432024 1_545
Li0 O9 2.432024 1_455
Li0 O10 2.432024 1_545
Li0 O7 2.432024 1_455
Li0 O11 2.529306 1_445
Li0 O8 2.529306 1_555
Li1 O3 2.432024 1_545
Li1 O1 2.432024 1_544
Li1 O0 2.432024 1_454
Li1 O4 2.432024 1_455
Li1 O5 2.529306 1_555
Li1 O2 2.529306 1_444
Al0 O6 1.819813 1_555
Al0 O10 1.819813 1_555
Al0 O7 1.858647 1_565
Al0 O9 1.858647 1_455
Al0 O8 1.867125 1_555
Al0 O11 1.867125 1_555
Al1 O7 1.819813 1_555
Al1 O9 1.819813 1_555
Al1 O6 1.858647 1_655
Al1 O10 1.858647 1_545
Al1 O8 1.867125 1_555
Al1 O11 1.867125 1_555
Al2 O4 1.819813 1_555
Al2 O0 1.819813 1_554
Al2 O3 1.858647 1_655
Al2 O1 1.858647 1_544
Al2 O5 1.867125 1_555
Al2 O2 1.867125 1_554
Al3 O1 1.819813 1_554
Al3 O3 1.819813 1_555
Al3 O4 1.858647 1_565
Al3 O0 1.858647 1_454
Al3 O5 1.867125 1_555
Al3 O2 1.867125 1_554
Br0 Li1 2.574180 1_665
Br0 Li0 2.574180 1_665
Br1 Li1 2.574180 1_556
Br1 Li0 2.574180 1_555
O2 O5 1.633944 1_556
O11 O8 1.633944 1_555
