# generated using pymatgen
data_CaMnF6
_symmetry_space_group_name_H-M   'P 1'
_cell_length_a   5.56835007
_cell_length_b   5.56835238
_cell_length_c   5.56835017
_cell_angle_alpha   56.14954558
_cell_angle_beta   56.14950924
_cell_angle_gamma   56.14954810
_symmetry_Int_Tables_number   1
_chemical_formula_structural   CaMnF6
_chemical_formula_sum   'Ca1 Mn1 F6'
_cell_volume   111.20256930
_cell_formula_units_Z   1
loop_
 _symmetry_equiv_pos_site_id
 _symmetry_equiv_pos_as_xyz
  1  'x, y, z'
loop_
 _atom_site_type_symbol
 _atom_site_label
 _atom_site_symmetry_multiplicity
 _atom_site_fract_x
 _atom_site_fract_y
 _atom_site_fract_z
 _atom_site_occupancy
  Ca  Ca0  1  0.50000000  0.50000000  0.50000000  1
  Mn  Mn0  1  0.00000000  -0.00000000  -0.00000000  1
  F  F0  1  0.64780794  0.91679520  0.21121655  1
  F  F1  1  0.91679520  0.21121655  0.64780794  1
  F  F2  1  0.78878445  0.35219206  0.08320480  1
  F  F3  1  0.08320480  0.78878345  0.35219206  1
  F  F4  1  0.35219206  0.08320480  0.78878345  1
  F  F5  1  0.21121555  0.64780794  0.91679520  1
loop_
_geom_bond_atom_site_label_1
_geom_bond_atom_site_label_2
_geom_bond_distance
_geom_bond_site_symmetry_2
Ca0 F5 2.268369 1_555
Ca0 F2 2.268369 1_555
Ca0 F0 2.268370 1_555
Ca0 F4 2.268370 1_555
Ca0 F1 2.268370 1_555
Ca0 F3 2.268370 1_555
F0 Mn0 1.810948 1_665
F1 Mn0 1.810949 1_656
F2 Mn0 1.810950 1_655
F3 Mn0 1.810949 1_565
F4 Mn0 1.810948 1_556
F5 Mn0 1.810950 1_566
