# generated using pymatgen
data_Na2US3
_symmetry_space_group_name_H-M   'P 1'
_cell_length_a   6.97585779
_cell_length_b   6.97585779
_cell_length_c   6.96884142
_cell_angle_alpha   80.30537928
_cell_angle_beta   80.30537928
_cell_angle_gamma   119.95998609
_symmetry_Int_Tables_number   1
_chemical_formula_structural   Na2US3
_chemical_formula_sum   'Na4 U2 S6'
_cell_volume   276.66327345
_cell_formula_units_Z   2
loop_
 _symmetry_equiv_pos_site_id
 _symmetry_equiv_pos_as_xyz
  1  'x, y, z'
loop_
 _atom_site_type_symbol
 _atom_site_label
 _atom_site_symmetry_multiplicity
 _atom_site_fract_x
 _atom_site_fract_y
 _atom_site_fract_z
 _atom_site_occupancy
  Na  Na0  1  0.00000000  0.00000000  -0.00000000  1
  Na  Na1  1  0.50000000  0.50000000  0.50000000  1
  Na  Na2  1  0.84005015  0.15994985  0.50000000  1
  Na  Na3  1  0.15994985  0.84005015  0.50000000  1
  U  U0  1  0.66727900  0.33272100  -0.00000000  1
  U  U1  1  0.33272100  0.66727900  -0.00000000  1
  S  S0  1  0.27743454  0.27743454  0.23095188  1
  S  S1  1  0.43262673  0.07727214  0.77074487  1
  S  S2  1  0.07727214  0.43262673  0.77074487  1
  S  S3  1  0.72256546  0.72256546  0.76904812  1
  S  S4  1  0.56737327  0.92272786  0.22925513  1
  S  S5  1  0.92272786  0.56737327  0.22925513  1
loop_
_geom_bond_atom_site_label_1
_geom_bond_atom_site_label_2
_geom_bond_distance
_geom_bond_site_symmetry_2
Na0 S5 2.900389 1_445
Na0 S2 2.900389 1_554
Na0 S4 2.900389 1_445
Na0 S1 2.900389 1_554
Na0 S3 2.904929 1_444
Na0 S0 2.904929 1_555
Na1 S3 2.808864 1_555
Na1 S0 2.808864 1_555
Na1 S4 2.986631 1_555
Na1 S1 2.986631 1_555
Na1 S2 2.986631 1_555
Na1 S5 2.986631 1_555
Na2 S1 2.856661 1_555
Na2 S5 2.856661 1_555
Na2 S0 2.924849 1_655
Na2 S3 2.924849 1_545
Na2 S2 3.005487 1_655
Na2 S4 3.005487 1_545
Na3 S2 2.856661 1_555
Na3 S4 2.856661 1_555
Na3 S0 2.924849 1_565
Na3 S3 2.924849 1_455
Na3 S5 3.005487 1_455
Na3 S1 3.005487 1_565
S0 U0 2.721040 1_555
S0 U1 2.721040 1_555
S1 U1 2.704314 1_546
S1 U0 2.708056 1_556
S2 U0 2.704314 1_456
S2 U1 2.708056 1_556
S3 U0 2.721040 1_556
S3 U1 2.721040 1_556
S4 U0 2.704314 1_565
S4 U1 2.708056 1_555
S5 U1 2.704314 1_655
S5 U0 2.708056 1_555
