# generated using pymatgen
data_BaCo2(AsO4)2
_symmetry_space_group_name_H-M   'P 1'
_cell_length_a   5.06269351
_cell_length_b   8.60416377
_cell_length_c   8.76884226
_cell_angle_alpha   109.85939894
_cell_angle_beta   90.00000153
_cell_angle_gamma   90.00000201
_symmetry_Int_Tables_number   1
_chemical_formula_structural   BaCo2(AsO4)2
_chemical_formula_sum   'Ba2 Co4 As4 O16'
_cell_volume   359.25663301
_cell_formula_units_Z   2
loop_
 _symmetry_equiv_pos_site_id
 _symmetry_equiv_pos_as_xyz
  1  'x, y, z'
loop_
 _atom_site_type_symbol
 _atom_site_label
 _atom_site_symmetry_multiplicity
 _atom_site_fract_x
 _atom_site_fract_y
 _atom_site_fract_z
 _atom_site_occupancy
  Ba  Ba0  1  0.50000000  0.00000000  0.50000000  1
  Ba  Ba1  1  0.00000000  0.00000000  0.00000000  1
  Co  Co0  1  0.50000000  0.49127000  0.33042300  1
  Co  Co1  1  0.00000000  0.50873000  0.16957700  1
  Co  Co2  1  0.00000000  0.49127000  0.83042300  1
  Co  Co3  1  0.50000000  0.50873000  0.66957700  1
  As  As0  1  0.50000000  0.28194400  0.92731500  1
  As  As1  1  0.00000000  0.28194400  0.42731500  1
  As  As2  1  0.50000000  0.71805600  0.07268500  1
  As  As3  1  0.00000000  0.71805600  0.57268500  1
  O  O0  1  0.50000000  0.07237100  0.85745700  1
  O  O1  1  0.00000000  0.07237100  0.35745700  1
  O  O2  1  0.50000000  0.92762900  0.14254300  1
  O  O3  1  0.00000000  0.92762900  0.64254300  1
  O  O4  1  0.82843500  0.65239000  0.04560900  1
  O  O5  1  0.32843500  0.65239000  0.54560900  1
  O  O6  1  0.34356300  0.65239000  0.21760800  1
  O  O7  1  0.84356300  0.65239000  0.71760800  1
  O  O8  1  0.32800200  0.65239000  0.88917300  1
  O  O9  1  0.82800200  0.65239000  0.38917300  1
  O  O10  1  0.17156500  0.34761000  0.95439100  1
  O  O11  1  0.67156500  0.34761000  0.45439100  1
  O  O12  1  0.65643700  0.34761000  0.78239200  1
  O  O13  1  0.15643700  0.34761000  0.28239200  1
  O  O14  1  0.67199800  0.34761000  0.11082700  1
  O  O15  1  0.17199800  0.34761000  0.61082700  1
loop_
_geom_bond_atom_site_label_1
_geom_bond_atom_site_label_2
_geom_bond_distance
_geom_bond_site_symmetry_2
Ba0 O0 2.981043 1_555
Ba0 O2 2.981043 1_545
Ba0 O1 2.981043 1_555
Ba0 O3 2.981043 1_645
Ba0 O1 2.981043 1_655
Ba0 O3 2.981043 1_545
Ba0 O5 3.266885 1_545
Ba0 O11 3.266885 1_555
Ba0 O12 3.266886 1_555
Ba0 O6 3.266886 1_545
Ba0 O9 3.266888 1_545
Ba0 O15 3.266888 1_555
Ba1 O1 2.981043 1_555
Ba1 O3 2.981043 1_544
Ba1 O0 2.981043 1_454
Ba1 O2 2.981043 1_545
Ba1 O0 2.981043 1_554
Ba1 O2 2.981043 1_445
Ba1 O10 3.266885 1_554
Ba1 O4 3.266885 1_445
Ba1 O13 3.266886 1_555
Ba1 O7 3.266886 1_444
Ba1 O8 3.266888 1_544
Ba1 O14 3.266888 1_455
Co0 O13 2.092106 1_555
Co0 O14 2.092106 1_555
Co0 O11 2.092113 1_555
Co0 O6 2.111750 1_555
Co0 O5 2.111752 1_555
Co0 O9 2.111754 1_555
Co1 O6 2.092106 1_555
Co1 O9 2.092106 1_455
Co1 O4 2.092113 1_455
Co1 O13 2.111750 1_555
Co1 O10 2.111752 1_554
Co1 O14 2.111754 1_455
Co2 O12 2.092106 1_455
Co2 O15 2.092106 1_555
Co2 O10 2.092113 1_555
Co2 O7 2.111750 1_455
Co2 O4 2.111752 1_456
Co2 O8 2.111754 1_555
Co3 O7 2.092106 1_555
Co3 O8 2.092106 1_555
Co3 O5 2.092113 1_555
Co3 O12 2.111750 1_555
Co3 O11 2.111752 1_555
Co3 O15 2.111754 1_555
As0 O0 1.695962 1_555
As0 O14 1.746204 1_556
As0 O10 1.746209 1_555
As0 O12 1.746214 1_555
As1 O1 1.695962 1_555
As1 O15 1.746204 1_555
As1 O11 1.746209 1_455
As1 O13 1.746214 1_555
As2 O2 1.695962 1_555
As2 O8 1.746204 1_554
As2 O4 1.746209 1_555
As2 O6 1.746214 1_555
As3 O3 1.695962 1_555
As3 O9 1.746204 1_455
As3 O5 1.746209 1_555
As3 O7 1.746214 1_455
