# generated using pymatgen
data_KCaN
_symmetry_space_group_name_H-M   'P 1'
_cell_length_a   7.67524400
_cell_length_b   4.36500400
_cell_length_c   6.94978000
_cell_angle_alpha   90.00000000
_cell_angle_beta   90.00000000
_cell_angle_gamma   90.00000000
_symmetry_Int_Tables_number   1
_chemical_formula_structural   KCaN
_chemical_formula_sum   'K4 Ca4 N4'
_cell_volume   232.83480125
_cell_formula_units_Z   4
loop_
 _symmetry_equiv_pos_site_id
 _symmetry_equiv_pos_as_xyz
  1  'x, y, z'
loop_
 _atom_site_type_symbol
 _atom_site_label
 _atom_site_symmetry_multiplicity
 _atom_site_fract_x
 _atom_site_fract_y
 _atom_site_fract_z
 _atom_site_occupancy
  K  K0  1  0.54702900  0.25000000  0.84752800  1
  K  K1  1  0.04702900  0.25000000  0.65247200  1
  K  K2  1  0.45297100  0.75000000  0.15247200  1
  K  K3  1  0.95297100  0.75000000  0.34752800  1
  Ca  Ca0  1  0.64438800  0.25000000  0.41257300  1
  Ca  Ca1  1  0.14438800  0.25000000  0.08742700  1
  Ca  Ca2  1  0.35561200  0.75000000  0.58742700  1
  Ca  Ca3  1  0.85561200  0.75000000  0.91257300  1
  N  N0  1  0.82769900  0.25000000  0.10827500  1
  N  N1  1  0.32769900  0.25000000  0.39172500  1
  N  N2  1  0.17230100  0.75000000  0.89172500  1
  N  N3  1  0.67230100  0.75000000  0.60827500  1
loop_
_geom_bond_atom_site_label_1
_geom_bond_atom_site_label_2
_geom_bond_distance
_geom_bond_site_symmetry_2
K0 N0 2.815041 1_556
K0 N3 2.907325 1_545
K0 N3 2.907325 1_555
K1 N1 2.815041 1_555
K1 N2 2.907325 1_555
K1 N2 2.907325 1_545
K2 N2 2.815041 1_554
K2 N1 2.907325 1_565
K2 N1 2.907325 1_555
K3 N3 2.815041 1_555
K3 N0 2.907325 1_555
K3 N0 2.907325 1_565
Ca0 N1 2.434980 1_555
Ca0 N0 2.540064 1_555
Ca0 N3 2.580513 1_555
Ca0 N3 2.580513 1_545
Ca1 N0 2.434980 1_455
Ca1 N1 2.540064 1_555
Ca1 N2 2.580513 1_554
Ca1 N2 2.580513 1_544
Ca2 N3 2.434980 1_555
Ca2 N2 2.540064 1_555
Ca2 N1 2.580513 1_555
Ca2 N1 2.580513 1_565
Ca3 N2 2.434980 1_655
Ca3 N3 2.540064 1_555
Ca3 N0 2.580513 1_566
Ca3 N0 2.580513 1_556
