# generated using pymatgen
data_CaZnPb
_symmetry_space_group_name_H-M   'P 1'
_cell_length_a   4.72893416
_cell_length_b   4.72893416
_cell_length_c   7.70937428
_cell_angle_alpha   90.00000000
_cell_angle_beta   90.00000000
_cell_angle_gamma   120.00000081
_symmetry_Int_Tables_number   1
_chemical_formula_structural   CaZnPb
_chemical_formula_sum   'Ca2 Zn2 Pb2'
_cell_volume   149.30566744
_cell_formula_units_Z   2
loop_
 _symmetry_equiv_pos_site_id
 _symmetry_equiv_pos_as_xyz
  1  'x, y, z'
loop_
 _atom_site_type_symbol
 _atom_site_label
 _atom_site_symmetry_multiplicity
 _atom_site_fract_x
 _atom_site_fract_y
 _atom_site_fract_z
 _atom_site_occupancy
  Ca  Ca0  1  0.00000000  0.00000000  0.98952614  1
  Ca  Ca1  1  0.00000000  -0.00000000  0.48952614  1
  Zn  Zn0  1  0.66666700  0.33333300  0.30309441  1
  Zn  Zn1  1  0.33333300  0.66666700  0.80309441  1
  Pb  Pb0  1  0.66666700  0.33333300  0.70737846  1
  Pb  Pb1  1  0.33333300  0.66666700  0.20737846  1
loop_
_geom_bond_atom_site_label_1
_geom_bond_atom_site_label_2
_geom_bond_distance
_geom_bond_site_symmetry_2
Ca0 Zn1 3.085451 1_545
Ca0 Zn1 3.085455 1_555
Ca0 Zn1 3.085455 1_445
Ca0 Pb1 3.205463 1_546
Ca0 Pb1 3.205467 1_556
Ca0 Pb1 3.205467 1_446
Ca0 Pb0 3.490799 1_455
Ca0 Pb0 3.490802 1_445
Ca0 Pb0 3.490802 1_555
Ca1 Zn0 3.085451 1_455
Ca1 Zn0 3.085455 1_445
Ca1 Zn0 3.085455 1_555
Ca1 Pb0 3.205463 1_455
Ca1 Pb0 3.205467 1_445
Ca1 Pb0 3.205467 1_555
Ca1 Pb1 3.490799 1_545
Ca1 Pb1 3.490802 1_555
Ca1 Pb1 3.490802 1_445
Pb0 Zn1 2.828210 1_545
Pb0 Zn1 2.828210 1_655
Pb0 Zn1 2.828217 1_555
Pb0 Zn0 3.116777 1_555
Pb1 Zn0 2.828210 1_455
Pb1 Zn0 2.828210 1_565
Pb1 Zn0 2.828217 1_555
Pb1 Zn1 3.116777 1_554
