# generated using pymatgen
data_Si2BH18C31SO3F23
_symmetry_space_group_name_H-M   'P 1'
_cell_length_a   10.63700400
_cell_length_b   13.71964614
_cell_length_c   15.49905343
_cell_angle_alpha   68.25677324
_cell_angle_beta   82.37920334
_cell_angle_gamma   76.87806166
_symmetry_Int_Tables_number   1
_chemical_formula_structural   Si2BH18C31SO3F23
_chemical_formula_sum   'Si4 B2 H36 C62 S2 O6 F46'
_cell_volume   2043.14208336
_cell_formula_units_Z   2
loop_
 _symmetry_equiv_pos_site_id
 _symmetry_equiv_pos_as_xyz
  1  'x, y, z'
loop_
 _atom_site_type_symbol
 _atom_site_label
 _atom_site_symmetry_multiplicity
 _atom_site_fract_x
 _atom_site_fract_y
 _atom_site_fract_z
 _atom_site_occupancy
  Si  Si0  1  0.23481500  0.29511800  0.98544000  1
  Si  Si1  1  0.76518500  0.70488200  0.01456000  1
  Si  Si2  1  0.01930100  0.25622400  0.34077000  1
  Si  Si3  1  0.98069900  0.74377600  0.65923000  1
  B  B0  1  0.77172000  0.22589700  0.74115400  1
  B  B1  1  0.22828000  0.77410300  0.25884600  1
  H  H0  1  0.37400200  0.43063100  0.92757400  1
  H  H1  1  0.62599800  0.56936900  0.07242600  1
  H  H2  1  0.26124000  0.44828000  0.84556000  1
  H  H3  1  0.73876000  0.55172000  0.15444000  1
  H  H4  1  0.20881000  0.49130800  0.94226500  1
  H  H5  1  0.79119000  0.50869200  0.05773500  1
  H  H6  1  0.33179600  0.10512400  0.01697200  1
  H  H7  1  0.66820400  0.89487600  0.98302800  1
  H  H8  1  0.34535200  0.18449100  0.89652200  1
  H  H9  1  0.65464800  0.81550900  0.10347800  1
  H  H10  1  0.45162700  0.18671400  0.97456400  1
  H  H11  1  0.54837300  0.81328600  0.02543600  1
  H  H12  1  0.99921900  0.35317800  0.00958300  1
  H  H13  1  0.00078100  0.64682200  0.99041700  1
  H  H14  1  0.03538700  0.29145500  0.92458300  1
  H  H15  1  0.96461300  0.70854500  0.07541700  1
  H  H16  1  0.04501500  0.21022800  0.04436400  1
  H  H17  1  0.95498500  0.78977200  0.95563600  1
  H  H18  1  0.16621100  0.13208100  0.46340700  1
  H  H19  1  0.83378900  0.86791900  0.53659300  1
  H  H20  1  0.00203300  0.11796300  0.49211900  1
  H  H21  1  0.99796700  0.88203700  0.50788100  1
  H  H22  1  0.09483800  0.06247400  0.41114600  1
  H  H23  1  0.90516200  0.93752600  0.58885400  1
  H  H24  1  0.99429200  0.45177800  0.30088800  1
  H  H25  1  0.00570800  0.54822200  0.69911200  1
  H  H26  1  0.91427000  0.38945300  0.40884300  1
  H  H27  1  0.08573000  0.61054700  0.59115700  1
  H  H28  1  0.08418500  0.37909400  0.40283100  1
  H  H29  1  0.91581500  0.62090600  0.59716900  1
  H  H30  1  0.90542600  0.17948000  0.25932800  1
  H  H31  1  0.09457400  0.82052000  0.74067200  1
  H  H32  1  0.79799500  0.25047100  0.32346500  1
  H  H33  1  0.20200500  0.74952900  0.67653500  1
  H  H34  1  0.86731300  0.32297100  0.21396700  1
  H  H35  1  0.13268700  0.67702900  0.78603300  1
  C  C0  1  0.93192600  0.21141800  0.72176800  1
  C  C1  1  0.06807400  0.78858200  0.27823200  1
  C  C2  1  0.01681600  0.13213300  0.69513300  1
  C  C3  1  0.98318400  0.86786700  0.30486700  1
  C  C4  1  0.15103600  0.12441200  0.68280900  1
  C  C5  1  0.84896400  0.87558800  0.31719100  1
  C  C6  1  0.20792800  0.19656800  0.70038100  1
  C  C7  1  0.79207200  0.80343200  0.29961900  1
  C  C8  1  0.12845900  0.27501200  0.73020200  1
  C  C9  1  0.87154100  0.72498800  0.26979800  1
  C  C10  1  0.99545800  0.28035200  0.73974900  1
  C  C11  1  0.00454200  0.71964800  0.26025100  1
  C  C12  1  0.75869500  0.19608100  0.85642300  1
  C  C13  1  0.24130500  0.80391900  0.14357700  1
  C  C14  1  0.81134000  0.09263900  0.91477600  1
  C  C15  1  0.18866000  0.90736100  0.08522400  1
  C  C16  1  0.81823800  0.06053500  0.01079100  1
  C  C17  1  0.18176200  0.93946500  0.98920900  1
  C  C18  1  0.77236200  0.13485600  0.05471500  1
  C  C19  1  0.22763800  0.86514400  0.94528500  1
  C  C20  1  0.71941400  0.23895700  0.00048700  1
  C  C21  1  0.28058600  0.76104300  0.99951300  1
  C  C22  1  0.71374300  0.26696700  0.90441200  1
  C  C23  1  0.28625700  0.73303300  0.09558800  1
  C  C24  1  0.70718400  0.14749400  0.70660900  1
  C  C25  1  0.29281600  0.85250600  0.29339100  1
  C  C26  1  0.62735800  0.07602400  0.76002000  1
  C  C27  1  0.37264200  0.92397600  0.23998000  1
  C  C28  1  0.57487900  0.01315400  0.72641400  1
  C  C29  1  0.42512100  0.98684600  0.27358600  1
  C  C30  1  0.59749000  0.02210000  0.63353100  1
  C  C31  1  0.40251000  0.97790000  0.36646900  1
  C  C32  1  0.67226700  0.09513500  0.57596900  1
  C  C33  1  0.32773300  0.90486500  0.42403100  1
  C  C34  1  0.72412800  0.15447100  0.61341900  1
  C  C35  1  0.27587200  0.84552900  0.38658100  1
  C  C36  1  0.69479700  0.34856600  0.68045300  1
  C  C37  1  0.30520300  0.65143400  0.31954700  1
  C  C38  1  0.74728200  0.42502500  0.60507400  1
  C  C39  1  0.25271800  0.57497500  0.39492600  1
  C  C40  1  0.67683700  0.52456900  0.55300700  1
  C  C41  1  0.32316300  0.47543100  0.44699300  1
  C  C42  1  0.54558600  0.55228900  0.57442600  1
  C  C43  1  0.45441400  0.44771100  0.42557400  1
  C  C44  1  0.48743500  0.47871900  0.64787500  1
  C  C45  1  0.51256500  0.52128100  0.35212500  1
  C  C46  1  0.56179100  0.38033900  0.69753900  1
  C  C47  1  0.43820900  0.61966100  0.30246100  1
  C  C48  1  0.35873300  0.35672800  0.20403800  1
  C  C49  1  0.64126700  0.64327200  0.79596200  1
  C  C50  1  0.27328300  0.42939100  0.91975200  1
  C  C51  1  0.72671700  0.57060900  0.08024800  1
  C  C52  1  0.35213000  0.18178800  0.96755400  1
  C  C53  1  0.64787000  0.81821200  0.03244600  1
  C  C54  1  0.06207700  0.28675900  0.99225900  1
  C  C55  1  0.93792300  0.71324100  0.00774100  1
  C  C56  1  0.07746900  0.13019900  0.43556300  1
  C  C57  1  0.92253100  0.86980100  0.56443700  1
  C  C58  1  0.00308000  0.38093800  0.36481600  1
  C  C59  1  0.99692000  0.61906200  0.63518400  1
  C  C60  1  0.88607900  0.25201300  0.27724000  1
  C  C61  1  0.11392100  0.74798700  0.72276000  1
  S  S0  1  0.20777400  0.33317600  0.17006600  1
  S  S1  1  0.79222600  0.66682400  0.82993400  1
  O  O0  1  0.26221600  0.27132900  0.10687300  1
  O  O1  1  0.73778400  0.72867100  0.89312700  1
  O  O2  1  0.16153900  0.25471900  0.25852000  1
  O  O3  1  0.83846100  0.74528100  0.74148000  1
  O  O4  1  0.12142100  0.43285100  0.13092900  1
  O  O5  1  0.87857900  0.56714900  0.86907100  1
  F  F0  1  0.41649900  0.41641100  0.12633300  1
  F  F1  1  0.58350100  0.58358900  0.87366700  1
  F  F2  1  0.43777100  0.26361000  0.24411100  1
  F  F3  1  0.56222900  0.73639000  0.75588900  1
  F  F4  1  0.32228200  0.40917700  0.26382000  1
  F  F5  1  0.67771800  0.59082300  0.73618000  1
  F  F6  1  0.97298900  0.05426000  0.67927700  1
  F  F7  1  0.02701100  0.94574000  0.32072300  1
  F  F8  1  0.22646900  0.04678100  0.65460300  1
  F  F9  1  0.77353100  0.95321900  0.34539700  1
  F  F10  1  0.33715900  0.19021100  0.68995100  1
  F  F11  1  0.66284100  0.80978900  0.31004900  1
  F  F12  1  0.18147400  0.34522000  0.74992600  1
  F  F13  1  0.81852600  0.65478000  0.25007400  1
  F  F14  1  0.92523000  0.36071400  0.76844600  1
  F  F15  1  0.07477000  0.63928600  0.23155400  1
  F  F16  1  0.86119300  0.01481400  0.87773600  1
  F  F17  1  0.13880700  0.98518600  0.12226400  1
  F  F18  1  0.87014600  0.95820400  0.06174000  1
  F  F19  1  0.12985400  0.04179600  0.93826000  1
  F  F20  1  0.78078400  0.10705500  0.14724900  1
  F  F21  1  0.21921600  0.89294500  0.85275100  1
  F  F22  1  0.67521700  0.31341400  0.04142600  1
  F  F23  1  0.32478300  0.68658600  0.95857400  1
  F  F24  1  0.66179200  0.37179300  0.85922100  1
  F  F25  1  0.33820800  0.62820700  0.14077900  1
  F  F26  1  0.59334800  0.06324100  0.85110900  1
  F  F27  1  0.40665200  0.93675900  0.14889100  1
  F  F28  1  0.49949100  0.94496500  0.78342700  1
  F  F29  1  0.50050900  0.05503500  0.21657300  1
  F  F30  1  0.54766100  0.96211600  0.59976500  1
  F  F31  1  0.45233900  0.03788400  0.40023500  1
  F  F32  1  0.69505200  0.10662300  0.48481300  1
  F  F33  1  0.30494800  0.89337700  0.51518700  1
  F  F34  1  0.79840000  0.22250600  0.55243600  1
  F  F35  1  0.20160000  0.77749400  0.44756400  1
  F  F36  1  0.87438100  0.40729700  0.57606000  1
  F  F37  1  0.12561900  0.59270300  0.42394000  1
  F  F38  1  0.73587700  0.59469700  0.48179700  1
  F  F39  1  0.26412300  0.40530300  0.51820300  1
  F  F40  1  0.47600300  0.64829600  0.52533900  1
  F  F41  1  0.52399700  0.35170400  0.47466100  1
  F  F42  1  0.35937600  0.50458400  0.67011100  1
  F  F43  1  0.64062400  0.49541600  0.32988900  1
  F  F44  1  0.49712300  0.31295300  0.76782600  1
  F  F45  1  0.50287700  0.68704700  0.23217400  1
loop_
_geom_bond_atom_site_label_1
_geom_bond_atom_site_label_2
_geom_bond_distance
_geom_bond_site_symmetry_2
B0 C24 1.665658 1_555
B0 C0 1.669865 1_555
B0 C36 1.671181 1_555
B0 C12 1.672408 1_555
B1 C25 1.665658 1_555
B1 C1 1.669865 1_555
B1 C37 1.671181 1_555
B1 C13 1.672408 1_555
C0 C2 1.398878 1_655
C0 C10 1.401509 1_555
C1 C3 1.398878 1_455
C1 C11 1.401509 1_555
C2 F6 1.367570 1_455
C3 F7 1.367570 1_655
C4 F8 1.353961 1_555
C5 F9 1.353961 1_555
C6 F10 1.349229 1_555
C7 F11 1.349229 1_555
C8 F12 1.360071 1_555
C9 F13 1.360071 1_555
C10 F14 1.368461 1_555
C11 F15 1.368461 1_555
C12 C22 1.399329 1_555
C12 C14 1.402913 1_555
C13 C23 1.399329 1_555
C13 C15 1.402913 1_555
C14 F16 1.366435 1_555
C15 F17 1.366435 1_555
C16 F18 1.357121 1_545
C17 F19 1.357121 1_565
C18 F20 1.350436 1_555
C19 F21 1.350436 1_555
C20 F22 1.360218 1_555
C21 F23 1.360218 1_555
C22 F24 1.363742 1_555
C23 F25 1.363742 1_555
C24 C26 1.399266 1_555
C24 C34 1.401488 1_555
C25 C27 1.399266 1_555
C25 C35 1.401488 1_555
C26 F26 1.365537 1_555
C27 F27 1.365537 1_555
C28 F28 1.356207 1_545
C29 F29 1.356207 1_565
C30 F30 1.350112 1_545
C31 F31 1.350112 1_565
C32 F32 1.356915 1_555
C33 F33 1.356915 1_555
C34 F34 1.368174 1_555
C35 F35 1.368174 1_555
C36 C38 1.400681 1_555
C36 C46 1.402818 1_555
C37 C39 1.400681 1_555
C37 C47 1.402818 1_555
C38 F36 1.363685 1_555
C39 F37 1.363685 1_555
C40 F38 1.357194 1_555
C41 F39 1.357194 1_555
C42 F40 1.351240 1_555
C43 F41 1.351240 1_555
C44 F42 1.358974 1_555
C45 F43 1.358974 1_555
C46 F44 1.363251 1_555
C47 F45 1.363251 1_555
C48 F2 1.337026 1_555
C48 F4 1.341145 1_555
C48 F0 1.341654 1_555
C49 F3 1.337026 1_555
C49 F5 1.341145 1_555
C49 F1 1.341654 1_555
C50 H4 1.097867 1_555
C50 H0 1.098648 1_555
C50 H2 1.099574 1_555
C50 Si0 1.854664 1_555
C51 H5 1.097867 1_555
C51 H1 1.098648 1_555
C51 H3 1.099574 1_555
C51 Si1 1.854664 1_555
C52 H6 1.096452 1_556
C52 H10 1.097676 1_555
C52 H8 1.099185 1_555
C52 Si0 1.843428 1_555
C53 H7 1.096452 1_554
C53 H11 1.097676 1_555
C53 H9 1.099185 1_555
C53 Si1 1.843428 1_555
C54 H14 1.097989 1_555
C54 H12 1.098425 1_456
C54 H16 1.098631 1_556
C54 Si0 1.853539 1_555
C55 H15 1.097989 1_555
C55 H13 1.098425 1_654
C55 H17 1.098631 1_554
C55 Si1 1.853539 1_555
C56 H22 1.097601 1_555
C56 H18 1.097869 1_555
C56 H20 1.098178 1_555
C56 Si2 1.845041 1_555
C57 H23 1.097601 1_555
C57 H19 1.097869 1_555
C57 H21 1.098178 1_555
C57 Si3 1.845041 1_555
C58 H24 1.097682 1_455
C58 H28 1.098150 1_555
C58 H26 1.099850 1_455
C58 Si2 1.848690 1_555
C59 H25 1.097682 1_655
C59 H29 1.098150 1_555
C59 H27 1.099850 1_655
C59 Si3 1.848690 1_555
C60 H34 1.098022 1_555
C60 H30 1.098293 1_555
C60 H32 1.100610 1_555
C60 Si2 1.852138 1_655
C61 H35 1.098022 1_555
C61 H31 1.098293 1_555
C61 H33 1.100610 1_555
C61 Si3 1.852138 1_455
O0 S0 1.502270 1_555
O0 Si0 1.838737 1_554
O1 S1 1.502270 1_555
O1 Si1 1.838737 1_556
O2 S0 1.499406 1_555
O2 Si2 1.846188 1_555
O3 S1 1.499406 1_555
O3 Si3 1.846188 1_555
O4 S0 1.429894 1_555
O5 S1 1.429894 1_555
