# generated using pymatgen
data_Li3Mn2O5
_symmetry_space_group_name_H-M   'P 1'
_cell_length_a   5.24173168
_cell_length_b   5.93899991
_cell_length_c   6.50676274
_cell_angle_alpha   75.52026143
_cell_angle_beta   95.68056426
_cell_angle_gamma   70.38762441
_symmetry_Int_Tables_number   1
_chemical_formula_structural   Li3Mn2O5
_chemical_formula_sum   'Li6 Mn4 O10'
_cell_volume   180.99421360
_cell_formula_units_Z   2
loop_
 _symmetry_equiv_pos_site_id
 _symmetry_equiv_pos_as_xyz
  1  'x, y, z'
loop_
 _atom_site_type_symbol
 _atom_site_label
 _atom_site_symmetry_multiplicity
 _atom_site_fract_x
 _atom_site_fract_y
 _atom_site_fract_z
 _atom_site_occupancy
  Li  Li0  1  0.60001200  0.30001700  0.20001500  1
  Li  Li1  1  0.60000800  0.80001800  0.20001000  1
  Li  Li2  1  0.20926900  0.09516700  0.38932600  1
  Li  Li3  1  0.99080900  0.50485600  0.01068500  1
  Li  Li4  1  0.39122100  0.69788500  0.79955900  1
  Li  Li5  1  0.80886800  0.90205900  0.60053900  1
  Mn  Mn0  1  0.19922900  0.60052200  0.39830500  1
  Mn  Mn1  1  0.79910800  0.40315400  0.59939200  1
  Mn  Mn2  1  0.00077100  0.99940400  0.00169200  1
  Mn  Mn3  1  0.40086300  0.19679900  0.80053200  1
  O  O0  1  0.92705800  0.94000500  0.29208100  1
  O  O1  1  0.27295000  0.66001800  0.10796900  1
  O  O2  1  0.12088900  0.54371800  0.68709900  1
  O  O3  1  0.07905200  0.05630500  0.71286500  1
  O  O4  1  0.48571600  0.71839900  0.49694000  1
  O  O5  1  0.71422700  0.88156400  0.90307000  1
  O  O6  1  0.72241600  0.33849300  0.90030400  1
  O  O7  1  0.47754200  0.26154600  0.49965700  1
  O  O8  1  0.27616600  0.13857100  0.07375500  1
  O  O9  1  0.92382400  0.46149900  0.32620500  1
loop_
_geom_bond_atom_site_label_1
_geom_bond_atom_site_label_2
_geom_bond_distance
_geom_bond_site_symmetry_2
Li0 O7 2.095020 1_555
Li0 O6 2.095288 1_554
Li0 O0 2.136533 1_545
Li0 O1 2.136533 1_555
Li0 O9 2.384441 1_555
Li0 O8 2.384600 1_555
Li1 O9 2.050596 1_555
Li1 O8 2.050809 1_565
Li1 O5 2.069249 1_554
Li1 O4 2.069409 1_555
Li1 O0 2.234165 1_555
Li1 O1 2.234200 1_555
Li2 O8 2.084266 1_555
Li2 O9 2.094522 1_455
Li2 O4 2.106172 1_545
Li2 O0 2.111680 1_445
Li2 O7 2.134689 1_555
Li2 O3 2.257926 1_555
Li3 O9 2.084104 1_555
Li3 O8 2.094197 1_655
Li3 O5 2.106116 1_554
Li3 O1 2.111467 1_655
Li3 O6 2.135233 1_554
Li3 O2 2.257905 1_654
Li4 O4 2.061805 1_555
Li4 O2 2.093425 1_555
Li4 O3 2.098908 1_565
Li4 O1 2.139193 1_556
Li4 O6 2.141691 1_555
Li4 O5 2.427304 1_555
Li5 O5 2.061536 1_555
Li5 O3 2.092824 1_665
Li5 O2 2.098321 1_655
Li5 O0 2.139295 1_555
Li5 O7 2.142342 1_565
Li5 O4 2.428031 1_555
Mn0 O2 1.934488 1_555
Mn0 O1 1.935310 1_555
Mn0 O0 1.937791 1_455
Mn0 O7 1.946808 1_555
Mn0 O9 1.961009 1_455
Mn0 O4 1.974006 1_555
Mn1 O4 1.934584 1_555
Mn1 O9 1.944544 1_555
Mn1 O3 1.984305 1_655
Mn1 O6 2.006524 1_555
Mn1 O2 2.204643 1_655
Mn1 O7 2.231048 1_555
Mn2 O3 1.934579 1_564
Mn2 O0 1.935619 1_455
Mn2 O1 1.937409 1_555
Mn2 O6 1.947359 1_464
Mn2 O8 1.961522 1_565
Mn2 O5 1.974079 1_454
Mn3 O5 1.934487 1_545
Mn3 O8 1.944664 1_556
Mn3 O2 1.984640 1_555
Mn3 O7 2.006279 1_555
Mn3 O3 2.204416 1_555
Mn3 O6 2.231424 1_555
