# generated using pymatgen
data_ScAgAu2
_symmetry_space_group_name_H-M   'P 1'
_cell_length_a   11.24372405
_cell_length_b   11.24372405
_cell_length_c   11.24372405
_cell_angle_alpha   124.28616975
_cell_angle_beta   118.14620105
_cell_angle_gamma   87.99139064
_symmetry_Int_Tables_number   1
_chemical_formula_structural   ScAgAu2
_chemical_formula_sum   'Sc1 Ag1 Au2'
_cell_volume   982.28003711
_cell_formula_units_Z   1
loop_
 _symmetry_equiv_pos_site_id
 _symmetry_equiv_pos_as_xyz
  1  'x, y, z'
loop_
 _atom_site_type_symbol
 _atom_site_label
 _atom_site_symmetry_multiplicity
 _atom_site_fract_x
 _atom_site_fract_y
 _atom_site_fract_z
 _atom_site_occupancy
  Sc  Sc0  1  0.00000000  0.00000000  0.00000000  1
  Ag  Ag0  1  0.00000000  0.50000000  0.50000000  1
  Au  Au0  1  0.00000000  0.24257400  0.24257300  1
  Au  Au1  1  0.00000000  0.75742700  0.75742600  1
loop_
_geom_bond_atom_site_label_1
_geom_bond_atom_site_label_2
_geom_bond_distance
_geom_bond_site_symmetry_2
Ag0 Au0 2.704935 1_555
Ag0 Au1 2.704935 1_555
Au0 Sc0 2.548865 1_555
Au1 Sc0 2.548865 1_566
