# generated using pymatgen
data_Al2Cd3(GeO4)3
_symmetry_space_group_name_H-M   'P 1'
_cell_length_a   10.61046530
_cell_length_b   10.61046530
_cell_length_c   10.61046530
_cell_angle_alpha   109.47122063
_cell_angle_beta   109.47122063
_cell_angle_gamma   109.47122063
_symmetry_Int_Tables_number   1
_chemical_formula_structural   Al2Cd3(GeO4)3
_chemical_formula_sum   'Al8 Cd12 Ge12 O48'
_cell_volume   919.56280860
_cell_formula_units_Z   4
loop_
 _symmetry_equiv_pos_site_id
 _symmetry_equiv_pos_as_xyz
  1  'x, y, z'
loop_
 _atom_site_type_symbol
 _atom_site_label
 _atom_site_symmetry_multiplicity
 _atom_site_fract_x
 _atom_site_fract_y
 _atom_site_fract_z
 _atom_site_occupancy
  Al  Al0  1  0.00000000  0.00000000  0.00000000  1
  Al  Al1  1  0.50000000  0.00000000  0.50000000  1
  Al  Al2  1  0.00000000  0.50000000  0.50000000  1
  Al  Al3  1  0.50000000  0.00000000  0.00000000  1
  Al  Al4  1  0.50000000  0.50000000  0.00000000  1
  Al  Al5  1  0.50000000  0.50000000  0.50000000  1
  Al  Al6  1  0.00000000  0.00000000  0.50000000  1
  Al  Al7  1  0.00000000  0.50000000  0.00000000  1
  Cd  Cd0  1  0.25000000  0.37500000  0.12500000  1
  Cd  Cd1  1  0.75000000  0.62500000  0.87500000  1
  Cd  Cd2  1  0.75000000  0.12500000  0.37500000  1
  Cd  Cd3  1  0.12500000  0.25000000  0.37500000  1
  Cd  Cd4  1  0.37500000  0.75000000  0.12500000  1
  Cd  Cd5  1  0.25000000  0.87500000  0.62500000  1
  Cd  Cd6  1  0.87500000  0.75000000  0.62500000  1
  Cd  Cd7  1  0.62500000  0.25000000  0.87500000  1
  Cd  Cd8  1  0.37500000  0.12500000  0.25000000  1
  Cd  Cd9  1  0.62500000  0.87500000  0.75000000  1
  Cd  Cd10  1  0.12500000  0.37500000  0.75000000  1
  Cd  Cd11  1  0.87500000  0.62500000  0.25000000  1
  Ge  Ge0  1  0.25000000  0.62500000  0.37500000  1
  Ge  Ge1  1  0.75000000  0.37500000  0.62500000  1
  Ge  Ge2  1  0.75000000  0.87500000  0.12500000  1
  Ge  Ge3  1  0.37500000  0.25000000  0.62500000  1
  Ge  Ge4  1  0.62500000  0.75000000  0.37500000  1
  Ge  Ge5  1  0.25000000  0.12500000  0.87500000  1
  Ge  Ge6  1  0.12500000  0.75000000  0.87500000  1
  Ge  Ge7  1  0.87500000  0.25000000  0.12500000  1
  Ge  Ge8  1  0.62500000  0.37500000  0.25000000  1
  Ge  Ge9  1  0.37500000  0.62500000  0.75000000  1
  Ge  Ge10  1  0.87500000  0.12500000  0.75000000  1
  Ge  Ge11  1  0.12500000  0.87500000  0.25000000  1
  O  O0  1  0.48588000  0.38423700  0.30590200  1
  O  O1  1  0.51412000  0.61576300  0.69409800  1
  O  O2  1  0.57833600  0.17997800  0.19409800  1
  O  O3  1  0.92166400  0.11576300  0.60164200  1
  O  O4  1  0.30590200  0.48588000  0.38423700  1
  O  O5  1  0.32002200  0.92166400  0.30590200  1
  O  O6  1  0.42166400  0.82002200  0.80590200  1
  O  O7  1  0.07833600  0.88423700  0.39835800  1
  O  O8  1  0.69409800  0.51412000  0.61576300  1
  O  O9  1  0.67997800  0.07833600  0.69409800  1
  O  O10  1  0.01412000  0.32002200  0.89835800  1
  O  O11  1  0.19409800  0.57833600  0.17997800  1
  O  O12  1  0.11576300  0.01412000  0.19409800  1
  O  O13  1  0.98588000  0.67997800  0.10164200  1
  O  O14  1  0.80590200  0.42166400  0.82002200  1
  O  O15  1  0.88423700  0.98588000  0.80590200  1
  O  O16  1  0.60164200  0.92166400  0.11576300  1
  O  O17  1  0.17997800  0.48588000  0.60164200  1
  O  O18  1  0.39835800  0.07833600  0.88423700  1
  O  O19  1  0.82002200  0.51412000  0.39835800  1
  O  O20  1  0.89835800  0.01412000  0.32002200  1
  O  O21  1  0.38423700  0.57833600  0.89835800  1
  O  O22  1  0.10164200  0.98588000  0.67997800  1
  O  O23  1  0.61576300  0.42166400  0.10164200  1
  O  O24  1  0.38423700  0.30590200  0.48588000  1
  O  O25  1  0.57833600  0.89835800  0.38423700  1
  O  O26  1  0.61576300  0.69409800  0.51412000  1
  O  O27  1  0.42166400  0.10164200  0.61576300  1
  O  O28  1  0.11576300  0.60164200  0.92166400  1
  O  O29  1  0.01412000  0.19409800  0.11576300  1
  O  O30  1  0.88423700  0.39835800  0.07833600  1
  O  O31  1  0.98588000  0.80590200  0.88423700  1
  O  O32  1  0.32002200  0.89835800  0.01412000  1
  O  O33  1  0.92166400  0.30590200  0.32002200  1
  O  O34  1  0.67997800  0.10164200  0.98588000  1
  O  O35  1  0.07833600  0.69409800  0.67997800  1
  O  O36  1  0.17997800  0.19409800  0.57833600  1
  O  O37  1  0.48588000  0.60164200  0.17997800  1
  O  O38  1  0.82002200  0.80590200  0.42166400  1
  O  O39  1  0.51412000  0.39835800  0.82002200  1
  O  O40  1  0.30590200  0.32002200  0.92166400  1
  O  O41  1  0.69409800  0.67997800  0.07833600  1
  O  O42  1  0.19409800  0.11576300  0.01412000  1
  O  O43  1  0.80590200  0.88423700  0.98588000  1
  O  O44  1  0.89835800  0.38423700  0.57833600  1
  O  O45  1  0.10164200  0.61576300  0.42166400  1
  O  O46  1  0.60164200  0.17997800  0.48588000  1
  O  O47  1  0.39835800  0.82002200  0.51412000  1
loop_
_geom_bond_atom_site_label_1
_geom_bond_atom_site_label_2
_geom_bond_distance
_geom_bond_site_symmetry_2
Al0 O15 1.938497 1_444
Al0 O43 1.938497 1_444
Al0 O29 1.938497 1_555
Al0 O42 1.938497 1_555
Al0 O31 1.938497 1_444
Al0 O12 1.938497 1_555
Al1 O47 1.938494 1_545
Al1 O9 1.938494 1_555
Al1 O5 1.938494 1_545
Al1 O46 1.938494 1_555
Al1 O25 1.938500 1_545
Al1 O27 1.938500 1_555
Al2 O35 1.938494 1_555
Al2 O19 1.938494 1_455
Al2 O33 1.938494 1_455
Al2 O17 1.938494 1_555
Al2 O44 1.938500 1_455
Al2 O45 1.938500 1_555
Al3 O34 1.938494 1_554
Al3 O6 1.938494 1_544
Al3 O2 1.938494 1_555
Al3 O32 1.938494 1_545
Al3 O16 1.938500 1_545
Al3 O18 1.938500 1_554
Al4 O41 1.938494 1_555
Al4 O39 1.938494 1_554
Al4 O40 1.938494 1_554
Al4 O37 1.938494 1_555
Al4 O21 1.938500 1_554
Al4 O23 1.938500 1_555
Al5 O1 1.938497 1_555
Al5 O26 1.938497 1_555
Al5 O4 1.938497 1_555
Al5 O8 1.938497 1_555
Al5 O0 1.938497 1_555
Al5 O24 1.938497 1_555
Al6 O22 1.938494 1_545
Al6 O20 1.938494 1_455
Al6 O38 1.938494 1_445
Al6 O36 1.938494 1_555
Al6 O7 1.938500 1_545
Al6 O3 1.938500 1_455
Al7 O13 1.938494 1_455
Al7 O14 1.938494 1_454
Al7 O10 1.938494 1_554
Al7 O11 1.938494 1_555
Al7 O28 1.938500 1_554
Al7 O30 1.938500 1_455
Cd0 O42 2.364656 1_555
Cd0 O4 2.364656 1_555
Cd0 O40 2.364666 1_554
Cd0 O11 2.364666 1_555
Cd0 O37 2.542884 1_555
Cd0 O10 2.542884 1_554
Cd0 O0 2.542889 1_555
Cd0 O29 2.542889 1_555
Cd1 O8 2.364656 1_555
Cd1 O43 2.364656 1_555
Cd1 O41 2.364666 1_556
Cd1 O14 2.364666 1_555
Cd1 O13 2.542884 1_556
Cd1 O39 2.542884 1_555
Cd1 O1 2.542889 1_555
Cd1 O31 2.542889 1_555
Cd2 O44 2.364659 1_555
Cd2 O16 2.364659 1_545
Cd2 O20 2.364666 1_555
Cd2 O46 2.364666 1_555
Cd2 O25 2.542877 1_545
Cd2 O3 2.542877 1_555
Cd2 O2 2.542884 1_555
Cd2 O33 2.542884 1_555
Cd3 O24 2.364656 1_555
Cd3 O29 2.364656 1_555
Cd3 O33 2.364666 1_455
Cd3 O36 2.364666 1_555
Cd3 O20 2.542884 1_455
Cd3 O17 2.542884 1_555
Cd3 O4 2.542889 1_555
Cd3 O12 2.542889 1_555
Cd4 O28 2.364659 1_554
Cd4 O25 2.364659 1_555
Cd4 O32 2.364666 1_555
Cd4 O37 2.364666 1_555
Cd4 O21 2.542877 1_554
Cd4 O16 2.542877 1_555
Cd4 O11 2.542884 1_555
Cd4 O5 2.542884 1_555
Cd5 O18 2.364659 1_565
Cd5 O45 2.364659 1_555
Cd5 O47 2.364666 1_555
Cd5 O22 2.364666 1_555
Cd5 O27 2.542877 1_565
Cd5 O7 2.542877 1_555
Cd5 O35 2.542884 1_555
Cd5 O6 2.542884 1_555
Cd6 O31 2.364656 1_555
Cd6 O26 2.364656 1_555
Cd6 O35 2.364666 1_655
Cd6 O38 2.364666 1_555
Cd6 O19 2.542884 1_555
Cd6 O22 2.542884 1_655
Cd6 O8 2.542889 1_555
Cd6 O15 2.542889 1_555
Cd7 O27 2.364659 1_555
Cd7 O30 2.364659 1_556
Cd7 O34 2.364666 1_555
Cd7 O39 2.364666 1_555
Cd7 O18 2.542877 1_555
Cd7 O23 2.542877 1_556
Cd7 O9 2.542884 1_555
Cd7 O14 2.542884 1_555
Cd8 O0 2.364656 1_555
Cd8 O12 2.364656 1_555
Cd8 O2 2.364666 1_555
Cd8 O5 2.364666 1_545
Cd8 O46 2.542884 1_555
Cd8 O32 2.542884 1_545
Cd8 O42 2.542889 1_555
Cd8 O24 2.542889 1_555
Cd9 O1 2.364656 1_555
Cd9 O15 2.364656 1_555
Cd9 O9 2.364666 1_565
Cd9 O6 2.364666 1_555
Cd9 O34 2.542884 1_565
Cd9 O47 2.542884 1_555
Cd9 O26 2.542889 1_555
Cd9 O43 2.542889 1_555
Cd10 O21 2.364659 1_555
Cd10 O3 2.364659 1_455
Cd10 O10 2.364666 1_555
Cd10 O17 2.364666 1_555
Cd10 O44 2.542877 1_455
Cd10 O28 2.542877 1_555
Cd10 O40 2.542884 1_555
Cd10 O36 2.542884 1_555
Cd11 O7 2.364659 1_655
Cd11 O23 2.364659 1_555
Cd11 O19 2.364666 1_555
Cd11 O13 2.364666 1_555
Cd11 O30 2.542877 1_555
Cd11 O45 2.542877 1_655
Cd11 O41 2.542884 1_555
Cd11 O38 2.542884 1_555
Ge0 O4 1.783755 1_555
Ge0 O11 1.783757 1_555
Ge0 O47 1.783757 1_555
Ge0 O45 1.783759 1_555
Ge1 O8 1.783755 1_555
Ge1 O46 1.783757 1_555
Ge1 O14 1.783757 1_555
Ge1 O44 1.783759 1_555
Ge2 O43 1.783755 1_554
Ge2 O20 1.783757 1_565
Ge2 O41 1.783757 1_555
Ge2 O16 1.783759 1_555
Ge3 O24 1.783755 1_555
Ge3 O36 1.783757 1_555
Ge3 O39 1.783757 1_555
Ge3 O27 1.783759 1_555
Ge4 O26 1.783755 1_555
Ge4 O37 1.783757 1_555
Ge4 O38 1.783757 1_555
Ge4 O25 1.783759 1_555
Ge5 O42 1.783755 1_556
Ge5 O40 1.783757 1_555
Ge5 O22 1.783757 1_545
Ge5 O18 1.783759 1_555
Ge6 O31 1.783755 1_455
Ge6 O32 1.783757 1_556
Ge6 O35 1.783757 1_555
Ge6 O28 1.783759 1_555
Ge7 O29 1.783755 1_655
Ge7 O33 1.783757 1_555
Ge7 O34 1.783757 1_554
Ge7 O30 1.783759 1_555
Ge8 O0 1.783755 1_555
Ge8 O2 1.783757 1_555
Ge8 O19 1.783757 1_555
Ge8 O23 1.783759 1_555
Ge9 O1 1.783755 1_555
Ge9 O17 1.783757 1_555
Ge9 O6 1.783757 1_555
Ge9 O21 1.783759 1_555
Ge10 O15 1.783755 1_545
Ge10 O10 1.783757 1_655
Ge10 O9 1.783757 1_555
Ge10 O3 1.783759 1_555
Ge11 O12 1.783755 1_565
Ge11 O5 1.783757 1_555
Ge11 O13 1.783757 1_455
Ge11 O7 1.783759 1_555
