# generated using pymatgen
data_Cu2GeS4
_symmetry_space_group_name_H-M   'P 1'
_cell_length_a   6.23886893
_cell_length_b   6.23886893
_cell_length_c   6.23886893
_cell_angle_alpha   129.64074126
_cell_angle_beta   129.64074126
_cell_angle_gamma   73.98175549
_symmetry_Int_Tables_number   1
_chemical_formula_structural   Cu2GeS4
_chemical_formula_sum   'Cu2 Ge1 S4'
_cell_volume   140.43999185
_cell_formula_units_Z   1
loop_
 _symmetry_equiv_pos_site_id
 _symmetry_equiv_pos_as_xyz
  1  'x, y, z'
loop_
 _atom_site_type_symbol
 _atom_site_label
 _atom_site_symmetry_multiplicity
 _atom_site_fract_x
 _atom_site_fract_y
 _atom_site_fract_z
 _atom_site_occupancy
  Cu  Cu0  1  0.25000000  0.75000000  0.50000000  1
  Cu  Cu1  1  0.75000000  0.25000000  0.50000000  1
  Ge  Ge0  1  0.50000000  0.50000000  0.00000000  1
  S  S0  1  0.87617700  0.87617700  0.50763800  1
  S  S1  1  0.12382300  0.63146100  0.00000000  1
  S  S2  1  0.36853900  0.36853900  0.49236200  1
  S  S3  1  0.63146100  0.12382300  0.00000000  1
loop_
_geom_bond_atom_site_label_1
_geom_bond_atom_site_label_2
_geom_bond_distance
_geom_bond_site_symmetry_2
Cu0 S3 2.267593 1_566
Cu0 S1 2.267593 1_555
Cu0 S2 2.267593 1_555
Cu0 S0 2.267593 1_455
Cu1 S1 2.267593 1_656
Cu1 S3 2.267593 1_555
Cu1 S2 2.267593 1_555
Cu1 S0 2.267593 1_545
Ge0 S0 2.262387 1_555
Ge0 S1 2.262387 1_555
Ge0 S3 2.262387 1_555
Ge0 S2 2.262387 1_554
