# generated using pymatgen
data_Mg2Ta2WO8
_symmetry_space_group_name_H-M   'P 1'
_cell_length_a   5.27165500
_cell_length_b   6.00661148
_cell_length_c   10.17137977
_cell_angle_alpha   105.85345075
_cell_angle_beta   91.49110982
_cell_angle_gamma   91.22485429
_symmetry_Int_Tables_number   1
_chemical_formula_structural   Mg2Ta2WO8
_chemical_formula_sum   'Mg4 Ta4 W2 O16'
_cell_volume   309.58315270
_cell_formula_units_Z   2
loop_
 _symmetry_equiv_pos_site_id
 _symmetry_equiv_pos_as_xyz
  1  'x, y, z'
loop_
 _atom_site_type_symbol
 _atom_site_label
 _atom_site_symmetry_multiplicity
 _atom_site_fract_x
 _atom_site_fract_y
 _atom_site_fract_z
 _atom_site_occupancy
  Mg  Mg0  1  0.23521100  0.86777900  0.44269100  1
  Mg  Mg1  1  0.24222500  0.42755400  0.54756200  1
  Mg  Mg2  1  0.74415700  0.13716000  0.53734000  1
  Mg  Mg3  1  0.72402100  0.58897300  0.44601900  1
  Ta  Ta0  1  0.25048200  0.03672200  0.75855300  1
  Ta  Ta1  1  0.22036100  0.25439100  0.24854700  1
  Ta  Ta2  1  0.77814700  0.99247100  0.23535800  1
  Ta  Ta3  1  0.75039800  0.71948300  0.76309100  1
  W  W0  1  0.26953800  0.64068100  0.00253600  1
  W  W1  1  0.75862800  0.34792500  0.00634400  1
  O  O0  1  0.92581100  0.03740600  0.85813900  1
  O  O1  1  0.57905300  0.18473100  0.14667400  1
  O  O2  1  0.10594700  0.92398200  0.13422100  1
  O  O3  1  0.42504700  0.81060400  0.85466100  1
  O  O4  1  0.41066700  0.30404000  0.87924700  1
  O  O5  1  0.11172900  0.42621400  0.12161400  1
  O  O6  1  0.62213300  0.68227500  0.11409100  1
  O  O7  1  0.90920200  0.56031400  0.87838600  1
  O  O8  1  0.54534600  0.92486300  0.63517700  1
  O  O9  1  0.93473800  0.30574700  0.39266800  1
  O  O10  1  0.61123300  0.45880300  0.62084700  1
  O  O11  1  0.86763700  0.85362900  0.38892400  1
  O  O12  1  0.36231900  0.55382900  0.39243000  1
  O  O13  1  0.11531900  0.16489600  0.61879200  1
  O  O14  1  0.04394700  0.71994500  0.63907000  1
  O  O15  1  0.43295600  0.09542900  0.37427500  1
loop_
_geom_bond_atom_site_label_1
_geom_bond_atom_site_label_2
_geom_bond_distance
_geom_bond_site_symmetry_2
Mg0 O12 1.952339 1_555
Mg0 O15 1.984299 1_565
Mg0 O11 1.993362 1_455
Mg0 O13 2.270127 1_565
Mg0 O8 2.463004 1_555
Mg0 O14 2.613528 1_555
Mg1 O13 2.016476 1_555
Mg1 O12 2.037460 1_555
Mg1 O10 2.051213 1_555
Mg1 O14 2.068668 1_555
Mg1 O9 2.198089 1_455
Mg1 O15 2.520773 1_555
Mg2 O10 2.034041 1_555
Mg2 O11 2.072900 1_545
Mg2 O13 2.090181 1_655
Mg2 O8 2.098879 1_545
Mg2 O9 2.246717 1_555
Mg2 O15 2.262481 1_555
Mg3 O12 1.960425 1_555
Mg3 O11 1.978222 1_555
Mg3 O9 2.007578 1_555
Mg3 O10 2.218512 1_555
Mg3 O14 2.499190 1_655
Mg3 O8 2.591186 1_555
O0 Ta0 2.010897 1_655
O0 Ta3 2.075036 1_545
O0 W1 2.265228 1_556
O1 Ta2 1.954625 1_545
O1 W1 2.165513 1_555
O1 Ta1 2.173289 1_555
O2 Ta2 2.026157 1_455
O2 Ta1 2.075145 1_565
O2 W0 2.076306 1_555
O3 Ta3 1.988344 1_555
O3 Ta0 2.092653 1_565
O3 W0 2.200738 1_556
O4 Ta0 1.899857 1_555
O4 W1 2.185222 1_556
O4 W0 2.223132 1_556
O5 Ta1 1.942892 1_555
O5 W1 2.146732 1_455
O5 W0 2.162789 1_555
O6 Ta2 2.072559 1_555
O6 W0 2.126118 1_555
O6 W1 2.156954 1_555
O7 Ta3 1.893631 1_555
O7 W1 2.206614 1_556
O7 W0 2.222364 1_656
O8 Ta0 2.031737 1_565
O8 Ta3 2.289944 1_555
O9 Ta1 2.097348 1_655
O9 Ta2 2.236598 1_545
O10 Ta3 1.934206 1_555
O11 Ta2 2.011968 1_555
O12 Ta1 2.093834 1_555
O13 Ta0 1.920929 1_555
O14 Ta3 2.022213 1_455
O14 Ta0 2.205006 1_565
O15 Ta1 2.107464 1_555
O15 Ta2 2.322688 1_545
