# generated using pymatgen
data_UH18C4N10O13
_symmetry_space_group_name_H-M   'P 1'
_cell_length_a   10.13912982
_cell_length_b   14.06511694
_cell_length_c   15.22603145
_cell_angle_alpha   90.00000000
_cell_angle_beta   90.00000000
_cell_angle_gamma   100.70192080
_symmetry_Int_Tables_number   1
_chemical_formula_structural   UH18C4N10O13
_chemical_formula_sum   'U4 H72 C16 N40 O52'
_cell_volume   2133.58730137
_cell_formula_units_Z   4
loop_
 _symmetry_equiv_pos_site_id
 _symmetry_equiv_pos_as_xyz
  1  'x, y, z'
loop_
 _atom_site_type_symbol
 _atom_site_label
 _atom_site_symmetry_multiplicity
 _atom_site_fract_x
 _atom_site_fract_y
 _atom_site_fract_z
 _atom_site_occupancy
  U  U0  1  0.99283472  0.16793203  0.66810049  1
  U  U1  1  0.00716528  0.33206797  0.16810049  1
  U  U2  1  0.00716528  0.83206797  0.33189951  1
  U  U3  1  0.99283472  0.66793203  0.83189951  1
  H  H0  1  0.69170954  0.02465315  0.90325716  1
  H  H1  1  0.30829046  0.47534685  0.40325716  1
  H  H2  1  0.30829046  0.97534685  0.09674284  1
  H  H3  1  0.69170954  0.52465315  0.59674284  1
  H  H4  1  0.71000676  0.08226009  0.79957817  1
  H  H5  1  0.28999324  0.41773991  0.29957817  1
  H  H6  1  0.28999324  0.91773991  0.20042183  1
  H  H7  1  0.71000676  0.58226009  0.70042183  1
  H  H8  1  0.86740192  0.05048232  0.00283423  1
  H  H9  1  0.13259808  0.44951768  0.50283423  1
  H  H10  1  0.13259808  0.94951768  0.99716577  1
  H  H11  1  0.86740192  0.55048232  0.49716577  1
  H  H12  1  0.02031358  0.12360199  0.97241597  1
  H  H13  1  0.97968642  0.37639801  0.47241597  1
  H  H14  1  0.97968642  0.87639801  0.02758403  1
  H  H15  1  0.02031358  0.62360199  0.52758403  1
  H  H16  1  0.52859589  0.30708695  0.72569731  1
  H  H17  1  0.47140411  0.19291305  0.22569731  1
  H  H18  1  0.47140411  0.69291305  0.27430269  1
  H  H19  1  0.52859589  0.80708695  0.77430269  1
  H  H20  1  0.52691933  0.18901480  0.68766916  1
  H  H21  1  0.47308067  0.31098520  0.18766916  1
  H  H22  1  0.47308067  0.81098520  0.31233084  1
  H  H23  1  0.52691933  0.68901480  0.81233084  1
  H  H24  1  0.88431787  0.36504892  0.74015554  1
  H  H25  1  0.11568213  0.13495108  0.24015554  1
  H  H26  1  0.11568213  0.63495108  0.25984446  1
  H  H27  1  0.88431787  0.86504892  0.75984446  1
  H  H28  1  0.73310953  0.40560191  0.75926604  1
  H  H29  1  0.26689047  0.09439809  0.25926604  1
  H  H30  1  0.26689047  0.59439809  0.24073396  1
  H  H31  1  0.73310953  0.90560191  0.74073396  1
  H  H32  1  0.92670271  0.20269974  0.36896240  1
  H  H33  1  0.07329729  0.29730026  0.86896240  1
  H  H34  1  0.07329729  0.79730026  0.63103760  1
  H  H35  1  0.92670271  0.70269974  0.13103760  1
  H  H36  1  0.78177470  0.11973198  0.34415028  1
  H  H37  1  0.21822530  0.38026802  0.84415028  1
  H  H38  1  0.21822530  0.88026802  0.65584972  1
  H  H39  1  0.78177470  0.61973198  0.15584972  1
  H  H40  1  0.65529257  0.03850546  0.46092743  1
  H  H41  1  0.34470743  0.46149454  0.96092743  1
  H  H42  1  0.34470743  0.96149454  0.53907257  1
  H  H43  1  0.65529257  0.53850546  0.03907257  1
  H  H44  1  0.68867222  0.07837543  0.56922681  1
  H  H45  1  0.31132778  0.42162457  0.06922681  1
  H  H46  1  0.31132778  0.92162457  0.43077319  1
  H  H47  1  0.68867222  0.57837543  0.93077319  1
  H  H48  1  0.28733623  0.12452337  0.43695265  1
  H  H49  1  0.71266377  0.37547663  0.93695265  1
  H  H50  1  0.71266377  0.87547663  0.56304735  1
  H  H51  1  0.28733623  0.62452337  0.06304735  1
  H  H52  1  0.41364956  0.22941962  0.43767315  1
  H  H53  1  0.58635044  0.27058038  0.93767315  1
  H  H54  1  0.58635044  0.77058038  0.56232685  1
  H  H55  1  0.41364956  0.72941962  0.06232685  1
  H  H56  1  0.41685653  0.34294909  0.54689919  1
  H  H57  1  0.58314347  0.15705091  0.04689919  1
  H  H58  1  0.58314347  0.65705091  0.45310081  1
  H  H59  1  0.41685653  0.84294909  0.95310081  1
  H  H60  1  0.28956226  0.32746533  0.62698351  1
  H  H61  1  0.71043774  0.17253467  0.12698351  1
  H  H62  1  0.71043774  0.67253467  0.37301649  1
  H  H63  1  0.28956226  0.82746533  0.87301649  1
  H  H64  1  0.19993789  0.10762432  0.80845908  1
  H  H65  1  0.80006211  0.39237568  0.30845908  1
  H  H66  1  0.80006211  0.89237568  0.19154092  1
  H  H67  1  0.19993789  0.60762432  0.69154092  1
  H  H68  1  0.25486623  0.09039373  0.71300450  1
  H  H69  1  0.74513377  0.40960627  0.21300450  1
  H  H70  1  0.74513377  0.90960627  0.28699550  1
  H  H71  1  0.25486623  0.59039373  0.78699550  1
  C  C0  1  0.87700523  0.10784725  0.87748773  1
  C  C1  1  0.12299477  0.39215275  0.37748773  1
  C  C2  1  0.12299477  0.89215275  0.12251227  1
  C  C3  1  0.87700523  0.60784725  0.62251227  1
  C  C4  1  0.71380737  0.26694079  0.71216410  1
  C  C5  1  0.28619263  0.23305921  0.21216410  1
  C  C6  1  0.28619263  0.73305921  0.28783590  1
  C  C7  1  0.71380737  0.76694079  0.78783590  1
  C  C8  1  0.82369839  0.14334599  0.47621577  1
  C  C9  1  0.17630161  0.35665401  0.97621577  1
  C  C10  1  0.17630161  0.85665401  0.52378423  1
  C  C11  1  0.82369839  0.64334599  0.02378423  1
  C  C12  1  0.27343615  0.21818324  0.53702871  1
  C  C13  1  0.72656385  0.28181676  0.03702871  1
  C  C14  1  0.72656385  0.78181676  0.46297129  1
  C  C15  1  0.27343615  0.71818324  0.96297129  1
  N  N0  1  0.74870166  0.06901189  0.85882289  1
  N  N1  1  0.25129834  0.43098811  0.35882289  1
  N  N2  1  0.25129834  0.93098811  0.14117711  1
  N  N3  1  0.74870166  0.56901189  0.64117711  1
  N  N4  1  0.92526130  0.09142114  0.95682552  1
  N  N5  1  0.07473870  0.40857886  0.45682552  1
  N  N6  1  0.07473870  0.90857886  0.04317448  1
  N  N7  1  0.92526130  0.59142114  0.54317448  1
  N  N8  1  0.57937734  0.25396658  0.70820242  1
  N  N9  1  0.42062266  0.24603342  0.20820242  1
  N  N10  1  0.42062266  0.74603342  0.29179758  1
  N  N11  1  0.57937734  0.75396658  0.79179758  1
  N  N12  1  0.78243529  0.35212989  0.74088206  1
  N  N13  1  0.21756471  0.14787011  0.24088206  1
  N  N14  1  0.21756471  0.64787011  0.25911794  1
  N  N15  1  0.78243529  0.85212989  0.75911794  1
  N  N16  1  0.84948588  0.15077847  0.38985050  1
  N  N17  1  0.15051412  0.34922153  0.88985050  1
  N  N18  1  0.15051412  0.84922153  0.61014950  1
  N  N19  1  0.84948588  0.65077847  0.11014950  1
  N  N20  1  0.71257966  0.08322011  0.50428067  1
  N  N21  1  0.28742034  0.41677989  0.00428067  1
  N  N22  1  0.28742034  0.91677989  0.49571933  1
  N  N23  1  0.71257966  0.58322011  0.99571933  1
  N  N24  1  0.33051814  0.18780797  0.46510643  1
  N  N25  1  0.66948186  0.31219203  0.96510643  1
  N  N26  1  0.66948186  0.81219203  0.53489357  1
  N  N27  1  0.33051814  0.68780797  0.03489357  1
  N  N28  1  0.32963638  0.30369947  0.57194457  1
  N  N29  1  0.67036362  0.19630053  0.07194457  1
  N  N30  1  0.67036362  0.69630053  0.42805543  1
  N  N31  1  0.32963638  0.80369947  0.92805543  1
  N  N32  1  0.35408530  0.10853550  0.94372086  1
  N  N33  1  0.64591470  0.39146450  0.44372086  1
  N  N34  1  0.64591470  0.89146450  0.05627914  1
  N  N35  1  0.35408530  0.60853550  0.55627914  1
  N  N36  1  0.46720109  0.97989275  0.69636219  1
  N  N37  1  0.53279891  0.52010725  0.19636219  1
  N  N38  1  0.53279891  0.02010725  0.30363781  1
  N  N39  1  0.46720109  0.47989275  0.80363781  1
  O  O0  1  0.92127945  0.04052277  0.65563925  1
  O  O1  1  0.07872055  0.45947723  0.15563925  1
  O  O2  1  0.07872055  0.95947723  0.34436075  1
  O  O3  1  0.92127945  0.54052277  0.84436075  1
  O  O4  1  0.05689435  0.29657923  0.68342565  1
  O  O5  1  0.94310565  0.20342077  0.18342565  1
  O  O6  1  0.94310565  0.70342077  0.31657435  1
  O  O7  1  0.05689435  0.79657923  0.81657435  1
  O  O8  1  0.95339250  0.16066152  0.82183190  1
  O  O9  1  0.04660750  0.33933848  0.32183190  1
  O  O10  1  0.04660750  0.83933848  0.17816810  1
  O  O11  1  0.95339250  0.66066152  0.67816810  1
  O  O12  1  0.77232816  0.19724961  0.68980299  1
  O  O13  1  0.22767184  0.30275039  0.18980299  1
  O  O14  1  0.22767184  0.80275039  0.31019701  1
  O  O15  1  0.77232816  0.69724961  0.81019701  1
  O  O16  1  0.90509421  0.19426060  0.53004691  1
  O  O17  1  0.09490579  0.30573940  0.03004691  1
  O  O18  1  0.09490579  0.80573940  0.46995309  1
  O  O19  1  0.90509421  0.69426060  0.96995309  1
  O  O20  1  0.16896851  0.16477133  0.57003743  1
  O  O21  1  0.83103149  0.33522867  0.07003743  1
  O  O22  1  0.83103149  0.83522867  0.42996257  1
  O  O23  1  0.16896851  0.66477133  0.92996257  1
  O  O24  1  0.18791261  0.11952830  0.74480629  1
  O  O25  1  0.81208739  0.38047170  0.24480629  1
  O  O26  1  0.81208739  0.88047170  0.25519371  1
  O  O27  1  0.18791261  0.61952830  0.75519371  1
  O  O28  1  0.42277082  0.17389153  0.89756981  1
  O  O29  1  0.57722918  0.32610847  0.39756981  1
  O  O30  1  0.57722918  0.82610847  0.10243019  1
  O  O31  1  0.42277082  0.67389153  0.60243019  1
  O  O32  1  0.40048732  0.08123775  0.01509694  1
  O  O33  1  0.59951268  0.41876225  0.51509694  1
  O  O34  1  0.59951268  0.91876225  0.98490306  1
  O  O35  1  0.40048732  0.58123775  0.48490306  1
  O  O36  1  0.23600797  0.06852728  0.91870758  1
  O  O37  1  0.76399203  0.43147272  0.41870758  1
  O  O38  1  0.76399203  0.93147272  0.08129242  1
  O  O39  1  0.23600797  0.56852728  0.58129242  1
  O  O40  1  0.40008093  0.91752076  0.74636460  1
  O  O41  1  0.59991907  0.58247924  0.24636460  1
  O  O42  1  0.59991907  0.08247924  0.25363540  1
  O  O43  1  0.40008093  0.41752076  0.75363540  1
  O  O44  1  0.59066674  0.98055982  0.68200017  1
  O  O45  1  0.40933326  0.51944018  0.18200017  1
  O  O46  1  0.40933326  0.01944018  0.31799983  1
  O  O47  1  0.59066674  0.48055982  0.81799983  1
  O  O48  1  0.41032180  0.04300169  0.65806563  1
  O  O49  1  0.58967820  0.45699831  0.15806563  1
  O  O50  1  0.58967820  0.95699831  0.34193437  1
  O  O51  1  0.41032180  0.54300169  0.84193437  1
loop_
_geom_bond_atom_site_label_1
_geom_bond_atom_site_label_2
_geom_bond_distance
_geom_bond_site_symmetry_2
H0 N0 1.023233 1_555
H1 N1 1.023233 1_555
H2 N2 1.023233 1_555
H3 N3 1.023233 1_555
H4 N0 1.014650 1_555
H5 N1 1.014650 1_555
H6 N2 1.014650 1_555
H7 N3 1.014650 1_555
H8 N4 1.020291 1_554
H9 N5 1.020291 1_555
H10 N6 1.020291 1_556
H11 N7 1.020291 1_555
H12 N4 1.013913 1_455
H13 N5 1.013913 1_655
H14 N6 1.013913 1_655
H15 N7 1.013913 1_455
H16 N8 1.018409 1_555
H17 N9 1.018409 1_555
H18 N10 1.018409 1_555
H19 N11 1.018409 1_555
H20 N8 1.017230 1_555
H21 N9 1.017230 1_555
H22 N10 1.017230 1_555
H23 N11 1.017230 1_555
H24 N12 1.015144 1_555
H25 N13 1.015144 1_555
H26 N14 1.015144 1_555
H27 N15 1.015144 1_555
H28 N12 1.016764 1_555
H29 N13 1.016764 1_555
H30 N14 1.016764 1_555
H31 N15 1.016764 1_555
H32 N16 1.017381 1_555
H33 N17 1.017381 1_555
H34 N18 1.017381 1_555
H35 N19 1.017381 1_555
H36 N16 1.017277 1_555
H37 N17 1.017277 1_555
H38 N18 1.017277 1_555
H39 N19 1.017277 1_555
H40 N20 1.016351 1_555
H41 N21 1.016351 1_556
H42 N22 1.016351 1_555
H43 N23 1.016351 1_554
H44 N20 1.017416 1_555
H45 N21 1.017416 1_555
H46 N22 1.017416 1_555
H47 N23 1.017416 1_555
H48 N24 1.011434 1_555
H49 N25 1.011434 1_555
H50 N26 1.011434 1_555
H51 N27 1.011434 1_555
H52 N24 1.021884 1_555
H53 N25 1.021884 1_555
H54 N26 1.021884 1_555
H55 N27 1.021884 1_555
H56 N28 1.025142 1_555
H57 N29 1.025142 1_555
H58 N30 1.025142 1_555
H59 N31 1.025142 1_555
H60 N28 1.014671 1_555
H61 N29 1.014671 1_555
H62 N30 1.014671 1_555
H63 N31 1.014671 1_555
H64 O24 0.994882 1_555
H65 O25 0.994882 1_555
H66 O26 0.994882 1_555
H67 O27 0.994882 1_555
H68 O24 0.983128 1_555
H69 O25 0.983128 1_555
H70 O26 0.983128 1_555
H71 O27 0.983128 1_555
C0 O8 1.286896 1_555
C0 N4 1.339408 1_555
C0 N0 1.344442 1_555
C1 O9 1.286896 1_555
C1 N5 1.339408 1_555
C1 N1 1.344442 1_555
C2 O10 1.286896 1_555
C2 N6 1.339408 1_555
C2 N2 1.344442 1_555
C3 O11 1.286896 1_555
C3 N7 1.339408 1_555
C3 N3 1.344442 1_555
C4 O12 1.282503 1_555
C4 N12 1.342160 1_555
C4 N8 1.342513 1_555
C5 O13 1.282503 1_555
C5 N13 1.342160 1_555
C5 N9 1.342513 1_555
C6 O14 1.282503 1_555
C6 N14 1.342160 1_555
C6 N10 1.342513 1_555
C7 O15 1.282503 1_555
C7 N15 1.342160 1_555
C7 N11 1.342513 1_555
C8 O16 1.283052 1_555
C8 N16 1.341031 1_555
C8 N20 1.346567 1_555
C9 O17 1.283052 1_556
C9 N17 1.341031 1_555
C9 N21 1.346567 1_556
C10 O18 1.283052 1_555
C10 N18 1.341031 1_555
C10 N22 1.346567 1_555
C11 O19 1.283052 1_554
C11 N19 1.341031 1_555
C11 N23 1.346567 1_554
C12 O20 1.281937 1_555
C12 N28 1.341453 1_555
C12 N24 1.344824 1_555
C13 O21 1.281937 1_555
C13 N29 1.341453 1_555
C13 N25 1.344824 1_554
C14 O22 1.281937 1_555
C14 N30 1.341453 1_555
C14 N26 1.344824 1_555
C15 O23 1.281937 1_555
C15 N31 1.341453 1_555
C15 N27 1.344824 1_556
N32 O28 1.259372 1_555
N32 O32 1.271585 1_556
N32 O36 1.282492 1_555
N33 O29 1.259372 1_555
N33 O33 1.271585 1_555
N33 O37 1.282492 1_555
N34 O30 1.259372 1_555
N34 O34 1.271585 1_554
N34 O38 1.282492 1_555
N35 O31 1.259372 1_555
N35 O35 1.271585 1_555
N35 O39 1.282492 1_555
N36 O40 1.261206 1_555
N36 O44 1.269108 1_555
N36 O48 1.284764 1_565
N37 O41 1.261206 1_555
N37 O45 1.269108 1_555
N37 O49 1.284764 1_555
N38 O42 1.261206 1_555
N38 O46 1.269108 1_555
N38 O50 1.284764 1_545
N39 O43 1.261206 1_555
N39 O47 1.269108 1_555
N39 O51 1.284764 1_555
O0 U0 1.814071 1_555
O1 U1 1.814071 1_555
O2 U2 1.814071 1_555
O3 U3 1.814071 1_555
O4 U0 1.820409 1_455
O5 U1 1.820409 1_655
O6 U2 1.820409 1_655
O7 U3 1.820409 1_455
O8 U0 2.373639 1_555
O9 U1 2.373639 1_555
O10 U2 2.373639 1_555
O11 U3 2.373639 1_555
O12 U0 2.370693 1_555
O13 U1 2.370693 1_555
O14 U2 2.370693 1_555
O15 U3 2.370693 1_555
O16 U0 2.338661 1_555
O17 U1 2.338661 1_555
O18 U2 2.338661 1_555
O19 U3 2.338661 1_555
O20 U0 2.334541 1_455
O21 U1 2.334541 1_655
O22 U2 2.334541 1_655
O23 U3 2.334541 1_455
O24 U0 2.497965 1_455
O25 U1 2.497965 1_655
O26 U2 2.497965 1_655
O27 U3 2.497965 1_455
