# generated using pymatgen
data_Ba6Mn4Si12Cl3O34
_symmetry_space_group_name_H-M   'P 1'
_cell_length_a   6.99621200
_cell_length_b   9.79161100
_cell_length_c   13.36982925
_cell_angle_alpha   89.86116832
_cell_angle_beta   90.00000000
_cell_angle_gamma   90.00000000
_symmetry_Int_Tables_number   1
_chemical_formula_structural   Ba6Mn4Si12Cl3O34
_chemical_formula_sum   'Ba6 Mn4 Si12 Cl3 O34'
_cell_volume   915.88658599
_cell_formula_units_Z   1
loop_
 _symmetry_equiv_pos_site_id
 _symmetry_equiv_pos_as_xyz
  1  'x, y, z'
loop_
 _atom_site_type_symbol
 _atom_site_label
 _atom_site_symmetry_multiplicity
 _atom_site_fract_x
 _atom_site_fract_y
 _atom_site_fract_z
 _atom_site_occupancy
  Ba  Ba0  1  0.50000000  0.50590600  0.75549000  1
  Ba  Ba1  1  0.50000000  0.47527000  0.23929900  1
  Ba  Ba2  1  0.00000000  0.64630500  0.47362200  1
  Ba  Ba3  1  0.00000000  0.35181300  0.97413100  1
  Ba  Ba4  1  0.50000000  0.98487700  0.42694800  1
  Ba  Ba5  1  0.50000000  0.03651900  0.92057800  1
  Mn  Mn0  1  0.00000000  0.37211000  0.29265500  1
  Mn  Mn1  1  0.00000000  0.62929300  0.79075900  1
  Mn  Mn2  1  0.00000000  0.01816700  0.51487200  1
  Mn  Mn3  1  0.00000000  0.98149400  0.01325100  1
  Si  Si0  1  0.26827100  0.84112100  0.67225100  1
  Si  Si1  1  0.73172900  0.84112100  0.67225100  1
  Si  Si2  1  0.73171800  0.15689800  0.17137600  1
  Si  Si3  1  0.26828200  0.15689800  0.17137600  1
  Si  Si4  1  0.73295900  0.30249600  0.48698700  1
  Si  Si5  1  0.26704100  0.30249600  0.48698700  1
  Si  Si6  1  0.26730300  0.69947300  0.98573900  1
  Si  Si7  1  0.73269700  0.69947300  0.98573900  1
  Si  Si8  1  0.00000000  0.32883000  0.66403600  1
  Si  Si9  1  0.00000000  0.67163800  0.16376300  1
  Si  Si10  1  0.00000000  0.04788500  0.77274500  1
  Si  Si11  1  0.00000000  0.95140100  0.27365100  1
  Cl  Cl0  1  0.50000000  0.67647800  0.41545000  1
  Cl  Cl1  1  0.50000000  0.20338000  0.73382400  1
  Cl  Cl2  1  0.50000000  0.35578000  0.97782000  1
  O  O0  1  0.81309600  0.37059600  0.59293200  1
  O  O1  1  0.18690400  0.37059600  0.59293200  1
  O  O2  1  0.19018000  0.63355700  0.09428400  1
  O  O3  1  0.80982000  0.63355700  0.09428400  1
  O  O4  1  0.18784900  0.94752100  0.75797300  1
  O  O5  1  0.81215100  0.94752100  0.75797300  1
  O  O6  1  0.80847600  0.04744400  0.25717100  1
  O  O7  1  0.19152400  0.04744400  0.25717100  1
  O  O8  1  0.19899400  0.68389400  0.69279200  1
  O  O9  1  0.80100600  0.68389400  0.69279200  1
  O  O10  1  0.80010500  0.31325600  0.19273100  1
  O  O11  1  0.19989500  0.31325600  0.19273100  1
  O  O12  1  0.79650600  0.14485300  0.47430000  1
  O  O13  1  0.20349400  0.14485300  0.47430000  1
  O  O14  1  0.20457700  0.85791500  0.97435600  1
  O  O15  1  0.79542300  0.85791500  0.97435600  1
  O  O16  1  0.00000000  0.41469000  0.76560900  1
  O  O17  1  0.00000000  0.58684800  0.26534700  1
  O  O18  1  0.00000000  0.16082700  0.68003000  1
  O  O19  1  0.00000000  0.83924600  0.18086800  1
  O  O20  1  0.00000000  0.88624000  0.38221000  1
  O  O21  1  0.00000000  0.11357500  0.88171100  1
  O  O22  1  0.20787000  0.88988800  0.56075200  1
  O  O23  1  0.79213000  0.88988800  0.56075200  1
  O  O24  1  0.79461900  0.10777200  0.06061500  1
  O  O25  1  0.20538100  0.10777200  0.06061500  1
  O  O26  1  0.50000000  0.30238600  0.49164300  1
  O  O27  1  0.50000000  0.69823400  0.99390400  1
  O  O28  1  0.50000000  0.84157500  0.68862700  1
  O  O29  1  0.50000000  0.15169300  0.19087400  1
  O  O30  1  0.79423500  0.40235800  0.39434100  1
  O  O31  1  0.20576500  0.40235800  0.39434100  1
  O  O32  1  0.20220100  0.60092500  0.89412300  1
  O  O33  1  0.79779900  0.60092500  0.89412300  1
loop_
_geom_bond_atom_site_label_1
_geom_bond_atom_site_label_2
_geom_bond_distance
_geom_bond_site_symmetry_2
Ba0 O9 2.857926 1_555
Ba0 O8 2.857926 1_555
Ba0 O33 2.941134 1_555
Ba0 O32 2.941134 1_555
Ba0 Cl1 2.977045 1_555
Ba0 Cl2 3.312928 1_555
Ba0 O0 3.360223 1_555
Ba0 O1 3.360223 1_555
Ba0 O28 3.404051 1_555
Ba1 O10 2.705057 1_555
Ba1 O11 2.705057 1_555
Ba1 O30 3.006147 1_555
Ba1 O31 3.006147 1_555
Ba1 Cl0 3.074169 1_555
Ba1 O29 3.235350 1_555
Ba1 O2 3.293170 1_555
Ba1 O3 3.293170 1_555
Ba1 Cl2 3.689206 1_554
Ba2 O20 2.645603 1_555
Ba2 O17 2.846189 1_555
Ba2 O31 2.985593 1_555
Ba2 O30 2.985593 1_455
Ba2 O23 3.028868 1_455
Ba2 O22 3.028868 1_555
Ba2 O8 3.265789 1_555
Ba2 O9 3.265789 1_455
Ba2 O1 3.394341 1_555
Ba2 O0 3.394341 1_455
Ba2 Cl0 3.595527 1_555
Ba2 Cl0 3.595527 1_455
Ba3 O21 2.642427 1_555
Ba3 O16 2.853618 1_555
Ba3 O32 3.013726 1_555
Ba3 O33 3.013726 1_455
Ba3 O25 3.016323 1_556
Ba3 O24 3.016323 1_456
Ba3 O11 3.261114 1_556
Ba3 O10 3.261114 1_456
Ba3 O3 3.461646 1_456
Ba3 O2 3.461646 1_556
Ba3 Cl2 3.498671 1_455
Ba3 Cl2 3.498671 1_555
Ba4 O12 2.676285 1_565
Ba4 O13 2.676285 1_565
Ba4 O22 2.869572 1_555
Ba4 O23 2.869572 1_555
Ba4 Cl0 3.024005 1_555
Ba4 O6 3.190399 1_565
Ba4 O7 3.190399 1_565
Ba4 O26 3.229025 1_565
Ba5 O15 2.800193 1_545
Ba5 O14 2.800193 1_545
Ba5 O24 2.871777 1_556
Ba5 O25 2.871777 1_556
Ba5 Cl1 2.980606 1_555
Ba5 O4 3.203774 1_545
Ba5 O5 3.203774 1_545
Ba5 Cl2 3.220198 1_555
Mn0 O31 2.002587 1_555
Mn0 O30 2.002587 1_455
Mn0 O11 2.019023 1_555
Mn0 O10 2.019023 1_455
Mn0 O17 2.133222 1_555
Mn1 O8 1.983999 1_555
Mn1 O9 1.983999 1_455
Mn1 O32 1.996576 1_555
Mn1 O33 1.996576 1_455
Mn1 O16 2.128847 1_555
Mn2 O13 1.963825 1_555
Mn2 O12 1.963825 1_455
Mn2 O23 2.016237 1_445
Mn2 O22 2.016237 1_545
Mn2 O20 2.196746 1_545
Mn2 O18 2.615732 1_555
Mn3 O14 1.945810 1_554
Mn3 O15 1.945810 1_454
Mn3 O25 1.999573 1_565
Mn3 O24 1.999573 1_465
Mn3 O21 2.180476 1_564
Mn3 O19 2.635716 1_555
O0 Si4 1.664309 1_555
O0 Si8 1.667022 1_655
O1 Si5 1.664309 1_555
O1 Si8 1.667022 1_555
O2 Si9 1.665517 1_555
O2 Si6 1.676076 1_554
O3 Si9 1.665517 1_655
O3 Si7 1.676076 1_554
O4 Si0 1.649631 1_555
O4 Si10 1.653148 1_565
O5 Si1 1.649631 1_555
O5 Si10 1.653148 1_665
O6 Si11 1.651475 1_645
O6 Si2 1.657345 1_555
O7 Si11 1.651475 1_545
O7 Si3 1.657345 1_555
O8 Si0 1.636570 1_555
O9 Si1 1.636570 1_555
O10 Si2 1.629878 1_555
O11 Si3 1.629878 1_555
O12 Si4 1.615653 1_555
O13 Si5 1.615653 1_555
O14 Si6 1.619090 1_555
O15 Si7 1.619090 1_555
O16 Si8 1.598913 1_555
O17 Si9 1.590100 1_555
O18 Si8 1.658346 1_555
O18 Si10 1.659188 1_555
O19 Si9 1.657558 1_555
O19 Si11 1.658740 1_555
O20 Si11 1.584046 1_555
O21 Si10 1.593955 1_555
O22 Si0 1.620306 1_555
O23 Si1 1.620306 1_555
O24 Si2 1.619083 1_555
O25 Si3 1.619083 1_555
O26 Si4 1.631019 1_555
O26 Si5 1.631019 1_555
O27 Si7 1.631697 1_555
O27 Si6 1.631697 1_555
O28 Si1 1.635950 1_555
O28 Si0 1.635950 1_555
O29 Si2 1.642745 1_555
O29 Si3 1.642745 1_555
O30 Si4 1.633496 1_555
O31 Si5 1.633496 1_555
O32 Si6 1.626238 1_555
O33 Si7 1.626238 1_555
