# generated using pymatgen
data_Na5AgGe2S7
_symmetry_space_group_name_H-M   'P 1'
_cell_length_a   6.93373472
_cell_length_b   6.93373472
_cell_length_c   14.97882226
_cell_angle_alpha   80.80596092
_cell_angle_beta   80.80596092
_cell_angle_gamma   96.52504760
_symmetry_Int_Tables_number   1
_chemical_formula_structural   Na5AgGe2S7
_chemical_formula_sum   'Na10 Ag2 Ge4 S14'
_cell_volume   694.55454087
_cell_formula_units_Z   2
loop_
 _symmetry_equiv_pos_site_id
 _symmetry_equiv_pos_as_xyz
  1  'x, y, z'
loop_
 _atom_site_type_symbol
 _atom_site_label
 _atom_site_symmetry_multiplicity
 _atom_site_fract_x
 _atom_site_fract_y
 _atom_site_fract_z
 _atom_site_occupancy
  Na  Na0  1  0.02359500  0.73644300  0.58123000  1
  Na  Na1  1  0.26355700  0.97640500  0.91877000  1
  Na  Na2  1  0.97640500  0.26355700  0.41877000  1
  Na  Na3  1  0.73644300  0.02359500  0.08123000  1
  Na  Na4  1  0.50000000  0.50000000  0.50000000  1
  Na  Na5  1  0.50000000  0.50000000  0.00000000  1
  Na  Na6  1  0.96230800  0.51689900  0.14022600  1
  Na  Na7  1  0.48310100  0.03769200  0.35977400  1
  Na  Na8  1  0.03769200  0.48310100  0.85977400  1
  Na  Na9  1  0.51689900  0.96230800  0.64022600  1
  Ag  Ag0  1  0.41460200  0.58539800  0.25000000  1
  Ag  Ag1  1  0.58539800  0.41460200  0.75000000  1
  Ge  Ge0  1  0.91936200  0.76313600  0.35903800  1
  Ge  Ge1  1  0.23686400  0.08063800  0.14096200  1
  Ge  Ge2  1  0.08063800  0.23686400  0.64096200  1
  Ge  Ge3  1  0.76313600  0.91936200  0.85903800  1
  S  S0  1  0.73905700  0.87024600  0.47246800  1
  S  S1  1  0.12975400  0.26094300  0.02753200  1
  S  S2  1  0.26094300  0.12975400  0.52753200  1
  S  S3  1  0.87024600  0.73905700  0.97246800  1
  S  S4  1  0.20142900  0.67776000  0.39203800  1
  S  S5  1  0.32224000  0.79857100  0.10796200  1
  S  S6  1  0.79857100  0.32224000  0.60796200  1
  S  S7  1  0.67776000  0.20142900  0.89203800  1
  S  S8  1  0.74511400  0.51786000  0.31568000  1
  S  S9  1  0.48214000  0.25488600  0.18432000  1
  S  S10  1  0.25488600  0.48214000  0.68432000  1
  S  S11  1  0.51786000  0.74511400  0.81568000  1
  S  S12  1  0.95765600  0.04234400  0.25000000  1
  S  S13  1  0.04234400  0.95765600  0.75000000  1
loop_
_geom_bond_atom_site_label_1
_geom_bond_atom_site_label_2
_geom_bond_distance
_geom_bond_site_symmetry_2
Na0 S0 2.892623 1_455
Na0 S10 2.937585 1_555
Na0 S2 2.940832 1_565
Na0 S4 3.013750 1_555
Na0 S6 3.042600 1_455
Na0 S13 3.171590 1_555
Na1 S1 2.892623 1_566
Na1 S11 2.937585 1_555
Na1 S3 2.940832 1_455
Na1 S5 3.013750 1_556
Na1 S7 3.042600 1_565
Na1 S13 3.171590 1_555
Na2 S2 2.892623 1_655
Na2 S8 2.937585 1_555
Na2 S0 2.940832 1_545
Na2 S6 3.013750 1_555
Na2 S4 3.042600 1_655
Na2 S12 3.171590 1_555
Na3 S3 2.892623 1_544
Na3 S9 2.937585 1_555
Na3 S1 2.940832 1_655
Na3 S7 3.013750 1_554
Na3 S5 3.042600 1_545
Na3 S12 3.171590 1_555
Na4 S0 2.825624 1_555
Na4 S2 2.825624 1_555
Na4 S8 2.978226 1_555
Na4 S10 2.978226 1_555
Na4 S6 3.071301 1_555
Na4 S4 3.071301 1_555
Na5 S3 2.825624 1_554
Na5 S1 2.825624 1_555
Na5 S11 2.978226 1_554
Na5 S9 2.978226 1_555
Na5 S5 3.071301 1_555
Na5 S7 3.071301 1_554
Na6 S8 2.813891 1_555
Na6 S1 2.854194 1_655
Na6 S5 2.912301 1_655
Na6 S3 2.931492 1_554
Na7 S9 2.813891 1_555
Na7 S0 2.854194 1_545
Na7 S4 2.912301 1_545
Na7 S2 2.931492 1_555
Na8 S10 2.813891 1_555
Na8 S3 2.854194 1_455
Na8 S7 2.912301 1_455
Na8 S1 2.931492 1_556
Na9 S11 2.813891 1_555
Na9 S2 2.854194 1_565
Na9 S6 2.912301 1_565
Na9 S0 2.931492 1_555
Ag0 S4 2.601347 1_555
Ag0 S5 2.601347 1_555
Ag0 S8 2.693721 1_555
Ag0 S9 2.693721 1_555
Ag1 S6 2.601347 1_555
Ag1 S7 2.601347 1_555
Ag1 S11 2.693721 1_555
Ag1 S10 2.693721 1_555
Ge0 S4 2.213231 1_655
Ge0 S8 2.215970 1_555
Ge0 S0 2.221883 1_555
Ge0 S12 2.284763 1_565
Ge1 S5 2.213231 1_545
Ge1 S9 2.215970 1_555
Ge1 S1 2.221883 1_555
Ge1 S12 2.284763 1_455
Ge2 S6 2.213231 1_455
Ge2 S10 2.215970 1_555
Ge2 S2 2.221883 1_555
Ge2 S13 2.284763 1_545
Ge3 S7 2.213231 1_565
Ge3 S11 2.215970 1_555
Ge3 S3 2.221883 1_555
Ge3 S13 2.284763 1_655
