# generated using pymatgen
data_AlMo(WO4)2
_symmetry_space_group_name_H-M   'P 1'
_cell_length_a   5.68198900
_cell_length_b   5.21167000
_cell_length_c   10.49604007
_cell_angle_alpha   61.90726830
_cell_angle_beta   90.00000000
_cell_angle_gamma   90.00000000
_symmetry_Int_Tables_number   1
_chemical_formula_structural   AlMo(WO4)2
_chemical_formula_sum   'Al2 Mo2 W4 O16'
_cell_volume   274.19734077
_cell_formula_units_Z   2
loop_
 _symmetry_equiv_pos_site_id
 _symmetry_equiv_pos_as_xyz
  1  'x, y, z'
loop_
 _atom_site_type_symbol
 _atom_site_label
 _atom_site_symmetry_multiplicity
 _atom_site_fract_x
 _atom_site_fract_y
 _atom_site_fract_z
 _atom_site_occupancy
  Al  Al0  1  0.66140100  0.00000000  0.25000000  1
  Al  Al1  1  0.33859900  0.00000000  0.75000000  1
  Mo  Mo0  1  0.36125700  0.50000000  0.25000000  1
  Mo  Mo1  1  0.63874300  0.50000000  0.75000000  1
  W  W0  1  0.15927200  0.25268800  0.99857700  1
  W  W1  1  0.15927200  0.74731200  0.50142300  1
  W  W2  1  0.84072800  0.74731200  0.00142300  1
  W  W3  1  0.84072800  0.25268800  0.49857700  1
  O  O0  1  0.38513500  0.74575500  0.36756300  1
  O  O1  1  0.38513500  0.25424500  0.13243700  1
  O  O2  1  0.61486500  0.25424500  0.63243700  1
  O  O3  1  0.61486500  0.74575500  0.86756300  1
  O  O4  1  0.89148100  0.19170400  0.89026500  1
  O  O5  1  0.89148100  0.80829600  0.60973500  1
  O  O6  1  0.10851900  0.80829600  0.10973500  1
  O  O7  1  0.10851900  0.19170400  0.39026500  1
  O  O8  1  0.63348100  0.19752200  0.36043800  1
  O  O9  1  0.63348100  0.80247800  0.13956200  1
  O  O10  1  0.36651900  0.80247800  0.63956200  1
  O  O11  1  0.36651900  0.19752200  0.86043800  1
  O  O12  1  0.87619900  0.69409800  0.38473800  1
  O  O13  1  0.12380100  0.30590200  0.61526200  1
  O  O14  1  0.87619900  0.30590200  0.11526200  1
  O  O15  1  0.12380100  0.69409800  0.88473800  1
loop_
_geom_bond_atom_site_label_1
_geom_bond_atom_site_label_2
_geom_bond_distance
_geom_bond_site_symmetry_2
Al0 O8 1.884766 1_555
Al0 O9 1.884766 1_545
Al0 O14 1.976824 1_555
Al0 O12 1.976824 1_545
Al0 O0 2.050017 1_545
Al0 O1 2.050017 1_555
Al1 O10 1.884766 1_545
Al1 O11 1.884766 1_555
Al1 O13 1.976824 1_555
Al1 O15 1.976824 1_545
Al1 O2 2.050017 1_555
Al1 O3 2.050017 1_545
Mo0 O8 2.121386 1_555
Mo0 O9 2.121386 1_555
Mo0 O7 2.140911 1_555
Mo0 O6 2.140911 1_555
Mo0 O0 2.160998 1_555
Mo0 O1 2.160998 1_555
Mo1 O10 2.121386 1_555
Mo1 O11 2.121386 1_555
Mo1 O4 2.140911 1_555
Mo1 O5 2.140911 1_555
Mo1 O3 2.160998 1_555
Mo1 O2 2.160998 1_555
O0 W1 1.905733 1_555
O1 W0 1.905733 1_554
O2 W3 1.905733 1_555
O3 W2 1.905733 1_556
O4 W0 2.012201 1_655
O4 W2 2.064820 1_546
O5 W1 2.012201 1_655
O5 W3 2.064820 1_565
O6 W2 2.012201 1_455
O6 W0 2.064820 1_564
O7 W3 2.012201 1_455
O7 W1 2.064820 1_545
O8 W3 1.991027 1_555
O9 W2 1.991027 1_555
O10 W1 1.991027 1_555
O11 W0 1.991027 1_555
O12 W3 2.042488 1_555
O12 W1 2.117493 1_655
O13 W1 2.042488 1_555
O13 W3 2.117493 1_455
O14 W2 2.042488 1_555
O14 W0 2.117493 1_654
O15 W0 2.042488 1_555
O15 W2 2.117493 1_456
