# generated using pymatgen
data_AgAuF7
_symmetry_space_group_name_H-M   'P 1'
_cell_length_a   7.09745072
_cell_length_b   7.74757310
_cell_length_c   10.09528929
_cell_angle_alpha   90.00000000
_cell_angle_beta   90.00000000
_cell_angle_gamma   90.00000000
_symmetry_Int_Tables_number   1
_chemical_formula_structural   AgAuF7
_chemical_formula_sum   'Ag4 Au4 F28'
_cell_volume   555.11995199
_cell_formula_units_Z   4
loop_
 _symmetry_equiv_pos_site_id
 _symmetry_equiv_pos_as_xyz
  1  'x, y, z'
loop_
 _atom_site_type_symbol
 _atom_site_label
 _atom_site_symmetry_multiplicity
 _atom_site_fract_x
 _atom_site_fract_y
 _atom_site_fract_z
 _atom_site_occupancy
  Ag  Ag0  1  0.75000000  0.86712809  0.74234898  1
  Ag  Ag1  1  0.75000000  0.36712809  0.75765102  1
  Ag  Ag2  1  0.25000000  0.13287191  0.25765102  1
  Ag  Ag3  1  0.25000000  0.63287191  0.24234898  1
  Au  Au0  1  0.25000000  0.80496226  0.55629580  1
  Au  Au1  1  0.25000000  0.30496226  0.94370420  1
  Au  Au2  1  0.75000000  0.19503774  0.44370420  1
  Au  Au3  1  0.75000000  0.69503774  0.05629580  1
  F  F0  1  0.75000000  0.61408628  0.69674073  1
  F  F1  1  0.75000000  0.11408628  0.80325927  1
  F  F2  1  0.25000000  0.38591372  0.30325927  1
  F  F3  1  0.25000000  0.88591372  0.19674073  1
  F  F4  1  0.75000000  0.96674799  0.52462679  1
  F  F5  1  0.75000000  0.46674799  0.97537321  1
  F  F6  1  0.25000000  0.03325201  0.47537321  1
  F  F7  1  0.25000000  0.53325201  0.02462679  1
  F  F8  1  0.93378147  0.77319420  0.92874876  1
  F  F9  1  0.56621853  0.27319420  0.57125124  1
  F  F10  1  0.43378147  0.22680580  0.07125124  1
  F  F11  1  0.06621853  0.72680580  0.42874876  1
  F  F12  1  0.06621853  0.22680580  0.07125124  1
  F  F13  1  0.43378147  0.72680580  0.42874876  1
  F  F14  1  0.56621853  0.77319420  0.92874876  1
  F  F15  1  0.93378147  0.27319420  0.57125124  1
  F  F16  1  0.43779566  0.88169801  0.68113831  1
  F  F17  1  0.06220434  0.38169801  0.81886169  1
  F  F18  1  0.93779566  0.11830199  0.31886169  1
  F  F19  1  0.56220434  0.61830199  0.18113831  1
  F  F20  1  0.56220434  0.11830199  0.31886169  1
  F  F21  1  0.93779566  0.61830199  0.18113831  1
  F  F22  1  0.06220434  0.88169801  0.68113831  1
  F  F23  1  0.43779566  0.38169801  0.81886169  1
  F  F24  1  0.25000000  0.58264073  0.63559493  1
  F  F25  1  0.25000000  0.08264073  0.86440507  1
  F  F26  1  0.75000000  0.41735927  0.36440507  1
  F  F27  1  0.75000000  0.91735927  0.13559493  1
loop_
_geom_bond_atom_site_label_1
_geom_bond_atom_site_label_2
_geom_bond_distance
_geom_bond_site_symmetry_2
Ag0 F1 2.009709 1_565
Ag0 F0 2.013802 1_555
Ag0 F16 2.303173 1_555
Ag0 F22 2.303173 1_655
Ag0 F4 2.329541 1_555
Ag0 F8 2.402511 1_555
Ag0 F14 2.402511 1_555
Ag1 F0 2.009709 1_555
Ag1 F1 2.013802 1_555
Ag1 F23 2.303173 1_555
Ag1 F17 2.303173 1_655
Ag1 F5 2.329541 1_555
Ag1 F15 2.402511 1_555
Ag1 F9 2.402511 1_555
Ag2 F3 2.009709 1_545
Ag2 F2 2.013802 1_555
Ag2 F20 2.303173 1_555
Ag2 F18 2.303173 1_455
Ag2 F6 2.329541 1_555
Ag2 F12 2.402511 1_555
Ag2 F10 2.402511 1_555
Ag3 F2 2.009709 1_555
Ag3 F3 2.013802 1_555
Ag3 F21 2.303173 1_455
Ag3 F19 2.303173 1_555
Ag3 F7 2.329541 1_555
Ag3 F13 2.402511 1_555
Ag3 F11 2.402511 1_555
Au0 F24 1.899400 1_555
Au0 F22 1.928316 1_555
Au0 F16 1.928316 1_555
Au0 F11 1.930296 1_555
Au0 F13 1.930296 1_555
Au0 F6 1.948244 1_565
Au1 F25 1.899400 1_555
Au1 F17 1.928316 1_555
Au1 F23 1.928316 1_555
Au1 F10 1.930296 1_556
Au1 F12 1.930296 1_556
Au1 F7 1.948244 1_556
Au2 F26 1.899400 1_555
Au2 F20 1.928316 1_555
Au2 F18 1.928316 1_555
Au2 F15 1.930296 1_555
Au2 F9 1.930296 1_555
Au2 F4 1.948244 1_545
Au3 F27 1.899400 1_555
Au3 F21 1.928316 1_555
Au3 F19 1.928316 1_555
Au3 F14 1.930296 1_554
Au3 F8 1.930296 1_554
Au3 F5 1.948244 1_554
