# generated using pymatgen
data_Li8Sm7Ge10
_symmetry_space_group_name_H-M   'P 1'
_cell_length_a   16.98380630
_cell_length_b   16.98380630
_cell_length_c   4.42022900
_cell_angle_alpha   90.00000000
_cell_angle_beta   90.00000000
_cell_angle_gamma   156.91293775
_symmetry_Int_Tables_number   1
_chemical_formula_structural   Li8Sm7Ge10
_chemical_formula_sum   'Li8 Sm7 Ge10'
_cell_volume   499.97033441
_cell_formula_units_Z   1
loop_
 _symmetry_equiv_pos_site_id
 _symmetry_equiv_pos_as_xyz
  1  'x, y, z'
loop_
 _atom_site_type_symbol
 _atom_site_label
 _atom_site_symmetry_multiplicity
 _atom_site_fract_x
 _atom_site_fract_y
 _atom_site_fract_z
 _atom_site_occupancy
  Li  Li0  1  0.26553200  0.11577200  0.50000000  1
  Li  Li1  1  0.73446800  0.88422800  0.50000000  1
  Li  Li2  1  0.11577200  0.26553200  0.50000000  1
  Li  Li3  1  0.88422800  0.73446800  0.50000000  1
  Li  Li4  1  0.45452000  0.16820500  0.00000000  1
  Li  Li5  1  0.54548000  0.83179500  0.00000000  1
  Li  Li6  1  0.16820500  0.45452000  0.00000000  1
  Li  Li7  1  0.83179500  0.54548000  0.00000000  1
  Sm  Sm0  1  0.16227100  0.83772900  0.50000000  1
  Sm  Sm1  1  0.83772900  0.16227100  0.50000000  1
  Sm  Sm2  1  0.27934800  0.72065200  0.50000000  1
  Sm  Sm3  1  0.72065200  0.27934800  0.50000000  1
  Sm  Sm4  1  0.44364500  0.55635500  0.00000000  1
  Sm  Sm5  1  0.55635500  0.44364500  0.00000000  1
  Sm  Sm6  1  0.00000000  0.00000000  0.00000000  1
  Ge  Ge0  1  0.40105800  0.97132400  0.00000000  1
  Ge  Ge1  1  0.59894200  0.02867600  0.00000000  1
  Ge  Ge2  1  0.97132400  0.40105800  0.00000000  1
  Ge  Ge3  1  0.02867600  0.59894200  0.00000000  1
  Ge  Ge4  1  0.37390200  0.62609800  0.50000000  1
  Ge  Ge5  1  0.62609800  0.37390200  0.50000000  1
  Ge  Ge6  1  0.09372400  0.90627600  0.00000000  1
  Ge  Ge7  1  0.90627600  0.09372400  0.00000000  1
  Ge  Ge8  1  0.31192300  0.31192300  0.50000000  1
  Ge  Ge9  1  0.68807700  0.68807700  0.50000000  1
loop_
_geom_bond_atom_site_label_1
_geom_bond_atom_site_label_2
_geom_bond_distance
_geom_bond_site_symmetry_2
Li0 Sm5 3.112272 1_555
Li0 Sm5 3.112272 1_556
Li0 Sm0 3.184075 1_545
Li1 Sm4 3.112272 1_555
Li1 Sm4 3.112272 1_556
Li1 Sm1 3.184075 1_565
Li2 Sm4 3.112272 1_555
Li2 Sm4 3.112272 1_556
Li2 Sm1 3.184075 1_455
Li3 Sm5 3.112272 1_556
Li3 Sm5 3.112272 1_555
Li3 Sm0 3.184075 1_655
Li4 Sm0 3.125467 1_545
Li4 Sm0 3.125467 1_544
Li4 Sm5 3.160615 1_555
Li5 Sm1 3.125467 1_565
Li5 Sm1 3.125467 1_564
Li5 Sm4 3.160615 1_555
Li6 Sm1 3.125467 1_455
Li6 Sm1 3.125467 1_454
Li6 Sm4 3.160615 1_555
Li7 Sm0 3.125467 1_655
Li7 Sm0 3.125467 1_654
Li7 Sm5 3.160615 1_555
Ge0 Ge1 2.494200 1_565
Ge0 Ge3 2.531207 1_555
Ge0 Li4 2.533663 1_565
Ge0 Sm3 3.077604 1_564
Ge0 Sm3 3.077604 1_565
Ge0 Sm0 3.090363 1_554
Ge0 Sm0 3.090363 1_555
Ge0 Sm2 3.330393 1_555
Ge0 Sm2 3.330393 1_554
Ge1 Ge2 2.531207 1_555
Ge1 Li5 2.533663 1_545
Ge1 Sm2 3.077604 1_545
Ge1 Sm2 3.077604 1_544
Ge1 Sm1 3.090363 1_554
Ge1 Sm1 3.090363 1_555
Ge1 Sm3 3.330393 1_555
Ge1 Sm3 3.330393 1_554
Ge2 Ge3 2.494200 1_655
Ge2 Li6 2.533663 1_655
Ge2 Sm2 3.077604 1_655
Ge2 Sm2 3.077604 1_654
Ge2 Sm1 3.090363 1_554
Ge2 Sm1 3.090363 1_555
Ge2 Sm3 3.330393 1_554
Ge2 Sm3 3.330393 1_555
Ge3 Li7 2.533663 1_455
Ge3 Sm3 3.077604 1_455
Ge3 Sm3 3.077604 1_454
Ge3 Sm0 3.090363 1_555
Ge3 Sm0 3.090363 1_554
Ge3 Sm2 3.330393 1_555
Ge3 Sm2 3.330393 1_554
Ge4 Li6 2.617454 1_555
Ge4 Li6 2.617454 1_556
Ge4 Li5 2.617454 1_555
Ge4 Li5 2.617454 1_556
Ge4 Li2 2.706855 1_555
Ge4 Li1 2.706855 1_555
Ge4 Sm2 3.146809 1_555
Ge4 Sm4 3.205003 1_555
Ge4 Sm4 3.205003 1_556
Ge5 Li4 2.617454 1_555
Ge5 Li4 2.617454 1_556
Ge5 Li7 2.617454 1_555
Ge5 Li7 2.617454 1_556
Ge5 Li0 2.706855 1_555
Ge5 Li3 2.706855 1_555
Ge5 Sm3 3.146809 1_555
Ge5 Sm5 3.205003 1_556
Ge5 Sm5 3.205003 1_555
Ge6 Li3 2.637676 1_455
Ge6 Li3 2.637676 1_454
Ge6 Li0 2.637676 1_564
Ge6 Li0 2.637676 1_565
Ge6 Li7 2.680653 1_455
Ge6 Li4 2.680653 1_565
Ge6 Sm6 3.119186 1_565
Ge6 Sm0 3.176295 1_554
Ge6 Sm0 3.176295 1_555
Ge7 Li1 2.637676 1_545
Ge7 Li1 2.637676 1_544
Ge7 Li2 2.637676 1_655
Ge7 Li2 2.637676 1_654
Ge7 Li5 2.680653 1_545
Ge7 Li6 2.680653 1_655
Ge7 Sm6 3.119186 1_655
Ge7 Sm1 3.176295 1_554
Ge7 Sm1 3.176295 1_555
Ge8 Ge9 2.556847 1_555
Ge8 Li2 2.624844 1_555
Ge8 Li0 2.624844 1_555
Ge8 Sm6 3.062687 1_555
Ge8 Sm6 3.062687 1_556
Ge8 Sm4 3.168054 1_556
Ge8 Sm4 3.168054 1_555
Ge8 Sm5 3.168054 1_556
Ge8 Sm5 3.168054 1_555
Ge9 Li1 2.624844 1_555
Ge9 Li3 2.624844 1_555
Ge9 Sm6 3.062687 1_665
Ge9 Sm6 3.062687 1_666
Ge9 Sm4 3.168054 1_556
Ge9 Sm5 3.168054 1_556
Ge9 Sm5 3.168054 1_555
Ge9 Sm4 3.168054 1_555
