# generated using pymatgen
data_BaYZn3GaO7
_symmetry_space_group_name_H-M   'P 1'
_cell_length_a   6.43487902
_cell_length_b   6.43487902
_cell_length_c   10.39218100
_cell_angle_alpha   90.00000000
_cell_angle_beta   90.00000000
_cell_angle_gamma   120.00001052
_symmetry_Int_Tables_number   1
_chemical_formula_structural   BaYZn3GaO7
_chemical_formula_sum   'Ba2 Y2 Zn6 Ga2 O14'
_cell_volume   372.66453179
_cell_formula_units_Z   2
loop_
 _symmetry_equiv_pos_site_id
 _symmetry_equiv_pos_as_xyz
  1  'x, y, z'
loop_
 _atom_site_type_symbol
 _atom_site_label
 _atom_site_symmetry_multiplicity
 _atom_site_fract_x
 _atom_site_fract_y
 _atom_site_fract_z
 _atom_site_occupancy
  Ba  Ba0  1  0.66666700  0.33333300  0.99096500  1
  Ba  Ba1  1  0.33333300  0.66666700  0.49096500  1
  Y  Y0  1  0.66666700  0.33333300  0.63425700  1
  Y  Y1  1  0.33333300  0.66666700  0.13425700  1
  Zn  Zn0  1  0.17062900  0.82937100  0.81713300  1
  Zn  Zn1  1  0.65874200  0.82937100  0.81713300  1
  Zn  Zn2  1  0.17062900  0.34125800  0.81713300  1
  Zn  Zn3  1  0.82937100  0.17062900  0.31713300  1
  Zn  Zn4  1  0.34125800  0.17062900  0.31713300  1
  Zn  Zn5  1  0.82937100  0.65874200  0.31713300  1
  Ga  Ga0  1  0.00000000  0.00000000  0.06708600  1
  Ga  Ga1  1  0.00000000  0.00000000  0.56708600  1
  O  O0  1  0.50533700  0.49466300  0.76332000  1
  O  O1  1  0.98932600  0.49466300  0.76332000  1
  O  O2  1  0.50533700  0.01067400  0.76332000  1
  O  O3  1  0.49466300  0.50533700  0.26332000  1
  O  O4  1  0.01067400  0.50533700  0.26332000  1
  O  O5  1  0.49466300  0.98932600  0.26332000  1
  O  O6  1  0.00000000  0.00000000  0.24878500  1
  O  O7  1  0.00000000  0.00000000  0.74878500  1
  O  O8  1  0.15908800  0.84091200  0.01026600  1
  O  O9  1  0.68182400  0.84091200  0.01026600  1
  O  O10  1  0.15908800  0.31817600  0.01026600  1
  O  O11  1  0.84091200  0.15908800  0.51026600  1
  O  O12  1  0.31817600  0.15908800  0.51026600  1
  O  O13  1  0.84091200  0.68182400  0.51026600  1
loop_
_geom_bond_atom_site_label_1
_geom_bond_atom_site_label_2
_geom_bond_distance
_geom_bond_site_symmetry_2
Ba0 O2 2.971506 1_555
Ba0 O1 2.971506 1_555
Ba0 O0 2.971509 1_555
Ba0 O9 3.224789 1_546
Ba0 O10 3.224789 1_656
Ba0 O8 3.224792 1_546
Ba0 O8 3.224792 1_656
Ba0 O10 3.224795 1_556
Ba0 O9 3.224795 1_556
Ba0 O5 3.418496 1_546
Ba0 O4 3.418496 1_656
Ba0 O3 3.418499 1_556
Ba1 O4 2.971506 1_555
Ba1 O5 2.971506 1_555
Ba1 O3 2.971509 1_555
Ba1 O13 3.224789 1_455
Ba1 O12 3.224789 1_565
Ba1 O11 3.224792 1_455
Ba1 O11 3.224792 1_565
Ba1 O12 3.224795 1_555
Ba1 O13 3.224795 1_555
Ba1 O1 3.418496 1_455
Ba1 O2 3.418496 1_565
Ba1 O0 3.418499 1_555
Ga0 O9 1.868858 1_445
Ga0 O10 1.868858 1_555
Ga0 O8 1.868858 1_545
Ga0 O6 1.888249 1_555
Ga1 O13 1.868858 1_445
Ga1 O12 1.868858 1_555
Ga1 O11 1.868858 1_455
Ga1 O7 1.888249 1_555
O0 Zn1 1.949348 1_555
O0 Zn2 1.949348 1_555
O0 Y0 2.243243 1_555
O1 Zn0 1.949348 1_655
O1 Zn2 1.949348 1_655
O1 Y0 2.243238 1_555
O2 Zn0 1.949348 1_545
O2 Zn1 1.949348 1_545
O2 Y0 2.243238 1_555
O3 Zn5 1.949348 1_555
O3 Zn4 1.949348 1_555
O3 Y1 2.243243 1_555
O4 Zn3 1.949348 1_455
O4 Zn5 1.949348 1_455
O4 Y1 2.243238 1_555
O5 Zn3 1.949348 1_565
O5 Zn4 1.949348 1_565
O5 Y1 2.243238 1_555
O6 Zn5 2.030065 1_445
O6 Zn4 2.030065 1_555
O6 Zn3 2.030065 1_455
O7 Zn1 2.030065 1_445
O7 Zn2 2.030065 1_555
O7 Zn0 2.030065 1_545
O8 Zn0 2.011191 1_554
O8 Y1 2.330644 1_555
O9 Zn1 2.011191 1_554
O9 Y1 2.330649 1_555
O10 Zn2 2.011191 1_554
O10 Y1 2.330649 1_555
O11 Zn3 2.011191 1_555
O11 Y0 2.330644 1_555
O12 Zn4 2.011191 1_555
O12 Y0 2.330649 1_555
O13 Zn5 2.011191 1_555
O13 Y0 2.330649 1_555
