# generated using pymatgen
data_Ca3ScFe(SiO4)3
_symmetry_space_group_name_H-M   'P 1'
_cell_length_a   10.58335178
_cell_length_b   10.58335178
_cell_length_c   10.58335178
_cell_angle_alpha   109.47122063
_cell_angle_beta   109.47122063
_cell_angle_gamma   109.47122063
_symmetry_Int_Tables_number   1
_chemical_formula_structural   Ca3ScFe(SiO4)3
_chemical_formula_sum   'Ca12 Sc4 Fe4 Si12 O48'
_cell_volume   912.53137419
_cell_formula_units_Z   4
loop_
 _symmetry_equiv_pos_site_id
 _symmetry_equiv_pos_as_xyz
  1  'x, y, z'
loop_
 _atom_site_type_symbol
 _atom_site_label
 _atom_site_symmetry_multiplicity
 _atom_site_fract_x
 _atom_site_fract_y
 _atom_site_fract_z
 _atom_site_occupancy
  Ca  Ca0  1  0.12393400  0.37393400  0.75000000  1
  Ca  Ca1  1  0.37606600  0.12606600  0.25000000  1
  Ca  Ca2  1  0.25000000  0.37606600  0.12606600  1
  Ca  Ca3  1  0.75000000  0.12393400  0.37393400  1
  Ca  Ca4  1  0.12606600  0.25000000  0.37606600  1
  Ca  Ca5  1  0.37393400  0.75000000  0.12393400  1
  Ca  Ca6  1  0.87606600  0.62606600  0.25000000  1
  Ca  Ca7  1  0.62393400  0.87393400  0.75000000  1
  Ca  Ca8  1  0.75000000  0.62393400  0.87393400  1
  Ca  Ca9  1  0.25000000  0.87606600  0.62606600  1
  Ca  Ca10  1  0.87393400  0.75000000  0.62393400  1
  Ca  Ca11  1  0.62606600  0.25000000  0.87606600  1
  Sc  Sc0  1  0.50000000  0.50000000  0.00000000  1
  Sc  Sc1  1  0.00000000  0.50000000  0.50000000  1
  Sc  Sc2  1  0.00000000  0.00000000  0.00000000  1
  Sc  Sc3  1  0.50000000  0.00000000  0.50000000  1
  Fe  Fe0  1  0.00000000  0.50000000  0.00000000  1
  Fe  Fe1  1  0.50000000  0.50000000  0.50000000  1
  Fe  Fe2  1  0.00000000  0.00000000  0.50000000  1
  Fe  Fe3  1  0.50000000  0.00000000  0.00000000  1
  Si  Si0  1  0.87663000  0.12663000  0.75000000  1
  Si  Si1  1  0.62337000  0.37337000  0.25000000  1
  Si  Si2  1  0.25000000  0.62337000  0.37337000  1
  Si  Si3  1  0.75000000  0.87663000  0.12663000  1
  Si  Si4  1  0.37337000  0.25000000  0.62337000  1
  Si  Si5  1  0.12663000  0.75000000  0.87663000  1
  Si  Si6  1  0.12337000  0.87337000  0.25000000  1
  Si  Si7  1  0.37663000  0.62663000  0.75000000  1
  Si  Si8  1  0.75000000  0.37663000  0.62663000  1
  Si  Si9  1  0.25000000  0.12337000  0.87337000  1
  Si  Si10  1  0.62663000  0.75000000  0.37663000  1
  Si  Si11  1  0.87337000  0.25000000  0.12337000  1
  O  O0  1  0.80125200  0.51026000  0.39247000  1
  O  O1  1  0.61779000  0.40878200  0.10753000  1
  O  O2  1  0.69874800  0.09121800  0.70900800  1
  O  O3  1  0.88221000  0.98974000  0.79099200  1
  O  O4  1  0.70900800  0.69874800  0.09121800  1
  O  O5  1  0.79099200  0.88221000  0.98974000  1
  O  O6  1  0.39247000  0.80125200  0.51026000  1
  O  O7  1  0.10753000  0.61779000  0.40878200  1
  O  O8  1  0.98974000  0.79099200  0.88221000  1
  O  O9  1  0.09121800  0.70900800  0.69874800  1
  O  O10  1  0.40878200  0.10753000  0.61779000  1
  O  O11  1  0.51026000  0.39247000  0.80125200  1
  O  O12  1  0.19874800  0.48974000  0.60753000  1
  O  O13  1  0.38221000  0.59121800  0.89247000  1
  O  O14  1  0.30125200  0.90878200  0.29099200  1
  O  O15  1  0.11779000  0.01026000  0.20900800  1
  O  O16  1  0.29099200  0.30125200  0.90878200  1
  O  O17  1  0.20900800  0.11779000  0.01026000  1
  O  O18  1  0.60753000  0.19874800  0.48974000  1
  O  O19  1  0.89247000  0.38221000  0.59121800  1
  O  O20  1  0.01026000  0.20900800  0.11779000  1
  O  O21  1  0.90878200  0.29099200  0.30125200  1
  O  O22  1  0.59121800  0.89247000  0.38221000  1
  O  O23  1  0.48974000  0.60753000  0.19874800  1
  O  O24  1  0.29859800  0.49097600  0.38428900  1
  O  O25  1  0.20140200  0.58569100  0.19237800  1
  O  O26  1  0.60668700  0.91430900  0.11571100  1
  O  O27  1  0.89331300  0.00902400  0.30762200  1
  O  O28  1  0.00902400  0.30762200  0.89331300  1
  O  O29  1  0.91430900  0.11571100  0.60668700  1
  O  O30  1  0.58569100  0.19237800  0.20140200  1
  O  O31  1  0.49097600  0.38428900  0.29859800  1
  O  O32  1  0.19237800  0.20140200  0.58569100  1
  O  O33  1  0.38428900  0.29859800  0.49097600  1
  O  O34  1  0.30762200  0.89331300  0.00902400  1
  O  O35  1  0.11571100  0.60668700  0.91430900  1
  O  O36  1  0.70140200  0.50902400  0.61571100  1
  O  O37  1  0.79859800  0.41430900  0.80762200  1
  O  O38  1  0.39331300  0.08569100  0.88428900  1
  O  O39  1  0.10668700  0.99097600  0.69237800  1
  O  O40  1  0.99097600  0.69237800  0.10668700  1
  O  O41  1  0.08569100  0.88428900  0.39331300  1
  O  O42  1  0.41430900  0.80762200  0.79859800  1
  O  O43  1  0.50902400  0.61571100  0.70140200  1
  O  O44  1  0.80762200  0.79859800  0.41430900  1
  O  O45  1  0.61571100  0.70140200  0.50902400  1
  O  O46  1  0.69237800  0.10668700  0.99097600  1
  O  O47  1  0.88428900  0.39331300  0.08569100  1
loop_
_geom_bond_atom_site_label_1
_geom_bond_atom_site_label_2
_geom_bond_distance
_geom_bond_site_symmetry_2
Ca0 O29 2.375357 1_455
Ca0 O28 2.375357 1_555
Ca0 O13 2.404891 1_555
Ca0 O12 2.404891 1_555
Ca0 O16 2.515798 1_555
Ca0 O19 2.515798 1_455
Ca0 O35 2.547053 1_555
Ca0 O32 2.547053 1_555
Ca1 O30 2.375357 1_555
Ca1 O31 2.375357 1_555
Ca1 O15 2.404891 1_555
Ca1 O14 2.404891 1_545
Ca1 O17 2.515798 1_555
Ca1 O18 2.515798 1_555
Ca1 O34 2.547053 1_545
Ca1 O33 2.547053 1_555
Ca2 O25 2.375357 1_555
Ca2 O24 2.375357 1_555
Ca2 O17 2.404891 1_555
Ca2 O16 2.404891 1_554
Ca2 O23 2.515798 1_555
Ca2 O20 2.515798 1_555
Ca2 O28 2.547053 1_554
Ca2 O31 2.547053 1_555
Ca3 O26 2.375357 1_545
Ca3 O27 2.375357 1_555
Ca3 O19 2.404891 1_555
Ca3 O18 2.404891 1_555
Ca3 O21 2.515798 1_555
Ca3 O22 2.515798 1_545
Ca3 O30 2.547053 1_555
Ca3 O29 2.547053 1_555
Ca4 O32 2.375357 1_555
Ca4 O33 2.375357 1_555
Ca4 O20 2.404891 1_555
Ca4 O21 2.404891 1_455
Ca4 O12 2.515798 1_555
Ca4 O15 2.515798 1_555
Ca4 O27 2.547053 1_455
Ca4 O24 2.547053 1_555
Ca5 O35 2.375357 1_554
Ca5 O34 2.375357 1_555
Ca5 O22 2.404891 1_555
Ca5 O23 2.404891 1_555
Ca5 O14 2.515798 1_555
Ca5 O13 2.515798 1_554
Ca5 O25 2.547053 1_555
Ca5 O26 2.547053 1_555
Ca6 O41 2.375357 1_655
Ca6 O40 2.375357 1_555
Ca6 O0 2.404891 1_555
Ca6 O1 2.404891 1_555
Ca6 O7 2.515798 1_655
Ca6 O4 2.515798 1_555
Ca6 O47 2.547053 1_555
Ca6 O44 2.547053 1_555
Ca7 O43 2.375357 1_555
Ca7 O42 2.375357 1_555
Ca7 O3 2.404891 1_555
Ca7 O2 2.404891 1_565
Ca7 O6 2.515798 1_555
Ca7 O5 2.515798 1_555
Ca7 O46 2.547053 1_565
Ca7 O45 2.547053 1_555
Ca8 O36 2.375357 1_555
Ca8 O37 2.375357 1_555
Ca8 O5 2.404891 1_555
Ca8 O4 2.404891 1_556
Ca8 O11 2.515798 1_555
Ca8 O8 2.515798 1_555
Ca8 O40 2.547053 1_556
Ca8 O43 2.547053 1_555
Ca9 O38 2.375357 1_565
Ca9 O39 2.375357 1_555
Ca9 O6 2.404891 1_555
Ca9 O7 2.404891 1_555
Ca9 O10 2.515798 1_565
Ca9 O9 2.515798 1_555
Ca9 O41 2.547053 1_555
Ca9 O42 2.547053 1_555
Ca10 O45 2.375357 1_555
Ca10 O44 2.375357 1_555
Ca10 O9 2.404891 1_655
Ca10 O8 2.404891 1_555
Ca10 O3 2.515798 1_555
Ca10 O0 2.515798 1_555
Ca10 O39 2.547053 1_655
Ca10 O36 2.547053 1_555
Ca11 O46 2.375357 1_555
Ca11 O47 2.375357 1_556
Ca11 O11 2.404891 1_555
Ca11 O10 2.404891 1_555
Ca11 O1 2.515798 1_556
Ca11 O2 2.515798 1_555
Ca11 O38 2.547053 1_555
Ca11 O37 2.547053 1_555
Fe0 O35 2.024416 1_554
Fe0 O47 2.024416 1_455
Fe0 O37 2.024416 1_454
Fe0 O28 2.024416 1_554
Fe0 O25 2.024416 1_555
Fe0 O40 2.024416 1_455
Fe1 O43 2.024416 1_555
Fe1 O45 2.024416 1_555
Fe1 O36 2.024416 1_555
Fe1 O33 2.024416 1_555
Fe1 O31 2.024416 1_555
Fe1 O24 2.024416 1_555
Fe2 O29 2.024416 1_455
Fe2 O41 2.024416 1_545
Fe2 O27 2.024416 1_455
Fe2 O32 2.024416 1_555
Fe2 O44 2.024416 1_445
Fe2 O39 2.024416 1_545
Fe3 O26 2.024416 1_545
Fe3 O34 2.024416 1_545
Fe3 O38 2.024416 1_554
Fe3 O30 2.024416 1_555
Fe3 O42 2.024416 1_544
Fe3 O46 2.024416 1_554
O0 Si1 1.658179 1_555
O0 Sc1 2.090476 1_655
O1 Si1 1.658179 1_555
O1 Sc0 2.090476 1_555
O2 Si0 1.658179 1_555
O2 Sc3 2.090476 1_555
O3 Si0 1.658179 1_565
O3 Sc2 2.090476 1_666
O4 Si3 1.658179 1_555
O4 Sc0 2.090476 1_555
O5 Si3 1.658179 1_556
O5 Sc2 2.090476 1_666
O6 Si2 1.658179 1_555
O6 Sc3 2.090476 1_565
O7 Si2 1.658179 1_555
O7 Sc1 2.090476 1_555
O8 Si5 1.658179 1_655
O8 Sc2 2.090476 1_666
O9 Si5 1.658179 1_555
O9 Sc1 2.090476 1_555
O10 Si4 1.658179 1_555
O10 Sc3 2.090476 1_555
O11 Si4 1.658179 1_555
O11 Sc0 2.090476 1_556
O12 Si7 1.658179 1_555
O12 Sc1 2.090476 1_555
O13 Si7 1.658179 1_555
O13 Sc0 2.090476 1_556
O14 Si6 1.658179 1_555
O14 Sc3 2.090476 1_565
O15 Si6 1.658179 1_545
O15 Sc2 2.090476 1_555
O16 Si9 1.658179 1_555
O16 Sc0 2.090476 1_556
O17 Si9 1.658179 1_554
O17 Sc2 2.090476 1_555
O18 Si8 1.658179 1_555
O18 Sc3 2.090476 1_555
O19 Si8 1.658179 1_555
O19 Sc1 2.090476 1_655
O20 Si11 1.658179 1_455
O20 Sc2 2.090476 1_555
O21 Si11 1.658179 1_555
O21 Sc1 2.090476 1_655
O22 Si10 1.658179 1_555
O22 Sc3 2.090476 1_565
O23 Si10 1.658179 1_555
O23 Sc0 2.090476 1_555
O24 Si2 1.670311 1_555
O25 Si2 1.670311 1_555
O26 Si3 1.670311 1_555
O27 Si3 1.670311 1_545
O28 Si0 1.670311 1_455
O29 Si0 1.670311 1_555
O30 Si1 1.670311 1_555
O31 Si1 1.670311 1_555
O32 Si4 1.670311 1_555
O33 Si4 1.670311 1_555
O34 Si5 1.670311 1_554
O35 Si5 1.670311 1_555
O36 Si8 1.670311 1_555
O37 Si8 1.670311 1_555
O38 Si9 1.670311 1_555
O39 Si9 1.670311 1_565
O40 Si6 1.670311 1_655
O41 Si6 1.670311 1_555
O42 Si7 1.670311 1_555
O43 Si7 1.670311 1_555
O44 Si10 1.670311 1_555
O45 Si10 1.670311 1_555
O46 Si11 1.670311 1_556
O47 Si11 1.670311 1_555
