# generated using pymatgen
data_Gd6Fe23
_symmetry_space_group_name_H-M   'P 1'
_cell_length_a   8.33383607
_cell_length_b   8.33383607
_cell_length_c   8.33383607
_cell_angle_alpha   60.00000000
_cell_angle_beta   60.00000000
_cell_angle_gamma   60.00000000
_symmetry_Int_Tables_number   1
_chemical_formula_structural   Gd6Fe23
_chemical_formula_sum   'Gd6 Fe23'
_cell_volume   409.27937809
_cell_formula_units_Z   1
loop_
 _symmetry_equiv_pos_site_id
 _symmetry_equiv_pos_as_xyz
  1  'x, y, z'
loop_
 _atom_site_type_symbol
 _atom_site_label
 _atom_site_symmetry_multiplicity
 _atom_site_fract_x
 _atom_site_fract_y
 _atom_site_fract_z
 _atom_site_occupancy
  Gd  Gd0  1  0.70903100  0.70903100  0.29096900  1
  Gd  Gd1  1  0.29096900  0.70903100  0.29096900  1
  Gd  Gd2  1  0.70903100  0.29096900  0.29096900  1
  Gd  Gd3  1  0.29096900  0.29096900  0.70903100  1
  Gd  Gd4  1  0.70903100  0.29096900  0.70903100  1
  Gd  Gd5  1  0.29096900  0.70903100  0.70903100  1
  Fe  Fe0  1  0.00000000  0.00000000  0.00000000  1
  Fe  Fe1  1  0.00000000  0.00000000  0.50000000  1
  Fe  Fe2  1  0.50000000  0.00000000  0.50000000  1
  Fe  Fe3  1  0.00000000  0.50000000  0.50000000  1
  Fe  Fe4  1  0.50000000  0.50000000  0.00000000  1
  Fe  Fe5  1  0.00000000  0.50000000  0.00000000  1
  Fe  Fe6  1  0.50000000  0.00000000  0.00000000  1
  Fe  Fe7  1  0.87737900  0.87737900  0.36786400  1
  Fe  Fe8  1  0.87737900  0.36786400  0.87737900  1
  Fe  Fe9  1  0.36786400  0.87737900  0.87737900  1
  Fe  Fe10  1  0.87737900  0.87737900  0.87737900  1
  Fe  Fe11  1  0.12262100  0.12262100  0.63213600  1
  Fe  Fe12  1  0.12262100  0.63213600  0.12262100  1
  Fe  Fe13  1  0.63213600  0.12262100  0.12262100  1
  Fe  Fe14  1  0.12262100  0.12262100  0.12262100  1
  Fe  Fe15  1  0.68037100  0.68037100  0.95888800  1
  Fe  Fe16  1  0.68037100  0.95888800  0.68037100  1
  Fe  Fe17  1  0.95888800  0.68037100  0.68037100  1
  Fe  Fe18  1  0.68037100  0.68037100  0.68037100  1
  Fe  Fe19  1  0.31962900  0.31962900  0.04111200  1
  Fe  Fe20  1  0.31962900  0.04111200  0.31962900  1
  Fe  Fe21  1  0.04111200  0.31962900  0.31962900  1
  Fe  Fe22  1  0.31962900  0.31962900  0.31962900  1
loop_
_geom_bond_atom_site_label_1
_geom_bond_atom_site_label_2
_geom_bond_distance
_geom_bond_site_symmetry_2
Fe0 Fe14 2.503142 1_555
Fe0 Fe10 2.503142 1_444
Fe0 Fe7 2.503148 1_445
Fe0 Fe8 2.503148 1_454
Fe0 Fe9 2.503148 1_544
Fe0 Fe13 2.503148 1_455
Fe0 Fe12 2.503148 1_545
Fe0 Fe11 2.503148 1_554
Fe1 Fe21 2.421979 1_555
Fe1 Fe20 2.421979 1_555
Fe1 Fe16 2.421979 1_445
Fe1 Fe17 2.421979 1_445
Fe1 Fe11 2.568295 1_555
Fe1 Fe7 2.568295 1_445
Fe1 Fe10 2.568302 1_445
Fe1 Fe14 2.568302 1_555
Fe1 Gd5 2.985758 1_545
Fe1 Gd4 2.985758 1_455
Fe1 Gd2 2.985758 1_455
Fe1 Gd1 2.985758 1_545
Fe2 Fe22 2.421982 1_555
Fe2 Fe20 2.421986 1_555
Fe2 Fe7 2.568302 1_545
Fe2 Fe9 2.568302 1_545
Fe2 Gd3 2.985758 1_555
Fe2 Gd2 2.985758 1_555
Fe2 Gd5 2.985758 1_545
Fe2 Gd0 2.985758 1_545
Fe3 Fe7 2.568302 1_455
Fe3 Fe8 2.568302 1_455
Fe3 Gd3 2.985758 1_555
Fe3 Gd1 2.985758 1_555
Fe3 Gd4 2.985758 1_455
Fe3 Gd0 2.985758 1_455
Fe4 Fe8 2.568302 1_554
Fe4 Fe9 2.568302 1_554
Fe4 Gd1 2.985758 1_555
Fe4 Gd2 2.985758 1_555
Fe4 Gd4 2.985758 1_554
Fe4 Gd5 2.985758 1_554
Fe5 Fe8 2.568295 1_454
Fe5 Gd0 2.985758 1_455
Fe5 Gd5 2.985758 1_554
Fe5 Gd2 2.985758 1_455
Fe5 Gd3 2.985758 1_554
Fe6 Fe9 2.568295 1_544
Fe6 Gd4 2.985758 1_554
Fe6 Gd0 2.985758 1_545
Fe6 Gd3 2.985758 1_554
Fe6 Gd1 2.985758 1_545
Fe7 Gd1 2.848486 1_655
Fe7 Gd2 2.848486 1_565
Fe7 Gd0 2.848493 1_555
Fe8 Gd2 2.848486 1_556
Fe8 Gd3 2.848486 1_655
Fe8 Gd4 2.848493 1_555
Fe9 Gd3 2.848486 1_565
Fe9 Gd1 2.848486 1_556
Fe9 Gd5 2.848493 1_555
Fe10 Fe17 2.513509 1_555
Fe10 Fe15 2.513509 1_555
Fe10 Fe16 2.513509 1_555
Fe10 Fe5 2.568302 1_656
Fe10 Fe6 2.568302 1_566
Fe10 Gd4 2.848487 1_565
Fe10 Gd5 2.848487 1_655
Fe10 Gd0 2.848487 1_556
Fe10 Fe13 2.890379 1_566
Fe10 Fe12 2.890379 1_656
Fe10 Fe11 2.890379 1_665
Fe11 Fe22 2.513509 1_555
Fe11 Fe20 2.513509 1_555
Fe11 Fe21 2.513509 1_555
Fe11 Fe2 2.568302 1_555
Fe11 Fe3 2.568302 1_555
Fe11 Gd4 2.848486 1_455
Fe11 Gd5 2.848486 1_545
Fe11 Gd3 2.848493 1_555
Fe11 Fe9 2.890391 1_545
Fe11 Fe8 2.890391 1_455
Fe12 Fe22 2.513509 1_555
Fe12 Fe21 2.513509 1_555
Fe12 Fe19 2.513509 1_555
Fe12 Fe5 2.568295 1_555
Fe12 Fe4 2.568302 1_555
Fe12 Fe3 2.568302 1_555
Fe12 Gd5 2.848486 1_554
Fe12 Gd0 2.848486 1_455
Fe12 Gd1 2.848493 1_555
Fe12 Fe9 2.890391 1_554
Fe12 Fe7 2.890391 1_455
Fe13 Fe22 2.513509 1_555
Fe13 Fe19 2.513509 1_555
Fe13 Fe20 2.513509 1_555
Fe13 Fe6 2.568295 1_555
Fe13 Fe2 2.568302 1_555
Fe13 Fe4 2.568302 1_555
Fe13 Gd4 2.848486 1_554
Fe13 Gd0 2.848486 1_545
Fe13 Gd2 2.848493 1_555
Fe13 Fe8 2.890391 1_554
Fe13 Fe7 2.890391 1_545
Fe14 Fe20 2.513509 1_555
Fe14 Fe19 2.513509 1_555
Fe14 Fe21 2.513509 1_555
Fe14 Fe5 2.568302 1_555
Fe14 Fe6 2.568302 1_555
Fe14 Gd3 2.848487 1_554
Fe14 Gd1 2.848487 1_545
Fe14 Gd2 2.848487 1_455
Fe14 Fe9 2.890379 1_544
Fe14 Fe8 2.890379 1_454
Fe14 Fe7 2.890379 1_445
Fe15 Fe16 2.321115 1_555
Fe15 Fe17 2.321115 1_555
Fe15 Fe18 2.321115 1_555
Fe15 Fe5 2.421979 1_656
Fe15 Fe6 2.421979 1_566
Fe15 Fe4 2.421986 1_556
Fe15 Fe8 2.513509 1_555
Fe15 Fe9 2.513509 1_555
Fe15 Gd0 3.025273 1_556
Fe15 Gd2 3.025278 1_556
Fe15 Gd1 3.025278 1_556
Fe16 Fe17 2.321115 1_555
Fe16 Fe18 2.321115 1_555
Fe16 Fe6 2.421979 1_566
Fe16 Fe2 2.421986 1_565
Fe16 Fe9 2.513509 1_555
Fe16 Fe7 2.513509 1_555
Fe16 Gd4 3.025273 1_565
Fe16 Gd3 3.025278 1_565
Fe16 Gd2 3.025278 1_565
Fe17 Fe18 2.321115 1_555
Fe17 Fe5 2.421979 1_656
Fe17 Fe3 2.421986 1_655
Fe17 Fe8 2.513509 1_555
Fe17 Fe7 2.513509 1_555
Fe17 Gd5 3.025273 1_655
Fe17 Gd1 3.025278 1_655
Fe17 Gd3 3.025278 1_655
Fe18 Fe3 2.421982 1_655
Fe18 Fe2 2.421982 1_565
Fe18 Fe4 2.421982 1_556
Fe18 Fe9 2.513509 1_555
Fe18 Fe8 2.513509 1_555
Fe18 Fe7 2.513509 1_555
Fe18 Gd5 3.025281 1_555
Fe18 Gd0 3.025281 1_555
Fe18 Gd4 3.025281 1_555
Fe19 Fe21 2.321115 1_555
Fe19 Fe22 2.321115 1_555
Fe19 Fe20 2.321115 1_555
Fe19 Fe5 2.421979 1_555
Fe19 Fe6 2.421979 1_555
Fe19 Fe4 2.421986 1_555
Fe19 Gd3 3.025273 1_554
Fe19 Gd4 3.025278 1_554
Fe19 Gd5 3.025278 1_554
Fe20 Fe21 2.321115 1_555
Fe20 Fe22 2.321115 1_555
Fe20 Fe6 2.421979 1_555
Fe20 Gd1 3.025273 1_545
Fe20 Gd5 3.025278 1_545
Fe20 Gd0 3.025278 1_545
Fe21 Fe22 2.321115 1_555
Fe21 Fe5 2.421979 1_555
Fe21 Fe3 2.421986 1_555
Fe21 Gd2 3.025273 1_455
Fe21 Gd4 3.025278 1_455
Fe21 Gd0 3.025278 1_455
Fe22 Fe4 2.421982 1_555
Fe22 Fe3 2.421982 1_555
Fe22 Gd1 3.025281 1_555
Fe22 Gd2 3.025281 1_555
Fe22 Gd3 3.025281 1_555
