# generated using pymatgen
data_La2Cu3Ni
_symmetry_space_group_name_H-M   'P 1'
_cell_length_a   3.86769130
_cell_length_b   4.27753262
_cell_length_c   7.30738075
_cell_angle_alpha   90.00000000
_cell_angle_beta   90.00000000
_cell_angle_gamma   90.00000000
_symmetry_Int_Tables_number   1
_chemical_formula_structural   La2Cu3Ni
_chemical_formula_sum   'La2 Cu3 Ni1'
_cell_volume   120.89459103
_cell_formula_units_Z   1
loop_
 _symmetry_equiv_pos_site_id
 _symmetry_equiv_pos_as_xyz
  1  'x, y, z'
loop_
 _atom_site_type_symbol
 _atom_site_label
 _atom_site_symmetry_multiplicity
 _atom_site_fract_x
 _atom_site_fract_y
 _atom_site_fract_z
 _atom_site_occupancy
  La  La0  1  0.00000000  0.50000000  0.01096406  1
  La  La1  1  0.00000000  0.00000000  0.49212728  1
  Cu  Cu0  1  0.50000000  0.00000000  0.83331960  1
  Cu  Cu1  1  0.50000000  0.00000000  0.16962200  1
  Cu  Cu2  1  0.50000000  0.50000000  0.66380956  1
  Ni  Ni0  1  0.50000000  0.50000000  0.33015649  1
loop_
_geom_bond_atom_site_label_1
_geom_bond_atom_site_label_2
_geom_bond_distance
_geom_bond_site_symmetry_2
La0 Ni0 3.029873 1_555
La0 Ni0 3.029873 1_455
La1 Ni0 3.116881 1_455
La1 Ni0 3.116881 1_545
La1 Ni0 3.116881 1_445
La1 Ni0 3.116881 1_555
Cu0 Cu1 2.457490 1_556
Cu0 Cu2 2.471565 1_555
Cu0 Cu2 2.471565 1_545
Cu0 La1 3.155300 1_655
Cu0 La1 3.155300 1_555
Cu0 La0 3.162149 1_656
Cu0 La0 3.162149 1_646
Cu0 La0 3.162149 1_556
Cu0 La0 3.162149 1_546
Cu1 Ni0 2.439355 1_545
Cu1 Ni0 2.439355 1_555
Cu1 La1 3.048548 1_655
Cu1 La1 3.048548 1_555
Cu1 La0 3.107769 1_655
Cu1 La0 3.107769 1_645
Cu1 La0 3.107769 1_545
Cu1 La0 3.107769 1_555
Cu2 Ni0 2.438130 1_555
Cu2 La1 3.144514 1_565
Cu2 La1 3.144514 1_555
Cu2 La1 3.144514 1_655
Cu2 La1 3.144514 1_665
Cu2 La0 3.189837 1_556
Cu2 La0 3.189837 1_656
