# generated using pymatgen
data_ScNbN
_symmetry_space_group_name_H-M   'P 1'
_cell_length_a   6.22194884
_cell_length_b   6.22194884
_cell_length_c   20.71430600
_cell_angle_alpha   90.00000000
_cell_angle_beta   90.00000000
_cell_angle_gamma   120.00000894
_symmetry_Int_Tables_number   1
_chemical_formula_structural   ScNbN
_chemical_formula_sum   'Sc16 Nb16 N16'
_cell_volume   694.47057914
_cell_formula_units_Z   16
loop_
 _symmetry_equiv_pos_site_id
 _symmetry_equiv_pos_as_xyz
  1  'x, y, z'
loop_
 _atom_site_type_symbol
 _atom_site_label
 _atom_site_symmetry_multiplicity
 _atom_site_fract_x
 _atom_site_fract_y
 _atom_site_fract_z
 _atom_site_occupancy
  Sc  Sc0_0  1  0.00000000  0.00000000  0.25000000  1
  Sc  Sc0_1  1  0.00000000  0.00000000  0.75000000  1
  Sc  Sc0_2  1  0.00000000  0.50000000  0.25000000  1
  Sc  Sc0_3  1  0.00000000  0.50000000  0.75000000  1
  Sc  Sc0_4  1  0.50000000  0.00000000  0.25000000  1
  Sc  Sc0_5  1  0.50000000  0.00000000  0.75000000  1
  Sc  Sc0_6  1  0.50000000  0.50000000  0.25000000  1
  Sc  Sc0_7  1  0.50000000  0.50000000  0.75000000  1
  Sc  Sc1_0  1  0.00000000  0.00000000  0.00000000  1
  Sc  Sc1_1  1  0.00000000  0.00000000  0.50000000  1
  Sc  Sc1_2  1  0.00000000  0.50000000  0.00000000  1
  Sc  Sc1_3  1  0.00000000  0.50000000  0.50000000  1
  Sc  Sc1_4  1  0.50000000  0.00000000  0.00000000  1
  Sc  Sc1_5  1  0.50000000  0.00000000  0.50000000  1
  Sc  Sc1_6  1  0.50000000  0.50000000  0.00000000  1
  Sc  Sc1_7  1  0.50000000  0.50000000  0.50000000  1
  Nb  Nb0_0  1  0.33333350  0.16666650  0.37628450  1
  Nb  Nb0_1  1  0.33333350  0.16666650  0.87628450  1
  Nb  Nb0_2  1  0.33333350  0.66666650  0.37628450  1
  Nb  Nb0_3  1  0.33333350  0.66666650  0.87628450  1
  Nb  Nb0_4  1  0.83333350  0.16666650  0.37628450  1
  Nb  Nb0_5  1  0.83333350  0.16666650  0.87628450  1
  Nb  Nb0_6  1  0.83333350  0.66666650  0.37628450  1
  Nb  Nb0_7  1  0.83333350  0.66666650  0.87628450  1
  Nb  Nb1_0  1  0.16666650  0.33333350  0.12371550  1
  Nb  Nb1_1  1  0.16666650  0.33333350  0.62371550  1
  Nb  Nb1_2  1  0.16666650  0.83333350  0.12371550  1
  Nb  Nb1_3  1  0.16666650  0.83333350  0.62371550  1
  Nb  Nb1_4  1  0.66666650  0.33333350  0.12371550  1
  Nb  Nb1_5  1  0.66666650  0.33333350  0.62371550  1
  Nb  Nb1_6  1  0.66666650  0.83333350  0.12371550  1
  Nb  Nb1_7  1  0.66666650  0.83333350  0.62371550  1
  N  N0_0  1  0.33333350  0.16666650  0.18609450  1
  N  N0_1  1  0.33333350  0.16666650  0.68609450  1
  N  N0_2  1  0.33333350  0.66666650  0.18609450  1
  N  N0_3  1  0.33333350  0.66666650  0.68609450  1
  N  N0_4  1  0.83333350  0.16666650  0.18609450  1
  N  N0_5  1  0.83333350  0.16666650  0.68609450  1
  N  N0_6  1  0.83333350  0.66666650  0.18609450  1
  N  N0_7  1  0.83333350  0.66666650  0.68609450  1
  N  N1_0  1  0.16666650  0.33333350  0.31390550  1
  N  N1_1  1  0.16666650  0.33333350  0.81390550  1
  N  N1_2  1  0.16666650  0.83333350  0.31390550  1
  N  N1_3  1  0.16666650  0.83333350  0.81390550  1
  N  N1_4  1  0.66666650  0.33333350  0.31390550  1
  N  N1_5  1  0.66666650  0.33333350  0.81390550  1
  N  N1_6  1  0.66666650  0.83333350  0.31390550  1
  N  N1_7  1  0.66666650  0.83333350  0.81390550  1
loop_
_geom_bond_atom_site_label_1
_geom_bond_atom_site_label_2
_geom_bond_distance
_geom_bond_site_symmetry_2
Sc1_0 Sc1_6 3.110974 1_445
Sc1_0 Sc1_6 3.110974 1_555
Sc1_0 Sc1_4 3.110974 1_455
Sc1_0 Sc1_2 3.110974 1_555
Sc1_0 Sc1_2 3.110974 1_545
Sc1_0 Sc1_4 3.110974 1_555
Sc1_1 Sc1_7 3.110974 1_445
Sc1_1 Sc1_7 3.110974 1_555
Sc1_1 Sc1_3 3.110974 1_545
Sc1_1 Sc1_5 3.110974 1_455
Sc1_1 Sc1_3 3.110974 1_555
Sc1_1 Sc1_5 3.110974 1_555
Sc1_2 Sc1_4 3.110974 1_455
Sc1_2 Sc1_4 3.110974 1_565
Sc1_2 Sc1_6 3.110974 1_455
Sc1_2 Sc1_6 3.110974 1_555
Sc1_3 Sc1_5 3.110974 1_565
Sc1_3 Sc1_5 3.110974 1_455
Sc1_3 Sc1_7 3.110974 1_455
Sc1_3 Sc1_7 3.110974 1_555
Sc1_4 Sc1_6 3.110974 1_545
Sc1_4 Sc1_6 3.110974 1_555
Sc1_5 Sc1_7 3.110974 1_545
Sc1_5 Sc1_7 3.110974 1_555
Nb0_0 Sc1_5 3.129438 1_555
Nb0_0 Sc1_1 3.129439 1_555
Nb0_0 Sc1_7 3.129439 1_555
Nb0_1 Sc1_4 3.129438 1_556
Nb0_1 Sc1_6 3.129439 1_556
Nb0_1 Sc1_0 3.129439 1_556
Nb0_2 Sc1_7 3.129438 1_555
Nb0_2 Sc1_5 3.129439 1_565
Nb0_2 Sc1_3 3.129439 1_555
Nb0_3 Sc1_6 3.129438 1_556
Nb0_3 Sc1_4 3.129439 1_566
Nb0_3 Sc1_2 3.129439 1_556
Nb0_4 Sc1_1 3.129438 1_655
Nb0_4 Sc1_3 3.129439 1_655
Nb0_4 Sc1_5 3.129439 1_555
Nb0_5 Sc1_0 3.129438 1_656
Nb0_5 Sc1_4 3.129439 1_556
Nb0_5 Sc1_2 3.129439 1_656
Nb0_6 Sc1_3 3.129438 1_655
Nb0_6 Sc1_7 3.129439 1_555
Nb0_6 Sc1_1 3.129439 1_665
Nb0_7 Sc1_2 3.129438 1_656
Nb0_7 Sc1_6 3.129439 1_556
Nb0_7 Sc1_0 3.129439 1_666
Nb1_0 Sc1_2 3.129438 1_555
Nb1_0 Sc1_0 3.129439 1_555
Nb1_0 Sc1_6 3.129439 1_555
Nb1_1 Sc1_3 3.129438 1_555
Nb1_1 Sc1_1 3.129439 1_555
Nb1_1 Sc1_7 3.129439 1_555
Nb1_2 Sc1_0 3.129438 1_565
Nb1_2 Sc1_4 3.129439 1_565
Nb1_2 Sc1_2 3.129439 1_555
Nb1_3 Sc1_1 3.129438 1_565
Nb1_3 Sc1_5 3.129439 1_565
Nb1_3 Sc1_3 3.129439 1_555
Nb1_4 Sc1_6 3.129438 1_555
Nb1_4 Sc1_2 3.129439 1_655
Nb1_4 Sc1_4 3.129439 1_555
Nb1_5 Sc1_7 3.129438 1_555
Nb1_5 Sc1_3 3.129439 1_655
Nb1_5 Sc1_5 3.129439 1_555
Nb1_6 Sc1_4 3.129438 1_565
Nb1_6 Sc1_6 3.129439 1_555
Nb1_6 Sc1_0 3.129439 1_665
Nb1_7 Sc1_5 3.129438 1_565
Nb1_7 Sc1_7 3.129439 1_555
Nb1_7 Sc1_1 3.129439 1_665
N0_0 Nb1_2 2.212615 1_545
N0_0 Nb1_4 2.212615 1_555
N0_0 Nb1_0 2.212620 1_555
N0_0 Sc0_4 2.231229 1_555
N0_0 Sc0_0 2.231231 1_555
N0_0 Sc0_6 2.231231 1_555
N0_1 Nb1_3 2.212615 1_545
N0_1 Nb1_5 2.212615 1_555
N0_1 Nb1_1 2.212620 1_555
N0_1 Sc0_5 2.231229 1_555
N0_1 Sc0_1 2.231231 1_555
N0_1 Sc0_7 2.231231 1_555
N0_2 Nb1_6 2.212615 1_555
N0_2 Nb1_0 2.212615 1_555
N0_2 Nb1_2 2.212620 1_555
N0_2 Sc0_6 2.231229 1_555
N0_2 Sc0_2 2.231231 1_555
N0_2 Sc0_4 2.231231 1_565
N0_3 Nb1_7 2.212615 1_555
N0_3 Nb1_1 2.212615 1_555
N0_3 Nb1_3 2.212620 1_555
N0_3 Sc0_7 2.231229 1_555
N0_3 Sc0_3 2.231231 1_555
N0_3 Sc0_5 2.231231 1_565
N0_4 Nb1_0 2.212615 1_655
N0_4 Nb1_6 2.212615 1_545
N0_4 Nb1_4 2.212620 1_555
N0_4 Sc0_0 2.231229 1_655
N0_4 Sc0_2 2.231231 1_655
N0_4 Sc0_4 2.231231 1_555
N0_5 Nb1_1 2.212615 1_655
N0_5 Nb1_7 2.212615 1_545
N0_5 Nb1_5 2.212620 1_555
N0_5 Sc0_1 2.231229 1_655
N0_5 Sc0_3 2.231231 1_655
N0_5 Sc0_5 2.231231 1_555
N0_6 Nb1_4 2.212615 1_555
N0_6 Nb1_2 2.212615 1_655
N0_6 Nb1_6 2.212620 1_555
N0_6 Sc0_2 2.231229 1_655
N0_6 Sc0_6 2.231231 1_555
N0_6 Sc0_0 2.231231 1_665
N0_7 Nb1_5 2.212615 1_555
N0_7 Nb1_3 2.212615 1_655
N0_7 Nb1_7 2.212620 1_555
N0_7 Sc0_3 2.231229 1_655
N0_7 Sc0_7 2.231231 1_555
N0_7 Sc0_1 2.231231 1_665
N1_0 Nb0_2 2.212615 1_555
N1_0 Nb0_4 2.212615 1_455
N1_0 Nb0_0 2.212620 1_555
N1_0 Sc0_2 2.231229 1_555
N1_0 Sc0_6 2.231231 1_555
N1_0 Sc0_0 2.231231 1_555
N1_1 Nb0_5 2.212615 1_455
N1_1 Nb0_3 2.212615 1_555
N1_1 Nb0_1 2.212620 1_555
N1_1 Sc0_3 2.231229 1_555
N1_1 Sc0_7 2.231231 1_555
N1_1 Sc0_1 2.231231 1_555
N1_2 Nb0_6 2.212615 1_455
N1_2 Nb0_0 2.212615 1_565
N1_2 Nb0_2 2.212620 1_555
N1_2 Sc0_0 2.231229 1_565
N1_2 Sc0_4 2.231231 1_565
N1_2 Sc0_2 2.231231 1_555
N1_3 Nb0_1 2.212615 1_565
N1_3 Nb0_7 2.212615 1_455
N1_3 Nb0_3 2.212620 1_555
N1_3 Sc0_1 2.231229 1_565
N1_3 Sc0_5 2.231231 1_565
N1_3 Sc0_3 2.231231 1_555
N1_4 Nb0_6 2.212615 1_555
N1_4 Nb0_0 2.212615 1_555
N1_4 Nb0_4 2.212620 1_555
N1_4 Sc0_6 2.231229 1_555
N1_4 Sc0_2 2.231231 1_655
N1_4 Sc0_4 2.231231 1_555
N1_5 Nb0_7 2.212615 1_555
N1_5 Nb0_1 2.212615 1_555
N1_5 Nb0_5 2.212620 1_555
N1_5 Sc0_7 2.231229 1_555
N1_5 Sc0_3 2.231231 1_655
N1_5 Sc0_5 2.231231 1_555
N1_6 Nb0_2 2.212615 1_555
N1_6 Nb0_4 2.212615 1_565
N1_6 Nb0_6 2.212620 1_555
N1_6 Sc0_4 2.231229 1_565
N1_6 Sc0_6 2.231231 1_555
N1_6 Sc0_0 2.231231 1_665
N1_7 Nb0_3 2.212615 1_555
N1_7 Nb0_5 2.212615 1_565
N1_7 Nb0_7 2.212620 1_555
N1_7 Sc0_5 2.231229 1_565
N1_7 Sc0_7 2.231231 1_555
N1_7 Sc0_1 2.231231 1_665
