# generated using pymatgen
data_Mg3Pt
_symmetry_space_group_name_H-M   'P 1'
_cell_length_a   7.89616861
_cell_length_b   7.89616978
_cell_length_c   8.33183248
_cell_angle_alpha   90.00000000
_cell_angle_beta   90.00000000
_cell_angle_gamma   120.00000658
_symmetry_Int_Tables_number   1
_chemical_formula_structural   Mg3Pt
_chemical_formula_sum   'Mg18 Pt6'
_cell_volume   449.88760051
_cell_formula_units_Z   6
loop_
 _symmetry_equiv_pos_site_id
 _symmetry_equiv_pos_as_xyz
  1  'x, y, z'
loop_
 _atom_site_type_symbol
 _atom_site_label
 _atom_site_symmetry_multiplicity
 _atom_site_fract_x
 _atom_site_fract_y
 _atom_site_fract_z
 _atom_site_occupancy
  Mg  Mg0  1  -0.00000000  -0.00000000  0.32401755  1
  Mg  Mg1  1  -0.00000000  -0.00000000  0.82401755  1
  Mg  Mg2  1  0.33333300  0.66666700  0.21441890  1
  Mg  Mg3  1  0.66666700  0.33333300  0.71441890  1
  Mg  Mg4  1  0.33333300  0.66666700  0.71441890  1
  Mg  Mg5  1  0.66666700  0.33333300  0.21441890  1
  Mg  Mg6  1  0.28220785  0.28220785  0.08478372  1
  Mg  Mg7  1  -0.00000000  0.28220785  0.58478372  1
  Mg  Mg8  1  0.28220785  -0.00000000  0.58478372  1
  Mg  Mg9  1  0.71779215  0.00000000  0.08478372  1
  Mg  Mg10  1  0.00000000  0.71779215  0.08478372  1
  Mg  Mg11  1  0.71779215  0.71779215  0.58478372  1
  Mg  Mg12  1  0.37511269  0.37511269  0.42928911  1
  Mg  Mg13  1  0.00000000  0.37511269  0.92928911  1
  Mg  Mg14  1  0.37511269  0.00000000  0.92928911  1
  Mg  Mg15  1  0.62488731  -0.00000000  0.42928911  1
  Mg  Mg16  1  -0.00000000  0.62488731  0.42928911  1
  Mg  Mg17  1  0.62488731  0.62488731  0.92928911  1
  Pt  Pt0  1  0.32770313  0.32770313  0.75690805  1
  Pt  Pt1  1  -0.00000000  0.32770313  0.25690805  1
  Pt  Pt2  1  0.32770313  -0.00000000  0.25690805  1
  Pt  Pt3  1  0.67229687  0.00000000  0.75690805  1
  Pt  Pt4  1  0.00000000  0.67229687  0.75690805  1
  Pt  Pt5  1  0.67229687  0.67229687  0.25690805  1
loop_
_geom_bond_atom_site_label_1
_geom_bond_atom_site_label_2
_geom_bond_distance
_geom_bond_site_symmetry_2
Mg0 Pt5 2.647322 1_445
Mg0 Pt2 2.647322 1_555
Mg0 Pt1 2.647322 1_555
Mg0 Mg6 2.989759 1_555
Mg0 Mg9 2.989760 1_455
Mg0 Mg10 2.989760 1_545
Mg0 Mg12 3.089090 1_555
Mg0 Mg15 3.089090 1_455
Mg0 Mg16 3.089091 1_545
Mg0 Mg11 3.112241 1_445
Mg0 Mg8 3.112241 1_555
Mg0 Mg7 3.112241 1_555
Mg1 Pt0 2.647322 1_555
Mg1 Pt3 2.647322 1_455
Mg1 Pt4 2.647322 1_545
Mg1 Mg11 2.989759 1_445
Mg1 Mg8 2.989760 1_555
Mg1 Mg7 2.989760 1_555
Mg1 Mg17 3.089090 1_445
Mg1 Mg14 3.089090 1_555
Mg1 Mg13 3.089091 1_555
Mg1 Mg6 3.112241 1_556
Mg1 Mg9 3.112241 1_456
Mg1 Mg10 3.112241 1_546
Mg2 Pt2 2.678062 1_565
Mg2 Pt1 2.678065 1_555
Mg2 Pt5 2.678069 1_555
Mg2 Mg9 3.052844 1_565
Mg2 Mg6 3.052847 1_555
Mg3 Pt3 2.678062 1_555
Mg3 Pt4 2.678065 1_655
Mg3 Pt0 2.678069 1_555
Mg3 Mg7 3.052839 1_655
Mg3 Mg8 3.052844 1_555
Mg4 Pt4 2.678062 1_555
Mg4 Pt3 2.678065 1_565
Mg4 Pt0 2.678070 1_555
Mg4 Mg8 3.052840 1_565
Mg4 Mg7 3.052844 1_555
Mg5 Pt1 2.678062 1_655
Mg5 Pt2 2.678065 1_555
Mg5 Pt5 2.678070 1_555
Mg5 Mg9 3.052840 1_555
Mg5 Mg6 3.052847 1_555
Mg6 Pt0 2.755324 1_554
Mg6 Pt1 2.819899 1_555
Mg6 Pt2 2.819899 1_555
Mg7 Pt1 2.755324 1_555
Mg7 Pt3 2.819899 1_455
Mg7 Pt0 2.819899 1_555
Mg8 Pt2 2.755324 1_555
Mg8 Pt4 2.819899 1_545
Mg8 Pt0 2.819899 1_555
Mg9 Pt3 2.755324 1_554
Mg9 Pt1 2.819899 1_655
Mg9 Pt5 2.819899 1_545
Mg10 Pt4 2.755324 1_554
Mg10 Pt2 2.819899 1_565
Mg10 Pt5 2.819899 1_455
Mg10 Mg16 2.962622 1_555
Mg10 Mg14 2.969330 1_564
Mg10 Mg17 2.969330 1_454
Mg10 Mg13 3.000019 1_554
Mg10 Mg2 3.052839 1_555
Mg10 Mg5 3.052844 1_455
Mg11 Pt5 2.755324 1_555
Mg11 Pt4 2.819899 1_655
Mg11 Pt3 2.819899 1_565
Mg11 Mg17 2.962622 1_555
Mg11 Mg16 2.969330 1_655
Mg11 Mg15 2.969330 1_565
Mg11 Mg12 3.000019 1_555
Mg11 Mg4 3.052847 1_555
Mg11 Mg3 3.052847 1_555
Mg12 Pt5 2.751258 1_555
Mg12 Pt0 2.755217 1_555
Mg12 Mg6 2.962622 1_555
Mg12 Mg7 2.969330 1_555
Mg12 Mg8 2.969330 1_555
Mg12 Mg5 3.061586 1_555
Mg12 Mg2 3.061586 1_555
Mg12 Pt1 3.141226 1_555
Mg12 Pt2 3.141227 1_555
Mg12 Mg3 3.436858 1_555
Mg12 Mg4 3.436859 1_555
Mg13 Pt4 2.751259 1_555
Mg13 Pt1 2.755217 1_556
Mg13 Mg7 2.962622 1_555
Mg13 Mg9 2.969330 1_456
Mg13 Mg6 2.969330 1_556
Mg13 Mg3 3.061579 1_455
Mg13 Mg4 3.061582 1_555
Mg13 Pt3 3.141226 1_455
Mg13 Pt0 3.141226 1_555
Mg13 Mg5 3.436853 1_456
Mg13 Mg2 3.436855 1_556
Mg14 Pt3 2.751258 1_555
Mg14 Pt2 2.755217 1_556
Mg14 Mg8 2.962622 1_555
Mg14 Mg6 2.969330 1_556
Mg14 Mg9 3.000019 1_556
Mg14 Mg4 3.061579 1_545
Mg14 Mg3 3.061582 1_555
Mg14 Pt4 3.141226 1_545
Mg14 Pt0 3.141227 1_555
Mg14 Mg2 3.436853 1_546
Mg14 Mg5 3.436855 1_556
Mg15 Pt2 2.751258 1_555
Mg15 Pt3 2.755217 1_555
Mg15 Mg9 2.962622 1_555
Mg15 Mg7 2.969330 1_655
Mg15 Mg8 3.000019 1_555
Mg15 Mg5 3.061579 1_555
Mg15 Mg2 3.061582 1_545
Mg15 Pt1 3.141226 1_655
Mg15 Pt5 3.141227 1_545
Mg15 Mg3 3.436853 1_555
Mg15 Mg4 3.436855 1_545
Mg16 Pt1 2.751259 1_555
Mg16 Pt4 2.755217 1_555
Mg16 Mg8 2.969330 1_565
Mg16 Mg7 3.000019 1_555
Mg16 Mg2 3.061579 1_555
Mg16 Mg5 3.061582 1_455
Mg16 Pt2 3.141226 1_565
Mg16 Pt5 3.141226 1_455
Mg16 Mg4 3.436853 1_555
Mg16 Mg3 3.436855 1_455
Mg17 Pt0 2.751258 1_555
Mg17 Pt5 2.755217 1_556
Mg17 Mg9 2.969330 1_566
Mg17 Mg6 3.000019 1_556
Mg17 Mg4 3.061586 1_555
Mg17 Mg3 3.061586 1_555
Mg17 Pt4 3.141226 1_655
Mg17 Pt3 3.141227 1_565
Mg17 Mg2 3.436858 1_556
Mg17 Mg5 3.436859 1_556
