# generated using pymatgen
data_Er3Pb
_symmetry_space_group_name_H-M   'P 1'
_cell_length_a   6.20282263
_cell_length_b   6.20282263
_cell_length_c   6.20282263
_cell_angle_alpha   136.42294025
_cell_angle_beta   136.42294025
_cell_angle_gamma   63.32713637
_symmetry_Int_Tables_number   1
_chemical_formula_structural   Er3Pb
_chemical_formula_sum   'Er3 Pb1'
_cell_volume   111.94517223
_cell_formula_units_Z   1
loop_
 _symmetry_equiv_pos_site_id
 _symmetry_equiv_pos_as_xyz
  1  'x, y, z'
loop_
 _atom_site_type_symbol
 _atom_site_label
 _atom_site_symmetry_multiplicity
 _atom_site_fract_x
 _atom_site_fract_y
 _atom_site_fract_z
 _atom_site_occupancy
  Er  Er0  1  0.75000100  0.25000000  0.50000100  1
  Er  Er1  1  0.25000000  0.75000100  0.50000100  1
  Er  Er2  1  0.50000000  0.50000000  -0.00000000  1
  Pb  Pb0  1  -0.00000000  0.00000000  -0.00000000  1
loop_
_geom_bond_atom_site_label_1
_geom_bond_atom_site_label_2
_geom_bond_distance
_geom_bond_site_symmetry_2
Er0 Er1 3.256045 1_645
Er0 Er1 3.256051 1_656
Er0 Er1 3.256051 1_544
Er0 Er1 3.256058 1_555
Er0 Pb0 3.502742 1_656
Er0 Er2 3.502742 1_656
Er0 Er2 3.502745 1_545
Er0 Er2 3.502745 1_556
Er0 Pb0 3.502745 1_655
Er0 Pb0 3.502745 1_666
Er0 Pb0 3.502748 1_555
Er0 Er2 3.502748 1_555
Er1 Pb0 3.502742 1_566
Er1 Er2 3.502742 1_566
Er1 Er2 3.502745 1_556
Er1 Pb0 3.502745 1_565
Er1 Pb0 3.502745 1_666
Er1 Er2 3.502745 1_455
Er1 Pb0 3.502748 1_555
Er1 Er2 3.502748 1_555
Er2 Pb0 3.256051 1_554
Er2 Pb0 3.256051 1_666
Er2 Pb0 3.256051 1_565
Er2 Pb0 3.256051 1_655
