# generated using pymatgen
data_Sr2YTi2O7
_symmetry_space_group_name_H-M   'P 1'
_cell_length_a   13.36254025
_cell_length_b   13.36254025
_cell_length_c   13.36254025
_cell_angle_alpha   157.23087292
_cell_angle_beta   156.22749811
_cell_angle_gamma   33.15175734
_symmetry_Int_Tables_number   1
_chemical_formula_structural   Sr2YTi2O7
_chemical_formula_sum   'Sr4 Y2 Ti4 O14'
_cell_volume   371.90168909
_cell_formula_units_Z   2
loop_
 _symmetry_equiv_pos_site_id
 _symmetry_equiv_pos_as_xyz
  1  'x, y, z'
loop_
 _atom_site_type_symbol
 _atom_site_label
 _atom_site_symmetry_multiplicity
 _atom_site_fract_x
 _atom_site_fract_y
 _atom_site_fract_z
 _atom_site_occupancy
  Sr  Sr0  1  0.82122600  0.74729300  0.93670900  1
  Sr  Sr1  1  0.18941600  0.25270700  0.07393300  1
  Sr  Sr2  1  0.68941600  0.61548300  0.93670900  1
  Sr  Sr3  1  0.32122600  0.38451700  0.07393300  1
  Y  Y0  1  0.51627400  0.50000000  0.01627400  1
  Y  Y1  1  0.01627400  0.00000000  0.01627400  1
  Ti  Ti0  1  0.43859800  0.92794600  0.52257500  1
  Ti  Ti1  1  0.59462900  0.07205400  0.51065300  1
  Ti  Ti2  1  0.09462900  0.58397600  0.52257500  1
  Ti  Ti3  1  0.93859800  0.41602400  0.51065300  1
  O  O0  1  0.00981500  0.51533800  0.02515400  1
  O  O1  1  0.50981500  0.48466200  0.49447700  1
  O  O2  1  0.21199800  0.19528400  0.51599600  1
  O  O3  1  0.32071200  0.80471600  0.01671400  1
  O  O4  1  0.82071200  0.80399900  0.51599600  1
  O  O5  1  0.71199800  0.19600100  0.01671400  1
  O  O6  1  0.70725400  0.69056100  0.51723300  1
  O  O7  1  0.82667200  0.30943900  0.01669300  1
  O  O8  1  0.32667200  0.30997900  0.51723300  1
  O  O9  1  0.20725400  0.69002100  0.01669300  1
  O  O10  1  0.87137400  0.33313800  0.49993600  1
  O  O11  1  0.16679800  0.66686200  0.53823600  1
  O  O12  1  0.66679800  0.12856200  0.49993600  1
  O  O13  1  0.37137400  0.87143800  0.53823600  1
loop_
_geom_bond_atom_site_label_1
_geom_bond_atom_site_label_2
_geom_bond_distance
_geom_bond_site_symmetry_2
O0 Sr2 2.362094 1_454
O0 Sr0 2.362112 1_454
O0 Sr1 2.398544 1_555
O0 Sr3 2.398562 1_555
O1 Sr1 2.362103 1_555
O1 Sr3 2.362103 1_555
O1 Sr2 2.398554 1_555
O1 Sr0 2.398554 1_555
O2 Ti0 1.979243 1_545
O2 Ti3 1.979732 1_455
O2 Y1 2.359638 1_555
O2 Y0 2.361234 1_556
O3 Ti1 1.979243 1_565
O3 Ti2 1.979724 1_554
O3 Y1 2.359638 1_565
O3 Y0 2.361234 1_555
O4 Ti2 1.979243 1_655
O4 Ti1 1.979716 1_565
O4 Y0 2.359645 1_555
O4 Y1 2.361242 1_666
O5 Ti3 1.979242 1_555
O5 Ti0 1.979724 1_544
O5 Y0 2.359648 1_555
O5 Y1 2.361239 1_655
O6 Ti3 1.983796 1_555
O6 Ti0 1.984530 1_555
O6 Y1 2.440904 1_666
O6 Y0 2.446713 1_555
O7 Ti2 1.983797 1_655
O7 Ti1 1.984523 1_554
O7 Y1 2.440904 1_655
O7 Y0 2.446713 1_555
O8 Ti1 1.983797 1_555
O8 Ti2 1.984523 1_555
O8 Y0 2.440904 1_556
O8 Y1 2.446713 1_555
O9 Ti0 1.983800 1_555
O9 Ti3 1.984526 1_454
O9 Y0 2.440904 1_555
O9 Y1 2.446713 1_565
O10 Ti3 1.786645 1_555
O10 Sr0 2.554047 1_555
O10 Sr3 2.871674 1_656
O10 Sr3 3.013416 1_555
O10 Sr0 3.045676 1_544
O11 Ti2 1.786658 1_555
O11 Sr1 2.554047 1_555
O11 Sr2 2.871674 1_555
O11 Sr2 3.013416 1_454
O11 Sr1 3.045676 1_566
O12 Ti1 1.786658 1_555
O12 Sr2 2.554047 1_555
O12 Sr1 2.871674 1_656
O12 Sr1 3.013416 1_555
O12 Sr2 3.045676 1_544
O13 Ti0 1.786645 1_555
O13 Sr3 2.554047 1_555
O13 Sr0 2.871674 1_555
O13 Sr0 3.013416 1_454
O13 Sr3 3.045676 1_566
