# generated using pymatgen
data_NdFeO3
_symmetry_space_group_name_H-M   'P 1'
_cell_length_a   3.51333900
_cell_length_b   6.25310200
_cell_length_c   13.06249600
_cell_angle_alpha   90.00000000
_cell_angle_beta   90.00000000
_cell_angle_gamma   90.00000000
_symmetry_Int_Tables_number   1
_chemical_formula_structural   NdFeO3
_chemical_formula_sum   'Nd4 Fe4 O12'
_cell_volume   286.97346398
_cell_formula_units_Z   4
loop_
 _symmetry_equiv_pos_site_id
 _symmetry_equiv_pos_as_xyz
  1  'x, y, z'
loop_
 _atom_site_type_symbol
 _atom_site_label
 _atom_site_symmetry_multiplicity
 _atom_site_fract_x
 _atom_site_fract_y
 _atom_site_fract_z
 _atom_site_occupancy
  Nd  Nd0  1  0.76189000  0.73756900  0.25000000  1
  Nd  Nd1  1  0.73811000  0.23756900  0.25000000  1
  Nd  Nd2  1  0.26189000  0.76243100  0.75000000  1
  Nd  Nd3  1  0.23811000  0.26243100  0.75000000  1
  Fe  Fe0  1  0.50000000  0.50000000  0.50000000  1
  Fe  Fe1  1  0.00000000  0.00000000  0.00000000  1
  Fe  Fe2  1  0.50000000  0.50000000  0.00000000  1
  Fe  Fe3  1  0.00000000  0.00000000  0.50000000  1
  O  O0  1  0.32804000  0.18988800  0.57351000  1
  O  O1  1  0.17196000  0.68988800  0.57351000  1
  O  O2  1  0.82804000  0.31011200  0.07351000  1
  O  O3  1  0.25923900  0.50236300  0.25000000  1
  O  O4  1  0.75923900  0.99763700  0.75000000  1
  O  O5  1  0.67196000  0.81011200  0.42649000  1
  O  O6  1  0.24076100  0.00236300  0.25000000  1
  O  O7  1  0.82804000  0.31011200  0.42649000  1
  O  O8  1  0.67196000  0.81011200  0.07351000  1
  O  O9  1  0.17196000  0.68988800  0.92649000  1
  O  O10  1  0.74076100  0.49763700  0.75000000  1
  O  O11  1  0.32804000  0.18988800  0.92649000  1
loop_
_geom_bond_atom_site_label_1
_geom_bond_atom_site_label_2
_geom_bond_distance
_geom_bond_site_symmetry_2
Nd0 O3 2.283946 1_655
Nd0 O3 2.298228 1_555
Nd0 O6 2.360553 1_665
Nd0 O8 2.370752 1_555
Nd0 O5 2.370752 1_555
Nd0 O6 2.468568 1_565
Nd1 O6 2.283946 1_555
Nd1 O6 2.298228 1_655
Nd1 O3 2.360553 1_555
Nd1 O2 2.370752 1_555
Nd1 O7 2.370752 1_555
Nd1 O3 2.468568 1_655
Nd2 O4 2.283946 1_555
Nd2 O4 2.298228 1_455
Nd2 O10 2.360553 1_555
Nd2 O1 2.370752 1_555
Nd2 O9 2.370752 1_555
Nd2 O10 2.468568 1_455
Nd3 O10 2.283946 1_455
Nd3 O10 2.298228 1_555
Nd3 O4 2.360553 1_445
Nd3 O0 2.370752 1_555
Nd3 O11 2.370752 1_555
Nd3 O4 2.468568 1_545
Fe0 O7 1.913169 1_555
Fe0 O1 1.913169 1_555
Fe0 O5 2.246638 1_555
Fe0 O0 2.246638 1_555
Fe1 O11 1.913169 1_554
Fe1 O8 1.913169 1_445
Fe1 O9 2.246638 1_544
Fe1 O2 2.246638 1_455
Fe2 O9 1.913169 1_554
Fe2 O2 1.913169 1_555
Fe2 O8 2.246638 1_555
Fe2 O11 2.246638 1_554
Fe3 O0 1.913169 1_555
Fe3 O5 1.913169 1_445
Fe3 O7 2.246638 1_455
Fe3 O1 2.246638 1_545
