# generated using pymatgen
data_Nd2(InSn)3
_symmetry_space_group_name_H-M   'P 1'
_cell_length_a   4.70512138
_cell_length_b   4.86810148
_cell_length_c   9.22896008
_cell_angle_alpha   90.00000000
_cell_angle_beta   90.00000000
_cell_angle_gamma   90.00000000
_symmetry_Int_Tables_number   1
_chemical_formula_structural   Nd2(InSn)3
_chemical_formula_sum   'Nd2 In3 Sn3'
_cell_volume   211.38940773
_cell_formula_units_Z   1
loop_
 _symmetry_equiv_pos_site_id
 _symmetry_equiv_pos_as_xyz
  1  'x, y, z'
loop_
 _atom_site_type_symbol
 _atom_site_label
 _atom_site_symmetry_multiplicity
 _atom_site_fract_x
 _atom_site_fract_y
 _atom_site_fract_z
 _atom_site_occupancy
  Nd  Nd0  1  0.00000000  -0.00000000  0.24740882  1
  Nd  Nd1  1  -0.00000000  -0.00000000  0.75259118  1
  In  In0  1  0.50000000  0.50000000  0.25248006  1
  In  In1  1  0.50000000  0.50000000  0.74751994  1
  In  In2  1  0.00000000  0.50000000  0.50000000  1
  Sn  Sn0  1  0.00000000  0.50000000  -0.00000000  1
  Sn  Sn1  1  0.50000000  -0.00000000  0.50000000  1
  Sn  Sn2  1  0.50000000  -0.00000000  -0.00000000  1
loop_
_geom_bond_atom_site_label_1
_geom_bond_atom_site_label_2
_geom_bond_distance
_geom_bond_site_symmetry_2
Nd0 Sn2 3.278433 1_555
Nd0 Sn2 3.278433 1_455
Nd0 Sn1 3.311921 1_555
Nd0 Sn1 3.311921 1_455
Nd0 Sn0 3.337391 1_545
Nd0 Sn0 3.337391 1_555
Nd1 Sn2 3.278433 1_456
Nd1 Sn2 3.278433 1_556
Nd1 Sn1 3.311921 1_555
Nd1 Sn1 3.311921 1_455
Nd1 Sn0 3.337391 1_556
Nd1 Sn0 3.337391 1_546
In0 In2 3.279147 1_555
In0 In2 3.279147 1_655
In0 Sn0 3.311199 1_555
In0 Sn0 3.311199 1_655
In0 Sn1 3.338093 1_565
In0 Sn1 3.338093 1_555
In0 Sn2 3.369585 1_555
In0 Sn2 3.369585 1_565
In0 Nd0 3.385459 1_665
In0 Nd0 3.385459 1_555
In0 Nd0 3.385459 1_565
In0 Nd0 3.385459 1_655
In1 In2 3.279147 1_555
In1 In2 3.279147 1_655
In1 Sn0 3.311199 1_556
In1 Sn0 3.311199 1_656
In1 Sn1 3.338093 1_565
In1 Sn1 3.338093 1_555
In1 Sn2 3.369585 1_566
In1 Sn2 3.369585 1_556
In1 Nd1 3.385459 1_665
In1 Nd1 3.385459 1_565
In1 Nd1 3.385459 1_555
In1 Nd1 3.385459 1_655
In2 Nd1 3.370294 1_555
In2 Nd0 3.370294 1_565
In2 Nd1 3.370294 1_565
In2 Nd0 3.370294 1_555
In2 Sn1 3.385136 1_565
In2 Sn1 3.385136 1_455
In2 Sn1 3.385136 1_555
In2 Sn1 3.385136 1_465
Sn0 Sn2 3.385136 1_455
Sn0 Sn2 3.385136 1_565
Sn0 Sn2 3.385136 1_555
Sn0 Sn2 3.385136 1_465
