# generated using pymatgen
data_ErNiGe3
_symmetry_space_group_name_H-M   'P 1'
_cell_length_a   10.97493954
_cell_length_b   10.97493954
_cell_length_c   4.07091100
_cell_angle_alpha   90.00000000
_cell_angle_beta   90.00000000
_cell_angle_gamma   158.50639805
_symmetry_Int_Tables_number   1
_chemical_formula_structural   ErNiGe3
_chemical_formula_sum   'Er2 Ni2 Ge6'
_cell_volume   179.65866913
_cell_formula_units_Z   2
loop_
 _symmetry_equiv_pos_site_id
 _symmetry_equiv_pos_as_xyz
  1  'x, y, z'
loop_
 _atom_site_type_symbol
 _atom_site_label
 _atom_site_symmetry_multiplicity
 _atom_site_fract_x
 _atom_site_fract_y
 _atom_site_fract_z
 _atom_site_occupancy
  Er  Er0  1  0.16902400  0.83097600  0.50000000  1
  Er  Er1  1  0.83097600  0.16902400  0.50000000  1
  Ni  Ni0  1  0.38883000  0.61117000  0.00000000  1
  Ni  Ni1  1  0.61117000  0.38883000  0.00000000  1
  Ge  Ge0  1  0.28312300  0.71687700  0.00000000  1
  Ge  Ge1  1  0.71687700  0.28312300  0.00000000  1
  Ge  Ge2  1  0.44263100  0.55736900  0.50000000  1
  Ge  Ge3  1  0.55736900  0.44263100  0.50000000  1
  Ge  Ge4  1  0.05757000  0.94243000  0.00000000  1
  Ge  Ge5  1  0.94243000  0.05757000  0.00000000  1
loop_
_geom_bond_atom_site_label_1
_geom_bond_atom_site_label_2
_geom_bond_distance
_geom_bond_site_symmetry_2
Er0 Ge1 3.065306 1_565
Er0 Ge1 3.065306 1_566
Er0 Ge1 3.065306 1_455
Er0 Ge1 3.065306 1_456
Er0 Ni1 3.144477 1_565
Er0 Ni1 3.144477 1_566
Er0 Ni1 3.144477 1_456
Er0 Ni1 3.144477 1_455
Er0 Ge4 3.149581 1_556
Er0 Ge4 3.149581 1_555
Er0 Ge3 3.160024 1_565
Er0 Ge3 3.160024 1_455
Er0 Ge0 3.193321 1_555
Er0 Ge0 3.193321 1_556
Er1 Ge0 3.065306 1_655
Er1 Ge0 3.065306 1_656
Er1 Ge0 3.065306 1_546
Er1 Ge0 3.065306 1_545
Er1 Ni0 3.144477 1_656
Er1 Ni0 3.144477 1_545
Er1 Ni0 3.144477 1_655
Er1 Ni0 3.144477 1_546
Er1 Ge5 3.149581 1_556
Er1 Ge5 3.149581 1_555
Er1 Ge2 3.160024 1_655
Er1 Ge2 3.160024 1_545
Er1 Ge1 3.193321 1_555
Er1 Ge1 3.193321 1_556
Ge0 Ni0 2.279560 1_555
Ge0 Ge1 2.495792 1_455
Ge0 Ge1 2.495792 1_565
Ge1 Ni1 2.279560 1_555
Ge2 Ni0 2.342898 1_555
Ge2 Ni0 2.342898 1_556
Ge2 Ge3 2.474313 1_555
Ge2 Ge5 2.886384 1_565
Ge2 Ge5 2.886384 1_455
Ge2 Ge5 2.886384 1_566
Ge2 Ge5 2.886384 1_456
Ge3 Ni1 2.342898 1_556
Ge3 Ni1 2.342898 1_555
Ge3 Ge4 2.886384 1_545
Ge3 Ge4 2.886384 1_546
Ge3 Ge4 2.886384 1_655
Ge3 Ge4 2.886384 1_656
Ge4 Ni1 2.350355 1_455
Ge4 Ni1 2.350355 1_565
Ge4 Ge5 2.482982 1_465
Ge5 Ni0 2.350355 1_545
Ge5 Ni0 2.350355 1_655
