# generated using pymatgen
data_Li9Mn7O16
_symmetry_space_group_name_H-M   'P 1'
_cell_length_a   5.29085800
_cell_length_b   7.66642816
_cell_length_c   7.77196041
_cell_angle_alpha   95.00269421
_cell_angle_beta   105.71489535
_cell_angle_gamma   98.38992946
_symmetry_Int_Tables_number   1
_chemical_formula_structural   Li9Mn7O16
_chemical_formula_sum   'Li9 Mn7 O16'
_cell_volume   297.54520101
_cell_formula_units_Z   1
loop_
 _symmetry_equiv_pos_site_id
 _symmetry_equiv_pos_as_xyz
  1  'x, y, z'
loop_
 _atom_site_type_symbol
 _atom_site_label
 _atom_site_symmetry_multiplicity
 _atom_site_fract_x
 _atom_site_fract_y
 _atom_site_fract_z
 _atom_site_occupancy
  Li  Li0  1  0.42357800  0.81062900  0.93116900  1
  Li  Li1  1  0.81225400  0.93731400  0.31379500  1
  Li  Li2  1  0.18774600  0.06268600  0.68620500  1
  Li  Li3  1  0.57642200  0.18937100  0.06883100  1
  Li  Li4  1  0.91872800  0.32017800  0.43263300  1
  Li  Li5  1  0.31427600  0.44180600  0.79946500  1
  Li  Li6  1  0.68572400  0.55819400  0.20053500  1
  Li  Li7  1  0.08127200  0.67982200  0.56736700  1
  Li  Li8  1  0.50000000  0.50000000  0.50000000  1
  Mn  Mn0  1  0.86565600  0.62260500  0.86832600  1
  Mn  Mn1  1  0.38166900  0.12866100  0.37507100  1
  Mn  Mn2  1  0.25631200  0.74971300  0.25471300  1
  Mn  Mn3  1  0.61833100  0.87133900  0.62492900  1
  Mn  Mn4  1  0.00000000  0.00000000  0.00000000  1
  Mn  Mn5  1  0.74368800  0.25028700  0.74528700  1
  Mn  Mn6  1  0.13434400  0.37739500  0.13167400  1
  O  O0  1  0.02823200  0.84043900  0.79691300  1
  O  O1  1  0.40305600  0.96228300  0.16874400  1
  O  O2  1  0.78688500  0.09274700  0.55229800  1
  O  O3  1  0.10939400  0.22065800  0.90360800  1
  O  O4  1  0.52252000  0.32988100  0.28172500  1
  O  O5  1  0.90972000  0.46228900  0.67202700  1
  O  O6  1  0.28599100  0.59265600  0.05428400  1
  O  O7  1  0.60790500  0.73075800  0.39948800  1
  O  O8  1  0.89060600  0.77934200  0.09639200  1
  O  O9  1  0.21311500  0.90725300  0.44770200  1
  O  O10  1  0.59694400  0.03771700  0.83125600  1
  O  O11  1  0.97176800  0.15956100  0.20308700  1
  O  O12  1  0.39209500  0.26924200  0.60051200  1
  O  O13  1  0.71400900  0.40734400  0.94571600  1
  O  O14  1  0.09028000  0.53771100  0.32797300  1
  O  O15  1  0.47748000  0.67011900  0.71827500  1
loop_
_geom_bond_atom_site_label_1
_geom_bond_atom_site_label_2
_geom_bond_distance
_geom_bond_site_symmetry_2
Li0 O15 2.003456 1_555
Li0 O0 2.124867 1_555
Li0 O6 2.130529 1_556
Li0 O1 2.131631 1_556
Li0 O10 2.151945 1_565
Li0 O8 2.513972 1_556
Li1 O7 2.048050 1_555
Li1 O11 2.141281 1_565
Li1 O9 2.150165 1_655
Li1 O8 2.159289 1_555
Li1 O2 2.161053 1_565
Li1 O1 2.198007 1_555
Li2 O12 2.048050 1_555
Li2 O0 2.141281 1_545
Li2 O2 2.150165 1_455
Li2 O3 2.159289 1_555
Li2 O9 2.161053 1_545
Li2 O10 2.198007 1_555
Li3 O4 2.003456 1_555
Li3 O11 2.124867 1_555
Li3 O13 2.130529 1_554
Li3 O10 2.131631 1_554
Li3 O1 2.151945 1_545
Li3 O3 2.513972 1_554
Li4 O5 2.088203 1_555
Li4 O14 2.112228 1_655
Li4 O4 2.122354 1_555
Li4 O2 2.161239 1_555
Li4 O11 2.183264 1_555
Li4 O12 2.594527 1_655
Li5 O15 2.062575 1_555
Li5 O12 2.111321 1_555
Li5 O5 2.136343 1_455
Li5 O13 2.178975 1_555
Li5 O3 2.209731 1_555
Li5 O6 2.256901 1_556
Li6 O4 2.062575 1_555
Li6 O7 2.111321 1_555
Li6 O14 2.136343 1_655
Li6 O6 2.178975 1_555
Li6 O8 2.209731 1_555
Li6 O13 2.256901 1_554
Li7 O14 2.088203 1_555
Li7 O5 2.112228 1_455
Li7 O15 2.122354 1_555
Li7 O9 2.161239 1_555
Li7 O0 2.183264 1_555
Li7 O7 2.594527 1_455
Li8 O12 2.062457 1_555
Li8 O7 2.062457 1_555
Li8 O4 2.088535 1_555
Li8 O15 2.088535 1_555
Li8 O5 2.291429 1_555
Li8 O14 2.291429 1_555
Mn0 O13 1.943475 1_555
Mn0 O0 1.959065 1_655
Mn0 O5 1.960032 1_555
Mn0 O8 2.014603 1_556
Mn0 O15 2.169260 1_555
Mn0 O6 2.356509 1_656
Mn1 O4 1.901050 1_555
Mn1 O12 1.958436 1_555
Mn1 O9 1.998300 1_545
Mn1 O1 1.998718 1_545
Mn1 O11 2.276177 1_455
Mn1 O2 2.282158 1_555
Mn2 O9 1.926384 1_555
Mn2 O7 1.929035 1_555
Mn2 O14 1.937305 1_555
Mn2 O6 1.939460 1_555
Mn2 O1 1.951069 1_555
Mn2 O8 2.048604 1_455
Mn3 O15 1.901050 1_555
Mn3 O7 1.958436 1_555
Mn3 O2 1.998300 1_565
Mn3 O10 1.998718 1_565
Mn3 O0 2.276177 1_655
Mn3 O9 2.282158 1_555
Mn4 O11 1.963232 1_455
Mn4 O0 1.963232 1_544
Mn4 O8 1.981950 1_445
Mn4 O3 1.981950 1_554
Mn4 O1 2.254388 1_545
Mn4 O10 2.254388 1_454
Mn5 O2 1.926384 1_555
Mn5 O12 1.929035 1_555
Mn5 O5 1.937305 1_555
Mn5 O13 1.939460 1_555
Mn5 O10 1.951069 1_555
Mn5 O3 2.048604 1_655
Mn6 O6 1.943475 1_555
Mn6 O11 1.959065 1_455
Mn6 O14 1.960032 1_555
Mn6 O3 2.014603 1_554
Mn6 O4 2.169260 1_555
Mn6 O13 2.356509 1_454
