# generated using pymatgen
data_MgVF4
_symmetry_space_group_name_H-M   'P 1'
_cell_length_a   5.13571200
_cell_length_b   5.53689572
_cell_length_c   5.81589142
_cell_angle_alpha   109.61827765
_cell_angle_beta   108.29009055
_cell_angle_gamma   90.98592301
_symmetry_Int_Tables_number   1
_chemical_formula_structural   MgVF4
_chemical_formula_sum   'Mg2 V2 F8'
_cell_volume   146.51410964
_cell_formula_units_Z   2
loop_
 _symmetry_equiv_pos_site_id
 _symmetry_equiv_pos_as_xyz
  1  'x, y, z'
loop_
 _atom_site_type_symbol
 _atom_site_label
 _atom_site_symmetry_multiplicity
 _atom_site_fract_x
 _atom_site_fract_y
 _atom_site_fract_z
 _atom_site_occupancy
  Mg  Mg0  1  0.73962900  0.67822400  0.48302500  1
  Mg  Mg1  1  0.26037100  0.32177600  0.51697500  1
  V  V0  1  0.50000000  0.00000000  0.00000000  1
  V  V1  1  0.00000000  0.50000000  0.00000000  1
  F  F0  1  0.14708900  0.66651100  0.74306900  1
  F  F1  1  0.29754200  0.01514800  0.25748600  1
  F  F2  1  0.85291100  0.33348900  0.25693100  1
  F  F3  1  0.34177800  0.53560200  0.30981600  1
  F  F4  1  0.70245800  0.98485200  0.74251400  1
  F  F5  1  0.21347200  0.21306700  0.79557500  1
  F  F6  1  0.65822200  0.46439800  0.69018400  1
  F  F7  1  0.78652800  0.78693300  0.20442500  1
loop_
_geom_bond_atom_site_label_1
_geom_bond_atom_site_label_2
_geom_bond_distance
_geom_bond_site_symmetry_2
F0 Mg1 2.131637 1_555
F0 Mg0 2.180505 1_455
F0 V0 2.293366 1_566
F0 V1 2.294156 1_556
F1 Mg1 1.915169 1_555
F1 V0 2.055881 1_555
F2 Mg0 2.131637 1_555
F2 Mg1 2.180505 1_655
F2 V0 2.293366 1_555
F2 V1 2.294156 1_655
F3 Mg0 1.982835 1_555
F3 V1 2.032483 1_555
F3 Mg1 2.070033 1_555
F4 Mg0 1.915169 1_555
F4 V0 2.055881 1_566
F5 Mg1 1.985088 1_555
F5 V1 2.179258 1_556
F5 V0 2.207750 1_556
F6 Mg1 1.982835 1_555
F6 V1 2.032483 1_656
F6 Mg0 2.070033 1_555
F7 Mg0 1.985088 1_555
F7 V1 2.179258 1_655
F7 V0 2.207750 1_565
