# generated using pymatgen
data_Li3V(H4O3)4
_symmetry_space_group_name_H-M   'P 1'
_cell_length_a   5.98252300
_cell_length_b   6.51657138
_cell_length_c   7.33772324
_cell_angle_alpha   89.51496693
_cell_angle_beta   89.35583358
_cell_angle_gamma   89.21450471
_symmetry_Int_Tables_number   1
_chemical_formula_structural   Li3V(H4O3)4
_chemical_formula_sum   'Li3 V1 H16 O12'
_cell_volume   286.01024772
_cell_formula_units_Z   1
loop_
 _symmetry_equiv_pos_site_id
 _symmetry_equiv_pos_as_xyz
  1  'x, y, z'
loop_
 _atom_site_type_symbol
 _atom_site_label
 _atom_site_symmetry_multiplicity
 _atom_site_fract_x
 _atom_site_fract_y
 _atom_site_fract_z
 _atom_site_occupancy
  Li  Li0  1  0.60026300  0.73315800  0.06402900  1
  Li  Li1  1  0.00376600  0.23308000  0.35645400  1
  Li  Li2  1  0.50249300  0.12013600  0.58520000  1
  V  V0  1  0.08641100  0.61537200  0.85189200  1
  H  H0  1  0.35382300  0.58255000  0.31245100  1
  H  H1  1  0.54508300  0.69853900  0.41694100  1
  H  H2  1  0.55026900  0.11872300  0.98063300  1
  H  H3  1  0.35220400  0.04740600  0.10940400  1
  H  H4  1  0.04307500  0.61199400  0.45496100  1
  H  H5  1  0.00700800  0.60537900  0.23519600  1
  H  H6  1  0.05064500  0.19548600  0.01773800  1
  H  H7  1  0.01285300  0.96151300  0.09010100  1
  H  H8  1  0.11440800  0.97864900  0.60107900  1
  H  H9  1  0.11150600  0.21044700  0.67361000  1
  H  H10  1  0.61721300  0.15050200  0.26568700  1
  H  H11  1  0.61972400  0.37412000  0.35211600  1
  H  H12  1  0.49784900  0.40670500  0.83222500  1
  H  H13  1  0.74731300  0.31433400  0.80805800  1
  H  H14  1  0.49979500  0.75845100  0.71136100  1
  H  H15  1  0.74985300  0.80076200  0.63488900  1
  O  O0  1  0.01438800  0.74579200  0.65105900  1
  O  O1  1  0.01514000  0.35634300  0.83561600  1
  O  O2  1  0.37485600  0.63271500  0.88230500  1
  O  O3  1  0.93327000  0.71901000  0.03420700  1
  O  O4  1  0.51795100  0.61215200  0.30650500  1
  O  O5  1  0.51818800  0.03031400  0.09084800  1
  O  O6  1  0.07727200  0.53112600  0.34096700  1
  O  O7  1  0.07657900  0.09819600  0.12339300  1
  O  O8  1  0.16788900  0.12108600  0.57006100  1
  O  O9  1  0.67072900  0.22871800  0.37496600  1
  O  O10  1  0.58441200  0.27687200  0.80246300  1
  O  O11  1  0.58608100  0.83041800  0.61120300  1
loop_
_geom_bond_atom_site_label_1
_geom_bond_atom_site_label_2
_geom_bond_distance
_geom_bond_site_symmetry_2
Li0 O4 1.999279 1_555
Li0 O5 2.001955 1_565
Li0 O3 2.002707 1_555
Li0 O2 2.025922 1_554
Li1 O7 1.971073 1_555
Li1 O8 1.987209 1_555
Li1 O9 1.996077 1_455
Li1 O6 1.999285 1_555
Li2 O11 1.954752 1_545
Li2 O9 1.964570 1_555
Li2 O10 1.970732 1_555
Li2 O8 2.006025 1_555
H0 O4 1.003658 1_555
H1 O4 1.006533 1_555
H2 O5 1.007197 1_556
H2 O10 1.670326 1_555
H3 O5 1.005577 1_555
H4 O6 1.009893 1_555
H4 O0 1.694617 1_555
H5 O6 1.004288 1_555
H5 O3 1.704448 1_455
H6 O7 1.009331 1_555
H6 O1 1.704799 1_554
H7 O7 1.006710 1_565
H7 O3 1.711196 1_455
H8 O8 1.009285 1_565
H8 O0 1.675016 1_555
H9 O8 1.013185 1_555
H9 O1 1.624226 1_555
H10 O9 1.011158 1_555
H10 O5 1.630059 1_555
H11 O9 1.004766 1_555
H12 O10 1.010087 1_555
H12 O2 1.678985 1_555
H13 O10 1.009277 1_555
H13 O1 1.644198 1_655
H14 O11 1.009360 1_555
H14 O2 1.667850 1_555
H15 O11 1.012705 1_555
H15 O0 1.623249 1_655
O0 V0 1.750048 1_555
O1 V0 1.752037 1_555
O2 V0 1.747799 1_555
O3 V0 1.748114 1_654
