# generated using pymatgen
data_Ba3(TaN2)2
_symmetry_space_group_name_H-M   'P 1'
_cell_length_a   6.36753600
_cell_length_b   11.11992800
_cell_length_c   10.60132000
_cell_angle_alpha   90.00000000
_cell_angle_beta   90.00000000
_cell_angle_gamma   90.00000000
_symmetry_Int_Tables_number   1
_chemical_formula_structural   Ba3(TaN2)2
_chemical_formula_sum   'Ba12 Ta8 N16'
_cell_volume   750.64280832
_cell_formula_units_Z   4
loop_
 _symmetry_equiv_pos_site_id
 _symmetry_equiv_pos_as_xyz
  1  'x, y, z'
loop_
 _atom_site_type_symbol
 _atom_site_label
 _atom_site_symmetry_multiplicity
 _atom_site_fract_x
 _atom_site_fract_y
 _atom_site_fract_z
 _atom_site_occupancy
  Ba  Ba0  1  0.62035900  0.15921600  0.41902500  1
  Ba  Ba1  1  0.87964100  0.84078400  0.41902500  1
  Ba  Ba2  1  0.62035900  0.34078400  0.08097500  1
  Ba  Ba3  1  0.87964100  0.65921600  0.08097500  1
  Ba  Ba4  1  0.37964100  0.84078400  0.58097500  1
  Ba  Ba5  1  0.12035900  0.15921600  0.58097500  1
  Ba  Ba6  1  0.37964100  0.65921600  0.91902500  1
  Ba  Ba7  1  0.12035900  0.34078400  0.91902500  1
  Ba  Ba8  1  0.75000000  0.50000000  0.40355800  1
  Ba  Ba9  1  0.75000000  0.00000000  0.09644200  1
  Ba  Ba10  1  0.25000000  0.50000000  0.59644200  1
  Ba  Ba11  1  0.25000000  0.00000000  0.90355800  1
  Ta  Ta0  1  0.75000000  0.50000000  0.73686300  1
  Ta  Ta1  1  0.75000000  0.00000000  0.76313700  1
  Ta  Ta2  1  0.25000000  0.50000000  0.26313700  1
  Ta  Ta3  1  0.25000000  0.00000000  0.23686300  1
  Ta  Ta4  1  0.63394300  0.25000000  0.75000000  1
  Ta  Ta5  1  0.86605700  0.75000000  0.75000000  1
  Ta  Ta6  1  0.36605700  0.75000000  0.25000000  1
  Ta  Ta7  1  0.13394300  0.25000000  0.25000000  1
  N  N0  1  0.83375200  0.35066800  0.64161100  1
  N  N1  1  0.66624800  0.64933200  0.64161100  1
  N  N2  1  0.83375200  0.14933200  0.85838900  1
  N  N3  1  0.66624800  0.85066800  0.85838900  1
  N  N4  1  0.16624800  0.64933200  0.35838900  1
  N  N5  1  0.33375200  0.35066800  0.35838900  1
  N  N6  1  0.16624800  0.85066800  0.14161100  1
  N  N7  1  0.33375200  0.14933200  0.14161100  1
  N  N8  1  0.52181400  0.41355300  0.83068200  1
  N  N9  1  0.97818600  0.58644700  0.83068200  1
  N  N10  1  0.52181400  0.08644700  0.66931800  1
  N  N11  1  0.97818600  0.91355300  0.66931800  1
  N  N12  1  0.47818600  0.58644700  0.16931800  1
  N  N13  1  0.02181400  0.41355300  0.16931800  1
  N  N14  1  0.47818600  0.91355300  0.33068200  1
  N  N15  1  0.02181400  0.08644700  0.33068200  1
loop_
_geom_bond_atom_site_label_1
_geom_bond_atom_site_label_2
_geom_bond_distance
_geom_bond_site_symmetry_2
Ba0 N15 2.840154 1_655
Ba0 N10 2.844160 1_555
Ba0 N5 2.876826 1_555
Ba0 N14 3.026412 1_545
Ba1 N14 2.840154 1_555
Ba1 N11 2.844160 1_555
Ba1 N4 2.876826 1_655
Ba1 N15 3.026412 1_665
Ba2 N13 2.840154 1_655
Ba2 N8 2.844160 1_554
Ba2 N7 2.876826 1_555
Ba2 N12 3.026412 1_555
Ba3 N12 2.840154 1_555
Ba3 N9 2.844160 1_554
Ba3 N6 2.876826 1_655
Ba3 N13 3.026412 1_655
Ba4 N11 2.840154 1_455
Ba4 N14 2.844160 1_555
Ba4 N1 2.876826 1_555
Ba4 N10 3.026412 1_565
Ba5 N10 2.840154 1_555
Ba5 N15 2.844160 1_555
Ba5 N0 2.876826 1_455
Ba5 N11 3.026412 1_445
Ba6 N9 2.840154 1_455
Ba6 N12 2.844160 1_556
Ba6 N3 2.876826 1_555
Ba6 N8 3.026412 1_555
Ba7 N8 2.840154 1_555
Ba7 N13 2.844160 1_556
Ba7 N2 2.876826 1_455
Ba7 N9 3.026412 1_455
Ba8 N0 3.067704 1_555
Ba8 N1 3.067704 1_555
Ba8 N4 3.164139 1_655
Ba8 N5 3.164139 1_555
Ba8 N13 3.175883 1_655
Ba8 N12 3.175883 1_555
Ba9 N3 3.067704 1_544
Ba9 N2 3.067704 1_554
Ba9 N6 3.164139 1_645
Ba9 N7 3.164139 1_555
Ba9 N15 3.175883 1_655
Ba9 N14 3.175883 1_545
Ba10 N4 3.067704 1_555
Ba10 N5 3.067704 1_555
Ba10 N0 3.164139 1_455
Ba10 N1 3.164139 1_555
Ba10 N9 3.175883 1_455
Ba10 N8 3.175883 1_555
Ba11 N7 3.067704 1_556
Ba11 N6 3.067704 1_546
Ba11 N2 3.164139 1_455
Ba11 N3 3.164139 1_545
Ba11 N10 3.175883 1_555
Ba11 N11 3.175883 1_445
N0 Ta0 2.015330 1_555
N0 Ta4 2.047482 1_555
N1 Ta0 2.015330 1_555
N1 Ta5 2.047482 1_555
N2 Ta1 2.015330 1_555
N2 Ta4 2.047482 1_555
N3 Ta1 2.015330 1_565
N3 Ta5 2.047482 1_555
N4 Ta2 2.015330 1_555
N4 Ta6 2.047482 1_555
N5 Ta2 2.015330 1_555
N5 Ta7 2.047482 1_555
N6 Ta3 2.015330 1_565
N6 Ta6 2.047482 1_555
N7 Ta3 2.015330 1_555
N7 Ta7 2.047482 1_555
N8 Ta0 2.006107 1_555
N8 Ta4 2.132847 1_555
N9 Ta0 2.006107 1_555
N9 Ta5 2.132847 1_555
N10 Ta1 2.006107 1_555
N10 Ta4 2.132847 1_555
N11 Ta1 2.006107 1_565
N11 Ta5 2.132847 1_555
N12 Ta2 2.006107 1_555
N12 Ta6 2.132847 1_555
N13 Ta2 2.006107 1_555
N13 Ta7 2.132847 1_555
N14 Ta3 2.006107 1_565
N14 Ta6 2.132847 1_555
N15 Ta3 2.006107 1_555
N15 Ta7 2.132847 1_555
