# generated using pymatgen
data_YFeN2
_symmetry_space_group_name_H-M   'P 1'
_cell_length_a   6.02187933
_cell_length_b   11.08020685
_cell_length_c   13.42612822
_cell_angle_alpha   90.00000000
_cell_angle_beta   90.00000000
_cell_angle_gamma   90.00000000
_symmetry_Int_Tables_number   1
_chemical_formula_structural   YFeN2
_chemical_formula_sum   'Y16 Fe16 N32'
_cell_volume   895.84052996
_cell_formula_units_Z   16
loop_
 _symmetry_equiv_pos_site_id
 _symmetry_equiv_pos_as_xyz
  1  'x, y, z'
loop_
 _atom_site_type_symbol
 _atom_site_label
 _atom_site_symmetry_multiplicity
 _atom_site_fract_x
 _atom_site_fract_y
 _atom_site_fract_z
 _atom_site_occupancy
  Y  Y0  1  0.63065187  0.05581470  0.30976579  1
  Y  Y1  1  0.13065187  0.44418530  0.69023421  1
  Y  Y2  1  0.36934813  0.55581470  0.19023421  1
  Y  Y3  1  0.86934813  0.94418530  0.80976579  1
  Y  Y4  1  0.36934813  0.94418530  0.69023421  1
  Y  Y5  1  0.86934813  0.55581470  0.30976579  1
  Y  Y6  1  0.63065187  0.44418530  0.80976579  1
  Y  Y7  1  0.13065187  0.05581470  0.19023421  1
  Y  Y8  1  0.92520722  0.28130331  0.44238836  1
  Y  Y9  1  0.42520722  0.21869669  0.55761164  1
  Y  Y10  1  0.07479278  0.78130331  0.05761164  1
  Y  Y11  1  0.57479278  0.71869669  0.94238836  1
  Y  Y12  1  0.07479278  0.71869669  0.55761164  1
  Y  Y13  1  0.57479278  0.78130331  0.44238836  1
  Y  Y14  1  0.92520722  0.21869669  0.94238836  1
  Y  Y15  1  0.42520722  0.28130331  0.05761164  1
  Fe  Fe0  1  0.16177938  0.95985381  0.45549171  1
  Fe  Fe1  1  0.66177938  0.54014619  0.54450829  1
  Fe  Fe2  1  0.83822062  0.45985381  0.04450829  1
  Fe  Fe3  1  0.33822062  0.04014619  0.95549171  1
  Fe  Fe4  1  0.83822062  0.04014619  0.54450829  1
  Fe  Fe5  1  0.33822062  0.45985381  0.45549171  1
  Fe  Fe6  1  0.16177938  0.54014619  0.95549171  1
  Fe  Fe7  1  0.66177938  0.95985381  0.04450829  1
  Fe  Fe8  1  0.21390246  0.30073734  0.27380074  1
  Fe  Fe9  1  0.71390246  0.19926266  0.72619926  1
  Fe  Fe10  1  0.78609754  0.80073734  0.22619926  1
  Fe  Fe11  1  0.28609754  0.69926266  0.77380074  1
  Fe  Fe12  1  0.78609754  0.69926266  0.72619926  1
  Fe  Fe13  1  0.28609754  0.80073734  0.27380074  1
  Fe  Fe14  1  0.21390246  0.19926266  0.77380074  1
  Fe  Fe15  1  0.71390246  0.30073734  0.22619926  1
  N  N0  1  0.17650205  0.36911483  0.54014856  1
  N  N1  1  0.67650205  0.13088517  0.45985144  1
  N  N2  1  0.82349795  0.86911483  0.95985144  1
  N  N3  1  0.32349795  0.63088517  0.04014856  1
  N  N4  1  0.82349795  0.63088517  0.45985144  1
  N  N5  1  0.32349795  0.86911483  0.54014856  1
  N  N6  1  0.17650205  0.13088517  0.04014856  1
  N  N7  1  0.67650205  0.36911483  0.95985144  1
  N  N8  1  0.61973449  0.40334692  0.46916835  1
  N  N9  1  0.11973449  0.09665308  0.53083165  1
  N  N10  1  0.38026551  0.90334692  0.03083165  1
  N  N11  1  0.88026551  0.59665308  0.96916835  1
  N  N12  1  0.38026551  0.59665308  0.53083165  1
  N  N13  1  0.88026551  0.90334692  0.46916835  1
  N  N14  1  0.61973449  0.09665308  0.96916835  1
  N  N15  1  0.11973449  0.40334692  0.03083165  1
  N  N16  1  0.95184537  0.21817577  0.26785889  1
  N  N17  1  0.45184537  0.28182423  0.73214111  1
  N  N18  1  0.04815463  0.71817577  0.23214111  1
  N  N19  1  0.54815463  0.78182423  0.76785889  1
  N  N20  1  0.04815463  0.78182423  0.73214111  1
  N  N21  1  0.54815463  0.71817577  0.26785889  1
  N  N22  1  0.95184537  0.28182423  0.76785889  1
  N  N23  1  0.45184537  0.21817577  0.23214111  1
  N  N24  1  0.70091337  0.44644819  0.16556106  1
  N  N25  1  0.20091337  0.05355181  0.83443894  1
  N  N26  1  0.29908663  0.94644819  0.33443894  1
  N  N27  1  0.79908663  0.55355181  0.66556106  1
  N  N28  1  0.29908663  0.55355181  0.83443894  1
  N  N29  1  0.79908663  0.94644819  0.16556106  1
  N  N30  1  0.70091337  0.05355181  0.66556106  1
  N  N31  1  0.20091337  0.44644819  0.33443894  1
loop_
_geom_bond_atom_site_label_1
_geom_bond_atom_site_label_2
_geom_bond_distance
_geom_bond_site_symmetry_2
Fe0 N5 1.803085 1_555
Fe0 N13 1.816474 1_455
Fe0 N26 1.829547 1_555
Fe0 N9 1.839790 1_565
Fe1 N4 1.803085 1_555
Fe1 N12 1.816474 1_555
Fe1 N27 1.829547 1_555
Fe1 N8 1.839790 1_555
Fe2 N7 1.803085 1_554
Fe2 N15 1.816474 1_655
Fe2 N24 1.829547 1_555
Fe2 N11 1.839790 1_554
Fe3 N6 1.803085 1_556
Fe3 N14 1.816474 1_555
Fe3 N25 1.829547 1_555
Fe3 N10 1.839790 1_546
Fe4 N1 1.803085 1_555
Fe4 N9 1.816474 1_655
Fe4 N30 1.829547 1_555
Fe4 N13 1.839790 1_545
Fe5 N0 1.803085 1_555
Fe5 N8 1.816474 1_555
Fe5 N31 1.829547 1_555
Fe5 N12 1.839790 1_555
Fe6 N3 1.803085 1_556
Fe6 N11 1.816474 1_455
Fe6 N28 1.829547 1_555
Fe6 N15 1.839790 1_556
Fe7 N2 1.803085 1_554
Fe7 N10 1.816474 1_555
Fe7 N29 1.829547 1_555
Fe7 N14 1.839790 1_564
Fe8 N23 1.789638 1_555
Fe8 N31 1.809853 1_555
Fe8 N16 1.825800 1_455
Fe9 N22 1.789638 1_555
Fe9 N30 1.809853 1_555
Fe9 N17 1.825800 1_555
Fe10 N21 1.789638 1_555
Fe10 N29 1.809853 1_555
Fe10 N18 1.825800 1_655
Fe11 N20 1.789638 1_555
Fe11 N28 1.809853 1_555
Fe11 N19 1.825800 1_555
Fe12 N19 1.789638 1_555
Fe12 N27 1.809853 1_555
Fe12 N20 1.825800 1_655
Fe13 N18 1.789638 1_555
Fe13 N26 1.809853 1_555
Fe13 N21 1.825800 1_555
Fe14 N17 1.789638 1_555
Fe14 N25 1.809853 1_555
Fe14 N22 1.825800 1_455
Fe15 N16 1.789638 1_555
Fe15 N24 1.809853 1_555
Fe15 N23 1.825800 1_555
N0 Y1 2.197413 1_555
N0 Y8 2.226974 1_455
N0 Y9 2.252946 1_555
N1 Y0 2.197413 1_555
N1 Y9 2.226974 1_555
N1 Y8 2.252946 1_555
N2 Y3 2.197413 1_555
N2 Y10 2.226974 1_656
N2 Y11 2.252946 1_555
N3 Y2 2.197413 1_555
N3 Y11 2.226974 1_554
N3 Y10 2.252946 1_555
N4 Y5 2.197413 1_555
N4 Y12 2.226974 1_655
N4 Y13 2.252946 1_555
N5 Y4 2.197413 1_555
N5 Y13 2.226974 1_555
N5 Y12 2.252946 1_555
N6 Y7 2.197413 1_555
N6 Y14 2.226974 1_454
N6 Y15 2.252946 1_555
N7 Y6 2.197413 1_555
N7 Y15 2.226974 1_556
N7 Y14 2.252946 1_555
N8 Y8 2.311221 1_555
N8 Y9 2.639740 1_555
N8 Y5 3.113472 1_555
N9 Y9 2.311221 1_555
N9 Y8 2.639740 1_455
N9 Y4 3.113472 1_545
N10 Y10 2.311221 1_555
N10 Y11 2.639740 1_554
N10 Y7 3.113472 1_565
N11 Y11 2.311221 1_555
N11 Y10 2.639740 1_656
N11 Y6 3.113472 1_555
N12 Y12 2.311221 1_555
N12 Y13 2.639740 1_555
N12 Y1 3.113472 1_555
N13 Y13 2.311221 1_555
N13 Y12 2.639740 1_655
N13 Y0 3.113472 1_565
N14 Y14 2.311221 1_555
N14 Y15 2.639740 1_556
N14 Y3 3.113472 1_545
N15 Y15 2.311221 1_555
N15 Y14 2.639740 1_454
N15 Y2 3.113472 1_555
N16 Y7 2.341357 1_655
N16 Y8 2.450679 1_555
N16 Y0 2.700748 1_555
N17 Y6 2.341357 1_555
N17 Y9 2.450679 1_555
N17 Y1 2.700748 1_555
N18 Y5 2.341357 1_455
N18 Y10 2.450679 1_555
N18 Y2 2.700748 1_555
N19 Y4 2.341357 1_555
N19 Y11 2.450679 1_555
N19 Y3 2.700748 1_555
N20 Y3 2.341357 1_455
N20 Y12 2.450679 1_555
N20 Y4 2.700748 1_555
N21 Y2 2.341357 1_555
N21 Y13 2.450679 1_555
N21 Y5 2.700748 1_555
N22 Y1 2.341357 1_655
N22 Y14 2.450679 1_555
N22 Y6 2.700748 1_555
N23 Y0 2.341357 1_555
N23 Y15 2.450679 1_555
N23 Y7 2.700748 1_555
N24 Y2 2.358983 1_555
N24 Y5 2.499157 1_555
N25 Y3 2.358983 1_445
N25 Y4 2.499157 1_545
N26 Y0 2.358983 1_565
N26 Y7 2.499157 1_565
N27 Y1 2.358983 1_655
N27 Y6 2.499157 1_555
N28 Y6 2.358983 1_555
N28 Y1 2.499157 1_555
N29 Y7 2.358983 1_665
N29 Y0 2.499157 1_565
N30 Y4 2.358983 1_545
N30 Y3 2.499157 1_545
N31 Y5 2.358983 1_455
N31 Y2 2.499157 1_555
