# generated using pymatgen
data_Cs2GdAuCl6
_symmetry_space_group_name_H-M   'P 1'
_cell_length_a   7.72317724
_cell_length_b   7.72317724
_cell_length_c   7.72317724
_cell_angle_alpha   60.00000000
_cell_angle_beta   60.00000000
_cell_angle_gamma   60.00000000
_symmetry_Int_Tables_number   1
_chemical_formula_structural   Cs2GdAuCl6
_chemical_formula_sum   'Cs2 Gd1 Au1 Cl6'
_cell_volume   325.74143656
_cell_formula_units_Z   1
loop_
 _symmetry_equiv_pos_site_id
 _symmetry_equiv_pos_as_xyz
  1  'x, y, z'
loop_
 _atom_site_type_symbol
 _atom_site_label
 _atom_site_symmetry_multiplicity
 _atom_site_fract_x
 _atom_site_fract_y
 _atom_site_fract_z
 _atom_site_occupancy
  Cs  Cs0  1  0.75000000  0.75000000  0.75000000  1
  Cs  Cs1  1  0.25000000  0.25000000  0.25000000  1
  Gd  Gd0  1  0.00000000  0.00000000  0.00000000  1
  Au  Au0  1  0.50000000  0.50000000  0.50000000  1
  Cl  Cl0  1  0.75482700  0.24517300  0.24517300  1
  Cl  Cl1  1  0.24517300  0.24517300  0.75482700  1
  Cl  Cl2  1  0.24517300  0.75482700  0.75482700  1
  Cl  Cl3  1  0.24517300  0.75482700  0.24517300  1
  Cl  Cl4  1  0.75482700  0.24517300  0.75482700  1
  Cl  Cl5  1  0.75482700  0.75482700  0.24517300  1
loop_
_geom_bond_atom_site_label_1
_geom_bond_atom_site_label_2
_geom_bond_distance
_geom_bond_site_symmetry_2
Au0 Cl2 2.783277 1_555
Au0 Cl0 2.783277 1_555
Au0 Cl3 2.783277 1_555
Au0 Cl4 2.783277 1_555
Au0 Cl1 2.783277 1_555
Au0 Cl5 2.783277 1_555
Cl0 Gd0 2.677834 1_655
Cl0 Cs1 3.861949 1_655
Cl0 Cs1 3.861949 1_555
Cl0 Cs0 3.861949 1_545
Cl0 Cs0 3.861949 1_554
Cl1 Gd0 2.677834 1_556
Cl1 Cs0 3.861949 1_455
Cl1 Cs1 3.861949 1_555
Cl1 Cs1 3.861949 1_556
Cl1 Cs0 3.861949 1_545
Cl2 Gd0 2.677834 1_566
Cl2 Cs0 3.861949 1_455
Cl2 Cs1 3.861949 1_556
Cl2 Cs0 3.861949 1_555
Cl2 Cs1 3.861949 1_565
Cl3 Gd0 2.677834 1_565
Cl3 Cs0 3.861949 1_455
Cl3 Cs1 3.861949 1_555
Cl3 Cs1 3.861949 1_565
Cl3 Cs0 3.861949 1_554
Cl4 Gd0 2.677834 1_656
Cl4 Cs1 3.861949 1_655
Cl4 Cs1 3.861949 1_556
Cl4 Cs0 3.861949 1_555
Cl4 Cs0 3.861949 1_545
Cl5 Gd0 2.677834 1_665
Cl5 Cs1 3.861949 1_655
Cl5 Cs0 3.861949 1_555
Cl5 Cs1 3.861949 1_565
Cl5 Cs0 3.861949 1_554
