# generated using pymatgen
data_Cu3N
_symmetry_space_group_name_H-M   'P 1'
_cell_length_a   5.49015997
_cell_length_b   5.49015997
_cell_length_c   13.22533800
_cell_angle_alpha   90.00000000
_cell_angle_beta   90.00000000
_cell_angle_gamma   119.99999968
_symmetry_Int_Tables_number   1
_chemical_formula_structural   Cu3N
_chemical_formula_sum   'Cu24 N8'
_cell_volume   345.22911234
_cell_formula_units_Z   8
loop_
 _symmetry_equiv_pos_site_id
 _symmetry_equiv_pos_as_xyz
  1  'x, y, z'
loop_
 _atom_site_type_symbol
 _atom_site_label
 _atom_site_symmetry_multiplicity
 _atom_site_fract_x
 _atom_site_fract_y
 _atom_site_fract_z
 _atom_site_occupancy
  Cu  Cu0_0  1  0.33333350  0.16666650  0.09759800  1
  Cu  Cu0_1  1  0.33333350  0.16666650  0.59759800  1
  Cu  Cu0_2  1  0.33333350  0.66666650  0.09759800  1
  Cu  Cu0_3  1  0.33333350  0.66666650  0.59759800  1
  Cu  Cu0_4  1  0.83333350  0.16666650  0.09759800  1
  Cu  Cu0_5  1  0.83333350  0.16666650  0.59759800  1
  Cu  Cu0_6  1  0.83333350  0.66666650  0.09759800  1
  Cu  Cu0_7  1  0.83333350  0.66666650  0.59759800  1
  Cu  Cu1_0  1  0.16666650  0.33333350  0.40240200  1
  Cu  Cu1_1  1  0.16666650  0.33333350  0.90240200  1
  Cu  Cu1_2  1  0.16666650  0.83333350  0.40240200  1
  Cu  Cu1_3  1  0.16666650  0.83333350  0.90240200  1
  Cu  Cu1_4  1  0.66666650  0.33333350  0.40240200  1
  Cu  Cu1_5  1  0.66666650  0.33333350  0.90240200  1
  Cu  Cu1_6  1  0.66666650  0.83333350  0.40240200  1
  Cu  Cu1_7  1  0.66666650  0.83333350  0.90240200  1
  Cu  Cu2_0  1  0.00000000  0.00000000  0.25000000  1
  Cu  Cu2_1  1  0.00000000  0.00000000  0.75000000  1
  Cu  Cu2_2  1  0.00000000  0.50000000  0.25000000  1
  Cu  Cu2_3  1  0.00000000  0.50000000  0.75000000  1
  Cu  Cu2_4  1  0.50000000  0.00000000  0.25000000  1
  Cu  Cu2_5  1  0.50000000  0.00000000  0.75000000  1
  Cu  Cu2_6  1  0.50000000  0.50000000  0.25000000  1
  Cu  Cu2_7  1  0.50000000  0.50000000  0.75000000  1
  N  N0_0  1  0.00000000  0.00000000  0.00000000  1
  N  N0_1  1  0.00000000  0.00000000  0.50000000  1
  N  N0_2  1  0.00000000  0.50000000  0.00000000  1
  N  N0_3  1  0.00000000  0.50000000  0.50000000  1
  N  N0_4  1  0.50000000  0.00000000  0.00000000  1
  N  N0_5  1  0.50000000  0.00000000  0.50000000  1
  N  N0_6  1  0.50000000  0.50000000  0.00000000  1
  N  N0_7  1  0.50000000  0.50000000  0.50000000  1
loop_
_geom_bond_atom_site_label_1
_geom_bond_atom_site_label_2
_geom_bond_distance
_geom_bond_site_symmetry_2
Cu0_0 N0_4 2.043990 1_555
Cu0_0 N0_6 2.043992 1_555
Cu0_0 N0_0 2.043992 1_555
Cu0_0 Cu2_4 2.564046 1_555
Cu0_0 Cu2_6 2.564047 1_555
Cu0_0 Cu2_0 2.564047 1_555
Cu0_1 N0_5 2.043990 1_555
Cu0_1 N0_7 2.043992 1_555
Cu0_1 N0_1 2.043992 1_555
Cu0_1 Cu2_5 2.564046 1_555
Cu0_1 Cu2_7 2.564047 1_555
Cu0_1 Cu2_1 2.564047 1_555
Cu0_2 N0_6 2.043990 1_555
Cu0_2 N0_2 2.043992 1_555
Cu0_2 N0_4 2.043992 1_565
Cu0_2 Cu2_6 2.564046 1_555
Cu0_2 Cu2_4 2.564047 1_565
Cu0_2 Cu2_2 2.564047 1_555
Cu0_3 N0_7 2.043990 1_555
Cu0_3 N0_3 2.043992 1_555
Cu0_3 N0_5 2.043992 1_565
Cu0_3 Cu2_7 2.564046 1_555
Cu0_3 Cu2_3 2.564047 1_555
Cu0_3 Cu2_5 2.564047 1_565
Cu0_4 N0_0 2.043990 1_655
Cu0_4 N0_4 2.043992 1_555
Cu0_4 N0_2 2.043992 1_655
Cu0_4 Cu2_0 2.564046 1_655
Cu0_4 Cu2_4 2.564047 1_555
Cu0_4 Cu2_2 2.564047 1_655
Cu0_5 N0_1 2.043990 1_655
Cu0_5 N0_5 2.043992 1_555
Cu0_5 N0_3 2.043992 1_655
Cu0_5 Cu2_1 2.564046 1_655
Cu0_5 Cu2_3 2.564047 1_655
Cu0_5 Cu2_5 2.564047 1_555
Cu0_6 N0_2 2.043990 1_655
Cu0_6 N0_0 2.043992 1_665
Cu0_6 N0_6 2.043992 1_555
Cu0_6 Cu2_2 2.564046 1_655
Cu0_6 Cu2_0 2.564047 1_665
Cu0_6 Cu2_6 2.564047 1_555
Cu0_7 N0_3 2.043990 1_655
Cu0_7 N0_1 2.043992 1_665
Cu0_7 N0_7 2.043992 1_555
Cu0_7 Cu2_3 2.564046 1_655
Cu0_7 Cu2_1 2.564047 1_665
Cu0_7 Cu2_7 2.564047 1_555
Cu1_0 N0_3 2.043990 1_555
Cu1_0 N0_1 2.043992 1_555
Cu1_0 N0_7 2.043992 1_555
Cu1_0 Cu2_2 2.564046 1_555
Cu1_0 Cu2_0 2.564047 1_555
Cu1_0 Cu2_6 2.564047 1_555
Cu1_1 N0_2 2.043990 1_556
Cu1_1 N0_6 2.043992 1_556
Cu1_1 N0_0 2.043992 1_556
Cu1_1 Cu2_3 2.564046 1_555
Cu1_1 Cu2_1 2.564047 1_555
Cu1_1 Cu2_7 2.564047 1_555
Cu1_2 N0_1 2.043990 1_565
Cu1_2 N0_3 2.043992 1_555
Cu1_2 N0_5 2.043992 1_565
Cu1_2 Cu2_0 2.564046 1_565
Cu1_2 Cu2_4 2.564047 1_565
Cu1_2 Cu2_2 2.564047 1_555
Cu1_3 N0_0 2.043990 1_566
Cu1_3 N0_2 2.043992 1_556
Cu1_3 N0_4 2.043992 1_566
Cu1_3 Cu2_1 2.564046 1_565
Cu1_3 Cu2_5 2.564047 1_565
Cu1_3 Cu2_3 2.564047 1_555
Cu1_4 N0_7 2.043990 1_555
Cu1_4 N0_5 2.043992 1_555
Cu1_4 N0_3 2.043992 1_655
Cu1_4 Cu2_6 2.564046 1_555
Cu1_4 Cu2_4 2.564047 1_555
Cu1_4 Cu2_2 2.564047 1_655
Cu1_5 N0_6 2.043990 1_556
Cu1_5 N0_4 2.043992 1_556
Cu1_5 N0_2 2.043992 1_656
Cu1_5 Cu2_7 2.564046 1_555
Cu1_5 Cu2_5 2.564047 1_555
Cu1_5 Cu2_3 2.564047 1_655
Cu1_6 N0_5 2.043990 1_565
Cu1_6 N0_1 2.043992 1_665
Cu1_6 N0_7 2.043992 1_555
Cu1_6 Cu2_4 2.564046 1_565
Cu1_6 Cu2_0 2.564047 1_665
Cu1_6 Cu2_6 2.564047 1_555
Cu1_7 N0_4 2.043990 1_566
Cu1_7 N0_0 2.043992 1_666
Cu1_7 N0_6 2.043992 1_556
Cu1_7 Cu2_5 2.564046 1_565
Cu1_7 Cu2_1 2.564047 1_665
Cu1_7 Cu2_7 2.564047 1_555
Cu2_0 Cu2_2 2.745080 1_555
Cu2_0 Cu2_2 2.745080 1_545
Cu2_0 Cu2_4 2.745080 1_555
Cu2_0 Cu2_4 2.745080 1_455
Cu2_0 Cu2_6 2.745080 1_555
Cu2_0 Cu2_6 2.745080 1_445
Cu2_1 Cu2_3 2.745080 1_555
Cu2_1 Cu2_3 2.745080 1_545
Cu2_1 Cu2_5 2.745080 1_455
Cu2_1 Cu2_5 2.745080 1_555
Cu2_1 Cu2_7 2.745080 1_445
Cu2_1 Cu2_7 2.745080 1_555
Cu2_2 Cu2_6 2.745080 1_555
Cu2_2 Cu2_6 2.745080 1_455
Cu2_2 Cu2_4 2.745080 1_565
Cu2_2 Cu2_4 2.745080 1_455
Cu2_3 Cu2_7 2.745080 1_555
Cu2_3 Cu2_7 2.745080 1_455
Cu2_3 Cu2_5 2.745080 1_455
Cu2_3 Cu2_5 2.745080 1_565
Cu2_4 Cu2_6 2.745080 1_555
Cu2_4 Cu2_6 2.745080 1_545
Cu2_5 Cu2_7 2.745080 1_555
Cu2_5 Cu2_7 2.745080 1_545
