# generated using pymatgen
data_BaMg14SiO16
_symmetry_space_group_name_H-M   'P 1'
_cell_length_a   8.77577391
_cell_length_b   8.77577391
_cell_length_c   4.53731334
_cell_angle_alpha   90.00000000
_cell_angle_beta   90.00000000
_cell_angle_gamma   90.00000000
_symmetry_Int_Tables_number   1
_chemical_formula_structural   BaMg14SiO16
_chemical_formula_sum   'Ba1 Mg14 Si1 O16'
_cell_volume   349.43759205
_cell_formula_units_Z   1
loop_
 _symmetry_equiv_pos_site_id
 _symmetry_equiv_pos_as_xyz
  1  'x, y, z'
loop_
 _atom_site_type_symbol
 _atom_site_label
 _atom_site_symmetry_multiplicity
 _atom_site_fract_x
 _atom_site_fract_y
 _atom_site_fract_z
 _atom_site_occupancy
  Ba  Ba0  1  0.50000000  0.50000000  -0.00000000  1
  Mg  Mg0  1  0.00000000  0.50000000  -0.00000000  1
  Mg  Mg1  1  0.50000000  0.00000000  -0.00000000  1
  Mg  Mg2  1  0.00000000  0.25064566  0.50000000  1
  Mg  Mg3  1  0.00000000  0.74935434  0.50000000  1
  Mg  Mg4  1  0.50000000  0.23601506  0.50000000  1
  Mg  Mg5  1  0.50000000  0.76398494  0.50000000  1
  Mg  Mg6  1  0.25064566  0.00000000  0.50000000  1
  Mg  Mg7  1  0.23601506  0.50000000  0.50000000  1
  Mg  Mg8  1  0.74935434  -0.00000000  0.50000000  1
  Mg  Mg9  1  0.76398494  0.50000000  0.50000000  1
  Mg  Mg10  1  0.24296416  0.24296416  -0.00000000  1
  Mg  Mg11  1  0.24296416  0.75703584  0.00000000  1
  Mg  Mg12  1  0.75703584  0.24296416  -0.00000000  1
  Mg  Mg13  1  0.75703584  0.75703584  0.00000000  1
  Si  Si0  1  0.00000000  0.00000000  -0.00000000  1
  O  O0  1  0.25392417  -0.00000000  0.00000000  1
  O  O1  1  0.22004980  0.50000000  -0.00000000  1
  O  O2  1  0.74607583  0.00000000  -0.00000000  1
  O  O3  1  0.77995020  0.50000000  -0.00000000  1
  O  O4  1  0.24928047  0.24928047  0.50000000  1
  O  O5  1  0.24928047  0.75071953  0.50000000  1
  O  O6  1  0.75071953  0.24928047  0.50000000  1
  O  O7  1  0.75071953  0.75071953  0.50000000  1
  O  O8  1  0.00000000  0.00000000  0.50000000  1
  O  O9  1  0.00000000  0.50000000  0.50000000  1
  O  O10  1  0.50000000  0.00000000  0.50000000  1
  O  O11  1  0.50000000  0.50000000  0.50000000  1
  O  O12  1  -0.00000000  0.25392417  0.00000000  1
  O  O13  1  0.00000000  0.74607583  0.00000000  1
  O  O14  1  0.50000000  0.22004980  -0.00000000  1
  O  O15  1  0.50000000  0.77995020  -0.00000000  1
loop_
_geom_bond_atom_site_label_1
_geom_bond_atom_site_label_2
_geom_bond_distance
_geom_bond_site_symmetry_2
Ba0 O11 2.268657 1_554
Ba0 O11 2.268657 1_555
Ba0 O15 2.456780 1_555
Ba0 O14 2.456780 1_555
Ba0 O3 2.456780 1_555
Ba0 O1 2.456780 1_555
Mg0 O3 1.931107 1_455
Mg0 O1 1.931107 1_555
Mg0 O13 2.159506 1_555
Mg0 O12 2.159506 1_555
Mg0 O9 2.268657 1_555
Mg0 O9 2.268657 1_554
Mg1 O15 1.931107 1_545
Mg1 O14 1.931107 1_555
Mg1 O0 2.159506 1_555
Mg1 O2 2.159506 1_555
Mg1 O10 2.268657 1_555
Mg1 O10 2.268657 1_554
Mg2 O4 2.187662 1_555
Mg2 O6 2.187662 1_455
Mg2 O9 2.188277 1_555
Mg2 O8 2.199610 1_555
Mg2 O12 2.268839 1_555
Mg2 O12 2.268839 1_556
Mg3 O5 2.187662 1_555
Mg3 O7 2.187662 1_455
Mg3 O9 2.188277 1_555
Mg3 O8 2.199610 1_565
Mg3 O13 2.268839 1_555
Mg3 O13 2.268839 1_556
Mg4 O10 2.071215 1_555
Mg4 O4 2.203335 1_555
Mg4 O6 2.203335 1_555
Mg4 O14 2.272979 1_556
Mg4 O14 2.272979 1_555
Mg4 O11 2.316672 1_555
Mg5 O10 2.071215 1_565
Mg5 O5 2.203335 1_555
Mg5 O7 2.203335 1_555
Mg5 O15 2.272979 1_556
Mg5 O15 2.272979 1_555
Mg5 O11 2.316672 1_555
Mg6 O4 2.187662 1_555
Mg6 O5 2.187662 1_545
Mg6 O10 2.188277 1_555
Mg6 O8 2.199610 1_555
Mg6 O0 2.268839 1_555
Mg6 O0 2.268839 1_556
Mg7 O9 2.071215 1_555
Mg7 O4 2.203335 1_555
Mg7 O5 2.203335 1_555
Mg7 O1 2.272979 1_556
Mg7 O1 2.272979 1_555
Mg7 O11 2.316672 1_555
Mg8 O6 2.187662 1_555
Mg8 O7 2.187662 1_545
Mg8 O10 2.188277 1_555
Mg8 O8 2.199610 1_655
Mg8 O2 2.268839 1_555
Mg8 O2 2.268839 1_556
Mg9 O9 2.071215 1_655
Mg9 O7 2.203335 1_555
Mg9 O6 2.203335 1_555
Mg9 O3 2.272979 1_556
Mg9 O3 2.272979 1_555
Mg9 O11 2.316672 1_555
Mg10 O12 2.134367 1_555
Mg10 O0 2.134367 1_555
Mg10 O1 2.264634 1_555
Mg10 O14 2.264634 1_555
Mg10 O4 2.270011 1_554
Mg10 O4 2.270011 1_555
Mg11 O0 2.134367 1_565
Mg11 O13 2.134367 1_555
Mg11 O15 2.264634 1_555
Mg11 O1 2.264634 1_555
Mg11 O5 2.270011 1_555
Mg11 O5 2.270011 1_554
Mg12 O12 2.134367 1_655
Mg12 O2 2.134367 1_555
Mg12 O3 2.264634 1_555
Mg12 O14 2.264634 1_555
Mg12 O6 2.270011 1_555
Mg12 O6 2.270011 1_554
Mg13 O2 2.134367 1_565
Mg13 O13 2.134367 1_655
Mg13 O15 2.264634 1_555
Mg13 O3 2.264634 1_555
Mg13 O7 2.270011 1_555
Mg13 O7 2.270011 1_554
O0 Si0 2.228381 1_555
O2 Si0 2.228381 1_655
O8 Si0 2.268657 1_555
O8 Si0 2.268657 1_556
O12 Si0 2.228381 1_555
O13 Si0 2.228381 1_565
