# generated using pymatgen
data_Gd(Ge2Rh3)2
_symmetry_space_group_name_H-M   'P 1'
_cell_length_a   7.15289612
_cell_length_b   7.15289423
_cell_length_c   3.83686051
_cell_angle_alpha   90.00000000
_cell_angle_beta   90.00000000
_cell_angle_gamma   119.99996478
_symmetry_Int_Tables_number   1
_chemical_formula_structural   Gd(Ge2Rh3)2
_chemical_formula_sum   'Gd1 Ge4 Rh6'
_cell_volume   170.00845365
_cell_formula_units_Z   1
loop_
 _symmetry_equiv_pos_site_id
 _symmetry_equiv_pos_as_xyz
  1  'x, y, z'
loop_
 _atom_site_type_symbol
 _atom_site_label
 _atom_site_symmetry_multiplicity
 _atom_site_fract_x
 _atom_site_fract_y
 _atom_site_fract_z
 _atom_site_occupancy
  Gd  Gd0  1  -0.00000000  0.00000000  0.00000000  1
  Ge  Ge0  1  0.33333200  0.66666600  0.00000000  1
  Ge  Ge1  1  0.80245077  0.60490054  0.50000000  1
  Ge  Ge2  1  0.39509946  0.19755023  0.50000000  1
  Ge  Ge3  1  0.80245177  0.19755123  0.50000000  1
  Rh  Rh0  1  0.53320127  0.06640154  0.00000000  1
  Rh  Rh1  1  0.93359846  0.46679973  0.00000000  1
  Rh  Rh2  1  0.53320127  0.46679973  -0.00000000  1
  Rh  Rh3  1  0.19934373  0.39868747  0.50000000  1
  Rh  Rh4  1  0.60131253  0.80065527  0.50000000  1
  Rh  Rh5  1  0.19934273  0.80065427  0.50000000  1
loop_
_geom_bond_atom_site_label_1
_geom_bond_atom_site_label_2
_geom_bond_distance
_geom_bond_site_symmetry_2
Gd0 Ge3 3.109747 1_455
Gd0 Ge3 3.109747 1_454
Gd0 Ge1 3.109747 1_444
Gd0 Ge1 3.109747 1_445
Gd0 Ge2 3.109748 1_555
Gd0 Ge2 3.109748 1_554
Gd0 Rh3 3.127270 1_554
Gd0 Rh3 3.127270 1_555
Gd0 Rh4 3.127271 1_445
Gd0 Rh4 3.127271 1_444
Gd0 Rh5 3.127274 1_544
Gd0 Rh5 3.127274 1_545
Ge0 Rh1 2.476186 1_455
Ge0 Rh2 2.476197 1_555
Ge0 Rh0 2.476198 1_565
Ge0 Rh5 2.536929 1_555
Ge0 Rh5 2.536929 1_554
Ge0 Rh3 2.536934 1_554
Ge0 Rh3 2.536934 1_555
Ge0 Rh4 2.536942 1_554
Ge0 Rh4 2.536942 1_555
Ge1 Rh5 2.458659 1_655
Ge1 Rh4 2.458664 1_555
Ge1 Rh1 2.542209 1_555
Ge1 Rh1 2.542209 1_556
Ge1 Rh2 2.542214 1_555
Ge1 Rh2 2.542214 1_556
Ge2 Rh3 2.458664 1_555
Ge2 Rh5 2.458683 1_545
Ge2 Rh2 2.542214 1_555
Ge2 Rh2 2.542214 1_556
Ge2 Rh0 2.542217 1_555
Ge2 Rh0 2.542217 1_556
Ge3 Rh3 2.458659 1_655
Ge3 Rh4 2.458683 1_545
Ge3 Rh1 2.542210 1_555
Ge3 Rh1 2.542210 1_556
Ge3 Rh0 2.542218 1_555
Ge3 Rh0 2.542218 1_556
