# generated using pymatgen
data_SrCaMn2O6
_symmetry_space_group_name_H-M   'P 1'
_cell_length_a   6.64683144
_cell_length_b   6.64683143
_cell_length_c   6.64682985
_cell_angle_alpha   70.09901964
_cell_angle_beta   69.94285866
_cell_angle_gamma   108.46044210
_symmetry_Int_Tables_number   1
_chemical_formula_structural   SrCaMn2O6
_chemical_formula_sum   'Sr2 Ca2 Mn4 O12'
_cell_volume   226.00557407
_cell_formula_units_Z   2
loop_
 _symmetry_equiv_pos_site_id
 _symmetry_equiv_pos_as_xyz
  1  'x, y, z'
loop_
 _atom_site_type_symbol
 _atom_site_label
 _atom_site_symmetry_multiplicity
 _atom_site_fract_x
 _atom_site_fract_y
 _atom_site_fract_z
 _atom_site_occupancy
  Sr  Sr0  1  0.50000100  0.00000000  0.00000000  1
  Sr  Sr1  1  0.99999900  0.00000000  0.50000000  1
  Ca  Ca0  1  0.50000000  0.50000100  0.50000000  1
  Ca  Ca1  1  0.00000000  0.49999900  0.00000000  1
  Mn  Mn0  1  0.50000200  0.00000000  0.49999900  1
  Mn  Mn1  1  0.99999900  0.50000000  0.50000000  1
  Mn  Mn2  1  0.99999900  0.00000000  0.00000100  1
  Mn  Mn3  1  0.50000000  0.50000000  0.99999900  1
  O  O0  1  0.74999800  0.50000000  0.75000200  1
  O  O1  1  0.25000300  0.50000000  0.24999700  1
  O  O2  1  0.24999800  0.00000000  0.75000200  1
  O  O3  1  0.75000100  0.00000000  0.24999900  1
  O  O4  1  0.50438900  0.25439200  0.24999700  1
  O  O5  1  0.00438900  0.25438800  0.75000000  1
  O  O6  1  0.49561100  0.74560900  0.75000300  1
  O  O7  1  0.99561100  0.74561200  0.24999900  1
  O  O8  1  0.25000100  0.25540000  0.99460100  1
  O  O9  1  0.75000000  0.25542300  0.49457700  1
  O  O10  1  0.74999900  0.74460000  0.00539900  1
  O  O11  1  0.24999900  0.74457600  0.50542400  1
loop_
_geom_bond_atom_site_label_1
_geom_bond_atom_site_label_2
_geom_bond_distance
_geom_bond_site_symmetry_2
Ca0 O11 2.667379 1_555
Ca0 O9 2.667390 1_555
Ca0 O8 2.667506 1_555
Ca0 O10 2.667507 1_555
Ca0 O7 2.696484 1_555
Ca0 O5 2.696484 1_555
Ca0 O6 2.696489 1_555
Ca0 O4 2.696494 1_555
Ca0 O3 2.723322 1_565
Ca0 O0 2.723333 1_555
Ca0 O1 2.723333 1_555
Ca0 O2 2.723333 1_555
Ca1 O11 2.667373 1_554
Ca1 O9 2.667378 1_455
Ca1 O8 2.667507 1_554
Ca1 O10 2.667518 1_455
Ca1 O4 2.696484 1_455
Ca1 O6 2.696484 1_554
Ca1 O5 2.696489 1_554
Ca1 O7 2.696494 1_455
Ca1 O3 2.723322 1_455
Ca1 O0 2.723333 1_454
Ca1 O1 2.723333 1_555
Ca1 O2 2.723333 1_564
Mn0 O3 1.904871 1_555
Mn0 O2 1.904902 1_555
Mn0 O6 1.908904 1_545
Mn0 O4 1.908916 1_555
Mn0 O9 1.943073 1_555
Mn0 O11 1.943084 1_545
Mn1 O0 1.904886 1_555
Mn1 O1 1.904902 1_655
Mn1 O7 1.908893 1_555
Mn1 O5 1.908897 1_655
Mn1 O9 1.943073 1_555
Mn1 O11 1.943077 1_655
Mn2 O3 1.904860 1_555
Mn2 O2 1.904867 1_654
Mn2 O7 1.908881 1_545
Mn2 O5 1.908885 1_654
Mn2 O8 1.943080 1_654
Mn2 O10 1.943080 1_545
Mn3 O1 1.904856 1_556
Mn3 O0 1.904856 1_555
Mn3 O6 1.908866 1_555
Mn3 O4 1.908870 1_556
Mn3 O8 1.943061 1_555
Mn3 O10 1.943069 1_556
O0 Sr1 2.723328 1_565
O0 Sr0 2.723328 1_556
O1 Sr1 2.723328 1_455
O1 Sr0 2.723328 1_565
O2 Sr1 2.723338 1_455
O2 Sr0 2.723338 1_556
O3 Sr0 2.723327 1_555
O3 Sr1 2.723327 1_555
O4 Sr0 2.745189 1_555
O4 Sr1 2.745190 1_455
O5 Sr0 2.745179 1_456
O5 Sr1 2.745184 1_455
O6 Sr1 2.745179 1_565
O6 Sr0 2.745184 1_566
O7 Sr1 2.745189 1_565
O7 Sr0 2.745190 1_665
O8 Sr1 2.725850 1_456
O8 Sr0 2.725862 1_556
O9 Sr0 2.725982 1_556
O9 Sr1 2.725982 1_555
O10 Sr1 2.725851 1_564
O10 Sr0 2.725851 1_565
O11 Sr0 2.725987 1_565
O11 Sr1 2.725993 1_465
