# generated using pymatgen
data_Ba3NaGd3(Si3O10)2
_symmetry_space_group_name_H-M   'P 1'
_cell_length_a   12.38538462
_cell_length_b   12.38538462
_cell_length_c   14.90206300
_cell_angle_alpha   90.00000000
_cell_angle_beta   90.00000000
_cell_angle_gamma   153.81756038
_symmetry_Int_Tables_number   1
_chemical_formula_structural   Ba3NaGd3(Si3O10)2
_chemical_formula_sum   'Ba6 Na2 Gd6 Si12 O40'
_cell_volume   1008.62852250
_cell_formula_units_Z   2
loop_
 _symmetry_equiv_pos_site_id
 _symmetry_equiv_pos_as_xyz
  1  'x, y, z'
loop_
 _atom_site_type_symbol
 _atom_site_label
 _atom_site_symmetry_multiplicity
 _atom_site_fract_x
 _atom_site_fract_y
 _atom_site_fract_z
 _atom_site_occupancy
  Ba  Ba0  1  0.01081200  0.84884300  0.25000000  1
  Ba  Ba1  1  0.84884300  0.01081200  0.75000000  1
  Ba  Ba2  1  0.68791000  0.17380700  0.88652300  1
  Ba  Ba3  1  0.17380700  0.68791000  0.11347700  1
  Ba  Ba4  1  0.68791000  0.17380700  0.61347700  1
  Ba  Ba5  1  0.17380700  0.68791000  0.38652300  1
  Na  Na0  1  0.46919900  0.24622300  0.75000000  1
  Na  Na1  1  0.24622300  0.46919900  0.25000000  1
  Gd  Gd0  1  0.61388100  0.39333500  0.03016600  1
  Gd  Gd1  1  0.39333500  0.61388100  0.96983400  1
  Gd  Gd2  1  0.61388100  0.39333500  0.46983400  1
  Gd  Gd3  1  0.39333500  0.61388100  0.53016600  1
  Gd  Gd4  1  0.00157900  0.00157900  0.00000000  1
  Gd  Gd5  1  0.00157900  0.00157900  0.50000000  1
  Si  Si0  1  0.64005900  0.28159700  0.25000000  1
  Si  Si1  1  0.28159700  0.64005900  0.75000000  1
  Si  Si2  1  0.11427100  0.81237900  0.94285800  1
  Si  Si3  1  0.81237900  0.11427100  0.05714200  1
  Si  Si4  1  0.11427100  0.81237900  0.55714200  1
  Si  Si5  1  0.81237900  0.11427100  0.44285800  1
  Si  Si6  1  0.44086300  0.44170800  0.86080400  1
  Si  Si7  1  0.44170800  0.44086300  0.13919600  1
  Si  Si8  1  0.44086300  0.44170800  0.63919600  1
  Si  Si9  1  0.44170800  0.44086300  0.36080400  1
  Si  Si10  1  0.09558700  0.71488100  0.75000000  1
  Si  Si11  1  0.71488100  0.09558700  0.25000000  1
  O  O0  1  0.96344900  0.78697700  0.96576100  1
  O  O1  1  0.78697700  0.96344900  0.03423900  1
  O  O2  1  0.96344900  0.78697700  0.53423900  1
  O  O3  1  0.78697700  0.96344900  0.46576100  1
  O  O4  1  0.91957200  0.54188900  0.96915300  1
  O  O5  1  0.54188900  0.91957200  0.03084700  1
  O  O6  1  0.91957200  0.54188900  0.53084700  1
  O  O7  1  0.54188900  0.91957200  0.46915300  1
  O  O8  1  0.45780500  0.43383800  0.75000000  1
  O  O9  1  0.43383800  0.45780500  0.25000000  1
  O  O10  1  0.19298800  0.87670500  0.83488700  1
  O  O11  1  0.87670500  0.19298800  0.16511300  1
  O  O12  1  0.19298800  0.87670500  0.66511300  1
  O  O13  1  0.87670500  0.19298800  0.33488700  1
  O  O14  1  0.78562300  0.29022300  0.25000000  1
  O  O15  1  0.29022300  0.78562300  0.75000000  1
  O  O16  1  0.66960400  0.72321000  0.89271700  1
  O  O17  1  0.72321000  0.66960400  0.10728300  1
  O  O18  1  0.66960400  0.72321000  0.60728300  1
  O  O19  1  0.72321000  0.66960400  0.39271700  1
  O  O20  1  0.37012800  0.02623100  0.99800200  1
  O  O21  1  0.02623100  0.37012800  0.00199800  1
  O  O22  1  0.37012800  0.02623100  0.50199800  1
  O  O23  1  0.02623100  0.37012800  0.49800200  1
  O  O24  1  0.75286700  0.44483800  0.16173100  1
  O  O25  1  0.44483800  0.75286700  0.83826900  1
  O  O26  1  0.75286700  0.44483800  0.33826900  1
  O  O27  1  0.44483800  0.75286700  0.66173100  1
  O  O28  1  0.28684800  0.19066600  0.11479000  1
  O  O29  1  0.19066600  0.28684800  0.88521000  1
  O  O30  1  0.28684800  0.19066600  0.38521000  1
  O  O31  1  0.19066600  0.28684800  0.61479000  1
  O  O32  1  0.34887900  0.99618100  0.25000000  1
  O  O33  1  0.99618100  0.34887900  0.75000000  1
  O  O34  1  0.41456000  0.30323100  0.91279900  1
  O  O35  1  0.30323100  0.41456000  0.08720100  1
  O  O36  1  0.41456000  0.30323100  0.58720100  1
  O  O37  1  0.30323100  0.41456000  0.41279900  1
  O  O38  1  0.81157700  0.42987500  0.75000000  1
  O  O39  1  0.42987500  0.81157700  0.25000000  1
loop_
_geom_bond_atom_site_label_1
_geom_bond_atom_site_label_2
_geom_bond_distance
_geom_bond_site_symmetry_2
Ba0 O32 2.673615 1_555
Ba0 O28 2.773802 1_565
Ba0 O30 2.773802 1_565
Ba0 O19 2.819078 1_455
Ba0 O17 2.819078 1_455
Ba0 O26 2.878063 1_455
Ba0 O24 2.878063 1_455
Ba1 O33 2.673615 1_555
Ba1 O31 2.773802 1_655
Ba1 O29 2.773802 1_655
Ba1 O18 2.819078 1_545
Ba1 O16 2.819078 1_545
Ba1 O25 2.878063 1_545
Ba1 O27 2.878063 1_545
Ba2 O4 2.656179 1_555
Ba2 O5 2.755099 1_546
Ba2 O38 2.797322 1_555
Ba2 O21 2.853971 1_656
Ba2 O33 2.925677 1_555
Ba2 O25 2.931047 1_545
Ba2 O20 2.946189 1_555
Ba2 O15 3.002092 1_545
Ba2 O10 3.350187 1_545
Ba3 O5 2.656179 1_555
Ba3 O4 2.755099 1_454
Ba3 O39 2.797322 1_555
Ba3 O20 2.853971 1_564
Ba3 O32 2.925677 1_555
Ba3 O24 2.931047 1_455
Ba3 O21 2.946189 1_555
Ba3 O14 3.002092 1_455
Ba3 O11 3.350187 1_455
Ba4 O6 2.656179 1_555
Ba4 O7 2.755099 1_545
Ba4 O38 2.797322 1_555
Ba4 O23 2.853971 1_655
Ba4 O33 2.925677 1_555
Ba4 O27 2.931047 1_545
Ba4 O22 2.946189 1_555
Ba4 O15 3.002092 1_545
Ba4 O12 3.350187 1_545
Ba5 O7 2.656179 1_555
Ba5 O6 2.755099 1_455
Ba5 O39 2.797322 1_555
Ba5 O22 2.853971 1_565
Ba5 O32 2.925677 1_555
Ba5 O26 2.931047 1_455
Ba5 O23 2.946189 1_555
Ba5 O14 3.002092 1_455
Ba5 O13 3.350187 1_455
Na0 O38 2.417448 1_555
Na0 O8 2.451114 1_555
Na0 O10 2.479644 1_545
Na0 O12 2.479644 1_545
Na0 O34 2.774839 1_555
Na0 O36 2.774839 1_555
Na1 O39 2.417448 1_555
Na1 O9 2.451114 1_555
Na1 O13 2.479644 1_455
Na1 O11 2.479644 1_455
Na1 O37 2.774839 1_555
Na1 O35 2.774839 1_555
Gd0 O24 2.289813 1_555
Gd0 O20 2.319612 1_554
Gd0 O34 2.335417 1_554
Gd0 O0 2.356016 1_554
Gd0 O4 2.458435 1_554
Gd0 O28 2.459520 1_555
Gd0 O17 2.558614 1_555
Gd1 O25 2.289813 1_555
Gd1 O21 2.319612 1_556
Gd1 O35 2.335417 1_556
Gd1 O1 2.356016 1_556
Gd1 O5 2.458435 1_556
Gd1 O29 2.459520 1_555
Gd1 O16 2.558614 1_555
Gd2 O26 2.289813 1_555
Gd2 O22 2.319612 1_555
Gd2 O36 2.335417 1_555
Gd2 O2 2.356016 1_555
Gd2 O6 2.458435 1_555
Gd2 O30 2.459520 1_555
Gd2 O19 2.558614 1_555
Gd3 O27 2.289813 1_555
Gd3 O23 2.319612 1_555
Gd3 O37 2.335417 1_555
Gd3 O3 2.356016 1_555
Gd3 O7 2.458435 1_555
Gd3 O31 2.459520 1_555
Gd3 O18 2.558614 1_555
Gd4 O1 2.301107 1_445
Gd4 O0 2.301107 1_444
Gd4 O17 2.430186 1_445
Gd4 O16 2.430186 1_444
Gd4 O29 2.458305 1_554
Gd4 O28 2.458305 1_555
Gd4 O35 2.740700 1_555
Gd4 O34 2.740700 1_554
Gd5 O3 2.301107 1_445
Gd5 O2 2.301107 1_445
Gd5 O18 2.430186 1_445
Gd5 O19 2.430186 1_445
Gd5 O30 2.458305 1_555
Gd5 O31 2.458305 1_555
Gd5 O36 2.740700 1_555
Gd5 O37 2.740700 1_555
O0 Si2 1.627901 1_655
O1 Si3 1.627901 1_565
O2 Si4 1.627901 1_655
O3 Si5 1.627901 1_565
O4 Si2 1.640893 1_655
O5 Si3 1.640893 1_565
O6 Si4 1.640893 1_655
O7 Si5 1.640893 1_565
O8 Si8 1.678311 1_555
O8 Si6 1.678311 1_555
O9 Si9 1.678311 1_555
O9 Si7 1.678311 1_555
O10 Si10 1.653186 1_555
O10 Si2 1.667338 1_555
O11 Si11 1.653186 1_555
O11 Si3 1.667338 1_555
O12 Si10 1.653186 1_555
O12 Si4 1.667338 1_555
O13 Si11 1.653186 1_555
O13 Si5 1.667338 1_555
O14 Si11 1.669745 1_555
O14 Si0 1.707643 1_555
O15 Si10 1.669745 1_555
O15 Si1 1.707643 1_555
O16 Si6 1.637119 1_555
O17 Si7 1.637119 1_555
O18 Si8 1.637119 1_555
O19 Si9 1.637119 1_555
O20 Si2 1.633507 1_545
O21 Si3 1.633507 1_455
O22 Si4 1.633507 1_545
O23 Si5 1.633507 1_455
O24 Si0 1.643199 1_555
O25 Si1 1.643199 1_555
O26 Si0 1.643199 1_555
O27 Si1 1.643199 1_555
O28 Si7 1.657169 1_555
O29 Si6 1.657169 1_555
O30 Si9 1.657169 1_555
O31 Si8 1.657169 1_555
O32 Si0 1.619027 1_565
O33 Si1 1.619027 1_655
O34 Si6 1.626416 1_555
O35 Si7 1.626416 1_555
O36 Si8 1.626416 1_555
O37 Si9 1.626416 1_555
O38 Si10 1.596314 1_655
O39 Si11 1.596314 1_565
