# generated using pymatgen
data_La4Ni3Sn8
_symmetry_space_group_name_H-M   'P 1'
_cell_length_a   4.55329000
_cell_length_b   4.56865600
_cell_length_c   18.19253500
_cell_angle_alpha   90.00000000
_cell_angle_beta   90.00000000
_cell_angle_gamma   90.00000000
_symmetry_Int_Tables_number   1
_chemical_formula_structural   La4Ni3Sn8
_chemical_formula_sum   'La4 Ni3 Sn8'
_cell_volume   378.44867531
_cell_formula_units_Z   1
loop_
 _symmetry_equiv_pos_site_id
 _symmetry_equiv_pos_as_xyz
  1  'x, y, z'
loop_
 _atom_site_type_symbol
 _atom_site_label
 _atom_site_symmetry_multiplicity
 _atom_site_fract_x
 _atom_site_fract_y
 _atom_site_fract_z
 _atom_site_occupancy
  La  La0  1  0.50000000  0.00000000  0.60490400  1
  La  La1  1  0.00000000  0.00000000  0.10898200  1
  La  La2  1  0.00000000  0.50000000  0.89131200  1
  La  La3  1  0.50000000  0.50000000  0.39108500  1
  Ni  Ni0  1  0.00000000  0.00000000  0.31633900  1
  Ni  Ni1  1  0.00000000  0.50000000  0.68561000  1
  Ni  Ni2  1  0.50000000  0.50000000  0.18428000  1
  Sn  Sn0  1  0.50000000  0.00000000  0.94755200  1
  Sn  Sn1  1  0.00000000  0.00000000  0.45258600  1
  Sn  Sn2  1  0.00000000  0.50000000  0.54793800  1
  Sn  Sn3  1  0.50000000  0.50000000  0.04733400  1
  Sn  Sn4  1  0.00000000  0.00000000  0.75372100  1
  Sn  Sn5  1  0.50000000  0.00000000  0.24883000  1
  Sn  Sn6  1  0.50000000  0.50000000  0.75403800  1
  Sn  Sn7  1  0.00000000  0.50000000  0.25078800  1
loop_
_geom_bond_atom_site_label_1
_geom_bond_atom_site_label_2
_geom_bond_distance
_geom_bond_site_symmetry_2
La0 Sn2 3.387521 1_555
La0 Sn2 3.387521 1_645
La0 Sn2 3.387521 1_545
La0 Sn2 3.387521 1_655
La0 Sn4 3.537358 1_655
La0 Sn4 3.537358 1_555
La0 Ni1 3.543588 1_645
La0 Ni1 3.543588 1_555
La0 Ni1 3.543588 1_545
La0 Ni1 3.543588 1_655
La0 Sn6 3.546717 1_555
La0 Sn6 3.546717 1_545
La0 Sn1 3.586340 1_555
La0 Sn1 3.586340 1_655
La1 Sn5 3.414090 1_455
La1 Sn5 3.414090 1_555
La1 Sn3 3.414543 1_555
La1 Sn3 3.414543 1_455
La1 Sn3 3.414543 1_445
La1 Sn3 3.414543 1_545
La1 Sn7 3.445806 1_545
La1 Sn7 3.445806 1_555
La1 Ni2 3.503967 1_445
La1 Ni2 3.503967 1_455
La1 Ni2 3.503967 1_545
La1 Ni2 3.503967 1_555
La1 Sn0 3.715916 1_554
La1 Sn0 3.715916 1_454
La2 Sn6 3.379339 1_555
La2 Sn6 3.379339 1_455
La2 Sn0 3.383504 1_465
La2 Sn0 3.383504 1_555
La2 Sn0 3.383504 1_455
La2 Sn0 3.383504 1_565
La2 Sn4 3.388777 1_565
La2 Sn4 3.388777 1_555
La2 Sn3 3.638658 1_556
La2 Sn3 3.638658 1_456
La3 Sn1 3.413666 1_555
La3 Sn1 3.413666 1_565
La3 Sn1 3.413666 1_655
La3 Sn1 3.413666 1_665
La3 Sn7 3.420182 1_555
La3 Sn7 3.420182 1_655
La3 Sn5 3.451926 1_555
La3 Sn5 3.451926 1_565
La3 Ni0 3.500054 1_655
La3 Ni0 3.500054 1_665
La3 Ni0 3.500054 1_555
La3 Ni0 3.500054 1_565
La3 Sn2 3.650463 1_655
La3 Sn2 3.650463 1_555
Ni0 Sn1 2.478678 1_555
Ni0 Sn7 2.576879 1_555
Ni0 Sn7 2.576879 1_545
Ni0 Sn5 2.586791 1_555
Ni0 Sn5 2.586791 1_455
Ni1 Sn2 2.504603 1_555
Ni1 Sn6 2.594771 1_555
Ni1 Sn6 2.594771 1_455
Ni1 Sn4 2.598760 1_565
Ni1 Sn4 2.598760 1_555
Ni2 Sn3 2.491395 1_555
Ni2 Sn5 2.568502 1_555
Ni2 Sn5 2.568502 1_565
Ni2 Sn7 2.578195 1_555
Ni2 Sn7 2.578195 1_655
Sn0 Sn3 2.917777 1_546
Sn0 Sn3 2.917777 1_556
Sn1 Sn2 2.868330 1_555
Sn1 Sn2 2.868330 1_545
Sn4 Sn6 3.225105 1_445
Sn4 Sn6 3.225105 1_545
Sn4 Sn6 3.225105 1_555
Sn4 Sn6 3.225105 1_455
