# generated using pymatgen
data_Mg7Si4
_symmetry_space_group_name_H-M   'P 1'
_cell_length_a   5.44261400
_cell_length_b   6.22108629
_cell_length_c   13.17636452
_cell_angle_alpha   87.02191328
_cell_angle_beta   85.19262868
_cell_angle_gamma   88.59915878
_symmetry_Int_Tables_number   1
_chemical_formula_structural   Mg7Si4
_chemical_formula_sum   'Mg14 Si8'
_cell_volume   443.87776613
_cell_formula_units_Z   2
loop_
 _symmetry_equiv_pos_site_id
 _symmetry_equiv_pos_as_xyz
  1  'x, y, z'
loop_
 _atom_site_type_symbol
 _atom_site_label
 _atom_site_symmetry_multiplicity
 _atom_site_fract_x
 _atom_site_fract_y
 _atom_site_fract_z
 _atom_site_occupancy
  Mg  Mg0  1  0.90394500  0.84690000  0.19352600  1
  Mg  Mg1  1  0.70058600  0.34752300  0.23997400  1
  Mg  Mg2  1  0.10543000  0.14911400  0.37745400  1
  Mg  Mg3  1  0.25403400  0.62194900  0.35612200  1
  Mg  Mg4  1  0.97925600  0.43651400  0.00495300  1
  Mg  Mg5  1  0.49218100  0.24161100  0.53797500  1
  Mg  Mg6  1  0.89808500  0.67542100  0.77213100  1
  Mg  Mg7  1  0.47382400  0.72007100  0.59304900  1
  Mg  Mg8  1  0.44703700  0.66165400  0.08181200  1
  Mg  Mg9  1  0.51083400  0.16758300  0.03096700  1
  Mg  Mg10  1  0.01759500  0.94015100  0.95724400  1
  Mg  Mg11  1  0.76935300  0.19274000  0.76816300  1
  Mg  Mg12  1  0.96515500  0.94564900  0.57310300  1
  Mg  Mg13  1  0.98460400  0.45473900  0.56519500  1
  Si  Si0  1  0.51028500  0.87328300  0.88507300  1
  Si  Si1  1  0.40195000  0.96977000  0.22342200  1
  Si  Si2  1  0.20911400  0.32492800  0.19008100  1
  Si  Si3  1  0.27894500  0.38010900  0.73149400  1
  Si  Si4  1  0.47867400  0.48805500  0.88022900  1
  Si  Si5  1  0.62400300  0.97573300  0.38555100  1
  Si  Si6  1  0.73626500  0.60133300  0.40310100  1
  Si  Si7  1  0.26243500  0.99256500  0.74569300  1
loop_
_geom_bond_atom_site_label_1
_geom_bond_atom_site_label_2
_geom_bond_distance
_geom_bond_site_symmetry_2
Mg0 Si1 2.820100 1_555
Mg0 Si1 2.897851 1_655
Mg0 Si5 2.978339 1_555
Mg0 Si6 3.162224 1_555
Mg1 Si6 2.754720 1_555
Mg1 Si2 2.792460 1_655
Mg1 Si2 2.815977 1_555
Mg1 Si1 2.917439 1_545
Mg1 Si5 2.941927 1_545
Mg2 Si2 2.669505 1_555
Mg2 Si1 2.750776 1_545
Mg2 Si5 2.849514 1_445
Mg2 Si5 3.005057 1_545
Mg3 Si6 2.745130 1_555
Mg3 Si1 2.800645 1_555
Mg3 Si6 2.838642 1_455
Mg3 Si2 2.965208 1_555
Mg3 Si5 3.079811 1_555
Mg4 Si2 2.879288 1_655
Mg4 Si4 3.070996 1_654
Mg5 Si5 2.707381 1_545
Mg5 Si3 2.876547 1_555
Mg5 Si6 3.044253 1_555
Mg5 Si7 3.245837 1_545
Mg6 Si3 2.772842 1_655
Mg6 Si0 2.778752 1_555
Mg6 Si7 2.819654 1_655
Mg6 Si4 2.830321 1_555
Mg7 Si7 2.848467 1_555
Mg7 Si3 2.882729 1_555
Mg7 Si6 2.896776 1_555
Mg7 Si5 3.148022 1_555
Mg8 Si1 2.736402 1_555
Mg8 Si2 2.759104 1_555
Mg8 Si0 2.844264 1_554
Mg8 Si4 2.909182 1_554
Mg9 Si0 2.722950 1_544
Mg9 Si4 2.753193 1_554
Mg9 Si2 2.758240 1_555
Mg9 Si1 2.784902 1_545
Mg10 Si0 2.797690 1_555
Mg10 Si7 2.992704 1_555
Mg10 Si0 3.039465 1_455
Mg11 Si0 2.786679 1_545
Mg11 Si4 2.794057 1_555
Mg11 Si7 2.929536 1_645
Mg11 Si3 2.953266 1_555
Mg11 Si3 3.026462 1_655
Mg11 Si7 3.097340 1_545
Mg12 Si7 2.929744 1_655
Mg12 Si5 3.208382 1_555
Mg13 Si6 2.727900 1_555
Mg13 Si3 2.833660 1_655
Si0 Si4 2.411422 1_555
Si0 Si7 2.442914 1_555
Si1 Si2 2.457500 1_565
Si1 Si5 2.543381 1_555
Si3 Si7 2.411770 1_545
Si3 Si4 2.450087 1_555
Si5 Si6 2.397912 1_555
