# generated using pymatgen
data_BaH2S5O6
_symmetry_space_group_name_H-M   'P 1'
_cell_length_a   5.40839700
_cell_length_b   10.26174000
_cell_length_c   22.35047000
_cell_angle_alpha   90.00000000
_cell_angle_beta   90.00000000
_cell_angle_gamma   90.00000000
_symmetry_Int_Tables_number   1
_chemical_formula_structural   BaH2S5O6
_chemical_formula_sum   'Ba4 H8 S20 O24'
_cell_volume   1240.44133641
_cell_formula_units_Z   4
loop_
 _symmetry_equiv_pos_site_id
 _symmetry_equiv_pos_as_xyz
  1  'x, y, z'
loop_
 _atom_site_type_symbol
 _atom_site_label
 _atom_site_symmetry_multiplicity
 _atom_site_fract_x
 _atom_site_fract_y
 _atom_site_fract_z
 _atom_site_occupancy
  Ba  Ba0  1  0.20674500  0.25000000  0.54938100  1
  Ba  Ba1  1  0.79325500  0.75000000  0.45061900  1
  Ba  Ba2  1  0.29325500  0.75000000  0.04938100  1
  Ba  Ba3  1  0.70674500  0.25000000  0.95061900  1
  H  H0  1  0.20400900  0.25000000  0.00950200  1
  H  H1  1  0.79599100  0.75000000  0.99049800  1
  H  H2  1  0.29599100  0.75000000  0.50950200  1
  H  H3  1  0.70400900  0.25000000  0.49049800  1
  H  H4  1  0.35875100  0.25000000  0.67771700  1
  H  H5  1  0.64124900  0.75000000  0.32228300  1
  H  H6  1  0.14124900  0.75000000  0.17771700  1
  H  H7  1  0.85875100  0.25000000  0.82228300  1
  S  S0  1  0.29375200  0.08692500  0.31902700  1
  S  S1  1  0.70624800  0.91307500  0.68097300  1
  S  S2  1  0.20624800  0.91307500  0.81902700  1
  S  S3  1  0.70624800  0.58692500  0.68097300  1
  S  S4  1  0.79375200  0.08692500  0.18097300  1
  S  S5  1  0.29375200  0.41307500  0.31902700  1
  S  S6  1  0.79375200  0.41307500  0.18097300  1
  S  S7  1  0.20624800  0.58692500  0.81902700  1
  S  S8  1  0.01164400  0.25000000  0.18137500  1
  S  S9  1  0.98835600  0.75000000  0.81862500  1
  S  S10  1  0.48835600  0.75000000  0.68137500  1
  S  S11  1  0.51164400  0.25000000  0.31862500  1
  S  S12  1  0.30687100  0.01129500  0.40851800  1
  S  S13  1  0.69312900  0.98870500  0.59148200  1
  S  S14  1  0.19312900  0.98870500  0.90851800  1
  S  S15  1  0.69312900  0.51129500  0.59148200  1
  S  S16  1  0.80687100  0.01129500  0.09148200  1
  S  S17  1  0.30687100  0.48870500  0.40851800  1
  S  S18  1  0.80687100  0.48870500  0.09148200  1
  S  S19  1  0.19312900  0.51129500  0.90851800  1
  O  O0  1  0.18426600  0.10374700  0.44875500  1
  O  O1  1  0.81573400  0.89625300  0.55124500  1
  O  O2  1  0.31573400  0.89625300  0.94875500  1
  O  O3  1  0.81573400  0.60374700  0.55124500  1
  O  O4  1  0.68426600  0.10374700  0.05124500  1
  O  O5  1  0.18426600  0.39625300  0.44875500  1
  O  O6  1  0.68426600  0.39625300  0.05124500  1
  O  O7  1  0.31573400  0.60374700  0.94875500  1
  O  O8  1  0.16869500  0.61108200  0.39946800  1
  O  O9  1  0.83130500  0.38891800  0.60053200  1
  O  O10  1  0.33130500  0.38891800  0.89946800  1
  O  O11  1  0.83130500  0.11108200  0.60053200  1
  O  O12  1  0.66869500  0.61108200  0.10053200  1
  O  O13  1  0.16869500  0.88891800  0.39946800  1
  O  O14  1  0.66869500  0.88891800  0.10053200  1
  O  O15  1  0.33130500  0.11108200  0.89946800  1
  O  O16  1  0.06880300  0.98837500  0.07675300  1
  O  O17  1  0.93119700  0.01162500  0.92324700  1
  O  O18  1  0.43119700  0.01162500  0.57675300  1
  O  O19  1  0.93119700  0.48837500  0.92324700  1
  O  O20  1  0.56880300  0.98837500  0.42324700  1
  O  O21  1  0.06880300  0.51162500  0.07675300  1
  O  O22  1  0.56880300  0.51162500  0.42324700  1
  O  O23  1  0.43119700  0.48837500  0.57675300  1
loop_
_geom_bond_atom_site_label_1
_geom_bond_atom_site_label_2
_geom_bond_distance
_geom_bond_site_symmetry_2
Ba0 O5 2.706545 1_555
Ba0 O0 2.706545 1_555
Ba0 O11 2.731708 1_455
Ba0 O9 2.731708 1_455
Ba0 O23 2.798481 1_555
Ba0 O18 2.798481 1_555
Ba0 H4 2.983858 1_555
Ba0 H3 2.994144 1_555
Ba0 H3 3.020755 1_455
Ba1 O3 2.706545 1_555
Ba1 O1 2.706545 1_555
Ba1 O13 2.731708 1_655
Ba1 O8 2.731708 1_655
Ba1 O22 2.798481 1_555
Ba1 O20 2.798481 1_555
Ba1 H5 2.983858 1_555
Ba1 H2 2.994144 1_555
Ba1 H2 3.020755 1_655
Ba2 O2 2.706545 1_554
Ba2 O7 2.706545 1_554
Ba2 O12 2.731708 1_555
Ba2 O14 2.731708 1_555
Ba2 O21 2.798481 1_555
Ba2 O16 2.798481 1_555
Ba2 H6 2.983858 1_555
Ba2 H1 2.994144 1_454
Ba2 H1 3.020755 1_554
Ba3 O6 2.706545 1_556
Ba3 O4 2.706545 1_556
Ba3 O10 2.731708 1_555
Ba3 O15 2.731708 1_555
Ba3 O19 2.798481 1_555
Ba3 O17 2.798481 1_555
Ba3 H7 2.983858 1_555
Ba3 H0 2.994144 1_656
Ba3 H0 3.020755 1_556
S0 S11 2.046752 1_555
S0 S12 2.146630 1_555
S1 S10 2.046752 1_555
S1 S13 2.146630 1_555
S2 S9 2.046752 1_455
S4 S8 2.046752 1_655
S6 S8 2.046752 1_655
S7 S9 2.046752 1_455
S10 S3 2.046752 1_555
S11 S5 2.046752 1_555
S14 S2 2.146630 1_555
S15 S3 2.146630 1_555
S16 S4 2.146630 1_555
S17 S5 2.146630 1_555
S18 S6 2.146630 1_555
S19 S7 2.146630 1_555
O0 S12 1.465787 1_555
O1 S13 1.465787 1_555
O2 S14 1.465787 1_555
O3 S15 1.465787 1_555
O4 S16 1.465787 1_555
O5 S17 1.465787 1_555
O6 S18 1.465787 1_555
O7 S19 1.465787 1_555
O8 S17 1.475271 1_555
O9 S15 1.475271 1_555
O10 S19 1.475271 1_555
O11 S13 1.475271 1_545
O12 S18 1.475271 1_555
O13 S12 1.475271 1_565
O14 S16 1.475271 1_565
O15 S14 1.475271 1_545
O16 S16 1.473275 1_465
O17 S14 1.473275 1_645
O18 S13 1.473275 1_545
O19 S19 1.473275 1_655
O20 S12 1.473275 1_565
O21 S18 1.473275 1_455
O22 S17 1.473275 1_555
O23 S15 1.473275 1_555
