# generated using pymatgen
data_TiNb2Zn2O8
_symmetry_space_group_name_H-M   'P 1'
_cell_length_a   10.13845897
_cell_length_b   10.13845897
_cell_length_c   5.29644177
_cell_angle_alpha   89.57708983
_cell_angle_beta   89.57708983
_cell_angle_gamma   34.01041828
_symmetry_Int_Tables_number   1
_chemical_formula_structural   TiNb2Zn2O8
_chemical_formula_sum   'Ti2 Nb4 Zn4 O16'
_cell_volume   304.50460600
_cell_formula_units_Z   2
loop_
 _symmetry_equiv_pos_site_id
 _symmetry_equiv_pos_as_xyz
  1  'x, y, z'
loop_
 _atom_site_type_symbol
 _atom_site_label
 _atom_site_symmetry_multiplicity
 _atom_site_fract_x
 _atom_site_fract_y
 _atom_site_fract_z
 _atom_site_occupancy
  Ti  Ti0  1  0.36688500  0.63311500  0.75000000  1
  Ti  Ti1  1  0.63311500  0.36688500  0.25000000  1
  Nb  Nb0  1  0.73896500  0.03314200  0.76999800  1
  Nb  Nb1  1  0.96685800  0.26103500  0.73000200  1
  Nb  Nb2  1  0.26103500  0.96685800  0.23000200  1
  Nb  Nb3  1  0.03314200  0.73896500  0.26999800  1
  Zn  Zn0  1  0.56916900  0.87154900  0.73447400  1
  Zn  Zn1  1  0.12845100  0.43083100  0.76552600  1
  Zn  Zn2  1  0.43083100  0.12845100  0.26552600  1
  Zn  Zn3  1  0.87154900  0.56916900  0.23447400  1
  O  O0  1  0.79796800  0.07155300  0.41272100  1
  O  O1  1  0.92844700  0.20203200  0.08727900  1
  O  O2  1  0.20203200  0.92844700  0.58727900  1
  O  O3  1  0.07155300  0.79796800  0.91272100  1
  O  O4  1  0.56645300  0.32393900  0.92063400  1
  O  O5  1  0.67606100  0.43354700  0.57936600  1
  O  O6  1  0.43354700  0.67606100  0.07936600  1
  O  O7  1  0.32393900  0.56645300  0.42063400  1
  O  O8  1  0.71845600  0.92651700  0.07354200  1
  O  O9  1  0.07348300  0.28154400  0.42645800  1
  O  O10  1  0.15651200  0.45760800  0.14302500  1
  O  O11  1  0.54239200  0.84348800  0.35697500  1
  O  O12  1  0.84348800  0.54239200  0.85697500  1
  O  O13  1  0.45760800  0.15651200  0.64302500  1
  O  O14  1  0.92651700  0.71845600  0.57354200  1
  O  O15  1  0.28154400  0.07348300  0.92645800  1
loop_
_geom_bond_atom_site_label_1
_geom_bond_atom_site_label_2
_geom_bond_distance
_geom_bond_site_symmetry_2
Nb0 O4 1.962903 1_555
Nb0 O8 2.034353 1_546
Nb0 O13 2.062626 1_555
Nb0 O3 2.075683 1_645
Nb0 O0 2.109243 1_555
Nb0 O14 2.199862 1_545
Nb1 O5 1.962903 1_555
Nb1 O9 2.034353 1_655
Nb1 O12 2.062626 1_555
Nb1 O2 2.075683 1_645
Nb1 O1 2.109243 1_556
Nb1 O15 2.199862 1_655
Nb2 O6 1.962903 1_555
Nb2 O15 2.034353 1_564
Nb2 O11 2.062626 1_555
Nb2 O1 2.075683 1_465
Nb2 O2 2.109243 1_555
Nb2 O9 2.199862 1_565
Nb3 O7 1.962903 1_555
Nb3 O14 2.034353 1_455
Nb3 O10 2.062626 1_555
Nb3 O0 2.075683 1_465
Nb3 O3 2.109243 1_554
Nb3 O8 2.199862 1_455
O0 Ti1 2.046469 1_555
O1 Ti1 2.046469 1_555
O2 Ti0 2.046469 1_555
O3 Ti0 2.046469 1_555
O4 Ti1 2.050853 1_556
O4 Ti0 2.051020 1_555
O5 Ti1 2.050853 1_555
O5 Ti0 2.051020 1_555
O6 Ti0 2.050853 1_554
O6 Ti1 2.051020 1_555
O7 Ti0 2.050853 1_555
O7 Ti1 2.051020 1_555
O8 Zn2 1.954024 1_565
O9 Zn3 1.954024 1_455
O10 Zn2 1.974867 1_555
O10 Zn1 2.072848 1_554
O10 Zn3 2.104917 1_455
O11 Zn3 1.974867 1_555
O11 Zn0 2.072848 1_555
O11 Zn2 2.104917 1_565
O12 Zn0 1.974867 1_555
O12 Zn3 2.072848 1_556
O12 Zn1 2.104917 1_655
O13 Zn1 1.974867 1_555
O13 Zn2 2.072848 1_555
O13 Zn0 2.104917 1_545
O14 Zn1 1.954024 1_655
O15 Zn0 1.954024 1_545
