# generated using pymatgen
data_FeCu3S4
_symmetry_space_group_name_H-M   'P 1'
_cell_length_a   6.35175115
_cell_length_b   6.35175115
_cell_length_c   6.35175115
_cell_angle_alpha   131.44757802
_cell_angle_beta   131.44757802
_cell_angle_gamma   71.10292929
_symmetry_Int_Tables_number   1
_chemical_formula_structural   FeCu3S4
_chemical_formula_sum   'Fe1 Cu3 S4'
_cell_volume   140.96742233
_cell_formula_units_Z   1
loop_
 _symmetry_equiv_pos_site_id
 _symmetry_equiv_pos_as_xyz
  1  'x, y, z'
loop_
 _atom_site_type_symbol
 _atom_site_label
 _atom_site_symmetry_multiplicity
 _atom_site_fract_x
 _atom_site_fract_y
 _atom_site_fract_z
 _atom_site_occupancy
  Fe  Fe0  1  0.00000000  0.00000000  0.00000000  1
  Cu  Cu0  1  0.50000000  0.50000000  0.00000000  1
  Cu  Cu1  1  0.75000000  0.25000000  0.50000000  1
  Cu  Cu2  1  0.25000000  0.75000000  0.50000000  1
  S  S0  1  0.12108900  0.63384800  0.00000000  1
  S  S1  1  0.63384800  0.12108900  0.00000000  1
  S  S2  1  0.87891100  0.87891100  0.51276000  1
  S  S3  1  0.36615200  0.36615200  0.48724000  1
loop_
_geom_bond_atom_site_label_1
_geom_bond_atom_site_label_2
_geom_bond_distance
_geom_bond_site_symmetry_2
Fe0 S2 2.200407 1_444
Fe0 S3 2.200413 1_555
Fe0 S0 2.200413 1_545
Fe0 S1 2.200413 1_455
Cu0 S0 2.278127 1_555
Cu0 S1 2.278127 1_555
Cu0 S2 2.278127 1_555
Cu0 S3 2.278132 1_554
Cu1 S3 2.268848 1_555
Cu1 S1 2.268851 1_555
Cu1 S0 2.268851 1_656
Cu1 S2 2.268854 1_545
Cu2 S3 2.268848 1_555
Cu2 S1 2.268851 1_566
Cu2 S0 2.268851 1_555
Cu2 S2 2.268854 1_455
