# generated using pymatgen
data_Li7Mn5O12
_symmetry_space_group_name_H-M   'P 1'
_cell_length_a   6.50393437
_cell_length_b   10.64817133
_cell_length_c   6.50391383
_cell_angle_alpha   94.76684565
_cell_angle_beta   82.87866788
_cell_angle_gamma   94.76760772
_symmetry_Int_Tables_number   1
_chemical_formula_structural   Li7Mn5O12
_chemical_formula_sum   'Li14 Mn10 O24'
_cell_volume   444.19885984
_cell_formula_units_Z   2
loop_
 _symmetry_equiv_pos_site_id
 _symmetry_equiv_pos_as_xyz
  1  'x, y, z'
loop_
 _atom_site_type_symbol
 _atom_site_label
 _atom_site_symmetry_multiplicity
 _atom_site_fract_x
 _atom_site_fract_y
 _atom_site_fract_z
 _atom_site_occupancy
  Li  Li0  1  0.83323700  0.25016500  0.16656600  1
  Li  Li1  1  0.83346000  0.74977300  0.16684400  1
  Li  Li2  1  0.07089400  0.13132800  0.40417900  1
  Li  Li3  1  0.07044700  0.63089900  0.40384100  1
  Li  Li4  1  0.59610800  0.36917700  0.92947100  1
  Li  Li5  1  0.59586800  0.86868900  0.92917400  1
  Li  Li6  1  0.74197200  0.11652700  0.74553500  1
  Li  Li7  1  0.74232600  0.61662100  0.74664000  1
  Li  Li8  1  0.41221100  0.11656600  0.07545900  1
  Li  Li9  1  0.41329100  0.61662600  0.07568700  1
  Li  Li10  1  0.25336600  0.38336100  0.25758900  1
  Li  Li11  1  0.25454900  0.88346600  0.25807200  1
  Li  Li12  1  0.92422600  0.38334800  0.58674900  1
  Li  Li13  1  0.92457400  0.88341500  0.58782500  1
  Mn  Mn0  1  0.99880000  0.99996500  0.00131600  1
  Mn  Mn1  1  0.99915100  0.50000600  0.00083400  1
  Mn  Mn2  1  0.66742500  0.49999800  0.33252600  1
  Mn  Mn3  1  0.66811700  0.99999100  0.33199400  1
  Mn  Mn4  1  0.50272700  0.25052100  0.49687000  1
  Mn  Mn5  1  0.50314700  0.74952400  0.49728400  1
  Mn  Mn6  1  0.16352300  0.25058200  0.83607300  1
  Mn  Mn7  1  0.16392800  0.74946700  0.83654900  1
  Mn  Mn8  1  0.33317300  0.50008500  0.66651300  1
  Mn  Mn9  1  0.33332000  0.99991100  0.66667700  1
  O  O0  1  0.45116500  0.19577700  0.78453200  1
  O  O1  1  0.45235500  0.69572200  0.78571000  1
  O  O2  1  0.21425300  0.30432600  0.54759900  1
  O  O3  1  0.21538700  0.80426600  0.54879500  1
  O  O4  1  0.94902500  0.44866300  0.28242500  1
  O  O5  1  0.94975900  0.94895900  0.28289100  1
  O  O6  1  0.71728400  0.05092100  0.05037800  1
  O  O7  1  0.71765200  0.55134800  0.05104500  1
  O  O8  1  0.11269600  0.16940000  0.09688500  1
  O  O9  1  0.11337700  0.66896300  0.09762300  1
  O  O10  1  0.76366000  0.16947600  0.44592300  1
  O  O11  1  0.76418000  0.66897100  0.44675100  1
  O  O12  1  0.90231500  0.33102000  0.88670300  1
  O  O13  1  0.90313500  0.83052700  0.88738000  1
  O  O14  1  0.55327700  0.33101100  0.23567800  1
  O  O15  1  0.55413000  0.83057200  0.23640600  1
  O  O16  1  0.61793700  0.44526200  0.61473600  1
  O  O17  1  0.61812600  0.94537500  0.61444500  1
  O  O18  1  0.28135400  0.44527000  0.95131300  1
  O  O19  1  0.28128400  0.94533500  0.95146100  1
  O  O20  1  0.38571600  0.05461900  0.38193300  1
  O  O21  1  0.38519400  0.55482100  0.38165500  1
  O  O22  1  0.04861100  0.05457300  0.71887900  1
  O  O23  1  0.04828800  0.55481400  0.71859000  1
loop_
_geom_bond_atom_site_label_1
_geom_bond_atom_site_label_2
_geom_bond_distance
_geom_bond_site_symmetry_2
Li0 O10 2.057943 1_555
Li0 O8 2.058985 1_655
Li0 O12 2.061466 1_554
Li0 O14 2.062017 1_555
Li0 O4 2.283378 1_555
Li0 O6 2.291241 1_555
Li1 O15 2.058351 1_555
Li1 O13 2.058938 1_554
Li1 O11 2.061552 1_555
Li1 O9 2.061639 1_655
Li1 O7 2.282625 1_555
Li1 O5 2.291094 1_555
Li2 O10 2.052735 1_455
Li2 O8 2.052885 1_555
Li2 O5 2.158502 1_445
Li2 O2 2.185724 1_555
Li2 O22 2.250131 1_555
Li2 O20 2.250694 1_555
Li3 O9 2.046031 1_555
Li3 O11 2.046376 1_455
Li3 O4 2.158222 1_455
Li3 O3 2.197077 1_555
Li3 O21 2.247367 1_555
Li3 O23 2.247409 1_555
Li4 O12 2.046240 1_555
Li4 O14 2.046253 1_556
Li4 O7 2.158255 1_556
Li4 O0 2.197315 1_555
Li4 O16 2.247494 1_555
Li4 O18 2.247656 1_555
Li5 O15 2.052622 1_556
Li5 O13 2.052983 1_555
Li5 O6 2.157709 1_566
Li5 O1 2.185996 1_555
Li5 O19 2.248940 1_555
Li5 O17 2.250001 1_555
Li6 O10 2.058215 1_555
Li6 O17 2.089279 1_545
Li6 O0 2.112959 1_555
Li6 O22 2.134641 1_655
Li6 O6 2.139489 1_556
Li6 O12 2.576811 1_555
Li7 O11 2.057667 1_555
Li7 O16 2.094375 1_555
Li7 O1 2.107246 1_555
Li7 O23 2.129338 1_655
Li7 O7 2.135397 1_556
Li7 O13 2.571883 1_555
Li8 O8 2.057320 1_555
Li8 O19 2.089910 1_544
Li8 O0 2.113470 1_554
Li8 O20 2.133642 1_555
Li8 O6 2.140912 1_555
Li8 O14 2.575868 1_555
Li9 O9 2.057751 1_555
Li9 O18 2.094396 1_554
Li9 O1 2.107241 1_554
Li9 O21 2.129335 1_555
Li9 O7 2.135177 1_555
Li9 O15 2.572228 1_555
Li10 O14 2.057791 1_555
Li10 O21 2.094285 1_555
Li10 O2 2.107128 1_555
Li10 O18 2.131698 1_554
Li10 O4 2.135071 1_455
Li10 O8 2.571957 1_555
Li11 O15 2.057841 1_555
Li11 O20 2.089514 1_565
Li11 O3 2.112171 1_555
Li11 O19 2.134079 1_554
Li11 O5 2.138644 1_455
Li11 O9 2.577168 1_555
Li12 O12 2.057966 1_555
Li12 O23 2.094360 1_655
Li12 O2 2.107176 1_655
Li12 O16 2.131814 1_555
Li12 O4 2.135022 1_555
Li12 O10 2.571176 1_555
Li13 O13 2.057750 1_555
Li13 O22 2.089692 1_665
Li13 O3 2.112491 1_655
Li13 O17 2.133500 1_555
Li13 O5 2.139572 1_555
Li13 O11 2.576303 1_555
Mn0 O6 1.933947 1_565
Mn0 O5 1.934478 1_555
Mn0 O22 1.953484 1_664
Mn0 O19 1.953878 1_654
Mn0 O8 1.973766 1_665
Mn0 O13 1.974061 1_554
Mn1 O7 1.935460 1_555
Mn1 O4 1.936003 1_555
Mn1 O18 1.952509 1_654
Mn1 O23 1.952968 1_654
Mn1 O9 1.972424 1_655
Mn1 O12 1.972567 1_554
Mn2 O7 1.935368 1_555
Mn2 O4 1.936038 1_555
Mn2 O16 1.952533 1_555
Mn2 O21 1.952959 1_555
Mn2 O11 1.972504 1_555
Mn2 O14 1.972635 1_555
Mn3 O6 1.934472 1_565
Mn3 O5 1.935011 1_555
Mn3 O20 1.953374 1_565
Mn3 O17 1.953630 1_555
Mn3 O15 1.973856 1_555
Mn3 O10 1.974248 1_565
Mn4 O14 1.945546 1_555
Mn4 O10 1.947087 1_555
Mn4 O0 1.986414 1_555
Mn4 O2 1.987730 1_555
Mn4 O16 2.251452 1_555
Mn4 O20 2.259949 1_555
Mn5 O11 1.944976 1_555
Mn5 O15 1.946775 1_555
Mn5 O3 1.987014 1_555
Mn5 O1 1.987419 1_555
Mn5 O21 2.252090 1_555
Mn5 O17 2.259852 1_555
Mn6 O12 1.945392 1_455
Mn6 O8 1.947085 1_556
Mn6 O0 1.986533 1_555
Mn6 O2 1.987487 1_555
Mn6 O18 2.250953 1_555
Mn6 O22 2.261248 1_555
Mn7 O9 1.944939 1_556
Mn7 O13 1.946340 1_455
Mn7 O3 1.987170 1_555
Mn7 O1 1.987233 1_555
Mn7 O23 2.251663 1_555
Mn7 O19 2.260263 1_555
Mn8 O16 1.968964 1_555
Mn8 O18 1.969148 1_555
Mn8 O21 1.969241 1_555
Mn8 O23 1.969405 1_555
Mn8 O1 2.270166 1_555
Mn8 O2 2.270196 1_555
Mn9 O22 1.968093 1_565
Mn9 O19 1.968177 1_555
Mn9 O17 1.968213 1_555
Mn9 O20 1.968510 1_565
Mn9 O3 2.265139 1_555
Mn9 O0 2.266945 1_565
