# generated using pymatgen
data_BaCoAs2O7
_symmetry_space_group_name_H-M   'P 1'
_cell_length_a   7.71912198
_cell_length_b   7.97970836
_cell_length_c   11.16179544
_cell_angle_alpha   92.91813829
_cell_angle_beta   95.43781200
_cell_angle_gamma   102.88402607
_symmetry_Int_Tables_number   1
_chemical_formula_structural   BaCoAs2O7
_chemical_formula_sum   'Ba4 Co4 As8 O28'
_cell_volume   665.35907327
_cell_formula_units_Z   4
loop_
 _symmetry_equiv_pos_site_id
 _symmetry_equiv_pos_as_xyz
  1  'x, y, z'
loop_
 _atom_site_type_symbol
 _atom_site_label
 _atom_site_symmetry_multiplicity
 _atom_site_fract_x
 _atom_site_fract_y
 _atom_site_fract_z
 _atom_site_occupancy
  Ba  Ba0  1  0.28024300  0.92878800  0.09565000  1
  Ba  Ba1  1  0.28022000  0.92882100  0.59564400  1
  Ba  Ba2  1  0.71976100  0.07121400  0.40434200  1
  Ba  Ba3  1  0.71978700  0.07117700  0.90435300  1
  Co  Co0  1  0.11321700  0.39774400  0.59159000  1
  Co  Co1  1  0.88676900  0.60221800  0.90842800  1
  Co  Co2  1  0.11317200  0.39773000  0.09155000  1
  Co  Co3  1  0.88682900  0.60229300  0.40845100  1
  As  As0  1  0.31157300  0.60608800  0.35292100  1
  As  As1  1  0.31152900  0.60608000  0.85294800  1
  As  As2  1  0.68841900  0.39392300  0.14708500  1
  As  As3  1  0.68847700  0.39390300  0.64704300  1
  As  As4  1  0.22798700  0.21000700  0.34341300  1
  As  As5  1  0.22804300  0.21002500  0.84342300  1
  As  As6  1  0.77202900  0.79000600  0.15657700  1
  As  As7  1  0.77194300  0.78996300  0.65658200  1
  O  O0  1  0.34402500  0.05316600  0.34622100  1
  O  O1  1  0.34410300  0.05321600  0.84621200  1
  O  O2  1  0.65599400  0.94684900  0.15375400  1
  O  O3  1  0.65589100  0.94678200  0.65378800  1
  O  O4  1  0.09878000  0.20072200  0.46110600  1
  O  O5  1  0.09881900  0.20073200  0.96110500  1
  O  O6  1  0.90127600  0.79927800  0.03890900  1
  O  O7  1  0.90119800  0.79926100  0.53890800  1
  O  O8  1  0.14736600  0.58927400  0.45182400  1
  O  O9  1  0.14731400  0.58924400  0.95185400  1
  O  O10  1  0.85261600  0.41071900  0.04817100  1
  O  O11  1  0.85268600  0.41074900  0.54813400  1
  O  O12  1  0.39112200  0.41236900  0.36516300  1
  O  O13  1  0.39114100  0.41240700  0.86517200  1
  O  O14  1  0.60888700  0.58763900  0.13482900  1
  O  O15  1  0.60886400  0.58757900  0.63483000  1
  O  O16  1  0.22149800  0.60730600  0.20657400  1
  O  O17  1  0.22152300  0.60732000  0.70659000  1
  O  O18  1  0.77850400  0.39269500  0.29342200  1
  O  O19  1  0.77847200  0.39267700  0.79340400  1
  O  O20  1  0.10923400  0.20312700  0.20520300  1
  O  O21  1  0.10931100  0.20319600  0.70520700  1
  O  O22  1  0.89073900  0.79689600  0.29480500  1
  O  O23  1  0.89066000  0.79680200  0.79480900  1
  O  O24  1  0.48467000  0.76753400  0.40475400  1
  O  O25  1  0.48458800  0.76754800  0.90481900  1
  O  O26  1  0.51530800  0.23248200  0.09525600  1
  O  O27  1  0.51541100  0.23245300  0.59517800  1
loop_
_geom_bond_atom_site_label_1
_geom_bond_atom_site_label_2
_geom_bond_distance
_geom_bond_site_symmetry_2
Ba0 O26 2.684558 1_565
Ba0 O16 2.868886 1_555
Ba0 O6 2.874107 1_455
Ba0 O0 2.878913 1_565
Ba0 O2 2.881256 1_555
Ba0 O9 2.995897 1_554
Ba0 O1 3.050212 1_564
Ba0 O20 3.058137 1_565
Ba0 O25 3.153305 1_554
Ba0 O5 3.195938 1_564
Ba1 O27 2.684738 1_565
Ba1 O17 2.869140 1_555
Ba1 O7 2.874539 1_455
Ba1 O1 2.878918 1_565
Ba1 O3 2.880860 1_555
Ba1 O8 2.995986 1_555
Ba1 O0 3.049757 1_565
Ba1 O21 3.057924 1_565
Ba1 O24 3.154480 1_555
Ba1 O4 3.195695 1_565
Ba2 O24 2.684592 1_545
Ba2 O18 2.868857 1_555
Ba2 O4 2.874500 1_655
Ba2 O2 2.879064 1_545
Ba2 O0 2.881187 1_555
Ba2 O11 2.995816 1_555
Ba2 O3 3.050321 1_545
Ba2 O22 3.057781 1_545
Ba2 O27 3.153366 1_555
Ba2 O7 3.196159 1_545
Ba3 O25 2.684750 1_545
Ba3 O19 2.869150 1_555
Ba3 O5 2.874624 1_655
Ba3 O3 2.878887 1_545
Ba3 O1 2.880953 1_555
Ba3 O10 2.995927 1_556
Ba3 O2 3.049463 1_546
Ba3 O23 3.057663 1_545
Ba3 O26 3.154799 1_556
Ba3 O6 3.195981 1_546
Co0 O17 2.024325 1_555
Co0 O11 2.050308 1_455
Co0 O21 2.050866 1_555
Co0 O4 2.064784 1_555
Co0 O8 2.231617 1_555
Co1 O19 2.024266 1_555
Co1 O9 2.050294 1_655
Co1 O23 2.051117 1_555
Co1 O6 2.064879 1_556
Co1 O10 2.231255 1_556
Co2 O16 2.024500 1_555
Co2 O10 2.050333 1_455
Co2 O20 2.051451 1_555
Co2 O5 2.064478 1_554
Co2 O9 2.230944 1_554
Co3 O18 2.024652 1_555
Co3 O8 2.050249 1_655
Co3 O22 2.051420 1_555
Co3 O7 2.064373 1_555
Co3 O11 2.231003 1_555
As0 O24 1.670232 1_555
As0 O16 1.714996 1_555
As0 O8 1.745784 1_555
As0 O12 1.792819 1_555
As1 O25 1.670257 1_555
As1 O17 1.714965 1_555
As1 O9 1.745846 1_555
As1 O13 1.792712 1_555
As2 O26 1.670263 1_555
As2 O18 1.714930 1_555
As2 O10 1.745819 1_555
As2 O14 1.792741 1_555
As3 O27 1.670191 1_555
As3 O19 1.714953 1_555
As3 O11 1.745829 1_555
As3 O15 1.792728 1_555
As4 O0 1.693590 1_555
As4 O20 1.709984 1_555
As4 O4 1.717912 1_555
As4 O12 1.802092 1_555
As5 O1 1.693488 1_555
As5 O21 1.710024 1_555
As5 O5 1.717892 1_555
As5 O13 1.802070 1_555
As6 O2 1.693589 1_555
As6 O22 1.709997 1_555
As6 O6 1.717886 1_555
As6 O14 1.802147 1_555
As7 O3 1.693514 1_555
As7 O23 1.710066 1_555
As7 O7 1.717971 1_555
As7 O15 1.802011 1_555
