# generated using pymatgen
data_Sc2InNi2
_symmetry_space_group_name_H-M   'P 1'
_cell_length_a   6.66077192
_cell_length_b   14.27202222
_cell_length_c   14.27202222
_cell_angle_alpha   90.00000000
_cell_angle_beta   90.00000000
_cell_angle_gamma   90.00000000
_symmetry_Int_Tables_number   1
_chemical_formula_structural   Sc2InNi2
_chemical_formula_sum   'Sc32 In16 Ni32'
_cell_volume   1356.73675039
_cell_formula_units_Z   16
loop_
 _symmetry_equiv_pos_site_id
 _symmetry_equiv_pos_as_xyz
  1  'x, y, z'
loop_
 _atom_site_type_symbol
 _atom_site_label
 _atom_site_symmetry_multiplicity
 _atom_site_fract_x
 _atom_site_fract_y
 _atom_site_fract_z
 _atom_site_occupancy
  Sc  Sc0_0  1  0.25000000  0.08595790  0.33595790  1
  Sc  Sc0_1  1  0.25000000  0.08595790  0.83595789  1
  Sc  Sc0_2  1  0.25000000  0.58595789  0.33595790  1
  Sc  Sc0_3  1  0.25000000  0.58595789  0.83595789  1
  Sc  Sc0_4  1  0.75000000  0.08595790  0.33595790  1
  Sc  Sc0_5  1  0.75000000  0.08595790  0.83595789  1
  Sc  Sc0_6  1  0.75000000  0.58595789  0.33595790  1
  Sc  Sc0_7  1  0.75000000  0.58595789  0.83595789  1
  Sc  Sc1_0  1  0.25000000  0.16404210  0.08595790  1
  Sc  Sc1_1  1  0.25000000  0.16404210  0.58595789  1
  Sc  Sc1_2  1  0.25000000  0.66404210  0.08595790  1
  Sc  Sc1_3  1  0.25000000  0.66404210  0.58595789  1
  Sc  Sc1_4  1  0.75000000  0.16404210  0.08595790  1
  Sc  Sc1_5  1  0.75000000  0.16404210  0.58595789  1
  Sc  Sc1_6  1  0.75000000  0.66404210  0.08595790  1
  Sc  Sc1_7  1  0.75000000  0.66404210  0.58595789  1
  Sc  Sc2_0  1  0.25000000  0.33595790  0.41404210  1
  Sc  Sc2_1  1  0.25000000  0.33595790  0.91404210  1
  Sc  Sc2_2  1  0.25000000  0.83595789  0.41404210  1
  Sc  Sc2_3  1  0.25000000  0.83595789  0.91404210  1
  Sc  Sc2_4  1  0.75000000  0.33595790  0.41404210  1
  Sc  Sc2_5  1  0.75000000  0.33595790  0.91404210  1
  Sc  Sc2_6  1  0.75000000  0.83595789  0.41404210  1
  Sc  Sc2_7  1  0.75000000  0.83595789  0.91404210  1
  Sc  Sc3_0  1  0.25000000  0.41404210  0.16404210  1
  Sc  Sc3_1  1  0.25000000  0.41404210  0.66404210  1
  Sc  Sc3_2  1  0.25000000  0.91404210  0.16404210  1
  Sc  Sc3_3  1  0.25000000  0.91404210  0.66404210  1
  Sc  Sc3_4  1  0.75000000  0.41404210  0.16404210  1
  Sc  Sc3_5  1  0.75000000  0.41404210  0.66404210  1
  Sc  Sc3_6  1  0.75000000  0.91404210  0.16404210  1
  Sc  Sc3_7  1  0.75000000  0.91404210  0.66404210  1
  In  In0_0  1  0.00000000  0.00000000  0.00000000  1
  In  In0_1  1  0.00000000  0.00000000  0.50000000  1
  In  In0_2  1  0.00000000  0.50000000  0.00000000  1
  In  In0_3  1  0.00000000  0.50000000  0.50000000  1
  In  In0_4  1  0.50000000  0.00000000  0.00000000  1
  In  In0_5  1  0.50000000  0.00000000  0.50000000  1
  In  In0_6  1  0.50000000  0.50000000  0.00000000  1
  In  In0_7  1  0.50000000  0.50000000  0.50000000  1
  In  In1_0  1  0.00000000  0.25000000  0.25000000  1
  In  In1_1  1  0.00000000  0.25000000  0.75000000  1
  In  In1_2  1  0.00000000  0.75000000  0.25000000  1
  In  In1_3  1  0.00000000  0.75000000  0.75000000  1
  In  In1_4  1  0.50000000  0.25000000  0.25000000  1
  In  In1_5  1  0.50000000  0.25000000  0.75000000  1
  In  In1_6  1  0.50000000  0.75000000  0.25000000  1
  In  In1_7  1  0.50000000  0.75000000  0.75000000  1
  Ni  Ni0_0  1  0.00000000  0.18918681  0.43918681  1
  Ni  Ni0_1  1  0.00000000  0.18918681  0.93918681  1
  Ni  Ni0_2  1  0.00000000  0.68918681  0.43918681  1
  Ni  Ni0_3  1  0.00000000  0.68918681  0.93918681  1
  Ni  Ni0_4  1  0.50000000  0.18918681  0.43918681  1
  Ni  Ni0_5  1  0.50000000  0.18918681  0.93918681  1
  Ni  Ni0_6  1  0.50000000  0.68918681  0.43918681  1
  Ni  Ni0_7  1  0.50000000  0.68918681  0.93918681  1
  Ni  Ni1_0  1  0.00000000  0.06081319  0.18918681  1
  Ni  Ni1_1  1  0.00000000  0.06081319  0.68918681  1
  Ni  Ni1_2  1  0.00000000  0.56081319  0.18918681  1
  Ni  Ni1_3  1  0.00000000  0.56081319  0.68918681  1
  Ni  Ni1_4  1  0.50000000  0.06081319  0.18918681  1
  Ni  Ni1_5  1  0.50000000  0.06081319  0.68918681  1
  Ni  Ni1_6  1  0.50000000  0.56081319  0.18918681  1
  Ni  Ni1_7  1  0.50000000  0.56081319  0.68918681  1
  Ni  Ni2_0  1  0.00000000  0.43918681  0.31081319  1
  Ni  Ni2_1  1  0.00000000  0.43918681  0.81081319  1
  Ni  Ni2_2  1  0.00000000  0.93918681  0.31081319  1
  Ni  Ni2_3  1  0.00000000  0.93918681  0.81081319  1
  Ni  Ni2_4  1  0.50000000  0.43918681  0.31081319  1
  Ni  Ni2_5  1  0.50000000  0.43918681  0.81081319  1
  Ni  Ni2_6  1  0.50000000  0.93918681  0.31081319  1
  Ni  Ni2_7  1  0.50000000  0.93918681  0.81081319  1
  Ni  Ni3_0  1  0.00000000  0.31081319  0.06081319  1
  Ni  Ni3_1  1  0.00000000  0.31081319  0.56081319  1
  Ni  Ni3_2  1  0.00000000  0.81081319  0.06081319  1
  Ni  Ni3_3  1  0.00000000  0.81081319  0.56081319  1
  Ni  Ni3_4  1  0.50000000  0.31081319  0.06081319  1
  Ni  Ni3_5  1  0.50000000  0.31081319  0.56081319  1
  Ni  Ni3_6  1  0.50000000  0.81081319  0.06081319  1
  Ni  Ni3_7  1  0.50000000  0.81081319  0.56081319  1
loop_
_geom_bond_atom_site_label_1
_geom_bond_atom_site_label_2
_geom_bond_distance
_geom_bond_site_symmetry_2
In0_0 Ni3_2 2.836145 1_545
In0_0 Ni1_0 2.836145 1_555
In0_0 Ni0_1 2.836145 1_554
In0_0 Ni2_3 2.836145 1_544
In0_0 Sc1_0 3.123966 1_555
In0_0 Sc1_4 3.123966 1_455
In0_0 Sc0_1 3.123966 1_554
In0_0 Sc3_2 3.123966 1_545
In0_0 Sc3_6 3.123966 1_445
In0_0 Sc0_5 3.123966 1_454
In0_0 Sc2_3 3.123966 1_544
In0_0 Sc2_7 3.123966 1_444
In0_0 In0_4 3.330386 1_455
In0_0 In0_4 3.330386 1_555
In0_1 Ni1_1 2.836145 1_555
In0_1 Ni2_2 2.836145 1_545
In0_1 Ni0_0 2.836145 1_555
In0_1 Ni3_3 2.836145 1_545
In0_1 Sc1_1 3.123966 1_555
In0_1 Sc1_5 3.123966 1_455
In0_1 Sc0_0 3.123966 1_555
In0_1 Sc3_3 3.123966 1_545
In0_1 Sc0_4 3.123966 1_455
In0_1 Sc3_7 3.123966 1_445
In0_1 Sc2_2 3.123966 1_545
In0_1 Sc2_6 3.123966 1_445
In0_1 In0_5 3.330386 1_455
In0_1 In0_5 3.330386 1_555
In0_2 Ni3_0 2.836145 1_555
In0_2 Ni0_3 2.836145 1_554
In0_2 Ni1_2 2.836145 1_555
In0_2 Ni2_1 2.836145 1_554
In0_2 Sc1_2 3.123966 1_555
In0_2 Sc1_6 3.123966 1_455
In0_2 Sc0_3 3.123966 1_554
In0_2 Sc3_0 3.123966 1_555
In0_2 Sc2_1 3.123966 1_554
In0_2 Sc3_4 3.123966 1_455
In0_2 Sc0_7 3.123966 1_454
In0_2 Sc2_5 3.123966 1_454
In0_2 In0_6 3.330386 1_555
In0_2 In0_6 3.330386 1_455
In0_3 Ni1_3 2.836145 1_555
In0_3 Ni0_2 2.836145 1_555
In0_3 Ni3_1 2.836145 1_555
In0_3 Ni2_0 2.836145 1_555
In0_3 Sc1_3 3.123966 1_555
In0_3 Sc1_7 3.123966 1_455
In0_3 Sc0_2 3.123966 1_555
In0_3 Sc3_1 3.123966 1_555
In0_3 Sc0_6 3.123966 1_455
In0_3 Sc3_5 3.123966 1_455
In0_3 Sc2_0 3.123966 1_555
In0_3 Sc2_4 3.123966 1_455
In0_3 In0_7 3.330386 1_455
In0_3 In0_7 3.330386 1_555
In0_4 Ni0_5 2.836145 1_554
In0_4 Ni3_6 2.836145 1_545
In0_4 Ni1_4 2.836145 1_555
In0_4 Ni2_7 2.836145 1_544
In0_4 Sc1_4 3.123966 1_555
In0_4 Sc1_0 3.123966 1_555
In0_4 Sc0_5 3.123966 1_554
In0_4 Sc3_6 3.123966 1_545
In0_4 Sc0_1 3.123966 1_554
In0_4 Sc3_2 3.123966 1_545
In0_4 Sc2_7 3.123966 1_544
In0_4 Sc2_3 3.123966 1_544
In0_5 Ni1_5 2.836145 1_555
In0_5 Ni2_6 2.836145 1_545
In0_5 Ni3_7 2.836145 1_545
In0_5 Ni0_4 2.836145 1_555
In0_5 Sc1_5 3.123966 1_555
In0_5 Sc1_1 3.123966 1_555
In0_5 Sc0_4 3.123966 1_555
In0_5 Sc0_0 3.123966 1_555
In0_5 Sc3_3 3.123966 1_545
In0_5 Sc3_7 3.123966 1_545
In0_5 Sc2_6 3.123966 1_545
In0_5 Sc2_2 3.123966 1_545
In0_6 Ni0_7 2.836145 1_554
In0_6 Ni3_4 2.836145 1_555
In0_6 Ni1_6 2.836145 1_555
In0_6 Ni2_5 2.836145 1_554
In0_6 Sc1_2 3.123966 1_555
In0_6 Sc1_6 3.123966 1_555
In0_6 Sc3_4 3.123966 1_555
In0_6 Sc0_7 3.123966 1_554
In0_6 Sc2_5 3.123966 1_554
In0_6 Sc3_0 3.123966 1_555
In0_6 Sc0_3 3.123966 1_554
In0_6 Sc2_1 3.123966 1_554
In0_7 Ni1_7 2.836145 1_555
In0_7 Ni0_6 2.836145 1_555
In0_7 Ni2_4 2.836145 1_555
In0_7 Ni3_5 2.836145 1_555
In0_7 Sc1_7 3.123966 1_555
In0_7 Sc1_3 3.123966 1_555
In0_7 Sc0_2 3.123966 1_555
In0_7 Sc0_6 3.123966 1_555
In0_7 Sc3_5 3.123966 1_555
In0_7 Sc3_1 3.123966 1_555
In0_7 Sc2_4 3.123966 1_555
In0_7 Sc2_0 3.123966 1_555
In1_0 Ni2_0 2.836145 1_555
In1_0 Ni0_0 2.836145 1_555
In1_0 Ni3_0 2.836145 1_555
In1_0 Ni1_0 2.836145 1_555
In1_0 Sc2_0 3.123966 1_555
In1_0 Sc3_0 3.123966 1_555
In1_0 Sc0_0 3.123966 1_555
In1_0 Sc2_4 3.123966 1_455
In1_0 Sc1_0 3.123966 1_555
In1_0 Sc3_4 3.123966 1_455
In1_0 Sc1_4 3.123966 1_455
In1_0 Sc0_4 3.123966 1_455
In1_0 In1_4 3.330386 1_455
In1_0 In1_4 3.330386 1_555
In1_1 Ni0_1 2.836145 1_555
In1_1 Ni2_1 2.836145 1_555
In1_1 Ni1_1 2.836145 1_555
In1_1 Ni3_1 2.836145 1_555
In1_1 Sc2_1 3.123966 1_555
In1_1 Sc2_5 3.123966 1_455
In1_1 Sc0_1 3.123966 1_555
In1_1 Sc3_1 3.123966 1_555
In1_1 Sc0_5 3.123966 1_455
In1_1 Sc3_5 3.123966 1_455
In1_1 Sc1_1 3.123966 1_555
In1_1 Sc1_5 3.123966 1_455
In1_1 In1_5 3.330386 1_455
In1_1 In1_5 3.330386 1_555
In1_2 Ni2_2 2.836145 1_555
In1_2 Ni3_2 2.836145 1_555
In1_2 Ni0_2 2.836145 1_555
In1_2 Ni1_2 2.836145 1_555
In1_2 Sc3_2 3.123966 1_555
In1_2 Sc3_6 3.123966 1_455
In1_2 Sc2_2 3.123966 1_555
In1_2 Sc2_6 3.123966 1_455
In1_2 Sc1_2 3.123966 1_555
In1_2 Sc0_2 3.123966 1_555
In1_2 Sc1_6 3.123966 1_455
In1_2 Sc0_6 3.123966 1_455
In1_2 In1_6 3.330386 1_455
In1_2 In1_6 3.330386 1_555
In1_3 Ni2_3 2.836145 1_555
In1_3 Ni0_3 2.836145 1_555
In1_3 Ni3_3 2.836145 1_555
In1_3 Ni1_3 2.836145 1_555
In1_3 Sc2_3 3.123966 1_555
In1_3 Sc2_7 3.123966 1_455
In1_3 Sc3_3 3.123966 1_555
In1_3 Sc3_7 3.123966 1_455
In1_3 Sc0_3 3.123966 1_555
In1_3 Sc0_7 3.123966 1_455
In1_3 Sc1_7 3.123966 1_455
In1_3 Sc1_3 3.123966 1_555
In1_3 In1_7 3.330386 1_455
In1_3 In1_7 3.330386 1_555
In1_4 Ni3_4 2.836145 1_555
In1_4 Ni2_4 2.836145 1_555
In1_4 Ni0_4 2.836145 1_555
In1_4 Ni1_4 2.836145 1_555
In1_4 Sc2_0 3.123966 1_555
In1_4 Sc3_4 3.123966 1_555
In1_4 Sc2_4 3.123966 1_555
In1_4 Sc1_4 3.123966 1_555
In1_4 Sc3_0 3.123966 1_555
In1_4 Sc0_4 3.123966 1_555
In1_4 Sc0_0 3.123966 1_555
In1_4 Sc1_0 3.123966 1_555
In1_5 Ni0_5 2.836145 1_555
In1_5 Ni2_5 2.836145 1_555
In1_5 Ni1_5 2.836145 1_555
In1_5 Ni3_5 2.836145 1_555
In1_5 Sc2_5 3.123966 1_555
In1_5 Sc2_1 3.123966 1_555
In1_5 Sc0_5 3.123966 1_555
In1_5 Sc0_1 3.123966 1_555
In1_5 Sc3_5 3.123966 1_555
In1_5 Sc3_1 3.123966 1_555
In1_5 Sc1_5 3.123966 1_555
In1_5 Sc1_1 3.123966 1_555
In1_6 Ni2_6 2.836145 1_555
In1_6 Ni3_6 2.836145 1_555
In1_6 Ni0_6 2.836145 1_555
In1_6 Ni1_6 2.836145 1_555
In1_6 Sc3_6 3.123966 1_555
In1_6 Sc3_2 3.123966 1_555
In1_6 Sc2_6 3.123966 1_555
In1_6 Sc2_2 3.123966 1_555
In1_6 Sc1_6 3.123966 1_555
In1_6 Sc1_2 3.123966 1_555
In1_6 Sc0_6 3.123966 1_555
In1_6 Sc0_2 3.123966 1_555
In1_7 Ni2_7 2.836145 1_555
In1_7 Ni0_7 2.836145 1_555
In1_7 Ni3_7 2.836145 1_555
In1_7 Ni1_7 2.836145 1_555
In1_7 Sc2_7 3.123966 1_555
In1_7 Sc2_3 3.123966 1_555
In1_7 Sc3_7 3.123966 1_555
In1_7 Sc3_3 3.123966 1_555
In1_7 Sc0_7 3.123966 1_555
In1_7 Sc0_3 3.123966 1_555
In1_7 Sc1_7 3.123966 1_555
In1_7 Sc1_3 3.123966 1_555
Ni0_0 Ni3_1 2.454869 1_555
Ni0_0 Sc0_0 2.667210 1_555
Ni0_0 Sc0_4 2.667210 1_455
Ni0_0 Sc1_1 2.699908 1_555
Ni0_0 Sc2_0 2.699908 1_555
Ni0_0 Sc2_4 2.699908 1_455
Ni0_0 Sc1_5 2.699908 1_455
Ni0_1 Ni3_0 2.454869 1_556
Ni0_1 Sc0_5 2.667210 1_455
Ni0_1 Sc0_1 2.667210 1_555
Ni0_1 Sc2_1 2.699908 1_555
Ni0_1 Sc2_5 2.699908 1_455
Ni0_1 Sc1_0 2.699908 1_556
Ni0_1 Sc1_4 2.699908 1_456
Ni0_2 Ni3_3 2.454869 1_555
Ni0_2 Sc0_2 2.667210 1_555
Ni0_2 Sc0_6 2.667210 1_455
Ni0_2 Sc1_3 2.699908 1_555
Ni0_2 Sc1_7 2.699908 1_455
Ni0_2 Sc2_2 2.699908 1_555
Ni0_2 Sc2_6 2.699908 1_455
Ni0_3 Ni3_2 2.454869 1_556
Ni0_3 Sc0_3 2.667210 1_555
Ni0_3 Sc0_7 2.667210 1_455
Ni0_3 Sc1_2 2.699908 1_556
Ni0_3 Sc2_3 2.699908 1_555
Ni0_3 Sc2_7 2.699908 1_455
Ni0_3 Sc1_6 2.699908 1_456
Ni0_4 Ni3_5 2.454869 1_555
Ni0_4 Sc0_4 2.667210 1_555
Ni0_4 Sc0_0 2.667210 1_555
Ni0_4 Sc1_5 2.699908 1_555
Ni0_4 Sc2_4 2.699908 1_555
Ni0_4 Sc1_1 2.699908 1_555
Ni0_4 Sc2_0 2.699908 1_555
Ni0_5 Ni3_4 2.454869 1_556
Ni0_5 Sc0_5 2.667210 1_555
Ni0_5 Sc0_1 2.667210 1_555
Ni0_5 Sc2_5 2.699908 1_555
Ni0_5 Sc1_4 2.699908 1_556
Ni0_5 Sc2_1 2.699908 1_555
Ni0_5 Sc1_0 2.699908 1_556
Ni0_6 Ni3_7 2.454869 1_555
Ni0_6 Sc0_6 2.667210 1_555
Ni0_6 Sc0_2 2.667210 1_555
Ni0_6 Sc1_7 2.699908 1_555
Ni0_6 Sc1_3 2.699908 1_555
Ni0_6 Sc2_6 2.699908 1_555
Ni0_6 Sc2_2 2.699908 1_555
Ni0_7 Ni3_6 2.454869 1_556
Ni0_7 Sc0_7 2.667210 1_555
Ni0_7 Sc0_3 2.667210 1_555
Ni0_7 Sc1_6 2.699908 1_556
Ni0_7 Sc2_7 2.699908 1_555
Ni0_7 Sc1_2 2.699908 1_556
Ni0_7 Sc2_3 2.699908 1_555
Ni1_0 Ni2_2 2.454869 1_545
Ni1_0 Sc1_0 2.667210 1_555
Ni1_0 Sc1_4 2.667210 1_455
Ni1_0 Sc0_0 2.699908 1_555
Ni1_0 Sc0_4 2.699908 1_455
Ni1_0 Sc3_2 2.699908 1_545
Ni1_0 Sc3_6 2.699908 1_445
Ni1_1 Ni2_3 2.454869 1_545
Ni1_1 Sc1_1 2.667210 1_555
Ni1_1 Sc1_5 2.667210 1_455
Ni1_1 Sc0_1 2.699908 1_555
Ni1_1 Sc0_5 2.699908 1_455
Ni1_1 Sc3_3 2.699908 1_545
Ni1_1 Sc3_7 2.699908 1_445
Ni1_2 Ni2_0 2.454869 1_555
Ni1_2 Sc1_2 2.667210 1_555
Ni1_2 Sc1_6 2.667210 1_455
Ni1_2 Sc0_2 2.699908 1_555
Ni1_2 Sc3_0 2.699908 1_555
Ni1_2 Sc0_6 2.699908 1_455
Ni1_2 Sc3_4 2.699908 1_455
Ni1_3 Ni2_1 2.454869 1_555
Ni1_3 Sc1_3 2.667210 1_555
Ni1_3 Sc1_7 2.667210 1_455
Ni1_3 Sc3_1 2.699908 1_555
Ni1_3 Sc0_3 2.699908 1_555
Ni1_3 Sc3_5 2.699908 1_455
Ni1_3 Sc0_7 2.699908 1_455
Ni1_4 Ni2_6 2.454869 1_545
Ni1_4 Sc1_4 2.667210 1_555
Ni1_4 Sc1_0 2.667210 1_555
Ni1_4 Sc0_4 2.699908 1_555
Ni1_4 Sc0_0 2.699908 1_555
Ni1_4 Sc3_6 2.699908 1_545
Ni1_4 Sc3_2 2.699908 1_545
Ni1_5 Ni2_7 2.454869 1_545
Ni1_5 Sc1_5 2.667210 1_555
Ni1_5 Sc1_1 2.667210 1_555
Ni1_5 Sc0_5 2.699908 1_555
Ni1_5 Sc0_1 2.699908 1_555
Ni1_5 Sc3_7 2.699908 1_545
Ni1_5 Sc3_3 2.699908 1_545
Ni1_6 Ni2_4 2.454869 1_555
Ni1_6 Sc1_6 2.667210 1_555
Ni1_6 Sc1_2 2.667210 1_555
Ni1_6 Sc0_6 2.699908 1_555
Ni1_6 Sc3_4 2.699908 1_555
Ni1_6 Sc0_2 2.699908 1_555
Ni1_6 Sc3_0 2.699908 1_555
Ni1_7 Ni2_5 2.454869 1_555
Ni1_7 Sc1_7 2.667210 1_555
Ni1_7 Sc1_3 2.667210 1_555
Ni1_7 Sc0_7 2.699908 1_555
Ni1_7 Sc3_5 2.699908 1_555
Ni1_7 Sc3_1 2.699908 1_555
Ni1_7 Sc0_3 2.699908 1_555
Ni2_0 Sc2_0 2.667210 1_555
Ni2_0 Sc2_4 2.667210 1_455
Ni2_0 Sc0_6 2.699908 1_455
Ni2_0 Sc0_2 2.699908 1_555
Ni2_0 Sc3_0 2.699908 1_555
Ni2_0 Sc3_4 2.699908 1_455
Ni2_1 Sc2_1 2.667210 1_555
Ni2_1 Sc2_5 2.667210 1_455
Ni2_1 Sc0_3 2.699908 1_555
Ni2_1 Sc0_7 2.699908 1_455
Ni2_1 Sc3_1 2.699908 1_555
Ni2_1 Sc3_5 2.699908 1_455
Ni2_2 Sc2_2 2.667210 1_555
Ni2_2 Sc2_6 2.667210 1_455
Ni2_2 Sc0_0 2.699908 1_565
Ni2_2 Sc3_2 2.699908 1_555
Ni2_2 Sc0_4 2.699908 1_465
Ni2_2 Sc3_6 2.699908 1_455
Ni2_3 Sc2_3 2.667210 1_555
Ni2_3 Sc2_7 2.667210 1_455
Ni2_3 Sc0_1 2.699908 1_565
Ni2_3 Sc3_3 2.699908 1_555
Ni2_3 Sc3_7 2.699908 1_455
Ni2_3 Sc0_5 2.699908 1_465
Ni2_4 Sc2_4 2.667210 1_555
Ni2_4 Sc2_0 2.667210 1_555
Ni2_4 Sc0_6 2.699908 1_555
Ni2_4 Sc0_2 2.699908 1_555
Ni2_4 Sc3_4 2.699908 1_555
Ni2_4 Sc3_0 2.699908 1_555
Ni2_5 Sc2_1 2.667210 1_555
Ni2_5 Sc2_5 2.667210 1_555
Ni2_5 Sc0_7 2.699908 1_555
Ni2_5 Sc0_3 2.699908 1_555
Ni2_5 Sc3_5 2.699908 1_555
Ni2_5 Sc3_1 2.699908 1_555
Ni2_6 Sc2_6 2.667210 1_555
Ni2_6 Sc2_2 2.667210 1_555
Ni2_6 Sc0_4 2.699908 1_565
Ni2_6 Sc3_6 2.699908 1_555
Ni2_6 Sc0_0 2.699908 1_565
Ni2_6 Sc3_2 2.699908 1_555
Ni2_7 Sc2_7 2.667210 1_555
Ni2_7 Sc2_3 2.667210 1_555
Ni2_7 Sc3_7 2.699908 1_555
Ni2_7 Sc0_5 2.699908 1_565
Ni2_7 Sc0_1 2.699908 1_565
Ni2_7 Sc3_3 2.699908 1_555
Ni3_0 Sc3_0 2.667210 1_555
Ni3_0 Sc3_4 2.667210 1_455
Ni3_0 Sc1_0 2.699908 1_555
Ni3_0 Sc1_4 2.699908 1_455
Ni3_0 Sc2_1 2.699908 1_554
Ni3_0 Sc2_5 2.699908 1_454
Ni3_1 Sc3_1 2.667210 1_555
Ni3_1 Sc3_5 2.667210 1_455
Ni3_1 Sc2_0 2.699908 1_555
Ni3_1 Sc2_4 2.699908 1_455
Ni3_1 Sc1_1 2.699908 1_555
Ni3_1 Sc1_5 2.699908 1_455
Ni3_2 Sc3_2 2.667210 1_555
Ni3_2 Sc3_6 2.667210 1_455
Ni3_2 Sc1_2 2.699908 1_555
Ni3_2 Sc1_6 2.699908 1_455
Ni3_2 Sc2_7 2.699908 1_454
Ni3_2 Sc2_3 2.699908 1_554
Ni3_3 Sc3_3 2.667210 1_555
Ni3_3 Sc3_7 2.667210 1_455
Ni3_3 Sc1_3 2.699908 1_555
Ni3_3 Sc2_2 2.699908 1_555
Ni3_3 Sc2_6 2.699908 1_455
Ni3_3 Sc1_7 2.699908 1_455
Ni3_4 Sc3_4 2.667210 1_555
Ni3_4 Sc3_0 2.667210 1_555
Ni3_4 Sc1_4 2.699908 1_555
Ni3_4 Sc1_0 2.699908 1_555
Ni3_4 Sc2_5 2.699908 1_554
Ni3_4 Sc2_1 2.699908 1_554
Ni3_5 Sc3_5 2.667210 1_555
Ni3_5 Sc3_1 2.667210 1_555
Ni3_5 Sc2_4 2.699908 1_555
Ni3_5 Sc2_0 2.699908 1_555
Ni3_5 Sc1_5 2.699908 1_555
Ni3_5 Sc1_1 2.699908 1_555
Ni3_6 Sc3_6 2.667210 1_555
Ni3_6 Sc3_2 2.667210 1_555
Ni3_6 Sc1_6 2.699908 1_555
Ni3_6 Sc1_2 2.699908 1_555
Ni3_6 Sc2_7 2.699908 1_554
Ni3_6 Sc2_3 2.699908 1_554
Ni3_7 Sc3_3 2.667210 1_555
Ni3_7 Sc3_7 2.667210 1_555
Ni3_7 Sc1_7 2.699908 1_555
Ni3_7 Sc2_6 2.699908 1_555
Ni3_7 Sc1_3 2.699908 1_555
Ni3_7 Sc2_2 2.699908 1_555
