# generated using pymatgen
data_BaMg14Ti
_symmetry_space_group_name_H-M   'P 1'
_cell_length_a   6.58851939
_cell_length_b   6.53823344
_cell_length_c   10.49740820
_cell_angle_alpha   90.00000000
_cell_angle_beta   90.00000000
_cell_angle_gamma   119.74784873
_symmetry_Int_Tables_number   1
_chemical_formula_structural   BaMg14Ti
_chemical_formula_sum   'Ba1 Mg14 Ti1'
_cell_volume   392.60772832
_cell_formula_units_Z   1
loop_
 _symmetry_equiv_pos_site_id
 _symmetry_equiv_pos_as_xyz
  1  'x, y, z'
loop_
 _atom_site_type_symbol
 _atom_site_label
 _atom_site_symmetry_multiplicity
 _atom_site_fract_x
 _atom_site_fract_y
 _atom_site_fract_z
 _atom_site_occupancy
  Ba  Ba0  1  0.15534193  0.82767046  0.12500000  1
  Mg  Mg0  1  0.16147425  0.33073663  0.62500000  1
  Mg  Mg1  1  0.16905210  0.83452555  0.62500000  1
  Mg  Mg2  1  0.65636506  0.33287801  0.12500000  1
  Mg  Mg3  1  0.66570469  0.32680863  0.62500000  1
  Mg  Mg4  1  0.65636506  0.82348605  0.12500000  1
  Mg  Mg5  1  0.66570469  0.83889506  0.62500000  1
  Mg  Mg6  1  0.33759092  0.18154188  0.38536187  1
  Mg  Mg7  1  0.33759092  0.18154188  0.86463813  1
  Mg  Mg8  1  0.33759092  0.65605004  0.38536187  1
  Mg  Mg9  1  0.33759092  0.65605004  0.86463813  1
  Mg  Mg10  1  0.84365825  0.17182963  0.36461575  1
  Mg  Mg11  1  0.84365825  0.17182963  0.88538425  1
  Mg  Mg12  1  0.82112711  0.66056405  0.39266079  1
  Mg  Mg13  1  0.82112711  0.66056405  0.85733921  1
  Ti  Ti0  1  0.19005782  0.34502841  0.12500000  1
loop_
_geom_bond_atom_site_label_1
_geom_bond_atom_site_label_2
_geom_bond_distance
_geom_bond_site_symmetry_2
Ba0 Mg2 3.274030 1_455
Ba0 Mg4 3.274030 1_455
Ba0 Ti0 3.275143 1_555
Ba0 Ti0 3.275143 1_565
Ba0 Mg2 3.314660 1_565
Ba0 Mg4 3.314661 1_555
Ba0 Mg9 3.392336 1_554
Ba0 Mg8 3.392336 1_555
Ba0 Mg7 3.392342 1_564
Ba0 Mg6 3.392342 1_565
Ba0 Mg12 3.398476 1_455
Ba0 Mg13 3.398476 1_454
Mg0 Mg6 3.122392 1_555
Mg0 Mg7 3.122392 1_555
Mg0 Mg8 3.122399 1_555
Mg0 Mg9 3.122399 1_555
Mg0 Mg5 3.253720 1_445
Mg0 Mg3 3.253721 1_455
Mg0 Mg1 3.269404 1_555
Mg0 Mg1 3.269404 1_545
Mg0 Mg10 3.282736 1_455
Mg0 Mg11 3.282736 1_455
Mg0 Mg5 3.334949 1_555
Mg0 Mg3 3.334950 1_555
Mg1 Mg13 3.147938 1_455
Mg1 Mg12 3.147938 1_455
Mg1 Mg8 3.195112 1_555
Mg1 Mg9 3.195112 1_555
Mg1 Mg6 3.195119 1_565
Mg1 Mg7 3.195119 1_565
Mg1 Mg3 3.258124 1_565
Mg1 Mg5 3.258124 1_555
Mg1 Mg3 3.330582 1_455
Mg1 Mg5 3.330582 1_455
Mg2 Ti0 3.112457 1_555
Mg2 Mg4 3.207710 1_555
Mg2 Mg6 3.286000 1_555
Mg2 Mg7 3.286000 1_554
Mg2 Mg4 3.330524 1_545
Mg2 Ti0 3.477511 1_655
Mg3 Mg6 3.141016 1_555
Mg3 Mg7 3.141016 1_555
Mg3 Mg5 3.190093 1_545
Mg3 Mg5 3.348141 1_555
Mg4 Ti0 3.112456 1_555
Mg4 Mg9 3.286000 1_554
Mg4 Mg8 3.286000 1_555
Mg4 Ti0 3.477511 1_665
Mg5 Mg9 3.141015 1_555
Mg5 Mg8 3.141015 1_555
Mg6 Mg8 3.102445 1_555
Mg6 Ti0 3.253991 1_555
Mg6 Mg8 3.435788 1_545
Mg7 Mg9 3.102445 1_555
Mg7 Ti0 3.253991 1_556
Mg7 Mg9 3.435788 1_545
Mg8 Ti0 3.253997 1_555
Mg9 Ti0 3.253997 1_556
Mg10 Mg2 3.201228 1_555
Mg10 Mg4 3.201235 1_545
Mg10 Ti0 3.202076 1_655
Mg10 Mg8 3.230597 1_655
Mg10 Mg6 3.230597 1_655
Mg10 Mg12 3.284875 1_555
Mg10 Mg12 3.284876 1_545
Mg10 Mg3 3.324397 1_555
Mg10 Mg5 3.324403 1_545
Mg10 Mg8 3.373231 1_545
Mg10 Mg6 3.373232 1_555
Mg11 Mg2 3.201228 1_556
Mg11 Mg4 3.201235 1_546
Mg11 Ti0 3.202076 1_656
Mg11 Mg9 3.230597 1_655
Mg11 Mg7 3.230597 1_655
Mg11 Mg13 3.284875 1_555
Mg11 Mg13 3.284876 1_545
Mg11 Mg3 3.324397 1_555
Mg11 Mg5 3.324403 1_545
Mg11 Mg9 3.373231 1_545
Mg11 Mg7 3.373232 1_555
Mg12 Mg5 3.088922 1_555
Mg12 Mg3 3.088929 1_555
Mg12 Mg6 3.172172 1_555
Mg12 Mg8 3.172172 1_555
Mg12 Mg4 3.369758 1_555
Mg12 Mg2 3.369764 1_555
Mg12 Mg6 3.418331 1_665
Mg12 Mg8 3.418331 1_655
Mg13 Mg5 3.088922 1_555
Mg13 Mg3 3.088929 1_555
Mg13 Mg7 3.172172 1_555
Mg13 Mg9 3.172172 1_555
Mg13 Mg4 3.369758 1_556
Mg13 Mg2 3.369764 1_556
Mg13 Mg7 3.418331 1_665
Mg13 Mg9 3.418331 1_655
