# generated using pymatgen
data_MgSn
_symmetry_space_group_name_H-M   'P 1'
_cell_length_a   3.47299024
_cell_length_b   3.47299017
_cell_length_c   4.62842661
_cell_angle_alpha   90.00000000
_cell_angle_beta   90.00000000
_cell_angle_gamma   120.00378697
_symmetry_Int_Tables_number   1
_chemical_formula_structural   MgSn
_chemical_formula_sum   'Mg1 Sn1'
_cell_volume   48.34533302
_cell_formula_units_Z   1
loop_
 _symmetry_equiv_pos_site_id
 _symmetry_equiv_pos_as_xyz
  1  'x, y, z'
loop_
 _atom_site_type_symbol
 _atom_site_label
 _atom_site_symmetry_multiplicity
 _atom_site_fract_x
 _atom_site_fract_y
 _atom_site_fract_z
 _atom_site_occupancy
  Mg  Mg0  1  0.00000750  -0.00000749  -0.00000000  1
  Sn  Sn0  1  0.66665950  0.33334049  0.50000000  1
loop_
_geom_bond_atom_site_label_1
_geom_bond_atom_site_label_2
_geom_bond_distance
_geom_bond_site_symmetry_2
Mg0 Sn0 3.061969 1_554
Mg0 Sn0 3.061969 1_555
Mg0 Sn0 3.061969 1_444
Mg0 Sn0 3.061969 1_445
Mg0 Sn0 3.062131 1_455
Mg0 Sn0 3.062131 1_454
