# generated using pymatgen
data_Ca5(CN3)2
_symmetry_space_group_name_H-M   'P 1'
_cell_length_a   5.46405716
_cell_length_b   5.91666164
_cell_length_c   12.26328153
_cell_angle_alpha   90.00000023
_cell_angle_beta   97.62601435
_cell_angle_gamma   122.78011013
_symmetry_Int_Tables_number   1
_chemical_formula_structural   Ca5(CN3)2
_chemical_formula_sum   'Ca10 C4 N12'
_cell_volume   329.14658681
_cell_formula_units_Z   2
loop_
 _symmetry_equiv_pos_site_id
 _symmetry_equiv_pos_as_xyz
  1  'x, y, z'
loop_
 _atom_site_type_symbol
 _atom_site_label
 _atom_site_symmetry_multiplicity
 _atom_site_fract_x
 _atom_site_fract_y
 _atom_site_fract_z
 _atom_site_occupancy
  Ca  Ca0  1  0.00000000  0.40749900  0.75000000  1
  Ca  Ca1  1  0.00000000  0.59250100  0.25000000  1
  Ca  Ca2  1  0.11810400  0.79605900  0.99376000  1
  Ca  Ca3  1  0.88189600  0.67795500  0.50624000  1
  Ca  Ca4  1  0.88189600  0.20394100  0.00624000  1
  Ca  Ca5  1  0.11810400  0.32204500  0.49376000  1
  Ca  Ca6  1  0.30579500  0.09594200  0.70809600  1
  Ca  Ca7  1  0.69420500  0.79014700  0.79190400  1
  Ca  Ca8  1  0.69420500  0.90405800  0.29190400  1
  Ca  Ca9  1  0.30579500  0.20985300  0.20809600  1
  C  C0  1  0.54787300  0.91695000  0.57586400  1
  C  C1  1  0.45212700  0.36907700  0.92413600  1
  C  C2  1  0.45212700  0.08305000  0.42413600  1
  C  C3  1  0.54787300  0.63092300  0.07586400  1
  N  N0  1  0.31561000  0.72266200  0.64075700  1
  N  N1  1  0.68439000  0.40705200  0.85924300  1
  N  N2  1  0.68439000  0.27733800  0.35924300  1
  N  N3  1  0.31561000  0.59294800  0.14075700  1
  N  N4  1  0.53949000  0.17924800  0.54828400  1
  N  N5  1  0.46051000  0.63975900  0.95171600  1
  N  N6  1  0.46051000  0.82075200  0.45171600  1
  N  N7  1  0.53949000  0.36024100  0.04828400  1
  N  N8  1  0.84351500  0.99307700  0.62471000  1
  N  N9  1  0.15648500  0.14956200  0.87529000  1
  N  N10  1  0.15648500  0.00692300  0.37529000  1
  N  N11  1  0.84351500  0.85043800  0.12471000  1
loop_
_geom_bond_atom_site_label_1
_geom_bond_atom_site_label_2
_geom_bond_distance
_geom_bond_site_symmetry_2
Ca0 N1 2.318819 1_455
Ca0 N0 2.318820 1_555
Ca0 N9 2.546605 1_555
Ca0 N8 2.546605 1_445
Ca1 N3 2.318819 1_555
Ca1 N2 2.318820 1_455
Ca1 N11 2.546605 1_455
Ca1 N10 2.546605 1_565
Ca2 N11 2.468942 1_456
Ca2 N9 2.476936 1_565
Ca2 N1 2.586692 1_455
Ca2 N3 2.597384 1_556
Ca2 N5 2.598257 1_555
Ca2 N7 2.856594 1_566
Ca3 N10 2.468942 1_665
Ca3 N8 2.476936 1_555
Ca3 N0 2.586692 1_655
Ca3 N2 2.597385 1_555
Ca3 N4 2.598262 1_555
Ca3 N6 2.856598 1_555
Ca4 N9 2.468942 1_654
Ca4 N11 2.476936 1_545
Ca4 N3 2.586692 1_655
Ca4 N1 2.597384 1_554
Ca4 N7 2.598257 1_555
Ca4 N5 2.856594 1_544
Ca5 N8 2.468942 1_445
Ca5 N10 2.476936 1_555
Ca5 N2 2.586692 1_455
Ca5 N0 2.597385 1_555
Ca5 N6 2.598262 1_555
Ca5 N4 2.856598 1_555
Ca6 N8 2.333704 1_445
Ca6 N9 2.386294 1_555
Ca6 N4 2.386850 1_555
Ca6 N0 2.388015 1_545
Ca6 N1 2.441798 1_555
Ca7 N9 2.333704 1_665
Ca7 N8 2.386294 1_555
Ca7 N5 2.386850 1_555
Ca7 N1 2.388015 1_555
Ca7 N0 2.441798 1_555
Ca8 N10 2.333704 1_665
Ca8 N11 2.386294 1_555
Ca8 N6 2.386850 1_555
Ca8 N2 2.388015 1_565
Ca8 N3 2.441798 1_555
Ca9 N11 2.333704 1_445
Ca9 N10 2.386294 1_555
Ca9 N7 2.386850 1_555
Ca9 N3 2.388015 1_555
Ca9 N2 2.441798 1_555
C0 N8 1.458260 1_555
C0 N0 1.501226 1_555
C0 N6 1.543574 1_555
C0 N4 1.611781 1_565
C1 N9 1.458260 1_555
C1 N1 1.501226 1_555
C1 N7 1.543575 1_556
C1 N5 1.611786 1_555
C2 N10 1.458260 1_555
C2 N2 1.501226 1_555
C2 N4 1.543574 1_555
C2 N6 1.611781 1_545
C3 N11 1.458260 1_555
C3 N3 1.501226 1_555
C3 N5 1.543575 1_554
C3 N7 1.611786 1_555
