# generated using pymatgen
data_Li3Mn(CoO3)2
_symmetry_space_group_name_H-M   'P 1'
_cell_length_a   3.03932712
_cell_length_b   6.01350923
_cell_length_c   12.46272337
_cell_angle_alpha   103.27804420
_cell_angle_beta   88.27487888
_cell_angle_gamma   93.90983743
_symmetry_Int_Tables_number   1
_chemical_formula_structural   Li3Mn(CoO3)2
_chemical_formula_sum   'Li6 Mn2 Co4 O12'
_cell_volume   221.15173352
_cell_formula_units_Z   2
loop_
 _symmetry_equiv_pos_site_id
 _symmetry_equiv_pos_as_xyz
  1  'x, y, z'
loop_
 _atom_site_type_symbol
 _atom_site_label
 _atom_site_symmetry_multiplicity
 _atom_site_fract_x
 _atom_site_fract_y
 _atom_site_fract_z
 _atom_site_occupancy
  Li  Li0  1  0.99988200  0.16645700  0.33333400  1
  Li  Li1  1  0.49983600  0.66675900  0.83337400  1
  Li  Li2  1  0.99802700  0.50105900  0.00352400  1
  Li  Li3  1  0.49657200  0.00262300  0.50171100  1
  Li  Li4  1  0.50329800  0.33049600  0.16482300  1
  Li  Li5  1  0.00179200  0.83236700  0.66321100  1
  Mn  Mn0  1  0.50056400  0.16678400  0.83336900  1
  Mn  Mn1  1  0.99962600  0.66666000  0.33332300  1
  Co  Co0  1  0.01232500  0.00024700  0.99979900  1
  Co  Co1  1  0.98766600  0.33304000  0.66686600  1
  Co  Co2  1  0.49424200  0.49868300  0.50208800  1
  Co  Co3  1  0.50573400  0.83448300  0.16453700  1
  O  O0  1  0.01722300  0.73400900  0.49398800  1
  O  O1  1  0.48019300  0.23432600  0.99415500  1
  O  O2  1  0.98290100  0.59917700  0.17264000  1
  O  O3  1  0.51984600  0.09919800  0.67265100  1
  O  O4  1  0.01887100  0.06716200  0.15600700  1
  O  O5  1  0.46329300  0.56447100  0.66004600  1
  O  O6  1  0.53643000  0.76895500  0.00657700  1
  O  O7  1  0.98097800  0.26621200  0.51065600  1
  O  O8  1  0.45880000  0.90926200  0.32538900  1
  O  O9  1  0.96659100  0.40593600  0.82502800  1
  O  O10  1  0.54130300  0.42368600  0.34119600  1
  O  O11  1  0.03400600  0.92794400  0.84170600  1
loop_
_geom_bond_atom_site_label_1
_geom_bond_atom_site_label_2
_geom_bond_distance
_geom_bond_site_symmetry_2
Li0 O10 2.135676 1_555
Li0 O8 2.136098 1_645
Li0 O4 2.152842 1_655
Li0 O7 2.152900 1_555
Li0 O8 2.167711 1_545
Li0 O10 2.168676 1_655
Li1 O6 2.108386 1_556
Li1 O5 2.109898 1_555
Li1 O9 2.164746 1_455
Li1 O11 2.168175 1_655
Li1 O11 2.168338 1_555
Li1 O9 2.168638 1_555
Li2 O2 2.054032 1_555
Li2 O1 2.155057 1_554
Li2 O9 2.169278 1_554
Li2 O6 2.200422 1_555
Li2 O6 2.211467 1_655
Li2 O1 2.226713 1_654
Li3 O7 2.074364 1_555
Li3 O3 2.077483 1_555
Li3 O0 2.087377 1_545
Li3 O8 2.144031 1_545
Li3 O7 2.286412 1_455
Li3 O0 2.321762 1_645
Li4 O4 2.073490 1_555
Li4 O1 2.074097 1_554
Li4 O2 2.088036 1_555
Li4 O10 2.144669 1_555
Li4 O4 2.285459 1_655
Li4 O2 2.321333 1_455
Li5 O0 2.055398 1_555
Li5 O3 2.155831 1_565
Li5 O11 2.169472 1_555
Li5 O5 2.199985 1_555
Li5 O5 2.211491 1_455
Li5 O3 2.226568 1_465
Mn0 O3 1.950076 1_555
Mn0 O1 1.950959 1_555
Mn0 O11 1.966311 1_545
Mn0 O9 1.966542 1_555
Mn0 O11 2.257995 1_645
Mn0 O9 2.260542 1_455
Mn1 O0 1.951197 1_655
Mn1 O2 1.951277 1_555
Mn1 O10 1.965962 1_555
Mn1 O8 1.966235 1_655
Mn1 O8 2.289786 1_555
Mn1 O10 2.293155 1_655
Co0 O4 1.895693 1_556
Co0 O11 1.917793 1_545
Co0 O1 1.942928 1_555
Co0 O6 1.950900 1_446
Co0 O6 2.200751 1_546
Co0 O1 2.228210 1_455
Co1 O7 1.895742 1_555
Co1 O9 1.918575 1_555
Co1 O3 1.942173 1_555
Co1 O5 1.950996 1_655
Co1 O5 2.202061 1_555
Co1 O3 2.227691 1_655
Co2 O5 1.917518 1_555
Co2 O10 1.954641 1_555
Co2 O7 2.039701 1_455
Co2 O0 2.070881 1_655
Co2 O0 2.114000 1_555
Co2 O7 2.124688 1_555
Co3 O6 1.917559 1_555
Co3 O8 1.954135 1_555
Co3 O4 2.040143 1_665
Co3 O2 2.070487 1_455
Co3 O2 2.114250 1_555
Co3 O4 2.125767 1_565
