# generated using pymatgen
data_Li7IrN4
_symmetry_space_group_name_H-M   'P 1'
_cell_length_a   9.78640600
_cell_length_b   9.78640600
_cell_length_c   9.78640600
_cell_angle_alpha   90.00000000
_cell_angle_beta   90.00000000
_cell_angle_gamma   90.00000000
_symmetry_Int_Tables_number   1
_chemical_formula_structural   Li7IrN4
_chemical_formula_sum   'Li56 Ir8 N32'
_cell_volume   937.28072723
_cell_formula_units_Z   8
loop_
 _symmetry_equiv_pos_site_id
 _symmetry_equiv_pos_as_xyz
  1  'x, y, z'
loop_
 _atom_site_type_symbol
 _atom_site_label
 _atom_site_symmetry_multiplicity
 _atom_site_fract_x
 _atom_site_fract_y
 _atom_site_fract_z
 _atom_site_occupancy
  Li  Li0  1  0.36632800  0.63367200  0.13367200  1
  Li  Li1  1  0.63367200  0.13367200  0.36632800  1
  Li  Li2  1  0.13367200  0.36632800  0.63367200  1
  Li  Li3  1  0.86632800  0.86632800  0.86632800  1
  Li  Li4  1  0.63367200  0.36632800  0.86632800  1
  Li  Li5  1  0.36632800  0.86632800  0.63367200  1
  Li  Li6  1  0.86632800  0.63367200  0.36632800  1
  Li  Li7  1  0.13367200  0.13367200  0.13367200  1
  Li  Li8  1  0.36752900  0.63115400  0.38420700  1
  Li  Li9  1  0.63247100  0.13115400  0.11579300  1
  Li  Li10  1  0.13247100  0.36884600  0.88420700  1
  Li  Li11  1  0.86752900  0.86884600  0.61579300  1
  Li  Li12  1  0.38420700  0.36752900  0.63115400  1
  Li  Li13  1  0.11579300  0.63247100  0.13115400  1
  Li  Li14  1  0.88420700  0.13247100  0.36884600  1
  Li  Li15  1  0.61579300  0.86752900  0.86884600  1
  Li  Li16  1  0.63115400  0.38420700  0.36752900  1
  Li  Li17  1  0.13115400  0.11579300  0.63247100  1
  Li  Li18  1  0.36884600  0.88420700  0.13247100  1
  Li  Li19  1  0.86884600  0.61579300  0.86752900  1
  Li  Li20  1  0.63247100  0.36884600  0.61579300  1
  Li  Li21  1  0.36752900  0.86884600  0.88420700  1
  Li  Li22  1  0.86752900  0.63115400  0.11579300  1
  Li  Li23  1  0.13247100  0.13115400  0.38420700  1
  Li  Li24  1  0.61579300  0.63247100  0.36884600  1
  Li  Li25  1  0.88420700  0.36752900  0.86884600  1
  Li  Li26  1  0.11579300  0.86752900  0.63115400  1
  Li  Li27  1  0.38420700  0.13247100  0.13115400  1
  Li  Li28  1  0.36884600  0.61579300  0.63247100  1
  Li  Li29  1  0.86884600  0.88420700  0.36752900  1
  Li  Li30  1  0.63115400  0.11579300  0.86752900  1
  Li  Li31  1  0.13115400  0.38420700  0.13247100  1
  Li  Li32  1  0.39340100  0.86633000  0.38235300  1
  Li  Li33  1  0.60659900  0.36633000  0.11764700  1
  Li  Li34  1  0.10659900  0.13367000  0.88235300  1
  Li  Li35  1  0.89340100  0.63367000  0.61764700  1
  Li  Li36  1  0.38235300  0.39340100  0.86633000  1
  Li  Li37  1  0.11764700  0.60659900  0.36633000  1
  Li  Li38  1  0.88235300  0.10659900  0.13367000  1
  Li  Li39  1  0.61764700  0.89340100  0.63367000  1
  Li  Li40  1  0.86633000  0.38235300  0.39340100  1
  Li  Li41  1  0.36633000  0.11764700  0.60659900  1
  Li  Li42  1  0.13367000  0.88235300  0.10659900  1
  Li  Li43  1  0.63367000  0.61764700  0.89340100  1
  Li  Li44  1  0.60659900  0.13367000  0.61764700  1
  Li  Li45  1  0.39340100  0.63367000  0.88235300  1
  Li  Li46  1  0.89340100  0.86633000  0.11764700  1
  Li  Li47  1  0.10659900  0.36633000  0.38235300  1
  Li  Li48  1  0.61764700  0.60659900  0.13367000  1
  Li  Li49  1  0.88235300  0.39340100  0.63367000  1
  Li  Li50  1  0.11764700  0.89340100  0.86633000  1
  Li  Li51  1  0.38235300  0.10659900  0.36633000  1
  Li  Li52  1  0.13367000  0.61764700  0.60659900  1
  Li  Li53  1  0.63367000  0.88235300  0.39340100  1
  Li  Li54  1  0.86633000  0.11764700  0.89340100  1
  Li  Li55  1  0.36633000  0.38235300  0.10659900  1
  Ir  Ir0  1  0.12703700  0.87296300  0.37296300  1
  Ir  Ir1  1  0.87296300  0.37296300  0.12703700  1
  Ir  Ir2  1  0.37296300  0.12703700  0.87296300  1
  Ir  Ir3  1  0.62703700  0.62703700  0.62703700  1
  Ir  Ir4  1  0.87296300  0.12703700  0.62703700  1
  Ir  Ir5  1  0.12703700  0.62703700  0.87296300  1
  Ir  Ir6  1  0.62703700  0.87296300  0.12703700  1
  Ir  Ir7  1  0.37296300  0.37296300  0.37296300  1
  N  N0  1  0.24373900  0.75626100  0.25626100  1
  N  N1  1  0.75626100  0.25626100  0.24373900  1
  N  N2  1  0.25626100  0.24373900  0.75626100  1
  N  N3  1  0.74373900  0.74373900  0.74373900  1
  N  N4  1  0.75626100  0.24373900  0.74373900  1
  N  N5  1  0.24373900  0.74373900  0.75626100  1
  N  N6  1  0.74373900  0.75626100  0.24373900  1
  N  N7  1  0.25626100  0.25626100  0.25626100  1
  N  N8  1  0.01557700  0.99309700  0.25381600  1
  N  N9  1  0.98442300  0.49309700  0.24618400  1
  N  N10  1  0.48442300  0.00690300  0.75381600  1
  N  N11  1  0.51557700  0.50690300  0.74618400  1
  N  N12  1  0.25381600  0.01557700  0.99309700  1
  N  N13  1  0.24618400  0.98442300  0.49309700  1
  N  N14  1  0.75381600  0.48442300  0.00690300  1
  N  N15  1  0.74618400  0.51557700  0.50690300  1
  N  N16  1  0.99309700  0.25381600  0.01557700  1
  N  N17  1  0.49309700  0.24618400  0.98442300  1
  N  N18  1  0.00690300  0.75381600  0.48442300  1
  N  N19  1  0.50690300  0.74618400  0.51557700  1
  N  N20  1  0.98442300  0.00690300  0.74618400  1
  N  N21  1  0.01557700  0.50690300  0.75381600  1
  N  N22  1  0.51557700  0.99309700  0.24618400  1
  N  N23  1  0.48442300  0.49309700  0.25381600  1
  N  N24  1  0.74618400  0.98442300  0.00690300  1
  N  N25  1  0.75381600  0.01557700  0.50690300  1
  N  N26  1  0.24618400  0.51557700  0.99309700  1
  N  N27  1  0.25381600  0.48442300  0.49309700  1
  N  N28  1  0.00690300  0.74618400  0.98442300  1
  N  N29  1  0.50690300  0.75381600  0.01557700  1
  N  N30  1  0.99309700  0.24618400  0.51557700  1
  N  N31  1  0.49309700  0.25381600  0.48442300  1
loop_
_geom_bond_atom_site_label_1
_geom_bond_atom_site_label_2
_geom_bond_distance
_geom_bond_site_symmetry_2
Li0 N0 2.077951 1_555
Li0 N26 2.147271 1_554
Li0 N29 2.147271 1_555
Li0 N23 2.147271 1_555
Li1 N1 2.077951 1_555
Li1 N22 2.147271 1_545
Li1 N25 2.147271 1_555
Li1 N31 2.147271 1_555
Li2 N2 2.077951 1_555
Li2 N30 2.147271 1_455
Li2 N21 2.147271 1_555
Li2 N27 2.147271 1_555
Li3 N3 2.077951 1_555
Li3 N28 2.147271 1_655
Li3 N20 2.147271 1_565
Li3 N24 2.147271 1_556
Li4 N4 2.077951 1_555
Li4 N14 2.147271 1_556
Li4 N11 2.147271 1_555
Li4 N17 2.147271 1_555
Li5 N5 2.077951 1_555
Li5 N10 2.147271 1_565
Li5 N19 2.147271 1_555
Li5 N13 2.147271 1_555
Li6 N6 2.077951 1_555
Li6 N18 2.147271 1_655
Li6 N15 2.147271 1_555
Li6 N9 2.147271 1_555
Li7 N7 2.077951 1_555
Li7 N8 2.147271 1_545
Li7 N16 2.147271 1_455
Li7 N12 2.147271 1_554
Li8 N27 2.106185 1_555
Li8 N0 2.129435 1_555
Li8 N23 2.182297 1_555
Li8 N19 2.186448 1_555
Li9 N24 2.106185 1_545
Li9 N1 2.129435 1_555
Li9 N22 2.182297 1_545
Li9 N17 2.186448 1_554
Li10 N26 2.106185 1_555
Li10 N2 2.129435 1_555
Li10 N21 2.182297 1_555
Li10 N16 2.186448 1_456
Li11 N25 2.106185 1_565
Li11 N3 2.129435 1_555
Li11 N20 2.182297 1_565
Li11 N18 2.186448 1_655
Li12 N31 2.106185 1_555
Li12 N2 2.129435 1_555
Li12 N27 2.182297 1_555
Li12 N11 2.186448 1_555
Li13 N28 2.106185 1_554
Li13 N0 2.129435 1_555
Li13 N26 2.182297 1_554
Li13 N9 2.186448 1_455
Li14 N30 2.106185 1_555
Li14 N1 2.129435 1_555
Li14 N25 2.182297 1_555
Li14 N8 2.186448 1_645
Li15 N29 2.106185 1_556
Li15 N3 2.129435 1_555
Li15 N24 2.182297 1_556
Li15 N10 2.186448 1_565
Li16 N23 2.106185 1_555
Li16 N1 2.129435 1_555
Li16 N31 2.182297 1_555
Li16 N15 2.186448 1_555
Li17 N20 2.106185 1_455
Li17 N2 2.129435 1_555
Li17 N30 2.182297 1_455
Li17 N13 2.186448 1_545
Li18 N22 2.106185 1_555
Li18 N0 2.129435 1_555
Li18 N29 2.182297 1_555
Li18 N12 2.186448 1_564
Li19 N21 2.106185 1_655
Li19 N3 2.129435 1_555
Li19 N28 2.182297 1_655
Li19 N14 2.186448 1_556
Li20 N15 2.106185 1_555
Li20 N4 2.129435 1_555
Li20 N11 2.182297 1_555
Li20 N31 2.186448 1_555
Li21 N12 2.106185 1_565
Li21 N5 2.129435 1_555
Li21 N10 2.182297 1_565
Li21 N29 2.186448 1_556
Li22 N14 2.106185 1_555
Li22 N6 2.129435 1_555
Li22 N9 2.182297 1_555
Li22 N28 2.186448 1_654
Li23 N13 2.106185 1_545
Li23 N7 2.129435 1_555
Li23 N8 2.182297 1_545
Li23 N30 2.186448 1_455
Li24 N19 2.106185 1_555
Li24 N6 2.129435 1_555
Li24 N15 2.182297 1_555
Li24 N23 2.186448 1_555
Li25 N16 2.106185 1_556
Li25 N4 2.129435 1_555
Li25 N14 2.182297 1_556
Li25 N21 2.186448 1_655
Li26 N18 2.106185 1_555
Li26 N5 2.129435 1_555
Li26 N13 2.182297 1_555
Li26 N20 2.186448 1_465
Li27 N17 2.106185 1_554
Li27 N7 2.129435 1_555
Li27 N12 2.182297 1_554
Li27 N22 2.186448 1_545
Li28 N11 2.106185 1_555
Li28 N5 2.129435 1_555
Li28 N19 2.182297 1_555
Li28 N27 2.186448 1_555
Li29 N8 2.106185 1_655
Li29 N6 2.129435 1_555
Li29 N18 2.182297 1_655
Li29 N25 2.186448 1_565
Li30 N10 2.106185 1_555
Li30 N4 2.129435 1_555
Li30 N17 2.182297 1_555
Li30 N24 2.186448 1_546
Li31 N9 2.106185 1_455
Li31 N7 2.129435 1_555
Li31 N16 2.182297 1_455
Li31 N26 2.186448 1_554
Li32 N19 2.077541 1_555
Li32 N13 2.141480 1_555
Li32 N22 2.178192 1_555
Li32 N0 2.197328 1_555
Li33 N17 2.077541 1_554
Li33 N14 2.141480 1_555
Li33 N23 2.178192 1_555
Li33 N1 2.197328 1_555
Li34 N16 2.077541 1_456
Li34 N12 2.141480 1_555
Li34 N20 2.178192 1_455
Li34 N2 2.197328 1_555
Li35 N18 2.077541 1_655
Li35 N15 2.141480 1_555
Li35 N21 2.178192 1_655
Li35 N3 2.197328 1_555
Li36 N11 2.077541 1_555
Li36 N17 2.141480 1_555
Li36 N26 2.178192 1_555
Li36 N2 2.197328 1_555
Li37 N9 2.077541 1_455
Li37 N18 2.141480 1_555
Li37 N27 2.178192 1_555
Li37 N0 2.197328 1_555
Li38 N8 2.077541 1_645
Li38 N16 2.141480 1_555
Li38 N24 2.178192 1_545
Li38 N1 2.197328 1_555
Li39 N10 2.077541 1_565
Li39 N19 2.141480 1_555
Li39 N25 2.178192 1_565
Li39 N3 2.197328 1_555
Li40 N15 2.077541 1_555
Li40 N9 2.141480 1_555
Li40 N30 2.178192 1_555
Li40 N1 2.197328 1_555
Li41 N13 2.077541 1_545
Li41 N10 2.141480 1_555
Li41 N31 2.178192 1_555
Li41 N2 2.197328 1_555
Li42 N12 2.077541 1_564
Li42 N8 2.141480 1_555
Li42 N28 2.178192 1_554
Li42 N0 2.197328 1_555
Li43 N14 2.077541 1_556
Li43 N11 2.141480 1_555
Li43 N29 2.178192 1_556
Li43 N3 2.197328 1_555
Li44 N31 2.077541 1_555
Li44 N25 2.141480 1_555
Li44 N10 2.178192 1_555
Li44 N4 2.197328 1_555
Li45 N29 2.077541 1_556
Li45 N26 2.141480 1_555
Li45 N11 2.178192 1_555
Li45 N5 2.197328 1_555
Li46 N28 2.077541 1_654
Li46 N24 2.141480 1_555
Li46 N8 2.178192 1_655
Li46 N6 2.197328 1_555
Li47 N30 2.077541 1_455
Li47 N27 2.141480 1_555
Li47 N9 2.178192 1_455
Li47 N7 2.197328 1_555
Li48 N23 2.077541 1_555
Li48 N29 2.141480 1_555
Li48 N14 2.178192 1_555
Li48 N6 2.197328 1_555
Li49 N21 2.077541 1_655
Li49 N30 2.141480 1_555
Li49 N15 2.178192 1_555
Li49 N4 2.197328 1_555
Li50 N20 2.077541 1_465
Li50 N28 2.141480 1_555
Li50 N12 2.178192 1_565
Li50 N5 2.197328 1_555
Li51 N22 2.077541 1_545
Li51 N31 2.141480 1_555
Li51 N13 2.178192 1_545
Li51 N7 2.197328 1_555
Li52 N27 2.077541 1_555
Li52 N21 2.141480 1_555
Li52 N18 2.178192 1_555
Li52 N5 2.197328 1_555
Li53 N25 2.077541 1_565
Li53 N22 2.141480 1_555
Li53 N19 2.178192 1_555
Li53 N6 2.197328 1_555
Li54 N24 2.077541 1_546
Li54 N20 2.141480 1_555
Li54 N16 2.178192 1_556
Li54 N4 2.197328 1_555
Li55 N26 2.077541 1_554
Li55 N23 2.141480 1_555
Li55 N17 2.178192 1_554
Li55 N7 2.197328 1_555
Ir0 N0 1.978163 1_555
Ir0 N18 1.982841 1_555
Ir0 N13 1.982841 1_555
Ir0 N8 1.982841 1_555
Ir1 N1 1.978163 1_555
Ir1 N14 1.982841 1_555
Ir1 N9 1.982841 1_555
Ir1 N16 1.982841 1_555
Ir2 N2 1.978163 1_555
Ir2 N10 1.982841 1_555
Ir2 N17 1.982841 1_555
Ir2 N12 1.982841 1_555
Ir3 N3 1.978163 1_555
Ir3 N15 1.982841 1_555
Ir3 N19 1.982841 1_555
Ir3 N11 1.982841 1_555
Ir4 N4 1.978163 1_555
Ir4 N25 1.982841 1_555
Ir4 N20 1.982841 1_555
Ir4 N30 1.982841 1_555
Ir5 N5 1.978163 1_555
Ir5 N21 1.982841 1_555
Ir5 N28 1.982841 1_555
Ir5 N26 1.982841 1_555
Ir6 N6 1.978163 1_555
Ir6 N29 1.982841 1_555
Ir6 N24 1.982841 1_555
Ir6 N22 1.982841 1_555
Ir7 N7 1.978163 1_555
Ir7 N23 1.982841 1_555
Ir7 N31 1.982841 1_555
Ir7 N27 1.982841 1_555
