# generated using pymatgen
data_Ho2(Ga3Ru)3
_symmetry_space_group_name_H-M   'P 1'
_cell_length_a   7.38634464
_cell_length_b   7.38634464
_cell_length_c   9.64045651
_cell_angle_alpha   90.00000000
_cell_angle_beta   90.00000000
_cell_angle_gamma   118.90030430
_symmetry_Int_Tables_number   1
_chemical_formula_structural   Ho2(Ga3Ru)3
_chemical_formula_sum   'Ho4 Ga18 Ru6'
_cell_volume   460.46223349
_cell_formula_units_Z   2
loop_
 _symmetry_equiv_pos_site_id
 _symmetry_equiv_pos_as_xyz
  1  'x, y, z'
loop_
 _atom_site_type_symbol
 _atom_site_label
 _atom_site_symmetry_multiplicity
 _atom_site_fract_x
 _atom_site_fract_y
 _atom_site_fract_z
 _atom_site_occupancy
  Ho  Ho0  1  0.99754836  0.67485233  0.25000000  1
  Ho  Ho1  1  0.00245164  0.32514767  0.75000000  1
  Ho  Ho2  1  0.67485233  0.99754836  0.25000000  1
  Ho  Ho3  1  0.32514767  0.00245164  0.75000000  1
  Ga  Ga0  1  0.13313610  0.13313610  0.25000000  1
  Ga  Ga1  1  0.86686390  0.86686390  0.75000000  1
  Ga  Ga2  1  0.01118751  0.33834314  0.07653851  1
  Ga  Ga3  1  0.98881249  0.66165686  0.92346149  1
  Ga  Ga4  1  0.98881249  0.66165686  0.57653851  1
  Ga  Ga5  1  0.33834314  0.01118751  0.42346149  1
  Ga  Ga6  1  0.01118751  0.33834314  0.42346149  1
  Ga  Ga7  1  0.66165686  0.98881249  0.57653851  1
  Ga  Ga8  1  0.66165686  0.98881249  0.92346149  1
  Ga  Ga9  1  0.33834314  0.01118751  0.07653851  1
  Ga  Ga10  1  0.33873657  0.33873657  0.56268920  1
  Ga  Ga11  1  0.66126343  0.66126343  0.43731080  1
  Ga  Ga12  1  0.66126343  0.66126343  0.06268920  1
  Ga  Ga13  1  0.33873657  0.33873657  0.93731080  1
  Ga  Ga14  1  0.33925112  0.55380309  0.25000000  1
  Ga  Ga15  1  0.66074888  0.44619691  0.75000000  1
  Ga  Ga16  1  0.55380309  0.33925112  0.25000000  1
  Ga  Ga17  1  0.44619691  0.66074888  0.75000000  1
  Ru  Ru0  1  0.67688375  0.32311625  -0.00000000  1
  Ru  Ru1  1  0.32311625  0.67688375  -0.00000000  1
  Ru  Ru2  1  0.32311625  0.67688375  0.50000000  1
  Ru  Ru3  1  0.67688375  0.32311625  0.50000000  1
  Ru  Ru4  1  -0.00000000  -0.00000000  -0.00000000  1
  Ru  Ru5  1  -0.00000000  -0.00000000  0.50000000  1
loop_
_geom_bond_atom_site_label_1
_geom_bond_atom_site_label_2
_geom_bond_distance
_geom_bond_site_symmetry_2
Ga0 Ru5 2.609220 1_555
Ga0 Ru4 2.609220 1_555
Ga0 Ga6 2.687912 1_555
Ga0 Ga9 2.687912 1_555
Ga0 Ga2 2.687912 1_555
Ga0 Ga5 2.687912 1_555
Ga0 Ga14 2.720307 1_555
Ga0 Ga16 2.720307 1_555
Ga0 Ho0 3.030629 1_445
Ga0 Ho2 3.030629 1_445
Ga1 Ru5 2.609220 1_665
Ga1 Ru4 2.609220 1_666
Ga1 Ga7 2.687912 1_555
Ga1 Ga8 2.687912 1_555
Ga1 Ga3 2.687912 1_555
Ga1 Ga4 2.687912 1_555
Ga1 Ga17 2.720307 1_555
Ga1 Ga15 2.720307 1_555
Ga1 Ho3 3.030629 1_665
Ga1 Ho1 3.030629 1_665
Ga2 Ru0 2.527056 1_455
Ga2 Ru1 2.556761 1_555
Ga2 Ru4 2.568513 1_555
Ga2 Ga3 2.879174 1_454
Ga2 Ga8 3.010986 1_444
Ga2 Ho0 3.037543 1_455
Ga2 Ho2 3.043032 1_445
Ga2 Ho1 3.149185 1_554
Ga3 Ru1 2.527056 1_656
Ga3 Ru0 2.556761 1_556
Ga3 Ru4 2.568513 1_666
Ga3 Ga9 3.010986 1_666
Ga3 Ho1 3.037543 1_655
Ga3 Ho3 3.043032 1_665
Ga3 Ho0 3.149185 1_556
Ga4 Ru2 2.527056 1_655
Ga4 Ru3 2.556761 1_555
Ga4 Ru5 2.568513 1_665
Ga4 Ga6 2.879174 1_655
Ga4 Ga5 3.010986 1_665
Ga4 Ho1 3.037543 1_655
Ga4 Ho3 3.043032 1_665
Ga4 Ho0 3.149185 1_555
Ga5 Ru2 2.527056 1_545
Ga5 Ru3 2.556761 1_555
Ga5 Ru5 2.568513 1_555
Ga5 Ga7 2.879174 1_545
Ga5 Ho2 3.037543 1_545
Ga5 Ho0 3.043032 1_445
Ga5 Ho3 3.149185 1_555
Ga6 Ru3 2.527056 1_455
Ga6 Ru2 2.556761 1_555
Ga6 Ru5 2.568513 1_555
Ga6 Ga7 3.010986 1_445
Ga6 Ho0 3.037543 1_455
Ga6 Ho2 3.043032 1_445
Ga6 Ho1 3.149185 1_555
Ga7 Ru3 2.527056 1_565
Ga7 Ru2 2.556761 1_555
Ga7 Ru5 2.568513 1_665
Ga7 Ho3 3.037543 1_565
Ga7 Ho1 3.043032 1_665
Ga7 Ho2 3.149185 1_555
Ga8 Ru0 2.527056 1_566
Ga8 Ru1 2.556761 1_556
Ga8 Ru4 2.568513 1_666
Ga8 Ga9 2.879174 1_566
Ga8 Ho3 3.037543 1_565
Ga8 Ho1 3.043032 1_665
Ga8 Ho2 3.149185 1_556
Ga9 Ru1 2.527056 1_545
Ga9 Ru0 2.556761 1_555
Ga9 Ru4 2.568513 1_555
Ga9 Ho2 3.037543 1_545
Ga9 Ho0 3.043032 1_445
Ga9 Ho3 3.149185 1_554
Ga10 Ru5 2.614311 1_555
Ga10 Ru2 2.625921 1_555
Ga10 Ru3 2.625921 1_555
Ga10 Ga11 2.706658 1_555
Ga10 Ga5 2.765540 1_555
Ga10 Ga6 2.765540 1_555
Ga10 Ga17 2.779070 1_555
Ga10 Ga15 2.779070 1_555
Ga10 Ho1 3.033102 1_555
Ga10 Ho3 3.033102 1_555
Ga11 Ru5 2.614311 1_665
Ga11 Ru2 2.625921 1_555
Ga11 Ru3 2.625921 1_555
Ga11 Ga7 2.765540 1_555
Ga11 Ga4 2.765540 1_555
Ga11 Ga14 2.779070 1_555
Ga11 Ga16 2.779070 1_555
Ga11 Ho0 3.033102 1_555
Ga11 Ho2 3.033102 1_555
Ga12 Ru4 2.614311 1_665
Ga12 Ru0 2.625921 1_555
Ga12 Ru1 2.625921 1_555
Ga12 Ga13 2.706658 1_554
Ga12 Ga8 2.765540 1_554
Ga12 Ga3 2.765540 1_554
Ga12 Ga14 2.779070 1_555
Ga12 Ga16 2.779070 1_555
Ga12 Ho0 3.033102 1_555
Ga12 Ho2 3.033102 1_555
Ga13 Ru4 2.614311 1_556
Ga13 Ru0 2.625921 1_556
Ga13 Ru1 2.625921 1_556
Ga13 Ga9 2.765540 1_556
Ga13 Ga2 2.765540 1_556
Ga13 Ga17 2.779070 1_555
Ga13 Ga15 2.779070 1_555
Ga13 Ho1 3.033102 1_555
Ga13 Ho3 3.033102 1_555
Ga14 Ru1 2.598859 1_555
Ga14 Ru2 2.598859 1_555
Ga14 Ga16 2.729541 1_555
Ga14 Ga2 2.733771 1_555
Ga14 Ga6 2.733771 1_555
Ga14 Ho2 3.005747 1_555
Ga14 Ho0 3.057929 1_455
Ga15 Ru0 2.598859 1_556
Ga15 Ru3 2.598859 1_555
Ga15 Ga17 2.729541 1_555
Ga15 Ga3 2.733771 1_555
Ga15 Ga4 2.733771 1_555
Ga15 Ho3 3.005747 1_555
Ga15 Ho1 3.057929 1_655
Ga16 Ru0 2.598859 1_555
Ga16 Ru3 2.598859 1_555
Ga16 Ga5 2.733771 1_555
Ga16 Ga9 2.733771 1_555
Ga16 Ho0 3.005747 1_555
Ga16 Ho2 3.057929 1_545
Ga17 Ru2 2.598859 1_555
Ga17 Ru1 2.598859 1_556
Ga17 Ga7 2.733771 1_555
Ga17 Ga8 2.733771 1_555
Ga17 Ho1 3.005747 1_555
Ga17 Ho3 3.057929 1_565
