# generated using pymatgen
data_LaTiS3
_symmetry_space_group_name_H-M   'P 1'
_cell_length_a   3.77988500
_cell_length_b   8.05837900
_cell_length_c   13.24855600
_cell_angle_alpha   90.00000000
_cell_angle_beta   90.00000000
_cell_angle_gamma   90.00000000
_symmetry_Int_Tables_number   1
_chemical_formula_structural   LaTiS3
_chemical_formula_sum   'La4 Ti4 S12'
_cell_volume   403.54764939
_cell_formula_units_Z   4
loop_
 _symmetry_equiv_pos_site_id
 _symmetry_equiv_pos_as_xyz
  1  'x, y, z'
loop_
 _atom_site_type_symbol
 _atom_site_label
 _atom_site_symmetry_multiplicity
 _atom_site_fract_x
 _atom_site_fract_y
 _atom_site_fract_z
 _atom_site_occupancy
  La  La0  1  0.25000000  0.92664400  0.17032800  1
  La  La1  1  0.75000000  0.07335600  0.82967200  1
  La  La2  1  0.75000000  0.57335600  0.67032800  1
  La  La3  1  0.25000000  0.42664400  0.32967200  1
  Ti  Ti0  1  0.25000000  0.65068700  0.94899000  1
  Ti  Ti1  1  0.75000000  0.34931300  0.05101000  1
  Ti  Ti2  1  0.75000000  0.84931300  0.44899000  1
  Ti  Ti3  1  0.25000000  0.15068700  0.55101000  1
  S  S0  1  0.25000000  0.52661000  0.11192700  1
  S  S1  1  0.75000000  0.47339000  0.88807300  1
  S  S2  1  0.75000000  0.97339000  0.61192700  1
  S  S3  1  0.25000000  0.02661000  0.38807300  1
  S  S4  1  0.25000000  0.66392900  0.50794500  1
  S  S5  1  0.75000000  0.33607100  0.49205500  1
  S  S6  1  0.75000000  0.83607100  0.00794500  1
  S  S7  1  0.25000000  0.16392900  0.99205500  1
  S  S8  1  0.25000000  0.79269900  0.78557800  1
  S  S9  1  0.75000000  0.20730100  0.21442200  1
  S  S10  1  0.75000000  0.70730100  0.28557800  1
  S  S11  1  0.25000000  0.29269900  0.71442200  1
loop_
_geom_bond_atom_site_label_1
_geom_bond_atom_site_label_2
_geom_bond_distance
_geom_bond_site_symmetry_2
La0 S6 2.955141 1_455
La0 S6 2.955141 1_555
La0 S3 2.995170 1_565
La0 S10 3.004584 1_555
La0 S10 3.004584 1_455
La0 S9 3.004691 1_465
La0 S9 3.004691 1_565
La0 S7 3.038854 1_564
La0 S0 3.315180 1_555
La1 S7 2.955141 1_655
La1 S7 2.955141 1_555
La1 S2 2.995170 1_545
La1 S11 3.004584 1_555
La1 S11 3.004584 1_655
La1 S8 3.004691 1_545
La1 S8 3.004691 1_645
La1 S6 3.038854 1_546
La1 S1 3.315180 1_555
La2 S4 2.955141 1_555
La2 S4 2.955141 1_655
La2 S1 2.995170 1_555
La2 S8 3.004584 1_555
La2 S8 3.004584 1_655
La2 S11 3.004691 1_555
La2 S11 3.004691 1_655
La2 S5 3.038854 1_555
La2 S2 3.315180 1_555
La3 S5 2.955141 1_555
La3 S5 2.955141 1_455
La3 S0 2.995170 1_555
La3 S9 3.004584 1_555
La3 S9 3.004584 1_455
La3 S10 3.004691 1_555
La3 S10 3.004691 1_455
La3 S4 3.038854 1_555
La3 S3 3.315180 1_555
S0 Ti0 2.378995 1_554
S0 Ti1 2.502897 1_455
S0 Ti1 2.502897 1_555
S1 Ti1 2.378995 1_556
S1 Ti0 2.502897 1_555
S1 Ti0 2.502897 1_655
S2 Ti2 2.378995 1_555
S2 Ti3 2.502897 1_565
S2 Ti3 2.502897 1_665
S3 Ti3 2.378995 1_555
S3 Ti2 2.502897 1_445
S3 Ti2 2.502897 1_545
S4 Ti2 2.532523 1_555
S4 Ti2 2.532523 1_455
S5 Ti3 2.532523 1_555
S5 Ti3 2.532523 1_655
S6 Ti0 2.532523 1_654
S6 Ti0 2.532523 1_554
S7 Ti1 2.532523 1_556
S7 Ti1 2.532523 1_456
S8 Ti0 2.448822 1_555
S9 Ti1 2.448822 1_555
S10 Ti2 2.448822 1_555
S11 Ti3 2.448822 1_555
