# generated using pymatgen
data_TmFe4B
_symmetry_space_group_name_H-M   'P 1'
_cell_length_a   5.03323939
_cell_length_b   5.03076591
_cell_length_c   7.02387500
_cell_angle_alpha   90.00000000
_cell_angle_beta   90.00000000
_cell_angle_gamma   120.01626182
_symmetry_Int_Tables_number   1
_chemical_formula_structural   TmFe4B
_chemical_formula_sum   'Tm2 Fe8 B2'
_cell_volume   153.99900432
_cell_formula_units_Z   2
loop_
 _symmetry_equiv_pos_site_id
 _symmetry_equiv_pos_as_xyz
  1  'x, y, z'
loop_
 _atom_site_type_symbol
 _atom_site_label
 _atom_site_symmetry_multiplicity
 _atom_site_fract_x
 _atom_site_fract_y
 _atom_site_fract_z
 _atom_site_occupancy
  Tm  Tm0  1  0.99997600  0.00000000  0.00000000  1
  Tm  Tm1  1  0.99998800  0.00000000  0.50000000  1
  Fe  Fe0  1  0.33324700  0.66653800  0.00000000  1
  Fe  Fe1  1  0.66670900  0.33346200  0.00000000  1
  Fe  Fe2  1  0.49998500  0.00000000  0.28607300  1
  Fe  Fe3  1  0.49998500  0.50000100  0.28602200  1
  Fe  Fe4  1  0.99998400  0.49999900  0.28602200  1
  Fe  Fe5  1  0.49998500  0.00000000  0.71392700  1
  Fe  Fe6  1  0.49998500  0.50000100  0.71397800  1
  Fe  Fe7  1  0.99998400  0.49999900  0.71397800  1
  B  B0  1  0.33342600  0.66687800  0.50000000  1
  B  B1  1  0.66654700  0.33312200  0.50000000  1
loop_
_geom_bond_atom_site_label_1
_geom_bond_atom_site_label_2
_geom_bond_distance
_geom_bond_site_symmetry_2
Fe0 Fe4 2.479023 1_455
Fe0 Fe7 2.479023 1_454
Fe0 Fe3 2.479054 1_555
Fe0 Fe6 2.479054 1_554
Fe0 Fe2 2.479403 1_565
Fe0 Fe5 2.479403 1_564
Fe0 Tm0 2.903478 1_455
Fe0 Tm0 2.905738 1_565
Fe0 Tm0 2.905755 1_465
Fe1 Fe6 2.479023 1_554
Fe1 Fe3 2.479023 1_555
Fe1 Fe7 2.479054 1_554
Fe1 Fe4 2.479054 1_555
Fe1 Fe2 2.479403 1_555
Fe1 Fe5 2.479403 1_554
Fe1 Tm0 2.903478 1_565
Fe1 Tm0 2.905738 1_555
Fe1 Tm0 2.905755 1_455
Fe2 Tm1 2.931057 1_455
Fe2 Tm1 2.931083 1_555
Fe3 Tm1 2.930188 1_455
Fe3 Tm1 2.930196 1_565
Fe4 Tm1 2.930188 1_565
Fe4 Tm1 2.930196 1_555
Fe5 Tm1 2.931057 1_455
Fe5 Tm1 2.931083 1_555
Fe6 Tm1 2.930188 1_455
Fe6 Tm1 2.930196 1_565
Fe7 Tm1 2.930188 1_565
Fe7 Tm1 2.930196 1_555
B0 Fe5 2.088895 1_565
B0 Fe2 2.088895 1_565
B0 Fe6 2.090599 1_555
B0 Fe3 2.090599 1_555
B0 Fe7 2.090618 1_455
B0 Fe4 2.090618 1_455
B0 Tm1 2.904959 1_455
B0 Tm1 2.905002 1_465
B0 Tm1 2.905011 1_565
B1 Fe5 2.088895 1_555
B1 Fe2 2.088895 1_555
B1 Fe4 2.090602 1_555
B1 Fe7 2.090602 1_555
B1 Fe6 2.090615 1_555
B1 Fe3 2.090615 1_555
B1 Tm1 2.904959 1_565
B1 Tm1 2.904998 1_455
B1 Tm1 2.905015 1_555
