# generated using pymatgen
data_Ho3Si11Pt23
_symmetry_space_group_name_H-M   'P 1'
_cell_length_a   11.93365180
_cell_length_b   11.93365159
_cell_length_c   11.93364834
_cell_angle_alpha   60.00003744
_cell_angle_beta   60.00003671
_cell_angle_gamma   60.00001280
_symmetry_Int_Tables_number   1
_chemical_formula_structural   Ho3Si11Pt23
_chemical_formula_sum   'Ho6 Si22 Pt46'
_cell_volume   1201.72539681
_cell_formula_units_Z   2
loop_
 _symmetry_equiv_pos_site_id
 _symmetry_equiv_pos_as_xyz
  1  'x, y, z'
loop_
 _atom_site_type_symbol
 _atom_site_label
 _atom_site_symmetry_multiplicity
 _atom_site_fract_x
 _atom_site_fract_y
 _atom_site_fract_z
 _atom_site_occupancy
  Ho  Ho0  1  -0.00000079  -0.00000089  0.50000075  1
  Ho  Ho1  1  0.49998607  0.00001267  0.50001529  1
  Ho  Ho2  1  0.00001404  0.49998768  0.50001194  1
  Ho  Ho3  1  0.50000179  0.50000726  0.00000117  1
  Ho  Ho4  1  0.00001385  0.49998681  -0.00001662  1
  Ho  Ho5  1  0.49998742  0.00000800  -0.00001322  1
  Si  Si0  1  0.82894115  0.82894086  0.17105878  1
  Si  Si1  1  0.17105921  0.82894078  0.17105959  1
  Si  Si2  1  0.82894094  0.17105918  0.17105942  1
  Si  Si3  1  0.17105934  0.17105918  0.82894081  1
  Si  Si4  1  0.82894092  0.17105937  0.82894092  1
  Si  Si5  1  0.17105932  0.82894082  0.82894097  1
  Si  Si6  1  0.83459875  0.83459856  0.49620548  1
  Si  Si7  1  0.83459936  0.49620487  0.83459777  1
  Si  Si8  1  0.49620487  0.83459906  0.83459804  1
  Si  Si9  1  0.83459883  0.83459809  0.83459722  1
  Si  Si10  1  0.16540211  0.16540157  0.50379594  1
  Si  Si11  1  0.16540275  0.50379530  0.16540080  1
  Si  Si12  1  0.50379530  0.16540246  0.16540106  1
  Si  Si13  1  0.16540215  0.16540142  0.16540053  1
  Si  Si14  1  0.60653419  0.60653437  0.18039534  1
  Si  Si15  1  0.60653337  0.18039534  0.60653570  1
  Si  Si16  1  0.18039547  0.60653377  0.60653523  1
  Si  Si17  1  0.60653409  0.60653452  0.60653600  1
  Si  Si18  1  0.39346509  0.39346478  0.81960355  1
  Si  Si19  1  0.39346428  0.81960391  0.39346581  1
  Si  Si20  1  0.81960381  0.39346451  0.39346565  1
  Si  Si21  1  0.39346476  0.39346491  0.39346674  1
  Pt  Pt0  1  0.91697747  0.91697647  0.24907340  1
  Pt  Pt1  1  0.91697829  0.24907398  0.91697448  1
  Pt  Pt2  1  0.24907403  0.91697774  0.91697481  1
  Pt  Pt3  1  0.91697725  0.91697645  0.91697293  1
  Pt  Pt4  1  0.08302832  0.08302765  0.75092015  1
  Pt  Pt5  1  0.08302947  0.75092056  0.08302499  1
  Pt  Pt6  1  0.75092121  0.08302866  0.08302531  1
  Pt  Pt7  1  0.08302832  0.08302745  0.08302456  1
  Pt  Pt8  1  0.69172765  0.69172725  0.92481454  1
  Pt  Pt9  1  0.69172610  0.92481598  0.69172859  1
  Pt  Pt10  1  0.92481636  0.69172627  0.69172832  1
  Pt  Pt11  1  0.69172719  0.69172735  0.69173011  1
  Pt  Pt12  1  0.30827030  0.30827033  0.07518645  1
  Pt  Pt13  1  0.30826949  0.07518773  0.30827180  1
  Pt  Pt14  1  0.07518841  0.30826921  0.30827170  1
  Pt  Pt15  1  0.30827053  0.30827105  0.30827294  1
  Pt  Pt16  1  0.62521528  0.62521638  0.37478336  1
  Pt  Pt17  1  0.37478077  0.62521683  0.37478291  1
  Pt  Pt18  1  0.62521664  0.37478201  0.37478214  1
  Pt  Pt19  1  0.37477952  0.37478072  0.62521895  1
  Pt  Pt20  1  0.62521652  0.37478090  0.62521873  1
  Pt  Pt21  1  0.37478152  0.62521805  0.62521781  1
  Pt  Pt22  1  0.74811811  0.08239745  0.42136717  1
  Pt  Pt23  1  0.74811849  0.74811944  0.42136740  1
  Pt  Pt24  1  0.08239779  0.74811718  0.42136727  1
  Pt  Pt25  1  0.74811934  0.42136487  0.08239634  1
  Pt  Pt26  1  0.08239867  0.42136465  0.74811856  1
  Pt  Pt27  1  0.74811999  0.42136466  0.74811956  1
  Pt  Pt28  1  0.42136416  0.74812067  0.74811935  1
  Pt  Pt29  1  0.42136414  0.08239822  0.74811921  1
  Pt  Pt30  1  0.42136484  0.74811963  0.08239613  1
  Pt  Pt31  1  0.08239760  0.74811782  0.74811727  1
  Pt  Pt32  1  0.74811855  0.74811907  0.08239456  1
  Pt  Pt33  1  0.74811829  0.08239680  0.74811767  1
  Pt  Pt34  1  0.25188105  0.91760713  0.57863099  1
  Pt  Pt35  1  0.25188128  0.25188200  0.57863194  1
  Pt  Pt36  1  0.91760751  0.25188026  0.57863108  1
  Pt  Pt37  1  0.25188244  0.57862863  0.91760571  1
  Pt  Pt38  1  0.91760865  0.57862862  0.25188187  1
  Pt  Pt39  1  0.25188344  0.57862927  0.25188188  1
  Pt  Pt40  1  0.57862879  0.25188183  0.25188308  1
  Pt  Pt41  1  0.57862851  0.91760856  0.25188173  1
  Pt  Pt42  1  0.57862864  0.25188222  0.91760636  1
  Pt  Pt43  1  0.91760762  0.25188145  0.25188023  1
  Pt  Pt44  1  0.25188155  0.25188222  0.91760456  1
  Pt  Pt45  1  0.25188149  0.91760721  0.25188044  1
loop_
_geom_bond_atom_site_label_1
_geom_bond_atom_site_label_2
_geom_bond_distance
_geom_bond_site_symmetry_2
Ho0 Pt22 3.134470 1_455
Ho0 Pt36 3.134471 1_455
Ho0 Pt33 3.134472 1_455
Ho0 Pt31 3.134473 1_545
Ho0 Pt34 3.134477 1_545
Ho0 Pt24 3.134477 1_545
Ho0 Pt45 3.134481 1_545
Ho0 Pt43 3.134482 1_455
Ho1 Pt35 3.134276 1_555
Ho1 Pt29 3.134277 1_555
Ho1 Pt28 3.134466 1_545
Ho1 Pt34 3.134467 1_545
Ho1 Pt40 3.134474 1_555
Ho1 Pt22 3.134489 1_555
Ho1 Pt41 3.134674 1_545
Ho1 Pt23 3.134675 1_545
Ho2 Pt35 3.134275 1_555
Ho2 Pt26 3.134296 1_555
Ho2 Pt39 3.134464 1_555
Ho2 Pt24 3.134466 1_555
Ho2 Pt36 3.134488 1_455
Ho2 Pt27 3.134499 1_455
Ho2 Pt38 3.134650 1_455
Ho2 Pt23 3.134678 1_455
Ho3 Pt30 3.134386 1_555
Ho3 Pt25 3.134425 1_555
Ho3 Pt39 3.134433 1_555
Ho3 Pt28 3.134480 1_554
Ho3 Pt40 3.134487 1_555
Ho3 Pt27 3.134515 1_554
Ho3 Pt37 3.134530 1_554
Ho3 Pt42 3.134568 1_554
Ho4 Pt26 3.134251 1_554
Ho4 Pt44 3.134259 1_554
Ho4 Pt37 3.134468 1_554
Ho4 Pt31 3.134468 1_554
Ho4 Pt43 3.134481 1_455
Ho4 Pt25 3.134482 1_455
Ho4 Pt32 3.134692 1_455
Ho4 Pt38 3.134702 1_455
Ho5 Pt29 3.134270 1_554
Ho5 Pt44 3.134307 1_554
Ho5 Pt30 3.134430 1_545
Ho5 Pt45 3.134453 1_545
Ho5 Pt33 3.134497 1_554
Ho5 Pt42 3.134517 1_554
Ho5 Pt32 3.134646 1_545
Ho5 Pt41 3.134678 1_545
Pt0 Si6 2.408003 1_555
Pt0 Si1 2.476681 1_655
Pt0 Si2 2.476691 1_565
Pt0 Si0 2.476727 1_555
Pt1 Si7 2.407991 1_555
Pt1 Si3 2.476674 1_655
Pt1 Si2 2.476712 1_556
Pt1 Si4 2.476717 1_555
Pt2 Si8 2.407991 1_555
Pt2 Si3 2.476678 1_565
Pt2 Si1 2.476711 1_556
Pt2 Si5 2.476716 1_555
Pt3 Si9 2.408005 1_555
Pt3 Si5 2.476684 1_655
Pt3 Si4 2.476693 1_565
Pt3 Si0 2.476721 1_556
Pt4 Si10 2.407926 1_555
Pt4 Si3 2.476692 1_555
Pt4 Si5 2.476729 1_545
Pt4 Si4 2.476735 1_455
Pt5 Si11 2.407936 1_555
Pt5 Si5 2.476702 1_554
Pt5 Si1 2.476706 1_555
Pt5 Si0 2.476744 1_455
Pt6 Si12 2.407943 1_555
Pt6 Si2 2.476704 1_555
Pt6 Si4 2.476705 1_554
Pt6 Si0 2.476739 1_545
Pt7 Si13 2.407920 1_555
Pt7 Si3 2.476699 1_554
Pt7 Si1 2.476728 1_545
Pt7 Si2 2.476735 1_455
Pt8 Si14 2.490325 1_556
Pt8 Si7 2.491698 1_555
Pt8 Si8 2.491700 1_555
Pt8 Si9 2.491725 1_555
Pt9 Si15 2.490311 1_565
Pt9 Si8 2.491689 1_555
Pt9 Si6 2.491709 1_555
Pt9 Si9 2.491716 1_555
Pt10 Si16 2.490309 1_655
Pt10 Si7 2.491691 1_555
Pt10 Si6 2.491708 1_555
Pt10 Si9 2.491711 1_555
Pt11 Si17 2.490316 1_555
Pt11 Si8 2.491701 1_555
Pt11 Si7 2.491703 1_555
Pt11 Si6 2.491730 1_555
Pt12 Si18 2.490346 1_554
Pt12 Si13 2.491687 1_555
Pt12 Si11 2.491707 1_555
Pt12 Si12 2.491709 1_555
Pt13 Si19 2.490355 1_545
Pt13 Si10 2.491696 1_555
Pt13 Si13 2.491702 1_555
Pt13 Si12 2.491719 1_555
Pt14 Si20 2.490362 1_455
Pt14 Si10 2.491696 1_555
Pt14 Si13 2.491705 1_555
Pt14 Si11 2.491719 1_555
Pt15 Si21 2.490334 1_555
Pt15 Si10 2.491693 1_555
Pt15 Si11 2.491709 1_555
Pt15 Si12 2.491714 1_555
Pt16 Si19 2.562168 1_555
Pt16 Si14 2.562169 1_555
Pt16 Si20 2.562179 1_555
Pt16 Si17 2.562188 1_555
Pt17 Si21 2.562157 1_555
Pt17 Si16 2.562166 1_555
Pt17 Si19 2.562182 1_555
Pt17 Si14 2.562185 1_555
Pt18 Si21 2.562158 1_555
Pt18 Si14 2.562174 1_555
Pt18 Si20 2.562180 1_555
Pt18 Si15 2.562182 1_555
Pt19 Si21 2.562152 1_555
Pt19 Si16 2.562165 1_555
Pt19 Si18 2.562174 1_555
Pt19 Si15 2.562177 1_555
Pt20 Si18 2.562158 1_555
Pt20 Si15 2.562162 1_555
Pt20 Si20 2.562181 1_555
Pt20 Si17 2.562190 1_555
Pt21 Si19 2.562167 1_555
Pt21 Si16 2.562173 1_555
Pt21 Si18 2.562175 1_555
Pt21 Si17 2.562177 1_555
Pt22 Si6 2.415832 1_545
Pt22 Si2 2.439544 1_555
Pt22 Si15 2.445417 1_555
Pt23 Si6 2.415817 1_555
Pt23 Si0 2.439553 1_555
Pt23 Si17 2.445439 1_555
Pt24 Si6 2.415833 1_455
Pt24 Si1 2.439543 1_555
Pt24 Si16 2.445410 1_555
Pt25 Si7 2.415828 1_554
Pt25 Si2 2.439524 1_555
Pt25 Si14 2.445434 1_555
Pt26 Si7 2.415836 1_455
Pt26 Si3 2.439521 1_555
Pt26 Si16 2.445416 1_555
Pt27 Si7 2.415819 1_555
Pt27 Si4 2.439520 1_555
Pt27 Si17 2.445442 1_555
Pt28 Si8 2.415819 1_555
Pt28 Si5 2.439516 1_555
Pt28 Si17 2.445442 1_555
Pt29 Si8 2.415834 1_545
Pt29 Si3 2.439515 1_555
Pt29 Si15 2.445420 1_555
Pt30 Si8 2.415823 1_554
Pt30 Si1 2.439524 1_555
Pt30 Si14 2.445434 1_555
Pt31 Si9 2.415831 1_455
Pt31 Si5 2.439549 1_555
Pt31 Si16 2.445414 1_555
Pt32 Si9 2.415817 1_554
Pt32 Si0 2.439551 1_555
Pt32 Si14 2.445436 1_555
Pt33 Si9 2.415830 1_545
Pt33 Si4 2.439549 1_555
Pt33 Si15 2.445420 1_555
Pt34 Si10 2.415789 1_565
Pt34 Si5 2.439566 1_555
Pt34 Si19 2.445422 1_555
Pt35 Si10 2.415799 1_555
Pt35 Si3 2.439555 1_555
Pt35 Si21 2.445410 1_555
Pt36 Si10 2.415791 1_655
Pt36 Si4 2.439565 1_555
Pt36 Si20 2.445428 1_555
Pt37 Si11 2.415796 1_556
Pt37 Si5 2.439587 1_555
Pt37 Si18 2.445402 1_555
Pt38 Si11 2.415787 1_655
Pt38 Si0 2.439588 1_555
Pt38 Si20 2.445425 1_555
Pt39 Si11 2.415801 1_555
Pt39 Si1 2.439581 1_555
Pt39 Si21 2.445405 1_555
Pt40 Si12 2.415793 1_555
Pt40 Si2 2.439587 1_555
Pt40 Si21 2.445408 1_555
Pt41 Si12 2.415785 1_565
Pt41 Si0 2.439592 1_555
Pt41 Si19 2.445425 1_555
Pt42 Si12 2.415792 1_556
Pt42 Si4 2.439588 1_555
Pt42 Si18 2.445404 1_555
Pt43 Si13 2.415790 1_655
Pt43 Si2 2.439563 1_555
Pt43 Si20 2.445421 1_555
Pt44 Si13 2.415804 1_556
Pt44 Si3 2.439555 1_555
Pt44 Si18 2.445407 1_555
Pt45 Si13 2.415787 1_565
Pt45 Si1 2.439561 1_555
Pt45 Si19 2.445420 1_555
