# generated using pymatgen
data_Sc2Nb3Si4
_symmetry_space_group_name_H-M   'P 1'
_cell_length_a   6.70986169
_cell_length_b   6.90897620
_cell_length_c   13.13671008
_cell_angle_alpha   90.00000000
_cell_angle_beta   90.00000000
_cell_angle_gamma   90.00000000
_symmetry_Int_Tables_number   1
_chemical_formula_structural   Sc2Nb3Si4
_chemical_formula_sum   'Sc8 Nb12 Si16'
_cell_volume   608.99521483
_cell_formula_units_Z   4
loop_
 _symmetry_equiv_pos_site_id
 _symmetry_equiv_pos_as_xyz
  1  'x, y, z'
loop_
 _atom_site_type_symbol
 _atom_site_label
 _atom_site_symmetry_multiplicity
 _atom_site_fract_x
 _atom_site_fract_y
 _atom_site_fract_z
 _atom_site_occupancy
  Sc  Sc0  1  0.50275232  0.67425999  0.59629802  1
  Sc  Sc1  1  0.00275232  0.82574001  0.90370198  1
  Sc  Sc2  1  0.49724768  0.32574001  0.09629802  1
  Sc  Sc3  1  0.99724768  0.17425999  0.40370198  1
  Sc  Sc4  1  0.49724768  0.32574001  0.40370198  1
  Sc  Sc5  1  0.99724768  0.17425999  0.09629802  1
  Sc  Sc6  1  0.50275232  0.67425999  0.90370198  1
  Sc  Sc7  1  0.00275232  0.82574001  0.59629802  1
  Nb  Nb0  1  0.66326677  0.17654942  0.62492330  1
  Nb  Nb1  1  0.16326677  0.32345058  0.87507670  1
  Nb  Nb2  1  0.33673323  0.82345058  0.12492330  1
  Nb  Nb3  1  0.83673323  0.67654942  0.37507670  1
  Nb  Nb4  1  0.33673323  0.82345058  0.37507670  1
  Nb  Nb5  1  0.83673323  0.67654942  0.12492330  1
  Nb  Nb6  1  0.66326677  0.17654942  0.87507670  1
  Nb  Nb7  1  0.16326677  0.32345058  0.62492330  1
  Nb  Nb8  1  0.83765191  0.49495091  0.75000000  1
  Nb  Nb9  1  0.33765191  0.00504909  0.75000000  1
  Nb  Nb10  1  0.16234809  0.50504909  0.25000000  1
  Nb  Nb11  1  0.66234809  0.99495091  0.25000000  1
  Si  Si0  1  0.66717006  0.96787343  0.46101814  1
  Si  Si1  1  0.16717006  0.53212657  0.03898186  1
  Si  Si2  1  0.33282994  0.03212657  0.96101814  1
  Si  Si3  1  0.83282994  0.46787343  0.53898186  1
  Si  Si4  1  0.33282994  0.03212657  0.53898186  1
  Si  Si5  1  0.83282994  0.46787343  0.96101814  1
  Si  Si6  1  0.66717006  0.96787343  0.03898186  1
  Si  Si7  1  0.16717006  0.53212657  0.46101814  1
  Si  Si8  1  0.45976870  0.38696912  0.75000000  1
  Si  Si9  1  0.95976870  0.11303088  0.75000000  1
  Si  Si10  1  0.54023130  0.61303088  0.25000000  1
  Si  Si11  1  0.04023130  0.88696912  0.25000000  1
  Si  Si12  1  0.70584111  0.86513464  0.75000000  1
  Si  Si13  1  0.20584111  0.63486536  0.75000000  1
  Si  Si14  1  0.29415889  0.13486536  0.25000000  1
  Si  Si15  1  0.79415889  0.36513464  0.25000000  1
loop_
_geom_bond_atom_site_label_1
_geom_bond_atom_site_label_2
_geom_bond_distance
_geom_bond_site_symmetry_2
Sc0 Si3 2.739599 1_555
Sc0 Si12 2.770011 1_555
Sc0 Si4 2.824907 1_565
Sc0 Si8 2.846028 1_555
Sc0 Si13 2.849560 1_555
Sc0 Si0 2.913826 1_555
Sc0 Si7 3.031949 1_555
Sc1 Si2 2.739599 1_565
Sc1 Si13 2.770011 1_555
Sc1 Si5 2.824907 1_455
Sc1 Si9 2.846028 1_465
Sc1 Si12 2.849560 1_455
Sc1 Si1 2.913826 1_556
Sc1 Si6 3.031949 1_456
Sc2 Si1 2.739599 1_555
Sc2 Si14 2.770011 1_555
Sc2 Si6 2.824907 1_545
Sc2 Si10 2.846028 1_555
Sc2 Si15 2.849560 1_555
Sc2 Si2 2.913826 1_554
Sc2 Si5 3.031949 1_554
Sc3 Si0 2.739599 1_545
Sc3 Si15 2.770011 1_555
Sc3 Si7 2.824907 1_655
Sc3 Si11 2.846028 1_645
Sc3 Si14 2.849560 1_655
Sc3 Si3 2.913826 1_555
Sc3 Si4 3.031949 1_655
Sc4 Si7 2.739599 1_555
Sc4 Si14 2.770011 1_555
Sc4 Si0 2.824907 1_545
Sc4 Si10 2.846028 1_555
Sc4 Si15 2.849560 1_555
Sc4 Si4 2.913826 1_555
Sc4 Si3 3.031949 1_555
Sc5 Si6 2.739599 1_545
Sc5 Si15 2.770011 1_555
Sc5 Si1 2.824907 1_655
Sc5 Si11 2.846028 1_645
Sc5 Si14 2.849560 1_655
Sc5 Si5 2.913826 1_554
Sc5 Si2 3.031949 1_654
Sc6 Si5 2.739599 1_555
Sc6 Si12 2.770011 1_555
Sc6 Si2 2.824907 1_565
Sc6 Si8 2.846028 1_555
Sc6 Si13 2.849560 1_555
Sc6 Si6 2.913826 1_556
Sc6 Si1 3.031949 1_556
Sc7 Si4 2.739599 1_565
Sc7 Si13 2.770011 1_555
Sc7 Si3 2.824907 1_455
Sc7 Si9 2.846028 1_465
Sc7 Si12 2.849560 1_455
Sc7 Si7 2.913826 1_555
Sc7 Si0 3.031949 1_455
Nb0 Si3 2.572983 1_555
Nb0 Si8 2.584123 1_555
Nb0 Si0 2.591419 1_545
Nb0 Si9 2.617329 1_555
Nb0 Si4 2.680701 1_555
Nb0 Si12 2.722236 1_545
Nb1 Si2 2.572983 1_555
Nb1 Si9 2.584123 1_455
Nb1 Si1 2.591419 1_556
Nb1 Si8 2.617329 1_555
Nb1 Si5 2.680701 1_455
Nb1 Si13 2.722236 1_555
Nb2 Si1 2.572983 1_555
Nb2 Si10 2.584123 1_555
Nb2 Si2 2.591419 1_564
Nb2 Si11 2.617329 1_555
Nb2 Si6 2.680701 1_555
Nb2 Si14 2.722236 1_565
Nb3 Si0 2.572983 1_555
Nb3 Si11 2.584123 1_655
Nb3 Si3 2.591419 1_555
Nb3 Si10 2.617329 1_555
Nb3 Si7 2.680701 1_655
Nb3 Si15 2.722236 1_555
Nb4 Si7 2.572983 1_555
Nb4 Si10 2.584123 1_555
Nb4 Si4 2.591419 1_565
Nb4 Si11 2.617329 1_555
Nb4 Si0 2.680701 1_555
Nb4 Si14 2.722236 1_565
Nb5 Si6 2.572983 1_555
Nb5 Si11 2.584123 1_655
Nb5 Si5 2.591419 1_554
Nb5 Si10 2.617329 1_555
Nb5 Si1 2.680701 1_655
Nb5 Si15 2.722236 1_555
Nb6 Si5 2.572983 1_555
Nb6 Si8 2.584123 1_555
Nb6 Si6 2.591419 1_546
Nb6 Si9 2.617329 1_555
Nb6 Si2 2.680701 1_555
Nb6 Si12 2.722236 1_545
Nb7 Si4 2.572983 1_555
Nb7 Si9 2.584123 1_455
Nb7 Si7 2.591419 1_555
Nb7 Si8 2.617329 1_555
Nb7 Si3 2.680701 1_455
Nb7 Si13 2.722236 1_555
Nb8 Si8 2.643022 1_555
Nb8 Si13 2.652886 1_655
Nb8 Si12 2.706195 1_555
Nb8 Si9 2.762971 1_555
Nb8 Si5 2.778578 1_555
Nb8 Si3 2.778578 1_555
Nb9 Si9 2.643022 1_455
Nb9 Si12 2.652886 1_545
Nb9 Si13 2.706195 1_545
Nb9 Si8 2.762971 1_555
Nb9 Si4 2.778578 1_555
Nb9 Si2 2.778578 1_555
Nb10 Si10 2.643022 1_555
Nb10 Si15 2.652886 1_455
Nb10 Si14 2.706195 1_555
Nb10 Si11 2.762971 1_555
Nb10 Si1 2.778578 1_555
Nb10 Si7 2.778578 1_555
Nb11 Si11 2.643022 1_655
Nb11 Si14 2.652886 1_565
Nb11 Si15 2.706195 1_565
Nb11 Si10 2.762971 1_555
Nb11 Si6 2.778578 1_555
Nb11 Si0 2.778578 1_555
Si0 Si4 2.505746 1_565
Si1 Si5 2.505746 1_454
Si2 Si6 2.505746 1_546
Si3 Si7 2.505746 1_655
Si10 Si15 2.415858 1_555
Si11 Si14 2.415858 1_565
Si12 Si9 2.415858 1_565
Si13 Si8 2.415858 1_555
