# generated using pymatgen
data_Mg6SiW
_symmetry_space_group_name_H-M   'P 1'
_cell_length_a   4.79081800
_cell_length_b   6.07415800
_cell_length_c   10.50255200
_cell_angle_alpha   90.00000000
_cell_angle_beta   90.00000000
_cell_angle_gamma   90.00000000
_symmetry_Int_Tables_number   1
_chemical_formula_structural   Mg6SiW
_chemical_formula_sum   'Mg12 Si2 W2'
_cell_volume   305.62621123
_cell_formula_units_Z   2
loop_
 _symmetry_equiv_pos_site_id
 _symmetry_equiv_pos_as_xyz
  1  'x, y, z'
loop_
 _atom_site_type_symbol
 _atom_site_label
 _atom_site_symmetry_multiplicity
 _atom_site_fract_x
 _atom_site_fract_y
 _atom_site_fract_z
 _atom_site_occupancy
  Mg  Mg0  1  0.00000000  0.25810400  0.91546200  1
  Mg  Mg1  1  0.00000000  0.74189600  0.91546200  1
  Mg  Mg2  1  0.00000000  0.50000000  0.16804900  1
  Mg  Mg3  1  0.50000000  0.24728000  0.07890400  1
  Mg  Mg4  1  0.50000000  0.75272000  0.07890400  1
  Mg  Mg5  1  0.50000000  0.50000000  0.33025400  1
  Mg  Mg6  1  0.00000000  0.75810400  0.41546200  1
  Mg  Mg7  1  0.00000000  0.24189600  0.41546200  1
  Mg  Mg8  1  0.00000000  0.00000000  0.66804900  1
  Mg  Mg9  1  0.50000000  0.74728000  0.57890400  1
  Mg  Mg10  1  0.50000000  0.25272000  0.57890400  1
  Mg  Mg11  1  0.50000000  0.00000000  0.83025400  1
  Si  Si0  1  0.00000000  0.50000000  0.69587700  1
  Si  Si1  1  0.00000000  0.00000000  0.19587700  1
  W  W0  1  0.50000000  0.50000000  0.81708800  1
  W  W1  1  0.50000000  0.00000000  0.31708800  1
loop_
_geom_bond_atom_site_label_1
_geom_bond_atom_site_label_2
_geom_bond_distance
_geom_bond_site_symmetry_2
Mg0 Si0 2.734494 1_555
Mg0 Mg3 2.947690 1_456
Mg0 Mg3 2.947690 1_556
Mg0 W0 2.994048 1_555
Mg0 W0 2.994048 1_455
Mg0 Mg2 3.032536 1_556
Mg0 Mg8 3.034785 1_555
Mg1 Si0 2.734494 1_555
Mg1 Mg4 2.947690 1_556
Mg1 Mg4 2.947690 1_456
Mg1 W0 2.994048 1_555
Mg1 W0 2.994048 1_455
Mg1 Mg2 3.032536 1_556
Mg1 Mg8 3.034785 1_565
Mg2 Mg5 2.939409 1_555
Mg2 Mg5 2.939409 1_455
Mg2 Mg4 2.995156 1_555
Mg2 Mg4 2.995156 1_455
Mg2 Mg3 2.995156 1_455
Mg2 Mg3 2.995156 1_555
Mg2 Mg6 3.034785 1_555
Mg2 Mg7 3.034785 1_555
Mg2 Si1 3.051109 1_565
Mg2 Si1 3.051109 1_555
Mg3 W1 2.917835 1_555
Mg3 Mg4 3.004036 1_545
Mg3 Mg5 3.053693 1_555
Mg3 Mg4 3.070122 1_555
Mg3 Si1 3.082741 1_655
Mg3 Si1 3.082741 1_555
Mg3 W0 3.149200 1_554
Mg4 W1 2.917835 1_565
Mg4 Mg5 3.053693 1_555
Mg4 Si1 3.082741 1_665
Mg4 Si1 3.082741 1_565
Mg4 W0 3.149200 1_554
Mg5 Mg9 3.012603 1_555
Mg5 W1 3.040225 1_565
Mg5 W1 3.040225 1_555
Mg6 Si1 2.734494 1_565
Mg6 Mg9 2.947690 1_555
Mg6 Mg9 2.947690 1_455
Mg6 W1 2.994048 1_565
Mg6 W1 2.994048 1_465
Mg6 Mg8 3.032536 1_565
Mg7 Si1 2.734494 1_555
Mg7 W1 2.994048 1_455
Mg7 W1 2.994048 1_555
Mg7 Mg8 3.032536 1_555
Mg8 Mg9 2.995156 1_545
Mg8 Mg9 2.995156 1_445
Mg8 Si0 3.051109 1_545
Mg8 Si0 3.051109 1_555
Mg9 W0 2.917835 1_555
Mg9 Si0 3.082741 1_655
Mg9 Si0 3.082741 1_555
Mg9 W1 3.149200 1_565
Mg10 W0 2.917835 1_555
Mg10 Mg7 2.947690 1_555
Mg10 Mg7 2.947690 1_655
Mg10 Mg8 2.995156 1_555
Mg10 Mg8 2.995156 1_655
Mg10 Mg9 3.004036 1_555
Mg10 Mg5 3.012603 1_555
Mg10 Mg11 3.053693 1_555
Mg10 Mg9 3.070122 1_545
Mg10 Si0 3.082741 1_555
Mg10 Si0 3.082741 1_655
Mg10 W1 3.149200 1_555
Mg11 Mg8 2.939409 1_555
Mg11 Mg8 2.939409 1_655
Mg11 Mg3 3.012603 1_556
Mg11 Mg4 3.012603 1_546
Mg11 W0 3.040225 1_555
Mg11 W0 3.040225 1_545
Mg11 Mg9 3.053693 1_545
Si0 W0 2.712670 1_455
Si0 W0 2.712670 1_555
Si1 W1 2.712670 1_555
Si1 W1 2.712670 1_455
