# generated using pymatgen
data_Ti5MnSb2
_symmetry_space_group_name_H-M   'P 1'
_cell_length_a   5.16956083
_cell_length_b   7.84317617
_cell_length_c   7.84320615
_cell_angle_alpha   83.78424974
_cell_angle_beta   70.78255890
_cell_angle_gamma   70.78284763
_symmetry_Int_Tables_number   1
_chemical_formula_structural   Ti5MnSb2
_chemical_formula_sum   'Ti10 Mn2 Sb4'
_cell_volume   283.55552596
_cell_formula_units_Z   2
loop_
 _symmetry_equiv_pos_site_id
 _symmetry_equiv_pos_as_xyz
  1  'x, y, z'
loop_
 _atom_site_type_symbol
 _atom_site_label
 _atom_site_symmetry_multiplicity
 _atom_site_fract_x
 _atom_site_fract_y
 _atom_site_fract_z
 _atom_site_occupancy
  Ti  Ti0  1  0.07221409  0.13383257  0.72144472  1
  Ti  Ti1  1  0.92778320  0.86617671  0.27854051  1
  Ti  Ti2  1  0.79387484  0.27858149  0.13386544  1
  Ti  Ti3  1  0.42777368  0.27855495  0.86617346  1
  Ti  Ti4  1  0.20611778  0.72141476  0.86612910  1
  Ti  Ti5  1  0.57220795  0.72145867  0.13382727  1
  Ti  Ti6  1  0.70612419  0.86613363  0.72140668  1
  Ti  Ti7  1  0.29387986  0.13386613  0.27857567  1
  Ti  Ti8  1  0.25000065  0.49994411  0.50006129  1
  Ti  Ti9  1  0.74999897  0.50005710  0.49994795  1
  Mn  Mn0  1  0.24999233  -0.00003687  0.00003302  1
  Mn  Mn1  1  0.74998609  0.00001017  -0.00001073  1
  Sb  Sb0  1  0.16308641  0.49998806  0.17359869  1
  Sb  Sb1  1  0.83689401  0.50002351  0.82642444  1
  Sb  Sb2  1  0.33694264  0.82641710  0.49999839  1
  Sb  Sb3  1  0.66312231  0.17357790  0.49998508  1
loop_
_geom_bond_atom_site_label_1
_geom_bond_atom_site_label_2
_geom_bond_distance
_geom_bond_site_symmetry_2
Ti8 Ti9 2.584771 1_555
Ti8 Ti9 2.584790 1_455
Mn0 Mn1 2.584757 1_555
Mn0 Mn1 2.584804 1_455
Mn0 Ti1 2.627945 1_445
Mn0 Ti5 2.627987 1_545
Mn0 Ti7 2.628157 1_555
Mn0 Ti4 2.628162 1_544
Mn0 Ti0 2.628939 1_554
Mn0 Ti3 2.628944 1_554
Mn0 Ti2 2.629132 1_455
Mn0 Ti6 2.629200 1_544
Mn1 Ti2 2.628248 1_555
Mn1 Ti3 2.628249 1_554
Mn1 Ti6 2.628267 1_544
Mn1 Ti0 2.628308 1_654
Mn1 Ti5 2.628618 1_545
Mn1 Ti1 2.628669 1_545
Mn1 Ti7 2.628994 1_555
Mn1 Ti4 2.629106 1_644
Sb0 Ti9 2.741015 1_455
Sb0 Ti8 2.741381 1_555
Sb0 Ti3 2.805871 1_554
Sb0 Ti4 2.806312 1_554
Sb0 Ti7 2.820868 1_555
Sb0 Ti1 2.821156 1_455
Sb0 Ti2 3.073483 1_455
Sb0 Ti5 3.074822 1_555
Sb0 Ti5 3.076054 1_455
Sb0 Ti2 3.076785 1_555
Sb1 Ti8 2.741123 1_655
Sb1 Ti9 2.741455 1_555
Sb1 Ti5 2.805745 1_556
Sb1 Ti2 2.806206 1_556
Sb1 Ti6 2.820867 1_555
Sb1 Ti0 2.821250 1_655
Sb1 Ti4 3.073360 1_655
Sb1 Ti3 3.074837 1_555
Sb1 Ti3 3.075991 1_655
Sb1 Ti4 3.076747 1_555
Sb2 Ti9 2.741022 1_555
Sb2 Ti8 2.741495 1_555
Sb2 Ti0 2.805868 1_565
Sb2 Ti7 2.806169 1_565
Sb2 Ti4 2.820987 1_555
Sb2 Ti5 2.821070 1_555
Sb2 Ti6 3.073324 1_555
Sb2 Ti1 3.074938 1_455
Sb2 Ti1 3.075824 1_555
Sb2 Ti6 3.076938 1_455
Sb3 Ti8 2.741183 1_555
Sb3 Ti9 2.741415 1_555
Sb3 Ti1 2.805774 1_545
Sb3 Ti6 2.806136 1_545
Sb3 Ti2 2.820911 1_555
Sb3 Ti3 2.821231 1_555
Sb3 Ti7 3.073582 1_555
Sb3 Ti0 3.074675 1_655
Sb3 Ti0 3.076080 1_555
Sb3 Ti7 3.076682 1_655
