# generated using pymatgen
data_Li9Mn7O16
_symmetry_space_group_name_H-M   'P 1'
_cell_length_a   6.06103400
_cell_length_b   6.51865376
_cell_length_c   8.01914536
_cell_angle_alpha   87.64487809
_cell_angle_beta   105.26034933
_cell_angle_gamma   103.61020966
_symmetry_Int_Tables_number   1
_chemical_formula_structural   Li9Mn7O16
_chemical_formula_sum   'Li9 Mn7 O16'
_cell_volume   297.00632419
_cell_formula_units_Z   1
loop_
 _symmetry_equiv_pos_site_id
 _symmetry_equiv_pos_as_xyz
  1  'x, y, z'
loop_
 _atom_site_type_symbol
 _atom_site_label
 _atom_site_symmetry_multiplicity
 _atom_site_fract_x
 _atom_site_fract_y
 _atom_site_fract_z
 _atom_site_occupancy
  Li  Li0  1  0.61981500  0.12597500  0.87460700  1
  Li  Li1  1  0.62198300  0.62663900  0.37374800  1
  Li  Li2  1  0.87384900  0.37903200  0.63014300  1
  Li  Li3  1  0.86411600  0.86354800  0.12223500  1
  Li  Li4  1  0.12615100  0.62096800  0.36985700  1
  Li  Li5  1  0.13588400  0.13645200  0.87776500  1
  Li  Li6  1  0.38018500  0.87402500  0.12539300  1
  Li  Li7  1  0.37801700  0.37336100  0.62625200  1
  Li  Li8  1  0.50000000  0.50000000  0.00000000  1
  Mn  Mn0  1  0.74917800  0.25111500  0.24417800  1
  Mn  Mn1  1  0.00000000  0.50000000  0.00000000  1
  Mn  Mn2  1  0.74246000  0.74830600  0.75652800  1
  Mn  Mn3  1  0.00000000  0.00000000  0.50000000  1
  Mn  Mn4  1  0.25082200  0.74888500  0.75582200  1
  Mn  Mn5  1  0.25754000  0.25169400  0.24347200  1
  Mn  Mn6  1  0.50000000  0.00000000  0.50000000  1
  O  O0  1  0.44632200  0.19057100  0.08066400  1
  O  O1  1  0.45445700  0.69922500  0.56612700  1
  O  O2  1  0.70699300  0.45454100  0.81721300  1
  O  O3  1  0.70825900  0.94982200  0.31453300  1
  O  O4  1  0.94781100  0.70509600  0.57240000  1
  O  O5  1  0.96109000  0.20562600  0.06121600  1
  O  O6  1  0.20773500  0.95519000  0.31726200  1
  O  O7  1  0.16946600  0.45916500  0.82864700  1
  O  O8  1  0.79226500  0.04481000  0.68273800  1
  O  O9  1  0.83053400  0.54083500  0.17135300  1
  O  O10  1  0.05218900  0.29490400  0.42760000  1
  O  O11  1  0.03891000  0.79437400  0.93878400  1
  O  O12  1  0.29300700  0.54545900  0.18278700  1
  O  O13  1  0.29174100  0.05017800  0.68546700  1
  O  O14  1  0.55367800  0.80942900  0.91933600  1
  O  O15  1  0.54554300  0.30077500  0.43387300  1
loop_
_geom_bond_atom_site_label_1
_geom_bond_atom_site_label_2
_geom_bond_distance
_geom_bond_site_symmetry_2
Li0 O14 2.042734 1_545
Li0 O13 2.123720 1_555
Li0 O2 2.143071 1_555
Li0 O5 2.171753 1_556
Li0 O8 2.216652 1_555
Li0 O0 2.278978 1_556
Li1 O3 2.113580 1_555
Li1 O15 2.128279 1_555
Li1 O12 2.136233 1_555
Li1 O4 2.152874 1_555
Li1 O1 2.178428 1_555
Li1 O9 2.456052 1_555
Li2 O7 2.035581 1_655
Li2 O4 2.124399 1_555
Li2 O2 2.146872 1_555
Li2 O15 2.153285 1_555
Li2 O8 2.167091 1_555
Li2 O10 2.320264 1_655
Li3 O9 2.096312 1_555
Li3 O14 2.106026 1_554
Li3 O11 2.142361 1_654
Li3 O3 2.162119 1_555
Li3 O6 2.217430 1_655
Li3 O5 2.236558 1_565
Li4 O9 2.035581 1_455
Li4 O10 2.124399 1_555
Li4 O12 2.146872 1_555
Li4 O1 2.153285 1_555
Li4 O6 2.167091 1_555
Li4 O4 2.320264 1_455
Li5 O7 2.096312 1_555
Li5 O0 2.106026 1_556
Li5 O5 2.142361 1_456
Li5 O13 2.162119 1_555
Li5 O8 2.217430 1_455
Li5 O11 2.236558 1_545
Li6 O0 2.042734 1_565
Li6 O3 2.123720 1_555
Li6 O12 2.143071 1_555
Li6 O11 2.171753 1_554
Li6 O6 2.216652 1_555
Li6 O14 2.278978 1_554
Li7 O13 2.113580 1_555
Li7 O1 2.128279 1_555
Li7 O2 2.136233 1_555
Li7 O10 2.152874 1_555
Li7 O15 2.178428 1_555
Li7 O7 2.456052 1_555
Li8 O0 2.070630 1_555
Li8 O14 2.070630 1_554
Li8 O9 2.074246 1_555
Li8 O7 2.074246 1_554
Li8 O2 2.233628 1_554
Li8 O12 2.233628 1_555
Mn0 O0 1.918113 1_555
Mn0 O9 1.942579 1_555
Mn0 O10 1.995919 1_655
Mn0 O3 1.997637 1_545
Mn0 O5 2.257722 1_555
Mn0 O15 2.271346 1_555
Mn1 O11 1.936338 1_554
Mn1 O5 1.936338 1_455
Mn1 O12 1.951405 1_555
Mn1 O2 1.951405 1_454
Mn1 O9 1.978825 1_455
Mn1 O7 1.978825 1_554
Mn2 O2 1.932568 1_555
Mn2 O11 1.963281 1_655
Mn2 O1 1.963423 1_555
Mn2 O8 1.975464 1_565
Mn2 O14 2.053344 1_555
Mn2 O4 2.230529 1_555
Mn3 O13 1.956808 1_555
Mn3 O3 1.956808 1_445
Mn3 O10 1.962507 1_555
Mn3 O4 1.962507 1_445
Mn3 O8 2.235524 1_455
Mn3 O6 2.235524 1_545
Mn4 O14 1.918113 1_555
Mn4 O7 1.942579 1_555
Mn4 O4 1.995919 1_455
Mn4 O13 1.997637 1_565
Mn4 O11 2.257722 1_555
Mn4 O1 2.271346 1_555
Mn5 O12 1.932568 1_555
Mn5 O5 1.963281 1_455
Mn5 O15 1.963423 1_555
Mn5 O6 1.975464 1_545
Mn5 O0 2.053344 1_555
Mn5 O10 2.230529 1_555
Mn6 O8 1.948296 1_555
Mn6 O6 1.948296 1_545
Mn6 O15 1.984548 1_555
Mn6 O1 1.984548 1_545
Mn6 O13 2.266027 1_555
Mn6 O3 2.266027 1_545
