# generated using pymatgen
data_Sr2MgV2(Si2O7)2
_symmetry_space_group_name_H-M   'P 1'
_cell_length_a   5.50539162
_cell_length_b   7.16397200
_cell_length_c   7.85869060
_cell_angle_alpha   90.00000000
_cell_angle_beta   109.39975831
_cell_angle_gamma   90.00000000
_symmetry_Int_Tables_number   1
_chemical_formula_structural   Sr2MgV2(Si2O7)2
_chemical_formula_sum   'Sr2 Mg1 V2 Si4 O14'
_cell_volume   292.35273270
_cell_formula_units_Z   1
loop_
 _symmetry_equiv_pos_site_id
 _symmetry_equiv_pos_as_xyz
  1  'x, y, z'
loop_
 _atom_site_type_symbol
 _atom_site_label
 _atom_site_symmetry_multiplicity
 _atom_site_fract_x
 _atom_site_fract_y
 _atom_site_fract_z
 _atom_site_occupancy
  Sr  Sr0  1  0.20438400  0.75000000  0.42037700  1
  Sr  Sr1  1  0.81287500  0.25000000  0.60945100  1
  Mg  Mg0  1  0.20549900  0.25000000  0.36585300  1
  V  V0  1  0.89863000  0.75000000  0.80527900  1
  V  V1  1  0.84439800  0.25000000  0.03968200  1
  Si  Si0  1  0.38998100  0.46924400  0.79835000  1
  Si  Si1  1  0.61841300  0.52102500  0.23677200  1
  Si  Si2  1  0.61841300  0.97897500  0.23677200  1
  Si  Si3  1  0.38998100  0.03075600  0.79835000  1
  O  O0  1  0.63904600  0.75000000  0.25004900  1
  O  O1  1  0.36180400  0.25000000  0.69998600  1
  O  O2  1  0.52235600  0.45386200  0.02123700  1
  O  O3  1  0.52235600  0.04613800  0.02123700  1
  O  O4  1  0.60925900  0.56331500  0.72695000  1
  O  O5  1  0.90885400  0.43787700  0.32314700  1
  O  O6  1  0.43400500  0.04472700  0.34703300  1
  O  O7  1  0.11090200  0.93293100  0.71188700  1
  O  O8  1  0.06229900  0.25000000  0.91782700  1
  O  O9  1  0.02102000  0.75000000  0.02741400  1
  O  O10  1  0.90885400  0.06212200  0.32314700  1
  O  O11  1  0.60925900  0.93668500  0.72695000  1
  O  O12  1  0.11090200  0.56706900  0.71188700  1
  O  O13  1  0.43400500  0.45527300  0.34703300  1
loop_
_geom_bond_atom_site_label_1
_geom_bond_atom_site_label_2
_geom_bond_distance
_geom_bond_site_symmetry_2
Mg0 O13 1.972474 1_555
Mg0 O6 1.972474 1_555
Mg0 O5 2.056030 1_455
Mg0 O10 2.056035 1_455
Mg0 O1 2.476790 1_555
O0 Si2 1.645215 1_555
O0 Si1 1.645215 1_555
O0 Sr0 2.951472 1_655
O0 Sr0 3.105801 1_555
O1 Si0 1.734623 1_555
O1 Si3 1.734623 1_555
O1 Sr1 2.801223 1_555
O1 Sr1 2.865437 1_455
O2 Si0 1.662332 1_554
O2 Si1 1.668877 1_555
O2 V1 2.264210 1_555
O3 Si3 1.662332 1_554
O3 Si2 1.668877 1_545
O3 V1 2.264210 1_555
O4 Si0 1.635961 1_555
O4 V0 2.013475 1_555
O4 Sr1 2.799112 1_555
O4 Sr0 2.999016 1_555
O5 Si1 1.628288 1_555
O5 V1 2.524844 1_555
O5 Sr0 2.721215 1_655
O5 Sr1 2.818326 1_555
O6 Si2 1.608674 1_545
O6 Sr0 2.621532 1_545
O6 Sr1 2.812226 1_555
O7 Si3 1.618627 1_565
O7 V0 2.047344 1_455
O7 Sr1 2.760846 1_465
O7 Sr0 2.830850 1_555
O8 V1 1.766156 1_456
O8 Sr1 2.355404 1_455
O9 V0 1.649256 1_454
O9 Sr0 2.912886 1_555
O10 Si2 1.628285 1_545
O10 V1 2.524848 1_555
O10 Sr0 2.721209 1_645
O10 Sr1 2.818329 1_555
O11 Si3 1.635961 1_565
O11 V0 2.013475 1_555
O11 Sr1 2.799112 1_565
O11 Sr0 2.999016 1_555
O12 Si0 1.618627 1_555
O12 V0 2.047344 1_455
O12 Sr1 2.760846 1_455
O12 Sr0 2.830850 1_555
O13 Si1 1.608674 1_555
O13 Sr0 2.621532 1_555
O13 Sr1 2.812226 1_555
