# generated using pymatgen
data_Cr3NiB6
_symmetry_space_group_name_H-M   'P 1'
_cell_length_a   9.03528071
_cell_length_b   9.03528071
_cell_length_c   2.95664000
_cell_angle_alpha   90.00000000
_cell_angle_beta   90.00000000
_cell_angle_gamma   160.95569212
_symmetry_Int_Tables_number   1
_chemical_formula_structural   Cr3NiB6
_chemical_formula_sum   'Cr3 Ni1 B6'
_cell_volume   78.75856878
_cell_formula_units_Z   1
loop_
 _symmetry_equiv_pos_site_id
 _symmetry_equiv_pos_as_xyz
  1  'x, y, z'
loop_
 _atom_site_type_symbol
 _atom_site_label
 _atom_site_symmetry_multiplicity
 _atom_site_fract_x
 _atom_site_fract_y
 _atom_site_fract_z
 _atom_site_occupancy
  Cr  Cr0  1  0.79647100  0.20352900  0.50000000  1
  Cr  Cr1  1  0.92916800  0.07083200  0.00000000  1
  Cr  Cr2  1  0.07199000  0.92801000  0.50000000  1
  Ni  Ni0  1  0.20219000  0.79781000  0.00000000  1
  B  B0  1  0.52459300  0.47540700  0.00000000  1
  B  B1  1  0.47625900  0.52374100  0.50000000  1
  B  B2  1  0.32497100  0.67502900  0.00000000  1
  B  B3  1  0.67427700  0.32572300  0.50000000  1
  B  B4  1  0.62097500  0.37902500  0.00000000  1
  B  B5  1  0.37910700  0.62089300  0.50000000  1
loop_
_geom_bond_atom_site_label_1
_geom_bond_atom_site_label_2
_geom_bond_distance
_geom_bond_site_symmetry_2
B0 B1 1.710970 1_554
B0 B1 1.710970 1_555
B0 B4 1.717680 1_555
B0 Cr1 2.264121 1_565
B0 Cr1 2.264121 1_455
B0 Cr2 2.265623 1_544
B0 Cr2 2.265623 1_545
B0 Cr2 2.265623 1_654
B0 Cr2 2.265623 1_655
B1 B5 1.731402 1_555
B1 Cr1 2.263596 1_565
B1 Cr1 2.263596 1_566
B1 Cr1 2.263596 1_455
B1 Cr1 2.263596 1_456
B1 Cr2 2.268220 1_545
B1 Cr2 2.268220 1_655
B2 B5 1.765290 1_555
B2 B5 1.765290 1_554
B2 Cr0 2.162759 1_565
B2 Cr0 2.162759 1_564
B2 Cr0 2.162759 1_455
B2 Cr0 2.162759 1_454
B2 Ni0 2.188151 1_555
B2 Cr1 2.383779 1_565
B2 Cr1 2.383779 1_455
B3 B4 1.757211 1_555
B3 B4 1.757211 1_556
B3 Ni0 2.160326 1_546
B3 Ni0 2.160326 1_656
B3 Ni0 2.160326 1_545
B3 Ni0 2.160326 1_655
B3 Cr0 2.177690 1_555
B3 Cr2 2.357359 1_655
B3 Cr2 2.357359 1_545
B4 Ni0 2.080631 1_545
B4 Ni0 2.080631 1_655
B4 Cr2 2.276326 1_545
B4 Cr2 2.276326 1_544
B4 Cr2 2.276326 1_655
B4 Cr2 2.276326 1_654
B5 Cr0 2.098327 1_455
B5 Cr0 2.098327 1_565
B5 Cr1 2.283749 1_455
B5 Cr1 2.283749 1_456
B5 Cr1 2.283749 1_565
B5 Cr1 2.283749 1_566
