# generated using pymatgen
data_NaBe3Al2Si6O19
_symmetry_space_group_name_H-M   'P 1'
_cell_length_a   9.32029008
_cell_length_b   9.32029008
_cell_length_c   9.25392000
_cell_angle_alpha   90.00000000
_cell_angle_beta   90.00000000
_cell_angle_gamma   120.00000055
_symmetry_Int_Tables_number   1
_chemical_formula_structural   NaBe3Al2Si6O19
_chemical_formula_sum   'Na2 Be6 Al4 Si12 O38'
_cell_volume   696.16987830
_cell_formula_units_Z   2
loop_
 _symmetry_equiv_pos_site_id
 _symmetry_equiv_pos_as_xyz
  1  'x, y, z'
loop_
 _atom_site_type_symbol
 _atom_site_label
 _atom_site_symmetry_multiplicity
 _atom_site_fract_x
 _atom_site_fract_y
 _atom_site_fract_z
 _atom_site_occupancy
  Na  Na0  1  0.00000000  0.00000000  0.00000000  1
  Na  Na1  1  0.00000000  0.00000000  0.50000000  1
  Be  Be0  1  0.50000000  0.00000000  0.25000000  1
  Be  Be1  1  0.50000000  0.00000000  0.75000000  1
  Be  Be2  1  0.00000000  0.50000000  0.25000000  1
  Be  Be3  1  0.00000000  0.50000000  0.75000000  1
  Be  Be4  1  0.50000000  0.50000000  0.25000000  1
  Be  Be5  1  0.50000000  0.50000000  0.75000000  1
  Al  Al0  1  0.33333300  0.66666700  0.25000000  1
  Al  Al1  1  0.66666700  0.33333300  0.75000000  1
  Al  Al2  1  0.66666700  0.33333300  0.25000000  1
  Al  Al3  1  0.33333300  0.66666700  0.75000000  1
  Si  Si0  1  0.11505300  0.38749800  0.00000000  1
  Si  Si1  1  0.88494700  0.61250200  0.00000000  1
  Si  Si2  1  0.61250200  0.72755500  0.00000000  1
  Si  Si3  1  0.38749800  0.11505300  0.50000000  1
  Si  Si4  1  0.38749800  0.27244500  0.00000000  1
  Si  Si5  1  0.61250200  0.88494700  0.50000000  1
  Si  Si6  1  0.27244500  0.88494700  0.00000000  1
  Si  Si7  1  0.72755500  0.61250200  0.50000000  1
  Si  Si8  1  0.72755500  0.11505300  0.00000000  1
  Si  Si9  1  0.27244500  0.38749800  0.50000000  1
  Si  Si10  1  0.88494700  0.27244500  0.50000000  1
  Si  Si11  1  0.11505300  0.72755500  0.50000000  1
  O  O0  1  0.30759900  0.07351900  0.00000000  1
  O  O1  1  0.69240100  0.92648100  0.00000000  1
  O  O2  1  0.92648100  0.23408000  0.00000000  1
  O  O3  1  0.07351900  0.30759900  0.50000000  1
  O  O4  1  0.07351900  0.76592000  0.00000000  1
  O  O5  1  0.92648100  0.69240100  0.50000000  1
  O  O6  1  0.76592000  0.69240100  0.00000000  1
  O  O7  1  0.23408000  0.92648100  0.50000000  1
  O  O8  1  0.23408000  0.30759900  0.00000000  1
  O  O9  1  0.76592000  0.07351900  0.50000000  1
  O  O10  1  0.69240100  0.76592000  0.50000000  1
  O  O11  1  0.30759900  0.23408000  0.50000000  1
  O  O12  1  0.14469200  0.49847600  0.14574800  1
  O  O13  1  0.85530800  0.50152400  0.85425200  1
  O  O14  1  0.50152400  0.64621600  0.14574800  1
  O  O15  1  0.85530800  0.50152400  0.14574800  1
  O  O16  1  0.49847600  0.14469200  0.35425200  1
  O  O17  1  0.49847600  0.35378400  0.85425200  1
  O  O18  1  0.14469200  0.49847600  0.85425200  1
  O  O19  1  0.50152400  0.85530800  0.64574800  1
  O  O20  1  0.35378400  0.85530800  0.14574800  1
  O  O21  1  0.49847600  0.35378400  0.14574800  1
  O  O22  1  0.64621600  0.50152400  0.35425200  1
  O  O23  1  0.64621600  0.14469200  0.85425200  1
  O  O24  1  0.50152400  0.64621600  0.85425200  1
  O  O25  1  0.35378400  0.49847600  0.64574800  1
  O  O26  1  0.50152400  0.85530800  0.35425200  1
  O  O27  1  0.49847600  0.14469200  0.64574800  1
  O  O28  1  0.64621600  0.14469200  0.14574800  1
  O  O29  1  0.35378400  0.49847600  0.35425200  1
  O  O30  1  0.35378400  0.85530800  0.85425200  1
  O  O31  1  0.64621600  0.50152400  0.64574800  1
  O  O32  1  0.85530800  0.35378400  0.35425200  1
  O  O33  1  0.14469200  0.64621600  0.64574800  1
  O  O34  1  0.14469200  0.64621600  0.35425200  1
  O  O35  1  0.85530800  0.35378400  0.64574800  1
  O  O36  1  0.00000000  0.00000000  0.25000000  1
  O  O37  1  0.00000000  0.00000000  0.75000000  1
loop_
_geom_bond_atom_site_label_1
_geom_bond_atom_site_label_2
_geom_bond_distance
_geom_bond_site_symmetry_2
Na0 O37 2.313480 1_554
Na0 O36 2.313480 1_555
Na0 O6 2.593115 1_445
Na0 O8 2.593115 1_555
Na0 O1 2.593115 1_445
Na0 O0 2.593115 1_555
Na0 O4 2.593115 1_545
Na0 O2 2.593115 1_455
Na1 O37 2.313480 1_555
Na1 O36 2.313480 1_555
Na1 O10 2.593115 1_445
Na1 O11 2.593115 1_555
Na1 O5 2.593115 1_445
Na1 O3 2.593115 1_555
Na1 O9 2.593115 1_455
Na1 O7 2.593115 1_545
Be0 O28 1.663948 1_555
Be0 O20 1.663948 1_545
Be0 O16 1.663948 1_555
Be0 O26 1.663948 1_545
Be1 O30 1.663948 1_545
Be1 O23 1.663948 1_555
Be1 O27 1.663948 1_555
Be1 O19 1.663948 1_545
Be2 O34 1.663948 1_555
Be2 O32 1.663948 1_455
Be2 O12 1.663948 1_555
Be2 O15 1.663948 1_455
Be3 O33 1.663948 1_555
Be3 O35 1.663948 1_455
Be3 O18 1.663948 1_555
Be3 O13 1.663948 1_455
Be4 O29 1.663948 1_555
Be4 O21 1.663948 1_555
Be4 O22 1.663948 1_555
Be4 O14 1.663948 1_555
Be5 O25 1.663948 1_555
Be5 O17 1.663948 1_555
Be5 O24 1.663948 1_555
Be5 O31 1.663948 1_555
Al0 O20 1.929548 1_555
Al0 O34 1.929548 1_555
Al0 O26 1.929551 1_555
Al0 O12 1.929551 1_555
Al0 O14 1.929556 1_555
Al0 O29 1.929556 1_555
Al1 O35 1.929548 1_555
Al1 O23 1.929548 1_555
Al1 O13 1.929551 1_555
Al1 O27 1.929551 1_555
Al1 O31 1.929556 1_555
Al1 O17 1.929556 1_555
Al2 O32 1.929548 1_555
Al2 O28 1.929548 1_555
Al2 O15 1.929551 1_555
Al2 O16 1.929551 1_555
Al2 O22 1.929556 1_555
Al2 O21 1.929556 1_555
Al3 O30 1.929548 1_555
Al3 O33 1.929548 1_555
Al3 O19 1.929551 1_555
Al3 O18 1.929551 1_555
Al3 O24 1.929556 1_555
Al3 O25 1.929556 1_555
O0 Si4 1.615973 1_555
O0 Si6 1.618786 1_545
O1 Si2 1.615973 1_555
O1 Si8 1.618786 1_565
O2 Si8 1.615973 1_555
O2 Si0 1.618786 1_655
O3 Si9 1.615973 1_555
O3 Si10 1.618786 1_455
O4 Si6 1.615973 1_555
O4 Si1 1.618786 1_455
O5 Si7 1.615973 1_555
O5 Si11 1.618786 1_655
O6 Si1 1.615973 1_555
O6 Si2 1.618786 1_555
O7 Si11 1.615973 1_555
O7 Si3 1.618786 1_565
O8 Si0 1.615973 1_555
O8 Si4 1.618786 1_555
O9 Si10 1.615973 1_555
O9 Si5 1.618786 1_545
O10 Si5 1.615973 1_555
O10 Si7 1.618786 1_555
O11 Si3 1.615973 1_555
O11 Si9 1.618786 1_555
O12 Si0 1.636934 1_555
O13 Si1 1.636934 1_556
O14 Si2 1.636934 1_555
O15 Si1 1.636934 1_555
O16 Si3 1.636934 1_555
O17 Si4 1.636934 1_556
O18 Si0 1.636934 1_556
O19 Si5 1.636934 1_555
O20 Si6 1.636934 1_555
O21 Si4 1.636934 1_555
O22 Si7 1.636934 1_555
O23 Si8 1.636934 1_556
O24 Si2 1.636934 1_556
O25 Si9 1.636934 1_555
O26 Si5 1.636934 1_555
O27 Si3 1.636934 1_555
O28 Si8 1.636934 1_555
O29 Si9 1.636934 1_555
O30 Si6 1.636934 1_556
O31 Si7 1.636934 1_555
O32 Si10 1.636934 1_555
O33 Si11 1.636934 1_555
O34 Si11 1.636934 1_555
O35 Si10 1.636934 1_555
