# generated using pymatgen
data_Ca3(AsO9)2
_symmetry_space_group_name_H-M   'P 1'
_cell_length_a   5.95747700
_cell_length_b   10.33190182
_cell_length_c   12.05065637
_cell_angle_alpha   107.60543179
_cell_angle_beta   96.45289998
_cell_angle_gamma   101.98825790
_symmetry_Int_Tables_number   1
_chemical_formula_structural   Ca3(AsO9)2
_chemical_formula_sum   'Ca6 As4 O36'
_cell_volume   679.26064425
_cell_formula_units_Z   2
loop_
 _symmetry_equiv_pos_site_id
 _symmetry_equiv_pos_as_xyz
  1  'x, y, z'
loop_
 _atom_site_type_symbol
 _atom_site_label
 _atom_site_symmetry_multiplicity
 _atom_site_fract_x
 _atom_site_fract_y
 _atom_site_fract_z
 _atom_site_occupancy
  Ca  Ca0  1  0.56681400  0.78010100  0.42495400  1
  Ca  Ca1  1  0.43318600  0.21989900  0.57504600  1
  Ca  Ca2  1  0.16685100  0.86137800  0.66828200  1
  Ca  Ca3  1  0.83314900  0.13862200  0.33171800  1
  Ca  Ca4  1  0.37681500  0.80381100  0.08588800  1
  Ca  Ca5  1  0.62318500  0.19618900  0.91411200  1
  As  As0  1  0.64422100  0.71091100  0.75572300  1
  As  As1  1  0.35577900  0.28908900  0.24427700  1
  As  As2  1  0.15392400  0.90983100  0.36741800  1
  As  As3  1  0.84607600  0.09016900  0.63258200  1
  O  O0  1  0.93460900  0.75145300  0.77251800  1
  O  O1  1  0.06539100  0.24854700  0.22748200  1
  O  O2  1  0.54230900  0.82982700  0.88456200  1
  O  O3  1  0.45769100  0.17017300  0.11543800  1
  O  O4  1  0.45016600  0.68500600  0.63564200  1
  O  O5  1  0.54983400  0.31499400  0.36435800  1
  O  O6  1  0.58793000  0.56428700  0.82951500  1
  O  O7  1  0.41207000  0.43571300  0.17048500  1
  O  O8  1  0.18554900  0.08552000  0.39199000  1
  O  O9  1  0.81445100  0.91448000  0.60801000  1
  O  O10  1  0.27751400  0.89594200  0.49985500  1
  O  O11  1  0.72248600  0.10405800  0.50014500  1
  O  O12  1  0.33120000  0.83961600  0.27437700  1
  O  O13  1  0.66880000  0.16038400  0.72562300  1
  O  O14  1  0.86367900  0.82454100  0.32205400  1
  O  O15  1  0.13632100  0.17545900  0.67794600  1
  O  O16  1  0.41550700  0.56330200  0.23595100  1
  O  O17  1  0.58449300  0.43669800  0.76404900  1
  O  O18  1  0.15799300  0.61172700  0.44148200  1
  O  O19  1  0.84200700  0.38827300  0.55851800  1
  O  O20  1  0.81332200  0.63655400  0.47904500  1
  O  O21  1  0.18667800  0.36344600  0.52095500  1
  O  O22  1  0.52809500  0.94691600  0.84843500  1
  O  O23  1  0.47190500  0.05308400  0.15156500  1
  O  O24  1  0.23737400  0.06855800  0.83832900  1
  O  O25  1  0.76262600  0.93144200  0.16167100  1
  O  O26  1  0.98642100  0.94816000  0.01575000  1
  O  O27  1  0.01357900  0.05184000  0.98425000  1
  O  O28  1  0.27157300  0.54001300  0.96870400  1
  O  O29  1  0.72842700  0.45998700  0.03129600  1
  O  O30  1  0.96188600  0.65932500  0.03236100  1
  O  O31  1  0.03811400  0.34067500  0.96763900  1
  O  O32  1  0.85717700  0.58644700  0.09457000  1
  O  O33  1  0.14282300  0.41355300  0.90543000  1
  O  O34  1  0.05875000  0.40431800  0.60323400  1
  O  O35  1  0.94125000  0.59568200  0.39676600  1
loop_
_geom_bond_atom_site_label_1
_geom_bond_atom_site_label_2
_geom_bond_distance
_geom_bond_site_symmetry_2
Ca0 O14 2.318682 1_555
Ca0 O9 2.352701 1_555
Ca0 O10 2.402231 1_555
Ca0 O20 2.460822 1_555
Ca0 O12 2.470221 1_555
Ca0 O16 2.575075 1_555
Ca0 O18 2.748880 1_555
Ca1 O15 2.318682 1_555
Ca1 O8 2.352701 1_555
Ca1 O11 2.402231 1_555
Ca1 O21 2.460822 1_555
Ca1 O13 2.470221 1_555
Ca1 O17 2.575075 1_555
Ca1 O19 2.748880 1_555
Ca2 O10 2.307182 1_555
Ca2 O0 2.320093 1_455
Ca2 O9 2.369156 1_455
Ca2 O24 2.395228 1_565
Ca2 O22 2.669226 1_555
Ca2 O4 2.705088 1_555
Ca2 O20 2.952221 1_455
Ca3 O11 2.307182 1_555
Ca3 O1 2.320093 1_655
Ca3 O8 2.369156 1_655
Ca3 O25 2.395228 1_545
Ca3 O23 2.669226 1_555
Ca3 O5 2.705088 1_555
Ca3 O21 2.952221 1_655
Ca4 O12 2.245493 1_555
Ca4 O25 2.323019 1_555
Ca4 O23 2.374955 1_565
Ca4 O30 2.506223 1_455
Ca4 O28 2.564886 1_554
Ca4 O2 2.784305 1_554
Ca5 O13 2.245493 1_555
Ca5 O24 2.323019 1_555
Ca5 O22 2.374955 1_545
Ca5 O31 2.506223 1_655
Ca5 O29 2.564886 1_556
Ca5 O3 2.784305 1_556
As0 O4 1.662308 1_555
As0 O0 1.666803 1_555
As0 O2 1.912207 1_555
As0 O6 1.966985 1_555
As1 O5 1.662308 1_555
As1 O1 1.666803 1_555
As1 O3 1.912207 1_555
As1 O7 1.966985 1_555
As2 O14 1.711255 1_455
As2 O8 1.714170 1_565
As2 O12 1.729502 1_555
As2 O10 1.740137 1_555
As3 O15 1.711255 1_655
As3 O9 1.714170 1_545
As3 O13 1.729502 1_555
As3 O11 1.740137 1_555
O2 O22 1.418826 1_555
O16 O7 1.310192 1_555
O17 O6 1.310192 1_555
O18 O35 1.298382 1_455
O19 O34 1.298382 1_655
O20 O35 1.338856 1_555
O21 O34 1.338856 1_555
O23 O3 1.418826 1_555
O26 O27 1.227007 1_664
O28 O33 1.313932 1_555
O29 O32 1.313932 1_555
O30 O32 1.330235 1_555
O31 O33 1.330235 1_555
