# generated using pymatgen
data_HoSbO4
_symmetry_space_group_name_H-M   'P 1'
_cell_length_a   5.32094278
_cell_length_b   7.56686056
_cell_length_c   7.45357105
_cell_angle_alpha   81.15944317
_cell_angle_beta   90.34222130
_cell_angle_gamma   91.93379461
_symmetry_Int_Tables_number   1
_chemical_formula_structural   HoSbO4
_chemical_formula_sum   'Ho4 Sb4 O16'
_cell_volume   296.36764614
_cell_formula_units_Z   4
loop_
 _symmetry_equiv_pos_site_id
 _symmetry_equiv_pos_as_xyz
  1  'x, y, z'
loop_
 _atom_site_type_symbol
 _atom_site_label
 _atom_site_symmetry_multiplicity
 _atom_site_fract_x
 _atom_site_fract_y
 _atom_site_fract_z
 _atom_site_occupancy
  Ho  Ho0  1  0.26449115  0.13298808  0.61301245  1
  Ho  Ho1  1  0.73551046  0.86701106  0.38698816  1
  Ho  Ho2  1  0.21397840  0.15636595  0.10860231  1
  Ho  Ho3  1  0.78602412  0.84363615  0.89139731  1
  Sb  Sb0  1  0.23856826  0.66397862  0.19476759  1
  Sb  Sb1  1  0.76143188  0.33602168  0.80523165  1
  Sb  Sb2  1  0.72438969  0.33609707  0.30796368  1
  Sb  Sb3  1  0.27561007  0.66390296  0.69203581  1
  O  O0  1  0.08789523  0.43485088  0.69055378  1
  O  O1  1  0.91210810  0.56514788  0.30944610  1
  O  O2  1  0.60934348  0.32751847  0.56038379  1
  O  O3  1  0.39065665  0.67248231  0.43961615  1
  O  O4  1  0.87188104  0.33097062  0.06140178  1
  O  O5  1  0.12811826  0.66902813  0.93859812  1
  O  O6  1  0.40146805  0.43209197  0.19481862  1
  O  O7  1  0.59853370  0.56790890  0.80518131  1
  O  O8  1  0.03936256  0.88612946  0.17406430  1
  O  O9  1  0.96063637  0.11387033  0.82593563  1
  O  O10  1  0.50876029  0.11150829  0.32353114  1
  O  O11  1  0.49123645  0.88848967  0.67647103  1
  O  O12  1  0.46865690  0.18501139  0.87901839  1
  O  O13  1  0.53134117  0.81499102  0.12098119  1
  O  O14  1  0.99224274  0.16963591  0.38275062  1
  O  O15  1  0.00775697  0.83036421  0.61724808  1
loop_
_geom_bond_atom_site_label_1
_geom_bond_atom_site_label_2
_geom_bond_distance
_geom_bond_site_symmetry_2
Ho0 O14 2.229823 1_455
Ho0 O11 2.230926 1_545
Ho0 O9 2.257862 1_455
Ho0 O2 2.310075 1_555
Ho0 O12 2.334848 1_555
Ho0 O10 2.554767 1_555
Ho0 O15 2.622597 1_545
Ho0 O0 2.644138 1_555
Ho1 O15 2.229805 1_655
Ho1 O10 2.230933 1_565
Ho1 O8 2.257855 1_655
Ho1 O3 2.310073 1_555
Ho1 O13 2.334856 1_555
Ho1 O11 2.554789 1_555
Ho1 O14 2.622596 1_565
Ho1 O1 2.644146 1_555
Ho2 O12 2.169217 1_554
Ho2 O8 2.203006 1_545
Ho2 O10 2.231726 1_555
Ho2 O4 2.279161 1_455
Ho2 O14 2.382728 1_455
Ho2 O6 2.454621 1_555
Ho2 O9 2.550400 1_454
Ho3 O13 2.169232 1_556
Ho3 O9 2.202983 1_565
Ho3 O11 2.231733 1_555
Ho3 O5 2.279162 1_655
Ho3 O15 2.382729 1_655
Ho3 O7 2.454630 1_555
Ho3 O8 2.550387 1_656
O0 Sb3 1.972481 1_555
O0 Sb1 2.010209 1_455
O1 Sb2 1.972482 1_555
O1 Sb0 2.010200 1_655
O2 Sb2 1.972883 1_555
O2 Sb1 2.001140 1_555
O3 Sb3 1.972880 1_555
O3 Sb0 2.001145 1_555
O4 Sb1 1.989539 1_554
O4 Sb2 2.008977 1_555
O5 Sb0 1.989537 1_556
O5 Sb3 2.008979 1_555
O6 Sb0 1.983067 1_555
O6 Sb2 2.017387 1_555
O7 Sb1 1.983068 1_555
O7 Sb3 2.017395 1_555
O8 Sb0 2.002900 1_555
O9 Sb1 2.002899 1_555
O10 Sb2 2.006822 1_555
O11 Sb3 2.006802 1_555
O12 Sb1 1.931831 1_555
O13 Sb0 1.931830 1_555
O14 Sb2 1.955614 1_555
O15 Sb3 1.955616 1_555
