# generated using pymatgen
data_Sm2CrFe16
_symmetry_space_group_name_H-M   'P 1'
_cell_length_a   6.43933384
_cell_length_b   6.43933384
_cell_length_c   6.43933419
_cell_angle_alpha   82.60181875
_cell_angle_beta   82.60181875
_cell_angle_gamma   82.60182224
_symmetry_Int_Tables_number   1
_chemical_formula_structural   Sm2CrFe16
_chemical_formula_sum   'Sm2 Cr1 Fe16'
_cell_volume   260.86599820
_cell_formula_units_Z   1
loop_
 _symmetry_equiv_pos_site_id
 _symmetry_equiv_pos_as_xyz
  1  'x, y, z'
loop_
 _atom_site_type_symbol
 _atom_site_label
 _atom_site_symmetry_multiplicity
 _atom_site_fract_x
 _atom_site_fract_y
 _atom_site_fract_z
 _atom_site_occupancy
  Sm  Sm0  1  0.65831400  0.65831400  0.65831400  1
  Sm  Sm1  1  0.34587800  0.34587800  0.34587800  1
  Cr  Cr0  1  0.09160300  0.09160300  0.09160300  1
  Fe  Fe0  1  0.29444400  0.70411000  0.99964800  1
  Fe  Fe1  1  0.70411000  0.99964800  0.29444400  1
  Fe  Fe2  1  0.99964800  0.29444400  0.70411000  1
  Fe  Fe3  1  0.29444400  0.99964800  0.70411000  1
  Fe  Fe4  1  0.99964800  0.70411000  0.29444400  1
  Fe  Fe5  1  0.70411000  0.29444400  0.99964800  1
  Fe  Fe6  1  0.00112200  0.00112200  0.49840500  1
  Fe  Fe7  1  0.00112200  0.49840500  0.00112200  1
  Fe  Fe8  1  0.49840500  0.00112200  0.00112200  1
  Fe  Fe9  1  0.84445100  0.34074900  0.34074900  1
  Fe  Fe10  1  0.34074900  0.34074900  0.84445100  1
  Fe  Fe11  1  0.34074900  0.84445100  0.34074900  1
  Fe  Fe12  1  0.15597600  0.65897200  0.65897200  1
  Fe  Fe13  1  0.65897200  0.65897200  0.15597600  1
  Fe  Fe14  1  0.65897200  0.15597600  0.65897200  1
  Fe  Fe15  1  0.90728200  0.90728200  0.90728200  1
loop_
_geom_bond_atom_site_label_1
_geom_bond_atom_site_label_2
_geom_bond_distance
_geom_bond_site_symmetry_2
Cr0 Fe15 2.305341 1_444
Cr0 Fe8 2.615763 1_555
Cr0 Fe7 2.615763 1_555
Cr0 Fe6 2.615763 1_555
Cr0 Fe10 2.651111 1_554
Cr0 Fe11 2.651112 1_545
Cr0 Fe9 2.651112 1_455
Cr0 Fe1 2.761282 1_445
Cr0 Fe4 2.761282 1_445
Cr0 Fe0 2.761282 1_544
Cr0 Fe5 2.761282 1_454
Cr0 Fe2 2.761282 1_454
Cr0 Fe3 2.761282 1_544
Cr0 Sm1 3.180271 1_555
Fe0 Fe7 2.441041 1_556
Fe0 Fe8 2.457172 1_566
Fe0 Fe4 2.505794 1_456
Fe0 Fe3 2.512101 1_555
Fe0 Fe12 2.535078 1_555
Fe0 Fe11 2.545442 1_556
Fe0 Fe10 2.628325 1_555
Fe0 Fe13 2.639164 1_556
Fe0 Fe15 2.760845 1_455
Fe0 Sm1 3.011726 1_556
Fe0 Sm0 3.011767 1_555
Fe1 Fe8 2.441041 1_565
Fe1 Fe6 2.457172 1_665
Fe1 Fe5 2.505794 1_564
Fe1 Fe4 2.512101 1_555
Fe1 Fe13 2.535078 1_555
Fe1 Fe9 2.545441 1_565
Fe1 Fe11 2.628325 1_555
Fe1 Fe14 2.639164 1_565
Fe1 Fe15 2.760845 1_554
Fe1 Sm1 3.011726 1_565
Fe1 Sm0 3.011767 1_555
Fe2 Fe6 2.441041 1_655
Fe2 Fe7 2.457172 1_656
Fe2 Fe3 2.505794 1_645
Fe2 Fe5 2.512101 1_555
Fe2 Fe9 2.628325 1_555
Fe2 Sm1 3.011726 1_655
Fe2 Sm0 3.011767 1_555
Fe3 Fe6 2.441041 1_565
Fe3 Fe8 2.457172 1_566
Fe3 Sm1 3.011726 1_565
Fe3 Sm0 3.011767 1_555
Fe4 Fe7 2.441041 1_655
Fe4 Fe6 2.457172 1_665
Fe4 Fe9 2.628325 1_555
Fe4 Sm1 3.011726 1_655
Fe4 Sm0 3.011767 1_555
Fe5 Fe8 2.441041 1_556
Fe5 Fe7 2.457172 1_656
Fe5 Fe9 2.545442 1_556
Fe5 Sm1 3.011726 1_556
Fe5 Sm0 3.011767 1_555
Fe6 Fe9 2.440300 1_455
Fe6 Sm0 3.300026 1_445
Fe6 Sm1 3.311739 1_555
Fe7 Fe9 2.440300 1_455
Fe7 Sm0 3.300026 1_454
Fe7 Sm1 3.311739 1_555
Fe8 Sm0 3.300026 1_544
Fe8 Sm1 3.311739 1_555
Fe9 Sm0 3.100710 1_555
Fe9 Sm1 3.202346 1_555
Fe9 Sm1 3.237730 1_655
Fe10 Fe8 2.440300 1_556
Fe10 Fe7 2.440300 1_556
Fe10 Fe12 2.479709 1_555
Fe10 Fe14 2.479709 1_555
Fe10 Fe2 2.545442 1_455
Fe10 Fe3 2.545442 1_545
Fe10 Fe5 2.628325 1_555
Fe10 Sm0 3.100710 1_555
Fe10 Sm1 3.202346 1_555
Fe10 Sm1 3.237731 1_556
Fe11 Fe8 2.440300 1_565
Fe11 Fe6 2.440300 1_565
Fe11 Fe12 2.479709 1_555
Fe11 Fe13 2.479709 1_555
Fe11 Fe4 2.545441 1_455
Fe11 Fe3 2.628325 1_555
Fe11 Sm0 3.100710 1_555
Fe11 Sm1 3.202346 1_555
Fe11 Sm1 3.237730 1_565
Fe12 Fe7 2.455732 1_556
Fe12 Fe6 2.455732 1_565
Fe12 Fe3 2.535078 1_555
Fe12 Fe2 2.639164 1_455
Fe12 Fe4 2.639164 1_455
Fe12 Fe15 2.649038 1_455
Fe12 Sm1 3.066230 1_555
Fe12 Sm0 3.205709 1_455
Fe12 Sm0 3.233637 1_555
Fe13 Fe8 2.455732 1_565
Fe13 Fe7 2.455732 1_655
Fe13 Fe9 2.479709 1_555
Fe13 Fe4 2.535078 1_555
Fe13 Fe5 2.639164 1_554
Fe13 Fe15 2.649038 1_554
Fe13 Sm1 3.066229 1_555
Fe13 Sm0 3.205709 1_554
Fe13 Sm0 3.233637 1_555
Fe14 Fe8 2.455732 1_556
Fe14 Fe6 2.455732 1_655
Fe14 Fe9 2.479709 1_555
Fe14 Fe2 2.535078 1_555
Fe14 Fe5 2.535078 1_555
Fe14 Fe3 2.639164 1_545
Fe14 Fe15 2.649038 1_545
Fe14 Sm1 3.066230 1_555
Fe14 Sm0 3.205709 1_545
Fe14 Sm0 3.233637 1_555
Fe15 Fe7 2.633820 1_656
Fe15 Fe8 2.633820 1_566
Fe15 Fe6 2.633820 1_665
Fe15 Fe2 2.760845 1_565
Fe15 Fe3 2.760845 1_655
Fe15 Fe5 2.760845 1_565
Fe15 Fe4 2.760845 1_556
Fe15 Sm0 3.113895 1_555
