# generated using pymatgen
data_Y3B3O7
_symmetry_space_group_name_H-M   'P 1'
_cell_length_a   4.02373971
_cell_length_b   4.02373915
_cell_length_c   25.14118200
_cell_angle_alpha   90.00000000
_cell_angle_beta   90.00000000
_cell_angle_gamma   123.87360997
_symmetry_Int_Tables_number   1
_chemical_formula_structural   Y3B3O7
_chemical_formula_sum   'Y6 B6 O14'
_cell_volume   337.95918932
_cell_formula_units_Z   2
loop_
 _symmetry_equiv_pos_site_id
 _symmetry_equiv_pos_as_xyz
  1  'x, y, z'
loop_
 _atom_site_type_symbol
 _atom_site_label
 _atom_site_symmetry_multiplicity
 _atom_site_fract_x
 _atom_site_fract_y
 _atom_site_fract_z
 _atom_site_occupancy
  Y  Y0  1  0.00495900  0.99504100  0.00482400  1
  Y  Y1  1  0.99938100  0.00061900  0.16814800  1
  Y  Y2  1  0.99938100  0.00061900  0.33185200  1
  Y  Y3  1  0.00495900  0.99504100  0.49517600  1
  Y  Y4  1  0.01207000  0.98793000  0.66822500  1
  Y  Y5  1  0.01207000  0.98793000  0.83177500  1
  B  B0  1  0.24387600  0.75612400  0.08629900  1
  B  B1  1  0.24387600  0.75612400  0.41370100  1
  B  B2  1  0.25486000  0.74514000  0.75000000  1
  B  B3  1  0.75777500  0.24222500  0.25000000  1
  B  B4  1  0.64526200  0.35473800  0.58158200  1
  B  B5  1  0.64526200  0.35473800  0.91841800  1
  O  O0  1  0.34544800  0.65455200  0.03885000  1
  O  O1  1  0.33751100  0.66248900  0.36526500  1
  O  O2  1  0.35299400  0.64700600  0.70197800  1
  O  O3  1  0.34544800  0.65455200  0.46115000  1
  O  O4  1  0.33751100  0.66248900  0.13473500  1
  O  O5  1  0.35299400  0.64700600  0.79802200  1
  O  O6  1  0.66133700  0.33866300  0.29802400  1
  O  O7  1  0.68330700  0.31669300  0.63354900  1
  O  O8  1  0.67952600  0.32047400  0.97074300  1
  O  O9  1  0.67952600  0.32047400  0.52925700  1
  O  O10  1  0.66133700  0.33866300  0.20197600  1
  O  O11  1  0.68330700  0.31669300  0.86645100  1
  O  O12  1  0.02801100  0.97198900  0.58170900  1
  O  O13  1  0.02801100  0.97198900  0.91829100  1
loop_
_geom_bond_atom_site_label_1
_geom_bond_atom_site_label_2
_geom_bond_distance
_geom_bond_site_symmetry_2
B0 O4 1.387452 1_555
B0 O0 1.394036 1_555
B0 Y0 2.659774 1_555
B0 Y1 2.692395 1_465
B1 O1 1.387452 1_555
B1 O3 1.394036 1_555
B1 Y3 2.659774 1_555
B1 Y2 2.692395 1_465
B2 O5 1.394019 1_555
B2 O2 1.394019 1_555
B2 Y4 2.683177 1_555
B2 Y5 2.683177 1_555
B3 O6 1.388081 1_555
B3 O10 1.388081 1_555
B3 Y2 2.679269 1_555
B3 Y1 2.679269 1_555
B4 O7 1.334153 1_555
B4 O9 1.337826 1_555
B4 O12 2.067982 1_655
B4 O12 2.067982 1_545
B5 O11 1.334153 1_555
B5 O8 1.337826 1_555
B5 O13 2.067982 1_655
B5 O13 2.067982 1_545
O0 Y0 2.366042 1_545
O0 Y0 2.366043 1_655
O0 Y0 2.564793 1_555
O1 Y2 2.368598 1_455
O1 Y2 2.368599 1_565
O1 Y2 2.543876 1_465
O2 Y4 2.362090 1_545
O2 Y4 2.362091 1_655
O2 Y4 2.565427 1_555
O3 Y3 2.366042 1_545
O3 Y3 2.366043 1_655
O3 Y3 2.564793 1_555
O4 Y1 2.368598 1_455
O4 Y1 2.368599 1_565
O4 Y1 2.543876 1_465
O5 Y5 2.362090 1_545
O5 Y5 2.362091 1_655
O5 Y5 2.565427 1_555
O6 Y2 2.372615 1_565
O6 Y2 2.372615 1_455
O6 Y2 2.546764 1_555
O7 Y4 2.412874 1_655
O7 Y4 2.412875 1_545
O7 Y4 2.492116 1_645
O8 Y0 2.419540 1_656
O8 Y0 2.419541 1_546
O8 Y0 2.464736 1_646
O9 Y3 2.419540 1_655
O9 Y3 2.419541 1_545
O9 Y3 2.464736 1_645
O10 Y1 2.372615 1_565
O10 Y1 2.372615 1_455
O10 Y1 2.546764 1_555
O11 Y5 2.412874 1_655
O11 Y5 2.412875 1_545
O11 Y5 2.492116 1_645
O12 Y4 2.178058 1_555
O12 Y3 2.181692 1_555
O13 Y5 2.178058 1_555
O13 Y0 2.181692 1_556
