# generated using pymatgen
data_Cs2U6Pd4S17
_symmetry_space_group_name_H-M   'P 1'
_cell_length_a   10.38840125
_cell_length_b   10.38840125
_cell_length_c   12.87508904
_cell_angle_alpha   90.00000000
_cell_angle_beta   90.00000000
_cell_angle_gamma   90.00000000
_symmetry_Int_Tables_number   1
_chemical_formula_structural   Cs2U6Pd4S17
_chemical_formula_sum   'Cs4 U12 Pd8 S34'
_cell_volume   1389.46519593
_cell_formula_units_Z   2
loop_
 _symmetry_equiv_pos_site_id
 _symmetry_equiv_pos_as_xyz
  1  'x, y, z'
loop_
 _atom_site_type_symbol
 _atom_site_label
 _atom_site_symmetry_multiplicity
 _atom_site_fract_x
 _atom_site_fract_y
 _atom_site_fract_z
 _atom_site_occupancy
  Cs  Cs0  1  0.50000000  0.50000000  0.21273523  1
  Cs  Cs1  1  -0.00000000  0.00000000  0.71273523  1
  Cs  Cs2  1  0.50000000  0.50000000  0.78726477  1
  Cs  Cs3  1  -0.00000000  0.00000000  0.28726477  1
  U  U0  1  0.61776007  0.73850813  0.50000000  1
  U  U1  1  0.38223993  0.26149187  0.50000000  1
  U  U2  1  0.88223993  0.23850813  0.00000000  1
  U  U3  1  0.11776007  0.76149187  0.00000000  1
  U  U4  1  0.73850813  0.38223993  0.50000000  1
  U  U5  1  0.26149187  0.61776007  0.50000000  1
  U  U6  1  0.23850813  0.11776007  0.00000000  1
  U  U7  1  0.76149187  0.88223993  0.00000000  1
  U  U8  1  -0.00000000  0.50000000  0.25000000  1
  U  U9  1  0.50000000  0.00000000  0.75000000  1
  U  U10  1  0.50000000  0.00000000  0.25000000  1
  U  U11  1  -0.00000000  0.50000000  0.75000000  1
  Pd  Pd0  1  0.93357954  0.63884193  0.50000000  1
  Pd  Pd1  1  0.06642046  0.36115807  0.50000000  1
  Pd  Pd2  1  0.56642046  0.13884193  0.00000000  1
  Pd  Pd3  1  0.43357954  0.86115807  0.00000000  1
  Pd  Pd4  1  0.63884193  0.06642046  0.50000000  1
  Pd  Pd5  1  0.36115807  0.93357954  0.50000000  1
  Pd  Pd6  1  0.13884193  0.43357954  0.00000000  1
  Pd  Pd7  1  0.86115807  0.56642046  0.00000000  1
  S  S0  1  0.77542408  0.59143041  0.36996121  1
  S  S1  1  0.22457592  0.40856959  0.36996121  1
  S  S2  1  0.72457592  0.09143041  0.86996121  1
  S  S3  1  0.27542408  0.90856959  0.86996121  1
  S  S4  1  0.59143041  0.22457592  0.36996121  1
  S  S5  1  0.40856959  0.77542408  0.36996121  1
  S  S6  1  0.09143041  0.27542408  0.86996121  1
  S  S7  1  0.90856959  0.72457592  0.86996121  1
  S  S8  1  0.22457592  0.40856959  0.63003879  1
  S  S9  1  0.77542408  0.59143041  0.63003879  1
  S  S10  1  0.27542408  0.90856959  0.13003879  1
  S  S11  1  0.72457592  0.09143041  0.13003879  1
  S  S12  1  0.40856959  0.77542408  0.63003879  1
  S  S13  1  0.59143041  0.22457592  0.63003879  1
  S  S14  1  0.90856959  0.72457592  0.13003879  1
  S  S15  1  0.09143041  0.27542408  0.13003879  1
  S  S16  1  0.58131199  0.79942231  0.13099209  1
  S  S17  1  0.41868801  0.20057769  0.13099209  1
  S  S18  1  0.91868801  0.29942231  0.63099209  1
  S  S19  1  0.08131199  0.70057769  0.63099209  1
  S  S20  1  0.79942231  0.41868801  0.13099209  1
  S  S21  1  0.20057769  0.58131199  0.13099209  1
  S  S22  1  0.29942231  0.08131199  0.63099209  1
  S  S23  1  0.70057769  0.91868801  0.63099209  1
  S  S24  1  0.41868801  0.20057769  0.86900791  1
  S  S25  1  0.58131199  0.79942231  0.86900791  1
  S  S26  1  0.08131199  0.70057769  0.36900791  1
  S  S27  1  0.91868801  0.29942231  0.36900791  1
  S  S28  1  0.20057769  0.58131199  0.86900791  1
  S  S29  1  0.79942231  0.41868801  0.86900791  1
  S  S30  1  0.70057769  0.91868801  0.36900791  1
  S  S31  1  0.29942231  0.08131199  0.36900791  1
  S  S32  1  0.50000000  0.50000000  0.50000000  1
  S  S33  1  -0.00000000  0.00000000  0.00000000  1
loop_
_geom_bond_atom_site_label_1
_geom_bond_atom_site_label_2
_geom_bond_distance
_geom_bond_site_symmetry_2
Cs0 S16 3.390649 1_555
Cs0 S17 3.390649 1_555
Cs0 S20 3.390649 1_555
Cs0 S21 3.390649 1_555
Cs0 S4 3.631321 1_555
Cs0 S0 3.631321 1_555
Cs0 S1 3.631321 1_555
Cs0 S5 3.631321 1_555
Cs0 S32 3.698559 1_555
Cs1 S19 3.390649 1_545
Cs1 S23 3.390649 1_445
Cs1 S22 3.390649 1_555
Cs1 S18 3.390649 1_455
Cs1 S7 3.631321 1_445
Cs1 S2 3.631321 1_455
Cs1 S3 3.631321 1_545
Cs1 S6 3.631321 1_555
Cs1 S33 3.698559 1_556
Cs2 S24 3.390649 1_555
Cs2 S28 3.390649 1_555
Cs2 S25 3.390649 1_555
Cs2 S29 3.390649 1_555
Cs2 S13 3.631321 1_555
Cs2 S8 3.631321 1_555
Cs2 S12 3.631321 1_555
Cs2 S9 3.631321 1_555
Cs2 S32 3.698559 1_555
Cs3 S26 3.390649 1_545
Cs3 S27 3.390649 1_455
Cs3 S30 3.390649 1_445
Cs3 S31 3.390649 1_555
Cs3 S14 3.631321 1_445
Cs3 S15 3.631321 1_555
Cs3 S11 3.631321 1_455
Cs3 S10 3.631321 1_545
Cs3 S33 3.698559 1_555
Pd0 S19 2.368761 1_655
Pd0 S26 2.368761 1_655
Pd0 S9 2.396899 1_555
Pd0 S0 2.396899 1_555
Pd1 S18 2.368761 1_455
Pd1 S27 2.368761 1_455
Pd1 S8 2.396899 1_555
Pd1 S1 2.396899 1_555
Pd2 S17 2.368761 1_555
Pd2 S24 2.368761 1_554
Pd2 S2 2.396899 1_554
Pd2 S11 2.396899 1_555
Pd3 S16 2.368761 1_555
Pd3 S25 2.368761 1_554
Pd3 S3 2.396899 1_554
Pd3 S10 2.396899 1_555
Pd4 S23 2.368761 1_545
Pd4 S30 2.368761 1_545
Pd4 S13 2.396899 1_555
Pd4 S4 2.396899 1_555
Pd5 S22 2.368761 1_565
Pd5 S31 2.368761 1_565
Pd5 S12 2.396899 1_555
Pd5 S5 2.396899 1_555
Pd6 S21 2.368761 1_555
Pd6 S28 2.368761 1_554
Pd6 S6 2.396899 1_554
Pd6 S15 2.396899 1_555
Pd7 S20 2.368761 1_555
Pd7 S29 2.368761 1_554
Pd7 S7 2.396899 1_554
Pd7 S14 2.396899 1_555
S0 U4 2.769986 1_555
S0 U0 2.796476 1_555
S0 U8 2.954739 1_655
S1 U5 2.769986 1_555
S1 U1 2.796476 1_555
S1 U8 2.954739 1_555
S2 U7 2.769986 1_546
S2 U2 2.796476 1_556
S2 U9 2.954739 1_555
S3 U6 2.769986 1_566
S3 U3 2.796476 1_556
S3 U9 2.954739 1_565
S4 U1 2.769986 1_555
S4 U4 2.796476 1_555
S4 U10 2.954739 1_555
S5 U0 2.769986 1_555
S5 U5 2.796476 1_555
S5 U10 2.954739 1_565
S6 U2 2.769986 1_456
S6 U6 2.796476 1_556
S6 U11 2.954739 1_555
S7 U3 2.769986 1_656
S7 U7 2.796476 1_556
S7 U11 2.954739 1_655
S8 U5 2.769986 1_555
S8 U1 2.796476 1_555
S8 U11 2.954739 1_555
S9 U4 2.769986 1_555
S9 U0 2.796476 1_555
S9 U11 2.954739 1_655
S10 U6 2.769986 1_565
S10 U3 2.796476 1_555
S10 U10 2.954739 1_565
S11 U7 2.769986 1_545
S11 U2 2.796476 1_555
S11 U10 2.954739 1_555
S12 U0 2.769986 1_555
S12 U5 2.796476 1_555
S12 U9 2.954739 1_565
S13 U1 2.769986 1_555
S13 U4 2.796476 1_555
S13 U9 2.954739 1_555
S14 U3 2.769986 1_655
S14 U7 2.796476 1_555
S14 U8 2.954739 1_655
S15 U2 2.769986 1_455
S15 U6 2.796476 1_555
S15 U8 2.954739 1_555
S16 U7 2.662359 1_555
S16 U10 2.720846 1_565
S17 U6 2.662359 1_555
S17 U10 2.720846 1_555
S18 U4 2.662359 1_555
S18 U11 2.720846 1_655
S19 U5 2.662359 1_555
S19 U11 2.720846 1_555
S20 U2 2.662359 1_555
S20 U8 2.720846 1_655
S21 U3 2.662359 1_555
S21 U8 2.720846 1_555
S22 U1 2.662359 1_555
S22 U9 2.720846 1_555
S23 U0 2.662359 1_555
S23 U9 2.720846 1_565
S24 U6 2.662359 1_556
S24 U9 2.720846 1_555
S25 U7 2.662359 1_556
S25 U9 2.720846 1_565
S26 U5 2.662359 1_555
S26 U8 2.720846 1_555
S27 U4 2.662359 1_555
S27 U8 2.720846 1_655
S28 U3 2.662359 1_556
S28 U11 2.720846 1_555
S29 U2 2.662359 1_556
S29 U11 2.720846 1_655
S30 U0 2.662359 1_555
S30 U10 2.720846 1_565
S31 U1 2.662359 1_555
S31 U10 2.720846 1_555
S32 U1 2.763267 1_555
S32 U5 2.763267 1_555
S32 U0 2.763267 1_555
S32 U4 2.763267 1_555
S33 U3 2.763267 1_545
S33 U2 2.763267 1_455
S33 U7 2.763267 1_445
S33 U6 2.763267 1_555
