# generated using pymatgen
data_Ta2O5
_symmetry_space_group_name_H-M   'P 1'
_cell_length_a   6.08614685
_cell_length_b   6.08614685
_cell_length_c   6.08614685
_cell_angle_alpha   128.34048251
_cell_angle_beta   128.34048251
_cell_angle_gamma   76.07410558
_symmetry_Int_Tables_number   1
_chemical_formula_structural   Ta2O5
_chemical_formula_sum   'Ta2 O5'
_cell_volume   134.82557520
_cell_formula_units_Z   1
loop_
 _symmetry_equiv_pos_site_id
 _symmetry_equiv_pos_as_xyz
  1  'x, y, z'
loop_
 _atom_site_type_symbol
 _atom_site_label
 _atom_site_symmetry_multiplicity
 _atom_site_fract_x
 _atom_site_fract_y
 _atom_site_fract_z
 _atom_site_occupancy
  Ta  Ta0  1  0.19808900  0.19808900  0.00000000  1
  Ta  Ta1  1  0.80191100  0.80191100  0.00000000  1
  O  O0  1  0.00000000  0.00000000  0.00000000  1
  O  O1  1  0.50000000  0.00000000  0.00000000  1
  O  O2  1  0.00000000  0.50000000  0.00000000  1
  O  O3  1  0.00000000  0.00000000  0.50000000  1
  O  O4  1  0.50000000  0.50000000  0.50000000  1
loop_
_geom_bond_atom_site_label_1
_geom_bond_atom_site_label_2
_geom_bond_distance
_geom_bond_site_symmetry_2
O0 Ta1 1.899089 1_445
O0 Ta0 1.899089 1_555
O1 Ta0 1.939975 1_555
O1 Ta1 1.939975 1_545
O2 Ta1 1.939975 1_455
O2 Ta0 1.939975 1_555
O3 Ta0 1.939975 1_556
O3 Ta1 1.939975 1_445
O4 Ta0 1.939975 1_555
O4 Ta1 1.939975 1_556
