# generated using pymatgen
data_BaAc3
_symmetry_space_group_name_H-M   'P 1'
_cell_length_a   8.24040383
_cell_length_b   8.24040383
_cell_length_c   6.58907500
_cell_angle_alpha   90.00000000
_cell_angle_beta   90.00000000
_cell_angle_gamma   119.99999860
_symmetry_Int_Tables_number   1
_chemical_formula_structural   BaAc3
_chemical_formula_sum   'Ba2 Ac6'
_cell_volume   387.48248730
_cell_formula_units_Z   2
loop_
 _symmetry_equiv_pos_site_id
 _symmetry_equiv_pos_as_xyz
  1  'x, y, z'
loop_
 _atom_site_type_symbol
 _atom_site_label
 _atom_site_symmetry_multiplicity
 _atom_site_fract_x
 _atom_site_fract_y
 _atom_site_fract_z
 _atom_site_occupancy
  Ba  Ba0  1  0.33333300  0.66666700  0.75000000  1
  Ba  Ba1  1  0.66666700  0.33333300  0.25000000  1
  Ac  Ac0  1  0.16199900  0.32399700  0.25000000  1
  Ac  Ac1  1  0.67600300  0.83800100  0.25000000  1
  Ac  Ac2  1  0.16199900  0.83800100  0.25000000  1
  Ac  Ac3  1  0.83800100  0.67600300  0.75000000  1
  Ac  Ac4  1  0.32399700  0.16199900  0.75000000  1
  Ac  Ac5  1  0.83800100  0.16199900  0.75000000  1
loop_
_geom_bond_atom_site_label_1
_geom_bond_atom_site_label_2
_geom_bond_distance
_geom_bond_site_symmetry_2
Ac0 Ac2 4.004803 1_545
Ac0 Ac1 4.004803 1_445
Ac0 Ac4 4.024933 1_555
Ac0 Ac4 4.024933 1_554
Ac0 Ac5 4.024941 1_454
Ac0 Ac5 4.024941 1_455
Ac0 Ba0 4.102939 1_555
Ac0 Ba0 4.102939 1_554
Ac0 Ba1 4.120741 1_455
Ac0 Ba1 4.120741 1_555
Ac0 Ac2 4.235601 1_555
Ac0 Ac1 4.235601 1_555
Ac1 Ac2 4.004803 1_655
Ac1 Ac3 4.024933 1_554
Ac1 Ac3 4.024933 1_555
Ac1 Ac5 4.024941 1_565
Ac1 Ac5 4.024941 1_564
Ac1 Ba0 4.102939 1_555
Ac1 Ba0 4.102939 1_554
Ac1 Ba1 4.120741 1_565
Ac1 Ba1 4.120741 1_555
Ac1 Ac2 4.235601 1_555
Ac2 Ac3 4.024941 1_455
Ac2 Ac4 4.024941 1_565
Ac2 Ac4 4.024941 1_564
Ac2 Ac3 4.024941 1_454
Ac2 Ba0 4.102930 1_555
Ac2 Ba0 4.102930 1_554
Ac2 Ba1 4.120741 1_455
Ac2 Ba1 4.120741 1_565
Ac3 Ac5 4.004803 1_565
Ac3 Ac4 4.004803 1_665
Ac3 Ba1 4.102939 1_555
Ac3 Ba1 4.102939 1_556
Ac3 Ba0 4.120741 1_655
Ac3 Ba0 4.120741 1_555
Ac3 Ac5 4.235601 1_555
Ac3 Ac4 4.235601 1_555
Ac4 Ac5 4.004803 1_455
Ac4 Ba1 4.102939 1_555
Ac4 Ba1 4.102939 1_556
Ac4 Ba0 4.120741 1_545
Ac4 Ba0 4.120741 1_555
Ac4 Ac5 4.235601 1_555
Ac5 Ba1 4.102930 1_555
Ac5 Ba1 4.102930 1_556
Ac5 Ba0 4.120741 1_545
Ac5 Ba0 4.120741 1_655
