# generated using pymatgen
data_Ce2In
_symmetry_space_group_name_H-M   'P 1'
_cell_length_a   5.55890445
_cell_length_b   5.55890445
_cell_length_c   6.73679563
_cell_angle_alpha   90.00000000
_cell_angle_beta   90.00000000
_cell_angle_gamma   120.00000683
_symmetry_Int_Tables_number   1
_chemical_formula_structural   Ce2In
_chemical_formula_sum   'Ce4 In2'
_cell_volume   180.28616200
_cell_formula_units_Z   2
loop_
 _symmetry_equiv_pos_site_id
 _symmetry_equiv_pos_as_xyz
  1  'x, y, z'
loop_
 _atom_site_type_symbol
 _atom_site_label
 _atom_site_symmetry_multiplicity
 _atom_site_fract_x
 _atom_site_fract_y
 _atom_site_fract_z
 _atom_site_occupancy
  Ce  Ce0  1  0.33333300  0.66666700  0.74996019  1
  Ce  Ce1  1  0.66666700  0.33333300  0.25003981  1
  Ce  Ce2  1  0.00000000  0.00000000  0.50000000  1
  Ce  Ce3  1  0.00000000  0.00000000  0.00000000  1
  In  In0  1  0.66666700  0.33333300  0.75010649  1
  In  In1  1  0.33333300  0.66666700  0.24989351  1
loop_
_geom_bond_atom_site_label_1
_geom_bond_atom_site_label_2
_geom_bond_distance
_geom_bond_site_symmetry_2
Ce0 In0 3.209432 1_455
Ce0 In0 3.209432 1_565
Ce0 In0 3.209442 1_555
Ce0 In1 3.367949 1_556
Ce0 In1 3.368847 1_555
Ce0 Ce2 3.624372 1_565
Ce0 Ce2 3.624376 1_555
Ce0 Ce2 3.624376 1_665
Ce0 Ce3 3.624622 1_566
Ce0 Ce3 3.624626 1_556
Ce0 Ce3 3.624626 1_666
Ce1 In1 3.209432 1_545
Ce1 In1 3.209432 1_655
Ce1 In1 3.209442 1_555
Ce1 In0 3.367949 1_554
Ce1 In0 3.368847 1_555
Ce1 Ce2 3.624372 1_655
Ce1 Ce2 3.624376 1_555
Ce1 Ce2 3.624376 1_665
Ce1 Ce3 3.624622 1_655
Ce1 Ce3 3.624626 1_665
Ce1 Ce3 3.624626 1_555
Ce2 Ce3 3.368398 1_555
Ce2 Ce3 3.368398 1_556
Ce2 In1 3.624830 1_545
Ce2 In0 3.624830 1_455
Ce2 In1 3.624834 1_445
Ce2 In1 3.624834 1_555
Ce2 In0 3.624834 1_555
Ce2 In0 3.624834 1_445
Ce3 In0 3.624164 1_454
Ce3 In1 3.624164 1_545
Ce3 In0 3.624168 1_444
Ce3 In1 3.624168 1_555
Ce3 In1 3.624168 1_445
Ce3 In0 3.624168 1_554
