# generated using pymatgen
data_ScSi3Ni2
_symmetry_space_group_name_H-M   'P 1'
_cell_length_a   12.19802246
_cell_length_b   12.19802246
_cell_length_c   12.19802246
_cell_angle_alpha   162.12361942
_cell_angle_beta   162.12361942
_cell_angle_gamma   25.38573553
_symmetry_Int_Tables_number   1
_chemical_formula_structural   ScSi3Ni2
_chemical_formula_sum   'Sc2 Si6 Ni4'
_cell_volume   170.96654659
_cell_formula_units_Z   2
loop_
 _symmetry_equiv_pos_site_id
 _symmetry_equiv_pos_as_xyz
  1  'x, y, z'
loop_
 _atom_site_type_symbol
 _atom_site_label
 _atom_site_symmetry_multiplicity
 _atom_site_fract_x
 _atom_site_fract_y
 _atom_site_fract_z
 _atom_site_occupancy
  Sc  Sc0  1  0.85041700  0.85041700  0.00000000  1
  Sc  Sc1  1  0.14958300  0.14958300  0.00000000  1
  Si  Si0  1  0.45029900  0.95029900  0.50000000  1
  Si  Si1  1  0.95029900  0.45029900  0.50000000  1
  Si  Si2  1  0.54970100  0.04970100  0.50000000  1
  Si  Si3  1  0.30606100  0.30606100  0.00000000  1
  Si  Si4  1  0.69393900  0.69393900  0.00000000  1
  Si  Si5  1  0.04970100  0.54970100  0.50000000  1
  Ni  Ni0  1  0.25000000  0.75000000  0.50000000  1
  Ni  Ni1  1  0.75000000  0.25000000  0.50000000  1
  Ni  Ni2  1  0.40022700  0.40022700  0.00000000  1
  Ni  Ni3  1  0.59977300  0.59977300  0.00000000  1
loop_
_geom_bond_atom_site_label_1
_geom_bond_atom_site_label_2
_geom_bond_distance
_geom_bond_site_symmetry_2
Sc0 Si3 2.880615 1_565
Sc0 Si3 2.880615 1_554
Sc0 Si3 2.880615 1_666
Sc0 Si3 2.880615 1_655
Sc0 Si1 3.040185 1_554
Sc0 Si0 3.040185 1_554
Sc0 Si0 3.040185 1_655
Sc0 Si1 3.040185 1_565
Sc1 Si4 2.880615 1_455
Sc1 Si4 2.880615 1_545
Sc1 Si4 2.880615 1_444
Sc1 Si4 2.880615 1_556
Sc1 Si2 3.040185 1_454
Sc1 Si5 3.040185 1_544
Sc1 Si5 3.040185 1_555
Sc1 Si2 3.040185 1_555
Si0 Si2 2.365753 1_565
Si0 Si1 2.680208 1_465
Si0 Si1 2.680208 1_555
Si0 Si1 2.680208 1_454
Si0 Si1 2.680208 1_566
Si1 Si5 2.365753 1_655
Si2 Si5 2.680208 1_645
Si2 Si5 2.680208 1_544
Si2 Si5 2.680208 1_656
Si2 Si5 2.680208 1_555
Ni0 Si3 2.317749 1_566
Ni0 Si3 2.317749 1_555
Ni0 Si4 2.317749 1_455
Ni0 Si4 2.317749 1_556
Ni0 Ni1 2.680208 1_465
Ni0 Ni1 2.680208 1_555
Ni0 Ni1 2.680208 1_454
Ni0 Ni1 2.680208 1_566
Ni0 Sc1 3.050152 1_566
Ni0 Sc0 3.050152 1_455
Ni0 Sc0 3.050152 1_556
Ni0 Sc1 3.050152 1_555
Ni1 Si3 2.317749 1_656
Ni1 Si3 2.317749 1_555
Ni1 Si4 2.317749 1_556
Ni1 Si4 2.317749 1_545
Ni1 Sc0 3.050152 1_545
Ni1 Sc1 3.050152 1_656
Ni1 Sc0 3.050152 1_556
Ni1 Sc1 3.050152 1_555
Ni2 Si0 2.238732 1_544
Ni2 Si0 2.238732 1_555
Ni2 Si1 2.238732 1_555
Ni2 Si1 2.238732 1_454
Ni2 Si3 2.241137 1_555
Ni2 Sc0 2.930675 1_545
Ni2 Sc0 2.930675 1_455
Ni2 Sc0 2.930675 1_556
Ni2 Sc0 2.930675 1_444
Ni3 Si2 2.238732 1_565
Ni3 Si5 2.238732 1_655
Ni3 Si2 2.238732 1_554
Ni3 Si5 2.238732 1_554
Ni3 Si4 2.241137 1_555
Ni3 Sc1 2.930675 1_655
Ni3 Sc1 2.930675 1_666
Ni3 Sc1 2.930675 1_565
Ni3 Sc1 2.930675 1_554
