# generated using pymatgen
data_U(SiAu)2
_symmetry_space_group_name_H-M   'P 1'
_cell_length_a   4.37307800
_cell_length_b   4.37307800
_cell_length_c   9.97423400
_cell_angle_alpha   90.00000000
_cell_angle_beta   90.00000000
_cell_angle_gamma   90.00000000
_symmetry_Int_Tables_number   1
_chemical_formula_structural   U(SiAu)2
_chemical_formula_sum   'U2 Si4 Au4'
_cell_volume   190.74536782
_cell_formula_units_Z   2
loop_
 _symmetry_equiv_pos_site_id
 _symmetry_equiv_pos_as_xyz
  1  'x, y, z'
loop_
 _atom_site_type_symbol
 _atom_site_label
 _atom_site_symmetry_multiplicity
 _atom_site_fract_x
 _atom_site_fract_y
 _atom_site_fract_z
 _atom_site_occupancy
  U  U0  1  0.00000000  0.50000000  0.25661500  1
  U  U1  1  0.50000000  0.00000000  0.74338500  1
  Si  Si0  1  0.00000000  0.00000000  0.50000000  1
  Si  Si1  1  0.50000000  0.50000000  0.50000000  1
  Si  Si2  1  0.00000000  0.50000000  0.86504300  1
  Si  Si3  1  0.50000000  0.00000000  0.13495700  1
  Au  Au0  1  0.00000000  0.00000000  0.00000000  1
  Au  Au1  1  0.50000000  0.50000000  0.00000000  1
  Au  Au2  1  0.00000000  0.50000000  0.62342900  1
  Au  Au3  1  0.50000000  0.00000000  0.37657100  1
loop_
_geom_bond_atom_site_label_1
_geom_bond_atom_site_label_2
_geom_bond_distance
_geom_bond_site_symmetry_2
Si0 U1 3.267123 1_555
Si0 U1 3.267123 1_455
Si0 U0 3.267123 1_545
Si0 U0 3.267123 1_555
Si1 U1 3.267123 1_555
Si1 U1 3.267123 1_565
Si1 U0 3.267123 1_555
Si1 U0 3.267123 1_655
Si2 U1 3.321800 1_465
Si2 U1 3.321800 1_455
Si2 U1 3.321800 1_555
Si2 U1 3.321800 1_565
Si3 U0 3.321800 1_655
Si3 U0 3.321800 1_545
Si3 U0 3.321800 1_555
Si3 U0 3.321800 1_645
Au0 Si2 2.567668 1_554
Au0 Si2 2.567668 1_544
Au0 Si3 2.567668 1_455
Au0 Si3 2.567668 1_555
Au0 U0 3.366332 1_545
Au0 U0 3.366332 1_555
Au0 U1 3.366332 1_554
Au0 U1 3.366332 1_454
Au1 Si2 2.567668 1_554
Au1 Si3 2.567668 1_565
Au1 Si2 2.567668 1_654
Au1 Si3 2.567668 1_555
Au1 U0 3.366332 1_555
Au1 U0 3.366332 1_655
Au1 U1 3.366332 1_554
Au1 U1 3.366332 1_564
Au2 Si2 2.409915 1_555
Au2 Si1 2.509299 1_455
Au2 Si1 2.509299 1_555
Au2 Si0 2.509299 1_565
Au2 Si0 2.509299 1_555
Au2 U1 3.315636 1_465
Au2 U1 3.315636 1_455
Au2 U1 3.315636 1_555
Au2 U1 3.315636 1_565
Au3 Si3 2.409915 1_555
Au3 Si0 2.509299 1_655
Au3 Si1 2.509299 1_555
Au3 Si1 2.509299 1_545
Au3 Si0 2.509299 1_555
Au3 U0 3.315636 1_645
Au3 U0 3.315636 1_545
Au3 U0 3.315636 1_655
Au3 U0 3.315636 1_555
