# generated using pymatgen
data_Ca(BiO2)2
_symmetry_space_group_name_H-M   'P 1'
_cell_length_a   6.12665400
_cell_length_b   6.89012300
_cell_length_c   12.00891200
_cell_angle_alpha   89.99972627
_cell_angle_beta   90.00029162
_cell_angle_gamma   89.99991063
_symmetry_Int_Tables_number   1
_chemical_formula_structural   Ca(BiO2)2
_chemical_formula_sum   'Ca4 Bi8 O16'
_cell_volume   506.93700147
_cell_formula_units_Z   4
loop_
 _symmetry_equiv_pos_site_id
 _symmetry_equiv_pos_as_xyz
  1  'x, y, z'
loop_
 _atom_site_type_symbol
 _atom_site_label
 _atom_site_symmetry_multiplicity
 _atom_site_fract_x
 _atom_site_fract_y
 _atom_site_fract_z
 _atom_site_occupancy
  Ca  Ca0  1  0.86095300  0.24999900  0.74999700  1
  Ca  Ca1  1  0.13905600  0.74999800  0.24999700  1
  Ca  Ca2  1  0.51018000  0.24999500  0.24999900  1
  Ca  Ca3  1  0.48982100  0.74999700  0.75000100  1
  Bi  Bi0  1  0.49855400  0.74999700  0.46335300  1
  Bi  Bi1  1  0.49856500  0.74999700  0.03665300  1
  Bi  Bi2  1  0.50142200  0.25000200  0.53665500  1
  Bi  Bi3  1  0.50143000  0.25000400  0.96335300  1
  Bi  Bi4  1  0.99999400  0.50000400  0.49998900  1
  Bi  Bi5  1  0.00000200  0.99999800  0.00000300  1
  Bi  Bi6  1  0.99999300  0.99999500  0.49998900  1
  Bi  Bi7  1  0.00000500  0.50000700  0.00000300  1
  O  O0  1  0.87503200  0.75000400  0.38512500  1
  O  O1  1  0.87503400  0.75000100  0.11486700  1
  O  O2  1  0.12497700  0.25000100  0.61486300  1
  O  O3  1  0.12497800  0.24999700  0.88512800  1
  O  O4  1  0.22527200  0.75000000  0.59462900  1
  O  O5  1  0.22526500  0.75000300  0.90537100  1
  O  O6  1  0.77475000  0.25000100  0.40536900  1
  O  O7  1  0.77474400  0.25000600  0.09463100  1
  O  O8  1  0.67586800  0.48927400  0.62393000  1
  O  O9  1  0.67588600  0.01072000  0.87607600  1
  O  O10  1  0.32411100  0.98928300  0.37608100  1
  O  O11  1  0.32412500  0.51071900  0.12392500  1
  O  O12  1  0.32410900  0.51072000  0.37608100  1
  O  O13  1  0.32412500  0.98928000  0.12392900  1
  O  O14  1  0.67586700  0.01072100  0.62393100  1
  O  O15  1  0.67588000  0.48927700  0.87607600  1
loop_
_geom_bond_atom_site_label_1
_geom_bond_atom_site_label_2
_geom_bond_distance
_geom_bond_site_symmetry_2
Ca0 O3 2.291282 1_655
Ca0 O2 2.291315 1_655
Ca0 O8 2.509137 1_555
Ca0 O14 2.509158 1_555
Ca0 O9 2.509202 1_555
Ca0 O15 2.509221 1_555
Ca1 O1 2.291260 1_455
Ca1 O0 2.291264 1_455
Ca1 O13 2.509141 1_555
Ca1 O11 2.509164 1_555
Ca1 O12 2.509186 1_555
Ca1 O10 2.509235 1_555
Ca2 O7 2.471545 1_555
Ca2 O6 2.471575 1_555
Ca2 O13 2.611200 1_545
Ca2 O11 2.611258 1_555
Ca2 O10 2.611303 1_545
Ca2 O12 2.611378 1_555
Ca3 O4 2.471508 1_555
Ca3 O5 2.471531 1_555
Ca3 O14 2.611215 1_565
Ca3 O8 2.611227 1_555
Ca3 O15 2.611256 1_555
Ca3 O9 2.611299 1_565
Bi0 O12 2.226814 1_555
Bi0 O10 2.226844 1_555
Bi0 O4 2.299699 1_555
Bi0 O0 2.490528 1_555
Bi1 O11 2.226802 1_555
Bi1 O13 2.226855 1_555
Bi1 O5 2.299817 1_554
Bi1 O1 2.490405 1_555
Bi2 O8 2.226808 1_555
Bi2 O14 2.226847 1_555
Bi2 O6 2.299987 1_555
Bi2 O2 2.490251 1_555
Bi3 O15 2.226834 1_555
Bi3 O9 2.226913 1_555
Bi3 O7 2.299847 1_556
Bi3 O3 2.490358 1_555
Bi4 O0 2.335795 1_555
Bi4 O2 2.335923 1_655
Bi4 O6 2.482481 1_555
Bi4 O12 2.482497 1_655
Bi4 O4 2.482673 1_655
Bi4 O8 2.482791 1_555
Bi5 O1 2.335798 1_455
Bi5 O3 2.335902 1_564
Bi5 O5 2.482577 1_554
Bi5 O7 2.482600 1_465
Bi5 O9 2.482628 1_464
Bi5 O13 2.482654 1_555
Bi6 O0 2.335759 1_555
Bi6 O2 2.335952 1_665
Bi6 O6 2.482481 1_565
Bi6 O10 2.482511 1_655
Bi6 O4 2.482661 1_655
Bi6 O14 2.482798 1_565
Bi7 O1 2.335797 1_455
Bi7 O3 2.335960 1_554
Bi7 O5 2.482567 1_554
Bi7 O7 2.482572 1_455
Bi7 O11 2.482610 1_555
Bi7 O15 2.482674 1_454
