# generated using pymatgen
data_Li9Mn2Co5O16
_symmetry_space_group_name_H-M   'P 1'
_cell_length_a   5.06421200
_cell_length_b   5.12082590
_cell_length_c   11.73275864
_cell_angle_alpha   91.20790982
_cell_angle_beta   92.12980520
_cell_angle_gamma   108.70006724
_symmetry_Int_Tables_number   1
_chemical_formula_structural   Li9Mn2Co5O16
_chemical_formula_sum   'Li9 Mn2 Co5 O16'
_cell_volume   287.82871466
_cell_formula_units_Z   1
loop_
 _symmetry_equiv_pos_site_id
 _symmetry_equiv_pos_as_xyz
  1  'x, y, z'
loop_
 _atom_site_type_symbol
 _atom_site_label
 _atom_site_symmetry_multiplicity
 _atom_site_fract_x
 _atom_site_fract_y
 _atom_site_fract_z
 _atom_site_occupancy
  Li  Li0  1  0.99569600  0.49768300  0.12905700  1
  Li  Li1  1  0.48988400  0.49246600  0.25891500  1
  Li  Li2  1  0.00727200  0.51360400  0.38457400  1
  Li  Li3  1  0.48985400  0.49356100  0.50669100  1
  Li  Li4  1  0.00707800  0.50140300  0.61534300  1
  Li  Li5  1  0.51146800  0.50755500  0.74235900  1
  Li  Li6  1  0.99628800  0.49606200  0.86903600  1
  Li  Li7  1  0.50066900  0.50019200  0.99653100  1
  Li  Li8  1  0.00875600  0.00141700  0.49873600  1
  Mn  Mn0  1  0.99432000  0.99733500  0.99962800  1
  Mn  Mn1  1  0.99957000  0.99923100  0.25412300  1
  Co  Co0  1  0.49424000  0.99516100  0.12624300  1
  Co  Co1  1  0.51369800  0.00971700  0.38671800  1
  Co  Co2  1  0.50347400  0.00398600  0.62371300  1
  Co  Co3  1  0.00153700  0.99957900  0.74056800  1
  Co  Co4  1  0.49558100  0.99541200  0.86747600  1
  O  O0  1  0.24790200  0.77840900  0.00861700  1
  O  O1  1  0.76307500  0.78049400  0.11843100  1
  O  O2  1  0.24187600  0.77755900  0.25412900  1
  O  O3  1  0.76407400  0.77660900  0.35891600  1
  O  O4  1  0.28202900  0.77002200  0.50582900  1
  O  O5  1  0.74984200  0.77704400  0.63139500  1
  O  O6  1  0.25513700  0.75346300  0.76020500  1
  O  O7  1  0.76279100  0.76667600  0.88114500  1
  O  O8  1  0.74269300  0.21768200  0.23942300  1
  O  O9  1  0.23557400  0.23479000  0.36461200  1
  O  O10  1  0.74053900  0.25584900  0.49144000  1
  O  O11  1  0.26269900  0.22345900  0.63249600  1
  O  O12  1  0.73726500  0.22800000  0.74810900  1
  O  O13  1  0.22403500  0.21637600  0.88438200  1
  O  O14  1  0.75055100  0.22070300  0.99444400  1
  O  O15  1  0.23053100  0.21850000  0.12671100  1
loop_
_geom_bond_atom_site_label_1
_geom_bond_atom_site_label_2
_geom_bond_distance
_geom_bond_site_symmetry_2
Li0 O2 2.095550 1_655
Li0 O8 2.097107 1_555
Li0 O15 2.133067 1_655
Li0 O1 2.142746 1_555
Li0 O14 2.162905 1_554
Li0 O0 2.176496 1_655
Li1 O3 1.983239 1_555
Li1 O9 2.008894 1_555
Li1 O15 2.162066 1_555
Li1 O8 2.198812 1_555
Li1 O2 2.210410 1_555
Li1 O1 2.402042 1_555
Li2 O10 2.047270 1_455
Li2 O4 2.070443 1_555
Li2 O3 2.115305 1_455
Li2 O9 2.120047 1_555
Li2 O2 2.184844 1_555
Li2 O8 2.326271 1_455
Li3 O4 2.016746 1_555
Li3 O10 2.030791 1_555
Li3 O5 2.126798 1_555
Li3 O11 2.146422 1_555
Li3 O9 2.201394 1_555
Li3 O3 2.455544 1_555
Li4 O10 2.050653 1_455
Li4 O4 2.112167 1_555
Li4 O6 2.200447 1_555
Li4 O5 2.216066 1_455
Li4 O11 2.217260 1_555
Li4 O12 2.297193 1_455
Li5 O11 1.997527 1_555
Li5 O5 2.044751 1_555
Li5 O6 2.090916 1_555
Li5 O12 2.099869 1_555
Li5 O7 2.168879 1_555
Li5 O13 2.451950 1_555
Li6 O6 2.042947 1_655
Li6 O12 2.059839 1_555
Li6 O7 2.096120 1_555
Li6 O13 2.113902 1_655
Li6 O14 2.190959 1_555
Li6 O0 2.227062 1_656
Li7 O13 2.069553 1_555
Li7 O1 2.102580 1_556
Li7 O7 2.122959 1_555
Li7 O14 2.193748 1_555
Li7 O0 2.205184 1_556
Li7 O15 2.295209 1_556
Li8 O11 2.060766 1_555
Li8 O4 2.091248 1_545
Li8 O3 2.099151 1_445
Li8 O9 2.134796 1_555
Li8 O10 2.163504 1_455
Li8 O5 2.173244 1_445
Mn0 O7 1.903673 1_555
Mn0 O14 1.933605 1_565
Mn0 O13 1.945233 1_665
Mn0 O0 1.958363 1_656
Mn0 O15 1.965784 1_666
Mn0 O1 1.974863 1_556
Mn1 O9 1.859693 1_665
Mn1 O3 1.878803 1_555
Mn1 O2 1.920280 1_655
Mn1 O8 1.974336 1_565
Mn1 O1 2.036300 1_555
Mn1 O15 2.054779 1_665
Co0 O8 1.880846 1_565
Co0 O0 1.900642 1_555
Co0 O1 2.008730 1_555
Co0 O15 2.017722 1_565
Co0 O2 2.103860 1_555
Co0 O14 2.161761 1_564
Co1 O10 1.821891 1_555
Co1 O4 2.026533 1_545
Co1 O3 2.030743 1_545
Co1 O9 2.099016 1_555
Co1 O2 2.107546 1_545
Co1 O8 2.213642 1_555
Co2 O4 1.886620 1_545
Co2 O11 1.908848 1_555
Co2 O12 1.943693 1_555
Co2 O5 1.959880 1_545
Co2 O10 2.177896 1_555
Co2 O6 2.234672 1_545
Co3 O5 1.857340 1_455
Co3 O11 1.971042 1_565
Co3 O12 2.043382 1_465
Co3 O6 2.078223 1_555
Co3 O13 2.080097 1_565
Co3 O7 2.216109 1_455
Co4 O6 1.858697 1_555
Co4 O14 2.011653 1_565
Co4 O12 2.034944 1_565
Co4 O13 2.054103 1_565
Co4 O7 2.058406 1_555
Co4 O0 2.211010 1_556
