# generated using pymatgen
data_Th(Ge3Pt)4
_symmetry_space_group_name_H-M   'P 1'
_cell_length_a   7.56017834
_cell_length_b   7.56017834
_cell_length_c   7.56017834
_cell_angle_alpha   109.47122063
_cell_angle_beta   109.47122063
_cell_angle_gamma   109.47122063
_symmetry_Int_Tables_number   1
_chemical_formula_structural   Th(Ge3Pt)4
_chemical_formula_sum   'Th1 Ge12 Pt4'
_cell_volume   332.63981498
_cell_formula_units_Z   1
loop_
 _symmetry_equiv_pos_site_id
 _symmetry_equiv_pos_as_xyz
  1  'x, y, z'
loop_
 _atom_site_type_symbol
 _atom_site_label
 _atom_site_symmetry_multiplicity
 _atom_site_fract_x
 _atom_site_fract_y
 _atom_site_fract_z
 _atom_site_occupancy
  Th  Th0  1  0.00000000  0.00000000  0.00000000  1
  Ge  Ge0  1  0.84826600  0.64562400  0.49389000  1
  Ge  Ge1  1  0.15173400  0.35437600  0.50611000  1
  Ge  Ge2  1  0.15173400  0.64562400  0.79735900  1
  Ge  Ge3  1  0.84826600  0.35437600  0.20264100  1
  Ge  Ge4  1  0.64562400  0.49389000  0.84826600  1
  Ge  Ge5  1  0.35437600  0.50611000  0.15173400  1
  Ge  Ge6  1  0.64562400  0.79735900  0.15173400  1
  Ge  Ge7  1  0.35437600  0.20264100  0.84826600  1
  Ge  Ge8  1  0.49389000  0.84826600  0.64562400  1
  Ge  Ge9  1  0.50611000  0.15173400  0.35437600  1
  Ge  Ge10  1  0.20264100  0.84826600  0.35437600  1
  Ge  Ge11  1  0.79735900  0.15173400  0.64562400  1
  Pt  Pt0  1  0.50000000  0.50000000  0.50000000  1
  Pt  Pt1  1  0.50000000  0.00000000  0.00000000  1
  Pt  Pt2  1  0.00000000  0.50000000  0.00000000  1
  Pt  Pt3  1  0.00000000  0.00000000  0.50000000  1
loop_
_geom_bond_atom_site_label_1
_geom_bond_atom_site_label_2
_geom_bond_distance
_geom_bond_site_symmetry_2
Ge0 Pt0 2.515780 1_555
Ge0 Pt3 2.515780 1_665
Ge0 Ge3 2.542524 1_555
Ge0 Ge2 2.649202 1_655
Ge0 Th0 3.365262 1_666
Ge1 Pt3 2.515780 1_555
Ge1 Pt0 2.515780 1_555
Ge1 Ge2 2.542524 1_555
Ge1 Ge3 2.649202 1_455
Ge1 Th0 3.365262 1_555
Ge2 Pt2 2.515773 1_556
Ge2 Pt1 2.515781 1_566
Ge2 Th0 3.365260 1_566
Ge3 Pt2 2.515773 1_655
Ge3 Pt1 2.515781 1_555
Ge3 Th0 3.365260 1_655
Ge4 Pt0 2.515780 1_555
Ge4 Pt2 2.515780 1_656
Ge4 Ge7 2.542524 1_555
Ge4 Ge6 2.649202 1_556
Ge4 Th0 3.365262 1_666
Ge5 Pt2 2.515780 1_555
Ge5 Pt0 2.515780 1_555
Ge5 Ge6 2.542524 1_555
Ge5 Ge7 2.649202 1_554
Ge5 Th0 3.365262 1_555
Ge6 Pt1 2.515773 1_565
Ge6 Pt3 2.515781 1_665
Ge6 Th0 3.365260 1_665
Ge7 Pt1 2.515773 1_556
Ge7 Pt3 2.515781 1_555
Ge7 Th0 3.365260 1_556
Ge8 Pt0 2.515780 1_555
Ge8 Pt1 2.515780 1_566
Ge8 Th0 3.365262 1_666
Ge9 Pt1 2.515780 1_555
Ge9 Pt0 2.515780 1_555
Ge9 Th0 3.365262 1_555
Ge10 Pt3 2.515773 1_565
Ge10 Pt2 2.515781 1_555
Ge10 Ge8 2.542524 1_555
Ge10 Ge9 2.649202 1_565
Ge10 Th0 3.365260 1_565
Ge11 Pt3 2.515773 1_655
Ge11 Pt2 2.515781 1_656
Ge11 Ge9 2.542524 1_555
Ge11 Ge8 2.649202 1_545
Ge11 Th0 3.365260 1_656
