# generated using pymatgen
data_CdSb3
_symmetry_space_group_name_H-M   'P 1'
_cell_length_a   6.59363439
_cell_length_b   6.59363439
_cell_length_c   5.72105300
_cell_angle_alpha   90.00000000
_cell_angle_beta   90.00000000
_cell_angle_gamma   120.00000393
_symmetry_Int_Tables_number   1
_chemical_formula_structural   CdSb3
_chemical_formula_sum   'Cd2 Sb6'
_cell_volume   215.40526313
_cell_formula_units_Z   2
loop_
 _symmetry_equiv_pos_site_id
 _symmetry_equiv_pos_as_xyz
  1  'x, y, z'
loop_
 _atom_site_type_symbol
 _atom_site_label
 _atom_site_symmetry_multiplicity
 _atom_site_fract_x
 _atom_site_fract_y
 _atom_site_fract_z
 _atom_site_occupancy
  Cd  Cd0  1  0.33333300  0.66666700  0.75000000  1
  Cd  Cd1  1  0.66666700  0.33333300  0.25000000  1
  Sb  Sb0  1  0.17142300  0.34284500  0.25000000  1
  Sb  Sb1  1  0.65715500  0.82857700  0.25000000  1
  Sb  Sb2  1  0.17142300  0.82857700  0.25000000  1
  Sb  Sb3  1  0.82857700  0.65715500  0.75000000  1
  Sb  Sb4  1  0.34284500  0.17142300  0.75000000  1
  Sb  Sb5  1  0.82857700  0.17142300  0.75000000  1
loop_
_geom_bond_atom_site_label_1
_geom_bond_atom_site_label_2
_geom_bond_distance
_geom_bond_site_symmetry_2
Cd0 Sb5 3.297264 1_565
Cd0 Sb5 3.297264 1_455
Cd0 Sb4 3.297265 1_565
Cd0 Sb3 3.297265 1_455
Cd0 Sb4 3.297265 1_555
Cd0 Sb3 3.297265 1_555
Cd0 Sb2 3.406136 1_556
Cd0 Sb2 3.406136 1_555
Cd0 Sb0 3.406142 1_555
Cd0 Sb0 3.406142 1_556
Cd0 Sb1 3.406142 1_555
Cd0 Sb1 3.406142 1_556
Cd1 Sb2 3.297264 1_655
Cd1 Sb2 3.297264 1_545
Cd1 Sb0 3.297265 1_655
Cd1 Sb1 3.297265 1_545
Cd1 Sb1 3.297265 1_555
Cd1 Sb0 3.297265 1_555
Cd1 Sb5 3.406136 1_555
Cd1 Sb5 3.406136 1_554
Cd1 Sb3 3.406142 1_554
Cd1 Sb4 3.406142 1_554
Cd1 Sb3 3.406142 1_555
Cd1 Sb4 3.406142 1_555
Sb0 Sb1 3.202739 1_555
Sb0 Sb2 3.202739 1_555
Sb0 Sb1 3.390895 1_445
Sb0 Sb2 3.390895 1_545
Sb0 Sb4 3.466310 1_555
Sb0 Sb4 3.466310 1_554
Sb0 Sb5 3.466316 1_455
Sb0 Sb5 3.466316 1_454
Sb1 Sb2 3.202739 1_555
Sb1 Sb2 3.390895 1_655
Sb1 Sb3 3.466310 1_554
Sb1 Sb3 3.466310 1_555
Sb1 Sb5 3.466316 1_564
Sb1 Sb5 3.466316 1_565
Sb2 Sb4 3.466316 1_565
Sb2 Sb4 3.466316 1_564
Sb2 Sb3 3.466316 1_454
Sb2 Sb3 3.466316 1_455
Sb3 Sb4 3.202739 1_555
Sb3 Sb5 3.202739 1_555
Sb3 Sb4 3.390895 1_665
Sb3 Sb5 3.390895 1_565
Sb4 Sb5 3.202739 1_555
Sb4 Sb5 3.390895 1_455
