# generated using pymatgen
data_Mg6ZnGa
_symmetry_space_group_name_H-M   'P 1'
_cell_length_a   4.93530700
_cell_length_b   6.31096700
_cell_length_c   10.63879000
_cell_angle_alpha   90.00000000
_cell_angle_beta   90.00000000
_cell_angle_gamma   90.00000000
_symmetry_Int_Tables_number   1
_chemical_formula_structural   Mg6ZnGa
_chemical_formula_sum   'Mg12 Zn2 Ga2'
_cell_volume   331.36170693
_cell_formula_units_Z   2
loop_
 _symmetry_equiv_pos_site_id
 _symmetry_equiv_pos_as_xyz
  1  'x, y, z'
loop_
 _atom_site_type_symbol
 _atom_site_label
 _atom_site_symmetry_multiplicity
 _atom_site_fract_x
 _atom_site_fract_y
 _atom_site_fract_z
 _atom_site_occupancy
  Mg  Mg0  1  0.50000000  0.24995600  0.58390600  1
  Mg  Mg1  1  0.50000000  0.75004400  0.58390600  1
  Mg  Mg2  1  0.00000000  0.25105000  0.41376800  1
  Mg  Mg3  1  0.00000000  0.74895000  0.41376800  1
  Mg  Mg4  1  0.00000000  0.00000000  0.66953700  1
  Mg  Mg5  1  0.00000000  0.00000000  0.16885200  1
  Mg  Mg6  1  0.50000000  0.74995600  0.08390600  1
  Mg  Mg7  1  0.50000000  0.25004400  0.08390600  1
  Mg  Mg8  1  0.00000000  0.75105000  0.91376800  1
  Mg  Mg9  1  0.00000000  0.24895000  0.91376800  1
  Mg  Mg10  1  0.00000000  0.50000000  0.16953700  1
  Mg  Mg11  1  0.00000000  0.50000000  0.66885200  1
  Zn  Zn0  1  0.50000000  0.00000000  0.83309100  1
  Zn  Zn1  1  0.50000000  0.50000000  0.33309100  1
  Ga  Ga0  1  0.50000000  0.00000000  0.33317500  1
  Ga  Ga1  1  0.50000000  0.50000000  0.83317500  1
loop_
_geom_bond_atom_site_label_1
_geom_bond_atom_site_label_2
_geom_bond_distance
_geom_bond_site_symmetry_2
Mg0 Mg2 3.060341 1_655
Mg0 Mg2 3.060341 1_555
Mg0 Mg11 3.065318 1_555
Mg0 Mg11 3.065318 1_655
Mg0 Mg4 3.067189 1_655
Mg0 Mg4 3.067189 1_555
Mg0 Zn0 3.084856 1_555
Mg0 Zn1 3.100054 1_555
Mg0 Mg1 3.154928 1_545
Mg0 Mg1 3.156039 1_555
Mg1 Mg3 3.060341 1_555
Mg1 Mg3 3.060341 1_655
Mg1 Mg11 3.065318 1_555
Mg1 Mg11 3.065318 1_655
Mg1 Mg4 3.067189 1_665
Mg1 Mg4 3.067189 1_565
Mg1 Zn0 3.084856 1_565
Mg1 Zn1 3.100054 1_555
Mg2 Zn1 3.048673 1_455
Mg2 Zn1 3.048673 1_555
Mg2 Mg5 3.049496 1_555
Mg2 Mg3 3.142230 1_555
Mg2 Mg4 3.148723 1_555
Mg2 Mg3 3.168737 1_545
Mg3 Zn1 3.048673 1_455
Mg3 Zn1 3.048673 1_555
Mg3 Mg5 3.049496 1_565
Mg3 Mg4 3.148723 1_565
Mg4 Zn0 3.019432 1_455
Mg4 Zn0 3.019432 1_555
Mg4 Mg9 3.036393 1_555
Mg4 Mg8 3.036393 1_545
Mg5 Mg6 3.065318 1_445
Mg5 Mg6 3.065318 1_545
Mg5 Mg7 3.065318 1_455
Mg5 Mg7 3.065318 1_555
Mg5 Mg9 3.135767 1_554
Mg5 Mg8 3.135767 1_544
Mg6 Mg8 3.060341 1_654
Mg6 Mg8 3.060341 1_554
Mg6 Zn1 3.084856 1_555
Mg6 Zn0 3.100054 1_564
Mg6 Mg7 3.154928 1_555
Mg6 Mg7 3.156039 1_565
Mg7 Mg9 3.060341 1_554
Mg7 Mg9 3.060341 1_654
Mg7 Zn1 3.084856 1_555
Mg7 Zn0 3.100054 1_554
Mg8 Zn0 3.048673 1_465
Mg8 Zn0 3.048673 1_565
Mg8 Mg9 3.142230 1_565
Mg8 Mg9 3.168737 1_555
Mg9 Zn0 3.048673 1_455
Mg9 Zn0 3.048673 1_555
Mg10 Zn1 3.019432 1_555
Mg10 Zn1 3.019432 1_455
Mg10 Mg2 3.036393 1_555
Mg10 Mg3 3.036393 1_555
Mg10 Mg6 3.067189 1_555
Mg10 Mg7 3.067189 1_455
Mg10 Mg7 3.067189 1_555
Mg10 Mg6 3.067189 1_455
Mg10 Mg8 3.148723 1_554
Mg10 Mg9 3.148723 1_554
Mg10 Mg5 3.155492 1_555
Mg10 Mg5 3.155492 1_565
Mg11 Mg8 3.049496 1_555
Mg11 Mg9 3.049496 1_555
Mg11 Mg3 3.135767 1_555
Mg11 Mg2 3.135767 1_555
Mg11 Mg4 3.155492 1_565
Mg11 Mg4 3.155492 1_555
Ga0 Mg5 3.024154 1_655
Ga0 Mg5 3.024154 1_555
Ga0 Mg3 3.055273 1_645
Ga0 Mg2 3.055273 1_655
Ga0 Mg3 3.055273 1_545
Ga0 Mg2 3.055273 1_555
Ga0 Mg7 3.085908 1_555
Ga0 Mg6 3.085908 1_545
Ga0 Mg1 3.099002 1_545
Ga0 Mg0 3.099002 1_555
Ga0 Zn1 3.155484 1_545
Ga0 Zn1 3.155484 1_555
Ga1 Mg11 3.024154 1_555
Ga1 Mg11 3.024154 1_655
Ga1 Mg8 3.055273 1_655
Ga1 Mg9 3.055273 1_555
Ga1 Mg9 3.055273 1_655
Ga1 Mg8 3.055273 1_555
Ga1 Mg1 3.085908 1_555
Ga1 Mg0 3.085908 1_555
Ga1 Mg6 3.099002 1_556
Ga1 Mg7 3.099002 1_556
Ga1 Zn0 3.155484 1_565
Ga1 Zn0 3.155484 1_555
