# generated using pymatgen
data_Na2MgFeF7
_symmetry_space_group_name_H-M   'P 1'
_cell_length_a   7.39349188
_cell_length_b   7.39349188
_cell_length_c   7.39349188
_cell_angle_alpha   121.01587658
_cell_angle_beta   118.80796910
_cell_angle_gamma   90.16322860
_symmetry_Int_Tables_number   1
_chemical_formula_structural   Na2MgFeF7
_chemical_formula_sum   'Na4 Mg2 Fe2 F14'
_cell_volume   286.02815592
_cell_formula_units_Z   2
loop_
 _symmetry_equiv_pos_site_id
 _symmetry_equiv_pos_as_xyz
  1  'x, y, z'
loop_
 _atom_site_type_symbol
 _atom_site_label
 _atom_site_symmetry_multiplicity
 _atom_site_fract_x
 _atom_site_fract_y
 _atom_site_fract_z
 _atom_site_occupancy
  Na  Na0  1  0.00000000  0.00000000  0.00000000  1
  Na  Na1  1  0.50000000  0.50000000  0.00000000  1
  Na  Na2  1  0.50000000  0.00000000  0.00000000  1
  Na  Na3  1  0.50000000  0.50000000  0.50000000  1
  Mg  Mg0  1  0.00000000  0.00000000  0.50000000  1
  Mg  Mg1  1  0.00000000  0.50000000  0.00000000  1
  Fe  Fe0  1  0.50000000  0.00000000  0.50000000  1
  Fe  Fe1  1  0.00000000  0.50000000  0.50000000  1
  F  F0  1  0.36274800  0.09269800  0.27005000  1
  F  F1  1  0.67735200  0.40730200  0.27005000  1
  F  F2  1  0.68290600  0.31331600  0.76485600  1
  F  F3  1  0.95153900  0.18668400  0.36959000  1
  F  F4  1  0.95153900  0.58194900  0.76485600  1
  F  F5  1  0.68290600  0.91805100  0.36959000  1
  F  F6  1  0.31709400  0.08194900  0.63041000  1
  F  F7  1  0.04846100  0.41805100  0.23514400  1
  F  F8  1  0.04846100  0.81331600  0.63041000  1
  F  F9  1  0.31709400  0.68668400  0.23514400  1
  F  F10  1  0.90349700  0.75000000  0.15349700  1
  F  F11  1  0.63725200  0.90730200  0.72995000  1
  F  F12  1  0.32264800  0.59269800  0.72995000  1
  F  F13  1  0.09650300  0.25000000  0.84650300  1
loop_
_geom_bond_atom_site_label_1
_geom_bond_atom_site_label_2
_geom_bond_distance
_geom_bond_site_symmetry_2
F0 Fe0 1.982926 1_555
F0 Na0 2.251162 1_555
F0 Na2 2.456086 1_555
F0 Na3 2.456086 1_555
F1 Fe1 1.982926 1_655
F1 Na1 2.251162 1_555
F1 Na3 2.456086 1_555
F1 Na2 2.456086 1_555
F2 Fe0 1.945446 1_555
F2 Mg1 2.001115 1_656
F2 Na1 2.561226 1_556
F2 Na3 2.795053 1_555
F3 Fe1 1.945445 1_655
F3 Mg0 2.001114 1_655
F3 Na0 2.561231 1_655
F3 Na2 2.795048 1_555
F4 Fe1 1.945452 1_655
F4 Mg1 2.001107 1_656
F4 Na0 2.561231 1_666
F4 Na3 2.795048 1_555
F5 Fe0 1.945445 1_565
F5 Mg0 2.001114 1_665
F5 Na1 2.561231 1_555
F5 Na2 2.795048 1_565
F6 Fe0 1.945445 1_555
F6 Mg0 2.001114 1_555
F6 Na1 2.561231 1_556
F6 Na2 2.795048 1_556
F7 Fe1 1.945452 1_555
F7 Mg1 2.001107 1_555
F7 Na0 2.561231 1_555
F7 Na3 2.795048 1_555
F8 Fe1 1.945445 1_555
F8 Mg0 2.001114 1_565
F8 Na0 2.561231 1_566
F8 Na2 2.795048 1_566
F9 Fe0 1.945446 1_565
F9 Mg1 2.001115 1_555
F9 Na1 2.561226 1_555
F9 Na3 2.795053 1_555
F10 Mg0 1.959498 1_665
F10 Mg1 1.959498 1_655
F10 Na1 2.854494 1_555
F10 Na0 2.854494 1_665
F11 Fe0 1.982926 1_565
F11 Na0 2.251162 1_666
F11 Na3 2.456086 1_555
F11 Na2 2.456086 1_566
F12 Fe1 1.982926 1_555
F12 Na1 2.251162 1_556
F12 Na3 2.456086 1_555
F12 Na2 2.456086 1_566
F13 Mg0 1.959498 1_555
F13 Mg1 1.959498 1_556
F13 Na0 2.854494 1_556
F13 Na1 2.854494 1_556
