# generated using pymatgen
data_Mg3Sn2O7
_symmetry_space_group_name_H-M   'P 1'
_cell_length_a   9.68485588
_cell_length_b   9.68485588
_cell_length_c   5.47976300
_cell_angle_alpha   90.00000000
_cell_angle_beta   90.00000000
_cell_angle_gamma   147.48142266
_symmetry_Int_Tables_number   1
_chemical_formula_structural   Mg3Sn2O7
_chemical_formula_sum   'Mg6 Sn4 O14'
_cell_volume   276.30298635
_cell_formula_units_Z   2
loop_
 _symmetry_equiv_pos_site_id
 _symmetry_equiv_pos_as_xyz
  1  'x, y, z'
loop_
 _atom_site_type_symbol
 _atom_site_label
 _atom_site_symmetry_multiplicity
 _atom_site_fract_x
 _atom_site_fract_y
 _atom_site_fract_z
 _atom_site_occupancy
  Mg  Mg0  1  0.25812500  0.25812500  0.28377100  1
  Mg  Mg1  1  0.74187500  0.74187500  0.78377100  1
  Mg  Mg2  1  0.01880300  0.41875400  0.19535100  1
  Mg  Mg3  1  0.98119700  0.58124600  0.69535100  1
  Mg  Mg4  1  0.41875400  0.01880300  0.19535100  1
  Mg  Mg5  1  0.58124600  0.98119700  0.69535100  1
  Sn  Sn0  1  0.85232200  0.64234100  0.24662500  1
  Sn  Sn1  1  0.14767800  0.35765900  0.74662500  1
  Sn  Sn2  1  0.35765900  0.14767800  0.74662500  1
  Sn  Sn3  1  0.64234100  0.85232200  0.24662500  1
  O  O0  1  0.66136000  0.07735500  0.32454400  1
  O  O1  1  0.33864000  0.92264500  0.82454400  1
  O  O2  1  0.92264500  0.33864000  0.82454400  1
  O  O3  1  0.07735500  0.66136000  0.32454400  1
  O  O4  1  0.44582300  0.71491500  0.92360500  1
  O  O5  1  0.55417700  0.28508500  0.42360500  1
  O  O6  1  0.28508500  0.55417700  0.42360500  1
  O  O7  1  0.71491500  0.44582300  0.92360500  1
  O  O8  1  0.00887600  0.16319900  0.07934700  1
  O  O9  1  0.99112400  0.83680100  0.57934700  1
  O  O10  1  0.61886000  0.61886000  0.15728300  1
  O  O11  1  0.38114000  0.38114000  0.65728300  1
  O  O12  1  0.16319900  0.00887600  0.07934700  1
  O  O13  1  0.83680100  0.99112400  0.57934700  1
loop_
_geom_bond_atom_site_label_1
_geom_bond_atom_site_label_2
_geom_bond_distance
_geom_bond_site_symmetry_2
Mg0 O8 2.045613 1_555
Mg0 O12 2.045613 1_555
Mg0 O10 2.075503 1_555
Mg0 O11 2.152740 1_555
Mg1 O9 2.045613 1_555
Mg1 O13 2.045613 1_555
Mg1 O11 2.075503 1_555
Mg1 O10 2.152740 1_556
Mg2 O3 2.023960 1_555
Mg2 O0 2.028403 1_455
Mg2 O6 2.056992 1_555
Mg2 O2 2.092720 1_454
Mg2 O8 2.477444 1_555
Mg3 O2 2.023960 1_555
Mg3 O1 2.028403 1_655
Mg3 O7 2.056992 1_555
Mg3 O3 2.092720 1_655
Mg3 O9 2.477444 1_555
Mg4 O0 2.023960 1_555
Mg4 O3 2.028403 1_545
Mg4 O5 2.056992 1_555
Mg4 O1 2.092720 1_544
Mg4 O12 2.477444 1_555
Mg5 O1 2.023960 1_555
Mg5 O2 2.028403 1_565
Mg5 O4 2.056992 1_555
Mg5 O0 2.092720 1_565
Mg5 O13 2.477444 1_555
O0 Sn3 2.071008 1_545
O1 Sn2 2.071008 1_565
O2 Sn1 2.071008 1_655
O3 Sn0 2.071008 1_455
O4 Sn3 2.062786 1_556
O4 Sn1 2.097853 1_555
O5 Sn2 2.062786 1_555
O5 Sn0 2.097853 1_555
O6 Sn1 2.062786 1_555
O6 Sn3 2.097853 1_555
O7 Sn0 2.062786 1_556
O7 Sn2 2.097853 1_555
O8 Sn1 2.099670 1_554
O8 Sn3 2.117107 1_445
O9 Sn0 2.099670 1_555
O9 Sn2 2.117107 1_665
O10 Sn3 2.129926 1_555
O10 Sn0 2.129926 1_555
O11 Sn2 2.129926 1_555
O11 Sn1 2.129926 1_555
O12 Sn2 2.099670 1_554
O12 Sn0 2.117107 1_445
O13 Sn3 2.099670 1_555
O13 Sn1 2.117107 1_665
