# generated using pymatgen
data_Li2La(NO3)5
_symmetry_space_group_name_H-M   'P 1'
_cell_length_a   9.05679600
_cell_length_b   10.72426600
_cell_length_c   11.92698400
_cell_angle_alpha   90.00000000
_cell_angle_beta   90.00000000
_cell_angle_gamma   90.00000000
_symmetry_Int_Tables_number   1
_chemical_formula_structural   Li2La(NO3)5
_chemical_formula_sum   'Li8 La4 N20 O60'
_cell_volume   1158.43801217
_cell_formula_units_Z   4
loop_
 _symmetry_equiv_pos_site_id
 _symmetry_equiv_pos_as_xyz
  1  'x, y, z'
loop_
 _atom_site_type_symbol
 _atom_site_label
 _atom_site_symmetry_multiplicity
 _atom_site_fract_x
 _atom_site_fract_y
 _atom_site_fract_z
 _atom_site_occupancy
  Li  Li0  1  0.11666000  0.22794200  0.32122600  1
  Li  Li1  1  0.88334000  0.77205800  0.67877400  1
  Li  Li2  1  0.88334000  0.77205800  0.32122600  1
  Li  Li3  1  0.38334000  0.72794200  0.17877400  1
  Li  Li4  1  0.11666000  0.22794200  0.67877400  1
  Li  Li5  1  0.61666000  0.27205800  0.82122600  1
  Li  Li6  1  0.61666000  0.27205800  0.17877400  1
  Li  Li7  1  0.38334000  0.72794200  0.82122600  1
  La  La0  1  0.00000000  0.00000000  0.00000000  1
  La  La1  1  0.50000000  0.50000000  0.50000000  1
  La  La2  1  0.00000000  0.50000000  0.00000000  1
  La  La3  1  0.50000000  0.00000000  0.50000000  1
  N  N0  1  0.00000000  0.00000000  0.26143400  1
  N  N1  1  0.00000000  0.00000000  0.73856600  1
  N  N2  1  0.50000000  0.50000000  0.23856600  1
  N  N3  1  0.50000000  0.50000000  0.76143400  1
  N  N4  1  0.17698700  0.24907900  0.00000000  1
  N  N5  1  0.82301300  0.75092100  0.00000000  1
  N  N6  1  0.32301300  0.74907900  0.50000000  1
  N  N7  1  0.67698700  0.25092100  0.50000000  1
  N  N8  1  0.39938300  0.15571700  0.29027200  1
  N  N9  1  0.60061700  0.84428300  0.70972800  1
  N  N10  1  0.60061700  0.84428300  0.29027200  1
  N  N11  1  0.10061700  0.65571700  0.20972800  1
  N  N12  1  0.39938300  0.15571700  0.70972800  1
  N  N13  1  0.89938300  0.34428300  0.79027200  1
  N  N14  1  0.89938300  0.34428300  0.20972800  1
  N  N15  1  0.10061700  0.65571700  0.79027200  1
  N  N16  1  0.70452500  0.14790300  0.00000000  1
  N  N17  1  0.29547500  0.85209700  0.00000000  1
  N  N18  1  0.79547500  0.64790300  0.50000000  1
  N  N19  1  0.20452500  0.35209700  0.50000000  1
  O  O0  1  0.31075700  0.11395500  0.36604600  1
  O  O1  1  0.68924300  0.88604500  0.63395400  1
  O  O2  1  0.68924300  0.88604500  0.36604600  1
  O  O3  1  0.18924300  0.61395500  0.13395400  1
  O  O4  1  0.31075700  0.11395500  0.63395400  1
  O  O5  1  0.81075700  0.38604500  0.86604600  1
  O  O6  1  0.81075700  0.38604500  0.13395400  1
  O  O7  1  0.18924300  0.61395500  0.86604600  1
  O  O8  1  0.03278500  0.24772700  0.00000000  1
  O  O9  1  0.96721500  0.75227300  0.00000000  1
  O  O10  1  0.46721500  0.74772700  0.50000000  1
  O  O11  1  0.53278500  0.25227300  0.50000000  1
  O  O12  1  0.03566200  0.37337400  0.20261200  1
  O  O13  1  0.96433800  0.62662600  0.79738800  1
  O  O14  1  0.96433800  0.62662600  0.20261200  1
  O  O15  1  0.46433800  0.87337400  0.29738800  1
  O  O16  1  0.03566200  0.37337400  0.79738800  1
  O  O17  1  0.53566200  0.12662600  0.70261200  1
  O  O18  1  0.53566200  0.12662600  0.29738800  1
  O  O19  1  0.46433800  0.87337400  0.70261200  1
  O  O20  1  0.24284400  0.14688100  0.00000000  1
  O  O21  1  0.75715600  0.85311900  0.00000000  1
  O  O22  1  0.25715600  0.64688100  0.50000000  1
  O  O23  1  0.74284400  0.35311900  0.50000000  1
  O  O24  1  0.59631900  0.22127000  0.00000000  1
  O  O25  1  0.40368100  0.77873000  0.00000000  1
  O  O26  1  0.90368100  0.72127000  0.50000000  1
  O  O27  1  0.09631900  0.27873000  0.50000000  1
  O  O28  1  0.00000000  0.00000000  0.36440200  1
  O  O29  1  0.00000000  0.00000000  0.63559800  1
  O  O30  1  0.50000000  0.50000000  0.13559800  1
  O  O31  1  0.50000000  0.50000000  0.86440200  1
  O  O32  1  0.24041700  0.35278700  0.00000000  1
  O  O33  1  0.75958300  0.64721300  0.00000000  1
  O  O34  1  0.25958300  0.85278700  0.50000000  1
  O  O35  1  0.74041700  0.14721300  0.50000000  1
  O  O36  1  0.26145500  0.38843500  0.40805000  1
  O  O37  1  0.73854500  0.61156500  0.59195000  1
  O  O38  1  0.73854500  0.61156500  0.40805000  1
  O  O39  1  0.23854500  0.88843500  0.09195000  1
  O  O40  1  0.26145500  0.38843500  0.59195000  1
  O  O41  1  0.76145500  0.11156500  0.90805000  1
  O  O42  1  0.76145500  0.11156500  0.09195000  1
  O  O43  1  0.23854500  0.88843500  0.90805000  1
  O  O44  1  0.05734100  0.08964900  0.20412600  1
  O  O45  1  0.94265900  0.91035100  0.79587400  1
  O  O46  1  0.94265900  0.91035100  0.20412600  1
  O  O47  1  0.44265900  0.58964900  0.29587400  1
  O  O48  1  0.05734100  0.08964900  0.79587400  1
  O  O49  1  0.55734100  0.41035100  0.70412600  1
  O  O50  1  0.55734100  0.41035100  0.29587400  1
  O  O51  1  0.44265900  0.58964900  0.70412600  1
  O  O52  1  0.35336300  0.22481600  0.21465000  1
  O  O53  1  0.64663700  0.77518400  0.78535000  1
  O  O54  1  0.64663700  0.77518400  0.21465000  1
  O  O55  1  0.14663700  0.72481600  0.28535000  1
  O  O56  1  0.35336300  0.22481600  0.78535000  1
  O  O57  1  0.85336300  0.27518400  0.71465000  1
  O  O58  1  0.85336300  0.27518400  0.28535000  1
  O  O59  1  0.14663700  0.72481600  0.71465000  1
loop_
_geom_bond_atom_site_label_1
_geom_bond_atom_site_label_2
_geom_bond_distance
_geom_bond_site_symmetry_2
Li0 O44 2.106850 1_555
Li0 O0 2.206874 1_555
Li0 O27 2.208398 1_555
Li0 O12 2.229810 1_555
Li0 O36 2.398854 1_555
Li0 O58 2.475120 1_455
Li0 O52 2.492519 1_555
Li1 O45 2.106850 1_555
Li1 O1 2.206874 1_555
Li1 O26 2.208398 1_555
Li1 O13 2.229810 1_555
Li1 O37 2.398854 1_555
Li1 O59 2.475120 1_655
Li1 O53 2.492519 1_555
Li2 O46 2.106850 1_555
Li2 O2 2.206874 1_555
Li2 O26 2.208398 1_555
Li2 O14 2.229810 1_555
Li2 O38 2.398854 1_555
Li2 O55 2.475120 1_655
Li2 O54 2.492519 1_555
Li3 O47 2.106850 1_555
Li3 O3 2.206874 1_555
Li3 O25 2.208398 1_555
Li3 O15 2.229810 1_555
Li3 O39 2.398854 1_555
Li3 O54 2.475120 1_555
Li3 O55 2.492519 1_555
Li4 O48 2.106850 1_555
Li4 O4 2.206874 1_555
Li4 O27 2.208398 1_555
Li4 O16 2.229810 1_555
Li4 O40 2.398854 1_555
Li4 O57 2.475120 1_455
Li4 O56 2.492519 1_555
Li5 O49 2.106850 1_555
Li5 O5 2.206874 1_555
Li5 O24 2.208398 1_556
Li5 O17 2.229810 1_555
Li5 O41 2.398854 1_555
Li5 O56 2.475120 1_555
Li5 O57 2.492519 1_555
Li6 O50 2.106850 1_555
Li6 O6 2.206874 1_555
Li6 O24 2.208398 1_555
Li6 O18 2.229810 1_555
Li6 O42 2.398854 1_555
Li6 O52 2.475120 1_555
Li6 O58 2.492519 1_555
Li7 O51 2.106850 1_555
Li7 O7 2.206874 1_555
Li7 O25 2.208398 1_556
Li7 O19 2.229810 1_555
Li7 O43 2.398854 1_555
Li7 O53 2.475120 1_555
Li7 O59 2.492519 1_555
La0 O46 2.668584 1_445
La0 O48 2.668584 1_554
La0 O44 2.668584 1_555
La0 O45 2.668584 1_444
La0 O8 2.673232 1_555
La0 O9 2.673232 1_445
La0 O41 2.702180 1_454
La0 O39 2.702180 1_545
La0 O43 2.702180 1_544
La0 O42 2.702180 1_455
La0 O20 2.705279 1_555
La0 O21 2.705279 1_445
La1 O47 2.668584 1_555
La1 O50 2.668584 1_555
La1 O51 2.668584 1_555
La1 O49 2.668584 1_555
La1 O11 2.673232 1_555
La1 O10 2.673232 1_555
La1 O36 2.702180 1_555
La1 O40 2.702180 1_555
La1 O37 2.702180 1_555
La1 O38 2.702180 1_555
La1 O23 2.705279 1_555
La1 O22 2.705279 1_555
La2 O3 2.642651 1_555
La2 O7 2.642651 1_554
La2 O6 2.642651 1_455
La2 O5 2.642651 1_454
La2 O32 2.689528 1_555
La2 O33 2.689528 1_455
La2 O9 2.721688 1_455
La2 O8 2.721688 1_555
La2 O14 2.790720 1_455
La2 O12 2.790720 1_555
La2 O16 2.790720 1_554
La2 O13 2.790720 1_454
La3 O0 2.642651 1_555
La3 O4 2.642651 1_555
La3 O1 2.642651 1_545
La3 O2 2.642651 1_545
La3 O34 2.689528 1_545
La3 O35 2.689528 1_555
La3 O10 2.721688 1_545
La3 O11 2.721688 1_555
La3 O18 2.790720 1_555
La3 O19 2.790720 1_545
La3 O15 2.790720 1_545
La3 O17 2.790720 1_555
N0 O28 1.228098 1_555
N0 O46 1.288881 1_445
N0 O44 1.288881 1_555
N1 O29 1.228098 1_555
N1 O45 1.288881 1_445
N1 O48 1.288881 1_555
N2 O30 1.228098 1_555
N2 O50 1.288881 1_555
N2 O47 1.288881 1_555
N3 O31 1.228098 1_555
N3 O51 1.288881 1_555
N3 O49 1.288881 1_555
N4 O20 1.247786 1_555
N4 O32 1.251795 1_555
N4 O8 1.306089 1_555
N5 O21 1.247786 1_555
N5 O33 1.251795 1_555
N5 O9 1.306089 1_555
N6 O22 1.247786 1_555
N6 O34 1.251795 1_555
N6 O10 1.306089 1_555
N7 O23 1.247786 1_555
N7 O35 1.251795 1_555
N7 O11 1.306089 1_555
N8 O52 1.239496 1_555
N8 O18 1.275896 1_555
N8 O0 1.289044 1_555
N9 O53 1.239496 1_555
N9 O19 1.275896 1_555
N9 O1 1.289044 1_555
N10 O54 1.239496 1_555
N10 O15 1.275896 1_555
N10 O2 1.289044 1_555
N11 O55 1.239496 1_555
N11 O14 1.275896 1_455
N11 O3 1.289044 1_555
N12 O56 1.239496 1_555
N12 O17 1.275896 1_555
N12 O4 1.289044 1_555
N13 O57 1.239496 1_555
N13 O16 1.275896 1_655
N13 O5 1.289044 1_555
N14 O58 1.239496 1_555
N14 O12 1.275896 1_655
N14 O6 1.289044 1_555
N15 O59 1.239496 1_555
N15 O13 1.275896 1_455
N15 O7 1.289044 1_555
N16 O24 1.256768 1_555
N16 O41 1.272962 1_554
N16 O42 1.272962 1_555
N17 O25 1.256768 1_555
N17 O43 1.272962 1_554
N17 O39 1.272962 1_555
N18 O26 1.256768 1_555
N18 O38 1.272962 1_555
N18 O37 1.272962 1_555
N19 O27 1.256768 1_555
N19 O40 1.272962 1_555
N19 O36 1.272962 1_555
