# generated using pymatgen
data_Mg(AgO2)2
_symmetry_space_group_name_H-M   'P 1'
_cell_length_a   6.15109994
_cell_length_b   6.15109994
_cell_length_c   6.15109994
_cell_angle_alpha   116.04477193
_cell_angle_beta   113.77808809
_cell_angle_gamma   99.07523719
_symmetry_Int_Tables_number   1
_chemical_formula_structural   Mg(AgO2)2
_chemical_formula_sum   'Mg2 Ag4 O8'
_cell_volume   174.77037349
_cell_formula_units_Z   2
loop_
 _symmetry_equiv_pos_site_id
 _symmetry_equiv_pos_as_xyz
  1  'x, y, z'
loop_
 _atom_site_type_symbol
 _atom_site_label
 _atom_site_symmetry_multiplicity
 _atom_site_fract_x
 _atom_site_fract_y
 _atom_site_fract_z
 _atom_site_occupancy
  Mg  Mg0  1  0.00000000  0.50000000  0.00000000  1
  Mg  Mg1  1  0.00000000  0.00000000  0.50000000  1
  Ag  Ag0  1  0.59879500  0.84879500  0.75000000  1
  Ag  Ag1  1  0.40120500  0.15120500  0.25000000  1
  Ag  Ag2  1  0.00000000  0.50000000  0.50000000  1
  Ag  Ag3  1  0.50000000  0.50000000  0.00000000  1
  O  O0  1  0.79553600  0.24391300  0.55162300  1
  O  O1  1  0.26404400  0.71996700  0.95592300  1
  O  O2  1  0.19229000  0.24391300  0.94837700  1
  O  O3  1  0.26404400  0.30812100  0.54407700  1
  O  O4  1  0.73595600  0.69187900  0.45592300  1
  O  O5  1  0.73595600  0.28003300  0.04407700  1
  O  O6  1  0.80771000  0.75608700  0.05162300  1
  O  O7  1  0.20446400  0.75608700  0.44837700  1
loop_
_geom_bond_atom_site_label_1
_geom_bond_atom_site_label_2
_geom_bond_distance
_geom_bond_site_symmetry_2
Mg0 O7 2.105356 1_555
Mg0 O6 2.105356 1_455
Mg0 O0 2.105356 1_454
Mg0 O2 2.105356 1_554
Mg0 O1 2.127464 1_554
Mg0 O5 2.127464 1_455
Mg1 O2 2.105356 1_555
Mg1 O7 2.105356 1_545
Mg1 O0 2.105356 1_455
Mg1 O6 2.105356 1_445
Mg1 O4 2.127464 1_445
Mg1 O3 2.127464 1_555
Ag0 O6 2.157875 1_556
Ag0 O7 2.157875 1_555
Ag0 O4 2.206786 1_555
Ag0 O5 2.206786 1_566
Ag1 O0 2.157875 1_555
Ag1 O2 2.157875 1_554
Ag1 O3 2.206786 1_555
Ag1 O1 2.206786 1_544
Ag2 O7 2.073694 1_555
Ag2 O0 2.073694 1_455
Ag2 O3 2.152922 1_555
Ag2 O1 2.152922 1_555
Ag2 O5 2.152922 1_455
Ag2 O4 2.152922 1_455
Ag3 O2 2.073694 1_554
Ag3 O6 2.073694 1_555
Ag3 O4 2.152922 1_555
Ag3 O1 2.152922 1_554
Ag3 O5 2.152922 1_555
Ag3 O3 2.152922 1_554
