# generated using pymatgen
data_NaPr3Mn4O12
_symmetry_space_group_name_H-M   'P 1'
_cell_length_a   7.73306300
_cell_length_b   5.50763600
_cell_length_c   5.51722862
_cell_angle_alpha   89.61955736
_cell_angle_beta   90.00000000
_cell_angle_gamma   90.00000000
_symmetry_Int_Tables_number   1
_chemical_formula_structural   NaPr3Mn4O12
_chemical_formula_sum   'Na1 Pr3 Mn4 O12'
_cell_volume   234.97853139
_cell_formula_units_Z   1
loop_
 _symmetry_equiv_pos_site_id
 _symmetry_equiv_pos_as_xyz
  1  'x, y, z'
loop_
 _atom_site_type_symbol
 _atom_site_label
 _atom_site_symmetry_multiplicity
 _atom_site_fract_x
 _atom_site_fract_y
 _atom_site_fract_z
 _atom_site_occupancy
  Na  Na0  1  0.00000000  0.49519600  0.47878300  1
  Pr  Pr0  1  0.00000000  0.00924300  0.96357600  1
  Pr  Pr1  1  0.50000000  0.50797900  0.53536500  1
  Pr  Pr2  1  0.50000000  0.99758300  0.03105800  1
  Mn  Mn0  1  0.24482400  0.00155500  0.49790800  1
  Mn  Mn1  1  0.75569200  0.50006700  0.00388100  1
  Mn  Mn2  1  0.75517600  0.00155500  0.49790800  1
  Mn  Mn3  1  0.24430800  0.50006700  0.00388100  1
  O  O0  1  0.22322200  0.20641000  0.20741200  1
  O  O1  1  0.78309500  0.27468700  0.72381500  1
  O  O2  1  0.71018500  0.77914800  0.77943600  1
  O  O3  1  0.29805400  0.72770300  0.27491200  1
  O  O4  1  0.28981500  0.77914800  0.77943600  1
  O  O5  1  0.70194600  0.72770300  0.27491200  1
  O  O6  1  0.77677800  0.20641000  0.20741200  1
  O  O7  1  0.21690500  0.27468700  0.72381500  1
  O  O8  1  0.00000000  0.57439600  0.01920100  1
  O  O9  1  0.00000000  0.92845700  0.51565500  1
  O  O10  1  0.50000000  0.43547300  0.98784000  1
  O  O11  1  0.50000000  0.07253300  0.49379400  1
loop_
_geom_bond_atom_site_label_1
_geom_bond_atom_site_label_2
_geom_bond_distance
_geom_bond_site_symmetry_2
Na0 O9 2.396245 1_555
Na0 O7 2.468656 1_555
Na0 O1 2.468656 1_455
Na0 O8 2.570010 1_555
Na0 O0 2.789765 1_555
Na0 O6 2.789765 1_455
Na0 O3 2.863272 1_555
Na0 O5 2.863272 1_455
Mn0 O9 1.937912 1_545
Mn0 O0 1.961028 1_555
Mn0 O7 1.971783 1_555
Mn0 O3 1.995663 1_545
Mn0 O4 2.002211 1_545
Mn0 O11 2.011740 1_555
Mn1 O8 1.935060 1_655
Mn1 O6 1.969588 1_555
Mn1 O2 1.998647 1_554
Mn1 O1 1.999709 1_554
Mn1 O5 2.001383 1_555
Mn1 O10 2.011085 1_554
Mn2 O9 1.937912 1_645
Mn2 O6 1.961028 1_555
Mn2 O1 1.971783 1_555
Mn2 O5 1.995663 1_545
Mn2 O2 2.002211 1_545
Mn2 O11 2.011740 1_555
Mn3 O8 1.935060 1_555
Mn3 O0 1.969588 1_555
Mn3 O4 1.998647 1_554
Mn3 O7 1.999709 1_554
Mn3 O3 2.001383 1_555
Mn3 O10 2.011085 1_554
O0 Pr0 2.447078 1_554
O0 Pr2 2.620201 1_545
O1 Pr0 2.583599 1_655
O1 Pr1 2.739850 1_555
O2 Pr2 2.457362 1_556
O2 Pr1 2.590832 1_555
O2 Pr0 2.770924 1_665
O3 Pr1 2.438255 1_555
O3 Pr2 2.536082 1_555
O4 Pr2 2.457362 1_556
O4 Pr1 2.590832 1_555
O4 Pr0 2.770924 1_565
O5 Pr1 2.438255 1_555
O5 Pr2 2.536082 1_555
O6 Pr0 2.447078 1_654
O6 Pr2 2.620201 1_545
O7 Pr0 2.583599 1_555
O7 Pr1 2.739850 1_555
O8 Pr0 2.412540 1_564
O9 Pr0 2.513923 1_565
O10 Pr2 2.421921 1_546
O10 Pr1 2.525526 1_555
O11 Pr1 2.410736 1_555
O11 Pr2 2.588882 1_545
