# generated using pymatgen
data_AuNCl3
_symmetry_space_group_name_H-M   'P 1'
_cell_length_a   11.14375800
_cell_length_b   6.15368600
_cell_length_c   9.88484728
_cell_angle_alpha   53.28704614
_cell_angle_beta   90.00000000
_cell_angle_gamma   90.00000000
_symmetry_Int_Tables_number   1
_chemical_formula_structural   AuNCl3
_chemical_formula_sum   'Au4 N4 Cl12'
_cell_volume   543.39623255
_cell_formula_units_Z   4
loop_
 _symmetry_equiv_pos_site_id
 _symmetry_equiv_pos_as_xyz
  1  'x, y, z'
loop_
 _atom_site_type_symbol
 _atom_site_label
 _atom_site_symmetry_multiplicity
 _atom_site_fract_x
 _atom_site_fract_y
 _atom_site_fract_z
 _atom_site_occupancy
  Au  Au0  1  0.62393200  0.85031500  0.66144000  1
  Au  Au1  1  0.12393200  0.14968500  0.83856000  1
  Au  Au2  1  0.37606800  0.14968500  0.33856000  1
  Au  Au3  1  0.87606800  0.85031500  0.16144000  1
  N  N0  1  0.58828200  0.47113300  0.77757700  1
  N  N1  1  0.08828200  0.52886700  0.72242300  1
  N  N2  1  0.41171800  0.52886700  0.22242300  1
  N  N3  1  0.91171800  0.47113300  0.27757700  1
  Cl  Cl0  1  0.79055400  0.80371600  0.54258000  1
  Cl  Cl1  1  0.29055400  0.19628400  0.95742000  1
  Cl  Cl2  1  0.20944600  0.19628400  0.45742000  1
  Cl  Cl3  1  0.70944600  0.80371600  0.04258000  1
  Cl  Cl4  1  0.65788700  0.31775400  0.51026900  1
  Cl  Cl5  1  0.15788700  0.68224600  0.98973100  1
  Cl  Cl6  1  0.34211300  0.68224600  0.48973100  1
  Cl  Cl7  1  0.84211300  0.31775400  0.01026900  1
  Cl  Cl8  1  0.45595300  0.88053200  0.78692900  1
  Cl  Cl9  1  0.95595300  0.11946800  0.71307100  1
  Cl  Cl10  1  0.54404700  0.11946800  0.21307100  1
  Cl  Cl11  1  0.04404700  0.88053200  0.28692900  1
loop_
_geom_bond_atom_site_label_1
_geom_bond_atom_site_label_2
_geom_bond_distance
_geom_bond_site_symmetry_2
Au0 N0 1.928118 1_555
Au0 Cl0 2.305028 1_555
Au0 Cl8 2.313680 1_555
Au0 Cl4 2.347570 1_565
Au1 N1 1.928118 1_555
Au1 Cl1 2.305028 1_555
Au1 Cl9 2.313680 1_455
Au1 Cl5 2.347570 1_545
Au2 N2 1.928118 1_555
Au2 Cl2 2.305028 1_555
Au2 Cl10 2.313680 1_555
Au2 Cl6 2.347570 1_545
Au3 N3 1.928118 1_555
Au3 Cl3 2.305028 1_555
Au3 Cl11 2.313680 1_655
Au3 Cl7 2.347570 1_565
