# generated using pymatgen
data_Mg4Si3
_symmetry_space_group_name_H-M   'P 1'
_cell_length_a   6.83493967
_cell_length_b   7.21389587
_cell_length_c   10.85585246
_cell_angle_alpha   125.87856573
_cell_angle_beta   44.66887395
_cell_angle_gamma   125.21669337
_symmetry_Int_Tables_number   1
_chemical_formula_structural   Mg4Si3
_chemical_formula_sum   'Mg8 Si6'
_cell_volume   292.64302348
_cell_formula_units_Z   2
loop_
 _symmetry_equiv_pos_site_id
 _symmetry_equiv_pos_as_xyz
  1  'x, y, z'
loop_
 _atom_site_type_symbol
 _atom_site_label
 _atom_site_symmetry_multiplicity
 _atom_site_fract_x
 _atom_site_fract_y
 _atom_site_fract_z
 _atom_site_occupancy
  Mg  Mg0  1  0.27052700  0.53866100  0.20468200  1
  Mg  Mg1  1  0.68195000  0.14079100  0.90696700  1
  Mg  Mg2  1  0.68195100  0.64078900  0.40696600  1
  Mg  Mg3  1  0.00213400  0.47189700  0.66145300  1
  Mg  Mg4  1  0.40337300  0.56675700  0.87004800  1
  Mg  Mg5  1  0.40337300  0.06675700  0.37004800  1
  Mg  Mg6  1  0.27052700  0.03866100  0.70468200  1
  Mg  Mg7  1  0.00213500  0.97189600  0.16145200  1
  Si  Si0  1  0.34522800  0.30309200  0.28327200  1
  Si  Si1  1  0.90810300  0.27177800  0.07884900  1
  Si  Si2  1  0.34523000  0.80309200  0.78327100  1
  Si  Si3  1  0.76376400  0.33197900  0.49467500  1
  Si  Si4  1  0.76376400  0.83198000  0.99467500  1
  Si  Si5  1  0.90810300  0.77177800  0.57884900  1
loop_
_geom_bond_atom_site_label_1
_geom_bond_atom_site_label_2
_geom_bond_distance
_geom_bond_site_symmetry_2
Mg0 Si0 2.682562 1_555
Mg0 Si4 2.745043 1_554
Mg0 Si1 2.817592 1_455
Mg0 Si5 2.819490 1_455
Mg0 Si3 2.857764 1_455
Mg1 Si1 2.667408 1_556
Mg1 Si2 2.670128 1_545
Mg1 Si0 2.735790 1_556
Mg1 Si5 2.821966 1_545
Mg2 Si5 2.667406 1_555
Mg2 Si0 2.670128 1_555
Mg2 Si2 2.735790 1_555
Mg2 Si1 2.821954 1_555
Mg3 Si3 2.666117 1_455
Mg3 Si2 2.683649 1_555
Mg3 Si0 2.752594 1_555
Mg3 Si4 2.823420 1_455
Mg4 Si2 2.673667 1_555
Mg4 Si1 2.749019 1_456
Mg4 Si4 2.798063 1_555
Mg4 Si3 2.826006 1_555
Mg4 Si5 2.857585 1_555
Mg5 Si0 2.673669 1_555
Mg5 Si5 2.749019 1_445
Mg5 Si3 2.798064 1_555
Mg5 Si4 2.826004 1_544
Mg5 Si1 2.857585 1_555
Mg6 Si2 2.682563 1_545
Mg6 Si3 2.745039 1_555
Mg6 Si5 2.817592 1_445
Mg6 Si1 2.819490 1_456
Mg6 Si4 2.857760 1_445
Mg7 Si4 2.666119 1_454
Mg7 Si0 2.683648 1_565
Mg7 Si2 2.752594 1_554
Mg7 Si3 2.823425 1_465
Si1 Si4 2.479551 1_544
Si3 Si5 2.479557 1_555
