# generated using pymatgen
data_Sm3In5
_symmetry_space_group_name_H-M   'P 1'
_cell_length_a   6.47976708
_cell_length_b   6.47976643
_cell_length_c   10.46424701
_cell_angle_alpha   90.00009314
_cell_angle_beta   90.00009314
_cell_angle_gamma   101.48435019
_symmetry_Int_Tables_number   1
_chemical_formula_structural   Sm3In5
_chemical_formula_sum   'Sm6 In10'
_cell_volume   430.56978824
_cell_formula_units_Z   2
loop_
 _symmetry_equiv_pos_site_id
 _symmetry_equiv_pos_as_xyz
  1  'x, y, z'
loop_
 _atom_site_type_symbol
 _atom_site_label
 _atom_site_symmetry_multiplicity
 _atom_site_fract_x
 _atom_site_fract_y
 _atom_site_fract_z
 _atom_site_occupancy
  Sm  Sm0  1  0.13086422  0.13086422  0.25000000  1
  Sm  Sm1  1  0.86913478  0.86913478  0.75000000  1
  Sm  Sm2  1  0.70214920  0.29785080  0.99999800  1
  Sm  Sm3  1  0.70214820  0.29785080  0.50000200  1
  Sm  Sm4  1  0.29785080  0.70214920  0.99999800  1
  Sm  Sm5  1  0.29785080  0.70214820  0.50000200  1
  In  In0  1  0.00557340  0.57919969  0.25000000  1
  In  In1  1  0.42080131  0.99442760  0.75000000  1
  In  In2  1  0.99442760  0.42080131  0.75000000  1
  In  In3  1  0.57919969  0.00557340  0.25000000  1
  In  In4  1  0.18936441  0.18936441  0.95156889  1
  In  In5  1  0.81063459  0.81063459  0.04842911  1
  In  In6  1  0.18936441  0.18936441  0.54843211  1
  In  In7  1  0.81063459  0.81063459  0.45156989  1
  In  In8  1  0.51284717  0.51284717  0.25000000  1
  In  In9  1  0.48715283  0.48715283  0.75000000  1
loop_
_geom_bond_atom_site_label_1
_geom_bond_atom_site_label_2
_geom_bond_distance
_geom_bond_site_symmetry_2
In0 In7 3.007965 1_455
In0 In5 3.007973 1_455
In0 In8 3.135586 1_455
In0 Sm0 3.168270 1_555
In0 Sm5 3.234898 1_555
In0 Sm4 3.234906 1_554
In0 In8 3.398836 1_555
In0 Sm0 3.504521 1_565
In0 Sm2 3.550462 1_454
In0 Sm3 3.550474 1_455
In1 In6 3.007951 1_565
In1 In4 3.007959 1_565
In1 In9 3.135580 1_565
In1 Sm1 3.168263 1_555
In1 Sm5 3.234873 1_555
In1 Sm4 3.234876 1_555
In1 In9 3.398840 1_555
In1 Sm1 3.504534 1_455
In1 Sm2 3.550425 1_565
In1 Sm3 3.550432 1_565
In2 In6 3.007951 1_655
In2 In4 3.007959 1_655
In2 In9 3.135580 1_655
In2 Sm1 3.168263 1_555
In2 Sm3 3.234873 1_555
In2 Sm2 3.234876 1_555
In2 In9 3.398840 1_555
In2 Sm1 3.504534 1_545
In2 Sm4 3.550425 1_655
In2 Sm5 3.550432 1_655
In3 In7 3.007965 1_545
In3 In5 3.007973 1_545
In3 In8 3.135586 1_545
In3 Sm0 3.168270 1_555
In3 Sm3 3.234898 1_555
In3 Sm2 3.234906 1_554
In3 In8 3.398836 1_555
In3 Sm0 3.504521 1_655
In3 Sm4 3.550462 1_544
In3 Sm5 3.550474 1_545
In4 Sm0 3.159495 1_556
In4 In9 3.226933 1_555
In4 In5 3.267139 1_446
In4 Sm4 3.295661 1_555
In4 Sm2 3.295661 1_555
In4 Sm1 3.368355 1_445
In4 Sm4 3.406115 1_545
In4 Sm2 3.406115 1_455
In5 Sm1 3.159474 1_554
In5 In8 3.226941 1_555
In5 Sm2 3.295657 1_554
In5 Sm4 3.295658 1_554
In5 Sm0 3.368368 1_665
In5 Sm2 3.406121 1_564
In5 Sm4 3.406122 1_654
In6 Sm0 3.159503 1_555
In6 In9 3.226918 1_555
In6 In7 3.267141 1_445
In6 Sm5 3.295658 1_555
In6 Sm3 3.295658 1_555
In6 Sm1 3.368357 1_445
In6 Sm5 3.406121 1_545
In6 Sm3 3.406121 1_455
In7 Sm1 3.159482 1_555
In7 In8 3.226926 1_555
In7 Sm3 3.295661 1_555
In7 Sm5 3.295661 1_555
In7 Sm0 3.368370 1_665
In7 Sm3 3.406124 1_565
In7 Sm5 3.406125 1_655
In8 Sm0 3.132618 1_555
In8 Sm3 3.312064 1_555
In8 Sm5 3.312064 1_555
In8 Sm2 3.312066 1_554
In8 Sm4 3.312066 1_554
In9 Sm1 3.132610 1_555
In9 Sm5 3.312031 1_555
In9 Sm3 3.312031 1_555
In9 Sm4 3.312033 1_555
In9 Sm2 3.312033 1_555
