# generated using pymatgen
data_MgCr2O4
_symmetry_space_group_name_H-M   'P 1'
_cell_length_a   6.03712581
_cell_length_b   6.03712581
_cell_length_c   6.03712602
_cell_angle_alpha   59.44126560
_cell_angle_beta   59.44126560
_cell_angle_gamma   59.44127535
_symmetry_Int_Tables_number   1
_chemical_formula_structural   MgCr2O4
_chemical_formula_sum   'Mg2 Cr4 O8'
_cell_volume   153.61009128
_cell_formula_units_Z   2
loop_
 _symmetry_equiv_pos_site_id
 _symmetry_equiv_pos_as_xyz
  1  'x, y, z'
loop_
 _atom_site_type_symbol
 _atom_site_label
 _atom_site_symmetry_multiplicity
 _atom_site_fract_x
 _atom_site_fract_y
 _atom_site_fract_z
 _atom_site_occupancy
  Mg  Mg0  1  0.00333300  0.00333300  0.00333300  1
  Mg  Mg1  1  0.62718200  0.62718200  0.62718200  1
  Cr  Cr0  1  0.24475700  0.24475700  0.24475700  1
  Cr  Cr1  1  0.62608200  0.62608200  0.11959000  1
  Cr  Cr2  1  0.11959000  0.62608200  0.62608200  1
  Cr  Cr3  1  0.62608200  0.11959000  0.62608200  1
  O  O0  1  0.37795900  0.85137200  0.37795900  1
  O  O1  1  0.85137200  0.37795900  0.37795900  1
  O  O2  1  0.37795900  0.37795900  0.85137200  1
  O  O3  1  0.38522100  0.38522100  0.38522100  1
  O  O4  1  0.86509500  0.86509500  0.86509500  1
  O  O5  1  0.86906300  0.86906300  0.40724300  1
  O  O6  1  0.40724300  0.86906300  0.86906300  1
  O  O7  1  0.86906300  0.40724300  0.86906300  1
loop_
_geom_bond_atom_site_label_1
_geom_bond_atom_site_label_2
_geom_bond_distance
_geom_bond_site_symmetry_2
Mg0 O5 1.977003 1_445
Mg0 O7 1.977003 1_454
Mg0 O6 1.977003 1_544
Mg0 O4 2.052836 1_444
Mg1 O5 2.062256 1_555
Mg1 O6 2.062257 1_555
Mg1 O7 2.062257 1_555
Mg1 O2 2.126019 1_555
Mg1 O1 2.126019 1_555
Mg1 O0 2.126019 1_555
Cr0 O2 1.925403 1_554
Cr0 O0 1.925403 1_545
Cr0 O1 1.925403 1_455
Cr0 O3 2.085892 1_555
Cr1 O6 1.997501 1_554
Cr1 O7 1.997501 1_554
Cr1 O4 2.033062 1_554
Cr1 O3 2.051410 1_555
Cr1 O1 2.058256 1_555
Cr1 O0 2.058256 1_555
Cr2 O7 1.997501 1_455
Cr2 O5 1.997501 1_455
Cr2 O4 2.033063 1_455
Cr2 O3 2.051411 1_555
Cr2 O0 2.058255 1_555
Cr2 O2 2.058256 1_555
Cr3 O6 1.997501 1_545
Cr3 O5 1.997501 1_545
Cr3 O4 2.033063 1_545
Cr3 O3 2.051411 1_555
Cr3 O1 2.058255 1_555
Cr3 O2 2.058256 1_555
