# generated using pymatgen
data_EuZrO3
_symmetry_space_group_name_H-M   'P 1'
_cell_length_a   5.74546581
_cell_length_b   5.84474033
_cell_length_c   8.16592340
_cell_angle_alpha   90.00005380
_cell_angle_beta   90.00011310
_cell_angle_gamma   90.00000107
_symmetry_Int_Tables_number   1
_chemical_formula_structural   EuZrO3
_chemical_formula_sum   'Eu4 Zr4 O12'
_cell_volume   274.21787904
_cell_formula_units_Z   4
loop_
 _symmetry_equiv_pos_site_id
 _symmetry_equiv_pos_as_xyz
  1  'x, y, z'
loop_
 _atom_site_type_symbol
 _atom_site_label
 _atom_site_symmetry_multiplicity
 _atom_site_fract_x
 _atom_site_fract_y
 _atom_site_fract_z
 _atom_site_occupancy
  Eu  Eu0  1  0.01149664  0.54370337  0.25000009  1
  Eu  Eu1  1  0.51148578  0.95629232  0.74999982  1
  Eu  Eu2  1  0.48849910  0.04368653  0.25000105  1
  Eu  Eu3  1  0.98850592  0.45630921  0.74999734  1
  Zr  Zr0  1  0.00000970  -0.00000983  -0.00001465  1
  Zr  Zr1  1  0.50000076  0.50002170  0.50002203  1
  Zr  Zr2  1  0.00000358  -0.00000450  0.50001701  1
  Zr  Zr3  1  0.49999542  0.50002041  -0.00002326  1
  O  O0  1  0.58738111  0.47590486  0.24999589  1
  O  O1  1  0.91262099  0.97591529  0.25000567  1
  O  O2  1  0.41262968  0.52408802  0.75000461  1
  O  O3  1  0.08737562  0.02408314  0.74999471  1
  O  O4  1  0.20986802  0.28909254  0.04694658  1
  O  O5  1  0.29013678  0.78909637  0.45305101  1
  O  O6  1  0.79014616  0.71091421  0.54693179  1
  O  O7  1  0.70985419  0.21091956  0.95306388  1
  O  O8  1  0.79013115  0.71090473  0.95306238  1
  O  O9  1  0.70986426  0.21090497  0.54693537  1
  O  O10  1  0.20985211  0.28908065  0.45306003  1
  O  O11  1  0.29014605  0.78907844  0.04694865  1
loop_
_geom_bond_atom_site_label_1
_geom_bond_atom_site_label_2
_geom_bond_distance
_geom_bond_site_symmetry_2
Eu0 O0 2.468751 1_455
Eu0 O4 2.502580 1_555
Eu0 O10 2.502613 1_555
Eu0 O1 2.589255 1_455
Eu0 O11 2.714631 1_555
Eu0 O5 2.714647 1_555
Eu0 O6 2.907195 1_455
Eu0 O8 2.907252 1_454
Eu1 O3 2.468714 1_565
Eu1 O9 2.502665 1_565
Eu1 O7 2.502683 1_565
Eu1 O2 2.589186 1_555
Eu1 O8 2.714708 1_555
Eu1 O6 2.714759 1_555
Eu1 O5 2.907274 1_555
Eu1 O11 2.907292 1_556
Eu2 O1 2.468762 1_545
Eu2 O5 2.502467 1_545
Eu2 O11 2.502513 1_545
Eu2 O0 2.589299 1_555
Eu2 O4 2.714676 1_555
Eu2 O10 2.714718 1_555
Eu2 O9 2.907260 1_555
Eu2 O7 2.907289 1_554
Eu3 O2 2.468780 1_655
Eu3 O6 2.502593 1_555
Eu3 O8 2.502598 1_555
Eu3 O3 2.589328 1_655
Eu3 O9 2.714742 1_555
Eu3 O7 2.714759 1_555
Eu3 O10 2.907257 1_655
Eu3 O4 2.907352 1_656
O0 Zr3 2.107183 1_555
O0 Zr1 2.107233 1_555
O1 Zr2 2.107103 1_665
O1 Zr0 2.107183 1_665
O2 Zr3 2.106765 1_556
O2 Zr1 2.106856 1_555
O3 Zr2 2.106826 1_555
O3 Zr0 2.106924 1_556
O4 Zr3 2.108452 1_555
O4 Zr0 2.110931 1_555
O5 Zr2 2.108374 1_565
O5 Zr1 2.110835 1_555
O6 Zr1 2.108322 1_555
O6 Zr2 2.110762 1_665
O7 Zr0 2.108512 1_656
O7 Zr3 2.110855 1_556
O8 Zr3 2.108259 1_556
O8 Zr0 2.110862 1_666
O9 Zr2 2.108366 1_655
O9 Zr1 2.110945 1_555
O10 Zr1 2.108580 1_555
O10 Zr2 2.110814 1_555
O11 Zr0 2.108427 1_565
O11 Zr3 2.110711 1_555
