# generated using pymatgen
data_NdSbIr
_symmetry_space_group_name_H-M   'P 1'
_cell_length_a   4.58046187
_cell_length_b   7.41257641
_cell_length_c   7.95637636
_cell_angle_alpha   90.00000000
_cell_angle_beta   90.00000000
_cell_angle_gamma   90.00000000
_symmetry_Int_Tables_number   1
_chemical_formula_structural   NdSbIr
_chemical_formula_sum   'Nd4 Sb4 Ir4'
_cell_volume   270.14303436
_cell_formula_units_Z   4
loop_
 _symmetry_equiv_pos_site_id
 _symmetry_equiv_pos_as_xyz
  1  'x, y, z'
loop_
 _atom_site_type_symbol
 _atom_site_label
 _atom_site_symmetry_multiplicity
 _atom_site_fract_x
 _atom_site_fract_y
 _atom_site_fract_z
 _atom_site_occupancy
  Nd  Nd0  1  0.25000000  0.51514515  0.19200804  1
  Nd  Nd1  1  0.75000000  0.48485485  0.80799196  1
  Nd  Nd2  1  0.75000000  0.98485485  0.69200804  1
  Nd  Nd3  1  0.25000000  0.01514515  0.30799196  1
  Sb  Sb0  1  0.25000000  0.67584046  0.58676059  1
  Sb  Sb1  1  0.75000000  0.32415954  0.41323941  1
  Sb  Sb2  1  0.75000000  0.82415954  0.08676059  1
  Sb  Sb3  1  0.25000000  0.17584046  0.91323941  1
  Ir  Ir0  1  0.25000000  0.79844963  0.90951555  1
  Ir  Ir1  1  0.75000000  0.20155037  0.09048445  1
  Ir  Ir2  1  0.75000000  0.70155037  0.40951555  1
  Ir  Ir3  1  0.25000000  0.29844963  0.59048445  1
loop_
_geom_bond_atom_site_label_1
_geom_bond_atom_site_label_2
_geom_bond_distance
_geom_bond_site_symmetry_2
Nd0 Sb1 3.216777 1_455
Nd0 Sb1 3.216777 1_555
Nd0 Sb2 3.345623 1_555
Nd0 Sb2 3.345623 1_455
Nd0 Sb3 3.353403 1_554
Nd0 Sb0 3.359092 1_555
Nd1 Sb0 3.216777 1_655
Nd1 Sb0 3.216777 1_555
Nd1 Sb3 3.345623 1_555
Nd1 Sb3 3.345623 1_655
Nd1 Sb2 3.353403 1_556
Nd1 Sb1 3.359092 1_555
Nd2 Sb3 3.216777 1_565
Nd2 Sb3 3.216777 1_665
Nd2 Sb0 3.345623 1_655
Nd2 Sb0 3.345623 1_555
Nd2 Sb1 3.353403 1_565
Nd2 Sb2 3.359092 1_556
Nd3 Sb2 3.216777 1_545
Nd3 Sb2 3.216777 1_445
Nd3 Sb1 3.345623 1_455
Nd3 Sb1 3.345623 1_555
Nd3 Sb0 3.353403 1_545
Nd3 Sb3 3.359092 1_554
Ir0 Sb2 2.696335 1_456
Ir0 Sb2 2.696335 1_556
Ir0 Sb0 2.724046 1_555
Ir0 Sb3 2.797595 1_565
Ir0 Nd0 3.076012 1_556
Ir0 Nd2 3.185789 1_555
Ir0 Nd2 3.185789 1_455
Ir0 Nd1 3.361717 1_555
Ir0 Nd1 3.361717 1_455
Ir0 Nd3 3.554114 1_566
Ir1 Sb3 2.696335 1_654
Ir1 Sb3 2.696335 1_554
Ir1 Sb1 2.724046 1_555
Ir1 Sb2 2.797595 1_545
Ir1 Nd1 3.076012 1_554
Ir1 Nd3 3.185789 1_555
Ir1 Nd3 3.185789 1_655
Ir1 Nd0 3.361717 1_655
Ir1 Nd0 3.361717 1_555
Ir1 Nd2 3.554114 1_544
Ir2 Sb0 2.696335 1_655
Ir2 Sb0 2.696335 1_555
Ir2 Sb2 2.724046 1_555
Ir2 Sb1 2.797595 1_555
Ir2 Nd2 3.076012 1_555
Ir2 Nd0 3.185789 1_655
Ir2 Nd0 3.185789 1_555
Ir2 Nd3 3.361717 1_565
Ir2 Nd3 3.361717 1_665
Ir2 Nd1 3.554114 1_555
Ir3 Sb1 2.696335 1_455
Ir3 Sb1 2.696335 1_555
Ir3 Sb3 2.724046 1_555
Ir3 Sb0 2.797595 1_555
Ir3 Nd3 3.076012 1_555
Ir3 Nd1 3.185789 1_455
Ir3 Nd1 3.185789 1_555
Ir3 Nd2 3.361717 1_545
Ir3 Nd2 3.361717 1_445
Ir3 Nd0 3.554114 1_555
