# generated using pymatgen
data_AuI3N
_symmetry_space_group_name_H-M   'P 1'
_cell_length_a   10.07942400
_cell_length_b   7.62573900
_cell_length_c   12.79086292
_cell_angle_alpha   54.37484224
_cell_angle_beta   90.00000000
_cell_angle_gamma   90.00000000
_symmetry_Int_Tables_number   1
_chemical_formula_structural   AuI3N
_chemical_formula_sum   'Au4 I12 N4'
_cell_volume   799.14443182
_cell_formula_units_Z   4
loop_
 _symmetry_equiv_pos_site_id
 _symmetry_equiv_pos_as_xyz
  1  'x, y, z'
loop_
 _atom_site_type_symbol
 _atom_site_label
 _atom_site_symmetry_multiplicity
 _atom_site_fract_x
 _atom_site_fract_y
 _atom_site_fract_z
 _atom_site_occupancy
  Au  Au0  1  0.00000000  0.00000000  0.00000000  1
  Au  Au1  1  0.50000000  0.00000000  0.50000000  1
  Au  Au2  1  0.00000000  0.50000000  0.50000000  1
  Au  Au3  1  0.50000000  0.50000000  0.00000000  1
  I  I0  1  0.34835000  0.23868200  0.53878200  1
  I  I1  1  0.65165000  0.76131800  0.46121800  1
  I  I2  1  0.84835000  0.76131800  0.96121800  1
  I  I3  1  0.15165000  0.23868200  0.03878200  1
  I  I4  1  0.04474300  0.36176200  0.75160700  1
  I  I5  1  0.95525700  0.63823800  0.24839300  1
  I  I6  1  0.54474300  0.63823800  0.74839300  1
  I  I7  1  0.45525700  0.36176200  0.25160700  1
  I  I8  1  0.35565400  0.81582600  0.96786000  1
  I  I9  1  0.64434600  0.18417400  0.03214000  1
  I  I10  1  0.85565400  0.18417400  0.53214000  1
  I  I11  1  0.14434600  0.81582600  0.46786000  1
  N  N0  1  0.61595300  0.17763100  0.74825200  1
  N  N1  1  0.38404700  0.82236900  0.25174800  1
  N  N2  1  0.11595300  0.82236900  0.75174800  1
  N  N3  1  0.88404700  0.17763100  0.24825200  1
loop_
_geom_bond_atom_site_label_1
_geom_bond_atom_site_label_2
_geom_bond_distance
_geom_bond_site_symmetry_2
Au0 I2 2.635755 1_444
Au0 I3 2.635755 1_555
Au0 I4 2.774435 1_554
Au0 I5 2.774435 1_445
Au1 I1 2.635755 1_545
Au1 I0 2.635755 1_555
Au1 I7 2.774435 1_555
Au1 I6 2.774435 1_545
Au2 I10 2.633023 1_455
Au2 I11 2.633023 1_555
Au2 I5 2.778432 1_455
Au2 I4 2.778432 1_555
Au3 I9 2.633023 1_555
Au3 I8 2.633023 1_554
Au3 I6 2.778432 1_554
Au3 I7 2.778432 1_555
