# generated using pymatgen
data_Ba4GdY(Cu3O7)2
_symmetry_space_group_name_H-M   'P 1'
_cell_length_a   3.85745000
_cell_length_b   3.93085900
_cell_length_c   23.72171800
_cell_angle_alpha   90.00000000
_cell_angle_beta   90.00000000
_cell_angle_gamma   90.00000000
_symmetry_Int_Tables_number   1
_chemical_formula_structural   Ba4GdY(Cu3O7)2
_chemical_formula_sum   'Ba4 Gd1 Y1 Cu6 O14'
_cell_volume   359.69459361
_cell_formula_units_Z   1
loop_
 _symmetry_equiv_pos_site_id
 _symmetry_equiv_pos_as_xyz
  1  'x, y, z'
loop_
 _atom_site_type_symbol
 _atom_site_label
 _atom_site_symmetry_multiplicity
 _atom_site_fract_x
 _atom_site_fract_y
 _atom_site_fract_z
 _atom_site_occupancy
  Ba  Ba0  1  0.50000000  0.50000000  0.84032100  1
  Ba  Ba1  1  0.50000000  0.50000000  0.34046400  1
  Ba  Ba2  1  0.50000000  0.50000000  0.15967900  1
  Ba  Ba3  1  0.50000000  0.50000000  0.65953600  1
  Gd  Gd0  1  0.50000000  0.50000000  0.00000000  1
  Y  Y0  1  0.50000000  0.50000000  0.50000000  1
  Cu  Cu0  1  0.00000000  0.00000000  0.74996400  1
  Cu  Cu1  1  0.00000000  0.00000000  0.25003600  1
  Cu  Cu2  1  0.00000000  0.00000000  0.92542400  1
  Cu  Cu3  1  0.00000000  0.00000000  0.42613400  1
  Cu  Cu4  1  0.00000000  0.00000000  0.07457600  1
  Cu  Cu5  1  0.00000000  0.00000000  0.57386600  1
  O  O0  1  0.00000000  0.00000000  0.82925300  1
  O  O1  1  0.00000000  0.00000000  0.32944300  1
  O  O2  1  0.00000000  0.00000000  0.17074700  1
  O  O3  1  0.00000000  0.00000000  0.67055700  1
  O  O4  1  0.00000000  0.50000000  0.93784700  1
  O  O5  1  0.00000000  0.50000000  0.43934000  1
  O  O6  1  0.00000000  0.50000000  0.06215300  1
  O  O7  1  0.00000000  0.50000000  0.56066000  1
  O  O8  1  0.00000000  0.50000000  0.74986300  1
  O  O9  1  0.00000000  0.50000000  0.25013700  1
  O  O10  1  0.50000000  0.00000000  0.93830300  1
  O  O11  1  0.50000000  0.00000000  0.43980600  1
  O  O12  1  0.50000000  0.00000000  0.06169700  1
  O  O13  1  0.50000000  0.00000000  0.56019400  1
loop_
_geom_bond_atom_site_label_1
_geom_bond_atom_site_label_2
_geom_bond_distance
_geom_bond_site_symmetry_2
Ba0 O0 2.766194 1_665
Ba0 O0 2.766194 1_555
Ba0 O0 2.766194 1_565
Ba0 O0 2.766194 1_655
Ba0 O8 2.885224 1_555
Ba0 O8 2.885224 1_655
Ba0 O4 3.012008 1_555
Ba0 O4 3.012008 1_655
Ba0 O10 3.043894 1_565
Ba0 O10 3.043894 1_555
Ba1 O1 2.766088 1_655
Ba1 O1 2.766088 1_555
Ba1 O1 2.766088 1_565
Ba1 O1 2.766088 1_665
Ba1 O9 2.882914 1_555
Ba1 O9 2.882914 1_655
Ba1 O5 3.036674 1_655
Ba1 O5 3.036674 1_555
Ba1 O11 3.068599 1_565
Ba1 O11 3.068599 1_555
Ba2 O2 2.766194 1_555
Ba2 O2 2.766194 1_565
Ba2 O2 2.766194 1_665
Ba2 O2 2.766194 1_655
Ba2 O9 2.885224 1_555
Ba2 O9 2.885224 1_655
Ba2 O6 3.012008 1_655
Ba2 O6 3.012008 1_555
Ba2 O12 3.043894 1_555
Ba2 O12 3.043894 1_565
Ba3 O3 2.766088 1_655
Ba3 O3 2.766088 1_665
Ba3 O3 2.766088 1_565
Ba3 O3 2.766088 1_555
Ba3 O8 2.882914 1_555
Ba3 O8 2.882914 1_655
Ba3 O7 3.036674 1_655
Ba3 O7 3.036674 1_555
Ba3 O13 3.068599 1_555
Ba3 O13 3.068599 1_565
Gd0 O6 2.427708 1_655
Gd0 O6 2.427708 1_555
Gd0 O4 2.427708 1_554
Gd0 O4 2.427708 1_654
Gd0 O12 2.450493 1_555
Gd0 O12 2.450493 1_565
Gd0 O10 2.450493 1_564
Gd0 O10 2.450493 1_554
Cu0 O0 1.880871 1_555
Cu0 O3 1.883670 1_555
Cu0 O8 1.965431 1_545
Cu0 O8 1.965431 1_555
Cu1 O2 1.880871 1_555
Cu1 O1 1.883670 1_555
Cu1 O9 1.965431 1_545
Cu1 O9 1.965431 1_555
Cu2 O10 1.952772 1_455
Cu2 O10 1.952772 1_555
Cu2 O4 1.987400 1_545
Cu2 O4 1.987400 1_555
Cu2 O0 2.281341 1_555
Cu3 O11 1.955803 1_455
Cu3 O11 1.955803 1_555
Cu3 O5 1.990239 1_555
Cu3 O5 1.990239 1_545
Cu3 O1 2.293677 1_555
Cu4 O12 1.952772 1_555
Cu4 O12 1.952772 1_455
Cu4 O6 1.987400 1_555
Cu4 O6 1.987400 1_545
Cu4 O2 2.281341 1_555
Cu5 O13 1.955803 1_455
Cu5 O13 1.955803 1_555
Cu5 O7 1.990239 1_555
Cu5 O7 1.990239 1_545
Cu5 O3 2.293677 1_555
O5 Y0 2.406363 1_555
O5 Y0 2.406363 1_455
O7 Y0 2.406363 1_555
O7 Y0 2.406363 1_455
O11 Y0 2.429367 1_545
O11 Y0 2.429367 1_555
O13 Y0 2.429367 1_545
O13 Y0 2.429367 1_555
