# generated using pymatgen
data_NaCoO2
_symmetry_space_group_name_H-M   'P 1'
_cell_length_a   4.51327906
_cell_length_b   5.96294066
_cell_length_c   6.49387218
_cell_angle_alpha   93.51422424
_cell_angle_beta   89.98642731
_cell_angle_gamma   89.98860801
_symmetry_Int_Tables_number   1
_chemical_formula_structural   NaCoO2
_chemical_formula_sum   'Na4 Co4 O8'
_cell_volume   174.43714822
_cell_formula_units_Z   4
loop_
 _symmetry_equiv_pos_site_id
 _symmetry_equiv_pos_as_xyz
  1  'x, y, z'
loop_
 _atom_site_type_symbol
 _atom_site_label
 _atom_site_symmetry_multiplicity
 _atom_site_fract_x
 _atom_site_fract_y
 _atom_site_fract_z
 _atom_site_occupancy
  Na  Na0  1  0.24989000  0.12100000  0.12288100  1
  Na  Na1  1  0.24988700  0.62098700  0.12291800  1
  Na  Na2  1  0.74997500  0.37899700  0.87712000  1
  Na  Na3  1  0.74997500  0.87901000  0.87708600  1
  Co  Co0  1  0.24980400  0.62907500  0.62435100  1
  Co  Co1  1  0.74905900  0.87092700  0.37564600  1
  Co  Co2  1  0.24980500  0.12907700  0.62437800  1
  Co  Co3  1  0.74906000  0.37092400  0.37561700  1
  O  O0  1  0.75041200  0.11050100  0.58454800  1
  O  O1  1  0.75041200  0.61047900  0.58457300  1
  O  O2  1  0.25089500  0.38949800  0.41545300  1
  O  O3  1  0.25089500  0.88951900  0.41542700  1
  O  O4  1  0.74994700  0.14698300  0.17358300  1
  O  O5  1  0.74994700  0.64694300  0.17360500  1
  O  O6  1  0.25001800  0.35301800  0.82641600  1
  O  O7  1  0.25002000  0.85305800  0.82639500  1
loop_
_geom_bond_atom_site_label_1
_geom_bond_atom_site_label_2
_geom_bond_distance
_geom_bond_site_symmetry_2
Na0 O4 2.284060 1_455
Na0 O4 2.284783 1_555
Na0 O2 2.408351 1_555
Na0 O3 2.415743 1_545
Na0 O7 2.425396 1_544
Na0 O6 2.438657 1_554
Na1 O5 2.284023 1_455
Na1 O5 2.284773 1_555
Na1 O3 2.408170 1_555
Na1 O2 2.415714 1_555
Na1 O6 2.425572 1_554
Na1 O7 2.439162 1_554
Na2 O6 2.284337 1_555
Na2 O6 2.284506 1_655
Na2 O0 2.408338 1_555
Na2 O1 2.415748 1_555
Na2 O5 2.425405 1_556
Na2 O4 2.438631 1_556
Na3 O7 2.284307 1_555
Na3 O7 2.284493 1_655
Na3 O1 2.408180 1_555
Na3 O0 2.415733 1_565
Na3 O4 2.425562 1_566
Na3 O5 2.439126 1_556
Co0 O7 1.813964 1_555
Co0 O2 1.908805 1_555
Co0 O3 2.123883 1_555
Co0 O6 2.167098 1_555
Co0 O1 2.270667 1_455
Co0 O1 2.275950 1_555
Co1 O5 1.813957 1_555
Co1 O0 1.908817 1_565
Co1 O1 2.123918 1_555
Co1 O4 2.167088 1_565
Co1 O3 2.265002 1_555
Co1 O3 2.281618 1_655
Co2 O6 1.813764 1_555
Co2 O3 1.908954 1_545
Co2 O2 2.123782 1_555
Co2 O7 2.166714 1_545
Co2 O0 2.270704 1_455
Co2 O0 2.275978 1_555
Co3 O4 1.813749 1_555
Co3 O1 1.908970 1_555
Co3 O0 2.123821 1_555
Co3 O5 2.166696 1_555
Co3 O2 2.265041 1_555
Co3 O2 2.281649 1_655
