# generated using pymatgen
data_Ta4MoS10
_symmetry_space_group_name_H-M   'P 1'
_cell_length_a   14.05299986
_cell_length_b   14.05299986
_cell_length_c   6.63997808
_cell_angle_alpha   79.79133957
_cell_angle_beta   79.79133957
_cell_angle_gamma   13.53927747
_symmetry_Int_Tables_number   1
_chemical_formula_structural   Ta4MoS10
_chemical_formula_sum   'Ta4 Mo1 S10'
_cell_volume   302.06370968
_cell_formula_units_Z   1
loop_
 _symmetry_equiv_pos_site_id
 _symmetry_equiv_pos_as_xyz
  1  'x, y, z'
loop_
 _atom_site_type_symbol
 _atom_site_label
 _atom_site_symmetry_multiplicity
 _atom_site_fract_x
 _atom_site_fract_y
 _atom_site_fract_z
 _atom_site_occupancy
  Ta  Ta0  1  0.36982392  0.36982392  0.76082310  1
  Ta  Ta1  1  0.76688374  0.76688374  0.96663515  1
  Ta  Ta2  1  0.16735251  0.16735251  0.16499954  1
  Ta  Ta3  1  0.56110640  0.56110640  0.37742686  1
  Mo  Mo0  1  0.96741728  0.96741728  0.56532269  1
  S  S0  1  0.51446570  0.51446570  0.71800714  1
  S  S1  1  0.71615064  0.71615064  0.31353902  1
  S  S2  1  0.11532937  0.11532937  0.50739969  1
  S  S3  1  0.91828046  0.91828046  0.90744983  1
  S  S4  1  0.31774865  0.31774865  0.10768221  1
  S  S5  1  0.88561801  0.88561801  0.48522056  1
  S  S6  1  0.28523835  0.28523835  0.68682932  1
  S  S7  1  0.68333133  0.68333133  0.88706966  1
  S  S8  1  0.08332674  0.08332674  0.09393010  1
  S  S9  1  0.48122892  0.48122892  0.29056415  1
loop_
_geom_bond_atom_site_label_1
_geom_bond_atom_site_label_2
_geom_bond_distance
_geom_bond_site_symmetry_2
Mo0 S5 2.434856 1_555
Mo0 S3 2.435033 1_555
Mo0 S9 2.443374 1_655
Mo0 S9 2.443374 1_565
Mo0 S0 2.443654 1_565
Mo0 S0 2.443654 1_655
S0 Ta3 2.399554 1_555
S1 Ta2 2.459944 1_655
S1 Ta2 2.459944 1_565
S1 Ta1 2.479218 1_554
S2 Ta2 2.469576 1_555
S2 Ta3 2.499078 1_545
S2 Ta3 2.499078 1_455
S3 Ta0 2.447666 1_655
S3 Ta0 2.447666 1_565
S4 Ta1 2.472088 1_454
S4 Ta1 2.472088 1_544
S4 Ta0 2.494392 1_554
S5 Ta0 2.449359 1_655
S5 Ta0 2.449359 1_565
S6 Ta1 2.473583 1_545
S6 Ta1 2.473583 1_455
S6 Ta0 2.495744 1_555
S7 Ta2 2.460671 1_656
S7 Ta2 2.460671 1_566
S7 Ta1 2.481307 1_555
S8 Ta2 2.473361 1_555
S8 Ta3 2.501097 1_545
S8 Ta3 2.501097 1_455
S9 Ta3 2.400375 1_555
