# generated using pymatgen
data_LiAuF4
_symmetry_space_group_name_H-M   'P 1'
_cell_length_a   6.33655545
_cell_length_b   4.82142922
_cell_length_c   9.92172941
_cell_angle_alpha   86.73276775
_cell_angle_beta   90.00000000
_cell_angle_gamma   90.00000000
_symmetry_Int_Tables_number   1
_chemical_formula_structural   LiAuF4
_chemical_formula_sum   'Li4 Au4 F16'
_cell_volume   302.62857049
_cell_formula_units_Z   4
loop_
 _symmetry_equiv_pos_site_id
 _symmetry_equiv_pos_as_xyz
  1  'x, y, z'
loop_
 _atom_site_type_symbol
 _atom_site_label
 _atom_site_symmetry_multiplicity
 _atom_site_fract_x
 _atom_site_fract_y
 _atom_site_fract_z
 _atom_site_occupancy
  Li  Li0  1  0.40883953  0.50000000  0.25000000  1
  Li  Li1  1  0.90158271  -0.00000000  0.75000000  1
  Li  Li2  1  0.59116047  0.50000000  0.75000000  1
  Li  Li3  1  0.09841729  -0.00000000  0.25000000  1
  Au  Au0  1  0.00000000  0.50000000  0.50000000  1
  Au  Au1  1  0.00000000  0.50000000  -0.00000000  1
  Au  Au2  1  0.50000000  -0.00000000  -0.00000000  1
  Au  Au3  1  0.50000000  -0.00000000  0.50000000  1
  F  F0  1  0.90920805  0.80198631  0.37533247  1
  F  F1  1  0.09079195  0.19801369  0.62466753  1
  F  F2  1  0.59555130  0.30105366  0.37635315  1
  F  F3  1  0.09079195  0.80198631  0.87533247  1
  F  F4  1  0.64902143  0.18044064  0.64196839  1
  F  F5  1  0.15401196  0.32010066  0.35985732  1
  F  F6  1  0.84598804  0.67989934  0.64014268  1
  F  F7  1  0.84598804  0.32010066  0.85985732  1
  F  F8  1  0.35097857  0.18044064  0.14196839  1
  F  F9  1  0.15401196  0.67989934  0.14014268  1
  F  F10  1  0.90920805  0.19801369  0.12466753  1
  F  F11  1  0.59555130  0.69894634  0.12364685  1
  F  F12  1  0.64902143  0.81955936  0.85803161  1
  F  F13  1  0.35097857  0.81955936  0.35803161  1
  F  F14  1  0.40444870  0.69894634  0.62364685  1
  F  F15  1  0.40444870  0.30105366  0.87635315  1
loop_
_geom_bond_atom_site_label_1
_geom_bond_atom_site_label_2
_geom_bond_distance
_geom_bond_site_symmetry_2
Au0 F6 1.943083 1_455
Au0 F5 1.943083 1_555
Au0 F1 1.943094 1_555
Au0 F0 1.943094 1_455
Au1 F7 1.943083 1_454
Au1 F9 1.943083 1_555
Au1 F3 1.943094 1_554
Au1 F10 1.943094 1_455
Au2 F8 1.942240 1_555
Au2 F12 1.942240 1_544
Au2 F11 1.943067 1_545
Au2 F15 1.943067 1_554
Au3 F13 1.942240 1_545
Au3 F4 1.942240 1_555
Au3 F14 1.943067 1_545
Au3 F2 1.943067 1_555
F0 Li3 1.939051 1_665
F1 Li1 1.939051 1_455
F2 Li0 1.937620 1_555
F3 Li1 1.939051 1_465
F4 Li2 1.960971 1_555
F4 Li1 2.088215 1_555
F5 Li3 1.971243 1_555
F5 Li0 2.107122 1_555
F6 Li1 1.971243 1_565
F6 Li2 2.107122 1_555
F7 Li1 1.971243 1_555
F7 Li2 2.107122 1_555
F8 Li0 1.960971 1_555
F8 Li3 2.088215 1_555
F9 Li3 1.971243 1_565
F9 Li0 2.107122 1_555
F10 Li3 1.939051 1_655
F11 Li0 1.937620 1_555
F12 Li2 1.960971 1_555
F12 Li1 2.088215 1_565
F13 Li0 1.960971 1_555
F13 Li3 2.088215 1_565
F14 Li2 1.937620 1_555
F15 Li2 1.937620 1_555
