# generated using pymatgen
data_Mg3V6Cd2Cu3PbO24
_symmetry_space_group_name_H-M   'P 1'
_cell_length_a   7.09541288
_cell_length_b   9.00277617
_cell_length_c   9.01567629
_cell_angle_alpha   92.07996957
_cell_angle_beta   105.43787431
_cell_angle_gamma   105.91756963
_symmetry_Int_Tables_number   1
_chemical_formula_structural   Mg3V6Cd2Cu3PbO24
_chemical_formula_sum   'Mg3 V6 Cd2 Cu3 Pb1 O24'
_cell_volume   530.11902623
_cell_formula_units_Z   1
loop_
 _symmetry_equiv_pos_site_id
 _symmetry_equiv_pos_as_xyz
  1  'x, y, z'
loop_
 _atom_site_type_symbol
 _atom_site_label
 _atom_site_symmetry_multiplicity
 _atom_site_fract_x
 _atom_site_fract_y
 _atom_site_fract_z
 _atom_site_occupancy
  Mg  Mg0  1  0.13097000  0.05697700  0.38009300  1
  Mg  Mg1  1  0.62225700  0.37440500  0.05470200  1
  Mg  Mg2  1  0.87950800  0.94485200  0.62830000  1
  V  V0  1  0.87414600  0.65449900  0.87565300  1
  V  V1  1  0.62857500  0.12396700  0.34582400  1
  V  V2  1  0.12932400  0.34812600  0.12352400  1
  V  V3  1  0.36790000  0.87038100  0.65603000  1
  V  V4  1  0.74833300  0.71745700  0.28082400  1
  V  V5  1  0.25226900  0.28343200  0.72271000  1
  Cd  Cd0  1  0.25029500  0.74622200  0.25357500  1
  Cd  Cd1  1  0.74931300  0.26430400  0.73496600  1
  Cu  Cu0  1  0.25059700  0.48662300  0.51223000  1
  Cu  Cu1  1  0.75031600  0.51461500  0.48583600  1
  Cu  Cu2  1  0.35870200  0.61314400  0.93650400  1
  Pb  Pb0  1  0.74739300  0.98211500  0.00662800  1
  O  O0  1  0.10798100  0.65599300  0.00144300  1
  O  O1  1  0.38900100  0.00269300  0.34696900  1
  O  O2  1  0.88487900  0.33078500  0.00213500  1
  O  O3  1  0.61283800  0.99632900  0.67149900  1
  O  O4  1  0.68786500  0.59384700  0.96921800  1
  O  O5  1  0.82403500  0.03545300  0.40498700  1
  O  O6  1  0.32451200  0.40905900  0.02884400  1
  O  O7  1  0.17550900  0.96195300  0.59806900  1
  O  O8  1  0.75548000  0.73428200  0.47828700  1
  O  O9  1  0.74074800  0.51969600  0.26616500  1
  O  O10  1  0.24121700  0.27071200  0.52376700  1
  O  O11  1  0.26654400  0.48680100  0.73178400  1
  O  O12  1  0.88109500  0.84142900  0.82929900  1
  O  O13  1  0.61726000  0.17371700  0.16240000  1
  O  O14  1  0.10863800  0.16563600  0.17936300  1
  O  O15  1  0.39197400  0.81247700  0.84032300  1
  O  O16  1  0.96679400  0.83821400  0.24580800  1
  O  O17  1  0.53288100  0.75415000  0.16060600  1
  O  O18  1  0.02635400  0.16975800  0.74892800  1
  O  O19  1  0.47432200  0.25157600  0.83277500  1
  O  O20  1  0.81193500  0.52243000  0.70628900  1
  O  O21  1  0.68982400  0.29282400  0.47573400  1
  O  O22  1  0.19354500  0.48058800  0.29076300  1
  O  O23  1  0.30487300  0.70720100  0.51842800  1
loop_
_geom_bond_atom_site_label_1
_geom_bond_atom_site_label_2
_geom_bond_distance
_geom_bond_site_symmetry_2
Mg0 O14 2.077976 1_555
Mg0 O10 2.108637 1_555
Mg0 O1 2.109797 1_555
Mg0 O16 2.125846 1_445
Mg0 O7 2.152538 1_545
Mg0 O5 2.205169 1_455
Mg1 O13 2.078200 1_555
Mg1 O19 2.100595 1_554
Mg1 O9 2.101163 1_555
Mg1 O4 2.123842 1_554
Mg1 O2 2.170059 1_555
Mg1 O6 2.172431 1_555
Mg2 O12 2.065983 1_555
Mg2 O18 2.108983 1_665
Mg2 O8 2.112469 1_555
Mg2 O7 2.153944 1_655
Mg2 O5 2.178781 1_565
Mg2 O3 2.192449 1_555
Cd0 O0 2.245149 1_555
Cd0 O1 2.275982 1_565
Cd0 O17 2.355525 1_555
Cd0 O16 2.362234 1_455
Cd0 O22 2.365468 1_555
Cd0 O23 2.370299 1_555
Cd1 O20 2.281000 1_555
Cd1 O21 2.298733 1_555
Cd1 O18 2.323402 1_655
Cd1 O19 2.323471 1_555
Cd1 O3 2.325674 1_545
Cd1 O2 2.330539 1_556
Cu0 O23 1.912042 1_555
Cu0 O22 1.924391 1_555
Cu0 O10 1.934167 1_555
Cu0 O11 1.952273 1_555
Cu1 O20 1.912260 1_555
Cu1 O21 1.917126 1_555
Cu1 O9 1.966141 1_555
Cu1 O8 1.971872 1_555
Cu2 O11 1.981169 1_555
Cu2 O15 2.004404 1_555
Cu2 O6 2.025284 1_556
Cu2 O0 2.137951 1_556
Cu2 O17 2.201120 1_556
Cu2 O4 2.330557 1_555
O0 V0 1.738972 1_454
O1 V1 1.753250 1_555
O2 V2 1.748965 1_655
O3 V3 1.761858 1_555
O4 V0 1.728551 1_555
O5 V1 1.756738 1_555
O6 V2 1.787254 1_555
O7 V3 1.756408 1_555
O8 V4 1.767201 1_555
O9 V4 1.765434 1_555
O10 V5 1.772447 1_555
O11 V5 1.803356 1_555
O12 V0 1.739456 1_555
O12 Pb0 2.525801 1_556
O13 V1 1.715969 1_555
O13 Pb0 2.681134 1_545
O14 V2 1.715012 1_555
O14 Pb0 2.662733 1_445
O15 V3 1.738451 1_555
O15 Pb0 2.578444 1_556
O16 V4 1.745103 1_555
O17 V4 1.744049 1_555
O18 V5 1.729782 1_555
O19 V5 1.727849 1_555
O20 V0 1.778078 1_555
O21 V1 1.763233 1_555
O22 V2 1.763172 1_555
O23 V3 1.763287 1_555
