# generated using pymatgen
data_Cr(PO3)2
_symmetry_space_group_name_H-M   'P 1'
_cell_length_a   7.32928300
_cell_length_b   7.25223200
_cell_length_c   17.61020451
_cell_angle_alpha   82.06746533
_cell_angle_beta   90.00000000
_cell_angle_gamma   90.00000000
_symmetry_Int_Tables_number   1
_chemical_formula_structural   Cr(PO3)2
_chemical_formula_sum   'Cr8 P16 O48'
_cell_volume   927.09004454
_cell_formula_units_Z   8
loop_
 _symmetry_equiv_pos_site_id
 _symmetry_equiv_pos_as_xyz
  1  'x, y, z'
loop_
 _atom_site_type_symbol
 _atom_site_label
 _atom_site_symmetry_multiplicity
 _atom_site_fract_x
 _atom_site_fract_y
 _atom_site_fract_z
 _atom_site_occupancy
  Cr  Cr0  1  0.89090300  0.93656600  0.90088800  1
  Cr  Cr1  1  0.60909700  0.93656600  0.40088800  1
  Cr  Cr2  1  0.37694200  0.47288100  0.66033100  1
  Cr  Cr3  1  0.12305800  0.47288100  0.16033100  1
  Cr  Cr4  1  0.87694200  0.52711900  0.83966900  1
  Cr  Cr5  1  0.62305800  0.52711900  0.33966900  1
  Cr  Cr6  1  0.39090300  0.06343400  0.59911200  1
  Cr  Cr7  1  0.10909700  0.06343400  0.09911200  1
  P  P0  1  0.01825400  0.86225700  0.68631100  1
  P  P1  1  0.48174600  0.86225700  0.18631100  1
  P  P2  1  0.69709500  0.73803400  0.60069800  1
  P  P3  1  0.80290500  0.73803400  0.10069800  1
  P  P4  1  0.49512800  0.72876400  0.85444000  1
  P  P5  1  0.00487200  0.72876400  0.35444000  1
  P  P6  1  0.21497100  0.62090900  0.97085500  1
  P  P7  1  0.28502900  0.62090900  0.47085500  1
  P  P8  1  0.71497100  0.37909100  0.52914500  1
  P  P9  1  0.78502900  0.37909100  0.02914500  1
  P  P10  1  0.99512800  0.27123600  0.64556000  1
  P  P11  1  0.50487200  0.27123600  0.14556000  1
  P  P12  1  0.19709500  0.26196600  0.89930200  1
  P  P13  1  0.30290500  0.26196600  0.39930200  1
  P  P14  1  0.51825400  0.13774300  0.81368900  1
  P  P15  1  0.98174600  0.13774300  0.31368900  1
  O  O0  1  0.43773300  0.92993800  0.81058500  1
  O  O1  1  0.60494500  0.90773100  0.55661400  1
  O  O2  1  0.06226700  0.92993800  0.31058500  1
  O  O3  1  0.89505500  0.90773100  0.05661400  1
  O  O4  1  0.21379700  0.87262500  0.66016400  1
  O  O5  1  0.28620300  0.87262500  0.16016400  1
  O  O6  1  0.97056100  0.75304500  0.76166400  1
  O  O7  1  0.90127600  0.79848600  0.61727300  1
  O  O8  1  0.52943900  0.75304500  0.26166400  1
  O  O9  1  0.59872400  0.79848600  0.11727300  1
  O  O10  1  0.70074200  0.73704100  0.87146300  1
  O  O11  1  0.40010700  0.72314100  0.93868700  1
  O  O12  1  0.79925800  0.73704100  0.37146300  1
  O  O13  1  0.09989300  0.72314100  0.43868700  1
  O  O14  1  0.59684700  0.64775500  0.67026800  1
  O  O15  1  0.90315300  0.64775500  0.17026800  1
  O  O16  1  0.29168300  0.62914100  0.55505800  1
  O  O17  1  0.05627100  0.70071900  0.92202400  1
  O  O18  1  0.20831700  0.62914100  0.05505800  1
  O  O19  1  0.44372900  0.70071900  0.42202400  1
  O  O20  1  0.42784600  0.57878100  0.81352300  1
  O  O21  1  0.74135600  0.59455800  0.54076200  1
  O  O22  1  0.07215400  0.57878100  0.31352300  1
  O  O23  1  0.75864400  0.59455800  0.04076200  1
  O  O24  1  0.24135600  0.40544200  0.95923800  1
  O  O25  1  0.92784600  0.42121900  0.68647700  1
  O  O26  1  0.25864400  0.40544200  0.45923800  1
  O  O27  1  0.57215400  0.42121900  0.18647700  1
  O  O28  1  0.55627100  0.29928100  0.57797600  1
  O  O29  1  0.79168300  0.37085900  0.94494200  1
  O  O30  1  0.94372900  0.29928100  0.07797600  1
  O  O31  1  0.70831700  0.37085900  0.44494200  1
  O  O32  1  0.09684700  0.35224500  0.82973200  1
  O  O33  1  0.40315300  0.35224500  0.32973200  1
  O  O34  1  0.90010700  0.27685900  0.56131300  1
  O  O35  1  0.20074200  0.26295900  0.62853700  1
  O  O36  1  0.59989300  0.27685900  0.06131300  1
  O  O37  1  0.29925800  0.26295900  0.12853700  1
  O  O38  1  0.40127600  0.20151400  0.88272700  1
  O  O39  1  0.47056100  0.24695500  0.73833600  1
  O  O40  1  0.09872400  0.20151400  0.38272700  1
  O  O41  1  0.02943900  0.24695500  0.23833600  1
  O  O42  1  0.71379700  0.12737500  0.83983600  1
  O  O43  1  0.78620300  0.12737500  0.33983600  1
  O  O44  1  0.10494500  0.09226900  0.94338600  1
  O  O45  1  0.93773300  0.07006200  0.68941500  1
  O  O46  1  0.39505500  0.09226900  0.44338600  1
  O  O47  1  0.56226700  0.07006200  0.18941500  1
loop_
_geom_bond_atom_site_label_1
_geom_bond_atom_site_label_2
_geom_bond_distance
_geom_bond_site_symmetry_2
Cr0 O42 2.084494 1_565
Cr0 O17 2.087429 1_655
Cr0 O10 2.124101 1_555
Cr0 O44 2.128260 1_665
Cr1 O43 2.084494 1_565
Cr1 O19 2.087429 1_555
Cr1 O12 2.124101 1_555
Cr1 O46 2.128260 1_565
Cr2 O14 2.073162 1_555
Cr2 O39 2.102657 1_555
Cr2 O16 2.128779 1_555
Cr2 O35 2.129374 1_555
Cr2 O28 2.433081 1_555
Cr3 O15 2.073162 1_455
Cr3 O41 2.102657 1_555
Cr3 O18 2.128779 1_555
Cr3 O37 2.129374 1_555
Cr3 O30 2.433081 1_455
Cr4 O32 2.073162 1_655
Cr4 O6 2.102657 1_555
Cr4 O29 2.128779 1_555
Cr4 O10 2.129374 1_555
Cr4 O17 2.433081 1_655
Cr5 O33 2.073162 1_555
Cr5 O8 2.102657 1_555
Cr5 O31 2.128779 1_555
Cr5 O12 2.129374 1_555
Cr5 O19 2.433081 1_555
Cr6 O4 2.084494 1_545
Cr6 O28 2.087429 1_555
Cr6 O35 2.124101 1_555
Cr6 O1 2.128260 1_545
Cr7 O5 2.084494 1_545
Cr7 O30 2.087429 1_455
Cr7 O37 2.124101 1_555
Cr7 O3 2.128260 1_445
O0 P4 1.609648 1_555
O0 P14 1.626412 1_565
O1 P2 1.519774 1_555
O2 P5 1.609648 1_555
O2 P15 1.626412 1_465
O3 P3 1.519774 1_555
O4 P0 1.504044 1_555
O5 P1 1.504044 1_555
O6 P0 1.490063 1_655
O7 P2 1.597573 1_555
O7 P0 1.606943 1_655
O8 P1 1.490063 1_555
O9 P3 1.597573 1_555
O9 P1 1.606943 1_555
O10 P4 1.539317 1_555
O11 P6 1.611175 1_555
O11 P4 1.634343 1_555
O12 P5 1.539317 1_655
O13 P7 1.611175 1_555
O13 P5 1.634343 1_555
O14 P2 1.499363 1_555
O15 P3 1.499363 1_555
O16 P7 1.493040 1_555
O17 P6 1.513286 1_555
O18 P6 1.493040 1_554
O19 P7 1.513286 1_555
O20 P4 1.470314 1_555
O21 P2 1.614033 1_555
O21 P8 1.615319 1_555
O22 P5 1.470314 1_555
O23 P3 1.614033 1_555
O23 P9 1.615319 1_555
O24 P12 1.614033 1_555
O24 P6 1.615319 1_555
O25 P10 1.470314 1_555
O26 P13 1.614033 1_555
O26 P7 1.615319 1_555
O27 P11 1.470314 1_555
O28 P8 1.513286 1_555
O29 P9 1.493040 1_556
O30 P9 1.513286 1_555
O31 P8 1.493040 1_555
O32 P12 1.499363 1_555
O33 P13 1.499363 1_555
O34 P8 1.611175 1_555
O34 P10 1.634343 1_555
O35 P10 1.539317 1_455
O36 P9 1.611175 1_555
O36 P11 1.634343 1_555
O37 P11 1.539317 1_555
O38 P12 1.597573 1_555
O38 P14 1.606943 1_555
O39 P14 1.490063 1_555
O40 P13 1.597573 1_555
O40 P15 1.606943 1_455
O41 P15 1.490063 1_455
O42 P14 1.504044 1_555
O43 P15 1.504044 1_555
O44 P12 1.519774 1_555
O45 P10 1.609648 1_555
O45 P0 1.626412 1_645
O46 P13 1.519774 1_555
O47 P11 1.609648 1_555
O47 P1 1.626412 1_545
