# generated using pymatgen
data_CeY(GePt)4
_symmetry_space_group_name_H-M   'P 1'
_cell_length_a   4.33786900
_cell_length_b   4.34412800
_cell_length_c   10.14790502
_cell_angle_alpha   89.57971409
_cell_angle_beta   90.00000000
_cell_angle_gamma   90.00000000
_symmetry_Int_Tables_number   1
_chemical_formula_structural   CeY(GePt)4
_chemical_formula_sum   'Ce1 Y1 Ge4 Pt4'
_cell_volume   191.22459736
_cell_formula_units_Z   1
loop_
 _symmetry_equiv_pos_site_id
 _symmetry_equiv_pos_as_xyz
  1  'x, y, z'
loop_
 _atom_site_type_symbol
 _atom_site_label
 _atom_site_symmetry_multiplicity
 _atom_site_fract_x
 _atom_site_fract_y
 _atom_site_fract_z
 _atom_site_occupancy
  Ce  Ce0  1  0.50000000  0.75345800  0.25313700  1
  Y  Y0  1  0.00000000  0.25250400  0.75371700  1
  Ge  Ge0  1  0.00000000  0.73674800  0.50003900  1
  Ge  Ge1  1  0.50000000  0.23962900  0.50163100  1
  Ge  Ge2  1  0.50000000  0.76637300  0.86474500  1
  Ge  Ge3  1  0.00000000  0.26894400  0.13149700  1
  Pt  Pt0  1  0.50000000  0.73763700  0.62563100  1
  Pt  Pt1  1  0.00000000  0.23887500  0.37313800  1
  Pt  Pt2  1  0.00000000  0.77251900  0.99845900  1
  Pt  Pt3  1  0.50000000  0.26531200  0.99800500  1
loop_
_geom_bond_atom_site_label_1
_geom_bond_atom_site_label_2
_geom_bond_distance
_geom_bond_site_symmetry_2
Ce0 Pt1 3.266735 1_565
Ce0 Pt1 3.266735 1_665
Ce0 Ge3 3.270514 1_555
Ce0 Ge3 3.270514 1_655
Ce0 Ge1 3.301147 1_565
Ce0 Ge0 3.314302 1_655
Ce0 Ge0 3.314302 1_555
Ce0 Pt1 3.338316 1_555
Ce0 Pt1 3.338316 1_655
Ce0 Ge3 3.346950 1_565
Ce0 Ge3 3.346950 1_665
Ce0 Ge1 3.355414 1_555
Ce0 Pt3 3.358655 1_554
Ce0 Pt2 3.374517 1_554
Ce0 Pt2 3.374517 1_654
Ce0 Pt3 3.400436 1_564
Ge0 Pt0 2.515691 1_555
Ge0 Pt0 2.515691 1_455
Ge0 Pt1 2.524926 1_565
Ge0 Pt1 2.525281 1_555
Ge0 Y0 3.312519 1_555
Ge0 Y0 3.425131 1_565
Ge1 Pt0 2.509719 1_545
Ge1 Pt0 2.510718 1_555
Ge1 Pt1 2.530730 1_555
Ge1 Pt1 2.530730 1_655
Ge1 Y0 3.354640 1_555
Ge1 Y0 3.354640 1_655
Ge2 Pt0 2.430629 1_555
Ge2 Pt3 2.554107 1_555
Ge2 Pt2 2.558661 1_555
Ge2 Pt2 2.558661 1_655
Ge2 Pt3 2.563124 1_565
Ge2 Y0 3.224684 1_565
Ge2 Y0 3.224684 1_665
Ge2 Y0 3.315698 1_555
Ge2 Y0 3.315698 1_655
Ge3 Pt1 2.454670 1_555
Ge3 Pt2 2.552647 1_544
Ge3 Pt3 2.557333 1_554
Ge3 Pt3 2.557333 1_454
Ge3 Pt2 2.562205 1_554
Pt0 Y0 3.285583 1_655
Pt0 Y0 3.285583 1_555
Pt0 Y0 3.382161 1_565
Pt0 Y0 3.382161 1_665
Pt2 Y0 3.231114 1_565
Pt2 Y0 3.369541 1_555
Pt3 Y0 3.294677 1_555
Pt3 Y0 3.294677 1_655
