# generated using pymatgen
data_Ce4ZrCo25
_symmetry_space_group_name_H-M   'P 1'
_cell_length_a   4.00569103
_cell_length_b   4.85437444
_cell_length_c   21.19516191
_cell_angle_alpha   96.43420740
_cell_angle_beta   89.99720897
_cell_angle_gamma   90.01281640
_symmetry_Int_Tables_number   1
_chemical_formula_structural   Ce4ZrCo25
_chemical_formula_sum   'Ce4 Zr1 Co25'
_cell_volume   409.54653675
_cell_formula_units_Z   1
loop_
 _symmetry_equiv_pos_site_id
 _symmetry_equiv_pos_as_xyz
  1  'x, y, z'
loop_
 _atom_site_type_symbol
 _atom_site_label
 _atom_site_symmetry_multiplicity
 _atom_site_fract_x
 _atom_site_fract_y
 _atom_site_fract_z
 _atom_site_occupancy
  Ce  Ce0  1  0.99997900  0.59873600  0.19826700  1
  Ce  Ce1  1  0.00001500  0.20064000  0.40065300  1
  Ce  Ce2  1  0.99997900  0.79987000  0.60014000  1
  Ce  Ce3  1  0.00001600  0.40082200  0.80148400  1
  Zr  Zr0  1  0.00000400  0.99992500  0.99975700  1
  Co  Co0  1  0.00001900  0.06588600  0.13063500  1
  Co  Co1  1  0.99999600  0.66515300  0.33262100  1
  Co  Co2  1  0.99999400  0.26630000  0.53316200  1
  Co  Co3  1  0.99999100  0.86587800  0.73298500  1
  Co  Co4  1  0.00001500  0.46766600  0.93424400  1
  Co  Co5  1  0.99998900  0.53201400  0.06563100  1
  Co  Co6  1  0.00000800  0.13406200  0.26660000  1
  Co  Co7  1  0.00000300  0.73410700  0.46778100  1
  Co  Co8  1  0.00001600  0.33408100  0.66676000  1
  Co  Co9  1  0.99997600  0.93433700  0.86920700  1
  Co  Co10  1  0.49998000  0.09871200  0.19867600  1
  Co  Co11  1  0.49999600  0.70087900  0.40006200  1
  Co  Co12  1  0.50000700  0.29937800  0.60015700  1
  Co  Co13  1  0.50001600  0.90117000  0.80113900  1
  Co  Co14  1  0.50000700  0.49984200  0.99987900  1
  Co  Co15  1  0.49997500  0.28640600  0.09454300  1
  Co  Co16  1  0.50001900  0.90104900  0.29992700  1
  Co  Co17  1  0.49999900  0.50004400  0.50019700  1
  Co  Co18  1  0.49998700  0.09969900  0.70022300  1
  Co  Co19  1  0.50002400  0.71325600  0.90520400  1
  Co  Co20  1  0.49999500  0.80815100  0.09445500  1
  Co  Co21  1  0.49999700  0.39881700  0.29994400  1
  Co  Co22  1  0.50000000  0.00028500  0.50017300  1
  Co  Co23  1  0.50000300  0.60050200  0.70018300  1
  Co  Co24  1  0.49999700  0.19183200  0.90531000  1
loop_
_geom_bond_atom_site_label_1
_geom_bond_atom_site_label_2
_geom_bond_distance
_geom_bond_site_symmetry_2
Ce0 Co5 2.793548 1_555
Ce0 Co0 2.813287 1_655
Ce0 Co6 2.813905 1_655
Ce0 Co0 2.815309 1_665
Ce0 Co6 2.829702 1_665
Ce0 Co1 2.829720 1_555
Ce0 Co10 3.145674 1_665
Ce0 Co10 3.146360 1_565
Ce0 Co10 3.147347 1_555
Ce0 Co10 3.148043 1_655
Ce0 Co21 3.172487 1_555
Ce0 Co21 3.172985 1_655
Ce0 Co16 3.177867 1_655
Ce0 Co16 3.177947 1_555
Ce0 Co20 3.222799 1_655
Ce0 Co20 3.223135 1_555
Ce0 Co15 3.224190 1_555
Ce0 Co15 3.224458 1_655
Ce1 Co2 2.790862 1_455
Ce1 Co7 2.806331 1_545
Ce1 Co1 2.809380 1_455
Ce1 Co7 2.811550 1_555
Ce1 Co6 2.823382 1_555
Ce1 Co1 2.827773 1_445
Ce1 Co22 3.140927 1_455
Ce1 Co22 3.141259 1_555
Ce1 Co17 3.144339 1_555
Ce1 Co11 3.144595 1_445
Ce1 Co17 3.144703 1_455
Ce1 Co11 3.145188 1_545
Ce1 Co11 3.148452 1_555
Ce1 Co11 3.149241 1_455
Ce1 Co21 3.154652 1_555
Ce1 Co21 3.155149 1_455
Ce1 Co16 3.160292 1_445
Ce1 Co16 3.160593 1_545
Ce2 Co7 2.787704 1_655
Ce2 Co8 2.796786 1_655
Ce2 Co3 2.797940 1_555
Ce2 Co2 2.804000 1_565
Ce2 Co8 2.810359 1_665
Ce2 Co2 2.810704 1_555
Ce2 Co12 3.144697 1_665
Ce2 Co12 3.145245 1_565
Ce2 Co23 3.146828 1_555
Ce2 Co23 3.147358 1_655
Ce2 Co22 3.147752 1_665
Ce2 Co22 3.148054 1_565
Ce2 Co12 3.148301 1_555
Ce2 Co12 3.149135 1_655
Ce2 Co17 3.150363 1_555
Ce2 Co17 3.150748 1_655
Ce2 Co18 3.152283 1_665
Ce2 Co18 3.152524 1_565
Ce3 Co4 2.796161 1_555
Ce3 Co9 2.813682 1_445
Ce3 Co9 2.816855 1_455
Ce3 Co3 2.817626 1_455
Ce3 Co3 2.829547 1_445
Ce3 Co8 2.837514 1_555
Ce3 Co13 3.144573 1_445
Ce3 Co13 3.145263 1_545
Ce3 Co13 3.148442 1_555
Ce3 Co13 3.149134 1_455
Ce3 Co23 3.166375 1_555
Ce3 Co23 3.166848 1_455
Ce3 Co18 3.170321 1_455
Ce3 Co18 3.170455 1_555
Ce3 Co24 3.222212 1_455
Ce3 Co24 3.222532 1_555
Ce3 Co19 3.224345 1_555
Ce3 Co19 3.224594 1_455
Co0 Co15 2.433976 1_555
Co0 Co15 2.434722 1_455
Co0 Co20 2.439093 1_445
Co0 Co20 2.439333 1_545
Co0 Co10 2.462632 1_555
Co0 Co10 2.462830 1_455
Co0 Zr0 2.756523 1_544
Co0 Co5 2.777959 1_455
Co0 Co5 2.795433 1_445
Co0 Co6 2.863659 1_555
Co1 Co21 2.441500 1_555
Co1 Co21 2.441926 1_655
Co1 Co16 2.445393 1_655
Co1 Co16 2.445717 1_555
Co1 Co11 2.455409 1_555
Co1 Co11 2.455459 1_655
Co1 Co6 2.792173 1_655
Co1 Co6 2.802385 1_665
Co1 Co7 2.846727 1_655
Co2 Co22 2.442202 1_555
Co2 Co22 2.442659 1_655
Co2 Co7 2.789744 1_655
Co2 Co7 2.791458 1_645
Co2 Co8 2.813820 1_655
Co3 Co8 2.796866 1_655
Co3 Co8 2.801966 1_665
Co3 Co9 2.869075 1_555
Co4 Co5 2.767228 1_456
Co4 Co9 2.780663 1_455
Co4 Zr0 2.791112 1_545
Co4 Zr0 2.792837 1_555
Co4 Co9 2.793408 1_445
Co5 Zr0 2.795140 1_644
Co5 Zr0 2.796339 1_654
Co9 Zr0 2.749612 1_655
Co10 Co16 2.446970 1_545
Co10 Co21 2.455303 1_555
Co10 Co6 2.461201 1_555
Co10 Co6 2.461436 1_655
Co10 Co15 2.480371 1_555
Co10 Co20 2.484103 1_545
Co11 Co16 2.431235 1_555
Co11 Co17 2.432842 1_555
Co11 Co22 2.433842 1_565
Co11 Co21 2.440426 1_555
Co11 Co7 2.458740 1_555
Co11 Co7 2.458841 1_655
Co12 Co18 2.428707 1_555
Co12 Co17 2.429031 1_555
Co12 Co22 2.430916 1_555
Co12 Co23 2.436571 1_555
Co12 Co8 2.445197 1_555
Co12 Co8 2.445307 1_655
Co12 Co2 2.449907 1_555
Co12 Co2 2.450046 1_455
Co13 Co18 2.442501 1_565
Co13 Co23 2.451323 1_555
Co13 Co9 2.462959 1_555
Co13 Co9 2.463164 1_455
Co13 Co3 2.464027 1_555
Co13 Co3 2.464241 1_455
Co13 Co19 2.479529 1_555
Co13 Co24 2.483458 1_565
Co14 Co15 2.359054 1_556
Co14 Co19 2.359207 1_555
Co14 Co24 2.362531 1_555
Co14 Co20 2.363428 1_556
Co14 Co4 2.433591 1_655
Co14 Co4 2.433593 1_555
Co14 Co5 2.434960 1_556
Co14 Co5 2.435025 1_456
Co14 Zr0 3.145973 1_545
Co14 Zr0 3.146649 1_645
Co14 Zr0 3.147026 1_655
Co14 Zr0 3.147733 1_555
Co15 Co20 2.321421 1_545
Co15 Co5 2.443606 1_555
Co15 Co5 2.444000 1_455
Co15 Co20 2.532955 1_555
Co15 Zr0 3.058431 1_544
Co15 Zr0 3.058862 1_644
Co16 Co21 2.416312 1_565
Co16 Co21 2.438063 1_555
Co16 Co6 2.442859 1_665
Co16 Co6 2.443402 1_565
Co17 Co22 2.425960 1_555
Co17 Co22 2.428414 1_565
Co17 Co7 2.438922 1_655
Co17 Co7 2.439368 1_555
Co17 Co2 2.442065 1_455
Co17 Co2 2.442505 1_555
Co18 Co23 2.423194 1_545
Co18 Co23 2.431180 1_555
Co18 Co3 2.440770 1_445
Co18 Co3 2.441268 1_545
Co18 Co8 2.447272 1_655
Co18 Co8 2.447555 1_555
Co19 Co24 2.322936 1_565
Co19 Co9 2.434526 1_555
Co19 Co9 2.435299 1_455
Co19 Co4 2.444374 1_555
Co19 Co4 2.444801 1_655
Co19 Co24 2.531440 1_555
Co19 Zr0 3.055813 1_655
Co19 Zr0 3.056198 1_555
Co20 Co5 2.448870 1_455
Co20 Co5 2.449272 1_555
Co20 Zr0 3.053581 1_654
Co20 Zr0 3.053935 1_554
Co21 Co6 2.440878 1_555
Co21 Co6 2.441366 1_655
Co22 Co7 2.439763 1_545
Co22 Co7 2.440202 1_645
Co23 Co3 2.439745 1_555
Co23 Co3 2.440242 1_455
Co23 Co8 2.445262 1_555
Co23 Co8 2.445764 1_655
Co24 Co9 2.438108 1_445
Co24 Co9 2.438368 1_545
Co24 Co4 2.448586 1_655
Co24 Co4 2.448909 1_555
Co24 Zr0 3.050107 1_545
Co24 Zr0 3.050546 1_645
