# generated using pymatgen
data_Ca9(WO3)20
_symmetry_space_group_name_H-M   'P 1'
_cell_length_a   12.92413229
_cell_length_b   12.92413229
_cell_length_c   17.49290734
_cell_angle_alpha   47.64644146
_cell_angle_beta   47.64644146
_cell_angle_gamma   34.18713304
_symmetry_Int_Tables_number   1
_chemical_formula_structural   Ca9(WO3)20
_chemical_formula_sum   'Ca9 W20 O60'
_cell_volume   1164.64364515
_cell_formula_units_Z   1
loop_
 _symmetry_equiv_pos_site_id
 _symmetry_equiv_pos_as_xyz
  1  'x, y, z'
loop_
 _atom_site_type_symbol
 _atom_site_label
 _atom_site_symmetry_multiplicity
 _atom_site_fract_x
 _atom_site_fract_y
 _atom_site_fract_z
 _atom_site_occupancy
  Ca  Ca0  1  0.16614900  0.16614900  0.37341400  1
  Ca  Ca1  1  0.66237300  0.66237300  0.31574700  1
  Ca  Ca2  1  0.48675600  0.48675600  0.84939700  1
  Ca  Ca3  1  0.03957100  0.03957100  0.79062900  1
  Ca  Ca4  1  0.24994400  0.24994400  0.50358400  1
  Ca  Ca5  1  0.01760900  0.01760900  0.14514300  1
  Ca  Ca6  1  0.47248700  0.47248700  0.21283300  1
  Ca  Ca7  1  0.83486500  0.83486500  0.67920900  1
  Ca  Ca8  1  0.32605200  0.32605200  0.63602900  1
  W  W0  1  0.64477600  0.14182500  0.79812400  1
  W  W1  1  0.14182500  0.64477600  0.79812400  1
  W  W2  1  0.55877200  0.06296900  0.08339000  1
  W  W3  1  0.06296900  0.55877200  0.08339000  1
  W  W4  1  0.36056800  0.85390800  0.57350400  1
  W  W5  1  0.85390800  0.36056800  0.57350400  1
  W  W6  1  0.57114200  0.06579800  0.28899000  1
  W  W7  1  0.06579800  0.57114200  0.28899000  1
  W  W8  1  0.74826800  0.25193400  0.99926000  1
  W  W9  1  0.25193400  0.74826800  0.99926000  1
  W  W10  1  0.92768800  0.43590400  0.71148000  1
  W  W11  1  0.43590400  0.92768800  0.71148000  1
  W  W12  1  0.13882900  0.64760100  0.42560700  1
  W  W13  1  0.64760100  0.13882900  0.42560700  1
  W  W14  1  0.43889000  0.94179800  0.91705000  1
  W  W15  1  0.94179800  0.43889000  0.91705000  1
  W  W16  1  0.35890800  0.85465300  0.20354100  1
  W  W17  1  0.85465300  0.35890800  0.20354100  1
  W  W18  1  0.74788900  0.25028800  0.50122400  1
  W  W19  1  0.25028800  0.74788900  0.50122400  1
  O  O0  1  0.73770700  0.12456400  0.65803200  1
  O  O1  1  0.12456400  0.73770700  0.65803200  1
  O  O2  1  0.89998900  0.50560100  0.15514100  1
  O  O3  1  0.50560100  0.89998900  0.15514100  1
  O  O4  1  0.39094200  0.39094200  0.77622600  1
  O  O5  1  0.90167500  0.90167500  0.81809200  1
  O  O6  1  0.55158400  0.15304200  0.93641800  1
  O  O7  1  0.15304200  0.55158400  0.93641800  1
  O  O8  1  0.79865200  0.38828900  0.47065600  1
  O  O9  1  0.38828900  0.79865200  0.47065600  1
  O  O10  1  0.83155100  0.83155100  0.05460200  1
  O  O11  1  0.28182900  0.28182900  0.12265400  1
  O  O12  1  0.27623400  0.72062000  0.73314500  1
  O  O13  1  0.72062000  0.27623400  0.73314500  1
  O  O14  1  0.55780400  0.98523700  0.23108300  1
  O  O15  1  0.98523700  0.55780400  0.23108300  1
  O  O16  1  0.62359800  0.62359800  0.57258500  1
  O  O17  1  0.08805800  0.08805800  0.57173800  1
  O  O18  1  0.61039100  0.22521500  0.00704900  1
  O  O19  1  0.22521500  0.61039100  0.00704900  1
  O  O20  1  0.02399000  0.41139100  0.42592500  1
  O  O21  1  0.41139100  0.02399000  0.42592500  1
  O  O22  1  0.33185100  0.33185100  0.24988200  1
  O  O23  1  0.80272200  0.80272200  0.32559400  1
  O  O24  1  0.95522400  0.32679400  0.64507600  1
  O  O25  1  0.32679400  0.95522400  0.64507600  1
  O  O26  1  0.11949300  0.73080500  0.15941700  1
  O  O27  1  0.73080500  0.11949300  0.15941700  1
  O  O28  1  0.50081800  0.50081800  0.03928300  1
  O  O29  1  0.99575700  0.99575700  0.96651300  1
  O  O30  1  0.37233400  0.76541100  0.84336200  1
  O  O31  1  0.76541100  0.37233400  0.84336200  1
  O  O32  1  0.54781400  0.17109700  0.35115500  1
  O  O33  1  0.17109700  0.54781400  0.35115500  1
  O  O34  1  0.70033000  0.70033000  0.67477500  1
  O  O35  1  0.16443300  0.16443300  0.75117000  1
  O  O36  1  0.10354600  0.47122900  0.57100200  1
  O  O37  1  0.47122900  0.10354600  0.57100200  1
  O  O38  1  0.88490400  0.28170800  0.98921400  1
  O  O39  1  0.28170800  0.88490400  0.98921400  1
  O  O40  1  0.87504400  0.87504400  0.42655100  1
  O  O41  1  0.41799400  0.41799400  0.41308700  1
  O  O42  1  0.51426100  0.94809600  0.77228600  1
  O  O43  1  0.94809600  0.51426100  0.77228600  1
  O  O44  1  0.21961800  0.78632900  0.26132100  1
  O  O45  1  0.78632900  0.21961800  0.26132100  1
  O  O46  1  0.66938000  0.66938000  0.94395800  1
  O  O47  1  0.21575200  0.21575200  0.87931100  1
  O  O48  1  0.11013000  0.70570900  0.52588300  1
  O  O49  1  0.70570900  0.11013000  0.52588300  1
  O  O50  1  0.94486900  0.35335100  0.05877000  1
  O  O51  1  0.35335100  0.94486900  0.05877000  1
  O  O52  1  0.11222500  0.11222500  0.21976300  1
  O  O53  1  0.59260100  0.59260100  0.18638200  1
  O  O54  1  0.58680500  0.00125600  0.85185600  1
  O  O55  1  0.00125600  0.58680500  0.85185600  1
  O  O56  1  0.37039800  0.75785300  0.34807400  1
  O  O57  1  0.75785300  0.37039800  0.34807400  1
  O  O58  1  0.46233800  0.46233800  0.54597600  1
  O  O59  1  0.03406600  0.03406600  0.46124000  1
loop_
_geom_bond_atom_site_label_1
_geom_bond_atom_site_label_2
_geom_bond_distance
_geom_bond_site_symmetry_2
Ca0 O59 2.437624 1_555
Ca0 O21 2.506007 1_555
Ca0 O20 2.506007 1_555
Ca0 O17 2.514479 1_555
Ca0 O9 2.613300 1_545
Ca0 O8 2.613300 1_455
Ca0 O14 2.927496 1_545
Ca0 O15 2.927496 1_455
Ca0 O22 2.993119 1_555
Ca0 O11 3.120422 1_555
Ca1 O8 2.483611 1_555
Ca1 O9 2.483611 1_555
Ca1 O56 2.538349 1_555
Ca1 O57 2.538349 1_555
Ca1 O15 2.543996 1_555
Ca1 O14 2.543996 1_555
Ca1 O2 2.679529 1_555
Ca1 O3 2.679529 1_555
Ca2 O18 2.454744 1_556
Ca2 O19 2.454744 1_556
Ca2 O30 2.460695 1_555
Ca2 O31 2.460695 1_555
Ca2 O12 2.498368 1_555
Ca2 O13 2.498368 1_555
Ca2 O6 2.917999 1_555
Ca2 O7 2.917999 1_555
Ca3 O24 2.400189 1_455
Ca3 O25 2.400189 1_545
Ca3 O29 2.437836 1_445
Ca3 O35 2.644111 1_555
Ca3 O31 2.762636 1_455
Ca3 O30 2.762636 1_545
Ca3 O13 2.817870 1_455
Ca3 O12 2.817870 1_545
Ca4 O36 2.394900 1_555
Ca4 O37 2.394900 1_555
Ca4 O24 2.443691 1_455
Ca4 O25 2.443691 1_545
Ca4 O21 2.484413 1_555
Ca4 O20 2.484413 1_555
Ca4 O33 2.511642 1_555
Ca4 O32 2.511642 1_555
Ca5 O44 2.436047 1_545
Ca5 O45 2.436047 1_455
Ca5 O38 2.470979 1_454
Ca5 O39 2.470979 1_544
Ca5 O27 2.580077 1_455
Ca5 O26 2.580077 1_545
Ca5 O51 2.885551 1_545
Ca5 O50 2.885551 1_455
Ca6 O32 2.485152 1_555
Ca6 O33 2.485152 1_555
Ca6 O28 2.590565 1_555
Ca6 O45 2.611912 1_555
Ca6 O44 2.611912 1_555
Ca6 O53 2.661772 1_555
Ca6 O41 2.726798 1_555
Ca6 O27 3.028934 1_555
Ca6 O26 3.028934 1_555
Ca6 O22 3.052631 1_555
Ca7 O48 2.446942 1_655
Ca7 O49 2.446942 1_565
Ca7 O43 2.459639 1_555
Ca7 O42 2.459639 1_555
Ca7 O0 2.590783 1_565
Ca7 O1 2.590783 1_655
Ca7 O54 2.884873 1_565
Ca7 O55 2.884873 1_655
Ca8 O36 2.385204 1_555
Ca8 O37 2.385204 1_555
Ca8 O58 2.518320 1_555
Ca8 O48 2.725566 1_555
Ca8 O49 2.725566 1_555
Ca8 O41 2.807327 1_555
Ca8 O42 2.815219 1_545
Ca8 O43 2.815219 1_455
Ca8 O35 2.943411 1_555
Ca8 O47 3.031312 1_555
O0 W0 1.955839 1_555
O0 W18 2.010877 1_555
O1 W1 1.955839 1_555
O1 W19 2.010877 1_555
O2 W17 1.913395 1_555
O2 W3 2.038314 1_655
O3 W16 1.913395 1_555
O3 W2 2.038314 1_565
O4 W0 1.957571 1_555
O4 W1 1.957571 1_555
O5 W1 1.957553 1_655
O5 W0 1.957553 1_565
O6 W0 1.892549 1_555
O6 W2 2.020868 1_556
O7 W1 1.892549 1_555
O7 W3 2.020868 1_556
O8 W18 2.018796 1_555
O8 W5 2.077144 1_555
O9 W19 2.018796 1_555
O9 W4 2.077144 1_555
O10 W2 1.954621 1_565
O10 W3 1.954621 1_655
O11 W2 1.959419 1_555
O11 W3 1.959419 1_555
O12 W1 1.981346 1_555
O12 W4 2.115947 1_555
O13 W0 1.981346 1_555
O13 W5 2.115947 1_555
O14 W6 2.023156 1_565
O14 W2 2.040669 1_565
O15 W7 2.023156 1_655
O15 W3 2.040669 1_655
O16 W4 1.914883 1_555
O16 W5 1.914883 1_555
O17 W4 1.987629 1_545
O17 W5 1.987629 1_455
O18 W8 1.985097 1_554
O18 W2 1.991545 1_555
O19 W9 1.985097 1_554
O19 W3 1.991545 1_555
O20 W7 1.931457 1_555
O20 W5 2.094202 1_455
O21 W6 1.931457 1_555
O21 W4 2.094202 1_545
O22 W6 1.985898 1_555
O22 W7 1.985898 1_555
O23 W7 1.934232 1_655
O23 W6 1.934232 1_565
O24 W5 1.999902 1_555
O24 W10 2.069862 1_555
O25 W4 1.999902 1_555
O25 W11 2.069862 1_555
O26 W7 1.955718 1_555
O26 W9 2.038510 1_554
O27 W6 1.955718 1_555
O27 W8 2.038510 1_554
O28 W9 2.015695 1_554
O28 W8 2.015695 1_554
O29 W8 2.021684 1_565
O29 W9 2.021684 1_655
O30 W9 1.986454 1_555
O30 W11 2.042883 1_555
O31 W8 1.986454 1_555
O31 W10 2.042883 1_555
O32 W6 1.999737 1_555
O32 W13 2.043246 1_555
O33 W7 1.999737 1_555
O33 W12 2.043246 1_555
O34 W11 1.922931 1_555
O34 W10 1.922931 1_555
O35 W10 1.993371 1_455
O35 W11 1.993371 1_545
O36 W10 2.022955 1_455
O36 W12 2.053769 1_555
O37 W11 2.022955 1_545
O37 W13 2.053769 1_555
O38 W8 1.977960 1_555
O38 W15 2.006548 1_555
O39 W9 1.977960 1_555
O39 W14 2.006548 1_555
O40 W12 1.916681 1_655
O40 W13 1.916681 1_565
O41 W12 1.992291 1_555
O41 W13 1.992291 1_555
O42 W14 1.974328 1_555
O42 W11 2.120810 1_555
O43 W15 1.974328 1_555
O43 W10 2.120810 1_555
O44 W16 2.004429 1_555
O44 W12 2.162213 1_555
O45 W17 2.004429 1_555
O45 W13 2.162213 1_555
O46 W14 1.948336 1_555
O46 W15 1.948336 1_555
O47 W14 1.952337 1_545
O47 W15 1.952337 1_455
O48 W19 2.007118 1_555
O48 W12 2.053290 1_555
O49 W18 2.007118 1_555
O49 W13 2.053290 1_555
O50 W15 1.933087 1_554
O50 W17 1.976352 1_555
O51 W14 1.933087 1_554
O51 W16 1.976352 1_555
O52 W16 1.954960 1_545
O52 W17 1.954960 1_455
O53 W16 1.976788 1_555
O53 W17 1.976788 1_555
O54 W0 1.935849 1_555
O54 W14 1.964077 1_545
O55 W1 1.935849 1_555
O55 W15 1.964077 1_455
O56 W19 1.966190 1_555
O56 W16 1.978918 1_555
O57 W18 1.966190 1_555
O57 W17 1.978918 1_555
O58 W18 2.002123 1_555
O58 W19 2.002123 1_555
O59 W19 2.006595 1_545
O59 W18 2.006595 1_455
