# generated using pymatgen
data_Ba2Ga11BiO20
_symmetry_space_group_name_H-M   'P 1'
_cell_length_a   9.91945830
_cell_length_b   9.91945830
_cell_length_c   5.19349061
_cell_angle_alpha   75.58505747
_cell_angle_beta   75.58505747
_cell_angle_gamma   73.68117943
_symmetry_Int_Tables_number   1
_chemical_formula_structural   Ba2Ga11BiO20
_chemical_formula_sum   'Ba2 Ga11 Bi1 O20'
_cell_volume   466.09970038
_cell_formula_units_Z   1
loop_
 _symmetry_equiv_pos_site_id
 _symmetry_equiv_pos_as_xyz
  1  'x, y, z'
loop_
 _atom_site_type_symbol
 _atom_site_label
 _atom_site_symmetry_multiplicity
 _atom_site_fract_x
 _atom_site_fract_y
 _atom_site_fract_z
 _atom_site_occupancy
  Ba  Ba0  1  0.00003100  0.00003100  0.00047200  1
  Ba  Ba1  1  0.28346700  0.28346700  0.74869600  1
  Ga  Ga0  1  0.36414500  0.63439700  0.49662800  1
  Ga  Ga1  1  0.63439700  0.36414500  0.49662800  1
  Ga  Ga2  1  0.84710200  0.42032800  0.84374500  1
  Ga  Ga3  1  0.57577100  0.15031900  0.15818400  1
  Ga  Ga4  1  0.15031900  0.57577100  0.15818400  1
  Ga  Ga5  1  0.42032800  0.84710200  0.84374500  1
  Ga  Ga6  1  0.99017200  0.71657400  0.65913400  1
  Ga  Ga7  1  0.28511400  0.00887700  0.34487800  1
  Ga  Ga8  1  0.00887700  0.28511400  0.34487800  1
  Ga  Ga9  1  0.71657400  0.99017200  0.65913400  1
  Ga  Ga10  1  0.50084000  0.50084000  0.00721300  1
  Bi  Bi0  1  0.71137200  0.71137200  0.36536200  1
  O  O0  1  0.86607800  0.60544900  0.64045000  1
  O  O1  1  0.39803200  0.12716900  0.34352900  1
  O  O2  1  0.12716900  0.39803200  0.34352900  1
  O  O3  1  0.60544900  0.86607800  0.64045000  1
  O  O4  1  0.43865400  0.43865400  0.39410100  1
  O  O5  1  0.57355500  0.57355500  0.60942800  1
  O  O6  1  0.70509300  0.99732200  0.01469200  1
  O  O7  1  0.99748100  0.29328400  0.98792400  1
  O  O8  1  0.29328400  0.99748100  0.98792400  1
  O  O9  1  0.99732200  0.70509300  0.01469200  1
  O  O10  1  0.54805300  0.31186300  0.88497500  1
  O  O11  1  0.69296400  0.45723400  0.11587600  1
  O  O12  1  0.45723400  0.69296400  0.11587600  1
  O  O13  1  0.31186300  0.54805300  0.88497500  1
  O  O14  1  0.89983800  0.89983800  0.51872400  1
  O  O15  1  0.09714600  0.09714600  0.47502400  1
  O  O16  1  0.16645300  0.66762800  0.42537600  1
  O  O17  1  0.33243700  0.82976000  0.57554900  1
  O  O18  1  0.82976000  0.33243700  0.57554900  1
  O  O19  1  0.66762800  0.16645300  0.42537600  1
loop_
_geom_bond_atom_site_label_1
_geom_bond_atom_site_label_2
_geom_bond_distance
_geom_bond_site_symmetry_2
Ba0 O14 2.666698 1_445
Ba0 O15 2.684537 1_554
Ba0 O8 2.886475 1_544
Ba0 O7 2.886475 1_454
Ba0 O9 2.915661 1_445
Ba0 O6 2.915661 1_445
Ba1 O4 2.576730 1_555
Ba1 O1 2.750733 1_555
Ba1 O2 2.750733 1_555
Ba1 O8 2.784038 1_545
Ba1 O7 2.784038 1_455
Ba1 O13 2.984641 1_555
Ba1 O10 2.984641 1_555
Ga0 O12 1.980097 1_555
Ga0 O13 1.984715 1_555
Ga0 O17 2.002777 1_555
Ga0 O16 2.007090 1_555
Ga0 O4 2.027857 1_555
Ga0 O5 2.178914 1_555
Ga1 O11 1.980097 1_555
Ga1 O10 1.984715 1_555
Ga1 O18 2.002777 1_555
Ga1 O19 2.007090 1_555
Ga1 O4 2.027857 1_555
Ga1 O5 2.178914 1_555
Ga2 O11 1.826574 1_556
Ga2 O7 1.844944 1_555
Ga2 O18 1.880947 1_555
Ga2 O0 1.911065 1_555
Ga3 O1 1.833095 1_555
Ga3 O10 1.863137 1_554
Ga3 O6 1.870101 1_545
Ga3 O19 1.898285 1_555
Ga4 O2 1.833095 1_555
Ga4 O13 1.863137 1_554
Ga4 O9 1.870101 1_455
Ga4 O16 1.898285 1_555
Ga5 O12 1.826574 1_556
Ga5 O8 1.844944 1_555
Ga5 O17 1.880947 1_555
Ga5 O3 1.911065 1_555
Ga6 O9 1.839524 1_556
Ga6 O14 1.841003 1_555
Ga6 O16 1.877938 1_655
Ga6 O0 1.901301 1_555
Ga7 O1 1.833597 1_555
Ga7 O15 1.857353 1_555
Ga7 O8 1.865596 1_544
Ga7 O17 1.887824 1_545
Ga8 O2 1.833597 1_555
Ga8 O15 1.857353 1_555
Ga8 O7 1.865596 1_454
Ga8 O18 1.887824 1_455
Ga9 O6 1.839524 1_556
Ga9 O14 1.841003 1_555
Ga9 O19 1.877938 1_565
Ga9 O3 1.901301 1_555
Ga10 O4 1.943690 1_555
Ga10 O13 2.021736 1_554
Ga10 O10 2.021736 1_554
Ga10 O11 2.021933 1_555
Ga10 O12 2.021933 1_555
Ga10 O5 2.029039 1_554
Bi0 O5 2.160831 1_555
Bi0 O3 2.222194 1_555
Bi0 O0 2.222194 1_555
