# generated using pymatgen
data_SrMg
_symmetry_space_group_name_H-M   'P 1'
_cell_length_a   8.34556363
_cell_length_b   8.34556363
_cell_length_c   32.01757600
_cell_angle_alpha   90.00000000
_cell_angle_beta   90.00000000
_cell_angle_gamma   119.99999703
_symmetry_Int_Tables_number   1
_chemical_formula_structural   SrMg
_chemical_formula_sum   'Sr24 Mg24'
_cell_volume   1931.21416728
_cell_formula_units_Z   24
loop_
 _symmetry_equiv_pos_site_id
 _symmetry_equiv_pos_as_xyz
  1  'x, y, z'
loop_
 _atom_site_type_symbol
 _atom_site_label
 _atom_site_symmetry_multiplicity
 _atom_site_fract_x
 _atom_site_fract_y
 _atom_site_fract_z
 _atom_site_occupancy
  Sr  Sr0_0  1  0.00000000  0.00000000  0.49130550  1
  Sr  Sr0_1  1  0.00000000  0.00000000  0.99130550  1
  Sr  Sr0_2  1  0.00000000  0.50000000  0.49130550  1
  Sr  Sr0_3  1  0.00000000  0.50000000  0.99130550  1
  Sr  Sr0_4  1  0.50000000  0.00000000  0.49130550  1
  Sr  Sr0_5  1  0.50000000  0.00000000  0.99130550  1
  Sr  Sr0_6  1  0.50000000  0.50000000  0.49130550  1
  Sr  Sr0_7  1  0.50000000  0.50000000  0.99130550  1
  Sr  Sr1_0  1  0.33333350  0.16666650  0.26612250  1
  Sr  Sr1_1  1  0.33333350  0.16666650  0.76612250  1
  Sr  Sr1_2  1  0.33333350  0.66666650  0.26612250  1
  Sr  Sr1_3  1  0.33333350  0.66666650  0.76612250  1
  Sr  Sr1_4  1  0.83333350  0.16666650  0.26612250  1
  Sr  Sr1_5  1  0.83333350  0.16666650  0.76612250  1
  Sr  Sr1_6  1  0.83333350  0.66666650  0.26612250  1
  Sr  Sr1_7  1  0.83333350  0.66666650  0.76612250  1
  Sr  Sr2_0  1  0.00000000  0.00000000  0.15863250  1
  Sr  Sr2_1  1  0.00000000  0.00000000  0.65863250  1
  Sr  Sr2_2  1  0.00000000  0.50000000  0.15863250  1
  Sr  Sr2_3  1  0.00000000  0.50000000  0.65863250  1
  Sr  Sr2_4  1  0.50000000  0.00000000  0.15863250  1
  Sr  Sr2_5  1  0.50000000  0.00000000  0.65863250  1
  Sr  Sr2_6  1  0.50000000  0.50000000  0.15863250  1
  Sr  Sr2_7  1  0.50000000  0.50000000  0.65863250  1
  Mg  Mg0_0  1  0.33333350  0.16666650  0.40885550  1
  Mg  Mg0_1  1  0.33333350  0.16666650  0.90885550  1
  Mg  Mg0_2  1  0.33333350  0.66666650  0.40885550  1
  Mg  Mg0_3  1  0.33333350  0.66666650  0.90885550  1
  Mg  Mg0_4  1  0.83333350  0.16666650  0.40885550  1
  Mg  Mg0_5  1  0.83333350  0.16666650  0.90885550  1
  Mg  Mg0_6  1  0.83333350  0.66666650  0.40885550  1
  Mg  Mg0_7  1  0.83333350  0.66666650  0.90885550  1
  Mg  Mg1_0  1  0.00000000  0.00000000  0.34965050  1
  Mg  Mg1_1  1  0.00000000  0.00000000  0.84965050  1
  Mg  Mg1_2  1  0.00000000  0.50000000  0.34965050  1
  Mg  Mg1_3  1  0.00000000  0.50000000  0.84965050  1
  Mg  Mg1_4  1  0.50000000  0.00000000  0.34965050  1
  Mg  Mg1_5  1  0.50000000  0.00000000  0.84965050  1
  Mg  Mg1_6  1  0.50000000  0.50000000  0.34965050  1
  Mg  Mg1_7  1  0.50000000  0.50000000  0.84965050  1
  Mg  Mg2_0  1  0.33333350  0.16666650  0.07543400  1
  Mg  Mg2_1  1  0.33333350  0.16666650  0.57543400  1
  Mg  Mg2_2  1  0.33333350  0.66666650  0.07543400  1
  Mg  Mg2_3  1  0.33333350  0.66666650  0.57543400  1
  Mg  Mg2_4  1  0.83333350  0.16666650  0.07543400  1
  Mg  Mg2_5  1  0.83333350  0.16666650  0.57543400  1
  Mg  Mg2_6  1  0.83333350  0.66666650  0.07543400  1
  Mg  Mg2_7  1  0.83333350  0.66666650  0.57543400  1
loop_
_geom_bond_atom_site_label_1
_geom_bond_atom_site_label_2
_geom_bond_distance
_geom_bond_site_symmetry_2
Sr0_0 Sr0_2 4.172782 1_555
Sr0_0 Sr0_2 4.172782 1_545
Sr0_0 Sr0_4 4.172782 1_455
Sr0_0 Sr0_4 4.172782 1_555
Sr0_0 Sr0_6 4.172782 1_555
Sr0_0 Sr0_6 4.172782 1_445
Sr0_1 Sr0_3 4.172782 1_555
Sr0_1 Sr0_5 4.172782 1_455
Sr0_1 Sr0_5 4.172782 1_555
Sr0_1 Sr0_3 4.172782 1_545
Sr0_1 Sr0_7 4.172782 1_445
Sr0_1 Sr0_7 4.172782 1_555
Sr0_2 Sr0_6 4.172782 1_455
Sr0_2 Sr0_6 4.172782 1_555
Sr0_2 Sr0_4 4.172782 1_455
Sr0_2 Sr0_4 4.172782 1_565
Sr0_3 Sr0_7 4.172782 1_555
Sr0_3 Sr0_7 4.172782 1_455
Sr0_3 Sr0_5 4.172782 1_455
Sr0_3 Sr0_5 4.172782 1_565
Sr0_4 Sr0_6 4.172782 1_555
Sr0_4 Sr0_6 4.172782 1_545
Sr0_5 Sr0_7 4.172782 1_555
Sr0_5 Sr0_7 4.172782 1_545
Sr1_0 Sr1_4 4.172782 1_555
Sr1_0 Sr1_2 4.172782 1_555
Sr1_0 Sr1_2 4.172782 1_545
Sr1_0 Sr1_4 4.172782 1_455
Sr1_0 Sr1_6 4.172782 1_555
Sr1_0 Sr1_6 4.172782 1_445
Sr1_0 Sr2_4 4.201003 1_555
Sr1_0 Sr2_6 4.201005 1_555
Sr1_0 Sr2_0 4.201005 1_555
Sr1_1 Sr1_5 4.172782 1_555
Sr1_1 Sr1_3 4.172782 1_555
Sr1_1 Sr1_5 4.172782 1_455
Sr1_1 Sr1_3 4.172782 1_545
Sr1_1 Sr1_7 4.172782 1_555
Sr1_1 Sr1_7 4.172782 1_445
Sr1_1 Sr2_5 4.201003 1_555
Sr1_1 Sr2_7 4.201005 1_555
Sr1_1 Sr2_1 4.201005 1_555
Sr1_2 Sr1_6 4.172782 1_555
Sr1_2 Sr1_6 4.172782 1_455
Sr1_2 Sr1_4 4.172782 1_455
Sr1_2 Sr1_4 4.172782 1_565
Sr1_2 Sr2_6 4.201003 1_555
Sr1_2 Sr2_2 4.201005 1_555
Sr1_2 Sr2_4 4.201005 1_565
Sr1_3 Sr1_7 4.172782 1_555
Sr1_3 Sr1_7 4.172782 1_455
Sr1_3 Sr1_5 4.172782 1_455
Sr1_3 Sr1_5 4.172782 1_565
Sr1_3 Sr2_7 4.201003 1_555
Sr1_3 Sr2_3 4.201005 1_555
Sr1_3 Sr2_5 4.201005 1_565
Sr1_4 Sr1_6 4.172782 1_555
Sr1_4 Sr1_6 4.172782 1_545
Sr1_4 Sr2_0 4.201003 1_655
Sr1_4 Sr2_2 4.201005 1_655
Sr1_4 Sr2_4 4.201005 1_555
Sr1_5 Sr1_7 4.172782 1_545
Sr1_5 Sr1_7 4.172782 1_555
Sr1_5 Sr2_1 4.201003 1_655
Sr1_5 Sr2_3 4.201005 1_655
Sr1_5 Sr2_5 4.201005 1_555
Sr1_6 Sr2_2 4.201003 1_655
Sr1_6 Sr2_0 4.201005 1_665
Sr1_6 Sr2_6 4.201005 1_555
Sr1_7 Sr2_3 4.201003 1_655
Sr1_7 Sr2_7 4.201005 1_555
Sr1_7 Sr2_1 4.201005 1_665
Sr2_0 Sr2_2 4.172782 1_555
Sr2_0 Sr2_4 4.172782 1_455
Sr2_0 Sr2_4 4.172782 1_555
Sr2_0 Sr2_2 4.172782 1_545
Sr2_0 Sr2_6 4.172782 1_445
Sr2_0 Sr2_6 4.172782 1_555
Sr2_1 Sr2_3 4.172782 1_555
Sr2_1 Sr2_5 4.172782 1_455
Sr2_1 Sr2_5 4.172782 1_555
Sr2_1 Sr2_3 4.172782 1_545
Sr2_1 Sr2_7 4.172782 1_445
Sr2_1 Sr2_7 4.172782 1_555
Sr2_2 Sr2_6 4.172782 1_555
Sr2_2 Sr2_6 4.172782 1_455
Sr2_2 Sr2_4 4.172782 1_565
Sr2_2 Sr2_4 4.172782 1_455
Sr2_3 Sr2_7 4.172782 1_455
Sr2_3 Sr2_7 4.172782 1_555
Sr2_3 Sr2_5 4.172782 1_565
Sr2_3 Sr2_5 4.172782 1_455
Sr2_4 Sr2_6 4.172782 1_555
Sr2_4 Sr2_6 4.172782 1_545
Sr2_5 Sr2_7 4.172782 1_555
Sr2_5 Sr2_7 4.172782 1_545
Mg0_0 Mg1_4 3.065506 1_555
Mg0_0 Mg1_6 3.065509 1_555
Mg0_0 Mg1_0 3.065509 1_555
Mg0_0 Sr0_4 3.573909 1_555
Mg0_0 Sr0_6 3.573912 1_555
Mg0_0 Sr0_0 3.573912 1_555
Mg0_1 Mg1_5 3.065506 1_555
Mg0_1 Mg1_7 3.065509 1_555
Mg0_1 Mg1_1 3.065509 1_555
Mg0_1 Sr0_5 3.573909 1_555
Mg0_1 Sr0_7 3.573912 1_555
Mg0_1 Sr0_1 3.573912 1_555
Mg0_2 Mg1_6 3.065506 1_555
Mg0_2 Mg1_2 3.065509 1_555
Mg0_2 Mg1_4 3.065509 1_565
Mg0_2 Sr0_6 3.573909 1_555
Mg0_2 Sr0_2 3.573912 1_555
Mg0_2 Sr0_4 3.573912 1_565
Mg0_3 Mg1_7 3.065506 1_555
Mg0_3 Mg1_3 3.065509 1_555
Mg0_3 Mg1_5 3.065509 1_565
Mg0_3 Sr0_7 3.573909 1_555
Mg0_3 Sr0_5 3.573912 1_565
Mg0_3 Sr0_3 3.573912 1_555
Mg0_4 Mg1_0 3.065506 1_655
Mg0_4 Mg1_4 3.065509 1_555
Mg0_4 Mg1_2 3.065509 1_655
Mg0_4 Sr0_0 3.573909 1_655
Mg0_4 Sr0_4 3.573912 1_555
Mg0_4 Sr0_2 3.573912 1_655
Mg0_5 Mg1_1 3.065506 1_655
Mg0_5 Mg1_5 3.065509 1_555
Mg0_5 Mg1_3 3.065509 1_655
Mg0_5 Sr0_1 3.573909 1_655
Mg0_5 Sr0_3 3.573912 1_655
Mg0_5 Sr0_5 3.573912 1_555
Mg0_6 Mg1_2 3.065506 1_655
Mg0_6 Mg1_6 3.065509 1_555
Mg0_6 Mg1_0 3.065509 1_665
Mg0_6 Sr0_2 3.573909 1_655
Mg0_6 Sr0_6 3.573912 1_555
Mg0_6 Sr0_0 3.573912 1_665
Mg0_7 Mg1_3 3.065506 1_655
Mg0_7 Mg1_7 3.065509 1_555
Mg0_7 Mg1_1 3.065509 1_665
Mg0_7 Sr0_3 3.573909 1_655
Mg0_7 Sr0_7 3.573912 1_555
Mg0_7 Sr0_1 3.573912 1_665
Mg1_0 Sr1_4 3.599479 1_455
Mg1_0 Sr1_0 3.599481 1_555
Mg1_0 Sr1_6 3.599481 1_445
Mg1_1 Sr1_5 3.599479 1_455
Mg1_1 Sr1_1 3.599481 1_555
Mg1_1 Sr1_7 3.599481 1_445
Mg1_2 Sr1_6 3.599479 1_455
Mg1_2 Sr1_4 3.599481 1_455
Mg1_2 Sr1_2 3.599481 1_555
Mg1_3 Sr1_7 3.599479 1_455
Mg1_3 Sr1_5 3.599481 1_455
Mg1_3 Sr1_3 3.599481 1_555
Mg1_4 Sr1_0 3.599479 1_555
Mg1_4 Sr1_4 3.599481 1_555
Mg1_4 Sr1_2 3.599481 1_545
Mg1_5 Sr1_1 3.599479 1_555
Mg1_5 Sr1_5 3.599481 1_555
Mg1_5 Sr1_3 3.599481 1_545
Mg1_6 Sr1_2 3.599479 1_555
Mg1_6 Sr1_0 3.599481 1_555
Mg1_6 Sr1_6 3.599481 1_555
Mg1_7 Sr1_3 3.599479 1_555
Mg1_7 Sr1_1 3.599481 1_555
Mg1_7 Sr1_7 3.599481 1_555
Mg2_0 Sr2_4 3.591647 1_555
Mg2_0 Sr2_6 3.591650 1_555
Mg2_0 Sr2_0 3.591650 1_555
Mg2_0 Sr0_5 3.613787 1_554
Mg2_0 Sr0_7 3.613789 1_554
Mg2_0 Sr0_1 3.613789 1_554
Mg2_1 Sr2_5 3.591647 1_555
Mg2_1 Sr2_7 3.591650 1_555
Mg2_1 Sr2_1 3.591650 1_555
Mg2_1 Sr0_4 3.613787 1_555
Mg2_1 Sr0_6 3.613789 1_555
Mg2_1 Sr0_0 3.613789 1_555
Mg2_2 Sr2_6 3.591647 1_555
Mg2_2 Sr2_2 3.591650 1_555
Mg2_2 Sr2_4 3.591650 1_565
Mg2_2 Sr0_7 3.613787 1_554
Mg2_2 Sr0_3 3.613789 1_554
Mg2_2 Sr0_5 3.613789 1_564
Mg2_3 Sr2_7 3.591647 1_555
Mg2_3 Sr2_3 3.591650 1_555
Mg2_3 Sr2_5 3.591650 1_565
Mg2_3 Sr0_6 3.613787 1_555
Mg2_3 Sr0_2 3.613789 1_555
Mg2_3 Sr0_4 3.613789 1_565
Mg2_4 Sr2_0 3.591647 1_655
Mg2_4 Sr2_2 3.591650 1_655
Mg2_4 Sr2_4 3.591650 1_555
Mg2_4 Sr0_1 3.613787 1_654
Mg2_4 Sr0_5 3.613789 1_554
Mg2_4 Sr0_3 3.613789 1_654
Mg2_5 Sr2_1 3.591647 1_655
Mg2_5 Sr2_5 3.591650 1_555
Mg2_5 Sr2_3 3.591650 1_655
Mg2_5 Sr0_0 3.613787 1_655
Mg2_5 Sr0_2 3.613789 1_655
Mg2_5 Sr0_4 3.613789 1_555
Mg2_6 Sr2_2 3.591647 1_655
Mg2_6 Sr2_6 3.591650 1_555
Mg2_6 Sr2_0 3.591650 1_665
Mg2_6 Sr0_3 3.613787 1_654
Mg2_6 Sr0_7 3.613789 1_554
Mg2_6 Sr0_1 3.613789 1_664
Mg2_7 Sr2_3 3.591647 1_655
Mg2_7 Sr2_7 3.591650 1_555
Mg2_7 Sr2_1 3.591650 1_665
Mg2_7 Sr0_2 3.613787 1_655
Mg2_7 Sr0_6 3.613789 1_555
Mg2_7 Sr0_0 3.613789 1_665
