# generated using pymatgen
data_Th2(SiPt)3
_symmetry_space_group_name_H-M   'P 1'
_cell_length_a   5.73122200
_cell_length_b   5.73122200
_cell_length_c   42.15195200
_cell_angle_alpha   90.00000000
_cell_angle_beta   90.00000000
_cell_angle_gamma   90.00000000
_symmetry_Int_Tables_number   1
_chemical_formula_structural   Th2(SiPt)3
_chemical_formula_sum   'Th16 Si24 Pt24'
_cell_volume   1384.56118876
_cell_formula_units_Z   8
loop_
 _symmetry_equiv_pos_site_id
 _symmetry_equiv_pos_as_xyz
  1  'x, y, z'
loop_
 _atom_site_type_symbol
 _atom_site_label
 _atom_site_symmetry_multiplicity
 _atom_site_fract_x
 _atom_site_fract_y
 _atom_site_fract_z
 _atom_site_occupancy
  Th  Th0_0  1  0.25000000  0.25000000  0.37676550  1
  Th  Th0_1  1  0.25000000  0.25000000  0.87676550  1
  Th  Th0_2  1  0.25000000  0.75000000  0.37676550  1
  Th  Th0_3  1  0.25000000  0.75000000  0.87676550  1
  Th  Th0_4  1  0.75000000  0.25000000  0.37676550  1
  Th  Th0_5  1  0.75000000  0.25000000  0.87676550  1
  Th  Th0_6  1  0.75000000  0.75000000  0.37676550  1
  Th  Th0_7  1  0.75000000  0.75000000  0.87676550  1
  Th  Th1_0  1  0.25000000  0.25000000  0.12323450  1
  Th  Th1_1  1  0.25000000  0.25000000  0.62323450  1
  Th  Th1_2  1  0.25000000  0.75000000  0.12323450  1
  Th  Th1_3  1  0.25000000  0.75000000  0.62323450  1
  Th  Th1_4  1  0.75000000  0.25000000  0.12323450  1
  Th  Th1_5  1  0.75000000  0.25000000  0.62323450  1
  Th  Th1_6  1  0.75000000  0.75000000  0.12323450  1
  Th  Th1_7  1  0.75000000  0.75000000  0.62323450  1
  Si  Si0_0  1  0.25000000  0.25000000  0.19418750  1
  Si  Si0_1  1  0.25000000  0.25000000  0.69418750  1
  Si  Si0_2  1  0.25000000  0.75000000  0.19418750  1
  Si  Si0_3  1  0.25000000  0.75000000  0.69418750  1
  Si  Si0_4  1  0.75000000  0.25000000  0.19418750  1
  Si  Si0_5  1  0.75000000  0.25000000  0.69418750  1
  Si  Si0_6  1  0.75000000  0.75000000  0.19418750  1
  Si  Si0_7  1  0.75000000  0.75000000  0.69418750  1
  Si  Si1_0  1  0.25000000  0.25000000  0.30581250  1
  Si  Si1_1  1  0.25000000  0.25000000  0.80581250  1
  Si  Si1_2  1  0.25000000  0.75000000  0.30581250  1
  Si  Si1_3  1  0.25000000  0.75000000  0.80581250  1
  Si  Si1_4  1  0.75000000  0.25000000  0.30581250  1
  Si  Si1_5  1  0.75000000  0.25000000  0.80581250  1
  Si  Si1_6  1  0.75000000  0.75000000  0.30581250  1
  Si  Si1_7  1  0.75000000  0.75000000  0.80581250  1
  Si  Si2_0  1  0.25000000  0.25000000  0.00000000  1
  Si  Si2_1  1  0.25000000  0.25000000  0.50000000  1
  Si  Si2_2  1  0.25000000  0.75000000  0.00000000  1
  Si  Si2_3  1  0.25000000  0.75000000  0.50000000  1
  Si  Si2_4  1  0.75000000  0.25000000  0.00000000  1
  Si  Si2_5  1  0.75000000  0.25000000  0.50000000  1
  Si  Si2_6  1  0.75000000  0.75000000  0.00000000  1
  Si  Si2_7  1  0.75000000  0.75000000  0.50000000  1
  Pt  Pt0_0  1  0.25000000  0.25000000  0.05618850  1
  Pt  Pt0_1  1  0.25000000  0.25000000  0.55618850  1
  Pt  Pt0_2  1  0.25000000  0.75000000  0.05618850  1
  Pt  Pt0_3  1  0.25000000  0.75000000  0.55618850  1
  Pt  Pt0_4  1  0.75000000  0.25000000  0.05618850  1
  Pt  Pt0_5  1  0.75000000  0.25000000  0.55618850  1
  Pt  Pt0_6  1  0.75000000  0.75000000  0.05618850  1
  Pt  Pt0_7  1  0.75000000  0.75000000  0.55618850  1
  Pt  Pt1_0  1  0.25000000  0.25000000  0.44381150  1
  Pt  Pt1_1  1  0.25000000  0.25000000  0.94381150  1
  Pt  Pt1_2  1  0.25000000  0.75000000  0.44381150  1
  Pt  Pt1_3  1  0.25000000  0.75000000  0.94381150  1
  Pt  Pt1_4  1  0.75000000  0.25000000  0.44381150  1
  Pt  Pt1_5  1  0.75000000  0.25000000  0.94381150  1
  Pt  Pt1_6  1  0.75000000  0.75000000  0.44381150  1
  Pt  Pt1_7  1  0.75000000  0.75000000  0.94381150  1
  Pt  Pt2_0  1  0.25000000  0.25000000  0.25000000  1
  Pt  Pt2_1  1  0.25000000  0.25000000  0.75000000  1
  Pt  Pt2_2  1  0.25000000  0.75000000  0.25000000  1
  Pt  Pt2_3  1  0.25000000  0.75000000  0.75000000  1
  Pt  Pt2_4  1  0.75000000  0.25000000  0.25000000  1
  Pt  Pt2_5  1  0.75000000  0.25000000  0.75000000  1
  Pt  Pt2_6  1  0.75000000  0.75000000  0.25000000  1
  Pt  Pt2_7  1  0.75000000  0.75000000  0.75000000  1
loop_
_geom_bond_atom_site_label_1
_geom_bond_atom_site_label_2
_geom_bond_distance
_geom_bond_site_symmetry_2
Th0_0 Th0_2 2.865611 1_545
Th0_0 Th0_4 2.865611 1_455
Th0_0 Th0_4 2.865611 1_555
Th0_0 Th0_2 2.865611 1_555
Th0_1 Th0_3 2.865611 1_545
Th0_1 Th0_5 2.865611 1_455
Th0_1 Th0_3 2.865611 1_555
Th0_1 Th0_5 2.865611 1_555
Th0_2 Th0_6 2.865611 1_455
Th0_2 Th0_6 2.865611 1_555
Th0_3 Th0_7 2.865611 1_455
Th0_3 Th0_7 2.865611 1_555
Th0_4 Th0_6 2.865611 1_545
Th0_4 Th0_6 2.865611 1_555
Th0_5 Th0_7 2.865611 1_545
Th0_5 Th0_7 2.865611 1_555
Th1_0 Th1_4 2.865611 1_455
Th1_0 Th1_2 2.865611 1_545
Th1_0 Th1_4 2.865611 1_555
Th1_0 Th1_2 2.865611 1_555
Th1_1 Th1_5 2.865611 1_455
Th1_1 Th1_3 2.865611 1_545
Th1_1 Th1_5 2.865611 1_555
Th1_1 Th1_3 2.865611 1_555
Th1_2 Th1_6 2.865611 1_455
Th1_2 Th1_6 2.865611 1_555
Th1_3 Th1_7 2.865611 1_455
Th1_3 Th1_7 2.865611 1_555
Th1_4 Th1_6 2.865611 1_545
Th1_4 Th1_6 2.865611 1_555
Th1_5 Th1_7 2.865611 1_545
Th1_5 Th1_7 2.865611 1_555
Si0_0 Th1_0 2.990807 1_555
Si0_1 Th1_1 2.990807 1_555
Si0_2 Th1_2 2.990807 1_555
Si0_3 Th1_3 2.990807 1_555
Si0_4 Th1_4 2.990807 1_555
Si0_5 Th1_5 2.990807 1_555
Si0_6 Th1_6 2.990807 1_555
Si0_7 Th1_7 2.990807 1_555
Si1_0 Th0_0 2.990807 1_555
Si1_1 Th0_1 2.990807 1_555
Si1_2 Th0_2 2.990807 1_555
Si1_3 Th0_3 2.990807 1_555
Si1_4 Th0_4 2.990807 1_555
Si1_5 Th0_5 2.990807 1_555
Si1_6 Th0_6 2.990807 1_555
Si1_7 Th0_7 2.990807 1_555
Pt0_0 Si2_0 2.368455 1_555
Pt0_0 Th1_0 2.826120 1_555
Pt0_1 Si2_1 2.368455 1_555
Pt0_1 Th1_1 2.826120 1_555
Pt0_2 Si2_2 2.368455 1_555
Pt0_2 Th1_2 2.826120 1_555
Pt0_3 Si2_3 2.368455 1_555
Pt0_3 Th1_3 2.826120 1_555
Pt0_4 Si2_4 2.368455 1_555
Pt0_4 Th1_4 2.826120 1_555
Pt0_5 Si2_5 2.368455 1_555
Pt0_5 Th1_5 2.826120 1_555
Pt0_6 Si2_6 2.368455 1_555
Pt0_6 Th1_6 2.826120 1_555
Pt0_7 Si2_7 2.368455 1_555
Pt0_7 Th1_7 2.826120 1_555
Pt1_0 Si2_1 2.368455 1_555
Pt1_0 Th0_0 2.826120 1_555
Pt1_1 Si2_0 2.368455 1_556
Pt1_1 Th0_1 2.826120 1_555
Pt1_2 Si2_3 2.368455 1_555
Pt1_2 Th0_2 2.826120 1_555
Pt1_3 Si2_2 2.368455 1_556
Pt1_3 Th0_3 2.826120 1_555
Pt1_4 Si2_5 2.368455 1_555
Pt1_4 Th0_4 2.826120 1_555
Pt1_5 Si2_4 2.368455 1_556
Pt1_5 Th0_5 2.826120 1_555
Pt1_6 Si2_7 2.368455 1_555
Pt1_6 Th0_6 2.826120 1_555
Pt1_7 Si2_6 2.368455 1_556
Pt1_7 Th0_7 2.826120 1_555
Pt2_0 Si0_0 2.352606 1_555
Pt2_0 Si1_0 2.352606 1_555
Pt2_1 Si1_1 2.352606 1_555
Pt2_1 Si0_1 2.352606 1_555
Pt2_2 Si0_2 2.352606 1_555
Pt2_2 Si1_2 2.352606 1_555
Pt2_3 Si1_3 2.352606 1_555
Pt2_3 Si0_3 2.352606 1_555
Pt2_4 Si0_4 2.352606 1_555
Pt2_4 Si1_4 2.352606 1_555
Pt2_5 Si1_5 2.352606 1_555
Pt2_5 Si0_5 2.352606 1_555
Pt2_6 Si0_6 2.352606 1_555
Pt2_6 Si1_6 2.352606 1_555
Pt2_7 Si1_7 2.352606 1_555
Pt2_7 Si0_7 2.352606 1_555
