# generated using pymatgen
data_Ca2SiO4F
_symmetry_space_group_name_H-M   'P 1'
_cell_length_a   10.72563000
_cell_length_b   5.95959900
_cell_length_c   6.65706892
_cell_angle_alpha   80.59231580
_cell_angle_beta   90.00000000
_cell_angle_gamma   90.00000000
_symmetry_Int_Tables_number   1
_chemical_formula_structural   Ca2SiO4F
_chemical_formula_sum   'Ca8 Si4 O16 F4'
_cell_volume   419.79968985
_cell_formula_units_Z   4
loop_
 _symmetry_equiv_pos_site_id
 _symmetry_equiv_pos_as_xyz
  1  'x, y, z'
loop_
 _atom_site_type_symbol
 _atom_site_label
 _atom_site_symmetry_multiplicity
 _atom_site_fract_x
 _atom_site_fract_y
 _atom_site_fract_z
 _atom_site_occupancy
  Ca  Ca0  1  0.08487300  0.73573700  0.06076400  1
  Ca  Ca1  1  0.58487300  0.26426300  0.43923600  1
  Ca  Ca2  1  0.91512700  0.26426300  0.93923600  1
  Ca  Ca3  1  0.41512700  0.73573700  0.56076400  1
  Ca  Ca4  1  0.68996700  0.80884400  0.16893600  1
  Ca  Ca5  1  0.18996700  0.19115600  0.33106400  1
  Ca  Ca6  1  0.31003300  0.19115600  0.83106400  1
  Ca  Ca7  1  0.81003300  0.80884400  0.66893600  1
  Si  Si0  1  0.37163800  0.66515700  0.11110700  1
  Si  Si1  1  0.87163800  0.33484300  0.38889300  1
  Si  Si2  1  0.62836200  0.33484300  0.88889300  1
  Si  Si3  1  0.12836200  0.66515700  0.61110700  1
  O  O0  1  0.49297100  0.59895700  0.25577600  1
  O  O1  1  0.99297100  0.40104300  0.24422400  1
  O  O2  1  0.50702900  0.40104300  0.74422400  1
  O  O3  1  0.00702900  0.59895700  0.75577600  1
  O  O4  1  0.27830600  0.46138400  0.07463800  1
  O  O5  1  0.77830600  0.53861600  0.42536200  1
  O  O6  1  0.72169400  0.53861600  0.92536200  1
  O  O7  1  0.22169400  0.46138400  0.57463800  1
  O  O8  1  0.28797700  0.85958900  0.21005600  1
  O  O9  1  0.78797700  0.14041100  0.28994400  1
  O  O10  1  0.71202300  0.14041100  0.78994400  1
  O  O11  1  0.21202300  0.85958900  0.71005600  1
  O  O12  1  0.41666200  0.82634300  0.89529900  1
  O  O13  1  0.91666200  0.17365700  0.60470100  1
  O  O14  1  0.58333800  0.17365700  0.10470100  1
  O  O15  1  0.08333800  0.82634300  0.39529900  1
  F  F0  1  0.88742300  0.87229600  0.00885200  1
  F  F1  1  0.38742300  0.12770400  0.49114800  1
  F  F2  1  0.11257700  0.12770400  0.99114800  1
  F  F3  1  0.61257700  0.87229600  0.50885200  1
loop_
_geom_bond_atom_site_label_1
_geom_bond_atom_site_label_2
_geom_bond_distance
_geom_bond_site_symmetry_2
Ca0 F0 2.274816 1_455
Ca0 F2 2.325058 1_564
Ca0 O15 2.375837 1_555
Ca0 O1 2.376008 1_455
Ca0 O3 2.454559 1_554
Ca0 O8 2.553010 1_555
Ca0 O4 2.633788 1_555
Ca0 O11 2.700382 1_554
Ca1 F1 2.274816 1_555
Ca1 F3 2.325058 1_545
Ca1 O14 2.375837 1_555
Ca1 O0 2.376008 1_555
Ca1 O2 2.454559 1_555
Ca1 O9 2.553010 1_555
Ca1 O5 2.633788 1_555
Ca1 O10 2.700382 1_555
Ca2 F2 2.274816 1_655
Ca2 F0 2.325058 1_546
Ca2 O13 2.375837 1_555
Ca2 O3 2.376008 1_655
Ca2 O1 2.454559 1_556
Ca2 O10 2.553010 1_555
Ca2 O6 2.633788 1_555
Ca2 O9 2.700382 1_556
Ca3 F3 2.274816 1_555
Ca3 F1 2.325058 1_565
Ca3 O12 2.375837 1_555
Ca3 O2 2.376008 1_555
Ca3 O0 2.454559 1_555
Ca3 O11 2.553010 1_555
Ca3 O7 2.633788 1_555
Ca3 O8 2.700382 1_555
Ca4 O5 2.346607 1_555
Ca4 F0 2.373224 1_555
Ca4 O14 2.431824 1_565
Ca4 O0 2.475234 1_555
Ca4 O9 2.485753 1_565
Ca4 O6 2.488426 1_554
Ca4 F3 2.496436 1_555
Ca4 O10 2.948925 1_564
Ca5 O4 2.346607 1_555
Ca5 F1 2.373224 1_555
Ca5 O15 2.431824 1_545
Ca5 O1 2.475234 1_455
Ca5 O8 2.485753 1_545
Ca5 O7 2.488426 1_555
Ca5 F2 2.496436 1_554
Ca5 O11 2.948925 1_545
Ca6 O7 2.346607 1_555
Ca6 F2 2.373224 1_555
Ca6 O12 2.431824 1_545
Ca6 O2 2.475234 1_555
Ca6 O11 2.485753 1_545
Ca6 O4 2.488426 1_556
Ca6 F1 2.496436 1_555
Ca6 O8 2.948925 1_546
Ca7 O6 2.346607 1_555
Ca7 F3 2.373224 1_555
Ca7 O13 2.431824 1_565
Ca7 O3 2.475234 1_655
Ca7 O10 2.485753 1_565
Ca7 O5 2.488426 1_555
Ca7 F0 2.496436 1_556
Ca7 O9 2.948925 1_565
O0 Si0 1.628654 1_555
O1 Si1 1.628654 1_555
O2 Si2 1.628654 1_555
O3 Si3 1.628654 1_555
O4 Si0 1.622404 1_555
O5 Si1 1.622404 1_555
O6 Si2 1.622404 1_555
O7 Si3 1.622404 1_555
O8 Si0 1.682639 1_555
O9 Si1 1.682639 1_555
O10 Si2 1.682639 1_555
O11 Si3 1.682639 1_555
O12 Si0 1.663959 1_556
O13 Si1 1.663959 1_555
O14 Si2 1.663959 1_554
O15 Si3 1.663959 1_555
