# generated using pymatgen
data_Sm3SnN
_symmetry_space_group_name_H-M   'P 1'
_cell_length_a   4.91656245
_cell_length_b   4.91656245
_cell_length_c   4.91656245
_cell_angle_alpha   90.00000000
_cell_angle_beta   90.00000000
_cell_angle_gamma   90.00000000
_symmetry_Int_Tables_number   1
_chemical_formula_structural   Sm3SnN
_chemical_formula_sum   'Sm3 Sn1 N1'
_cell_volume   118.84603024
_cell_formula_units_Z   1
loop_
 _symmetry_equiv_pos_site_id
 _symmetry_equiv_pos_as_xyz
  1  'x, y, z'
loop_
 _atom_site_type_symbol
 _atom_site_label
 _atom_site_symmetry_multiplicity
 _atom_site_fract_x
 _atom_site_fract_y
 _atom_site_fract_z
 _atom_site_occupancy
  Sm  Sm0  1  0.50000000  -0.00000000  -0.00000000  1
  Sm  Sm1  1  -0.00000000  0.50000000  -0.00000000  1
  Sm  Sm2  1  -0.00000000  0.00000000  0.50000000  1
  Sn  Sn0  1  0.50000000  0.50000000  0.50000000  1
  N  N0  1  -0.00000000  0.00000000  -0.00000000  1
loop_
_geom_bond_atom_site_label_1
_geom_bond_atom_site_label_2
_geom_bond_distance
_geom_bond_site_symmetry_2
Sm0 Sn0 3.476535 1_544
Sm0 Sn0 3.476535 1_545
Sm0 Sn0 3.476535 1_555
Sm0 Sn0 3.476535 1_554
Sm1 Sn0 3.476535 1_555
Sm1 Sn0 3.476535 1_455
Sm1 Sn0 3.476535 1_554
Sm1 Sn0 3.476535 1_454
Sm2 Sn0 3.476535 1_545
Sm2 Sn0 3.476535 1_555
Sm2 Sn0 3.476535 1_445
Sm2 Sn0 3.476535 1_455
N0 Sm2 2.458281 1_555
N0 Sm0 2.458281 1_455
N0 Sm1 2.458281 1_555
N0 Sm1 2.458281 1_545
N0 Sm2 2.458281 1_554
N0 Sm0 2.458281 1_555
