# generated using pymatgen
data_YCo3F15
_symmetry_space_group_name_H-M   'P 1'
_cell_length_a   11.50120200
_cell_length_b   5.75781600
_cell_length_c   9.39075581
_cell_angle_alpha   72.78228876
_cell_angle_beta   90.00000000
_cell_angle_gamma   90.00000000
_symmetry_Int_Tables_number   1
_chemical_formula_structural   YCo3F15
_chemical_formula_sum   'Y2 Co6 F30'
_cell_volume   594.00475571
_cell_formula_units_Z   2
loop_
 _symmetry_equiv_pos_site_id
 _symmetry_equiv_pos_as_xyz
  1  'x, y, z'
loop_
 _atom_site_type_symbol
 _atom_site_label
 _atom_site_symmetry_multiplicity
 _atom_site_fract_x
 _atom_site_fract_y
 _atom_site_fract_z
 _atom_site_occupancy
  Y  Y0  1  0.25000000  0.78475300  0.74256100  1
  Y  Y1  1  0.75000000  0.21524700  0.25743900  1
  Co  Co0  1  0.50000000  0.00000000  0.00000000  1
  Co  Co1  1  0.51133400  0.68017500  0.34747800  1
  Co  Co2  1  0.48866600  0.31982500  0.65252200  1
  Co  Co3  1  0.00000000  0.00000000  0.00000000  1
  Co  Co4  1  0.98866600  0.68017500  0.34747800  1
  Co  Co5  1  0.01133400  0.31982500  0.65252200  1
  F  F0  1  0.25000000  0.53637200  0.04456300  1
  F  F1  1  0.25000000  0.40895200  0.20002900  1
  F  F2  1  0.25000000  0.03780700  0.54694000  1
  F  F3  1  0.75000000  0.46362800  0.95543700  1
  F  F4  1  0.75000000  0.96219300  0.45306000  1
  F  F5  1  0.75000000  0.59104800  0.79997100  1
  F  F6  1  0.56776700  0.25469200  0.85756900  1
  F  F7  1  0.61352400  0.01093900  0.17176100  1
  F  F8  1  0.58823200  0.58042300  0.54671300  1
  F  F9  1  0.43223300  0.74530800  0.14243100  1
  F  F10  1  0.41176800  0.41957700  0.45328700  1
  F  F11  1  0.38647600  0.98906100  0.82823900  1
  F  F12  1  0.90938200  0.79939500  0.95153400  1
  F  F13  1  0.88040600  0.49037100  0.27705400  1
  F  F14  1  0.93662300  0.07669900  0.62120300  1
  F  F15  1  0.09061800  0.20060500  0.04846600  1
  F  F16  1  0.06337700  0.92330100  0.37879700  1
  F  F17  1  0.11959400  0.50962900  0.72294600  1
  F  F18  1  0.40938200  0.20060500  0.04846600  1
  F  F19  1  0.43662300  0.92330100  0.37879700  1
  F  F20  1  0.38040600  0.50962900  0.72294600  1
  F  F21  1  0.59061800  0.79939500  0.95153400  1
  F  F22  1  0.61959400  0.49037100  0.27705400  1
  F  F23  1  0.56337700  0.07669900  0.62120300  1
  F  F24  1  0.93223300  0.25469200  0.85756900  1
  F  F25  1  0.88647600  0.01093900  0.17176100  1
  F  F26  1  0.91176800  0.58042300  0.54671300  1
  F  F27  1  0.06776700  0.74530800  0.14243100  1
  F  F28  1  0.08823200  0.41957700  0.45328700  1
  F  F29  1  0.11352400  0.98906100  0.82823900  1
loop_
_geom_bond_atom_site_label_1
_geom_bond_atom_site_label_2
_geom_bond_distance
_geom_bond_site_symmetry_2
Co0 F18 1.714267 1_555
Co0 F21 1.714267 1_544
Co0 F6 1.840056 1_554
Co0 F9 1.840056 1_545
Co0 F7 2.090580 1_555
Co0 F11 2.090580 1_544
Co1 F19 1.740180 1_555
Co1 F22 1.899972 1_555
Co1 F10 1.915048 1_555
Co1 F8 1.994099 1_555
Co1 F9 2.061195 1_555
Co1 F7 2.422978 1_565
Co2 F23 1.740180 1_555
Co2 F20 1.899972 1_555
Co2 F8 1.915048 1_555
Co2 F10 1.994099 1_555
Co2 F6 2.061195 1_555
Co2 F11 2.422978 1_545
Co3 F12 1.714267 1_444
Co3 F15 1.714267 1_555
Co3 F27 1.840056 1_545
Co3 F24 1.840056 1_454
Co3 F25 2.090580 1_455
Co3 F29 2.090580 1_544
Co4 F16 1.740180 1_655
Co4 F13 1.899972 1_555
Co4 F28 1.915048 1_655
Co4 F26 1.994099 1_555
Co4 F27 2.061195 1_655
Co4 F25 2.422978 1_565
Co5 F14 1.740180 1_455
Co5 F17 1.899972 1_555
Co5 F26 1.915048 1_455
Co5 F28 1.994099 1_555
Co5 F24 2.061195 1_455
Co5 F29 2.422978 1_545
F0 F1 1.426742 1_555
F0 Y0 2.772582 1_554
F2 Y0 1.978145 1_545
F3 F5 1.426742 1_555
F3 Y1 2.772582 1_556
F4 Y1 1.978145 1_565
F7 Y1 2.248395 1_555
F11 Y0 2.248395 1_555
F13 Y1 2.228355 1_555
F17 Y0 2.228355 1_555
F20 Y0 2.228355 1_555
F22 Y1 2.228355 1_555
F25 Y1 2.248395 1_555
F29 Y0 2.248395 1_555
