# generated using pymatgen
data_Na4Hf2(GeO4)3
_symmetry_space_group_name_H-M   'P 1'
_cell_length_a   9.18928829
_cell_length_b   9.18928829
_cell_length_c   9.18928799
_cell_angle_alpha   61.80107916
_cell_angle_beta   61.80107916
_cell_angle_gamma   61.80108454
_symmetry_Int_Tables_number   1
_chemical_formula_structural   Na4Hf2(GeO4)3
_chemical_formula_sum   'Na8 Hf4 Ge6 O24'
_cell_volume   570.83079990
_cell_formula_units_Z   2
loop_
 _symmetry_equiv_pos_site_id
 _symmetry_equiv_pos_as_xyz
  1  'x, y, z'
loop_
 _atom_site_type_symbol
 _atom_site_label
 _atom_site_symmetry_multiplicity
 _atom_site_fract_x
 _atom_site_fract_y
 _atom_site_fract_z
 _atom_site_occupancy
  Na  Na0  1  -0.00000000  0.00000000  -0.00000000  1
  Na  Na1  1  0.36954069  0.13045931  0.75000000  1
  Na  Na2  1  0.13045931  0.75000000  0.36954069  1
  Na  Na3  1  0.75000000  0.36954069  0.13045931  1
  Na  Na4  1  0.25000000  0.63045931  0.86954069  1
  Na  Na5  1  0.86954069  0.25000000  0.63045931  1
  Na  Na6  1  0.50000000  0.50000000  0.50000000  1
  Na  Na7  1  0.63045931  0.86954069  0.25000000  1
  Hf  Hf0  1  0.35680981  0.35680981  0.35680981  1
  Hf  Hf1  1  0.85680981  0.85680981  0.85680981  1
  Hf  Hf2  1  0.64319019  0.64319019  0.64319019  1
  Hf  Hf3  1  0.14319019  0.14319019  0.14319019  1
  Ge  Ge0  1  0.95599964  0.54400036  0.25000000  1
  Ge  Ge1  1  0.75000000  0.04400036  0.45599964  1
  Ge  Ge2  1  0.25000000  0.95599964  0.54400036  1
  Ge  Ge3  1  0.04400036  0.45599964  0.75000000  1
  Ge  Ge4  1  0.45599964  0.75000000  0.04400036  1
  Ge  Ge5  1  0.54400036  0.25000000  0.95599964  1
  O  O0  1  0.70256942  0.86535984  0.48996181  1
  O  O1  1  0.48996181  0.70256942  0.86535984  1
  O  O2  1  0.86535984  0.48996181  0.70256942  1
  O  O3  1  0.79743058  0.01003819  0.63464016  1
  O  O4  1  0.63464016  0.79743058  0.01003819  1
  O  O5  1  0.01003819  0.63464016  0.79743058  1
  O  O6  1  0.29743058  0.13464016  0.51003819  1
  O  O7  1  0.51003819  0.29743058  0.13464016  1
  O  O8  1  0.13464016  0.51003819  0.29743058  1
  O  O9  1  0.20256942  0.98996181  0.36535984  1
  O  O10  1  0.36535984  0.20256942  0.98996181  1
  O  O11  1  0.98996181  0.36535984  0.20256942  1
  O  O12  1  0.42234353  0.75935064  0.56178402  1
  O  O13  1  0.56178402  0.42234353  0.75935064  1
  O  O14  1  0.75935064  0.56178402  0.42234353  1
  O  O15  1  0.07765647  0.93821598  0.74064936  1
  O  O16  1  0.74064936  0.07765647  0.93821598  1
  O  O17  1  0.93821598  0.74064936  0.07765647  1
  O  O18  1  0.06178402  0.25935064  0.92234353  1
  O  O19  1  0.25935064  0.92234353  0.06178402  1
  O  O20  1  0.92234353  0.06178402  0.25935064  1
  O  O21  1  0.24064936  0.43821598  0.57765647  1
  O  O22  1  0.43821598  0.57765647  0.24064936  1
  O  O23  1  0.57765647  0.24064936  0.43821598  1
loop_
_geom_bond_atom_site_label_1
_geom_bond_atom_site_label_2
_geom_bond_distance
_geom_bond_site_symmetry_2
Na0 O15 2.408326 1_544
Na0 O20 2.408326 1_455
Na0 O17 2.408326 1_445
Na0 O18 2.408326 1_554
Na0 O16 2.408326 1_454
Na0 O19 2.408326 1_545
Na1 O18 2.506644 1_555
Na1 O21 2.506644 1_555
Na1 O6 2.565097 1_555
Na1 O10 2.565097 1_555
Na1 O19 2.607958 1_546
Na1 O23 2.607958 1_555
Na2 O19 2.506643 1_555
Na2 O22 2.506644 1_555
Na2 O9 2.565097 1_555
Na2 O8 2.565098 1_555
Na2 O21 2.607958 1_555
Na2 O20 2.607958 1_465
Na3 O23 2.506643 1_555
Na3 O20 2.506644 1_555
Na3 O7 2.565097 1_555
Na3 O11 2.565098 1_555
Na3 O18 2.607958 1_654
Na3 O22 2.607958 1_555
Na4 O12 2.506643 1_555
Na4 O15 2.506644 1_555
Na4 O1 2.565097 1_555
Na4 O5 2.565098 1_555
Na4 O17 2.607958 1_456
Na4 O13 2.607958 1_555
Na5 O16 2.506643 1_555
Na5 O13 2.506644 1_555
Na5 O3 2.565097 1_555
Na5 O2 2.565098 1_555
Na5 O14 2.607958 1_555
Na5 O15 2.607958 1_645
Na6 O22 2.408326 1_555
Na6 O13 2.408326 1_555
Na6 O14 2.408326 1_555
Na6 O21 2.408326 1_555
Na6 O12 2.408326 1_555
Na6 O23 2.408326 1_555
Na7 O14 2.506644 1_555
Na7 O17 2.506644 1_555
Na7 O0 2.565097 1_555
Na7 O4 2.565097 1_555
Na7 O16 2.607958 1_564
Na7 O12 2.607958 1_555
Hf0 O6 2.014537 1_555
Hf0 O7 2.014537 1_555
Hf0 O8 2.014537 1_555
Hf0 O22 2.109597 1_555
Hf0 O21 2.109597 1_555
Hf0 O23 2.109597 1_555
Hf1 O4 2.014537 1_556
Hf1 O3 2.014537 1_565
Hf1 O5 2.014537 1_655
Hf1 O15 2.109597 1_655
Hf1 O17 2.109597 1_556
Hf1 O16 2.109597 1_565
Hf2 O0 2.014537 1_555
Hf2 O1 2.014537 1_555
Hf2 O2 2.014537 1_555
Hf2 O13 2.109597 1_555
Hf2 O14 2.109597 1_555
Hf2 O12 2.109597 1_555
Hf3 O10 2.014537 1_554
Hf3 O9 2.014537 1_545
Hf3 O11 2.014537 1_455
Hf3 O20 2.109597 1_455
Hf3 O18 2.109597 1_554
Hf3 O19 2.109597 1_545
Ge0 O11 1.745167 1_555
Ge0 O8 1.745167 1_655
Ge0 O17 1.749622 1_555
Ge0 O14 1.749622 1_555
Ge1 O3 1.745167 1_555
Ge1 O0 1.745167 1_545
Ge1 O20 1.749622 1_555
Ge1 O23 1.749622 1_555
Ge2 O9 1.745167 1_555
Ge2 O6 1.745167 1_565
Ge2 O15 1.749622 1_555
Ge2 O12 1.749622 1_555
Ge3 O2 1.745167 1_455
Ge3 O5 1.745167 1_555
Ge3 O18 1.749622 1_555
Ge3 O21 1.749622 1_555
Ge4 O1 1.745167 1_554
Ge4 O4 1.745167 1_555
Ge4 O22 1.749622 1_555
Ge4 O19 1.749622 1_555
Ge5 O7 1.745167 1_556
Ge5 O10 1.745167 1_555
Ge5 O13 1.749622 1_555
Ge5 O16 1.749622 1_555
