# generated using pymatgen
data_Mn2ZnO4
_symmetry_space_group_name_H-M   'P 1'
_cell_length_a   6.12293800
_cell_length_b   5.17293300
_cell_length_c   10.36088846
_cell_angle_alpha   88.63260377
_cell_angle_beta   90.00000000
_cell_angle_gamma   90.00000000
_symmetry_Int_Tables_number   1
_chemical_formula_structural   Mn2ZnO4
_chemical_formula_sum   'Mn8 Zn4 O16'
_cell_volume   328.07264681
_cell_formula_units_Z   4
loop_
 _symmetry_equiv_pos_site_id
 _symmetry_equiv_pos_as_xyz
  1  'x, y, z'
loop_
 _atom_site_type_symbol
 _atom_site_label
 _atom_site_symmetry_multiplicity
 _atom_site_fract_x
 _atom_site_fract_y
 _atom_site_fract_z
 _atom_site_occupancy
  Mn  Mn0  1  0.75288200  0.50569100  0.98014200  1
  Mn  Mn1  1  0.74714500  0.50688000  0.51467500  1
  Mn  Mn2  1  0.25288200  0.49430900  0.01985800  1
  Mn  Mn3  1  0.24714500  0.49312000  0.48532500  1
  Mn  Mn4  1  0.49657800  0.00357700  0.01124600  1
  Mn  Mn5  1  0.00260200  0.00367700  0.48746300  1
  Mn  Mn6  1  0.99657800  0.99642300  0.98875400  1
  Mn  Mn7  1  0.50260200  0.99632300  0.51253700  1
  Zn  Zn0  1  0.25543100  0.86849700  0.25296600  1
  Zn  Zn1  1  0.75543100  0.13150300  0.74703400  1
  Zn  Zn2  1  0.24880700  0.50637700  0.75385300  1
  Zn  Zn3  1  0.74880700  0.49362300  0.24614700  1
  O  O0  1  0.73471300  0.86061700  0.90150200  1
  O  O1  1  0.76603000  0.85361100  0.59685100  1
  O  O2  1  0.23471300  0.13938300  0.09849800  1
  O  O3  1  0.26603000  0.14638900  0.40314900  1
  O  O4  1  0.75599900  0.22793800  0.10148400  1
  O  O5  1  0.74341900  0.23586800  0.39428900  1
  O  O6  1  0.25599900  0.77206200  0.89851600  1
  O  O7  1  0.24341900  0.76413200  0.60571100  1
  O  O8  1  0.48958100  0.70603800  0.13564900  1
  O  O9  1  0.01326700  0.71244100  0.36617700  1
  O  O10  1  0.98958100  0.29396200  0.86435100  1
  O  O11  1  0.51326700  0.28755900  0.63382300  1
  O  O12  1  0.48730200  0.33727400  0.90901600  1
  O  O13  1  0.00560000  0.32803600  0.59041000  1
  O  O14  1  0.98730200  0.66272600  0.09098400  1
  O  O15  1  0.50560000  0.67196400  0.40959000  1
loop_
_geom_bond_atom_site_label_1
_geom_bond_atom_site_label_2
_geom_bond_distance
_geom_bond_site_symmetry_2
Mn0 O4 1.886563 1_556
Mn0 O0 1.993934 1_555
Mn0 O12 1.994244 1_555
Mn0 O14 2.020762 1_556
Mn0 O10 2.191354 1_555
Mn0 O8 2.519688 1_556
Mn1 O5 1.898723 1_555
Mn1 O13 1.985270 1_655
Mn1 O1 2.007044 1_555
Mn1 O15 2.014362 1_555
Mn1 O11 2.189736 1_555
Mn1 O9 2.464740 1_655
Mn2 O6 1.886563 1_554
Mn2 O2 1.993934 1_555
Mn2 O14 1.994244 1_455
Mn2 O12 2.020762 1_554
Mn2 O8 2.191354 1_555
Mn2 O10 2.519688 1_454
Mn3 O7 1.898723 1_555
Mn3 O15 1.985270 1_555
Mn3 O3 2.007044 1_555
Mn3 O13 2.014362 1_555
Mn3 O9 2.189736 1_555
Mn3 O11 2.464740 1_555
Mn4 O2 1.977854 1_555
Mn4 O8 1.984304 1_545
Mn4 O0 2.001477 1_544
Mn4 O12 2.004394 1_554
Mn4 O4 2.189975 1_555
Mn4 O6 2.243902 1_544
Mn5 O3 1.969507 1_555
Mn5 O1 1.985779 1_445
Mn5 O9 1.985803 1_545
Mn5 O13 2.009662 1_555
Mn5 O5 2.199477 1_455
Mn5 O7 2.266763 1_545
Mn6 O0 1.977854 1_555
Mn6 O10 1.984304 1_565
Mn6 O2 2.001477 1_666
Mn6 O14 2.004394 1_556
Mn6 O6 2.189975 1_655
Mn6 O4 2.243902 1_566
Mn7 O1 1.969507 1_555
Mn7 O3 1.985779 1_565
Mn7 O11 1.985803 1_565
Mn7 O15 2.009662 1_555
Mn7 O7 2.199477 1_555
Mn7 O5 2.266763 1_565
O0 Zn1 2.105705 1_565
O1 Zn1 2.144446 1_565
O2 Zn0 2.105705 1_545
O3 Zn0 2.144446 1_545
O4 Zn3 2.058072 1_555
O5 Zn3 2.009254 1_555
O6 Zn2 2.058072 1_555
O7 Zn2 2.009254 1_555
O8 Zn0 2.070730 1_555
O8 Zn3 2.230991 1_555
O9 Zn0 2.044725 1_555
O9 Zn3 2.348846 1_455
O10 Zn1 2.070730 1_555
O10 Zn2 2.230991 1_655
O11 Zn1 2.044725 1_555
O11 Zn2 2.348846 1_555
O12 Zn2 2.327014 1_555
O12 Zn1 2.594264 1_555
O13 Zn1 2.436087 1_455
O13 Zn2 2.451703 1_555
O14 Zn3 2.327014 1_555
O14 Zn0 2.594264 1_655
O15 Zn0 2.436087 1_555
O15 Zn3 2.451703 1_555
