# generated using pymatgen
data_CaLaFeAgO6
_symmetry_space_group_name_H-M   'P 1'
_cell_length_a   5.62841770
_cell_length_b   15.58214099
_cell_length_c   5.79907447
_cell_angle_alpha   89.98001672
_cell_angle_beta   89.92062798
_cell_angle_gamma   89.48229961
_symmetry_Int_Tables_number   1
_chemical_formula_structural   CaLaFeAgO6
_chemical_formula_sum   'Ca4 La4 Fe4 Ag4 O24'
_cell_volume   508.57377997
_cell_formula_units_Z   4
loop_
 _symmetry_equiv_pos_site_id
 _symmetry_equiv_pos_as_xyz
  1  'x, y, z'
loop_
 _atom_site_type_symbol
 _atom_site_label
 _atom_site_symmetry_multiplicity
 _atom_site_fract_x
 _atom_site_fract_y
 _atom_site_fract_z
 _atom_site_occupancy
  Ca  Ca0  1  0.51581000  0.12575800  0.55909000  1
  Ca  Ca1  1  0.51578600  0.62575700  0.55913000  1
  Ca  Ca2  1  0.01633600  0.37571900  0.94087500  1
  Ca  Ca3  1  0.01632400  0.87568800  0.94075000  1
  La  La0  1  0.98611800  0.12451300  0.05240900  1
  La  La1  1  0.98609800  0.62448600  0.05249700  1
  La  La2  1  0.48587600  0.37447100  0.44768000  1
  La  La3  1  0.48586200  0.87445900  0.44773200  1
  Fe  Fe0  1  0.99961300  0.50024300  0.50248500  1
  Fe  Fe1  1  0.49951000  0.75034500  0.99791600  1
  Fe  Fe2  1  0.99952100  0.00037100  0.50238800  1
  Fe  Fe3  1  0.49946800  0.25025400  0.99786200  1
  Ag  Ag0  1  0.00005500  0.24962800  0.50096900  1
  Ag  Ag1  1  0.00002700  0.74964700  0.50101500  1
  Ag  Ag2  1  0.50045500  0.49974400  0.99947600  1
  Ag  Ag3  1  0.50039800  0.99973400  0.99939400  1
  O  O0  1  0.60371600  0.37283200  0.03371000  1
  O  O1  1  0.60375800  0.87280400  0.03369800  1
  O  O2  1  0.10442700  0.12282900  0.46509800  1
  O  O3  1  0.10439100  0.62277100  0.46509200  1
  O  O4  1  0.18512100  0.47354000  0.21765600  1
  O  O5  1  0.18509800  0.97352400  0.21757500  1
  O  O6  1  0.68440000  0.22376700  0.28196100  1
  O  O7  1  0.68434000  0.72377800  0.28194600  1
  O  O8  1  0.21187400  0.27538300  0.18964800  1
  O  O9  1  0.21183500  0.77540700  0.18960800  1
  O  O10  1  0.71209800  0.02515900  0.31118000  1
  O  O11  1  0.71213400  0.52515300  0.31115800  1
  O  O12  1  0.90538000  0.37707700  0.53932700  1
  O  O13  1  0.90542800  0.87711300  0.53921400  1
  O  O14  1  0.40416300  0.12712500  0.95980300  1
  O  O15  1  0.40418000  0.62714700  0.95982800  1
  O  O16  1  0.31059000  0.27561400  0.72043100  1
  O  O17  1  0.31065500  0.77563300  0.72045700  1
  O  O18  1  0.81025100  0.02570500  0.78028100  1
  O  O19  1  0.81027100  0.52569200  0.78026700  1
  O  O20  1  0.28166600  0.47527900  0.69459200  1
  O  O21  1  0.28168700  0.97525100  0.69444600  1
  O  O22  1  0.78265700  0.22527000  0.80562400  1
  O  O23  1  0.78261700  0.72531800  0.80573200  1
loop_
_geom_bond_atom_site_label_1
_geom_bond_atom_site_label_2
_geom_bond_distance
_geom_bond_site_symmetry_2
Ca0 O2 2.380304 1_555
Ca0 O10 2.389661 1_555
Ca0 O14 2.406442 1_555
Ca0 O6 2.415720 1_555
Ca0 O22 2.598790 1_555
Ca0 O18 2.603876 1_555
Ca0 O16 2.758976 1_555
Ca0 O21 2.811465 1_545
Ca1 O3 2.380456 1_555
Ca1 O11 2.390082 1_555
Ca1 O15 2.406301 1_555
Ca1 O7 2.415971 1_555
Ca1 O23 2.599414 1_555
Ca1 O19 2.603989 1_555
Ca1 O17 2.759006 1_555
Ca1 O20 2.811249 1_555
Ca2 O0 2.384070 1_456
Ca2 O8 2.389269 1_556
Ca2 O12 2.411767 1_455
Ca2 O4 2.415412 1_556
Ca2 O20 2.590584 1_555
Ca2 O16 2.599837 1_555
Ca2 O19 2.761566 1_455
Ca2 O22 2.810822 1_455
Ca3 O1 2.383920 1_456
Ca3 O9 2.388941 1_556
Ca3 O13 2.411619 1_455
Ca3 O5 2.415706 1_556
Ca3 O21 2.590787 1_555
Ca3 O17 2.599218 1_555
Ca3 O18 2.761890 1_465
Ca3 O23 2.809487 1_455
La0 O22 2.407266 1_554
La0 O14 2.413412 1_654
La0 O18 2.423682 1_554
La0 O2 2.485082 1_655
La0 O6 2.644916 1_555
La0 O10 2.657529 1_555
La0 O5 2.767816 1_645
La0 O8 2.798688 1_655
La1 O23 2.408007 1_554
La1 O15 2.413716 1_654
La1 O19 2.423835 1_554
La1 O3 2.484536 1_655
La1 O7 2.645102 1_555
La1 O11 2.656793 1_555
La1 O4 2.767331 1_655
La1 O9 2.799098 1_655
La2 O20 2.408964 1_555
La2 O12 2.421638 1_555
La2 O16 2.422688 1_555
La2 O0 2.489773 1_555
La2 O4 2.643005 1_555
La2 O8 2.655637 1_555
La2 O6 2.763645 1_555
La2 O11 2.794876 1_555
La3 O21 2.408028 1_555
La3 O13 2.421787 1_555
La3 O17 2.422097 1_555
La3 O1 2.490216 1_555
La3 O5 2.643391 1_555
La3 O9 2.655692 1_555
La3 O7 2.763375 1_555
La3 O10 2.795105 1_565
Fe0 O19 1.968741 1_555
Fe0 O20 1.976370 1_655
Fe0 O4 1.994849 1_655
Fe0 O11 1.998277 1_555
Fe0 O12 2.006997 1_555
Fe0 O3 2.014880 1_655
Fe1 O17 1.967427 1_555
Fe1 O23 1.979239 1_555
Fe1 O7 1.990744 1_556
Fe1 O9 1.998448 1_556
Fe1 O15 2.010254 1_555
Fe1 O1 2.012289 1_556
Fe2 O18 1.968697 1_555
Fe2 O21 1.977182 1_645
Fe2 O5 1.995433 1_645
Fe2 O10 1.997284 1_555
Fe2 O13 2.008147 1_545
Fe2 O2 2.013997 1_655
Fe3 O16 1.967583 1_555
Fe3 O22 1.979658 1_555
Fe3 O6 1.991122 1_556
Fe3 O8 1.998579 1_556
Fe3 O14 2.009167 1_555
Fe3 O0 2.014092 1_556
Ag0 O12 2.063540 1_455
Ag0 O2 2.066671 1_555
Ag0 O22 2.182773 1_455
Ag0 O8 2.200900 1_555
Ag0 O16 2.204054 1_555
Ag0 O6 2.225171 1_455
Ag1 O13 2.063589 1_455
Ag1 O3 2.067833 1_555
Ag1 O23 2.183020 1_455
Ag1 O9 2.201290 1_555
Ag1 O17 2.204403 1_555
Ag1 O7 2.225541 1_455
Ag2 O0 2.065726 1_556
Ag2 O15 2.065949 1_555
Ag2 O20 2.191513 1_555
Ag2 O19 2.196916 1_555
Ag2 O11 2.204124 1_556
Ag2 O4 2.219031 1_556
Ag3 O14 2.065676 1_565
Ag3 O1 2.066185 1_556
Ag3 O21 2.191615 1_555
Ag3 O18 2.196829 1_565
Ag3 O10 2.204729 1_566
Ag3 O5 2.218899 1_556
