# generated using pymatgen
data_V4Ag2O11
_symmetry_space_group_name_H-M   'P 1'
_cell_length_a   3.55806551
_cell_length_b   7.81748449
_cell_length_c   7.95113445
_cell_angle_alpha   73.24896190
_cell_angle_beta   77.07731858
_cell_angle_gamma   76.86690000
_symmetry_Int_Tables_number   1
_chemical_formula_structural   V4Ag2O11
_chemical_formula_sum   'V4 Ag2 O11'
_cell_volume   203.25041478
_cell_formula_units_Z   1
loop_
 _symmetry_equiv_pos_site_id
 _symmetry_equiv_pos_as_xyz
  1  'x, y, z'
loop_
 _atom_site_type_symbol
 _atom_site_label
 _atom_site_symmetry_multiplicity
 _atom_site_fract_x
 _atom_site_fract_y
 _atom_site_fract_z
 _atom_site_occupancy
  V  V0  1  0.63446505  0.15331450  0.57790908  1
  V  V1  1  0.36553007  0.84669291  0.42209239  1
  V  V2  1  0.85326557  0.14385224  0.14985514  1
  V  V3  1  0.14673497  0.85614926  0.85014131  1
  Ag  Ag0  1  0.88484672  0.50813235  0.72221148  1
  Ag  Ag1  1  0.11515830  0.49186048  0.27779229  1
  O  O0  1  0.50003973  0.31210576  0.68845058  1
  O  O1  1  0.49995868  0.68788380  0.31155283  1
  O  O2  1  0.68193275  0.28020300  0.35636345  1
  O  O3  1  0.31807338  0.71979526  0.64363351  1
  O  O4  1  0.82179917  0.34324789  0.01358888  1
  O  O5  1  0.17818592  0.65676752  0.98642486  1
  O  O6  1  0.00000355  0.00000907  -0.00001108  1
  O  O7  1  0.34628329  0.08929588  0.21825559  1
  O  O8  1  0.83400326  0.92205779  0.40977380  1
  O  O9  1  0.16600054  0.07793746  0.59022068  1
  O  O10  1  0.65372505  0.91069781  0.78174019  1
loop_
_geom_bond_atom_site_label_1
_geom_bond_atom_site_label_2
_geom_bond_distance
_geom_bond_site_symmetry_2
Ag0 O4 2.292779 1_556
Ag0 O3 2.374183 1_655
Ag0 O3 2.376196 1_555
Ag0 O0 2.376975 1_555
Ag0 O0 2.379431 1_655
Ag1 O5 2.292766 1_554
Ag1 O2 2.374152 1_455
Ag1 O2 2.376167 1_555
Ag1 O1 2.376935 1_555
Ag1 O1 2.379436 1_455
O0 V0 1.647213 1_555
O1 V1 1.647320 1_555
O2 V0 1.746810 1_555
O2 V2 2.114184 1_555
O3 V1 1.746802 1_555
O3 V3 2.114198 1_555
O4 V2 1.617914 1_555
O5 V3 1.617888 1_555
O6 V3 1.784449 1_544
O6 V2 1.784467 1_455
O7 V2 1.872936 1_455
O7 V2 1.873168 1_555
O7 V1 2.108828 1_545
O8 V1 1.864165 1_555
O8 V1 1.864570 1_655
O8 V2 2.281926 1_565
O8 V0 2.438222 1_565
O9 V0 1.864196 1_555
O9 V0 1.864596 1_455
O9 V3 2.281912 1_545
O9 V1 2.438104 1_545
O10 V3 1.872917 1_655
O10 V3 1.873172 1_555
O10 V0 2.108876 1_565
