# generated using pymatgen
data_Sr2MgTl
_symmetry_space_group_name_H-M   'P 1'
_cell_length_a   13.82124779
_cell_length_b   13.79604262
_cell_length_c   13.79604212
_cell_angle_alpha   60.36290355
_cell_angle_beta   59.93891971
_cell_angle_gamma   59.93891615
_symmetry_Int_Tables_number   1
_chemical_formula_structural   Sr2MgTl
_chemical_formula_sum   'Sr2 Mg1 Tl1'
_cell_volume   1863.43593023
_cell_formula_units_Z   1
loop_
 _symmetry_equiv_pos_site_id
 _symmetry_equiv_pos_as_xyz
  1  'x, y, z'
loop_
 _atom_site_type_symbol
 _atom_site_label
 _atom_site_symmetry_multiplicity
 _atom_site_fract_x
 _atom_site_fract_y
 _atom_site_fract_z
 _atom_site_occupancy
  Sr  Sr0  1  0.73186490  0.99999607  0.99999607  1
  Sr  Sr1  1  0.26813510  0.00000393  0.00000393  1
  Mg  Mg0  1  -0.00000000  -0.00000000  -0.00000000  1
  Tl  Tl0  1  0.50000000  -0.00000000  -0.00000000  1
loop_
_geom_bond_atom_site_label_1
_geom_bond_atom_site_label_2
_geom_bond_distance
_geom_bond_site_symmetry_2
Sr0 Tl0 3.204608 1_566
Sr1 Tl0 3.204608 1_555
Mg0 Sr1 3.706016 1_555
Mg0 Sr0 3.706016 1_444
