# generated using pymatgen
data_Na5EuTaAs4
_symmetry_space_group_name_H-M   'P 1'
_cell_length_a   9.60129995
_cell_length_b   9.60129995
_cell_length_c   7.49250992
_cell_angle_alpha   89.69434447
_cell_angle_beta   89.69434447
_cell_angle_gamma   120.26595346
_symmetry_Int_Tables_number   1
_chemical_formula_structural   Na5EuTaAs4
_chemical_formula_sum   'Na10 Eu2 Ta2 As8'
_cell_volume   596.51722271
_cell_formula_units_Z   2
loop_
 _symmetry_equiv_pos_site_id
 _symmetry_equiv_pos_as_xyz
  1  'x, y, z'
loop_
 _atom_site_type_symbol
 _atom_site_label
 _atom_site_symmetry_multiplicity
 _atom_site_fract_x
 _atom_site_fract_y
 _atom_site_fract_z
 _atom_site_occupancy
  Na  Na0  1  0.47169300  0.53342100  0.38683300  1
  Na  Na1  1  0.47108500  0.93908300  0.38663600  1
  Na  Na2  1  0.53342100  0.47169300  0.88683300  1
  Na  Na3  1  0.93908300  0.47108500  0.88663600  1
  Na  Na4  1  0.85318800  0.13895800  0.21625800  1
  Na  Na5  1  0.84956700  0.71182700  0.20976400  1
  Na  Na6  1  0.28950400  0.14680000  0.22136000  1
  Na  Na7  1  0.13895800  0.85318800  0.71625800  1
  Na  Na8  1  0.14680000  0.28950400  0.72136000  1
  Na  Na9  1  0.71182700  0.84956700  0.70976400  1
  Eu  Eu0  1  0.05960400  0.53123400  0.39074000  1
  Eu  Eu1  1  0.53123400  0.05960400  0.89074000  1
  Ta  Ta0  1  0.66395000  0.33320300  0.49944800  1
  Ta  Ta1  1  0.33320300  0.66395000  0.99944800  1
  As  As0  1  0.19346300  0.81007100  0.10697400  1
  As  As1  1  0.18843800  0.38226100  0.11266600  1
  As  As2  1  0.61905300  0.81410300  0.09760400  1
  As  As3  1  0.81007100  0.19346300  0.60697400  1
  As  As4  1  0.81410300  0.61905300  0.59760400  1
  As  As5  1  0.38226100  0.18843800  0.61266600  1
  As  As6  1  0.66904200  0.33045000  0.16641800  1
  As  As7  1  0.33045000  0.66904200  0.66641800  1
loop_
_geom_bond_atom_site_label_1
_geom_bond_atom_site_label_2
_geom_bond_distance
_geom_bond_site_symmetry_2
Na0 Ta0 3.375071 1_555
Na2 Ta1 3.375071 1_555
As0 Ta1 2.513048 1_554
As0 Na6 3.011670 1_565
As0 Na5 3.034910 1_455
As0 Na7 3.039238 1_554
As0 Eu0 3.127501 1_555
As0 Na1 3.128737 1_555
As0 Eu1 3.309462 1_564
As0 Na3 3.372098 1_454
As1 Ta1 2.477869 1_554
As1 Na4 2.965585 1_455
As1 Na6 2.985948 1_555
As1 Na8 3.038135 1_554
As1 Eu0 3.115222 1_555
As1 Na0 3.136091 1_555
As1 Na3 3.378351 1_454
As1 Na2 3.410179 1_554
As2 Ta1 2.489197 1_554
As2 Na4 2.924934 1_565
As2 Na5 2.961545 1_555
As2 Na9 3.001615 1_554
As2 Na1 3.140280 1_555
As2 Na0 3.165743 1_555
As2 Eu1 3.263079 1_564
As2 Na2 3.364910 1_554
As3 Ta0 2.513048 1_555
As3 Na8 3.011670 1_655
As3 Na9 3.034910 1_545
As3 Na4 3.039238 1_555
As3 Eu1 3.127501 1_555
As3 Na3 3.128737 1_555
As3 Eu0 3.309462 1_655
As3 Na1 3.372098 1_545
As4 Ta0 2.489197 1_555
As4 Na7 2.924934 1_655
As4 Na9 2.961545 1_555
As4 Na5 3.001615 1_555
As4 Na3 3.140280 1_555
As4 Na2 3.165743 1_555
As4 Eu0 3.263079 1_655
As4 Na0 3.364910 1_555
As5 Ta0 2.477869 1_555
As5 Na7 2.965585 1_545
As5 Na8 2.985948 1_555
As5 Na6 3.038135 1_555
As5 Eu1 3.115222 1_555
As5 Na2 3.136091 1_555
As5 Na1 3.378351 1_545
As5 Na0 3.410179 1_555
As6 Ta0 2.495991 1_555
As6 Na3 3.053309 1_554
As6 Eu1 3.065548 1_554
As6 Na2 3.114739 1_554
As6 Na4 3.149961 1_555
As6 Na6 3.171268 1_555
As6 Na5 3.184156 1_555
As7 Ta1 2.495991 1_555
As7 Na1 3.053309 1_555
As7 Eu0 3.065548 1_555
As7 Na0 3.114739 1_555
As7 Na7 3.149961 1_555
As7 Na8 3.171268 1_555
As7 Na9 3.184156 1_555
