# generated using pymatgen
data_YB3(H6N)4
_symmetry_space_group_name_H-M   'P 1'
_cell_length_a   7.34114100
_cell_length_b   11.79930500
_cell_length_c   12.62041500
_cell_angle_alpha   90.00000000
_cell_angle_beta   90.00000000
_cell_angle_gamma   90.00000000
_symmetry_Int_Tables_number   1
_chemical_formula_structural   YB3(H6N)4
_chemical_formula_sum   'Y4 B12 H96 N16'
_cell_volume   1093.18491219
_cell_formula_units_Z   4
loop_
 _symmetry_equiv_pos_site_id
 _symmetry_equiv_pos_as_xyz
  1  'x, y, z'
loop_
 _atom_site_type_symbol
 _atom_site_label
 _atom_site_symmetry_multiplicity
 _atom_site_fract_x
 _atom_site_fract_y
 _atom_site_fract_z
 _atom_site_occupancy
  Y  Y0  1  0.51587800  0.25000000  0.15578000  1
  Y  Y1  1  0.48412200  0.75000000  0.84422000  1
  Y  Y2  1  0.01587800  0.75000000  0.34422000  1
  Y  Y3  1  0.98412200  0.25000000  0.65578000  1
  B  B0  1  0.99785500  0.75000000  0.11626700  1
  B  B1  1  0.00214500  0.25000000  0.88373300  1
  B  B2  1  0.49785500  0.25000000  0.38373300  1
  B  B3  1  0.50214500  0.75000000  0.61626700  1
  B  B4  1  0.15429300  0.97587600  0.34112900  1
  B  B5  1  0.84570700  0.47587600  0.65887100  1
  B  B6  1  0.65429300  0.47587600  0.15887100  1
  B  B7  1  0.34570700  0.97587600  0.84112900  1
  B  B8  1  0.65429300  0.02412400  0.15887100  1
  B  B9  1  0.34570700  0.52412400  0.84112900  1
  B  B10  1  0.15429300  0.52412400  0.34112900  1
  B  B11  1  0.84570700  0.02412400  0.65887100  1
  H  H0  1  0.90221400  0.17864300  0.19250900  1
  H  H1  1  0.09778600  0.67864300  0.80749100  1
  H  H2  1  0.40221400  0.67864300  0.30749100  1
  H  H3  1  0.59778600  0.17864300  0.69250900  1
  H  H4  1  0.90221400  0.32135700  0.19250900  1
  H  H5  1  0.09778600  0.82135700  0.80749100  1
  H  H6  1  0.40221400  0.82135700  0.30749100  1
  H  H7  1  0.59778600  0.32135700  0.69250900  1
  H  H8  1  0.90754200  0.25000000  0.07974400  1
  H  H9  1  0.09245800  0.75000000  0.92025600  1
  H  H10  1  0.40754200  0.75000000  0.42025600  1
  H  H11  1  0.59245800  0.25000000  0.57974400  1
  H  H12  1  0.53322300  0.81967600  0.07560400  1
  H  H13  1  0.46677700  0.31967600  0.92439600  1
  H  H14  1  0.03322300  0.31967600  0.42439600  1
  H  H15  1  0.96677700  0.81967600  0.57560400  1
  H  H16  1  0.34043100  0.75000000  0.06944800  1
  H  H17  1  0.65956900  0.25000000  0.93055200  1
  H  H18  1  0.84043100  0.25000000  0.43055200  1
  H  H19  1  0.15956900  0.75000000  0.56944800  1
  H  H20  1  0.53322300  0.68032400  0.07560400  1
  H  H21  1  0.46677700  0.18032400  0.92439600  1
  H  H22  1  0.03322300  0.18032400  0.42439600  1
  H  H23  1  0.96677700  0.68032400  0.57560400  1
  H  H24  1  0.32386100  0.04089500  0.08463000  1
  H  H25  1  0.67613900  0.54089500  0.91537000  1
  H  H26  1  0.82386100  0.54089500  0.41537000  1
  H  H27  1  0.17613900  0.04089500  0.58463000  1
  H  H28  1  0.16405800  0.13283200  0.05801200  1
  H  H29  1  0.83594200  0.63283200  0.94198800  1
  H  H30  1  0.66405800  0.63283200  0.44198800  1
  H  H31  1  0.33594200  0.13283200  0.55801200  1
  H  H32  1  0.19174300  0.08276300  0.17958700  1
  H  H33  1  0.80825700  0.58276300  0.82041300  1
  H  H34  1  0.69174300  0.58276300  0.32041300  1
  H  H35  1  0.30825700  0.08276300  0.67958700  1
  H  H36  1  0.67613900  0.95910500  0.91537000  1
  H  H37  1  0.32386100  0.45910500  0.08463000  1
  H  H38  1  0.17613900  0.45910500  0.58463000  1
  H  H39  1  0.82386100  0.95910500  0.41537000  1
  H  H40  1  0.83594200  0.86716800  0.94198800  1
  H  H41  1  0.16405800  0.36716800  0.05801200  1
  H  H42  1  0.33594200  0.36716800  0.55801200  1
  H  H43  1  0.66405800  0.86716800  0.44198800  1
  H  H44  1  0.80825700  0.91723700  0.82041300  1
  H  H45  1  0.19174300  0.41723700  0.17958700  1
  H  H46  1  0.30825700  0.41723700  0.67958700  1
  H  H47  1  0.69174300  0.91723700  0.32041300  1
  H  H48  1  0.13933700  0.75000000  0.16977000  1
  H  H49  1  0.86066300  0.25000000  0.83023000  1
  H  H50  1  0.63933700  0.25000000  0.33023000  1
  H  H51  1  0.36066300  0.75000000  0.66977000  1
  H  H52  1  0.99647600  0.66319600  0.06367900  1
  H  H53  1  0.00352400  0.16319600  0.93632100  1
  H  H54  1  0.49647600  0.16319600  0.43632100  1
  H  H55  1  0.50352400  0.66319600  0.56367900  1
  H  H56  1  0.86340800  0.75000000  0.17631400  1
  H  H57  1  0.13659200  0.25000000  0.82368600  1
  H  H58  1  0.36340800  0.25000000  0.32368600  1
  H  H59  1  0.63659200  0.75000000  0.67631400  1
  H  H60  1  0.99647600  0.83680400  0.06367900  1
  H  H61  1  0.00352400  0.33680400  0.93632100  1
  H  H62  1  0.49647600  0.33680400  0.43632100  1
  H  H63  1  0.50352400  0.83680400  0.56367900  1
  H  H64  1  0.10130400  0.91844100  0.26511200  1
  H  H65  1  0.89869600  0.41844100  0.73488800  1
  H  H66  1  0.60130400  0.41844100  0.23488800  1
  H  H67  1  0.39869600  0.91844100  0.76511200  1
  H  H68  1  0.13177800  0.92282700  0.42440500  1
  H  H69  1  0.86822200  0.42282700  0.57559500  1
  H  H70  1  0.63177800  0.42282700  0.07559500  1
  H  H71  1  0.36822200  0.92282700  0.92440500  1
  H  H72  1  0.31481700  0.99836500  0.33075900  1
  H  H73  1  0.68518300  0.49836500  0.66924100  1
  H  H74  1  0.81481700  0.49836500  0.16924100  1
  H  H75  1  0.18518300  0.99836500  0.83075900  1
  H  H76  1  0.05792400  0.06072900  0.34154500  1
  H  H77  1  0.94207600  0.56072900  0.65845500  1
  H  H78  1  0.55792400  0.56072900  0.15845500  1
  H  H79  1  0.44207600  0.06072900  0.84154500  1
  H  H80  1  0.60130400  0.08155900  0.23488800  1
  H  H81  1  0.39869600  0.58155900  0.76511200  1
  H  H82  1  0.10130400  0.58155900  0.26511200  1
  H  H83  1  0.89869600  0.08155900  0.73488800  1
  H  H84  1  0.63177800  0.07717300  0.07559500  1
  H  H85  1  0.36822200  0.57717300  0.92440500  1
  H  H86  1  0.13177800  0.57717300  0.42440500  1
  H  H87  1  0.86822200  0.07717300  0.57559500  1
  H  H88  1  0.81481700  0.00163500  0.16924100  1
  H  H89  1  0.18518300  0.50163500  0.83075900  1
  H  H90  1  0.31481700  0.50163500  0.33075900  1
  H  H91  1  0.68518300  0.00163500  0.66924100  1
  H  H92  1  0.55792400  0.93927100  0.15845500  1
  H  H93  1  0.44207600  0.43927100  0.84154500  1
  H  H94  1  0.05792400  0.43927100  0.34154500  1
  H  H95  1  0.94207600  0.93927100  0.65845500  1
  N  N0  1  0.85479700  0.25000000  0.15515100  1
  N  N1  1  0.14520300  0.75000000  0.84484900  1
  N  N2  1  0.35479700  0.75000000  0.34484900  1
  N  N3  1  0.64520300  0.25000000  0.65515100  1
  N  N4  1  0.47213000  0.75000000  0.04161800  1
  N  N5  1  0.52787000  0.25000000  0.95838200  1
  N  N6  1  0.97213000  0.25000000  0.45838200  1
  N  N7  1  0.02787000  0.75000000  0.54161800  1
  N  N8  1  0.26030400  0.11148300  0.11383300  1
  N  N9  1  0.73969600  0.61148300  0.88616700  1
  N  N10  1  0.76030400  0.61148300  0.38616700  1
  N  N11  1  0.23969600  0.11148300  0.61383300  1
  N  N12  1  0.73969600  0.88851700  0.88616700  1
  N  N13  1  0.26030400  0.38851700  0.11383300  1
  N  N14  1  0.23969600  0.38851700  0.61383300  1
  N  N15  1  0.76030400  0.88851700  0.38616700  1
loop_
_geom_bond_atom_site_label_1
_geom_bond_atom_site_label_2
_geom_bond_distance
_geom_bond_site_symmetry_2
B0 H52 1.220499 1_555
B0 H60 1.220499 1_555
B0 H48 1.238833 1_655
B0 H56 1.244366 1_555
B1 H61 1.220499 1_555
B1 H53 1.220499 1_555
B1 H49 1.238833 1_455
B1 H57 1.244366 1_555
B2 H62 1.220499 1_555
B2 H54 1.220499 1_555
B2 H50 1.238833 1_555
B2 H58 1.244366 1_555
B3 H55 1.220499 1_555
B3 H63 1.220499 1_555
B3 H51 1.238833 1_555
B3 H59 1.244366 1_555
B4 H72 1.215005 1_555
B4 H76 1.225944 1_565
B4 H68 1.234373 1_555
B4 H64 1.237325 1_555
B5 H73 1.215005 1_555
B5 H77 1.225944 1_555
B5 H69 1.234373 1_555
B5 H65 1.237325 1_555
B6 H74 1.215005 1_555
B6 H78 1.225944 1_555
B6 H70 1.234373 1_555
B6 H66 1.237325 1_555
B7 H75 1.215005 1_555
B7 H79 1.225944 1_565
B7 H71 1.234373 1_555
B7 H67 1.237325 1_555
B8 H88 1.215005 1_555
B8 H92 1.225944 1_545
B8 H84 1.234373 1_555
B8 H80 1.237325 1_555
B9 H89 1.215005 1_555
B9 H93 1.225944 1_555
B9 H85 1.234373 1_555
B9 H81 1.237325 1_555
B10 H90 1.215005 1_555
B10 H94 1.225944 1_555
B10 H86 1.234373 1_555
B10 H82 1.237325 1_555
B11 H91 1.215005 1_555
B11 H95 1.225944 1_545
B11 H87 1.234373 1_555
B11 H83 1.237325 1_555
H0 N0 1.025845 1_555
H1 N1 1.025845 1_555
H2 N2 1.025845 1_555
H3 N3 1.025845 1_555
H4 N0 1.025845 1_555
H5 N1 1.025845 1_555
H6 N2 1.025845 1_555
H7 N3 1.025845 1_555
H8 N0 1.027425 1_555
H9 N1 1.027425 1_555
H10 N2 1.027425 1_555
H11 N3 1.027425 1_555
H12 N4 1.030054 1_555
H13 N5 1.030054 1_555
H14 N6 1.030054 1_455
H15 N7 1.030054 1_655
H16 N4 1.028641 1_555
H17 N5 1.028641 1_555
H18 N6 1.028641 1_555
H19 N7 1.028641 1_555
H20 N4 1.030054 1_555
H21 N5 1.030054 1_555
H22 N6 1.030054 1_455
H23 N7 1.030054 1_655
H24 N8 1.023345 1_555
H25 N9 1.023345 1_555
H26 N10 1.023345 1_555
H27 N11 1.023345 1_555
H28 N8 1.029065 1_555
H29 N9 1.029065 1_555
H30 N10 1.029065 1_555
H31 N11 1.029065 1_555
H32 N8 1.028009 1_555
H33 N9 1.028009 1_555
H34 N10 1.028009 1_555
H35 N11 1.028009 1_555
H36 N12 1.023345 1_555
H37 N13 1.023345 1_555
H38 N14 1.023345 1_555
H39 N15 1.023345 1_555
H40 N12 1.029065 1_555
H41 N13 1.029065 1_555
H42 N14 1.029065 1_555
H43 N15 1.029065 1_555
H44 N12 1.028009 1_555
H45 N13 1.028009 1_555
H46 N14 1.028009 1_555
H47 N15 1.028009 1_555
H48 Y2 2.380885 1_555
H49 Y3 2.380885 1_555
H50 Y0 2.380885 1_555
H51 Y1 2.380885 1_555
H56 Y2 2.396494 1_655
H57 Y3 2.396494 1_455
H58 Y0 2.396494 1_555
H59 Y1 2.396494 1_555
H64 Y2 2.310875 1_555
H65 Y3 2.310875 1_555
H66 Y0 2.310875 1_555
H67 Y1 2.310875 1_555
H68 Y2 2.430329 1_555
H69 Y3 2.430329 1_555
H70 Y0 2.430329 1_555
H71 Y1 2.430329 1_555
H80 Y0 2.310875 1_555
H81 Y1 2.310875 1_555
H82 Y2 2.310875 1_555
H83 Y3 2.310875 1_555
H84 Y0 2.430329 1_555
H85 Y1 2.430329 1_555
H86 Y2 2.430329 1_555
H87 Y3 2.430329 1_555
N0 Y0 2.488065 1_555
N1 Y1 2.488065 1_555
N2 Y2 2.488065 1_555
N3 Y3 2.488065 1_555
N4 Y1 2.492800 1_554
N5 Y0 2.492800 1_556
N6 Y3 2.492800 1_555
N7 Y2 2.492800 1_555
N8 Y0 2.543949 1_555
N9 Y1 2.543949 1_555
N10 Y2 2.543949 1_655
N11 Y3 2.543949 1_455
N12 Y1 2.543949 1_555
N13 Y0 2.543949 1_555
N14 Y3 2.543949 1_455
N15 Y2 2.543949 1_655
