# generated using pymatgen
data_K3Ho(PO4)2
_symmetry_space_group_name_H-M   'P 1'
_cell_length_a   5.68538300
_cell_length_b   7.50368600
_cell_length_c   9.44489872
_cell_angle_alpha   88.81507221
_cell_angle_beta   90.00000000
_cell_angle_gamma   90.00000000
_symmetry_Int_Tables_number   1
_chemical_formula_structural   K3Ho(PO4)2
_chemical_formula_sum   'K6 Ho2 P4 O16'
_cell_volume   402.84576604
_cell_formula_units_Z   2
loop_
 _symmetry_equiv_pos_site_id
 _symmetry_equiv_pos_as_xyz
  1  'x, y, z'
loop_
 _atom_site_type_symbol
 _atom_site_label
 _atom_site_symmetry_multiplicity
 _atom_site_fract_x
 _atom_site_fract_y
 _atom_site_fract_z
 _atom_site_occupancy
  K  K0  1  0.25000000  0.20404600  0.91804600  1
  K  K1  1  0.75000000  0.79595400  0.08195400  1
  K  K2  1  0.25000000  0.63821200  0.58795400  1
  K  K3  1  0.75000000  0.36178800  0.41204600  1
  K  K4  1  0.25000000  0.49691900  0.19154300  1
  K  K5  1  0.75000000  0.50308100  0.80845700  1
  Ho  Ho0  1  0.25000000  0.99390500  0.28788900  1
  Ho  Ho1  1  0.75000000  0.00609500  0.71211100  1
  P  P0  1  0.25000000  0.18248200  0.57142400  1
  P  P1  1  0.75000000  0.81751800  0.42857600  1
  P  P2  1  0.75000000  0.22620200  0.09080300  1
  P  P3  1  0.25000000  0.77379800  0.90919700  1
  O  O0  1  0.25000000  0.98201600  0.53560000  1
  O  O1  1  0.75000000  0.01798400  0.46440000  1
  O  O2  1  0.25000000  0.28409900  0.42516400  1
  O  O3  1  0.75000000  0.71590100  0.57483600  1
  O  O4  1  0.02655100  0.23148800  0.65919600  1
  O  O5  1  0.52655100  0.76851200  0.34080400  1
  O  O6  1  0.97344900  0.76851200  0.34080400  1
  O  O7  1  0.47344900  0.23148800  0.65919600  1
  O  O8  1  0.97389500  0.14774900  0.16614100  1
  O  O9  1  0.47389500  0.85225100  0.83385900  1
  O  O10  1  0.02610500  0.85225100  0.83385900  1
  O  O11  1  0.52610500  0.14774900  0.16614100  1
  O  O12  1  0.75000000  0.17031600  0.93241700  1
  O  O13  1  0.25000000  0.82968400  0.06758300  1
  O  O14  1  0.75000000  0.43073900  0.10351200  1
  O  O15  1  0.25000000  0.56926100  0.89648800  1
loop_
_geom_bond_atom_site_label_1
_geom_bond_atom_site_label_2
_geom_bond_distance
_geom_bond_site_symmetry_2
K0 O15 2.743810 1_555
K0 O7 2.759091 1_555
K0 O4 2.759091 1_555
K0 O11 2.844715 1_556
K0 O8 2.844715 1_456
K0 O12 2.856914 1_555
K0 O12 2.856914 1_455
K0 O9 3.050858 1_545
K0 O10 3.050858 1_545
K0 O13 3.117963 1_546
K1 O14 2.743810 1_555
K1 O5 2.759091 1_555
K1 O6 2.759091 1_555
K1 O10 2.844715 1_654
K1 O9 2.844715 1_554
K1 O13 2.856914 1_555
K1 O13 2.856914 1_655
K1 O8 3.050858 1_565
K1 O11 3.050858 1_565
K1 O12 3.117963 1_564
K2 O0 2.616697 1_555
K2 O3 2.903979 1_455
K2 O3 2.903979 1_555
K2 O15 2.949093 1_555
K2 O6 2.963557 1_455
K2 O5 2.963557 1_555
K2 O2 3.097329 1_555
K2 O9 3.122235 1_555
K2 O10 3.122235 1_555
K2 O7 3.360952 1_555
K2 O4 3.360952 1_555
K3 O1 2.616697 1_555
K3 O2 2.903979 1_555
K3 O2 2.903979 1_655
K3 O14 2.949093 1_555
K3 O4 2.963557 1_655
K3 O7 2.963557 1_555
K3 O3 3.097329 1_555
K3 O8 3.122235 1_555
K3 O11 3.122235 1_555
K3 O6 3.360952 1_555
K3 O5 3.360952 1_555
K4 O2 2.696892 1_555
K4 O13 2.735812 1_555
K4 O15 2.828101 1_554
K4 O6 2.954926 1_455
K4 O5 2.954926 1_555
K4 O14 3.005973 1_555
K4 O14 3.005973 1_455
K4 O11 3.067970 1_555
K4 O8 3.067970 1_455
K5 O3 2.696892 1_555
K5 O12 2.735812 1_555
K5 O14 2.828101 1_556
K5 O4 2.954926 1_655
K5 O7 2.954926 1_555
K5 O15 3.005973 1_555
K5 O15 3.005973 1_655
K5 O10 3.067970 1_655
K5 O9 3.067970 1_555
Ho0 O11 2.250367 1_565
Ho0 O8 2.250367 1_465
Ho0 O0 2.339461 1_555
Ho0 O6 2.355284 1_455
Ho0 O5 2.355284 1_555
Ho0 O13 2.440105 1_555
Ho0 O2 2.557229 1_565
Ho1 O10 2.250367 1_645
Ho1 O9 2.250367 1_545
Ho1 O1 2.339461 1_555
Ho1 O4 2.355284 1_655
Ho1 O7 2.355284 1_555
Ho1 O12 2.440105 1_555
Ho1 O3 2.557229 1_545
O0 P0 1.548629 1_565
O1 P1 1.548629 1_545
O2 P0 1.564014 1_555
O3 P1 1.564014 1_555
O4 P0 1.564917 1_555
O5 P1 1.564917 1_555
O6 P1 1.564917 1_555
O7 P0 1.564917 1_555
O8 P2 1.567129 1_555
O9 P3 1.567129 1_555
O10 P3 1.567129 1_555
O11 P2 1.567129 1_555
O12 P2 1.561934 1_556
O13 P3 1.561934 1_554
O14 P2 1.541941 1_555
O15 P3 1.541941 1_555
