# generated using pymatgen
data_Sc2FeB2RuRh4
_symmetry_space_group_name_H-M   'P 1'
_cell_length_a   9.36918700
_cell_length_b   9.36918700
_cell_length_c   3.03287600
_cell_angle_alpha   90.00000000
_cell_angle_beta   90.00000000
_cell_angle_gamma   90.00000000
_symmetry_Int_Tables_number   1
_chemical_formula_structural   Sc2FeB2RuRh4
_chemical_formula_sum   'Sc4 Fe2 B4 Ru2 Rh8'
_cell_volume   266.23090514
_cell_formula_units_Z   2
loop_
 _symmetry_equiv_pos_site_id
 _symmetry_equiv_pos_as_xyz
  1  'x, y, z'
loop_
 _atom_site_type_symbol
 _atom_site_label
 _atom_site_symmetry_multiplicity
 _atom_site_fract_x
 _atom_site_fract_y
 _atom_site_fract_z
 _atom_site_occupancy
  Sc  Sc0  1  0.67406100  0.17406100  0.00000000  1
  Sc  Sc1  1  0.32593900  0.82593900  0.00000000  1
  Sc  Sc2  1  0.17406100  0.32593900  0.00000000  1
  Sc  Sc3  1  0.82593900  0.67406100  0.00000000  1
  Fe  Fe0  1  0.50000000  0.50000000  0.00000000  1
  Fe  Fe1  1  0.00000000  0.00000000  0.00000000  1
  B  B0  1  0.12280100  0.62280100  0.00000000  1
  B  B1  1  0.87719900  0.37719900  0.00000000  1
  B  B2  1  0.62280100  0.87719900  0.00000000  1
  B  B3  1  0.37719900  0.12280100  0.00000000  1
  Ru  Ru0  1  0.50000000  0.00000000  0.50000000  1
  Ru  Ru1  1  0.00000000  0.50000000  0.50000000  1
  Rh  Rh0  1  0.57144900  0.71481400  0.50000000  1
  Rh  Rh1  1  0.42855100  0.28518600  0.50000000  1
  Rh  Rh2  1  0.07144900  0.78518600  0.50000000  1
  Rh  Rh3  1  0.92855100  0.21481400  0.50000000  1
  Rh  Rh4  1  0.28518600  0.57144900  0.50000000  1
  Rh  Rh5  1  0.71481400  0.42855100  0.50000000  1
  Rh  Rh6  1  0.21481400  0.07144900  0.50000000  1
  Rh  Rh7  1  0.78518600  0.92855100  0.50000000  1
loop_
_geom_bond_atom_site_label_1
_geom_bond_atom_site_label_2
_geom_bond_distance
_geom_bond_site_symmetry_2
Fe0 Rh0 2.607373 1_554
Fe0 Rh4 2.607373 1_555
Fe0 Rh4 2.607373 1_554
Fe0 Rh0 2.607373 1_555
Fe0 Rh5 2.607373 1_554
Fe0 Rh5 2.607373 1_555
Fe0 Rh1 2.607373 1_554
Fe0 Rh1 2.607373 1_555
Fe1 Rh6 2.607373 1_555
Fe1 Rh6 2.607373 1_554
Fe1 Rh3 2.607373 1_455
Fe1 Rh3 2.607373 1_454
Fe1 Rh2 2.607373 1_544
Fe1 Rh2 2.607373 1_545
Fe1 Rh7 2.607373 1_444
Fe1 Rh7 2.607373 1_445
B0 Rh4 2.201311 1_555
B0 Rh4 2.201311 1_554
B0 Rh2 2.201311 1_555
B0 Rh2 2.201311 1_554
B0 Ru1 2.224206 1_554
B0 Ru1 2.224206 1_555
B0 Sc1 2.691585 1_555
B0 Sc2 2.822515 1_555
B0 Sc3 2.822515 1_455
B1 Rh5 2.201311 1_555
B1 Rh5 2.201311 1_554
B1 Rh3 2.201311 1_555
B1 Rh3 2.201311 1_554
B1 Ru1 2.224206 1_655
B1 Ru1 2.224206 1_654
B1 Sc0 2.691585 1_555
B1 Sc3 2.822515 1_555
B1 Sc2 2.822515 1_655
B2 Rh0 2.201311 1_554
B2 Rh7 2.201311 1_554
B2 Rh0 2.201311 1_555
B2 Rh7 2.201311 1_555
B2 Ru0 2.224206 1_564
B2 Ru0 2.224206 1_565
B2 Sc3 2.691585 1_555
B2 Sc1 2.822515 1_555
B2 Sc0 2.822515 1_565
B3 Rh1 2.201311 1_554
B3 Rh1 2.201311 1_555
B3 Rh6 2.201311 1_554
B3 Rh6 2.201311 1_555
B3 Ru0 2.224206 1_554
B3 Ru0 2.224206 1_555
B3 Sc2 2.691585 1_555
B3 Sc0 2.822515 1_555
B3 Sc1 2.822515 1_545
Ru0 Sc0 2.760193 1_556
Ru0 Sc1 2.760193 1_546
Ru0 Sc1 2.760193 1_545
Ru0 Sc0 2.760193 1_555
Ru1 Sc3 2.760193 1_456
Ru1 Sc2 2.760193 1_555
Ru1 Sc2 2.760193 1_556
Ru1 Sc3 2.760193 1_455
Rh0 Sc3 2.851415 1_555
Rh0 Sc3 2.851415 1_556
Rh0 Sc1 2.945273 1_555
Rh0 Sc1 2.945273 1_556
Rh1 Sc2 2.851415 1_555
Rh1 Sc2 2.851415 1_556
Rh1 Sc0 2.945273 1_555
Rh1 Sc0 2.945273 1_556
Rh2 Sc1 2.851415 1_555
Rh2 Sc1 2.851415 1_556
Rh2 Sc3 2.945273 1_455
Rh2 Sc3 2.945273 1_456
Rh3 Sc0 2.851415 1_555
Rh3 Sc0 2.851415 1_556
Rh3 Sc2 2.945273 1_656
Rh3 Sc2 2.945273 1_655
Rh4 Sc1 2.851415 1_555
Rh4 Sc1 2.851415 1_556
Rh4 Sc2 2.945273 1_555
Rh4 Sc2 2.945273 1_556
Rh5 Sc0 2.851415 1_555
Rh5 Sc0 2.851415 1_556
Rh5 Sc3 2.945273 1_556
Rh5 Sc3 2.945273 1_555
Rh6 Sc2 2.851415 1_556
Rh6 Sc2 2.851415 1_555
Rh6 Sc1 2.945273 1_546
Rh6 Sc1 2.945273 1_545
Rh7 Sc3 2.851415 1_556
Rh7 Sc3 2.851415 1_555
Rh7 Sc0 2.945273 1_565
Rh7 Sc0 2.945273 1_566
