# generated using pymatgen
data_Co2P3H11N2O9
_symmetry_space_group_name_H-M   'P 1'
_cell_length_a   5.43236963
_cell_length_b   5.43236963
_cell_length_c   19.00166600
_cell_angle_alpha   90.00000000
_cell_angle_beta   90.00000000
_cell_angle_gamma   119.99999554
_symmetry_Int_Tables_number   1
_chemical_formula_structural   Co2P3H11N2O9
_chemical_formula_sum   'Co4 P6 H22 N4 O18'
_cell_volume   485.62491159
_cell_formula_units_Z   2
loop_
 _symmetry_equiv_pos_site_id
 _symmetry_equiv_pos_as_xyz
  1  'x, y, z'
loop_
 _atom_site_type_symbol
 _atom_site_label
 _atom_site_symmetry_multiplicity
 _atom_site_fract_x
 _atom_site_fract_y
 _atom_site_fract_z
 _atom_site_occupancy
  Co  Co0  1  0.66666700  0.33333300  0.16729800  1
  Co  Co1  1  0.33333300  0.66666700  0.66729800  1
  Co  Co2  1  0.33333300  0.66666700  0.82367400  1
  Co  Co3  1  0.66666700  0.33333300  0.32367400  1
  P  P0  1  0.00000000  0.00000000  0.12761300  1
  P  P1  1  0.00000000  0.00000000  0.62761300  1
  P  P2  1  0.00000000  0.00000000  0.86920200  1
  P  P3  1  0.00000000  0.00000000  0.36920200  1
  P  P4  1  0.33333300  0.66666700  0.26447000  1
  P  P5  1  0.66666700  0.33333300  0.76447000  1
  H  H0  1  0.21556100  0.75406500  0.05244500  1
  H  H1  1  0.24593500  0.46149700  0.05244500  1
  H  H2  1  0.53850300  0.78443900  0.05244500  1
  H  H3  1  0.75406500  0.21556100  0.55244500  1
  H  H4  1  0.78443900  0.53850300  0.55244500  1
  H  H5  1  0.46149700  0.24593500  0.55244500  1
  H  H6  1  0.78374900  0.24543800  0.94881200  1
  H  H7  1  0.75456200  0.53831100  0.94881200  1
  H  H8  1  0.46168900  0.21625100  0.94881200  1
  H  H9  1  0.24543800  0.78374900  0.44881200  1
  H  H10  1  0.21625100  0.46168900  0.44881200  1
  H  H11  1  0.53831100  0.75456200  0.44881200  1
  H  H12  1  0.33333300  0.66666700  0.97861400  1
  H  H13  1  0.66666700  0.33333300  0.47861400  1
  H  H14  1  0.66666700  0.33333300  0.02253500  1
  H  H15  1  0.33333300  0.66666700  0.52253500  1
  H  H16  1  0.00000000  0.00000000  0.20169100  1
  H  H17  1  0.00000000  0.00000000  0.70169100  1
  H  H18  1  0.00000000  0.00000000  0.79507800  1
  H  H19  1  0.00000000  0.00000000  0.29507800  1
  H  H20  1  0.66666700  0.33333300  0.83817100  1
  H  H21  1  0.33333300  0.66666700  0.33817100  1
  N  N0  1  0.33333300  0.66666700  0.03301300  1
  N  N1  1  0.66666700  0.33333300  0.53301300  1
  N  N2  1  0.66666700  0.33333300  0.96814500  1
  N  N3  1  0.33333300  0.66666700  0.46814500  1
  O  O0  1  0.49194800  0.98353600  0.24397400  1
  O  O1  1  0.01646400  0.50841200  0.24397400  1
  O  O2  1  0.49158800  0.50805200  0.24397400  1
  O  O3  1  0.98353600  0.49194800  0.74397400  1
  O  O4  1  0.50805200  0.49158800  0.74397400  1
  O  O5  1  0.50841200  0.01646400  0.74397400  1
  O  O6  1  0.31197200  0.16418900  0.10187600  1
  O  O7  1  0.83581100  0.14778300  0.10187600  1
  O  O8  1  0.85221700  0.68802800  0.10187600  1
  O  O9  1  0.16418900  0.31197200  0.60187600  1
  O  O10  1  0.68802800  0.85221700  0.60187600  1
  O  O11  1  0.14778300  0.83581100  0.60187600  1
  O  O12  1  0.68962000  0.83947100  0.89402500  1
  O  O13  1  0.16052900  0.85015000  0.89402500  1
  O  O14  1  0.14985000  0.31038000  0.89402500  1
  O  O15  1  0.83947100  0.68962000  0.39402500  1
  O  O16  1  0.31038000  0.14985000  0.39402500  1
  O  O17  1  0.85015000  0.16052900  0.39402500  1
loop_
_geom_bond_atom_site_label_1
_geom_bond_atom_site_label_2
_geom_bond_distance
_geom_bond_site_symmetry_2
Co0 O7 2.081310 1_555
Co0 O8 2.081314 1_555
Co0 O6 2.081314 1_555
Co0 O0 2.197934 1_545
Co0 O1 2.197934 1_655
Co0 O2 2.197937 1_555
Co1 O11 2.081310 1_555
Co1 O10 2.081314 1_555
Co1 O9 2.081314 1_555
Co1 O3 2.197934 1_455
Co1 O5 2.197934 1_565
Co1 O4 2.197937 1_555
Co2 O13 2.144157 1_555
Co2 O12 2.144157 1_555
Co2 O14 2.144157 1_555
Co2 O3 2.236438 1_455
Co2 O5 2.236438 1_565
Co2 O4 2.236441 1_555
Co3 O17 2.144157 1_555
Co3 O15 2.144157 1_555
Co3 O16 2.144157 1_555
Co3 O0 2.236438 1_545
Co3 O1 2.236438 1_655
Co3 O2 2.236441 1_555
H0 N0 1.036738 1_555
H1 N0 1.036739 1_555
H2 N0 1.036739 1_555
H3 N1 1.036738 1_555
H4 N1 1.036739 1_555
H5 N1 1.036739 1_555
H6 N2 1.034972 1_555
H7 N2 1.034977 1_555
H8 N2 1.034976 1_555
H9 N3 1.034972 1_555
H10 N3 1.034976 1_555
H11 N3 1.034977 1_555
H12 N0 1.033672 1_556
H13 N1 1.033672 1_555
H14 N2 1.033501 1_554
H15 N3 1.033501 1_555
H16 P0 1.407605 1_555
H17 P1 1.407605 1_555
H18 P2 1.408479 1_555
H19 P3 1.408479 1_555
H20 P5 1.400442 1_555
H21 P4 1.400442 1_555
O0 P4 1.540767 1_555
O1 P4 1.540767 1_555
O2 P4 1.540771 1_555
O3 P5 1.540767 1_555
O4 P5 1.540771 1_555
O5 P5 1.540767 1_555
O6 P0 1.547669 1_555
O7 P0 1.547668 1_655
O8 P0 1.547669 1_665
O9 P1 1.547669 1_555
O10 P1 1.547669 1_665
O11 P1 1.547668 1_565
O12 P2 1.534770 1_665
O13 P2 1.534765 1_565
O14 P2 1.534770 1_555
O15 P3 1.534770 1_665
O16 P3 1.534770 1_555
O17 P3 1.534765 1_655
