# generated using pymatgen
data_CaHg2
_symmetry_space_group_name_H-M   'P 1'
_cell_length_a   10.81161144
_cell_length_b   10.81161144
_cell_length_c   7.17973800
_cell_angle_alpha   90.00000000
_cell_angle_beta   90.00000000
_cell_angle_gamma   119.99999657
_symmetry_Int_Tables_number   1
_chemical_formula_structural   CaHg2
_chemical_formula_sum   'Ca8 Hg16'
_cell_volume   726.80867342
_cell_formula_units_Z   8
loop_
 _symmetry_equiv_pos_site_id
 _symmetry_equiv_pos_as_xyz
  1  'x, y, z'
loop_
 _atom_site_type_symbol
 _atom_site_label
 _atom_site_symmetry_multiplicity
 _atom_site_fract_x
 _atom_site_fract_y
 _atom_site_fract_z
 _atom_site_occupancy
  Ca  Ca0_0  1  0.00000000  0.00000000  0.00000000  1
  Ca  Ca0_1  1  0.00000000  0.00000000  0.50000000  1
  Ca  Ca0_2  1  0.00000000  0.50000000  0.00000000  1
  Ca  Ca0_3  1  0.00000000  0.50000000  0.50000000  1
  Ca  Ca0_4  1  0.50000000  0.00000000  0.00000000  1
  Ca  Ca0_5  1  0.50000000  0.00000000  0.50000000  1
  Ca  Ca0_6  1  0.50000000  0.50000000  0.00000000  1
  Ca  Ca0_7  1  0.50000000  0.50000000  0.50000000  1
  Hg  Hg0_0  1  0.33333350  0.16666650  0.47341600  1
  Hg  Hg0_1  1  0.33333350  0.16666650  0.97341600  1
  Hg  Hg0_2  1  0.33333350  0.66666650  0.47341600  1
  Hg  Hg0_3  1  0.33333350  0.66666650  0.97341600  1
  Hg  Hg0_4  1  0.83333350  0.16666650  0.47341600  1
  Hg  Hg0_5  1  0.83333350  0.16666650  0.97341600  1
  Hg  Hg0_6  1  0.83333350  0.66666650  0.47341600  1
  Hg  Hg0_7  1  0.83333350  0.66666650  0.97341600  1
  Hg  Hg1_0  1  0.16666650  0.33333350  0.02658400  1
  Hg  Hg1_1  1  0.16666650  0.33333350  0.52658400  1
  Hg  Hg1_2  1  0.16666650  0.83333350  0.02658400  1
  Hg  Hg1_3  1  0.16666650  0.83333350  0.52658400  1
  Hg  Hg1_4  1  0.66666650  0.33333350  0.02658400  1
  Hg  Hg1_5  1  0.66666650  0.33333350  0.52658400  1
  Hg  Hg1_6  1  0.66666650  0.83333350  0.02658400  1
  Hg  Hg1_7  1  0.66666650  0.83333350  0.52658400  1
loop_
_geom_bond_atom_site_label_1
_geom_bond_atom_site_label_2
_geom_bond_distance
_geom_bond_site_symmetry_2
Ca0_0 Hg0_5 3.126871 1_454
Ca0_0 Hg1_2 3.126871 1_545
Ca0_0 Hg1_6 3.126876 1_445
Ca0_0 Hg0_7 3.126876 1_444
Ca0_0 Hg0_1 3.126876 1_554
Ca0_0 Hg1_0 3.126876 1_555
Ca0_0 Ca0_1 3.589869 1_555
Ca0_0 Ca0_1 3.589869 1_554
Ca0_1 Hg0_4 3.126871 1_455
Ca0_1 Hg1_3 3.126871 1_545
Ca0_1 Hg1_7 3.126876 1_445
Ca0_1 Hg1_1 3.126876 1_555
Ca0_1 Hg0_6 3.126876 1_445
Ca0_1 Hg0_0 3.126876 1_555
Ca0_2 Hg1_0 3.126871 1_555
Ca0_2 Hg0_7 3.126871 1_454
Ca0_2 Hg0_5 3.126876 1_454
Ca0_2 Hg0_3 3.126876 1_554
Ca0_2 Hg1_2 3.126876 1_555
Ca0_2 Hg1_4 3.126876 1_455
Ca0_2 Ca0_3 3.589869 1_554
Ca0_2 Ca0_3 3.589869 1_555
Ca0_3 Hg1_1 3.126871 1_555
Ca0_3 Hg0_6 3.126871 1_455
Ca0_3 Hg0_2 3.126876 1_555
Ca0_3 Hg1_3 3.126876 1_555
Ca0_3 Hg0_4 3.126876 1_455
Ca0_3 Hg1_5 3.126876 1_455
Ca0_4 Hg0_1 3.126871 1_554
Ca0_4 Hg1_6 3.126871 1_545
Ca0_4 Hg1_2 3.126876 1_545
Ca0_4 Hg1_4 3.126876 1_555
Ca0_4 Hg0_3 3.126876 1_544
Ca0_4 Hg0_5 3.126876 1_554
Ca0_4 Ca0_5 3.589869 1_554
Ca0_4 Ca0_5 3.589869 1_555
Ca0_5 Hg0_0 3.126871 1_555
Ca0_5 Hg1_7 3.126871 1_545
Ca0_5 Hg1_3 3.126876 1_545
Ca0_5 Hg1_5 3.126876 1_555
Ca0_5 Hg0_4 3.126876 1_555
Ca0_5 Hg0_2 3.126876 1_545
Ca0_6 Hg0_3 3.126871 1_554
Ca0_6 Hg1_4 3.126871 1_555
Ca0_6 Hg0_1 3.126876 1_554
Ca0_6 Hg1_0 3.126876 1_555
Ca0_6 Hg1_6 3.126876 1_555
Ca0_6 Hg0_7 3.126876 1_554
Ca0_6 Ca0_7 3.589869 1_554
Ca0_6 Ca0_7 3.589869 1_555
Ca0_7 Hg0_2 3.126871 1_555
Ca0_7 Hg1_5 3.126871 1_555
Ca0_7 Hg0_0 3.126876 1_555
Ca0_7 Hg1_1 3.126876 1_555
Ca0_7 Hg1_7 3.126876 1_555
Ca0_7 Hg0_6 3.126876 1_555
Hg0_0 Hg1_5 3.144298 1_555
Hg0_0 Hg1_3 3.144298 1_545
Hg0_0 Hg1_1 3.144308 1_555
Hg0_1 Hg1_4 3.144298 1_556
Hg0_1 Hg1_2 3.144298 1_546
Hg0_1 Hg1_0 3.144308 1_556
Hg0_2 Hg1_1 3.144298 1_555
Hg0_2 Hg1_7 3.144298 1_555
Hg0_2 Hg1_3 3.144308 1_555
Hg0_3 Hg1_0 3.144298 1_556
Hg0_3 Hg1_6 3.144298 1_556
Hg0_3 Hg1_2 3.144308 1_556
Hg0_4 Hg1_7 3.144298 1_545
Hg0_4 Hg1_1 3.144298 1_655
Hg0_4 Hg1_5 3.144308 1_555
Hg0_5 Hg1_6 3.144298 1_546
Hg0_5 Hg1_0 3.144298 1_656
Hg0_5 Hg1_4 3.144308 1_556
Hg0_6 Hg1_3 3.144298 1_655
Hg0_6 Hg1_5 3.144298 1_555
Hg0_6 Hg1_7 3.144308 1_555
Hg0_7 Hg1_2 3.144298 1_656
Hg0_7 Hg1_4 3.144298 1_556
Hg0_7 Hg1_6 3.144308 1_556
