# generated using pymatgen
data_Mg6VCo
_symmetry_space_group_name_H-M   'P 1'
_cell_length_a   4.85542000
_cell_length_b   5.85758100
_cell_length_c   10.73909000
_cell_angle_alpha   90.00000000
_cell_angle_beta   90.00000000
_cell_angle_gamma   90.00000000
_symmetry_Int_Tables_number   1
_chemical_formula_structural   Mg6VCo
_chemical_formula_sum   'Mg12 V2 Co2'
_cell_volume   305.43062986
_cell_formula_units_Z   2
loop_
 _symmetry_equiv_pos_site_id
 _symmetry_equiv_pos_as_xyz
  1  'x, y, z'
loop_
 _atom_site_type_symbol
 _atom_site_label
 _atom_site_symmetry_multiplicity
 _atom_site_fract_x
 _atom_site_fract_y
 _atom_site_fract_z
 _atom_site_occupancy
  Mg  Mg0  1  0.50000000  0.25056100  0.42102800  1
  Mg  Mg1  1  0.50000000  0.74943900  0.42102800  1
  Mg  Mg2  1  0.00000000  0.75285200  0.08509000  1
  Mg  Mg3  1  0.00000000  0.24714800  0.08509000  1
  Mg  Mg4  1  0.00000000  0.00000000  0.31844400  1
  Mg  Mg5  1  0.00000000  0.50000000  0.32449500  1
  Mg  Mg6  1  0.50000000  0.75056100  0.92102800  1
  Mg  Mg7  1  0.50000000  0.24943900  0.92102800  1
  Mg  Mg8  1  0.00000000  0.25285200  0.58509000  1
  Mg  Mg9  1  0.00000000  0.74714800  0.58509000  1
  Mg  Mg10  1  0.00000000  0.50000000  0.81844400  1
  Mg  Mg11  1  0.00000000  0.00000000  0.82449500  1
  V  V0  1  0.50000000  0.50000000  0.17300000  1
  V  V1  1  0.50000000  0.00000000  0.67300000  1
  Co  Co0  1  0.50000000  0.00000000  0.17182100  1
  Co  Co1  1  0.50000000  0.50000000  0.67182100  1
loop_
_geom_bond_atom_site_label_1
_geom_bond_atom_site_label_2
_geom_bond_distance
_geom_bond_site_symmetry_2
Mg0 Mg1 2.922218 1_555
Mg0 Mg1 2.935363 1_545
Mg0 Mg8 2.999694 1_655
Mg0 Mg8 2.999694 1_555
Mg0 Mg5 3.017170 1_655
Mg0 Mg5 3.017170 1_555
Mg0 V0 3.038022 1_555
Mg0 Mg4 3.043274 1_655
Mg0 Mg4 3.043274 1_555
Mg0 V1 3.078352 1_555
Mg1 Mg9 2.999694 1_555
Mg1 Mg9 2.999694 1_655
Mg1 Mg5 3.017170 1_655
Mg1 Mg5 3.017170 1_555
Mg1 V0 3.038022 1_555
Mg1 Mg4 3.043274 1_565
Mg1 Mg4 3.043274 1_665
Mg1 V1 3.078352 1_565
Mg2 Mg4 2.894113 1_565
Mg2 Mg3 2.895379 1_565
Mg2 Mg3 2.962202 1_555
Mg2 Mg5 2.967096 1_555
Mg2 V0 2.996450 1_555
Mg2 V0 2.996450 1_455
Mg2 Mg6 2.999694 1_454
Mg2 Mg6 2.999694 1_554
Mg3 Mg4 2.894113 1_555
Mg3 Mg5 2.967096 1_555
Mg3 V0 2.996450 1_555
Mg3 V0 2.996450 1_455
Mg3 Mg7 2.999694 1_454
Mg3 Mg7 2.999694 1_554
Mg4 Mg5 2.929511 1_545
Mg4 Mg5 2.929511 1_555
Mg4 Mg8 3.223894 1_555
Mg4 Mg9 3.223894 1_545
Mg5 V0 2.922437 1_455
Mg5 V0 2.922437 1_555
Mg5 Mg9 3.150826 1_555
Mg5 Mg8 3.150826 1_555
Mg6 Mg7 2.922218 1_565
Mg6 Mg7 2.935363 1_555
Mg6 V1 3.038022 1_565
Mg6 V0 3.078352 1_556
Mg7 V1 3.038022 1_555
Mg7 V0 3.078352 1_556
Mg8 Mg9 2.895379 1_555
Mg8 Mg9 2.962202 1_545
Mg8 V1 2.996450 1_555
Mg8 V1 2.996450 1_455
Mg9 V1 2.996450 1_465
Mg9 V1 2.996450 1_565
Mg10 Mg9 2.894113 1_555
Mg10 Mg8 2.894113 1_555
Mg10 Mg11 2.929511 1_565
Mg10 Mg11 2.929511 1_555
Mg10 Mg6 3.043274 1_455
Mg10 Mg6 3.043274 1_555
Mg10 Mg7 3.043274 1_555
Mg10 Mg7 3.043274 1_455
Mg10 Mg2 3.223894 1_556
Mg10 Mg3 3.223894 1_556
Mg11 V1 2.922437 1_455
Mg11 V1 2.922437 1_555
Mg11 Mg8 2.967096 1_555
Mg11 Mg9 2.967096 1_545
Mg11 Mg7 3.017170 1_555
Mg11 Mg7 3.017170 1_455
Mg11 Mg6 3.017170 1_545
Mg11 Mg6 3.017170 1_445
Mg11 Mg3 3.150826 1_556
Mg11 Mg2 3.150826 1_546
Co0 Mg4 2.893637 1_555
Co0 Mg4 2.893637 1_655
Co0 V0 2.928818 1_555
Co0 V0 2.928818 1_545
Co0 Mg3 2.976090 1_655
Co0 Mg3 2.976090 1_555
Co0 Mg2 2.976090 1_545
Co0 Mg2 2.976090 1_645
Co0 Mg1 3.052284 1_545
Co0 Mg0 3.052284 1_555
Co0 Mg7 3.064089 1_554
Co0 Mg6 3.064089 1_544
Co1 Mg10 2.893637 1_555
Co1 Mg10 2.893637 1_655
Co1 V1 2.928818 1_565
Co1 V1 2.928818 1_555
Co1 Mg9 2.976090 1_655
Co1 Mg9 2.976090 1_555
Co1 Mg8 2.976090 1_555
Co1 Mg8 2.976090 1_655
Co1 Mg6 3.052284 1_555
Co1 Mg7 3.052284 1_555
Co1 Mg1 3.064089 1_555
Co1 Mg0 3.064089 1_555
