# generated using pymatgen
data_AlPO4
_symmetry_space_group_name_H-M   'P 1'
_cell_length_a   14.50439700
_cell_length_b   6.19673500
_cell_length_c   8.68609606
_cell_angle_alpha   75.39451044
_cell_angle_beta   90.00000000
_cell_angle_gamma   90.00000000
_symmetry_Int_Tables_number   1
_chemical_formula_structural   AlPO4
_chemical_formula_sum   'Al12 P12 O48'
_cell_volume   755.47699905
_cell_formula_units_Z   12
loop_
 _symmetry_equiv_pos_site_id
 _symmetry_equiv_pos_as_xyz
  1  'x, y, z'
loop_
 _atom_site_type_symbol
 _atom_site_label
 _atom_site_symmetry_multiplicity
 _atom_site_fract_x
 _atom_site_fract_y
 _atom_site_fract_z
 _atom_site_occupancy
  Al  Al0  1  0.09271100  0.20441100  0.11995300  1
  Al  Al1  1  0.59271100  0.79558900  0.38004700  1
  Al  Al2  1  0.90728900  0.79558900  0.88004700  1
  Al  Al3  1  0.40728900  0.20441100  0.61995300  1
  Al  Al4  1  0.19850300  0.84361400  0.35044600  1
  Al  Al5  1  0.69850300  0.15638600  0.14955400  1
  Al  Al6  1  0.80149700  0.15638600  0.64955400  1
  Al  Al7  1  0.30149700  0.84361400  0.85044600  1
  Al  Al8  1  0.60285900  0.54701600  0.93576100  1
  Al  Al9  1  0.10285900  0.45298400  0.56423900  1
  Al  Al10  1  0.39714100  0.45298400  0.06423900  1
  Al  Al11  1  0.89714100  0.54701600  0.43576100  1
  P  P0  1  0.74780500  0.68056600  0.64066500  1
  P  P1  1  0.24780500  0.31943400  0.85933500  1
  P  P2  1  0.25219500  0.31943400  0.35933500  1
  P  P3  1  0.75219500  0.68056600  0.14066500  1
  P  P4  1  0.54706500  0.33324600  0.32509300  1
  P  P5  1  0.04706500  0.66675400  0.17490700  1
  P  P6  1  0.45293500  0.66675400  0.67490700  1
  P  P7  1  0.95293500  0.33324600  0.82509300  1
  P  P8  1  0.60316400  0.08650300  0.82921100  1
  P  P9  1  0.10316400  0.91349700  0.67078900  1
  P  P10  1  0.39683600  0.91349700  0.17078900  1
  P  P11  1  0.89683600  0.08650300  0.32921100  1
  O  O0  1  0.68362200  0.57291700  0.77346300  1
  O  O1  1  0.18362200  0.42708300  0.72653700  1
  O  O2  1  0.31637800  0.42708300  0.22653700  1
  O  O3  1  0.81637800  0.57291700  0.27346300  1
  O  O4  1  0.81845000  0.84400400  0.69151200  1
  O  O5  1  0.31845000  0.15599600  0.80848800  1
  O  O6  1  0.18155000  0.15599600  0.30848800  1
  O  O7  1  0.68155000  0.84400400  0.19151200  1
  O  O8  1  0.80516500  0.48354000  0.59754100  1
  O  O9  1  0.30516500  0.51646000  0.90245900  1
  O  O10  1  0.19483500  0.51646000  0.40245900  1
  O  O11  1  0.69483500  0.48354000  0.09754100  1
  O  O12  1  0.70190800  0.81485200  0.49078700  1
  O  O13  1  0.20190800  0.18514800  0.00921300  1
  O  O14  1  0.29809200  0.18514800  0.50921300  1
  O  O15  1  0.79809200  0.81485200  0.99078700  1
  O  O16  1  0.51478300  0.45105300  0.14929200  1
  O  O17  1  0.01478300  0.54894700  0.35070800  1
  O  O18  1  0.48521700  0.54894700  0.85070800  1
  O  O19  1  0.98521700  0.45105300  0.64929200  1
  O  O20  1  0.46788600  0.22676300  0.42936200  1
  O  O21  1  0.96788600  0.77323700  0.07063800  1
  O  O22  1  0.53211400  0.77323700  0.57063800  1
  O  O23  1  0.03211400  0.22676300  0.92936200  1
  O  O24  1  0.60323100  0.49479600  0.39289400  1
  O  O25  1  0.10323100  0.50520400  0.10710600  1
  O  O26  1  0.39676900  0.50520400  0.60710600  1
  O  O27  1  0.89676900  0.49479600  0.89289400  1
  O  O28  1  0.61202000  0.13445100  0.30633600  1
  O  O29  1  0.11202000  0.86554900  0.19366400  1
  O  O30  1  0.38798000  0.86554900  0.69366400  1
  O  O31  1  0.88798000  0.13445100  0.80633600  1
  O  O32  1  0.62407100  0.21878000  0.96469100  1
  O  O33  1  0.12407100  0.78122000  0.53530900  1
  O  O34  1  0.37592900  0.78122000  0.03530900  1
  O  O35  1  0.87592900  0.21878000  0.46469100  1
  O  O36  1  0.68493200  0.13495600  0.71197200  1
  O  O37  1  0.18493200  0.86504400  0.78802800  1
  O  O38  1  0.31506800  0.86504400  0.28802800  1
  O  O39  1  0.81506800  0.13495600  0.21197200  1
  O  O40  1  0.59609900  0.84340200  0.91937900  1
  O  O41  1  0.09609900  0.15659800  0.58062100  1
  O  O42  1  0.40390100  0.15659800  0.08062100  1
  O  O43  1  0.90390100  0.84340200  0.41937900  1
  O  O44  1  0.51428100  0.17264600  0.74391400  1
  O  O45  1  0.01428100  0.82735400  0.75608600  1
  O  O46  1  0.48571900  0.82735400  0.25608600  1
  O  O47  1  0.98571900  0.17264600  0.24391400  1
loop_
_geom_bond_atom_site_label_1
_geom_bond_atom_site_label_2
_geom_bond_distance
_geom_bond_site_symmetry_2
Al0 O25 1.845288 1_555
Al0 O23 1.848432 1_554
Al0 O47 1.870688 1_455
Al0 O13 1.872416 1_555
Al0 O6 2.045592 1_555
Al0 O29 2.054180 1_545
Al1 O24 1.845288 1_555
Al1 O22 1.848432 1_555
Al1 O46 1.870688 1_555
Al1 O12 1.872416 1_555
Al1 O7 2.045592 1_555
Al1 O28 2.054180 1_565
Al2 O27 1.845288 1_555
Al2 O21 1.848432 1_556
Al2 O45 1.870688 1_655
Al2 O15 1.872416 1_555
Al2 O4 2.045592 1_555
Al2 O31 2.054180 1_565
Al3 O26 1.845288 1_555
Al3 O20 1.848432 1_555
Al3 O44 1.870688 1_555
Al3 O14 1.872416 1_555
Al3 O5 2.045592 1_555
Al3 O30 2.054180 1_545
Al4 O38 1.770242 1_555
Al4 O29 1.831165 1_555
Al4 O33 1.892167 1_555
Al4 O6 1.893308 1_565
Al4 O10 1.963395 1_555
Al5 O39 1.770242 1_555
Al5 O28 1.831165 1_555
Al5 O32 1.892167 1_554
Al5 O7 1.893308 1_545
Al5 O11 1.963395 1_555
Al6 O36 1.770242 1_555
Al6 O31 1.831165 1_555
Al6 O35 1.892167 1_555
Al6 O4 1.893308 1_545
Al6 O8 1.963395 1_555
Al7 O37 1.770242 1_555
Al7 O30 1.831165 1_555
Al7 O34 1.892167 1_556
Al7 O5 1.893308 1_565
Al7 O9 1.963395 1_555
Al8 O0 1.808653 1_555
Al8 O40 1.808661 1_555
Al8 O18 1.858232 1_555
Al8 O11 1.905349 1_556
Al8 O32 2.009268 1_555
Al8 O16 2.206685 1_556
Al9 O1 1.808653 1_555
Al9 O41 1.808661 1_555
Al9 O19 1.858232 1_455
Al9 O10 1.905349 1_555
Al9 O33 2.009268 1_555
Al9 O17 2.206685 1_555
Al10 O2 1.808653 1_555
Al10 O42 1.808661 1_555
Al10 O16 1.858232 1_555
Al10 O9 1.905349 1_554
Al10 O34 2.009268 1_555
Al10 O18 2.206685 1_554
Al11 O3 1.808653 1_555
Al11 O43 1.808661 1_555
Al11 O17 1.858232 1_655
Al11 O8 1.905349 1_555
Al11 O35 2.009268 1_555
Al11 O19 2.206685 1_555
O0 P0 1.501373 1_555
O1 P1 1.501373 1_555
O2 P2 1.501373 1_555
O3 P3 1.501373 1_555
O4 P0 1.579973 1_555
O5 P1 1.579973 1_555
O6 P2 1.579973 1_555
O7 P3 1.579973 1_555
O8 P0 1.598052 1_555
O9 P1 1.598052 1_555
O10 P2 1.598052 1_555
O11 P3 1.598052 1_555
O12 P0 1.511323 1_555
O13 P1 1.511323 1_554
O14 P2 1.511323 1_555
O15 P3 1.511323 1_556
O16 P4 1.588009 1_555
O17 P5 1.588009 1_555
O18 P6 1.588009 1_555
O19 P7 1.588009 1_555
O20 P4 1.507715 1_555
O21 P5 1.507715 1_655
O22 P6 1.507715 1_555
O23 P7 1.507715 1_455
O24 P4 1.519866 1_555
O25 P5 1.519866 1_555
O26 P6 1.519866 1_555
O27 P7 1.519866 1_555
O28 P4 1.591511 1_555
O29 P5 1.591511 1_555
O30 P6 1.591511 1_555
O31 P7 1.591511 1_555
O32 P8 1.623315 1_555
O33 P9 1.623315 1_555
O34 P10 1.623315 1_555
O35 P11 1.623315 1_555
O36 P8 1.542585 1_555
O37 P9 1.542585 1_555
O38 P10 1.542585 1_555
O39 P11 1.542585 1_555
O40 P8 1.515991 1_565
O41 P9 1.515991 1_545
O42 P10 1.515991 1_545
O43 P11 1.515991 1_565
O44 P8 1.515402 1_555
O45 P9 1.515402 1_555
O46 P10 1.515402 1_555
O47 P11 1.515402 1_555
