# generated using pymatgen
data_Sm5Zr3(Ni4As3)4
_symmetry_space_group_name_H-M   'P 1'
_cell_length_a   12.89799447
_cell_length_b   12.89799447
_cell_length_c   4.00024600
_cell_angle_alpha   90.00000000
_cell_angle_beta   90.00000000
_cell_angle_gamma   120.00000239
_symmetry_Int_Tables_number   1
_chemical_formula_structural   Sm5Zr3(Ni4As3)4
_chemical_formula_sum   'Sm5 Zr3 Ni16 As12'
_cell_volume   576.31734893
_cell_formula_units_Z   1
loop_
 _symmetry_equiv_pos_site_id
 _symmetry_equiv_pos_as_xyz
  1  'x, y, z'
loop_
 _atom_site_type_symbol
 _atom_site_label
 _atom_site_symmetry_multiplicity
 _atom_site_fract_x
 _atom_site_fract_y
 _atom_site_fract_z
 _atom_site_occupancy
  Sm  Sm0  1  0.81497400  0.00000000  0.50000000  1
  Sm  Sm1  1  0.00000000  0.81497400  0.50000000  1
  Sm  Sm2  1  0.18502600  0.18502600  0.50000000  1
  Sm  Sm3  1  0.33333300  0.66666700  0.00000000  1
  Sm  Sm4  1  0.66666700  0.33333300  0.00000000  1
  Zr  Zr0  1  0.43518900  0.00000000  0.00000000  1
  Zr  Zr1  1  0.00000000  0.43518900  0.00000000  1
  Zr  Zr2  1  0.56481100  0.56481100  0.00000000  1
  Ni  Ni0  1  0.27631400  0.00000000  0.50000000  1
  Ni  Ni1  1  0.00000000  0.27631400  0.50000000  1
  Ni  Ni2  1  0.72368600  0.72368600  0.50000000  1
  Ni  Ni3  1  0.62211400  0.80625900  0.00000000  1
  Ni  Ni4  1  0.19374100  0.81585500  0.00000000  1
  Ni  Ni5  1  0.18414500  0.37788600  0.00000000  1
  Ni  Ni6  1  0.37788600  0.18414500  0.00000000  1
  Ni  Ni7  1  0.80625900  0.62211400  0.00000000  1
  Ni  Ni8  1  0.81585500  0.19374100  0.00000000  1
  Ni  Ni9  1  0.51702900  0.88017100  0.50000000  1
  Ni  Ni10  1  0.11982900  0.63685700  0.50000000  1
  Ni  Ni11  1  0.36314300  0.48297100  0.50000000  1
  Ni  Ni12  1  0.48297100  0.36314300  0.50000000  1
  Ni  Ni13  1  0.88017100  0.51702900  0.50000000  1
  Ni  Ni14  1  0.63685700  0.11982900  0.50000000  1
  Ni  Ni15  1  0.00000000  0.00000000  0.00000000  1
  As  As0  1  0.17949200  0.00000000  0.00000000  1
  As  As1  1  0.00000000  0.17949200  0.00000000  1
  As  As2  1  0.82050800  0.82050800  0.00000000  1
  As  As3  1  0.52286000  0.69445800  0.50000000  1
  As  As4  1  0.30554200  0.82840200  0.50000000  1
  As  As5  1  0.17159800  0.47714000  0.50000000  1
  As  As6  1  0.47714000  0.17159800  0.50000000  1
  As  As7  1  0.69445800  0.52286000  0.50000000  1
  As  As8  1  0.82840200  0.30554200  0.50000000  1
  As  As9  1  0.64196900  0.00000000  0.00000000  1
  As  As10  1  0.00000000  0.64196900  0.00000000  1
  As  As11  1  0.35803100  0.35803100  0.00000000  1
loop_
_geom_bond_atom_site_label_1
_geom_bond_atom_site_label_2
_geom_bond_distance
_geom_bond_site_symmetry_2
Ni0 Zr0 2.863492 1_556
Ni0 Zr0 2.863492 1_555
Ni0 Sm1 3.145069 1_545
Ni0 Sm2 3.145069 1_555
Ni1 Zr1 2.863492 1_556
Ni1 Zr1 2.863492 1_555
Ni1 Sm0 3.145069 1_455
Ni1 Sm2 3.145069 1_555
Ni2 Zr2 2.863492 1_555
Ni2 Zr2 2.863492 1_556
Ni2 Sm1 3.145069 1_655
Ni2 Sm0 3.145069 1_565
Ni3 Zr2 2.818295 1_555
Ni3 Sm0 3.196338 1_564
Ni3 Sm0 3.196338 1_565
Ni3 Sm3 3.226275 1_555
Ni4 Zr0 2.818295 1_565
Ni4 Sm1 3.196338 1_554
Ni4 Sm1 3.196338 1_555
Ni4 Sm3 3.226264 1_555
Ni5 Zr1 2.818295 1_555
Ni5 Sm2 3.196338 1_555
Ni5 Sm2 3.196338 1_554
Ni5 Sm3 3.226275 1_555
Ni6 Zr0 2.818295 1_555
Ni6 Sm2 3.196338 1_555
Ni6 Sm2 3.196338 1_554
Ni6 Sm4 3.226275 1_555
Ni7 Zr2 2.818295 1_555
Ni7 Sm1 3.196338 1_655
Ni7 Sm1 3.196338 1_654
Ni7 Sm4 3.226275 1_555
Ni8 Zr1 2.818295 1_655
Ni8 Sm0 3.196338 1_554
Ni8 Sm0 3.196338 1_555
Ni8 Sm4 3.226264 1_555
Ni9 Zr0 3.022400 1_566
Ni9 Zr0 3.022400 1_565
Ni9 Sm3 3.266932 1_556
Ni9 Sm3 3.266932 1_555
Ni9 Sm0 3.349204 1_565
Ni10 Zr1 3.022392 1_555
Ni10 Zr1 3.022392 1_556
Ni10 Sm3 3.266925 1_556
Ni10 Sm3 3.266925 1_555
Ni10 Sm1 3.349216 1_555
Ni11 Zr2 3.022391 1_555
Ni11 Zr2 3.022391 1_556
Ni11 Sm3 3.266945 1_556
Ni11 Sm3 3.266945 1_555
Ni11 Sm2 3.349205 1_555
Ni12 Zr2 3.022391 1_555
Ni12 Zr2 3.022391 1_556
Ni12 Sm4 3.266945 1_556
Ni12 Sm4 3.266945 1_555
Ni12 Sm2 3.349205 1_555
Ni13 Zr1 3.022400 1_656
Ni13 Zr1 3.022400 1_655
Ni13 Sm4 3.266932 1_556
Ni13 Sm4 3.266932 1_555
Ni13 Sm1 3.349204 1_655
Ni14 Zr0 3.022392 1_556
Ni14 Zr0 3.022392 1_555
Ni14 Sm4 3.266925 1_556
Ni14 Sm4 3.266925 1_555
Ni14 Sm0 3.349216 1_555
Ni15 Sm2 3.113792 1_555
Ni15 Sm2 3.113792 1_554
Ni15 Sm0 3.113793 1_454
Ni15 Sm1 3.113793 1_544
Ni15 Sm0 3.113793 1_455
Ni15 Sm1 3.113793 1_545
As0 Ni15 2.315087 1_555
As0 Ni0 2.357969 1_555
As0 Ni0 2.357969 1_554
As0 Ni6 2.472122 1_555
As0 Ni4 2.472122 1_545
As0 Sm1 3.087144 1_544
As0 Sm1 3.087144 1_545
As0 Sm2 3.087144 1_555
As0 Sm2 3.087144 1_554
As1 Ni15 2.315087 1_555
As1 Ni1 2.357969 1_555
As1 Ni1 2.357969 1_554
As1 Ni5 2.472122 1_555
As1 Ni8 2.472122 1_455
As1 Sm0 3.087144 1_454
As1 Sm0 3.087144 1_455
As1 Sm2 3.087144 1_555
As1 Sm2 3.087144 1_554
As2 Ni15 2.315087 1_665
As2 Ni2 2.357969 1_554
As2 Ni2 2.357969 1_555
As2 Ni3 2.472122 1_555
As2 Ni7 2.472122 1_555
As2 Sm0 3.087144 1_564
As2 Sm1 3.087144 1_655
As2 Sm1 3.087144 1_654
As2 Sm0 3.087144 1_565
As3 Ni3 2.423367 1_555
As3 Ni3 2.423367 1_556
As3 Ni2 2.423849 1_555
As3 Ni9 2.433801 1_555
As3 Ni11 2.462747 1_555
As3 Zr2 2.827413 1_555
As3 Zr2 2.827413 1_556
As3 Sm3 3.037830 1_555
As3 Sm3 3.037830 1_556
As4 Ni4 2.423367 1_556
As4 Ni4 2.423367 1_555
As4 Ni0 2.423849 1_565
As4 Ni10 2.433808 1_555
As4 Ni9 2.462751 1_555
As4 Zr0 2.827413 1_565
As4 Zr0 2.827413 1_566
As4 Sm3 3.037821 1_556
As4 Sm3 3.037821 1_555
As5 Ni5 2.423367 1_555
As5 Ni5 2.423367 1_556
As5 Ni1 2.423849 1_555
As5 Ni11 2.433814 1_555
As5 Ni10 2.462738 1_555
As5 Zr1 2.827413 1_555
As5 Zr1 2.827413 1_556
As5 Sm3 3.037827 1_555
As5 Sm3 3.037827 1_556
As6 Ni6 2.423367 1_555
As6 Ni6 2.423367 1_556
As6 Ni0 2.423849 1_555
As6 Ni12 2.433814 1_555
As6 Ni14 2.462738 1_555
As6 Zr0 2.827413 1_556
As6 Zr0 2.827413 1_555
As6 Sm4 3.037827 1_556
As6 Sm4 3.037827 1_555
As7 Ni7 2.423367 1_556
As7 Ni7 2.423367 1_555
As7 Ni2 2.423849 1_555
As7 Ni13 2.433801 1_555
As7 Ni12 2.462747 1_555
As7 Zr2 2.827413 1_555
As7 Zr2 2.827413 1_556
As7 Sm4 3.037830 1_556
As7 Sm4 3.037830 1_555
As8 Ni8 2.423367 1_555
As8 Ni8 2.423367 1_556
As8 Ni1 2.423849 1_655
As8 Ni14 2.433808 1_555
As8 Ni13 2.462751 1_555
As8 Zr1 2.827413 1_655
As8 Zr1 2.827413 1_656
As8 Sm4 3.037821 1_555
As8 Sm4 3.037821 1_556
As9 Ni8 2.381176 1_555
As9 Ni3 2.381176 1_545
As9 Ni9 2.548619 1_544
As9 Ni9 2.548619 1_545
As9 Ni14 2.548623 1_555
As9 Ni14 2.548623 1_554
As9 Zr0 2.667047 1_555
As9 Sm0 2.996617 1_554
As9 Sm0 2.996617 1_555
As10 Ni4 2.381176 1_555
As10 Ni7 2.381176 1_455
As10 Ni13 2.548619 1_454
As10 Ni13 2.548619 1_455
As10 Ni10 2.548623 1_555
As10 Ni10 2.548623 1_554
As10 Zr1 2.667047 1_555
As10 Sm1 2.996617 1_555
As10 Sm1 2.996617 1_554
As11 Ni6 2.381176 1_555
As11 Ni5 2.381176 1_555
As11 Ni11 2.548615 1_555
As11 Ni12 2.548615 1_554
As11 Ni12 2.548615 1_555
As11 Ni11 2.548615 1_554
As11 Zr2 2.667047 1_555
As11 Sm2 2.996617 1_555
As11 Sm2 2.996617 1_554
