# generated using pymatgen
data_B3Pb6BrO10
_symmetry_space_group_name_H-M   'P 1'
_cell_length_a   7.30205100
_cell_length_b   11.14773500
_cell_length_c   17.60164900
_cell_angle_alpha   90.00000000
_cell_angle_beta   90.00000000
_cell_angle_gamma   90.00000000
_symmetry_Int_Tables_number   1
_chemical_formula_structural   B3Pb6BrO10
_chemical_formula_sum   'B12 Pb24 Br4 O40'
_cell_volume   1432.79763007
_cell_formula_units_Z   4
loop_
 _symmetry_equiv_pos_site_id
 _symmetry_equiv_pos_as_xyz
  1  'x, y, z'
loop_
 _atom_site_type_symbol
 _atom_site_label
 _atom_site_symmetry_multiplicity
 _atom_site_fract_x
 _atom_site_fract_y
 _atom_site_fract_z
 _atom_site_occupancy
  B  B0  1  0.30304900  0.25000000  0.27064200  1
  B  B1  1  0.69695100  0.75000000  0.72935800  1
  B  B2  1  0.30304900  0.75000000  0.22935800  1
  B  B3  1  0.69695100  0.25000000  0.77064200  1
  B  B4  1  0.71800600  0.99907700  0.99804800  1
  B  B5  1  0.28199400  0.49907700  0.00195200  1
  B  B6  1  0.71800600  0.00092300  0.50195200  1
  B  B7  1  0.28199400  0.50092300  0.49804800  1
  B  B8  1  0.28199400  0.00092300  0.00195200  1
  B  B9  1  0.71800600  0.50092300  0.99804800  1
  B  B10  1  0.28199400  0.99907700  0.49804800  1
  B  B11  1  0.71800600  0.49907700  0.50195200  1
  Pb  Pb0  1  0.92076900  0.25000000  0.97505000  1
  Pb  Pb1  1  0.07923100  0.75000000  0.02495000  1
  Pb  Pb2  1  0.92076900  0.75000000  0.52495000  1
  Pb  Pb3  1  0.07923100  0.25000000  0.47505000  1
  Pb  Pb4  1  0.40927800  0.25000000  0.06301800  1
  Pb  Pb5  1  0.59072200  0.75000000  0.93698200  1
  Pb  Pb6  1  0.40927800  0.75000000  0.43698200  1
  Pb  Pb7  1  0.59072200  0.25000000  0.56301800  1
  Pb  Pb8  1  0.03398700  0.07882600  0.15853800  1
  Pb  Pb9  1  0.96601300  0.57882600  0.84146200  1
  Pb  Pb10  1  0.03398700  0.92117400  0.34146200  1
  Pb  Pb11  1  0.96601300  0.42117400  0.65853800  1
  Pb  Pb12  1  0.96601300  0.92117400  0.84146200  1
  Pb  Pb13  1  0.03398700  0.42117400  0.15853800  1
  Pb  Pb14  1  0.96601300  0.07882600  0.65853800  1
  Pb  Pb15  1  0.03398700  0.57882600  0.34146200  1
  Pb  Pb16  1  0.47602300  0.43665300  0.84529400  1
  Pb  Pb17  1  0.52397700  0.93665300  0.15470600  1
  Pb  Pb18  1  0.47602300  0.56334700  0.65470600  1
  Pb  Pb19  1  0.52397700  0.06334700  0.34529400  1
  Pb  Pb20  1  0.52397700  0.56334700  0.15470600  1
  Pb  Pb21  1  0.47602300  0.06334700  0.84529400  1
  Pb  Pb22  1  0.52397700  0.43665300  0.34529400  1
  Pb  Pb23  1  0.47602300  0.93665300  0.65470600  1
  Br  Br0  1  0.81770500  0.25000000  0.27215500  1
  Br  Br1  1  0.18229500  0.75000000  0.72784500  1
  Br  Br2  1  0.81770500  0.75000000  0.22784500  1
  Br  Br3  1  0.18229500  0.25000000  0.77215500  1
  O  O0  1  0.76886600  0.09794500  0.03980100  1
  O  O1  1  0.23113400  0.59794500  0.96019900  1
  O  O2  1  0.76886600  0.90205500  0.46019900  1
  O  O3  1  0.23113400  0.40205500  0.53980100  1
  O  O4  1  0.23113400  0.90205500  0.96019900  1
  O  O5  1  0.76886600  0.40205500  0.03980100  1
  O  O6  1  0.23113400  0.09794500  0.53980100  1
  O  O7  1  0.76886600  0.59794500  0.46019900  1
  O  O8  1  0.08899000  0.25000000  0.08914200  1
  O  O9  1  0.91101000  0.75000000  0.91085800  1
  O  O10  1  0.08899000  0.75000000  0.41085800  1
  O  O11  1  0.91101000  0.25000000  0.58914200  1
  O  O12  1  0.34361600  0.39452000  0.96680400  1
  O  O13  1  0.65638400  0.89452100  0.03319600  1
  O  O14  1  0.34361600  0.60547900  0.53319600  1
  O  O15  1  0.65638400  0.10548000  0.46680400  1
  O  O16  1  0.65638400  0.60547900  0.03319600  1
  O  O17  1  0.34361600  0.10548000  0.96680400  1
  O  O18  1  0.65638400  0.39452000  0.46680400  1
  O  O19  1  0.34361600  0.89452100  0.53319600  1
  O  O20  1  0.27415800  0.13931000  0.23847600  1
  O  O21  1  0.72584200  0.63931000  0.76152400  1
  O  O22  1  0.27415800  0.86069000  0.26152400  1
  O  O23  1  0.72584200  0.36069000  0.73847600  1
  O  O24  1  0.72584200  0.86069000  0.76152400  1
  O  O25  1  0.27415800  0.36069000  0.23847600  1
  O  O26  1  0.72584200  0.13931000  0.73847600  1
  O  O27  1  0.27415800  0.63931000  0.26152400  1
  O  O28  1  0.61228500  0.25000000  0.84416000  1
  O  O29  1  0.38771500  0.75000000  0.15584000  1
  O  O30  1  0.61228500  0.75000000  0.65584000  1
  O  O31  1  0.38771500  0.25000000  0.34416000  1
  O  O32  1  0.27255500  0.00115500  0.08162600  1
  O  O33  1  0.72744500  0.50115500  0.91837400  1
  O  O34  1  0.27255500  0.99884500  0.41837400  1
  O  O35  1  0.72744500  0.49884500  0.58162600  1
  O  O36  1  0.72744500  0.99884500  0.91837400  1
  O  O37  1  0.27255500  0.49884500  0.08162600  1
  O  O38  1  0.72744500  0.00115500  0.58162600  1
  O  O39  1  0.27255500  0.50115500  0.41837400  1
loop_
_geom_bond_atom_site_label_1
_geom_bond_atom_site_label_2
_geom_bond_distance
_geom_bond_site_symmetry_2
B0 O25 1.373927 1_555
B0 O20 1.373927 1_555
B0 O31 1.434137 1_555
B1 O21 1.373927 1_555
B1 O24 1.373927 1_555
B1 O30 1.434137 1_555
B2 O27 1.373927 1_555
B2 O22 1.373927 1_555
B2 O29 1.434137 1_555
B3 O26 1.373927 1_555
B3 O23 1.373927 1_555
B3 O28 1.434137 1_555
B4 O0 1.375783 1_566
B4 O13 1.394184 1_556
B4 O36 1.404089 1_555
B5 O1 1.375783 1_554
B5 O12 1.394194 1_554
B5 O37 1.404089 1_555
B6 O2 1.375783 1_545
B6 O15 1.394194 1_555
B6 O38 1.404089 1_555
B7 O3 1.375783 1_555
B7 O14 1.394184 1_555
B7 O39 1.404089 1_555
B8 O4 1.375783 1_544
B8 O17 1.394194 1_554
B8 O32 1.404089 1_555
B9 O5 1.375783 1_556
B9 O16 1.394184 1_556
B9 O33 1.404089 1_555
B10 O6 1.375783 1_565
B10 O19 1.394184 1_555
B10 O34 1.404089 1_555
B11 O7 1.375783 1_555
B11 O18 1.394194 1_555
B11 O35 1.404089 1_555
Br0 Pb13 3.183523 1_655
Br0 Pb8 3.183523 1_655
Br0 Pb22 3.253784 1_555
Br0 Pb19 3.253784 1_555
Br1 Pb9 3.183523 1_455
Br1 Pb12 3.183523 1_455
Br1 Pb23 3.253784 1_555
Br1 Pb18 3.253784 1_555
Br2 Pb15 3.183523 1_655
Br2 Pb10 3.183523 1_655
Br2 Pb20 3.253784 1_555
Br2 Pb17 3.253784 1_555
Br3 Pb11 3.183523 1_455
Br3 Pb14 3.183523 1_455
Br3 Pb21 3.253784 1_555
Br3 Pb16 3.253784 1_555
O0 Pb0 2.324341 1_554
O1 Pb1 2.324341 1_556
O2 Pb2 2.324341 1_555
O3 Pb3 2.324341 1_555
O4 Pb1 2.324341 1_556
O5 Pb0 2.324341 1_554
O6 Pb3 2.324341 1_555
O7 Pb2 2.324341 1_555
O8 Pb13 2.300993 1_555
O8 Pb8 2.300993 1_555
O8 Pb0 2.354094 1_454
O8 Pb4 2.383534 1_555
O9 Pb9 2.300993 1_555
O9 Pb12 2.300993 1_555
O9 Pb1 2.354094 1_656
O9 Pb5 2.383534 1_555
O10 Pb15 2.300993 1_555
O10 Pb10 2.300993 1_555
O10 Pb2 2.354094 1_455
O10 Pb6 2.383534 1_555
O11 Pb14 2.300993 1_555
O11 Pb11 2.300993 1_555
O11 Pb3 2.354094 1_655
O11 Pb7 2.383534 1_555
O12 Pb4 2.386098 1_556
O12 Pb16 2.393691 1_555
O13 Pb5 2.386106 1_554
O13 Pb17 2.393689 1_555
O14 Pb6 2.386106 1_555
O14 Pb18 2.393689 1_555
O15 Pb7 2.386098 1_555
O15 Pb19 2.393691 1_555
O16 Pb5 2.386106 1_554
O16 Pb20 2.393689 1_555
O17 Pb4 2.386098 1_556
O17 Pb21 2.393691 1_555
O18 Pb7 2.386098 1_555
O18 Pb22 2.393691 1_555
O19 Pb6 2.386106 1_555
O19 Pb23 2.393689 1_555
O20 Pb8 2.347338 1_555
O21 Pb9 2.347338 1_555
O22 Pb10 2.347338 1_555
O23 Pb11 2.347338 1_555
O24 Pb12 2.347338 1_555
O25 Pb13 2.347338 1_555
O26 Pb14 2.347338 1_555
O27 Pb15 2.347338 1_555
O28 Pb16 2.306504 1_555
O28 Pb21 2.306504 1_555
O29 Pb17 2.306504 1_555
O29 Pb20 2.306504 1_555
O30 Pb23 2.306504 1_555
O30 Pb18 2.306504 1_555
O31 Pb19 2.306504 1_555
O31 Pb22 2.306504 1_555
O32 Pb17 2.354186 1_545
O32 Pb8 2.370044 1_555
O33 Pb16 2.354186 1_555
O33 Pb9 2.370044 1_555
O34 Pb19 2.354186 1_565
O34 Pb10 2.370044 1_555
O35 Pb18 2.354186 1_555
O35 Pb11 2.370044 1_555
O36 Pb21 2.354186 1_565
O36 Pb12 2.370044 1_555
O37 Pb20 2.354186 1_555
O37 Pb13 2.370044 1_555
O38 Pb23 2.354186 1_545
O38 Pb14 2.370044 1_555
O39 Pb22 2.354186 1_555
O39 Pb15 2.370044 1_555
