# generated using pymatgen
data_Al23O17F35
_symmetry_space_group_name_H-M   'P 1'
_cell_length_a   2.91184300
_cell_length_b   4.64878888
_cell_length_c   59.84974030
_cell_angle_alpha   97.30012729
_cell_angle_beta   90.00000000
_cell_angle_gamma   90.00000000
_symmetry_Int_Tables_number   1
_chemical_formula_structural   Al23O17F35
_chemical_formula_sum   'Al23 O17 F35'
_cell_volume   803.59158825
_cell_formula_units_Z   1
loop_
 _symmetry_equiv_pos_site_id
 _symmetry_equiv_pos_as_xyz
  1  'x, y, z'
loop_
 _atom_site_type_symbol
 _atom_site_label
 _atom_site_symmetry_multiplicity
 _atom_site_fract_x
 _atom_site_fract_y
 _atom_site_fract_z
 _atom_site_occupancy
  Al  Al0  1  0.00000000  0.03995100  0.00177400  1
  Al  Al1  1  0.00000000  0.02054200  0.07727300  1
  Al  Al2  1  0.00000000  0.00568800  0.15305600  1
  Al  Al3  1  0.00000000  0.03180800  0.38679900  1
  Al  Al4  1  0.00000000  0.96068400  0.30545600  1
  Al  Al5  1  0.00000000  0.04057300  0.61835700  1
  Al  Al6  1  0.00000000  0.06682700  0.76668600  1
  Al  Al7  1  0.50000000  0.54521300  0.03797400  1
  Al  Al8  1  0.50000000  0.52969200  0.11365400  1
  Al  Al9  1  0.50000000  0.51486400  0.18949700  1
  Al  Al10  1  0.50000000  0.49626400  0.26545400  1
  Al  Al11  1  0.50000000  0.45120900  0.34192200  1
  Al  Al12  1  0.50000000  0.34232200  0.48014600  1
  Al  Al13  1  0.50000000  0.46877500  0.42796000  1
  Al  Al14  1  0.50000000  0.52121000  0.57257500  1
  Al  Al15  1  0.50000000  0.48456900  0.65871500  1
  Al  Al16  1  0.50000000  0.34671400  0.71036200  1
  Al  Al17  1  0.50000000  0.52374600  0.80316600  1
  Al  Al18  1  0.50000000  0.44293200  0.94457800  1
  Al  Al19  1  0.50000000  0.49780900  0.88911900  1
  Al  Al20  1  0.00000000  0.98899300  0.22902000  1
  Al  Al21  1  0.00000000  0.07346600  0.53574300  1
  Al  Al22  1  0.00000000  0.04400500  0.84918100  1
  O  O0  1  0.00000000  0.71728700  0.05605900  1
  O  O1  1  0.00000000  0.70263800  0.13177900  1
  O  O2  1  0.00000000  0.68722000  0.20766600  1
  O  O3  1  0.00000000  0.66548100  0.28369400  1
  O  O4  1  0.00000000  0.32673100  0.02576400  1
  O  O5  1  0.00000000  0.31233800  0.10130100  1
  O  O6  1  0.00000000  0.29756800  0.17713000  1
  O  O7  1  0.00000000  0.27916900  0.25311900  1
  O  O8  1  0.00000000  0.25962200  0.32985600  1
  O  O9  1  0.00000000  0.30714500  0.40924600  1
  O  O10  1  0.00000000  0.22852500  0.49046000  1
  O  O11  1  0.00000000  0.32145500  0.56262300  1
  O  O12  1  0.00000000  0.32377600  0.64008200  1
  O  O13  1  0.00000000  0.23287500  0.72062100  1
  O  O14  1  0.00000000  0.32424900  0.79323600  1
  O  O15  1  0.00000000  0.28327800  0.95120100  1
  O  O16  1  0.00000000  0.32607600  0.87103600  1
  F  F0  1  0.00000000  0.68929400  0.35929700  1
  F  F1  1  0.00000000  0.71285200  0.43513700  1
  F  F2  1  0.00000000  0.73582200  0.52329300  1
  F  F3  1  0.00000000  0.70570400  0.59360200  1
  F  F4  1  0.00000000  0.70861400  0.82424800  1
  F  F5  1  0.00000000  0.74491400  0.89592000  1
  F  F6  1  0.50000000  0.16164900  0.21748500  1
  F  F7  1  0.50000000  0.17738800  0.14145100  1
  F  F8  1  0.50000000  0.19196200  0.06564000  1
  F  F9  1  0.50000000  0.82408400  0.09409500  1
  F  F10  1  0.50000000  0.83427000  0.01834300  1
  F  F11  1  0.50000000  0.13925200  0.29428500  1
  F  F12  1  0.50000000  0.19255500  0.36926400  1
  F  F13  1  0.50000000  0.80950100  0.16991600  1
  F  F14  1  0.50000000  0.22156700  0.44743600  1
  F  F15  1  0.50000000  0.79180900  0.24593600  1
  F  F16  1  0.50000000  0.82496000  0.39496800  1
  F  F17  1  0.50000000  0.76729400  0.32244500  1
  F  F18  1  0.50000000  0.23553600  0.52770300  1
  F  F19  1  0.50000000  0.18636500  0.60151900  1
  F  F20  1  0.50000000  0.23104100  0.67773000  1
  F  F21  1  0.50000000  0.68260700  0.47225300  1
  F  F22  1  0.50000000  0.22403800  0.75816800  1
  F  F23  1  0.50000000  0.83833000  0.62752400  1
  F  F24  1  0.50000000  0.83559800  0.55953300  1
  F  F25  1  0.50000000  0.18996400  0.83236900  1
  F  F26  1  0.50000000  0.84108400  0.79039700  1
  F  F27  1  0.50000000  0.28979900  0.91079200  1
  F  F28  1  0.50000000  0.68920300  0.70281800  1
  F  F29  1  0.50000000  0.19167900  0.99001900  1
  F  F30  1  0.50000000  0.76993700  0.93548600  1
  F  F31  1  0.50000000  0.83922500  0.85806600  1
  F  F32  1  0.00000000  0.72681000  0.66610200  1
  F  F33  1  0.00000000  0.72774300  0.75447900  1
  F  F34  1  0.00000000  0.73426100  0.98201500  1
loop_
_geom_bond_atom_site_label_1
_geom_bond_atom_site_label_2
_geom_bond_distance
_geom_bond_site_symmetry_2
Al0 F34 1.729418 1_544
Al0 F29 1.799527 1_554
Al0 F29 1.799527 1_454
Al0 O4 1.830962 1_555
Al0 F10 2.063565 1_445
Al0 F10 2.063565 1_545
Al1 O0 1.773298 1_545
Al1 F8 1.838610 1_455
Al1 F8 1.838610 1_555
Al1 O5 1.847264 1_555
Al1 F9 2.049662 1_545
Al1 F9 2.049662 1_445
Al2 O1 1.774950 1_545
Al2 F7 1.838511 1_555
Al2 F7 1.838511 1_455
Al2 O6 1.849399 1_555
Al2 F13 2.050269 1_545
Al2 F13 2.050269 1_445
Al3 O9 1.733840 1_555
Al3 F16 1.844690 1_545
Al3 F16 1.844690 1_445
Al3 F12 1.994696 1_455
Al3 F12 1.994696 1_555
Al3 F0 2.139758 1_545
Al4 O3 1.767893 1_555
Al4 F11 1.843058 1_565
Al4 F11 1.843058 1_465
Al4 O8 1.883639 1_565
Al4 F17 2.047957 1_555
Al4 F17 2.047957 1_455
Al5 O12 1.728840 1_555
Al5 F23 1.853578 1_545
Al5 F23 1.853578 1_445
Al5 F19 1.941184 1_555
Al5 F19 1.941184 1_455
Al5 F3 2.008075 1_545
Al6 F33 1.651030 1_545
Al6 F22 1.734479 1_455
Al6 F22 1.734479 1_555
Al6 O14 1.863812 1_555
Al7 O4 1.869947 1_555
Al7 O4 1.869947 1_655
Al7 F10 1.894029 1_555
Al7 O0 1.926426 1_555
Al7 O0 1.926426 1_655
Al8 O5 1.870143 1_655
Al8 O5 1.870143 1_555
Al8 F9 1.910606 1_555
Al8 O1 1.929042 1_555
Al8 O1 1.929042 1_655
Al9 O6 1.870285 1_655
Al9 O6 1.870285 1_555
Al9 F13 1.912437 1_555
Al9 O2 1.929441 1_555
Al9 O2 1.929441 1_655
Al10 O7 1.869201 1_555
Al10 O7 1.869201 1_655
Al10 F15 1.913142 1_555
Al10 O3 1.926658 1_555
Al10 O3 1.926658 1_655
Al11 O8 1.808592 1_555
Al11 O8 1.808592 1_655
Al11 F17 1.988295 1_555
Al11 F0 2.033126 1_555
Al11 F0 2.033126 1_655
Al11 F12 2.150285 1_555
Al12 O10 1.692219 1_655
Al12 O10 1.692219 1_555
Al12 F21 1.707488 1_555
Al12 F14 1.966818 1_555
Al13 F14 1.737766 1_555
Al13 F1 1.862206 1_555
Al13 F1 1.862206 1_655
Al13 O9 1.929994 1_655
Al13 O9 1.929994 1_555
Al14 F24 1.742195 1_555
Al14 O11 1.787805 1_555
Al14 O11 1.787805 1_655
Al14 F3 2.040768 1_555
Al14 F3 2.040768 1_655
Al15 F20 1.739282 1_555
Al15 F32 1.859249 1_655
Al15 F32 1.859249 1_555
Al15 O12 1.926197 1_555
Al15 O12 1.926197 1_655
Al16 O13 1.690960 1_555
Al16 O13 1.690960 1_655
Al16 F28 1.709245 1_555
Al16 F20 1.958710 1_555
Al17 F26 1.745529 1_555
Al17 O14 1.786881 1_655
Al17 O14 1.786881 1_555
Al17 F4 2.043219 1_555
Al17 F4 2.043219 1_655
Al18 F30 1.678471 1_555
Al18 O15 1.703658 1_655
Al18 O15 1.703658 1_555
Al18 F27 2.056642 1_555
Al19 F27 1.713584 1_555
Al19 F5 1.867126 1_555
Al19 F5 1.867126 1_655
Al19 O16 1.925821 1_655
Al19 O16 1.925821 1_555
Al20 O2 1.773638 1_555
Al20 F6 1.838849 1_565
Al20 F6 1.838849 1_465
Al20 O7 1.845411 1_565
Al20 F15 2.054465 1_555
Al20 F15 2.054465 1_455
Al21 F2 1.649771 1_545
Al21 F18 1.735236 1_555
Al21 F18 1.735236 1_455
Al21 O11 1.856298 1_555
Al22 O16 1.730462 1_555
Al22 F31 1.854021 1_445
Al22 F31 1.854021 1_545
Al22 F25 1.940630 1_455
Al22 F25 1.940630 1_555
Al22 F4 2.016549 1_545
