# generated using pymatgen
data_Mg7Si4
_symmetry_space_group_name_H-M   'P 1'
_cell_length_a   5.34287300
_cell_length_b   6.15277202
_cell_length_c   13.92522460
_cell_angle_alpha   96.56144693
_cell_angle_beta   96.57698505
_cell_angle_gamma   97.98464063
_symmetry_Int_Tables_number   1
_chemical_formula_structural   Mg7Si4
_chemical_formula_sum   'Mg14 Si8'
_cell_volume   446.38905969
_cell_formula_units_Z   2
loop_
 _symmetry_equiv_pos_site_id
 _symmetry_equiv_pos_as_xyz
  1  'x, y, z'
loop_
 _atom_site_type_symbol
 _atom_site_label
 _atom_site_symmetry_multiplicity
 _atom_site_fract_x
 _atom_site_fract_y
 _atom_site_fract_z
 _atom_site_occupancy
  Mg  Mg0  1  0.27844700  0.82754900  0.86727900  1
  Mg  Mg1  1  0.86094600  0.26446500  0.75955000  1
  Mg  Mg2  1  0.58888900  0.04753100  0.55800200  1
  Mg  Mg3  1  0.36668300  0.51094100  0.66443100  1
  Mg  Mg4  1  0.39642000  0.34382600  0.88177200  1
  Mg  Mg5  1  0.19831300  0.53766800  0.25905900  1
  Mg  Mg6  1  0.40168500  0.03327000  0.32747000  1
  Mg  Mg7  1  0.51476700  0.54000900  0.44706000  1
  Mg  Mg8  1  0.97045700  0.53571800  0.00409700  1
  Mg  Mg9  1  0.82745200  0.03904300  0.95255300  1
  Mg  Mg10  1  0.52325600  0.74848300  0.10470100  1
  Mg  Mg11  1  0.36439600  0.21821600  0.08366600  1
  Mg  Mg12  1  0.06519100  0.79642900  0.49165400  1
  Mg  Mg13  1  0.97499000  0.25231100  0.42025100  1
  Si  Si0  1  0.87463200  0.22239300  0.13642900  1
  Si  Si1  1  0.75304700  0.66458500  0.83302100  1
  Si  Si2  1  0.29074700  0.05229800  0.70562500  1
  Si  Si3  1  0.80352800  0.79979200  0.30289800  1
  Si  Si4  1  0.03635500  0.87847400  0.15591700  1
  Si  Si5  1  0.88070100  0.82482400  0.69048800  1
  Si  Si6  1  0.85272800  0.46899300  0.59123000  1
  Si  Si7  1  0.67639900  0.40061000  0.26653900  1
loop_
_geom_bond_atom_site_label_1
_geom_bond_atom_site_label_2
_geom_bond_distance
_geom_bond_site_symmetry_2
Mg0 Si2 2.775588 1_565
Mg0 Si1 2.813355 1_455
Mg0 Si1 2.921815 1_555
Mg0 Si5 3.059296 1_455
Mg1 Si1 2.719107 1_555
Mg1 Si6 2.783027 1_555
Mg1 Si5 2.785884 1_545
Mg1 Si2 2.923203 1_655
Mg1 Si2 3.113875 1_555
Mg2 Si6 2.736153 1_555
Mg2 Si2 2.741070 1_555
Mg2 Si5 2.867832 1_545
Mg3 Si6 2.783511 1_455
Mg3 Si1 2.916667 1_555
Mg3 Si2 2.926110 1_555
Mg3 Si6 2.929489 1_555
Mg3 Si5 3.088983 1_555
Mg4 Si1 2.746668 1_555
Mg4 Si2 2.819343 1_555
Mg5 Si0 2.702629 1_455
Mg5 Si7 2.793609 1_555
Mg5 Si7 2.816229 1_455
Mg5 Si4 2.848920 1_555
Mg5 Si3 2.904805 1_455
Mg6 Si3 2.775448 1_545
Mg6 Si7 2.790070 1_555
Mg6 Si4 2.884330 1_545
Mg7 Si6 2.659157 1_555
Mg7 Si7 2.830353 1_555
Mg7 Si3 3.118145 1_555
Mg8 Si4 2.765001 1_655
Mg8 Si1 2.776119 1_554
Mg8 Si0 2.850989 1_555
Mg9 Si1 2.637114 1_545
Mg9 Si0 2.646774 1_556
Mg10 Si4 2.734292 1_655
Mg10 Si3 2.946539 1_555
Mg10 Si4 2.964552 1_555
Mg10 Si0 3.196357 1_565
Mg11 Si0 2.736722 1_555
Mg11 Si0 2.800474 1_455
Mg11 Si4 2.884526 1_545
Mg11 Si7 2.894457 1_555
Mg12 Si6 2.762920 1_455
Mg12 Si3 2.835923 1_455
Mg12 Si5 3.038245 1_455
Mg12 Si2 3.222897 1_565
Mg13 Si6 2.783109 1_555
Mg13 Si7 2.833337 1_555
Mg13 Si3 3.028265 1_545
Si0 Si4 2.425577 1_645
Si0 Si7 2.432076 1_555
Si1 Si5 2.438679 1_555
Si2 Si5 2.403735 1_445
Si3 Si7 2.433840 1_555
Si3 Si4 2.571645 1_655
Si5 Si6 2.428214 1_555
