# generated using pymatgen
data_Mg6TiCr
_symmetry_space_group_name_H-M   'P 1'
_cell_length_a   6.22403119
_cell_length_b   6.19594526
_cell_length_c   4.98259856
_cell_angle_alpha   90.00000000
_cell_angle_beta   90.00000000
_cell_angle_gamma   119.85084474
_symmetry_Int_Tables_number   1
_chemical_formula_structural   Mg6TiCr
_chemical_formula_sum   'Mg6 Ti1 Cr1'
_cell_volume   166.65434519
_cell_formula_units_Z   1
loop_
 _symmetry_equiv_pos_site_id
 _symmetry_equiv_pos_as_xyz
  1  'x, y, z'
loop_
 _atom_site_type_symbol
 _atom_site_label
 _atom_site_symmetry_multiplicity
 _atom_site_fract_x
 _atom_site_fract_y
 _atom_site_fract_z
 _atom_site_occupancy
  Mg  Mg0  1  0.66568014  0.33119259  0.25000000  1
  Mg  Mg1  1  0.66568014  0.83448655  0.25000000  1
  Mg  Mg2  1  0.32501906  0.16246335  0.75000000  1
  Mg  Mg3  1  0.32501906  0.66255671  0.75000000  1
  Mg  Mg4  1  0.84164742  0.17082421  0.75000000  1
  Mg  Mg5  1  0.84173671  0.67086886  0.75000000  1
  Ti  Ti0  1  0.16694865  0.33347382  0.25000000  1
  Cr  Cr0  1  0.16826881  0.83413391  0.25000000  1
loop_
_geom_bond_atom_site_label_1
_geom_bond_atom_site_label_2
_geom_bond_distance
_geom_bond_site_symmetry_2
Mg0 Mg1 3.077563 1_545
Mg0 Mg4 3.078432 1_554
Mg0 Mg4 3.078432 1_555
Mg0 Mg5 3.088839 1_555
Mg0 Mg5 3.088839 1_554
Mg0 Mg2 3.096530 1_555
Mg0 Mg2 3.096530 1_554
Mg0 Ti0 3.111180 1_555
Mg0 Ti0 3.112900 1_655
Mg0 Mg1 3.118382 1_555
Mg1 Mg4 3.078438 1_564
Mg1 Mg4 3.078438 1_565
Mg1 Mg5 3.088832 1_555
Mg1 Mg5 3.088832 1_554
Mg1 Mg3 3.096530 1_554
Mg1 Mg3 3.096530 1_555
Mg1 Ti0 3.111180 1_555
Mg1 Ti0 3.112899 1_665
Mg2 Mg5 3.033928 1_445
Mg2 Mg4 3.034638 1_455
Mg2 Ti0 3.055313 1_556
Mg2 Ti0 3.055313 1_555
Mg2 Mg3 3.097394 1_545
Mg2 Mg3 3.098551 1_555
Mg2 Mg4 3.190043 1_555
Mg2 Mg5 3.190745 1_555
Mg3 Mg5 3.033928 1_455
Mg3 Mg4 3.034637 1_455
Mg3 Ti0 3.055319 1_556
Mg3 Ti0 3.055319 1_555
Mg3 Mg4 3.190042 1_565
Mg3 Mg5 3.190745 1_555
Mg4 Ti0 3.048001 1_656
Mg4 Ti0 3.048001 1_655
Mg4 Mg5 3.097973 1_545
Mg4 Mg5 3.097973 1_555
Cr0 Mg5 3.051834 1_455
Cr0 Mg5 3.051834 1_454
Cr0 Mg3 3.053037 1_554
Cr0 Mg3 3.053037 1_555
Cr0 Mg2 3.053043 1_565
Cr0 Mg2 3.053043 1_564
Cr0 Mg0 3.094816 1_565
Cr0 Mg1 3.094817 1_555
Cr0 Ti0 3.097981 1_565
Cr0 Ti0 3.097981 1_555
Cr0 Mg0 3.129215 1_455
Cr0 Mg1 3.129216 1_455
