# generated using pymatgen
data_CuH12CN6Cl4O
_symmetry_space_group_name_H-M   'P 1'
_cell_length_a   10.39463300
_cell_length_b   11.64020500
_cell_length_c   18.79571500
_cell_angle_alpha   90.00000000
_cell_angle_beta   90.00000000
_cell_angle_gamma   90.00000000
_symmetry_Int_Tables_number   1
_chemical_formula_structural   CuH12CN6Cl4O
_chemical_formula_sum   'Cu8 H96 C8 N48 Cl32 O8'
_cell_volume   2274.19992317
_cell_formula_units_Z   8
loop_
 _symmetry_equiv_pos_site_id
 _symmetry_equiv_pos_as_xyz
  1  'x, y, z'
loop_
 _atom_site_type_symbol
 _atom_site_label
 _atom_site_symmetry_multiplicity
 _atom_site_fract_x
 _atom_site_fract_y
 _atom_site_fract_z
 _atom_site_occupancy
  Cu  Cu0  1  0.01475500  0.24136500  0.48566400  1
  Cu  Cu1  1  0.51475500  0.25863500  0.51433600  1
  Cu  Cu2  1  0.98524500  0.74136500  0.01433600  1
  Cu  Cu3  1  0.48524500  0.75863500  0.98566400  1
  Cu  Cu4  1  0.98524500  0.75863500  0.51433600  1
  Cu  Cu5  1  0.48524500  0.74136500  0.48566400  1
  Cu  Cu6  1  0.01475500  0.25863500  0.98566400  1
  Cu  Cu7  1  0.51475500  0.24136500  0.01433600  1
  H  H0  1  0.25465100  0.37293200  0.88193200  1
  H  H1  1  0.75465100  0.12706800  0.11806800  1
  H  H2  1  0.74534900  0.87293200  0.61806800  1
  H  H3  1  0.24534900  0.62706800  0.38193200  1
  H  H4  1  0.74534900  0.62706800  0.11806800  1
  H  H5  1  0.24534900  0.87293200  0.88193200  1
  H  H6  1  0.25465100  0.12706800  0.38193200  1
  H  H7  1  0.75465100  0.37293200  0.61806800  1
  H  H8  1  0.25026500  0.44201800  0.80821000  1
  H  H9  1  0.75026500  0.05798200  0.19179000  1
  H  H10  1  0.74973500  0.94201800  0.69179000  1
  H  H11  1  0.24973500  0.55798200  0.30821000  1
  H  H12  1  0.74973500  0.55798200  0.19179000  1
  H  H13  1  0.24973500  0.94201800  0.80821000  1
  H  H14  1  0.25026500  0.05798200  0.30821000  1
  H  H15  1  0.75026500  0.44201800  0.69179000  1
  H  H16  1  0.93313500  0.14220800  0.67487300  1
  H  H17  1  0.43313500  0.35779200  0.32512700  1
  H  H18  1  0.06686500  0.64220800  0.82512700  1
  H  H19  1  0.56686500  0.85779200  0.17487300  1
  H  H20  1  0.06686500  0.85779200  0.32512700  1
  H  H21  1  0.56686500  0.64220800  0.67487300  1
  H  H22  1  0.93313500  0.35779200  0.17487300  1
  H  H23  1  0.43313500  0.14220800  0.82512700  1
  H  H24  1  0.96522500  0.05161800  0.55871100  1
  H  H25  1  0.46522500  0.44838200  0.44128900  1
  H  H26  1  0.03477500  0.55161800  0.94128900  1
  H  H27  1  0.53477500  0.94838200  0.05871100  1
  H  H28  1  0.03477500  0.94838200  0.44128900  1
  H  H29  1  0.53477500  0.55161800  0.55871100  1
  H  H30  1  0.96522500  0.44838200  0.05871100  1
  H  H31  1  0.46522500  0.05161800  0.94128900  1
  H  H32  1  0.84279500  0.14704700  0.56164600  1
  H  H33  1  0.34279500  0.35295300  0.43835400  1
  H  H34  1  0.15720500  0.64704700  0.93835400  1
  H  H35  1  0.65720500  0.85295300  0.06164600  1
  H  H36  1  0.15720500  0.85295300  0.43835400  1
  H  H37  1  0.65720500  0.64704700  0.56164600  1
  H  H38  1  0.84279500  0.35295300  0.06164600  1
  H  H39  1  0.34279500  0.14704700  0.93835400  1
  H  H40  1  0.15331700  0.45469000  0.52104100  1
  H  H41  1  0.65331700  0.04531000  0.47895900  1
  H  H42  1  0.84668300  0.95469000  0.97895900  1
  H  H43  1  0.34668300  0.54531000  0.02104100  1
  H  H44  1  0.84668300  0.54531000  0.47895900  1
  H  H45  1  0.34668300  0.95469000  0.52104100  1
  H  H46  1  0.15331700  0.04531000  0.02104100  1
  H  H47  1  0.65331700  0.45469000  0.97895900  1
  H  H48  1  0.09559000  0.50113200  0.59785700  1
  H  H49  1  0.59559000  0.99886800  0.40214300  1
  H  H50  1  0.90441000  0.00113200  0.90214300  1
  H  H51  1  0.40441000  0.49886800  0.09785700  1
  H  H52  1  0.90441000  0.49886800  0.40214300  1
  H  H53  1  0.40441000  0.00113200  0.59785700  1
  H  H54  1  0.09559000  0.99886800  0.09785700  1
  H  H55  1  0.59559000  0.50113200  0.90214300  1
  H  H56  1  0.23190500  0.41344500  0.59461800  1
  H  H57  1  0.73190500  0.08655500  0.40538200  1
  H  H58  1  0.76809500  0.91344500  0.90538200  1
  H  H59  1  0.26809500  0.58655500  0.09461800  1
  H  H60  1  0.76809500  0.58655500  0.40538200  1
  H  H61  1  0.26809500  0.91344500  0.59461800  1
  H  H62  1  0.23190500  0.08655500  0.09461800  1
  H  H63  1  0.73190500  0.41344500  0.90538200  1
  H  H64  1  0.11256000  0.39925700  0.70730800  1
  H  H65  1  0.61256000  0.10074300  0.29269200  1
  H  H66  1  0.88744000  0.89925700  0.79269200  1
  H  H67  1  0.38744000  0.60074300  0.20730800  1
  H  H68  1  0.88744000  0.60074300  0.29269200  1
  H  H69  1  0.38744000  0.89925700  0.70730800  1
  H  H70  1  0.11256000  0.10074300  0.20730800  1
  H  H71  1  0.61256000  0.39925700  0.79269200  1
  H  H72  1  0.15433900  0.29145200  0.79728400  1
  H  H73  1  0.65433900  0.20854800  0.20271600  1
  H  H74  1  0.84566100  0.79145200  0.70271600  1
  H  H75  1  0.34566100  0.70854800  0.29728400  1
  H  H76  1  0.84566100  0.70854800  0.20271600  1
  H  H77  1  0.34566100  0.79145200  0.79728400  1
  H  H78  1  0.15433900  0.20854800  0.29728400  1
  H  H79  1  0.65433900  0.29145200  0.70271600  1
  H  H80  1  0.00900500  0.21650900  0.77802600  1
  H  H81  1  0.50900500  0.28349100  0.22197400  1
  H  H82  1  0.99099500  0.71650900  0.72197400  1
  H  H83  1  0.49099500  0.78349100  0.27802600  1
  H  H84  1  0.99099500  0.78349100  0.22197400  1
  H  H85  1  0.49099500  0.71650900  0.77802600  1
  H  H86  1  0.00900500  0.28349100  0.27802600  1
  H  H87  1  0.50900500  0.21650900  0.72197400  1
  H  H88  1  0.15539300  0.17036900  0.74612200  1
  H  H89  1  0.65539300  0.32963100  0.25387800  1
  H  H90  1  0.84460700  0.67036900  0.75387800  1
  H  H91  1  0.34460700  0.82963100  0.24612200  1
  H  H92  1  0.84460700  0.82963100  0.25387800  1
  H  H93  1  0.34460700  0.67036900  0.74612200  1
  H  H94  1  0.15539300  0.32963100  0.24612200  1
  H  H95  1  0.65539300  0.17036900  0.75387800  1
  C  C0  1  0.04366200  0.27635500  0.63428700  1
  C  C1  1  0.54366200  0.22364500  0.36571300  1
  C  C2  1  0.95633800  0.77635500  0.86571300  1
  C  C3  1  0.45633800  0.72364500  0.13428700  1
  C  C4  1  0.95633800  0.72364500  0.36571300  1
  C  C5  1  0.45633800  0.77635500  0.63428700  1
  C  C6  1  0.04366200  0.22364500  0.13428700  1
  C  C7  1  0.54366200  0.27635500  0.86571300  1
  N  N0  1  0.98498500  0.17287500  0.63178800  1
  N  N1  1  0.48498500  0.32712500  0.36821200  1
  N  N2  1  0.01501500  0.67287500  0.86821200  1
  N  N3  1  0.51501500  0.82712500  0.13178800  1
  N  N4  1  0.01501500  0.82712500  0.36821200  1
  N  N5  1  0.51501500  0.67287500  0.63178800  1
  N  N6  1  0.98498500  0.32712500  0.13178800  1
  N  N7  1  0.48498500  0.17287500  0.86821200  1
  N  N8  1  0.94120800  0.13714400  0.56414700  1
  N  N9  1  0.44120800  0.36285600  0.43585300  1
  N  N10  1  0.05879200  0.63714400  0.93585300  1
  N  N11  1  0.55879200  0.86285600  0.06414700  1
  N  N12  1  0.05879200  0.86285600  0.43585300  1
  N  N13  1  0.55879200  0.63714400  0.56414700  1
  N  N14  1  0.94120800  0.36285600  0.06414700  1
  N  N15  1  0.44120800  0.13714400  0.93585300  1
  N  N16  1  0.05752100  0.33232900  0.57353900  1
  N  N17  1  0.55752100  0.16767100  0.42646100  1
  N  N18  1  0.94247900  0.83232900  0.92646100  1
  N  N19  1  0.44247900  0.66767100  0.07353900  1
  N  N20  1  0.94247900  0.66767100  0.42646100  1
  N  N21  1  0.44247900  0.83232900  0.57353900  1
  N  N22  1  0.05752100  0.16767100  0.07353900  1
  N  N23  1  0.55752100  0.33232900  0.92646100  1
  N  N24  1  0.13913400  0.43008400  0.57401100  1
  N  N25  1  0.63913400  0.06991600  0.42598900  1
  N  N26  1  0.86086600  0.93008400  0.92598900  1
  N  N27  1  0.36086600  0.56991600  0.07401100  1
  N  N28  1  0.86086600  0.56991600  0.42598900  1
  N  N29  1  0.36086600  0.93008400  0.57401100  1
  N  N30  1  0.13913400  0.06991600  0.07401100  1
  N  N31  1  0.63913400  0.43008400  0.92598900  1
  N  N32  1  0.08801300  0.31465100  0.69780100  1
  N  N33  1  0.58801300  0.18534900  0.30219900  1
  N  N34  1  0.91198700  0.81465100  0.80219900  1
  N  N35  1  0.41198700  0.68534900  0.19780100  1
  N  N36  1  0.91198700  0.68534900  0.30219900  1
  N  N37  1  0.41198700  0.81465100  0.69780100  1
  N  N38  1  0.08801300  0.18534900  0.19780100  1
  N  N39  1  0.58801300  0.31465100  0.80219900  1
  N  N40  1  0.09727800  0.24195800  0.75776700  1
  N  N41  1  0.59727800  0.25804200  0.24223300  1
  N  N42  1  0.90272200  0.74195800  0.74223300  1
  N  N43  1  0.40272200  0.75804200  0.25776700  1
  N  N44  1  0.90272200  0.75804200  0.24223300  1
  N  N45  1  0.40272200  0.74195800  0.75776700  1
  N  N46  1  0.09727800  0.25804200  0.25776700  1
  N  N47  1  0.59727800  0.24195800  0.74223300  1
  Cl  Cl0  1  0.24681000  0.13417000  0.49015500  1
  Cl  Cl1  1  0.74681000  0.36583000  0.50984500  1
  Cl  Cl2  1  0.75319000  0.63417000  0.00984500  1
  Cl  Cl3  1  0.25319000  0.86583000  0.99015500  1
  Cl  Cl4  1  0.75319000  0.86583000  0.50984500  1
  Cl  Cl5  1  0.25319000  0.63417000  0.49015500  1
  Cl  Cl6  1  0.24681000  0.36583000  0.99015500  1
  Cl  Cl7  1  0.74681000  0.13417000  0.00984500  1
  Cl  Cl8  1  0.09007100  0.38118600  0.41076800  1
  Cl  Cl9  1  0.59007100  0.11881400  0.58923200  1
  Cl  Cl10  1  0.90992900  0.88118600  0.08923200  1
  Cl  Cl11  1  0.40992900  0.61881400  0.91076800  1
  Cl  Cl12  1  0.90992900  0.61881400  0.58923200  1
  Cl  Cl13  1  0.40992900  0.88118600  0.41076800  1
  Cl  Cl14  1  0.09007100  0.11881400  0.91076800  1
  Cl  Cl15  1  0.59007100  0.38118600  0.08923200  1
  Cl  Cl16  1  0.93276000  0.12508800  0.39803800  1
  Cl  Cl17  1  0.43276000  0.37491200  0.60196200  1
  Cl  Cl18  1  0.06724000  0.62508800  0.10196200  1
  Cl  Cl19  1  0.56724000  0.87491200  0.89803800  1
  Cl  Cl20  1  0.06724000  0.87491200  0.60196200  1
  Cl  Cl21  1  0.56724000  0.62508800  0.39803800  1
  Cl  Cl22  1  0.93276000  0.37491200  0.89803800  1
  Cl  Cl23  1  0.43276000  0.12508800  0.10196200  1
  Cl  Cl24  1  0.32934200  0.07430200  0.73414100  1
  Cl  Cl25  1  0.82934200  0.42569800  0.26585900  1
  Cl  Cl26  1  0.67065800  0.57430200  0.76585900  1
  Cl  Cl27  1  0.17065800  0.92569800  0.23414100  1
  Cl  Cl28  1  0.67065800  0.92569800  0.26585900  1
  Cl  Cl29  1  0.17065800  0.57430200  0.73414100  1
  Cl  Cl30  1  0.32934200  0.42569800  0.23414100  1
  Cl  Cl31  1  0.82934200  0.07430200  0.76585900  1
  O  O0  1  0.26018100  0.36455900  0.82876100  1
  O  O1  1  0.76018100  0.13544100  0.17123900  1
  O  O2  1  0.73981900  0.86455900  0.67123900  1
  O  O3  1  0.23981900  0.63544100  0.32876100  1
  O  O4  1  0.73981900  0.63544100  0.17123900  1
  O  O5  1  0.23981900  0.86455900  0.82876100  1
  O  O6  1  0.26018100  0.13544100  0.32876100  1
  O  O7  1  0.76018100  0.36455900  0.67123900  1
loop_
_geom_bond_atom_site_label_1
_geom_bond_atom_site_label_2
_geom_bond_distance
_geom_bond_site_symmetry_2
Cu0 N16 2.011661 1_555
Cu0 N8 2.057242 1_455
Cu1 N17 2.011661 1_555
Cu1 N9 2.057242 1_555
Cu2 N18 2.011661 1_554
Cu2 N10 2.057242 1_654
Cu3 N19 2.011661 1_556
Cu3 N11 2.057242 1_556
Cu4 N20 2.011661 1_555
Cu4 N12 2.057242 1_655
Cu5 N21 2.011661 1_555
Cu5 N13 2.057242 1_555
Cu6 N22 2.011661 1_556
Cu6 N14 2.057242 1_456
Cu7 N23 2.011661 1_554
Cu7 N15 2.057242 1_554
H0 O0 1.005772 1_555
H1 O1 1.005772 1_555
H2 O2 1.005772 1_555
H3 O3 1.005772 1_555
H4 O4 1.005772 1_555
H5 O5 1.005772 1_555
H6 O6 1.005772 1_555
H7 O7 1.005772 1_555
H8 O0 0.986297 1_555
H9 O1 0.986297 1_555
H10 O2 0.986297 1_555
H11 O3 0.986297 1_555
H12 O4 0.986297 1_555
H13 O5 0.986297 1_555
H14 O6 0.986297 1_555
H15 O7 0.986297 1_555
H16 N0 1.036197 1_555
H17 N1 1.036197 1_555
H18 N2 1.036197 1_555
H19 N3 1.036197 1_555
H20 N4 1.036197 1_555
H21 N5 1.036197 1_555
H22 N6 1.036197 1_555
H23 N7 1.036197 1_555
H24 N8 1.031438 1_555
H25 N9 1.031438 1_555
H26 N10 1.031438 1_555
H27 N11 1.031438 1_555
H28 N12 1.031438 1_555
H29 N13 1.031438 1_555
H30 N14 1.031438 1_555
H31 N15 1.031438 1_555
H32 N8 1.030514 1_555
H33 N9 1.030514 1_555
H34 N10 1.030514 1_555
H35 N11 1.030514 1_555
H36 N12 1.030514 1_555
H37 N13 1.030514 1_555
H38 N14 1.030514 1_555
H39 N15 1.030514 1_555
H40 N24 1.046426 1_555
H41 N25 1.046426 1_555
H42 N26 1.046426 1_555
H43 N27 1.046426 1_555
H44 N28 1.046426 1_555
H45 N29 1.046426 1_555
H46 N30 1.046426 1_555
H47 N31 1.046426 1_555
H48 N24 1.043889 1_555
H49 N25 1.043889 1_565
H50 N26 1.043889 1_545
H51 N27 1.043889 1_555
H52 N28 1.043889 1_555
H53 N29 1.043889 1_545
H54 N30 1.043889 1_565
H55 N31 1.043889 1_555
H56 N24 1.057093 1_555
H57 N25 1.057093 1_555
H58 N26 1.057093 1_555
H59 N27 1.057093 1_555
H60 N28 1.057093 1_555
H61 N29 1.057093 1_555
H62 N30 1.057093 1_555
H63 N31 1.057093 1_555
H64 N32 1.032922 1_555
H65 N33 1.032922 1_555
H66 N34 1.032922 1_555
H67 N35 1.032922 1_555
H68 N36 1.032922 1_555
H69 N37 1.032922 1_555
H70 N38 1.032922 1_555
H71 N39 1.032922 1_555
H72 N40 1.111483 1_555
H72 O0 1.511493 1_555
H73 N41 1.111483 1_555
H73 O1 1.511493 1_555
H74 N42 1.111483 1_555
H74 O2 1.511493 1_555
H75 N43 1.111483 1_555
H75 O3 1.511493 1_555
H76 N44 1.111483 1_555
H76 O4 1.511493 1_555
H77 N45 1.111483 1_555
H77 O5 1.511493 1_555
H78 N46 1.111483 1_555
H78 O6 1.511493 1_555
H79 N47 1.111483 1_555
H79 O7 1.511493 1_555
H80 N40 1.036665 1_555
H81 N41 1.036665 1_555
H82 N42 1.036665 1_555
H83 N43 1.036665 1_555
H84 N44 1.036665 1_555
H85 N45 1.036665 1_555
H86 N46 1.036665 1_555
H87 N47 1.036665 1_555
H88 N40 1.052250 1_555
H89 N41 1.052250 1_555
H90 N42 1.052250 1_555
H91 N43 1.052250 1_555
H92 N44 1.052250 1_555
H93 N45 1.052250 1_555
H94 N46 1.052250 1_555
H95 N47 1.052250 1_555
C0 N16 1.322490 1_555
C0 N0 1.350964 1_455
C0 N32 1.355132 1_555
C1 N17 1.322490 1_555
C1 N1 1.350964 1_555
C1 N33 1.355132 1_555
C2 N18 1.322490 1_555
C2 N2 1.350964 1_655
C2 N34 1.355132 1_555
C3 N19 1.322490 1_555
C3 N3 1.350964 1_555
C3 N35 1.355132 1_555
C4 N20 1.322490 1_555
C4 N4 1.350964 1_655
C4 N36 1.355132 1_555
C5 N21 1.322490 1_555
C5 N5 1.350964 1_555
C5 N37 1.355132 1_555
C6 N22 1.322490 1_555
C6 N6 1.350964 1_455
C6 N38 1.355132 1_555
C7 N23 1.322490 1_555
C7 N7 1.350964 1_555
C7 N39 1.355132 1_555
N0 N8 1.412944 1_555
N1 N9 1.412944 1_555
N10 N2 1.412944 1_555
N11 N3 1.412944 1_555
N12 N4 1.412944 1_555
N13 N5 1.412944 1_555
N14 N6 1.412944 1_555
N15 N7 1.412944 1_555
N16 N24 1.419346 1_555
N17 N25 1.419346 1_555
N18 N26 1.419346 1_555
N19 N27 1.419346 1_555
N20 N28 1.419346 1_555
N21 N29 1.419346 1_555
N22 N30 1.419346 1_555
N23 N31 1.419346 1_555
N32 N40 1.412667 1_555
N33 N41 1.412667 1_555
N34 N42 1.412667 1_555
N35 N43 1.412667 1_555
N36 N44 1.412667 1_555
N37 N45 1.412667 1_555
N38 N46 1.412667 1_555
N39 N47 1.412667 1_555
Cl0 H6 2.037439 1_555
Cl0 Cu0 2.717060 1_555
Cl1 H7 2.037439 1_555
Cl1 Cu1 2.717060 1_555
Cl2 H4 2.037439 1_555
Cl2 Cu2 2.717060 1_555
Cl3 H5 2.037439 1_555
Cl3 Cu3 2.717060 1_555
Cl4 H2 2.037439 1_555
Cl4 Cu4 2.717060 1_555
Cl5 H3 2.037439 1_555
Cl5 Cu5 2.717060 1_555
Cl6 H0 2.037439 1_555
Cl6 Cu6 2.717060 1_555
Cl7 H1 2.037439 1_555
Cl7 Cu7 2.717060 1_555
Cl8 Cu0 2.289868 1_555
Cl9 Cu1 2.289868 1_555
Cl10 Cu2 2.289868 1_555
Cl11 Cu3 2.289868 1_555
Cl12 Cu4 2.289868 1_555
Cl13 Cu5 2.289868 1_555
Cl14 Cu6 2.289868 1_555
Cl15 Cu7 2.289868 1_555
Cl16 Cu0 2.295854 1_655
Cl17 Cu1 2.295854 1_555
Cl18 Cu2 2.295854 1_455
Cl19 Cu3 2.295854 1_555
Cl20 Cu4 2.295854 1_455
Cl21 Cu5 2.295854 1_555
Cl22 Cu6 2.295854 1_655
Cl23 Cu7 2.295854 1_555
