# generated using pymatgen
data_Er2MgS4
_symmetry_space_group_name_H-M   'P 1'
_cell_length_a   7.92863000
_cell_length_b   7.24315200
_cell_length_c   11.33280200
_cell_angle_alpha   90.00000000
_cell_angle_beta   90.00000000
_cell_angle_gamma   90.00072520
_symmetry_Int_Tables_number   1
_chemical_formula_structural   Er2MgS4
_chemical_formula_sum   'Er8 Mg4 S16'
_cell_volume   650.82323849
_cell_formula_units_Z   4
loop_
 _symmetry_equiv_pos_site_id
 _symmetry_equiv_pos_as_xyz
  1  'x, y, z'
loop_
 _atom_site_type_symbol
 _atom_site_label
 _atom_site_symmetry_multiplicity
 _atom_site_fract_x
 _atom_site_fract_y
 _atom_site_fract_z
 _atom_site_occupancy
  Er  Er0  1  0.03463500  0.75000500  0.31076000  1
  Er  Er1  1  0.96536500  0.24999500  0.68924000  1
  Er  Er2  1  0.46536500  0.24999500  0.81076000  1
  Er  Er3  1  0.53463500  0.75000500  0.18924000  1
  Er  Er4  1  0.07470600  0.24998600  0.02056200  1
  Er  Er5  1  0.92529400  0.75001400  0.97943800  1
  Er  Er6  1  0.42529400  0.75001400  0.52056200  1
  Er  Er7  1  0.57470600  0.24998600  0.47943800  1
  Mg  Mg0  1  0.18453100  0.25000000  0.40865200  1
  Mg  Mg1  1  0.81546900  0.75000000  0.59134800  1
  Mg  Mg2  1  0.31546900  0.75000000  0.90865200  1
  Mg  Mg3  1  0.68453100  0.25000000  0.09134800  1
  S  S0  1  0.12954300  0.49976800  0.84324500  1
  S  S1  1  0.87045700  0.50023200  0.15675500  1
  S  S2  1  0.37045700  0.50023200  0.34324500  1
  S  S3  1  0.62954300  0.49976800  0.65675500  1
  S  S4  1  0.62954800  0.00022200  0.65675500  1
  S  S5  1  0.37045200  0.99977800  0.34324500  1
  S  S6  1  0.87045200  0.99977800  0.15675500  1
  S  S7  1  0.12954800  0.00022200  0.84324500  1
  S  S8  1  0.89755100  0.25000000  0.45453600  1
  S  S9  1  0.10244900  0.75000000  0.54546400  1
  S  S10  1  0.60244900  0.75000000  0.95453600  1
  S  S11  1  0.39755100  0.25000000  0.04546400  1
  S  S12  1  0.21598000  0.74999400  0.11185600  1
  S  S13  1  0.78402000  0.25000600  0.88814400  1
  S  S14  1  0.28402000  0.25000600  0.61185600  1
  S  S15  1  0.71598000  0.74999400  0.38814400  1
loop_
_geom_bond_atom_site_label_1
_geom_bond_atom_site_label_2
_geom_bond_distance
_geom_bond_site_symmetry_2
Er0 S12 2.673661 1_555
Er0 S15 2.674375 1_455
Er0 S9 2.713653 1_555
Er0 S1 2.830809 1_455
Er0 S6 2.830849 1_455
Er0 S5 3.240013 1_555
Er0 S2 3.240083 1_555
Er1 S13 2.673661 1_555
Er1 S14 2.674375 1_655
Er1 S8 2.713653 1_555
Er1 S0 2.830809 1_655
Er1 S7 2.830849 1_655
Er1 S4 3.240013 1_555
Er1 S3 3.240083 1_555
Er2 S14 2.673661 1_555
Er2 S13 2.674375 1_555
Er2 S11 2.713653 1_556
Er2 S3 2.830809 1_555
Er2 S4 2.830849 1_555
Er2 S7 3.240013 1_555
Er2 S0 3.240083 1_555
Er3 S15 2.673661 1_555
Er3 S12 2.674375 1_555
Er3 S10 2.713653 1_554
Er3 S2 2.830809 1_555
Er3 S5 2.830849 1_555
Er3 S6 3.240013 1_555
Er3 S1 3.240083 1_555
Er4 S11 2.575228 1_555
Er4 S7 2.738602 1_554
Er4 S0 2.738674 1_554
Er4 S13 2.750243 1_454
Er4 S6 2.879098 1_445
Er4 S1 2.879274 1_455
Er5 S10 2.575228 1_555
Er5 S6 2.738602 1_556
Er5 S1 2.738674 1_556
Er5 S12 2.750243 1_656
Er5 S7 2.879098 1_665
Er5 S0 2.879274 1_655
Er6 S9 2.575228 1_555
Er6 S5 2.738602 1_555
Er6 S2 2.738674 1_555
Er6 S15 2.750243 1_555
Er6 S4 2.879098 1_565
Er6 S3 2.879274 1_555
Er7 S8 2.575228 1_555
Er7 S4 2.738602 1_555
Er7 S3 2.738674 1_555
Er7 S14 2.750243 1_555
Er7 S5 2.879098 1_545
Er7 S2 2.879274 1_555
Mg0 S8 2.334020 1_455
Mg0 S14 2.434222 1_555
Mg0 S5 2.450971 1_545
Mg0 S2 2.451021 1_555
Mg1 S9 2.334020 1_655
Mg1 S15 2.434222 1_555
Mg1 S4 2.450971 1_565
Mg1 S3 2.451021 1_555
Mg2 S10 2.334020 1_555
Mg2 S12 2.434222 1_556
Mg2 S7 2.450971 1_565
Mg2 S0 2.451021 1_555
Mg3 S11 2.334020 1_555
Mg3 S13 2.434222 1_554
Mg3 S6 2.450971 1_545
Mg3 S1 2.451021 1_555
