# generated using pymatgen
data_SrCaB14H5O26
_symmetry_space_group_name_H-M   'P 1'
_cell_length_a   12.90261190
_cell_length_b   12.91886308
_cell_length_c   14.47728221
_cell_angle_alpha   90.00000000
_cell_angle_beta   90.00000000
_cell_angle_gamma   101.11953779
_symmetry_Int_Tables_number   1
_chemical_formula_structural   SrCaB14H5O26
_chemical_formula_sum   'Sr4 Ca4 B56 H20 O104'
_cell_volume   2367.87319471
_cell_formula_units_Z   4
loop_
 _symmetry_equiv_pos_site_id
 _symmetry_equiv_pos_as_xyz
  1  'x, y, z'
loop_
 _atom_site_type_symbol
 _atom_site_label
 _atom_site_symmetry_multiplicity
 _atom_site_fract_x
 _atom_site_fract_y
 _atom_site_fract_z
 _atom_site_occupancy
  Sr  Sr0  1  0.76787502  0.88609366  0.33384386  1
  Sr  Sr1  1  0.23212498  0.11390634  0.66615614  1
  Sr  Sr2  1  0.23212498  0.61390634  0.83384386  1
  Sr  Sr3  1  0.76787502  0.38609366  0.16615614  1
  Ca  Ca0  1  0.73971374  0.62658791  0.74100885  1
  Ca  Ca1  1  0.26028626  0.37341209  0.25899115  1
  Ca  Ca2  1  0.26028626  0.87341209  0.24100885  1
  Ca  Ca3  1  0.73971374  0.12658791  0.75899115  1
  B  B0  1  0.95925576  0.57719245  0.20492540  1
  B  B1  1  0.04074424  0.42280755  0.79507460  1
  B  B2  1  0.04074424  0.92280755  0.70492540  1
  B  B3  1  0.95925576  0.07719245  0.29507460  1
  B  B4  1  0.45330415  0.57234218  0.74268820  1
  B  B5  1  0.54669585  0.42765782  0.25731180  1
  B  B6  1  0.54669585  0.92765782  0.24268820  1
  B  B7  1  0.45330415  0.07234218  0.75731180  1
  B  B8  1  0.42243500  0.80710250  0.55387093  1
  B  B9  1  0.57756500  0.19289750  0.44612907  1
  B  B10  1  0.57756500  0.69289750  0.05387093  1
  B  B11  1  0.42243500  0.30710250  0.94612907  1
  B  B12  1  0.95508063  0.56940559  0.74474818  1
  B  B13  1  0.04491937  0.43059441  0.25525182  1
  B  B14  1  0.04491937  0.93059441  0.24474818  1
  B  B15  1  0.95508063  0.06940559  0.75525182  1
  B  B16  1  0.69165595  0.83999557  0.75975647  1
  B  B17  1  0.30834405  0.16000443  0.24024353  1
  B  B18  1  0.30834405  0.66000443  0.25975647  1
  B  B19  1  0.69165595  0.33999557  0.74024353  1
  B  B20  1  0.91890113  0.79273879  0.95807414  1
  B  B21  1  0.08109887  0.20726121  0.04192586  1
  B  B22  1  0.08109887  0.70726121  0.45807414  1
  B  B23  1  0.91890113  0.29273879  0.54192586  1
  B  B24  1  0.91201363  0.90585596  0.56898600  1
  B  B25  1  0.08798637  0.09414404  0.43101400  1
  B  B26  1  0.08798637  0.59414404  0.06898600  1
  B  B27  1  0.91201363  0.40585596  0.93101400  1
  B  B28  1  0.37210633  0.88870846  0.69934805  1
  B  B29  1  0.62789367  0.11129154  0.30065195  1
  B  B30  1  0.62789367  0.61129154  0.19934805  1
  B  B31  1  0.37210633  0.38870846  0.80065195  1
  B  B32  1  0.76816002  0.52031461  0.93863201  1
  B  B33  1  0.23183998  0.47968539  0.06136799  1
  B  B34  1  0.23183998  0.97968539  0.43863201  1
  B  B35  1  0.76816002  0.02031461  0.56136799  1
  B  B36  1  0.87867074  0.89066369  0.82083167  1
  B  B37  1  0.12132926  0.10933631  0.17916833  1
  B  B38  1  0.12132926  0.60933631  0.32083167  1
  B  B39  1  0.87867074  0.39066369  0.67916833  1
  B  B40  1  0.99532784  0.74706846  0.31205642  1
  B  B41  1  0.00467216  0.25293154  0.68794358  1
  B  B42  1  0.00467216  0.75293154  0.81205642  1
  B  B43  1  0.99532784  0.24706846  0.18794358  1
  B  B44  1  0.51152110  0.75960214  0.69441733  1
  B  B45  1  0.48847890  0.24039786  0.30558267  1
  B  B46  1  0.48847890  0.74039786  0.19441733  1
  B  B47  1  0.51152110  0.25960214  0.80558267  1
  B  B48  1  0.81471955  0.66809504  0.25080146  1
  B  B49  1  0.18528045  0.33190496  0.74919854  1
  B  B50  1  0.18528045  0.83190496  0.75080146  1
  B  B51  1  0.81471955  0.16809504  0.24919854  1
  B  B52  1  0.55066684  0.93363924  0.79949872  1
  B  B53  1  0.44933316  0.06636076  0.20050128  1
  B  B54  1  0.44933316  0.56636076  0.29949872  1
  B  B55  1  0.55066684  0.43363924  0.70050128  1
  H  H0  1  0.90844549  0.54553549  0.47506061  1
  H  H1  1  0.09155451  0.45446451  0.52493939  1
  H  H2  1  0.09155451  0.95446451  0.97506061  1
  H  H3  1  0.90844549  0.04553549  0.02493939  1
  H  H4  1  0.63550250  0.75751122  0.45930290  1
  H  H5  1  0.36449750  0.24248878  0.54069710  1
  H  H6  1  0.36449750  0.74248878  0.95930290  1
  H  H7  1  0.63550250  0.25751122  0.04069710  1
  H  H8  1  0.77655187  0.66294093  0.55709778  1
  H  H9  1  0.22344813  0.33705907  0.44290222  1
  H  H10  1  0.22344813  0.83705907  0.05709778  1
  H  H11  1  0.77655187  0.16294093  0.94290222  1
  H  H12  1  0.77947622  0.88757037  0.14156090  1
  H  H13  1  0.22052378  0.11242963  0.85843910  1
  H  H14  1  0.22052378  0.61242963  0.64156090  1
  H  H15  1  0.77947622  0.38757037  0.35843910  1
  H  H16  1  0.63219089  0.48240808  0.45879849  1
  H  H17  1  0.36780911  0.51759192  0.54120151  1
  H  H18  1  0.36780911  0.01759192  0.95879849  1
  H  H19  1  0.63219089  0.98240808  0.04120151  1
  O  O0  1  0.62651368  0.99984997  0.28186282  1
  O  O1  1  0.37348632  0.00015003  0.71813718  1
  O  O2  1  0.37348632  0.50015003  0.78186282  1
  O  O3  1  0.62651368  0.49984997  0.21813718  1
  O  O4  1  0.58874931  0.70417026  0.95876755  1
  O  O5  1  0.41125069  0.29582974  0.04123245  1
  O  O6  1  0.41125069  0.79582974  0.45876755  1
  O  O7  1  0.58874931  0.20417026  0.54123245  1
  O  O8  1  0.87393375  0.86277788  0.48652550  1
  O  O9  1  0.12606625  0.13722212  0.51347450  1
  O  O10  1  0.12606625  0.63722212  0.98652550  1
  O  O11  1  0.87393375  0.36277788  0.01347450  1
  O  O12  1  0.98042173  0.86048984  0.78380348  1
  O  O13  1  0.01957827  0.13951016  0.21619652  1
  O  O14  1  0.01957827  0.63951016  0.28380348  1
  O  O15  1  0.98042173  0.36048984  0.71619652  1
  O  O16  1  0.93754278  0.67055767  0.75533320  1
  O  O17  1  0.06245722  0.32944233  0.24466680  1
  O  O18  1  0.06245722  0.82944233  0.25533320  1
  O  O19  1  0.93754278  0.17055767  0.74466680  1
  O  O20  1  0.54318508  0.54351497  0.70762707  1
  O  O21  1  0.45681492  0.45648503  0.29237293  1
  O  O22  1  0.45681492  0.95648503  0.20762707  1
  O  O23  1  0.54318508  0.04351497  0.79237293  1
  O  O24  1  0.49575357  0.75777237  0.59525694  1
  O  O25  1  0.50424643  0.24222763  0.40474306  1
  O  O26  1  0.50424643  0.74222763  0.09525694  1
  O  O27  1  0.49575357  0.25777237  0.90474306  1
  O  O28  1  0.99610766  0.88451050  0.61535524  1
  O  O29  1  0.00389234  0.11548950  0.38464476  1
  O  O30  1  0.00389234  0.61548950  0.11535524  1
  O  O31  1  0.99610766  0.38451050  0.88464476  1
  O  O32  1  0.72819797  0.59199030  0.89066484  1
  O  O33  1  0.27180203  0.40800970  0.10933516  1
  O  O34  1  0.27180203  0.90800970  0.39066484  1
  O  O35  1  0.72819797  0.09199030  0.60933516  1
  O  O36  1  0.15165112  0.91476132  0.70950503  1
  O  O37  1  0.84834888  0.08523868  0.29049497  1
  O  O38  1  0.84834888  0.58523868  0.20950503  1
  O  O39  1  0.15165112  0.41476132  0.79049497  1
  O  O40  1  0.90408295  0.27871474  0.44772378  1
  O  O41  1  0.09591705  0.72128526  0.55227622  1
  O  O42  1  0.09591705  0.22128526  0.94772378  1
  O  O43  1  0.90408295  0.77871474  0.05227622  1
  O  O44  1  0.88323408  0.74570617  0.29710299  1
  O  O45  1  0.11676592  0.25429383  0.70289701  1
  O  O46  1  0.11676592  0.75429383  0.79710299  1
  O  O47  1  0.88323408  0.24570617  0.20289701  1
  O  O48  1  0.26357439  0.01823845  0.52338000  1
  O  O49  1  0.73642561  0.98176155  0.47662000  1
  O  O50  1  0.73642561  0.48176155  0.02338000  1
  O  O51  1  0.26357439  0.51823845  0.97662000  1
  O  O52  1  0.62222878  0.75993682  0.71724356  1
  O  O53  1  0.37777122  0.24006318  0.28275644  1
  O  O54  1  0.37777122  0.74006318  0.21724356  1
  O  O55  1  0.62222878  0.25993682  0.78275644  1
  O  O56  1  0.95970484  0.96460778  0.28229804  1
  O  O57  1  0.04029516  0.03539222  0.71770196  1
  O  O58  1  0.04029516  0.53539222  0.78229804  1
  O  O59  1  0.95970484  0.46460778  0.21770196  1
  O  O60  1  0.87860878  0.50222177  0.69595445  1
  O  O61  1  0.12139122  0.49777823  0.30404555  1
  O  O62  1  0.12139122  0.99777823  0.19595445  1
  O  O63  1  0.87860878  0.00222177  0.80404555  1
  O  O64  1  0.84809677  0.97455363  0.60252648  1
  O  O65  1  0.15190323  0.02544637  0.39747352  1
  O  O66  1  0.15190323  0.52544637  0.10252648  1
  O  O67  1  0.84809677  0.47455363  0.89747352  1
  O  O68  1  0.48145724  0.86410468  0.72993105  1
  O  O69  1  0.51854276  0.13589532  0.27006895  1
  O  O70  1  0.51854276  0.63589532  0.22993105  1
  O  O71  1  0.48145724  0.36410468  0.77006895  1
  O  O72  1  0.28926848  0.82072610  0.75174129  1
  O  O73  1  0.71073152  0.17927390  0.24825871  1
  O  O74  1  0.71073152  0.67927390  0.25174129  1
  O  O75  1  0.28926848  0.32072610  0.74825871  1
  O  O76  1  0.79155520  0.82125783  0.77055698  1
  O  O77  1  0.20844480  0.17874217  0.22944302  1
  O  O78  1  0.20844480  0.67874217  0.27055698  1
  O  O79  1  0.79155520  0.32125783  0.72944302  1
  O  O80  1  0.87105361  0.86816388  0.91923599  1
  O  O81  1  0.12894639  0.13183612  0.08076401  1
  O  O82  1  0.12894639  0.63183612  0.41923599  1
  O  O83  1  0.87105361  0.36816388  0.58076401  1
  O  O84  1  0.43979895  0.67437634  0.74097696  1
  O  O85  1  0.56020105  0.32562366  0.25902304  1
  O  O86  1  0.56020105  0.82562366  0.24097696  1
  O  O87  1  0.43979895  0.17437634  0.75902304  1
  O  O88  1  0.50180069  0.88267133  0.88204622  1
  O  O89  1  0.49819931  0.11732867  0.11795378  1
  O  O90  1  0.49819931  0.61732867  0.38204622  1
  O  O91  1  0.50180069  0.38267133  0.61795378  1
  O  O92  1  0.66153309  0.93116151  0.78856648  1
  O  O93  1  0.33846691  0.06883849  0.21143352  1
  O  O94  1  0.33846691  0.56883849  0.28856648  1
  O  O95  1  0.66153309  0.43116151  0.71143352  1
  O  O96  1  0.36332312  0.86703022  0.60119681  1
  O  O97  1  0.63667688  0.13296978  0.39880319  1
  O  O98  1  0.63667688  0.63296978  0.10119681  1
  O  O99  1  0.36332312  0.36703022  0.89880319  1
  O  O100  1  0.97899204  0.73500320  0.90963222  1
  O  O101  1  0.02100796  0.26499680  0.09036778  1
  O  O102  1  0.02100796  0.76499680  0.40963222  1
  O  O103  1  0.97899204  0.23500320  0.59036778  1
loop_
_geom_bond_atom_site_label_1
_geom_bond_atom_site_label_2
_geom_bond_distance
_geom_bond_site_symmetry_2
Ca0 O32 2.211435 1_555
Ca0 O76 2.511245 1_555
Ca0 O16 2.514306 1_555
Ca0 O52 2.528086 1_555
Ca0 O95 2.567608 1_555
Ca0 O20 2.601078 1_555
Ca0 O60 2.707228 1_555
Ca0 H8 2.729370 1_555
Ca1 O33 2.211435 1_555
Ca1 O77 2.511245 1_555
Ca1 O17 2.514306 1_555
Ca1 O53 2.528086 1_555
Ca1 O94 2.567608 1_555
Ca1 O21 2.601078 1_555
Ca1 O61 2.707228 1_555
Ca1 H9 2.729370 1_555
Ca2 O34 2.211435 1_555
Ca2 O78 2.511245 1_555
Ca2 O18 2.514306 1_555
Ca2 O54 2.528086 1_555
Ca2 O93 2.567608 1_565
Ca2 O22 2.601078 1_555
Ca2 O62 2.707228 1_555
Ca2 H10 2.729370 1_555
Ca3 O35 2.211435 1_555
Ca3 O79 2.511245 1_555
Ca3 O19 2.514306 1_555
Ca3 O55 2.528086 1_555
Ca3 O92 2.567608 1_545
Ca3 O23 2.601078 1_555
Ca3 O63 2.707228 1_555
Ca3 H11 2.729370 1_555
B0 O38 1.456126 1_555
B0 O30 1.465634 1_655
B0 O59 1.467300 1_555
B0 O14 1.521927 1_655
B1 O39 1.456126 1_555
B1 O31 1.465634 1_455
B1 O58 1.467300 1_555
B1 O15 1.521927 1_455
B2 O36 1.456126 1_555
B2 O28 1.465634 1_455
B2 O57 1.467300 1_565
B2 O12 1.521927 1_455
B3 O37 1.456126 1_555
B3 O29 1.465634 1_655
B3 O56 1.467300 1_545
B3 O13 1.521927 1_655
B4 O84 1.362767 1_555
B4 O2 1.371716 1_555
B4 O20 1.381241 1_555
B5 O85 1.362767 1_555
B5 O3 1.371716 1_555
B5 O21 1.381241 1_555
B6 O86 1.362767 1_555
B6 O0 1.371716 1_555
B6 O22 1.381241 1_555
B7 O87 1.362767 1_555
B7 O1 1.371716 1_555
B7 O23 1.381241 1_555
B8 O96 1.370502 1_555
B8 O24 1.375711 1_555
B8 O6 1.389104 1_555
B9 O97 1.370502 1_555
B9 O25 1.375711 1_555
B9 O7 1.389104 1_555
B10 O98 1.370502 1_555
B10 O26 1.375711 1_555
B10 O4 1.389104 1_554
B11 O99 1.370502 1_555
B11 O27 1.375711 1_555
B11 O5 1.389104 1_556
B12 O58 1.372529 1_655
B12 O60 1.376790 1_555
B12 O16 1.377095 1_555
B13 O59 1.372529 1_455
B13 O61 1.376790 1_555
B13 O17 1.377095 1_555
B14 O56 1.372529 1_455
B14 O62 1.376790 1_555
B14 O18 1.377095 1_555
B15 O57 1.372529 1_655
B15 O63 1.376790 1_555
B15 O19 1.377095 1_555
B16 O76 1.365583 1_555
B16 O92 1.374301 1_555
B16 O52 1.376081 1_555
B17 O77 1.365583 1_555
B17 O93 1.374301 1_555
B17 O53 1.376081 1_555
B18 O78 1.365583 1_555
B18 O94 1.374301 1_555
B18 O54 1.376081 1_555
B19 O79 1.365583 1_555
B19 O95 1.374301 1_555
B19 O55 1.376081 1_555
B20 O100 1.368342 1_555
B20 O80 1.370684 1_555
B20 O43 1.384175 1_556
B21 O101 1.368342 1_555
B21 O81 1.370684 1_555
B21 O42 1.384175 1_554
B22 O102 1.368342 1_555
B22 O82 1.370684 1_555
B22 O41 1.384175 1_555
B23 O103 1.368342 1_555
B23 O83 1.370684 1_555
B23 O40 1.384175 1_555
B24 O28 1.348848 1_555
B24 O8 1.367779 1_555
B24 O64 1.409206 1_555
B25 O29 1.348848 1_555
B25 O9 1.367779 1_555
B25 O65 1.409206 1_555
B26 O30 1.348848 1_555
B26 O10 1.367779 1_554
B26 O66 1.409206 1_555
B27 O31 1.348848 1_555
B27 O11 1.367779 1_556
B27 O67 1.409206 1_555
B28 O96 1.448506 1_555
B28 O72 1.458420 1_555
B28 O1 1.461901 1_565
B28 O68 1.568667 1_555
B29 O97 1.448506 1_555
B29 O73 1.458420 1_555
B29 O0 1.461901 1_545
B29 O69 1.568667 1_555
B30 O98 1.448506 1_555
B30 O74 1.458420 1_555
B30 O3 1.461901 1_555
B30 O70 1.568667 1_555
B31 O99 1.448506 1_555
B31 O75 1.458420 1_555
B31 O2 1.461901 1_555
B31 O71 1.568667 1_555
B32 O32 1.337786 1_555
B32 O50 1.357348 1_556
B32 O67 1.415451 1_555
B33 O33 1.337786 1_555
B33 O51 1.357348 1_554
B33 O66 1.415451 1_555
B34 O34 1.337786 1_555
B34 O48 1.357348 1_565
B34 O65 1.415451 1_565
B35 O35 1.337786 1_555
B35 O49 1.357348 1_545
B35 O64 1.415451 1_545
B36 O80 1.453511 1_555
B36 O63 1.461701 1_565
B36 O76 1.486069 1_555
B36 O12 1.536327 1_555
B37 O81 1.453511 1_555
B37 O62 1.461701 1_545
B37 O77 1.486069 1_555
B37 O13 1.536327 1_555
B38 O82 1.453511 1_555
B38 O61 1.461701 1_555
B38 O78 1.486069 1_555
B38 O14 1.536327 1_555
B39 O83 1.453511 1_555
B39 O60 1.461701 1_555
B39 O79 1.486069 1_555
B39 O15 1.536327 1_555
B40 O44 1.459160 1_555
B40 O102 1.459233 1_655
B40 O18 1.483752 1_655
B40 O14 1.537433 1_655
B41 O45 1.459160 1_555
B41 O103 1.459233 1_455
B41 O19 1.483752 1_455
B41 O15 1.537433 1_455
B42 O46 1.459160 1_555
B42 O100 1.459233 1_455
B42 O16 1.483752 1_455
B42 O12 1.537433 1_455
B43 O47 1.459160 1_555
B43 O101 1.459233 1_655
B43 O17 1.483752 1_655
B43 O13 1.537433 1_655
B44 O24 1.449470 1_555
B44 O84 1.459442 1_555
B44 O52 1.465340 1_555
B44 O68 1.561874 1_555
B45 O25 1.449470 1_555
B45 O85 1.459442 1_555
B45 O53 1.465340 1_555
B45 O69 1.561874 1_555
B46 O26 1.449470 1_555
B46 O86 1.459442 1_555
B46 O54 1.465340 1_555
B46 O70 1.561874 1_555
B47 O27 1.449470 1_555
B47 O87 1.459442 1_555
B47 O55 1.465340 1_555
B47 O71 1.561874 1_555
B48 O38 1.367712 1_555
B48 O44 1.376313 1_555
B48 O74 1.376948 1_555
B49 O39 1.367712 1_555
B49 O45 1.376313 1_555
B49 O75 1.376948 1_555
B50 O36 1.367712 1_555
B50 O46 1.376313 1_555
B50 O72 1.376948 1_555
B51 O37 1.367712 1_555
B51 O47 1.376313 1_555
B51 O73 1.376948 1_555
B52 O23 1.444890 1_565
B52 O92 1.445670 1_555
B52 O88 1.448838 1_555
B52 O68 1.519645 1_555
B53 O22 1.444890 1_545
B53 O93 1.445670 1_555
B53 O89 1.448838 1_555
B53 O69 1.519645 1_555
B54 O21 1.444890 1_555
B54 O94 1.445670 1_555
B54 O90 1.448838 1_555
B54 O70 1.519645 1_555
B55 O20 1.444890 1_555
B55 O95 1.445670 1_555
B55 O91 1.448838 1_555
B55 O71 1.519645 1_555
H4 Sr0 2.807334 1_555
H5 Sr1 2.807334 1_555
H6 Sr2 2.807334 1_555
H7 Sr3 2.807334 1_555
H12 Sr0 2.787624 1_555
H13 Sr1 2.787624 1_555
H14 Sr2 2.787624 1_555
H15 Sr3 2.787624 1_555
O0 Sr0 2.662078 1_555
O1 Sr1 2.662078 1_555
O2 Sr2 2.662078 1_555
O3 Sr3 2.662078 1_555
O8 Sr0 2.647313 1_555
O9 Sr1 2.647313 1_555
O10 Sr2 2.647313 1_555
O11 Sr3 2.647313 1_555
O36 Sr1 2.657165 1_565
O37 Sr0 2.657165 1_545
O38 Sr3 2.657165 1_555
O39 Sr2 2.657165 1_555
O44 Sr0 2.613217 1_555
O45 Sr1 2.613217 1_555
O46 Sr2 2.613217 1_555
O47 Sr3 2.613217 1_555
O48 Sr1 2.481558 1_555
O49 Sr0 2.481558 1_555
O50 Sr3 2.481558 1_555
O51 Sr2 2.481558 1_555
O56 Sr0 2.596828 1_555
O57 Sr1 2.596828 1_555
O58 Sr2 2.596828 1_555
O59 Sr3 2.596828 1_555
O72 Sr2 2.887129 1_555
O73 Sr3 2.887129 1_555
O74 Sr0 2.887129 1_555
O75 Sr1 2.887129 1_555
O84 Sr2 2.964856 1_555
O85 Sr3 2.964856 1_555
O86 Sr0 2.964856 1_555
O87 Sr1 2.964856 1_555
