# generated using pymatgen
data_La3Pt4
_symmetry_space_group_name_H-M   'P 1'
_cell_length_a   5.84111154
_cell_length_b   8.26928459
_cell_length_c   8.27060338
_cell_angle_alpha   114.65716604
_cell_angle_beta   103.62106366
_cell_angle_gamma   103.61943820
_symmetry_Int_Tables_number   1
_chemical_formula_structural   La3Pt4
_chemical_formula_sum   'La6 Pt8'
_cell_volume   326.69443996
_cell_formula_units_Z   2
loop_
 _symmetry_equiv_pos_site_id
 _symmetry_equiv_pos_as_xyz
  1  'x, y, z'
loop_
 _atom_site_type_symbol
 _atom_site_label
 _atom_site_symmetry_multiplicity
 _atom_site_fract_x
 _atom_site_fract_y
 _atom_site_fract_z
 _atom_site_occupancy
  La  La0  1  0.40799505  0.12471220  0.37483481  1
  La  La1  1  0.03320392  0.62506367  0.74995572  1
  La  La2  1  0.28314878  0.25011912  0.87518308  1
  La  La3  1  0.59200495  0.87528780  0.62516519  1
  La  La4  1  0.96679608  0.37493633  0.25004428  1
  La  La5  1  0.71685122  0.74988088  0.12481692  1
  Pt  Pt0  1  -0.00000000  0.00000000  -0.00000000  1
  Pt  Pt1  1  0.50000000  0.00000000  -0.00000000  1
  Pt  Pt2  1  0.22212582  0.66356164  0.16400868  1
  Pt  Pt3  1  0.05791246  0.83602698  0.49964307  1
  Pt  Pt4  1  0.55816221  0.50040061  0.33646832  1
  Pt  Pt5  1  0.77787418  0.33643836  0.83599132  1
  Pt  Pt6  1  0.94208754  0.16397302  0.50035693  1
  Pt  Pt7  1  0.44183779  0.49959939  0.66353168  1
loop_
_geom_bond_atom_site_label_1
_geom_bond_atom_site_label_2
_geom_bond_distance
_geom_bond_site_symmetry_2
La0 Pt6 2.938028 1_555
La0 Pt7 2.943389 1_555
La0 Pt0 3.008131 1_555
La0 Pt1 3.056333 1_555
La0 Pt6 3.170932 1_455
La0 Pt4 3.192458 1_555
La0 Pt2 3.220497 1_545
La0 Pt5 3.323521 1_555
La0 Pt3 3.420108 1_545
La0 La3 3.640719 1_545
La1 Pt7 2.938628 1_555
La1 Pt5 2.944078 1_455
La1 Pt0 3.008221 1_566
La1 Pt1 3.055655 1_566
La1 Pt7 3.170117 1_455
La1 Pt2 3.192354 1_556
La1 Pt3 3.222669 1_555
La1 Pt6 3.322990 1_455
La1 Pt4 3.420389 1_455
La1 La4 3.640691 1_455
La2 Pt5 2.937349 1_555
La2 Pt6 2.943929 1_455
La2 Pt0 3.008924 1_556
La2 Pt1 3.057350 1_556
La2 Pt5 3.171707 1_455
La2 Pt3 3.191075 1_545
La2 Pt4 3.221573 1_556
La2 Pt7 3.325098 1_555
La2 Pt2 3.417987 1_556
La2 La5 3.639521 1_556
La3 Pt3 2.938028 1_555
La3 Pt4 2.943389 1_555
La3 Pt0 3.008131 1_666
La3 Pt1 3.056333 1_566
La3 Pt3 3.170932 1_655
La3 Pt7 3.192458 1_555
La3 Pt5 3.220497 1_565
La3 Pt2 3.323521 1_555
La3 Pt6 3.420108 1_565
La4 Pt4 2.938628 1_555
La4 Pt2 2.944078 1_655
La4 Pt0 3.008221 1_655
La4 Pt1 3.055655 1_555
La4 Pt4 3.170117 1_655
La4 Pt5 3.192354 1_554
La4 Pt6 3.222669 1_555
La4 Pt3 3.322990 1_655
La4 Pt7 3.420389 1_655
La5 Pt2 2.937349 1_555
La5 Pt3 2.943929 1_655
La5 Pt0 3.008924 1_665
La5 Pt1 3.057350 1_565
La5 Pt2 3.171707 1_655
La5 Pt6 3.191075 1_565
La5 Pt7 3.221573 1_554
La5 Pt4 3.325098 1_555
La5 Pt5 3.417987 1_554
Pt0 Pt1 2.920556 1_455
Pt0 Pt1 2.920556 1_555
Pt2 Pt5 2.943849 1_454
Pt2 Pt4 3.040039 1_555
Pt2 Pt3 3.042158 1_555
Pt3 Pt6 2.943570 1_465
Pt3 Pt4 3.041237 1_455
Pt4 Pt7 2.942331 1_555
Pt5 Pt7 3.040039 1_555
Pt5 Pt6 3.042158 1_555
Pt6 Pt7 3.041237 1_655
