# generated using pymatgen
data_BaSrV4(CuO4)4
_symmetry_space_group_name_H-M   'P 1'
_cell_length_a   9.99592601
_cell_length_b   9.99592601
_cell_length_c   9.99592601
_cell_angle_alpha   99.60569267
_cell_angle_beta   99.60569267
_cell_angle_gamma   131.77956740
_symmetry_Int_Tables_number   1
_chemical_formula_structural   BaSrV4(CuO4)4
_chemical_formula_sum   'Ba2 Sr2 V8 Cu8 O32'
_cell_volume   679.82704035
_cell_formula_units_Z   2
loop_
 _symmetry_equiv_pos_site_id
 _symmetry_equiv_pos_as_xyz
  1  'x, y, z'
loop_
 _atom_site_type_symbol
 _atom_site_label
 _atom_site_symmetry_multiplicity
 _atom_site_fract_x
 _atom_site_fract_y
 _atom_site_fract_z
 _atom_site_occupancy
  Ba  Ba0  1  0.50000000  0.50000000  0.00000000  1
  Ba  Ba1  1  0.75000000  0.25000000  0.50000000  1
  Sr  Sr0  1  0.00000000  0.00000000  0.00000000  1
  Sr  Sr1  1  0.25000000  0.75000000  0.50000000  1
  V  V0  1  0.12500000  0.31946200  0.69446200  1
  V  V1  1  0.62500000  0.43053800  0.30553800  1
  V  V2  1  0.68053800  0.37500000  0.80553800  1
  V  V3  1  0.56946200  0.87500000  0.19446200  1
  V  V4  1  0.12500000  0.77966500  0.15466500  1
  V  V5  1  0.62500000  0.97033500  0.84533500  1
  V  V6  1  0.22033500  0.37500000  0.34533500  1
  V  V7  1  0.02966500  0.87500000  0.65466500  1
  Cu  Cu0  1  0.91900500  0.90340300  0.33301400  1
  Cu  Cu1  1  0.67961100  0.84659700  0.51560200  1
  Cu  Cu2  1  0.57038900  0.58599000  0.66698600  1
  Cu  Cu3  1  0.33099500  0.16401000  0.48439800  1
  Cu  Cu4  1  0.09659700  0.42961100  0.01560200  1
  Cu  Cu5  1  0.83599000  0.32038900  0.16698600  1
  Cu  Cu6  1  0.41401000  0.08099500  0.98439800  1
  Cu  Cu7  1  0.15340300  0.66900500  0.83301400  1
  O  O0  1  0.81984600  0.45740000  0.31980800  1
  O  O1  1  0.11240800  0.29260000  0.86244600  1
  O  O2  1  0.13759200  0.50003900  0.68019200  1
  O  O3  1  0.43015400  0.24996100  0.13755400  1
  O  O4  1  0.54260000  0.86240800  0.36244600  1
  O  O5  1  0.75003900  0.88759200  0.18019200  1
  O  O6  1  0.49996100  0.18015400  0.63755400  1
  O  O7  1  0.70740000  0.56984600  0.81980800  1
  O  O8  1  0.63036600  0.80595100  0.85995000  1
  O  O9  1  0.30399900  0.94404900  0.32441500  1
  O  O10  1  0.94600100  0.77041700  0.14005000  1
  O  O11  1  0.61963400  0.97958300  0.67558500  1
  O  O12  1  0.19404900  0.05399900  0.82441500  1
  O  O13  1  0.02041700  0.69600100  0.64005000  1
  O  O14  1  0.22958300  0.36963400  0.17558500  1
  O  O15  1  0.05595100  0.38036600  0.35995000  1
  O  O16  1  0.62272700  0.30749300  0.95309900  1
  O  O17  1  0.89560600  0.44250700  0.81523400  1
  O  O18  1  0.35439400  0.66962800  0.04690100  1
  O  O19  1  0.62727300  0.08037200  0.18476600  1
  O  O20  1  0.69250700  0.64560600  0.31523400  1
  O  O21  1  0.91962800  0.10439400  0.54690100  1
  O  O22  1  0.33037200  0.37727300  0.68476600  1
  O  O23  1  0.55749300  0.37272700  0.45309900  1
  O  O24  1  0.09705000  0.94562800  0.50484300  1
  O  O25  1  0.80921500  0.80437200  0.65142300  1
  O  O26  1  0.44078500  0.59220700  0.49515700  1
  O  O27  1  0.15295000  0.15779300  0.34857700  1
  O  O28  1  0.05437200  0.55921500  0.15142300  1
  O  O29  1  0.84220700  0.19078500  0.99515700  1
  O  O30  1  0.40779300  0.90295000  0.84857700  1
  O  O31  1  0.19562800  0.84705000  0.00484300  1
loop_
_geom_bond_atom_site_label_1
_geom_bond_atom_site_label_2
_geom_bond_distance
_geom_bond_site_symmetry_2
Ba0 O5 2.786904 1_555
Ba0 O7 2.786905 1_554
Ba0 O1 2.786905 1_554
Ba0 O3 2.786913 1_555
Ba0 O20 2.909321 1_555
Ba0 O22 2.909321 1_554
Ba0 O18 2.909321 1_555
Ba0 O16 2.909321 1_554
Ba0 O10 3.120578 1_555
Ba0 O8 3.120580 1_554
Ba0 O12 3.120580 1_554
Ba0 O14 3.120587 1_555
Ba1 O2 2.786904 1_655
Ba1 O0 2.786905 1_555
Ba1 O4 2.786905 1_545
Ba1 O6 2.786913 1_555
Ba1 O23 2.909321 1_555
Ba1 O17 2.909321 1_555
Ba1 O21 2.909321 1_555
Ba1 O19 2.909321 1_555
Ba1 O13 3.120578 1_655
Ba1 O15 3.120580 1_655
Ba1 O9 3.120580 1_545
Ba1 O11 3.120587 1_545
Cu0 O20 1.933011 1_555
Cu0 O27 1.944637 1_665
Cu0 O5 1.978340 1_555
Cu0 O24 2.008133 1_655
Cu0 O10 2.314386 1_555
Cu1 O21 1.933011 1_565
Cu1 O26 1.944634 1_555
Cu1 O4 1.978347 1_555
Cu1 O25 2.008139 1_555
Cu1 O11 2.314384 1_555
Cu2 O22 1.933008 1_555
Cu2 O25 1.944632 1_555
Cu2 O7 1.978340 1_555
Cu2 O26 2.008139 1_555
Cu2 O8 2.314397 1_555
Cu3 O23 1.933008 1_555
Cu3 O24 1.944637 1_545
Cu3 O6 1.978346 1_555
Cu3 O27 2.008132 1_555
Cu3 O9 2.314398 1_545
Cu4 O18 1.933011 1_555
Cu4 O29 1.944634 1_454
Cu4 O1 1.978347 1_554
Cu4 O28 2.008139 1_555
Cu4 O14 2.314384 1_555
Cu5 O19 1.933008 1_555
Cu5 O28 1.944632 1_655
Cu5 O0 1.978340 1_555
Cu5 O29 2.008139 1_554
Cu5 O15 2.314397 1_655
Cu6 O16 1.933008 1_555
Cu6 O31 1.944637 1_546
Cu6 O3 1.978346 1_556
Cu6 O30 2.008132 1_545
Cu6 O12 2.314398 1_555
Cu7 O17 1.933011 1_455
Cu7 O30 1.944637 1_555
Cu7 O2 1.978340 1_555
Cu7 O31 2.008133 1_556
Cu7 O13 2.314386 1_555
O0 V1 1.755983 1_555
O0 Sr1 3.030861 1_655
O1 V0 1.755983 1_555
O1 Sr0 3.030861 1_556
O2 V0 1.755993 1_555
O2 Sr1 3.030854 1_555
O3 V1 1.755984 1_555
O3 Sr0 3.030863 1_555
O4 V3 1.755983 1_555
O4 Sr1 3.030861 1_555
O5 V3 1.755993 1_555
O5 Sr0 3.030854 1_665
O6 V2 1.755984 1_555
O6 Sr1 3.030863 1_545
O7 V2 1.755983 1_555
O7 Sr0 3.030861 1_666
O8 V5 1.708558 1_555
O8 Sr0 2.681692 1_666
O9 V4 1.708558 1_555
O9 Sr1 2.681692 1_555
O10 V4 1.708565 1_655
O10 Sr0 2.681684 1_665
O11 V5 1.708556 1_555
O11 Sr1 2.681694 1_555
O12 V7 1.708558 1_545
O12 Sr0 2.681692 1_556
O13 V7 1.708565 1_555
O13 Sr1 2.681684 1_555
O14 V6 1.708556 1_555
O14 Sr0 2.681694 1_555
O15 V6 1.708558 1_555
O15 Sr1 2.681692 1_555
O16 V2 1.749846 1_555
O17 V2 1.749846 1_555
O18 V3 1.749846 1_555
O19 V3 1.749846 1_545
O20 V1 1.749846 1_555
O21 V0 1.749846 1_655
O22 V0 1.749846 1_555
O23 V1 1.749846 1_555
O24 V7 1.802998 1_555
O24 Sr1 3.184446 1_555
O25 V7 1.803001 1_655
O25 Sr0 3.184437 1_666
O26 V6 1.802998 1_555
O26 Sr1 3.184446 1_555
O27 V6 1.802996 1_555
O27 Sr0 3.184436 1_555
O28 V4 1.803001 1_555
O28 Sr1 3.184437 1_555
O29 V5 1.802998 1_545
O29 Sr0 3.184446 1_656
O30 V5 1.802996 1_555
O30 Sr1 3.184436 1_555
O31 V4 1.802998 1_555
O31 Sr0 3.184446 1_565
