# generated using pymatgen
data_LiMn7O14
_symmetry_space_group_name_H-M   'P 1'
_cell_length_a   10.24403589
_cell_length_b   10.24403589
_cell_length_c   13.11612459
_cell_angle_alpha   82.79689762
_cell_angle_beta   82.79689762
_cell_angle_gamma   47.88288353
_symmetry_Int_Tables_number   1
_chemical_formula_structural   LiMn7O14
_chemical_formula_sum   'Li4 Mn28 O56'
_cell_volume   1011.33321595
_cell_formula_units_Z   4
loop_
 _symmetry_equiv_pos_site_id
 _symmetry_equiv_pos_as_xyz
  1  'x, y, z'
loop_
 _atom_site_type_symbol
 _atom_site_label
 _atom_site_symmetry_multiplicity
 _atom_site_fract_x
 _atom_site_fract_y
 _atom_site_fract_z
 _atom_site_occupancy
  Li  Li0  1  0.26818900  0.01843800  0.82107700  1
  Li  Li1  1  0.73181100  0.98156200  0.17892300  1
  Li  Li2  1  0.01843800  0.26818900  0.32107700  1
  Li  Li3  1  0.98156200  0.73181100  0.67892300  1
  Mn  Mn0  1  0.85703500  0.35903200  0.92886800  1
  Mn  Mn1  1  0.71406500  0.71243700  0.85729700  1
  Mn  Mn2  1  0.57111500  0.07361100  0.78549000  1
  Mn  Mn3  1  0.21321100  0.71338500  0.85865900  1
  Mn  Mn4  1  0.14252500  0.14598400  0.07022600  1
  Mn  Mn5  1  0.57133900  0.57017700  0.78620600  1
  Mn  Mn6  1  0.85747500  0.85401600  0.92977400  1
  Mn  Mn7  1  0.50000000  0.00000000  0.00000000  1
  Mn  Mn8  1  0.14296500  0.64096800  0.07113200  1
  Mn  Mn9  1  0.42888500  0.92638900  0.21451000  1
  Mn  Mn10  1  0.00000000  0.00000000  0.00000000  1
  Mn  Mn11  1  0.28593500  0.28756300  0.14270300  1
  Mn  Mn12  1  0.35903200  0.85703500  0.42886800  1
  Mn  Mn13  1  0.42866100  0.42982300  0.21379400  1
  Mn  Mn14  1  0.07361100  0.57111500  0.28549000  1
  Mn  Mn15  1  0.78678900  0.28661500  0.14134100  1
  Mn  Mn16  1  0.71243700  0.71406500  0.35729700  1
  Mn  Mn17  1  0.57017700  0.57133900  0.28620600  1
  Mn  Mn18  1  0.00000000  0.50000000  0.50000000  1
  Mn  Mn19  1  0.85401600  0.85747500  0.42977400  1
  Mn  Mn20  1  0.71338500  0.21321100  0.35865900  1
  Mn  Mn21  1  0.14598400  0.14252500  0.57022600  1
  Mn  Mn22  1  0.92638900  0.42888500  0.71451000  1
  Mn  Mn23  1  0.28756300  0.28593500  0.64270300  1
  Mn  Mn24  1  0.64096800  0.14296500  0.57113200  1
  Mn  Mn25  1  0.00000000  0.00000000  0.50000000  1
  Mn  Mn26  1  0.42982300  0.42866100  0.71379400  1
  Mn  Mn27  1  0.28661500  0.78678900  0.64134100  1
  O  O0  1  0.81364100  0.34609500  0.79045000  1
  O  O1  1  0.62615000  0.59705000  0.91539000  1
  O  O2  1  0.93839200  0.47191800  0.85240500  1
  O  O3  1  0.48638700  0.95781100  0.85923200  1
  O  O4  1  0.80470600  0.82887000  0.79776500  1
  O  O5  1  0.09356400  0.13095200  0.93696700  1
  O  O6  1  0.61450100  0.08052100  0.92457600  1
  O  O7  1  0.73860600  0.76897300  0.98576700  1
  O  O8  1  0.89810200  0.37007500  0.06799200  1
  O  O9  1  0.45375900  0.48442400  0.84321300  1
  O  O10  1  0.26139400  0.23102700  0.01423300  1
  O  O11  1  0.38549900  0.91947900  0.07542400  1
  O  O12  1  0.97440500  0.93952900  0.87050300  1
  O  O13  1  0.10189800  0.62992500  0.93200800  1
  O  O14  1  0.90643600  0.86904800  0.06303300  1
  O  O15  1  0.22708800  0.75057500  0.99603100  1
  O  O16  1  0.19529400  0.17113000  0.20223500  1
  O  O17  1  0.51361300  0.04218900  0.14076800  1
  O  O18  1  0.37385000  0.40295000  0.08461000  1
  O  O19  1  0.65954500  0.68635200  0.22837100  1
  O  O20  1  0.06160800  0.52808200  0.14759500  1
  O  O21  1  0.34609500  0.81364100  0.29045000  1
  O  O22  1  0.77291200  0.24942500  0.00396900  1
  O  O23  1  0.18635900  0.65390500  0.20955000  1
  O  O24  1  0.47191800  0.93839200  0.35240500  1
  O  O25  1  0.31364800  0.34045500  0.27162900  1
  O  O26  1  0.59705000  0.62615000  0.41539000  1
  O  O27  1  0.02559500  0.06047100  0.12949700  1
  O  O28  1  0.82887000  0.80470600  0.29776500  1
  O  O29  1  0.13095200  0.09356400  0.43696700  1
  O  O30  1  0.54624100  0.51557600  0.15678700  1
  O  O31  1  0.95781100  0.48638700  0.35923200  1
  O  O32  1  0.67341000  0.20037800  0.21708200  1
  O  O33  1  0.48442400  0.45375900  0.34321300  1
  O  O34  1  0.76897300  0.73860600  0.48576700  1
  O  O35  1  0.79962200  0.32659000  0.28291800  1
  O  O36  1  0.37007500  0.89810200  0.56799200  1
  O  O37  1  0.08052100  0.61450100  0.42457600  1
  O  O38  1  0.23102700  0.26139400  0.51423300  1
  O  O39  1  0.91947900  0.38549900  0.57542400  1
  O  O40  1  0.62992500  0.10189800  0.43200800  1
  O  O41  1  0.93952900  0.97440500  0.37050300  1
  O  O42  1  0.04218900  0.51361300  0.64076800  1
  O  O43  1  0.75057500  0.22708800  0.49603100  1
  O  O44  1  0.17113000  0.19529400  0.70223500  1
  O  O45  1  0.86904800  0.90643600  0.56303300  1
  O  O46  1  0.68635200  0.65954500  0.72837100  1
  O  O47  1  0.40295000  0.37385000  0.58461000  1
  O  O48  1  0.52808200  0.06160800  0.64759500  1
  O  O49  1  0.24942500  0.77291200  0.50396900  1
  O  O50  1  0.34045500  0.31364800  0.77162900  1
  O  O51  1  0.06047100  0.02559500  0.62949700  1
  O  O52  1  0.65390500  0.18635900  0.70955000  1
  O  O53  1  0.51557600  0.54624100  0.65678700  1
  O  O54  1  0.20037800  0.67341000  0.71708200  1
  O  O55  1  0.32659000  0.79962200  0.78291800  1
loop_
_geom_bond_atom_site_label_1
_geom_bond_atom_site_label_2
_geom_bond_distance
_geom_bond_site_symmetry_2
Li0 O5 1.957276 1_555
Li0 O44 1.991212 1_555
Li0 O3 1.993231 1_545
Li0 O55 2.010106 1_545
Li1 O14 1.957276 1_555
Li1 O28 1.991212 1_555
Li1 O17 1.993231 1_565
Li1 O32 2.010106 1_565
Li2 O29 1.957276 1_555
Li2 O16 1.991212 1_555
Li2 O31 1.993231 1_455
Li2 O35 2.010106 1_455
Li3 O45 1.957276 1_555
Li3 O4 1.991212 1_555
Li3 O42 1.993231 1_655
Li3 O54 2.010106 1_655
Mn0 O5 1.936538 1_655
Mn0 O22 1.944543 1_556
Mn0 O8 1.956442 1_556
Mn0 O2 1.957026 1_555
Mn0 O1 1.957568 1_555
Mn0 O0 1.962901 1_555
Mn1 O2 1.940079 1_555
Mn1 O7 1.945301 1_555
Mn1 O46 1.946834 1_555
Mn1 O1 1.954168 1_555
Mn1 O3 1.973927 1_555
Mn1 O4 1.991134 1_555
Mn2 O6 1.951515 1_555
Mn2 O48 1.951686 1_555
Mn2 O52 1.964414 1_555
Mn2 O50 1.965989 1_555
Mn2 O3 1.994700 1_545
Mn2 O4 1.996536 1_545
Mn3 O15 1.928939 1_555
Mn3 O12 1.941377 1_455
Mn3 O13 1.945010 1_555
Mn3 O9 1.963724 1_555
Mn3 O54 1.989304 1_555
Mn3 O55 1.995774 1_555
Mn4 O5 1.929029 1_554
Mn4 O27 1.951837 1_555
Mn4 O10 1.954302 1_555
Mn4 O8 1.957531 1_455
Mn4 O11 1.959656 1_545
Mn4 O16 1.972261 1_555
Mn5 O0 1.947740 1_555
Mn5 O53 1.950199 1_555
Mn5 O9 1.951978 1_555
Mn5 O1 1.955734 1_555
Mn5 O46 1.962186 1_555
Mn5 O55 1.977352 1_555
Mn6 O14 1.929029 1_556
Mn6 O12 1.951837 1_555
Mn6 O7 1.954302 1_555
Mn6 O13 1.957531 1_655
Mn6 O6 1.959656 1_565
Mn6 O4 1.972261 1_555
Mn7 O11 1.958820 1_545
Mn7 O6 1.958820 1_554
Mn7 O7 1.961554 1_544
Mn7 O10 1.961554 1_555
Mn7 O17 1.990146 1_555
Mn7 O3 1.990146 1_544
Mn8 O14 1.936538 1_455
Mn8 O15 1.944543 1_554
Mn8 O13 1.956442 1_554
Mn8 O20 1.957026 1_555
Mn8 O18 1.957568 1_555
Mn8 O23 1.962901 1_555
Mn9 O11 1.951515 1_555
Mn9 O24 1.951686 1_555
Mn9 O21 1.964414 1_555
Mn9 O19 1.965989 1_555
Mn9 O17 1.994700 1_565
Mn9 O16 1.996536 1_565
Mn10 O27 1.982618 1_555
Mn10 O12 1.982618 1_444
Mn10 O22 1.993331 1_455
Mn10 O15 1.993331 1_544
Mn10 O14 2.156270 1_445
Mn10 O5 2.156270 1_554
Mn11 O20 1.940079 1_555
Mn11 O10 1.945301 1_555
Mn11 O25 1.946834 1_555
Mn11 O18 1.954168 1_555
Mn11 O17 1.973927 1_555
Mn11 O16 1.991134 1_555
Mn12 O29 1.936538 1_565
Mn12 O49 1.944543 1_555
Mn12 O36 1.956442 1_555
Mn12 O24 1.957026 1_555
Mn12 O26 1.957568 1_555
Mn12 O21 1.962901 1_555
Mn13 O23 1.947740 1_555
Mn13 O33 1.950199 1_555
Mn13 O30 1.951978 1_555
Mn13 O18 1.955734 1_555
Mn13 O25 1.962186 1_555
Mn13 O32 1.977352 1_555
Mn14 O37 1.951515 1_555
Mn14 O20 1.951686 1_555
Mn14 O23 1.964414 1_555
Mn14 O25 1.965989 1_555
Mn14 O31 1.994700 1_455
Mn14 O28 1.996536 1_455
Mn15 O22 1.928939 1_555
Mn15 O27 1.941377 1_655
Mn15 O8 1.945010 1_555
Mn15 O30 1.963724 1_555
Mn15 O35 1.989304 1_555
Mn15 O32 1.995774 1_555
Mn16 O24 1.940079 1_555
Mn16 O34 1.945301 1_555
Mn16 O19 1.946834 1_555
Mn16 O26 1.954168 1_555
Mn16 O31 1.973927 1_555
Mn16 O28 1.991134 1_555
Mn17 O21 1.947740 1_555
Mn17 O30 1.950199 1_555
Mn17 O33 1.951978 1_555
Mn17 O26 1.955734 1_555
Mn17 O19 1.962186 1_555
Mn17 O35 1.977352 1_555
Mn18 O37 1.958820 1_555
Mn18 O39 1.958820 1_455
Mn18 O34 1.961554 1_455
Mn18 O38 1.961554 1_555
Mn18 O42 1.990146 1_555
Mn18 O31 1.990146 1_455
Mn19 O45 1.929029 1_555
Mn19 O41 1.951837 1_555
Mn19 O34 1.954302 1_555
Mn19 O40 1.957531 1_565
Mn19 O37 1.959656 1_655
Mn19 O28 1.972261 1_555
Mn20 O43 1.928939 1_555
Mn20 O41 1.941377 1_545
Mn20 O40 1.945010 1_555
Mn20 O33 1.963724 1_555
Mn20 O32 1.989304 1_555
Mn20 O35 1.995774 1_555
Mn21 O29 1.929029 1_555
Mn21 O51 1.951837 1_555
Mn21 O38 1.954302 1_555
Mn21 O36 1.957531 1_545
Mn21 O39 1.959656 1_455
Mn21 O44 1.972261 1_555
Mn22 O39 1.951515 1_555
Mn22 O2 1.951686 1_555
Mn22 O0 1.964414 1_555
Mn22 O46 1.965989 1_555
Mn22 O42 1.994700 1_655
Mn22 O44 1.996536 1_655
Mn23 O48 1.940079 1_555
Mn23 O38 1.945301 1_555
Mn23 O50 1.946834 1_555
Mn23 O47 1.954168 1_555
Mn23 O42 1.973927 1_555
Mn23 O44 1.991134 1_555
Mn24 O45 1.936538 1_545
Mn24 O43 1.944543 1_555
Mn24 O40 1.956442 1_555
Mn24 O48 1.957026 1_555
Mn24 O47 1.957568 1_555
Mn24 O52 1.962901 1_555
Mn25 O51 1.982618 1_555
Mn25 O41 1.982618 1_445
Mn25 O49 1.993331 1_545
Mn25 O43 1.993331 1_455
Mn25 O45 2.156270 1_445
Mn25 O29 2.156270 1_555
Mn26 O52 1.947740 1_555
Mn26 O9 1.950199 1_555
Mn26 O53 1.951978 1_555
Mn26 O47 1.955734 1_555
Mn26 O50 1.962186 1_555
Mn26 O54 1.977352 1_555
Mn27 O49 1.928939 1_555
Mn27 O51 1.941377 1_565
Mn27 O36 1.945010 1_555
Mn27 O53 1.963724 1_555
Mn27 O55 1.989304 1_555
Mn27 O54 1.995774 1_555
