# generated using pymatgen
data_LaTh
_symmetry_space_group_name_H-M   'P 1'
_cell_length_a   12.59789469
_cell_length_b   12.59789469
_cell_length_c   12.59789403
_cell_angle_alpha   33.48241198
_cell_angle_beta   33.48241198
_cell_angle_gamma   33.48242004
_symmetry_Int_Tables_number   1
_chemical_formula_structural   LaTh
_chemical_formula_sum   'La8 Th8'
_cell_volume   541.95032662
_cell_formula_units_Z   8
loop_
 _symmetry_equiv_pos_site_id
 _symmetry_equiv_pos_as_xyz
  1  'x, y, z'
loop_
 _atom_site_type_symbol
 _atom_site_label
 _atom_site_symmetry_multiplicity
 _atom_site_fract_x
 _atom_site_fract_y
 _atom_site_fract_z
 _atom_site_occupancy
  La  La0_0  1  0.00000000  0.00000000  0.00000000  1
  La  La0_1  1  0.00000000  0.00000000  0.50000000  1
  La  La0_2  1  0.00000000  0.50000000  0.00000000  1
  La  La0_3  1  0.00000000  0.50000000  0.50000000  1
  La  La0_4  1  0.50000000  0.00000000  0.00000000  1
  La  La0_5  1  0.50000000  0.00000000  0.50000000  1
  La  La0_6  1  0.50000000  0.50000000  0.00000000  1
  La  La0_7  1  0.50000000  0.50000000  0.50000000  1
  Th  Th0_0  1  0.25000000  0.25000000  0.25000000  1
  Th  Th0_1  1  0.25000000  0.25000000  0.75000000  1
  Th  Th0_2  1  0.25000000  0.75000000  0.25000000  1
  Th  Th0_3  1  0.25000000  0.75000000  0.75000000  1
  Th  Th0_4  1  0.75000000  0.25000000  0.25000000  1
  Th  Th0_5  1  0.75000000  0.25000000  0.75000000  1
  Th  Th0_6  1  0.75000000  0.75000000  0.25000000  1
  Th  Th0_7  1  0.75000000  0.75000000  0.75000000  1
loop_
_geom_bond_atom_site_label_1
_geom_bond_atom_site_label_2
_geom_bond_distance
_geom_bond_site_symmetry_2
La0_0 La0_3 3.628815 1_545
La0_0 La0_5 3.628815 1_455
La0_0 La0_5 3.628815 1_554
La0_0 La0_3 3.628815 1_554
La0_0 La0_6 3.628815 1_545
La0_0 La0_6 3.628816 1_455
La0_0 Th0_1 3.634729 1_554
La0_0 Th0_6 3.634729 1_445
La0_0 Th0_3 3.634730 1_544
La0_0 Th0_5 3.634730 1_454
La0_0 Th0_4 3.634730 1_455
La0_0 Th0_2 3.634730 1_545
La0_1 La0_2 3.628815 1_546
La0_1 La0_4 3.628815 1_456
La0_1 La0_4 3.628815 1_555
La0_1 La0_2 3.628815 1_555
La0_1 La0_7 3.628815 1_545
La0_1 La0_7 3.628815 1_455
La0_1 Th0_0 3.634729 1_555
La0_1 Th0_7 3.634729 1_445
La0_1 Th0_2 3.634730 1_545
La0_1 Th0_4 3.634730 1_455
La0_1 Th0_3 3.634730 1_545
La0_1 Th0_5 3.634730 1_455
La0_2 La0_7 3.628815 1_554
La0_2 La0_7 3.628815 1_455
La0_2 La0_4 3.628815 1_555
La0_2 La0_4 3.628815 1_465
La0_2 Th0_3 3.634729 1_554
La0_2 Th0_4 3.634729 1_455
La0_2 Th0_1 3.634730 1_554
La0_2 Th0_7 3.634730 1_454
La0_2 Th0_0 3.634730 1_555
La0_2 Th0_6 3.634730 1_455
La0_3 La0_6 3.628815 1_555
La0_3 La0_6 3.628815 1_456
La0_3 La0_5 3.628815 1_465
La0_3 La0_5 3.628815 1_555
La0_3 Th0_2 3.634729 1_555
La0_3 Th0_5 3.634729 1_455
La0_3 Th0_7 3.634730 1_455
La0_3 Th0_1 3.634730 1_555
La0_3 Th0_0 3.634730 1_555
La0_3 Th0_6 3.634730 1_455
La0_4 La0_7 3.628815 1_554
La0_4 La0_7 3.628815 1_545
La0_4 Th0_5 3.634729 1_554
La0_4 Th0_2 3.634729 1_545
La0_4 Th0_1 3.634730 1_554
La0_4 Th0_7 3.634730 1_544
La0_4 Th0_6 3.634730 1_545
La0_4 Th0_0 3.634730 1_555
La0_5 La0_6 3.628815 1_546
La0_5 La0_6 3.628815 1_555
La0_5 Th0_4 3.634729 1_555
La0_5 Th0_3 3.634729 1_545
La0_5 Th0_7 3.634730 1_545
La0_5 Th0_1 3.634730 1_555
La0_5 Th0_0 3.634730 1_555
La0_5 Th0_6 3.634730 1_545
La0_6 Th0_7 3.634729 1_554
La0_6 Th0_0 3.634729 1_555
La0_6 Th0_4 3.634730 1_555
La0_6 Th0_3 3.634730 1_554
La0_6 Th0_2 3.634730 1_555
La0_6 Th0_5 3.634730 1_554
La0_7 Th0_6 3.634729 1_555
La0_7 Th0_1 3.634729 1_555
La0_7 Th0_5 3.634730 1_555
La0_7 Th0_3 3.634730 1_555
La0_7 Th0_2 3.634730 1_555
La0_7 Th0_4 3.634730 1_555
Th0_0 Th0_3 3.628815 1_545
Th0_0 Th0_5 3.628815 1_554
Th0_0 Th0_3 3.628815 1_554
Th0_0 Th0_5 3.628815 1_455
Th0_0 Th0_6 3.628815 1_545
Th0_0 Th0_6 3.628816 1_455
Th0_1 Th0_2 3.628815 1_546
Th0_1 Th0_4 3.628815 1_555
Th0_1 Th0_2 3.628815 1_555
Th0_1 Th0_4 3.628815 1_456
Th0_1 Th0_7 3.628815 1_545
Th0_1 Th0_7 3.628816 1_455
Th0_2 Th0_7 3.628815 1_554
Th0_2 Th0_7 3.628815 1_455
Th0_2 Th0_4 3.628815 1_555
Th0_2 Th0_4 3.628815 1_465
Th0_3 Th0_6 3.628815 1_555
Th0_3 Th0_6 3.628815 1_456
Th0_3 Th0_5 3.628815 1_465
Th0_3 Th0_5 3.628815 1_555
Th0_4 Th0_7 3.628815 1_554
Th0_4 Th0_7 3.628815 1_545
Th0_5 Th0_6 3.628815 1_546
Th0_5 Th0_6 3.628815 1_555
