# generated using pymatgen
data_MnNi
_symmetry_space_group_name_H-M   'P 1'
_cell_length_a   8.69676872
_cell_length_b   8.69676872
_cell_length_c   8.69676880
_cell_angle_alpha   33.09466276
_cell_angle_beta   33.09466276
_cell_angle_gamma   33.09467139
_symmetry_Int_Tables_number   1
_chemical_formula_structural   MnNi
_chemical_formula_sum   'Mn8 Ni8'
_cell_volume   174.54675317
_cell_formula_units_Z   8
loop_
 _symmetry_equiv_pos_site_id
 _symmetry_equiv_pos_as_xyz
  1  'x, y, z'
loop_
 _atom_site_type_symbol
 _atom_site_label
 _atom_site_symmetry_multiplicity
 _atom_site_fract_x
 _atom_site_fract_y
 _atom_site_fract_z
 _atom_site_occupancy
  Mn  Mn0_0  1  0.00000000  0.00000000  0.00000000  1
  Mn  Mn0_1  1  0.00000000  0.00000000  0.50000000  1
  Mn  Mn0_2  1  0.00000000  0.50000000  0.00000000  1
  Mn  Mn0_3  1  0.00000000  0.50000000  0.50000000  1
  Mn  Mn0_4  1  0.50000000  0.00000000  0.00000000  1
  Mn  Mn0_5  1  0.50000000  0.00000000  0.50000000  1
  Mn  Mn0_6  1  0.50000000  0.50000000  0.00000000  1
  Mn  Mn0_7  1  0.50000000  0.50000000  0.50000000  1
  Ni  Ni0_0  1  0.25000000  0.25000000  0.25000000  1
  Ni  Ni0_1  1  0.25000000  0.25000000  0.75000000  1
  Ni  Ni0_2  1  0.25000000  0.75000000  0.25000000  1
  Ni  Ni0_3  1  0.25000000  0.75000000  0.75000000  1
  Ni  Ni0_4  1  0.75000000  0.25000000  0.25000000  1
  Ni  Ni0_5  1  0.75000000  0.25000000  0.75000000  1
  Ni  Ni0_6  1  0.75000000  0.75000000  0.25000000  1
  Ni  Ni0_7  1  0.75000000  0.75000000  0.75000000  1
loop_
_geom_bond_atom_site_label_1
_geom_bond_atom_site_label_2
_geom_bond_distance
_geom_bond_site_symmetry_2
Mn0_0 Mn0_3 2.476903 1_554
Mn0_0 Mn0_5 2.476903 1_554
Mn0_0 Mn0_3 2.476903 1_545
Mn0_0 Mn0_5 2.476903 1_455
Mn0_0 Mn0_6 2.476904 1_455
Mn0_0 Mn0_6 2.476904 1_545
Mn0_0 Ni0_1 2.502174 1_554
Mn0_0 Ni0_6 2.502174 1_445
Mn0_0 Ni0_4 2.502174 1_455
Mn0_0 Ni0_2 2.502174 1_545
Mn0_0 Ni0_5 2.502174 1_454
Mn0_0 Ni0_3 2.502174 1_544
Mn0_1 Mn0_2 2.476903 1_546
Mn0_1 Mn0_4 2.476903 1_456
Mn0_1 Mn0_4 2.476903 1_555
Mn0_1 Mn0_2 2.476903 1_555
Mn0_1 Mn0_7 2.476904 1_545
Mn0_1 Mn0_7 2.476904 1_455
Mn0_1 Ni0_0 2.502174 1_555
Mn0_1 Ni0_7 2.502174 1_445
Mn0_1 Ni0_3 2.502174 1_545
Mn0_1 Ni0_5 2.502174 1_455
Mn0_1 Ni0_2 2.502174 1_545
Mn0_1 Ni0_4 2.502174 1_455
Mn0_2 Mn0_7 2.476903 1_554
Mn0_2 Mn0_7 2.476903 1_455
Mn0_2 Mn0_4 2.476904 1_465
Mn0_2 Mn0_4 2.476904 1_555
Mn0_2 Ni0_3 2.502174 1_554
Mn0_2 Ni0_4 2.502174 1_455
Mn0_2 Ni0_6 2.502174 1_455
Mn0_2 Ni0_0 2.502174 1_555
Mn0_2 Ni0_1 2.502174 1_554
Mn0_2 Ni0_7 2.502174 1_454
Mn0_3 Mn0_6 2.476903 1_555
Mn0_3 Mn0_6 2.476903 1_456
Mn0_3 Mn0_5 2.476904 1_555
Mn0_3 Mn0_5 2.476904 1_465
Mn0_3 Ni0_2 2.502174 1_555
Mn0_3 Ni0_5 2.502174 1_455
Mn0_3 Ni0_7 2.502174 1_455
Mn0_3 Ni0_1 2.502174 1_555
Mn0_3 Ni0_0 2.502174 1_555
Mn0_3 Ni0_6 2.502174 1_455
Mn0_4 Mn0_7 2.476903 1_554
Mn0_4 Mn0_7 2.476903 1_545
Mn0_4 Ni0_5 2.502174 1_554
Mn0_4 Ni0_2 2.502174 1_545
Mn0_4 Ni0_6 2.502174 1_545
Mn0_4 Ni0_0 2.502174 1_555
Mn0_4 Ni0_1 2.502174 1_554
Mn0_4 Ni0_7 2.502174 1_544
Mn0_5 Mn0_6 2.476903 1_555
Mn0_5 Mn0_6 2.476903 1_546
Mn0_5 Ni0_4 2.502174 1_555
Mn0_5 Ni0_3 2.502174 1_545
Mn0_5 Ni0_7 2.502174 1_545
Mn0_5 Ni0_1 2.502174 1_555
Mn0_5 Ni0_0 2.502174 1_555
Mn0_5 Ni0_6 2.502174 1_545
Mn0_6 Ni0_7 2.502174 1_554
Mn0_6 Ni0_0 2.502174 1_555
Mn0_6 Ni0_4 2.502174 1_555
Mn0_6 Ni0_2 2.502174 1_555
Mn0_6 Ni0_3 2.502174 1_554
Mn0_6 Ni0_5 2.502174 1_554
Mn0_7 Ni0_1 2.502174 1_555
Mn0_7 Ni0_6 2.502174 1_555
Mn0_7 Ni0_3 2.502174 1_555
Mn0_7 Ni0_2 2.502174 1_555
Mn0_7 Ni0_4 2.502174 1_555
Mn0_7 Ni0_5 2.502174 1_555
Ni0_0 Ni0_3 2.476903 1_554
Ni0_0 Ni0_5 2.476903 1_455
Ni0_0 Ni0_5 2.476903 1_554
Ni0_0 Ni0_3 2.476903 1_545
Ni0_0 Ni0_6 2.476904 1_545
Ni0_0 Ni0_6 2.476904 1_455
Ni0_1 Ni0_4 2.476903 1_555
Ni0_1 Ni0_4 2.476903 1_456
Ni0_1 Ni0_2 2.476903 1_546
Ni0_1 Ni0_2 2.476903 1_555
Ni0_1 Ni0_7 2.476904 1_455
Ni0_1 Ni0_7 2.476904 1_545
Ni0_2 Ni0_7 2.476903 1_554
Ni0_2 Ni0_7 2.476903 1_455
Ni0_2 Ni0_4 2.476904 1_555
Ni0_2 Ni0_4 2.476904 1_465
Ni0_3 Ni0_6 2.476903 1_456
Ni0_3 Ni0_6 2.476903 1_555
Ni0_3 Ni0_5 2.476904 1_465
Ni0_3 Ni0_5 2.476904 1_555
Ni0_4 Ni0_7 2.476903 1_554
Ni0_4 Ni0_7 2.476903 1_545
Ni0_5 Ni0_6 2.476903 1_546
Ni0_5 Ni0_6 2.476903 1_555
