# generated using pymatgen
data_Al2CuMo
_symmetry_space_group_name_H-M   'P 1'
_cell_length_a   4.76985749
_cell_length_b   4.76985749
_cell_length_c   4.76985749
_cell_angle_alpha   132.37619831
_cell_angle_beta   132.37619831
_cell_angle_gamma   69.63550760
_symmetry_Int_Tables_number   1
_chemical_formula_structural   Al2CuMo
_chemical_formula_sum   'Al2 Cu1 Mo1'
_cell_volume   58.08958001
_cell_formula_units_Z   1
loop_
 _symmetry_equiv_pos_site_id
 _symmetry_equiv_pos_as_xyz
  1  'x, y, z'
loop_
 _atom_site_type_symbol
 _atom_site_label
 _atom_site_symmetry_multiplicity
 _atom_site_fract_x
 _atom_site_fract_y
 _atom_site_fract_z
 _atom_site_occupancy
  Al  Al0  1  0.75000000  0.25000000  0.50000000  1
  Al  Al1  1  0.25000000  0.75000000  0.50000000  1
  Cu  Cu0  1  0.50000000  0.50000000  0.00000000  1
  Mo  Mo0  1  0.00000000  0.00000000  0.00000000  1
loop_
_geom_bond_atom_site_label_1
_geom_bond_atom_site_label_2
_geom_bond_distance
_geom_bond_site_symmetry_2
Al0 Al1 2.723436 1_656
Al0 Al1 2.723436 1_645
Al0 Al1 2.723436 1_544
Al0 Al1 2.723436 1_555
Al0 Cu0 2.746299 1_545
Al0 Cu0 2.746299 1_555
Al0 Cu0 2.746299 1_656
Al0 Mo0 2.746299 1_655
Al0 Mo0 2.746299 1_656
Al0 Cu0 2.746299 1_556
Al0 Mo0 2.746299 1_555
Al0 Mo0 2.746299 1_666
Al1 Cu0 2.746299 1_555
Al1 Mo0 2.746299 1_565
Al1 Cu0 2.746299 1_455
Al1 Cu0 2.746299 1_566
Al1 Cu0 2.746299 1_556
Al1 Mo0 2.746299 1_555
Al1 Mo0 2.746299 1_566
Al1 Mo0 2.746299 1_666
Cu0 Mo0 2.723436 1_666
Cu0 Mo0 2.723436 1_554
Cu0 Mo0 2.723436 1_565
Cu0 Mo0 2.723436 1_655
