# generated using pymatgen
data_MnFe4
_symmetry_space_group_name_H-M   'P 1'
_cell_length_a   20.47026158
_cell_length_b   20.27288532
_cell_length_c   4.88535111
_cell_angle_alpha   85.41767343
_cell_angle_beta   80.82009970
_cell_angle_gamma   13.76222687
_symmetry_Int_Tables_number   1
_chemical_formula_structural   MnFe4
_chemical_formula_sum   'Mn8 Fe32'
_cell_volume   451.14638756
_cell_formula_units_Z   8
loop_
 _symmetry_equiv_pos_site_id
 _symmetry_equiv_pos_as_xyz
  1  'x, y, z'
loop_
 _atom_site_type_symbol
 _atom_site_label
 _atom_site_symmetry_multiplicity
 _atom_site_fract_x
 _atom_site_fract_y
 _atom_site_fract_z
 _atom_site_occupancy
  Mn  Mn0_0  1  0.00000000  0.00000000  0.00000000  1
  Mn  Mn0_1  1  0.00000000  0.00000000  0.50000000  1
  Mn  Mn0_2  1  0.00000000  0.50000000  0.00000000  1
  Mn  Mn0_3  1  0.00000000  0.50000000  0.50000000  1
  Mn  Mn0_4  1  0.50000000  0.00000000  0.00000000  1
  Mn  Mn0_5  1  0.50000000  0.00000000  0.50000000  1
  Mn  Mn0_6  1  0.50000000  0.50000000  1.00000000  1
  Mn  Mn0_7  1  0.50000000  0.50000000  0.50000000  1
  Fe  Fe0_0  1  0.20036850  0.20036850  0.29963150  1
  Fe  Fe0_1  1  0.20036850  0.20036850  0.79963150  1
  Fe  Fe0_2  1  0.20036850  0.70036850  0.29963150  1
  Fe  Fe0_3  1  0.20036850  0.70036850  0.79963150  1
  Fe  Fe0_4  1  0.70036850  0.20036850  0.29963150  1
  Fe  Fe0_5  1  0.70036850  0.20036850  0.79963150  1
  Fe  Fe0_6  1  0.70036850  0.70036850  0.29963150  1
  Fe  Fe0_7  1  0.70036850  0.70036850  0.79963150  1
  Fe  Fe1_0  1  0.40013550  0.40013550  0.09986450  1
  Fe  Fe1_1  1  0.40013550  0.40013550  0.59986450  1
  Fe  Fe1_2  1  0.40013550  0.90013550  0.09986450  1
  Fe  Fe1_3  1  0.40013550  0.90013550  0.59986450  1
  Fe  Fe1_4  1  0.90013550  0.40013550  0.09986450  1
  Fe  Fe1_5  1  0.90013550  0.40013550  0.59986450  1
  Fe  Fe1_6  1  0.90013550  0.90013550  0.09986450  1
  Fe  Fe1_7  1  0.90013550  0.90013550  0.59986450  1
  Fe  Fe2_0  1  0.09986450  0.09986450  0.40013550  1
  Fe  Fe2_1  1  0.09986450  0.09986450  0.90013550  1
  Fe  Fe2_2  1  0.09986450  0.59986450  0.40013550  1
  Fe  Fe2_3  1  0.09986450  0.59986450  0.90013550  1
  Fe  Fe2_4  1  0.59986450  0.09986450  0.40013550  1
  Fe  Fe2_5  1  0.59986450  0.09986450  0.90013550  1
  Fe  Fe2_6  1  0.59986450  0.59986450  0.40013550  1
  Fe  Fe2_7  1  0.59986450  0.59986450  0.90013550  1
  Fe  Fe3_0  1  0.29963150  0.29963150  0.20036850  1
  Fe  Fe3_1  1  0.29963150  0.29963150  0.70036850  1
  Fe  Fe3_2  1  0.29963150  0.79963150  0.20036850  1
  Fe  Fe3_3  1  0.29963150  0.79963150  0.70036850  1
  Fe  Fe3_4  1  0.79963150  0.29963150  0.20036850  1
  Fe  Fe3_5  1  0.79963150  0.29963150  0.70036850  1
  Fe  Fe3_6  1  0.79963150  0.79963150  0.20036850  1
  Fe  Fe3_7  1  0.79963150  0.79963150  0.70036850  1
loop_
_geom_bond_atom_site_label_1
_geom_bond_atom_site_label_2
_geom_bond_distance
_geom_bond_site_symmetry_2
Fe0_0 Mn0_4 2.439200 1_555
Fe0_0 Mn0_3 2.439200 1_555
Fe0_0 Fe1_5 2.458972 1_455
Fe0_0 Fe1_2 2.458972 1_545
Fe0_1 Mn0_5 2.439200 1_555
Fe0_1 Mn0_2 2.439200 1_556
Fe0_1 Fe1_3 2.458972 1_545
Fe0_1 Fe1_4 2.458972 1_456
Fe0_2 Mn0_6 2.439200 1_554
Fe0_2 Mn0_1 2.439200 1_565
Fe0_2 Fe1_7 2.458972 1_455
Fe0_2 Fe1_0 2.458972 1_555
Fe0_3 Mn0_7 2.439200 1_555
Fe0_3 Mn0_0 2.439200 1_566
Fe0_3 Fe1_6 2.458972 1_456
Fe0_3 Fe1_1 2.458972 1_555
Fe0_4 Mn0_7 2.439200 1_555
Fe0_4 Mn0_0 2.439200 1_655
Fe0_4 Fe1_6 2.458972 1_545
Fe0_4 Fe1_1 2.458972 1_555
Fe0_5 Mn0_1 2.439200 1_655
Fe0_5 Mn0_6 2.439200 1_555
Fe0_5 Fe1_7 2.458972 1_545
Fe0_5 Fe1_0 2.458972 1_556
Fe0_6 Mn0_2 2.439200 1_655
Fe0_6 Mn0_5 2.439200 1_565
Fe0_6 Fe1_4 2.458972 1_555
Fe0_6 Fe1_3 2.458972 1_555
Fe0_7 Mn0_3 2.439200 1_655
Fe0_7 Mn0_4 2.439200 1_566
Fe0_7 Fe1_5 2.458972 1_555
Fe0_7 Fe1_2 2.458972 1_556
Fe1_0 Fe1_1 2.442676 1_555
Fe1_0 Fe1_6 2.442676 1_455
Fe1_0 Fe1_1 2.442676 1_554
Fe1_0 Fe1_6 2.442676 1_545
Fe1_0 Fe2_2 2.460224 1_555
Fe1_0 Fe2_5 2.460224 1_554
Fe1_1 Fe1_7 2.442676 1_455
Fe1_1 Fe1_7 2.442676 1_545
Fe1_1 Fe2_4 2.460224 1_555
Fe1_1 Fe2_3 2.460224 1_555
Fe1_2 Fe1_3 2.442676 1_554
Fe1_2 Fe1_4 2.442676 1_555
Fe1_2 Fe1_3 2.442676 1_555
Fe1_2 Fe1_4 2.442676 1_465
Fe1_2 Fe2_0 2.460224 1_565
Fe1_2 Fe2_7 2.460224 1_554
Fe1_3 Fe1_5 2.442676 1_555
Fe1_3 Fe1_5 2.442676 1_465
Fe1_3 Fe2_6 2.460224 1_555
Fe1_3 Fe2_1 2.460224 1_565
Fe1_4 Fe1_5 2.442676 1_555
Fe1_4 Fe1_5 2.442676 1_554
Fe1_4 Fe2_6 2.460224 1_555
Fe1_4 Fe2_1 2.460224 1_654
Fe1_5 Fe2_0 2.460224 1_655
Fe1_5 Fe2_7 2.460224 1_555
Fe1_6 Fe1_7 2.442676 1_555
Fe1_6 Fe1_7 2.442676 1_554
Fe1_6 Fe2_4 2.460224 1_565
Fe1_6 Fe2_3 2.460224 1_654
Fe1_7 Fe2_2 2.460224 1_655
Fe1_7 Fe2_5 2.460224 1_565
Fe2_0 Fe2_6 2.442676 1_455
Fe2_0 Fe2_1 2.442676 1_554
Fe2_0 Fe2_6 2.442676 1_545
Fe2_0 Fe2_1 2.442676 1_555
Fe2_0 Fe3_2 2.458972 1_545
Fe2_0 Fe3_5 2.458972 1_455
Fe2_1 Fe2_7 2.442676 1_455
Fe2_1 Fe2_7 2.442676 1_545
Fe2_1 Fe3_4 2.458972 1_456
Fe2_1 Fe3_3 2.458972 1_545
Fe2_2 Fe2_3 2.442676 1_554
Fe2_2 Fe2_3 2.442676 1_555
Fe2_2 Fe2_4 2.442676 1_465
Fe2_2 Fe2_4 2.442676 1_555
Fe2_2 Fe3_7 2.458972 1_455
Fe2_2 Fe3_0 2.458972 1_555
Fe2_3 Fe2_5 2.442676 1_465
Fe2_3 Fe2_5 2.442676 1_555
Fe2_3 Fe3_1 2.458972 1_555
Fe2_3 Fe3_6 2.458972 1_456
Fe2_4 Fe2_5 2.442676 1_555
Fe2_4 Fe2_5 2.442676 1_554
Fe2_4 Fe3_1 2.458972 1_555
Fe2_4 Fe3_6 2.458972 1_545
Fe2_5 Fe3_0 2.458972 1_556
Fe2_5 Fe3_7 2.458972 1_545
Fe2_6 Fe2_7 2.442676 1_555
Fe2_6 Fe2_7 2.442676 1_554
Fe2_6 Fe3_3 2.458972 1_555
Fe2_6 Fe3_4 2.458972 1_555
Fe2_7 Fe3_2 2.458972 1_556
Fe2_7 Fe3_5 2.458972 1_555
Fe3_0 Mn0_4 2.439200 1_555
Fe3_0 Mn0_3 2.439200 1_555
Fe3_1 Mn0_2 2.439200 1_556
Fe3_1 Mn0_5 2.439200 1_555
Fe3_2 Mn0_6 2.439200 1_554
Fe3_2 Mn0_1 2.439200 1_565
Fe3_3 Mn0_7 2.439200 1_555
Fe3_3 Mn0_0 2.439200 1_566
Fe3_4 Mn0_7 2.439200 1_555
Fe3_4 Mn0_0 2.439200 1_655
Fe3_5 Mn0_1 2.439200 1_655
Fe3_5 Mn0_6 2.439200 1_555
Fe3_6 Mn0_2 2.439200 1_655
Fe3_6 Mn0_5 2.439200 1_565
Fe3_7 Mn0_3 2.439200 1_655
Fe3_7 Mn0_4 2.439200 1_566
