# generated using pymatgen
data_PH11S(NO4)2
_symmetry_space_group_name_H-M   'P 1'
_cell_length_a   9.37896900
_cell_length_b   6.83742400
_cell_length_c   8.89668665
_cell_angle_alpha   61.44707709
_cell_angle_beta   90.00000000
_cell_angle_gamma   90.00000000
_symmetry_Int_Tables_number   1
_chemical_formula_structural   PH11S(NO4)2
_chemical_formula_sum   'P2 H22 S2 N4 O16'
_cell_volume   501.13688157
_cell_formula_units_Z   2
loop_
 _symmetry_equiv_pos_site_id
 _symmetry_equiv_pos_as_xyz
  1  'x, y, z'
loop_
 _atom_site_type_symbol
 _atom_site_label
 _atom_site_symmetry_multiplicity
 _atom_site_fract_x
 _atom_site_fract_y
 _atom_site_fract_z
 _atom_site_occupancy
  P  P0  1  0.63783400  0.07636900  0.70879700  1
  P  P1  1  0.36216600  0.07636900  0.20879700  1
  H  H0  1  0.22348400  0.27375100  0.96838700  1
  H  H1  1  0.23269500  0.90829800  0.01928200  1
  H  H2  1  0.89108700  0.50227600  0.11921700  1
  H  H3  1  0.68802100  0.42053900  0.99828700  1
  H  H4  1  0.60710600  0.32675500  0.81284400  1
  H  H5  1  0.96233700  0.41093300  0.89109000  1
  H  H6  1  0.41494000  0.94358500  0.72967600  1
  H  H7  1  0.90629800  0.03645300  0.79998900  1
  H  H8  1  0.22114900  0.69112700  0.53361400  1
  H  H9  1  0.40963200  0.58713100  0.34557800  1
  H  H10  1  0.61911200  0.21251200  0.41664500  1
  H  H11  1  0.77651600  0.27375100  0.46838700  1
  H  H12  1  0.76730500  0.90829800  0.51928200  1
  H  H13  1  0.10891300  0.50227600  0.61921700  1
  H  H14  1  0.31197900  0.42053900  0.49828700  1
  H  H15  1  0.58506000  0.94358500  0.22967600  1
  H  H16  1  0.09370200  0.03645300  0.29998900  1
  H  H17  1  0.39289400  0.32675500  0.31284400  1
  H  H18  1  0.03766300  0.41093300  0.39109000  1
  H  H19  1  0.77885100  0.69112700  0.03361400  1
  H  H20  1  0.59036800  0.58713100  0.84557800  1
  H  H21  1  0.38088800  0.21251200  0.91664500  1
  S  S0  1  0.11091400  0.90503000  0.76131000  1
  S  S1  1  0.88908600  0.90503000  0.26131000  1
  N  N0  1  0.87754200  0.68717700  0.47511100  1
  N  N1  1  0.30320600  0.15738800  0.00904900  1
  N  N2  1  0.12245800  0.68717700  0.97511100  1
  N  N3  1  0.69679400  0.15738800  0.50904900  1
  O  O0  1  0.56571200  0.26535100  0.72969400  1
  O  O1  1  0.61569300  0.42976500  0.91302900  1
  O  O2  1  0.01570200  0.08106400  0.78831300  1
  O  O3  1  0.25362800  0.01462900  0.72120400  1
  O  O4  1  0.75994200  0.96499300  0.83051100  1
  O  O5  1  0.51901200  0.90012200  0.73184700  1
  O  O6  1  0.21108100  0.53265000  0.61822500  1
  O  O7  1  0.80239600  0.74510400  0.57630000  1
  O  O8  1  0.43428800  0.26535100  0.22969400  1
  O  O9  1  0.38430700  0.42976500  0.41302900  1
  O  O10  1  0.98429800  0.08106400  0.28831300  1
  O  O11  1  0.74637200  0.01462900  0.22120400  1
  O  O12  1  0.24005800  0.96499300  0.33051100  1
  O  O13  1  0.48098800  0.90012200  0.23184700  1
  O  O14  1  0.78891900  0.53265000  0.11822500  1
  O  O15  1  0.19760400  0.74510400  0.07630000  1
loop_
_geom_bond_atom_site_label_1
_geom_bond_atom_site_label_2
_geom_bond_distance
_geom_bond_site_symmetry_2
H0 N1 1.023628 1_556
H1 O15 1.034226 1_555
H2 O14 0.979624 1_555
H3 O1 0.996874 1_555
H4 O0 1.082192 1_555
H4 O1 1.377357 1_555
H6 O5 1.017815 1_555
H6 O3 1.579756 1_565
H7 O2 1.061327 1_655
H7 O4 1.438699 1_545
H8 O6 0.984867 1_555
H9 O9 0.978273 1_555
H10 N3 1.025922 1_555
H11 N3 1.023628 1_555
H12 O7 1.034226 1_555
H13 O6 0.979624 1_555
H14 O9 0.996874 1_555
H15 O13 1.017815 1_555
H15 O11 1.579756 1_565
H16 O10 1.061327 1_455
H16 O12 1.438699 1_545
H17 O8 1.082192 1_555
H17 O9 1.377357 1_555
H19 O14 0.984867 1_555
H20 O1 0.978273 1_555
H21 N1 1.025922 1_556
N0 O7 1.343466 1_555
N0 S1 1.772027 1_555
N1 P1 1.682161 1_555
N2 O15 1.343466 1_556
N2 S0 1.772027 1_555
N3 P0 1.682161 1_555
O0 P0 1.546421 1_555
O2 S0 1.606318 1_545
O3 S0 1.491604 1_545
O4 P0 1.508573 1_565
O5 P0 1.581131 1_565
O8 P1 1.546421 1_555
O10 S1 1.606318 1_545
O11 S1 1.491604 1_545
O12 P1 1.508573 1_565
O13 P1 1.581131 1_565
