# generated using pymatgen
data_Rb3LiTbV2O8
_symmetry_space_group_name_H-M   'P 1'
_cell_length_a   5.97403382
_cell_length_b   5.97403382
_cell_length_c   9.13674300
_cell_angle_alpha   90.00000000
_cell_angle_beta   90.00000000
_cell_angle_gamma   119.99999801
_symmetry_Int_Tables_number   1
_chemical_formula_structural   Rb3LiTbV2O8
_chemical_formula_sum   'Rb3 Li1 Tb1 V2 O8'
_cell_volume   282.39526040
_cell_formula_units_Z   1
loop_
 _symmetry_equiv_pos_site_id
 _symmetry_equiv_pos_as_xyz
  1  'x, y, z'
loop_
 _atom_site_type_symbol
 _atom_site_label
 _atom_site_symmetry_multiplicity
 _atom_site_fract_x
 _atom_site_fract_y
 _atom_site_fract_z
 _atom_site_occupancy
  Rb  Rb0  1  0.66666700  0.33333300  0.28075900  1
  Rb  Rb1  1  0.33333300  0.66666700  0.78557500  1
  Rb  Rb2  1  0.00000000  0.00000000  0.98597500  1
  Li  Li0  1  0.33333300  0.66666700  0.49593700  1
  Tb  Tb0  1  0.00000000  0.00000000  0.48764400  1
  V  V0  1  0.66666700  0.33333300  0.71710100  1
  V  V1  1  0.33333300  0.66666700  0.24863100  1
  O  O0  1  0.66666700  0.33333300  0.90460500  1
  O  O1  1  0.33333300  0.66666700  0.05900600  1
  O  O2  1  0.82722100  0.65444200  0.65307500  1
  O  O3  1  0.17904900  0.35809700  0.35018100  1
  O  O4  1  0.82722100  0.17277900  0.65307500  1
  O  O5  1  0.17904900  0.82095100  0.35018100  1
  O  O6  1  0.34555800  0.17277900  0.65307500  1
  O  O7  1  0.64190300  0.82095100  0.35018100  1
loop_
_geom_bond_atom_site_label_1
_geom_bond_atom_site_label_2
_geom_bond_distance
_geom_bond_site_symmetry_2
Li0 O5 2.078966 1_555
Li0 O3 2.078974 1_555
Li0 O7 2.078974 1_555
O0 V0 1.713176 1_555
O0 Rb0 3.436822 1_556
O0 Rb2 3.528323 1_655
O0 Rb2 3.528328 1_555
O0 Rb2 3.528328 1_665
O1 V1 1.732555 1_555
O1 Rb1 2.498269 1_554
O1 Rb2 3.513058 1_564
O1 Rb2 3.513064 1_664
O1 Rb2 3.513064 1_554
O2 V0 1.761296 1_555
O2 Tb0 2.341125 1_665
O2 Rb2 3.528129 1_665
O3 V1 1.846482 1_555
O3 Tb0 2.238269 1_555
O3 Rb0 3.056307 1_555
O3 Rb0 3.056307 1_455
O4 V0 1.761291 1_555
O4 Tb0 2.341125 1_655
O4 Rb2 3.528129 1_655
O5 V1 1.846473 1_555
O5 Tb0 2.238273 1_565
O5 Rb0 3.056307 1_455
O5 Rb0 3.056307 1_565
O6 V0 1.761296 1_555
O6 Tb0 2.341125 1_555
O6 Rb2 3.528129 1_555
O7 V1 1.846482 1_555
O7 Tb0 2.238269 1_665
O7 Rb0 3.056307 1_555
O7 Rb0 3.056307 1_565
