# generated using pymatgen
data_WO2
_symmetry_space_group_name_H-M   'P 1'
_cell_length_a   3.31464300
_cell_length_b   9.18138500
_cell_length_c   11.20331800
_cell_angle_alpha   90.00000000
_cell_angle_beta   90.00000000
_cell_angle_gamma   90.00000000
_symmetry_Int_Tables_number   1
_chemical_formula_structural   WO2
_chemical_formula_sum   'W8 O16'
_cell_volume   340.95072817
_cell_formula_units_Z   8
loop_
 _symmetry_equiv_pos_site_id
 _symmetry_equiv_pos_as_xyz
  1  'x, y, z'
loop_
 _atom_site_type_symbol
 _atom_site_label
 _atom_site_symmetry_multiplicity
 _atom_site_fract_x
 _atom_site_fract_y
 _atom_site_fract_z
 _atom_site_occupancy
  W  W0  1  0.75000000  0.43375900  0.11238500  1
  W  W1  1  0.25000000  0.06624100  0.61238500  1
  W  W2  1  0.75000000  0.93375900  0.38761500  1
  W  W3  1  0.25000000  0.56624100  0.88761500  1
  W  W4  1  0.25000000  0.57470000  0.38935000  1
  W  W5  1  0.75000000  0.42530000  0.61065000  1
  W  W6  1  0.25000000  0.07470000  0.11065000  1
  W  W7  1  0.75000000  0.92530000  0.88935000  1
  O  O0  1  0.75000000  0.93626200  0.07291900  1
  O  O1  1  0.25000000  0.06373800  0.92708100  1
  O  O2  1  0.75000000  0.43626200  0.42708100  1
  O  O3  1  0.25000000  0.56373800  0.57291900  1
  O  O4  1  0.75000000  0.00765500  0.72145500  1
  O  O5  1  0.25000000  0.99234500  0.27854500  1
  O  O6  1  0.75000000  0.50765500  0.77854500  1
  O  O7  1  0.25000000  0.49234500  0.22145500  1
  O  O8  1  0.75000000  0.60981000  0.00054300  1
  O  O9  1  0.25000000  0.39019000  0.99945700  1
  O  O10  1  0.75000000  0.10981000  0.49945700  1
  O  O11  1  0.25000000  0.89019000  0.50054300  1
  O  O12  1  0.25000000  0.78542300  0.85620700  1
  O  O13  1  0.75000000  0.21457700  0.14379300  1
  O  O14  1  0.75000000  0.71457700  0.35620700  1
  O  O15  1  0.25000000  0.28542300  0.64379300  1
loop_
_geom_bond_atom_site_label_1
_geom_bond_atom_site_label_2
_geom_bond_distance
_geom_bond_site_symmetry_2
O0 W7 2.059043 1_554
O0 W6 2.130956 1_665
O0 W6 2.130956 1_565
O1 W6 2.059043 1_556
O1 W7 2.130956 1_545
O1 W7 2.130956 1_445
O2 W5 2.059043 1_555
O2 W4 2.130956 1_555
O2 W4 2.130956 1_655
O3 W4 2.059043 1_555
O3 W5 2.130956 1_455
O3 W5 2.130956 1_555
O4 W7 2.027271 1_545
O4 W1 2.128193 1_555
O4 W1 2.128193 1_655
O5 W6 2.027271 1_565
O5 W2 2.128193 1_555
O5 W2 2.128193 1_455
O6 W5 2.027271 1_555
O6 W3 2.128193 1_555
O6 W3 2.128193 1_655
O7 W4 2.027271 1_555
O7 W0 2.128193 1_555
O7 W0 2.128193 1_455
O8 W0 2.045174 1_555
O8 W3 2.123060 1_554
O8 W3 2.123060 1_654
O9 W3 2.045174 1_555
O9 W0 2.123060 1_556
O9 W0 2.123060 1_456
O10 W2 2.045174 1_545
O10 W1 2.123060 1_555
O10 W1 2.123060 1_655
O11 W1 2.045174 1_565
O11 W2 2.123060 1_555
O11 W2 2.123060 1_455
O12 W3 2.042926 1_555
O12 W7 2.129301 1_555
O12 W7 2.129301 1_455
O13 W0 2.042926 1_555
O13 W6 2.129301 1_555
O13 W6 2.129301 1_655
O14 W2 2.042926 1_555
O14 W4 2.129301 1_655
O14 W4 2.129301 1_555
O15 W1 2.042926 1_555
O15 W5 2.129301 1_555
O15 W5 2.129301 1_455
