# generated using pymatgen
data_Mn23As16
_symmetry_space_group_name_H-M   'P 1'
_cell_length_a   6.71900133
_cell_length_b   7.01454312
_cell_length_c   12.85376963
_cell_angle_alpha   82.15619948
_cell_angle_beta   82.28007705
_cell_angle_gamma   104.92936478
_symmetry_Int_Tables_number   1
_chemical_formula_structural   Mn23As16
_chemical_formula_sum   'Mn23 As16'
_cell_volume   570.71830888
_cell_formula_units_Z   1
loop_
 _symmetry_equiv_pos_site_id
 _symmetry_equiv_pos_as_xyz
  1  'x, y, z'
loop_
 _atom_site_type_symbol
 _atom_site_label
 _atom_site_symmetry_multiplicity
 _atom_site_fract_x
 _atom_site_fract_y
 _atom_site_fract_z
 _atom_site_occupancy
  Mn  Mn0  1  0.86445400  0.06706300  0.59690200  1
  Mn  Mn1  1  0.86991200  0.56776200  0.59263200  1
  Mn  Mn2  1  0.12948000  0.93187800  0.40781700  1
  Mn  Mn3  1  0.12975700  0.43171100  0.40876800  1
  Mn  Mn4  1  0.85861900  0.77275000  0.76706100  1
  Mn  Mn5  1  0.86126000  0.27349000  0.76708000  1
  Mn  Mn6  1  0.14512300  0.23035500  0.23221700  1
  Mn  Mn7  1  0.14603100  0.72704300  0.23075900  1
  Mn  Mn8  1  0.21139600  0.12220000  0.71998400  1
  Mn  Mn9  1  0.20903600  0.62062600  0.72004500  1
  Mn  Mn10  1  0.77608400  0.87420700  0.28269000  1
  Mn  Mn11  1  0.77726600  0.37385100  0.28324400  1
  Mn  Mn12  1  0.50453800  0.99855000  0.51029600  1
  Mn  Mn13  1  0.50313600  0.50161000  0.50357900  1
  Mn  Mn14  1  0.42923100  0.61896800  0.90247800  1
  Mn  Mn15  1  0.43017800  0.14419500  0.90418500  1
  Mn  Mn16  1  0.57798900  0.37331800  0.08253500  1
  Mn  Mn17  1  0.57526000  0.87078900  0.08752900  1
  Mn  Mn18  1  0.99563900  0.49817800  0.99953900  1
  Mn  Mn19  1  0.99738700  0.00010500  0.99885800  1
  Mn  Mn20  1  0.52416500  0.94284600  0.75240800  1
  Mn  Mn21  1  0.47681400  0.55641000  0.24578000  1
  Mn  Mn22  1  0.47617100  0.05999600  0.24496700  1
  As  As0  1  0.86997800  0.11717200  0.40565900  1
  As  As1  1  0.87293200  0.61803800  0.40307700  1
  As  As2  1  0.12925600  0.88312100  0.59642300  1
  As  As3  1  0.13146900  0.38139800  0.59698800  1
  As  As4  1  0.40313400  0.25644700  0.37555600  1
  As  As5  1  0.40304700  0.75885300  0.37469200  1
  As  As6  1  0.59159100  0.72658300  0.63677600  1
  As  As7  1  0.59270800  0.25114600  0.63756600  1
  As  As8  1  0.17462300  0.82729300  0.86446800  1
  As  As9  1  0.17334700  0.32802800  0.86359600  1
  As  As10  1  0.82547900  0.17386200  0.13370900  1
  As  As11  1  0.82500000  0.67092400  0.13395600  1
  As  As12  1  0.70281500  0.95191500  0.89840200  1
  As  As13  1  0.70973400  0.45372700  0.89134000  1
  As  As14  1  0.29584200  0.05090000  0.09675700  1
  As  As15  1  0.29869600  0.54829800  0.09582400  1
loop_
_geom_bond_atom_site_label_1
_geom_bond_atom_site_label_2
_geom_bond_distance
_geom_bond_site_symmetry_2
As0 Mn0 2.429109 1_555
As0 Mn2 2.429217 1_645
As0 Mn3 2.444319 1_655
As0 Mn11 2.484682 1_555
As0 Mn10 2.500023 1_545
As0 Mn12 2.506963 1_545
As0 Mn6 2.582929 1_655
As1 Mn1 2.410352 1_555
As1 Mn3 2.420997 1_655
As1 Mn2 2.435351 1_655
As1 Mn11 2.477584 1_555
As1 Mn10 2.482118 1_555
As1 Mn13 2.512664 1_555
As1 Mn7 2.565255 1_655
As2 Mn2 2.401383 1_555
As2 Mn1 2.449138 1_455
As2 Mn0 2.452035 1_465
As2 Mn8 2.474887 1_565
As2 Mn9 2.478189 1_555
As2 Mn12 2.488502 1_555
As2 Mn4 2.540935 1_455
As3 Mn3 2.398832 1_555
As3 Mn1 2.447594 1_455
As3 Mn8 2.457675 1_555
As3 Mn0 2.458316 1_455
As3 Mn9 2.466740 1_555
As3 Mn13 2.494376 1_555
As3 Mn5 2.534350 1_455
As4 Mn22 2.390772 1_555
As4 Mn21 2.395483 1_555
As4 Mn2 2.473181 1_545
As4 Mn3 2.482679 1_555
As4 Mn11 2.504104 1_555
As4 Mn13 2.567271 1_555
As4 Mn12 2.614054 1_545
As4 Mn6 2.687017 1_555
As5 Mn22 2.401602 1_565
As5 Mn21 2.406680 1_555
As5 Mn2 2.472489 1_555
As5 Mn3 2.483533 1_555
As5 Mn10 2.496586 1_555
As5 Mn13 2.561543 1_555
As5 Mn12 2.618893 1_555
As5 Mn7 2.688349 1_555
As6 Mn20 2.346106 1_555
As6 Mn1 2.453781 1_555
As6 Mn13 2.510451 1_555
As6 Mn9 2.522752 1_555
As6 Mn0 2.546619 1_565
As6 Mn12 2.570693 1_555
As6 Mn4 2.604654 1_555
As7 Mn20 2.345368 1_545
As7 Mn1 2.442251 1_555
As7 Mn8 2.513895 1_555
As7 Mn13 2.532267 1_555
As7 Mn0 2.533167 1_555
As7 Mn12 2.584033 1_545
As7 Mn5 2.604673 1_555
As8 Mn20 2.457467 1_555
As8 Mn8 2.520740 1_565
As8 Mn9 2.528457 1_555
As8 Mn14 2.572625 1_555
As8 Mn19 2.575692 1_465
As8 Mn4 2.578469 1_455
As8 Mn18 2.589339 1_455
As8 Mn15 2.594015 1_565
As9 Mn14 2.464138 1_555
As9 Mn15 2.473396 1_555
As9 Mn9 2.503705 1_555
As9 Mn8 2.519580 1_555
As9 Mn5 2.549034 1_455
As9 Mn18 2.578083 1_455
As9 Mn19 2.581975 1_455
As10 Mn22 2.451959 1_555
As10 Mn16 2.529181 1_555
As10 Mn17 2.543488 1_545
As10 Mn18 2.552631 1_554
As10 Mn10 2.562532 1_545
As10 Mn11 2.563227 1_555
As10 Mn19 2.566766 1_554
As10 Mn6 2.608043 1_655
As11 Mn21 2.448978 1_555
As11 Mn17 2.527870 1_555
As11 Mn16 2.536815 1_555
As11 Mn18 2.554029 1_554
As11 Mn11 2.554664 1_555
As11 Mn10 2.571578 1_555
As11 Mn19 2.583786 1_564
As11 Mn7 2.602525 1_655
As12 Mn20 2.358988 1_555
As12 Mn17 2.404050 1_556
As12 Mn19 2.481920 1_565
As12 Mn4 2.511501 1_555
As12 Mn5 2.512258 1_565
As12 Mn15 2.538537 1_565
As12 Mn14 2.562202 1_555
As13 Mn16 2.433378 1_556
As13 Mn5 2.442033 1_555
As13 Mn15 2.446855 1_555
As13 Mn4 2.449862 1_555
As13 Mn14 2.452443 1_555
As13 Mn18 2.499836 1_555
As14 Mn22 2.390573 1_555
As14 Mn15 2.454225 1_554
As14 Mn19 2.482727 1_454
As14 Mn16 2.515370 1_555
As14 Mn17 2.517563 1_545
As14 Mn6 2.534386 1_555
As14 Mn7 2.535473 1_545
As15 Mn21 2.401116 1_555
As15 Mn14 2.458747 1_554
As15 Mn16 2.493014 1_555
As15 Mn18 2.495706 1_454
As15 Mn17 2.509312 1_555
As15 Mn6 2.524531 1_555
As15 Mn7 2.531938 1_555
