# generated using pymatgen
data_Mg14CuSi
_symmetry_space_group_name_H-M   'P 1'
_cell_length_a   6.17594452
_cell_length_b   6.17594452
_cell_length_c   10.18786200
_cell_angle_alpha   90.00000000
_cell_angle_beta   90.00000000
_cell_angle_gamma   119.47661064
_symmetry_Int_Tables_number   1
_chemical_formula_structural   Mg14CuSi
_chemical_formula_sum   'Mg14 Cu1 Si1'
_cell_volume   338.28820753
_cell_formula_units_Z   1
loop_
 _symmetry_equiv_pos_site_id
 _symmetry_equiv_pos_as_xyz
  1  'x, y, z'
loop_
 _atom_site_type_symbol
 _atom_site_label
 _atom_site_symmetry_multiplicity
 _atom_site_fract_x
 _atom_site_fract_y
 _atom_site_fract_z
 _atom_site_occupancy
  Mg  Mg0  1  0.66474900  0.33525100  0.50000000  1
  Mg  Mg1  1  0.16524700  0.83475300  0.50000000  1
  Mg  Mg2  1  0.65947500  0.84035300  0.00000000  1
  Mg  Mg3  1  0.66749000  0.83190600  0.50000000  1
  Mg  Mg4  1  0.15964700  0.34052500  0.00000000  1
  Mg  Mg5  1  0.16809400  0.33251000  0.50000000  1
  Mg  Mg6  1  0.83632500  0.66158400  0.23082400  1
  Mg  Mg7  1  0.83632500  0.66158400  0.76917600  1
  Mg  Mg8  1  0.33841600  0.16367500  0.23082400  1
  Mg  Mg9  1  0.33841600  0.16367500  0.76917600  1
  Mg  Mg10  1  0.83175400  0.16824600  0.24599200  1
  Mg  Mg11  1  0.83175400  0.16824600  0.75400800  1
  Mg  Mg12  1  0.33233700  0.66766300  0.24767100  1
  Mg  Mg13  1  0.33233700  0.66766300  0.75232900  1
  Cu  Cu0  1  0.66746400  0.33253600  0.00000000  1
  Si  Si0  1  0.17017800  0.82982200  0.00000000  1
loop_
_geom_bond_atom_site_label_1
_geom_bond_atom_site_label_2
_geom_bond_distance
_geom_bond_site_symmetry_2
Mg0 Mg3 3.059019 1_555
Mg0 Mg5 3.059019 1_555
Mg0 Mg1 3.112374 1_655
Mg0 Mg1 3.112374 1_545
Mg0 Mg5 3.116995 1_655
Mg0 Mg3 3.116995 1_545
Mg0 Mg10 3.141857 1_555
Mg0 Mg11 3.141857 1_555
Mg0 Mg9 3.256280 1_555
Mg0 Mg6 3.256280 1_555
Mg0 Mg7 3.256280 1_555
Mg0 Mg8 3.256280 1_555
Mg1 Mg3 3.065506 1_455
Mg1 Mg5 3.065506 1_565
Mg1 Mg3 3.110515 1_555
Mg1 Mg5 3.110515 1_555
Mg1 Mg13 3.128300 1_555
Mg1 Mg12 3.128300 1_555
Mg1 Mg8 3.263843 1_565
Mg1 Mg6 3.263843 1_455
Mg1 Mg9 3.263843 1_565
Mg1 Mg7 3.263843 1_455
Mg2 Si0 2.990404 1_555
Mg2 Mg6 3.021372 1_555
Mg2 Mg7 3.021372 1_554
Mg2 Mg4 3.111298 1_555
Mg2 Mg4 3.113440 1_665
Mg2 Si0 3.186580 1_655
Mg3 Mg5 3.108609 1_555
Mg3 Mg5 3.116129 1_665
Mg3 Mg6 3.285353 1_555
Mg3 Mg7 3.285353 1_555
Mg4 Si0 2.990404 1_555
Mg4 Mg8 3.021372 1_555
Mg4 Mg9 3.021372 1_554
Mg4 Si0 3.186580 1_545
Mg5 Mg8 3.285353 1_555
Mg5 Mg9 3.285353 1_555
Mg6 Si0 2.958468 1_655
Mg7 Si0 2.958468 1_656
Mg8 Si0 2.958468 1_545
Mg9 Si0 2.958468 1_546
Mg10 Mg6 3.036970 1_555
Mg10 Mg8 3.036970 1_555
Mg10 Mg2 3.064824 1_545
Mg10 Mg4 3.064824 1_655
Mg10 Mg12 3.112422 1_655
Mg10 Mg12 3.112422 1_545
Mg10 Mg8 3.146900 1_655
Mg10 Mg6 3.146900 1_545
Mg10 Mg5 3.157030 1_655
Mg10 Mg3 3.157030 1_545
Mg11 Mg7 3.036970 1_555
Mg11 Mg9 3.036970 1_555
Mg11 Mg4 3.064824 1_656
Mg11 Mg2 3.064824 1_546
Mg11 Mg13 3.112422 1_655
Mg11 Mg13 3.112422 1_545
Mg11 Mg9 3.146900 1_655
Mg11 Mg7 3.146900 1_545
Mg11 Mg5 3.157030 1_655
Mg11 Mg3 3.157030 1_545
Mg12 Mg6 3.049877 1_455
Mg12 Mg8 3.049877 1_565
Mg12 Si0 3.059369 1_555
Mg12 Mg4 3.076614 1_555
Mg12 Mg2 3.076614 1_555
Mg12 Mg8 3.135947 1_555
Mg12 Mg6 3.135947 1_555
Mg12 Mg5 3.139350 1_555
Mg12 Mg3 3.139350 1_555
Mg13 Mg7 3.049877 1_455
Mg13 Mg9 3.049877 1_565
Mg13 Si0 3.059369 1_556
Mg13 Mg2 3.076614 1_556
Mg13 Mg4 3.076614 1_556
Mg13 Mg7 3.135947 1_555
Mg13 Mg9 3.135947 1_555
Mg13 Mg5 3.139350 1_555
Mg13 Mg3 3.139350 1_555
Cu0 Mg8 2.943076 1_555
Cu0 Mg6 2.943076 1_555
Cu0 Mg9 2.943076 1_554
Cu0 Mg7 2.943076 1_554
Cu0 Mg2 3.015722 1_545
Cu0 Mg4 3.015722 1_655
Cu0 Mg10 3.058249 1_555
Cu0 Mg11 3.058249 1_554
Cu0 Mg2 3.160820 1_555
Cu0 Mg4 3.160820 1_555
