# generated using pymatgen
data_Ho5BiPd2
_symmetry_space_group_name_H-M   'P 1'
_cell_length_a   8.74105129
_cell_length_b   8.74105129
_cell_length_c   8.74105129
_cell_angle_alpha   127.33611789
_cell_angle_beta   127.33611789
_cell_angle_gamma   77.70298671
_symmetry_Int_Tables_number   1
_chemical_formula_structural   Ho5BiPd2
_chemical_formula_sum   'Ho10 Bi2 Pd4'
_cell_volume   409.34435012
_cell_formula_units_Z   2
loop_
 _symmetry_equiv_pos_site_id
 _symmetry_equiv_pos_as_xyz
  1  'x, y, z'
loop_
 _atom_site_type_symbol
 _atom_site_label
 _atom_site_symmetry_multiplicity
 _atom_site_fract_x
 _atom_site_fract_y
 _atom_site_fract_z
 _atom_site_occupancy
  Ho  Ho0  1  -0.00000000  -0.00000000  -0.00000000  1
  Ho  Ho1  1  0.50000000  0.50000000  -0.00000000  1
  Ho  Ho2  1  0.79380898  0.29380898  0.80769956  1
  Ho  Ho3  1  0.20619102  0.70619102  0.19230044  1
  Ho  Ho4  1  0.48610941  0.98610941  0.19230044  1
  Ho  Ho5  1  0.29380898  0.48610941  0.50000000  1
  Ho  Ho6  1  0.01389059  0.20619102  0.50000000  1
  Ho  Ho7  1  0.51389059  0.01389059  0.80769956  1
  Ho  Ho8  1  0.70619102  0.51389059  0.50000000  1
  Ho  Ho9  1  0.98610941  0.79380898  0.50000000  1
  Bi  Bi0  1  0.25000000  0.25000000  -0.00000000  1
  Bi  Bi1  1  0.75000000  0.75000000  -0.00000000  1
  Pd  Pd0  1  0.13786075  0.63786075  0.77572150  1
  Pd  Pd1  1  0.86213925  0.36213925  0.22427850  1
  Pd  Pd2  1  0.63786075  0.86213925  0.50000000  1
  Pd  Pd3  1  0.36213925  0.13786075  0.50000000  1
loop_
_geom_bond_atom_site_label_1
_geom_bond_atom_site_label_2
_geom_bond_distance
_geom_bond_site_symmetry_2
Ho0 Pd1 3.004831 1_455
Ho0 Pd2 3.004831 1_444
Ho0 Pd3 3.004831 1_555
Ho0 Pd0 3.004831 1_544
Ho1 Pd2 3.004831 1_555
Ho1 Pd3 3.004831 1_554
Ho1 Pd0 3.004831 1_554
Ho1 Pd1 3.004831 1_555
Ho2 Pd3 2.960286 1_555
Ho2 Pd2 2.960286 1_545
Ho2 Pd1 2.974657 1_556
Ho3 Pd2 2.960286 1_555
Ho3 Pd3 2.960286 1_565
Ho3 Pd0 2.974657 1_554
Ho4 Pd2 2.960286 1_555
Ho4 Pd3 2.960286 1_565
Ho4 Pd0 2.974657 1_554
Ho5 Pd1 2.960286 1_455
Ho5 Pd0 2.960286 1_555
Ho5 Pd3 2.974657 1_555
Ho6 Pd0 2.960286 1_555
Ho6 Pd1 2.960286 1_455
Ho6 Pd3 2.974657 1_555
Ho7 Pd2 2.960286 1_545
Ho7 Pd3 2.960286 1_555
Ho7 Pd1 2.974657 1_556
Ho8 Pd0 2.960286 1_655
Ho8 Pd1 2.960286 1_555
Ho8 Pd2 2.974657 1_555
Ho9 Pd0 2.960286 1_655
Ho9 Pd1 2.960286 1_555
Ho9 Pd2 2.974657 1_555
Bi0 Ho2 3.297419 1_454
Bi0 Ho3 3.297419 1_555
Bi0 Ho6 3.297419 1_554
Bi0 Ho5 3.297419 1_555
Bi0 Ho9 3.297419 1_444
Bi0 Ho8 3.297419 1_555
Bi0 Ho4 3.297419 1_545
Bi0 Ho7 3.297419 1_554
Bi0 Ho0 3.403654 1_555
Bi0 Ho1 3.403654 1_555
Bi1 Ho3 3.297419 1_655
Bi1 Ho2 3.297419 1_554
Bi1 Ho6 3.297419 1_665
Bi1 Ho5 3.297419 1_554
Bi1 Ho9 3.297419 1_555
Bi1 Ho8 3.297419 1_554
Bi1 Ho4 3.297419 1_555
Bi1 Ho7 3.297419 1_564
Bi1 Ho0 3.403654 1_665
Bi1 Ho1 3.403654 1_555
