# generated using pymatgen
data_EuCrO3
_symmetry_space_group_name_H-M   'P 1'
_cell_length_a   5.39511602
_cell_length_b   5.39569274
_cell_length_c   7.69309849
_cell_angle_alpha   90.00000000
_cell_angle_beta   90.00000000
_cell_angle_gamma   90.00000000
_symmetry_Int_Tables_number   1
_chemical_formula_structural   EuCrO3
_chemical_formula_sum   'Eu4 Cr4 O12'
_cell_volume   223.94908459
_cell_formula_units_Z   4
loop_
 _symmetry_equiv_pos_site_id
 _symmetry_equiv_pos_as_xyz
  1  'x, y, z'
loop_
 _atom_site_type_symbol
 _atom_site_label
 _atom_site_symmetry_multiplicity
 _atom_site_fract_x
 _atom_site_fract_y
 _atom_site_fract_z
 _atom_site_occupancy
  Eu  Eu0  1  0.50358108  0.53125768  0.25000000  1
  Eu  Eu1  1  0.99641892  0.03125768  0.25000000  1
  Eu  Eu2  1  0.49641892  0.46874232  0.75000000  1
  Eu  Eu3  1  0.00358108  0.96874232  0.75000000  1
  Cr  Cr0  1  -0.00000000  0.50000000  0.00000000  1
  Cr  Cr1  1  0.50000000  -0.00000000  0.50000000  1
  Cr  Cr2  1  -0.00000000  0.50000000  0.50000000  1
  Cr  Cr3  1  0.50000000  -0.00000000  0.00000000  1
  O  O0  1  0.43351777  0.98806298  0.25000000  1
  O  O1  1  0.06648223  0.48806298  0.25000000  1
  O  O2  1  0.56648223  0.01193702  0.75000000  1
  O  O3  1  0.93351777  0.51193702  0.75000000  1
  O  O4  1  0.79114833  0.79122133  0.03402104  1
  O  O5  1  0.70885167  0.29122133  0.46597896  1
  O  O6  1  0.20885167  0.20877867  0.53402104  1
  O  O7  1  0.29114833  0.70877867  0.96597896  1
  O  O8  1  0.20885167  0.20877867  0.96597896  1
  O  O9  1  0.29114833  0.70877867  0.53402104  1
  O  O10  1  0.79114833  0.79122133  0.46597896  1
  O  O11  1  0.70885167  0.29122133  0.03402104  1
loop_
_geom_bond_atom_site_label_1
_geom_bond_atom_site_label_2
_geom_bond_distance
_geom_bond_site_symmetry_2
Eu0 O1 2.369688 1_555
Eu0 O5 2.380053 1_555
Eu0 O11 2.380053 1_555
Eu0 O0 2.493598 1_555
Eu0 O9 2.646743 1_555
Eu0 O7 2.646743 1_554
Eu0 O10 2.671196 1_555
Eu0 O4 2.671196 1_555
Eu1 O0 2.369688 1_645
Eu1 O10 2.380053 1_545
Eu1 O4 2.380053 1_545
Eu1 O1 2.493598 1_655
Eu1 O8 2.646743 1_654
Eu1 O6 2.646743 1_655
Eu1 O5 2.671196 1_555
Eu1 O11 2.671196 1_555
Eu2 O3 2.369688 1_555
Eu2 O9 2.380053 1_555
Eu2 O7 2.380053 1_555
Eu2 O2 2.493598 1_555
Eu2 O5 2.646743 1_555
Eu2 O11 2.646743 1_556
Eu2 O8 2.671196 1_555
Eu2 O6 2.671196 1_555
Eu3 O2 2.369688 1_465
Eu3 O8 2.380053 1_565
Eu3 O6 2.380053 1_565
Eu3 O3 2.493598 1_455
Eu3 O10 2.646743 1_455
Eu3 O4 2.646743 1_456
Eu3 O7 2.671196 1_555
Eu3 O9 2.671196 1_555
Cr0 O11 1.950606 1_455
Cr0 O7 1.950606 1_554
Cr0 O8 1.951216 1_554
Cr0 O4 1.951216 1_455
Cr0 O3 1.957494 1_454
Cr0 O1 1.957494 1_555
Cr1 O6 1.950606 1_555
Cr1 O10 1.950606 1_545
Cr1 O9 1.951216 1_545
Cr1 O5 1.951216 1_555
Cr1 O0 1.957494 1_545
Cr1 O2 1.957494 1_555
Cr2 O5 1.950606 1_455
Cr2 O9 1.950606 1_555
Cr2 O10 1.951216 1_455
Cr2 O6 1.951216 1_555
Cr2 O3 1.957494 1_455
Cr2 O1 1.957494 1_555
Cr3 O8 1.950606 1_554
Cr3 O4 1.950606 1_545
Cr3 O7 1.951216 1_544
Cr3 O11 1.951216 1_555
Cr3 O0 1.957494 1_545
Cr3 O2 1.957494 1_554
