# generated using pymatgen
data_MgVFe(P2O7)2
_symmetry_space_group_name_H-M   'P 1'
_cell_length_a   5.05580205
_cell_length_b   8.19349268
_cell_length_c   7.14510973
_cell_angle_alpha   89.74945510
_cell_angle_beta   106.97035935
_cell_angle_gamma   87.67671479
_symmetry_Int_Tables_number   1
_chemical_formula_structural   MgVFe(P2O7)2
_chemical_formula_sum   'Mg1 V1 Fe1 P4 O14'
_cell_volume   282.82213452
_cell_formula_units_Z   1
loop_
 _symmetry_equiv_pos_site_id
 _symmetry_equiv_pos_as_xyz
  1  'x, y, z'
loop_
 _atom_site_type_symbol
 _atom_site_label
 _atom_site_symmetry_multiplicity
 _atom_site_fract_x
 _atom_site_fract_y
 _atom_site_fract_z
 _atom_site_occupancy
  Mg  Mg0  1  0.27595200  0.15084200  0.06738400  1
  V  V0  1  0.21100900  0.51737300  0.71940400  1
  Fe  Fe0  1  0.81851200  0.98128300  0.29209900  1
  P  P0  1  0.37324100  0.19765900  0.50190700  1
  P  P1  1  0.25328600  0.76591600  0.10467700  1
  P  P2  1  0.77757200  0.27993300  0.87818900  1
  P  P3  1  0.60171400  0.69568600  0.49998400  1
  O  O0  1  0.06796700  0.32105700  0.85812200  1
  O  O1  1  0.19831900  0.65387000  0.92443800  1
  O  O2  1  0.16824000  0.06864100  0.49088900  1
  O  O3  1  0.25069700  0.37062700  0.52690800  1
  O  O4  1  0.36859300  0.68264800  0.59805100  1
  O  O5  1  0.58675700  0.42435600  0.88895400  1
  O  O6  1  0.62833600  0.16714000  0.69932800  1
  O  O7  1  0.46398900  0.65111700  0.27061200  1
  O  O8  1  0.40480100  0.91984900  0.07494800  1
  O  O9  1  0.50265100  0.19904600  0.33199800  1
  O  O10  1  0.70792600  0.86496100  0.50898800  1
  O  O11  1  0.82568500  0.55838000  0.57420300  1
  O  O12  1  0.85642600  0.16462900  0.05892300  1
  O  O13  1  0.99171300  0.80655700  0.15762500  1
loop_
_geom_bond_atom_site_label_1
_geom_bond_atom_site_label_2
_geom_bond_distance
_geom_bond_site_symmetry_2
Mg0 O9 1.955148 1_555
Mg0 O8 1.971792 1_545
Mg0 O0 2.057051 1_554
Mg0 O12 2.102591 1_455
Fe0 O13 2.034961 1_555
Fe0 O10 2.039262 1_555
Fe0 O2 2.074030 1_665
Fe0 O8 2.287666 1_555
Fe0 O12 2.292848 1_565
Fe0 O9 2.419539 1_565
O0 P2 1.565955 1_455
O0 V0 2.142782 1_555
O1 P1 1.549402 1_556
O1 V0 1.861312 1_555
O2 P0 1.496602 1_555
O3 P0 1.555598 1_555
O3 V0 1.879810 1_555
O4 P3 1.543752 1_555
O4 V0 1.923760 1_555
O5 P2 1.512756 1_555
O5 V0 2.046568 1_555
O6 P2 1.600183 1_555
O6 P0 1.620008 1_555
O7 P1 1.611511 1_555
O7 P3 1.632127 1_555
O8 P1 1.547142 1_555
O9 P0 1.538245 1_555
O10 P3 1.502375 1_555
O11 P3 1.539502 1_555
O11 V0 1.936096 1_655
O12 P2 1.541869 1_554
O13 P1 1.503453 1_655
