# generated using pymatgen
data_YCo(BO2)5
_symmetry_space_group_name_H-M   'P 1'
_cell_length_a   7.66340900
_cell_length_b   8.64072400
_cell_length_c   12.39631575
_cell_angle_alpha   49.50460158
_cell_angle_beta   90.00000000
_cell_angle_gamma   90.00000000
_symmetry_Int_Tables_number   1
_chemical_formula_structural   YCo(BO2)5
_chemical_formula_sum   'Y4 Co4 B20 O40'
_cell_volume   624.22343699
_cell_formula_units_Z   4
loop_
 _symmetry_equiv_pos_site_id
 _symmetry_equiv_pos_as_xyz
  1  'x, y, z'
loop_
 _atom_site_type_symbol
 _atom_site_label
 _atom_site_symmetry_multiplicity
 _atom_site_fract_x
 _atom_site_fract_y
 _atom_site_fract_z
 _atom_site_occupancy
  Y  Y0  1  0.31523400  0.94243200  0.74222000  1
  Y  Y1  1  0.81523400  0.05756800  0.75778000  1
  Y  Y2  1  0.68476600  0.05756800  0.25778000  1
  Y  Y3  1  0.18476600  0.94243200  0.24222000  1
  Co  Co0  1  0.09693500  0.47186700  0.62957300  1
  Co  Co1  1  0.59693500  0.52813300  0.87042700  1
  Co  Co2  1  0.90306500  0.52813300  0.37042700  1
  Co  Co3  1  0.40306500  0.47186700  0.12957300  1
  B  B0  1  0.18716900  0.52246600  0.91090900  1
  B  B1  1  0.68716900  0.47753400  0.58909100  1
  B  B2  1  0.81283100  0.47753400  0.08909100  1
  B  B3  1  0.31283100  0.52246600  0.41090900  1
  B  B4  1  0.89806700  0.84856800  0.49076600  1
  B  B5  1  0.39806700  0.15143200  0.00923400  1
  B  B6  1  0.10193300  0.15143200  0.50923400  1
  B  B7  1  0.60193300  0.84856800  0.99076600  1
  B  B8  1  0.96790000  0.27896900  0.94293500  1
  B  B9  1  0.46790000  0.72103100  0.55706500  1
  B  B10  1  0.03210000  0.72103100  0.05706500  1
  B  B11  1  0.53210000  0.27896900  0.44293500  1
  B  B12  1  0.17525900  0.08521000  0.89753800  1
  B  B13  1  0.67525900  0.91479000  0.60246200  1
  B  B14  1  0.82474100  0.91479000  0.10246200  1
  B  B15  1  0.32474100  0.08521000  0.39753800  1
  B  B16  1  0.92671500  0.66210600  0.75298200  1
  B  B17  1  0.42671500  0.33789400  0.74701800  1
  B  B18  1  0.07328500  0.33789400  0.24701800  1
  B  B19  1  0.57328500  0.66210600  0.25298200  1
  O  O0  1  0.05496000  0.11335400  0.62961300  1
  O  O1  1  0.55496000  0.88664600  0.87038700  1
  O  O2  1  0.94504000  0.88664600  0.37038700  1
  O  O3  1  0.44504000  0.11335400  0.12961300  1
  O  O4  1  0.84703400  0.42235900  0.57101600  1
  O  O5  1  0.34703400  0.57764100  0.92898400  1
  O  O6  1  0.15296600  0.57764100  0.42898400  1
  O  O7  1  0.65296600  0.42235900  0.07101600  1
  O  O8  1  0.12395600  0.32844100  0.99023100  1
  O  O9  1  0.62395600  0.67155900  0.50976900  1
  O  O10  1  0.87604400  0.67155900  0.00976900  1
  O  O11  1  0.37604400  0.32844100  0.49023100  1
  O  O12  1  0.26850000  0.02578700  0.02286800  1
  O  O13  1  0.76850000  0.97421300  0.47713200  1
  O  O14  1  0.73150000  0.97421300  0.97713200  1
  O  O15  1  0.23150000  0.02578700  0.52286800  1
  O  O16  1  0.11017400  0.90358100  0.92144200  1
  O  O17  1  0.61017400  0.09641900  0.57855800  1
  O  O18  1  0.88982600  0.09641900  0.07855800  1
  O  O19  1  0.38982600  0.90358100  0.42144200  1
  O  O20  1  0.02974000  0.23282500  0.85121900  1
  O  O21  1  0.52974000  0.76717500  0.64878100  1
  O  O22  1  0.97026000  0.76717500  0.14878100  1
  O  O23  1  0.47026000  0.23282500  0.35121900  1
  O  O24  1  0.85196200  0.45691800  0.85935100  1
  O  O25  1  0.35196200  0.54308200  0.64064900  1
  O  O26  1  0.14803800  0.54308200  0.14064900  1
  O  O27  1  0.64803800  0.45691800  0.35935100  1
  O  O28  1  0.09210200  0.68697300  0.80024600  1
  O  O29  1  0.59210200  0.31302700  0.69975400  1
  O  O30  1  0.90789800  0.31302700  0.19975400  1
  O  O31  1  0.40789800  0.68697300  0.30024600  1
  O  O32  1  0.96801900  0.69396100  0.62143400  1
  O  O33  1  0.46801900  0.30603900  0.87856600  1
  O  O34  1  0.03198100  0.30603900  0.37856600  1
  O  O35  1  0.53198100  0.69396100  0.12143400  1
  O  O36  1  0.79540700  0.80950100  0.72622800  1
  O  O37  1  0.29540700  0.19049900  0.77377200  1
  O  O38  1  0.20459300  0.19049900  0.27377200  1
  O  O39  1  0.70459300  0.80950100  0.22622800  1
loop_
_geom_bond_atom_site_label_1
_geom_bond_atom_site_label_2
_geom_bond_distance
_geom_bond_site_symmetry_2
Co0 O6 2.061813 1_555
Co0 O25 2.080102 1_555
Co0 O32 2.101783 1_455
Co0 O20 2.170249 1_555
Co0 O4 2.186505 1_455
Co0 O37 2.403154 1_555
Co1 O7 2.061813 1_556
Co1 O24 2.080102 1_555
Co1 O33 2.101783 1_555
Co1 O21 2.170249 1_555
Co1 O5 2.186505 1_555
Co1 O36 2.403154 1_555
Co2 O4 2.061813 1_555
Co2 O27 2.080102 1_555
Co2 O34 2.101783 1_655
Co2 O22 2.170249 1_555
Co2 O6 2.186505 1_655
Co2 O39 2.403154 1_555
Co3 O5 2.061813 1_554
Co3 O26 2.080102 1_555
Co3 O35 2.101783 1_555
Co3 O23 2.170249 1_555
Co3 O7 2.186505 1_555
Co3 O38 2.403154 1_555
B0 O8 1.367919 1_555
B0 O28 1.378625 1_555
B0 O5 1.384605 1_555
B1 O9 1.367919 1_555
B1 O29 1.378625 1_555
B1 O4 1.384605 1_555
B2 O10 1.367919 1_555
B2 O30 1.378625 1_555
B2 O7 1.384605 1_555
B3 O11 1.367919 1_555
B3 O31 1.378625 1_555
B3 O6 1.384605 1_555
B4 O2 1.351661 1_555
B4 O32 1.373084 1_555
B4 O13 1.398148 1_555
B5 O3 1.351661 1_555
B5 O33 1.373084 1_554
B5 O12 1.398148 1_555
B6 O0 1.351661 1_555
B6 O34 1.373084 1_555
B6 O15 1.398148 1_555
B7 O1 1.351661 1_555
B7 O35 1.373084 1_556
B7 O14 1.398148 1_555
B8 O24 1.469028 1_555
B8 O18 1.492766 1_556
B8 O20 1.504976 1_655
B8 O8 1.510699 1_655
B9 O25 1.469028 1_555
B9 O19 1.492766 1_555
B9 O21 1.504976 1_555
B9 O9 1.510699 1_555
B10 O26 1.469028 1_555
B10 O16 1.492766 1_554
B10 O22 1.504976 1_455
B10 O10 1.510699 1_455
B11 O27 1.469028 1_555
B11 O17 1.492766 1_555
B11 O23 1.504976 1_555
B11 O11 1.510699 1_555
B12 O12 1.466941 1_556
B12 O16 1.481763 1_545
B12 O37 1.488795 1_555
B12 O20 1.499670 1_555
B13 O13 1.466941 1_555
B13 O17 1.481763 1_565
B13 O36 1.488795 1_555
B13 O21 1.499670 1_555
B14 O14 1.466941 1_554
B14 O18 1.481763 1_565
B14 O39 1.488795 1_555
B14 O22 1.499670 1_555
B15 O15 1.466941 1_555
B15 O19 1.481763 1_545
B15 O38 1.488795 1_555
B15 O23 1.499670 1_555
B16 O28 1.469464 1_655
B16 O24 1.474441 1_555
B16 O36 1.481901 1_555
B16 O32 1.500737 1_555
B17 O29 1.469464 1_555
B17 O25 1.474441 1_555
B17 O37 1.481901 1_555
B17 O33 1.500737 1_555
B18 O30 1.469464 1_455
B18 O26 1.474441 1_555
B18 O38 1.481901 1_555
B18 O34 1.500737 1_555
B19 O31 1.469464 1_555
B19 O27 1.474441 1_555
B19 O39 1.481901 1_555
B19 O35 1.500737 1_555
O0 Y1 2.266489 1_455
O0 Y0 2.330361 1_545
O1 Y0 2.266489 1_555
O1 Y1 2.330361 1_565
O2 Y3 2.266489 1_655
O2 Y2 2.330361 1_565
O3 Y2 2.266489 1_555
O3 Y3 2.330361 1_545
O4 Y1 2.424255 1_555
O5 Y0 2.424255 1_555
O6 Y3 2.424255 1_555
O7 Y2 2.424255 1_555
O8 Y3 2.750994 1_546
O9 Y2 2.750994 1_565
O10 Y1 2.750994 1_564
O11 Y0 2.750994 1_545
O12 Y3 2.404315 1_545
O13 Y2 2.404315 1_565
O14 Y1 2.404315 1_565
O15 Y0 2.404315 1_545
O16 Y0 2.559187 1_555
O16 Y1 2.736637 1_465
O17 Y1 2.559187 1_555
O17 Y0 2.736637 1_545
O18 Y2 2.559187 1_555
O18 Y3 2.736637 1_645
O19 Y3 2.559187 1_555
O19 Y2 2.736637 1_565
O20 Y1 2.935179 1_455
O21 Y0 2.935179 1_555
O22 Y3 2.935179 1_655
O23 Y2 2.935179 1_555
O28 Y0 2.500317 1_555
O29 Y1 2.500317 1_555
O30 Y2 2.500317 1_555
O31 Y3 2.500317 1_555
O36 Y1 2.420626 1_565
O37 Y0 2.420626 1_545
O38 Y3 2.420626 1_545
O39 Y2 2.420626 1_565
