# generated using pymatgen
data_Er2U3O11
_symmetry_space_group_name_H-M   'P 1'
_cell_length_a   9.91108491
_cell_length_b   9.91108491
_cell_length_c   9.91108491
_cell_angle_alpha   158.03261521
_cell_angle_beta   148.32556216
_cell_angle_gamma   38.88181593
_symmetry_Int_Tables_number   1
_chemical_formula_structural   Er2U3O11
_chemical_formula_sum   'Er2 U3 O11'
_cell_volume   190.94258872
_cell_formula_units_Z   1
loop_
 _symmetry_equiv_pos_site_id
 _symmetry_equiv_pos_as_xyz
  1  'x, y, z'
loop_
 _atom_site_type_symbol
 _atom_site_label
 _atom_site_symmetry_multiplicity
 _atom_site_fract_x
 _atom_site_fract_y
 _atom_site_fract_z
 _atom_site_occupancy
  Er  Er0  1  0.70309400  0.70309400  0.00000000  1
  Er  Er1  1  0.29690600  0.29690600  0.00000000  1
  U  U0  1  0.90109200  0.90109200  0.00000000  1
  U  U1  1  0.50000000  0.50000000  0.00000000  1
  U  U2  1  0.09890800  0.09890800  0.00000000  1
  O  O0  1  0.28010100  0.00000000  0.28010100  1
  O  O1  1  0.83868800  0.60158900  0.23710000  1
  O  O2  1  0.43233400  0.19363000  0.23870300  1
  O  O3  1  0.04507300  0.80637000  0.23870300  1
  O  O4  1  0.63551100  0.39841100  0.23710000  1
  O  O5  1  0.71989900  0.00000000  0.71989900  1
  O  O6  1  0.36448900  0.60158900  0.76290000  1
  O  O7  1  0.95492700  0.19363000  0.76129700  1
  O  O8  1  0.56766600  0.80637000  0.76129700  1
  O  O9  1  0.16131200  0.39841100  0.76290000  1
  O  O10  1  0.00000000  0.50000000  0.50000000  1
loop_
_geom_bond_atom_site_label_1
_geom_bond_atom_site_label_2
_geom_bond_distance
_geom_bond_site_symmetry_2
Er0 O6 2.290188 1_554
Er0 O1 2.290194 1_555
Er0 O8 2.322491 1_554
Er0 O3 2.322497 1_655
Er0 O2 2.365409 1_565
Er0 O2 2.365412 1_554
Er0 O7 2.365413 1_554
Er0 O7 2.365413 1_565
Er1 O4 2.290188 1_555
Er1 O9 2.290194 1_554
Er1 O2 2.322491 1_555
Er1 O7 2.322497 1_454
Er1 O8 2.365409 1_544
Er1 O8 2.365412 1_555
Er1 O3 2.365413 1_544
Er1 O3 2.365413 1_555
O0 U1 2.231801 1_556
O0 U1 2.231801 1_545
O0 U0 2.390384 1_445
O0 U2 2.390384 1_555
O1 U1 2.291480 1_555
O1 U2 2.364526 1_666
O1 U2 2.364529 1_655
O2 U2 2.191410 1_555
O3 U0 2.191401 1_455
O4 U1 2.291489 1_555
O4 U0 2.364526 1_545
O4 U0 2.364526 1_556
O5 U1 2.231801 1_556
O5 U1 2.231801 1_545
O5 U0 2.390384 1_546
O5 U2 2.390384 1_656
O6 U1 2.291489 1_556
O6 U2 2.364526 1_566
O6 U2 2.364526 1_555
O7 U2 2.191401 1_656
O8 U0 2.191410 1_556
O9 U1 2.291480 1_556
O9 U0 2.364526 1_445
O9 U0 2.364529 1_456
O10 U0 2.642708 1_456
O10 U2 2.642708 1_555
O10 U2 2.642708 1_566
O10 U0 2.642708 1_445
O10 U1 2.704787 1_455
O10 U1 2.704787 1_556
