# generated using pymatgen
data_ZnPH5CNClO3
_symmetry_space_group_name_H-M   'P 1'
_cell_length_a   4.80013147
_cell_length_b   8.22971635
_cell_length_c   16.09645400
_cell_angle_alpha   90.00000000
_cell_angle_beta   90.00000000
_cell_angle_gamma   105.84875977
_symmetry_Int_Tables_number   1
_chemical_formula_structural   ZnPH5CNClO3
_chemical_formula_sum   'Zn4 P4 H20 C4 N4 Cl4 O12'
_cell_volume   611.69781915
_cell_formula_units_Z   4
loop_
 _symmetry_equiv_pos_site_id
 _symmetry_equiv_pos_as_xyz
  1  'x, y, z'
loop_
 _atom_site_type_symbol
 _atom_site_label
 _atom_site_symmetry_multiplicity
 _atom_site_fract_x
 _atom_site_fract_y
 _atom_site_fract_z
 _atom_site_occupancy
  Zn  Zn0  1  0.57952200  0.17219000  0.17908500  1
  Zn  Zn1  1  0.92047800  0.32781000  0.67908500  1
  Zn  Zn2  1  0.42047800  0.82781000  0.82091500  1
  Zn  Zn3  1  0.07952200  0.67219000  0.32091500  1
  P  P0  1  0.95968800  0.91446900  0.16659400  1
  P  P1  1  0.54031200  0.58553100  0.66659300  1
  P  P2  1  0.04031200  0.08553100  0.83340700  1
  P  P3  1  0.45968800  0.41446900  0.33340600  1
  H  H0  1  0.52733800  0.58423900  0.13765400  1
  H  H1  1  0.97266200  0.91576100  0.63765400  1
  H  H2  1  0.47266200  0.41576100  0.86234600  1
  H  H3  1  0.02733800  0.08423900  0.36234600  1
  H  H4  1  0.33631300  0.72508000  0.14934900  1
  H  H5  1  0.16368700  0.77492000  0.64934900  1
  H  H6  1  0.66368700  0.27492000  0.85065100  1
  H  H7  1  0.83631300  0.22508000  0.35065100  1
  H  H8  1  0.34198400  0.63079700  0.05749900  1
  H  H9  1  0.15801600  0.86920300  0.55749900  1
  H  H10  1  0.65801600  0.36920300  0.94250100  1
  H  H11  1  0.84198400  0.13079700  0.44250100  1
  H  H12  1  0.85066400  0.75879000  0.03622600  1
  H  H13  1  0.64933600  0.74121000  0.53622600  1
  H  H14  1  0.14933600  0.24121000  0.96377400  1
  H  H15  1  0.35066400  0.25879000  0.46377400  1
  H  H16  1  0.65402100  0.91221700  0.04578100  1
  H  H17  1  0.84597900  0.58778300  0.54578100  1
  H  H18  1  0.34597900  0.08778300  0.95421900  1
  H  H19  1  0.15402100  0.41221700  0.45421900  1
  C  C0  1  0.72811500  0.81641100  0.07967700  1
  C  C1  1  0.77188500  0.68358900  0.57967700  1
  C  C2  1  0.27188500  0.18358900  0.92032300  1
  C  C3  1  0.22811500  0.31641100  0.42032300  1
  N  N0  1  0.46860500  0.68137600  0.10821400  1
  N  N1  1  0.03139500  0.81862400  0.60821400  1
  N  N2  1  0.53139500  0.31862400  0.89178600  1
  N  N3  1  0.96860500  0.18137600  0.39178600  1
  Cl  Cl0  1  0.79732300  0.37027300  0.08493000  1
  Cl  Cl1  1  0.70267700  0.12972700  0.58493000  1
  Cl  Cl2  1  0.20267700  0.62972700  0.91507000  1
  Cl  Cl3  1  0.29732300  0.87027300  0.41507000  1
  O  O0  1  0.23358400  0.02428000  0.12438800  1
  O  O1  1  0.26641600  0.47572000  0.62438800  1
  O  O2  1  0.76641600  0.97572000  0.87561200  1
  O  O3  1  0.73358400  0.52428000  0.37561200  1
  O  O4  1  0.51964500  0.26262900  0.28773100  1
  O  O5  1  0.98035500  0.23737100  0.78773100  1
  O  O6  1  0.48035500  0.73737100  0.71226900  1
  O  O7  1  0.01964500  0.76262900  0.21226900  1
  O  O8  1  0.79489900  0.01093200  0.22080600  1
  O  O9  1  0.70510100  0.48906800  0.72080600  1
  O  O10  1  0.20510100  0.98906800  0.77919400  1
  O  O11  1  0.29489900  0.51093200  0.27919400  1
loop_
_geom_bond_atom_site_label_1
_geom_bond_atom_site_label_2
_geom_bond_distance
_geom_bond_site_symmetry_2
H0 N0 1.032569 1_555
H1 N1 1.032569 1_655
H2 N2 1.032569 1_555
H3 N3 1.032569 1_455
H4 N0 1.046793 1_555
H5 N1 1.046793 1_555
H6 N2 1.046793 1_555
H7 N3 1.046793 1_555
H8 N0 1.034840 1_555
H9 N1 1.034840 1_555
H10 N2 1.034840 1_555
H11 N3 1.034840 1_555
C0 H16 1.094993 1_555
C0 H12 1.101110 1_555
C0 N0 1.497195 1_555
C0 P0 1.831459 1_555
C1 H17 1.094993 1_555
C1 H13 1.101110 1_555
C1 N1 1.497195 1_655
C1 P1 1.831447 1_555
C2 H18 1.094993 1_555
C2 H14 1.101110 1_555
C2 N2 1.497195 1_555
C2 P2 1.831447 1_555
C3 H19 1.094993 1_555
C3 H15 1.101110 1_555
C3 N3 1.497195 1_455
C3 P3 1.831459 1_555
Cl0 Zn0 2.261969 1_555
Cl1 Zn1 2.261969 1_555
Cl2 Zn2 2.261969 1_555
Cl3 Zn3 2.261969 1_555
O0 P0 1.535515 1_445
O0 Zn0 1.977435 1_555
O1 P1 1.535508 1_555
O1 Zn1 1.977435 1_455
O2 P2 1.535508 1_665
O2 Zn2 1.977435 1_555
O3 P3 1.535515 1_555
O3 Zn3 1.977435 1_655
O4 P3 1.543143 1_555
O4 Zn0 1.952376 1_555
O5 P2 1.543151 1_655
O5 Zn1 1.952376 1_555
O6 P1 1.543151 1_555
O6 Zn2 1.952376 1_555
O7 P0 1.543143 1_455
O7 Zn3 1.952376 1_555
O8 P0 1.536349 1_545
O8 Zn0 2.007591 1_555
O9 P1 1.536358 1_555
O9 Zn1 2.007591 1_555
O10 P2 1.536358 1_565
O10 Zn2 2.007591 1_555
O11 P3 1.536349 1_555
O11 Zn3 2.007591 1_555
