# generated using pymatgen
data_Ca5As3HO13
_symmetry_space_group_name_H-M   'P 1'
_cell_length_a   9.92235569
_cell_length_b   9.92235569
_cell_length_c   7.00853100
_cell_angle_alpha   90.00000000
_cell_angle_beta   90.00000000
_cell_angle_gamma   119.99999791
_symmetry_Int_Tables_number   1
_chemical_formula_structural   Ca5As3HO13
_chemical_formula_sum   'Ca10 As6 H2 O26'
_cell_volume   597.56784724
_cell_formula_units_Z   2
loop_
 _symmetry_equiv_pos_site_id
 _symmetry_equiv_pos_as_xyz
  1  'x, y, z'
loop_
 _atom_site_type_symbol
 _atom_site_label
 _atom_site_symmetry_multiplicity
 _atom_site_fract_x
 _atom_site_fract_y
 _atom_site_fract_z
 _atom_site_occupancy
  Ca  Ca0  1  0.33333300  0.66666700  0.49873000  1
  Ca  Ca1  1  0.66666700  0.33333300  0.99873000  1
  Ca  Ca2  1  0.66666700  0.33333300  0.50196500  1
  Ca  Ca3  1  0.33333300  0.66666700  0.00196500  1
  Ca  Ca4  1  0.75812800  0.74981400  0.25087000  1
  Ca  Ca5  1  0.99168600  0.24187200  0.25087000  1
  Ca  Ca6  1  0.25018600  0.00831400  0.25087000  1
  Ca  Ca7  1  0.24187200  0.25018600  0.75087000  1
  Ca  Ca8  1  0.00831400  0.75812800  0.75087000  1
  Ca  Ca9  1  0.74981400  0.99168600  0.75087000  1
  As  As0  1  0.97291900  0.60179000  0.25141700  1
  As  As1  1  0.62887000  0.02708100  0.25141700  1
  As  As2  1  0.39821000  0.37113000  0.25141700  1
  As  As3  1  0.02708100  0.39821000  0.75141700  1
  As  As4  1  0.37113000  0.97291900  0.75141700  1
  As  As5  1  0.60179000  0.62887000  0.75141700  1
  H  H0  1  0.00000000  0.00000000  0.42528100  1
  H  H1  1  0.00000000  0.00000000  0.92528100  1
  O  O0  1  0.86853300  0.40014700  0.24926700  1
  O  O1  1  0.53161400  0.13146700  0.24926700  1
  O  O2  1  0.59985300  0.46838600  0.24926700  1
  O  O3  1  0.13146700  0.59985300  0.74926700  1
  O  O4  1  0.46838600  0.86853300  0.74926700  1
  O  O5  1  0.40014700  0.53161400  0.74926700  1
  O  O6  1  0.16963900  0.67406000  0.25122300  1
  O  O7  1  0.50442100  0.83036100  0.25122300  1
  O  O8  1  0.32594000  0.49557900  0.25122300  1
  O  O9  1  0.83036100  0.32594000  0.75122300  1
  O  O10  1  0.49557900  0.16963900  0.75122300  1
  O  O11  1  0.67406000  0.50442100  0.75122300  1
  O  O12  1  0.90827400  0.65869700  0.44629000  1
  O  O13  1  0.75042300  0.09172600  0.44629000  1
  O  O14  1  0.34130300  0.24957700  0.44629000  1
  O  O15  1  0.09172600  0.34130300  0.94629000  1
  O  O16  1  0.24957700  0.90827400  0.94629000  1
  O  O17  1  0.65869700  0.75042300  0.94629000  1
  O  O18  1  0.08949000  0.33636500  0.55870100  1
  O  O19  1  0.24687500  0.91051000  0.55870100  1
  O  O20  1  0.66363500  0.75312500  0.55870100  1
  O  O21  1  0.91051000  0.66363500  0.05870100  1
  O  O22  1  0.75312500  0.08949000  0.05870100  1
  O  O23  1  0.33636500  0.24687500  0.05870100  1
  O  O24  1  0.00000000  0.00000000  0.28582700  1
  O  O25  1  0.00000000  0.00000000  0.78582700  1
loop_
_geom_bond_atom_site_label_1
_geom_bond_atom_site_label_2
_geom_bond_distance
_geom_bond_site_symmetry_2
Ca0 O6 2.402436 1_555
Ca0 O7 2.402440 1_555
Ca0 O8 2.402443 1_555
Ca0 O3 2.491334 1_555
Ca0 O4 2.491336 1_555
Ca0 O5 2.491341 1_555
Ca1 O9 2.402436 1_555
Ca1 O10 2.402440 1_555
Ca1 O11 2.402443 1_555
Ca1 O0 2.491334 1_556
Ca1 O1 2.491336 1_556
Ca1 O2 2.491341 1_556
Ca2 O9 2.411312 1_555
Ca2 O10 2.411315 1_555
Ca2 O11 2.411319 1_555
Ca2 O0 2.502032 1_555
Ca2 O1 2.502033 1_555
Ca2 O2 2.502039 1_555
Ca2 O13 2.929558 1_555
Ca2 O12 2.929565 1_555
Ca2 O14 2.929568 1_555
Ca3 O6 2.411312 1_555
Ca3 O7 2.411315 1_555
Ca3 O8 2.411319 1_555
Ca3 O3 2.502032 1_554
Ca3 O4 2.502033 1_554
Ca3 O5 2.502039 1_554
Ca3 O16 2.929558 1_554
Ca3 O15 2.929565 1_554
Ca3 O17 2.929568 1_554
Ca4 O17 2.352897 1_554
Ca4 O20 2.359136 1_555
Ca4 O2 2.424610 1_555
Ca4 O24 2.454490 1_665
Ca4 O21 2.474698 1_555
Ca4 O12 2.501928 1_555
Ca5 O15 2.352897 1_654
Ca5 O18 2.359136 1_655
Ca5 O0 2.424610 1_555
Ca5 O24 2.454490 1_655
Ca5 O22 2.474699 1_555
Ca5 O13 2.501928 1_555
Ca6 O16 2.352897 1_544
Ca6 O19 2.359136 1_545
Ca6 O1 2.424610 1_555
Ca6 O24 2.454490 1_555
Ca6 O23 2.474699 1_555
Ca6 O14 2.501928 1_555
Ca7 O14 2.352897 1_555
Ca7 O23 2.359136 1_556
Ca7 O5 2.424610 1_555
Ca7 O25 2.454490 1_555
Ca7 O18 2.474698 1_555
Ca7 O15 2.501928 1_555
Ca8 O12 2.352897 1_455
Ca8 O21 2.359136 1_456
Ca8 O3 2.424610 1_555
Ca8 O25 2.454490 1_565
Ca8 O19 2.474699 1_555
Ca8 O16 2.501928 1_555
Ca9 O13 2.352897 1_565
Ca9 O22 2.359136 1_566
Ca9 O4 2.424610 1_555
Ca9 O25 2.454490 1_665
Ca9 O20 2.474699 1_555
Ca9 O17 2.501928 1_555
As0 O6 1.710125 1_655
As0 O12 1.719822 1_555
As0 O21 1.721713 1_555
As0 O0 1.733147 1_555
As1 O7 1.710124 1_545
As1 O13 1.719827 1_555
As1 O22 1.721719 1_555
As1 O1 1.733139 1_555
As2 O8 1.710116 1_555
As2 O14 1.719827 1_555
As2 O23 1.721719 1_555
As2 O2 1.733147 1_555
As3 O9 1.710125 1_455
As3 O15 1.719822 1_555
As3 O18 1.721713 1_555
As3 O3 1.733147 1_555
As4 O10 1.710124 1_565
As4 O16 1.719827 1_555
As4 O19 1.721719 1_555
As4 O4 1.733139 1_555
As5 O11 1.710116 1_555
As5 O17 1.719827 1_555
As5 O20 1.721719 1_555
As5 O5 1.733147 1_555
H0 O24 0.977368 1_555
H1 O25 0.977368 1_555
