# generated using pymatgen
data_CeMg2
_symmetry_space_group_name_H-M   'P 1'
_cell_length_a   13.63696315
_cell_length_b   13.63696315
_cell_length_c   14.87070959
_cell_angle_alpha   77.38229800
_cell_angle_beta   77.38229800
_cell_angle_gamma   26.97221415
_symmetry_Int_Tables_number   1
_chemical_formula_structural   CeMg2
_chemical_formula_sum   'Ce16 Mg32'
_cell_volume   1222.23925651
_cell_formula_units_Z   16
loop_
 _symmetry_equiv_pos_site_id
 _symmetry_equiv_pos_as_xyz
  1  'x, y, z'
loop_
 _atom_site_type_symbol
 _atom_site_label
 _atom_site_symmetry_multiplicity
 _atom_site_fract_x
 _atom_site_fract_y
 _atom_site_fract_z
 _atom_site_occupancy
  Ce  Ce0_0  1  0.25694071  0.25694071  0.34131405  1
  Ce  Ce0_1  1  0.25694072  0.25694072  0.84131404  1
  Ce  Ce0_2  1  0.25694071  0.75694072  0.34131405  1
  Ce  Ce0_3  1  0.25694071  0.75694072  0.84131405  1
  Ce  Ce0_4  1  0.75694072  0.25694071  0.34131405  1
  Ce  Ce0_5  1  0.75694072  0.25694071  0.84131405  1
  Ce  Ce0_6  1  0.75694071  0.75694071  0.34131405  1
  Ce  Ce0_7  1  0.75694072  0.75694071  0.84131404  1
  Ce  Ce1_0  1  0.24305929  0.24305929  0.15868595  1
  Ce  Ce1_1  1  0.24305929  0.24305929  0.65868596  1
  Ce  Ce1_2  1  0.24305928  0.74305928  0.15868595  1
  Ce  Ce1_3  1  0.24305928  0.74305928  0.65868596  1
  Ce  Ce1_4  1  0.74305929  0.24305928  0.15868595  1
  Ce  Ce1_5  1  0.74305929  0.24305929  0.65868596  1
  Ce  Ce1_6  1  0.74305928  0.74305928  0.15868595  1
  Ce  Ce1_7  1  0.74305929  0.74305929  0.65868595  1
  Mg  Mg0_0  1  0.39614681  0.39614681  0.32254371  1
  Mg  Mg0_1  1  0.39614681  0.39614681  0.82254372  1
  Mg  Mg0_2  1  0.39614681  0.89614681  0.32254372  1
  Mg  Mg0_3  1  0.39614681  0.89614681  0.82254372  1
  Mg  Mg0_4  1  0.89614681  0.39614681  0.32254372  1
  Mg  Mg0_5  1  0.89614681  0.39614681  0.82254372  1
  Mg  Mg0_6  1  0.89614681  0.89614681  0.32254371  1
  Mg  Mg0_7  1  0.89614681  0.89614681  0.82254372  1
  Mg  Mg1_0  1  0.07549070  0.07549070  0.48275986  1
  Mg  Mg1_1  1  0.07549070  0.07549070  0.98275986  1
  Mg  Mg1_2  1  0.07549070  0.57549070  0.48275986  1
  Mg  Mg1_3  1  0.07549070  0.57549070  0.98275986  1
  Mg  Mg1_4  1  0.57549070  0.07549070  0.48275986  1
  Mg  Mg1_5  1  0.57549070  0.07549070  0.98275986  1
  Mg  Mg1_6  1  0.57549070  0.57549070  0.48275986  1
  Mg  Mg1_7  1  0.57549070  0.57549070  0.98275986  1
  Mg  Mg2_0  1  0.42450930  0.42450930  0.01724014  1
  Mg  Mg2_1  1  0.42450930  0.42450930  0.51724014  1
  Mg  Mg2_2  1  0.42450930  0.92450930  0.01724014  1
  Mg  Mg2_3  1  0.42450930  0.92450930  0.51724014  1
  Mg  Mg2_4  1  0.92450930  0.42450930  0.01724014  1
  Mg  Mg2_5  1  0.92450930  0.42450930  0.51724014  1
  Mg  Mg2_6  1  0.92450930  0.92450930  0.01724014  1
  Mg  Mg2_7  1  0.92450930  0.92450930  0.51724014  1
  Mg  Mg3_0  1  0.10385319  0.10385319  0.17745628  1
  Mg  Mg3_1  1  0.10385319  0.10385319  0.67745628  1
  Mg  Mg3_2  1  0.10385319  0.60385319  0.17745628  1
  Mg  Mg3_3  1  0.10385319  0.60385319  0.67745628  1
  Mg  Mg3_4  1  0.60385319  0.10385319  0.17745628  1
  Mg  Mg3_5  1  0.60385319  0.10385319  0.67745628  1
  Mg  Mg3_6  1  0.60385319  0.60385319  0.17745628  1
  Mg  Mg3_7  1  0.60385319  0.60385319  0.67745628  1
loop_
_geom_bond_atom_site_label_1
_geom_bond_atom_site_label_2
_geom_bond_distance
_geom_bond_site_symmetry_2
Ce0_0 Ce1_0 2.821414 1_555
Ce0_0 Ce0_6 3.180270 1_455
Ce0_0 Ce0_6 3.180270 1_545
Ce0_0 Mg2_3 3.403341 1_545
Ce0_0 Mg2_5 3.403341 1_455
Ce0_0 Mg0_4 3.407273 1_455
Ce0_0 Mg0_2 3.407273 1_545
Ce0_0 Mg1_2 3.460682 1_555
Ce0_0 Mg1_4 3.460682 1_555
Ce0_0 Mg3_4 3.501224 1_555
Ce0_0 Mg3_2 3.501224 1_555
Ce0_0 Mg0_0 3.639483 1_555
Ce0_1 Ce1_1 2.821414 1_555
Ce0_1 Ce0_7 3.180270 1_455
Ce0_1 Ce0_7 3.180270 1_545
Ce0_1 Mg2_4 3.403341 1_456
Ce0_1 Mg2_2 3.403341 1_546
Ce0_1 Mg0_5 3.407273 1_455
Ce0_1 Mg0_3 3.407273 1_545
Ce0_1 Mg1_3 3.460682 1_555
Ce0_1 Mg1_5 3.460682 1_555
Ce0_1 Mg3_3 3.501224 1_555
Ce0_1 Mg3_5 3.501224 1_555
Ce0_1 Mg0_1 3.639483 1_555
Ce0_2 Ce1_2 2.821414 1_555
Ce0_2 Ce0_4 3.180270 1_465
Ce0_2 Ce0_4 3.180270 1_555
Ce0_2 Mg2_7 3.403341 1_455
Ce0_2 Mg2_1 3.403341 1_555
Ce0_2 Mg0_6 3.407273 1_455
Ce0_2 Mg0_0 3.407273 1_555
Ce0_2 Mg1_6 3.460682 1_555
Ce0_2 Mg1_0 3.460682 1_565
Ce0_2 Mg3_0 3.501224 1_565
Ce0_2 Mg3_6 3.501224 1_555
Ce0_2 Mg0_2 3.639483 1_555
Ce0_3 Ce1_3 2.821414 1_555
Ce0_3 Ce0_5 3.180270 1_465
Ce0_3 Ce0_5 3.180270 1_555
Ce0_3 Mg2_0 3.403341 1_556
Ce0_3 Mg2_6 3.403341 1_456
Ce0_3 Mg0_7 3.407273 1_455
Ce0_3 Mg0_1 3.407273 1_555
Ce0_3 Mg1_1 3.460682 1_565
Ce0_3 Mg1_7 3.460682 1_555
Ce0_3 Mg3_1 3.501224 1_565
Ce0_3 Mg3_7 3.501224 1_555
Ce0_3 Mg0_3 3.639483 1_555
Ce0_4 Ce1_4 2.821414 1_555
Ce0_4 Mg2_7 3.403341 1_545
Ce0_4 Mg2_1 3.403341 1_555
Ce0_4 Mg0_0 3.407273 1_555
Ce0_4 Mg0_6 3.407273 1_545
Ce0_4 Mg1_6 3.460682 1_555
Ce0_4 Mg1_0 3.460682 1_655
Ce0_4 Mg3_0 3.501224 1_655
Ce0_4 Mg3_6 3.501224 1_555
Ce0_4 Mg0_4 3.639483 1_555
Ce0_5 Ce1_5 2.821414 1_555
Ce0_5 Mg2_0 3.403341 1_556
Ce0_5 Mg2_6 3.403341 1_546
Ce0_5 Mg0_7 3.407273 1_545
Ce0_5 Mg0_1 3.407273 1_555
Ce0_5 Mg1_1 3.460682 1_655
Ce0_5 Mg1_7 3.460682 1_555
Ce0_5 Mg3_1 3.501224 1_655
Ce0_5 Mg3_7 3.501224 1_555
Ce0_5 Mg0_5 3.639483 1_555
Ce0_6 Ce1_6 2.821414 1_555
Ce0_6 Mg2_5 3.403341 1_555
Ce0_6 Mg2_3 3.403341 1_555
Ce0_6 Mg0_4 3.407273 1_555
Ce0_6 Mg0_2 3.407273 1_555
Ce0_6 Mg1_4 3.460682 1_565
Ce0_6 Mg1_2 3.460682 1_655
Ce0_6 Mg3_4 3.501224 1_565
Ce0_6 Mg3_2 3.501224 1_655
Ce0_6 Mg0_6 3.639483 1_555
Ce0_7 Ce1_7 2.821414 1_555
Ce0_7 Mg2_4 3.403341 1_556
Ce0_7 Mg2_2 3.403341 1_556
Ce0_7 Mg0_5 3.407273 1_555
Ce0_7 Mg0_3 3.407273 1_555
Ce0_7 Mg1_3 3.460682 1_655
Ce0_7 Mg1_5 3.460682 1_565
Ce0_7 Mg3_3 3.501224 1_655
Ce0_7 Mg3_5 3.501224 1_565
Ce0_7 Mg0_7 3.639483 1_555
Ce1_0 Ce1_6 3.180270 1_455
Ce1_0 Ce1_6 3.180270 1_545
Ce1_0 Mg1_3 3.403341 1_554
Ce1_0 Mg1_5 3.403341 1_554
Ce1_0 Mg3_2 3.407273 1_555
Ce1_0 Mg3_4 3.407273 1_555
Ce1_0 Mg2_4 3.460682 1_455
Ce1_0 Mg2_2 3.460682 1_545
Ce1_0 Mg0_4 3.501224 1_455
Ce1_0 Mg0_2 3.501224 1_545
Ce1_0 Mg3_0 3.639483 1_555
Ce1_1 Ce1_7 3.180270 1_545
Ce1_1 Ce1_7 3.180270 1_455
Ce1_1 Mg1_2 3.403341 1_555
Ce1_1 Mg1_4 3.403341 1_555
Ce1_1 Mg3_3 3.407273 1_555
Ce1_1 Mg3_5 3.407273 1_555
Ce1_1 Mg2_3 3.460682 1_545
Ce1_1 Mg2_5 3.460682 1_455
Ce1_1 Mg0_5 3.501224 1_455
Ce1_1 Mg0_3 3.501224 1_545
Ce1_1 Mg3_1 3.639483 1_555
Ce1_2 Ce1_4 3.180270 1_465
Ce1_2 Ce1_4 3.180270 1_555
Ce1_2 Mg1_7 3.403341 1_554
Ce1_2 Mg1_1 3.403341 1_564
Ce1_2 Mg3_0 3.407273 1_565
Ce1_2 Mg3_6 3.407273 1_555
Ce1_2 Mg2_0 3.460682 1_555
Ce1_2 Mg2_6 3.460682 1_455
Ce1_2 Mg0_6 3.501224 1_455
Ce1_2 Mg0_0 3.501224 1_555
Ce1_2 Mg3_2 3.639483 1_555
Ce1_3 Ce1_5 3.180270 1_465
Ce1_3 Ce1_5 3.180270 1_555
Ce1_3 Mg1_6 3.403341 1_555
Ce1_3 Mg1_0 3.403341 1_565
Ce1_3 Mg3_1 3.407273 1_565
Ce1_3 Mg3_7 3.407273 1_555
Ce1_3 Mg2_7 3.460682 1_455
Ce1_3 Mg2_1 3.460682 1_555
Ce1_3 Mg0_7 3.501224 1_455
Ce1_3 Mg0_1 3.501224 1_555
Ce1_3 Mg3_3 3.639483 1_555
Ce1_4 Mg1_1 3.403341 1_654
Ce1_4 Mg1_7 3.403341 1_554
Ce1_4 Mg3_0 3.407273 1_655
Ce1_4 Mg3_6 3.407273 1_555
Ce1_4 Mg2_0 3.460682 1_555
Ce1_4 Mg2_6 3.460682 1_545
Ce1_4 Mg0_0 3.501224 1_555
Ce1_4 Mg0_6 3.501224 1_545
Ce1_4 Mg3_4 3.639483 1_555
Ce1_5 Mg1_6 3.403341 1_555
Ce1_5 Mg1_0 3.403341 1_655
Ce1_5 Mg3_1 3.407273 1_655
Ce1_5 Mg3_7 3.407273 1_555
Ce1_5 Mg2_7 3.460682 1_545
Ce1_5 Mg2_1 3.460682 1_555
Ce1_5 Mg0_7 3.501224 1_545
Ce1_5 Mg0_1 3.501224 1_555
Ce1_5 Mg3_5 3.639483 1_555
Ce1_6 Mg1_3 3.403341 1_654
Ce1_6 Mg1_5 3.403341 1_564
Ce1_6 Mg3_2 3.407273 1_655
Ce1_6 Mg3_4 3.407273 1_565
Ce1_6 Mg2_4 3.460682 1_555
Ce1_6 Mg2_2 3.460682 1_555
Ce1_6 Mg0_4 3.501224 1_555
Ce1_6 Mg0_2 3.501224 1_555
Ce1_6 Mg3_6 3.639483 1_555
Ce1_7 Mg1_4 3.403341 1_565
Ce1_7 Mg1_2 3.403341 1_655
Ce1_7 Mg3_3 3.407273 1_655
Ce1_7 Mg3_5 3.407273 1_565
Ce1_7 Mg2_5 3.460682 1_555
Ce1_7 Mg2_3 3.460682 1_555
Ce1_7 Mg0_5 3.501224 1_555
Ce1_7 Mg0_3 3.501224 1_555
Ce1_7 Mg3_7 3.639483 1_555
Mg0_0 Mg3_4 3.086925 1_555
Mg0_0 Mg3_2 3.086925 1_555
Mg0_0 Mg1_4 3.116201 1_555
Mg0_0 Mg1_2 3.116201 1_555
Mg0_0 Mg2_1 3.150705 1_555
Mg0_0 Mg0_6 3.180270 1_455
Mg0_0 Mg0_6 3.180270 1_545
Mg0_1 Mg3_5 3.086925 1_555
Mg0_1 Mg3_3 3.086925 1_555
Mg0_1 Mg1_5 3.116201 1_555
Mg0_1 Mg1_3 3.116201 1_555
Mg0_1 Mg2_0 3.150705 1_556
Mg0_1 Mg0_7 3.180270 1_455
Mg0_1 Mg0_7 3.180270 1_545
Mg0_2 Mg3_6 3.086925 1_555
Mg0_2 Mg3_0 3.086925 1_565
Mg0_2 Mg1_0 3.116201 1_565
Mg0_2 Mg1_6 3.116201 1_555
Mg0_2 Mg2_3 3.150705 1_555
Mg0_2 Mg0_4 3.180270 1_465
Mg0_2 Mg0_4 3.180270 1_555
Mg0_3 Mg3_7 3.086925 1_555
Mg0_3 Mg3_1 3.086925 1_565
Mg0_3 Mg1_7 3.116201 1_555
Mg0_3 Mg1_1 3.116201 1_565
Mg0_3 Mg2_2 3.150705 1_556
Mg0_3 Mg0_5 3.180270 1_555
Mg0_3 Mg0_5 3.180270 1_465
Mg0_4 Mg3_6 3.086925 1_555
Mg0_4 Mg3_0 3.086925 1_655
Mg0_4 Mg1_0 3.116201 1_655
Mg0_4 Mg1_6 3.116201 1_555
Mg0_4 Mg2_5 3.150705 1_555
Mg0_5 Mg3_7 3.086925 1_555
Mg0_5 Mg3_1 3.086925 1_655
Mg0_5 Mg1_1 3.116201 1_655
Mg0_5 Mg1_7 3.116201 1_555
Mg0_5 Mg2_4 3.150705 1_556
Mg0_6 Mg3_2 3.086925 1_655
Mg0_6 Mg3_4 3.086925 1_565
Mg0_6 Mg1_2 3.116201 1_655
Mg0_6 Mg1_4 3.116201 1_565
Mg0_6 Mg2_7 3.150705 1_555
Mg0_7 Mg3_5 3.086925 1_565
Mg0_7 Mg3_3 3.086925 1_655
Mg0_7 Mg1_5 3.116201 1_565
Mg0_7 Mg1_3 3.116201 1_655
Mg0_7 Mg2_6 3.150705 1_556
Mg1_0 Mg3_1 3.150705 1_555
Mg1_0 Mg1_6 3.180270 1_545
Mg1_0 Mg1_6 3.180270 1_455
Mg1_0 Mg2_5 3.208291 1_455
Mg1_0 Mg2_3 3.208291 1_545
Mg1_1 Mg3_0 3.150705 1_556
Mg1_1 Mg1_7 3.180270 1_545
Mg1_1 Mg1_7 3.180270 1_455
Mg1_1 Mg2_2 3.208291 1_546
Mg1_1 Mg2_4 3.208291 1_456
Mg1_2 Mg3_3 3.150705 1_555
Mg1_2 Mg1_4 3.180270 1_555
Mg1_2 Mg1_4 3.180270 1_465
Mg1_2 Mg2_1 3.208291 1_555
Mg1_2 Mg2_7 3.208291 1_455
Mg1_3 Mg3_2 3.150705 1_556
Mg1_3 Mg1_5 3.180270 1_465
Mg1_3 Mg1_5 3.180270 1_555
Mg1_3 Mg2_6 3.208291 1_456
Mg1_3 Mg2_0 3.208291 1_556
Mg1_4 Mg3_5 3.150705 1_555
Mg1_4 Mg2_1 3.208291 1_555
Mg1_4 Mg2_7 3.208291 1_545
Mg1_5 Mg3_4 3.150705 1_556
Mg1_5 Mg2_6 3.208291 1_546
Mg1_5 Mg2_0 3.208291 1_556
Mg1_6 Mg3_7 3.150705 1_555
Mg1_6 Mg2_3 3.208291 1_555
Mg1_6 Mg2_5 3.208291 1_555
Mg1_7 Mg3_6 3.150705 1_556
Mg1_7 Mg2_2 3.208291 1_556
Mg1_7 Mg2_4 3.208291 1_556
Mg2_0 Mg3_4 3.116201 1_555
Mg2_0 Mg3_2 3.116201 1_555
Mg2_0 Mg2_6 3.180270 1_455
Mg2_0 Mg2_6 3.180270 1_545
Mg2_1 Mg3_5 3.116201 1_555
Mg2_1 Mg3_3 3.116201 1_555
Mg2_1 Mg2_7 3.180270 1_545
Mg2_1 Mg2_7 3.180270 1_455
Mg2_2 Mg3_6 3.116201 1_555
Mg2_2 Mg3_0 3.116201 1_565
Mg2_2 Mg2_4 3.180270 1_465
Mg2_2 Mg2_4 3.180270 1_555
Mg2_3 Mg3_1 3.116201 1_565
Mg2_3 Mg3_7 3.116201 1_555
Mg2_3 Mg2_5 3.180270 1_465
Mg2_3 Mg2_5 3.180270 1_555
Mg2_4 Mg3_6 3.116201 1_555
Mg2_4 Mg3_0 3.116201 1_655
Mg2_5 Mg3_1 3.116201 1_655
Mg2_5 Mg3_7 3.116201 1_555
Mg2_6 Mg3_2 3.116201 1_655
Mg2_6 Mg3_4 3.116201 1_565
Mg2_7 Mg3_5 3.116201 1_565
Mg2_7 Mg3_3 3.116201 1_655
Mg3_0 Mg3_6 3.180270 1_545
Mg3_0 Mg3_6 3.180270 1_455
Mg3_1 Mg3_7 3.180270 1_455
Mg3_1 Mg3_7 3.180270 1_545
Mg3_2 Mg3_4 3.180270 1_465
Mg3_2 Mg3_4 3.180270 1_555
Mg3_3 Mg3_5 3.180270 1_465
Mg3_3 Mg3_5 3.180270 1_555
