# generated using pymatgen
data_EuMgAg
_symmetry_space_group_name_H-M   'P 1'
_cell_length_a   4.64988515
_cell_length_b   7.65597079
_cell_length_c   8.80720432
_cell_angle_alpha   89.99999430
_cell_angle_beta   90.00000158
_cell_angle_gamma   89.99999988
_symmetry_Int_Tables_number   1
_chemical_formula_structural   EuMgAg
_chemical_formula_sum   'Eu4 Mg4 Ag4'
_cell_volume   313.53105635
_cell_formula_units_Z   4
loop_
 _symmetry_equiv_pos_site_id
 _symmetry_equiv_pos_as_xyz
  1  'x, y, z'
loop_
 _atom_site_type_symbol
 _atom_site_label
 _atom_site_symmetry_multiplicity
 _atom_site_fract_x
 _atom_site_fract_y
 _atom_site_fract_z
 _atom_site_occupancy
  Eu  Eu0  1  0.24999991  0.53373021  0.17728057  1
  Eu  Eu1  1  0.75000007  0.46627150  0.82270386  1
  Eu  Eu2  1  0.75000009  0.96627038  0.67729632  1
  Eu  Eu3  1  0.25000003  0.03373247  0.32271787  1
  Mg  Mg0  1  0.24999998  0.63658708  0.55977730  1
  Mg  Mg1  1  0.75000005  0.36341322  0.44021910  1
  Mg  Mg2  1  0.74999998  0.86341260  0.05977958  1
  Mg  Mg3  1  0.25000003  0.13658901  0.94022376  1
  Ag  Ag0  1  0.24999991  0.77120716  0.87569942  1
  Ag  Ag1  1  0.74999996  0.22879072  0.12428272  1
  Ag  Ag2  1  0.74999993  0.72878602  0.37571767  1
  Ag  Ag3  1  0.25000008  0.27120962  0.62430082  1
loop_
_geom_bond_atom_site_label_1
_geom_bond_atom_site_label_2
_geom_bond_distance
_geom_bond_site_symmetry_2
Ag0 Mg3 2.854492 1_565
Ag0 Mg2 2.920972 1_456
Ag0 Mg2 2.920972 1_556
Ag0 Mg0 2.967142 1_555
Ag0 Eu0 3.218749 1_556
Ag0 Eu2 3.269391 1_455
Ag0 Eu2 3.269392 1_555
Ag0 Eu1 3.327681 1_455
Ag0 Eu1 3.327682 1_555
Ag1 Mg2 2.854427 1_545
Ag1 Mg3 2.920861 1_554
Ag1 Mg3 2.920862 1_654
Ag1 Mg1 2.967266 1_555
Ag1 Eu1 3.218749 1_554
Ag1 Eu3 3.269525 1_555
Ag1 Eu3 3.269525 1_655
Ag1 Eu0 3.327705 1_655
Ag1 Eu0 3.327705 1_555
Ag2 Mg1 2.854384 1_555
Ag2 Mg0 2.920859 1_555
Ag2 Mg0 2.920859 1_655
Ag2 Mg2 2.967291 1_555
Ag2 Eu2 3.218763 1_555
Ag2 Eu0 3.269526 1_655
Ag2 Eu0 3.269526 1_555
Ag2 Eu3 3.327744 1_565
Ag2 Eu3 3.327745 1_665
Ag3 Mg0 2.854457 1_555
Ag3 Mg1 2.920976 1_555
Ag3 Mg1 2.920976 1_455
Ag3 Mg3 2.967150 1_555
Ag3 Eu3 3.218763 1_555
Ag3 Eu1 3.269387 1_555
Ag3 Eu1 3.269387 1_455
Ag3 Eu2 3.327701 1_445
Ag3 Eu2 3.327701 1_545
