# generated using pymatgen
data_Mg(BiO2)2
_symmetry_space_group_name_H-M   'P 1'
_cell_length_a   6.75594792
_cell_length_b   6.75594792
_cell_length_c   22.27842714
_cell_angle_alpha   82.65516002
_cell_angle_beta   82.65516002
_cell_angle_gamma   61.72365523
_symmetry_Int_Tables_number   1
_chemical_formula_structural   Mg(BiO2)2
_chemical_formula_sum   'Mg8 Bi16 O32'
_cell_volume   885.52608115
_cell_formula_units_Z   8
loop_
 _symmetry_equiv_pos_site_id
 _symmetry_equiv_pos_as_xyz
  1  'x, y, z'
loop_
 _atom_site_type_symbol
 _atom_site_label
 _atom_site_symmetry_multiplicity
 _atom_site_fract_x
 _atom_site_fract_y
 _atom_site_fract_z
 _atom_site_occupancy
  Mg  Mg0  1  0.84604500  0.84604500  0.96901000  1
  Mg  Mg1  1  0.37753000  0.37753000  0.87356200  1
  Mg  Mg2  1  0.59479900  0.59479900  0.71826100  1
  Mg  Mg3  1  0.12501700  0.12501700  0.61757700  1
  Mg  Mg4  1  0.87460700  0.87460700  0.37513700  1
  Mg  Mg5  1  0.99874900  0.99874900  0.49630000  1
  Mg  Mg6  1  0.62132900  0.62132900  0.13320100  1
  Mg  Mg7  1  0.75085500  0.75085500  0.25373700  1
  Bi  Bi0  1  0.37538100  0.87196100  0.87432100  1
  Bi  Bi1  1  0.24610800  0.24610800  0.74311500  1
  Bi  Bi2  1  0.87196100  0.37538100  0.87432100  1
  Bi  Bi3  1  0.34830000  0.34830000  0.46890800  1
  Bi  Bi4  1  0.12763500  0.63691500  0.62220800  1
  Bi  Bi5  1  0.89309800  0.89309800  0.77777200  1
  Bi  Bi6  1  0.09631400  0.09631400  0.21653000  1
  Bi  Bi7  1  0.63691500  0.12763500  0.62220800  1
  Bi  Bi8  1  0.87402800  0.37602900  0.37549300  1
  Bi  Bi9  1  0.65417200  0.65417200  0.53488500  1
  Bi  Bi10  1  0.37602900  0.87402800  0.37549300  1
  Bi  Bi11  1  0.10941100  0.62106500  0.12668900  1
  Bi  Bi12  1  0.62106500  0.10941100  0.12668900  1
  Bi  Bi13  1  0.40036600  0.40036600  0.28364800  1
  Bi  Bi14  1  0.50053800  0.50053800  0.00281600  1
  Bi  Bi15  1  0.13567400  0.13567400  0.02821800  1
  O  O0  1  0.68318400  0.19472400  0.93836200  1
  O  O1  1  0.55620700  0.55620700  0.81387900  1
  O  O2  1  0.19472400  0.68318400  0.93836200  1
  O  O3  1  0.68393300  0.68393300  0.94009500  1
  O  O4  1  0.06054500  0.06054500  0.81064300  1
  O  O5  1  0.43308000  0.93364700  0.68390000  1
  O  O6  1  0.53293200  0.09935700  0.81822800  1
  O  O7  1  0.29312500  0.29312500  0.56990700  1
  O  O8  1  0.93364700  0.43308000  0.68390000  1
  O  O9  1  0.21198300  0.21198300  0.92633800  1
  O  O10  1  0.44286200  0.44286200  0.68363700  1
  O  O11  1  0.09935700  0.53293200  0.81822800  1
  O  O12  1  0.15041200  0.72824400  0.43388700  1
  O  O13  1  0.83695100  0.83695100  0.55386700  1
  O  O14  1  0.26547800  0.84880800  0.55820400  1
  O  O15  1  0.05112800  0.05112800  0.31637800  1
  O  O16  1  0.72824400  0.15041200  0.43388700  1
  O  O17  1  0.96461100  0.96461100  0.67491400  1
  O  O18  1  0.17336200  0.17336200  0.44101200  1
  O  O19  1  0.84880800  0.26547800  0.55820400  1
  O  O20  1  0.57899600  0.57899600  0.30923100  1
  O  O21  1  0.89892500  0.48790000  0.19076400  1
  O  O22  1  0.01731100  0.60006300  0.31562400  1
  O  O23  1  0.81565200  0.81565200  0.06352000  1
  O  O24  1  0.48790000  0.89892500  0.19076400  1
  O  O25  1  0.69806100  0.69806100  0.43406300  1
  O  O26  1  0.91509000  0.91509000  0.19328600  1
  O  O27  1  0.60006300  0.01731100  0.31562400  1
  O  O28  1  0.29606500  0.29606500  0.06612900  1
  O  O29  1  0.78903700  0.35409800  0.07549600  1
  O  O30  1  0.44824800  0.44824800  0.18407700  1
  O  O31  1  0.35409800  0.78903700  0.07549600  1
loop_
_geom_bond_atom_site_label_1
_geom_bond_atom_site_label_2
_geom_bond_distance
_geom_bond_site_symmetry_2
Mg0 O3 2.076351 1_555
Mg0 O23 2.082418 1_556
Mg0 O2 2.133331 1_655
Mg0 O0 2.133331 1_565
Mg1 O9 2.096874 1_555
Mg1 O11 2.132098 1_555
Mg1 O6 2.132098 1_555
Mg1 O1 2.289567 1_555
Mg1 O0 2.400751 1_555
Mg1 O2 2.400751 1_555
Mg2 O10 2.026205 1_555
Mg2 O5 2.101521 1_555
Mg2 O8 2.101521 1_555
Mg2 O1 2.110493 1_555
Mg3 O7 2.076762 1_555
Mg3 O17 2.094108 1_445
Mg3 O14 2.182825 1_545
Mg3 O19 2.182825 1_455
Mg3 O5 2.436149 1_545
Mg3 O8 2.436149 1_455
Mg4 O12 2.170216 1_655
Mg4 O16 2.170216 1_565
Mg4 O27 2.176094 1_565
Mg4 O22 2.176094 1_655
Mg4 O15 2.259918 1_665
Mg4 O25 2.261811 1_555
Mg5 O13 2.109440 1_555
Mg5 O19 2.173498 1_565
Mg5 O14 2.173498 1_655
Mg5 O12 2.198724 1_655
Mg5 O16 2.198724 1_565
Mg5 O18 2.208145 1_665
Mg6 O29 2.116332 1_555
Mg6 O31 2.116332 1_555
Mg6 O30 2.153383 1_555
Mg6 O24 2.166105 1_555
Mg6 O21 2.166105 1_555
Mg6 O23 2.539245 1_555
Mg7 O26 2.162939 1_555
Mg7 O22 2.171934 1_655
Mg7 O27 2.171934 1_565
Mg7 O24 2.172464 1_555
Mg7 O21 2.172464 1_555
Mg7 O20 2.183542 1_555
Bi0 O1 2.387676 1_555
Bi0 O2 2.390837 1_555
Bi0 O6 2.402726 1_565
Bi0 O9 2.406141 1_565
Bi0 O4 2.429368 1_565
Bi0 O3 2.429505 1_555
Bi1 O5 2.356205 1_545
Bi1 O8 2.356205 1_455
Bi1 O4 2.435402 1_555
Bi1 O10 2.462330 1_555
Bi1 O6 2.474436 1_555
Bi1 O11 2.474436 1_555
Bi2 O1 2.387676 1_555
Bi2 O0 2.390837 1_555
Bi2 O11 2.402726 1_655
Bi2 O9 2.406141 1_655
Bi2 O4 2.429368 1_655
Bi2 O3 2.429505 1_555
Bi3 O18 2.208823 1_555
Bi3 O7 2.245793 1_555
Bi3 O16 2.342698 1_555
Bi3 O12 2.342698 1_555
Bi4 O14 2.313312 1_555
Bi4 O17 2.348816 1_455
Bi4 O13 2.392702 1_455
Bi4 O10 2.401722 1_555
Bi4 O7 2.429157 1_555
Bi4 O8 2.503688 1_455
Bi5 O4 2.175301 1_665
Bi5 O6 2.285334 1_565
Bi5 O11 2.285334 1_655
Bi5 O17 2.317952 1_555
Bi6 O15 2.208084 1_555
Bi6 O26 2.238441 1_445
Bi6 O21 2.360424 1_455
Bi6 O24 2.360424 1_545
Bi7 O19 2.313312 1_555
Bi7 O17 2.348816 1_545
Bi7 O13 2.392702 1_545
Bi7 O10 2.401722 1_555
Bi7 O7 2.429157 1_555
Bi7 O5 2.503688 1_545
Bi8 O22 2.355585 1_655
Bi8 O16 2.360841 1_555
Bi8 O20 2.382780 1_555
Bi8 O18 2.390667 1_655
Bi8 O25 2.393325 1_555
Bi8 O15 2.414968 1_655
Bi9 O13 2.222671 1_555
Bi9 O25 2.227954 1_555
Bi9 O14 2.334331 1_555
Bi9 O19 2.334331 1_555
Bi10 O27 2.355585 1_565
Bi10 O12 2.360841 1_555
Bi10 O20 2.382780 1_555
Bi10 O18 2.390667 1_565
Bi10 O25 2.393325 1_555
Bi10 O15 2.414968 1_565
Bi11 O21 2.287798 1_455
Bi11 O23 2.327363 1_455
Bi11 O26 2.378111 1_455
Bi11 O28 2.435285 1_555
Bi11 O30 2.464231 1_555
Bi11 O31 2.507119 1_555
Bi12 O24 2.287798 1_545
Bi12 O23 2.327363 1_545
Bi12 O26 2.378111 1_545
Bi12 O28 2.435285 1_555
Bi12 O30 2.464231 1_555
Bi12 O29 2.507119 1_555
Bi13 O30 2.205057 1_555
Bi13 O20 2.229180 1_555
Bi13 O27 2.343351 1_555
Bi13 O22 2.343351 1_555
Bi14 O3 2.364728 1_554
Bi14 O2 2.396500 1_554
Bi14 O0 2.396500 1_554
Bi14 O31 2.443333 1_555
Bi14 O29 2.443333 1_555
Bi14 O28 2.572499 1_555
Bi15 O28 2.154568 1_555
Bi15 O29 2.294303 1_455
Bi15 O31 2.294303 1_545
Bi15 O9 2.310123 1_554
