# generated using pymatgen
data_Sr5(ReN3)2
_symmetry_space_group_name_H-M   'P 1'
_cell_length_a   6.34040607
_cell_length_b   7.08025846
_cell_length_c   13.31839136
_cell_angle_alpha   89.99999918
_cell_angle_beta   100.26978054
_cell_angle_gamma   123.94136768
_symmetry_Int_Tables_number   1
_chemical_formula_structural   Sr5(ReN3)2
_chemical_formula_sum   'Sr10 Re4 N12'
_cell_volume   484.42253731
_cell_formula_units_Z   2
loop_
 _symmetry_equiv_pos_site_id
 _symmetry_equiv_pos_as_xyz
  1  'x, y, z'
loop_
 _atom_site_type_symbol
 _atom_site_label
 _atom_site_symmetry_multiplicity
 _atom_site_fract_x
 _atom_site_fract_y
 _atom_site_fract_z
 _atom_site_occupancy
  Sr  Sr0  1  0.12120000  0.79916200  0.99641200  1
  Sr  Sr1  1  0.87880000  0.67796200  0.50358800  1
  Sr  Sr2  1  0.87880000  0.20083800  0.00358800  1
  Sr  Sr3  1  0.12120000  0.32203800  0.49641200  1
  Sr  Sr4  1  0.31677500  0.06474300  0.71485800  1
  Sr  Sr5  1  0.68322500  0.74796700  0.78514200  1
  Sr  Sr6  1  0.68322500  0.93525700  0.28514200  1
  Sr  Sr7  1  0.31677500  0.25203300  0.21485800  1
  Sr  Sr8  1  0.00000000  0.38573300  0.75000000  1
  Sr  Sr9  1  0.00000000  0.61426700  0.25000000  1
  Re  Re0  1  0.53798500  0.87273400  0.55960100  1
  Re  Re1  1  0.46201500  0.33474800  0.94039900  1
  Re  Re2  1  0.46201500  0.12726600  0.44039900  1
  Re  Re3  1  0.53798500  0.66525200  0.05960100  1
  N  N0  1  0.89189700  0.99697300  0.62192300  1
  N  N1  1  0.10810300  0.10507600  0.87807700  1
  N  N2  1  0.10810300  0.00302700  0.37807700  1
  N  N3  1  0.89189700  0.89492400  0.12192300  1
  N  N4  1  0.29119300  0.69777600  0.64205700  1
  N  N5  1  0.70880700  0.40658200  0.85794300  1
  N  N6  1  0.70880700  0.30222400  0.35794300  1
  N  N7  1  0.29119300  0.59341800  0.14205700  1
  N  N8  1  0.58635900  0.25085900  0.57921700  1
  N  N9  1  0.41364100  0.66450100  0.92078300  1
  N  N10  1  0.41364100  0.74914100  0.42078300  1
  N  N11  1  0.58635900  0.33549900  0.07921700  1
loop_
_geom_bond_atom_site_label_1
_geom_bond_atom_site_label_2
_geom_bond_distance
_geom_bond_site_symmetry_2
N0 Re0 1.905175 1_555
N0 Sr4 2.527247 1_665
N0 Sr3 2.708333 1_665
N0 Sr1 2.708560 1_555
N0 Sr5 2.829305 1_555
N0 Sr8 2.903824 1_665
N1 Re1 1.905174 1_555
N1 Sr5 2.527249 1_445
N1 Sr2 2.708333 1_456
N1 Sr0 2.708560 1_545
N1 Sr4 2.829303 1_555
N1 Sr8 2.903824 1_555
N2 Re2 1.905175 1_555
N2 Sr6 2.527247 1_445
N2 Sr1 2.708333 1_445
N2 Sr3 2.708560 1_555
N2 Sr7 2.829305 1_555
N2 Sr9 2.903824 1_545
N3 Re3 1.905174 1_555
N3 Sr7 2.527249 1_665
N3 Sr0 2.708333 1_654
N3 Sr2 2.708560 1_565
N3 Sr6 2.829303 1_555
N3 Sr9 2.903824 1_655
N4 Re0 1.907137 1_555
N4 Sr8 2.597711 1_555
N4 Sr4 2.681508 1_565
N4 Sr5 2.694603 1_555
N4 Sr3 2.838001 1_555
N4 Sr1 2.851061 1_455
N5 Re1 1.907137 1_555
N5 Sr8 2.597708 1_655
N5 Sr5 2.681508 1_555
N5 Sr4 2.694597 1_555
N5 Sr2 2.837996 1_556
N5 Sr0 2.851065 1_655
N6 Re2 1.907137 1_555
N6 Sr9 2.597711 1_655
N6 Sr6 2.681508 1_545
N6 Sr7 2.694603 1_555
N6 Sr1 2.838001 1_555
N6 Sr3 2.851061 1_655
N7 Re3 1.907137 1_555
N7 Sr9 2.597708 1_555
N7 Sr7 2.681508 1_555
N7 Sr6 2.694597 1_555
N7 Sr0 2.837996 1_554
N7 Sr2 2.851065 1_455
N8 Re2 1.874929 1_555
N8 Re0 2.526722 1_545
N8 Sr4 2.550958 1_555
N8 Sr1 2.828737 1_555
N8 Sr8 2.835497 1_655
N8 Sr3 3.266281 1_555
N9 Re3 1.874928 1_556
N9 Re1 2.526736 1_555
N9 Sr5 2.550960 1_555
N9 Sr0 2.828732 1_555
N9 Sr8 2.835498 1_555
N9 Sr2 3.266277 1_566
N10 Re0 1.874929 1_555
N10 Re2 2.526722 1_565
N10 Sr6 2.550958 1_555
N10 Sr3 2.828737 1_555
N10 Sr9 2.835497 1_555
N10 Sr1 3.266281 1_555
N11 Re1 1.874928 1_554
N11 Re3 2.526736 1_555
N11 Sr7 2.550960 1_555
N11 Sr2 2.828732 1_555
N11 Sr9 2.835498 1_655
N11 Sr0 3.266277 1_544
