# generated using pymatgen
data_CaMg14Ti
_symmetry_space_group_name_H-M   'P 1'
_cell_length_a   6.49382572
_cell_length_b   6.48319282
_cell_length_c   10.32344090
_cell_angle_alpha   90.00000000
_cell_angle_beta   90.00000000
_cell_angle_gamma   119.94585601
_symmetry_Int_Tables_number   1
_chemical_formula_structural   CaMg14Ti
_chemical_formula_sum   'Ca1 Mg14 Ti1'
_cell_volume   376.60090840
_cell_formula_units_Z   1
loop_
 _symmetry_equiv_pos_site_id
 _symmetry_equiv_pos_as_xyz
  1  'x, y, z'
loop_
 _atom_site_type_symbol
 _atom_site_label
 _atom_site_symmetry_multiplicity
 _atom_site_fract_x
 _atom_site_fract_y
 _atom_site_fract_z
 _atom_site_occupancy
  Ca  Ca0  1  0.16736241  0.33368070  0.12500000  1
  Mg  Mg0  1  0.16708099  0.33353999  0.62500000  1
  Mg  Mg1  1  0.16534524  0.83267212  0.62500000  1
  Mg  Mg2  1  0.66202019  0.32871772  0.12500000  1
  Mg  Mg3  1  0.66674245  0.33433605  0.62500000  1
  Mg  Mg4  1  0.66202019  0.83330146  0.12500000  1
  Mg  Mg5  1  0.66674245  0.83240540  0.62500000  1
  Mg  Mg6  1  0.33362754  0.15809012  0.37713055  1
  Mg  Mg7  1  0.33362754  0.15809012  0.87286945  1
  Mg  Mg8  1  0.33362754  0.67553842  0.37713055  1
  Mg  Mg9  1  0.33362754  0.67553842  0.87286945  1
  Mg  Mg10  1  0.82764443  0.16382272  0.38073114  1
  Mg  Mg11  1  0.82764443  0.16382272  0.86926886  1
  Mg  Mg12  1  0.83943069  0.66971585  0.36885246  1
  Mg  Mg13  1  0.83943069  0.66971585  0.88114754  1
  Ti  Ti0  1  0.17402567  0.83701233  0.12500000  1
loop_
_geom_bond_atom_site_label_1
_geom_bond_atom_site_label_2
_geom_bond_distance
_geom_bond_site_symmetry_2
Ca0 Mg4 3.228403 1_555
Ca0 Mg2 3.228403 1_555
Ca0 Mg7 3.234753 1_554
Ca0 Mg6 3.234753 1_555
Ca0 Mg9 3.234759 1_554
Ca0 Mg8 3.234759 1_555
Ca0 Ti0 3.241813 1_555
Ca0 Ti0 3.241813 1_545
Ca0 Mg11 3.259413 1_454
Ca0 Mg10 3.259413 1_455
Ca0 Mg4 3.265661 1_445
Ca0 Mg2 3.265662 1_455
Mg0 Mg10 3.163374 1_455
Mg0 Mg11 3.163374 1_455
Mg0 Mg6 3.199927 1_555
Mg0 Mg7 3.199927 1_555
Mg0 Mg8 3.199933 1_555
Mg0 Mg9 3.199933 1_555
Mg0 Mg1 3.241611 1_545
Mg0 Mg1 3.241611 1_555
Mg0 Mg5 3.242141 1_555
Mg0 Mg3 3.242141 1_555
Mg0 Mg5 3.251690 1_445
Mg0 Mg3 3.251691 1_455
Mg1 Mg8 3.145035 1_555
Mg1 Mg9 3.145035 1_555
Mg1 Mg6 3.145041 1_565
Mg1 Mg7 3.145041 1_565
Mg1 Mg13 3.218008 1_455
Mg1 Mg12 3.218008 1_455
Mg1 Mg3 3.236977 1_455
Mg1 Mg5 3.236977 1_455
Mg1 Mg3 3.256849 1_565
Mg1 Mg5 3.256850 1_555
Mg2 Ti0 3.181029 1_545
Mg2 Mg7 3.192344 1_554
Mg2 Mg6 3.192344 1_555
Mg2 Mg4 3.211879 1_545
Mg2 Mg4 3.271314 1_555
Mg2 Ti0 3.312930 1_655
Mg3 Mg6 3.172556 1_555
Mg3 Mg7 3.172556 1_555
Mg3 Mg5 3.229080 1_555
Mg3 Mg5 3.254113 1_545
Mg4 Ti0 3.181029 1_555
Mg4 Mg9 3.192344 1_554
Mg4 Mg8 3.192344 1_555
Mg4 Ti0 3.312930 1_655
Mg5 Mg8 3.172556 1_555
Mg5 Mg9 3.172556 1_555
Mg6 Mg8 3.128476 1_545
Mg6 Ti0 3.166738 1_545
Mg6 Mg8 3.354717 1_555
Mg7 Mg9 3.128476 1_545
Mg7 Ti0 3.166738 1_546
Mg7 Mg9 3.354717 1_555
Mg8 Ti0 3.166731 1_555
Mg9 Ti0 3.166731 1_556
Mg10 Mg3 3.134636 1_555
Mg10 Mg5 3.134643 1_545
Mg10 Mg8 3.189886 1_545
Mg10 Mg6 3.189886 1_555
Mg10 Mg2 3.227582 1_555
Mg10 Mg4 3.227588 1_545
Mg10 Mg12 3.244593 1_555
Mg10 Mg12 3.244593 1_545
Mg10 Mg8 3.304684 1_655
Mg10 Mg6 3.304684 1_655
Mg11 Mg3 3.134636 1_555
Mg11 Mg5 3.134643 1_545
Mg11 Mg9 3.189886 1_545
Mg11 Mg7 3.189886 1_555
Mg11 Mg2 3.227582 1_556
Mg11 Mg4 3.227588 1_546
Mg11 Mg13 3.244593 1_555
Mg11 Mg13 3.244593 1_545
Mg11 Mg9 3.304684 1_655
Mg11 Mg7 3.304684 1_655
Mg12 Ti0 3.143556 1_655
Mg12 Mg4 3.163728 1_555
Mg12 Mg2 3.163735 1_555
Mg12 Mg6 3.191696 1_665
Mg12 Mg8 3.191697 1_655
Mg12 Mg5 3.247054 1_555
Mg12 Mg3 3.247061 1_555
Mg12 Mg6 3.304708 1_555
Mg12 Mg8 3.304708 1_555
Mg13 Ti0 3.143556 1_656
Mg13 Mg4 3.163728 1_556
Mg13 Mg2 3.163735 1_556
Mg13 Mg7 3.191696 1_665
Mg13 Mg9 3.191697 1_655
Mg13 Mg5 3.247054 1_555
Mg13 Mg3 3.247061 1_555
Mg13 Mg7 3.304708 1_555
Mg13 Mg9 3.304708 1_555
