# generated using pymatgen
data_YAg(IO3)4
_symmetry_space_group_name_H-M   'P 1'
_cell_length_a   16.15183295
_cell_length_b   16.15183295
_cell_length_c   12.68526730
_cell_angle_alpha   89.04270777
_cell_angle_beta   89.04270777
_cell_angle_gamma   20.12712611
_symmetry_Int_Tables_number   1
_chemical_formula_structural   YAg(IO3)4
_chemical_formula_sum   'Y4 Ag4 I16 O48'
_cell_volume   1138.59893177
_cell_formula_units_Z   4
loop_
 _symmetry_equiv_pos_site_id
 _symmetry_equiv_pos_as_xyz
  1  'x, y, z'
loop_
 _atom_site_type_symbol
 _atom_site_label
 _atom_site_symmetry_multiplicity
 _atom_site_fract_x
 _atom_site_fract_y
 _atom_site_fract_z
 _atom_site_occupancy
  Y  Y0  1  0.77078200  0.19548200  0.16840700  1
  Y  Y1  1  0.19548200  0.77078200  0.66840700  1
  Y  Y2  1  0.96926900  0.58584800  0.17385900  1
  Y  Y3  1  0.58584800  0.96926900  0.67385900  1
  Ag  Ag0  1  0.57635900  0.15694000  0.28912200  1
  Ag  Ag1  1  0.15694000  0.57635900  0.78912200  1
  Ag  Ag2  1  0.70623900  0.17312100  0.87616700  1
  Ag  Ag3  1  0.17312100  0.70623900  0.37616700  1
  I  I0  1  0.31832100  0.80002700  0.26020000  1
  I  I1  1  0.80002700  0.31832100  0.76020000  1
  I  I2  1  0.91314600  0.28345600  0.03143000  1
  I  I3  1  0.28345600  0.91314600  0.53143000  1
  I  I4  1  0.30491100  0.70078200  0.96292800  1
  I  I5  1  0.70078200  0.30491100  0.46292800  1
  I  I6  1  0.15396300  0.64220100  0.12777000  1
  I  I7  1  0.64220100  0.15396300  0.62777000  1
  I  I8  1  0.63646800  0.03942300  0.97046100  1
  I  I9  1  0.03942300  0.63646800  0.47046100  1
  I  I10  1  0.43633300  0.96462300  0.07584800  1
  I  I11  1  0.96462300  0.43633300  0.57584800  1
  I  I12  1  0.83769700  0.48545300  0.30599600  1
  I  I13  1  0.48545300  0.83769700  0.80599600  1
  I  I14  1  0.46102800  0.05639600  0.38016700  1
  I  I15  1  0.05639600  0.46102800  0.88016700  1
  O  O0  1  0.07725800  0.94928400  0.28726800  1
  O  O1  1  0.94928400  0.07725800  0.78726800  1
  O  O2  1  0.49565600  0.61529400  0.38116200  1
  O  O3  1  0.61529400  0.49565600  0.88116200  1
  O  O4  1  0.49899200  0.56800600  0.16867700  1
  O  O5  1  0.56800600  0.49899200  0.66867700  1
  O  O6  1  0.98566600  0.11302500  0.09295300  1
  O  O7  1  0.11302500  0.98566600  0.59295300  1
  O  O8  1  0.11385300  0.15616200  0.11417100  1
  O  O9  1  0.15616200  0.11385300  0.61417100  1
  O  O10  1  0.09786100  0.10101200  0.91243400  1
  O  O11  1  0.10101200  0.09786100  0.41243400  1
  O  O12  1  0.06363100  0.87229800  0.03901700  1
  O  O13  1  0.87229800  0.06363100  0.53901700  1
  O  O14  1  0.56429300  0.39608000  0.01050500  1
  O  O15  1  0.39608000  0.56429300  0.51050500  1
  O  O16  1  0.29475300  0.64860500  0.84357900  1
  O  O17  1  0.64860500  0.29475300  0.34357900  1
  O  O18  1  0.93779900  0.90280200  0.21300100  1
  O  O19  1  0.90280200  0.93779900  0.71300100  1
  O  O20  1  0.42681500  0.42688900  0.19098500  1
  O  O21  1  0.42688900  0.42681500  0.69098500  1
  O  O22  1  0.17360700  0.52424800  0.20378100  1
  O  O23  1  0.52424800  0.17360700  0.70378100  1
  O  O24  1  0.73438800  0.93028000  0.10821800  1
  O  O25  1  0.93028000  0.73438800  0.60821800  1
  O  O26  1  0.42796300  0.32257300  0.98188100  1
  O  O27  1  0.32257300  0.42796300  0.48188100  1
  O  O28  1  0.88958900  0.86663700  0.92498400  1
  O  O29  1  0.86663700  0.88958900  0.42498400  1
  O  O30  1  0.68884800  0.80029900  0.04962000  1
  O  O31  1  0.80029900  0.68884800  0.54962000  1
  O  O32  1  0.27242600  0.13761800  0.95127100  1
  O  O33  1  0.13761800  0.27242600  0.45127100  1
  O  O34  1  0.25717500  0.19777400  0.16423200  1
  O  O35  1  0.19777400  0.25717500  0.66423200  1
  O  O36  1  0.76879400  0.65456800  0.25045900  1
  O  O37  1  0.65456800  0.76879400  0.75045900  1
  O  O38  1  0.63153700  0.62137000  0.22136800  1
  O  O39  1  0.62137000  0.63153700  0.72136800  1
  O  O40  1  0.65670400  0.66085700  0.42644600  1
  O  O41  1  0.66085700  0.65670400  0.92644600  1
  O  O42  1  0.71378300  0.87385400  0.31192400  1
  O  O43  1  0.87385400  0.71378300  0.81192400  1
  O  O44  1  0.22131000  0.34264700  0.31934200  1
  O  O45  1  0.34264700  0.22131000  0.81934200  1
  O  O46  1  0.45851900  0.12004100  0.50153700  1
  O  O47  1  0.12004100  0.45851900  0.00153700  1
loop_
_geom_bond_atom_site_label_1
_geom_bond_atom_site_label_2
_geom_bond_distance
_geom_bond_site_symmetry_2
Ag0 O29 2.366751 1_545
Ag0 O22 2.496815 1_555
Ag0 O20 2.556807 1_555
Ag0 O18 2.609030 1_545
Ag0 O42 2.614524 1_545
Ag0 O24 2.778722 1_545
Ag0 O27 2.875913 1_555
Ag1 O28 2.366751 1_455
Ag1 O23 2.496815 1_555
Ag1 O21 2.556807 1_555
Ag1 O19 2.609030 1_455
Ag1 O43 2.614524 1_455
Ag1 O25 2.778722 1_455
Ag1 O26 2.875913 1_555
Ag2 O14 2.387283 1_556
Ag2 O28 2.467455 1_545
Ag2 O19 2.488605 1_545
Ag2 O26 2.712882 1_555
Ag2 O16 2.731179 1_555
Ag2 O1 2.752434 1_555
Ag2 O21 2.824991 1_555
Ag3 O15 2.387283 1_555
Ag3 O29 2.467455 1_455
Ag3 O18 2.488605 1_455
Ag3 O27 2.712882 1_555
Ag3 O17 2.731179 1_555
Ag3 O0 2.752434 1_555
Ag3 O20 2.824991 1_555
I0 O4 1.844905 1_555
I0 O2 1.845664 1_555
I0 O0 1.856378 1_555
I0 O38 2.591032 1_555
I1 O5 1.844905 1_555
I1 O3 1.845664 1_555
I1 O1 1.856378 1_555
I1 O39 2.591032 1_555
I2 O10 1.830812 1_654
I2 O8 1.833934 1_655
I2 O6 1.860811 1_555
I3 O11 1.830812 1_565
I3 O9 1.833934 1_565
I3 O7 1.860811 1_555
I4 O16 1.827528 1_555
I4 O14 1.844885 1_556
I4 O12 1.866445 1_556
I4 O3 2.436369 1_555
I5 O17 1.827528 1_555
I5 O15 1.844885 1_555
I5 O13 1.866445 1_555
I5 O2 2.436369 1_555
I6 O20 1.844886 1_555
I6 O22 1.863793 1_555
I6 O18 1.872156 1_455
I7 O21 1.844886 1_555
I7 O23 1.863793 1_555
I7 O19 1.872156 1_545
I8 O26 1.833460 1_555
I8 O28 1.839840 1_545
I8 O24 1.848380 1_546
I9 O27 1.833460 1_555
I9 O29 1.839840 1_455
I9 O25 1.848380 1_455
I10 O34 1.838803 1_565
I10 O32 1.847866 1_564
I10 O30 1.856355 1_555
I10 O8 2.577412 1_565
I11 O35 1.838803 1_655
I11 O33 1.847866 1_655
I11 O31 1.856355 1_555
I11 O9 2.577412 1_655
I12 O40 1.830220 1_555
I12 O38 1.836628 1_555
I12 O36 1.857256 1_555
I13 O41 1.830220 1_555
I13 O39 1.836628 1_555
I13 O37 1.857256 1_555
I14 O44 1.824089 1_555
I14 O46 1.844279 1_555
I14 O42 1.863554 1_545
I14 O33 2.448580 1_555
I15 O45 1.824089 1_555
I15 O47 1.844279 1_556
I15 O43 1.863554 1_455
I15 O32 2.448580 1_555
O0 Y0 2.382135 1_465
O1 Y1 2.382135 1_645
O4 Y0 2.423543 1_555
O5 Y1 2.423543 1_555
O6 Y0 2.446911 1_555
O7 Y1 2.446911 1_555
O12 Y0 2.444716 1_465
O13 Y1 2.444716 1_645
O14 Y0 2.312438 1_555
O15 Y1 2.312438 1_555
O16 Y1 2.331011 1_555
O17 Y0 2.331011 1_555
O18 Y0 2.441071 1_565
O19 Y1 2.441071 1_655
O20 Y0 2.430256 1_555
O21 Y1 2.430256 1_555
O22 Y2 2.426855 1_455
O23 Y3 2.426855 1_545
O24 Y2 2.520481 1_555
O25 Y3 2.520481 1_555
O30 Y2 2.364619 1_555
O31 Y3 2.364619 1_555
O34 Y2 2.489811 1_455
O35 Y3 2.489811 1_545
O36 Y2 2.417189 1_555
O37 Y3 2.417189 1_555
O42 Y2 2.391351 1_555
O43 Y3 2.391351 1_555
O44 Y2 2.321237 1_455
O45 Y3 2.321237 1_545
O46 Y3 2.346444 1_545
O47 Y2 2.346444 1_455
