# generated using pymatgen
data_Li(PrGe)4
_symmetry_space_group_name_H-M   'P 1'
_cell_length_a   7.50027000
_cell_length_b   8.07524000
_cell_length_c   15.34818700
_cell_angle_alpha   90.00000000
_cell_angle_beta   90.00000000
_cell_angle_gamma   90.00000000
_symmetry_Int_Tables_number   1
_chemical_formula_structural   Li(PrGe)4
_chemical_formula_sum   'Li4 Pr16 Ge16'
_cell_volume   929.58566580
_cell_formula_units_Z   4
loop_
 _symmetry_equiv_pos_site_id
 _symmetry_equiv_pos_as_xyz
  1  'x, y, z'
loop_
 _atom_site_type_symbol
 _atom_site_label
 _atom_site_symmetry_multiplicity
 _atom_site_fract_x
 _atom_site_fract_y
 _atom_site_fract_z
 _atom_site_occupancy
  Li  Li0  1  0.65685500  0.96700600  0.75000000  1
  Li  Li1  1  0.15685500  0.53299400  0.75000000  1
  Li  Li2  1  0.34314500  0.03299400  0.25000000  1
  Li  Li3  1  0.84314500  0.46700600  0.25000000  1
  Pr  Pr0  1  0.52571200  0.30993500  0.10154100  1
  Pr  Pr1  1  0.02571200  0.19006500  0.39845900  1
  Pr  Pr2  1  0.47428800  0.69006500  0.60154100  1
  Pr  Pr3  1  0.97428800  0.80993500  0.89845900  1
  Pr  Pr4  1  0.47428800  0.69006500  0.89845900  1
  Pr  Pr5  1  0.97428800  0.80993500  0.60154100  1
  Pr  Pr6  1  0.52571200  0.30993500  0.39845900  1
  Pr  Pr7  1  0.02571200  0.19006500  0.10154100  1
  Pr  Pr8  1  0.82435400  0.32155300  0.62821900  1
  Pr  Pr9  1  0.32435400  0.17844700  0.87178100  1
  Pr  Pr10  1  0.17564600  0.67844700  0.12821900  1
  Pr  Pr11  1  0.67564600  0.82155300  0.37178100  1
  Pr  Pr12  1  0.17564600  0.67844700  0.37178100  1
  Pr  Pr13  1  0.67564600  0.82155300  0.12821900  1
  Pr  Pr14  1  0.82435400  0.32155300  0.87178100  1
  Pr  Pr15  1  0.32435400  0.17844700  0.62821900  1
  Ge  Ge0  1  0.65674000  0.03204000  0.53650600  1
  Ge  Ge1  1  0.15674000  0.46796000  0.96349400  1
  Ge  Ge2  1  0.34326000  0.96796000  0.03650600  1
  Ge  Ge3  1  0.84326000  0.53204000  0.46349400  1
  Ge  Ge4  1  0.34326000  0.96796000  0.46349400  1
  Ge  Ge5  1  0.84326000  0.53204000  0.03650600  1
  Ge  Ge6  1  0.65674000  0.03204000  0.96349400  1
  Ge  Ge7  1  0.15674000  0.46796000  0.53650600  1
  Ge  Ge8  1  0.51429700  0.42112800  0.75000000  1
  Ge  Ge9  1  0.01429700  0.07887200  0.75000000  1
  Ge  Ge10  1  0.48570300  0.57887200  0.25000000  1
  Ge  Ge11  1  0.98570300  0.92112800  0.25000000  1
  Ge  Ge12  1  0.77153300  0.63182700  0.75000000  1
  Ge  Ge13  1  0.27153300  0.86817300  0.75000000  1
  Ge  Ge14  1  0.22846700  0.36817300  0.25000000  1
  Ge  Ge15  1  0.72846700  0.13182700  0.25000000  1
loop_
_geom_bond_atom_site_label_1
_geom_bond_atom_site_label_2
_geom_bond_distance
_geom_bond_site_symmetry_2
Ge0 Ge4 2.655482 1_545
Ge0 Pr8 3.004590 1_555
Ge0 Pr11 3.049778 1_545
Ge0 Pr15 3.097444 1_555
Ge0 Pr5 3.144144 1_545
Ge0 Pr6 3.238954 1_555
Ge0 Pr2 3.239601 1_545
Ge0 Pr1 3.711609 1_655
Ge1 Ge5 2.655482 1_456
Ge1 Pr9 3.004590 1_555
Ge1 Pr10 3.049778 1_556
Ge1 Pr14 3.097444 1_455
Ge1 Pr4 3.144144 1_555
Ge1 Pr7 3.238954 1_556
Ge1 Pr3 3.239601 1_455
Ge1 Pr0 3.711609 1_556
Ge2 Ge6 2.655482 1_564
Ge2 Pr10 3.004590 1_555
Ge2 Pr9 3.049778 1_564
Ge2 Pr13 3.097444 1_555
Ge2 Pr7 3.144144 1_565
Ge2 Pr4 3.238954 1_554
Ge2 Pr0 3.239601 1_565
Ge2 Pr3 3.711609 1_454
Ge3 Ge7 2.655482 1_655
Ge3 Pr11 3.004590 1_555
Ge3 Pr8 3.049778 1_555
Ge3 Pr12 3.097444 1_655
Ge3 Pr6 3.144144 1_555
Ge3 Pr5 3.238954 1_555
Ge3 Pr1 3.239601 1_655
Ge3 Pr2 3.711609 1_555
Ge4 Pr12 3.004590 1_555
Ge4 Pr15 3.049778 1_565
Ge4 Pr11 3.097444 1_555
Ge4 Pr1 3.144144 1_565
Ge4 Pr2 3.238954 1_555
Ge4 Pr6 3.239601 1_565
Ge4 Pr5 3.711609 1_455
Ge5 Pr13 3.004590 1_555
Ge5 Pr14 3.049778 1_554
Ge5 Pr10 3.097444 1_655
Ge5 Pr0 3.144144 1_555
Ge5 Pr3 3.238954 1_554
Ge5 Pr7 3.239601 1_655
Ge5 Pr4 3.711609 1_554
Ge6 Pr14 3.004590 1_555
Ge6 Pr13 3.049778 1_546
Ge6 Pr9 3.097444 1_555
Ge6 Pr3 3.144144 1_545
Ge6 Pr0 3.238954 1_556
Ge6 Pr4 3.239601 1_545
Ge6 Pr7 3.711609 1_656
Ge7 Pr15 3.004590 1_555
Ge7 Pr12 3.049778 1_555
Ge7 Pr8 3.097444 1_455
Ge7 Pr2 3.144144 1_555
Ge7 Pr1 3.238954 1_555
Ge7 Pr5 3.239601 1_455
Ge7 Pr6 3.711609 1_555
Ge8 Li1 2.829014 1_555
Ge8 Pr9 3.060001 1_555
Ge8 Pr15 3.060001 1_555
Ge8 Pr14 3.090011 1_555
Ge8 Pr8 3.090011 1_555
Ge8 Pr2 3.162020 1_555
Ge8 Pr4 3.162020 1_555
Ge9 Li0 2.829014 1_445
Ge9 Pr14 3.060001 1_455
Ge9 Pr8 3.060001 1_455
Ge9 Pr15 3.090011 1_555
Ge9 Pr9 3.090011 1_555
Ge9 Pr5 3.162020 1_445
Ge9 Pr3 3.162020 1_445
Ge10 Ge14 2.572405 1_555
Ge10 Li3 2.829014 1_555
Ge10 Pr11 3.060001 1_555
Ge10 Pr13 3.060001 1_555
Ge10 Pr12 3.090011 1_555
Ge10 Pr10 3.090011 1_555
Ge10 Pr6 3.162020 1_555
Ge10 Pr0 3.162020 1_555
Ge11 Ge15 2.572405 1_565
Ge11 Li2 2.829014 1_665
Ge11 Pr10 3.060001 1_655
Ge11 Pr12 3.060001 1_655
Ge11 Pr11 3.090011 1_555
Ge11 Pr13 3.090011 1_555
Ge11 Pr7 3.162020 1_665
Ge11 Pr1 3.162020 1_665
Ge12 Ge8 2.572405 1_555
Ge12 Li0 2.840028 1_555
Ge12 Li1 2.998195 1_655
Ge12 Pr5 3.094042 1_555
Ge12 Pr3 3.094042 1_555
Ge12 Pr8 3.150915 1_555
Ge12 Pr14 3.150915 1_555
Ge12 Pr4 3.222326 1_555
Ge12 Pr2 3.222326 1_555
Ge13 Ge9 2.572405 1_565
Ge13 Li1 2.840028 1_555
Ge13 Li0 2.998195 1_555
Ge13 Pr2 3.094042 1_555
Ge13 Pr4 3.094042 1_555
Ge13 Pr15 3.150915 1_565
Ge13 Pr9 3.150915 1_565
Ge13 Pr3 3.222326 1_455
Ge13 Pr5 3.222326 1_455
Ge14 Li2 2.840028 1_555
Ge14 Li3 2.998195 1_455
Ge14 Pr7 3.094042 1_555
Ge14 Pr1 3.094042 1_555
Ge14 Pr12 3.150915 1_555
Ge14 Pr10 3.150915 1_555
Ge14 Pr6 3.222326 1_555
Ge14 Pr0 3.222326 1_555
Ge15 Li3 2.840028 1_555
Ge15 Li2 2.998195 1_555
Ge15 Pr6 3.094042 1_555
Ge15 Pr0 3.094042 1_555
Ge15 Pr11 3.150915 1_545
Ge15 Pr13 3.150915 1_545
Ge15 Pr7 3.222326 1_655
Ge15 Pr1 3.222326 1_655
