# generated using pymatgen
data_Li7Mn5O12
_symmetry_space_group_name_H-M   'P 1'
_cell_length_a   5.32138663
_cell_length_b   7.72659970
_cell_length_c   5.72779062
_cell_angle_alpha   101.22781138
_cell_angle_beta   89.60854433
_cell_angle_gamma   105.63280577
_symmetry_Int_Tables_number   1
_chemical_formula_structural   Li7Mn5O12
_chemical_formula_sum   'Li7 Mn5 O12'
_cell_volume   222.19298057
_cell_formula_units_Z   1
loop_
 _symmetry_equiv_pos_site_id
 _symmetry_equiv_pos_as_xyz
  1  'x, y, z'
loop_
 _atom_site_type_symbol
 _atom_site_label
 _atom_site_symmetry_multiplicity
 _atom_site_fract_x
 _atom_site_fract_y
 _atom_site_fract_z
 _atom_site_occupancy
  Li  Li0  1  0.66665900  0.66666400  0.16667000  1
  Li  Li1  1  0.49446100  0.99154600  0.75387300  1
  Li  Li2  1  0.83893300  0.34179500  0.57947100  1
  Li  Li3  1  0.11632900  0.64803000  0.40257900  1
  Li  Li4  1  0.21702000  0.68529400  0.93076700  1
  Li  Li5  1  0.51062300  0.98250200  0.24898300  1
  Li  Li6  1  0.82266300  0.35079700  0.08436000  1
  Mn  Mn0  1  0.99221300  0.99192800  0.00325100  1
  Mn  Mn1  1  0.34112300  0.34140600  0.33010600  1
  Mn  Mn2  1  0.66670900  0.66665800  0.66654400  1
  Mn  Mn3  1  0.32827500  0.33619900  0.83404400  1
  Mn  Mn4  1  0.00512400  0.99723000  0.49931200  1
  O  O0  1  0.09421800  0.85130200  0.71222300  1
  O  O1  1  0.23903900  0.48202600  0.62112600  1
  O  O2  1  0.37488600  0.16640800  0.54166900  1
  O  O3  1  0.95848300  0.16693800  0.79167000  1
  O  O4  1  0.73802100  0.50658200  0.38705900  1
  O  O5  1  0.59529900  0.82671100  0.94624400  1
  O  O6  1  0.09678100  0.85117800  0.21914900  1
  O  O7  1  0.23653700  0.48216100  0.11421800  1
  O  O8  1  0.41592000  0.18951100  0.04026000  1
  O  O9  1  0.91730900  0.14379900  0.29307600  1
  O  O10  1  0.68045200  0.47974000  0.85535900  1
  O  O11  1  0.65292300  0.85359600  0.47798600  1
loop_
_geom_bond_atom_site_label_1
_geom_bond_atom_site_label_2
_geom_bond_distance
_geom_bond_site_symmetry_2
Li0 O5 2.033495 1_554
Li0 O4 2.033552 1_555
Li0 O11 2.079251 1_555
Li0 O10 2.079263 1_554
Li0 O7 2.333545 1_555
Li0 O6 2.333575 1_655
Li1 O5 2.011721 1_555
Li1 O11 2.038269 1_555
Li1 O0 2.104711 1_555
Li1 O8 2.136169 1_566
Li1 O2 2.195694 1_565
Li1 O3 2.463766 1_565
Li2 O4 2.011752 1_555
Li2 O10 2.038309 1_555
Li2 O1 2.104052 1_655
Li2 O9 2.136010 1_555
Li2 O3 2.195582 1_555
Li2 O2 2.463869 1_555
Li3 O4 2.008450 1_455
Li3 O6 2.076094 1_555
Li3 O7 2.093509 1_555
Li3 O0 2.153645 1_555
Li3 O1 2.174023 1_555
Li4 O5 2.008268 1_555
Li4 O7 2.076029 1_556
Li4 O6 2.093728 1_556
Li4 O1 2.153495 1_555
Li4 O0 2.174262 1_555
Li5 O5 2.031664 1_554
Li5 O11 2.052983 1_555
Li5 O6 2.154497 1_555
Li5 O9 2.175264 1_565
Li5 O2 2.227171 1_565
Li5 O8 2.329993 1_565
Li6 O4 2.031405 1_555
Li6 O10 2.052938 1_554
Li6 O7 2.154704 1_655
Li6 O8 2.175496 1_555
Li6 O3 2.227192 1_554
Li6 O9 2.329772 1_555
Mn0 O9 1.943217 1_565
Mn0 O0 1.963195 1_654
Mn0 O6 1.969977 1_655
Mn0 O3 2.025186 1_564
Mn0 O5 2.142733 1_554
Mn0 O8 2.341940 1_665
Mn1 O8 1.943191 1_555
Mn1 O1 1.963316 1_555
Mn1 O7 1.970005 1_555
Mn1 O2 2.025084 1_555
Mn1 O4 2.142555 1_555
Mn1 O9 2.342455 1_455
Mn2 O4 1.926151 1_555
Mn2 O5 1.927114 1_555
Mn2 O11 1.980854 1_555
Mn2 O10 1.981681 1_555
Mn2 O0 2.322237 1_655
Mn2 O1 2.322906 1_555
Mn3 O10 1.894021 1_555
Mn3 O7 1.914877 1_556
Mn3 O8 1.926397 1_556
Mn3 O1 1.952879 1_555
Mn3 O2 1.975159 1_555
Mn3 O3 2.034079 1_455
Mn4 O11 1.894345 1_455
Mn4 O6 1.915000 1_555
Mn4 O9 1.926137 1_465
Mn4 O0 1.953141 1_555
Mn4 O3 1.974795 1_465
Mn4 O2 2.033722 1_565
