# generated using pymatgen
data_Li9Mn2Co5O16
_symmetry_space_group_name_H-M   'P 1'
_cell_length_a   5.90419400
_cell_length_b   6.45216570
_cell_length_c   7.84112525
_cell_angle_alpha   86.01656165
_cell_angle_beta   75.95128486
_cell_angle_gamma   76.93812394
_symmetry_Int_Tables_number   1
_chemical_formula_structural   Li9Mn2Co5O16
_chemical_formula_sum   'Li9 Mn2 Co5 O16'
_cell_volume   282.24087452
_cell_formula_units_Z   1
loop_
 _symmetry_equiv_pos_site_id
 _symmetry_equiv_pos_as_xyz
  1  'x, y, z'
loop_
 _atom_site_type_symbol
 _atom_site_label
 _atom_site_symmetry_multiplicity
 _atom_site_fract_x
 _atom_site_fract_y
 _atom_site_fract_z
 _atom_site_occupancy
  Li  Li0  1  0.06338200  0.12018300  0.62784300  1
  Li  Li1  1  0.80207400  0.62855400  0.11889600  1
  Li  Li2  1  0.56202400  0.12019700  0.62810000  1
  Li  Li3  1  0.93432800  0.88101400  0.37320000  1
  Li  Li4  1  0.68409900  0.36980800  0.88135500  1
  Li  Li5  1  0.44054200  0.87864600  0.37141900  1
  Li  Li6  1  0.32129600  0.62910500  0.11868200  1
  Li  Li7  1  0.19236000  0.37121300  0.88039100  1
  Li  Li8  1  0.49969300  0.00034300  0.99972100  1
  Mn  Mn0  1  0.99982100  0.00075700  0.00008200  1
  Mn  Mn1  1  0.25020200  0.49917500  0.49998700  1
  Co  Co0  1  0.75071100  0.50071800  0.50034000  1
  Co  Co1  1  0.61732900  0.24909600  0.24285200  1
  Co  Co2  1  0.38188200  0.75283000  0.75739800  1
  Co  Co3  1  0.12880000  0.24862800  0.24727500  1
  Co  Co4  1  0.87406700  0.74941500  0.75363900  1
  O  O0  1  0.27129200  0.04628500  0.81450800  1
  O  O1  1  0.04266200  0.54367100  0.33454700  1
  O  O2  1  0.80416600  0.04059300  0.82414900  1
  O  O3  1  0.14847400  0.79226500  0.56871500  1
  O  O4  1  0.89144100  0.29690500  0.06441000  1
  O  O5  1  0.64655200  0.79127700  0.56696900  1
  O  O6  1  0.52167000  0.54838100  0.31739300  1
  O  O7  1  0.38775500  0.30885700  0.07727500  1
  O  O8  1  0.85199800  0.21272000  0.42986100  1
  O  O9  1  0.60936000  0.68800700  0.91971300  1
  O  O10  1  0.35555100  0.20273600  0.43477100  1
  O  O11  1  0.72845600  0.95439000  0.18596600  1
  O  O12  1  0.45832200  0.45588000  0.66754200  1
  O  O13  1  0.19314100  0.95985500  0.17517100  1
  O  O14  1  0.10736200  0.70554200  0.93738400  1
  O  O15  1  0.97919300  0.45295400  0.68044600  1
loop_
_geom_bond_atom_site_label_1
_geom_bond_atom_site_label_2
_geom_bond_distance
_geom_bond_site_symmetry_2
Li0 O2 2.019172 1_455
Li0 O0 2.094584 1_555
Li0 O3 2.118165 1_545
Li0 O15 2.137362 1_455
Li0 O10 2.141663 1_555
Li0 O8 2.190686 1_455
Li1 O6 2.110734 1_555
Li1 O9 2.112651 1_554
Li1 O11 2.124844 1_555
Li1 O4 2.132401 1_555
Li1 O14 2.140642 1_654
Li1 O1 2.421328 1_655
Li2 O0 2.089360 1_555
Li2 O5 2.128195 1_545
Li2 O10 2.135250 1_555
Li2 O12 2.136187 1_555
Li2 O8 2.178250 1_555
Li2 O2 2.301350 1_555
Li3 O13 2.023501 1_655
Li3 O11 2.089661 1_555
Li3 O8 2.138047 1_565
Li3 O5 2.144699 1_555
Li3 O1 2.146343 1_655
Li3 O3 2.183712 1_655
Li4 O9 2.027843 1_555
Li4 O4 2.068608 1_556
Li4 O7 2.120883 1_556
Li4 O2 2.124411 1_555
Li4 O15 2.185781 1_555
Li4 O12 2.348870 1_555
Li5 O11 2.078401 1_555
Li5 O10 2.102427 1_565
Li5 O6 2.124918 1_555
Li5 O5 2.150295 1_555
Li5 O3 2.167261 1_555
Li5 O13 2.325814 1_555
Li6 O7 2.047884 1_555
Li6 O14 2.086225 1_554
Li6 O9 2.095875 1_554
Li6 O13 2.135801 1_555
Li6 O6 2.145289 1_555
Li6 O1 2.191713 1_555
Li7 O7 2.108232 1_556
Li7 O0 2.114543 1_555
Li7 O4 2.124331 1_456
Li7 O12 2.130357 1_555
Li7 O14 2.154198 1_555
Li7 O15 2.205270 1_455
Li8 O7 2.036522 1_556
Li8 O2 2.038172 1_555
Li8 O13 2.047357 1_546
Li8 O9 2.064622 1_545
Li8 O0 2.173892 1_555
Li8 O11 2.182046 1_546
Mn0 O14 1.924813 1_644
Mn0 O4 1.933796 1_555
Mn0 O0 1.947764 1_654
Mn0 O11 1.950196 1_545
Mn0 O13 1.957438 1_645
Mn0 O2 1.973266 1_554
Mn1 O3 1.923108 1_555
Mn1 O15 1.925954 1_455
Mn1 O10 1.936602 1_555
Mn1 O6 1.942266 1_555
Mn1 O1 1.956455 1_555
Mn1 O12 1.972738 1_555
Co0 O8 1.896290 1_555
Co0 O5 1.903877 1_555
Co0 O1 1.953466 1_655
Co0 O12 1.963917 1_555
Co0 O15 2.141429 1_555
Co0 O6 2.161863 1_555
Co1 O11 1.912316 1_545
Co1 O4 1.933505 1_555
Co1 O10 1.939110 1_555
Co1 O6 1.973090 1_555
Co1 O7 2.054290 1_555
Co1 O8 2.217333 1_555
Co2 O0 1.904978 1_565
Co2 O5 1.929759 1_555
Co2 O14 1.940375 1_555
Co2 O12 2.003341 1_555
Co2 O9 2.025006 1_555
Co2 O3 2.220766 1_555
Co3 O7 1.863495 1_555
Co3 O13 1.912504 1_545
Co3 O8 1.939951 1_455
Co3 O1 1.981235 1_555
Co3 O10 2.181135 1_555
Co3 O4 2.198446 1_455
Co4 O9 1.874958 1_555
Co4 O2 1.920596 1_565
Co4 O3 1.951947 1_655
Co4 O15 1.953567 1_555
Co4 O5 2.180701 1_555
Co4 O14 2.187190 1_655
