# generated using pymatgen
data_Mg2Si3
_symmetry_space_group_name_H-M   'P 1'
_cell_length_a   3.84062700
_cell_length_b   5.25389366
_cell_length_c   19.55847305
_cell_angle_alpha   93.13878798
_cell_angle_beta   94.69253965
_cell_angle_gamma   110.97132413
_symmetry_Int_Tables_number   1
_chemical_formula_structural   Mg2Si3
_chemical_formula_sum   'Mg8 Si12'
_cell_volume   365.77789929
_cell_formula_units_Z   4
loop_
 _symmetry_equiv_pos_site_id
 _symmetry_equiv_pos_as_xyz
  1  'x, y, z'
loop_
 _atom_site_type_symbol
 _atom_site_label
 _atom_site_symmetry_multiplicity
 _atom_site_fract_x
 _atom_site_fract_y
 _atom_site_fract_z
 _atom_site_occupancy
  Mg  Mg0  1  0.52514900  0.03157400  0.17416500  1
  Mg  Mg1  1  0.33507400  0.00564300  0.80349800  1
  Mg  Mg2  1  0.83281900  0.75824300  0.04566700  1
  Mg  Mg3  1  0.05314800  0.30701700  0.94284600  1
  Mg  Mg4  1  0.57601300  0.57529600  0.71650600  1
  Mg  Mg5  1  0.77428300  0.37857000  0.32041500  1
  Mg  Mg6  1  0.35218200  0.31926500  0.56575200  1
  Mg  Mg7  1  0.99814700  0.69833200  0.46485500  1
  Si  Si0  1  0.54694300  0.19317900  0.04430000  1
  Si  Si1  1  0.34015500  0.87677500  0.94234500  1
  Si  Si2  1  0.20305400  0.43152900  0.12005700  1
  Si  Si3  1  0.69292800  0.65605000  0.87318700  1
  Si  Si4  1  0.86898000  0.15250000  0.68255800  1
  Si  Si5  1  0.51184800  0.81180900  0.36038200  1
  Si  Si6  1  0.61918000  0.87357500  0.56028000  1
  Si  Si7  1  0.72164000  0.14186700  0.46103600  1
  Si  Si8  1  0.13496400  0.81134500  0.63516900  1
  Si  Si9  1  0.04939200  0.95079700  0.28992800  1
  Si  Si10  1  0.82335700  0.60838200  0.19202700  1
  Si  Si11  1  0.04066300  0.41829000  0.80492600  1
loop_
_geom_bond_atom_site_label_1
_geom_bond_atom_site_label_2
_geom_bond_distance
_geom_bond_site_symmetry_2
Mg0 Si0 2.720181 1_555
Mg0 Si10 2.819893 1_555
Mg0 Si10 2.866998 1_545
Mg0 Si10 2.877467 1_445
Mg0 Si9 2.978624 1_545
Mg0 Si2 2.992620 1_555
Mg0 Si2 3.015350 1_655
Mg0 Si2 3.036090 1_545
Mg0 Si9 3.054722 1_645
Mg1 Si11 2.780794 1_555
Mg1 Si11 2.796461 1_655
Mg1 Si1 2.834713 1_545
Mg1 Si11 2.884268 1_545
Mg1 Si3 2.982428 1_545
Mg1 Si3 2.982520 1_445
Mg1 Si4 3.144931 1_455
Mg1 Si4 3.202516 1_555
Mg2 Si0 2.770053 1_555
Mg2 Si1 2.860356 1_654
Mg2 Si0 2.868045 1_565
Mg2 Si0 2.877025 1_665
Mg2 Si1 2.899548 1_554
Mg2 Si2 2.960970 1_655
Mg2 Si2 2.964940 1_555
Mg2 Si10 3.009810 1_555
Mg3 Si11 2.791452 1_555
Mg3 Si1 2.796240 1_555
Mg3 Si0 2.829071 1_456
Mg3 Si1 2.847389 1_545
Mg3 Si1 2.858441 1_445
Mg3 Si0 2.866689 1_556
Mg3 Si3 2.975330 1_555
Mg3 Si3 2.985653 1_455
Mg4 Si11 2.724438 1_555
Mg4 Si8 2.747056 1_655
Mg4 Si11 2.749677 1_655
Mg4 Si4 2.823944 1_455
Mg4 Si8 2.866522 1_555
Mg4 Si4 2.896714 1_555
Mg4 Si4 2.967094 1_565
Mg4 Si3 3.044428 1_555
Mg5 Si10 2.836443 1_555
Mg5 Si9 2.859927 1_645
Mg5 Si9 2.874086 1_545
Mg5 Si5 2.895556 1_555
Mg5 Si9 2.921662 1_655
Mg5 Si5 2.940044 1_655
Mg5 Si5 2.954513 1_545
Mg5 Si7 3.072025 1_555
Mg6 Si6 2.731086 1_555
Mg6 Si6 2.873219 1_545
Mg6 Si7 2.879211 1_555
Mg6 Si7 2.879528 1_455
Mg6 Si6 2.936752 1_445
Mg6 Si8 2.940924 1_545
Mg6 Si4 3.029820 1_455
Mg6 Si4 3.263197 1_555
Mg7 Si7 2.724251 1_555
Mg7 Si6 2.744366 1_655
Mg7 Si6 2.768560 1_555
Mg7 Si5 2.885304 1_555
Mg7 Si7 2.888083 1_565
Mg7 Si5 2.893816 1_655
Mg7 Si7 2.928300 1_665
Si0 Si1 2.409021 1_544
Si0 Si2 2.609375 1_555
Si0 Si2 2.653398 1_655
Si1 Si3 2.502564 1_555
Si1 Si3 2.562830 1_455
Si4 Si8 2.529608 1_645
Si4 Si6 2.649902 1_545
Si4 Si8 2.791530 1_545
Si5 Si7 2.428644 1_565
Si5 Si9 2.488126 1_655
Si5 Si9 2.494949 1_555
Si6 Si8 2.402840 1_555
Si6 Si7 2.436604 1_565
Si6 Si8 2.493530 1_655
Si10 Si9 2.426808 1_655
Si10 Si2 2.476660 1_655
Si10 Si2 2.498789 1_555
Si11 Si3 2.535692 1_455
Si11 Si3 2.578489 1_555
Si11 Si4 2.613340 1_455
