# generated using pymatgen
data_Cr2CdN2
_symmetry_space_group_name_H-M   'P 1'
_cell_length_a   7.53150400
_cell_length_b   7.53150400
_cell_length_c   7.53150400
_cell_angle_alpha   90.00000000
_cell_angle_beta   90.00000000
_cell_angle_gamma   90.00000000
_symmetry_Int_Tables_number   1
_chemical_formula_structural   Cr2CdN2
_chemical_formula_sum   'Cr4 Cd2 N4'
_cell_volume   427.21366256
_cell_formula_units_Z   2
loop_
 _symmetry_equiv_pos_site_id
 _symmetry_equiv_pos_as_xyz
  1  'x, y, z'
loop_
 _atom_site_type_symbol
 _atom_site_label
 _atom_site_symmetry_multiplicity
 _atom_site_fract_x
 _atom_site_fract_y
 _atom_site_fract_z
 _atom_site_occupancy
  Cr  Cr0  1  0.20699300  0.20699300  0.79300700  1
  Cr  Cr1  1  0.20699300  0.79300700  0.20699300  1
  Cr  Cr2  1  0.79300700  0.20699300  0.20699300  1
  Cr  Cr3  1  0.79300700  0.79300700  0.79300700  1
  Cd  Cd0  1  0.00000000  0.00000000  0.00000000  1
  Cd  Cd1  1  0.50000000  0.50000000  0.50000000  1
  N  N0  1  0.32952800  0.32952800  0.67047200  1
  N  N1  1  0.32952800  0.67047200  0.32952800  1
  N  N2  1  0.67047200  0.32952800  0.32952800  1
  N  N3  1  0.67047200  0.67047200  0.67047200  1
loop_
_geom_bond_atom_site_label_1
_geom_bond_atom_site_label_2
_geom_bond_distance
_geom_bond_site_symmetry_2
Cr0 N0 1.598463 1_555
Cr1 N1 1.598463 1_555
Cr2 N2 1.598463 1_555
Cr3 N3 1.598463 1_555
Cd0 Cr0 2.700213 1_554
Cd0 Cr2 2.700213 1_455
Cd0 Cr1 2.700213 1_545
Cd0 Cr3 2.700213 1_444
Cd1 N3 2.223798 1_555
Cd1 N0 2.223798 1_555
Cd1 N1 2.223798 1_555
Cd1 N2 2.223798 1_555
