# generated using pymatgen
data_Er2Mn3Ga
_symmetry_space_group_name_H-M   'P 1'
_cell_length_a   5.27682317
_cell_length_b   5.27682317
_cell_length_c   5.27682319
_cell_angle_alpha   61.15175639
_cell_angle_beta   61.15175639
_cell_angle_gamma   61.15175382
_symmetry_Int_Tables_number   1
_chemical_formula_structural   Er2Mn3Ga
_chemical_formula_sum   'Er2 Mn3 Ga1'
_cell_volume   106.58953987
_cell_formula_units_Z   1
loop_
 _symmetry_equiv_pos_site_id
 _symmetry_equiv_pos_as_xyz
  1  'x, y, z'
loop_
 _atom_site_type_symbol
 _atom_site_label
 _atom_site_symmetry_multiplicity
 _atom_site_fract_x
 _atom_site_fract_y
 _atom_site_fract_z
 _atom_site_occupancy
  Er  Er0  1  0.62349800  0.62349800  0.62349800  1
  Er  Er1  1  0.37650200  0.37650200  0.37650200  1
  Mn  Mn0  1  0.00000000  0.50000000  0.00000000  1
  Mn  Mn1  1  0.50000000  0.00000000  0.00000000  1
  Mn  Mn2  1  0.00000000  0.00000000  0.50000000  1
  Ga  Ga0  1  0.00000000  0.00000000  0.00000000  1
loop_
_geom_bond_atom_site_label_1
_geom_bond_atom_site_label_2
_geom_bond_distance
_geom_bond_site_symmetry_2
Er0 Mn1 3.103073 1_566
Er0 Mn0 3.103073 1_656
Er0 Mn2 3.103073 1_665
Er0 Mn2 3.115841 1_655
Er0 Mn2 3.115841 1_565
Er0 Mn0 3.115841 1_655
Er0 Mn1 3.115841 1_565
Er0 Mn0 3.115841 1_556
Er0 Mn1 3.115841 1_556
Er0 Ga0 3.148416 1_566
Er0 Ga0 3.148416 1_656
Er0 Ga0 3.148416 1_665
Er0 Er1 3.164481 1_555
Er0 Er1 3.290925 1_565
Er0 Er1 3.290925 1_655
Er0 Er1 3.290925 1_556
Er1 Mn0 3.103073 1_555
Er1 Mn1 3.103073 1_555
Er1 Mn2 3.103073 1_555
Er1 Mn2 3.115841 1_655
Er1 Mn2 3.115841 1_565
Er1 Mn0 3.115841 1_556
Er1 Mn1 3.115841 1_556
Er1 Mn0 3.115841 1_655
Er1 Mn1 3.115841 1_565
Er1 Ga0 3.148416 1_565
Er1 Ga0 3.148416 1_655
Er1 Ga0 3.148416 1_556
Mn0 Mn1 2.684209 1_555
Mn0 Mn1 2.684209 1_465
Mn0 Mn2 2.684209 1_564
Mn0 Mn2 2.684209 1_555
Mn1 Mn2 2.684209 1_654
Mn1 Mn2 2.684209 1_555
Ga0 Mn0 2.638412 1_545
Ga0 Mn0 2.638412 1_555
Ga0 Mn1 2.638412 1_455
Ga0 Mn1 2.638412 1_555
Ga0 Mn2 2.638412 1_555
Ga0 Mn2 2.638412 1_554
