# generated using pymatgen
data_CsRuN2
_symmetry_space_group_name_H-M   'P 1'
_cell_length_a   6.10865164
_cell_length_b   6.10865164
_cell_length_c   6.10865164
_cell_angle_alpha   60.00000000
_cell_angle_beta   60.00000000
_cell_angle_gamma   60.00000000
_symmetry_Int_Tables_number   1
_chemical_formula_structural   CsRuN2
_chemical_formula_sum   'Cs2 Ru2 N4'
_cell_volume   161.18368490
_cell_formula_units_Z   2
loop_
 _symmetry_equiv_pos_site_id
 _symmetry_equiv_pos_as_xyz
  1  'x, y, z'
loop_
 _atom_site_type_symbol
 _atom_site_label
 _atom_site_symmetry_multiplicity
 _atom_site_fract_x
 _atom_site_fract_y
 _atom_site_fract_z
 _atom_site_occupancy
  Cs  Cs0  1  0.75000000  0.75000000  0.75000000  1
  Cs  Cs1  1  0.50000000  0.50000000  0.50000000  1
  Ru  Ru0  1  0.25000000  0.25000000  0.25000000  1
  Ru  Ru1  1  0.00000000  0.00000000  0.00000000  1
  N  N0  1  0.12500000  0.12500000  0.62500000  1
  N  N1  1  0.12500000  0.12500000  0.12500000  1
  N  N2  1  0.62500000  0.12500000  0.12500000  1
  N  N3  1  0.12500000  0.62500000  0.12500000  1
loop_
_geom_bond_atom_site_label_1
_geom_bond_atom_site_label_2
_geom_bond_distance
_geom_bond_site_symmetry_2
Cs0 N0 3.581514 1_565
Cs0 N0 3.581514 1_655
Cs0 N3 3.581514 1_556
Cs0 N2 3.581514 1_556
Cs0 N1 3.581514 1_566
Cs0 N2 3.581514 1_565
Cs0 N3 3.581514 1_655
Cs0 N2 3.581514 1_566
Cs0 N3 3.581514 1_656
Cs0 N0 3.581514 1_665
Cs0 N1 3.581514 1_656
Cs0 N1 3.581514 1_665
Cs1 N0 3.581514 1_565
Cs1 N3 3.581514 1_655
Cs1 N0 3.581514 1_655
Cs1 N2 3.581514 1_556
Cs1 N2 3.581514 1_565
Cs1 N3 3.581514 1_556
Cs1 N1 3.581514 1_655
Cs1 N1 3.581514 1_556
Cs1 N2 3.581514 1_555
Cs1 N3 3.581514 1_555
Cs1 N0 3.581514 1_555
Cs1 N1 3.581514 1_565
N0 Ru0 1.870385 1_555
N0 Ru1 1.870385 1_556
N1 Ru1 1.870385 1_555
N1 Ru0 1.870385 1_555
N2 Ru1 1.870385 1_655
N2 Ru0 1.870385 1_555
N3 Ru0 1.870385 1_555
N3 Ru1 1.870385 1_565
