# generated using pymatgen
data_Tm2CuTe2(SO7)2
_symmetry_space_group_name_H-M   'P 1'
_cell_length_a   5.17744612
_cell_length_b   7.90646629
_cell_length_c   8.15683175
_cell_angle_alpha   62.26098775
_cell_angle_beta   74.06596113
_cell_angle_gamma   85.09900435
_symmetry_Int_Tables_number   1
_chemical_formula_structural   Tm2CuTe2(SO7)2
_chemical_formula_sum   'Tm2 Cu1 Te2 S2 O14'
_cell_volume   283.82261959
_cell_formula_units_Z   1
loop_
 _symmetry_equiv_pos_site_id
 _symmetry_equiv_pos_as_xyz
  1  'x, y, z'
loop_
 _atom_site_type_symbol
 _atom_site_label
 _atom_site_symmetry_multiplicity
 _atom_site_fract_x
 _atom_site_fract_y
 _atom_site_fract_z
 _atom_site_occupancy
  Tm  Tm0  1  0.92726000  0.74765600  0.98123300  1
  Tm  Tm1  1  0.07274000  0.25234400  0.01876700  1
  Cu  Cu0  1  0.00000000  0.00000000  0.50000000  1
  Te  Te0  1  0.49027300  0.72616900  0.65623700  1
  Te  Te1  1  0.50972700  0.27383100  0.34376300  1
  S  S0  1  0.25349400  0.74885800  0.24842900  1
  S  S1  1  0.74650600  0.25114200  0.75157100  1
  O  O0  1  0.13805000  0.58905500  0.23702900  1
  O  O1  1  0.86195000  0.41094500  0.76297100  1
  O  O2  1  0.14219700  0.74561700  0.43589000  1
  O  O3  1  0.85780300  0.25438300  0.56411000  1
  O  O4  1  0.55071600  0.73688900  0.21133600  1
  O  O5  1  0.44928400  0.26311100  0.78866400  1
  O  O6  1  0.17541800  0.92542400  0.09090300  1
  O  O7  1  0.82458200  0.07457600  0.90909700  1
  O  O8  1  0.24633200  0.55898200  0.89257000  1
  O  O9  1  0.75366800  0.44101800  0.10743000  1
  O  O10  1  0.72946800  0.81082700  0.74846800  1
  O  O11  1  0.27053200  0.18917300  0.25153200  1
  O  O12  1  0.24898000  0.92708800  0.66083500  1
  O  O13  1  0.75102000  0.07291200  0.33916500  1
loop_
_geom_bond_atom_site_label_1
_geom_bond_atom_site_label_2
_geom_bond_distance
_geom_bond_site_symmetry_2
Cu0 O12 1.952613 1_545
Cu0 O13 1.952613 1_455
Cu0 O10 2.069781 1_445
Cu0 O11 2.069781 1_555
Cu0 O3 2.318483 1_455
Cu0 O2 2.318483 1_545
O0 S0 1.493718 1_555
O0 Tm0 2.387000 1_454
O1 S1 1.493718 1_555
O1 Tm1 2.387000 1_656
O2 S0 1.467336 1_555
O3 S1 1.467336 1_555
O4 S0 1.488184 1_555
O4 Tm0 2.280632 1_554
O5 S1 1.488184 1_555
O5 Tm1 2.280632 1_556
O6 S0 1.510706 1_555
O6 Tm1 2.414767 1_565
O6 Tm0 2.556666 1_454
O7 S1 1.510706 1_555
O7 Tm0 2.414767 1_545
O7 Tm1 2.556666 1_656
O8 Te0 1.906562 1_555
O8 Tm1 2.299218 1_556
O8 Tm0 2.324779 1_455
O9 Te1 1.906562 1_555
O9 Tm0 2.299218 1_554
O9 Tm1 2.324779 1_655
O10 Te0 1.915626 1_555
O10 Tm0 2.236141 1_555
O11 Te1 1.915626 1_555
O11 Tm1 2.236141 1_555
O12 Te0 1.943262 1_555
O12 Tm0 2.485846 1_455
O13 Te1 1.943262 1_555
O13 Tm1 2.485846 1_655
