# generated using pymatgen
data_SmErMn4
_symmetry_space_group_name_H-M   'P 1'
_cell_length_a   5.15895208
_cell_length_b   5.15895208
_cell_length_c   5.15895208
_cell_angle_alpha   60.00000000
_cell_angle_beta   60.00000000
_cell_angle_gamma   60.00000000
_symmetry_Int_Tables_number   1
_chemical_formula_structural   SmErMn4
_chemical_formula_sum   'Sm1 Er1 Mn4'
_cell_volume   97.08887837
_cell_formula_units_Z   1
loop_
 _symmetry_equiv_pos_site_id
 _symmetry_equiv_pos_as_xyz
  1  'x, y, z'
loop_
 _atom_site_type_symbol
 _atom_site_label
 _atom_site_symmetry_multiplicity
 _atom_site_fract_x
 _atom_site_fract_y
 _atom_site_fract_z
 _atom_site_occupancy
  Sm  Sm0  1  0.00000000  0.00000000  0.00000000  1
  Er  Er0  1  0.25000000  0.25000000  0.25000000  1
  Mn  Mn0  1  0.62494800  0.62494800  0.12515500  1
  Mn  Mn1  1  0.62494800  0.12515500  0.62494800  1
  Mn  Mn2  1  0.12515500  0.62494800  0.62494800  1
  Mn  Mn3  1  0.62494800  0.62494800  0.62494800  1
loop_
_geom_bond_atom_site_label_1
_geom_bond_atom_site_label_2
_geom_bond_distance
_geom_bond_site_symmetry_2
Er0 Mn1 3.024587 1_555
Er0 Mn2 3.024587 1_555
Er0 Mn0 3.024587 1_555
Er0 Mn3 3.024589 1_545
Er0 Mn3 3.024589 1_455
Er0 Mn3 3.024589 1_554
Er0 Mn0 3.024592 1_455
Er0 Mn1 3.024592 1_554
Er0 Mn1 3.024592 1_455
Er0 Mn2 3.024592 1_545
Er0 Mn2 3.024592 1_554
Er0 Mn0 3.024592 1_545
Er0 Sm0 3.159200 1_565
Er0 Sm0 3.159200 1_655
Er0 Sm0 3.159200 1_556
Er0 Sm0 3.159200 1_555
Mn0 Mn3 2.578408 1_555
Mn0 Mn1 2.578408 1_555
Mn0 Mn2 2.578408 1_555
Mn0 Mn2 2.580544 1_654
Mn0 Mn1 2.580544 1_564
Mn0 Mn3 2.580544 1_554
Mn0 Sm0 3.024816 1_655
Mn0 Sm0 3.024816 1_565
Mn0 Sm0 3.024820 1_665
Mn1 Mn3 2.578408 1_555
Mn1 Mn2 2.578408 1_555
Mn1 Mn2 2.580544 1_645
Mn1 Mn3 2.580544 1_545
Mn1 Sm0 3.024816 1_655
Mn1 Sm0 3.024816 1_556
Mn1 Sm0 3.024820 1_656
Mn2 Mn3 2.578408 1_555
Mn2 Mn3 2.580544 1_455
Mn2 Sm0 3.024816 1_565
Mn2 Sm0 3.024816 1_556
Mn2 Sm0 3.024820 1_566
Mn3 Sm0 3.024818 1_656
Mn3 Sm0 3.024818 1_665
Mn3 Sm0 3.024818 1_566
