# generated using pymatgen
data_Y2Co7
_symmetry_space_group_name_H-M   'P 1'
_cell_length_a   12.37499034
_cell_length_b   12.37499034
_cell_length_c   12.37499056
_cell_angle_alpha   23.14047981
_cell_angle_beta   23.14047981
_cell_angle_gamma   23.14048390
_symmetry_Int_Tables_number   1
_chemical_formula_structural   Y2Co7
_chemical_formula_sum   'Y4 Co14'
_cell_volume   256.91065193
_cell_formula_units_Z   2
loop_
 _symmetry_equiv_pos_site_id
 _symmetry_equiv_pos_as_xyz
  1  'x, y, z'
loop_
 _atom_site_type_symbol
 _atom_site_label
 _atom_site_symmetry_multiplicity
 _atom_site_fract_x
 _atom_site_fract_y
 _atom_site_fract_z
 _atom_site_occupancy
  Y  Y0  1  0.94872700  0.94872700  0.94872700  1
  Y  Y1  1  0.05127300  0.05127300  0.05127300  1
  Y  Y2  1  0.85211700  0.85211700  0.85211700  1
  Y  Y3  1  0.14788300  0.14788300  0.14788300  1
  Co  Co0  1  0.50000000  0.50000000  0.50000000  1
  Co  Co1  1  0.72102400  0.72102400  0.72102400  1
  Co  Co2  1  0.27897600  0.27897600  0.27897600  1
  Co  Co3  1  0.61167500  0.61167500  0.61167500  1
  Co  Co4  1  0.38832500  0.38832500  0.38832500  1
  Co  Co5  1  0.50000000  0.50000000  0.00000000  1
  Co  Co6  1  0.00000000  0.50000000  0.50000000  1
  Co  Co7  1  0.50000000  0.00000000  0.50000000  1
  Co  Co8  1  0.39130500  0.88990600  0.39130500  1
  Co  Co9  1  0.39130500  0.39130500  0.88990600  1
  Co  Co10  1  0.88990600  0.39130500  0.39130500  1
  Co  Co11  1  0.60869500  0.11009400  0.60869500  1
  Co  Co12  1  0.60869500  0.60869500  0.11009400  1
  Co  Co13  1  0.11009400  0.60869500  0.60869500  1
loop_
_geom_bond_atom_site_label_1
_geom_bond_atom_site_label_2
_geom_bond_distance
_geom_bond_site_symmetry_2
Co0 Co10 2.520972 1_555
Co0 Co8 2.520972 1_555
Co0 Co13 2.520972 1_555
Co0 Co11 2.520972 1_555
Co0 Co9 2.520972 1_555
Co0 Co12 2.520972 1_555
Co0 Y2 2.945206 1_554
Co0 Y3 2.945206 1_556
Co0 Y2 2.945206 1_455
Co0 Y2 2.945206 1_545
Co0 Y3 2.945206 1_565
Co0 Y3 2.945206 1_655
Co1 Co5 2.430526 1_556
Co1 Co7 2.430527 1_565
Co1 Co6 2.430527 1_655
Co1 Co12 2.445928 1_556
Co1 Co13 2.445928 1_655
Co1 Co11 2.445928 1_565
Co1 Y1 2.868177 1_665
Co1 Y1 2.868178 1_566
Co1 Y1 2.868178 1_656
Co2 Co5 2.430526 1_555
Co2 Co6 2.430527 1_555
Co2 Co7 2.430527 1_555
Co2 Co9 2.445928 1_554
Co2 Co8 2.445928 1_545
Co2 Y0 2.868177 1_445
Co2 Y0 2.868178 1_544
Co2 Y0 2.868178 1_454
Co3 Co9 2.422688 1_555
Co3 Co8 2.422688 1_555
Co3 Co5 2.449068 1_556
Co3 Co6 2.449068 1_655
Co3 Co7 2.449068 1_565
Co3 Y0 2.869158 1_554
Co3 Y0 2.869159 1_455
Co3 Y0 2.869159 1_545
Co4 Co5 2.449068 1_555
Co4 Co6 2.449068 1_555
Co4 Co7 2.449068 1_555
Co4 Y1 2.869158 1_556
Co4 Y1 2.869159 1_565
Co4 Y1 2.869159 1_655
Co5 Co7 2.482041 1_564
Co5 Co6 2.482041 1_555
Co5 Co6 2.482041 1_654
Co5 Co7 2.482041 1_555
Co5 Y1 3.096696 1_565
Co5 Y1 3.096696 1_655
Co5 Y0 3.096696 1_544
Co5 Y0 3.096696 1_454
Co6 Co7 2.482041 1_555
Co6 Co7 2.482041 1_465
Co6 Y1 3.096696 1_565
Co6 Y0 3.096696 1_445
Co6 Y1 3.096696 1_556
Co6 Y0 3.096696 1_454
Co7 Y1 3.096696 1_655
Co7 Y0 3.096696 1_445
Co7 Y1 3.096696 1_556
Co7 Y0 3.096696 1_544
Co8 Co9 2.475096 1_555
Co8 Co9 2.488985 1_564
Co8 Y2 2.848898 1_455
Co8 Y2 2.848899 1_554
Co8 Y3 3.107455 1_565
Co8 Y0 3.245220 1_554
Co8 Y0 3.245220 1_455
Co9 Y2 2.848899 1_545
Co9 Y2 2.848899 1_455
Co9 Y3 3.107454 1_556
Co9 Y0 3.245220 1_545
Co9 Y0 3.245220 1_455
Co10 Co3 2.422688 1_555
Co10 Co2 2.445928 1_655
Co10 Co9 2.475096 1_555
Co10 Co8 2.475096 1_555
Co10 Co9 2.488985 1_654
Co10 Co8 2.488986 1_645
Co10 Y2 2.848898 1_545
Co10 Y2 2.848899 1_554
Co10 Y3 3.107455 1_655
Co10 Y0 3.245220 1_554
Co10 Y0 3.245220 1_545
Co11 Co4 2.422688 1_555
Co11 Co12 2.475096 1_555
Co11 Co13 2.475096 1_555
Co11 Co12 2.488985 1_546
Co11 Co13 2.488986 1_645
Co11 Y3 2.848898 1_655
Co11 Y3 2.848899 1_556
Co11 Y2 3.107455 1_545
Co11 Y1 3.245220 1_556
Co11 Y1 3.245220 1_655
Co12 Co4 2.422688 1_555
Co12 Co13 2.475096 1_555
Co12 Co13 2.488985 1_654
Co12 Y3 2.848899 1_655
Co12 Y3 2.848899 1_565
Co12 Y2 3.107454 1_554
Co12 Y1 3.245220 1_655
Co12 Y1 3.245220 1_565
Co13 Co4 2.422688 1_555
Co13 Y3 2.848898 1_565
Co13 Y3 2.848899 1_556
Co13 Y2 3.107455 1_455
Co13 Y1 3.245220 1_556
Co13 Y1 3.245220 1_565
