# generated using pymatgen
data_K3Ge7O20
_symmetry_space_group_name_H-M   'P 1'
_cell_length_a   7.74729800
_cell_length_b   7.74729800
_cell_length_c   7.74729800
_cell_angle_alpha   90.00000000
_cell_angle_beta   90.00000000
_cell_angle_gamma   90.00000000
_symmetry_Int_Tables_number   1
_chemical_formula_structural   K3Ge7O20
_chemical_formula_sum   'K3 Ge7 O20'
_cell_volume   464.99767810
_cell_formula_units_Z   1
loop_
 _symmetry_equiv_pos_site_id
 _symmetry_equiv_pos_as_xyz
  1  'x, y, z'
loop_
 _atom_site_type_symbol
 _atom_site_label
 _atom_site_symmetry_multiplicity
 _atom_site_fract_x
 _atom_site_fract_y
 _atom_site_fract_z
 _atom_site_occupancy
  K  K0  1  0.00000000  0.00000000  0.50000000  1
  K  K1  1  0.00000000  0.50000000  0.00000000  1
  K  K2  1  0.50000000  0.00000000  0.00000000  1
  Ge  Ge0  1  0.63944200  0.63944200  0.36055800  1
  Ge  Ge1  1  0.63944200  0.36055800  0.63944200  1
  Ge  Ge2  1  0.36055800  0.63944200  0.63944200  1
  Ge  Ge3  1  0.36055800  0.36055800  0.36055800  1
  Ge  Ge4  1  0.50000000  0.50000000  0.00000000  1
  Ge  Ge5  1  0.50000000  0.00000000  0.50000000  1
  Ge  Ge6  1  0.00000000  0.50000000  0.50000000  1
  O  O0  1  0.38314600  0.38314600  0.61685400  1
  O  O1  1  0.38314600  0.61685400  0.38314600  1
  O  O2  1  0.61685400  0.38314600  0.38314600  1
  O  O3  1  0.61685400  0.61685400  0.61685400  1
  O  O4  1  0.87840600  0.63588700  0.36411300  1
  O  O5  1  0.63588700  0.63588700  0.12159400  1
  O  O6  1  0.63588700  0.87840600  0.36411300  1
  O  O7  1  0.87840600  0.36411300  0.63588700  1
  O  O8  1  0.63588700  0.36411300  0.87840600  1
  O  O9  1  0.63588700  0.12159400  0.63588700  1
  O  O10  1  0.12159400  0.63588700  0.63588700  1
  O  O11  1  0.36411300  0.63588700  0.87840600  1
  O  O12  1  0.36411300  0.87840600  0.63588700  1
  O  O13  1  0.12159400  0.36411300  0.36411300  1
  O  O14  1  0.36411300  0.36411300  0.12159400  1
  O  O15  1  0.36411300  0.12159400  0.36411300  1
  O  O16  1  0.15451100  0.15451100  0.84548900  1
  O  O17  1  0.15451100  0.84548900  0.15451100  1
  O  O18  1  0.84548900  0.15451100  0.15451100  1
  O  O19  1  0.84548900  0.84548900  0.84548900  1
loop_
_geom_bond_atom_site_label_1
_geom_bond_atom_site_label_2
_geom_bond_distance
_geom_bond_site_symmetry_2
K0 O4 3.154860 1_445
K0 O7 3.154860 1_455
K0 O15 3.154860 1_555
K0 O6 3.154860 1_445
K0 O13 3.154860 1_555
K0 O12 3.154860 1_545
K0 O10 3.154860 1_545
K0 O9 3.154860 1_455
K0 O17 3.167024 1_545
K0 O18 3.167024 1_455
K0 O19 3.167024 1_445
K0 O16 3.167024 1_555
K1 O8 3.154860 1_454
K1 O4 3.154860 1_455
K1 O7 3.154860 1_454
K1 O10 3.154860 1_554
K1 O11 3.154860 1_554
K1 O5 3.154860 1_455
K1 O13 3.154860 1_555
K1 O14 3.154860 1_555
K1 O18 3.167024 1_455
K1 O17 3.167024 1_555
K1 O19 3.167024 1_454
K1 O16 3.167024 1_554
K2 O15 3.154860 1_555
K2 O11 3.154860 1_544
K2 O12 3.154860 1_544
K2 O5 3.154860 1_545
K2 O6 3.154860 1_545
K2 O8 3.154860 1_554
K2 O9 3.154860 1_554
K2 O14 3.154860 1_555
K2 O17 3.167024 1_545
K2 O19 3.167024 1_544
K2 O18 3.167024 1_555
K2 O16 3.167024 1_554
Ge0 O5 1.851735 1_555
Ge0 O4 1.851735 1_555
Ge0 O6 1.851735 1_555
Ge0 O1 2.000965 1_555
Ge0 O2 2.000965 1_555
Ge0 O3 2.000965 1_555
Ge1 O9 1.851735 1_555
Ge1 O7 1.851735 1_555
Ge1 O8 1.851735 1_555
Ge1 O2 2.000965 1_555
Ge1 O0 2.000965 1_555
Ge1 O3 2.000965 1_555
Ge2 O10 1.851735 1_555
Ge2 O11 1.851735 1_555
Ge2 O12 1.851735 1_555
Ge2 O1 2.000965 1_555
Ge2 O0 2.000965 1_555
Ge2 O3 2.000965 1_555
Ge3 O14 1.851735 1_555
Ge3 O13 1.851735 1_555
Ge3 O15 1.851735 1_555
Ge3 O0 2.000965 1_555
Ge3 O1 2.000965 1_555
Ge3 O2 2.000965 1_555
Ge4 O8 1.761819 1_554
Ge4 O11 1.761819 1_554
Ge4 O5 1.761819 1_555
Ge4 O14 1.761819 1_555
Ge5 O6 1.761819 1_545
Ge5 O12 1.761819 1_545
Ge5 O15 1.761819 1_555
Ge5 O9 1.761819 1_555
Ge6 O4 1.761819 1_455
Ge6 O7 1.761819 1_455
Ge6 O13 1.761819 1_555
Ge6 O10 1.761819 1_555
