# generated using pymatgen
data_AlV(TeO4)2
_symmetry_space_group_name_H-M   'P 1'
_cell_length_a   8.10484300
_cell_length_b   4.91911900
_cell_length_c   17.93012588
_cell_angle_alpha   90.00000000
_cell_angle_beta   112.67198780
_cell_angle_gamma   90.00000000
_symmetry_Int_Tables_number   1
_chemical_formula_structural   AlV(TeO4)2
_chemical_formula_sum   'Al4 V4 Te8 O32'
_cell_volume   659.61168148
_cell_formula_units_Z   4
loop_
 _symmetry_equiv_pos_site_id
 _symmetry_equiv_pos_as_xyz
  1  'x, y, z'
loop_
 _atom_site_type_symbol
 _atom_site_label
 _atom_site_symmetry_multiplicity
 _atom_site_fract_x
 _atom_site_fract_y
 _atom_site_fract_z
 _atom_site_occupancy
  Al  Al0  1  0.99102800  0.74688300  0.32505200  1
  Al  Al1  1  0.99102800  0.75311700  0.82505200  1
  Al  Al2  1  0.00897200  0.25311700  0.67494800  1
  Al  Al3  1  0.00897200  0.24688300  0.17494800  1
  V  V0  1  0.26894100  0.22512500  0.42755800  1
  V  V1  1  0.26894100  0.27487500  0.92755800  1
  V  V2  1  0.73105900  0.77487500  0.57244200  1
  V  V3  1  0.73105900  0.72512500  0.07244200  1
  Te  Te0  1  0.67745900  0.26864000  0.22258000  1
  Te  Te1  1  0.67745900  0.23136000  0.72258000  1
  Te  Te2  1  0.32254100  0.73136000  0.77742000  1
  Te  Te3  1  0.32254100  0.76864000  0.27742000  1
  Te  Te4  1  0.79473500  0.16048500  0.42996100  1
  Te  Te5  1  0.79473500  0.33951500  0.92996100  1
  Te  Te6  1  0.20526500  0.83951500  0.57003900  1
  Te  Te7  1  0.20526500  0.66048500  0.07003900  1
  O  O0  1  0.77348000  0.57781600  0.28651100  1
  O  O1  1  0.77348000  0.92218400  0.78651100  1
  O  O2  1  0.22652000  0.42218400  0.71348900  1
  O  O3  1  0.22652000  0.07781600  0.21348900  1
  O  O4  1  0.96540500  0.91724400  0.41856700  1
  O  O5  1  0.96540500  0.58275600  0.91856700  1
  O  O6  1  0.03459500  0.08275600  0.58143300  1
  O  O7  1  0.03459500  0.41724400  0.08143300  1
  O  O8  1  0.21605600  0.93066500  0.36072500  1
  O  O9  1  0.21605600  0.56933500  0.86072500  1
  O  O10  1  0.78394400  0.06933500  0.63927500  1
  O  O11  1  0.78394400  0.43066500  0.13927500  1
  O  O12  1  0.09771600  0.56943500  0.25032300  1
  O  O13  1  0.09771600  0.93056500  0.75032300  1
  O  O14  1  0.90228400  0.43056500  0.74967700  1
  O  O15  1  0.90228400  0.06943500  0.24967700  1
  O  O16  1  0.09617100  0.45506200  0.39986100  1
  O  O17  1  0.09617100  0.04493800  0.89986100  1
  O  O18  1  0.90382900  0.54493800  0.60013900  1
  O  O19  1  0.90382900  0.95506200  0.10013900  1
  O  O20  1  0.62869700  0.11081600  0.31992900  1
  O  O21  1  0.62869700  0.38918400  0.81992900  1
  O  O22  1  0.37130300  0.88918400  0.68007100  1
  O  O23  1  0.37130300  0.61081600  0.18007100  1
  O  O24  1  0.67141200  0.88888500  0.46723100  1
  O  O25  1  0.67141200  0.61111500  0.96723100  1
  O  O26  1  0.32858800  0.11111500  0.53276900  1
  O  O27  1  0.32858800  0.38888500  0.03276900  1
  O  O28  1  0.44354800  0.37107900  0.41906500  1
  O  O29  1  0.44354800  0.12892100  0.91906500  1
  O  O30  1  0.55645200  0.62892100  0.58093500  1
  O  O31  1  0.55645200  0.87107900  0.08093500  1
loop_
_geom_bond_atom_site_label_1
_geom_bond_atom_site_label_2
_geom_bond_distance
_geom_bond_site_symmetry_2
Al0 O0 1.827222 1_555
Al0 O8 1.911391 1_655
Al0 O16 1.924799 1_655
Al0 O4 1.955836 1_555
Al0 O15 2.027804 1_565
Al0 O12 2.048934 1_655
Al1 O1 1.827222 1_555
Al1 O9 1.911391 1_655
Al1 O17 1.924799 1_665
Al1 O5 1.955836 1_555
Al1 O14 2.027804 1_555
Al1 O13 2.048934 1_655
Al2 O2 1.827222 1_555
Al2 O10 1.911391 1_455
Al2 O18 1.924799 1_455
Al2 O6 1.955836 1_555
Al2 O13 2.027804 1_545
Al2 O14 2.048934 1_455
Al3 O3 1.827222 1_555
Al3 O11 1.911391 1_455
Al3 O19 1.924799 1_445
Al3 O7 1.955836 1_555
Al3 O12 2.027804 1_555
Al3 O15 2.048934 1_455
O0 Te0 1.882810 1_555
O1 Te1 1.882810 1_565
O2 Te2 1.882810 1_555
O3 Te3 1.882810 1_545
O4 Te4 1.898596 1_565
O5 Te5 1.898596 1_555
O6 Te6 1.898596 1_545
O7 Te7 1.898596 1_555
O8 V0 1.822592 1_565
O8 Te3 2.145907 1_555
O9 V1 1.822592 1_555
O9 Te2 2.145907 1_555
O10 V2 1.822592 1_545
O10 Te1 2.145907 1_555
O11 V3 1.822592 1_555
O11 Te0 2.145907 1_555
O12 Te3 1.958086 1_555
O13 Te2 1.958086 1_555
O14 Te1 1.958086 1_555
O15 Te0 1.958086 1_555
O16 V0 1.717750 1_555
O17 V1 1.717750 1_555
O18 V2 1.717750 1_555
O19 V3 1.717750 1_555
O20 Te4 1.927746 1_555
O20 Te0 2.082645 1_555
O21 Te5 1.927746 1_555
O21 Te1 2.082645 1_555
O22 Te6 1.927746 1_555
O22 Te2 2.082645 1_555
O23 Te7 1.927746 1_555
O23 Te3 2.082645 1_555
O24 V2 1.844958 1_555
O24 Te4 1.935327 1_565
O25 V3 1.844958 1_556
O25 Te5 1.935327 1_555
O26 V0 1.844958 1_555
O26 Te6 1.935327 1_545
O27 V1 1.844958 1_554
O27 Te7 1.935327 1_555
O28 V0 1.645442 1_555
O29 V1 1.645442 1_555
O30 V2 1.645442 1_555
O31 V3 1.645442 1_555
