# generated using pymatgen
data_CsMo3I3Cl4
_symmetry_space_group_name_H-M   'P 1'
_cell_length_a   10.81364811
_cell_length_b   10.81364811
_cell_length_c   16.33798200
_cell_angle_alpha   90.00000000
_cell_angle_beta   90.00000000
_cell_angle_gamma   120.00000066
_symmetry_Int_Tables_number   1
_chemical_formula_structural   CsMo3I3Cl4
_chemical_formula_sum   'Cs4 Mo12 I12 Cl16'
_cell_volume   1654.52566308
_cell_formula_units_Z   4
loop_
 _symmetry_equiv_pos_site_id
 _symmetry_equiv_pos_as_xyz
  1  'x, y, z'
loop_
 _atom_site_type_symbol
 _atom_site_label
 _atom_site_symmetry_multiplicity
 _atom_site_fract_x
 _atom_site_fract_y
 _atom_site_fract_z
 _atom_site_occupancy
  Cs  Cs0  1  0.00000000  0.00000000  0.99841900  1
  Cs  Cs1  1  0.00000000  0.00000000  0.49841900  1
  Cs  Cs2  1  0.66666700  0.33333300  0.71629300  1
  Cs  Cs3  1  0.33333300  0.66666700  0.21629300  1
  Mo  Mo0  1  0.47757100  0.67397400  0.77791100  1
  Mo  Mo1  1  0.19640300  0.52242900  0.77791100  1
  Mo  Mo2  1  0.80359700  0.32602600  0.27791100  1
  Mo  Mo3  1  0.32602600  0.80359700  0.77791100  1
  Mo  Mo4  1  0.67397400  0.47757100  0.27791100  1
  Mo  Mo5  1  0.52242900  0.19640300  0.27791100  1
  Mo  Mo6  1  0.46893400  0.81184800  0.64674200  1
  Mo  Mo7  1  0.34291300  0.53106600  0.64674200  1
  Mo  Mo8  1  0.65708700  0.18815200  0.14674200  1
  Mo  Mo9  1  0.18815200  0.65708700  0.64674200  1
  Mo  Mo10  1  0.81184800  0.46893400  0.14674200  1
  Mo  Mo11  1  0.53106600  0.34291300  0.14674200  1
  I  I0  1  0.97338400  0.30317300  0.86923900  1
  I  I1  1  0.32978900  0.02661600  0.86923900  1
  I  I2  1  0.67021100  0.69682700  0.36923900  1
  I  I3  1  0.69682700  0.67021100  0.86923900  1
  I  I4  1  0.30317300  0.97338400  0.36923900  1
  I  I5  1  0.02661600  0.32978900  0.36923900  1
  I  I6  1  0.67192200  0.04394300  0.55332000  1
  I  I7  1  0.37202100  0.32807800  0.55332000  1
  I  I8  1  0.62797900  0.95605700  0.05332000  1
  I  I9  1  0.95605700  0.62797900  0.55332000  1
  I  I10  1  0.04394300  0.67192200  0.05332000  1
  I  I11  1  0.32807800  0.37202100  0.05332000  1
  Cl  Cl0  1  0.60789700  0.68584000  0.64884000  1
  Cl  Cl1  1  0.07794300  0.39210300  0.64884000  1
  Cl  Cl2  1  0.92205700  0.31416000  0.14884000  1
  Cl  Cl3  1  0.31416000  0.92205700  0.64884000  1
  Cl  Cl4  1  0.68584000  0.60789700  0.14884000  1
  Cl  Cl5  1  0.39210300  0.07794300  0.14884000  1
  Cl  Cl6  1  0.66666700  0.33333300  0.02572900  1
  Cl  Cl7  1  0.33333300  0.66666700  0.52572900  1
  Cl  Cl8  1  0.66666700  0.33333300  0.39810600  1
  Cl  Cl9  1  0.33333300  0.66666700  0.89810600  1
  Cl  Cl10  1  0.59171300  0.93803200  0.77549900  1
  Cl  Cl11  1  0.34631900  0.40828700  0.77549900  1
  Cl  Cl12  1  0.65368100  0.06196800  0.27549900  1
  Cl  Cl13  1  0.06196800  0.65368100  0.77549900  1
  Cl  Cl14  1  0.93803200  0.59171300  0.27549900  1
  Cl  Cl15  1  0.40828700  0.34631900  0.27549900  1
loop_
_geom_bond_atom_site_label_1
_geom_bond_atom_site_label_2
_geom_bond_distance
_geom_bond_site_symmetry_2
Cs0 I11 3.911840 1_556
Cs0 I8 3.911840 1_446
Cs0 I10 3.911840 1_546
Cs0 I3 4.028492 1_445
Cs0 I1 4.028492 1_555
Cs0 I0 4.028492 1_455
Cs1 I7 3.911840 1_555
Cs1 I9 3.911840 1_445
Cs1 I6 3.911840 1_455
Cs1 I2 4.028492 1_445
Cs1 I5 4.028492 1_555
Cs1 I4 4.028492 1_545
Cs2 I6 4.130819 1_555
Cs2 I9 4.130823 1_555
Cs2 I7 4.130827 1_555
Cs2 I0 4.293358 1_555
Cs2 I1 4.293363 1_555
Cs2 I3 4.293367 1_555
Cs3 I10 4.130819 1_555
Cs3 I8 4.130823 1_555
Cs3 I11 4.130827 1_555
Cs3 I4 4.293358 1_555
Cs3 I5 4.293363 1_555
Cs3 I2 4.293367 1_555
I0 Mo1 2.818861 1_655
I1 Mo3 2.818862 1_545
I2 Mo4 2.818862 1_555
I3 Mo0 2.818862 1_555
I4 Mo5 2.818861 1_565
I5 Mo2 2.818862 1_455
I6 Mo6 2.817418 1_545
I7 Mo7 2.817423 1_555
I8 Mo8 2.817414 1_565
I9 Mo9 2.817414 1_655
I10 Mo10 2.817418 1_455
I11 Mo11 2.817423 1_555
Cl0 Mo6 2.482650 1_555
Cl0 Mo7 2.493453 1_555
Cl0 Mo0 2.503722 1_555
Cl1 Mo7 2.482641 1_555
Cl1 Mo9 2.493454 1_555
Cl1 Mo1 2.503722 1_555
Cl2 Mo8 2.482641 1_555
Cl2 Mo10 2.493444 1_555
Cl2 Mo2 2.503722 1_555
Cl3 Mo9 2.482641 1_555
Cl3 Mo6 2.493444 1_555
Cl3 Mo3 2.503722 1_555
Cl4 Mo10 2.482650 1_555
Cl4 Mo11 2.493453 1_555
Cl4 Mo4 2.503722 1_555
Cl5 Mo11 2.482641 1_555
Cl5 Mo8 2.493454 1_555
Cl5 Mo5 2.503722 1_555
Cl6 Mo10 2.494344 1_555
Cl6 Mo8 2.494344 1_555
Cl6 Mo11 2.494344 1_555
Cl7 Mo6 2.494344 1_555
Cl7 Mo9 2.494344 1_555
Cl7 Mo7 2.494344 1_555
Cl8 Mo2 2.484360 1_555
Cl8 Mo5 2.484363 1_555
Cl8 Mo4 2.484366 1_555
Cl9 Mo3 2.484360 1_555
Cl9 Mo1 2.484363 1_555
Cl9 Mo0 2.484366 1_555
Cl10 Mo0 2.480741 1_555
Cl10 Mo3 2.488502 1_555
Cl10 Mo6 2.497650 1_555
Cl10 Cs2 4.049756 1_565
Cl11 Mo1 2.480741 1_555
Cl11 Mo0 2.488502 1_555
Cl11 Mo7 2.497653 1_555
Cl11 Cs2 4.049766 1_555
Cl12 Mo2 2.480741 1_555
Cl12 Mo5 2.488502 1_555
Cl12 Mo8 2.497647 1_555
Cl12 Cs3 4.049759 1_545
Cl13 Mo3 2.480741 1_555
Cl13 Mo1 2.488502 1_555
Cl13 Mo9 2.497647 1_555
Cl13 Cs2 4.049759 1_455
Cl14 Mo4 2.480741 1_555
Cl14 Mo2 2.488502 1_555
Cl14 Mo10 2.497650 1_555
Cl14 Cs3 4.049756 1_655
Cl15 Mo5 2.480741 1_555
Cl15 Mo4 2.488502 1_555
Cl15 Mo11 2.497653 1_555
Cl15 Cs3 4.049766 1_555
