# generated using pymatgen
data_NaMg4Ag3As4
_symmetry_space_group_name_H-M   'P 1'
_cell_length_a   4.93824001
_cell_length_b   5.46170500
_cell_length_c   9.78260311
_cell_angle_alpha   90.00000000
_cell_angle_beta   90.00000000
_cell_angle_gamma   90.00000000
_symmetry_Int_Tables_number   1
_chemical_formula_structural   NaMg4Ag3As4
_chemical_formula_sum   'Na1 Mg4 Ag3 As4'
_cell_volume   263.84864459
_cell_formula_units_Z   1
loop_
 _symmetry_equiv_pos_site_id
 _symmetry_equiv_pos_as_xyz
  1  'x, y, z'
loop_
 _atom_site_type_symbol
 _atom_site_label
 _atom_site_symmetry_multiplicity
 _atom_site_fract_x
 _atom_site_fract_y
 _atom_site_fract_z
 _atom_site_occupancy
  Na  Na0  1  0.00000000  0.21226300  0.75000000  1
  Mg  Mg0  1  0.00000000  0.98520800  0.46574800  1
  Mg  Mg1  1  0.50000000  0.50732700  0.75000000  1
  Mg  Mg2  1  0.00000000  0.98520800  0.03425200  1
  Mg  Mg3  1  0.50000000  0.51032800  0.25000000  1
  Ag  Ag0  1  0.50000000  0.75502900  0.99552400  1
  Ag  Ag1  1  0.00000000  0.29313600  0.25000000  1
  Ag  Ag2  1  0.50000000  0.75502900  0.50447600  1
  As  As0  1  0.00000000  0.49329400  0.00111900  1
  As  As1  1  0.50000000  0.00671600  0.25000000  1
  As  As2  1  0.00000000  0.49329400  0.49888100  1
  As  As3  1  0.50000000  0.00316700  0.75000000  1
loop_
_geom_bond_atom_site_label_1
_geom_bond_atom_site_label_2
_geom_bond_distance
_geom_bond_site_symmetry_2
Mg0 Na0 3.044716 1_565
Mg1 Na0 2.948500 1_555
Mg1 Na0 2.948500 1_655
Mg2 Na0 3.044716 1_564
Ag0 Mg1 2.756669 1_555
Ag0 As3 2.757838 1_565
Ag0 Mg2 2.796527 1_656
Ag0 Mg2 2.796527 1_556
Ag0 Mg3 2.825507 1_556
Ag0 As1 2.843754 1_566
Ag0 As0 2.853607 1_656
Ag0 As0 2.853607 1_556
Ag1 As2 2.668872 1_555
Ag1 As0 2.668872 1_555
Ag1 Mg0 2.698708 1_545
Ag1 Mg2 2.698708 1_545
Ag1 Mg3 2.739291 1_555
Ag1 Mg3 2.739291 1_455
Ag1 As1 2.922964 1_455
Ag1 As1 2.922964 1_555
Ag2 Mg1 2.756669 1_555
Ag2 As3 2.757838 1_565
Ag2 Mg0 2.796527 1_555
Ag2 Mg0 2.796527 1_655
Ag2 Mg3 2.825507 1_555
Ag2 As1 2.843754 1_565
Ag2 As2 2.853607 1_555
Ag2 As2 2.853607 1_655
As0 Mg2 2.706170 1_555
As0 Mg2 2.793881 1_545
As0 Na0 2.896690 1_554
As1 Mg3 2.711125 1_545
As1 Mg3 2.750580 1_555
As1 Mg2 3.250367 1_645
As1 Mg2 3.250367 1_545
As1 Mg0 3.250367 1_645
As1 Mg0 3.250367 1_545
As2 Mg0 2.706170 1_555
As2 Mg0 2.793881 1_545
As2 Na0 2.896690 1_555
As3 Mg1 2.708132 1_545
As3 Na0 2.720435 1_555
As3 Na0 2.720435 1_655
As3 Mg1 2.753573 1_555
