# generated using pymatgen
data_YbYAl6(BO3)8
_symmetry_space_group_name_H-M   'P 1'
_cell_length_a   7.28299194
_cell_length_b   7.28299194
_cell_length_c   7.28299239
_cell_angle_alpha   79.90996645
_cell_angle_beta   79.90996645
_cell_angle_gamma   79.90996464
_symmetry_Int_Tables_number   1
_chemical_formula_structural   YbYAl6(BO3)8
_chemical_formula_sum   'Yb1 Y1 Al6 B8 O24'
_cell_volume   370.26299277
_cell_formula_units_Z   1
loop_
 _symmetry_equiv_pos_site_id
 _symmetry_equiv_pos_as_xyz
  1  'x, y, z'
loop_
 _atom_site_type_symbol
 _atom_site_label
 _atom_site_symmetry_multiplicity
 _atom_site_fract_x
 _atom_site_fract_y
 _atom_site_fract_z
 _atom_site_occupancy
  Yb  Yb0  1  0.50000000  0.50000000  0.50000000  1
  Y  Y0  1  0.00000000  0.00000000  0.00000000  1
  Al  Al0  1  0.44522000  0.00000000  0.55478000  1
  Al  Al1  1  0.94334200  0.50000000  0.05665800  1
  Al  Al2  1  0.00000000  0.55478000  0.44522000  1
  Al  Al3  1  0.50000000  0.05665800  0.94334200  1
  Al  Al4  1  0.55478000  0.44522000  0.00000000  1
  Al  Al5  1  0.05665800  0.94334200  0.50000000  1
  B  B0  1  0.80624300  0.25126500  0.69170300  1
  B  B1  1  0.30829700  0.74873500  0.19375700  1
  B  B2  1  0.25126500  0.69170300  0.80624300  1
  B  B3  1  0.74873500  0.19375700  0.30829700  1
  B  B4  1  0.69170300  0.80624300  0.25126500  1
  B  B5  1  0.19375700  0.30829700  0.74873500  1
  B  B6  1  0.25044500  0.25044500  0.25044500  1
  B  B7  1  0.74955500  0.74955500  0.74955500  1
  O  O0  1  0.39810700  0.24964800  0.10201100  1
  O  O1  1  0.89798900  0.75035200  0.60189300  1
  O  O2  1  0.24964800  0.10201100  0.39810700  1
  O  O3  1  0.75035200  0.60189300  0.89798900  1
  O  O4  1  0.10201100  0.39810700  0.24964800  1
  O  O5  1  0.60189300  0.89798900  0.75035200  1
  O  O6  1  0.93848400  0.08926200  0.68848000  1
  O  O7  1  0.43890400  0.59049500  0.18544300  1
  O  O8  1  0.08926200  0.68848000  0.93848400  1
  O  O9  1  0.59049500  0.18544300  0.43890400  1
  O  O10  1  0.68848000  0.93848400  0.08926200  1
  O  O11  1  0.18544300  0.43890400  0.59049500  1
  O  O12  1  0.81455700  0.40950500  0.56109600  1
  O  O13  1  0.31152000  0.91073800  0.06151600  1
  O  O14  1  0.56109600  0.81455700  0.40950500  1
  O  O15  1  0.06151600  0.31152000  0.91073800  1
  O  O16  1  0.40950500  0.56109600  0.81455700  1
  O  O17  1  0.91073800  0.06151600  0.31152000  1
  O  O18  1  0.65936800  0.24964400  0.84192300  1
  O  O19  1  0.15807700  0.75035600  0.34063200  1
  O  O20  1  0.24964400  0.84192300  0.65936800  1
  O  O21  1  0.75035600  0.34063200  0.15807700  1
  O  O22  1  0.84192300  0.65936800  0.24964400  1
  O  O23  1  0.34063200  0.15807700  0.75035600  1
loop_
_geom_bond_atom_site_label_1
_geom_bond_atom_site_label_2
_geom_bond_distance
_geom_bond_site_symmetry_2
Al0 O14 1.855849 1_545
Al0 O9 1.855849 1_555
Al0 O2 1.945347 1_555
Al0 O5 1.945347 1_545
Al0 O20 1.954903 1_545
Al0 O23 1.954903 1_555
Al1 O15 1.879135 1_654
Al1 O8 1.879135 1_654
Al1 O3 1.940307 1_554
Al1 O4 1.940307 1_655
Al1 O21 1.943109 1_555
Al1 O22 1.943109 1_555
Al2 O11 1.855849 1_555
Al2 O12 1.855849 1_455
Al2 O1 1.945347 1_455
Al2 O4 1.945347 1_555
Al2 O19 1.954903 1_555
Al2 O22 1.954903 1_455
Al3 O10 1.879135 1_546
Al3 O13 1.879135 1_546
Al3 O0 1.940307 1_556
Al3 O5 1.940307 1_545
Al3 O18 1.943109 1_555
Al3 O23 1.943109 1_555
Al4 O7 1.855849 1_555
Al4 O16 1.855849 1_554
Al4 O3 1.945347 1_554
Al4 O0 1.945347 1_555
Al4 O21 1.954903 1_555
Al4 O18 1.954903 1_554
Al5 O6 1.879135 1_465
Al5 O17 1.879135 1_465
Al5 O1 1.940307 1_455
Al5 O2 1.940307 1_565
Al5 O20 1.943109 1_555
Al5 O19 1.943109 1_555
B0 O12 1.362642 1_555
B0 O6 1.387024 1_555
B0 O18 1.389662 1_555
B1 O7 1.362642 1_555
B1 O13 1.387024 1_555
B1 O19 1.389662 1_555
B2 O16 1.362642 1_555
B2 O8 1.387024 1_555
B2 O20 1.389662 1_555
B3 O9 1.362642 1_555
B3 O17 1.387024 1_555
B3 O21 1.389662 1_555
B4 O14 1.362642 1_555
B4 O10 1.387024 1_555
B4 O22 1.389662 1_555
B5 O11 1.362642 1_555
B5 O15 1.387024 1_555
B5 O23 1.389662 1_555
B6 O4 1.384873 1_555
B6 O2 1.384874 1_555
B6 O0 1.384874 1_555
B7 O5 1.384873 1_555
B7 O1 1.384874 1_555
B7 O3 1.384874 1_555
O6 Y0 2.346933 1_656
O7 Yb0 2.367707 1_555
O8 Y0 2.346933 1_566
O9 Yb0 2.367707 1_555
O10 Y0 2.346933 1_665
O11 Yb0 2.367707 1_555
O12 Yb0 2.367707 1_555
O13 Y0 2.346933 1_565
O14 Yb0 2.367707 1_555
O15 Y0 2.346933 1_556
O16 Yb0 2.367707 1_555
O17 Y0 2.346933 1_655
