# generated using pymatgen
data_Sr2MgTi6N2O11
_symmetry_space_group_name_H-M   'P 1'
_cell_length_a   3.93205303
_cell_length_b   7.63747509
_cell_length_c   9.64098210
_cell_angle_alpha   81.72964368
_cell_angle_beta   90.00343171
_cell_angle_gamma   75.08937437
_symmetry_Int_Tables_number   1
_chemical_formula_structural   Sr2MgTi6N2O11
_chemical_formula_sum   'Sr2 Mg1 Ti6 N2 O11'
_cell_volume   276.66130183
_cell_formula_units_Z   1
loop_
 _symmetry_equiv_pos_site_id
 _symmetry_equiv_pos_as_xyz
  1  'x, y, z'
loop_
 _atom_site_type_symbol
 _atom_site_label
 _atom_site_symmetry_multiplicity
 _atom_site_fract_x
 _atom_site_fract_y
 _atom_site_fract_z
 _atom_site_occupancy
  Sr  Sr0  1  0.53360200  0.92892000  0.84070600  1
  Sr  Sr1  1  0.51233600  0.97656000  0.48068900  1
  Mg  Mg0  1  0.94461600  0.11323900  0.19354100  1
  Ti  Ti0  1  0.13094700  0.73495500  0.07491700  1
  Ti  Ti1  1  0.17808700  0.64183600  0.40975100  1
  Ti  Ti2  1  0.23114300  0.53456300  0.73644200  1
  Ti  Ti3  1  0.75092100  0.49512500  0.22444200  1
  Ti  Ti4  1  0.83121500  0.33574200  0.55893800  1
  Ti  Ti5  1  0.86207900  0.27248700  0.91035600  1
  N  N0  1  0.22731000  0.54238000  0.23570400  1
  N  N1  1  0.81854200  0.36020500  0.07317400  1
  O  O0  1  0.05578800  0.88723100  0.31949400  1
  O  O1  1  0.12548800  0.74546300  0.60325600  1
  O  O2  1  0.15781000  0.68108800  0.89171100  1
  O  O3  1  0.62356400  0.74976300  0.09555600  1
  O  O4  1  0.69090900  0.61592300  0.42763400  1
  O  O5  1  0.75888000  0.47905900  0.74171000  1
  O  O6  1  0.30330200  0.39136100  0.54787200  1
  O  O7  1  0.36232200  0.27212500  0.85737200  1
  O  O8  1  0.87357700  0.25111000  0.36869300  1
  O  O9  1  0.94368700  0.11098600  0.66189200  1
  O  O10  1  0.99120200  0.01489200  0.00084700  1
loop_
_geom_bond_atom_site_label_1
_geom_bond_atom_site_label_2
_geom_bond_distance
_geom_bond_site_symmetry_2
Mg0 O0 1.911486 1_645
Mg0 N1 2.009769 1_555
Mg0 O10 2.092770 1_555
Mg0 O8 2.097268 1_555
N0 Ti1 1.929025 1_555
N0 Ti0 1.940865 1_555
N0 Ti3 2.002468 1_555
N0 Ti3 2.002507 1_455
N1 Ti5 1.784859 1_554
N1 Ti3 1.884343 1_555
O0 Ti1 1.888918 1_555
O0 Sr1 2.646138 1_455
O0 Sr1 2.652968 1_555
O1 Ti2 1.864512 1_555
O1 Ti1 2.118993 1_555
O1 Sr1 2.744808 1_455
O1 Sr1 2.758107 1_555
O2 Ti0 1.867322 1_556
O2 Ti2 1.972881 1_555
O2 Sr0 2.679478 1_555
O2 Sr0 2.681414 1_455
O3 Ti0 1.980667 1_655
O3 Ti0 1.980783 1_555
O3 Ti3 2.092970 1_555
O3 Sr0 2.611107 1_554
O4 Ti1 1.979825 1_555
O4 Ti1 1.980853 1_655
O4 Ti4 2.258096 1_555
O4 Ti3 2.269888 1_555
O4 Sr1 2.784100 1_555
O5 Ti2 2.007332 1_555
O5 Ti2 2.007365 1_655
O5 Ti5 2.056657 1_555
O5 Ti4 2.186031 1_555
O6 Ti4 2.007573 1_455
O6 Ti4 2.008446 1_555
O6 Ti1 2.111289 1_555
O6 Ti2 2.234771 1_555
O7 Ti5 2.031140 1_555
O7 Ti5 2.031671 1_455
O7 Ti2 2.106752 1_555
O7 Sr0 2.561811 1_545
O8 Ti4 2.023696 1_555
O8 Ti3 2.105150 1_555
O8 Sr1 2.908937 1_545
O8 Sr1 2.917027 1_645
O9 Ti4 1.801805 1_555
O9 Sr0 2.817085 1_645
O9 Sr0 2.823152 1_545
O9 Sr1 2.897325 1_545
O9 Sr1 2.905267 1_645
O10 Ti5 1.970174 1_554
O10 Ti0 2.083054 1_645
O10 Sr0 2.633398 1_644
O10 Sr0 2.636594 1_544
