# generated using pymatgen
data_KSi2N3
_symmetry_space_group_name_H-M   'P 1'
_cell_length_a   5.52457460
_cell_length_b   5.65967719
_cell_length_c   5.00480610
_cell_angle_alpha   90.00000000
_cell_angle_beta   90.00000000
_cell_angle_gamma   120.81229933
_symmetry_Int_Tables_number   1
_chemical_formula_structural   KSi2N3
_chemical_formula_sum   'K2 Si4 N6'
_cell_volume   134.39869755
_cell_formula_units_Z   2
loop_
 _symmetry_equiv_pos_site_id
 _symmetry_equiv_pos_as_xyz
  1  'x, y, z'
loop_
 _atom_site_type_symbol
 _atom_site_label
 _atom_site_symmetry_multiplicity
 _atom_site_fract_x
 _atom_site_fract_y
 _atom_site_fract_z
 _atom_site_occupancy
  K  K0  1  0.00000000  0.64842163  0.48251019  1
  K  K1  1  -0.00000000  0.35157837  0.98251019  1
  Si  Si0  1  0.34887872  0.31543112  0.48955953  1
  Si  Si1  1  0.65112128  0.96655340  0.48955953  1
  Si  Si2  1  0.65112128  0.68456888  0.98955953  1
  Si  Si3  1  0.34887872  0.03344660  0.98955953  1
  N  N0  1  0.47672864  0.35720319  0.82474363  1
  N  N1  1  0.52327136  0.88047456  0.82474363  1
  N  N2  1  0.52327136  0.64279681  0.32474363  1
  N  N3  1  0.47672864  0.11952544  0.32474363  1
  N  N4  1  -0.00000000  0.82854236  0.97688650  1
  N  N5  1  0.00000000  0.17145764  0.47688650  1
loop_
_geom_bond_atom_site_label_1
_geom_bond_atom_site_label_2
_geom_bond_distance
_geom_bond_site_symmetry_2
K0 N4 2.676038 1_555
K0 N5 2.699609 1_555
K0 N4 2.728169 1_554
K0 N2 2.734057 1_455
K0 N3 2.734058 1_565
K0 N5 2.960349 1_565
K0 N2 3.012602 1_555
K0 N3 3.012603 1_455
K0 N1 3.020942 1_555
K0 N0 3.020942 1_455
K1 N5 2.676038 1_556
K1 N4 2.699609 1_555
K1 N5 2.728169 1_555
K1 N0 2.734057 1_555
K1 N1 2.734058 1_445
K1 N4 2.960349 1_545
K1 N0 3.012602 1_455
K1 N1 3.012603 1_555
K1 N3 3.020942 1_456
K1 N2 3.020942 1_556
N0 Si0 1.788245 1_555
N0 Si3 1.791914 1_555
N0 Si2 1.792412 1_555
N1 Si1 1.788245 1_555
N1 Si2 1.791910 1_555
N1 Si3 1.792407 1_565
N2 Si2 1.788245 1_554
N2 Si1 1.791914 1_555
N2 Si0 1.792412 1_555
N3 Si3 1.788245 1_554
N3 Si0 1.791910 1_555
N3 Si1 1.792407 1_545
N4 Si3 1.665517 1_565
N4 Si2 1.665517 1_455
N5 Si1 1.665517 1_445
N5 Si0 1.665517 1_555
