# generated using pymatgen
data_LaSbAu2
_symmetry_space_group_name_H-M   'P 1'
_cell_length_a   12.08619321
_cell_length_b   12.08619321
_cell_length_c   12.08619321
_cell_angle_alpha   126.93424221
_cell_angle_beta   117.72608208
_cell_angle_gamma   86.20751160
_symmetry_Int_Tables_number   1
_chemical_formula_structural   LaSbAu2
_chemical_formula_sum   'La1 Sb1 Au2'
_cell_volume   1190.99703918
_cell_formula_units_Z   1
loop_
 _symmetry_equiv_pos_site_id
 _symmetry_equiv_pos_as_xyz
  1  'x, y, z'
loop_
 _atom_site_type_symbol
 _atom_site_label
 _atom_site_symmetry_multiplicity
 _atom_site_fract_x
 _atom_site_fract_y
 _atom_site_fract_z
 _atom_site_occupancy
  La  La0  1  0.00000000  0.50000000  0.50000000  1
  Sb  Sb0  1  0.00000000  0.00000000  0.00000000  1
  Au  Au0  1  0.00000000  0.24950500  0.24950500  1
  Au  Au1  1  0.00000000  0.75049500  0.75049500  1
loop_
_geom_bond_atom_site_label_1
_geom_bond_atom_site_label_2
_geom_bond_distance
_geom_bond_site_symmetry_2
Au0 Sb0 2.694174 1_555
Au0 La0 2.704865 1_555
Au1 Sb0 2.694174 1_566
Au1 La0 2.704865 1_555
