# generated using pymatgen
data_Ca3CdO4
_symmetry_space_group_name_H-M   'P 1'
_cell_length_a   3.38757159
_cell_length_b   3.38757159
_cell_length_c   9.53354379
_cell_angle_alpha   90.00000000
_cell_angle_beta   90.00000000
_cell_angle_gamma   90.00000000
_symmetry_Int_Tables_number   1
_chemical_formula_structural   Ca3CdO4
_chemical_formula_sum   'Ca3 Cd1 O4'
_cell_volume   109.40352864
_cell_formula_units_Z   1
loop_
 _symmetry_equiv_pos_site_id
 _symmetry_equiv_pos_as_xyz
  1  'x, y, z'
loop_
 _atom_site_type_symbol
 _atom_site_label
 _atom_site_symmetry_multiplicity
 _atom_site_fract_x
 _atom_site_fract_y
 _atom_site_fract_z
 _atom_site_occupancy
  Ca  Ca0  1  0.50000000  0.50000000  0.75431598  1
  Ca  Ca1  1  -0.00000000  0.00000000  0.50000000  1
  Ca  Ca2  1  0.50000000  0.50000000  0.24568402  1
  Cd  Cd0  1  -0.00000000  0.00000000  0.00000000  1
  O  O0  1  0.00000000  0.00000000  0.24965914  1
  O  O1  1  0.50000000  0.50000000  0.00000000  1
  O  O2  1  -0.00000000  -0.00000000  0.75034086  1
  O  O3  1  0.50000000  0.50000000  0.50000000  1
loop_
_geom_bond_atom_site_label_1
_geom_bond_atom_site_label_2
_geom_bond_distance
_geom_bond_site_symmetry_2
Ca0 O1 2.342239 1_556
Ca0 O2 2.395675 1_655
Ca0 O2 2.395675 1_555
Ca0 O2 2.395675 1_565
Ca0 O2 2.395675 1_665
Ca0 O3 2.424533 1_555
Ca1 O2 2.386636 1_555
Ca1 O0 2.386636 1_555
Ca1 O3 2.395375 1_555
Ca1 O3 2.395375 1_445
Ca1 O3 2.395375 1_545
Ca1 O3 2.395375 1_455
Ca2 O1 2.342239 1_555
Ca2 O0 2.395675 1_665
Ca2 O0 2.395675 1_565
Ca2 O0 2.395675 1_555
Ca2 O0 2.395675 1_655
Ca2 O3 2.424533 1_555
Cd0 O0 2.380136 1_555
Cd0 O2 2.380136 1_554
Cd0 O1 2.395375 1_555
Cd0 O1 2.395375 1_455
Cd0 O1 2.395375 1_545
Cd0 O1 2.395375 1_445
