# generated using pymatgen
data_Fe2CoAs2(H5O7)2
_symmetry_space_group_name_H-M   'P 1'
_cell_length_a   9.43797200
_cell_length_b   5.72597100
_cell_length_c   10.74176018
_cell_angle_alpha   89.79887315
_cell_angle_beta   90.00000000
_cell_angle_gamma   90.00000000
_symmetry_Int_Tables_number   1
_chemical_formula_structural   Fe2CoAs2(H5O7)2
_chemical_formula_sum   'Fe4 Co2 As4 H20 O28'
_cell_volume   580.49783604
_cell_formula_units_Z   2
loop_
 _symmetry_equiv_pos_site_id
 _symmetry_equiv_pos_as_xyz
  1  'x, y, z'
loop_
 _atom_site_type_symbol
 _atom_site_label
 _atom_site_symmetry_multiplicity
 _atom_site_fract_x
 _atom_site_fract_y
 _atom_site_fract_z
 _atom_site_occupancy
  Fe  Fe0  1  0.13841000  0.64513100  0.45382700  1
  Fe  Fe1  1  0.63841000  0.85486900  0.54617300  1
  Fe  Fe2  1  0.86159000  0.35486900  0.54617300  1
  Fe  Fe3  1  0.36159000  0.14513100  0.45382700  1
  Co  Co0  1  0.50000000  0.50000000  0.00000000  1
  Co  Co1  1  0.00000000  0.00000000  0.00000000  1
  As  As0  1  0.57312800  0.31993400  0.71575300  1
  As  As1  1  0.07312800  0.18006600  0.28424700  1
  As  As2  1  0.42687200  0.68006600  0.28424700  1
  As  As3  1  0.92687200  0.81993400  0.71575300  1
  H  H0  1  0.80367700  0.69017700  0.06420700  1
  H  H1  1  0.30367700  0.80982300  0.93579300  1
  H  H2  1  0.19632300  0.30982300  0.93579300  1
  H  H3  1  0.69632300  0.19017700  0.06420700  1
  H  H4  1  0.69435400  0.72895500  0.90198500  1
  H  H5  1  0.19435400  0.77104500  0.09801500  1
  H  H6  1  0.30564600  0.27104500  0.09801500  1
  H  H7  1  0.80564600  0.22895500  0.90198500  1
  H  H8  1  0.44363700  0.93527400  0.88505200  1
  H  H9  1  0.94363700  0.56472600  0.11494800  1
  H  H10  1  0.44904500  0.67183800  0.74946500  1
  H  H11  1  0.94904500  0.82816200  0.25053500  1
  H  H12  1  0.55095500  0.32816200  0.25053500  1
  H  H13  1  0.05095500  0.17183800  0.74946500  1
  H  H14  1  0.65776100  0.49236200  0.41252500  1
  H  H15  1  0.15776100  0.00763800  0.58747500  1
  H  H16  1  0.34223900  0.50763800  0.58747500  1
  H  H17  1  0.84223900  0.99236200  0.41252500  1
  H  H18  1  0.55636300  0.06472600  0.11494800  1
  H  H19  1  0.05636300  0.43527400  0.88505200  1
  O  O0  1  0.00195000  0.25570800  0.14747800  1
  O  O1  1  0.99805000  0.74429200  0.85252200  1
  O  O2  1  0.75271100  0.34291500  0.70473200  1
  O  O3  1  0.49805000  0.75570800  0.14747800  1
  O  O4  1  0.24728900  0.65708500  0.29526800  1
  O  O5  1  0.74728900  0.84291500  0.70473200  1
  O  O6  1  0.77756800  0.07304400  0.47052300  1
  O  O7  1  0.27756800  0.42695600  0.52947700  1
  O  O8  1  0.22243200  0.92695600  0.52947700  1
  O  O9  1  0.72243200  0.57304400  0.47052300  1
  O  O10  1  0.10305700  0.28019100  0.88387200  1
  O  O11  1  0.60305700  0.21980900  0.11612800  1
  O  O12  1  0.89694300  0.71980900  0.11612800  1
  O  O13  1  0.39694300  0.78019100  0.88387200  1
  O  O14  1  0.81225200  0.11226400  0.96832800  1
  O  O15  1  0.31225200  0.38773600  0.03167200  1
  O  O16  1  0.18774800  0.88773600  0.03167200  1
  O  O17  1  0.68774800  0.61226400  0.96832800  1
  O  O18  1  0.00572600  0.09998400  0.67056300  1
  O  O19  1  0.50572600  0.40001600  0.32943700  1
  O  O20  1  0.99427400  0.90001600  0.32943700  1
  O  O21  1  0.49427400  0.59998400  0.67056300  1
  O  O22  1  0.98525300  0.63424600  0.59610000  1
  O  O23  1  0.48525300  0.86575400  0.40390000  1
  O  O24  1  0.01474700  0.36575400  0.40390000  1
  O  O25  1  0.51474700  0.13424600  0.59610000  1
  O  O26  1  0.25271100  0.15708500  0.29526800  1
  O  O27  1  0.50195000  0.24429200  0.85252200  1
loop_
_geom_bond_atom_site_label_1
_geom_bond_atom_site_label_2
_geom_bond_distance
_geom_bond_site_symmetry_2
Fe0 O8 1.975472 1_555
Fe0 O7 1.984644 1_555
Fe0 O4 1.990156 1_555
Fe0 O24 2.053019 1_555
Fe0 O22 2.104340 1_455
Fe0 O20 2.398384 1_455
Fe1 O9 1.975472 1_555
Fe1 O6 1.984644 1_565
Fe1 O5 1.990156 1_555
Fe1 O25 2.053019 1_565
Fe1 O23 2.104340 1_555
Fe1 O21 2.398384 1_555
Fe2 O6 1.975472 1_555
Fe2 O9 1.984644 1_555
Fe2 O2 1.990156 1_555
Fe2 O22 2.053019 1_555
Fe2 O24 2.104340 1_655
Fe2 O18 2.398384 1_655
Fe3 O7 1.975472 1_555
Fe3 O8 1.984644 1_545
Fe3 O26 1.990156 1_555
Fe3 O23 2.053019 1_545
Fe3 O25 2.104340 1_555
Fe3 O19 2.398384 1_555
Co0 O15 1.915012 1_555
Co0 O17 1.915012 1_554
Co0 O27 2.161028 1_554
Co0 O3 2.161028 1_555
Co0 O11 2.249898 1_555
Co0 O13 2.249898 1_554
Co1 O16 1.915012 1_545
Co1 O14 1.915012 1_454
Co1 O0 2.161028 1_555
Co1 O1 2.161028 1_444
Co1 O12 2.249898 1_445
Co1 O10 2.249898 1_554
As0 O27 1.671162 1_555
As0 O2 1.704085 1_555
As0 O25 1.759442 1_555
As0 O21 1.831784 1_555
As1 O0 1.671162 1_555
As1 O26 1.704085 1_555
As1 O24 1.759442 1_555
As1 O20 1.831784 1_445
As2 O3 1.671162 1_555
As2 O4 1.704085 1_555
As2 O23 1.759442 1_555
As2 O19 1.831784 1_555
As3 O1 1.671162 1_555
As3 O5 1.704085 1_555
As3 O22 1.759442 1_555
As3 O18 1.831784 1_665
H0 O12 1.056094 1_555
H0 O17 1.568470 1_554
H1 O13 1.056094 1_555
H1 O16 1.568470 1_556
H2 O10 1.056094 1_555
H2 O15 1.568470 1_556
H3 O11 1.056094 1_555
H3 O14 1.568470 1_554
H4 O17 0.977165 1_555
H5 O16 0.977165 1_555
H6 O15 0.977165 1_555
H7 O14 0.977165 1_555
H8 O13 0.991463 1_555
H9 O12 0.991463 1_555
H10 O21 1.035509 1_555
H11 O20 1.035509 1_555
H12 O19 1.035509 1_555
H13 O18 1.035509 1_555
H14 O9 0.987989 1_555
H15 O8 0.987989 1_545
H16 O7 0.987989 1_555
H17 O6 0.987989 1_565
H18 O11 0.991463 1_555
H19 O10 0.991463 1_555
