# generated using pymatgen
data_NaV4Cd3O12
_symmetry_space_group_name_H-M   'P 1'
_cell_length_a   5.35417487
_cell_length_b   5.40070594
_cell_length_c   7.66689058
_cell_angle_alpha   90.38126366
_cell_angle_beta   90.37944307
_cell_angle_gamma   90.33084059
_symmetry_Int_Tables_number   1
_chemical_formula_structural   NaV4Cd3O12
_chemical_formula_sum   'Na1 V4 Cd3 O12'
_cell_volume   221.68476962
_cell_formula_units_Z   1
loop_
 _symmetry_equiv_pos_site_id
 _symmetry_equiv_pos_as_xyz
  1  'x, y, z'
loop_
 _atom_site_type_symbol
 _atom_site_label
 _atom_site_symmetry_multiplicity
 _atom_site_fract_x
 _atom_site_fract_y
 _atom_site_fract_z
 _atom_site_occupancy
  Na  Na0  1  0.50756300  0.53319500  0.24787100  1
  V  V0  1  0.99492900  0.50095100  0.99336900  1
  V  V1  1  0.49305600  0.99822100  0.49964400  1
  V  V2  1  0.99076100  0.49976600  0.48382000  1
  V  V3  1  0.50214000  0.00091100  0.00203900  1
  Cd  Cd0  1  0.99609600  0.03273000  0.24954900  1
  Cd  Cd1  1  0.48788000  0.46602900  0.74562200  1
  Cd  Cd2  1  0.00739800  0.96408100  0.74585200  1
  O  O0  1  0.80740300  0.78061400  0.04925500  1
  O  O1  1  0.72038500  0.29638900  0.46240500  1
  O  O2  1  0.20085700  0.21401500  0.55182100  1
  O  O3  1  0.30620000  0.71744200  0.95888600  1
  O  O4  1  0.19975200  0.21739100  0.95938200  1
  O  O5  1  0.28757300  0.70301100  0.54603400  1
  O  O6  1  0.80558600  0.78977000  0.45355000  1
  O  O7  1  0.70573500  0.27297300  0.03901900  1
  O  O8  1  0.41804500  0.98615600  0.26086200  1
  O  O9  1  0.07783300  0.47446800  0.25894700  1
  O  O10  1  0.58562000  0.02069400  0.74241800  1
  O  O11  1  0.90518600  0.53119500  0.74965400  1
loop_
_geom_bond_atom_site_label_1
_geom_bond_atom_site_label_2
_geom_bond_distance
_geom_bond_site_symmetry_2
Na0 O9 2.322979 1_555
Na0 O1 2.378962 1_555
Na0 O7 2.382159 1_555
Na0 O8 2.496999 1_555
Na0 O0 2.591588 1_555
Na0 O6 2.620116 1_555
Na0 O3 2.659242 1_554
Na0 O5 2.733943 1_555
Cd0 O0 2.273448 1_545
Cd0 O8 2.275738 1_645
Cd0 O6 2.289421 1_545
Cd0 O9 2.423531 1_655
Cd0 O7 2.593002 1_555
Cd0 O1 2.625890 1_555
Cd0 O4 2.679906 1_654
Cd0 O2 2.730385 1_655
Cd1 O11 2.259846 1_555
Cd1 O5 2.269368 1_555
Cd1 O3 2.338827 1_555
Cd1 O10 2.464346 1_555
Cd1 O2 2.518049 1_555
Cd1 O4 2.628272 1_555
Cd1 O1 2.669557 1_555
Cd1 O7 2.741927 1_556
Cd2 O2 2.266916 1_565
Cd2 O10 2.280629 1_465
Cd2 O4 2.354566 1_565
Cd2 O11 2.398420 1_455
Cd2 O5 2.571264 1_555
Cd2 O6 2.646544 1_455
Cd2 O3 2.649608 1_555
Cd2 O0 2.755148 1_456
O0 V0 1.867495 1_554
O0 V3 2.058711 1_565
O1 V2 1.818006 1_555
O1 V1 2.035731 1_545
O2 V2 1.985402 1_455
O2 V1 1.997256 1_545
O3 V3 1.877215 1_566
O3 V0 2.049862 1_455
O4 V0 1.906223 1_455
O4 V3 2.028566 1_556
O5 V1 1.967567 1_555
O5 V2 1.980086 1_455
O6 V2 1.873403 1_555
O6 V1 2.053445 1_555
O7 V3 1.843760 1_555
O7 V0 2.006708 1_554
O8 V1 1.872281 1_555
O8 V3 2.039687 1_565
O9 V2 1.793515 1_455
O9 V0 2.087118 1_454
O10 V1 1.925864 1_545
O10 V3 2.046287 1_556
O11 V0 1.934441 1_555
O11 V2 2.097937 1_555
