# generated using pymatgen
data_ZnCrP2O7
_symmetry_space_group_name_H-M   'P 1'
_cell_length_a   5.50772498
_cell_length_b   6.52417297
_cell_length_c   15.18544945
_cell_angle_alpha   80.73525243
_cell_angle_beta   87.37706027
_cell_angle_gamma   71.81768810
_symmetry_Int_Tables_number   1
_chemical_formula_structural   ZnCrP2O7
_chemical_formula_sum   'Zn4 Cr4 P8 O28'
_cell_volume   511.64959954
_cell_formula_units_Z   4
loop_
 _symmetry_equiv_pos_site_id
 _symmetry_equiv_pos_as_xyz
  1  'x, y, z'
loop_
 _atom_site_type_symbol
 _atom_site_label
 _atom_site_symmetry_multiplicity
 _atom_site_fract_x
 _atom_site_fract_y
 _atom_site_fract_z
 _atom_site_occupancy
  Zn  Zn0  1  0.32757600  0.65627700  0.32208000  1
  Zn  Zn1  1  0.32751500  0.65653000  0.82195500  1
  Zn  Zn2  1  0.67246200  0.34389000  0.17789800  1
  Zn  Zn3  1  0.67241100  0.34338200  0.67804900  1
  Cr  Cr0  1  0.28320700  0.15666400  0.58741600  1
  Cr  Cr1  1  0.71642700  0.84361700  0.91253800  1
  Cr  Cr2  1  0.28259600  0.15665200  0.08795600  1
  Cr  Cr3  1  0.71738400  0.84306400  0.41221500  1
  P  P0  1  0.18771800  0.68377100  0.04789100  1
  P  P1  1  0.18782900  0.68347500  0.54778700  1
  P  P2  1  0.81238000  0.31620300  0.45208200  1
  P  P3  1  0.81213400  0.31646400  0.95223800  1
  P  P4  1  0.21836000  0.20134700  0.30680200  1
  P  P5  1  0.21804300  0.20138400  0.80688100  1
  P  P6  1  0.78180100  0.79872600  0.19321000  1
  P  P7  1  0.78186200  0.79855500  0.69310300  1
  O  O0  1  0.09277800  0.69231700  0.45295200  1
  O  O1  1  0.09240700  0.69277400  0.95306300  1
  O  O2  1  0.90736900  0.30765100  0.04704700  1
  O  O3  1  0.90754200  0.30723600  0.54692700  1
  O  O4  1  0.30699200  0.85936500  0.05597600  1
  O  O5  1  0.30726500  0.85907600  0.55581500  1
  O  O6  1  0.69304600  0.14068300  0.44391300  1
  O  O7  1  0.69273900  0.14080000  0.94426000  1
  O  O8  1  0.36091300  0.45256700  0.08576200  1
  O  O9  1  0.36103500  0.45226600  0.58565600  1
  O  O10  1  0.63923600  0.54743900  0.41423300  1
  O  O11  1  0.63885400  0.54764100  0.91437400  1
  O  O12  1  0.61147500  0.64982600  0.21585500  1
  O  O13  1  0.61156300  0.64961700  0.71578200  1
  O  O14  1  0.38853900  0.35036500  0.28411600  1
  O  O15  1  0.38841200  0.35027300  0.78422000  1
  O  O16  1  0.03389200  0.21974600  0.23217500  1
  O  O17  1  0.03376000  0.21970400  0.73222500  1
  O  O18  1  0.96619800  0.78031400  0.26785400  1
  O  O19  1  0.96625500  0.78022500  0.76771600  1
  O  O20  1  0.07186800  0.28239100  0.39461800  1
  O  O21  1  0.07142700  0.28249800  0.89467600  1
  O  O22  1  0.92832400  0.71767100  0.10541100  1
  O  O23  1  0.92835400  0.71752800  0.60525700  1
  O  O24  1  0.62132200  0.03913800  0.16228800  1
  O  O25  1  0.62126200  0.03896500  0.66215200  1
  O  O26  1  0.37886500  0.96094000  0.33772100  1
  O  O27  1  0.37860900  0.96098000  0.83785000  1
loop_
_geom_bond_atom_site_label_1
_geom_bond_atom_site_label_2
_geom_bond_distance
_geom_bond_site_symmetry_2
Cr0 O5 2.037387 1_545
Cr0 O3 2.068220 1_455
Cr0 O25 2.089231 1_555
Cr0 O9 2.098112 1_555
Cr0 O17 2.560142 1_555
Cr1 O7 2.036029 1_565
Cr1 O1 2.070071 1_655
Cr1 O27 2.087799 1_555
Cr1 O11 2.099651 1_555
Cr1 O19 2.561553 1_555
Cr2 O4 2.037259 1_545
Cr2 O2 2.068164 1_455
Cr2 O24 2.088983 1_555
Cr2 O8 2.100494 1_555
Cr2 O16 2.550652 1_555
Cr3 O6 2.037778 1_565
Cr3 O0 2.068067 1_655
Cr3 O26 2.089358 1_555
Cr3 O10 2.098561 1_555
Cr3 O18 2.552482 1_555
O0 P1 1.541014 1_555
O0 Zn0 2.324369 1_555
O1 P0 1.541215 1_556
O1 Zn1 2.328317 1_555
O2 P3 1.541059 1_554
O2 Zn2 2.324476 1_555
O3 P2 1.541206 1_555
O3 Zn3 2.328516 1_555
O4 P0 1.510425 1_555
O5 P1 1.510876 1_555
O6 P2 1.510496 1_555
O7 P3 1.510928 1_555
O8 P0 1.545603 1_555
O8 Zn2 2.132066 1_555
O9 P1 1.545639 1_555
O9 Zn3 2.133836 1_555
O10 P2 1.545580 1_555
O10 Zn0 2.132653 1_555
O11 P3 1.545604 1_555
O11 Zn1 2.133939 1_555
O12 P6 1.540670 1_555
O12 Zn2 2.088851 1_555
O12 Zn0 2.190589 1_555
O13 P7 1.540795 1_555
O13 Zn3 2.089385 1_555
O13 Zn1 2.190330 1_555
O14 P4 1.540689 1_555
O14 Zn0 2.088767 1_555
O14 Zn2 2.190590 1_555
O15 P5 1.540825 1_555
O15 Zn1 2.089494 1_555
O15 Zn3 2.190138 1_555
O16 P4 1.521964 1_555
O16 Zn2 2.055981 1_455
O17 P5 1.521738 1_555
O17 Zn3 2.054929 1_455
O18 P6 1.521875 1_555
O18 Zn0 2.055419 1_655
O19 P7 1.521634 1_555
O19 Zn1 2.054874 1_655
O20 P4 1.603486 1_555
O20 P2 1.613624 1_455
O21 P5 1.603599 1_555
O21 P3 1.613471 1_455
O22 P6 1.603347 1_555
O22 P0 1.613615 1_655
O23 P7 1.603844 1_555
O23 P1 1.613531 1_655
O24 P6 1.548394 1_545
O24 Zn2 2.143840 1_555
O25 P7 1.548636 1_545
O25 Zn3 2.142869 1_555
O26 P4 1.548399 1_565
O26 Zn0 2.143742 1_555
O27 P5 1.548601 1_565
O27 Zn1 2.142944 1_555
