# generated using pymatgen
data_FeSO5
_symmetry_space_group_name_H-M   'P 1'
_cell_length_a   6.49893300
_cell_length_b   7.10833600
_cell_length_c   7.35732000
_cell_angle_alpha   90.00000000
_cell_angle_beta   90.00000000
_cell_angle_gamma   90.00000000
_symmetry_Int_Tables_number   1
_chemical_formula_structural   FeSO5
_chemical_formula_sum   'Fe4 S4 O20'
_cell_volume   339.88316474
_cell_formula_units_Z   4
loop_
 _symmetry_equiv_pos_site_id
 _symmetry_equiv_pos_as_xyz
  1  'x, y, z'
loop_
 _atom_site_type_symbol
 _atom_site_label
 _atom_site_symmetry_multiplicity
 _atom_site_fract_x
 _atom_site_fract_y
 _atom_site_fract_z
 _atom_site_occupancy
  Fe  Fe0  1  0.25000000  0.12657400  0.75219600  1
  Fe  Fe1  1  0.25000000  0.62657400  0.74780400  1
  Fe  Fe2  1  0.75000000  0.87342600  0.24780400  1
  Fe  Fe3  1  0.75000000  0.37342600  0.25219600  1
  S  S0  1  0.25000000  0.87343600  0.12971400  1
  S  S1  1  0.25000000  0.37343600  0.37028600  1
  S  S2  1  0.75000000  0.12656400  0.87028600  1
  S  S3  1  0.75000000  0.62656400  0.62971400  1
  O  O0  1  0.06888900  0.37291100  0.24954800  1
  O  O1  1  0.43111100  0.87291100  0.25045200  1
  O  O2  1  0.56888900  0.62708900  0.75045200  1
  O  O3  1  0.93111100  0.12708900  0.74954800  1
  O  O4  1  0.93111100  0.62708900  0.75045200  1
  O  O5  1  0.56888900  0.12708900  0.74954800  1
  O  O6  1  0.43111100  0.37291100  0.24954800  1
  O  O7  1  0.06888900  0.87291100  0.25045200  1
  O  O8  1  0.25000000  0.20201500  0.48747300  1
  O  O9  1  0.25000000  0.70201500  0.01252700  1
  O  O10  1  0.75000000  0.79798500  0.51252700  1
  O  O11  1  0.75000000  0.29798500  0.98747300  1
  O  O12  1  0.75000000  0.95201400  0.98381000  1
  O  O13  1  0.75000000  0.45201400  0.51619000  1
  O  O14  1  0.25000000  0.04798600  0.01619000  1
  O  O15  1  0.25000000  0.54798600  0.48381000  1
  O  O16  1  0.25000000  0.37658900  0.82246800  1
  O  O17  1  0.25000000  0.87658900  0.67753200  1
  O  O18  1  0.75000000  0.62341100  0.17753200  1
  O  O19  1  0.75000000  0.12341100  0.32246800  1
loop_
_geom_bond_atom_site_label_1
_geom_bond_atom_site_label_2
_geom_bond_distance
_geom_bond_site_symmetry_2
Fe0 O16 1.850867 1_555
Fe0 O17 1.859949 1_545
Fe0 O8 2.020129 1_555
Fe0 O14 2.021027 1_556
Fe0 O5 2.072533 1_555
Fe0 O3 2.072533 1_455
Fe1 O17 1.850867 1_555
Fe1 O16 1.859949 1_555
Fe1 O9 2.020129 1_556
Fe1 O15 2.021027 1_555
Fe1 O2 2.072533 1_555
Fe1 O4 2.072533 1_455
Fe2 O18 1.850867 1_555
Fe2 O19 1.859949 1_565
Fe2 O10 2.020129 1_555
Fe2 O12 2.021027 1_554
Fe2 O7 2.072533 1_655
Fe2 O1 2.072533 1_555
Fe3 O19 1.850867 1_555
Fe3 O18 1.859949 1_555
Fe3 O11 2.020129 1_554
Fe3 O13 2.021027 1_555
Fe3 O0 2.072533 1_655
Fe3 O6 2.072533 1_555
O0 S1 1.474619 1_555
O1 S0 1.474619 1_555
O2 S3 1.474619 1_555
O3 S2 1.474619 1_555
O4 S3 1.474619 1_555
O5 S2 1.474619 1_555
O6 S1 1.474619 1_555
O7 S0 1.474619 1_555
O8 S1 1.492697 1_555
O9 S0 1.492697 1_555
O10 S3 1.492697 1_555
O11 S2 1.492697 1_555
O12 S2 1.495693 1_565
O13 S3 1.495693 1_555
O14 S0 1.495693 1_545
O15 S1 1.495693 1_555
