# generated using pymatgen
data_Tb5Ir3
_symmetry_space_group_name_H-M   'P 1'
_cell_length_a   6.27633825
_cell_length_b   8.29856311
_cell_length_c   8.29845012
_cell_angle_alpha   120.00044756
_cell_angle_beta   90.00000000
_cell_angle_gamma   90.00000000
_symmetry_Int_Tables_number   1
_chemical_formula_structural   Tb5Ir3
_chemical_formula_sum   'Tb10 Ir6'
_cell_volume   374.31299375
_cell_formula_units_Z   2
loop_
 _symmetry_equiv_pos_site_id
 _symmetry_equiv_pos_as_xyz
  1  'x, y, z'
loop_
 _atom_site_type_symbol
 _atom_site_label
 _atom_site_symmetry_multiplicity
 _atom_site_fract_x
 _atom_site_fract_y
 _atom_site_fract_z
 _atom_site_occupancy
  Tb  Tb0  1  0.50000033  0.33334620  0.66669618  1
  Tb  Tb1  1  0.50000033  0.66665002  0.33330382  1
  Tb  Tb2  1  0.00000033  0.66665380  0.33330382  1
  Tb  Tb3  1  0.00000033  0.33334998  0.66669618  1
  Tb  Tb4  1  0.75000566  0.26225848  -0.00000000  1
  Tb  Tb5  1  0.74999900  0.73773023  0.73773843  1
  Tb  Tb6  1  0.74999900  -0.00000720  0.26226157  1
  Tb  Tb7  1  0.25000566  0.73774152  0.00000000  1
  Tb  Tb8  1  0.24999900  0.26226977  0.26226157  1
  Tb  Tb9  1  0.24999900  0.00000720  0.73773843  1
  Ir  Ir0  1  0.74999407  0.61200857  0.00000000  1
  Ir  Ir1  1  0.75000030  0.38798980  0.38798823  1
  Ir  Ir2  1  0.75000030  0.00000057  0.61201177  1
  Ir  Ir3  1  0.24999407  0.38799143  -0.00000000  1
  Ir  Ir4  1  0.25000030  0.61201020  0.61201177  1
  Ir  Ir5  1  0.25000030  -0.00000057  0.38798823  1
loop_
_geom_bond_atom_site_label_1
_geom_bond_atom_site_label_2
_geom_bond_distance
_geom_bond_site_symmetry_2
Tb0 Tb3 3.138169 1_655
Tb0 Tb3 3.138169 1_555
Tb0 Tb7 3.477354 1_556
Tb0 Tb4 3.477366 1_556
Tb0 Tb9 3.477426 1_555
Tb0 Tb5 3.477439 1_555
Tb0 Tb6 3.477665 1_555
Tb0 Tb8 3.477685 1_555
Tb1 Tb2 3.138169 1_655
Tb1 Tb2 3.138169 1_555
Tb1 Tb7 3.477354 1_555
Tb1 Tb4 3.477366 1_555
Tb1 Tb8 3.477419 1_555
Tb1 Tb6 3.477447 1_565
Tb1 Tb5 3.477667 1_555
Tb1 Tb9 3.477682 1_565
Tb2 Tb4 3.477354 1_455
Tb2 Tb7 3.477366 1_555
Tb2 Tb6 3.477426 1_465
Tb2 Tb8 3.477439 1_555
Tb2 Tb9 3.477665 1_565
Tb2 Tb5 3.477685 1_455
Tb3 Tb4 3.477354 1_456
Tb3 Tb7 3.477366 1_556
Tb3 Tb5 3.477419 1_455
Tb3 Tb9 3.477447 1_555
Tb3 Tb8 3.477667 1_555
Tb3 Tb6 3.477682 1_455
Ir0 Tb5 2.845296 1_554
Ir0 Tb6 2.845302 1_565
Ir0 Tb4 2.902423 1_555
Ir0 Tb1 3.010572 1_555
Ir0 Tb0 3.010572 1_554
Ir0 Tb2 3.010603 1_655
Ir0 Tb3 3.010603 1_654
Ir0 Tb7 3.307014 1_555
Ir0 Tb7 3.307152 1_655
Ir1 Tb4 2.845292 1_555
Ir1 Tb6 2.845413 1_555
Ir1 Tb5 2.902344 1_555
Ir1 Tb1 3.010801 1_555
Ir1 Tb2 3.010828 1_655
Ir1 Tb3 3.010915 1_655
Ir1 Tb0 3.010931 1_555
Ir1 Tb8 3.307045 1_655
Ir1 Tb8 3.307061 1_555
Ir2 Tb4 2.845294 1_556
Ir2 Tb5 2.845413 1_545
Ir2 Tb6 2.902352 1_555
Ir2 Tb0 3.010808 1_555
Ir2 Tb3 3.010835 1_655
Ir2 Tb2 3.010910 1_645
Ir2 Tb1 3.010927 1_545
Ir2 Tb9 3.307045 1_655
Ir2 Tb9 3.307061 1_555
Ir3 Tb8 2.845296 1_555
Ir3 Tb9 2.845302 1_554
Ir3 Tb7 2.902423 1_555
Ir3 Tb3 3.010572 1_554
Ir3 Tb2 3.010572 1_555
Ir3 Tb0 3.010603 1_554
Ir3 Tb1 3.010603 1_555
Ir3 Tb4 3.307014 1_455
Ir3 Tb4 3.307152 1_555
Ir4 Tb7 2.845292 1_556
Ir4 Tb9 2.845413 1_565
Ir4 Tb8 2.902344 1_555
Ir4 Tb3 3.010801 1_555
Ir4 Tb0 3.010828 1_555
Ir4 Tb1 3.010915 1_555
Ir4 Tb2 3.010931 1_555
Ir4 Tb5 3.307045 1_555
Ir4 Tb5 3.307061 1_455
Ir5 Tb7 2.845294 1_545
Ir5 Tb8 2.845413 1_555
Ir5 Tb9 2.902352 1_555
Ir5 Tb2 3.010808 1_545
Ir5 Tb1 3.010835 1_545
Ir5 Tb0 3.010910 1_555
Ir5 Tb3 3.010927 1_555
Ir5 Tb6 3.307045 1_555
Ir5 Tb6 3.307061 1_455
