# generated using pymatgen
data_Ca2I4O13
_symmetry_space_group_name_H-M   'P 1'
_cell_length_a   7.25603783
_cell_length_b   7.25603783
_cell_length_c   16.91647216
_cell_angle_alpha   77.02007723
_cell_angle_beta   77.02007723
_cell_angle_gamma   53.59381646
_symmetry_Int_Tables_number   1
_chemical_formula_structural   Ca2I4O13
_chemical_formula_sum   'Ca4 I8 O26'
_cell_volume   693.75924971
_cell_formula_units_Z   2
loop_
 _symmetry_equiv_pos_site_id
 _symmetry_equiv_pos_as_xyz
  1  'x, y, z'
loop_
 _atom_site_type_symbol
 _atom_site_label
 _atom_site_symmetry_multiplicity
 _atom_site_fract_x
 _atom_site_fract_y
 _atom_site_fract_z
 _atom_site_occupancy
  Ca  Ca0  1  0.62720200  0.16615400  0.37978000  1
  Ca  Ca1  1  0.83384600  0.37279800  0.12022000  1
  Ca  Ca2  1  0.37279800  0.83384600  0.62022000  1
  Ca  Ca3  1  0.16615400  0.62720200  0.87978000  1
  I  I0  1  0.99372500  0.41869700  0.64755300  1
  I  I1  1  0.58130300  0.00627500  0.85244700  1
  I  I2  1  0.00627500  0.58130300  0.35244700  1
  I  I3  1  0.41869700  0.99372500  0.14755300  1
  I  I4  1  0.33116100  0.84576800  0.39529100  1
  I  I5  1  0.15423200  0.66883900  0.10470900  1
  I  I6  1  0.66883900  0.15423200  0.60470900  1
  I  I7  1  0.84576800  0.33116100  0.89529100  1
  O  O0  1  0.62589200  0.61236300  0.36117500  1
  O  O1  1  0.38763700  0.37410800  0.13882500  1
  O  O2  1  0.37410800  0.38763700  0.63882500  1
  O  O3  1  0.61236300  0.62589200  0.86117500  1
  O  O4  1  0.85195500  0.14804500  0.25000000  1
  O  O5  1  0.14804500  0.85195500  0.75000000  1
  O  O6  1  0.29386300  0.52093700  0.34504700  1
  O  O7  1  0.47906300  0.70613700  0.15495300  1
  O  O8  1  0.70613700  0.47906300  0.65495300  1
  O  O9  1  0.52093700  0.29386300  0.84504700  1
  O  O10  1  0.89401200  0.80808200  0.26367400  1
  O  O11  1  0.19191800  0.10598800  0.23632600  1
  O  O12  1  0.10598800  0.19191800  0.73632600  1
  O  O13  1  0.80808200  0.89401200  0.76367400  1
  O  O14  1  0.86984900  0.76747600  0.43313200  1
  O  O15  1  0.23252400  0.13015100  0.06686800  1
  O  O16  1  0.13015100  0.23252400  0.56686800  1
  O  O17  1  0.76747600  0.86984900  0.93313200  1
  O  O18  1  0.36008200  0.08412400  0.38758700  1
  O  O19  1  0.91587600  0.63991800  0.11241300  1
  O  O20  1  0.63991800  0.91587600  0.61241300  1
  O  O21  1  0.08412400  0.36008200  0.88758700  1
  O  O22  1  0.68906400  0.22826800  0.49443600  1
  O  O23  1  0.77173200  0.31093600  0.00556400  1
  O  O24  1  0.31093600  0.77173200  0.50556400  1
  O  O25  1  0.22826800  0.68906400  0.99443600  1
loop_
_geom_bond_atom_site_label_1
_geom_bond_atom_site_label_2
_geom_bond_distance
_geom_bond_site_symmetry_2
Ca0 O22 2.278268 1_555
Ca0 O18 2.312482 1_555
Ca0 O6 2.321742 1_555
Ca0 O4 2.400744 1_555
Ca0 O14 2.403769 1_545
Ca1 O23 2.278268 1_555
Ca1 O19 2.312482 1_555
Ca1 O7 2.321742 1_555
Ca1 O4 2.400744 1_555
Ca1 O15 2.403769 1_655
Ca2 O24 2.278268 1_555
Ca2 O20 2.312482 1_555
Ca2 O8 2.321742 1_555
Ca2 O5 2.400744 1_555
Ca2 O16 2.403769 1_565
Ca3 O25 2.278268 1_555
Ca3 O21 2.312482 1_555
Ca3 O9 2.321742 1_555
Ca3 O5 2.400744 1_555
Ca3 O17 2.403769 1_455
I0 O16 1.817074 1_655
I0 O8 1.839666 1_555
I0 O12 1.864087 1_655
I0 O2 2.604632 1_655
I1 O17 1.817074 1_545
I1 O9 1.839666 1_555
I1 O13 1.864087 1_545
I1 O3 2.604632 1_545
I2 O14 1.817074 1_455
I2 O6 1.839666 1_555
I2 O10 1.864087 1_455
I2 O0 2.604632 1_455
I3 O15 1.817074 1_565
I3 O7 1.839666 1_555
I3 O11 1.864087 1_565
I3 O1 2.604632 1_565
I4 O24 1.819447 1_555
I4 O0 1.833104 1_555
I4 O18 1.835631 1_565
I5 O25 1.819447 1_554
I5 O1 1.833104 1_555
I5 O19 1.835631 1_455
I6 O22 1.819447 1_555
I6 O2 1.833104 1_555
I6 O20 1.835631 1_545
I7 O23 1.819447 1_556
I7 O3 1.833104 1_555
I7 O21 1.835631 1_655
