# generated using pymatgen
data_Cs2MgSn3Se8
_symmetry_space_group_name_H-M   'P 1'
_cell_length_a   8.20284300
_cell_length_b   13.77870400
_cell_length_c   18.85809400
_cell_angle_alpha   90.00000000
_cell_angle_beta   90.00000000
_cell_angle_gamma   90.00000000
_symmetry_Int_Tables_number   1
_chemical_formula_structural   Cs2MgSn3Se8
_chemical_formula_sum   'Cs8 Mg4 Sn12 Se32'
_cell_volume   2131.42750628
_cell_formula_units_Z   4
loop_
 _symmetry_equiv_pos_site_id
 _symmetry_equiv_pos_as_xyz
  1  'x, y, z'
loop_
 _atom_site_type_symbol
 _atom_site_label
 _atom_site_symmetry_multiplicity
 _atom_site_fract_x
 _atom_site_fract_y
 _atom_site_fract_z
 _atom_site_occupancy
  Cs  Cs0  1  0.75103900  0.63331900  0.05336500  1
  Cs  Cs1  1  0.74896100  0.36668100  0.55336500  1
  Cs  Cs2  1  0.25103900  0.86668100  0.94663500  1
  Cs  Cs3  1  0.24896100  0.13331900  0.44663500  1
  Cs  Cs4  1  0.24438600  0.80989900  0.34295300  1
  Cs  Cs5  1  0.25561400  0.19010100  0.84295300  1
  Cs  Cs6  1  0.74438600  0.69010100  0.65704700  1
  Cs  Cs7  1  0.75561400  0.30989900  0.15704700  1
  Mg  Mg0  1  0.98573400  0.50174900  0.34738700  1
  Mg  Mg1  1  0.51426600  0.49825100  0.84738700  1
  Mg  Mg2  1  0.48573400  0.99825100  0.65261300  1
  Mg  Mg3  1  0.01426600  0.00174900  0.15261300  1
  Sn  Sn0  1  0.76365200  0.04690700  0.32006200  1
  Sn  Sn1  1  0.73634800  0.95309300  0.82006200  1
  Sn  Sn2  1  0.26365200  0.45309300  0.67993800  1
  Sn  Sn3  1  0.23634800  0.54690700  0.17993800  1
  Sn  Sn4  1  0.73195300  0.93728200  0.48469400  1
  Sn  Sn5  1  0.76804700  0.06271800  0.98469400  1
  Sn  Sn6  1  0.23195300  0.56271800  0.51530600  1
  Sn  Sn7  1  0.26804700  0.43728200  0.01530600  1
  Sn  Sn8  1  0.51137100  0.98276800  0.15189200  1
  Sn  Sn9  1  0.98862900  0.01723200  0.65189200  1
  Sn  Sn10  1  0.01137100  0.51723200  0.84810800  1
  Sn  Sn11  1  0.48862900  0.48276800  0.34810800  1
  Se  Se0  1  0.98077400  0.61114300  0.23482500  1
  Se  Se1  1  0.51922600  0.38885700  0.73482500  1
  Se  Se2  1  0.48077400  0.88885700  0.76517500  1
  Se  Se3  1  0.01922600  0.11114300  0.26517500  1
  Se  Se4  1  0.97522800  0.61819200  0.45626400  1
  Se  Se5  1  0.52477200  0.38180800  0.95626400  1
  Se  Se6  1  0.47522800  0.88180800  0.54373600  1
  Se  Se7  1  0.02477200  0.11819200  0.04373600  1
  Se  Se8  1  0.76822700  0.88197300  0.15592400  1
  Se  Se9  1  0.73177300  0.11802700  0.65592400  1
  Se  Se10  1  0.26822700  0.61802700  0.84407600  1
  Se  Se11  1  0.23177300  0.38197300  0.34407600  1
  Se  Se12  1  0.75895500  0.62091600  0.85166400  1
  Se  Se13  1  0.74104500  0.37908400  0.35166400  1
  Se  Se14  1  0.25895500  0.87908400  0.14833600  1
  Se  Se15  1  0.24104500  0.12091600  0.64833600  1
  Se  Se16  1  0.75697300  0.86608200  0.35731600  1
  Se  Se17  1  0.74302700  0.13391800  0.85731600  1
  Se  Se18  1  0.25697300  0.63391800  0.64268400  1
  Se  Se19  1  0.24302700  0.36608200  0.14268400  1
  Se  Se20  1  0.73767900  0.11861300  0.44830600  1
  Se  Se21  1  0.76232100  0.88138700  0.94830600  1
  Se  Se22  1  0.23767900  0.38138700  0.55169400  1
  Se  Se23  1  0.26232100  0.61861300  0.05169400  1
  Se  Se24  1  0.50407800  0.60053700  0.23951200  1
  Se  Se25  1  0.99592200  0.39946300  0.73951200  1
  Se  Se26  1  0.00407800  0.89946300  0.76048800  1
  Se  Se27  1  0.49592200  0.10053700  0.26048800  1
  Se  Se28  1  0.50018000  0.60869800  0.45197400  1
  Se  Se29  1  0.99982000  0.39130200  0.95197400  1
  Se  Se30  1  0.00018000  0.89130200  0.54802600  1
  Se  Se31  1  0.49982000  0.10869800  0.04802600  1
loop_
_geom_bond_atom_site_label_1
_geom_bond_atom_site_label_2
_geom_bond_distance
_geom_bond_site_symmetry_2
Cs0 Se12 3.808087 1_554
Cs0 Se0 3.918500 1_555
Cs0 Se8 3.936859 1_555
Cs0 Se21 3.951819 1_554
Cs0 Se23 4.014118 1_555
Cs0 Se24 4.078060 1_555
Cs0 Se23 4.198976 1_655
Cs1 Se13 3.808087 1_555
Cs1 Se1 3.918500 1_555
Cs1 Se9 3.936859 1_555
Cs1 Se20 3.951819 1_555
Cs1 Se22 4.014118 1_655
Cs1 Se25 4.078060 1_555
Cs1 Se22 4.198976 1_555
Cs2 Se14 3.808087 1_556
Cs2 Se2 3.918500 1_555
Cs2 Se10 3.936859 1_555
Cs2 Se23 3.951819 1_556
Cs2 Se21 4.014118 1_455
Cs2 Se26 4.078060 1_555
Cs2 Se21 4.198976 1_555
Cs3 Se15 3.808087 1_555
Cs3 Se3 3.918500 1_555
Cs3 Se11 3.936859 1_555
Cs3 Se22 3.951819 1_555
Cs3 Se20 4.014118 1_555
Cs3 Se27 4.078060 1_555
Cs3 Se20 4.198976 1_455
Cs4 Se14 3.793771 1_555
Cs4 Se28 4.039187 1_555
Cs4 Se0 4.041490 1_455
Cs4 Se4 4.051922 1_455
Cs4 Se16 4.081424 1_455
Cs4 Se24 4.082248 1_555
Cs4 Se16 4.283911 1_555
Cs4 Se6 4.347872 1_555
Cs5 Se15 3.793771 1_555
Cs5 Se29 4.039187 1_455
Cs5 Se1 4.041490 1_555
Cs5 Se5 4.051922 1_555
Cs5 Se17 4.081424 1_555
Cs5 Se25 4.082248 1_455
Cs5 Se17 4.283911 1_455
Cs5 Se7 4.347872 1_556
Cs6 Se12 3.793771 1_555
Cs6 Se30 4.039187 1_655
Cs6 Se2 4.041490 1_555
Cs6 Se6 4.051922 1_555
Cs6 Se18 4.081424 1_555
Cs6 Se26 4.082248 1_655
Cs6 Se18 4.283911 1_655
Cs6 Se4 4.347872 1_555
Cs7 Se13 3.793771 1_555
Cs7 Se31 4.039187 1_555
Cs7 Se3 4.041490 1_655
Cs7 Se7 4.051922 1_655
Cs7 Se19 4.081424 1_655
Cs7 Se27 4.082248 1_555
Cs7 Se19 4.283911 1_555
Cs7 Se5 4.347872 1_554
Mg0 Se0 2.603749 1_555
Mg0 Se4 2.607166 1_555
Mg0 Se11 2.607832 1_655
Mg0 Se13 2.625223 1_555
Mg1 Se1 2.603749 1_555
Mg1 Se5 2.607166 1_555
Mg1 Se10 2.607832 1_555
Mg1 Se12 2.625223 1_555
Mg2 Se2 2.603749 1_555
Mg2 Se6 2.607166 1_555
Mg2 Se9 2.607832 1_565
Mg2 Se15 2.625223 1_565
Mg3 Se3 2.603749 1_555
Mg3 Se7 2.607166 1_555
Mg3 Se8 2.607832 1_445
Mg3 Se14 2.625223 1_545
Se0 Sn3 2.499955 1_655
Se1 Sn2 2.499955 1_555
Se2 Sn1 2.499955 1_555
Se3 Sn0 2.499955 1_455
Se4 Sn6 2.501731 1_655
Se5 Sn7 2.501731 1_556
Se6 Sn4 2.501731 1_555
Se7 Sn5 2.501731 1_454
Se8 Sn8 2.524649 1_555
Se9 Sn9 2.524649 1_555
Se10 Sn10 2.524649 1_555
Se11 Sn11 2.524649 1_555
Se12 Sn10 2.516461 1_655
Se13 Sn11 2.516461 1_555
Se14 Sn8 2.516461 1_555
Se15 Sn9 2.516461 1_455
Se16 Sn0 2.589267 1_565
Se16 Sn4 2.602822 1_555
Se17 Sn1 2.589267 1_545
Se17 Sn5 2.602822 1_555
Se18 Sn2 2.589267 1_555
Se18 Sn6 2.602822 1_555
Se19 Sn3 2.589267 1_555
Se19 Sn7 2.602822 1_555
Se20 Sn4 2.591452 1_545
Se20 Sn0 2.621146 1_555
Se21 Sn5 2.591452 1_565
Se21 Sn1 2.621146 1_555
Se22 Sn6 2.591452 1_555
Se22 Sn2 2.621146 1_555
Se23 Sn7 2.591452 1_555
Se23 Sn3 2.621146 1_555
Se24 Sn3 2.575123 1_555
Se24 Sn11 2.615947 1_555
Se25 Sn2 2.575123 1_655
Se25 Sn10 2.615947 1_655
Se26 Sn1 2.575123 1_455
Se26 Sn9 2.615947 1_465
Se27 Sn0 2.575123 1_555
Se27 Sn8 2.615947 1_545
Se28 Sn6 2.582396 1_555
Se28 Sn11 2.618453 1_555
Se29 Sn7 2.582396 1_656
Se29 Sn10 2.618453 1_655
Se30 Sn4 2.582396 1_455
Se30 Sn9 2.618453 1_465
Se31 Sn5 2.582396 1_554
Se31 Sn8 2.618453 1_545
