# generated using pymatgen
data_CaTi(GeO3)2
_symmetry_space_group_name_H-M   'P 1'
_cell_length_a   7.04532989
_cell_length_b   7.04532989
_cell_length_c   5.32785011
_cell_angle_alpha   79.24588266
_cell_angle_beta   79.24588266
_cell_angle_gamma   77.05797575
_symmetry_Int_Tables_number   1
_chemical_formula_structural   CaTi(GeO3)2
_chemical_formula_sum   'Ca2 Ti2 Ge4 O12'
_cell_volume   250.29967634
_cell_formula_units_Z   2
loop_
 _symmetry_equiv_pos_site_id
 _symmetry_equiv_pos_as_xyz
  1  'x, y, z'
loop_
 _atom_site_type_symbol
 _atom_site_label
 _atom_site_symmetry_multiplicity
 _atom_site_fract_x
 _atom_site_fract_y
 _atom_site_fract_z
 _atom_site_occupancy
  Ca  Ca0  1  0.66285200  0.33714800  0.25000000  1
  Ca  Ca1  1  0.33714800  0.66285200  0.75000000  1
  Ti  Ti0  1  0.09847400  0.90152600  0.25000000  1
  Ti  Ti1  1  0.90152600  0.09847400  0.75000000  1
  Ge  Ge0  1  0.59593400  0.84948100  0.14337700  1
  Ge  Ge1  1  0.15051900  0.40406600  0.35662300  1
  Ge  Ge2  1  0.40406600  0.15051900  0.85662300  1
  Ge  Ge3  1  0.84948100  0.59593400  0.64337700  1
  O  O0  1  0.66610500  0.63923200  0.41958000  1
  O  O1  1  0.36076800  0.33389500  0.08042000  1
  O  O2  1  0.33389500  0.36076800  0.58042000  1
  O  O3  1  0.63923200  0.66610500  0.91958000  1
  O  O4  1  0.86672100  0.34078100  0.85279900  1
  O  O5  1  0.65921900  0.13327900  0.64720100  1
  O  O6  1  0.13327900  0.65921900  0.14720100  1
  O  O7  1  0.34078100  0.86672100  0.35279900  1
  O  O8  1  0.81009200  0.97976400  0.11228900  1
  O  O9  1  0.02023600  0.18990800  0.38771100  1
  O  O10  1  0.18990800  0.02023600  0.88771100  1
  O  O11  1  0.97976400  0.81009200  0.61228900  1
loop_
_geom_bond_atom_site_label_1
_geom_bond_atom_site_label_2
_geom_bond_distance
_geom_bond_site_symmetry_2
Ca0 O4 2.324653 1_554
Ca0 O5 2.324653 1_555
Ca0 O0 2.468521 1_555
Ca0 O1 2.468521 1_555
Ca0 O3 2.629084 1_554
Ca0 O2 2.629084 1_555
Ca0 O9 2.681344 1_655
Ca0 O8 2.681344 1_545
Ca1 O6 2.324653 1_556
Ca1 O7 2.324653 1_555
Ca1 O3 2.468521 1_555
Ca1 O2 2.468521 1_555
Ca1 O0 2.629084 1_555
Ca1 O1 2.629084 1_556
Ca1 O10 2.681344 1_565
Ca1 O11 2.681344 1_455
Ge0 O3 1.856476 1_554
Ge0 O8 1.901793 1_555
Ge0 O7 1.922353 1_555
Ge0 O0 1.932380 1_555
Ge1 O2 1.856476 1_555
Ge1 O9 1.901793 1_555
Ge1 O6 1.922353 1_555
Ge1 O1 1.932380 1_555
Ge2 O1 1.856476 1_556
Ge2 O10 1.901793 1_555
Ge2 O5 1.922353 1_555
Ge2 O2 1.932380 1_555
Ge3 O0 1.856476 1_555
Ge3 O11 1.901793 1_555
Ge3 O4 1.922353 1_555
Ge3 O3 1.932380 1_555
O4 Ti1 1.840029 1_555
O5 Ti1 1.840029 1_555
O6 Ti0 1.840029 1_555
O7 Ti0 1.840029 1_555
O8 Ti1 2.003760 1_564
O8 Ti0 2.207688 1_655
O9 Ti1 2.003760 1_455
O9 Ti0 2.207688 1_545
O10 Ti0 2.003760 1_546
O10 Ti1 2.207688 1_455
O11 Ti0 2.003760 1_655
O11 Ti1 2.207688 1_565
