# generated using pymatgen
data_Sm2MnGa6
_symmetry_space_group_name_H-M   'P 1'
_cell_length_a   6.22767533
_cell_length_b   6.22767533
_cell_length_c   6.22767533
_cell_angle_alpha   60.00000000
_cell_angle_beta   60.00000000
_cell_angle_gamma   60.00000000
_symmetry_Int_Tables_number   1
_chemical_formula_structural   Sm2MnGa6
_chemical_formula_sum   'Sm2 Mn1 Ga6'
_cell_volume   170.79017864
_cell_formula_units_Z   1
loop_
 _symmetry_equiv_pos_site_id
 _symmetry_equiv_pos_as_xyz
  1  'x, y, z'
loop_
 _atom_site_type_symbol
 _atom_site_label
 _atom_site_symmetry_multiplicity
 _atom_site_fract_x
 _atom_site_fract_y
 _atom_site_fract_z
 _atom_site_occupancy
  Sm  Sm0  1  0.75000000  0.75000000  0.75000000  1
  Sm  Sm1  1  0.25000000  0.25000000  0.25000000  1
  Mn  Mn0  1  0.50000000  0.50000000  0.50000000  1
  Ga  Ga0  1  0.78424609  0.78424609  0.21575391  1
  Ga  Ga1  1  0.21575391  0.78424609  0.21575391  1
  Ga  Ga2  1  0.78424609  0.21575391  0.21575391  1
  Ga  Ga3  1  0.21575391  0.21575391  0.78424609  1
  Ga  Ga4  1  0.78424609  0.21575391  0.78424609  1
  Ga  Ga5  1  0.21575391  0.78424609  0.78424609  1
loop_
_geom_bond_atom_site_label_1
_geom_bond_atom_site_label_2
_geom_bond_distance
_geom_bond_site_symmetry_2
Ga0 Mn0 2.503430 1_555
Ga0 Ga4 2.687291 1_564
Ga0 Ga2 2.687291 1_565
Ga0 Ga5 2.687291 1_654
Ga0 Ga1 2.687291 1_655
Ga0 Sm1 3.128411 1_655
Ga0 Sm0 3.128411 1_554
Ga0 Sm0 3.128411 1_555
Ga0 Sm1 3.128411 1_565
Ga1 Mn0 2.503430 1_555
Ga1 Ga5 2.687291 1_554
Ga1 Ga3 2.687291 1_564
Ga1 Ga2 2.687291 1_465
Ga1 Sm1 3.128411 1_565
Ga1 Sm0 3.128411 1_554
Ga1 Sm0 3.128411 1_455
Ga1 Sm1 3.128411 1_555
Ga2 Mn0 2.503430 1_555
Ga2 Ga4 2.687291 1_554
Ga2 Ga3 2.687291 1_654
Ga2 Sm0 3.128411 1_545
Ga2 Sm1 3.128411 1_655
Ga2 Sm0 3.128411 1_554
Ga2 Sm1 3.128411 1_555
Ga3 Mn0 2.503430 1_555
Ga3 Ga5 2.687291 1_545
Ga3 Ga4 2.687291 1_455
Ga3 Sm0 3.128411 1_545
Ga3 Sm1 3.128411 1_556
Ga3 Sm1 3.128411 1_555
Ga3 Sm0 3.128411 1_455
Ga4 Mn0 2.503430 1_555
Ga4 Ga5 2.687291 1_645
Ga4 Sm0 3.128411 1_555
Ga4 Sm1 3.128411 1_556
Ga4 Sm0 3.128411 1_545
Ga4 Sm1 3.128411 1_655
Ga5 Mn0 2.503430 1_555
Ga5 Sm0 3.128411 1_555
Ga5 Sm1 3.128411 1_556
Ga5 Sm1 3.128411 1_565
Ga5 Sm0 3.128411 1_455
