# generated using pymatgen
data_CsTe7Mo6
_symmetry_space_group_name_H-M   'P 1'
_cell_length_a   10.44933996
_cell_length_b   10.44885042
_cell_length_c   10.44806603
_cell_angle_alpha   60.24888932
_cell_angle_beta   60.23904127
_cell_angle_gamma   60.24262659
_symmetry_Int_Tables_number   1
_chemical_formula_structural   CsTe7Mo6
_chemical_formula_sum   'Cs2 Te14 Mo12'
_cell_volume   811.08395937
_cell_formula_units_Z   2
loop_
 _symmetry_equiv_pos_site_id
 _symmetry_equiv_pos_as_xyz
  1  'x, y, z'
loop_
 _atom_site_type_symbol
 _atom_site_label
 _atom_site_symmetry_multiplicity
 _atom_site_fract_x
 _atom_site_fract_y
 _atom_site_fract_z
 _atom_site_occupancy
  Cs  Cs0  1  0.62018915  0.62016317  0.62014523  1
  Cs  Cs1  1  0.37981618  0.37984102  0.37982876  1
  Te  Te0  1  0.42508750  0.80428635  0.16156277  1
  Te  Te1  1  0.16170512  0.42501981  0.80424089  1
  Te  Te2  1  0.80415574  0.16164688  0.42512997  1
  Te  Te3  1  0.57491656  0.19566493  0.83850142  1
  Te  Te4  1  0.83830866  0.57499738  0.19576655  1
  Te  Te5  1  0.19586420  0.83828433  0.57491777  1
  Te  Te6  1  0.63297585  0.97914145  0.24678544  1
  Te  Te7  1  0.24681832  0.63299332  0.97906341  1
  Te  Te8  1  0.97912567  0.24678293  0.63298965  1
  Te  Te9  1  0.36701856  0.02088170  0.75322068  1
  Te  Te10  1  0.75321827  0.36701696  0.02088140  1
  Te  Te11  1  0.02087302  0.75322834  0.36701207  1
  Te  Te12  1  0.77617309  0.77589292  0.77574567  1
  Te  Te13  1  0.22375791  0.22411189  0.22428009  1
  Mo  Mo0  1  0.71318132  0.88038521  0.00015898  1
  Mo  Mo1  1  0.00023960  0.71309476  0.88036578  1
  Mo  Mo2  1  0.88044067  0.00016433  0.71311535  1
  Mo  Mo3  1  0.28681272  0.11962078  -0.00016489  1
  Mo  Mo4  1  -0.00027359  0.28692754  0.11961680  1
  Mo  Mo5  1  0.11956276  -0.00019159  0.28689760  1
  Mo  Mo6  1  0.94516036  0.81437519  0.10788812  1
  Mo  Mo7  1  0.10793823  0.94517833  0.81432637  1
  Mo  Mo8  1  0.81434634  0.10789827  0.94516451  1
  Mo  Mo9  1  0.05484417  0.18565540  0.89208792  1
  Mo  Mo10  1  0.89207935  0.05483172  0.18564261  1
  Mo  Mo11  1  0.18566329  0.89210468  0.05483108  1
loop_
_geom_bond_atom_site_label_1
_geom_bond_atom_site_label_2
_geom_bond_distance
_geom_bond_site_symmetry_2
Cs0 Te7 3.841492 1_555
Cs0 Te8 3.842008 1_555
Cs0 Te6 3.842200 1_555
Cs0 Te12 3.979478 1_555
Cs0 Te4 4.006691 1_555
Cs0 Te5 4.007151 1_555
Cs0 Te3 4.008851 1_555
Cs0 Te11 4.194495 1_655
Cs0 Te9 4.194498 1_565
Cs0 Te10 4.194742 1_556
Cs1 Te10 3.841808 1_555
Cs1 Te11 3.842076 1_555
Cs1 Te9 3.842278 1_555
Cs1 Te13 3.979665 1_555
Cs1 Te1 4.007055 1_555
Cs1 Te2 4.007552 1_555
Cs1 Te0 4.008395 1_555
Cs1 Te6 4.194160 1_545
Cs1 Te8 4.194508 1_455
Cs1 Te7 4.194831 1_554
Mo0 Mo2 2.618740 1_564
Mo0 Mo1 2.618949 1_654
Mo0 Te12 2.723608 1_554
Mo0 Mo8 2.763123 1_564
Mo0 Mo6 2.810169 1_555
Mo0 Te3 2.822836 1_564
Mo0 Te6 2.836094 1_555
Mo0 Te4 2.847374 1_555
Mo0 Te0 2.923006 1_555
Mo1 Mo2 2.619195 1_465
Mo1 Te12 2.722345 1_455
Mo1 Mo6 2.763324 1_456
Mo1 Mo7 2.810825 1_555
Mo1 Te4 2.823702 1_456
Mo1 Te7 2.836047 1_555
Mo1 Te5 2.847648 1_555
Mo1 Te1 2.922704 1_555
Mo2 Te12 2.722397 1_545
Mo2 Mo7 2.763377 1_645
Mo2 Mo8 2.810123 1_555
Mo2 Te5 2.823918 1_645
Mo2 Te8 2.836234 1_555
Mo2 Te3 2.848065 1_555
Mo2 Te2 2.922868 1_555
Mo3 Mo5 2.618904 1_555
Mo3 Mo4 2.619146 1_555
Mo3 Te13 2.723657 1_555
Mo3 Mo9 2.810101 1_554
Mo3 Te0 2.823412 1_545
Mo3 Te9 2.835854 1_554
Mo3 Te1 2.847329 1_554
Mo3 Te3 2.922865 1_554
Mo4 Mo5 2.619694 1_555
Mo4 Te13 2.722251 1_555
Mo4 Mo9 2.763163 1_554
Mo4 Te1 2.823666 1_554
Mo4 Te10 2.835658 1_455
Mo4 Te2 2.848041 1_455
Mo4 Te4 2.922820 1_455
Mo5 Te13 2.722228 1_555
Mo5 Te2 2.823776 1_455
Mo5 Te11 2.835927 1_545
Mo5 Te0 2.848017 1_545
Mo5 Te5 2.923243 1_545
Mo6 Mo8 2.671314 1_564
Mo6 Mo7 2.671427 1_654
Mo6 Te7 2.780114 1_654
Mo6 Te4 2.796604 1_555
Mo6 Te6 2.813604 1_555
Mo6 Te11 2.876066 1_655
Mo7 Mo8 2.671463 1_465
Mo7 Mo9 2.734299 1_565
Mo7 Te8 2.779936 1_465
Mo7 Te5 2.796606 1_555
Mo7 Te7 2.813801 1_555
Mo7 Te9 2.875929 1_565
Mo8 Mo9 2.734799 1_655
Mo8 Te6 2.779715 1_546
Mo8 Te3 2.796161 1_555
Mo8 Te8 2.813589 1_555
Mo8 Te10 2.876062 1_556
Mo9 Te10 2.779767 1_456
Mo9 Te1 2.796643 1_555
Mo9 Te9 2.813486 1_555
Mo9 Te8 2.875922 1_455
Mo10 Mo11 2.671367 1_645
Mo10 Mo9 2.671396 1_654
Mo10 Mo6 2.734098 1_545
Mo10 Mo8 2.734291 1_554
Mo10 Mo5 2.763403 1_655
Mo10 Te11 2.780000 1_645
Mo10 Te2 2.796818 1_555
Mo10 Mo4 2.810619 1_655
Mo10 Te10 2.813827 1_555
Mo10 Te6 2.875928 1_545
Mo11 Mo9 2.671560 1_564
Mo11 Mo7 2.734476 1_554
Mo11 Mo6 2.734744 1_455
Mo11 Mo3 2.763032 1_565
Mo11 Te9 2.779652 1_564
Mo11 Te0 2.796425 1_555
Mo11 Mo5 2.810046 1_565
Mo11 Te11 2.813640 1_555
Mo11 Te7 2.876216 1_554
