# generated using pymatgen
data_TiAsPd
_symmetry_space_group_name_H-M   'P 1'
_cell_length_a   6.59438841
_cell_length_b   6.59438841
_cell_length_c   3.82517100
_cell_angle_alpha   90.00000000
_cell_angle_beta   90.00000000
_cell_angle_gamma   120.00000408
_symmetry_Int_Tables_number   1
_chemical_formula_structural   TiAsPd
_chemical_formula_sum   'Ti3 As3 Pd3'
_cell_volume   144.05572253
_cell_formula_units_Z   3
loop_
 _symmetry_equiv_pos_site_id
 _symmetry_equiv_pos_as_xyz
  1  'x, y, z'
loop_
 _atom_site_type_symbol
 _atom_site_label
 _atom_site_symmetry_multiplicity
 _atom_site_fract_x
 _atom_site_fract_y
 _atom_site_fract_z
 _atom_site_occupancy
  Ti  Ti0  1  0.59409300  0.00000000  0.00000000  1
  Ti  Ti1  1  0.00000000  0.59409300  0.00000000  1
  Ti  Ti2  1  0.40590700  0.40590700  0.00000000  1
  As  As0  1  0.33333300  0.66666700  0.50000000  1
  As  As1  1  0.66666700  0.33333300  0.50000000  1
  As  As2  1  0.00000000  0.00000000  0.00000000  1
  Pd  Pd0  1  0.26217000  0.00000000  0.50000000  1
  Pd  Pd1  1  0.00000000  0.26217000  0.50000000  1
  Pd  Pd2  1  0.73783000  0.73783000  0.50000000  1
loop_
_geom_bond_atom_site_label_1
_geom_bond_atom_site_label_2
_geom_bond_distance
_geom_bond_site_symmetry_2
As0 Pd0 2.466478 1_565
As0 Pd1 2.466482 1_555
As0 Pd2 2.466484 1_555
As0 Ti1 2.768899 1_555
As0 Ti1 2.768899 1_556
As0 Ti0 2.768901 1_566
As0 Ti0 2.768901 1_565
As0 Ti2 2.768904 1_555
As0 Ti2 2.768904 1_556
As1 Pd1 2.466478 1_655
As1 Pd0 2.466482 1_555
As1 Pd2 2.466484 1_555
As1 Ti0 2.768899 1_555
As1 Ti0 2.768899 1_556
As1 Ti1 2.768901 1_655
As1 Ti1 2.768901 1_656
As1 Ti2 2.768904 1_555
As1 Ti2 2.768904 1_556
As2 Pd2 2.578160 1_444
As2 Pd2 2.578160 1_445
As2 Pd0 2.578160 1_555
As2 Pd1 2.578160 1_555
As2 Pd1 2.578160 1_554
As2 Pd0 2.578160 1_554
As2 Ti2 2.676708 1_555
As2 Ti1 2.676708 1_545
As2 Ti0 2.676708 1_455
Pd0 Ti0 2.906709 1_555
Pd0 Ti0 2.906709 1_556
Pd0 Ti1 3.030519 1_545
Pd0 Ti1 3.030519 1_546
Pd0 Ti2 3.030519 1_555
Pd0 Ti2 3.030519 1_556
Pd1 Ti1 2.906709 1_555
Pd1 Ti1 2.906709 1_556
Pd1 Ti0 3.030519 1_455
Pd1 Ti0 3.030519 1_456
Pd1 Ti2 3.030519 1_555
Pd1 Ti2 3.030519 1_556
Pd2 Ti2 2.906709 1_556
Pd2 Ti2 2.906709 1_555
Pd2 Ti1 3.030519 1_655
Pd2 Ti1 3.030519 1_656
Pd2 Ti0 3.030519 1_565
Pd2 Ti0 3.030519 1_566
