# generated using pymatgen
data_Mn2Fe3Cu10(SnS4)5
_symmetry_space_group_name_H-M   'P 1'
_cell_length_a   5.52822843
_cell_length_b   10.89552097
_cell_length_c   15.13778521
_cell_angle_alpha   68.90727941
_cell_angle_beta   100.52106460
_cell_angle_gamma   90.00000000
_symmetry_Int_Tables_number   1
_chemical_formula_structural   Mn2Fe3Cu10(SnS4)5
_chemical_formula_sum   'Mn2 Fe3 Cu10 Sn5 S20'
_cell_volume   834.25134074
_cell_formula_units_Z   1
loop_
 _symmetry_equiv_pos_site_id
 _symmetry_equiv_pos_as_xyz
  1  'x, y, z'
loop_
 _atom_site_type_symbol
 _atom_site_label
 _atom_site_symmetry_multiplicity
 _atom_site_fract_x
 _atom_site_fract_y
 _atom_site_fract_z
 _atom_site_occupancy
  Mn  Mn0  1  0.79995110  0.20004890  0.59990221  1
  Mn  Mn1  1  0.40004890  0.59995110  0.80009779  1
  Fe  Fe0  1  0.00029114  0.99970886  0.00058228  1
  Fe  Fe1  1  0.60000000  0.40000000  0.20000000  1
  Fe  Fe2  1  0.19970886  0.80029114  0.39941772  1
  Cu  Cu0  1  0.50162972  0.24737662  0.00085699  1
  Cu  Cu1  1  0.29682730  0.45175715  0.59875581  1
  Cu  Cu2  1  0.90317270  0.85051296  0.80124419  1
  Cu  Cu3  1  0.10000000  0.65129997  0.20000000  1
  Cu  Cu4  1  0.69837028  0.04823361  0.39914301  1
  Cu  Cu5  1  0.89807149  0.34824285  0.80124419  1
  Cu  Cu6  1  0.70077273  0.55262338  0.39914301  1
  Cu  Cu7  1  0.30192851  0.94948704  0.59875581  1
  Cu  Cu8  1  0.49922727  0.75176639  0.00085699  1
  Cu  Cu9  1  0.10000000  0.14870003  0.20000000  1
  Sn  Sn0  1  0.40084309  0.09915691  0.80168617  1
  Sn  Sn1  1  0.19887668  0.30112332  0.39775336  1
  Sn  Sn2  1  0.79915691  0.70084309  0.59831383  1
  Sn  Sn3  1  0.00112332  0.49887668  0.00224664  1
  Sn  Sn4  1  0.60000000  0.90000000  0.20000000  1
  S  S0  1  0.20603767  0.41627963  0.89800360  1
  S  S1  1  0.81414399  0.82112311  0.09340211  1
  S  S2  1  0.41340761  0.22145937  0.29297775  1
  S  S3  1  0.01272093  0.62210560  0.49258077  1
  S  S4  1  0.60575983  0.01623516  0.69710290  1
  S  S5  1  0.78659239  0.31443712  0.10702225  1
  S  S6  1  0.38585601  0.71452522  0.30659789  1
  S  S7  1  0.99396233  0.11428323  0.50199640  1
  S  S8  1  0.59424017  0.51333806  0.70289710  1
  S  S9  1  0.18727907  0.91468637  0.90741923  1
  S  S10  1  0.09134307  0.28666194  0.69710290  1
  S  S11  1  0.69196593  0.68571677  0.89800360  1
  S  S12  1  0.27925811  0.08547478  0.09340211  1
  S  S13  1  0.87957014  0.48556288  0.29297775  1
  S  S14  1  0.47985984  0.88531363  0.49258077  1
  S  S15  1  0.72014016  0.17789440  0.90741923  1
  S  S16  1  0.32042986  0.57854063  0.10702225  1
  S  S17  1  0.92074189  0.97887689  0.30659789  1
  S  S18  1  0.50803407  0.38372037  0.50199640  1
  S  S19  1  0.10865693  0.78376484  0.70289710  1
loop_
_geom_bond_atom_site_label_1
_geom_bond_atom_site_label_2
_geom_bond_distance
_geom_bond_site_symmetry_2
Mn0 S10 2.405066 1_655
Mn0 S4 2.405066 1_555
Mn0 S18 2.407787 1_555
Mn0 S7 2.407787 1_555
Mn1 S8 2.405066 1_555
Mn1 S19 2.405066 1_555
Mn1 S11 2.407787 1_555
Mn1 S0 2.407787 1_555
Fe0 S12 2.319386 1_565
Fe0 S1 2.319386 1_455
Fe0 S9 2.321274 1_554
Fe0 S15 2.321274 1_464
Fe1 S13 2.321367 1_555
Fe1 S5 2.321367 1_555
Fe1 S16 2.321367 1_555
Fe1 S2 2.321367 1_555
Fe2 S6 2.319386 1_555
Fe2 S17 2.319386 1_455
Fe2 S14 2.321274 1_555
Fe2 S3 2.321274 1_555
Cu0 S15 2.329732 1_554
Cu0 S12 2.331477 1_555
Cu0 S0 2.343001 1_554
Cu0 S5 2.349243 1_555
Cu1 S3 2.329363 1_555
Cu1 S10 2.330795 1_555
Cu1 S8 2.335264 1_555
Cu1 S18 2.337582 1_555
Cu2 S9 2.329363 1_655
Cu2 S19 2.330795 1_655
Cu2 S4 2.335264 1_565
Cu2 S11 2.337582 1_555
Cu3 S6 2.333353 1_555
Cu3 S1 2.333353 1_455
Cu3 S16 2.350286 1_555
Cu3 S13 2.350286 1_455
Cu4 S14 2.329732 1_545
Cu4 S17 2.331476 1_545
Cu4 S7 2.343001 1_555
Cu4 S2 2.349243 1_555
Cu5 S15 2.329363 1_555
Cu5 S8 2.330795 1_555
Cu5 S10 2.335264 1_655
Cu5 S0 2.337582 1_655
Cu6 S3 2.329732 1_655
Cu6 S6 2.331476 1_555
Cu6 S18 2.343001 1_555
Cu6 S13 2.349243 1_555
Cu7 S14 2.329363 1_555
Cu7 S4 2.330795 1_565
Cu7 S19 2.335264 1_555
Cu7 S7 2.337582 1_465
Cu8 S9 2.329732 1_554
Cu8 S1 2.331476 1_555
Cu8 S11 2.343001 1_554
Cu8 S16 2.349243 1_555
Cu9 S12 2.333353 1_555
Cu9 S17 2.333353 1_445
Cu9 S2 2.350286 1_555
Cu9 S5 2.350286 1_455
S0 Sn3 2.501643 1_556
S1 Sn4 2.537659 1_555
S2 Sn1 2.520589 1_555
S3 Sn2 2.523898 1_455
S4 Sn0 2.508070 1_555
S5 Sn3 2.520589 1_655
S6 Sn4 2.537659 1_555
S7 Sn1 2.501643 1_655
S8 Sn2 2.508070 1_555
S9 Sn0 2.523898 1_565
S10 Sn0 2.508070 1_555
S11 Sn3 2.501643 1_656
S12 Sn4 2.537659 1_545
S13 Sn1 2.520589 1_655
S14 Sn2 2.523898 1_555
S15 Sn0 2.523898 1_555
S16 Sn3 2.520589 1_555
S17 Sn4 2.537659 1_555
S18 Sn1 2.501643 1_555
S19 Sn2 2.508070 1_455
