# generated using pymatgen
data_LaCrSe2O
_symmetry_space_group_name_H-M   'P 1'
_cell_length_a   3.89832600
_cell_length_b   8.78312000
_cell_length_c   11.70561000
_cell_angle_alpha   90.00068837
_cell_angle_beta   89.99871699
_cell_angle_gamma   90.00050427
_symmetry_Int_Tables_number   1
_chemical_formula_structural   LaCrSe2O
_chemical_formula_sum   'La4 Cr4 Se8 O4'
_cell_volume   400.79382449
_cell_formula_units_Z   4
loop_
 _symmetry_equiv_pos_site_id
 _symmetry_equiv_pos_as_xyz
  1  'x, y, z'
loop_
 _atom_site_type_symbol
 _atom_site_label
 _atom_site_symmetry_multiplicity
 _atom_site_fract_x
 _atom_site_fract_y
 _atom_site_fract_z
 _atom_site_occupancy
  La  La0  1  0.74999800  0.95386000  0.86173200  1
  La  La1  1  0.24998200  0.04612500  0.13827500  1
  La  La2  1  0.25000400  0.54612700  0.36170000  1
  La  La3  1  0.74999800  0.45387400  0.63829200  1
  Cr  Cr0  1  0.25001100  0.67525600  0.02640400  1
  Cr  Cr1  1  0.75003700  0.32476500  0.97359600  1
  Cr  Cr2  1  0.75001400  0.82470800  0.52641500  1
  Cr  Cr3  1  0.24999700  0.17526700  0.47358500  1
  Se  Se0  1  0.74999700  0.74639800  0.17102800  1
  Se  Se1  1  0.24999600  0.25360900  0.82898100  1
  Se  Se2  1  0.24999900  0.75360000  0.67103100  1
  Se  Se3  1  0.75000300  0.24639400  0.32896800  1
  Se  Se4  1  0.75000800  0.59582500  0.89345600  1
  Se  Se5  1  0.25001100  0.40416900  0.10654200  1
  Se  Se6  1  0.24999900  0.90417800  0.39346300  1
  Se  Se7  1  0.75000400  0.09583300  0.60654000  1
  O  O0  1  0.74998900  0.60950500  0.46435200  1
  O  O1  1  0.25000500  0.39049700  0.53564300  1
  O  O2  1  0.24997600  0.89050900  0.96434200  1
  O  O3  1  0.74996900  0.10950100  0.03565600  1
loop_
_geom_bond_atom_site_label_1
_geom_bond_atom_site_label_2
_geom_bond_distance
_geom_bond_site_symmetry_2
La0 O2 2.356123 1_655
La0 O2 2.356212 1_555
La0 O3 2.452242 1_566
La0 Se4 3.166519 1_555
La0 Se7 3.237012 1_565
La0 Se1 3.298083 1_665
La0 Se1 3.298130 1_565
La0 Se2 3.446130 1_655
La0 Se2 3.446165 1_555
La1 O3 2.356205 1_555
La1 O3 2.356342 1_455
La1 O2 2.452208 1_544
La1 Se5 3.166610 1_555
La1 Se6 3.236881 1_545
La1 Se0 3.297902 1_445
La1 Se0 3.298009 1_545
La1 Se3 3.446062 1_455
La1 Se3 3.446193 1_555
La2 O0 2.356437 1_555
La2 O0 2.356498 1_455
La2 O1 2.452401 1_555
La2 Se6 3.166703 1_555
La2 Se5 3.236566 1_555
La2 Se3 3.297955 1_455
La2 Se3 3.297968 1_555
La2 Se0 3.445952 1_555
La2 Se0 3.446057 1_455
La3 O1 2.356443 1_555
La3 O1 2.356452 1_655
La3 O0 2.452376 1_555
La3 Se7 3.166601 1_555
La3 Se4 3.236607 1_555
La3 Se2 3.297916 1_655
La3 Se2 3.297928 1_555
La3 Se1 3.446074 1_555
La3 Se1 3.446139 1_655
Cr0 O2 2.025374 1_554
Cr0 Se5 2.559127 1_555
Cr0 Se4 2.589912 1_554
Cr0 Se4 2.589973 1_454
Cr0 Se0 2.656221 1_555
Cr0 Se0 2.656254 1_455
Cr1 O3 2.025455 1_556
Cr1 Se4 2.558915 1_555
Cr1 Se5 2.589810 1_656
Cr1 Se5 2.589920 1_556
Cr1 Se1 2.656058 1_655
Cr1 Se1 2.656341 1_555
Cr2 O0 2.024952 1_555
Cr2 Se7 2.559361 1_565
Cr2 Se6 2.589998 1_655
Cr2 Se6 2.590148 1_555
Cr2 Se2 2.656106 1_655
Cr2 Se2 2.656128 1_555
Cr3 O1 2.025152 1_555
Cr3 Se6 2.559053 1_545
Cr3 Se7 2.589958 1_455
Cr3 Se7 2.590061 1_555
Cr3 Se3 2.656149 1_555
Cr3 Se3 2.656179 1_455
