# generated using pymatgen
data_K3B3O10
_symmetry_space_group_name_H-M   'P 1'
_cell_length_a   8.17280696
_cell_length_b   8.17280696
_cell_length_c   9.27073500
_cell_angle_alpha   90.00000000
_cell_angle_beta   90.00000000
_cell_angle_gamma   127.18914377
_symmetry_Int_Tables_number   1
_chemical_formula_structural   K3B3O10
_chemical_formula_sum   'K6 B6 O20'
_cell_volume   493.31144338
_cell_formula_units_Z   2
loop_
 _symmetry_equiv_pos_site_id
 _symmetry_equiv_pos_as_xyz
  1  'x, y, z'
loop_
 _atom_site_type_symbol
 _atom_site_label
 _atom_site_symmetry_multiplicity
 _atom_site_fract_x
 _atom_site_fract_y
 _atom_site_fract_z
 _atom_site_occupancy
  K  K0  1  0.00950700  0.00950700  0.71323800  1
  K  K1  1  0.99049300  0.99049300  0.21323800  1
  K  K2  1  0.27954700  0.70319400  0.70827900  1
  K  K3  1  0.72045300  0.29680600  0.20827900  1
  K  K4  1  0.29680600  0.72045300  0.20827900  1
  K  K5  1  0.70319400  0.27954700  0.70827900  1
  B  B0  1  0.64928800  0.82581100  0.95564100  1
  B  B1  1  0.35071200  0.17418900  0.45564100  1
  B  B2  1  0.17418900  0.35071200  0.45564100  1
  B  B3  1  0.82581100  0.64928800  0.95564100  1
  B  B4  1  0.43991800  0.43991800  0.96876900  1
  B  B5  1  0.56008200  0.56008200  0.46876900  1
  O  O0  1  0.45077500  0.61733700  0.96168500  1
  O  O1  1  0.54922500  0.38266300  0.46168500  1
  O  O2  1  0.38266300  0.54922500  0.46168500  1
  O  O3  1  0.61733700  0.45077500  0.96168500  1
  O  O4  1  0.65487500  0.94618200  0.83481000  1
  O  O5  1  0.34512500  0.05381800  0.33481000  1
  O  O6  1  0.05381800  0.34512500  0.33481000  1
  O  O7  1  0.94618200  0.65487500  0.83481000  1
  O  O8  1  0.65768300  0.96215200  0.06499500  1
  O  O9  1  0.34231700  0.03784800  0.56499500  1
  O  O10  1  0.03784800  0.34231700  0.56499500  1
  O  O11  1  0.96215200  0.65768300  0.06499500  1
  O  O12  1  0.82282800  0.82282800  0.96056900  1
  O  O13  1  0.17717200  0.17717200  0.46056900  1
  O  O14  1  0.25226600  0.25226600  0.98442700  1
  O  O15  1  0.74773400  0.74773400  0.48442700  1
  O  O16  1  0.77863000  0.07156900  0.44558800  1
  O  O17  1  0.22137000  0.92843100  0.94558800  1
  O  O18  1  0.92843100  0.22137000  0.94558800  1
  O  O19  1  0.07156900  0.77863000  0.44558800  1
loop_
_geom_bond_atom_site_label_1
_geom_bond_atom_site_label_2
_geom_bond_distance
_geom_bond_site_symmetry_2
K0 O13 2.640535 1_555
K0 O12 2.664405 1_445
K0 O15 2.849677 1_445
K0 O7 2.850460 1_445
K0 O4 2.850460 1_445
K0 O9 2.929017 1_555
K0 O10 2.929017 1_555
K0 O14 3.071622 1_555
K0 O17 3.076389 1_545
K0 O18 3.076389 1_455
K1 O12 2.640535 1_554
K1 O13 2.664405 1_665
K1 O14 2.849677 1_664
K1 O5 2.850460 1_665
K1 O6 2.850460 1_665
K1 O8 2.929017 1_555
K1 O11 2.929017 1_555
K1 O15 3.071622 1_555
K1 O16 3.076389 1_565
K1 O19 3.076389 1_655
K2 O10 2.705967 1_555
K2 O4 2.713855 1_555
K2 O7 2.766647 1_455
K2 O9 2.795003 1_565
K2 O2 2.966814 1_555
K2 O0 3.026027 1_555
K2 O17 3.084299 1_555
K2 O19 3.235279 1_555
K3 O11 2.705967 1_555
K3 O5 2.713855 1_555
K3 O6 2.766647 1_655
K3 O8 2.795003 1_545
K3 O3 2.966814 1_554
K3 O1 3.026027 1_555
K3 O16 3.084299 1_555
K3 O18 3.235279 1_554
K4 O8 2.705967 1_555
K4 O6 2.713855 1_555
K4 O5 2.766647 1_565
K4 O11 2.795003 1_455
K4 O0 2.966814 1_554
K4 O2 3.026027 1_555
K4 O19 3.084299 1_555
K4 O17 3.235279 1_554
K5 O9 2.705967 1_555
K5 O7 2.713855 1_555
K5 O4 2.766647 1_545
K5 O10 2.795003 1_655
K5 O1 2.966814 1_555
K5 O3 3.026027 1_555
K5 O18 3.084299 1_555
K5 O16 3.235279 1_555
B0 O12 1.433905 1_555
B0 O4 1.473232 1_555
B0 O8 1.477057 1_556
B0 O0 1.482095 1_555
B1 O13 1.433905 1_555
B1 O5 1.473232 1_555
B1 O9 1.477057 1_555
B1 O1 1.482095 1_555
B2 O13 1.433905 1_555
B2 O6 1.473232 1_555
B2 O10 1.477057 1_555
B2 O2 1.482095 1_555
B3 O12 1.433905 1_555
B3 O7 1.473232 1_555
B3 O11 1.477057 1_556
B3 O3 1.482095 1_555
B4 O14 1.371786 1_555
B4 O3 1.399707 1_555
B4 O0 1.399707 1_555
B5 O15 1.371786 1_555
B5 O2 1.399707 1_555
B5 O1 1.399707 1_555
