# generated using pymatgen
data_LaNiO3
_symmetry_space_group_name_H-M   'P 1'
_cell_length_a   3.85699900
_cell_length_b   3.85699900
_cell_length_c   3.85699900
_cell_angle_alpha   90.00000000
_cell_angle_beta   90.00000000
_cell_angle_gamma   90.00000000
_symmetry_Int_Tables_number   1
_chemical_formula_structural   LaNiO3
_chemical_formula_sum   'La1 Ni1 O3'
_cell_volume   57.37841916
_cell_formula_units_Z   1
loop_
 _symmetry_equiv_pos_site_id
 _symmetry_equiv_pos_as_xyz
  1  'x, y, z'
loop_
 _atom_site_type_symbol
 _atom_site_label
 _atom_site_symmetry_multiplicity
 _atom_site_fract_x
 _atom_site_fract_y
 _atom_site_fract_z
 _atom_site_occupancy
  La  La0  1  0.50000000  0.50000000  0.50000000  1
  Ni  Ni0  1  0.00000000  0.00000000  0.00000000  1
  O  O0  1  0.50000000  0.00000000  0.00000000  1
  O  O1  1  0.00000000  0.50000000  0.00000000  1
  O  O2  1  0.00000000  0.00000000  0.50000000  1
loop_
_geom_bond_atom_site_label_1
_geom_bond_atom_site_label_2
_geom_bond_distance
_geom_bond_site_symmetry_2
La0 O2 2.727310 1_655
La0 O1 2.727310 1_656
La0 O1 2.727310 1_655
La0 O0 2.727310 1_556
La0 O2 2.727310 1_665
La0 O0 2.727310 1_566
La0 O1 2.727310 1_555
La0 O2 2.727310 1_565
La0 O1 2.727310 1_556
La0 O0 2.727310 1_555
La0 O0 2.727310 1_565
La0 O2 2.727310 1_555
Ni0 O1 1.928500 1_555
Ni0 O0 1.928500 1_555
Ni0 O2 1.928500 1_555
Ni0 O2 1.928500 1_554
Ni0 O1 1.928500 1_545
Ni0 O0 1.928500 1_455
