# generated using pymatgen
data_Ca2MnSbO6
_symmetry_space_group_name_H-M   'P 1'
_cell_length_a   5.55584450
_cell_length_b   11.42187900
_cell_length_c   7.64275064
_cell_angle_alpha   90.00032693
_cell_angle_beta   90.73907639
_cell_angle_gamma   89.99954637
_symmetry_Int_Tables_number   1
_chemical_formula_structural   Ca2MnSbO6
_chemical_formula_sum   'Ca8 Mn4 Sb4 O24'
_cell_volume   484.95472431
_cell_formula_units_Z   4
loop_
 _symmetry_equiv_pos_site_id
 _symmetry_equiv_pos_as_xyz
  1  'x, y, z'
loop_
 _atom_site_type_symbol
 _atom_site_label
 _atom_site_symmetry_multiplicity
 _atom_site_fract_x
 _atom_site_fract_y
 _atom_site_fract_z
 _atom_site_occupancy
  Ca  Ca0  1  0.50989600  0.27569200  0.24898600  1
  Ca  Ca1  1  0.50984100  0.77566800  0.24890900  1
  Ca  Ca2  1  0.99002700  0.02579300  0.25110900  1
  Ca  Ca3  1  0.98994200  0.52577200  0.25102100  1
  Ca  Ca4  1  0.48998200  0.22422500  0.75098900  1
  Ca  Ca5  1  0.48996300  0.72420500  0.75109000  1
  Ca  Ca6  1  0.00984000  0.47431500  0.74898600  1
  Ca  Ca7  1  0.00992100  0.97432100  0.74896000  1
  Mn  Mn0  1  0.00024500  0.75019000  0.00009100  1
  Mn  Mn1  1  0.50001600  0.49994800  0.50003800  1
  Mn  Mn2  1  0.00005600  0.25000800  0.99977100  1
  Mn  Mn3  1  0.50031600  0.99985400  0.49997700  1
  Sb  Sb0  1  0.00001500  0.25001300  0.49991200  1
  Sb  Sb1  1  0.99997900  0.75002300  0.50000800  1
  Sb  Sb2  1  0.50000700  0.99995800  0.00008300  1
  Sb  Sb3  1  0.49998600  0.49996500  0.99996800  1
  O  O0  1  0.79141900  0.40261400  0.04887900  1
  O  O1  1  0.79151100  0.90260700  0.04891700  1
  O  O2  1  0.70861400  0.15253600  0.45115000  1
  O  O3  1  0.70859800  0.65257700  0.45111500  1
  O  O4  1  0.20862800  0.09742000  0.95110800  1
  O  O5  1  0.20864300  0.59746900  0.95112300  1
  O  O6  1  0.29141200  0.34741100  0.54888300  1
  O  O7  1  0.29145000  0.84736800  0.54894900  1
  O  O8  1  0.19362000  0.10487600  0.54803300  1
  O  O9  1  0.19354600  0.60490300  0.54799900  1
  O  O10  1  0.30648400  0.35485100  0.95196100  1
  O  O11  1  0.30650200  0.85484700  0.95195400  1
  O  O12  1  0.80648000  0.39517700  0.45199500  1
  O  O13  1  0.80656500  0.89514500  0.45199900  1
  O  O14  1  0.69356300  0.14511700  0.04798400  1
  O  O15  1  0.69354000  0.64511300  0.04797900  1
  O  O16  1  0.40537200  0.48354400  0.25625500  1
  O  O17  1  0.40547100  0.98346300  0.25637700  1
  O  O18  1  0.09444100  0.23332400  0.24366100  1
  O  O19  1  0.09441500  0.73337100  0.24374400  1
  O  O20  1  0.59450300  0.01664200  0.74378100  1
  O  O21  1  0.59438800  0.51667400  0.74370000  1
  O  O22  1  0.90540500  0.26648700  0.75625600  1
  O  O23  1  0.90540000  0.76651300  0.75630000  1
loop_
_geom_bond_atom_site_label_1
_geom_bond_atom_site_label_2
_geom_bond_distance
_geom_bond_site_symmetry_2
Ca0 O2 2.353920 1_555
Ca0 O18 2.358227 1_555
Ca0 O14 2.380316 1_555
Ca0 O16 2.444850 1_555
Ca0 O12 2.630407 1_555
Ca0 O0 2.636045 1_555
Ca0 O10 2.679885 1_554
Ca0 O6 2.733070 1_555
Ca1 O3 2.353785 1_555
Ca1 O19 2.357898 1_555
Ca1 O15 2.379892 1_555
Ca1 O17 2.444054 1_555
Ca1 O13 2.631201 1_555
Ca1 O1 2.636126 1_555
Ca1 O11 2.679345 1_554
Ca1 O7 2.733693 1_555
Ca2 O1 2.353747 1_545
Ca2 O17 2.358069 1_645
Ca2 O13 2.379805 1_545
Ca2 O18 2.441190 1_655
Ca2 O14 2.629552 1_555
Ca2 O2 2.634234 1_555
Ca2 O8 2.679353 1_655
Ca2 O4 2.733736 1_654
Ca3 O0 2.353326 1_555
Ca3 O16 2.357753 1_655
Ca3 O12 2.379843 1_555
Ca3 O19 2.441988 1_655
Ca3 O15 2.629071 1_555
Ca3 O3 2.634631 1_555
Ca3 O9 2.679910 1_655
Ca3 O5 2.733564 1_654
Ca4 O6 2.353458 1_555
Ca4 O22 2.357803 1_555
Ca4 O10 2.380121 1_555
Ca4 O20 2.441851 1_555
Ca4 O8 2.628602 1_555
Ca4 O4 2.634800 1_555
Ca4 O14 2.679881 1_556
Ca4 O2 2.732967 1_555
Ca5 O7 2.353329 1_555
Ca5 O23 2.357985 1_555
Ca5 O11 2.379609 1_555
Ca5 O21 2.441183 1_555
Ca5 O9 2.629114 1_555
Ca5 O5 2.633867 1_555
Ca5 O15 2.679129 1_556
Ca5 O3 2.733644 1_555
Ca6 O5 2.353990 1_555
Ca6 O21 2.358181 1_455
Ca6 O9 2.380450 1_555
Ca6 O22 2.444476 1_455
Ca6 O10 2.630333 1_555
Ca6 O6 2.636055 1_555
Ca6 O12 2.679464 1_455
Ca6 O0 2.732837 1_456
Ca7 O4 2.353423 1_565
Ca7 O20 2.357903 1_465
Ca7 O8 2.379898 1_565
Ca7 O23 2.444382 1_455
Ca7 O11 2.630260 1_555
Ca7 O7 2.635806 1_555
Ca7 O13 2.679408 1_455
Ca7 O1 2.733267 1_456
Mn0 O19 1.937322 1_555
Mn0 O23 1.938748 1_454
Mn0 O11 2.115568 1_554
Mn0 O15 2.119938 1_455
Mn0 O1 2.127430 1_455
Mn0 O5 2.129451 1_554
Mn1 O21 1.937571 1_555
Mn1 O16 1.938488 1_555
Mn1 O12 2.117081 1_555
Mn1 O9 2.118182 1_555
Mn1 O6 2.128202 1_555
Mn1 O3 2.129104 1_555
Mn2 O22 1.936621 1_455
Mn2 O18 1.939212 1_556
Mn2 O10 2.117076 1_555
Mn2 O14 2.118243 1_456
Mn2 O4 2.128310 1_555
Mn2 O0 2.129296 1_456
Mn3 O17 1.937424 1_555
Mn3 O20 1.938415 1_565
Mn3 O13 2.115626 1_555
Mn3 O8 2.119760 1_565
Mn3 O2 2.128604 1_565
Mn3 O7 2.128699 1_555
O0 Sb3 1.995534 1_554
O1 Sb2 1.995750 1_555
O2 Sb0 1.996004 1_655
O3 Sb1 1.995893 1_555
O4 Sb2 1.996085 1_546
O5 Sb3 1.996015 1_555
O6 Sb0 1.995765 1_555
O7 Sb1 1.995720 1_455
O8 Sb0 2.007517 1_555
O9 Sb1 2.007069 1_455
O10 Sb3 2.006852 1_555
O11 Sb2 2.006997 1_556
O12 Sb0 2.007290 1_655
O13 Sb1 2.006659 1_555
O14 Sb2 2.007294 1_545
O15 Sb3 2.007332 1_554
O16 Sb3 2.043213 1_554
O17 Sb2 2.043225 1_555
O18 Sb0 2.042947 1_555
O19 Sb1 2.043018 1_455
O20 Sb2 2.043424 1_546
O21 Sb3 2.043061 1_555
O22 Sb0 2.043679 1_655
O23 Sb1 2.043267 1_555
