# generated using pymatgen
data_UH4C2SeN4O7
_symmetry_space_group_name_H-M   'P 1'
_cell_length_a   13.64358900
_cell_length_b   6.38850100
_cell_length_c   6.54220932
_cell_angle_alpha   72.86863591
_cell_angle_beta   90.00000000
_cell_angle_gamma   90.00000000
_symmetry_Int_Tables_number   1
_chemical_formula_structural   UH4C2SeN4O7
_chemical_formula_sum   'U2 H8 C4 Se2 N8 O14'
_cell_volume   544.93245540
_cell_formula_units_Z   2
loop_
 _symmetry_equiv_pos_site_id
 _symmetry_equiv_pos_as_xyz
  1  'x, y, z'
loop_
 _atom_site_type_symbol
 _atom_site_label
 _atom_site_symmetry_multiplicity
 _atom_site_fract_x
 _atom_site_fract_y
 _atom_site_fract_z
 _atom_site_occupancy
  U  U0  1  0.25000000  0.76311000  0.73893900  1
  U  U1  1  0.75000000  0.23689000  0.26106100  1
  H  H0  1  0.95810600  0.26985000  0.86000500  1
  H  H1  1  0.45810600  0.73015000  0.13999500  1
  H  H2  1  0.04189400  0.73015000  0.13999500  1
  H  H3  1  0.54189400  0.26985000  0.86000500  1
  H  H4  1  0.08828600  0.29827000  0.82664600  1
  H  H5  1  0.58828600  0.70173000  0.17335400  1
  H  H6  1  0.91171400  0.70173000  0.17335400  1
  H  H7  1  0.41171400  0.29827000  0.82664600  1
  C  C0  1  0.00909500  0.58153100  0.71969800  1
  C  C1  1  0.50909500  0.41846900  0.28030200  1
  C  C2  1  0.99090500  0.41846900  0.28030200  1
  C  C3  1  0.49090500  0.58153100  0.71969800  1
  Se  Se0  1  0.25000000  0.92940500  0.16717200  1
  Se  Se1  1  0.75000000  0.07059500  0.83282800  1
  N  N0  1  0.91414000  0.66417200  0.68270300  1
  N  N1  1  0.41414000  0.33582800  0.31729700  1
  N  N2  1  0.08586000  0.33582800  0.31729700  1
  N  N3  1  0.58586000  0.66417200  0.68270300  1
  N  N4  1  0.01982600  0.36565800  0.80594400  1
  N  N5  1  0.51982600  0.63434200  0.19405600  1
  N  N6  1  0.98017400  0.63434200  0.19405600  1
  N  N7  1  0.48017400  0.36565800  0.80594400  1
  O  O0  1  0.25000000  0.71444000  0.40365800  1
  O  O1  1  0.75000000  0.28556000  0.59634200  1
  O  O2  1  0.25000000  0.05006300  0.59504200  1
  O  O3  1  0.75000000  0.94993700  0.40495800  1
  O  O4  1  0.15536900  0.85876300  0.02049500  1
  O  O5  1  0.65536900  0.14123700  0.97950500  1
  O  O6  1  0.84463100  0.14123700  0.97950500  1
  O  O7  1  0.34463100  0.85876300  0.02049500  1
  O  O8  1  0.07702400  0.72252700  0.66575000  1
  O  O9  1  0.57702400  0.27747300  0.33425000  1
  O  O10  1  0.92297600  0.27747300  0.33425000  1
  O  O11  1  0.42297600  0.72252700  0.66575000  1
  O  O12  1  0.25000000  0.47031200  0.87831400  1
  O  O13  1  0.75000000  0.52968800  0.12168600  1
loop_
_geom_bond_atom_site_label_1
_geom_bond_atom_site_label_2
_geom_bond_distance
_geom_bond_site_symmetry_2
H0 N4 1.039850 1_655
H1 N5 1.039850 1_555
H2 N6 1.039850 1_455
H3 N7 1.039850 1_555
H4 N4 1.020667 1_555
H5 N5 1.020667 1_555
H6 N6 1.020667 1_555
H7 N7 1.020667 1_555
C0 O8 1.267905 1_555
C0 N4 1.335405 1_555
C0 N0 1.392991 1_455
C1 O9 1.267905 1_555
C1 N5 1.335405 1_555
C1 N1 1.392991 1_555
C2 O10 1.267905 1_555
C2 N6 1.335405 1_555
C2 N2 1.392991 1_655
C3 O11 1.267905 1_555
C3 N7 1.335405 1_555
C3 N3 1.392991 1_555
O0 Se0 1.740085 1_555
O0 U0 2.304304 1_555
O1 Se1 1.740085 1_555
O1 U1 2.304304 1_555
O2 U0 1.797264 1_545
O3 U1 1.797264 1_565
O4 Se0 1.745442 1_555
O4 U0 2.469100 1_554
O5 Se1 1.745442 1_555
O5 U1 2.469100 1_556
O6 Se1 1.745442 1_555
O6 U1 2.469100 1_556
O7 Se0 1.745442 1_555
O7 U0 2.469100 1_554
O8 U0 2.437064 1_555
O9 U1 2.437064 1_555
O10 U1 2.437064 1_555
O11 U0 2.437064 1_555
O12 U0 1.823602 1_555
O13 U1 1.823602 1_555
