# generated using pymatgen
data_Nd3Ti3(SeO4)2
_symmetry_space_group_name_H-M   'P 1'
_cell_length_a   3.94310674
_cell_length_b   9.82048524
_cell_length_c   13.52401997
_cell_angle_alpha   68.79661532
_cell_angle_beta   90.00000000
_cell_angle_gamma   90.00000000
_symmetry_Int_Tables_number   1
_chemical_formula_structural   Nd3Ti3(SeO4)2
_chemical_formula_sum   'Nd6 Ti6 Se4 O16'
_cell_volume   488.24083924
_cell_formula_units_Z   2
loop_
 _symmetry_equiv_pos_site_id
 _symmetry_equiv_pos_as_xyz
  1  'x, y, z'
loop_
 _atom_site_type_symbol
 _atom_site_label
 _atom_site_symmetry_multiplicity
 _atom_site_fract_x
 _atom_site_fract_y
 _atom_site_fract_z
 _atom_site_occupancy
  Nd  Nd0  1  0.25000000  0.83076996  0.58397973  1
  Nd  Nd1  1  0.75000000  0.16923004  0.41602027  1
  Nd  Nd2  1  0.25000000  0.67672146  0.91411824  1
  Nd  Nd3  1  0.75000000  0.32327854  0.08588176  1
  Nd  Nd4  1  0.75000000  0.38992952  0.66345763  1
  Nd  Nd5  1  0.25000000  0.61007048  0.33654237  1
  Ti  Ti0  1  0.25000000  0.94840931  0.09292539  1
  Ti  Ti1  1  0.25000000  0.05159138  0.26695287  1
  Ti  Ti2  1  0.75000000  0.72144497  0.09821594  1
  Ti  Ti3  1  0.25000000  0.27855503  0.90178406  1
  Ti  Ti4  1  0.75000000  0.05159069  0.90707461  1
  Ti  Ti5  1  0.75000000  0.94840862  0.73304713  1
  Se  Se0  1  0.75000000  0.68087498  0.48069825  1
  Se  Se1  1  0.75000000  0.63862292  0.75364781  1
  Se  Se2  1  0.25000000  0.36137708  0.24635219  1
  Se  Se3  1  0.25000000  0.31912502  0.51930175  1
  O  O0  1  0.75000000  0.12382312  0.75392068  1
  O  O1  1  0.25000000  0.87617688  0.24607932  1
  O  O2  1  0.25000000  0.36067213  0.75961631  1
  O  O3  1  0.75000000  0.63932787  0.24038369  1
  O  O4  1  0.25000000  0.41532261  0.97013821  1
  O  O5  1  0.75000000  0.58467739  0.02986179  1
  O  O6  1  0.75000000  0.97368454  0.58592405  1
  O  O7  1  0.25000000  0.02631546  0.41407595  1
  O  O8  1  0.75000000  0.24750586  0.92696453  1
  O  O9  1  0.25000000  0.75249414  0.07303547  1
  O  O10  1  0.75000000  0.09368715  0.26272460  1
  O  O11  1  0.75000000  0.93868747  0.07048536  1
  O  O12  1  0.75000000  0.86024815  0.89176988  1
  O  O13  1  0.25000000  0.13975185  0.10823012  1
  O  O14  1  0.25000000  0.90631285  0.73727540  1
  O  O15  1  0.25000000  0.06131253  0.92951464  1
loop_
_geom_bond_atom_site_label_1
_geom_bond_atom_site_label_2
_geom_bond_distance
_geom_bond_site_symmetry_2
Nd0 O7 2.403267 1_565
Nd0 O6 2.425736 1_555
Nd0 O6 2.425736 1_455
Nd0 O14 2.441507 1_555
Nd0 Se0 3.080948 1_455
Nd0 Se0 3.080948 1_555
Nd0 Se1 3.095292 1_555
Nd0 Se1 3.095292 1_455
Nd1 O6 2.403267 1_545
Nd1 O7 2.425736 1_655
Nd1 O7 2.425736 1_555
Nd1 O10 2.441507 1_555
Nd1 Se3 3.080948 1_555
Nd1 Se3 3.080948 1_655
Nd1 Se2 3.095292 1_555
Nd1 Se2 3.095292 1_655
Nd2 O4 2.399369 1_555
Nd2 O5 2.476048 1_456
Nd2 O5 2.476048 1_556
Nd2 O9 2.515875 1_556
Nd2 O12 2.613943 1_455
Nd2 O12 2.613943 1_555
Nd2 O14 2.627337 1_555
Nd2 Se1 3.053547 1_555
Nd2 Se1 3.053547 1_455
Nd3 O5 2.399369 1_555
Nd3 O4 2.476048 1_654
Nd3 O4 2.476048 1_554
Nd3 O8 2.515875 1_554
Nd3 O13 2.613943 1_655
Nd3 O13 2.613943 1_555
Nd3 O10 2.627337 1_555
Nd3 Se2 3.053547 1_555
Nd3 Se2 3.053547 1_655
Nd4 O2 2.321739 1_655
Nd4 O2 2.321739 1_555
Nd4 O0 2.452218 1_555
Nd4 Se3 3.025213 1_555
Nd4 Se3 3.025213 1_655
Nd4 Se0 3.027269 1_555
Nd4 Se1 3.099577 1_555
Nd5 O3 2.321739 1_455
Nd5 O3 2.321739 1_555
Nd5 O1 2.452218 1_555
Nd5 Se0 3.025213 1_455
Nd5 Se0 3.025213 1_555
Nd5 Se3 3.027269 1_555
Nd5 Se2 3.099577 1_555
Se1 Ti5 2.952926 1_555
Se2 Ti1 2.952926 1_555
O0 Ti5 1.843637 1_545
O0 Ti4 1.931447 1_555
O1 Ti1 1.843637 1_565
O1 Ti0 1.931447 1_555
O2 Ti3 1.795954 1_555
O3 Ti2 1.795954 1_555
O4 Ti3 1.885914 1_555
O5 Ti2 1.885914 1_555
O6 Ti5 1.913961 1_555
O7 Ti1 1.913961 1_555
O8 Ti3 2.005207 1_655
O8 Ti3 2.005207 1_555
O8 Ti4 2.036769 1_555
O9 Ti2 2.005207 1_455
O9 Ti2 2.005207 1_555
O9 Ti0 2.036769 1_555
O10 Ti1 2.010993 1_655
O10 Ti1 2.010993 1_555
O11 Ti0 2.002298 1_555
O11 Ti0 2.002298 1_655
O11 Ti2 2.028152 1_555
O11 Ti4 2.083471 1_564
O12 Ti4 1.963443 1_565
O12 Ti5 2.003248 1_555
O12 Ti2 2.626839 1_556
O13 Ti0 1.963443 1_545
O13 Ti1 2.003248 1_555
O13 Ti3 2.626839 1_554
O14 Ti5 2.010993 1_455
O14 Ti5 2.010993 1_555
O15 Ti4 2.002298 1_555
O15 Ti4 2.002298 1_455
O15 Ti3 2.028152 1_555
O15 Ti0 2.083471 1_546
