# generated using pymatgen
data_Li2CoO2
_symmetry_space_group_name_H-M   'P 1'
_cell_length_a   3.07413588
_cell_length_b   5.59563377
_cell_length_c   5.17109041
_cell_angle_alpha   91.76886190
_cell_angle_beta   89.99196772
_cell_angle_gamma   89.98975209
_symmetry_Int_Tables_number   1
_chemical_formula_structural   Li2CoO2
_chemical_formula_sum   'Li4 Co2 O4'
_cell_volume   88.90935594
_cell_formula_units_Z   2
loop_
 _symmetry_equiv_pos_site_id
 _symmetry_equiv_pos_as_xyz
  1  'x, y, z'
loop_
 _atom_site_type_symbol
 _atom_site_label
 _atom_site_symmetry_multiplicity
 _atom_site_fract_x
 _atom_site_fract_y
 _atom_site_fract_z
 _atom_site_occupancy
  Li  Li0  1  0.49985400  0.16555400  0.64087300  1
  Li  Li1  1  0.00008400  0.66377200  0.63936300  1
  Li  Li2  1  0.50010700  0.83448600  0.35912700  1
  Li  Li3  1  0.99987700  0.33626800  0.36063700  1
  Co  Co0  1  0.99997900  0.00002000  0.00000100  1
  Co  Co1  1  0.49997900  0.50002000  0.00000100  1
  O  O0  1  0.49999000  0.15893200  0.23482400  1
  O  O1  1  0.00017500  0.65744400  0.24109600  1
  O  O2  1  0.49997000  0.84111000  0.76517500  1
  O  O3  1  0.99978500  0.34259600  0.75890400  1
loop_
_geom_bond_atom_site_label_1
_geom_bond_atom_site_label_2
_geom_bond_distance
_geom_bond_site_symmetry_2
Li0 O3 1.918080 1_455
Li0 O3 1.918161 1_555
Li0 O2 1.944514 1_545
Li0 O0 2.098899 1_555
Li1 O3 1.918482 1_455
Li1 O2 1.931432 1_555
Li1 O2 1.931562 1_455
Li1 O1 2.058686 1_555
Li2 O1 1.918078 1_655
Li2 O1 1.918164 1_555
Li2 O0 1.944526 1_565
Li2 O2 2.098894 1_555
Li3 O1 1.918482 1_655
Li3 O0 1.931430 1_555
Li3 O0 1.931555 1_655
Li3 O3 2.058686 1_555
Co0 O0 2.135417 1_555
Co0 O2 2.135425 1_644
Co0 O2 2.135939 1_544
Co0 O0 2.135940 1_655
Co0 O1 2.318724 1_645
Co0 O3 2.318730 1_554
Co1 O1 2.149928 1_555
Co1 O3 2.149938 1_554
Co1 O1 2.151264 1_655
Co1 O3 2.151265 1_454
Co1 O0 2.293545 1_555
Co1 O2 2.293563 1_554
