# generated using pymatgen
data_Lu3C4
_symmetry_space_group_name_H-M   'P 1'
_cell_length_a   7.79706242
_cell_length_b   7.79706242
_cell_length_c   15.51734918
_cell_angle_alpha   90.00000000
_cell_angle_beta   90.00000000
_cell_angle_gamma   90.00000000
_symmetry_Int_Tables_number   1
_chemical_formula_structural   Lu3C4
_chemical_formula_sum   'Lu30 C40'
_cell_volume   943.36455612
_cell_formula_units_Z   10
loop_
 _symmetry_equiv_pos_site_id
 _symmetry_equiv_pos_as_xyz
  1  'x, y, z'
loop_
 _atom_site_type_symbol
 _atom_site_label
 _atom_site_symmetry_multiplicity
 _atom_site_fract_x
 _atom_site_fract_y
 _atom_site_fract_z
 _atom_site_occupancy
  Lu  Lu0  1  0.50000000  0.50000000  0.50000000  1
  Lu  Lu1  1  0.00000000  0.00000000  -0.00000000  1
  Lu  Lu2  1  0.50000000  0.50000000  0.18708488  1
  Lu  Lu3  1  0.00000000  0.00000000  0.68708488  1
  Lu  Lu4  1  0.50000000  0.50000000  0.81291512  1
  Lu  Lu5  1  0.00000000  0.00000000  0.31291512  1
  Lu  Lu6  1  0.70215181  0.90419558  0.50000000  1
  Lu  Lu7  1  0.29784819  0.09580442  0.50000000  1
  Lu  Lu8  1  0.79784819  0.40419558  -0.00000000  1
  Lu  Lu9  1  0.20215181  0.59580442  -0.00000000  1
  Lu  Lu10  1  0.90419558  0.29784819  0.50000000  1
  Lu  Lu11  1  0.09580442  0.70215181  0.50000000  1
  Lu  Lu12  1  0.40419558  0.20215181  -0.00000000  1
  Lu  Lu13  1  0.59580442  0.79784819  -0.00000000  1
  Lu  Lu14  1  0.78772001  0.60027557  0.35516844  1
  Lu  Lu15  1  0.21227999  0.39972443  0.35516844  1
  Lu  Lu16  1  0.71227999  0.10027557  0.85516844  1
  Lu  Lu17  1  0.28772001  0.89972443  0.85516844  1
  Lu  Lu18  1  0.60027557  0.21227999  0.35516844  1
  Lu  Lu19  1  0.39972443  0.78772001  0.35516844  1
  Lu  Lu20  1  0.10027557  0.28772001  0.85516844  1
  Lu  Lu21  1  0.89972443  0.71227999  0.85516844  1
  Lu  Lu22  1  0.21227999  0.39972443  0.64483156  1
  Lu  Lu23  1  0.78772001  0.60027557  0.64483156  1
  Lu  Lu24  1  0.28772001  0.89972443  0.14483156  1
  Lu  Lu25  1  0.71227999  0.10027557  0.14483156  1
  Lu  Lu26  1  0.39972443  0.78772001  0.64483156  1
  Lu  Lu27  1  0.60027557  0.21227999  0.64483156  1
  Lu  Lu28  1  0.89972443  0.71227999  0.14483156  1
  Lu  Lu29  1  0.10027557  0.28772001  0.14483156  1
  C  C0  1  0.50000000  0.50000000  0.95809687  1
  C  C1  1  0.00000000  0.00000000  0.45809687  1
  C  C2  1  0.50000000  0.50000000  0.04190313  1
  C  C3  1  0.00000000  0.00000000  0.54190313  1
  C  C4  1  0.50000000  0.50000000  0.34272038  1
  C  C5  1  0.00000000  0.00000000  0.84272038  1
  C  C6  1  0.50000000  0.50000000  0.65727962  1
  C  C7  1  0.00000000  0.00000000  0.15727962  1
  C  C8  1  0.60657456  0.19609639  0.50000000  1
  C  C9  1  0.39342544  0.80390361  0.50000000  1
  C  C10  1  0.89342544  0.69609639  -0.00000000  1
  C  C11  1  0.10657456  0.30390361  -0.00000000  1
  C  C12  1  0.19609639  0.39342544  0.50000000  1
  C  C13  1  0.80390361  0.60657456  0.50000000  1
  C  C14  1  0.69609639  0.10657456  -0.00000000  1
  C  C15  1  0.30390361  0.89342544  -0.00000000  1
  C  C16  1  0.69328459  0.90247909  0.32914821  1
  C  C17  1  0.30671541  0.09752091  0.32914821  1
  C  C18  1  0.80671541  0.40247909  0.82914821  1
  C  C19  1  0.19328459  0.59752091  0.82914821  1
  C  C20  1  0.90247909  0.30671541  0.32914821  1
  C  C21  1  0.09752091  0.69328459  0.32914821  1
  C  C22  1  0.40247909  0.19328459  0.82914821  1
  C  C23  1  0.59752091  0.80671541  0.82914821  1
  C  C24  1  0.30671541  0.09752091  0.67085179  1
  C  C25  1  0.69328459  0.90247909  0.67085179  1
  C  C26  1  0.19328459  0.59752091  0.17085179  1
  C  C27  1  0.80671541  0.40247909  0.17085179  1
  C  C28  1  0.09752091  0.69328459  0.67085179  1
  C  C29  1  0.90247909  0.30671541  0.67085179  1
  C  C30  1  0.59752091  0.80671541  0.17085179  1
  C  C31  1  0.40247909  0.19328459  0.17085179  1
  C  C32  1  0.64958897  0.85041103  0.25000000  1
  C  C33  1  0.35041103  0.14958897  0.25000000  1
  C  C34  1  0.85041103  0.35041103  0.75000000  1
  C  C35  1  0.14958897  0.64958897  0.75000000  1
  C  C36  1  0.85041103  0.35041103  0.25000000  1
  C  C37  1  0.14958897  0.64958897  0.25000000  1
  C  C38  1  0.35041103  0.14958897  0.75000000  1
  C  C39  1  0.64958897  0.85041103  0.75000000  1
loop_
_geom_bond_atom_site_label_1
_geom_bond_atom_site_label_2
_geom_bond_distance
_geom_bond_site_symmetry_2
C0 C2 1.300451 1_556
C0 Lu4 2.252836 1_555
C0 Lu12 2.524690 1_556
C0 Lu9 2.524690 1_556
C0 Lu8 2.524690 1_556
C0 Lu13 2.524690 1_556
C1 C3 1.300451 1_555
C1 Lu5 2.252836 1_555
C1 Lu10 2.524690 1_455
C1 Lu11 2.524690 1_545
C1 Lu6 2.524690 1_445
C1 Lu7 2.524690 1_555
C2 Lu2 2.252836 1_555
C2 Lu9 2.524690 1_555
C2 Lu12 2.524690 1_555
C2 Lu8 2.524690 1_555
C2 Lu13 2.524690 1_555
C3 Lu3 2.252836 1_555
C3 Lu10 2.524690 1_455
C3 Lu11 2.524690 1_545
C3 Lu6 2.524690 1_445
C3 Lu7 2.524690 1_555
C4 Lu19 2.383552 1_555
C4 Lu14 2.383552 1_555
C4 Lu15 2.383552 1_555
C4 Lu18 2.383552 1_555
C4 Lu2 2.415050 1_555
C4 Lu0 2.440563 1_555
C5 Lu16 2.383552 1_455
C5 Lu21 2.383552 1_445
C5 Lu20 2.383552 1_555
C5 Lu17 2.383552 1_545
C5 Lu3 2.415050 1_555
C5 Lu1 2.440563 1_556
C6 Lu22 2.383552 1_555
C6 Lu23 2.383552 1_555
C6 Lu26 2.383552 1_555
C6 Lu27 2.383552 1_555
C6 Lu4 2.415050 1_555
C6 Lu0 2.440563 1_555
C7 Lu24 2.383552 1_545
C7 Lu28 2.383552 1_445
C7 Lu25 2.383552 1_455
C7 Lu29 2.383552 1_555
C7 Lu5 2.415050 1_555
C7 Lu1 2.440563 1_555
C8 Lu27 2.251477 1_555
C8 Lu18 2.251477 1_555
C8 Lu6 2.394867 1_545
C8 Lu10 2.452442 1_555
C8 Lu0 2.511036 1_555
C8 Lu7 2.530990 1_555
C9 Lu19 2.251477 1_555
C9 Lu26 2.251477 1_555
C9 Lu7 2.394867 1_565
C9 Lu11 2.452442 1_555
C9 Lu0 2.511036 1_555
C9 Lu6 2.530990 1_555
C10 Lu21 2.251477 1_554
C10 Lu28 2.251477 1_555
C10 Lu8 2.394867 1_555
C10 Lu13 2.452442 1_555
C10 Lu1 2.511036 1_665
C10 Lu9 2.530990 1_655
C11 Lu20 2.251477 1_554
C11 Lu29 2.251477 1_555
C11 Lu9 2.394867 1_555
C11 Lu12 2.452442 1_555
C11 Lu1 2.511036 1_555
C11 Lu8 2.530990 1_455
C12 Lu15 2.251477 1_555
C12 Lu22 2.251477 1_555
C12 Lu10 2.394867 1_455
C12 Lu7 2.452442 1_555
C12 Lu0 2.511036 1_555
C12 Lu11 2.530990 1_555
C13 Lu23 2.251477 1_555
C13 Lu14 2.251477 1_555
C13 Lu11 2.394867 1_655
C13 Lu6 2.452442 1_555
C13 Lu0 2.511036 1_555
C13 Lu10 2.530990 1_555
C14 Lu16 2.251477 1_554
C14 Lu25 2.251477 1_555
C14 Lu12 2.394867 1_555
C14 Lu8 2.452442 1_555
C14 Lu1 2.511036 1_655
C14 Lu13 2.530990 1_545
C15 Lu17 2.251477 1_554
C15 Lu24 2.251477 1_555
C15 Lu13 2.394867 1_555
C15 Lu9 2.452442 1_555
C15 Lu1 2.511036 1_565
C15 Lu12 2.530990 1_565
C16 C32 1.337645 1_555
C16 Lu19 2.490534 1_555
C16 Lu14 2.501468 1_555
C16 Lu5 2.522062 1_665
C16 Lu18 2.554164 1_565
C16 Lu6 2.652102 1_555
C17 C33 1.337645 1_555
C17 Lu18 2.490534 1_555
C17 Lu15 2.501468 1_555
C17 Lu5 2.522062 1_555
C17 Lu19 2.554164 1_545
C17 Lu7 2.652102 1_555
C18 C34 1.337645 1_555
C18 Lu20 2.490534 1_655
C18 Lu16 2.501468 1_555
C18 Lu4 2.522062 1_555
C18 Lu21 2.554164 1_555
C18 Lu8 2.652102 1_556
C19 C35 1.337645 1_555
C19 Lu21 2.490534 1_455
C19 Lu17 2.501468 1_555
C19 Lu4 2.522062 1_555
C19 Lu20 2.554164 1_555
C19 Lu9 2.652102 1_556
C20 C36 1.337645 1_555
C20 Lu14 2.490534 1_555
C20 Lu18 2.501468 1_555
C20 Lu5 2.522062 1_655
C20 Lu15 2.554164 1_655
C20 Lu10 2.652102 1_555
C21 C37 1.337645 1_555
C21 Lu15 2.490534 1_555
C21 Lu19 2.501468 1_555
C21 Lu5 2.522062 1_565
C21 Lu14 2.554164 1_455
C21 Lu11 2.652102 1_555
C22 C38 1.337645 1_555
C22 Lu17 2.490534 1_545
C22 Lu20 2.501468 1_555
C22 Lu4 2.522062 1_555
C22 Lu16 2.554164 1_555
C22 Lu12 2.652102 1_556
C23 C39 1.337645 1_555
C23 Lu16 2.490534 1_565
C23 Lu21 2.501468 1_555
C23 Lu4 2.522062 1_555
C23 Lu17 2.554164 1_555
C23 Lu13 2.652102 1_556
C24 C38 1.337645 1_555
C24 Lu27 2.490534 1_555
C24 Lu22 2.501468 1_555
C24 Lu3 2.522062 1_555
C24 Lu26 2.554164 1_545
C24 Lu7 2.652102 1_555
C25 C39 1.337645 1_555
C25 Lu26 2.490534 1_555
C25 Lu23 2.501468 1_555
C25 Lu3 2.522062 1_665
C25 Lu27 2.554164 1_565
C25 Lu6 2.652102 1_555
C26 C37 1.337645 1_555
C26 Lu28 2.490534 1_455
C26 Lu24 2.501468 1_555
C26 Lu2 2.522062 1_555
C26 Lu29 2.554164 1_555
C26 Lu9 2.652102 1_555
C27 C36 1.337645 1_555
C27 Lu29 2.490534 1_655
C27 Lu25 2.501468 1_555
C27 Lu2 2.522062 1_555
C27 Lu28 2.554164 1_555
C27 Lu8 2.652102 1_555
C28 C35 1.337645 1_555
C28 Lu22 2.490534 1_555
C28 Lu26 2.501468 1_555
C28 Lu3 2.522062 1_565
C28 Lu23 2.554164 1_455
C28 Lu11 2.652102 1_555
C29 C34 1.337645 1_555
C29 Lu23 2.490534 1_555
C29 Lu27 2.501468 1_555
C29 Lu3 2.522062 1_655
C29 Lu22 2.554164 1_655
C29 Lu10 2.652102 1_555
C30 C32 1.337645 1_555
C30 Lu25 2.490534 1_565
C30 Lu28 2.501468 1_555
C30 Lu2 2.522062 1_555
C30 Lu24 2.554164 1_555
C30 Lu13 2.652102 1_555
C31 C33 1.337645 1_555
C31 Lu24 2.490534 1_545
C31 Lu29 2.501468 1_555
C31 Lu2 2.522062 1_555
C31 Lu25 2.554164 1_555
C31 Lu12 2.652102 1_555
C32 Lu25 2.587985 1_565
C32 Lu19 2.587985 1_555
C32 Lu28 2.761690 1_555
C32 Lu14 2.761690 1_555
C33 Lu18 2.587985 1_555
C33 Lu24 2.587985 1_545
C33 Lu29 2.761690 1_555
C33 Lu15 2.761690 1_555
C34 Lu20 2.587985 1_655
C34 Lu23 2.587985 1_555
C34 Lu27 2.761690 1_555
C34 Lu16 2.761690 1_555
C35 Lu21 2.587985 1_455
C35 Lu22 2.587985 1_555
C35 Lu26 2.761690 1_555
C35 Lu17 2.761690 1_555
C36 Lu29 2.587985 1_655
C36 Lu14 2.587985 1_555
C36 Lu25 2.761690 1_555
C36 Lu18 2.761690 1_555
C37 Lu28 2.587985 1_455
C37 Lu15 2.587985 1_555
C37 Lu19 2.761690 1_555
C37 Lu24 2.761690 1_555
C38 Lu17 2.587985 1_545
C38 Lu27 2.587985 1_555
C38 Lu22 2.761690 1_555
C38 Lu20 2.761690 1_555
C39 Lu16 2.587985 1_565
C39 Lu26 2.587985 1_555
C39 Lu23 2.761690 1_555
C39 Lu21 2.761690 1_555
