# generated using pymatgen
data_K4Ca(WO4)3
_symmetry_space_group_name_H-M   'P 1'
_cell_length_a   7.10699764
_cell_length_b   7.10699764
_cell_length_c   7.10699764
_cell_angle_alpha   109.47122063
_cell_angle_beta   109.47122063
_cell_angle_gamma   109.47122063
_symmetry_Int_Tables_number   1
_chemical_formula_structural   K4Ca(WO4)3
_chemical_formula_sum   'K4 Ca1 W3 O12'
_cell_volume   276.33546292
_cell_formula_units_Z   1
loop_
 _symmetry_equiv_pos_site_id
 _symmetry_equiv_pos_as_xyz
  1  'x, y, z'
loop_
 _atom_site_type_symbol
 _atom_site_label
 _atom_site_symmetry_multiplicity
 _atom_site_fract_x
 _atom_site_fract_y
 _atom_site_fract_z
 _atom_site_occupancy
  K  K0  1  0.00000000  0.50000000  0.00000000  1
  K  K1  1  0.50000000  0.00000000  0.00000000  1
  K  K2  1  0.00000000  0.00000000  0.50000000  1
  K  K3  1  0.50000000  0.50000000  0.50000000  1
  Ca  Ca0  1  0.00000000  0.00000000  0.00000000  1
  W  W0  1  0.50000000  0.00000000  0.50000000  1
  W  W1  1  0.00000000  0.50000000  0.50000000  1
  W  W2  1  0.50000000  0.50000000  0.00000000  1
  O  O0  1  0.25000000  0.75000000  0.50000000  1
  O  O1  1  0.75000000  0.50000000  0.25000000  1
  O  O2  1  0.25000000  0.50000000  0.75000000  1
  O  O3  1  0.50000000  0.75000000  0.25000000  1
  O  O4  1  0.50000000  0.25000000  0.75000000  1
  O  O5  1  0.75000000  0.25000000  0.50000000  1
  O  O6  1  0.72587800  0.72587800  0.00000000  1
  O  O7  1  0.27412200  0.00000000  0.27412200  1
  O  O8  1  0.27412200  0.27412200  0.00000000  1
  O  O9  1  0.00000000  0.27412200  0.27412200  1
  O  O10  1  0.00000000  0.72587800  0.72587800  1
  O  O11  1  0.72587800  0.00000000  0.72587800  1
loop_
_geom_bond_atom_site_label_1
_geom_bond_atom_site_label_2
_geom_bond_distance
_geom_bond_site_symmetry_2
K0 O4 2.901420 1_454
K0 O3 2.901420 1_555
K0 O0 2.901420 1_555
K0 O1 2.901420 1_455
K0 O5 2.901420 1_454
K0 O2 2.901420 1_554
K0 O8 2.908165 1_555
K0 O7 2.908165 1_565
K0 O9 2.908165 1_555
K0 O11 2.908165 1_454
K0 O6 2.908165 1_455
K0 O10 2.908165 1_554
K1 O3 2.901420 1_545
K1 O0 2.901420 1_544
K1 O5 2.901420 1_555
K1 O2 2.901420 1_544
K1 O4 2.901420 1_554
K1 O1 2.901420 1_555
K1 O8 2.908165 1_555
K1 O9 2.908165 1_655
K1 O7 2.908165 1_555
K1 O6 2.908165 1_545
K1 O10 2.908165 1_544
K1 O11 2.908165 1_554
K2 O0 2.901420 1_545
K2 O5 2.901420 1_455
K2 O1 2.901420 1_445
K2 O2 2.901420 1_555
K2 O3 2.901420 1_445
K2 O4 2.901420 1_555
K2 O8 2.908165 1_556
K2 O9 2.908165 1_555
K2 O7 2.908165 1_555
K2 O11 2.908165 1_455
K2 O10 2.908165 1_545
K2 O6 2.908165 1_445
K3 O5 2.901420 1_555
K3 O2 2.901420 1_555
K3 O3 2.901420 1_555
K3 O0 2.901420 1_555
K3 O4 2.901420 1_555
K3 O1 2.901420 1_555
K3 O8 2.908165 1_555
K3 O7 2.908165 1_555
K3 O9 2.908165 1_555
K3 O11 2.908165 1_565
K3 O6 2.908165 1_556
K3 O10 2.908165 1_655
Ca0 O8 2.249570 1_555
Ca0 O9 2.249570 1_555
Ca0 O7 2.249570 1_555
Ca0 O11 2.249570 1_454
Ca0 O10 2.249570 1_544
Ca0 O6 2.249570 1_445
O0 W1 2.051614 1_555
O0 W0 2.051614 1_565
O1 W1 2.051614 1_655
O1 W2 2.051614 1_555
O2 W2 2.051614 1_556
O2 W1 2.051614 1_555
O3 W2 2.051614 1_555
O3 W0 2.051614 1_565
O4 W2 2.051614 1_556
O4 W0 2.051614 1_555
O5 W1 2.051614 1_655
O5 W0 2.051614 1_555
O6 W2 1.853657 1_555
O7 W0 1.853657 1_555
O8 W2 1.853657 1_555
O9 W1 1.853657 1_555
O10 W1 1.853657 1_555
O11 W0 1.853657 1_555
