# generated using pymatgen
data_Cr2CuSe3Br
_symmetry_space_group_name_H-M   'P 1'
_cell_length_a   7.45435224
_cell_length_b   7.45435224
_cell_length_c   7.45435225
_cell_angle_alpha   59.96467454
_cell_angle_beta   59.96467454
_cell_angle_gamma   59.96467737
_symmetry_Int_Tables_number   1
_chemical_formula_structural   Cr2CuSe3Br
_chemical_formula_sum   'Cr4 Cu2 Se6 Br2'
_cell_volume   292.66224104
_cell_formula_units_Z   2
loop_
 _symmetry_equiv_pos_site_id
 _symmetry_equiv_pos_as_xyz
  1  'x, y, z'
loop_
 _atom_site_type_symbol
 _atom_site_label
 _atom_site_symmetry_multiplicity
 _atom_site_fract_x
 _atom_site_fract_y
 _atom_site_fract_z
 _atom_site_occupancy
  Cr  Cr0  1  0.50000000  0.50000000  0.50000000  1
  Cr  Cr1  1  0.50000000  0.00000000  0.50000000  1
  Cr  Cr2  1  0.00000000  0.50000000  0.50000000  1
  Cr  Cr3  1  0.50000000  0.50000000  0.00000000  1
  Cu  Cu0  1  0.11164800  0.11164800  0.11164800  1
  Cu  Cu1  1  0.88835200  0.88835200  0.88835200  1
  Se  Se0  1  0.74041500  0.27911100  0.74041500  1
  Se  Se1  1  0.27911100  0.74041500  0.74041500  1
  Se  Se2  1  0.74041500  0.74041500  0.27911100  1
  Se  Se3  1  0.25958500  0.72088900  0.25958500  1
  Se  Se4  1  0.72088900  0.25958500  0.25958500  1
  Se  Se5  1  0.25958500  0.25958500  0.72088900  1
  Br  Br0  1  0.74468800  0.74468800  0.74468800  1
  Br  Br1  1  0.25531200  0.25531200  0.25531200  1
loop_
_geom_bond_atom_site_label_1
_geom_bond_atom_site_label_2
_geom_bond_distance
_geom_bond_site_symmetry_2
Cr0 Se2 2.538076 1_555
Cr0 Se5 2.538076 1_555
Cr0 Se1 2.538076 1_555
Cr0 Se0 2.538076 1_555
Cr0 Se4 2.538076 1_555
Cr0 Se3 2.538076 1_555
Cr1 Se4 2.536013 1_555
Cr1 Se1 2.536013 1_545
Cr1 Se5 2.536013 1_555
Cr1 Se2 2.536013 1_545
Cr2 Se3 2.536013 1_555
Cr2 Se0 2.536013 1_455
Cr2 Se5 2.536013 1_555
Cr2 Se2 2.536013 1_455
Cr3 Se4 2.536013 1_555
Cr3 Se3 2.536013 1_555
Cr3 Se0 2.536013 1_554
Cr3 Se1 2.536013 1_554
Cu0 Se5 2.388107 1_554
Cu0 Se3 2.388107 1_545
Cu0 Se4 2.388107 1_455
Cu1 Se2 2.388107 1_556
Cu1 Se0 2.388107 1_565
Cu1 Se1 2.388107 1_655
Br0 Cr3 2.579979 1_556
Br0 Cr2 2.579980 1_655
Br0 Cr1 2.579980 1_565
Br0 Cu1 2.623913 1_555
Br1 Cr3 2.579979 1_555
Br1 Cr1 2.579980 1_555
Br1 Cr2 2.579980 1_555
Br1 Cu0 2.623913 1_555
