# generated using pymatgen
data_Er(Mg4Al3)4
_symmetry_space_group_name_H-M   'P 1'
_cell_length_a   9.12717856
_cell_length_b   9.12717856
_cell_length_c   9.12717856
_cell_angle_alpha   109.47122063
_cell_angle_beta   109.47122063
_cell_angle_gamma   109.47122063
_symmetry_Int_Tables_number   1
_chemical_formula_structural   Er(Mg4Al3)4
_chemical_formula_sum   'Er1 Mg16 Al12'
_cell_volume   585.31243452
_cell_formula_units_Z   1
loop_
 _symmetry_equiv_pos_site_id
 _symmetry_equiv_pos_as_xyz
  1  'x, y, z'
loop_
 _atom_site_type_symbol
 _atom_site_label
 _atom_site_symmetry_multiplicity
 _atom_site_fract_x
 _atom_site_fract_y
 _atom_site_fract_z
 _atom_site_occupancy
  Er  Er0  1  0.00000000  0.00000000  0.00000000  1
  Mg  Mg0  1  0.60323900  0.31900700  0.00000000  1
  Mg  Mg1  1  0.00000000  0.35706300  0.00000000  1
  Mg  Mg2  1  0.35706300  0.00000000  0.00000000  1
  Mg  Mg3  1  0.31900700  0.60323900  0.00000000  1
  Mg  Mg4  1  0.39676100  0.39676100  0.71576700  1
  Mg  Mg5  1  0.28423300  0.68099300  0.68099300  1
  Mg  Mg6  1  0.68099300  0.28423300  0.68099300  1
  Mg  Mg7  1  0.64293700  0.64293700  0.64293700  1
  Mg  Mg8  1  0.31900700  0.00000000  0.60323900  1
  Mg  Mg9  1  0.00000000  0.31900700  0.60323900  1
  Mg  Mg10  1  0.71576700  0.39676100  0.39676100  1
  Mg  Mg11  1  0.39676100  0.71576700  0.39676100  1
  Mg  Mg12  1  0.00000000  0.00000000  0.35706300  1
  Mg  Mg13  1  0.60323900  0.00000000  0.31900700  1
  Mg  Mg14  1  0.00000000  0.60323900  0.31900700  1
  Mg  Mg15  1  0.68099300  0.68099300  0.28423300  1
  Al  Al0  1  0.81389800  0.63233400  0.00000000  1
  Al  Al1  1  0.63233400  0.81389800  0.00000000  1
  Al  Al2  1  0.18610200  0.18610200  0.81843600  1
  Al  Al3  1  0.63233400  0.00000000  0.81389800  1
  Al  Al4  1  0.00000000  0.63233400  0.81389800  1
  Al  Al5  1  0.00000000  0.81389800  0.63233400  1
  Al  Al6  1  0.81389800  0.00000000  0.63233400  1
  Al  Al7  1  0.18156400  0.36766600  0.36766600  1
  Al  Al8  1  0.36766600  0.18156400  0.36766600  1
  Al  Al9  1  0.18610200  0.81843600  0.18610200  1
  Al  Al10  1  0.81843600  0.18610200  0.18610200  1
  Al  Al11  1  0.36766600  0.36766600  0.18156400  1
loop_
_geom_bond_atom_site_label_1
_geom_bond_atom_site_label_2
_geom_bond_distance
_geom_bond_site_symmetry_2
Er0 Mg7 3.258978 1_444
Er0 Mg1 3.258978 1_555
Er0 Mg12 3.258978 1_555
Er0 Mg2 3.258978 1_555
Mg0 Mg2 3.027329 1_555
Mg0 Mg15 3.105633 1_555
Mg0 Mg4 3.105636 1_554
Mg0 Mg14 3.161266 1_655
Mg0 Mg8 3.161266 1_554
Mg0 Mg10 3.161267 1_555
Mg0 Mg6 3.161267 1_554
Mg1 Mg3 3.027329 1_555
Mg1 Mg14 3.027329 1_555
Mg1 Mg6 3.027332 1_454
Mg2 Mg5 3.027332 1_544
Mg3 Mg4 3.105636 1_554
Mg3 Mg9 3.161266 1_554
Mg3 Mg5 3.161267 1_554
Mg4 Mg7 3.027322 1_555
Mg4 Mg6 3.161258 1_555
Mg4 Mg5 3.161258 1_555
Mg4 Mg9 3.161267 1_555
Mg4 Mg8 3.161267 1_555
Mg5 Mg9 3.105633 1_555
Mg5 Mg8 3.161267 1_565
Mg6 Mg8 3.105633 1_555
Mg6 Mg9 3.161267 1_655
Mg10 Mg7 3.027322 1_555
Mg10 Mg14 3.105636 1_655
Mg10 Mg9 3.105636 1_655
Mg10 Mg6 3.161258 1_555
Mg10 Mg15 3.161258 1_555
Mg10 Mg13 3.161267 1_555
Mg11 Mg7 3.027322 1_555
Mg11 Mg8 3.105636 1_565
Mg11 Mg13 3.105636 1_565
Mg11 Mg15 3.161258 1_555
Mg11 Mg5 3.161258 1_555
Mg11 Mg3 3.161267 1_555
Mg11 Mg14 3.161267 1_555
Mg12 Mg8 3.027329 1_555
Mg12 Mg9 3.027329 1_555
Mg12 Mg15 3.027332 1_445
Mg13 Mg2 3.027329 1_555
Mg13 Mg6 3.105633 1_555
Mg13 Mg9 3.161266 1_655
Mg13 Mg3 3.161266 1_545
Mg13 Mg15 3.161267 1_545
Mg14 Mg5 3.105633 1_555
Mg14 Mg8 3.161266 1_565
Mg14 Mg15 3.161267 1_455
Mg15 Mg3 3.105633 1_555
Al0 Al1 2.706142 1_555
Al0 Al9 2.773780 1_655
Al0 Al4 2.773780 1_654
Al0 Mg0 2.865230 1_555
Al0 Mg6 2.992050 1_554
Al0 Mg14 2.992056 1_655
Al0 Mg7 3.160042 1_554
Al0 Mg12 3.160042 1_665
Al0 Mg4 3.176132 1_554
Al0 Mg15 3.176138 1_555
Al0 Er0 3.216559 1_665
Al1 Al3 2.773780 1_564
Al1 Al10 2.773780 1_565
Al1 Mg3 2.865230 1_555
Al1 Mg5 2.992050 1_554
Al1 Mg13 2.992056 1_565
Al1 Mg7 3.160042 1_554
Al1 Mg12 3.160042 1_665
Al1 Mg4 3.176132 1_554
Al1 Mg15 3.176138 1_555
Al1 Er0 3.216559 1_665
Al2 Al5 2.773780 1_545
Al2 Al6 2.773780 1_455
Al2 Mg4 2.865237 1_555
Al2 Mg9 2.992056 1_555
Al2 Mg8 2.992056 1_555
Al2 Mg1 3.160042 1_556
Al2 Mg2 3.160042 1_556
Al2 Mg3 3.176130 1_556
Al2 Mg0 3.176130 1_556
Al2 Er0 3.216559 1_556
Al3 Al6 2.706142 1_555
Al3 Mg8 2.865230 1_555
Al3 Mg5 2.992050 1_545
Al3 Mg0 2.992056 1_556
Al3 Mg7 3.160042 1_545
Al3 Mg1 3.160042 1_656
Al3 Mg11 3.176132 1_545
Al3 Mg6 3.176138 1_555
Al3 Er0 3.216559 1_656
Al4 Al5 2.706142 1_555
Al4 Al9 2.773780 1_556
Al4 Mg9 2.865230 1_555
Al4 Mg6 2.992050 1_455
Al4 Mg3 2.992056 1_556
Al4 Mg2 3.160042 1_566
Al4 Mg7 3.160042 1_455
Al4 Mg10 3.176132 1_455
Al4 Mg5 3.176138 1_555
Al4 Er0 3.216559 1_566
Al5 Al6 2.773780 1_465
Al5 Mg14 2.865230 1_555
Al5 Mg15 2.992050 1_455
Al5 Mg8 2.992056 1_565
Al5 Mg2 3.160042 1_566
Al5 Mg7 3.160042 1_455
Al5 Mg10 3.176132 1_455
Al5 Mg5 3.176138 1_555
Al5 Er0 3.216559 1_566
Al6 Mg13 2.865230 1_555
Al6 Mg15 2.992050 1_545
Al6 Mg9 2.992056 1_655
Al6 Mg7 3.160042 1_545
Al6 Mg1 3.160042 1_656
Al6 Mg11 3.176132 1_545
Al6 Mg6 3.176138 1_555
Al6 Er0 3.216559 1_656
Al7 Al8 2.773780 1_555
Al7 Mg5 2.865227 1_555
Al7 Mg11 2.992048 1_555
Al7 Mg4 2.992048 1_555
Al7 Mg12 3.160042 1_555
Al7 Mg1 3.160042 1_555
Al7 Mg9 3.176130 1_555
Al7 Mg14 3.176130 1_555
Al7 Er0 3.216559 1_555
Al8 Al9 2.706142 1_545
Al8 Mg6 2.865227 1_555
Al8 Mg10 2.992048 1_555
Al8 Mg4 2.992048 1_555
Al8 Mg12 3.160042 1_555
Al8 Mg2 3.160042 1_555
Al8 Mg13 3.176130 1_555
Al8 Mg8 3.176130 1_555
Al8 Er0 3.216559 1_555
Al9 Mg11 2.865237 1_555
Al9 Mg3 2.992056 1_555
Al9 Mg14 2.992056 1_555
Al9 Mg2 3.160042 1_565
Al9 Mg12 3.160042 1_565
Al9 Mg8 3.176130 1_565
Al9 Mg13 3.176130 1_565
Al9 Er0 3.216559 1_565
Al10 Al7 2.706142 1_655
Al10 Al3 2.773780 1_554
Al10 Mg10 2.865237 1_555
Al10 Mg0 2.992056 1_555
Al10 Mg13 2.992056 1_555
Al10 Mg1 3.160042 1_655
Al10 Mg12 3.160042 1_655
Al10 Mg14 3.176130 1_655
Al10 Mg9 3.176130 1_655
Al10 Er0 3.216559 1_655
Al11 Al2 2.706142 1_554
Al11 Al7 2.773780 1_555
Al11 Al8 2.773780 1_555
Al11 Mg15 2.865227 1_555
Al11 Mg10 2.992048 1_555
Al11 Mg11 2.992048 1_555
Al11 Mg2 3.160042 1_555
Al11 Mg1 3.160042 1_555
Al11 Mg3 3.176130 1_555
Al11 Mg0 3.176130 1_555
Al11 Er0 3.216559 1_555
