# generated using pymatgen
data_Ba(AsO3)2
_symmetry_space_group_name_H-M   'P 1'
_cell_length_a   5.00026020
_cell_length_b   5.78759222
_cell_length_c   9.65996603
_cell_angle_alpha   106.38343983
_cell_angle_beta   103.78488806
_cell_angle_gamma   93.94451268
_symmetry_Int_Tables_number   1
_chemical_formula_structural   Ba(AsO3)2
_chemical_formula_sum   'Ba2 As4 O12'
_cell_volume   257.68852078
_cell_formula_units_Z   2
loop_
 _symmetry_equiv_pos_site_id
 _symmetry_equiv_pos_as_xyz
  1  'x, y, z'
loop_
 _atom_site_type_symbol
 _atom_site_label
 _atom_site_symmetry_multiplicity
 _atom_site_fract_x
 _atom_site_fract_y
 _atom_site_fract_z
 _atom_site_occupancy
  Ba  Ba0  1  0.39314249  0.14305100  0.28612988  1
  Ba  Ba1  1  0.60685898  0.85694991  0.71386967  1
  As  As0  1  0.78463215  0.53467336  0.06911574  1
  As  As1  1  0.21536025  0.46532220  0.93088605  1
  As  As2  1  0.93851832  0.68835467  0.37683005  1
  As  As3  1  0.06148296  0.31164845  0.62316823  1
  O  O0  1  0.10098227  0.70797025  0.06068647  1
  O  O1  1  0.45974952  0.35277455  0.06070063  1
  O  O2  1  0.89901525  0.29202629  0.93931275  1
  O  O3  1  0.54024870  0.64722218  0.93929950  1
  O  O4  1  0.76066903  0.79826739  0.23126564  1
  O  O5  1  0.97076167  0.43292115  0.23119581  1
  O  O6  1  0.23933100  0.20173180  0.76873309  1
  O  O7  1  0.02923946  0.56708177  0.76880502  1
  O  O8  1  0.23141352  0.87923563  0.46556721  1
  O  O9  1  0.73436168  0.58624506  0.46551959  1
  O  O10  1  0.76859147  0.12076842  0.53443300  1
  O  O11  1  0.26564128  0.41375695  0.53448168  1
loop_
_geom_bond_atom_site_label_1
_geom_bond_atom_site_label_2
_geom_bond_distance
_geom_bond_site_symmetry_2
Ba0 O10 2.712234 1_555
Ba0 O11 2.713406 1_555
Ba0 O9 2.823958 1_555
Ba0 O8 2.825056 1_545
Ba0 O4 2.830564 1_545
Ba0 O5 2.830603 1_455
Ba0 O0 2.846355 1_545
Ba0 O1 2.847359 1_555
Ba1 O8 2.712227 1_555
Ba1 O9 2.713395 1_555
Ba1 O11 2.823947 1_555
Ba1 O10 2.825070 1_565
Ba1 O6 2.830561 1_565
Ba1 O7 2.830596 1_655
Ba1 O2 2.846333 1_565
Ba1 O3 2.847383 1_555
As0 O3 1.824874 1_554
As0 O2 1.824951 1_554
As0 O0 1.844981 1_655
As0 O1 1.845914 1_555
As0 O4 1.887267 1_555
As0 O5 1.888254 1_555
As1 O1 1.824875 1_556
As1 O0 1.824927 1_556
As1 O2 1.844947 1_455
As1 O3 1.845946 1_555
As1 O6 1.887285 1_555
As1 O7 1.888272 1_555
As2 O9 1.656732 1_555
As2 O8 1.656824 1_655
As2 O5 1.777152 1_555
As2 O4 1.777434 1_555
As3 O11 1.656713 1_555
As3 O10 1.656806 1_455
As3 O7 1.777166 1_555
As3 O6 1.777449 1_555
