# generated using pymatgen
data_Gd2Zr2O7
_symmetry_space_group_name_H-M   'P 1'
_cell_length_a   7.52140263
_cell_length_b   7.52140263
_cell_length_c   7.52140263
_cell_angle_alpha   122.15284023
_cell_angle_beta   118.80053884
_cell_angle_gamma   89.20118415
_symmetry_Int_Tables_number   1
_chemical_formula_structural   Gd2Zr2O7
_chemical_formula_sum   'Gd4 Zr4 O14'
_cell_volume   298.34736328
_cell_formula_units_Z   2
loop_
 _symmetry_equiv_pos_site_id
 _symmetry_equiv_pos_as_xyz
  1  'x, y, z'
loop_
 _atom_site_type_symbol
 _atom_site_label
 _atom_site_symmetry_multiplicity
 _atom_site_fract_x
 _atom_site_fract_y
 _atom_site_fract_z
 _atom_site_occupancy
  Gd  Gd0  1  0.00000000  0.00000000  0.50000000  1
  Gd  Gd1  1  0.00000000  0.50000000  0.00000000  1
  Gd  Gd2  1  0.50000000  0.50000000  0.50000000  1
  Gd  Gd3  1  0.50000000  0.00000000  0.00000000  1
  Zr  Zr0  1  0.00000000  0.00000000  0.00000000  1
  Zr  Zr1  1  0.50000000  0.00000000  0.50000000  1
  Zr  Zr2  1  0.50000000  0.50000000  0.00000000  1
  Zr  Zr3  1  0.00000000  0.50000000  0.50000000  1
  O  O0  1  0.36337400  0.11083100  0.71559700  1
  O  O1  1  0.89523500  0.11083100  0.24745700  1
  O  O2  1  0.87112900  0.62112900  0.25000000  1
  O  O3  1  0.89523500  0.64777700  0.78440300  1
  O  O4  1  0.36337400  0.64777700  0.25254300  1
  O  O5  1  0.33091700  0.08091700  0.25000000  1
  O  O6  1  0.63662600  0.88916900  0.28440300  1
  O  O7  1  0.10476500  0.88916900  0.75254300  1
  O  O8  1  0.12887100  0.37887100  0.75000000  1
  O  O9  1  0.10476500  0.35222300  0.21559700  1
  O  O10  1  0.63662600  0.35222300  0.74745700  1
  O  O11  1  0.66908300  0.91908300  0.75000000  1
  O  O12  1  0.63313300  0.38313300  0.25000000  1
  O  O13  1  0.36686700  0.61686700  0.75000000  1
loop_
_geom_bond_atom_site_label_1
_geom_bond_atom_site_label_2
_geom_bond_distance
_geom_bond_site_symmetry_2
Gd0 O6 2.269069 1_445
Gd0 O0 2.269069 1_555
Gd0 O1 2.269069 1_455
Gd0 O7 2.269069 1_545
Gd0 O2 2.283289 1_445
Gd0 O8 2.283289 1_555
Gd1 O10 2.269069 1_454
Gd1 O4 2.269069 1_555
Gd1 O9 2.269069 1_555
Gd1 O3 2.269069 1_454
Gd1 O2 2.283289 1_455
Gd1 O8 2.283289 1_554
Gd2 O12 2.311171 1_555
Gd2 O13 2.311171 1_555
Gd2 O10 2.466319 1_555
Gd2 O4 2.466319 1_555
Gd2 O9 2.466325 1_555
Gd2 O3 2.466325 1_555
Gd2 O11 2.566693 1_555
Gd2 O5 2.566693 1_555
Gd3 O13 2.311171 1_544
Gd3 O12 2.311171 1_555
Gd3 O0 2.466319 1_554
Gd3 O6 2.466319 1_545
Gd3 O1 2.466325 1_555
Gd3 O7 2.466325 1_544
Gd3 O11 2.566693 1_544
Gd3 O5 2.566693 1_555
O0 Zr1 2.126829 1_555
O0 Zr2 2.345462 1_556
O1 Zr0 2.126823 1_655
O1 Zr3 2.345462 1_655
O2 Zr3 2.312551 1_655
O2 Zr2 2.312551 1_555
O3 Zr0 2.126829 1_666
O3 Zr3 2.345456 1_655
O4 Zr1 2.126829 1_565
O4 Zr2 2.345462 1_555
O5 Zr0 2.101387 1_555
O5 Zr1 2.101387 1_555
O6 Zr1 2.126829 1_565
O6 Zr2 2.345462 1_555
O7 Zr0 2.126823 1_566
O7 Zr3 2.345462 1_555
O8 Zr2 2.312551 1_556
O8 Zr3 2.312551 1_555
O9 Zr0 2.126829 1_555
O9 Zr3 2.345456 1_555
O10 Zr1 2.126829 1_555
O10 Zr2 2.345462 1_556
O11 Zr1 2.101387 1_565
O11 Zr0 2.101387 1_666
O12 Zr2 2.287253 1_555
O12 Zr3 2.287253 1_655
O13 Zr3 2.287253 1_555
O13 Zr2 2.287253 1_556
