# generated using pymatgen
data_VF4
_symmetry_space_group_name_H-M   'P 1'
_cell_length_a   6.08088100
_cell_length_b   4.96053100
_cell_length_c   10.89322382
_cell_angle_alpha   63.91724087
_cell_angle_beta   90.00000000
_cell_angle_gamma   90.00000000
_symmetry_Int_Tables_number   1
_chemical_formula_structural   VF4
_chemical_formula_sum   'V4 F16'
_cell_volume   295.12416345
_cell_formula_units_Z   4
loop_
 _symmetry_equiv_pos_site_id
 _symmetry_equiv_pos_as_xyz
  1  'x, y, z'
loop_
 _atom_site_type_symbol
 _atom_site_label
 _atom_site_symmetry_multiplicity
 _atom_site_fract_x
 _atom_site_fract_y
 _atom_site_fract_z
 _atom_site_occupancy
  V  V0  1  0.66292500  0.24788100  0.00212100  1
  V  V1  1  0.16292500  0.75211900  0.49787900  1
  V  V2  1  0.83707500  0.24788100  0.50212100  1
  V  V3  1  0.33707500  0.75211900  0.99787900  1
  F  F0  1  0.41424300  0.53079200  0.89584000  1
  F  F1  1  0.86627600  0.48588800  0.89212800  1
  F  F2  1  0.35448500  0.00050900  0.38080100  1
  F  F3  1  0.90747600  0.02794100  0.39829800  1
  F  F4  1  0.36627600  0.51411200  0.60787200  1
  F  F5  1  0.91424300  0.46920800  0.60416000  1
  F  F6  1  0.40747600  0.97205900  0.10170200  1
  F  F7  1  0.85448500  0.99949100  0.11919900  1
  F  F8  1  0.14551500  0.00050900  0.88080100  1
  F  F9  1  0.59252400  0.02794100  0.89829800  1
  F  F10  1  0.08575700  0.53079200  0.39584000  1
  F  F11  1  0.63372400  0.48588800  0.39212800  1
  F  F12  1  0.09252400  0.97205900  0.60170200  1
  F  F13  1  0.64551500  0.99949100  0.61919900  1
  F  F14  1  0.13372400  0.51411200  0.10787200  1
  F  F15  1  0.58575700  0.46920800  0.10416000  1
loop_
_geom_bond_atom_site_label_1
_geom_bond_atom_site_label_2
_geom_bond_distance
_geom_bond_site_symmetry_2
F0 V3 1.932405 1_555
F0 V0 2.041548 1_556
F1 V0 1.764846 1_556
F2 V1 1.766292 1_545
F3 V2 1.933313 1_555
F3 V1 2.038760 1_645
F4 V1 1.764846 1_555
F5 V2 1.932405 1_555
F5 V1 2.041548 1_655
F6 V3 1.933313 1_554
F6 V0 2.038760 1_565
F7 V0 1.766292 1_565
F8 V3 1.766292 1_545
F9 V0 1.933313 1_556
F9 V3 2.038760 1_545
F10 V1 1.932405 1_555
F10 V2 2.041548 1_455
F11 V2 1.764846 1_555
F12 V1 1.933313 1_555
F12 V2 2.038760 1_465
F13 V2 1.766292 1_565
F14 V3 1.764846 1_554
F15 V0 1.932405 1_555
F15 V3 2.041548 1_554
