# generated using pymatgen
data_TcC4NO4
_symmetry_space_group_name_H-M   'P 1'
_cell_length_a   5.08501100
_cell_length_b   11.41072800
_cell_length_c   14.37037700
_cell_angle_alpha   90.00000000
_cell_angle_beta   90.00000000
_cell_angle_gamma   90.00000000
_symmetry_Int_Tables_number   1
_chemical_formula_structural   TcC4NO4
_chemical_formula_sum   'Tc4 C16 N4 O16'
_cell_volume   833.82211914
_cell_formula_units_Z   4
loop_
 _symmetry_equiv_pos_site_id
 _symmetry_equiv_pos_as_xyz
  1  'x, y, z'
loop_
 _atom_site_type_symbol
 _atom_site_label
 _atom_site_symmetry_multiplicity
 _atom_site_fract_x
 _atom_site_fract_y
 _atom_site_fract_z
 _atom_site_occupancy
  Tc  Tc0  1  0.44144800  0.25412400  0.73283900  1
  Tc  Tc1  1  0.44144800  0.74587600  0.26716100  1
  Tc  Tc2  1  0.55855200  0.75412400  0.76716100  1
  Tc  Tc3  1  0.55855200  0.24587600  0.23283900  1
  C  C0  1  0.05403400  0.90909200  0.55963400  1
  C  C1  1  0.05403400  0.09090800  0.44036600  1
  C  C2  1  0.94596600  0.40909200  0.94036600  1
  C  C3  1  0.94596600  0.59090800  0.05963400  1
  C  C4  1  0.81393000  0.06052200  0.49060900  1
  C  C5  1  0.81393000  0.93947800  0.50939100  1
  C  C6  1  0.18607000  0.56052200  0.00939100  1
  C  C7  1  0.18607000  0.43947800  0.99060900  1
  C  C8  1  0.86628200  0.60690000  0.62232600  1
  C  C9  1  0.86628200  0.39310000  0.37767400  1
  C  C10  1  0.13371800  0.10690000  0.87767400  1
  C  C11  1  0.13371800  0.89310000  0.12232600  1
  C  C12  1  0.00127200  0.55553900  0.56375600  1
  C  C13  1  0.00127200  0.44446100  0.43624400  1
  C  C14  1  0.99872800  0.05553900  0.93624400  1
  C  C15  1  0.99872800  0.94446100  0.06375600  1
  N  N0  1  0.11825000  0.00000000  0.50000000  1
  N  N1  1  0.88175000  0.50000000  0.00000000  1
  N  N2  1  0.13249100  0.50000000  0.50000000  1
  N  N3  1  0.86750900  0.00000000  0.00000000  1
  O  O0  1  0.77415500  0.22820000  0.73181700  1
  O  O1  1  0.77415500  0.77180000  0.26818300  1
  O  O2  1  0.22584500  0.72820000  0.76818300  1
  O  O3  1  0.22584500  0.27180000  0.23181700  1
  O  O4  1  0.31895200  0.22820700  0.62373200  1
  O  O5  1  0.31895200  0.77179300  0.37626800  1
  O  O6  1  0.68104800  0.72820700  0.87626800  1
  O  O7  1  0.68104800  0.27179300  0.12373200  1
  O  O8  1  0.38584800  0.39769800  0.76274900  1
  O  O9  1  0.38584800  0.60230200  0.23725100  1
  O  O10  1  0.61415200  0.89769800  0.73725100  1
  O  O11  1  0.61415200  0.10230200  0.26274900  1
  O  O12  1  0.30660700  0.14987800  0.82527600  1
  O  O13  1  0.30660700  0.85012200  0.17472400  1
  O  O14  1  0.69339300  0.64987800  0.67472400  1
  O  O15  1  0.69339300  0.35012200  0.32527600  1
loop_
_geom_bond_atom_site_label_1
_geom_bond_atom_site_label_2
_geom_bond_distance
_geom_bond_site_symmetry_2
C0 N0 1.384579 1_565
C0 C5 1.460203 1_455
C1 N0 1.384579 1_555
C1 C4 1.460203 1_455
C2 N1 1.384579 1_556
C2 C7 1.460203 1_655
C3 N1 1.384579 1_555
C3 C6 1.460203 1_655
C4 C5 1.407325 1_545
C4 N0 1.699943 1_655
C5 N0 1.699943 1_665
C6 C7 1.407325 1_554
C6 N1 1.699943 1_455
C7 N1 1.699943 1_456
C8 O14 1.257128 1_555
C9 O15 1.257128 1_555
C10 C14 1.234126 1_455
C10 O12 1.257128 1_555
C11 C15 1.234126 1_455
C11 O13 1.257128 1_555
C12 C8 1.234126 1_455
C12 N2 1.298564 1_555
C13 C9 1.234126 1_455
C13 N2 1.298564 1_555
C14 N3 1.298564 1_556
C15 N3 1.298564 1_565
O0 Tc0 1.717548 1_555
O1 Tc1 1.717548 1_555
O2 Tc2 1.717548 1_555
O3 Tc3 1.717548 1_555
O4 Tc0 1.712831 1_555
O5 Tc1 1.712831 1_555
O6 Tc2 1.712831 1_555
O7 Tc3 1.712831 1_555
O8 Tc0 1.717164 1_555
O9 Tc1 1.717164 1_555
O10 Tc2 1.717164 1_555
O11 Tc3 1.717164 1_555
O12 Tc0 1.910401 1_555
O13 Tc1 1.910401 1_555
O14 Tc2 1.910401 1_555
O15 Tc3 1.910401 1_555
