# generated using pymatgen
data_CaYAlO4
_symmetry_space_group_name_H-M   'P 1'
_cell_length_a   6.48929138
_cell_length_b   6.48929138
_cell_length_c   6.48929138
_cell_angle_alpha   147.03400229
_cell_angle_beta   147.03400229
_cell_angle_gamma   47.31343890
_symmetry_Int_Tables_number   1
_chemical_formula_structural   CaYAlO4
_chemical_formula_sum   'Ca1 Y1 Al1 O4'
_cell_volume   80.60169848
_cell_formula_units_Z   1
loop_
 _symmetry_equiv_pos_site_id
 _symmetry_equiv_pos_as_xyz
  1  'x, y, z'
loop_
 _atom_site_type_symbol
 _atom_site_label
 _atom_site_symmetry_multiplicity
 _atom_site_fract_x
 _atom_site_fract_y
 _atom_site_fract_z
 _atom_site_occupancy
  Ca  Ca0  1  0.64375900  0.64375900  0.00000000  1
  Y  Y0  1  0.35860900  0.35860900  0.00000000  1
  Al  Al0  1  0.00533000  0.00533000  0.00000000  1
  O  O0  1  0.83269500  0.83269500  0.00000000  1
  O  O1  1  0.17018800  0.17018800  0.00000000  1
  O  O2  1  0.99470900  0.49470900  0.50000000  1
  O  O3  1  0.49470900  0.99470900  0.50000000  1
loop_
_geom_bond_atom_site_label_1
_geom_bond_atom_site_label_2
_geom_bond_distance
_geom_bond_site_symmetry_2
Ca0 O0 2.246060 1_555
Ca0 O2 2.555324 1_555
Ca0 O2 2.555324 1_454
Ca0 O3 2.555324 1_544
Ca0 O3 2.555324 1_555
Ca0 O1 2.622754 1_565
Ca0 O1 2.622754 1_554
Ca0 O1 2.622754 1_666
Ca0 O1 2.622754 1_655
Al0 O2 1.845536 1_444
Al0 O3 1.845536 1_444
Al0 O3 1.845536 1_545
Al0 O2 1.845536 1_455
Al0 O1 1.959822 1_555
Al0 O0 2.052275 1_445
O0 Y0 2.622027 1_655
O0 Y0 2.622027 1_565
O0 Y0 2.622027 1_554
O0 Y0 2.622027 1_666
O1 Y0 2.239938 1_555
O2 Y0 2.451085 1_555
O2 Y0 2.451085 1_656
O3 Y0 2.451085 1_555
O3 Y0 2.451085 1_566
