# generated using pymatgen
data_CsYMg14O16
_symmetry_space_group_name_H-M   'P 1'
_cell_length_a   8.87672600
_cell_length_b   8.87672600
_cell_length_c   4.55073000
_cell_angle_alpha   90.00000000
_cell_angle_beta   90.00000000
_cell_angle_gamma   90.00000000
_symmetry_Int_Tables_number   1
_chemical_formula_structural   CsYMg14O16
_chemical_formula_sum   'Cs1 Y1 Mg14 O16'
_cell_volume   358.58052465
_cell_formula_units_Z   1
loop_
 _symmetry_equiv_pos_site_id
 _symmetry_equiv_pos_as_xyz
  1  'x, y, z'
loop_
 _atom_site_type_symbol
 _atom_site_label
 _atom_site_symmetry_multiplicity
 _atom_site_fract_x
 _atom_site_fract_y
 _atom_site_fract_z
 _atom_site_occupancy
  Cs  Cs0  1  0.50000000  0.50000000  0.00000000  1
  Y  Y0  1  0.00000000  0.00000000  0.00000000  1
  Mg  Mg0  1  0.50000000  0.00000000  0.00000000  1
  Mg  Mg1  1  0.00000000  0.50000000  0.00000000  1
  Mg  Mg2  1  0.26317100  0.00000000  0.50000000  1
  Mg  Mg3  1  0.73682900  0.00000000  0.50000000  1
  Mg  Mg4  1  0.24238400  0.50000000  0.50000000  1
  Mg  Mg5  1  0.75761600  0.50000000  0.50000000  1
  Mg  Mg6  1  0.00000000  0.26317100  0.50000000  1
  Mg  Mg7  1  0.50000000  0.24238400  0.50000000  1
  Mg  Mg8  1  0.00000000  0.73682900  0.50000000  1
  Mg  Mg9  1  0.50000000  0.75761600  0.50000000  1
  Mg  Mg10  1  0.25410500  0.25410500  0.00000000  1
  Mg  Mg11  1  0.74589500  0.25410500  0.00000000  1
  Mg  Mg12  1  0.25410500  0.74589500  0.00000000  1
  Mg  Mg13  1  0.74589500  0.74589500  0.00000000  1
  O  O0  1  0.00000000  0.25214300  0.00000000  1
  O  O1  1  0.50000000  0.21367700  0.00000000  1
  O  O2  1  0.00000000  0.74785700  0.00000000  1
  O  O3  1  0.50000000  0.78632300  0.00000000  1
  O  O4  1  0.24882400  0.24882400  0.50000000  1
  O  O5  1  0.75117600  0.24882400  0.50000000  1
  O  O6  1  0.24882400  0.75117600  0.50000000  1
  O  O7  1  0.75117600  0.75117600  0.50000000  1
  O  O8  1  0.00000000  0.00000000  0.50000000  1
  O  O9  1  0.50000000  0.00000000  0.50000000  1
  O  O10  1  0.00000000  0.50000000  0.50000000  1
  O  O11  1  0.50000000  0.50000000  0.50000000  1
  O  O12  1  0.25214300  0.00000000  0.00000000  1
  O  O13  1  0.74785700  0.00000000  0.00000000  1
  O  O14  1  0.21367700  0.50000000  0.00000000  1
  O  O15  1  0.78632300  0.50000000  0.00000000  1
loop_
_geom_bond_atom_site_label_1
_geom_bond_atom_site_label_2
_geom_bond_distance
_geom_bond_site_symmetry_2
Cs0 O11 2.275365 1_554
Cs0 O11 2.275365 1_555
Cs0 O15 2.541611 1_555
Cs0 O3 2.541611 1_555
Cs0 O1 2.541611 1_555
Cs0 O14 2.541611 1_555
Mg0 O1 1.896752 1_555
Mg0 O3 1.896752 1_545
Mg0 O12 2.200159 1_555
Mg0 O13 2.200159 1_555
Mg0 O9 2.275365 1_555
Mg0 O9 2.275365 1_554
Mg1 O14 1.896752 1_555
Mg1 O15 1.896752 1_455
Mg1 O0 2.200159 1_555
Mg1 O2 2.200159 1_555
Mg1 O10 2.275365 1_555
Mg1 O10 2.275365 1_554
Mg2 O9 2.102266 1_555
Mg2 O4 2.212411 1_555
Mg2 O6 2.212411 1_545
Mg2 O12 2.277470 1_556
Mg2 O12 2.277470 1_555
Mg2 O8 2.336097 1_555
Mg3 O9 2.102266 1_555
Mg3 O5 2.212411 1_555
Mg3 O7 2.212411 1_545
Mg3 O13 2.277470 1_555
Mg3 O13 2.277470 1_556
Mg3 O8 2.336097 1_655
Mg4 O10 2.151576 1_555
Mg4 O6 2.230353 1_555
Mg4 O4 2.230353 1_555
Mg4 O11 2.286787 1_555
Mg4 O14 2.289590 1_556
Mg4 O14 2.289590 1_555
Mg5 O10 2.151576 1_655
Mg5 O7 2.230353 1_555
Mg5 O5 2.230353 1_555
Mg5 O11 2.286787 1_555
Mg5 O15 2.289590 1_556
Mg5 O15 2.289590 1_555
Mg6 O10 2.102266 1_555
Mg6 O4 2.212411 1_555
Mg6 O5 2.212411 1_455
Mg6 O0 2.277470 1_556
Mg6 O0 2.277470 1_555
Mg6 O8 2.336097 1_555
Mg7 O9 2.151576 1_555
Mg7 O5 2.230353 1_555
Mg7 O4 2.230353 1_555
Mg7 O11 2.286787 1_555
Mg7 O1 2.289590 1_556
Mg7 O1 2.289590 1_555
Mg8 O10 2.102266 1_555
Mg8 O6 2.212411 1_555
Mg8 O7 2.212411 1_455
Mg8 O2 2.277470 1_556
Mg8 O2 2.277470 1_555
Mg8 O8 2.336097 1_565
Mg9 O9 2.151576 1_565
Mg9 O7 2.230353 1_555
Mg9 O6 2.230353 1_555
Mg9 O11 2.286787 1_555
Mg9 O3 2.289590 1_556
Mg9 O3 2.289590 1_555
Mg10 O14 2.212047 1_555
Mg10 O1 2.212047 1_555
Mg10 O0 2.255688 1_555
Mg10 O12 2.255688 1_555
Mg10 O4 2.276331 1_554
Mg10 O4 2.276331 1_555
Mg11 O1 2.212047 1_555
Mg11 O15 2.212047 1_555
Mg11 O13 2.255688 1_555
Mg11 O0 2.255688 1_655
Mg11 O5 2.276331 1_554
Mg11 O5 2.276331 1_555
Mg12 O14 2.212047 1_555
Mg12 O3 2.212047 1_555
Mg12 O2 2.255688 1_555
Mg12 O12 2.255688 1_565
Mg12 O6 2.276331 1_554
Mg12 O6 2.276331 1_555
Mg13 O3 2.212047 1_555
Mg13 O15 2.212047 1_555
Mg13 O13 2.255688 1_565
Mg13 O2 2.255688 1_655
Mg13 O7 2.276331 1_554
Mg13 O7 2.276331 1_555
O0 Y0 2.238204 1_555
O2 Y0 2.238204 1_565
O8 Y0 2.275365 1_556
O8 Y0 2.275365 1_555
O12 Y0 2.238204 1_555
O13 Y0 2.238204 1_655
