# generated using pymatgen
data_Mo6OsRu
_symmetry_space_group_name_H-M   'P 1'
_cell_length_a   5.00238200
_cell_length_b   5.00238200
_cell_length_c   5.00238200
_cell_angle_alpha   90.00000000
_cell_angle_beta   90.00000000
_cell_angle_gamma   90.00000000
_symmetry_Int_Tables_number   1
_chemical_formula_structural   Mo6OsRu
_chemical_formula_sum   'Mo6 Os1 Ru1'
_cell_volume   125.17873512
_cell_formula_units_Z   1
loop_
 _symmetry_equiv_pos_site_id
 _symmetry_equiv_pos_as_xyz
  1  'x, y, z'
loop_
 _atom_site_type_symbol
 _atom_site_label
 _atom_site_symmetry_multiplicity
 _atom_site_fract_x
 _atom_site_fract_y
 _atom_site_fract_z
 _atom_site_occupancy
  Mo  Mo0  1  0.50000000  0.74989600  0.00000000  1
  Mo  Mo1  1  0.25010400  0.00000000  0.50000000  1
  Mo  Mo2  1  0.00000000  0.50000000  0.74989600  1
  Mo  Mo3  1  0.50000000  0.25010400  0.00000000  1
  Mo  Mo4  1  0.74989600  0.00000000  0.50000000  1
  Mo  Mo5  1  0.00000000  0.50000000  0.25010400  1
  Os  Os0  1  0.50000000  0.50000000  0.50000000  1
  Ru  Ru0  1  0.00000000  0.00000000  0.00000000  1
loop_
_geom_bond_atom_site_label_1
_geom_bond_atom_site_label_2
_geom_bond_distance
_geom_bond_site_symmetry_2
Mo0 Mo3 2.500151 1_555
Mo0 Mo3 2.502231 1_565
Mo0 Os0 2.796184 1_554
Mo0 Os0 2.796184 1_555
Mo0 Ru0 2.796649 1_665
Mo0 Ru0 2.796649 1_565
Mo1 Mo4 2.500151 1_555
Mo1 Mo4 2.502231 1_455
Mo1 Os0 2.796184 1_545
Mo1 Os0 2.796184 1_555
Mo1 Ru0 2.796649 1_556
Mo1 Ru0 2.796649 1_555
Mo2 Mo5 2.500151 1_555
Mo2 Mo5 2.502231 1_556
Mo2 Os0 2.796184 1_555
Mo2 Os0 2.796184 1_455
Mo2 Ru0 2.796649 1_566
Mo2 Ru0 2.796649 1_556
Mo3 Os0 2.796184 1_554
Mo3 Os0 2.796184 1_555
Mo3 Ru0 2.796649 1_655
Mo3 Ru0 2.796649 1_555
Mo4 Os0 2.796184 1_545
Mo4 Os0 2.796184 1_555
Mo4 Ru0 2.796649 1_655
Mo4 Ru0 2.796649 1_656
Mo5 Os0 2.796184 1_555
Mo5 Os0 2.796184 1_455
Mo5 Ru0 2.796649 1_565
Mo5 Ru0 2.796649 1_555
