# generated using pymatgen
data_ZrMn3
_symmetry_space_group_name_H-M   'P 1'
_cell_length_a   4.87040882
_cell_length_b   4.87040882
_cell_length_c   7.98935000
_cell_angle_alpha   90.00000000
_cell_angle_beta   90.00000000
_cell_angle_gamma   120.00001112
_symmetry_Int_Tables_number   1
_chemical_formula_structural   ZrMn3
_chemical_formula_sum   'Zr3 Mn9'
_cell_volume   164.12429158
_cell_formula_units_Z   3
loop_
 _symmetry_equiv_pos_site_id
 _symmetry_equiv_pos_as_xyz
  1  'x, y, z'
loop_
 _atom_site_type_symbol
 _atom_site_label
 _atom_site_symmetry_multiplicity
 _atom_site_fract_x
 _atom_site_fract_y
 _atom_site_fract_z
 _atom_site_occupancy
  Zr  Zr0  1  0.66666700  0.33333300  0.55345300  1
  Zr  Zr1  1  0.66666700  0.33333300  0.93528100  1
  Zr  Zr2  1  0.00000000  0.00000000  0.07378300  1
  Mn  Mn0  1  0.33333300  0.66666700  0.50104200  1
  Mn  Mn1  1  0.33333300  0.66666700  0.00329500  1
  Mn  Mn2  1  0.99226800  0.49613400  0.25800400  1
  Mn  Mn3  1  0.50386600  0.49613400  0.25800400  1
  Mn  Mn4  1  0.50386600  0.00773200  0.25800400  1
  Mn  Mn5  1  0.67705800  0.83852900  0.74296700  1
  Mn  Mn6  1  0.16147100  0.83852900  0.74296700  1
  Mn  Mn7  1  0.16147100  0.32294200  0.74296700  1
  Mn  Mn8  1  0.00000000  0.00000000  0.43028400  1
loop_
_geom_bond_atom_site_label_1
_geom_bond_atom_site_label_2
_geom_bond_distance
_geom_bond_site_symmetry_2
Zr0 Zr1 3.050558 1_555
Zr1 Zr2 3.021817 1_656
Zr1 Zr2 3.021821 1_666
Zr1 Zr2 3.021821 1_556
Mn0 Mn6 2.416134 1_555
Mn0 Mn5 2.416137 1_555
Mn0 Mn7 2.416137 1_555
Mn0 Mn4 2.416560 1_565
Mn0 Mn2 2.416560 1_455
Mn0 Mn3 2.416563 1_555
Mn0 Zr0 2.842935 1_455
Mn0 Zr0 2.842935 1_565
Mn0 Zr0 2.842944 1_555
Mn0 Mn8 2.868191 1_565
Mn0 Mn8 2.868195 1_665
Mn0 Mn8 2.868195 1_555
Mn1 Mn4 2.492100 1_565
Mn1 Mn2 2.492100 1_455
Mn1 Mn3 2.492103 1_555
Mn1 Mn6 2.535287 1_554
Mn1 Mn5 2.535290 1_554
Mn1 Mn7 2.535290 1_554
Mn1 Zr1 2.863951 1_454
Mn1 Zr1 2.863951 1_564
Mn1 Zr1 2.863959 1_554
Mn1 Zr2 2.867767 1_565
Mn1 Zr2 2.867771 1_665
Mn1 Zr2 2.867771 1_555
Mn2 Mn4 2.378717 1_555
Mn2 Mn3 2.378717 1_555
Mn2 Mn4 2.491691 1_665
Mn2 Mn3 2.491691 1_655
Mn2 Zr0 2.730897 1_555
Mn2 Mn8 2.797459 1_665
Mn2 Mn8 2.797459 1_655
Mn2 Zr2 2.845610 1_665
Mn2 Zr2 2.845610 1_655
Mn2 Zr1 2.921296 1_554
Mn3 Mn4 2.378717 1_555
Mn3 Mn4 2.491691 1_565
Mn3 Zr0 2.730899 1_555
Mn3 Mn8 2.797458 1_555
Mn3 Mn8 2.797458 1_665
Mn3 Zr2 2.845610 1_555
Mn3 Zr2 2.845610 1_665
Mn3 Zr1 2.921298 1_554
Mn4 Zr0 2.730897 1_555
Mn4 Mn8 2.797459 1_555
Mn4 Mn8 2.797459 1_655
Mn4 Zr2 2.845610 1_555
Mn4 Zr2 2.845610 1_655
Mn4 Zr1 2.921296 1_554
Mn5 Mn7 2.359289 1_665
Mn5 Mn6 2.359289 1_655
Mn5 Mn7 2.511119 1_555
Mn5 Mn6 2.511119 1_555
Mn5 Mn8 2.845363 1_665
Mn5 Zr0 2.867858 1_565
Mn5 Zr0 2.867862 1_555
Mn5 Zr1 2.879731 1_565
Mn5 Zr1 2.879735 1_555
Mn5 Zr2 2.973363 1_666
Mn6 Mn7 2.359289 1_565
Mn6 Mn7 2.511119 1_555
Mn6 Mn8 2.845363 1_565
Mn6 Zr0 2.867860 1_455
Mn6 Zr0 2.867860 1_565
Mn6 Zr1 2.879733 1_565
Mn6 Zr1 2.879733 1_455
Mn6 Zr2 2.973363 1_566
Mn7 Mn8 2.845363 1_555
Mn7 Zr0 2.867858 1_455
Mn7 Zr0 2.867862 1_555
Mn7 Zr1 2.879731 1_455
Mn7 Zr1 2.879735 1_555
Mn7 Zr2 2.973363 1_556
Mn8 Zr2 2.848211 1_555
Mn8 Zr0 2.979141 1_455
Mn8 Zr0 2.979145 1_445
Mn8 Zr0 2.979145 1_555
