# generated using pymatgen
data_RbMoP2O7
_symmetry_space_group_name_H-M   'P 1'
_cell_length_a   10.41572371
_cell_length_b   7.52290926
_cell_length_c   8.43097885
_cell_angle_alpha   74.18116820
_cell_angle_beta   90.00000000
_cell_angle_gamma   90.00000000
_symmetry_Int_Tables_number   1
_chemical_formula_structural   RbMoP2O7
_chemical_formula_sum   'Rb4 Mo4 P8 O28'
_cell_volume   635.60357459
_cell_formula_units_Z   4
loop_
 _symmetry_equiv_pos_site_id
 _symmetry_equiv_pos_as_xyz
  1  'x, y, z'
loop_
 _atom_site_type_symbol
 _atom_site_label
 _atom_site_symmetry_multiplicity
 _atom_site_fract_x
 _atom_site_fract_y
 _atom_site_fract_z
 _atom_site_occupancy
  Rb  Rb0  1  0.82010981  0.18597654  0.44497623  1
  Rb  Rb1  1  0.32010981  0.81402346  0.05502377  1
  Rb  Rb2  1  0.17989019  0.81402346  0.55502377  1
  Rb  Rb3  1  0.67989019  0.18597654  0.94497623  1
  Mo  Mo0  1  0.09979142  0.23514012  0.74074901  1
  Mo  Mo1  1  0.59979142  0.76485988  0.75925099  1
  Mo  Mo2  1  0.90020858  0.76485988  0.25925099  1
  Mo  Mo3  1  0.40020858  0.23514012  0.24074901  1
  P  P0  1  0.39998908  0.12983096  0.67257389  1
  P  P1  1  0.89998908  0.87016904  0.82742611  1
  P  P2  1  0.60001092  0.87016904  0.32742611  1
  P  P3  1  0.10001092  0.12983096  0.17257389  1
  P  P4  1  0.13581648  0.43782402  0.30862470  1
  P  P5  1  0.63581648  0.56217598  0.19137530  1
  P  P6  1  0.86418352  0.56217598  0.69137530  1
  P  P7  1  0.36418352  0.43782402  0.80862470  1
  O  O0  1  0.27825067  0.45026724  0.26621628  1
  O  O1  1  0.77825067  0.54973276  0.23378372  1
  O  O2  1  0.72174933  0.54973276  0.73378372  1
  O  O3  1  0.22174933  0.45026724  0.76621628  1
  O  O4  1  0.00115175  0.00238562  0.27827352  1
  O  O5  1  0.50115175  -0.00238562  0.22172648  1
  O  O6  1  0.99884825  -0.00238562  0.72172648  1
  O  O7  1  0.49884825  0.00238562  0.77827352  1
  O  O8  1  0.10348748  0.32349265  0.48047323  1
  O  O9  1  0.60348748  0.67650735  0.01952677  1
  O  O10  1  0.89651252  0.67650735  0.51952677  1
  O  O11  1  0.39651252  0.32349265  0.98047323  1
  O  O12  1  0.09448556  0.13556501  0.99454974  1
  O  O13  1  0.59448556  0.86443499  0.50545026  1
  O  O14  1  0.90551444  0.86443499  0.00545026  1
  O  O15  1  0.40551444  0.13556501  0.49454974  1
  O  O16  1  0.43297467  0.33352280  0.68717387  1
  O  O17  1  0.93297467  0.66647720  0.81282613  1
  O  O18  1  0.56702533  0.66647720  0.31282613  1
  O  O19  1  0.06702533  0.33352280  0.18717387  1
  O  O20  1  0.26721352  0.07832936  0.74731853  1
  O  O21  1  0.76721352  0.92167064  0.75268147  1
  O  O22  1  0.73278648  0.92167064  0.25268147  1
  O  O23  1  0.23278648  0.07832936  0.24731853  1
  O  O24  1  0.41990390  0.63086603  0.76275938  1
  O  O25  1  0.91990390  0.36913397  0.73724062  1
  O  O26  1  0.58009610  0.36913397  0.23724062  1
  O  O27  1  0.08009610  0.63086603  0.26275938  1
loop_
_geom_bond_atom_site_label_1
_geom_bond_atom_site_label_2
_geom_bond_distance
_geom_bond_site_symmetry_2
Mo0 O12 2.066156 1_555
Mo0 O20 2.097615 1_555
Mo0 O8 2.112672 1_555
Mo0 O3 2.113840 1_555
Mo0 O6 2.116684 1_455
Mo0 O25 2.123989 1_455
Mo1 O13 2.066156 1_555
Mo1 O21 2.097615 1_555
Mo1 O9 2.112672 1_556
Mo1 O2 2.113840 1_555
Mo1 O7 2.116684 1_565
Mo1 O24 2.123989 1_555
Mo2 O14 2.066156 1_555
Mo2 O22 2.097615 1_555
Mo2 O10 2.112672 1_555
Mo2 O1 2.113840 1_555
Mo2 O4 2.116684 1_665
Mo2 O27 2.123989 1_655
Mo3 O15 2.066156 1_555
Mo3 O23 2.097615 1_555
Mo3 O11 2.112672 1_554
Mo3 O0 2.113840 1_555
Mo3 O5 2.116684 1_555
Mo3 O26 2.123989 1_555
O0 P4 1.522921 1_555
O0 Rb1 2.862252 1_555
O1 P5 1.522921 1_555
O1 Rb0 2.862252 1_555
O2 P6 1.522921 1_555
O2 Rb3 2.862252 1_555
O3 P7 1.522921 1_555
O3 Rb2 2.862252 1_555
O4 P3 1.519151 1_555
O4 Rb0 2.914957 1_455
O4 Rb2 3.019182 1_545
O5 P2 1.519151 1_545
O5 Rb1 2.914957 1_545
O5 Rb3 3.019182 1_554
O6 P1 1.519151 1_545
O6 Rb2 2.914957 1_645
O6 Rb0 3.019182 1_555
O7 P0 1.519151 1_555
O7 Rb3 2.914957 1_555
O7 Rb1 3.019182 1_546
O8 P4 1.507626 1_555
O8 Rb0 3.168665 1_455
O9 P5 1.507626 1_555
O9 Rb1 3.168665 1_555
O10 P6 1.507626 1_555
O10 Rb2 3.168665 1_655
O11 P7 1.507626 1_555
O11 Rb3 3.168665 1_555
O12 P3 1.490848 1_556
O12 Rb1 3.310810 1_546
O13 P2 1.490848 1_555
O13 Rb0 3.310810 1_565
O14 P1 1.490848 1_554
O14 Rb3 3.310810 1_564
O15 P0 1.490848 1_555
O15 Rb2 3.310810 1_545
O16 P0 1.607526 1_555
O16 P7 1.617270 1_555
O16 Rb3 3.354866 1_555
O17 P1 1.607526 1_555
O17 P6 1.617270 1_555
O17 Rb2 3.354866 1_655
O18 P2 1.607526 1_555
O18 P5 1.617270 1_555
O18 Rb1 3.354866 1_555
O19 P3 1.607526 1_555
O19 P4 1.617270 1_555
O19 Rb0 3.354866 1_455
O20 P0 1.525344 1_555
O20 Rb1 2.859193 1_546
O20 Rb2 3.027649 1_545
O21 P1 1.525344 1_555
O21 Rb0 2.859193 1_565
O21 Rb3 3.027649 1_565
O22 P2 1.525344 1_555
O22 Rb3 2.859193 1_564
O22 Rb0 3.027649 1_565
O23 P3 1.525344 1_555
O23 Rb2 2.859193 1_545
O23 Rb1 3.027649 1_545
O24 P7 1.513006 1_555
O24 Rb2 3.146411 1_555
O24 Rb1 3.301765 1_556
O25 P6 1.513006 1_555
O25 Rb3 3.146411 1_555
O25 Rb0 3.301765 1_555
O26 P5 1.513006 1_555
O26 Rb0 3.146411 1_555
O26 Rb3 3.301765 1_554
O27 P4 1.513006 1_555
O27 Rb1 3.146411 1_555
O27 Rb2 3.301765 1_555
