# generated using pymatgen
data_Si4SbH38C14Cl
_symmetry_space_group_name_H-M   'P 1'
_cell_length_a   12.45678400
_cell_length_b   13.22310300
_cell_length_c   18.58347361
_cell_angle_alpha   90.00000000
_cell_angle_beta   111.44908383
_cell_angle_gamma   90.00000000
_symmetry_Int_Tables_number   1
_chemical_formula_structural   Si4SbH38C14Cl
_chemical_formula_sum   'Si16 Sb4 H152 C56 Cl4'
_cell_volume   2849.02289274
_cell_formula_units_Z   4
loop_
 _symmetry_equiv_pos_site_id
 _symmetry_equiv_pos_as_xyz
  1  'x, y, z'
loop_
 _atom_site_type_symbol
 _atom_site_label
 _atom_site_symmetry_multiplicity
 _atom_site_fract_x
 _atom_site_fract_y
 _atom_site_fract_z
 _atom_site_occupancy
  Si  Si0  1  0.37334700  0.25143700  0.54568700  1
  Si  Si1  1  0.37334700  0.24856300  0.04568700  1
  Si  Si2  1  0.62665300  0.74856300  0.45431300  1
  Si  Si3  1  0.62665300  0.75143700  0.95431300  1
  Si  Si4  1  0.46617600  0.13905000  0.71187500  1
  Si  Si5  1  0.46617600  0.36095000  0.21187500  1
  Si  Si6  1  0.53382400  0.86095000  0.28812500  1
  Si  Si7  1  0.53382400  0.63905000  0.78812500  1
  Si  Si8  1  0.06842900  0.36218700  0.68261200  1
  Si  Si9  1  0.06842900  0.13781300  0.18261200  1
  Si  Si10  1  0.93157100  0.63781300  0.31738800  1
  Si  Si11  1  0.93157100  0.86218700  0.81738800  1
  Si  Si12  1  0.90388600  0.23443500  0.53420100  1
  Si  Si13  1  0.90388600  0.26556500  0.03420100  1
  Si  Si14  1  0.09611400  0.76556500  0.46579900  1
  Si  Si15  1  0.09611400  0.73443500  0.96579900  1
  Sb  Sb0  1  0.17267800  0.14895900  0.60411100  1
  Sb  Sb1  1  0.17267800  0.35104100  0.10411100  1
  Sb  Sb2  1  0.82732200  0.85104100  0.39588900  1
  Sb  Sb3  1  0.82732200  0.64895900  0.89588900  1
  H  H0  1  0.34560800  0.28973400  0.66679300  1
  H  H1  1  0.34560800  0.21026600  0.16679300  1
  H  H2  1  0.65439200  0.71026600  0.33320700  1
  H  H3  1  0.65439200  0.78973400  0.83320700  1
  H  H4  1  0.43763000  0.16441600  0.45049000  1
  H  H5  1  0.43763000  0.33558400  0.95049000  1
  H  H6  1  0.56237000  0.83558400  0.54951000  1
  H  H7  1  0.56237000  0.66441600  0.04951000  1
  H  H8  1  0.36477300  0.07824800  0.48975300  1
  H  H9  1  0.36477300  0.42175200  0.98975300  1
  H  H10  1  0.63522700  0.92175200  0.51024700  1
  H  H11  1  0.63522700  0.57824800  0.01024700  1
  H  H12  1  0.51044000  0.11165600  0.54364600  1
  H  H13  1  0.51044000  0.38834400  0.04364600  1
  H  H14  1  0.48956000  0.88834400  0.45635400  1
  H  H15  1  0.48956000  0.61165600  0.95635400  1
  H  H16  1  0.56134500  0.34576000  0.60921500  1
  H  H17  1  0.56134500  0.15424000  0.10921500  1
  H  H18  1  0.43865500  0.65424000  0.39078500  1
  H  H19  1  0.43865500  0.84576000  0.89078500  1
  H  H20  1  0.44052400  0.42876300  0.58021100  1
  H  H21  1  0.44052400  0.07123700  0.08021100  1
  H  H22  1  0.55947600  0.57123700  0.41978900  1
  H  H23  1  0.55947600  0.92876300  0.91978900  1
  H  H24  1  0.49078100  0.37820500  0.51005600  1
  H  H25  1  0.49078100  0.12179500  0.01005600  1
  H  H26  1  0.50921900  0.62179500  0.48994400  1
  H  H27  1  0.50921900  0.87820500  0.98994400  1
  H  H28  1  0.25667900  0.31122200  0.41472000  1
  H  H29  1  0.25667900  0.18877800  0.91472000  1
  H  H30  1  0.74332100  0.68877800  0.58528000  1
  H  H31  1  0.74332100  0.81122200  0.08528000  1
  H  H32  1  0.20458700  0.36638600  0.48265500  1
  H  H33  1  0.20458700  0.13361400  0.98265500  1
  H  H34  1  0.79541300  0.63361400  0.51734500  1
  H  H35  1  0.79541300  0.86638600  0.01734500  1
  H  H36  1  0.16716800  0.23952500  0.45039900  1
  H  H37  1  0.16716800  0.26047500  0.95039900  1
  H  H38  1  0.83283200  0.76047500  0.54960100  1
  H  H39  1  0.83283200  0.73952500  0.04960100  1
  H  H40  1  0.39360500  0.14084300  0.82129500  1
  H  H41  1  0.39360500  0.35915700  0.32129500  1
  H  H42  1  0.60639500  0.85915700  0.17870500  1
  H  H43  1  0.60639500  0.64084300  0.67870500  1
  H  H44  1  0.48938700  0.24413200  0.82847800  1
  H  H45  1  0.48938700  0.25586800  0.32847800  1
  H  H46  1  0.51061300  0.75586800  0.17152200  1
  H  H47  1  0.51061300  0.74413200  0.67152200  1
  H  H48  1  0.54525200  0.11998200  0.85351300  1
  H  H49  1  0.54525200  0.38001800  0.35351300  1
  H  H50  1  0.45474800  0.88001800  0.14648700  1
  H  H51  1  0.45474800  0.61998200  0.64648700  1
  H  H52  1  0.63227700  0.25516800  0.72675500  1
  H  H53  1  0.63227700  0.24483200  0.22675500  1
  H  H54  1  0.36772300  0.74483200  0.27324500  1
  H  H55  1  0.36772300  0.75516800  0.77324500  1
  H  H56  1  0.62699500  0.15754500  0.65956800  1
  H  H57  1  0.62699500  0.34245500  0.15956800  1
  H  H58  1  0.37300500  0.84245500  0.34043200  1
  H  H59  1  0.37300500  0.65754500  0.84043200  1
  H  H60  1  0.67858400  0.13136000  0.76008700  1
  H  H61  1  0.67858400  0.36864000  0.26008700  1
  H  H62  1  0.32141600  0.86864000  0.23991300  1
  H  H63  1  0.32141600  0.63136000  0.73991300  1
  H  H64  1  0.51421900  0.95675100  0.73635400  1
  H  H65  1  0.51421900  0.54324900  0.23635400  1
  H  H66  1  0.48578100  0.04324900  0.26364600  1
  H  H67  1  0.48578100  0.45675100  0.76364600  1
  H  H68  1  0.45015800  0.97930600  0.63542400  1
  H  H69  1  0.45015800  0.52069400  0.13542400  1
  H  H70  1  0.54984200  0.02069400  0.36457600  1
  H  H71  1  0.54984200  0.47930600  0.86457600  1
  H  H72  1  0.36279900  0.97315800  0.69311400  1
  H  H73  1  0.36279900  0.52684200  0.19311400  1
  H  H74  1  0.63720100  0.02684200  0.30688600  1
  H  H75  1  0.63720100  0.47315800  0.80688600  1
  H  H76  1  0.07924900  0.33046600  0.55667300  1
  H  H77  1  0.07924900  0.16953400  0.05667300  1
  H  H78  1  0.92075100  0.66953400  0.44332700  1
  H  H79  1  0.92075100  0.83046600  0.94332700  1
  H  H80  1  0.21564500  0.42218500  0.80290400  1
  H  H81  1  0.21564500  0.07781500  0.30290400  1
  H  H82  1  0.78435500  0.57781500  0.19709600  1
  H  H83  1  0.78435500  0.92218500  0.69709600  1
  H  H84  1  0.27752700  0.40904100  0.73125500  1
  H  H85  1  0.27752700  0.09095900  0.23125500  1
  H  H86  1  0.72247300  0.59095900  0.26874500  1
  H  H87  1  0.72247300  0.90904100  0.76874500  1
  H  H88  1  0.25500500  0.29975300  0.78063100  1
  H  H89  1  0.25500500  0.20024700  0.28063100  1
  H  H90  1  0.74499500  0.70024700  0.21936900  1
  H  H91  1  0.74499500  0.79975300  0.71936900  1
  H  H92  1  0.98229700  0.36958100  0.78352700  1
  H  H93  1  0.98229700  0.13041900  0.28352700  1
  H  H94  1  0.01770300  0.63041900  0.21647300  1
  H  H95  1  0.01770300  0.86958100  0.71647300  1
  H  H96  1  0.00283100  0.24194200  0.76072200  1
  H  H97  1  0.00283100  0.25805800  0.26072200  1
  H  H98  1  0.99716900  0.75805800  0.23927800  1
  H  H99  1  0.99716900  0.74194200  0.73927800  1
  H  H100  1  0.88325900  0.31340700  0.69881100  1
  H  H101  1  0.88325900  0.18659300  0.19881100  1
  H  H102  1  0.11674100  0.68659300  0.30118900  1
  H  H103  1  0.11674100  0.81340700  0.80118900  1
  H  H104  1  0.93427600  0.50531000  0.61363000  1
  H  H105  1  0.93427600  0.99469000  0.11363000  1
  H  H106  1  0.06572400  0.49469000  0.38637000  1
  H  H107  1  0.06572400  0.00531000  0.88637000  1
  H  H108  1  0.07449500  0.52086500  0.61076000  1
  H  H109  1  0.07449500  0.97913500  0.11076000  1
  H  H110  1  0.92550500  0.47913500  0.38924000  1
  H  H111  1  0.92550500  0.02086500  0.88924000  1
  H  H112  1  0.04947100  0.54746100  0.69686200  1
  H  H113  1  0.04947100  0.95253900  0.19686200  1
  H  H114  1  0.95052900  0.45253900  0.30313800  1
  H  H115  1  0.95052900  0.04746100  0.80313800  1
  H  H116  1  0.80817000  0.17508200  0.39979600  1
  H  H117  1  0.80817000  0.32491800  0.89979600  1
  H  H118  1  0.19183000  0.82491800  0.60020400  1
  H  H119  1  0.19183000  0.67508200  0.10020400  1
  H  H120  1  0.95200000  0.12996600  0.43659600  1
  H  H121  1  0.95200000  0.37003400  0.93659600  1
  H  H122  1  0.04800000  0.87003400  0.56340400  1
  H  H123  1  0.04800000  0.62996600  0.06340400  1
  H  H124  1  0.92316800  0.25783900  0.40534000  1
  H  H125  1  0.92316800  0.24216100  0.90534000  1
  H  H126  1  0.07683200  0.74216100  0.59466000  1
  H  H127  1  0.07683200  0.75783900  0.09466000  1
  H  H128  1  0.81322300  0.40276400  0.48732300  1
  H  H129  1  0.81322300  0.09723600  0.98732300  1
  H  H130  1  0.18677700  0.59723600  0.51267700  1
  H  H131  1  0.18677700  0.90276400  0.01267700  1
  H  H132  1  0.78951900  0.36780300  0.57273700  1
  H  H133  1  0.78951900  0.13219700  0.07273700  1
  H  H134  1  0.21048100  0.63219700  0.42726300  1
  H  H135  1  0.21048100  0.86780300  0.92726300  1
  H  H136  1  0.70882300  0.30925100  0.48318600  1
  H  H137  1  0.70882300  0.19074900  0.98318600  1
  H  H138  1  0.29117700  0.69074900  0.51681400  1
  H  H139  1  0.29117700  0.80925100  0.01681400  1
  H  H140  1  0.76969100  0.09861000  0.53924000  1
  H  H141  1  0.76969100  0.40139000  0.03924000  1
  H  H142  1  0.23030900  0.90139000  0.46076000  1
  H  H143  1  0.23030900  0.59861000  0.96076000  1
  H  H144  1  0.85231600  0.14057200  0.63466000  1
  H  H145  1  0.85231600  0.35942800  0.13466000  1
  H  H146  1  0.14768400  0.85942800  0.36534000  1
  H  H147  1  0.14768400  0.64057200  0.86534000  1
  H  H148  1  0.91444000  0.05771300  0.58539800  1
  H  H149  1  0.91444000  0.44228700  0.08539800  1
  H  H150  1  0.08556000  0.94228700  0.41460200  1
  H  H151  1  0.08556000  0.55771300  0.91460200  1
  C  C0  1  0.34719000  0.21709700  0.63801900  1
  C  C1  1  0.34719000  0.28290300  0.13801900  1
  C  C2  1  0.65281000  0.78290300  0.36198100  1
  C  C3  1  0.65281000  0.71709700  0.86198100  1
  C  C4  1  0.42719700  0.14083400  0.50435500  1
  C  C5  1  0.42719700  0.35916600  0.00435500  1
  C  C6  1  0.57280300  0.85916600  0.49564500  1
  C  C7  1  0.57280300  0.64083400  0.99564500  1
  C  C8  1  0.47704200  0.36073500  0.56394700  1
  C  C9  1  0.47704200  0.13926500  0.06394700  1
  C  C10  1  0.52295800  0.63926500  0.43605300  1
  C  C11  1  0.52295800  0.86073500  0.93605300  1
  C  C12  1  0.23703500  0.29579000  0.46678900  1
  C  C13  1  0.23703500  0.20421000  0.96678900  1
  C  C14  1  0.76296500  0.70421000  0.53321100  1
  C  C15  1  0.76296500  0.79579000  0.03321100  1
  C  C16  1  0.47302200  0.16384100  0.81327200  1
  C  C17  1  0.47302200  0.33615900  0.31327200  1
  C  C18  1  0.52697800  0.83615900  0.18672800  1
  C  C19  1  0.52697800  0.66384100  0.68672800  1
  C  C20  1  0.61401900  0.17466900  0.71357000  1
  C  C21  1  0.61401900  0.32533100  0.21357000  1
  C  C22  1  0.38598100  0.82533100  0.28643000  1
  C  C23  1  0.38598100  0.67466900  0.78643000  1
  C  C24  1  0.44582900  0.99911400  0.69175000  1
  C  C25  1  0.44582900  0.50088600  0.19175000  1
  C  C26  1  0.55417100  0.00088600  0.30825000  1
  C  C27  1  0.55417100  0.49911400  0.80825000  1
  C  C28  1  0.05587100  0.27904000  0.59570300  1
  C  C29  1  0.05587100  0.22096000  0.09570300  1
  C  C30  1  0.94412900  0.72096000  0.40429700  1
  C  C31  1  0.94412900  0.77904000  0.90429700  1
  C  C32  1  0.21920400  0.37313900  0.75580100  1
  C  C33  1  0.21920400  0.12686100  0.25580100  1
  C  C34  1  0.78079600  0.62686100  0.24419900  1
  C  C35  1  0.78079600  0.87313900  0.74419900  1
  C  C36  1  0.97487600  0.31722300  0.73588600  1
  C  C37  1  0.97487600  0.18277700  0.23588600  1
  C  C38  1  0.02512400  0.68277700  0.26411400  1
  C  C39  1  0.02512400  0.81722300  0.76411400  1
  C  C40  1  0.02671800  0.49590000  0.64697500  1
  C  C41  1  0.02671800  0.00410000  0.14697500  1
  C  C42  1  0.97328200  0.50410000  0.35302500  1
  C  C43  1  0.97328200  0.99590000  0.85302500  1
  C  C44  1  0.89748100  0.19590100  0.43507100  1
  C  C45  1  0.89748100  0.30409900  0.93507100  1
  C  C46  1  0.10251900  0.80409900  0.56492900  1
  C  C47  1  0.10251900  0.69590100  0.06492900  1
  C  C48  1  0.79442300  0.33896000  0.51868400  1
  C  C49  1  0.79442300  0.16104000  0.01868400  1
  C  C50  1  0.20557700  0.66104000  0.48131600  1
  C  C51  1  0.20557700  0.83896000  0.98131600  1
  C  C52  1  0.85615100  0.12256600  0.57799800  1
  C  C53  1  0.85615100  0.37743400  0.07799800  1
  C  C54  1  0.14384900  0.87743400  0.42200200  1
  C  C55  1  0.14384900  0.62256600  0.92200200  1
  Cl  Cl0  1  0.17524700  0.08775600  0.72805100  1
  Cl  Cl1  1  0.17524700  0.41224400  0.22805100  1
  Cl  Cl2  1  0.82475300  0.91224400  0.27194900  1
  Cl  Cl3  1  0.82475300  0.58775600  0.77194900  1
loop_
_geom_bond_atom_site_label_1
_geom_bond_atom_site_label_2
_geom_bond_distance
_geom_bond_site_symmetry_2
C0 H0 1.102976 1_555
C0 Si4 1.912568 1_555
C0 Si0 1.914517 1_555
C0 Sb0 2.220970 1_555
C1 H1 1.102976 1_555
C1 Si5 1.912568 1_555
C1 Si1 1.914517 1_555
C1 Sb1 2.220970 1_555
C2 H2 1.102976 1_555
C2 Si6 1.912568 1_555
C2 Si2 1.914517 1_555
C2 Sb2 2.220970 1_555
C3 H3 1.102976 1_555
C3 Si7 1.912568 1_555
C3 Si3 1.914517 1_555
C3 Sb3 2.220970 1_555
C4 H12 1.097047 1_555
C4 H8 1.099486 1_555
C4 H4 1.100576 1_555
C4 Si0 1.885657 1_555
C5 H13 1.097047 1_555
C5 H9 1.099486 1_554
C5 H5 1.100576 1_554
C5 Si1 1.885657 1_555
C6 H14 1.097047 1_555
C6 H10 1.099486 1_555
C6 H6 1.100576 1_555
C6 Si2 1.885657 1_555
C7 H15 1.097047 1_555
C7 H11 1.099486 1_556
C7 H7 1.100576 1_556
C7 Si3 1.885657 1_555
C8 H16 1.097089 1_555
C8 H20 1.099094 1_555
C8 H24 1.100442 1_555
C8 Si0 1.884638 1_555
C9 H17 1.097089 1_555
C9 H21 1.099094 1_555
C9 H25 1.100442 1_555
C9 Si1 1.884638 1_555
C10 H18 1.097089 1_555
C10 H22 1.099094 1_555
C10 H26 1.100442 1_555
C10 Si2 1.884638 1_555
C11 H19 1.097089 1_555
C11 H23 1.099094 1_555
C11 H27 1.100442 1_555
C11 Si3 1.884638 1_555
C12 H32 1.099494 1_555
C12 H36 1.099949 1_555
C12 H28 1.100445 1_555
C12 Si0 1.885778 1_555
C13 H33 1.099494 1_555
C13 H37 1.099949 1_555
C13 H29 1.100445 1_555
C13 Si1 1.885778 1_556
C14 H34 1.099494 1_555
C14 H38 1.099949 1_555
C14 H30 1.100445 1_555
C14 Si2 1.885778 1_555
C15 H35 1.099494 1_555
C15 H39 1.099949 1_555
C15 H31 1.100445 1_555
C15 Si3 1.885778 1_554
C16 H40 1.096019 1_555
C16 H44 1.098398 1_555
C16 H48 1.101382 1_555
C16 Si4 1.883569 1_555
C17 H41 1.096019 1_555
C17 H45 1.098398 1_555
C17 H49 1.101382 1_555
C17 Si5 1.883569 1_555
C18 H42 1.096019 1_555
C18 H46 1.098398 1_555
C18 H50 1.101382 1_555
C18 Si6 1.883569 1_555
C19 H43 1.096019 1_555
C19 H47 1.098398 1_555
C19 H51 1.101382 1_555
C19 Si7 1.883569 1_555
C20 H56 1.096875 1_555
C20 H52 1.097294 1_555
C20 H60 1.101642 1_555
C20 Si4 1.889992 1_555
C21 H57 1.096875 1_555
C21 H53 1.097294 1_555
C21 H61 1.101642 1_555
C21 Si5 1.889992 1_555
C22 H58 1.096875 1_555
C22 H54 1.097294 1_555
C22 H62 1.101642 1_555
C22 Si6 1.889992 1_555
C23 H59 1.096875 1_555
C23 H55 1.097294 1_555
C23 H63 1.101642 1_555
C23 Si7 1.889992 1_555
C24 H72 1.098801 1_555
C24 H68 1.099292 1_555
C24 H64 1.100084 1_555
C24 Si4 1.886458 1_565
C25 H73 1.098801 1_555
C25 H69 1.099292 1_555
C25 H65 1.100084 1_555
C25 Si5 1.886458 1_555
C26 H74 1.098801 1_555
C26 H70 1.099292 1_555
C26 H66 1.100084 1_555
C26 Si6 1.886458 1_545
C27 H75 1.098801 1_555
C27 H71 1.099292 1_555
C27 H67 1.100084 1_555
C27 Si7 1.886458 1_555
C28 H76 1.108051 1_555
C28 Si12 1.912070 1_455
C28 Si8 1.912320 1_555
C28 Sb0 2.221247 1_555
C29 H77 1.108051 1_555
C29 Si13 1.912070 1_455
C29 Si9 1.912320 1_555
C29 Sb1 2.221247 1_555
C30 H78 1.108051 1_555
C30 Si14 1.912070 1_655
C30 Si10 1.912320 1_555
C30 Sb2 2.221247 1_555
C31 H79 1.108051 1_555
C31 Si15 1.912070 1_655
C31 Si11 1.912320 1_555
C31 Sb3 2.221247 1_555
C32 H88 1.096796 1_555
C32 H84 1.097107 1_555
C32 H80 1.103253 1_555
C32 Si8 1.878869 1_555
C33 H89 1.096796 1_555
C33 H85 1.097107 1_555
C33 H81 1.103253 1_555
C33 Si9 1.878869 1_555
C34 H90 1.096796 1_555
C34 H86 1.097107 1_555
C34 H82 1.103253 1_555
C34 Si10 1.878869 1_555
C35 H91 1.096796 1_555
C35 H87 1.097107 1_555
C35 H83 1.103253 1_555
C35 Si11 1.878869 1_555
C36 H100 1.097561 1_555
C36 H96 1.098934 1_655
C36 H92 1.100835 1_555
C36 Si8 1.880294 1_655
C37 H101 1.097561 1_555
C37 H97 1.098934 1_655
C37 H93 1.100835 1_555
C37 Si9 1.880294 1_655
C38 H102 1.097561 1_555
C38 H98 1.098934 1_455
C38 H94 1.100835 1_555
C38 Si10 1.880294 1_455
C39 H103 1.097561 1_555
C39 H99 1.098934 1_455
C39 H95 1.100835 1_555
C39 Si11 1.880294 1_455
C40 H104 1.097099 1_455
C40 H108 1.099562 1_555
C40 H112 1.101125 1_555
C40 Si8 1.892902 1_555
C41 H105 1.097099 1_445
C41 H109 1.099562 1_545
C41 H113 1.101125 1_545
C41 Si9 1.892902 1_555
C42 H106 1.097099 1_655
C42 H110 1.099562 1_555
C42 H114 1.101125 1_555
C42 Si10 1.892902 1_555
C43 H107 1.097099 1_665
C43 H111 1.099562 1_565
C43 H115 1.101125 1_565
C43 Si11 1.892902 1_555
C44 H124 1.098965 1_555
C44 H120 1.099134 1_555
C44 H116 1.099934 1_555
C44 Si12 1.884709 1_555
C45 H125 1.098965 1_555
C45 H121 1.099134 1_555
C45 H117 1.099934 1_555
C45 Si13 1.884709 1_556
C46 H126 1.098965 1_555
C46 H122 1.099134 1_555
C46 H118 1.099934 1_555
C46 Si14 1.884709 1_555
C47 H127 1.098965 1_555
C47 H123 1.099134 1_555
C47 H119 1.099934 1_555
C47 Si15 1.884709 1_554
C48 H132 1.096848 1_555
C48 H128 1.098235 1_555
C48 H136 1.100935 1_555
C48 Si12 1.888174 1_555
C49 H133 1.096848 1_555
C49 H129 1.098235 1_554
C49 H137 1.100935 1_554
C49 Si13 1.888174 1_555
C50 H134 1.096848 1_555
C50 H130 1.098235 1_555
C50 H138 1.100935 1_555
C50 Si14 1.888174 1_555
C51 H135 1.096848 1_555
C51 H131 1.098235 1_556
C51 H139 1.100935 1_556
C51 Si15 1.888174 1_555
C52 H144 1.097506 1_555
C52 H148 1.099319 1_555
C52 H140 1.100794 1_555
C52 Si12 1.886307 1_555
C53 H145 1.097506 1_555
C53 H149 1.099319 1_555
C53 H141 1.100794 1_555
C53 Si13 1.886307 1_555
C54 H146 1.097506 1_555
C54 H150 1.099319 1_555
C54 H142 1.100794 1_555
C54 Si14 1.886307 1_555
C55 H147 1.097506 1_555
C55 H151 1.099319 1_555
C55 H143 1.100794 1_555
C55 Si15 1.886307 1_555
Cl0 Sb0 2.430426 1_555
Cl1 Sb1 2.430426 1_555
Cl2 Sb2 2.430426 1_555
Cl3 Sb3 2.430426 1_555
