# generated using pymatgen
data_YScSi2O7
_symmetry_space_group_name_H-M   'P 1'
_cell_length_a   5.54437710
_cell_length_b   5.54437710
_cell_length_c   4.74216934
_cell_angle_alpha   82.79288623
_cell_angle_beta   82.79288623
_cell_angle_gamma   104.87565439
_symmetry_Int_Tables_number   1
_chemical_formula_structural   YScSi2O7
_chemical_formula_sum   'Y1 Sc1 Si2 O7'
_cell_volume   137.87355415
_cell_formula_units_Z   1
loop_
 _symmetry_equiv_pos_site_id
 _symmetry_equiv_pos_as_xyz
  1  'x, y, z'
loop_
 _atom_site_type_symbol
 _atom_site_label
 _atom_site_symmetry_multiplicity
 _atom_site_fract_x
 _atom_site_fract_y
 _atom_site_fract_z
 _atom_site_occupancy
  Y  Y0  1  0.99884800  0.00115200  0.00000000  1
  Sc  Sc0  1  0.38465500  0.61534500  0.00000000  1
  Si  Si0  1  0.47931900  0.07972400  0.41182300  1
  Si  Si1  1  0.92027600  0.52068100  0.58817700  1
  O  O0  1  0.59447400  0.89878000  0.21272100  1
  O  O1  1  0.10122000  0.40552600  0.78727900  1
  O  O2  1  0.72894100  0.27105900  0.50000000  1
  O  O3  1  0.08294700  0.68663200  0.28233000  1
  O  O4  1  0.31336800  0.91705300  0.71767000  1
  O  O5  1  0.32437200  0.24031100  0.22321500  1
  O  O6  1  0.75968900  0.67562800  0.77678500  1
loop_
_geom_bond_atom_site_label_1
_geom_bond_atom_site_label_2
_geom_bond_distance
_geom_bond_site_symmetry_2
O0 Si0 1.649497 1_565
O0 Sc0 2.143358 1_555
O0 Y0 2.236473 1_565
O1 Si1 1.649497 1_455
O1 Sc0 2.143358 1_556
O1 Y0 2.236473 1_456
O2 Si1 1.648740 1_555
O2 Si0 1.648740 1_555
O3 Si1 1.635382 1_455
O3 Sc0 2.158066 1_555
O3 Y0 2.244807 1_465
O4 Si0 1.635382 1_565
O4 Sc0 2.158066 1_556
O4 Y0 2.244807 1_466
O5 Si0 1.648163 1_555
O5 Sc0 2.134930 1_555
O5 Y0 2.395598 1_455
O6 Si1 1.648163 1_555
O6 Sc0 2.134930 1_556
O6 Y0 2.395598 1_566
