# generated using pymatgen
data_MoW3(SeS)4
_symmetry_space_group_name_H-M   'P 1'
_cell_length_a   3.25552718
_cell_length_b   3.25552718
_cell_length_c   36.55751000
_cell_angle_alpha   90.00000000
_cell_angle_beta   90.00000000
_cell_angle_gamma   119.99998327
_symmetry_Int_Tables_number   1
_chemical_formula_structural   MoW3(SeS)4
_chemical_formula_sum   'Mo1 W3 Se4 S4'
_cell_volume   335.54437488
_cell_formula_units_Z   1
loop_
 _symmetry_equiv_pos_site_id
 _symmetry_equiv_pos_as_xyz
  1  'x, y, z'
loop_
 _atom_site_type_symbol
 _atom_site_label
 _atom_site_symmetry_multiplicity
 _atom_site_fract_x
 _atom_site_fract_y
 _atom_site_fract_z
 _atom_site_occupancy
  Mo  Mo0  1  0.00000000  0.00000000  0.09391600  1
  W  W0  1  0.00000000  0.00000000  0.46967900  1
  W  W1  1  0.33333300  0.66666700  0.28179700  1
  W  W2  1  0.33333300  0.66666700  0.65760500  1
  Se  Se0  1  0.00000000  0.00000000  0.70429200  1
  Se  Se1  1  0.33333300  0.66666700  0.42292200  1
  Se  Se2  1  0.33333300  0.66666700  0.51632000  1
  Se  Se3  1  0.00000000  0.00000000  0.61083200  1
  S  S0  1  0.00000000  0.00000000  0.32419200  1
  S  S1  1  0.33333300  0.66666700  0.05165000  1
  S  S2  1  0.33333300  0.66666700  0.13616800  1
  S  S3  1  0.00000000  0.00000000  0.23937300  1
loop_
_geom_bond_atom_site_label_1
_geom_bond_atom_site_label_2
_geom_bond_distance
_geom_bond_site_symmetry_2
Mo0 S2 2.432835 1_545
Mo0 S2 2.432838 1_555
Mo0 S2 2.432838 1_445
Mo0 S1 2.433160 1_545
Mo0 S1 2.433163 1_445
Mo0 S1 2.433163 1_555
Se0 W2 2.538866 1_545
Se0 W2 2.538869 1_555
Se0 W2 2.538869 1_445
Se1 W0 2.540587 1_565
Se1 W0 2.540590 1_555
Se1 W0 2.540590 1_665
Se2 W0 2.537736 1_565
Se2 W0 2.537739 1_665
Se2 W0 2.537739 1_555
Se3 W2 2.540981 1_545
Se3 W2 2.540983 1_445
Se3 W2 2.540983 1_555
S0 W1 2.436158 1_545
S0 W1 2.436160 1_445
S0 W1 2.436160 1_555
S3 W1 2.436832 1_545
S3 W1 2.436835 1_445
S3 W1 2.436835 1_555
