# generated using pymatgen
data_In10CuAgS16
_symmetry_space_group_name_H-M   'P 1'
_cell_length_a   7.72460700
_cell_length_b   7.72460700
_cell_length_c   10.92029500
_cell_angle_alpha   90.00000000
_cell_angle_beta   90.00000000
_cell_angle_gamma   90.00000000
_symmetry_Int_Tables_number   1
_chemical_formula_structural   In10CuAgS16
_chemical_formula_sum   'In10 Cu1 Ag1 S16'
_cell_volume   651.60912460
_cell_formula_units_Z   1
loop_
 _symmetry_equiv_pos_site_id
 _symmetry_equiv_pos_as_xyz
  1  'x, y, z'
loop_
 _atom_site_type_symbol
 _atom_site_label
 _atom_site_symmetry_multiplicity
 _atom_site_fract_x
 _atom_site_fract_y
 _atom_site_fract_z
 _atom_site_occupancy
  In  In0  1  0.23565500  0.50000000  0.12983000  1
  In  In1  1  0.73939000  0.00000000  0.63286800  1
  In  In2  1  0.26061000  0.00000000  0.63286800  1
  In  In3  1  0.76434500  0.50000000  0.12983000  1
  In  In4  1  0.00000000  0.26061000  0.36713200  1
  In  In5  1  0.50000000  0.76434500  0.87017000  1
  In  In6  1  0.50000000  0.23565500  0.87017000  1
  In  In7  1  0.00000000  0.73939000  0.36713200  1
  In  In8  1  0.50000000  0.00000000  0.24959800  1
  In  In9  1  0.00000000  0.50000000  0.75040200  1
  Cu  Cu0  1  0.00000000  0.00000000  0.00000000  1
  Ag  Ag0  1  0.50000000  0.50000000  0.50000000  1
  S  S0  1  0.76569200  0.50000000  0.36633800  1
  S  S1  1  0.25300300  0.00000000  0.87381200  1
  S  S2  1  0.23430800  0.50000000  0.36633800  1
  S  S3  1  0.74699700  0.00000000  0.87381200  1
  S  S4  1  0.50000000  0.23430800  0.63366200  1
  S  S5  1  0.00000000  0.74699700  0.12618800  1
  S  S6  1  0.50000000  0.76569200  0.63366200  1
  S  S7  1  0.00000000  0.25300300  0.12618800  1
  S  S8  1  0.23176900  0.00000000  0.38466900  1
  S  S9  1  0.73109400  0.50000000  0.88406800  1
  S  S10  1  0.76823100  0.00000000  0.38466900  1
  S  S11  1  0.26890600  0.50000000  0.88406800  1
  S  S12  1  0.50000000  0.26890600  0.11593200  1
  S  S13  1  0.00000000  0.76823100  0.61533100  1
  S  S14  1  0.50000000  0.73109400  0.11593200  1
  S  S15  1  0.00000000  0.23176900  0.61533100  1
loop_
_geom_bond_atom_site_label_1
_geom_bond_atom_site_label_2
_geom_bond_distance
_geom_bond_site_symmetry_2
In0 S2 2.582758 1_555
In0 S7 2.637332 1_555
In0 S5 2.637332 1_555
In0 S11 2.696056 1_554
In0 S12 2.716479 1_555
In0 S14 2.716479 1_555
In1 S4 2.587560 1_555
In1 S6 2.587560 1_545
In1 S3 2.631836 1_555
In1 S15 2.700842 1_655
In1 S13 2.700842 1_645
In1 S10 2.719547 1_555
In2 S4 2.587560 1_555
In2 S6 2.587560 1_545
In2 S1 2.631836 1_555
In2 S13 2.700842 1_545
In2 S15 2.700842 1_555
In2 S8 2.719547 1_555
In3 S0 2.582758 1_555
In3 S7 2.637332 1_655
In3 S5 2.637332 1_655
In3 S9 2.696056 1_554
In3 S14 2.716479 1_555
In3 S12 2.716479 1_555
In4 S2 2.587560 1_555
In4 S0 2.587560 1_455
In4 S7 2.631836 1_555
In4 S10 2.700842 1_455
In4 S8 2.700842 1_555
In4 S15 2.719547 1_555
In5 S6 2.582758 1_555
In5 S1 2.637332 1_565
In5 S3 2.637332 1_565
In5 S14 2.696056 1_556
In5 S11 2.716479 1_555
In5 S9 2.716479 1_555
In6 S4 2.582758 1_555
In6 S1 2.637332 1_555
In6 S3 2.637332 1_555
In6 S12 2.696056 1_556
In6 S9 2.716479 1_555
In6 S11 2.716479 1_555
In7 S2 2.587560 1_555
In7 S0 2.587560 1_455
In7 S5 2.631836 1_555
In7 S10 2.700842 1_465
In7 S8 2.700842 1_565
In7 S13 2.719547 1_555
In8 S12 2.538774 1_555
In8 S14 2.538774 1_545
In8 S10 2.543377 1_555
In8 S8 2.543377 1_555
In9 S9 2.538774 1_455
In9 S11 2.538774 1_555
In9 S15 2.543377 1_555
In9 S13 2.543377 1_555
Cu0 S1 2.391316 1_554
Cu0 S3 2.391316 1_454
Cu0 S7 2.391316 1_555
Cu0 S5 2.391316 1_545
Ag0 S4 2.518476 1_555
Ag0 S6 2.518476 1_555
Ag0 S2 2.518476 1_555
Ag0 S0 2.518476 1_555
