# generated using pymatgen
data_CaAl2V4O8
_symmetry_space_group_name_H-M   'P 1'
_cell_length_a   6.15075589
_cell_length_b   6.14417911
_cell_length_c   6.17313739
_cell_angle_alpha   89.91679771
_cell_angle_beta   119.89965274
_cell_angle_gamma   120.03897881
_symmetry_Int_Tables_number   1
_chemical_formula_structural   CaAl2V4O8
_chemical_formula_sum   'Ca1 Al2 V4 O8'
_cell_volume   165.23347309
_cell_formula_units_Z   1
loop_
 _symmetry_equiv_pos_site_id
 _symmetry_equiv_pos_as_xyz
  1  'x, y, z'
loop_
 _atom_site_type_symbol
 _atom_site_label
 _atom_site_symmetry_multiplicity
 _atom_site_fract_x
 _atom_site_fract_y
 _atom_site_fract_z
 _atom_site_occupancy
  Ca  Ca0  1  0.50000400  0.49999800  0.00000700  1
  Al  Al0  1  0.00000200  0.99999500  0.00000400  1
  Al  Al1  1  0.50000000  0.99999600  0.00000200  1
  V  V0  1  0.50002800  0.00000900  0.50001400  1
  V  V1  1  0.49999300  0.49998600  0.50000400  1
  V  V2  1  0.99998900  0.50000000  0.99997600  1
  V  V3  1  0.99999700  0.49999500  0.49999800  1
  O  O0  1  0.01372300  0.78087300  0.21558000  1
  O  O1  1  0.51394800  0.76974400  0.75801600  1
  O  O2  1  0.48331800  0.78111000  0.21588400  1
  O  O3  1  0.02523000  0.77027400  0.78017700  1
  O  O4  1  0.51668000  0.21887800  0.78412100  1
  O  O5  1  0.48606300  0.23025100  0.24199700  1
  O  O6  1  0.97477700  0.22973200  0.21982500  1
  O  O7  1  0.98629800  0.21912200  0.78444100  1
loop_
_geom_bond_atom_site_label_1
_geom_bond_atom_site_label_2
_geom_bond_distance
_geom_bond_site_symmetry_2
Ca0 O1 2.228008 1_554
Ca0 O5 2.228008 1_555
Ca0 O7 2.255692 1_454
Ca0 O0 2.255745 1_655
Ca0 O2 2.256147 1_555
Ca0 O4 2.256176 1_554
Al0 O7 1.893972 1_464
Al0 O0 1.894010 1_555
Al0 O3 2.071844 1_554
Al0 O6 2.071876 1_465
Al0 O1 2.118957 1_454
Al0 O5 2.118987 1_565
Al1 O4 1.894230 1_564
Al1 O2 1.894251 1_555
Al1 O3 2.071110 1_554
Al1 O6 2.071140 1_565
Al1 O1 2.120296 1_554
Al1 O5 2.120300 1_565
O0 V2 2.122583 1_454
O0 V0 2.140450 1_565
O0 V3 2.461943 1_455
O1 V0 2.127058 1_565
O1 V3 2.240396 1_455
O1 V1 2.240591 1_555
O2 V2 2.124408 1_454
O2 V0 2.141173 1_565
O2 V1 2.461592 1_555
O3 V2 2.137318 1_455
O3 V1 2.291832 1_455
O3 V3 2.292589 1_455
O4 V2 2.124355 1_555
O4 V0 2.141189 1_555
O4 V1 2.461511 1_555
O5 V0 2.127029 1_555
O5 V3 2.240322 1_555
O5 V1 2.240574 1_555
O6 V2 2.137498 1_554
O6 V1 2.291743 1_655
O6 V3 2.292548 1_555
O7 V2 2.122528 1_555
O7 V0 2.140309 1_555
O7 V3 2.462028 1_555
