# generated using pymatgen
data_Y10Cd3Ru
_symmetry_space_group_name_H-M   'P 1'
_cell_length_a   9.63869772
_cell_length_b   9.63869772
_cell_length_c   9.87110600
_cell_angle_alpha   90.00000000
_cell_angle_beta   90.00000000
_cell_angle_gamma   119.99999805
_symmetry_Int_Tables_number   1
_chemical_formula_structural   Y10Cd3Ru
_chemical_formula_sum   'Y20 Cd6 Ru2'
_cell_volume   794.20602346
_cell_formula_units_Z   2
loop_
 _symmetry_equiv_pos_site_id
 _symmetry_equiv_pos_as_xyz
  1  'x, y, z'
loop_
 _atom_site_type_symbol
 _atom_site_label
 _atom_site_symmetry_multiplicity
 _atom_site_fract_x
 _atom_site_fract_y
 _atom_site_fract_z
 _atom_site_occupancy
  Y  Y0  1  0.00000000  0.00000000  0.50000000  1
  Y  Y1  1  0.00000000  0.00000000  0.00000000  1
  Y  Y2  1  0.20982700  0.79017300  0.43980900  1
  Y  Y3  1  0.20982700  0.41965500  0.43980900  1
  Y  Y4  1  0.58034500  0.79017300  0.43980900  1
  Y  Y5  1  0.79017300  0.20982700  0.56019100  1
  Y  Y6  1  0.79017300  0.58034500  0.56019100  1
  Y  Y7  1  0.41965500  0.20982700  0.56019100  1
  Y  Y8  1  0.79017300  0.20982700  0.93980900  1
  Y  Y9  1  0.79017300  0.58034500  0.93980900  1
  Y  Y10  1  0.41965500  0.20982700  0.93980900  1
  Y  Y11  1  0.20982700  0.79017300  0.06019100  1
  Y  Y12  1  0.20982700  0.41965500  0.06019100  1
  Y  Y13  1  0.58034500  0.79017300  0.06019100  1
  Y  Y14  1  0.54131500  0.45868500  0.25000000  1
  Y  Y15  1  0.54131500  0.08263000  0.25000000  1
  Y  Y16  1  0.91737000  0.45868500  0.25000000  1
  Y  Y17  1  0.45868500  0.54131500  0.75000000  1
  Y  Y18  1  0.45868500  0.91737000  0.75000000  1
  Y  Y19  1  0.08263000  0.54131500  0.75000000  1
  Cd  Cd0  1  0.88543500  0.11456500  0.25000000  1
  Cd  Cd1  1  0.88543500  0.77087100  0.25000000  1
  Cd  Cd2  1  0.22912900  0.11456500  0.25000000  1
  Cd  Cd3  1  0.11456500  0.88543500  0.75000000  1
  Cd  Cd4  1  0.11456500  0.22912900  0.75000000  1
  Cd  Cd5  1  0.77087100  0.88543500  0.75000000  1
  Ru  Ru0  1  0.33333300  0.66666700  0.25000000  1
  Ru  Ru1  1  0.66666700  0.33333300  0.75000000  1
loop_
_geom_bond_atom_site_label_1
_geom_bond_atom_site_label_2
_geom_bond_distance
_geom_bond_site_symmetry_2
Cd0 Y1 3.122191 1_655
Cd0 Y0 3.122191 1_655
Cd0 Y16 3.174176 1_555
Cd0 Y15 3.174176 1_555
Cd0 Cd2 3.312763 1_655
Cd0 Cd1 3.312763 1_545
Cd0 Y5 3.450317 1_555
Cd0 Y8 3.450317 1_554
Cd0 Y4 3.569275 1_545
Cd0 Y12 3.569275 1_655
Cd0 Y3 3.569275 1_655
Cd0 Y13 3.569275 1_545
Cd1 Y1 3.122186 1_665
Cd1 Y0 3.122186 1_665
Cd1 Y14 3.174180 1_555
Cd1 Y16 3.174186 1_555
Cd1 Cd2 3.312763 1_665
Cd1 Y9 3.450325 1_554
Cd1 Y6 3.450325 1_555
Cd1 Y13 3.569275 1_555
Cd1 Y4 3.569275 1_555
Cd1 Y2 3.569275 1_655
Cd1 Y11 3.569275 1_655
Cd2 Y1 3.122186 1_555
Cd2 Y0 3.122186 1_555
Cd2 Y14 3.174180 1_555
Cd2 Y15 3.174186 1_555
Cd2 Y7 3.450325 1_555
Cd2 Y10 3.450325 1_554
Cd2 Y12 3.569275 1_555
Cd2 Y3 3.569275 1_555
Cd2 Y11 3.569275 1_545
Cd2 Y2 3.569275 1_545
Cd3 Y0 3.122191 1_565
Cd3 Y1 3.122191 1_566
Cd3 Y18 3.174176 1_555
Cd3 Y19 3.174176 1_555
Cd3 Cd4 3.312763 1_565
Cd3 Cd5 3.312763 1_455
Cd3 Y2 3.450317 1_555
Cd3 Y11 3.450317 1_556
Cd3 Y6 3.569275 1_455
Cd3 Y7 3.569275 1_565
Cd3 Y10 3.569275 1_565
Cd3 Y9 3.569275 1_455
Cd4 Y0 3.122186 1_555
Cd4 Y1 3.122186 1_556
Cd4 Y17 3.174180 1_555
Cd4 Y19 3.174186 1_555
Cd4 Cd5 3.312763 1_445
Cd4 Y3 3.450325 1_555
Cd4 Y12 3.450325 1_556
Cd4 Y10 3.569275 1_555
Cd4 Y7 3.569275 1_555
Cd4 Y8 3.569275 1_455
Cd4 Y5 3.569275 1_455
Cd5 Y1 3.122186 1_666
Cd5 Y0 3.122186 1_665
Cd5 Y17 3.174180 1_555
Cd5 Y18 3.174186 1_555
Cd5 Y4 3.450325 1_555
Cd5 Y13 3.450325 1_556
Cd5 Y9 3.569275 1_555
Cd5 Y6 3.569275 1_555
Cd5 Y8 3.569275 1_565
Cd5 Y5 3.569275 1_565
Ru0 Y2 2.786017 1_555
Ru0 Y11 2.786017 1_555
Ru0 Y3 2.786017 1_555
Ru0 Y13 2.786017 1_555
Ru0 Y4 2.786017 1_555
Ru0 Y12 2.786017 1_555
Ru0 Y15 3.472192 1_565
Ru0 Y16 3.472192 1_455
Ru0 Y14 3.472200 1_555
Ru1 Y8 2.786017 1_555
Ru1 Y5 2.786017 1_555
Ru1 Y9 2.786017 1_555
Ru1 Y6 2.786017 1_555
Ru1 Y10 2.786017 1_555
Ru1 Y7 2.786017 1_555
Ru1 Y18 3.472192 1_545
Ru1 Y19 3.472192 1_655
Ru1 Y17 3.472200 1_555
