# generated using pymatgen
data_LiCaP
_symmetry_space_group_name_H-M   'P 1'
_cell_length_a   4.17769967
_cell_length_b   7.05648407
_cell_length_c   7.77300828
_cell_angle_alpha   90.00000000
_cell_angle_beta   90.00000000
_cell_angle_gamma   90.00000000
_symmetry_Int_Tables_number   1
_chemical_formula_structural   LiCaP
_chemical_formula_sum   'Li4 Ca4 P4'
_cell_volume   229.14728270
_cell_formula_units_Z   4
loop_
 _symmetry_equiv_pos_site_id
 _symmetry_equiv_pos_as_xyz
  1  'x, y, z'
loop_
 _atom_site_type_symbol
 _atom_site_label
 _atom_site_symmetry_multiplicity
 _atom_site_fract_x
 _atom_site_fract_y
 _atom_site_fract_z
 _atom_site_occupancy
  Li  Li0  1  0.25000000  0.64341952  0.56435458  1
  Li  Li1  1  0.75000000  0.35658048  0.43564542  1
  Li  Li2  1  0.75000000  0.85658048  0.06435458  1
  Li  Li3  1  0.25000000  0.14341952  0.93564542  1
  Ca  Ca0  1  0.25000000  0.51795187  0.19404842  1
  Ca  Ca1  1  0.75000000  0.48204813  0.80595158  1
  Ca  Ca2  1  0.75000000  0.98204813  0.69404842  1
  Ca  Ca3  1  0.25000000  0.01795187  0.30595158  1
  P  P0  1  0.25000000  0.76826062  0.89467063  1
  P  P1  1  0.75000000  0.23173938  0.10532937  1
  P  P2  1  0.75000000  0.73173938  0.39467063  1
  P  P3  1  0.25000000  0.26826062  0.60532937  1
loop_
_geom_bond_atom_site_label_1
_geom_bond_atom_site_label_2
_geom_bond_distance
_geom_bond_site_symmetry_2
Li0 P2 2.547812 1_455
Li0 P2 2.547812 1_555
Li0 P3 2.666393 1_555
Li0 P0 2.714473 1_555
Li1 P3 2.547812 1_555
Li1 P3 2.547812 1_655
Li1 P2 2.666393 1_555
Li1 P1 2.714473 1_555
Li2 P0 2.547812 1_554
Li2 P0 2.547812 1_654
Li2 P1 2.666393 1_565
Li2 P2 2.714473 1_555
Li3 P1 2.547812 1_556
Li3 P1 2.547812 1_456
Li3 P0 2.666393 1_545
Li3 P3 2.714473 1_555
Ca0 P0 2.921481 1_554
Ca0 P1 2.986279 1_455
Ca0 P1 2.986279 1_555
Ca0 P2 3.011807 1_455
Ca0 P2 3.011807 1_555
Ca1 P1 2.921481 1_556
Ca1 P0 2.986279 1_555
Ca1 P0 2.986279 1_655
Ca1 P3 3.011807 1_555
Ca1 P3 3.011807 1_655
Ca2 P2 2.921481 1_555
Ca2 P3 2.986279 1_565
Ca2 P3 2.986279 1_665
Ca2 P0 3.011807 1_555
Ca2 P0 3.011807 1_655
Ca3 P3 2.921481 1_555
Ca3 P2 2.986279 1_545
Ca3 P2 2.986279 1_445
Ca3 P1 3.011807 1_555
Ca3 P1 3.011807 1_455
