# generated using pymatgen
data_KMgBi
_symmetry_space_group_name_H-M   'P 1'
_cell_length_a   4.91295125
_cell_length_b   4.91295125
_cell_length_c   8.38724096
_cell_angle_alpha   90.00000000
_cell_angle_beta   90.00000000
_cell_angle_gamma   90.00000000
_symmetry_Int_Tables_number   1
_chemical_formula_structural   KMgBi
_chemical_formula_sum   'K2 Mg2 Bi2'
_cell_volume   202.44358978
_cell_formula_units_Z   2
loop_
 _symmetry_equiv_pos_site_id
 _symmetry_equiv_pos_as_xyz
  1  'x, y, z'
loop_
 _atom_site_type_symbol
 _atom_site_label
 _atom_site_symmetry_multiplicity
 _atom_site_fract_x
 _atom_site_fract_y
 _atom_site_fract_z
 _atom_site_occupancy
  K  K0  1  0.75000000  0.75000000  0.34808477  1
  K  K1  1  0.25000000  0.25000000  0.65191523  1
  Mg  Mg0  1  0.75000000  0.25000000  0.00000000  1
  Mg  Mg1  1  0.25000000  0.75000000  0.00000000  1
  Bi  Bi0  1  0.75000000  0.75000000  0.79414164  1
  Bi  Bi1  1  0.25000000  0.25000000  0.20585836  1
loop_
_geom_bond_atom_site_label_1
_geom_bond_atom_site_label_2
_geom_bond_distance
_geom_bond_site_symmetry_2
Bi0 Mg1 3.002560 1_656
Bi0 Mg0 3.002560 1_566
Bi0 Mg1 3.002560 1_556
Bi0 Mg0 3.002560 1_556
Bi0 K1 3.673081 1_565
Bi0 K1 3.673081 1_655
Bi0 K1 3.673081 1_665
Bi0 K1 3.673081 1_555
Bi0 K0 3.741186 1_555
Bi1 Mg1 3.002560 1_555
Bi1 Mg0 3.002560 1_455
Bi1 Mg0 3.002560 1_555
Bi1 Mg1 3.002560 1_545
Bi1 K0 3.673081 1_455
Bi1 K0 3.673081 1_555
Bi1 K0 3.673081 1_545
Bi1 K0 3.673081 1_445
Bi1 K1 3.741186 1_555
