# generated using pymatgen
data_Sm(Fe5Mo)2
_symmetry_space_group_name_H-M   'P 1'
_cell_length_a   4.76578400
_cell_length_b   6.53175564
_cell_length_c   6.53175564
_cell_angle_alpha   97.17786128
_cell_angle_beta   111.39628807
_cell_angle_gamma   68.60371193
_symmetry_Int_Tables_number   1
_chemical_formula_structural   Sm(Fe5Mo)2
_chemical_formula_sum   'Sm1 Fe10 Mo2'
_cell_volume   176.25788167
_cell_formula_units_Z   1
loop_
 _symmetry_equiv_pos_site_id
 _symmetry_equiv_pos_as_xyz
  1  'x, y, z'
loop_
 _atom_site_type_symbol
 _atom_site_label
 _atom_site_symmetry_multiplicity
 _atom_site_fract_x
 _atom_site_fract_y
 _atom_site_fract_z
 _atom_site_occupancy
  Sm  Sm0  1  0.00000000  0.00000000  0.00000000  1
  Fe  Fe0  1  0.50000000  0.00000000  0.50000000  1
  Fe  Fe1  1  0.00000000  0.00000000  0.50000000  1
  Fe  Fe2  1  0.50000000  0.50000000  0.00000000  1
  Fe  Fe3  1  0.00000000  0.50000000  0.00000000  1
  Fe  Fe4  1  0.72122700  0.77877300  0.22122700  1
  Fe  Fe5  1  0.27877300  0.22122700  0.77877300  1
  Fe  Fe6  1  0.50000000  0.77181200  0.77181200  1
  Fe  Fe7  1  0.50000000  0.22818800  0.22818800  1
  Fe  Fe8  1  0.64155400  0.35844600  0.64155400  1
  Fe  Fe9  1  0.35844600  0.64155400  0.35844600  1
  Mo  Mo0  1  0.00000000  0.35924100  0.35924100  1
  Mo  Mo1  1  0.00000000  0.64075900  0.64075900  1
loop_
_geom_bond_atom_site_label_1
_geom_bond_atom_site_label_2
_geom_bond_distance
_geom_bond_site_symmetry_2
Fe0 Fe1 2.382892 1_555
Fe0 Fe1 2.382892 1_655
Fe0 Fe7 2.456595 1_555
Fe0 Fe6 2.456595 1_545
Fe0 Fe4 2.479281 1_545
Fe0 Fe5 2.479281 1_555
Fe0 Mo0 2.624951 1_555
Fe0 Mo1 2.624951 1_645
Fe0 Fe8 2.635895 1_555
Fe0 Fe9 2.635895 1_545
Fe0 Sm0 3.265878 1_555
Fe0 Sm0 3.265878 1_656
Fe1 Fe6 2.456595 1_545
Fe1 Fe7 2.456595 1_455
Fe1 Fe4 2.479281 1_445
Fe1 Fe5 2.479281 1_555
Fe1 Mo0 2.624951 1_555
Fe1 Mo1 2.624951 1_545
Fe1 Fe8 2.635895 1_455
Fe1 Fe9 2.635895 1_545
Fe1 Sm0 3.265878 1_555
Fe1 Sm0 3.265878 1_556
Fe2 Fe3 2.382892 1_655
Fe2 Fe3 2.382892 1_555
Fe2 Fe7 2.456595 1_555
Fe2 Fe6 2.456595 1_554
Fe2 Fe4 2.479281 1_555
Fe2 Fe5 2.479281 1_554
Fe2 Mo1 2.624951 1_554
Fe2 Mo0 2.624951 1_655
Fe2 Fe9 2.635895 1_555
Fe2 Fe8 2.635895 1_554
Fe2 Sm0 3.265878 1_655
Fe2 Sm0 3.265878 1_565
Fe3 Fe7 2.456595 1_555
Fe3 Fe6 2.456595 1_454
Fe3 Fe5 2.479281 1_554
Fe3 Fe4 2.479281 1_455
Fe3 Mo0 2.624951 1_555
Fe3 Mo1 2.624951 1_554
Fe3 Fe9 2.635895 1_555
Fe3 Fe8 2.635895 1_454
Fe3 Sm0 3.265878 1_565
Fe3 Sm0 3.265878 1_555
Fe4 Fe9 2.656672 1_555
Fe4 Fe9 2.656672 1_655
Fe4 Mo1 2.678435 1_655
Fe4 Mo0 2.678435 1_655
Fe4 Fe6 2.733880 1_554
Fe4 Fe7 2.733880 1_565
Fe4 Sm0 3.043753 1_565
Fe4 Sm0 3.043753 1_665
Fe5 Fe8 2.656672 1_455
Fe5 Fe8 2.656672 1_555
Fe5 Mo0 2.678435 1_555
Fe5 Mo1 2.678435 1_555
Fe5 Fe6 2.733880 1_545
Fe5 Fe7 2.733880 1_556
Fe5 Sm0 3.043753 1_556
Fe5 Sm0 3.043753 1_656
Fe6 Mo1 2.638286 1_555
Fe6 Mo1 2.638286 1_655
Fe6 Fe8 2.642865 1_555
Fe6 Fe9 2.642865 1_555
Fe6 Sm0 3.092897 1_566
Fe6 Sm0 3.092897 1_666
Fe7 Mo0 2.638286 1_655
Fe7 Mo0 2.638286 1_555
Fe7 Fe8 2.642865 1_555
Fe7 Fe9 2.642865 1_555
Fe7 Sm0 3.092897 1_555
Fe7 Sm0 3.092897 1_655
Fe8 Fe9 2.423455 1_555
Fe8 Mo1 2.936975 1_555
Fe8 Mo1 2.936975 1_655
Fe8 Mo0 2.936975 1_655
Fe8 Mo0 2.936975 1_555
Fe8 Sm0 3.068362 1_656
Fe9 Mo1 2.936975 1_555
Fe9 Mo1 2.936975 1_655
Fe9 Mo0 2.936975 1_655
Fe9 Mo0 2.936975 1_555
Fe9 Sm0 3.068362 1_565
Mo0 Mo1 2.432582 1_555
Mo0 Sm0 3.104183 1_555
Mo1 Sm0 3.104183 1_566
