# generated using pymatgen
data_Li3MnCoO5
_symmetry_space_group_name_H-M   'P 1'
_cell_length_a   2.91471900
_cell_length_b   5.93505287
_cell_length_c   10.47189333
_cell_angle_alpha   97.25746433
_cell_angle_beta   97.36426150
_cell_angle_gamma   91.29156502
_symmetry_Int_Tables_number   1
_chemical_formula_structural   Li3MnCoO5
_chemical_formula_sum   'Li6 Mn2 Co2 O10'
_cell_volume   178.08160957
_cell_formula_units_Z   2
loop_
 _symmetry_equiv_pos_site_id
 _symmetry_equiv_pos_as_xyz
  1  'x, y, z'
loop_
 _atom_site_type_symbol
 _atom_site_label
 _atom_site_symmetry_multiplicity
 _atom_site_fract_x
 _atom_site_fract_y
 _atom_site_fract_z
 _atom_site_occupancy
  Li  Li0  1  0.00785700  0.51327200  0.01591500  1
  Li  Li1  1  0.61112900  0.29454600  0.20791400  1
  Li  Li2  1  0.39617500  0.70311000  0.80059700  1
  Li  Li3  1  0.79573400  0.89744000  0.59383200  1
  Li  Li4  1  0.18923300  0.08442000  0.38401800  1
  Li  Li5  1  0.58833400  0.81099700  0.20401100  1
  Mn  Mn0  1  0.01298400  0.99741600  0.00650400  1
  Mn  Mn1  1  0.79246600  0.39947000  0.59856900  1
  Co  Co0  1  0.17704100  0.61007500  0.37862500  1
  Co  Co1  1  0.41120700  0.19939700  0.80116500  1
  O  O0  1  0.51596000  0.22202600  0.98961900  1
  O  O1  1  0.09026900  0.04969400  0.18206200  1
  O  O2  1  0.86585000  0.43443900  0.79206100  1
  O  O3  1  0.29929600  0.61629300  0.60043800  1
  O  O4  1  0.69461500  0.83933600  0.40537400  1
  O  O5  1  0.50138700  0.77982800  0.99791600  1
  O  O6  1  0.10092700  0.54547400  0.20704600  1
  O  O7  1  0.95044200  0.96843900  0.80639000  1
  O  O8  1  0.29596700  0.17679300  0.61087900  1
  O  O9  1  0.70312800  0.35753500  0.41706400  1
loop_
_geom_bond_atom_site_label_1
_geom_bond_atom_site_label_2
_geom_bond_distance
_geom_bond_site_symmetry_2
Li0 O6 1.969253 1_555
Li0 O5 2.156355 1_554
Li0 O0 2.187731 1_454
Li0 O5 2.197006 1_454
Li0 O2 2.313183 1_454
Li0 O0 2.314461 1_554
Li1 O6 2.041328 1_655
Li1 O1 2.045899 1_555
Li1 O1 2.055358 1_655
Li1 O6 2.128205 1_555
Li1 O9 2.155615 1_555
Li1 O0 2.251953 1_554
Li2 O5 2.040718 1_555
Li2 O7 2.063898 1_455
Li2 O3 2.075445 1_555
Li2 O2 2.125679 1_555
Li2 O2 2.181159 1_455
Li2 O7 2.220246 1_555
Li3 O4 1.942909 1_555
Li3 O8 2.157810 1_665
Li3 O3 2.197455 1_555
Li3 O7 2.198320 1_555
Li3 O8 2.236833 1_565
Li3 O3 2.248754 1_655
Li4 O4 2.077152 1_445
Li4 O1 2.080656 1_555
Li4 O4 2.104764 1_545
Li4 O9 2.146338 1_555
Li4 O9 2.200507 1_455
Li4 O8 2.348384 1_555
Li5 O1 2.063188 1_565
Li5 O1 2.067660 1_665
Li5 O4 2.076356 1_555
Li5 O6 2.103809 1_555
Li5 O5 2.124405 1_554
Li5 O6 2.196201 1_655
Mn0 O1 1.809250 1_565
Mn0 O5 1.936188 1_454
Mn0 O5 1.946448 1_554
Mn0 O0 1.996993 1_464
Mn0 O0 1.998876 1_564
Mn0 O7 2.064905 1_454
Mn1 O9 1.868982 1_555
Mn1 O3 1.933708 1_655
Mn1 O3 1.951125 1_555
Mn1 O8 1.965235 1_555
Mn1 O2 1.993758 1_555
Mn1 O8 1.999742 1_655
Co0 O6 1.773269 1_555
Co0 O4 1.977008 1_555
Co0 O4 1.999512 1_455
Co0 O9 2.125615 1_455
Co0 O9 2.204010 1_555
Co0 O3 2.299851 1_555
Co1 O7 1.907981 1_445
Co1 O2 1.921918 1_555
Co1 O0 1.944882 1_555
Co1 O8 1.964774 1_555
Co1 O7 2.108618 1_545
Co1 O2 2.139276 1_455
