# generated using pymatgen
data_LiCeMg14
_symmetry_space_group_name_H-M   'P 1'
_cell_length_a   6.54294785
_cell_length_b   6.54294730
_cell_length_c   10.29184884
_cell_angle_alpha   90.00000000
_cell_angle_beta   90.00000000
_cell_angle_gamma   120.00000286
_symmetry_Int_Tables_number   1
_chemical_formula_structural   LiCeMg14
_chemical_formula_sum   'Li1 Ce1 Mg14'
_cell_volume   381.56708032
_cell_formula_units_Z   1
loop_
 _symmetry_equiv_pos_site_id
 _symmetry_equiv_pos_as_xyz
  1  'x, y, z'
loop_
 _atom_site_type_symbol
 _atom_site_label
 _atom_site_symmetry_multiplicity
 _atom_site_fract_x
 _atom_site_fract_y
 _atom_site_fract_z
 _atom_site_occupancy
  Li  Li0  1  0.16666700  0.33333300  0.12500000  1
  Ce  Ce0  1  0.16666700  0.33333300  0.62500000  1
  Mg  Mg0  1  0.16691805  0.83345852  0.12500000  1
  Mg  Mg1  1  0.18234974  0.84117437  0.62500000  1
  Mg  Mg2  1  0.66654148  0.33308195  0.12500000  1
  Mg  Mg3  1  0.65882563  0.31765026  0.62500000  1
  Mg  Mg4  1  0.66654148  0.83345852  0.12500000  1
  Mg  Mg5  1  0.65882563  0.84117437  0.62500000  1
  Mg  Mg6  1  0.33314204  0.16685796  0.36655691  1
  Mg  Mg7  1  0.33314204  0.16685796  0.88344309  1
  Mg  Mg8  1  0.33314204  0.66628509  0.36655691  1
  Mg  Mg9  1  0.33314204  0.66628509  0.88344309  1
  Mg  Mg10  1  0.83371491  0.16685796  0.36655691  1
  Mg  Mg11  1  0.83371491  0.16685796  0.88344309  1
  Mg  Mg12  1  0.83333300  0.66666700  0.38494167  1
  Mg  Mg13  1  0.83333300  0.66666700  0.86505833  1
loop_
_geom_bond_atom_site_label_1
_geom_bond_atom_site_label_2
_geom_bond_distance
_geom_bond_site_symmetry_2
Li0 Mg6 3.120872 1_555
Li0 Mg7 3.120872 1_554
Li0 Mg8 3.120879 1_555
Li0 Mg9 3.120879 1_554
Li0 Mg10 3.120879 1_455
Li0 Mg11 3.120879 1_454
Li0 Mg0 3.271474 1_555
Li0 Mg4 3.271474 1_555
Li0 Mg4 3.271474 1_445
Li0 Mg0 3.271474 1_545
Li0 Mg2 3.271474 1_455
Li0 Mg2 3.271474 1_555
Ce0 Mg6 3.261005 1_555
Ce0 Mg7 3.261005 1_555
Ce0 Mg8 3.261012 1_555
Ce0 Mg9 3.261012 1_555
Ce0 Mg11 3.261012 1_455
Ce0 Mg10 3.261012 1_455
Ce0 Mg5 3.272680 1_555
Ce0 Mg1 3.272680 1_555
Ce0 Mg5 3.272680 1_445
Ce0 Mg1 3.272680 1_545
Ce0 Mg3 3.272681 1_455
Ce0 Mg3 3.272681 1_555
Mg0 Mg8 3.122407 1_555
Mg0 Mg9 3.122407 1_554
Mg0 Mg7 3.122414 1_564
Mg0 Mg6 3.122414 1_565
Mg0 Mg2 3.269010 1_565
Mg0 Mg4 3.269010 1_555
Mg0 Mg2 3.273938 1_455
Mg0 Mg4 3.273938 1_455
Mg0 Mg12 3.275672 1_455
Mg0 Mg13 3.275672 1_454
Mg1 Mg3 3.117557 1_565
Mg1 Mg5 3.117557 1_555
Mg1 Mg12 3.164680 1_455
Mg1 Mg13 3.164680 1_455
Mg1 Mg8 3.238312 1_555
Mg1 Mg9 3.238312 1_555
Mg1 Mg7 3.238318 1_565
Mg1 Mg6 3.238318 1_565
Mg1 Mg3 3.425391 1_455
Mg1 Mg5 3.425391 1_455
Mg2 Mg6 3.122414 1_555
Mg2 Mg7 3.122414 1_554
Mg2 Mg4 3.269010 1_545
Mg2 Mg4 3.273938 1_555
Mg3 Mg5 3.117557 1_545
Mg3 Mg6 3.238318 1_555
Mg3 Mg7 3.238318 1_555
Mg3 Mg5 3.425391 1_555
Mg4 Mg9 3.122414 1_554
Mg4 Mg8 3.122414 1_555
Mg5 Mg8 3.238318 1_555
Mg5 Mg9 3.238318 1_555
Mg6 Mg8 3.267725 1_555
Mg6 Mg8 3.275222 1_545
Mg7 Mg9 3.267725 1_555
Mg7 Mg9 3.275222 1_545
Mg10 Mg2 3.122407 1_555
Mg10 Mg4 3.122414 1_545
Mg10 Mg3 3.238312 1_555
Mg10 Mg5 3.238318 1_545
Mg10 Mg8 3.267725 1_655
Mg10 Mg6 3.267726 1_655
Mg10 Mg8 3.275222 1_545
Mg10 Mg6 3.275222 1_555
Mg10 Mg12 3.276942 1_555
Mg10 Mg12 3.276942 1_545
Mg11 Mg2 3.122407 1_556
Mg11 Mg4 3.122414 1_546
Mg11 Mg3 3.238312 1_555
Mg11 Mg5 3.238318 1_545
Mg11 Mg9 3.267725 1_655
Mg11 Mg7 3.267726 1_655
Mg11 Mg9 3.275222 1_545
Mg11 Mg7 3.275222 1_555
Mg11 Mg13 3.276942 1_555
Mg11 Mg13 3.276942 1_545
Mg12 Mg5 3.164673 1_555
Mg12 Mg3 3.164680 1_555
Mg12 Mg4 3.275666 1_555
Mg12 Mg2 3.275672 1_555
Mg12 Mg6 3.276942 1_665
Mg12 Mg6 3.276942 1_555
Mg12 Mg8 3.276942 1_655
Mg12 Mg8 3.276942 1_555
Mg13 Mg5 3.164673 1_555
Mg13 Mg3 3.164680 1_555
Mg13 Mg4 3.275666 1_556
Mg13 Mg2 3.275672 1_556
Mg13 Mg7 3.276942 1_665
Mg13 Mg7 3.276942 1_555
Mg13 Mg9 3.276942 1_655
Mg13 Mg9 3.276942 1_555
