# generated using pymatgen
data_Fe3O4
_symmetry_space_group_name_H-M   'P 1'
_cell_length_a   6.07397757
_cell_length_b   6.06343856
_cell_length_c   10.50651222
_cell_angle_alpha   89.34312783
_cell_angle_beta   72.73995396
_cell_angle_gamma   59.80948284
_symmetry_Int_Tables_number   1
_chemical_formula_structural   Fe3O4
_chemical_formula_sum   'Fe12 O16'
_cell_volume   314.92018922
_cell_formula_units_Z   4
loop_
 _symmetry_equiv_pos_site_id
 _symmetry_equiv_pos_as_xyz
  1  'x, y, z'
loop_
 _atom_site_type_symbol
 _atom_site_label
 _atom_site_symmetry_multiplicity
 _atom_site_fract_x
 _atom_site_fract_y
 _atom_site_fract_z
 _atom_site_occupancy
  Fe  Fe0  1  0.49910400  0.74862800  0.75096300  1
  Fe  Fe1  1  0.50243800  0.99737200  0.49692900  1
  Fe  Fe2  1  0.99870900  0.25056600  0.75070800  1
  Fe  Fe3  1  0.49967800  0.74743800  0.24688700  1
  Fe  Fe4  1  0.49936200  0.25159700  0.75195700  1
  Fe  Fe5  1  0.12606500  0.19384500  0.06259900  1
  Fe  Fe6  1  0.12391000  0.69513300  0.56358500  1
  Fe  Fe7  1  0.87461200  0.30732200  0.43778000  1
  Fe  Fe8  1  0.87480000  0.80519700  0.93690600  1
  Fe  Fe9  1  0.49973400  0.25110000  0.24909000  1
  Fe  Fe10  1  0.49840100  0.50251600  0.00134600  1
  Fe  Fe11  1  0.00163000  0.74912400  0.24918500  1
  O  O0  1  0.25506000  0.38142900  0.12600900  1
  O  O1  1  0.24756500  0.89579600  0.62564200  1
  O  O2  1  0.73568600  0.11846400  0.38216500  1
  O  O3  1  0.76320400  0.60356300  0.86667200  1
  O  O4  1  0.74022800  0.86941900  0.12999600  1
  O  O5  1  0.75351700  0.36354500  0.63398300  1
  O  O6  1  0.73857900  0.39147200  0.13235300  1
  O  O7  1  0.72675300  0.89072300  0.62636800  1
  O  O8  1  0.26682000  0.10763700  0.37824800  1
  O  O9  1  0.26642100  0.61094500  0.86380900  1
  O  O10  1  0.25924600  0.87288600  0.13079600  1
  O  O11  1  0.25790600  0.35555500  0.62779100  1
  O  O12  1  0.25838300  0.63162600  0.37185200  1
  O  O13  1  0.24881900  0.13548500  0.86410000  1
  O  O14  1  0.72821000  0.64356300  0.38049400  1
  O  O15  1  0.75516100  0.12805400  0.86178500  1
loop_
_geom_bond_atom_site_label_1
_geom_bond_atom_site_label_2
_geom_bond_distance
_geom_bond_site_symmetry_2
Fe0 O9 2.066324 1_555
Fe0 O7 2.113320 1_555
Fe0 O3 2.130373 1_555
Fe0 O13 2.152062 1_565
Fe0 O1 2.158673 1_555
Fe0 O5 2.158756 1_555
Fe1 O2 2.003081 1_565
Fe1 O14 2.021189 1_555
Fe1 O8 2.031622 1_565
Fe1 O1 2.074182 1_555
Fe1 O7 2.077801 1_555
Fe1 O11 2.103696 1_565
Fe2 O3 2.014470 1_555
Fe2 O15 2.040340 1_555
Fe2 O13 2.050092 1_655
Fe2 O5 2.056632 1_555
Fe2 O1 2.062685 1_645
Fe2 O11 2.081889 1_655
Fe3 O6 2.021296 1_555
Fe3 O10 2.029165 1_555
Fe3 O4 2.047276 1_555
Fe3 O12 2.058409 1_555
Fe3 O8 2.116415 1_565
Fe3 O14 2.133243 1_555
Fe4 O9 2.025309 1_555
Fe4 O15 2.044553 1_555
Fe4 O13 2.047995 1_555
Fe4 O5 2.068658 1_555
Fe4 O7 2.093276 1_545
Fe4 O11 2.106377 1_555
Fe5 O0 1.890729 1_555
Fe5 O6 1.916353 1_455
Fe5 O10 1.919316 1_545
Fe5 O13 1.964535 1_554
Fe6 O12 1.896964 1_555
Fe6 O1 1.922886 1_555
Fe6 O7 1.963976 1_455
Fe6 O11 1.991359 1_555
Fe7 O2 1.909084 1_555
Fe7 O8 1.940241 1_655
Fe7 O5 1.941854 1_555
Fe7 O14 1.943113 1_555
Fe8 O4 1.910328 1_556
Fe8 O3 1.910418 1_555
Fe8 O9 1.937562 1_655
Fe8 O15 1.964041 1_565
Fe9 O0 2.107412 1_555
Fe9 O6 2.120245 1_555
Fe9 O4 2.153398 1_545
Fe9 O2 2.158625 1_555
Fe9 O8 2.161244 1_555
Fe9 O12 2.163464 1_555
Fe10 O0 2.088005 1_555
Fe10 O3 2.141308 1_554
Fe10 O10 2.149378 1_555
Fe10 O6 2.158361 1_555
Fe10 O9 2.181866 1_554
Fe10 O15 2.212572 1_554
Fe11 O0 2.108870 1_555
Fe11 O10 2.136203 1_555
Fe11 O4 2.148325 1_455
Fe11 O12 2.157514 1_555
Fe11 O2 2.161190 1_465
Fe11 O14 2.181808 1_455
