# generated using pymatgen
data_U2PbI2O13
_symmetry_space_group_name_H-M   'P 1'
_cell_length_a   6.97037800
_cell_length_b   7.98355742
_cell_length_c   21.75690350
_cell_angle_alpha   98.78693559
_cell_angle_beta   90.00000000
_cell_angle_gamma   90.00000000
_symmetry_Int_Tables_number   1
_chemical_formula_structural   U2PbI2O13
_chemical_formula_sum   'U8 Pb4 I8 O52'
_cell_volume   1196.52701895
_cell_formula_units_Z   4
loop_
 _symmetry_equiv_pos_site_id
 _symmetry_equiv_pos_as_xyz
  1  'x, y, z'
loop_
 _atom_site_type_symbol
 _atom_site_label
 _atom_site_symmetry_multiplicity
 _atom_site_fract_x
 _atom_site_fract_y
 _atom_site_fract_z
 _atom_site_occupancy
  U  U0  1  0.82554400  0.61109800  0.62546200  1
  U  U1  1  0.32554400  0.38890200  0.87453800  1
  U  U2  1  0.17445600  0.38890200  0.37453800  1
  U  U3  1  0.67445600  0.61109800  0.12546200  1
  U  U4  1  0.80609900  0.47385300  0.78014100  1
  U  U5  1  0.30609900  0.52614700  0.71985900  1
  U  U6  1  0.19390100  0.52614700  0.21985900  1
  U  U7  1  0.69390100  0.47385300  0.28014100  1
  Pb  Pb0  1  0.62505900  0.12189400  0.63393100  1
  Pb  Pb1  1  0.12505900  0.87810600  0.86606900  1
  Pb  Pb2  1  0.37494100  0.87810600  0.36606900  1
  Pb  Pb3  1  0.87494100  0.12189400  0.13393100  1
  I  I0  1  0.82359600  0.83714000  0.47130300  1
  I  I1  1  0.32359600  0.16286000  0.02869700  1
  I  I2  1  0.17640400  0.16286000  0.52869700  1
  I  I3  1  0.67640400  0.83714000  0.97130300  1
  I  I4  1  0.32827900  0.70241000  0.55038200  1
  I  I5  1  0.82827900  0.29759000  0.94961800  1
  I  I6  1  0.67172100  0.29759000  0.44961800  1
  I  I7  1  0.17172100  0.70241000  0.05038200  1
  O  O0  1  0.91667700  0.69064700  0.52226600  1
  O  O1  1  0.41667700  0.30935300  0.97773400  1
  O  O2  1  0.08332300  0.30935300  0.47773400  1
  O  O3  1  0.58332300  0.69064700  0.02226600  1
  O  O4  1  0.56763900  0.78160100  0.46768100  1
  O  O5  1  0.06763900  0.21839900  0.03231900  1
  O  O6  1  0.43236100  0.21839900  0.53231900  1
  O  O7  1  0.93236100  0.78160100  0.96768100  1
  O  O8  1  0.81903500  0.03291300  0.52846300  1
  O  O9  1  0.31903500  0.96708600  0.97153700  1
  O  O10  1  0.18096500  0.96708600  0.47153700  1
  O  O11  1  0.68096500  0.03291300  0.02846300  1
  O  O12  1  0.18936400  0.61655900  0.61151900  1
  O  O13  1  0.68936400  0.38344100  0.88848100  1
  O  O14  1  0.81063600  0.38344100  0.38848100  1
  O  O15  1  0.31063600  0.61655900  0.11151900  1
  O  O16  1  0.54784700  0.59143800  0.56754100  1
  O  O17  1  0.04784700  0.40856200  0.93245900  1
  O  O18  1  0.45215300  0.40856200  0.43245900  1
  O  O19  1  0.95215300  0.59143800  0.06754100  1
  O  O20  1  0.35843800  0.91599600  0.59337000  1
  O  O21  1  0.85843800  0.08400400  0.90663000  1
  O  O22  1  0.64156200  0.08400400  0.40663000  1
  O  O23  1  0.14156200  0.91599600  0.09337000  1
  O  O24  1  0.85142300  0.38125500  0.59477700  1
  O  O25  1  0.35142300  0.61874500  0.90522300  1
  O  O26  1  0.14857700  0.61874500  0.40522300  1
  O  O27  1  0.64857700  0.38125500  0.09477700  1
  O  O28  1  0.78447600  0.84376100  0.64920800  1
  O  O29  1  0.28447600  0.15623900  0.85079200  1
  O  O30  1  0.21552400  0.15623900  0.35079200  1
  O  O31  1  0.71552400  0.84376100  0.14920800  1
  O  O32  1  0.61886800  0.54898500  0.69558100  1
  O  O33  1  0.11886800  0.45101500  0.80441900  1
  O  O34  1  0.38113200  0.45101500  0.30441900  1
  O  O35  1  0.88113200  0.54898500  0.19558100  1
  O  O36  1  0.81350600  0.25283600  0.73663400  1
  O  O37  1  0.31350600  0.74716400  0.76336600  1
  O  O38  1  0.18649400  0.74716400  0.26336600  1
  O  O39  1  0.68649400  0.25283600  0.23663400  1
  O  O40  1  0.80261600  0.69047400  0.82617300  1
  O  O41  1  0.30261600  0.30952600  0.67382700  1
  O  O42  1  0.19738400  0.30952600  0.17382700  1
  O  O43  1  0.69738400  0.69047400  0.32617300  1
  O  O44  1  0.98866400  0.56929700  0.70776900  1
  O  O45  1  0.48866400  0.43070300  0.79223100  1
  O  O46  1  0.01133600  0.43070300  0.29223100  1
  O  O47  1  0.51133600  0.56929700  0.20776900  1
  O  O48  1  0.51868600  0.02405200  0.73765700  1
  O  O49  1  0.01868600  0.97594800  0.76234300  1
  O  O50  1  0.48131400  0.97594800  0.26234200  1
  O  O51  1  0.98131400  0.02405200  0.23765700  1
loop_
_geom_bond_atom_site_label_1
_geom_bond_atom_site_label_2
_geom_bond_distance
_geom_bond_site_symmetry_2
I0 O4 1.837175 1_555
I0 O8 1.842992 1_565
I0 O0 1.847807 1_555
I1 O5 1.837175 1_555
I1 O9 1.842998 1_544
I1 O1 1.847807 1_554
I2 O6 1.837175 1_555
I2 O10 1.842998 1_545
I2 O2 1.847807 1_555
I3 O7 1.837175 1_555
I3 O11 1.842992 1_566
I3 O3 1.847807 1_556
I4 O20 1.827382 1_555
I4 O16 1.835123 1_555
I4 O12 1.858816 1_555
I5 O21 1.827382 1_555
I5 O17 1.835123 1_655
I5 O13 1.858816 1_555
I6 O22 1.827382 1_555
I6 O18 1.835123 1_555
I6 O14 1.858816 1_555
I7 O23 1.827382 1_555
I7 O19 1.835123 1_455
I7 O15 1.858816 1_555
O0 U0 2.506697 1_555
O1 U1 2.506697 1_555
O2 U2 2.506697 1_555
O3 U3 2.506697 1_555
O4 Pb2 2.793848 1_555
O5 Pb3 2.793848 1_455
O6 Pb0 2.793848 1_555
O7 Pb1 2.793848 1_655
O8 Pb0 2.664622 1_555
O9 Pb1 2.664620 1_555
O10 Pb2 2.664620 1_555
O11 Pb3 2.664622 1_555
O12 U0 2.555205 1_455
O12 U5 2.694259 1_555
O13 U1 2.555205 1_555
O13 U4 2.694259 1_555
O14 U2 2.555205 1_655
O14 U7 2.694259 1_555
O15 U3 2.555205 1_555
O15 U6 2.694259 1_555
O16 U0 2.301959 1_555
O17 U1 2.301959 1_555
O18 U2 2.301959 1_555
O19 U3 2.301959 1_555
O20 Pb0 2.547839 1_565
O21 Pb1 2.547839 1_645
O22 Pb2 2.547839 1_545
O23 Pb3 2.547839 1_465
O24 U0 1.863079 1_555
O24 Pb0 2.835782 1_555
O25 U1 1.863079 1_555
O25 Pb1 2.835782 1_555
O26 U2 1.863079 1_555
O26 Pb2 2.835782 1_555
O27 U3 1.863079 1_555
O27 Pb3 2.835782 1_555
O28 U0 1.872403 1_555
O28 Pb0 2.549765 1_565
O29 U1 1.872403 1_555
O29 Pb1 2.549765 1_545
O30 U2 1.872403 1_555
O30 Pb2 2.549765 1_545
O31 U3 1.872403 1_555
O31 Pb3 2.549765 1_565
O32 U0 2.209017 1_555
O32 U5 2.257121 1_555
O32 U4 2.405177 1_555
O33 U1 2.209017 1_555
O33 U4 2.257121 1_455
O33 U5 2.405177 1_555
O34 U2 2.209017 1_555
O34 U7 2.257121 1_555
O34 U6 2.405177 1_555
O35 U3 2.209017 1_555
O35 U6 2.257121 1_655
O35 U7 2.405177 1_555
O36 U4 1.871323 1_555
O36 Pb0 2.664123 1_555
O37 U5 1.871323 1_555
O37 Pb1 2.664123 1_555
O38 U6 1.871323 1_555
O38 Pb2 2.664123 1_555
O39 U7 1.871323 1_555
O39 Pb3 2.664123 1_555
O40 U4 1.861530 1_555
O40 Pb1 2.766150 1_655
O41 U5 1.861530 1_555
O41 Pb0 2.766150 1_555
O42 U6 1.861530 1_555
O42 Pb3 2.766150 1_455
O43 U7 1.861530 1_555
O43 Pb2 2.766150 1_555
O44 U0 2.189408 1_555
O44 U4 2.246307 1_555
O44 U5 2.260826 1_655
O45 U1 2.189408 1_555
O45 U5 2.246307 1_555
O45 U4 2.260826 1_555
O46 U2 2.189408 1_555
O46 U6 2.246307 1_555
O46 U7 2.260826 1_455
O47 U3 2.189408 1_555
O47 U7 2.246307 1_555
O47 U6 2.260826 1_555
O48 Pb0 2.606041 1_555
O49 Pb1 2.606041 1_555
O50 Pb2 2.606061 1_555
O51 Pb3 2.606041 1_555
