# generated using pymatgen
data_KNaTiH2O3F4
_symmetry_space_group_name_H-M   'P 1'
_cell_length_a   5.86871700
_cell_length_b   10.51218500
_cell_length_c   10.83969916
_cell_angle_alpha   73.55574737
_cell_angle_beta   90.00000000
_cell_angle_gamma   90.00000000
_symmetry_Int_Tables_number   1
_chemical_formula_structural   KNaTiH2O3F4
_chemical_formula_sum   'K4 Na4 Ti4 H8 O12 F16'
_cell_volume   641.37983299
_cell_formula_units_Z   4
loop_
 _symmetry_equiv_pos_site_id
 _symmetry_equiv_pos_as_xyz
  1  'x, y, z'
loop_
 _atom_site_type_symbol
 _atom_site_label
 _atom_site_symmetry_multiplicity
 _atom_site_fract_x
 _atom_site_fract_y
 _atom_site_fract_z
 _atom_site_occupancy
  K  K0  1  0.96065500  0.60507700  0.33341600  1
  K  K1  1  0.03934500  0.39492300  0.66658400  1
  K  K2  1  0.46065500  0.89492300  0.66658400  1
  K  K3  1  0.53934500  0.10507700  0.33341600  1
  Na  Na0  1  0.48672400  0.78644200  0.06666600  1
  Na  Na1  1  0.51327600  0.21355800  0.93333400  1
  Na  Na2  1  0.98672400  0.71355800  0.93333400  1
  Na  Na3  1  0.01327600  0.28644200  0.06666600  1
  Ti  Ti0  1  0.94525600  0.96068100  0.16138100  1
  Ti  Ti1  1  0.05474400  0.03931900  0.83861900  1
  Ti  Ti2  1  0.44525600  0.53931900  0.83861900  1
  Ti  Ti3  1  0.55474400  0.46068100  0.16138100  1
  H  H0  1  0.95187100  0.78575600  0.49481300  1
  H  H1  1  0.04812900  0.21424400  0.50518700  1
  H  H2  1  0.45187100  0.71424400  0.50518700  1
  H  H3  1  0.54812900  0.28575600  0.49481300  1
  H  H4  1  0.99174800  0.69458900  0.63362300  1
  H  H5  1  0.00825200  0.30541100  0.36637700  1
  H  H6  1  0.49174800  0.80541100  0.36637700  1
  H  H7  1  0.50825200  0.19458900  0.63362300  1
  O  O0  1  0.94074500  0.95955700  0.33613200  1
  O  O1  1  0.05925500  0.04044300  0.66386800  1
  O  O2  1  0.44074500  0.54044300  0.66386800  1
  O  O3  1  0.55925500  0.45955700  0.33613200  1
  O  O4  1  0.91808400  0.69691700  0.55167000  1
  O  O5  1  0.08191600  0.30308300  0.44833000  1
  O  O6  1  0.41808400  0.80308300  0.44833000  1
  O  O7  1  0.58191600  0.19691700  0.55167000  1
  O  O8  1  0.88398600  0.95341700  0.73835200  1
  O  O9  1  0.11601400  0.04658300  0.26164800  1
  O  O10  1  0.38398600  0.54658300  0.26164800  1
  O  O11  1  0.61601400  0.45341700  0.73835200  1
  F  F0  1  0.68744700  0.83804600  0.22143100  1
  F  F1  1  0.31255300  0.16195400  0.77856900  1
  F  F2  1  0.18744700  0.66195400  0.77856900  1
  F  F3  1  0.81255300  0.33804600  0.22143100  1
  F  F4  1  0.76993100  0.60590200  0.10574800  1
  F  F5  1  0.23006900  0.39409800  0.89425200  1
  F  F6  1  0.26993100  0.89409800  0.89425200  1
  F  F7  1  0.73006900  0.10590200  0.10574800  1
  F  F8  1  0.14289600  0.81605400  0.16899900  1
  F  F9  1  0.85710400  0.18394600  0.83100100  1
  F  F10  1  0.64289600  0.68394600  0.83100100  1
  F  F11  1  0.35710400  0.31605400  0.16899900  1
  F  F12  1  0.34634400  0.57717800  0.01792800  1
  F  F13  1  0.65365600  0.42282200  0.98207200  1
  F  F14  1  0.84634400  0.92282200  0.98207200  1
  F  F15  1  0.15365600  0.07717800  0.01792800  1
loop_
_geom_bond_atom_site_label_1
_geom_bond_atom_site_label_2
_geom_bond_distance
_geom_bond_site_symmetry_2
K0 O10 2.725146 1_655
K0 O3 2.804423 1_555
K0 O4 2.807968 1_555
K1 O11 2.725146 1_455
K1 O2 2.804423 1_555
K1 O5 2.807968 1_555
K2 O8 2.725146 1_555
K2 O1 2.804423 1_565
K2 O6 2.807968 1_555
K3 O9 2.725146 1_555
K3 O0 2.804423 1_545
K3 O7 2.807968 1_555
Na0 O10 2.858512 1_555
Na1 O11 2.858512 1_555
Na2 O8 2.858512 1_555
Na3 O9 2.858512 1_555
H0 O4 0.982571 1_555
H1 O5 0.982571 1_555
H2 O6 0.982571 1_555
H3 O7 0.982571 1_555
H4 O4 0.982010 1_555
H5 O5 0.982010 1_555
H6 O6 0.982010 1_555
H7 O7 0.982010 1_555
O0 O9 1.458984 1_665
O0 Ti0 1.891123 1_555
O1 O8 1.458984 1_445
O1 Ti1 1.891123 1_555
O2 Ti2 1.891123 1_555
O3 Ti3 1.891123 1_555
O8 Ti1 1.885907 1_665
O9 Ti0 1.885907 1_445
O10 O3 1.458984 1_555
O10 Ti3 1.885907 1_555
O11 O2 1.458984 1_555
O11 Ti2 1.885907 1_555
F0 Ti0 1.974776 1_555
F0 Na0 2.238644 1_555
F0 K0 2.891177 1_555
F1 Ti1 1.974776 1_555
F1 Na1 2.238644 1_555
F1 K1 2.891177 1_555
F2 Ti2 1.974776 1_555
F2 Na2 2.238644 1_455
F2 K2 2.891177 1_555
F3 Ti3 1.974776 1_555
F3 Na3 2.238644 1_655
F3 K3 2.891177 1_555
F4 Ti3 1.941075 1_555
F4 Na2 2.279224 1_554
F4 Na0 2.467514 1_555
F4 K0 2.707600 1_555
F5 Ti2 1.941075 1_555
F5 Na3 2.279224 1_556
F5 Na1 2.467514 1_555
F5 K1 2.707600 1_555
F6 Ti1 1.941075 1_565
F6 Na0 2.279224 1_556
F6 Na2 2.467514 1_455
F6 K2 2.707600 1_555
F7 Ti0 1.941075 1_545
F7 Na1 2.279224 1_554
F7 Na3 2.467514 1_655
F7 K3 2.707600 1_555
F8 Ti0 1.895401 1_455
F8 Na0 2.365266 1_555
F8 K0 2.645963 1_455
F9 Ti1 1.895401 1_655
F9 Na1 2.365266 1_555
F9 K1 2.645963 1_655
F10 Ti2 1.895401 1_555
F10 Na2 2.365266 1_555
F10 K2 2.645963 1_555
F11 Ti3 1.895401 1_555
F11 Na3 2.365266 1_555
F11 K3 2.645963 1_555
F12 Ti3 2.082164 1_555
F12 Ti2 2.170507 1_554
F12 Na0 2.540676 1_555
F12 Na2 2.570243 1_454
F13 Ti2 2.082164 1_555
F13 Ti3 2.170507 1_556
F13 Na1 2.540676 1_555
F13 Na3 2.570243 1_656
F14 Ti1 2.082164 1_665
F14 Ti0 2.170507 1_556
F14 Na2 2.540676 1_555
F14 Na0 2.570243 1_556
F15 Ti0 2.082164 1_445
F15 Ti1 2.170507 1_554
F15 Na3 2.540676 1_555
F15 Na1 2.570243 1_554
