# generated using pymatgen
data_Gd2ScNbO7
_symmetry_space_group_name_H-M   'P 1'
_cell_length_a   7.43226465
_cell_length_b   7.43226465
_cell_length_c   7.43226465
_cell_angle_alpha   120.57262681
_cell_angle_beta   119.40253256
_cell_angle_gamma   90.02449978
_symmetry_Int_Tables_number   1
_chemical_formula_structural   Gd2ScNbO7
_chemical_formula_sum   'Gd4 Sc2 Nb2 O14'
_cell_volume   290.31762482
_cell_formula_units_Z   2
loop_
 _symmetry_equiv_pos_site_id
 _symmetry_equiv_pos_as_xyz
  1  'x, y, z'
loop_
 _atom_site_type_symbol
 _atom_site_label
 _atom_site_symmetry_multiplicity
 _atom_site_fract_x
 _atom_site_fract_y
 _atom_site_fract_z
 _atom_site_occupancy
  Gd  Gd0  1  0.00000000  0.50000000  0.00000000  1
  Gd  Gd1  1  0.00000000  0.00000000  0.50000000  1
  Gd  Gd2  1  0.00000000  0.50000000  0.50000000  1
  Gd  Gd3  1  0.50000000  0.50000000  0.00000000  1
  Sc  Sc0  1  0.50000000  0.00000000  0.00000000  1
  Sc  Sc1  1  0.50000000  0.50000000  0.50000000  1
  Nb  Nb0  1  0.50000000  0.00000000  0.50000000  1
  Nb  Nb1  1  0.00000000  0.00000000  0.00000000  1
  O  O0  1  0.87851500  0.62851500  0.25000000  1
  O  O1  1  0.12148500  0.37148500  0.75000000  1
  O  O2  1  0.82315100  0.07315100  0.75000000  1
  O  O3  1  0.40205900  0.65205900  0.75000000  1
  O  O4  1  0.84169600  0.67305400  0.76533900  1
  O  O5  1  0.40771500  0.07635800  0.73466100  1
  O  O6  1  0.84169600  0.07635800  0.16864200  1
  O  O7  1  0.40771500  0.67305400  0.33135800  1
  O  O8  1  0.17684900  0.92684900  0.25000000  1
  O  O9  1  0.59794100  0.34794100  0.25000000  1
  O  O10  1  0.15830400  0.32694600  0.23466100  1
  O  O11  1  0.59228500  0.92364200  0.26533900  1
  O  O12  1  0.15830400  0.92364200  0.83135800  1
  O  O13  1  0.59228500  0.32694600  0.66864200  1
loop_
_geom_bond_atom_site_label_1
_geom_bond_atom_site_label_2
_geom_bond_distance
_geom_bond_site_symmetry_2
Gd0 O0 2.241118 1_455
Gd0 O1 2.241118 1_554
Gd0 O13 2.519660 1_454
Gd0 O7 2.519660 1_555
Gd0 O10 2.519660 1_555
Gd0 O4 2.519660 1_454
Gd0 O8 2.616597 1_555
Gd0 O2 2.616597 1_454
Gd1 O0 2.241118 1_445
Gd1 O1 2.241118 1_555
Gd1 O5 2.519659 1_555
Gd1 O11 2.519659 1_445
Gd1 O6 2.519666 1_455
Gd1 O12 2.519666 1_545
Gd1 O8 2.616597 1_545
Gd1 O2 2.616597 1_455
Gd2 O1 2.310589 1_555
Gd2 O0 2.310589 1_455
Gd2 O3 2.463393 1_555
Gd2 O9 2.463393 1_455
Gd2 O12 2.574272 1_555
Gd2 O6 2.574272 1_455
Gd2 O4 2.574278 1_455
Gd2 O10 2.574278 1_555
Gd3 O1 2.310589 1_554
Gd3 O0 2.310589 1_555
Gd3 O9 2.463393 1_555
Gd3 O3 2.463393 1_554
Gd3 O11 2.574271 1_555
Gd3 O5 2.574271 1_554
Gd3 O7 2.574278 1_555
Gd3 O13 2.574278 1_554
Nb0 O11 2.000574 1_545
Nb0 O5 2.000574 1_555
Nb0 O7 2.000575 1_545
Nb0 O13 2.000575 1_555
Nb0 O8 2.026295 1_545
Nb0 O2 2.026295 1_555
Nb1 O12 2.000575 1_544
Nb1 O6 2.000575 1_455
Nb1 O4 2.000575 1_444
Nb1 O10 2.000575 1_555
Nb1 O8 2.026295 1_545
Nb1 O2 2.026295 1_454
O3 Sc0 2.110003 1_566
O3 Sc1 2.110003 1_555
O4 Sc1 2.119495 1_555
O5 Sc0 2.119500 1_556
O6 Sc0 2.119495 1_555
O7 Sc1 2.119495 1_555
O9 Sc1 2.110003 1_555
O9 Sc0 2.110003 1_555
O10 Sc1 2.119495 1_555
O11 Sc0 2.119500 1_565
O12 Sc0 2.119495 1_566
O13 Sc1 2.119495 1_555
