# generated using pymatgen
data_Hf2Be17
_symmetry_space_group_name_H-M   'P 1'
_cell_length_a   7.46450661
_cell_length_b   7.46450661
_cell_length_c   7.28314380
_cell_angle_alpha   90.00000000
_cell_angle_beta   90.00000000
_cell_angle_gamma   119.99999758
_symmetry_Int_Tables_number   1
_chemical_formula_structural   Hf2Be17
_chemical_formula_sum   'Hf4 Be34'
_cell_volume   351.44044544
_cell_formula_units_Z   2
loop_
 _symmetry_equiv_pos_site_id
 _symmetry_equiv_pos_as_xyz
  1  'x, y, z'
loop_
 _atom_site_type_symbol
 _atom_site_label
 _atom_site_symmetry_multiplicity
 _atom_site_fract_x
 _atom_site_fract_y
 _atom_site_fract_z
 _atom_site_occupancy
  Hf  Hf0  1  0.00000000  0.00000000  0.25000000  1
  Hf  Hf1  1  0.00000000  0.00000000  0.75000000  1
  Hf  Hf2  1  0.33333300  0.66666700  0.75000000  1
  Hf  Hf3  1  0.66666700  0.33333300  0.25000000  1
  Be  Be0  1  0.33333300  0.66666700  0.39446600  1
  Be  Be1  1  0.66666700  0.33333300  0.60553400  1
  Be  Be2  1  0.66666700  0.33333300  0.89446600  1
  Be  Be3  1  0.33333300  0.66666700  0.10553400  1
  Be  Be4  1  0.50000000  0.50000000  0.50000000  1
  Be  Be5  1  0.50000000  0.00000000  0.50000000  1
  Be  Be6  1  0.00000000  0.50000000  0.50000000  1
  Be  Be7  1  0.50000000  0.50000000  0.00000000  1
  Be  Be8  1  0.50000000  0.00000000  0.00000000  1
  Be  Be9  1  0.00000000  0.50000000  0.00000000  1
  Be  Be10  1  0.33067986  0.37658499  0.25000000  1
  Be  Be11  1  0.62341501  0.95409387  0.25000000  1
  Be  Be12  1  0.04590613  0.66932014  0.25000000  1
  Be  Be13  1  0.62341501  0.66932014  0.25000000  1
  Be  Be14  1  0.04590613  0.37658499  0.25000000  1
  Be  Be15  1  0.33067986  0.95409387  0.25000000  1
  Be  Be16  1  0.66932014  0.62341501  0.75000000  1
  Be  Be17  1  0.37658499  0.04590613  0.75000000  1
  Be  Be18  1  0.95409387  0.33067986  0.75000000  1
  Be  Be19  1  0.37658499  0.33067986  0.75000000  1
  Be  Be20  1  0.95409387  0.62341501  0.75000000  1
  Be  Be21  1  0.66932014  0.04590613  0.75000000  1
  Be  Be22  1  0.16497335  0.83502665  0.51299958  1
  Be  Be23  1  0.16497335  0.32994671  0.51299958  1
  Be  Be24  1  0.67005329  0.83502665  0.51299958  1
  Be  Be25  1  0.83502665  0.16497335  0.48700042  1
  Be  Be26  1  0.83502665  0.67005329  0.48700042  1
  Be  Be27  1  0.32994671  0.16497335  0.48700042  1
  Be  Be28  1  0.83502665  0.16497335  0.01299958  1
  Be  Be29  1  0.83502665  0.67005329  0.01299958  1
  Be  Be30  1  0.32994671  0.16497335  0.01299958  1
  Be  Be31  1  0.16497335  0.83502665  0.98700042  1
  Be  Be32  1  0.16497335  0.32994671  0.98700042  1
  Be  Be33  1  0.67005329  0.83502665  0.98700042  1
loop_
_geom_bond_atom_site_label_1
_geom_bond_atom_site_label_2
_geom_bond_distance
_geom_bond_site_symmetry_2
Be0 Be3 2.104333 1_555
Be0 Be5 2.287795 1_565
Be0 Be6 2.287795 1_555
Be0 Be4 2.287801 1_555
Be0 Be22 2.341651 1_555
Be0 Be24 2.341657 1_555
Be0 Be23 2.341657 1_555
Be0 Be12 2.398563 1_555
Be0 Be15 2.398563 1_555
Be0 Be11 2.398570 1_555
Be0 Be14 2.398570 1_555
Be0 Be10 2.398577 1_555
Be0 Be13 2.398577 1_555
Be0 Hf2 2.589405 1_555
Be1 Be2 2.104333 1_555
Be1 Be5 2.287795 1_555
Be1 Be6 2.287795 1_655
Be1 Be4 2.287801 1_555
Be1 Be25 2.341651 1_555
Be1 Be26 2.341657 1_555
Be1 Be27 2.341657 1_555
Be1 Be21 2.398563 1_555
Be1 Be18 2.398563 1_555
Be1 Be17 2.398570 1_555
Be1 Be20 2.398570 1_555
Be1 Be19 2.398577 1_555
Be1 Be16 2.398577 1_555
Be1 Hf3 2.589405 1_555
Be2 Be9 2.287795 1_656
Be2 Be8 2.287795 1_556
Be2 Be7 2.287801 1_556
Be2 Be28 2.341651 1_556
Be2 Be29 2.341657 1_556
Be2 Be30 2.341657 1_556
Be2 Be21 2.398563 1_555
Be2 Be20 2.398570 1_555
Be2 Hf3 2.589405 1_556
Be3 Be9 2.287795 1_555
Be3 Be8 2.287795 1_565
Be3 Be7 2.287801 1_555
Be3 Be31 2.341651 1_554
Be3 Be33 2.341657 1_554
Be3 Be32 2.341657 1_554
Be3 Hf2 2.589405 1_554
Be4 Hf3 2.821085 1_555
Be4 Hf2 2.821085 1_555
Be5 Hf3 2.821080 1_555
Be5 Hf2 2.821080 1_545
Be6 Hf3 2.821080 1_455
Be6 Hf2 2.821080 1_555
Be7 Hf3 2.821085 1_555
Be7 Hf2 2.821085 1_554
Be8 Hf2 2.821080 1_544
Be8 Hf3 2.821080 1_555
Be9 Hf2 2.821080 1_554
Be9 Hf3 2.821080 1_455
Be10 Be14 2.125695 1_555
Be10 Be4 2.144065 1_555
Be10 Be7 2.144065 1_555
Be10 Be13 2.185124 1_555
Be10 Be32 2.211233 1_554
Be10 Be23 2.211233 1_555
Be10 Be27 2.337926 1_555
Be10 Be30 2.337926 1_555
Be10 Be3 2.398577 1_555
Be10 Hf0 2.656320 1_555
Be10 Hf3 2.684009 1_555
Be11 Be13 2.125695 1_555
Be11 Be8 2.144068 1_565
Be11 Be5 2.144068 1_565
Be11 Be15 2.185123 1_555
Be11 Be33 2.211229 1_554
Be11 Be24 2.211229 1_555
Be11 Be25 2.337928 1_565
Be11 Be28 2.337928 1_565
Be11 Be3 2.398570 1_555
Be11 Hf0 2.656316 1_665
Be11 Hf3 2.684009 1_565
Be12 Be15 2.125695 1_555
Be12 Be6 2.144064 1_555
Be12 Be9 2.144064 1_555
Be12 Be14 2.185123 1_555
Be12 Be22 2.211232 1_555
Be12 Be31 2.211232 1_554
Be12 Be29 2.337931 1_455
Be12 Be26 2.337931 1_455
Be12 Be3 2.398563 1_555
Be12 Hf0 2.656324 1_565
Be12 Hf3 2.684009 1_455
Be13 Be4 2.144065 1_555
Be13 Be7 2.144065 1_555
Be13 Be24 2.211233 1_555
Be13 Be33 2.211233 1_554
Be13 Be26 2.337926 1_555
Be13 Be29 2.337926 1_555
Be13 Be3 2.398577 1_555
Be13 Hf0 2.656320 1_665
Be13 Hf3 2.684009 1_555
Be14 Be6 2.144068 1_555
Be14 Be9 2.144068 1_555
Be14 Be32 2.211229 1_554
Be14 Be23 2.211229 1_555
Be14 Be28 2.337928 1_455
Be14 Be25 2.337928 1_455
Be14 Be3 2.398570 1_555
Be14 Hf0 2.656316 1_555
Be14 Hf3 2.684009 1_455
Be15 Be8 2.144064 1_565
Be15 Be5 2.144064 1_565
Be15 Be22 2.211232 1_555
Be15 Be31 2.211232 1_554
Be15 Be30 2.337931 1_565
Be15 Be27 2.337931 1_565
Be15 Be3 2.398563 1_555
Be15 Hf0 2.656324 1_565
Be15 Hf3 2.684009 1_565
Be16 Be20 2.125695 1_555
Be16 Be7 2.144065 1_556
Be16 Be4 2.144065 1_555
Be16 Be19 2.185124 1_555
Be16 Be26 2.211233 1_555
Be16 Be29 2.211233 1_556
Be16 Be24 2.337926 1_555
Be16 Be33 2.337926 1_555
Be16 Be2 2.398577 1_555
Be16 Hf1 2.656320 1_665
Be16 Hf2 2.684009 1_555
Be17 Be19 2.125695 1_555
Be17 Be8 2.144068 1_556
Be17 Be5 2.144068 1_555
Be17 Be21 2.185123 1_555
Be17 Be27 2.211229 1_555
Be17 Be30 2.211229 1_556
Be17 Be22 2.337928 1_545
Be17 Be31 2.337928 1_545
Be17 Be2 2.398570 1_555
Be17 Hf1 2.656316 1_555
Be17 Hf2 2.684009 1_545
Be18 Be21 2.125695 1_555
Be18 Be6 2.144064 1_655
Be18 Be9 2.144064 1_656
Be18 Be20 2.185123 1_555
Be18 Be25 2.211232 1_555
Be18 Be28 2.211232 1_556
Be18 Be32 2.337931 1_655
Be18 Be23 2.337931 1_655
Be18 Be2 2.398563 1_555
Be18 Hf1 2.656324 1_655
Be18 Hf2 2.684009 1_655
Be19 Be7 2.144065 1_556
Be19 Be4 2.144065 1_555
Be19 Be30 2.211233 1_556
Be19 Be27 2.211233 1_555
Be19 Be23 2.337926 1_555
Be19 Be32 2.337926 1_555
Be19 Be2 2.398577 1_555
Be19 Hf1 2.656320 1_555
Be19 Hf2 2.684009 1_555
Be20 Be6 2.144068 1_655
Be20 Be9 2.144068 1_656
Be20 Be26 2.211229 1_555
Be20 Be29 2.211229 1_556
Be20 Be31 2.337928 1_655
Be20 Be22 2.337928 1_655
Be20 Hf1 2.656316 1_665
Be20 Hf2 2.684009 1_655
Be21 Be8 2.144064 1_556
Be21 Be5 2.144064 1_555
Be21 Be25 2.211232 1_555
Be21 Be28 2.211232 1_556
Be21 Be24 2.337931 1_545
Be21 Be33 2.337931 1_545
Be21 Hf1 2.656324 1_655
Be21 Hf2 2.684009 1_545
Be22 Be27 2.141314 1_565
Be22 Be26 2.141314 1_455
Be22 Be6 2.167915 1_555
Be22 Be5 2.167915 1_565
Be22 Hf1 2.743869 1_565
Be22 Hf2 2.778038 1_555
Be22 Hf0 2.866770 1_565
Be23 Be25 2.141314 1_455
Be23 Be27 2.141314 1_555
Be23 Be6 2.167915 1_555
Be23 Be4 2.167915 1_555
Be23 Hf1 2.743869 1_555
Be23 Hf2 2.778044 1_555
Be23 Hf0 2.866770 1_555
Be24 Be25 2.141314 1_565
Be24 Be26 2.141314 1_555
Be24 Be5 2.167915 1_565
Be24 Be4 2.167915 1_555
Be24 Hf1 2.743869 1_665
Be24 Hf2 2.778044 1_555
Be24 Hf0 2.866770 1_665
Be25 Be6 2.167915 1_655
Be25 Be5 2.167915 1_555
Be25 Hf0 2.743869 1_655
Be25 Hf3 2.778038 1_555
Be25 Hf1 2.866770 1_655
Be26 Be6 2.167915 1_655
Be26 Be4 2.167915 1_555
Be26 Hf0 2.743869 1_665
Be26 Hf3 2.778044 1_555
Be26 Hf1 2.866770 1_665
Be27 Be5 2.167915 1_555
Be27 Be4 2.167915 1_555
Be27 Hf0 2.743869 1_555
Be27 Hf3 2.778044 1_555
Be27 Hf1 2.866770 1_555
Be28 Be32 2.141314 1_654
Be28 Be33 2.141314 1_544
Be28 Be9 2.167915 1_655
Be28 Be8 2.167915 1_555
Be28 Hf0 2.743869 1_655
Be28 Hf3 2.778038 1_555
Be28 Hf1 2.866770 1_654
Be29 Be31 2.141314 1_654
Be29 Be33 2.141314 1_554
Be29 Be9 2.167915 1_655
Be29 Be7 2.167915 1_555
Be29 Hf0 2.743869 1_665
Be29 Hf3 2.778044 1_555
Be29 Hf1 2.866770 1_664
Be30 Be31 2.141314 1_544
Be30 Be32 2.141314 1_554
Be30 Be8 2.167915 1_555
Be30 Be7 2.167915 1_555
Be30 Hf0 2.743869 1_555
Be30 Hf3 2.778044 1_555
Be30 Hf1 2.866770 1_554
Be31 Be9 2.167915 1_556
Be31 Be8 2.167915 1_566
Be31 Hf1 2.743869 1_565
Be31 Hf2 2.778038 1_555
Be31 Hf0 2.866770 1_566
Be32 Be9 2.167915 1_556
Be32 Be7 2.167915 1_556
Be32 Hf1 2.743869 1_555
Be32 Hf2 2.778044 1_555
Be32 Hf0 2.866770 1_556
Be33 Be8 2.167915 1_566
Be33 Be7 2.167915 1_556
Be33 Hf1 2.743869 1_665
Be33 Hf2 2.778044 1_555
Be33 Hf0 2.866770 1_666
