# generated using pymatgen
data_Ba4Si22Au
_symmetry_space_group_name_H-M   'P 1'
_cell_length_a   10.42721516
_cell_length_b   10.42721516
_cell_length_c   10.50456400
_cell_angle_alpha   90.00000000
_cell_angle_beta   90.00000000
_cell_angle_gamma   90.01281415
_symmetry_Int_Tables_number   1
_chemical_formula_structural   Ba4Si22Au
_chemical_formula_sum   'Ba8 Si44 Au2'
_cell_volume   1142.12776780
_cell_formula_units_Z   2
loop_
 _symmetry_equiv_pos_site_id
 _symmetry_equiv_pos_as_xyz
  1  'x, y, z'
loop_
 _atom_site_type_symbol
 _atom_site_label
 _atom_site_symmetry_multiplicity
 _atom_site_fract_x
 _atom_site_fract_y
 _atom_site_fract_z
 _atom_site_occupancy
  Ba  Ba0  1  0.50251400  0.99850100  0.25000000  1
  Ba  Ba1  1  0.99850100  0.50251400  0.75000000  1
  Ba  Ba2  1  0.74176600  0.99014000  0.75000000  1
  Ba  Ba3  1  0.99014000  0.74176600  0.25000000  1
  Ba  Ba4  1  0.51082200  0.51082200  0.50000000  1
  Ba  Ba5  1  0.25563300  0.99176100  0.75000000  1
  Ba  Ba6  1  0.99176100  0.25563300  0.25000000  1
  Ba  Ba7  1  0.51082200  0.51082200  0.00000000  1
  Si  Si0  1  0.68492400  0.81811600  0.43586200  1
  Si  Si1  1  0.31328300  0.18533100  0.06611400  1
  Si  Si2  1  0.31328300  0.18533100  0.43388600  1
  Si  Si3  1  0.68492400  0.81811600  0.06413800  1
  Si  Si4  1  0.68310000  0.18498900  0.06365200  1
  Si  Si5  1  0.31320300  0.81728000  0.43569400  1
  Si  Si6  1  0.31320300  0.81728000  0.06430600  1
  Si  Si7  1  0.68310000  0.18498900  0.43634800  1
  Si  Si8  1  0.81811600  0.68492400  0.93586200  1
  Si  Si9  1  0.18533100  0.31328300  0.56611400  1
  Si  Si10  1  0.18533100  0.31328300  0.93388600  1
  Si  Si11  1  0.81811600  0.68492400  0.56413800  1
  Si  Si12  1  0.18498900  0.68310000  0.56365200  1
  Si  Si13  1  0.81728000  0.31320300  0.93569400  1
  Si  Si14  1  0.81728000  0.31320300  0.56430600  1
  Si  Si15  1  0.18498900  0.68310000  0.93634800  1
  Si  Si16  1  0.49832200  0.88286500  0.55454900  1
  Si  Si17  1  0.80738300  0.00193600  0.37236000  1
  Si  Si18  1  0.61953600  0.69912800  0.25000000  1
  Si  Si19  1  0.49678200  0.11991400  0.94431900  1
  Si  Si20  1  0.19017100  0.00099400  0.13204700  1
  Si  Si21  1  0.38008400  0.30596800  0.25000000  1
  Si  Si22  1  0.49678200  0.11991400  0.55568100  1
  Si  Si23  1  0.19017100  0.00099400  0.36795300  1
  Si  Si24  1  0.49832200  0.88286500  0.94545100  1
  Si  Si25  1  0.80738300  0.00193600  0.12764000  1
  Si  Si26  1  0.61703600  0.30315800  0.25000000  1
  Si  Si27  1  0.37931600  0.69753500  0.25000000  1
  Si  Si28  1  0.88286500  0.49832200  0.05454900  1
  Si  Si29  1  0.00193600  0.80738300  0.87236000  1
  Si  Si30  1  0.69912800  0.61953600  0.75000000  1
  Si  Si31  1  0.11991400  0.49678200  0.44431900  1
  Si  Si32  1  0.00099400  0.19017100  0.63204700  1
  Si  Si33  1  0.30596800  0.38008400  0.75000000  1
  Si  Si34  1  0.11991400  0.49678200  0.05568100  1
  Si  Si35  1  0.00099400  0.19017100  0.86795300  1
  Si  Si36  1  0.88286500  0.49832200  0.44545100  1
  Si  Si37  1  0.00193600  0.80738300  0.62764000  1
  Si  Si38  1  0.30315800  0.61703600  0.75000000  1
  Si  Si39  1  0.69753500  0.37931600  0.75000000  1
  Si  Si40  1  0.99830500  0.99830500  0.50000000  1
  Si  Si41  1  0.25035300  0.50246200  0.25000000  1
  Si  Si42  1  0.50246200  0.25035300  0.75000000  1
  Si  Si43  1  0.99830500  0.99830500  0.00000000  1
  Au  Au0  1  0.74917800  0.50049400  0.25000000  1
  Au  Au1  1  0.50049400  0.74917800  0.75000000  1
loop_
_geom_bond_atom_site_label_1
_geom_bond_atom_site_label_2
_geom_bond_distance
_geom_bond_site_symmetry_2
Ba0 Si3 3.311949 1_555
Ba0 Si0 3.311949 1_555
Ba0 Si7 3.340237 1_565
Ba0 Si4 3.340237 1_565
Ba0 Si18 3.351892 1_555
Ba0 Si6 3.357176 1_555
Ba0 Si5 3.357176 1_555
Ba0 Si2 3.379564 1_565
Ba0 Si1 3.379564 1_565
Ba0 Si27 3.390716 1_555
Ba0 Si26 3.393503 1_565
Ba0 Si24 3.419113 1_554
Ba0 Si16 3.419113 1_555
Ba0 Si25 3.429133 1_565
Ba0 Si17 3.429133 1_565
Ba0 Si21 3.451107 1_565
Ba0 Si19 3.452126 1_564
Ba0 Si22 3.452126 1_565
Ba0 Si23 3.484700 1_565
Ba0 Si20 3.484700 1_565
Ba1 Si8 3.311949 1_555
Ba1 Si11 3.311949 1_555
Ba1 Si15 3.340237 1_655
Ba1 Si12 3.340237 1_655
Ba1 Si30 3.351892 1_555
Ba1 Si13 3.357176 1_555
Ba1 Si14 3.357176 1_555
Ba1 Si10 3.379564 1_655
Ba1 Si9 3.379564 1_655
Ba1 Si39 3.390716 1_555
Ba1 Si38 3.393503 1_655
Ba1 Si28 3.419113 1_556
Ba1 Si36 3.419113 1_555
Ba1 Si37 3.429133 1_655
Ba1 Si29 3.429133 1_655
Ba1 Si33 3.451107 1_655
Ba1 Si31 3.452126 1_655
Ba1 Si34 3.452126 1_656
Ba1 Si35 3.484700 1_655
Ba1 Si32 3.484700 1_655
Ba2 Si24 3.450938 1_555
Ba2 Si16 3.450938 1_555
Ba2 Si22 3.539035 1_565
Ba2 Si19 3.539035 1_565
Ba2 Si29 3.556043 1_655
Ba2 Si37 3.556043 1_655
Ba2 Si32 3.631733 1_665
Ba2 Si35 3.631733 1_665
Ba2 Si42 3.686652 1_565
Ba2 Si43 3.749576 1_556
Ba2 Si40 3.749576 1_555
Ba2 Si0 3.802305 1_555
Ba2 Si3 3.802305 1_556
Ba2 Si8 3.817780 1_555
Ba2 Si11 3.817780 1_555
Ba3 Si28 3.450938 1_555
Ba3 Si36 3.450938 1_555
Ba3 Si31 3.539035 1_655
Ba3 Si34 3.539035 1_655
Ba3 Si17 3.556043 1_565
Ba3 Si25 3.556043 1_565
Ba3 Si20 3.631733 1_665
Ba3 Si23 3.631733 1_665
Ba3 Si41 3.686652 1_655
Ba3 Si40 3.749576 1_555
Ba3 Si43 3.749576 1_555
Ba3 Si11 3.802305 1_555
Ba3 Si8 3.802305 1_554
Ba3 Si0 3.817780 1_555
Ba3 Si3 3.817780 1_555
Ba4 Si18 3.469293 1_555
Ba4 Si30 3.469293 1_555
Ba4 Si27 3.545211 1_555
Ba4 Si39 3.545211 1_555
Ba4 Si38 3.579533 1_555
Ba4 Si26 3.579533 1_555
Ba4 Si33 3.649172 1_555
Ba4 Si21 3.649172 1_555
Ba4 Si0 3.743532 1_555
Ba4 Si11 3.743532 1_555
Ba4 Si42 3.778966 1_555
Ba4 Si41 3.778966 1_555
Ba5 Si16 3.451047 1_555
Ba5 Si24 3.451047 1_555
Ba5 Si22 3.503364 1_565
Ba5 Si19 3.503364 1_565
Ba5 Si37 3.513390 1_555
Ba5 Si29 3.513390 1_555
Ba5 Si35 3.587178 1_565
Ba5 Si32 3.587178 1_565
Ba5 Si42 3.727140 1_565
Ba6 Si36 3.451047 1_555
Ba6 Si28 3.451047 1_555
Ba6 Si34 3.503364 1_655
Ba6 Si31 3.503364 1_655
Ba6 Si25 3.513390 1_555
Ba6 Si17 3.513390 1_555
Ba6 Si23 3.587178 1_655
Ba6 Si20 3.587178 1_655
Ba6 Si41 3.727140 1_655
Ba7 Si18 3.469293 1_555
Ba7 Si30 3.469293 1_554
Ba7 Si27 3.545211 1_555
Ba7 Si39 3.545211 1_554
Ba7 Si26 3.579533 1_555
Ba7 Si38 3.579533 1_554
Ba7 Si21 3.649172 1_555
Ba7 Si33 3.649172 1_554
Ba7 Si3 3.743532 1_555
Ba7 Si8 3.743532 1_554
Ba7 Si42 3.778966 1_554
Ba7 Si41 3.778966 1_555
Si0 Si11 2.382063 1_555
Si0 Si17 2.397545 1_565
Si0 Si16 2.407637 1_555
Si0 Si18 2.411582 1_555
Si1 Si10 2.343117 1_554
Si1 Si19 2.400787 1_554
Si1 Si21 2.407979 1_555
Si1 Si20 2.412688 1_555
Si2 Si9 2.343117 1_555
Si2 Si22 2.400787 1_555
Si2 Si21 2.407979 1_555
Si2 Si23 2.412688 1_555
Si3 Si8 2.382063 1_554
Si10 Si34 2.400787 1_556
Si10 Si33 2.407979 1_555
Si10 Si35 2.412688 1_555
Si11 Si37 2.397545 1_655
Si11 Si36 2.407637 1_555
Si11 Si30 2.411582 1_555
Si12 Si5 2.356008 1_555
Si12 Si37 2.403247 1_555
Si12 Si31 2.409480 1_555
Si12 Si38 2.413501 1_555
Si13 Si4 2.356008 1_556
Si13 Si28 2.398302 1_556
Si13 Si35 2.413061 1_655
Si13 Si39 2.416530 1_555
Si14 Si7 2.356008 1_555
Si14 Si36 2.398302 1_555
Si14 Si32 2.413061 1_655
Si14 Si39 2.416530 1_555
Si15 Si6 2.356008 1_556
Si15 Si29 2.403247 1_555
Si15 Si34 2.409480 1_556
Si15 Si38 2.413501 1_555
Si16 Si5 2.398302 1_555
Si16 Si22 2.471845 1_565
Si17 Si40 2.400509 1_545
Si17 Si7 2.403247 1_555
Si17 Si25 2.570677 1_555
Si18 Si3 2.411582 1_555
Si18 Si27 2.504877 1_555
Si19 Si4 2.409480 1_556
Si19 Si42 2.453575 1_555
Si19 Si24 2.471845 1_545
Si20 Si6 2.413061 1_545
Si20 Si43 2.434607 1_445
Si20 Si23 2.478090 1_555
Si21 Si41 2.455414 1_555
Si21 Si26 2.470930 1_555
Si22 Si7 2.409480 1_555
Si22 Si42 2.453575 1_555
Si23 Si5 2.413061 1_545
Si23 Si40 2.434607 1_445
Si24 Si6 2.398302 1_556
Si24 Si3 2.407637 1_556
Si25 Si3 2.397545 1_545
Si25 Si43 2.400509 1_545
Si25 Si4 2.403247 1_555
Si26 Si7 2.413501 1_555
Si26 Si4 2.413501 1_555
Si27 Si5 2.416530 1_555
Si27 Si6 2.416530 1_555
Si27 Si41 2.438133 1_555
Si28 Si8 2.407637 1_554
Si28 Si34 2.471845 1_655
Si29 Si8 2.397545 1_455
Si29 Si43 2.400509 1_456
Si29 Si37 2.570677 1_555
Si30 Si8 2.411582 1_555
Si30 Si39 2.504877 1_555
Si31 Si9 2.400787 1_555
Si31 Si41 2.453575 1_555
Si31 Si36 2.471845 1_455
Si32 Si9 2.412688 1_555
Si32 Si40 2.434607 1_445
Si32 Si35 2.478090 1_555
Si33 Si9 2.407979 1_555
Si33 Si42 2.455414 1_555
Si33 Si38 2.470930 1_555
Si34 Si41 2.453575 1_555
Si35 Si43 2.434607 1_446
Si37 Si40 2.400509 1_455
Si39 Si42 2.438133 1_555
Au0 Si18 2.473559 1_555
Au0 Si26 2.476136 1_555
Au0 Si36 2.481743 1_555
Au0 Si28 2.481743 1_555
Au0 Ba3 3.555189 1_555
Au0 Ba6 3.594441 1_555
Au0 Ba4 3.617388 1_555
Au0 Ba7 3.617388 1_555
Au1 Si30 2.473559 1_555
Au1 Si38 2.476136 1_555
Au1 Si24 2.481743 1_555
Au1 Si16 2.481743 1_555
Au1 Ba2 3.555189 1_555
Au1 Ba5 3.594441 1_555
Au1 Ba4 3.617388 1_555
Au1 Ba7 3.617388 1_556
