# generated using pymatgen
data_Rb2MgSi5O12
_symmetry_space_group_name_H-M   'P 1'
_cell_length_a   13.63482148
_cell_length_b   13.65839755
_cell_length_c   13.80791487
_cell_angle_alpha   90.00000000
_cell_angle_beta   90.00000000
_cell_angle_gamma   90.00000000
_symmetry_Int_Tables_number   1
_chemical_formula_structural   Rb2MgSi5O12
_chemical_formula_sum   'Rb16 Mg8 Si40 O96'
_cell_volume   2571.44539445
_cell_formula_units_Z   8
loop_
 _symmetry_equiv_pos_site_id
 _symmetry_equiv_pos_as_xyz
  1  'x, y, z'
loop_
 _atom_site_type_symbol
 _atom_site_label
 _atom_site_symmetry_multiplicity
 _atom_site_fract_x
 _atom_site_fract_y
 _atom_site_fract_z
 _atom_site_occupancy
  Rb  Rb0  1  0.64667498  0.15297885  0.35422711  1
  Rb  Rb1  1  0.14667498  0.34702115  0.64577289  1
  Rb  Rb2  1  0.35332502  0.65297885  0.14577289  1
  Rb  Rb3  1  0.85332502  0.84702115  0.85422711  1
  Rb  Rb4  1  0.35332502  0.84702115  0.64577289  1
  Rb  Rb5  1  0.85332502  0.65297885  0.35422711  1
  Rb  Rb6  1  0.64667498  0.34702115  0.85422711  1
  Rb  Rb7  1  0.14667498  0.15297885  0.14577289  1
  Rb  Rb8  1  0.89969137  0.38920864  0.10886963  1
  Rb  Rb9  1  0.39969137  0.11079136  0.89113037  1
  Rb  Rb10  1  0.10030863  0.88920864  0.39113037  1
  Rb  Rb11  1  0.60030863  0.61079136  0.60886963  1
  Rb  Rb12  1  0.10030863  0.61079136  0.89113037  1
  Rb  Rb13  1  0.60030863  0.88920864  0.10886963  1
  Rb  Rb14  1  0.89969137  0.11079136  0.60886963  1
  Rb  Rb15  1  0.39969137  0.38920864  0.39113037  1
  Mg  Mg0  1  0.86861198  0.82860642  0.56493872  1
  Mg  Mg1  1  0.36861198  0.67139358  0.43506128  1
  Mg  Mg2  1  0.13138802  0.32860642  0.93506128  1
  Mg  Mg3  1  0.63138802  0.17139358  0.06493872  1
  Mg  Mg4  1  0.13138802  0.17139358  0.43506128  1
  Mg  Mg5  1  0.63138802  0.32860642  0.56493872  1
  Mg  Mg6  1  0.86861198  0.67139358  0.06493872  1
  Mg  Mg7  1  0.36861198  0.82860642  0.93506128  1
  Si  Si0  1  0.60707882  0.65684294  0.89962131  1
  Si  Si1  1  0.10707882  0.84315706  0.10037869  1
  Si  Si2  1  0.39292118  0.15684294  0.60037869  1
  Si  Si3  1  0.89292118  0.34315706  0.39962131  1
  Si  Si4  1  0.39292118  0.34315706  0.10037869  1
  Si  Si5  1  0.89292118  0.15684294  0.89962131  1
  Si  Si6  1  0.60707882  0.84315706  0.39962131  1
  Si  Si7  1  0.10707882  0.65684294  0.60037869  1
  Si  Si8  1  0.10407003  0.11069635  0.86013286  1
  Si  Si9  1  0.60407003  0.38930365  0.13986714  1
  Si  Si10  1  0.89592997  0.61069635  0.63986714  1
  Si  Si11  1  0.39592997  0.88930365  0.36013286  1
  Si  Si12  1  0.89592997  0.88930365  0.13986714  1
  Si  Si13  1  0.39592997  0.61069635  0.86013286  1
  Si  Si14  1  0.10407003  0.38930365  0.36013286  1
  Si  Si15  1  0.60407003  0.11069635  0.63986714  1
  Si  Si16  1  0.14116020  0.61540682  0.38400810  1
  Si  Si17  1  0.64116020  0.88459318  0.61599190  1
  Si  Si18  1  0.85883980  0.11540682  0.11599190  1
  Si  Si19  1  0.35883980  0.38459318  0.88400810  1
  Si  Si20  1  0.85883980  0.38459318  0.61599190  1
  Si  Si21  1  0.35883980  0.11540682  0.38400810  1
  Si  Si22  1  0.14116020  0.88459318  0.88400810  1
  Si  Si23  1  0.64116020  0.61540682  0.11599190  1
  Si  Si24  1  0.42600871  0.37324544  0.67833286  1
  Si  Si25  1  0.92600871  0.12675456  0.32166714  1
  Si  Si26  1  0.57399129  0.87324544  0.82166714  1
  Si  Si27  1  0.07399129  0.62675456  0.17833286  1
  Si  Si28  1  0.57399129  0.62675456  0.32166714  1
  Si  Si29  1  0.07399129  0.87324544  0.67833286  1
  Si  Si30  1  0.42600871  0.12675456  0.17833286  1
  Si  Si31  1  0.92600871  0.37324544  0.82166714  1
  Si  Si32  1  0.32225093  0.92200110  0.14985898  1
  Si  Si33  1  0.82225093  0.57799890  0.85014102  1
  Si  Si34  1  0.67774907  0.42200110  0.35014102  1
  Si  Si35  1  0.17774907  0.07799890  0.64985898  1
  Si  Si36  1  0.67774907  0.07799890  0.85014102  1
  Si  Si37  1  0.17774907  0.42200110  0.14985898  1
  Si  Si38  1  0.32225093  0.57799890  0.64985898  1
  Si  Si39  1  0.82225093  0.92200110  0.35014102  1
  O  O0  1  0.98308527  0.39361188  0.33836373  1
  O  O1  1  0.48308527  0.10638812  0.66163627  1
  O  O2  1  0.01691473  0.89361188  0.16163627  1
  O  O3  1  0.51691473  0.60638812  0.83836373  1
  O  O4  1  0.01691473  0.60638812  0.66163627  1
  O  O5  1  0.51691473  0.89361188  0.33836373  1
  O  O6  1  0.98308527  0.10638812  0.83836373  1
  O  O7  1  0.48308527  0.39361188  0.16163627  1
  O  O8  1  0.64327722  0.49657001  0.10586108  1
  O  O9  1  0.14327722  0.00342999  0.89413892  1
  O  O10  1  0.35672278  0.99657001  0.39413892  1
  O  O11  1  0.85672278  0.50342999  0.60586108  1
  O  O12  1  0.35672278  0.50342999  0.89413892  1
  O  O13  1  0.85672278  0.99657001  0.10586108  1
  O  O14  1  0.64327722  0.00342999  0.60586108  1
  O  O15  1  0.14327722  0.49657001  0.39413892  1
  O  O16  1  0.91354577  0.15608385  0.01622416  1
  O  O17  1  0.41354577  0.34391615  0.98377584  1
  O  O18  1  0.08645423  0.65608385  0.48377584  1
  O  O19  1  0.58645423  0.84391615  0.51622416  1
  O  O20  1  0.08645423  0.84391615  0.98377584  1
  O  O21  1  0.58645423  0.65608385  0.01622416  1
  O  O22  1  0.91354577  0.34391615  0.51622416  1
  O  O23  1  0.41354577  0.15608385  0.48377584  1
  O  O24  1  0.25329018  0.34004226  0.86613381  1
  O  O25  1  0.75329018  0.15995774  0.13386619  1
  O  O26  1  0.74670982  0.84004226  0.63386619  1
  O  O27  1  0.24670982  0.65995774  0.36613381  1
  O  O28  1  0.74670982  0.65995774  0.13386619  1
  O  O29  1  0.24670982  0.84004226  0.86613381  1
  O  O30  1  0.25329018  0.15995774  0.36613381  1
  O  O31  1  0.75329018  0.34004226  0.63386619  1
  O  O32  1  0.12310500  0.72784663  0.13078123  1
  O  O33  1  0.62310500  0.77215337  0.86921877  1
  O  O34  1  0.87689500  0.22784663  0.36921877  1
  O  O35  1  0.37689500  0.27215337  0.63078123  1
  O  O36  1  0.87689500  0.27215337  0.86921877  1
  O  O37  1  0.37689500  0.22784663  0.13078123  1
  O  O38  1  0.12310500  0.77215337  0.63078123  1
  O  O39  1  0.62310500  0.72784663  0.36921877  1
  O  O40  1  0.84393816  0.63289811  0.74581152  1
  O  O41  1  0.34393816  0.86710189  0.25418848  1
  O  O42  1  0.15606184  0.13289811  0.75418848  1
  O  O43  1  0.65606184  0.36710189  0.24581152  1
  O  O44  1  0.15606184  0.36710189  0.25418848  1
  O  O45  1  0.65606184  0.13289811  0.74581152  1
  O  O46  1  0.84393816  0.86710189  0.24581152  1
  O  O47  1  0.34393816  0.63289811  0.75418848  1
  O  O48  1  0.47011640  0.90168319  0.86600639  1
  O  O49  1  0.97011640  0.59831681  0.13399361  1
  O  O50  1  0.52988360  0.40168319  0.63399361  1
  O  O51  1  0.02988360  0.09831681  0.36600639  1
  O  O52  1  0.52988360  0.09831681  0.13399361  1
  O  O53  1  0.02988360  0.40168319  0.86600639  1
  O  O54  1  0.47011640  0.59831681  0.36600639  1
  O  O55  1  0.97011640  0.90168319  0.63399361  1
  O  O56  1  0.15991323  0.95793765  0.66036680  1
  O  O57  1  0.65991323  0.54206235  0.33963320  1
  O  O58  1  0.84008677  0.45793765  0.83963320  1
  O  O59  1  0.34008677  0.04206235  0.16036680  1
  O  O60  1  0.84008677  0.04206235  0.33963320  1
  O  O61  1  0.34008677  0.45793765  0.66036680  1
  O  O62  1  0.15991323  0.54206235  0.16036680  1
  O  O63  1  0.65991323  0.95793765  0.83963320  1
  O  O64  1  0.38719747  0.62724242  0.56752832  1
  O  O65  1  0.88719747  0.87275758  0.43247168  1
  O  O66  1  0.61280253  0.12724242  0.93247168  1
  O  O67  1  0.11280253  0.37275758  0.06752832  1
  O  O68  1  0.61280253  0.37275758  0.43247168  1
  O  O69  1  0.11280253  0.12724242  0.56752832  1
  O  O70  1  0.38719747  0.87275758  0.06752832  1
  O  O71  1  0.88719747  0.62724242  0.93247168  1
  O  O72  1  0.70277126  0.90947895  0.37033715  1
  O  O73  1  0.20277126  0.59052105  0.62966285  1
  O  O74  1  0.29722874  0.40947895  0.12966285  1
  O  O75  1  0.79722874  0.09052105  0.87033715  1
  O  O76  1  0.29722874  0.09052105  0.62966285  1
  O  O77  1  0.79722874  0.40947895  0.37033715  1
  O  O78  1  0.70277126  0.59052105  0.87033715  1
  O  O79  1  0.20277126  0.90947895  0.12966285  1
  O  O80  1  0.62785176  0.18790695  0.55776786  1
  O  O81  1  0.12785176  0.31209305  0.44223214  1
  O  O82  1  0.37214824  0.68790695  0.94223214  1
  O  O83  1  0.87214824  0.81209305  0.05776786  1
  O  O84  1  0.37214824  0.81209305  0.44223214  1
  O  O85  1  0.87214824  0.68790695  0.55776786  1
  O  O86  1  0.62785176  0.31209305  0.05776786  1
  O  O87  1  0.12785176  0.18790695  0.94223214  1
  O  O88  1  0.43657780  0.14643595  0.29648536  1
  O  O89  1  0.93657780  0.35356405  0.70351464  1
  O  O90  1  0.56342220  0.64643595  0.20351464  1
  O  O91  1  0.06342220  0.85356405  0.79648536  1
  O  O92  1  0.56342220  0.85356405  0.70351464  1
  O  O93  1  0.06342220  0.64643595  0.29648536  1
  O  O94  1  0.43657780  0.35356405  0.79648536  1
  O  O95  1  0.93657780  0.14643595  0.20351464  1
loop_
_geom_bond_atom_site_label_1
_geom_bond_atom_site_label_2
_geom_bond_distance
_geom_bond_site_symmetry_2
Mg0 O26 1.921676 1_555
Mg0 O85 1.924882 1_555
Mg0 O65 1.942537 1_555
Mg0 O55 1.954696 1_555
Mg1 O27 1.921676 1_555
Mg1 O84 1.924882 1_555
Mg1 O64 1.942537 1_555
Mg1 O54 1.954696 1_555
Mg2 O24 1.921676 1_555
Mg2 O87 1.924882 1_555
Mg2 O67 1.942537 1_556
Mg2 O53 1.954696 1_555
Mg3 O25 1.921676 1_555
Mg3 O86 1.924882 1_555
Mg3 O66 1.942537 1_554
Mg3 O52 1.954696 1_555
Mg4 O30 1.921676 1_555
Mg4 O81 1.924882 1_555
Mg4 O69 1.942537 1_555
Mg4 O51 1.954696 1_555
Mg5 O31 1.921676 1_555
Mg5 O80 1.924882 1_555
Mg5 O68 1.942537 1_555
Mg5 O50 1.954696 1_555
Mg6 O28 1.921676 1_555
Mg6 O83 1.924882 1_555
Mg6 O71 1.942537 1_554
Mg6 O49 1.954696 1_555
Mg7 O29 1.921676 1_555
Mg7 O82 1.924882 1_555
Mg7 O70 1.942537 1_556
Mg7 O48 1.954696 1_555
O0 Si3 1.643685 1_555
O0 Si14 1.677800 1_655
O0 Rb8 3.367201 1_555
O1 Si2 1.643685 1_555
O1 Si15 1.677800 1_555
O1 Rb9 3.367201 1_555
O2 Si1 1.643685 1_555
O2 Si12 1.677800 1_455
O2 Rb10 3.367201 1_555
O3 Si0 1.643685 1_555
O3 Si13 1.677800 1_555
O3 Rb11 3.367201 1_555
O4 Si7 1.643685 1_555
O4 Si10 1.677800 1_455
O4 Rb12 3.367201 1_555
O5 Si6 1.643685 1_555
O5 Si11 1.677800 1_555
O5 Rb13 3.367201 1_555
O6 Si5 1.643685 1_555
O6 Si8 1.677800 1_655
O6 Rb14 3.367201 1_555
O7 Si4 1.643685 1_555
O7 Si9 1.677800 1_555
O7 Rb15 3.367201 1_555
O8 Si9 1.628723 1_555
O8 Si23 1.629393 1_555
O9 Si8 1.628723 1_555
O9 Si22 1.629393 1_545
O10 Si11 1.628723 1_555
O10 Si21 1.629393 1_565
O11 Si10 1.628723 1_555
O11 Si20 1.629393 1_555
O12 Si13 1.628723 1_555
O12 Si19 1.629393 1_555
O13 Si12 1.628723 1_555
O13 Si18 1.629393 1_565
O14 Si15 1.628723 1_555
O14 Si17 1.629393 1_545
O15 Si14 1.628723 1_555
O15 Si16 1.629393 1_555
O16 Si5 1.634449 1_554
O16 Si18 1.662163 1_555
O16 Rb8 3.436671 1_555
O17 Si4 1.634449 1_556
O17 Si19 1.662163 1_555
O17 Rb9 3.436671 1_555
O18 Si7 1.634449 1_555
O18 Si16 1.662163 1_555
O18 Rb10 3.436671 1_555
O19 Si6 1.634449 1_555
O19 Si17 1.662163 1_555
O19 Rb11 3.436671 1_555
O20 Si1 1.634449 1_556
O20 Si22 1.662163 1_555
O20 Rb12 3.436671 1_555
O21 Si0 1.634449 1_554
O21 Si23 1.662163 1_555
O21 Rb13 3.436671 1_555
O22 Si3 1.634449 1_555
O22 Si20 1.662163 1_555
O22 Rb14 3.436671 1_555
O23 Si2 1.634449 1_555
O23 Si21 1.662163 1_555
O23 Rb15 3.436671 1_555
O24 Si19 1.581876 1_555
O24 Rb1 3.373491 1_555
O25 Si18 1.581876 1_555
O25 Rb0 3.373491 1_555
O26 Si17 1.581876 1_555
O26 Rb3 3.373491 1_555
O27 Si16 1.581876 1_555
O27 Rb2 3.373491 1_555
O28 Si23 1.581876 1_555
O28 Rb5 3.373491 1_555
O29 Si22 1.581876 1_555
O29 Rb4 3.373491 1_555
O30 Si21 1.581876 1_555
O30 Rb7 3.373491 1_555
O31 Si20 1.581876 1_555
O31 Rb6 3.373491 1_555
O32 Si1 1.644525 1_555
O32 Si27 1.669142 1_555
O32 Rb2 3.307852 1_555
O33 Si0 1.644525 1_555
O33 Si26 1.669142 1_555
O33 Rb3 3.307852 1_555
O34 Si3 1.644525 1_555
O34 Si25 1.669142 1_555
O34 Rb0 3.307852 1_555
O35 Si2 1.644525 1_555
O35 Si24 1.669142 1_555
O35 Rb1 3.307852 1_555
O36 Si5 1.644525 1_555
O36 Si31 1.669142 1_555
O36 Rb6 3.307852 1_555
O37 Si4 1.644525 1_555
O37 Si30 1.669142 1_555
O37 Rb7 3.307852 1_555
O38 Si7 1.644525 1_555
O38 Si29 1.669142 1_555
O38 Rb4 3.307852 1_555
O39 Si6 1.644525 1_555
O39 Si28 1.669142 1_555
O39 Rb5 3.307852 1_555
O40 Si33 1.650740 1_555
O40 Si10 1.653628 1_555
O40 Rb3 3.287936 1_555
O41 Si32 1.650740 1_555
O41 Si11 1.653628 1_555
O41 Rb2 3.287936 1_555
O42 Si35 1.650740 1_555
O42 Si8 1.653628 1_555
O42 Rb1 3.287936 1_555
O43 Si34 1.650740 1_555
O43 Si9 1.653628 1_555
O43 Rb0 3.287936 1_555
O44 Si37 1.650740 1_555
O44 Si14 1.653628 1_555
O44 Rb7 3.287936 1_555
O45 Si36 1.650740 1_555
O45 Si15 1.653628 1_555
O45 Rb6 3.287936 1_555
O46 Si39 1.650740 1_555
O46 Si12 1.653628 1_555
O46 Rb5 3.287936 1_555
O47 Si38 1.650740 1_555
O47 Si13 1.653628 1_555
O47 Rb4 3.287936 1_555
O48 Si26 1.591114 1_555
O48 Rb9 3.033084 1_565
O48 Rb4 3.512934 1_555
O49 Si27 1.591114 1_655
O49 Rb8 3.033084 1_555
O49 Rb5 3.512934 1_555
O50 Si24 1.591114 1_555
O50 Rb11 3.033084 1_555
O50 Rb6 3.512934 1_555
O51 Si25 1.591114 1_455
O51 Rb10 3.033084 1_545
O51 Rb7 3.512934 1_555
O52 Si30 1.591114 1_555
O52 Rb13 3.033084 1_545
O52 Rb0 3.512934 1_555
O53 Si31 1.591114 1_455
O53 Rb12 3.033084 1_555
O53 Rb1 3.512934 1_555
O54 Si28 1.591114 1_555
O54 Rb15 3.033084 1_555
O54 Rb2 3.512934 1_555
O55 Si29 1.591114 1_655
O55 Rb14 3.033084 1_565
O55 Rb3 3.512934 1_555
O56 Si35 1.664116 1_565
O56 Si29 1.664968 1_555
O56 Rb4 3.047973 1_555
O57 Si34 1.664116 1_555
O57 Si28 1.664968 1_555
O57 Rb5 3.047973 1_555
O58 Si33 1.664116 1_555
O58 Si31 1.664968 1_555
O58 Rb6 3.047973 1_555
O59 Si32 1.664116 1_545
O59 Si30 1.664968 1_555
O59 Rb7 3.047973 1_555
O60 Si39 1.664116 1_545
O60 Si25 1.664968 1_555
O60 Rb0 3.047973 1_555
O61 Si38 1.664116 1_555
O61 Si24 1.664968 1_555
O61 Rb1 3.047973 1_555
O62 Si37 1.664116 1_555
O62 Si27 1.664968 1_555
O62 Rb2 3.047973 1_555
O63 Si36 1.664116 1_565
O63 Si26 1.664968 1_555
O63 Rb3 3.047973 1_555
O64 Si38 1.590249 1_555
O64 Rb11 2.969785 1_555
O64 Rb4 3.223586 1_555
O65 Si39 1.590249 1_555
O65 Rb10 2.969785 1_655
O65 Rb5 3.223586 1_555
O66 Si36 1.590249 1_555
O66 Rb9 2.969785 1_555
O66 Rb6 3.223586 1_555
O67 Si37 1.590249 1_555
O67 Rb8 2.969785 1_455
O67 Rb7 3.223586 1_555
O68 Si34 1.590249 1_555
O68 Rb15 2.969785 1_555
O68 Rb0 3.223586 1_555
O69 Si35 1.590249 1_555
O69 Rb14 2.969785 1_455
O69 Rb1 3.223586 1_555
O70 Si32 1.590249 1_555
O70 Rb13 2.969785 1_555
O70 Rb2 3.223586 1_555
O71 Si33 1.590249 1_555
O71 Rb12 2.969785 1_655
O71 Rb3 3.223586 1_555
O72 Si6 1.639036 1_555
O72 Si39 1.661606 1_555
O72 Rb0 3.419878 1_565
O73 Si7 1.639036 1_555
O73 Si38 1.661606 1_555
O73 Rb1 3.419878 1_555
O74 Si4 1.639036 1_555
O74 Si37 1.661606 1_555
O74 Rb2 3.419878 1_555
O75 Si5 1.639036 1_555
O75 Si36 1.661606 1_555
O75 Rb3 3.419878 1_545
O76 Si2 1.639036 1_555
O76 Si35 1.661606 1_555
O76 Rb4 3.419878 1_545
O77 Si3 1.639036 1_555
O77 Si34 1.661606 1_555
O77 Rb5 3.419878 1_555
O78 Si0 1.639036 1_555
O78 Si33 1.661606 1_555
O78 Rb6 3.419878 1_555
O79 Si1 1.639036 1_555
O79 Si32 1.661606 1_555
O79 Rb7 3.419878 1_565
O80 Si15 1.581886 1_555
O80 Rb0 2.862205 1_555
O81 Si14 1.581886 1_555
O81 Rb1 2.862205 1_555
O82 Si13 1.581886 1_555
O82 Rb2 2.862205 1_556
O83 Si12 1.581886 1_555
O83 Rb3 2.862205 1_554
O84 Si11 1.581886 1_555
O84 Rb4 2.862205 1_555
O85 Si10 1.581886 1_555
O85 Rb5 2.862205 1_555
O86 Si9 1.581886 1_555
O86 Rb6 2.862205 1_554
O87 Si8 1.581886 1_555
O87 Rb7 2.862205 1_556
O88 Si30 1.659706 1_555
O88 Si21 1.662403 1_555
O88 Rb0 2.974863 1_555
O89 Si31 1.659706 1_555
O89 Si20 1.662403 1_555
O89 Rb1 2.974863 1_655
O90 Si28 1.659706 1_555
O90 Si23 1.662403 1_555
O90 Rb2 2.974863 1_555
O91 Si29 1.659706 1_555
O91 Si22 1.662403 1_555
O91 Rb3 2.974863 1_455
O92 Si26 1.659706 1_555
O92 Si17 1.662403 1_555
O92 Rb4 2.974863 1_555
O93 Si27 1.659706 1_555
O93 Si16 1.662403 1_555
O93 Rb5 2.974863 1_455
O94 Si24 1.659706 1_555
O94 Si19 1.662403 1_555
O94 Rb6 2.974863 1_555
O95 Si25 1.659706 1_555
O95 Si18 1.662403 1_555
O95 Rb7 2.974863 1_655
