# generated using pymatgen
data_YCuF5
_symmetry_space_group_name_H-M   'P 1'
_cell_length_a   5.72926693
_cell_length_b   5.72926693
_cell_length_c   5.72926693
_cell_angle_alpha   136.64801903
_cell_angle_beta   105.30863297
_cell_angle_gamma   90.50600637
_symmetry_Int_Tables_number   1
_chemical_formula_structural   YCuF5
_chemical_formula_sum   'Y1 Cu1 F5'
_cell_volume   118.65367709
_cell_formula_units_Z   1
loop_
 _symmetry_equiv_pos_site_id
 _symmetry_equiv_pos_as_xyz
  1  'x, y, z'
loop_
 _atom_site_type_symbol
 _atom_site_label
 _atom_site_symmetry_multiplicity
 _atom_site_fract_x
 _atom_site_fract_y
 _atom_site_fract_z
 _atom_site_occupancy
  Y  Y0  1  0.50000000  0.50000000  0.00000000  1
  Cu  Cu0  1  0.00000000  0.00000000  0.00000000  1
  F  F0  1  0.81311000  0.50000000  0.31311000  1
  F  F1  1  0.18689000  0.50000000  0.68689000  1
  F  F2  1  0.22565500  0.22565500  0.00000000  1
  F  F3  1  0.77434500  0.77434500  0.00000000  1
  F  F4  1  0.50000000  0.00000000  0.50000000  1
loop_
_geom_bond_atom_site_label_1
_geom_bond_atom_site_label_2
_geom_bond_distance
_geom_bond_site_symmetry_2
Cu0 F2 1.820257 1_555
Cu0 F3 1.820257 1_445
Cu0 F0 2.483077 1_455
Cu0 F1 2.483077 1_544
Cu0 F0 2.483077 1_444
Cu0 F1 2.483077 1_555
F0 Y0 2.176429 1_555
F1 Y0 2.176429 1_556
F2 Y0 2.213018 1_555
F3 Y0 2.213018 1_555
F4 Y0 2.116147 1_556
F4 Y0 2.116147 1_545
