# generated using pymatgen
data_LuMgIn
_symmetry_space_group_name_H-M   'P 1'
_cell_length_a   7.37685746
_cell_length_b   7.37685746
_cell_length_c   4.59969814
_cell_angle_alpha   90.00000000
_cell_angle_beta   90.00000000
_cell_angle_gamma   119.99999680
_symmetry_Int_Tables_number   1
_chemical_formula_structural   LuMgIn
_chemical_formula_sum   'Lu3 Mg3 In3'
_cell_volume   216.77178876
_cell_formula_units_Z   3
loop_
 _symmetry_equiv_pos_site_id
 _symmetry_equiv_pos_as_xyz
  1  'x, y, z'
loop_
 _atom_site_type_symbol
 _atom_site_label
 _atom_site_symmetry_multiplicity
 _atom_site_fract_x
 _atom_site_fract_y
 _atom_site_fract_z
 _atom_site_occupancy
  Lu  Lu0  1  0.56228491  0.00000000  0.00000000  1
  Lu  Lu1  1  0.00000000  0.56228491  0.00000000  1
  Lu  Lu2  1  0.43771509  0.43771509  -0.00000000  1
  Mg  Mg0  1  0.24237668  0.00000000  0.50000000  1
  Mg  Mg1  1  0.00000000  0.24237668  0.50000000  1
  Mg  Mg2  1  0.75762332  0.75762332  0.50000000  1
  In  In0  1  0.33333300  0.66666700  0.50000000  1
  In  In1  1  0.66666700  0.33333300  0.50000000  1
  In  In2  1  -0.00000000  0.00000000  -0.00000000  1
loop_
_geom_bond_atom_site_label_1
_geom_bond_atom_site_label_2
_geom_bond_distance
_geom_bond_site_symmetry_2
In0 Mg0 2.854212 1_565
In0 Mg1 2.854217 1_555
In0 Mg2 2.854219 1_555
In0 Lu1 3.167845 1_556
In0 Lu1 3.167845 1_555
In0 Lu0 3.167846 1_566
In0 Lu0 3.167846 1_565
In0 Lu2 3.167849 1_556
In0 Lu2 3.167849 1_555
In1 Mg1 2.854212 1_655
In1 Mg0 2.854217 1_555
In1 Mg2 2.854219 1_555
In1 Lu0 3.167845 1_556
In1 Lu0 3.167845 1_555
In1 Lu1 3.167846 1_655
In1 Lu1 3.167846 1_656
In1 Lu2 3.167849 1_555
In1 Lu2 3.167849 1_556
In2 Mg1 2.913103 1_554
In2 Mg0 2.913103 1_555
In2 Mg1 2.913103 1_555
In2 Mg0 2.913103 1_554
In2 Mg2 2.913104 1_444
In2 Mg2 2.913104 1_445
In2 Lu1 3.228962 1_545
In2 Lu0 3.228962 1_455
In2 Lu2 3.228962 1_555
