# generated using pymatgen
data_ZnFe4CoO8
_symmetry_space_group_name_H-M   'P 1'
_cell_length_a   6.05297683
_cell_length_b   6.05297683
_cell_length_c   6.05297701
_cell_angle_alpha   60.00817500
_cell_angle_beta   60.00817500
_cell_angle_gamma   60.00816675
_symmetry_Int_Tables_number   1
_chemical_formula_structural   ZnFe4CoO8
_chemical_formula_sum   'Zn1 Fe4 Co1 O8'
_cell_volume   156.84566017
_cell_formula_units_Z   1
loop_
 _symmetry_equiv_pos_site_id
 _symmetry_equiv_pos_as_xyz
  1  'x, y, z'
loop_
 _atom_site_type_symbol
 _atom_site_label
 _atom_site_symmetry_multiplicity
 _atom_site_fract_x
 _atom_site_fract_y
 _atom_site_fract_z
 _atom_site_occupancy
  Zn  Zn0  1  0.00115600  0.00115600  0.00115600  1
  Fe  Fe0  1  0.62286700  0.62286700  0.62286700  1
  Fe  Fe1  1  0.49433700  0.00161800  0.00161800  1
  Fe  Fe2  1  0.00161800  0.00161800  0.49433700  1
  Fe  Fe3  1  0.00161800  0.49433700  0.00161800  1
  Co  Co0  1  0.37690600  0.37690600  0.37690600  1
  O  O0  1  0.23093600  0.75139600  0.75139600  1
  O  O1  1  0.75139600  0.75139600  0.23093600  1
  O  O2  1  0.75139600  0.23093600  0.75139600  1
  O  O3  1  0.75635700  0.75635700  0.75635700  1
  O  O4  1  0.77853200  0.24609700  0.24609700  1
  O  O5  1  0.24609700  0.24609700  0.77853200  1
  O  O6  1  0.24609700  0.77853200  0.24609700  1
  O  O7  1  0.24068700  0.24068700  0.24068700  1
loop_
_geom_bond_atom_site_label_1
_geom_bond_atom_site_label_2
_geom_bond_distance
_geom_bond_site_symmetry_2
Fe0 O0 1.937339 1_555
Fe0 O2 1.937339 1_555
Fe0 O1 1.937339 1_555
Fe0 O3 1.979095 1_555
Fe1 O5 2.019598 1_554
Fe1 O6 2.019598 1_545
Fe1 O7 2.048523 1_555
Fe1 O1 2.084006 1_545
Fe1 O2 2.084006 1_554
Fe1 O3 2.102080 1_544
Fe2 O6 2.019598 1_545
Fe2 O4 2.019598 1_455
Fe2 O7 2.048523 1_555
Fe2 O0 2.084006 1_545
Fe2 O2 2.084006 1_455
Fe2 O3 2.102080 1_445
Fe3 O5 2.019598 1_554
Fe3 O4 2.019598 1_455
Fe3 O7 2.048523 1_555
Fe3 O1 2.084006 1_455
Fe3 O0 2.084006 1_554
Fe3 O3 2.102080 1_454
Co0 O4 1.985391 1_555
Co0 O6 1.985391 1_555
Co0 O5 1.985391 1_555
Co0 O7 2.019554 1_555
O0 Zn0 2.141525 1_566
O1 Zn0 2.141525 1_665
O2 Zn0 2.141525 1_656
O4 Zn0 2.101197 1_655
O5 Zn0 2.101197 1_556
O6 Zn0 2.101197 1_565
