# generated using pymatgen
data_Te2Mo3W(SeS2)2
_symmetry_space_group_name_H-M   'P 1'
_cell_length_a   3.31048019
_cell_length_b   3.31048019
_cell_length_c   37.26839200
_cell_angle_alpha   90.00000000
_cell_angle_beta   90.00000000
_cell_angle_gamma   120.00000383
_symmetry_Int_Tables_number   1
_chemical_formula_structural   Te2Mo3W(SeS2)2
_chemical_formula_sum   'Te2 Mo3 W1 Se2 S4'
_cell_volume   353.71482057
_cell_formula_units_Z   1
loop_
 _symmetry_equiv_pos_site_id
 _symmetry_equiv_pos_as_xyz
  1  'x, y, z'
loop_
 _atom_site_type_symbol
 _atom_site_label
 _atom_site_symmetry_multiplicity
 _atom_site_fract_x
 _atom_site_fract_y
 _atom_site_fract_z
 _atom_site_occupancy
  Te  Te0  1  0.66666700  0.33333300  0.04259000  1
  Te  Te1  1  0.66666700  0.33333300  0.14523900  1
  Mo  Mo0  1  0.33333300  0.66666700  0.09390000  1
  Mo  Mo1  1  0.33333300  0.66666700  0.46965200  1
  Mo  Mo2  1  0.66666700  0.33333300  0.28180900  1
  W  W0  1  0.66666700  0.33333300  0.65754300  1
  Se  Se0  1  0.66666700  0.33333300  0.42465300  1
  Se  Se1  1  0.66666700  0.33333300  0.51467600  1
  S  S0  1  0.33333300  0.66666700  0.32283900  1
  S  S1  1  0.33333300  0.66666700  0.69866100  1
  S  S2  1  0.33333300  0.66666700  0.24077100  1
  S  S3  1  0.33333300  0.66666700  0.61641600  1
loop_
_geom_bond_atom_site_label_1
_geom_bond_atom_site_label_2
_geom_bond_distance
_geom_bond_site_symmetry_2
Mo0 Te0 2.703655 1_455
Mo0 Te0 2.703655 1_565
Mo0 Te0 2.703659 1_555
Mo0 Te1 2.704420 1_565
Mo0 Te1 2.704420 1_455
Mo0 Te1 2.704424 1_555
Mo1 Se0 2.542745 1_565
Mo1 Se0 2.542745 1_455
Mo1 Se0 2.542749 1_555
Mo1 Se1 2.543359 1_455
Mo1 Se1 2.543359 1_565
Mo1 Se1 2.543364 1_555
Mo2 S0 2.447713 1_545
Mo2 S0 2.447713 1_655
Mo2 S0 2.447718 1_555
Mo2 S2 2.447899 1_545
Mo2 S2 2.447899 1_655
Mo2 S2 2.447904 1_555
S1 W0 2.449763 1_455
S1 W0 2.449763 1_565
S1 W0 2.449768 1_555
S3 W0 2.449973 1_455
S3 W0 2.449973 1_565
S3 W0 2.449978 1_555
