# generated using pymatgen
data_Sn2P2O9
_symmetry_space_group_name_H-M   'P 1'
_cell_length_a   6.59271000
_cell_length_b   8.00266700
_cell_length_c   14.45129100
_cell_angle_alpha   90.00000000
_cell_angle_beta   90.00000000
_cell_angle_gamma   90.00000000
_symmetry_Int_Tables_number   1
_chemical_formula_structural   Sn2P2O9
_chemical_formula_sum   'Sn8 P8 O36'
_cell_volume   762.43945906
_cell_formula_units_Z   4
loop_
 _symmetry_equiv_pos_site_id
 _symmetry_equiv_pos_as_xyz
  1  'x, y, z'
loop_
 _atom_site_type_symbol
 _atom_site_label
 _atom_site_symmetry_multiplicity
 _atom_site_fract_x
 _atom_site_fract_y
 _atom_site_fract_z
 _atom_site_occupancy
  Sn  Sn0  1  0.25000000  0.85655400  0.37385500  1
  Sn  Sn1  1  0.75000000  0.14344600  0.62614500  1
  Sn  Sn2  1  0.75000000  0.35655400  0.12614500  1
  Sn  Sn3  1  0.25000000  0.64344600  0.87385500  1
  Sn  Sn4  1  0.00000000  0.50000000  0.50000000  1
  Sn  Sn5  1  0.00000000  0.00000000  0.00000000  1
  Sn  Sn6  1  0.50000000  0.00000000  0.00000000  1
  Sn  Sn7  1  0.50000000  0.50000000  0.50000000  1
  P  P0  1  0.75000000  0.85600100  0.43732800  1
  P  P1  1  0.25000000  0.14399900  0.56267200  1
  P  P2  1  0.25000000  0.35600100  0.06267200  1
  P  P3  1  0.75000000  0.64399900  0.93732800  1
  P  P4  1  0.25000000  0.89381300  0.18873700  1
  P  P5  1  0.25000000  0.60618700  0.68873700  1
  P  P6  1  0.75000000  0.39381300  0.31126300  1
  P  P7  1  0.75000000  0.10618700  0.81126300  1
  O  O0  1  0.55522900  0.09517400  0.87261500  1
  O  O1  1  0.05522900  0.90482600  0.12738500  1
  O  O2  1  0.44477100  0.59517400  0.62738500  1
  O  O3  1  0.94477100  0.40482600  0.37261500  1
  O  O4  1  0.44477100  0.90482600  0.12738500  1
  O  O5  1  0.94477100  0.09517400  0.87261500  1
  O  O6  1  0.55522900  0.40482600  0.37261500  1
  O  O7  1  0.05522900  0.59517400  0.62738500  1
  O  O8  1  0.75000000  0.82798800  0.98477400  1
  O  O9  1  0.25000000  0.17201200  0.01522600  1
  O  O10  1  0.25000000  0.32798800  0.51522600  1
  O  O11  1  0.75000000  0.67201200  0.48477400  1
  O  O12  1  0.25000000  0.63709700  0.45051400  1
  O  O13  1  0.75000000  0.36290300  0.54948600  1
  O  O14  1  0.75000000  0.13709700  0.04948600  1
  O  O15  1  0.25000000  0.86290300  0.95051400  1
  O  O16  1  0.25000000  0.72861000  0.24555700  1
  O  O17  1  0.75000000  0.27139000  0.75444300  1
  O  O18  1  0.75000000  0.22861000  0.25444300  1
  O  O19  1  0.25000000  0.77139000  0.74555700  1
  O  O20  1  0.93875500  0.63879500  0.87679100  1
  O  O21  1  0.43875500  0.36120500  0.12320900  1
  O  O22  1  0.06124500  0.13879500  0.62320900  1
  O  O23  1  0.56124500  0.86120500  0.37679100  1
  O  O24  1  0.06124500  0.36120500  0.12320900  1
  O  O25  1  0.56124500  0.63879500  0.87679100  1
  O  O26  1  0.93875500  0.86120500  0.37679100  1
  O  O27  1  0.43875500  0.13879500  0.62320900  1
  O  O28  1  0.25000000  0.01498600  0.48582000  1
  O  O29  1  0.75000000  0.53116600  0.23388900  1
  O  O30  1  0.75000000  0.96883400  0.73388900  1
  O  O31  1  0.25000000  0.03116600  0.26611100  1
  O  O32  1  0.25000000  0.48501400  0.98582000  1
  O  O33  1  0.75000000  0.51498600  0.01418000  1
  O  O34  1  0.75000000  0.98501400  0.51418000  1
  O  O35  1  0.25000000  0.46883400  0.76611100  1
loop_
_geom_bond_atom_site_label_1
_geom_bond_atom_site_label_2
_geom_bond_distance
_geom_bond_site_symmetry_2
O0 P7 1.562910 1_555
O0 Sn6 2.025219 1_556
O1 P4 1.562910 1_555
O1 Sn5 2.025219 1_565
O2 P5 1.562910 1_555
O2 Sn7 2.025219 1_555
O3 P6 1.562910 1_555
O3 Sn4 2.025219 1_655
O4 P4 1.562910 1_555
O4 Sn6 2.025219 1_565
O5 P7 1.562910 1_555
O5 Sn5 2.025219 1_656
O6 P6 1.562910 1_555
O6 Sn7 2.025219 1_555
O7 P5 1.562910 1_555
O7 Sn4 2.025219 1_555
O8 P3 1.624221 1_555
O8 Sn5 2.158659 1_666
O8 Sn6 2.158659 1_566
O9 P2 1.624221 1_555
O9 Sn5 2.158659 1_555
O9 Sn6 2.158659 1_555
O10 P1 1.624221 1_555
O10 Sn4 2.158659 1_555
O10 Sn7 2.158659 1_555
O11 P0 1.624221 1_555
O11 Sn7 2.158659 1_555
O11 Sn4 2.158659 1_655
O12 Sn0 2.076452 1_555
O12 Sn4 2.105144 1_555
O12 Sn7 2.105144 1_555
O13 Sn1 2.076452 1_555
O13 Sn7 2.105144 1_555
O13 Sn4 2.105144 1_655
O14 Sn2 2.076452 1_555
O14 Sn5 2.105144 1_655
O14 Sn6 2.105144 1_555
O15 Sn3 2.076452 1_555
O15 Sn5 2.105144 1_566
O15 Sn6 2.105144 1_566
O16 P4 1.556309 1_555
O16 Sn0 2.118004 1_555
O17 P7 1.556309 1_555
O17 Sn1 2.118004 1_555
O18 P6 1.556309 1_555
O18 Sn2 2.118004 1_555
O19 P5 1.556309 1_555
O19 Sn3 2.118004 1_555
O20 P3 1.521718 1_555
O20 Sn3 2.052724 1_655
O21 P2 1.521718 1_555
O21 Sn2 2.052724 1_555
O22 P1 1.521718 1_555
O22 Sn1 2.052724 1_455
O23 P0 1.521718 1_555
O23 Sn0 2.052724 1_555
O24 P2 1.521718 1_555
O24 Sn2 2.052724 1_455
O25 P3 1.521718 1_555
O25 Sn3 2.052724 1_555
O26 P0 1.521718 1_555
O26 Sn0 2.052724 1_655
O27 P1 1.521718 1_555
O27 Sn1 2.052724 1_555
O28 P1 1.516379 1_555
O28 Sn0 2.055618 1_545
O29 P6 1.567957 1_555
O29 Sn2 2.092126 1_555
O30 P7 1.567957 1_565
O30 Sn1 2.092126 1_565
O31 P4 1.567957 1_545
O31 Sn0 2.092126 1_545
O32 P2 1.516379 1_556
O32 Sn3 2.055618 1_555
O33 P3 1.516379 1_554
O33 Sn2 2.055618 1_555
O34 P0 1.516379 1_555
O34 Sn1 2.055618 1_565
O35 P5 1.567957 1_555
O35 Sn3 2.092126 1_555
