# generated using pymatgen
data_La3Mg2VS8
_symmetry_space_group_name_H-M   'P 1'
_cell_length_a   8.07001521
_cell_length_b   7.92100179
_cell_length_c   8.06204658
_cell_angle_alpha   59.59432573
_cell_angle_beta   60.11803724
_cell_angle_gamma   59.53608530
_symmetry_Int_Tables_number   1
_chemical_formula_structural   La3Mg2VS8
_chemical_formula_sum   'La3 Mg2 V1 S8'
_cell_volume   362.30943408
_cell_formula_units_Z   1
loop_
 _symmetry_equiv_pos_site_id
 _symmetry_equiv_pos_as_xyz
  1  'x, y, z'
loop_
 _atom_site_type_symbol
 _atom_site_label
 _atom_site_symmetry_multiplicity
 _atom_site_fract_x
 _atom_site_fract_y
 _atom_site_fract_z
 _atom_site_occupancy
  La  La0  1  0.50005200  0.50006300  0.49997300  1
  La  La1  1  0.50002500  0.49995400  0.99999700  1
  La  La2  1  0.99995900  0.50003400  0.50001900  1
  Mg  Mg0  1  0.87478000  0.87702000  0.87383200  1
  Mg  Mg1  1  0.12521600  0.12297500  0.12616700  1
  V  V0  1  0.49999500  0.99999600  0.50001000  1
  S  S0  1  0.72708700  0.77979200  0.72720400  1
  S  S1  1  0.27335600  0.21963600  0.73404600  1
  S  S2  1  0.25068200  0.74581000  0.25154500  1
  S  S3  1  0.73578000  0.22187900  0.27133600  1
  S  S4  1  0.74929400  0.25416800  0.74845000  1
  S  S5  1  0.26420600  0.77811900  0.72866300  1
  S  S6  1  0.27290400  0.22018700  0.27281600  1
  S  S7  1  0.72666600  0.78036200  0.26594400  1
loop_
_geom_bond_atom_site_label_1
_geom_bond_atom_site_label_2
_geom_bond_distance
_geom_bond_site_symmetry_2
La0 S4 2.818724 1_555
La0 S2 2.819218 1_555
La0 S5 2.869833 1_555
La0 S3 2.870345 1_555
La0 S7 2.876189 1_555
La0 S1 2.877407 1_555
La1 S4 2.812482 1_555
La1 S2 2.812876 1_556
La1 S6 2.876756 1_556
La1 S0 2.876833 1_555
La1 S3 2.876997 1_556
La1 S5 2.877338 1_555
La2 S2 2.811515 1_655
La2 S4 2.811676 1_555
La2 S0 2.873294 1_555
La2 S6 2.873919 1_655
La2 S7 2.880228 1_555
La2 S1 2.880594 1_655
Mg0 S4 2.422291 1_565
Mg0 S5 2.574217 1_655
Mg0 S0 2.582122 1_555
Mg0 S7 2.592521 1_556
Mg1 S2 2.422400 1_545
Mg1 S3 2.574283 1_455
Mg1 S6 2.582133 1_555
Mg1 S1 2.592581 1_554
S0 V0 2.573987 1_555
S1 V0 2.567033 1_545
S3 V0 2.593087 1_545
S5 V0 2.593077 1_555
S6 V0 2.573986 1_545
S7 V0 2.567176 1_555
