# generated using pymatgen
data_KEr(CO3)2
_symmetry_space_group_name_H-M   'P 1'
_cell_length_a   6.38206554
_cell_length_b   6.38206554
_cell_length_c   6.92534607
_cell_angle_alpha   76.21786764
_cell_angle_beta   76.21786764
_cell_angle_gamma   96.16591255
_symmetry_Int_Tables_number   1
_chemical_formula_structural   KEr(CO3)2
_chemical_formula_sum   'K2 Er2 C4 O12'
_cell_volume   262.00530361
_cell_formula_units_Z   2
loop_
 _symmetry_equiv_pos_site_id
 _symmetry_equiv_pos_as_xyz
  1  'x, y, z'
loop_
 _atom_site_type_symbol
 _atom_site_label
 _atom_site_symmetry_multiplicity
 _atom_site_fract_x
 _atom_site_fract_y
 _atom_site_fract_z
 _atom_site_occupancy
  K  K0  1  0.62026800  0.37973200  0.75000000  1
  K  K1  1  0.37973200  0.62026800  0.25000000  1
  Er  Er0  1  0.09590200  0.90409800  0.75000000  1
  Er  Er1  1  0.90409800  0.09590200  0.25000000  1
  C  C0  1  0.64529000  0.89001600  0.75713500  1
  C  C1  1  0.35471000  0.10998400  0.24286500  1
  C  C2  1  0.10998400  0.35471000  0.74286500  1
  C  C3  1  0.89001600  0.64529000  0.25713500  1
  O  O0  1  0.44196600  0.89537700  0.77940800  1
  O  O1  1  0.55803400  0.10462300  0.22059200  1
  O  O2  1  0.10462300  0.55803400  0.72059200  1
  O  O3  1  0.89537700  0.44196600  0.27940800  1
  O  O4  1  0.71655900  0.74954300  0.88345300  1
  O  O5  1  0.28344100  0.25045700  0.11654700  1
  O  O6  1  0.25045700  0.28344100  0.61654700  1
  O  O7  1  0.74954300  0.71655900  0.38345300  1
  O  O8  1  0.79776900  0.03373700  0.60658300  1
  O  O9  1  0.20223100  0.96626300  0.39341700  1
  O  O10  1  0.96626300  0.20223100  0.89341700  1
  O  O11  1  0.03373700  0.79776900  0.10658300  1
loop_
_geom_bond_atom_site_label_1
_geom_bond_atom_site_label_2
_geom_bond_distance
_geom_bond_site_symmetry_2
K0 O5 2.786877 1_556
K0 O7 2.786877 1_555
K0 O6 2.792937 1_555
K0 O4 2.792937 1_555
K0 O10 2.862162 1_555
K0 O8 2.862162 1_555
K1 O6 2.786877 1_555
K1 O4 2.786877 1_554
K1 O5 2.792937 1_555
K1 O7 2.792937 1_555
K1 O9 2.862162 1_555
K1 O11 2.862162 1_555
Er0 O0 2.271084 1_555
Er0 O2 2.271084 1_555
Er0 O11 2.322295 1_556
Er0 O9 2.322295 1_555
Er0 O4 2.382203 1_455
Er0 O6 2.382203 1_565
Er0 O10 2.477567 1_465
Er0 O8 2.477567 1_465
Er1 O3 2.271084 1_555
Er1 O1 2.271084 1_555
Er1 O8 2.322295 1_555
Er1 O10 2.322295 1_554
Er1 O5 2.382203 1_655
Er1 O7 2.382203 1_545
Er1 O9 2.477567 1_645
Er1 O11 2.477567 1_645
C0 O0 1.274945 1_555
C0 O4 1.295910 1_555
C0 O8 1.320815 1_565
C1 O1 1.274945 1_555
C1 O5 1.295910 1_555
C1 O9 1.320815 1_545
C2 O2 1.274945 1_555
C2 O6 1.295910 1_555
C2 O10 1.320815 1_455
C3 O3 1.274945 1_555
C3 O7 1.295910 1_555
C3 O11 1.320815 1_655
