# generated using pymatgen
data_YTiCo11
_symmetry_space_group_name_H-M   'P 1'
_cell_length_a   4.67283600
_cell_length_b   6.34413306
_cell_length_c   6.34413306
_cell_angle_alpha   97.49410387
_cell_angle_beta   111.60958604
_cell_angle_gamma   68.39041396
_symmetry_Int_Tables_number   1
_chemical_formula_structural   YTiCo11
_chemical_formula_sum   'Y1 Ti1 Co11'
_cell_volume   162.56116178
_cell_formula_units_Z   1
loop_
 _symmetry_equiv_pos_site_id
 _symmetry_equiv_pos_as_xyz
  1  'x, y, z'
loop_
 _atom_site_type_symbol
 _atom_site_label
 _atom_site_symmetry_multiplicity
 _atom_site_fract_x
 _atom_site_fract_y
 _atom_site_fract_z
 _atom_site_occupancy
  Y  Y0  1  0.00706500  0.99293500  0.00706500  1
  Ti  Ti0  1  0.63200400  0.36799600  0.63200400  1
  Co  Co0  1  0.72743300  0.77256700  0.22743300  1
  Co  Co1  1  0.27879800  0.22120200  0.77879800  1
  Co  Co2  1  0.49838100  0.77995200  0.77671400  1
  Co  Co3  1  0.49838100  0.22328600  0.22004800  1
  Co  Co4  1  0.49896500  0.99482500  0.49836800  1
  Co  Co5  1  0.00457800  0.99482500  0.49836800  1
  Co  Co6  1  0.49896500  0.50163200  0.00517500  1
  Co  Co7  1  0.00457800  0.50163200  0.00517500  1
  Co  Co8  1  0.35440500  0.64559500  0.35440500  1
  Co  Co9  1  0.99822300  0.36047900  0.35692600  1
  Co  Co10  1  0.99822300  0.64307400  0.63952100  1
loop_
_geom_bond_atom_site_label_1
_geom_bond_atom_site_label_2
_geom_bond_distance
_geom_bond_site_symmetry_2
Ti0 Y0 3.119085 1_646
Co0 Co5 2.386006 1_655
Co0 Co4 2.386006 1_555
Co0 Co7 2.386006 1_655
Co0 Co6 2.386006 1_555
Co0 Co9 2.543379 1_555
Co0 Co10 2.543379 1_555
Co0 Co8 2.563948 1_655
Co0 Co8 2.563948 1_555
Co0 Co3 2.658541 1_565
Co0 Co2 2.658541 1_554
Co0 Y0 2.969405 1_655
Co0 Y0 2.969405 1_555
Co1 Co5 2.424774 1_545
Co1 Co4 2.424774 1_545
Co1 Co7 2.424774 1_556
Co1 Co6 2.424774 1_556
Co1 Co2 2.602699 1_545
Co1 Co3 2.602699 1_556
Co1 Co10 2.615695 1_455
Co1 Co9 2.615695 1_455
Co1 Ti0 2.636120 1_455
Co1 Ti0 2.636120 1_555
Co1 Y0 3.010390 1_546
Co1 Y0 3.010390 1_646
Co2 Co5 2.368703 1_555
Co2 Co4 2.368703 1_555
Co2 Co6 2.424772 1_556
Co2 Co7 2.424772 1_656
Co2 Ti0 2.580212 1_555
Co2 Co8 2.618446 1_555
Co2 Y0 2.983869 1_556
Co2 Y0 2.983869 1_656
Co3 Co7 2.368703 1_555
Co3 Co6 2.368703 1_555
Co3 Co4 2.424772 1_545
Co3 Co5 2.424772 1_645
Co3 Ti0 2.580212 1_555
Co3 Co9 2.602557 1_555
Co3 Co9 2.602561 1_455
Co3 Co8 2.618446 1_555
Co3 Y0 2.983869 1_545
Co3 Y0 2.983869 1_645
Co4 Co5 2.310189 1_555
Co4 Co5 2.362647 1_655
Co4 Co8 2.513817 1_555
Co4 Co9 2.580693 1_465
Co4 Ti0 2.623420 1_565
Co4 Y0 3.119635 1_555
Co4 Y0 3.224552 1_656
Co5 Co8 2.513817 1_555
Co5 Co9 2.580690 1_465
Co5 Ti0 2.623420 1_465
Co5 Y0 3.119635 1_555
Co5 Y0 3.224552 1_556
Co6 Co7 2.310189 1_555
Co6 Co7 2.362647 1_655
Co6 Co8 2.513817 1_555
Co6 Co9 2.524337 1_555
Co6 Ti0 2.623420 1_554
Co6 Y0 3.119635 1_555
Co6 Y0 3.224552 1_645
Co7 Co8 2.513817 1_555
Co7 Co9 2.524340 1_455
Co7 Ti0 2.623420 1_454
Co7 Y0 3.119635 1_555
Co7 Y0 3.224552 1_545
Co8 Ti0 2.308570 1_555
Co8 Co9 2.878682 1_555
Co8 Co9 2.878686 1_455
Co8 Y0 2.888551 1_555
Co9 Ti0 2.845012 1_555
Co9 Ti0 2.845016 1_655
Co9 Y0 3.001966 1_645
Co10 Co9 2.364316 1_555
Co10 Co4 2.524337 1_555
Co10 Co5 2.524340 1_655
Co10 Co7 2.580690 1_656
Co10 Co6 2.580693 1_656
Co10 Co2 2.602557 1_555
Co10 Co2 2.602561 1_655
Co10 Ti0 2.845012 1_555
Co10 Ti0 2.845016 1_655
Co10 Co8 2.878682 1_555
Co10 Co8 2.878686 1_655
Co10 Y0 3.001966 1_656
