# generated using pymatgen
data_Ca2SmYMn4O12
_symmetry_space_group_name_H-M   'P 1'
_cell_length_a   7.61608000
_cell_length_b   5.40664600
_cell_length_c   5.54239274
_cell_angle_alpha   89.81547114
_cell_angle_beta   90.00000000
_cell_angle_gamma   90.00000000
_symmetry_Int_Tables_number   1
_chemical_formula_structural   Ca2SmYMn4O12
_chemical_formula_sum   'Ca2 Sm1 Y1 Mn4 O12'
_cell_volume   228.22040800
_cell_formula_units_Z   1
loop_
 _symmetry_equiv_pos_site_id
 _symmetry_equiv_pos_as_xyz
  1  'x, y, z'
loop_
 _atom_site_type_symbol
 _atom_site_label
 _atom_site_symmetry_multiplicity
 _atom_site_fract_x
 _atom_site_fract_y
 _atom_site_fract_z
 _atom_site_occupancy
  Ca  Ca0  1  0.50000000  0.01073300  0.04587300  1
  Ca  Ca1  1  0.00000000  0.51087000  0.45296000  1
  Sm  Sm0  1  0.50000000  0.48499500  0.55258200  1
  Y  Y0  1  0.00000000  0.98320500  0.94258500  1
  Mn  Mn0  1  0.24862100  0.99978300  0.49667000  1
  Mn  Mn1  1  0.75138700  0.49884600  0.00267700  1
  Mn  Mn2  1  0.75137900  0.99978300  0.49667000  1
  Mn  Mn3  1  0.24861300  0.49884600  0.00267700  1
  O  O0  1  0.50000000  0.90929200  0.47596300  1
  O  O1  1  0.50000000  0.58503900  0.97542700  1
  O  O2  1  0.00000000  0.08688600  0.53362700  1
  O  O3  1  0.00000000  0.39794900  0.02431600  1
  O  O4  1  0.19877800  0.79578700  0.20407900  1
  O  O5  1  0.79871600  0.71393200  0.71483500  1
  O  O6  1  0.70449000  0.21294900  0.78687500  1
  O  O7  1  0.29564600  0.29422000  0.29319700  1
  O  O8  1  0.29551000  0.21294900  0.78687500  1
  O  O9  1  0.70435400  0.29422000  0.29319700  1
  O  O10  1  0.80122200  0.79578700  0.20407900  1
  O  O11  1  0.20128400  0.71393200  0.71483500  1
loop_
_geom_bond_atom_site_label_1
_geom_bond_atom_site_label_2
_geom_bond_distance
_geom_bond_site_symmetry_2
Ca0 O1 2.335698 1_544
Ca0 O6 2.381454 1_554
Ca0 O8 2.381454 1_554
Ca0 O0 2.444287 1_545
Ca0 O9 2.581483 1_555
Ca0 O7 2.581483 1_555
Ca0 O10 2.715858 1_545
Ca0 O4 2.715858 1_545
Ca1 O2 2.334110 1_555
Ca1 O5 2.381657 1_455
Ca1 O11 2.381657 1_555
Ca1 O3 2.454811 1_555
Ca1 O4 2.560066 1_555
Ca1 O10 2.560066 1_455
Ca1 O9 2.689384 1_455
Ca1 O7 2.689384 1_555
Mn0 O2 1.962082 1_565
Mn0 O0 1.979469 1_555
Mn0 O7 1.980574 1_565
Mn0 O11 1.992123 1_555
Mn0 O4 2.000462 1_555
Mn0 O8 2.013654 1_565
Mn1 O3 1.974013 1_655
Mn1 O1 1.976147 1_554
Mn1 O9 1.983304 1_555
Mn1 O6 1.989815 1_554
Mn1 O10 1.994767 1_555
Mn1 O5 2.003845 1_554
Mn2 O2 1.962082 1_665
Mn2 O0 1.979469 1_555
Mn2 O9 1.980574 1_565
Mn2 O5 1.992123 1_555
Mn2 O10 2.000462 1_555
Mn2 O6 2.013654 1_565
Mn3 O3 1.974013 1_555
Mn3 O1 1.976147 1_554
Mn3 O7 1.983304 1_555
Mn3 O8 1.989815 1_554
Mn3 O4 1.994767 1_555
Mn3 O11 2.003845 1_554
O0 Sm0 2.331652 1_555
O1 Sm0 2.406881 1_555
O2 Y0 2.333142 1_545
O3 Y0 2.289100 1_544
O4 Y0 2.325881 1_554
O5 Y0 2.464711 1_655
O5 Sm0 2.742952 1_555
O6 Sm0 2.502572 1_555
O6 Y0 2.710373 1_645
O7 Sm0 2.358492 1_555
O8 Sm0 2.502572 1_555
O8 Y0 2.710373 1_545
O9 Sm0 2.358492 1_555
O10 Y0 2.325881 1_654
O11 Y0 2.464711 1_555
O11 Sm0 2.742952 1_555
