# generated using pymatgen
data_CaH16(IO4)2
_symmetry_space_group_name_H-M   'P 1'
_cell_length_a   7.70880711
_cell_length_b   8.77147635
_cell_length_c   10.75008565
_cell_angle_alpha   87.01840639
_cell_angle_beta   84.22574032
_cell_angle_gamma   71.89944273
_symmetry_Int_Tables_number   1
_chemical_formula_structural   CaH16(IO4)2
_chemical_formula_sum   'Ca2 H32 I4 O16'
_cell_volume   687.25177634
_cell_formula_units_Z   2
loop_
 _symmetry_equiv_pos_site_id
 _symmetry_equiv_pos_as_xyz
  1  'x, y, z'
loop_
 _atom_site_type_symbol
 _atom_site_label
 _atom_site_symmetry_multiplicity
 _atom_site_fract_x
 _atom_site_fract_y
 _atom_site_fract_z
 _atom_site_occupancy
  Ca  Ca0  1  0.93717200  0.11674400  0.67911800  1
  Ca  Ca1  1  0.06282800  0.88325600  0.32088200  1
  H  H0  1  0.89158600  0.78589600  0.75408100  1
  H  H1  1  0.10841400  0.21410400  0.24591900  1
  H  H2  1  0.82955600  0.98637200  0.93789000  1
  H  H3  1  0.17044400  0.01362800  0.06211000  1
  H  H4  1  0.24766200  0.08515100  0.46669200  1
  H  H5  1  0.75233800  0.91484900  0.53330800  1
  H  H6  1  0.29286000  0.91243600  0.52454600  1
  H  H7  1  0.70714000  0.08756400  0.47545400  1
  H  H8  1  0.91414300  0.28400000  0.41857600  1
  H  H9  1  0.08585700  0.71600000  0.58142400  1
  H  H10  1  0.81638200  0.42070700  0.51754800  1
  H  H11  1  0.18361800  0.57929300  0.48245200  1
  H  H12  1  0.35404300  0.96257900  0.73032600  1
  H  H13  1  0.64595700  0.03742100  0.26967400  1
  H  H14  1  0.25929000  0.09758600  0.82949100  1
  H  H15  1  0.74071000  0.90241400  0.17050900  1
  H  H16  1  0.52728600  0.24284400  0.78199100  1
  H  H17  1  0.47271400  0.75715600  0.21800900  1
  H  H18  1  0.80743700  0.16603300  0.96519600  1
  H  H19  1  0.19256300  0.83396700  0.03480400  1
  H  H20  1  0.01032500  0.37191700  0.83609400  1
  H  H21  1  0.98967500  0.62808300  0.16390600  1
  H  H22  1  0.52335700  0.26655100  0.63552000  1
  H  H23  1  0.47664300  0.73344900  0.36448000  1
  H  H24  1  0.83785900  0.46537100  0.76513300  1
  H  H25  1  0.16214100  0.53462900  0.23486700  1
  H  H26  1  0.63340500  0.31103000  0.13695000  1
  H  H27  1  0.36659500  0.68897000  0.86305000  1
  H  H28  1  0.75553100  0.40995200  0.07083600  1
  H  H29  1  0.24446900  0.59004800  0.92916400  1
  H  H30  1  0.08857400  0.77323300  0.79149400  1
  H  H31  1  0.91142600  0.22676700  0.20850600  1
  I  I0  1  0.27814800  0.29347400  0.98637500  1
  I  I1  1  0.72185200  0.70652600  0.01362500  1
  I  I2  1  0.58571700  0.71656300  0.61034900  1
  I  I3  1  0.41428300  0.28343700  0.38965100  1
  O  O0  1  0.23579700  0.03864500  0.76074300  1
  O  O1  1  0.76420300  0.96135500  0.23925700  1
  O  O2  1  0.84316900  0.08571300  0.89867000  1
  O  O3  1  0.15683100  0.91428700  0.10133000  1
  O  O4  1  0.18959400  0.00176100  0.49600900  1
  O  O5  1  0.81040600  0.99823900  0.50399100  1
  O  O6  1  0.89135300  0.30892600  0.50892500  1
  O  O7  1  0.10864700  0.69107400  0.49107500  1
  O  O8  1  0.00318900  0.81289300  0.72422600  1
  O  O9  1  0.99681100  0.18710700  0.27577400  1
  O  O10  1  0.75749000  0.29992600  0.09746100  1
  O  O11  1  0.24251000  0.70007400  0.90253900  1
  O  O12  1  0.60488700  0.23090700  0.70269300  1
  O  O13  1  0.39511300  0.76909300  0.29730700  1
  O  O14  1  0.93690800  0.36396300  0.76849600  1
  O  O15  1  0.06309200  0.63603700  0.23150400  1
loop_
_geom_bond_atom_site_label_1
_geom_bond_atom_site_label_2
_geom_bond_distance
_geom_bond_site_symmetry_2
Ca0 O6 2.398545 1_555
Ca0 O14 2.416419 1_555
Ca0 O2 2.425148 1_555
Ca0 O0 2.429541 1_655
Ca0 O12 2.435221 1_555
Ca0 O8 2.582623 1_645
Ca0 O5 2.604741 1_545
Ca0 O4 2.625777 1_655
Ca1 O7 2.398545 1_555
Ca1 O15 2.416419 1_555
Ca1 O3 2.425148 1_555
Ca1 O1 2.429541 1_455
Ca1 O13 2.435221 1_555
Ca1 O9 2.582623 1_465
Ca1 O4 2.604741 1_565
Ca1 O5 2.625777 1_455
H0 O8 0.981003 1_655
H1 O9 0.981003 1_455
H2 O2 0.978648 1_565
H3 O3 0.978648 1_545
H4 O4 0.992880 1_555
H5 O5 0.992880 1_555
H6 O4 0.989082 1_565
H7 O5 0.989082 1_545
H8 O6 0.992926 1_555
H9 O7 0.992926 1_555
H10 O6 0.974948 1_555
H11 O7 0.974948 1_555
H12 O0 0.983768 1_565
H13 O1 0.983768 1_545
H14 O0 0.985463 1_555
H15 O1 0.985463 1_555
H16 O12 0.981459 1_555
H17 O13 0.981459 1_555
H18 O2 0.987864 1_555
H19 O3 0.987864 1_555
H20 O14 0.982757 1_455
H21 O15 0.982757 1_655
H22 O12 0.979770 1_555
H23 O13 0.979770 1_555
H24 O14 0.977604 1_555
H25 O15 0.977604 1_555
H26 O10 0.984571 1_555
H27 O11 0.984571 1_555
H28 O10 0.988245 1_555
H29 O11 0.988245 1_555
H30 O8 1.002257 1_555
H31 O9 1.002257 1_555
