# generated using pymatgen
data_Na5Br4Cl
_symmetry_space_group_name_H-M   'P 1'
_cell_length_a   14.96794581
_cell_length_b   14.96794581
_cell_length_c   14.96794581
_cell_angle_alpha   164.05636877
_cell_angle_beta   164.05636877
_cell_angle_gamma   22.62166834
_symmetry_Int_Tables_number   1
_chemical_formula_structural   Na5Br4Cl
_chemical_formula_sum   'Na5 Br4 Cl1'
_cell_volume   252.98429544
_cell_formula_units_Z   1
loop_
 _symmetry_equiv_pos_site_id
 _symmetry_equiv_pos_as_xyz
  1  'x, y, z'
loop_
 _atom_site_type_symbol
 _atom_site_label
 _atom_site_symmetry_multiplicity
 _atom_site_fract_x
 _atom_site_fract_y
 _atom_site_fract_z
 _atom_site_occupancy
  Na  Na0  1  0.80009809  0.80009809  0.00000000  1
  Na  Na1  1  0.19990191  0.19990191  -0.00000000  1
  Na  Na2  1  0.59683789  0.59683789  -0.00000000  1
  Na  Na3  1  -0.00000000  0.00000000  -0.00000000  1
  Na  Na4  1  0.40316211  0.40316211  0.00000000  1
  Br  Br0  1  0.90124600  0.90124600  0.00000000  1
  Br  Br1  1  0.30090236  0.30090236  0.00000000  1
  Br  Br2  1  0.69909764  0.69909764  -0.00000000  1
  Br  Br3  1  0.09875400  0.09875400  -0.00000000  1
  Cl  Cl0  1  0.50000000  0.50000000  -0.00000000  1
loop_
_geom_bond_atom_site_label_1
_geom_bond_atom_site_label_2
_geom_bond_distance
_geom_bond_site_symmetry_2
Br0 Na3 2.898871 1_665
Br0 Na4 2.936225 1_554
Br0 Na4 2.936225 1_565
Br0 Na4 2.936225 1_655
Br0 Na4 2.936225 1_666
Br0 Na0 2.969143 1_555
Br1 Na0 2.935782 1_545
Br1 Na0 2.935782 1_444
Br1 Na0 2.935782 1_455
Br1 Na0 2.935782 1_556
Br1 Na1 2.964814 1_555
Br1 Na4 3.001780 1_555
Br2 Na1 2.935782 1_655
Br2 Na1 2.935782 1_554
Br2 Na1 2.935782 1_565
Br2 Na1 2.935782 1_666
Br2 Na0 2.964814 1_555
Br2 Na2 3.001780 1_555
Br3 Na3 2.898871 1_555
Br3 Na2 2.936225 1_444
Br3 Na2 2.936225 1_455
Br3 Na2 2.936225 1_556
Br3 Na2 2.936225 1_545
Br3 Na1 2.969143 1_555
Cl0 Na4 2.842624 1_555
Cl0 Na2 2.842624 1_555
Cl0 Na3 2.935687 1_666
Cl0 Na3 2.935687 1_554
Cl0 Na3 2.935687 1_565
Cl0 Na3 2.935687 1_655
