# generated using pymatgen
data_RbLiCu2H3(SO5)2
_symmetry_space_group_name_H-M   'P 1'
_cell_length_a   6.36415368
_cell_length_b   6.37229790
_cell_length_c   7.96328602
_cell_angle_alpha   67.99712348
_cell_angle_beta   89.74229796
_cell_angle_gamma   121.71586670
_symmetry_Int_Tables_number   1
_chemical_formula_structural   RbLiCu2H3(SO5)2
_chemical_formula_sum   'Rb1 Li1 Cu2 H3 S2 O10'
_cell_volume   246.26038393
_cell_formula_units_Z   1
loop_
 _symmetry_equiv_pos_site_id
 _symmetry_equiv_pos_as_xyz
  1  'x, y, z'
loop_
 _atom_site_type_symbol
 _atom_site_label
 _atom_site_symmetry_multiplicity
 _atom_site_fract_x
 _atom_site_fract_y
 _atom_site_fract_z
 _atom_site_occupancy
  Rb  Rb0  1  0.46792900  0.03026900  0.50003600  1
  Li  Li0  1  0.12563700  0.82401700  0.04588700  1
  Cu  Cu0  1  0.05065700  0.34637100  0.00412400  1
  Cu  Cu1  1  0.64897100  0.94633700  0.00372400  1
  H  H0  1  0.72121500  0.49598400  0.78455200  1
  H  H1  1  0.25855600  0.52285000  0.21910300  1
  H  H2  1  0.59327700  0.41850400  0.98682800  1
  S  S0  1  0.08820500  0.22280300  0.68860000  1
  S  S1  1  0.87903600  0.80893200  0.31189600  1
  O  O0  1  0.79708300  0.05846800  0.74719800  1
  O  O1  1  0.19507500  0.45463400  0.74763500  1
  O  O2  1  0.16073600  0.99357100  0.23173500  1
  O  O3  1  0.77245100  0.60576500  0.23335500  1
  O  O4  1  0.69479300  0.38837500  0.91882300  1
  O  O5  1  0.28731000  0.62853500  0.08394300  1
  O  O6  1  0.17045300  0.04104800  0.78696800  1
  O  O7  1  0.77621400  0.99684700  0.22634100  1
  O  O8  1  0.17252100  0.34188100  0.48563000  1
  O  O9  1  0.79853100  0.68953900  0.51428900  1
loop_
_geom_bond_atom_site_label_1
_geom_bond_atom_site_label_2
_geom_bond_distance
_geom_bond_site_symmetry_2
Li0 O6 1.920557 1_564
Li0 O5 1.941575 1_555
Li0 O3 2.083855 1_455
Li0 O2 2.086846 1_555
Cu0 O1 1.937285 1_554
Cu0 O5 1.980654 1_555
Cu0 O7 2.017801 1_445
Cu0 O4 2.485401 1_454
Cu1 O0 1.937231 1_564
Cu1 O5 1.980780 1_555
Cu1 O7 2.017044 1_555
Cu1 O4 2.486778 1_564
H0 O4 0.984639 1_555
H1 O5 0.985397 1_555
H2 O4 0.976065 1_555
O0 S0 1.527468 1_655
O0 Rb0 2.863677 1_555
O1 S0 1.527363 1_555
O1 Rb0 2.865457 1_565
O2 S1 1.488294 1_455
O2 Rb0 2.893604 1_565
O3 S1 1.488157 1_555
O3 Rb0 2.892970 1_555
O6 S0 1.479970 1_555
O6 Rb0 3.004186 1_555
O7 S1 1.594629 1_555
O7 Rb0 3.064906 1_565
O8 S0 1.456458 1_555
O9 S1 1.450130 1_555
