# generated using pymatgen
data_LaCrTeO6
_symmetry_space_group_name_H-M   'P 1'
_cell_length_a   5.54433669
_cell_length_b   5.52194617
_cell_length_c   5.49464986
_cell_angle_alpha   60.15054465
_cell_angle_beta   120.16039453
_cell_angle_gamma   89.79757898
_symmetry_Int_Tables_number   1
_chemical_formula_structural   LaCrTeO6
_chemical_formula_sum   'La1 Cr1 Te1 O6'
_cell_volume   118.72017075
_cell_formula_units_Z   1
loop_
 _symmetry_equiv_pos_site_id
 _symmetry_equiv_pos_as_xyz
  1  'x, y, z'
loop_
 _atom_site_type_symbol
 _atom_site_label
 _atom_site_symmetry_multiplicity
 _atom_site_fract_x
 _atom_site_fract_y
 _atom_site_fract_z
 _atom_site_occupancy
  La  La0  1  0.76159100  0.25727900  0.50265900  1
  Cr  Cr0  1  0.00183200  0.51053000  0.99772400  1
  Te  Te0  1  0.50264900  0.00929500  0.00152600  1
  O  O0  1  0.33495600  0.24971000  0.51192300  1
  O  O1  1  0.21591300  0.29849500  0.91603200  1
  O  O2  1  0.77305800  0.71075400  0.08141100  1
  O  O3  1  0.20724000  0.81438700  0.92512400  1
  O  O4  1  0.78395600  0.21777000  0.07333400  1
  O  O5  1  0.67904300  0.77318900  0.49067900  1
loop_
_geom_bond_atom_site_label_1
_geom_bond_atom_site_label_2
_geom_bond_distance
_geom_bond_site_symmetry_2
La0 O0 2.391456 1_555
La0 O2 2.451787 1_555
La0 O3 2.453022 1_645
La0 O1 2.515019 1_655
La0 O4 2.536505 1_555
La0 O5 2.740966 1_545
La0 O5 2.846657 1_555
La0 O4 2.970431 1_556
La0 O1 3.010060 1_554
La0 O3 3.065158 1_554
La0 O2 3.076770 1_546
La0 O0 3.153454 1_655
Cr0 O5 2.004373 1_455
Cr0 O1 2.007458 1_555
Cr0 O3 2.018694 1_555
Cr0 O4 2.023548 1_456
Cr0 O2 2.030996 1_456
Cr0 O0 2.038406 1_556
O0 Te0 1.945978 1_556
O1 Te0 1.945026 1_556
O2 Te0 1.938812 1_565
O3 Te0 1.946395 1_566
O4 Te0 1.939052 1_555
O5 Te0 1.934326 1_565
