# generated using pymatgen
data_Mg6ZnSn
_symmetry_space_group_name_H-M   'P 1'
_cell_length_a   4.97812900
_cell_length_b   6.48467300
_cell_length_c   10.87183800
_cell_angle_alpha   90.00000000
_cell_angle_beta   90.00000000
_cell_angle_gamma   90.00000000
_symmetry_Int_Tables_number   1
_chemical_formula_structural   Mg6ZnSn
_chemical_formula_sum   'Mg12 Zn2 Sn2'
_cell_volume   350.95965932
_cell_formula_units_Z   2
loop_
 _symmetry_equiv_pos_site_id
 _symmetry_equiv_pos_as_xyz
  1  'x, y, z'
loop_
 _atom_site_type_symbol
 _atom_site_label
 _atom_site_symmetry_multiplicity
 _atom_site_fract_x
 _atom_site_fract_y
 _atom_site_fract_z
 _atom_site_occupancy
  Mg  Mg0  1  0.50000000  0.24998200  0.58372100  1
  Mg  Mg1  1  0.50000000  0.75001800  0.58372100  1
  Mg  Mg2  1  0.00000000  0.26068200  0.41586400  1
  Mg  Mg3  1  0.00000000  0.73931800  0.41586400  1
  Mg  Mg4  1  0.00000000  0.00000000  0.67034800  1
  Mg  Mg5  1  0.00000000  0.00000000  0.16377800  1
  Mg  Mg6  1  0.50000000  0.74998200  0.08372100  1
  Mg  Mg7  1  0.50000000  0.25001800  0.08372100  1
  Mg  Mg8  1  0.00000000  0.76068200  0.91586400  1
  Mg  Mg9  1  0.00000000  0.23931800  0.91586400  1
  Mg  Mg10  1  0.00000000  0.50000000  0.17034800  1
  Mg  Mg11  1  0.00000000  0.50000000  0.66377800  1
  Zn  Zn0  1  0.50000000  0.00000000  0.83304400  1
  Zn  Zn1  1  0.50000000  0.50000000  0.33304400  1
  Sn  Sn0  1  0.50000000  0.00000000  0.33366500  1
  Sn  Sn1  1  0.50000000  0.50000000  0.83366500  1
loop_
_geom_bond_atom_site_label_1
_geom_bond_atom_site_label_2
_geom_bond_distance
_geom_bond_site_symmetry_2
Mg0 Mg2 3.087162 1_655
Mg0 Mg2 3.087162 1_555
Mg0 Mg11 3.095407 1_555
Mg0 Mg11 3.095407 1_655
Mg0 Mg4 3.116124 1_655
Mg0 Mg4 3.116124 1_555
Mg0 Zn0 3.158347 1_555
Mg0 Sn1 3.164263 1_555
Mg0 Sn0 3.165189 1_555
Mg0 Zn1 3.171109 1_555
Mg0 Mg1 3.242103 1_545
Mg0 Mg1 3.242570 1_555
Mg1 Mg3 3.087162 1_555
Mg1 Mg3 3.087162 1_655
Mg1 Mg11 3.095407 1_655
Mg1 Mg11 3.095407 1_555
Mg1 Mg4 3.116124 1_565
Mg1 Mg4 3.116124 1_665
Mg1 Zn0 3.158347 1_565
Mg1 Sn1 3.164263 1_555
Mg1 Sn0 3.165189 1_565
Mg1 Zn1 3.171109 1_555
Mg2 Zn1 3.068316 1_555
Mg2 Zn1 3.068316 1_455
Mg2 Sn0 3.138732 1_555
Mg2 Sn0 3.138732 1_455
Mg2 Mg4 3.242261 1_555
Mg3 Zn1 3.068316 1_455
Mg3 Zn1 3.068316 1_555
Mg3 Sn0 3.138732 1_465
Mg3 Sn0 3.138732 1_565
Mg3 Mg4 3.242261 1_565
Mg4 Zn0 3.053541 1_555
Mg4 Zn0 3.053541 1_455
Mg4 Mg9 3.087568 1_555
Mg4 Mg8 3.087568 1_545
Mg5 Mg7 3.095407 1_455
Mg5 Mg7 3.095407 1_555
Mg5 Mg6 3.095407 1_445
Mg5 Mg6 3.095407 1_545
Mg5 Sn0 3.099483 1_455
Mg5 Sn0 3.099483 1_555
Mg6 Mg8 3.087162 1_654
Mg6 Mg8 3.087162 1_554
Mg6 Zn1 3.158347 1_555
Mg6 Sn0 3.164263 1_565
Mg6 Sn1 3.165189 1_554
Mg6 Zn0 3.171109 1_564
Mg6 Mg7 3.242103 1_555
Mg6 Mg7 3.242570 1_565
Mg7 Mg9 3.087162 1_654
Mg7 Mg9 3.087162 1_554
Mg7 Zn1 3.158347 1_555
Mg7 Sn0 3.164263 1_555
Mg7 Sn1 3.165189 1_554
Mg7 Zn0 3.171109 1_554
Mg8 Zn0 3.068316 1_465
Mg8 Zn0 3.068316 1_565
Mg8 Sn1 3.138732 1_555
Mg8 Sn1 3.138732 1_455
Mg9 Zn0 3.068316 1_455
Mg9 Zn0 3.068316 1_555
Mg9 Sn1 3.138732 1_555
Mg9 Sn1 3.138732 1_455
Mg10 Zn1 3.053541 1_455
Mg10 Zn1 3.053541 1_555
Mg10 Mg3 3.087568 1_555
Mg10 Mg2 3.087568 1_555
Mg10 Mg6 3.116124 1_555
Mg10 Mg6 3.116124 1_455
Mg10 Mg7 3.116124 1_455
Mg10 Mg7 3.116124 1_555
Mg10 Mg8 3.242261 1_554
Mg10 Mg9 3.242261 1_554
Mg10 Mg5 3.243123 1_565
Mg10 Mg5 3.243123 1_555
Mg11 Sn1 3.099483 1_555
Mg11 Sn1 3.099483 1_455
Mg11 Mg4 3.243123 1_565
Mg11 Mg4 3.243123 1_555
Sn0 Zn1 3.242344 1_555
Sn0 Zn1 3.242344 1_545
Sn1 Zn0 3.242344 1_565
Sn1 Zn0 3.242344 1_555
