# generated using pymatgen
data_BaSrDyWO6
_symmetry_space_group_name_H-M   'P 1'
_cell_length_a   8.43246517
_cell_length_b   8.44332765
_cell_length_c   8.47387647
_cell_angle_alpha   90.00000000
_cell_angle_beta   90.00000000
_cell_angle_gamma   90.00000000
_symmetry_Int_Tables_number   1
_chemical_formula_structural   BaSrDyWO6
_chemical_formula_sum   'Ba4 Sr4 Dy4 W4 O24'
_cell_volume   603.32361896
_cell_formula_units_Z   4
loop_
 _symmetry_equiv_pos_site_id
 _symmetry_equiv_pos_as_xyz
  1  'x, y, z'
loop_
 _atom_site_type_symbol
 _atom_site_label
 _atom_site_symmetry_multiplicity
 _atom_site_fract_x
 _atom_site_fract_y
 _atom_site_fract_z
 _atom_site_occupancy
  Ba  Ba0  1  -0.00000000  -0.00000000  -0.00000000  1
  Ba  Ba1  1  0.50000000  0.50000000  0.50000000  1
  Ba  Ba2  1  0.50000000  -0.00000000  0.50000000  1
  Ba  Ba3  1  0.50000000  0.50000000  -0.00000000  1
  Sr  Sr0  1  -0.00000000  0.50000000  0.50000000  1
  Sr  Sr1  1  0.50000000  -0.00000000  -0.00000000  1
  Sr  Sr2  1  -0.00000000  0.50000000  -0.00000000  1
  Sr  Sr3  1  -0.00000000  -0.00000000  0.50000000  1
  Dy  Dy0  1  0.75222481  0.75046286  0.75038013  1
  Dy  Dy1  1  0.24777519  0.24953714  0.75038013  1
  Dy  Dy2  1  0.24777519  0.75046286  0.24961987  1
  Dy  Dy3  1  0.75222481  0.24953714  0.24961987  1
  W  W0  1  0.24714215  0.24949317  0.25010592  1
  W  W1  1  0.75285785  0.75050683  0.25010592  1
  W  W2  1  0.75285785  0.24949317  0.74989408  1
  W  W3  1  0.24714215  0.75050683  0.74989408  1
  O  O0  1  0.01415363  0.21882314  0.28164879  1
  O  O1  1  0.98584637  0.78117686  0.28164879  1
  O  O2  1  0.98584637  0.21882314  0.71835121  1
  O  O3  1  0.01415363  0.78117686  0.71835121  1
  O  O4  1  0.27978240  0.01442945  0.21814730  1
  O  O5  1  0.27978240  0.98557055  0.78185270  1
  O  O6  1  0.72021760  0.98557055  0.21814730  1
  O  O7  1  0.72021760  0.01442945  0.78185270  1
  O  O8  1  0.21788141  0.28171431  0.01311580  1
  O  O9  1  0.78211859  0.28171431  0.98688420  1
  O  O10  1  0.21788141  0.71828569  0.98688420  1
  O  O11  1  0.78211859  0.71828569  0.01311580  1
  O  O12  1  0.48378091  0.26992271  0.22678049  1
  O  O13  1  0.51621909  0.73007729  0.22678049  1
  O  O14  1  0.51621909  0.26992271  0.77321951  1
  O  O15  1  0.48378091  0.73007729  0.77321951  1
  O  O16  1  0.21687684  0.48557670  0.27699239  1
  O  O17  1  0.21687684  0.51442330  0.72300761  1
  O  O18  1  0.78312316  0.51442330  0.27699239  1
  O  O19  1  0.78312316  0.48557670  0.72300761  1
  O  O20  1  0.26856323  0.22525354  0.48781417  1
  O  O21  1  0.73143677  0.22525354  0.51218583  1
  O  O22  1  0.26856323  0.77474646  0.51218583  1
  O  O23  1  0.73143677  0.77474646  0.48781417  1
loop_
_geom_bond_atom_site_label_1
_geom_bond_atom_site_label_2
_geom_bond_distance
_geom_bond_site_symmetry_2
Ba0 O6 2.999680 1_445
Ba0 O4 2.999680 1_555
Ba0 O5 2.999680 1_544
Ba0 O7 2.999680 1_454
Ba0 O11 3.007608 1_445
Ba0 O10 3.007608 1_544
Ba0 O9 3.007608 1_454
Ba0 O8 3.007608 1_555
Ba0 O0 3.020594 1_555
Ba0 O2 3.020594 1_454
Ba0 O3 3.020594 1_544
Ba0 O1 3.020594 1_445
Ba1 O15 3.025352 1_555
Ba1 O13 3.025352 1_555
Ba1 O12 3.025352 1_555
Ba1 O14 3.025352 1_555
Ba1 O20 3.033264 1_555
Ba1 O22 3.033264 1_555
Ba1 O23 3.033264 1_555
Ba1 O21 3.033264 1_555
Ba1 O17 3.047252 1_555
Ba1 O18 3.047252 1_555
Ba1 O16 3.047252 1_555
Ba1 O19 3.047252 1_555
Ba2 O20 2.726998 1_555
Ba2 O22 2.726998 1_545
Ba2 O21 2.726998 1_555
Ba2 O23 2.726998 1_545
Ba2 O7 3.027803 1_555
Ba2 O5 3.027803 1_545
Ba2 O4 3.027803 1_555
Ba2 O6 3.027803 1_545
Ba2 O13 3.251621 1_545
Ba2 O12 3.251621 1_555
Ba2 O15 3.251621 1_545
Ba2 O14 3.251621 1_555
Ba3 O15 2.735953 1_554
Ba3 O12 2.735953 1_555
Ba3 O13 2.735953 1_555
Ba3 O14 2.735953 1_554
Ba3 O8 3.011419 1_555
Ba3 O10 3.011419 1_554
Ba3 O11 3.011419 1_555
Ba3 O9 3.011419 1_554
Dy0 O3 2.240378 1_655
Dy0 O23 2.241244 1_555
Dy0 O11 2.257026 1_556
Dy0 O7 2.260824 1_565
Dy0 O19 2.263562 1_555
Dy0 O15 2.278413 1_555
Dy1 O2 2.240378 1_455
Dy1 O20 2.241244 1_555
Dy1 O8 2.257026 1_556
Dy1 O5 2.260824 1_545
Dy1 O17 2.263562 1_555
Dy1 O14 2.278413 1_555
Dy2 O1 2.240378 1_455
Dy2 O22 2.241244 1_555
Dy2 O10 2.257026 1_554
Dy2 O4 2.260824 1_565
Dy2 O16 2.263562 1_555
Dy2 O13 2.278413 1_555
Dy3 O0 2.240378 1_655
Dy3 O21 2.241244 1_555
Dy3 O9 2.257026 1_554
Dy3 O6 2.260824 1_545
Dy3 O18 2.263562 1_555
Dy3 O12 2.278413 1_555
O0 W0 1.999605 1_555
O0 Sr3 2.617517 1_555
O0 Sr0 3.012306 1_555
O1 W1 1.999605 1_555
O1 Sr3 2.617517 1_665
O1 Sr0 3.012306 1_655
O2 W2 1.999605 1_555
O2 Sr3 2.617517 1_655
O2 Sr0 3.012306 1_655
O3 W3 1.999605 1_555
O3 Sr3 2.617517 1_565
O3 Sr0 3.012306 1_555
O4 W0 2.021932 1_555
O4 Sr1 2.623043 1_555
O5 W3 2.021932 1_555
O5 Sr1 2.623043 1_566
O6 W1 2.021932 1_555
O6 Sr1 2.623043 1_565
O7 W2 2.021932 1_555
O7 Sr1 2.623043 1_556
O8 W0 2.041534 1_555
O8 Sr2 2.604765 1_555
O9 W2 2.041534 1_555
O9 Sr2 2.604765 1_656
O10 W3 2.041534 1_555
O10 Sr2 2.604765 1_556
O11 W1 2.041534 1_555
O11 Sr2 2.604765 1_655
O12 W0 2.012619 1_555
O12 Sr1 2.984246 1_555
O13 W1 2.012619 1_555
O13 Sr1 2.984246 1_565
O14 W2 2.012619 1_555
O14 Sr1 2.984246 1_556
O15 W3 2.012619 1_555
O15 Sr1 2.984246 1_566
O16 W0 2.022476 1_555
O16 Sr0 2.632580 1_555
O16 Sr2 2.978038 1_555
O17 W3 2.022476 1_555
O17 Sr0 2.632580 1_555
O17 Sr2 2.978038 1_556
O18 W1 2.022476 1_555
O18 Sr0 2.632580 1_655
O18 Sr2 2.978038 1_655
O19 W2 2.022476 1_555
O19 Sr0 2.632580 1_655
O19 Sr2 2.978038 1_656
O20 W0 2.032723 1_555
O20 Sr3 2.959136 1_555
O21 W2 2.032723 1_555
O21 Sr3 2.959136 1_655
O22 W3 2.032723 1_555
O22 Sr3 2.959136 1_565
O23 W1 2.032723 1_555
O23 Sr3 2.959136 1_665
