# generated using pymatgen
data_KMgNi2H3(SeO5)2
_symmetry_space_group_name_H-M   'P 1'
_cell_length_a   5.82023058
_cell_length_b   5.93009081
_cell_length_c   8.43097600
_cell_angle_alpha   62.71640742
_cell_angle_beta   65.54309225
_cell_angle_gamma   64.13056313
_symmetry_Int_Tables_number   1
_chemical_formula_structural   KMgNi2H3(SeO5)2
_chemical_formula_sum   'K1 Mg1 Ni2 H3 Se2 O10'
_cell_volume   224.21483083
_cell_formula_units_Z   1
loop_
 _symmetry_equiv_pos_site_id
 _symmetry_equiv_pos_as_xyz
  1  'x, y, z'
loop_
 _atom_site_type_symbol
 _atom_site_label
 _atom_site_symmetry_multiplicity
 _atom_site_fract_x
 _atom_site_fract_y
 _atom_site_fract_z
 _atom_site_occupancy
  K  K0  1  0.58138100  0.41159400  0.49807500  1
  Mg  Mg0  1  0.97410300  0.48999100  0.70040200  1
  Ni  Ni0  1  0.00158900  0.48078100  0.02988500  1
  Ni  Ni1  1  0.50124500  0.03104400  0.99804300  1
  H  H0  1  0.67390400  0.82516400  0.79298100  1
  H  H1  1  0.30969200  0.29464200  0.26306600  1
  H  H2  1  0.44847500  0.46325300  0.06036600  1
  Se  Se0  1  0.91768000  0.89056400  0.26664800  1
  Se  Se1  1  0.13538200  0.97999500  0.69586200  1
  O  O0  1  0.76848300  0.74961600  0.48786500  1
  O  O1  1  0.21367200  0.25508900  0.51619400  1
  O  O2  1  0.24733400  0.79439200  0.21469500  1
  O  O3  1  0.79637300  0.22108900  0.22160000  1
  O  O4  1  0.81019700  0.17546500  0.78553700  1
  O  O5  1  0.08749900  0.83454900  0.58426900  1
  O  O6  1  0.67883400  0.67452600  0.90968600  1
  O  O7  1  0.33948400  0.33781700  0.12773300  1
  O  O8  1  0.81419600  0.79432300  0.14957100  1
  O  O9  1  0.22681400  0.28672500  0.86185400  1
loop_
_geom_bond_atom_site_label_1
_geom_bond_atom_site_label_2
_geom_bond_distance
_geom_bond_site_symmetry_2
K0 O1 2.607209 1_555
K0 O0 2.623042 1_555
K0 O3 2.653462 1_555
K0 O4 2.746277 1_555
K0 O9 2.867791 1_555
K0 O5 2.954928 1_555
K0 O8 2.982245 1_555
K0 O2 3.108672 1_555
Mg0 O9 2.018805 1_655
Mg0 O5 2.092072 1_655
Mg0 O0 2.156854 1_555
Mg0 O4 2.159277 1_555
Mg0 O1 2.189054 1_655
Mg0 O6 2.209645 1_555
Ni0 O9 1.920968 1_554
Ni0 O3 2.033543 1_455
Ni0 O6 2.121612 1_454
Ni0 O7 2.124650 1_555
Ni0 O8 2.168881 1_455
Ni1 O9 1.994404 1_555
Ni1 O4 2.108648 1_555
Ni1 O2 2.171270 1_546
Ni1 O7 2.206358 1_556
Ni1 O8 2.229728 1_546
Ni1 O6 2.234378 1_545
H0 O6 0.980884 1_555
H0 Mg0 2.207979 1_555
H1 O7 1.002286 1_555
H2 O7 1.002203 1_555
O0 Se0 1.671629 1_555
O1 Se1 1.724845 1_545
O2 Se0 1.666329 1_455
O3 Se0 1.678226 1_545
O4 Se1 1.789279 1_645
O5 Se1 1.696346 1_555
O8 Se0 1.723804 1_555
