# generated using pymatgen
data_Ba2P7I
_symmetry_space_group_name_H-M   'P 1'
_cell_length_a   7.02268344
_cell_length_b   6.44741232
_cell_length_c   12.19839928
_cell_angle_alpha   84.09871541
_cell_angle_beta   90.00000000
_cell_angle_gamma   90.00000000
_symmetry_Int_Tables_number   1
_chemical_formula_structural   Ba2P7I
_chemical_formula_sum   'Ba4 P14 I2'
_cell_volume   549.39376129
_cell_formula_units_Z   2
loop_
 _symmetry_equiv_pos_site_id
 _symmetry_equiv_pos_as_xyz
  1  'x, y, z'
loop_
 _atom_site_type_symbol
 _atom_site_label
 _atom_site_symmetry_multiplicity
 _atom_site_fract_x
 _atom_site_fract_y
 _atom_site_fract_z
 _atom_site_occupancy
  Ba  Ba0  1  0.75000000  0.30145665  0.04916560  1
  Ba  Ba1  1  0.25000000  0.69854335  0.95083440  1
  Ba  Ba2  1  0.75000000  0.07594037  0.63850694  1
  Ba  Ba3  1  0.25000000  0.92405963  0.36149306  1
  P  P0  1  0.75000000  0.50021242  0.44581754  1
  P  P1  1  0.25000000  0.49978758  0.55418246  1
  P  P2  1  0.75000000  0.83393138  0.22581625  1
  P  P3  1  0.25000000  0.16606862  0.77418375  1
  P  P4  1  0.75000000  0.83212511  0.40483745  1
  P  P5  1  0.25000000  0.16787489  0.59516255  1
  P  P6  1  0.50882012  0.63251625  0.20057845  1
  P  P7  1  0.00882012  0.36748375  0.79942155  1
  P  P8  1  0.49117988  0.36748375  0.79942155  1
  P  P9  1  0.99117988  0.63251625  0.20057845  1
  P  P10  1  0.58416635  0.36848509  0.31352273  1
  P  P11  1  0.08416635  0.63151491  0.68647727  1
  P  P12  1  0.41583365  0.63151491  0.68647727  1
  P  P13  1  0.91583365  0.36848509  0.31352273  1
  I  I0  1  0.75000000  0.84362189  0.91317829  1
  I  I1  1  0.25000000  0.15637811  0.08682171  1
loop_
_geom_bond_atom_site_label_1
_geom_bond_atom_site_label_2
_geom_bond_distance
_geom_bond_site_symmetry_2
Ba0 P6 3.412737 1_555
Ba0 P9 3.412737 1_555
Ba0 P13 3.496930 1_555
Ba0 P10 3.496930 1_555
Ba0 P2 3.520500 1_545
Ba0 I0 3.531574 1_544
Ba0 P7 3.535432 1_654
Ba0 P8 3.535432 1_554
Ba0 I1 3.650631 1_655
Ba0 I1 3.650631 1_555
Ba0 I0 3.711916 1_554
Ba1 P7 3.412737 1_555
Ba1 P8 3.412737 1_555
Ba1 P11 3.496930 1_555
Ba1 P12 3.496930 1_555
Ba1 P3 3.520500 1_565
Ba1 I1 3.531574 1_566
Ba1 P9 3.535432 1_456
Ba1 P6 3.535432 1_556
Ba1 I0 3.650631 1_455
Ba1 I0 3.650631 1_555
Ba1 I1 3.711916 1_556
Ba2 P7 3.383588 1_655
Ba2 P8 3.383588 1_555
Ba2 P4 3.393705 1_545
Ba2 P0 3.418399 1_555
Ba2 I0 3.526723 1_545
Ba2 P5 3.591097 1_655
Ba2 P5 3.591097 1_555
Ba2 P12 3.703421 1_545
Ba2 P11 3.703421 1_645
Ba3 P9 3.383588 1_455
Ba3 P6 3.383588 1_555
Ba3 P5 3.393705 1_565
Ba3 P1 3.418399 1_555
Ba3 I1 3.526723 1_565
Ba3 P4 3.591097 1_455
Ba3 P4 3.591097 1_555
Ba3 P10 3.703421 1_565
Ba3 P13 3.703421 1_465
P0 P4 2.146957 1_555
P0 P10 2.227944 1_555
P0 P13 2.227944 1_555
P1 P5 2.146957 1_555
P1 P12 2.227944 1_555
P1 P11 2.227944 1_555
P2 P9 2.175336 1_555
P2 P6 2.175336 1_555
P2 P4 2.182605 1_555
P3 P7 2.175336 1_555
P3 P8 2.175336 1_555
P3 P5 2.182605 1_555
P10 P6 2.143306 1_555
P10 P13 2.329194 1_555
P11 P7 2.143306 1_555
P11 P12 2.329194 1_555
P12 P8 2.143306 1_555
P13 P9 2.143306 1_555
