# generated using pymatgen
data_Mg3SO9
_symmetry_space_group_name_H-M   'P 1'
_cell_length_a   6.51655128
_cell_length_b   7.11815671
_cell_length_c   7.85797926
_cell_angle_alpha   85.46805509
_cell_angle_beta   109.73662683
_cell_angle_gamma   127.89009458
_symmetry_Int_Tables_number   1
_chemical_formula_structural   Mg3SO9
_chemical_formula_sum   'Mg3 S1 O9'
_cell_volume   266.68605677
_cell_formula_units_Z   1
loop_
 _symmetry_equiv_pos_site_id
 _symmetry_equiv_pos_as_xyz
  1  'x, y, z'
loop_
 _atom_site_type_symbol
 _atom_site_label
 _atom_site_symmetry_multiplicity
 _atom_site_fract_x
 _atom_site_fract_y
 _atom_site_fract_z
 _atom_site_occupancy
  Mg  Mg0  1  0.01120100  0.89601800  0.41404800  1
  Mg  Mg1  1  0.45157200  0.57780000  0.99526200  1
  Mg  Mg2  1  0.05777400  0.70459100  0.87106400  1
  S  S0  1  0.11526200  0.91047900  0.14491500  1
  O  O0  1  0.74221200  0.35457600  0.73007600  1
  O  O1  1  0.72769700  0.92224700  0.43767100  1
  O  O2  1  0.42351900  0.81664100  0.86003500  1
  O  O3  1  0.80066500  0.67943900  0.17674900  1
  O  O4  1  0.07437800  0.42920200  0.00232300  1
  O  O5  1  0.02823400  0.88983200  0.66956100  1
  O  O6  1  0.79750800  0.90690800  0.61770800  1
  O  O7  1  0.37333700  0.63987900  0.73941100  1
  O  O8  1  0.88089000  0.27238800  0.82542700  1
loop_
_geom_bond_atom_site_label_1
_geom_bond_atom_site_label_2
_geom_bond_distance
_geom_bond_site_symmetry_2
Mg0 O3 1.965835 1_455
Mg0 O5 1.971572 1_555
Mg0 O1 2.035492 1_455
Mg0 S0 2.406543 1_555
Mg1 O3 1.919025 1_556
Mg1 O7 1.985254 1_555
Mg1 O2 2.004492 1_555
Mg1 O4 2.013212 1_556
Mg2 O5 2.014656 1_555
Mg2 O2 2.029252 1_555
Mg2 O0 2.065897 1_455
Mg2 O4 2.187194 1_556
Mg2 S0 2.489666 1_556
O0 O8 1.357621 1_555
O1 O6 1.349908 1_555
O2 O7 1.436046 1_555
O3 S0 1.763571 1_655
O4 O8 1.449384 1_454
O5 O6 1.498101 1_455
