# generated using pymatgen
data_Tm2Zn17
_symmetry_space_group_name_H-M   'P 1'
_cell_length_a   9.00946700
_cell_length_b   9.00946699
_cell_length_c   8.69129900
_cell_angle_alpha   90.00000000
_cell_angle_beta   90.00000000
_cell_angle_gamma   120.00000370
_symmetry_Int_Tables_number   1
_chemical_formula_structural   Tm2Zn17
_chemical_formula_sum   'Tm4 Zn34'
_cell_volume   610.96102165
_cell_formula_units_Z   2
loop_
 _symmetry_equiv_pos_site_id
 _symmetry_equiv_pos_as_xyz
  1  'x, y, z'
loop_
 _atom_site_type_symbol
 _atom_site_label
 _atom_site_symmetry_multiplicity
 _atom_site_fract_x
 _atom_site_fract_y
 _atom_site_fract_z
 _atom_site_occupancy
  Tm  Tm0  1  0.00000000  0.00000000  0.25000000  1
  Tm  Tm1  1  0.00000000  0.00000000  0.75000000  1
  Tm  Tm2  1  0.33333300  0.66666700  0.75000000  1
  Tm  Tm3  1  0.66666700  0.33333300  0.25000000  1
  Zn  Zn0  1  0.33333300  0.66666700  0.40301600  1
  Zn  Zn1  1  0.66666700  0.33333300  0.59698400  1
  Zn  Zn2  1  0.66666700  0.33333300  0.90301600  1
  Zn  Zn3  1  0.33333300  0.66666700  0.09698400  1
  Zn  Zn4  1  0.50000000  0.50000000  0.50000000  1
  Zn  Zn5  1  0.50000000  0.00000000  0.50000000  1
  Zn  Zn6  1  0.00000000  0.50000000  0.50000000  1
  Zn  Zn7  1  0.50000000  0.50000000  0.00000000  1
  Zn  Zn8  1  0.50000000  0.00000000  0.00000000  1
  Zn  Zn9  1  0.00000000  0.50000000  0.00000000  1
  Zn  Zn10  1  0.32938900  0.36036800  0.25000000  1
  Zn  Zn11  1  0.63963200  0.96902100  0.25000000  1
  Zn  Zn12  1  0.03097900  0.67061100  0.25000000  1
  Zn  Zn13  1  0.63963200  0.67061100  0.25000000  1
  Zn  Zn14  1  0.03097900  0.36036800  0.25000000  1
  Zn  Zn15  1  0.32938900  0.96902100  0.25000000  1
  Zn  Zn16  1  0.67061100  0.63963200  0.75000000  1
  Zn  Zn17  1  0.36036800  0.03097900  0.75000000  1
  Zn  Zn18  1  0.96902100  0.32938900  0.75000000  1
  Zn  Zn19  1  0.36036800  0.32938900  0.75000000  1
  Zn  Zn20  1  0.96902100  0.63963200  0.75000000  1
  Zn  Zn21  1  0.67061100  0.03097900  0.75000000  1
  Zn  Zn22  1  0.16148800  0.83851200  0.51680100  1
  Zn  Zn23  1  0.16148800  0.32297700  0.51680100  1
  Zn  Zn24  1  0.67702300  0.83851200  0.51680100  1
  Zn  Zn25  1  0.83851200  0.16148800  0.48319900  1
  Zn  Zn26  1  0.83851200  0.67702300  0.48319900  1
  Zn  Zn27  1  0.32297700  0.16148800  0.48319900  1
  Zn  Zn28  1  0.83851200  0.16148800  0.01680100  1
  Zn  Zn29  1  0.83851200  0.67702300  0.01680100  1
  Zn  Zn30  1  0.32297700  0.16148800  0.01680100  1
  Zn  Zn31  1  0.16148800  0.83851200  0.98319900  1
  Zn  Zn32  1  0.16148800  0.32297700  0.98319900  1
  Zn  Zn33  1  0.67702300  0.83851200  0.98319900  1
loop_
_geom_bond_atom_site_label_1
_geom_bond_atom_site_label_2
_geom_bond_distance
_geom_bond_site_symmetry_2
Tm0 Zn10 3.116559 1_555
Tm0 Zn13 3.116559 1_445
Tm0 Zn14 3.116559 1_555
Tm0 Zn11 3.116559 1_445
Tm0 Zn12 3.116559 1_545
Tm0 Zn15 3.116559 1_545
Tm0 Zn28 3.233931 1_455
Tm0 Zn25 3.233931 1_455
Tm0 Zn29 3.233937 1_445
Tm0 Zn26 3.233937 1_445
Tm0 Zn30 3.233937 1_555
Tm0 Zn27 3.233937 1_555
Tm0 Zn22 3.424534 1_545
Tm0 Zn31 3.424534 1_544
Tm0 Zn23 3.424540 1_555
Tm0 Zn32 3.424540 1_554
Tm0 Zn24 3.424540 1_445
Tm0 Zn33 3.424540 1_444
Tm1 Zn16 3.116559 1_445
Tm1 Zn19 3.116559 1_555
Tm1 Zn20 3.116559 1_445
Tm1 Zn17 3.116559 1_555
Tm1 Zn18 3.116559 1_455
Tm1 Zn21 3.116559 1_455
Tm1 Zn31 3.233931 1_545
Tm1 Zn22 3.233931 1_545
Tm1 Zn32 3.233937 1_555
Tm1 Zn23 3.233937 1_555
Tm1 Zn33 3.233937 1_445
Tm1 Zn24 3.233937 1_445
Tm1 Zn25 3.424534 1_455
Tm1 Zn28 3.424534 1_456
Tm1 Zn26 3.424540 1_445
Tm1 Zn29 3.424540 1_446
Tm1 Zn27 3.424540 1_555
Tm1 Zn30 3.424540 1_556
Tm2 Zn3 3.015742 1_556
Tm2 Zn0 3.015742 1_555
Tm2 Zn17 3.167503 1_565
Tm2 Zn20 3.167503 1_455
Tm2 Zn21 3.167507 1_565
Tm2 Zn18 3.167507 1_455
Tm2 Zn19 3.167512 1_555
Tm2 Zn16 3.167512 1_555
Tm2 Zn32 3.361397 1_555
Tm2 Zn23 3.361397 1_555
Tm2 Zn33 3.361397 1_555
Tm2 Zn24 3.361397 1_555
Tm2 Zn31 3.361398 1_555
Tm2 Zn22 3.361398 1_555
Tm2 Zn8 3.389006 1_566
Tm2 Zn5 3.389006 1_565
Tm2 Zn6 3.389006 1_555
Tm2 Zn9 3.389006 1_556
Tm2 Zn7 3.389012 1_556
Tm2 Zn4 3.389012 1_555
Tm3 Zn1 3.015742 1_555
Tm3 Zn2 3.015742 1_554
Tm3 Zn11 3.167503 1_545
Tm3 Zn14 3.167503 1_655
Tm3 Zn15 3.167507 1_545
Tm3 Zn12 3.167507 1_655
Tm3 Zn13 3.167512 1_555
Tm3 Zn10 3.167512 1_555
Tm3 Zn26 3.361397 1_555
Tm3 Zn29 3.361397 1_555
Tm3 Zn30 3.361397 1_555
Tm3 Zn27 3.361397 1_555
Tm3 Zn28 3.361398 1_555
Tm3 Zn25 3.361398 1_555
Tm3 Zn8 3.389006 1_555
Tm3 Zn5 3.389006 1_555
Tm3 Zn9 3.389006 1_655
Tm3 Zn6 3.389006 1_655
Tm3 Zn4 3.389012 1_555
Tm3 Zn7 3.389012 1_555
Zn0 Zn3 2.659816 1_555
Zn0 Zn5 2.733990 1_565
Zn0 Zn6 2.733990 1_555
Zn0 Zn4 2.733998 1_555
Zn0 Zn23 2.858158 1_555
Zn0 Zn24 2.858158 1_555
Zn0 Zn22 2.858158 1_555
Zn0 Zn15 3.047483 1_555
Zn0 Zn12 3.047483 1_555
Zn0 Zn14 3.047487 1_555
Zn0 Zn11 3.047487 1_555
Zn0 Zn10 3.047491 1_555
Zn0 Zn13 3.047491 1_555
Zn1 Zn2 2.659816 1_555
Zn1 Zn5 2.733990 1_555
Zn1 Zn6 2.733990 1_655
Zn1 Zn4 2.733998 1_555
Zn1 Zn26 2.858158 1_555
Zn1 Zn27 2.858158 1_555
Zn1 Zn25 2.858158 1_555
Zn1 Zn21 3.047483 1_555
Zn1 Zn18 3.047483 1_555
Zn1 Zn20 3.047487 1_555
Zn1 Zn17 3.047487 1_555
Zn1 Zn16 3.047491 1_555
Zn1 Zn19 3.047491 1_555
Zn2 Zn8 2.733990 1_556
Zn2 Zn9 2.733990 1_656
Zn2 Zn7 2.733998 1_556
Zn2 Zn29 2.858158 1_556
Zn2 Zn30 2.858158 1_556
Zn2 Zn28 2.858158 1_556
Zn2 Zn21 3.047483 1_555
Zn2 Zn20 3.047487 1_555
Zn3 Zn8 2.733990 1_565
Zn3 Zn9 2.733990 1_555
Zn3 Zn7 2.733998 1_555
Zn3 Zn32 2.858158 1_554
Zn3 Zn33 2.858158 1_554
Zn3 Zn31 2.858158 1_554
Zn10 Zn7 2.594758 1_555
Zn10 Zn4 2.594758 1_555
Zn10 Zn30 2.686692 1_555
Zn10 Zn27 2.686692 1_555
Zn10 Zn14 2.688515 1_555
Zn10 Zn23 2.696146 1_555
Zn10 Zn32 2.696146 1_554
Zn10 Zn13 2.795124 1_555
Zn10 Zn3 3.047491 1_555
Zn11 Zn5 2.594758 1_565
Zn11 Zn8 2.594758 1_565
Zn11 Zn25 2.686689 1_565
Zn11 Zn28 2.686689 1_565
Zn11 Zn13 2.688515 1_555
Zn11 Zn24 2.696142 1_555
Zn11 Zn33 2.696142 1_554
Zn11 Zn15 2.795124 1_555
Zn11 Zn3 3.047487 1_555
Zn12 Zn9 2.594758 1_555
Zn12 Zn6 2.594758 1_555
Zn12 Zn29 2.686686 1_455
Zn12 Zn26 2.686686 1_455
Zn12 Zn15 2.688515 1_555
Zn12 Zn22 2.696145 1_555
Zn12 Zn31 2.696145 1_554
Zn12 Zn14 2.795124 1_555
Zn12 Zn3 3.047483 1_555
Zn13 Zn7 2.594758 1_555
Zn13 Zn4 2.594758 1_555
Zn13 Zn29 2.686692 1_555
Zn13 Zn26 2.686692 1_555
Zn13 Zn24 2.696146 1_555
Zn13 Zn33 2.696146 1_554
Zn13 Zn3 3.047491 1_555
Zn14 Zn9 2.594758 1_555
Zn14 Zn6 2.594758 1_555
Zn14 Zn28 2.686689 1_455
Zn14 Zn25 2.686689 1_455
Zn14 Zn23 2.696142 1_555
Zn14 Zn32 2.696142 1_554
Zn14 Zn3 3.047487 1_555
Zn15 Zn8 2.594758 1_565
Zn15 Zn5 2.594758 1_565
Zn15 Zn27 2.686686 1_565
Zn15 Zn30 2.686686 1_565
Zn15 Zn22 2.696145 1_555
Zn15 Zn31 2.696145 1_554
Zn15 Zn3 3.047483 1_555
Zn16 Zn4 2.594758 1_555
Zn16 Zn7 2.594758 1_556
Zn16 Zn33 2.686692 1_555
Zn16 Zn24 2.686692 1_555
Zn16 Zn20 2.688515 1_555
Zn16 Zn26 2.696146 1_555
Zn16 Zn29 2.696146 1_556
Zn16 Zn19 2.795124 1_555
Zn16 Zn2 3.047491 1_555
Zn17 Zn5 2.594758 1_555
Zn17 Zn8 2.594758 1_556
Zn17 Zn31 2.686689 1_545
Zn17 Zn22 2.686689 1_545
Zn17 Zn19 2.688515 1_555
Zn17 Zn27 2.696142 1_555
Zn17 Zn30 2.696142 1_556
Zn17 Zn21 2.795124 1_555
Zn17 Zn2 3.047487 1_555
Zn18 Zn6 2.594758 1_655
Zn18 Zn9 2.594758 1_656
Zn18 Zn32 2.686686 1_655
Zn18 Zn23 2.686686 1_655
Zn18 Zn21 2.688515 1_555
Zn18 Zn25 2.696145 1_555
Zn18 Zn28 2.696145 1_556
Zn18 Zn20 2.795124 1_555
Zn18 Zn2 3.047483 1_555
Zn19 Zn7 2.594758 1_556
Zn19 Zn4 2.594758 1_555
Zn19 Zn32 2.686692 1_555
Zn19 Zn23 2.686692 1_555
Zn19 Zn27 2.696146 1_555
Zn19 Zn30 2.696146 1_556
Zn19 Zn2 3.047491 1_555
Zn20 Zn9 2.594758 1_656
Zn20 Zn6 2.594758 1_655
Zn20 Zn31 2.686689 1_655
Zn20 Zn22 2.686689 1_655
Zn20 Zn26 2.696142 1_555
Zn20 Zn29 2.696142 1_556
Zn21 Zn8 2.594758 1_556
Zn21 Zn5 2.594758 1_555
Zn21 Zn33 2.686686 1_545
Zn21 Zn24 2.686686 1_545
Zn21 Zn25 2.696145 1_555
Zn21 Zn28 2.696145 1_556
Zn22 Zn27 2.536863 1_565
Zn22 Zn26 2.536863 1_455
Zn22 Zn6 2.646174 1_555
Zn22 Zn5 2.646174 1_565
Zn23 Zn25 2.536863 1_455
Zn23 Zn27 2.536879 1_555
Zn23 Zn6 2.646166 1_555
Zn23 Zn4 2.646174 1_555
Zn24 Zn25 2.536863 1_565
Zn24 Zn26 2.536879 1_555
Zn24 Zn5 2.646166 1_565
Zn24 Zn4 2.646174 1_555
Zn25 Zn6 2.646174 1_655
Zn25 Zn5 2.646174 1_555
Zn26 Zn6 2.646166 1_655
Zn26 Zn4 2.646174 1_555
Zn27 Zn5 2.646166 1_555
Zn27 Zn4 2.646174 1_555
Zn28 Zn33 2.536863 1_544
Zn28 Zn32 2.536863 1_654
Zn28 Zn9 2.646174 1_655
Zn28 Zn8 2.646174 1_555
Zn29 Zn31 2.536863 1_654
Zn29 Zn33 2.536879 1_554
Zn29 Zn9 2.646166 1_655
Zn29 Zn7 2.646174 1_555
Zn30 Zn31 2.536863 1_544
Zn30 Zn32 2.536879 1_554
Zn30 Zn8 2.646166 1_555
Zn30 Zn7 2.646174 1_555
Zn31 Zn9 2.646174 1_556
Zn31 Zn8 2.646174 1_566
Zn32 Zn9 2.646166 1_556
Zn32 Zn7 2.646174 1_556
Zn33 Zn8 2.646166 1_566
Zn33 Zn7 2.646174 1_556
