# generated using pymatgen
data_NaNi4(P2O11)2
_symmetry_space_group_name_H-M   'P 1'
_cell_length_a   8.61095061
_cell_length_b   8.54338577
_cell_length_c   12.36004200
_cell_angle_alpha   90.00000000
_cell_angle_beta   90.00000000
_cell_angle_gamma   102.69487924
_symmetry_Int_Tables_number   1
_chemical_formula_structural   NaNi4(P2O11)2
_chemical_formula_sum   'Na2 Ni8 P8 O44'
_cell_volume   887.05890417
_cell_formula_units_Z   2
loop_
 _symmetry_equiv_pos_site_id
 _symmetry_equiv_pos_as_xyz
  1  'x, y, z'
loop_
 _atom_site_type_symbol
 _atom_site_label
 _atom_site_symmetry_multiplicity
 _atom_site_fract_x
 _atom_site_fract_y
 _atom_site_fract_z
 _atom_site_occupancy
  Na  Na0  1  0.36269900  0.48710300  0.18729000  1
  Na  Na1  1  0.63730100  0.51289700  0.68729000  1
  Ni  Ni0  1  0.29635400  0.00980300  0.37681000  1
  Ni  Ni1  1  0.70364600  0.99019700  0.87681000  1
  Ni  Ni2  1  0.71151500  0.01031600  0.37682600  1
  Ni  Ni3  1  0.28848500  0.98968400  0.87682600  1
  Ni  Ni4  1  0.19935600  0.97844000  0.62322700  1
  Ni  Ni5  1  0.80064400  0.02156000  0.12322700  1
  Ni  Ni6  1  0.78757200  0.97437200  0.62328100  1
  Ni  Ni7  1  0.21242800  0.02562800  0.12328100  1
  P  P0  1  0.54915100  0.21960100  0.22245900  1
  P  P1  1  0.45084900  0.78039900  0.72245900  1
  P  P2  1  0.54277100  0.19449700  0.55769300  1
  P  P3  1  0.45722900  0.80550300  0.05769300  1
  P  P4  1  0.95202600  0.78164100  0.44805100  1
  P  P5  1  0.04797400  0.21835900  0.94805100  1
  P  P6  1  0.95415000  0.78098900  0.78818400  1
  P  P7  1  0.04585000  0.21901100  0.28818400  1
  O  O0  1  0.11079800  0.80398100  0.85030000  1
  O  O1  1  0.88920200  0.19601900  0.35030000  1
  O  O2  1  0.39155700  0.20925800  0.15996300  1
  O  O3  1  0.60844300  0.79074200  0.65996300  1
  O  O4  1  0.82527500  0.88209000  0.47824700  1
  O  O5  1  0.17472500  0.11791000  0.97824700  1
  O  O6  1  0.37398000  0.09850600  0.52425800  1
  O  O7  1  0.62602000  0.90149400  0.02425800  1
  O  O8  1  0.08533100  0.39623300  0.61561000  1
  O  O9  1  0.91466900  0.60376700  0.11561000  1
  O  O10  1  0.92005800  0.61877500  0.50628700  1
  O  O11  1  0.07994200  0.38122500  0.00628700  1
  O  O12  1  0.26624200  0.10527500  0.74793000  1
  O  O13  1  0.73375800  0.89472500  0.24793000  1
  O  O14  1  0.22225900  0.89711500  0.24564700  1
  O  O15  1  0.77774100  0.10288500  0.74564700  1
  O  O16  1  0.89072900  0.60841400  0.75081300  1
  O  O17  1  0.10927100  0.39158600  0.25081300  1
  O  O18  1  0.55229100  0.22898000  0.68044000  1
  O  O19  1  0.44770900  0.77102000  0.18044000  1
  O  O20  1  0.52049300  0.08699700  0.31412200  1
  O  O21  1  0.47950700  0.91300300  0.81412200  1
  O  O22  1  0.97853300  0.90380800  0.68917800  1
  O  O23  1  0.02146700  0.09619200  0.18917800  1
  O  O24  1  0.44018300  0.74874300  0.42493000  1
  O  O25  1  0.55981700  0.25125700  0.92493000  1
  O  O26  1  0.59700200  0.38958400  0.27041200  1
  O  O27  1  0.40299800  0.61041600  0.77041200  1
  O  O28  1  0.39534400  0.60242700  0.41625800  1
  O  O29  1  0.60465600  0.39757300  0.91625800  1
  O  O30  1  0.05348400  0.25742900  0.58437000  1
  O  O31  1  0.94651600  0.74257100  0.08437000  1
  O  O32  1  0.94141000  0.73790600  0.32773900  1
  O  O33  1  0.05859000  0.26209400  0.82773900  1
  O  O34  1  0.58158000  0.36650200  0.51259700  1
  O  O35  1  0.41842000  0.63349800  0.01259700  1
  O  O36  1  0.66523200  0.09236300  0.52442200  1
  O  O37  1  0.33476800  0.90763700  0.02442200  1
  O  O38  1  0.68228100  0.19365900  0.14652800  1
  O  O39  1  0.31771900  0.80634100  0.64652800  1
  O  O40  1  0.11976300  0.88760900  0.47705700  1
  O  O41  1  0.88023700  0.11239100  0.97705700  1
  O  O42  1  0.82073700  0.81588200  0.86223000  1
  O  O43  1  0.17926300  0.18411800  0.36223000  1
loop_
_geom_bond_atom_site_label_1
_geom_bond_atom_site_label_2
_geom_bond_distance
_geom_bond_site_symmetry_2
Na0 O17 2.293888 1_555
Na0 O19 2.376175 1_555
Na0 O2 2.463679 1_555
Na0 O35 2.488561 1_555
Na0 O26 2.561064 1_555
Na0 O28 2.989520 1_555
Na1 O16 2.293888 1_555
Na1 O18 2.376175 1_555
Na1 O3 2.463679 1_555
Na1 O34 2.488561 1_555
Na1 O27 2.561064 1_555
Na1 O29 2.989520 1_555
Ni0 O14 1.921508 1_545
Ni0 O43 1.981633 1_555
Ni0 O6 2.029737 1_555
Ni0 O20 2.049619 1_555
Ni0 O40 2.059043 1_545
Ni1 O15 1.921508 1_565
Ni1 O42 1.981633 1_555
Ni1 O7 2.029737 1_556
Ni1 O21 2.049619 1_555
Ni1 O41 2.059043 1_565
Ni2 O13 1.906098 1_545
Ni2 O1 1.974518 1_555
Ni2 O36 2.025094 1_555
Ni2 O4 2.050062 1_545
Ni2 O20 2.051607 1_555
Ni3 O12 1.906098 1_565
Ni3 O0 1.974518 1_555
Ni3 O37 2.025094 1_556
Ni3 O5 2.050062 1_565
Ni3 O21 2.051607 1_555
Ni4 O12 1.899294 1_565
Ni4 O39 1.985498 1_555
Ni4 O40 2.025390 1_555
Ni4 O6 2.032657 1_565
Ni4 O22 2.038096 1_455
Ni5 O13 1.899294 1_545
Ni5 O38 1.985498 1_555
Ni5 O41 2.025390 1_554
Ni5 O7 2.032657 1_545
Ni5 O23 2.038096 1_655
Ni6 O15 1.881750 1_565
Ni6 O3 1.995597 1_555
Ni6 O4 2.013203 1_555
Ni6 O36 2.021316 1_565
Ni6 O22 2.041184 1_555
Ni7 O14 1.881750 1_545
Ni7 O2 1.995597 1_555
Ni7 O5 2.013203 1_554
Ni7 O37 2.021316 1_545
Ni7 O23 2.041184 1_555
O0 P6 1.526787 1_455
O1 P7 1.526787 1_655
O2 P0 1.547039 1_555
O3 P1 1.547039 1_555
O4 P4 1.574386 1_555
O5 P5 1.574386 1_555
O6 P2 1.559474 1_555
O7 P3 1.559474 1_555
O10 P4 1.536753 1_555
O11 P5 1.536753 1_554
O16 P6 1.526922 1_555
O17 P7 1.526922 1_555
O18 P2 1.544236 1_555
O19 P3 1.544236 1_555
O20 P0 1.582735 1_555
O21 P1 1.582735 1_555
O22 P6 1.595541 1_555
O23 P7 1.595541 1_555
O24 O28 1.229236 1_555
O25 O29 1.229236 1_555
O26 P0 1.538521 1_555
O27 P1 1.538521 1_555
O30 O8 1.219681 1_555
O31 O9 1.219681 1_555
O32 P4 1.531113 1_555
O33 P5 1.531113 1_555
O34 P2 1.538169 1_555
O35 P3 1.538169 1_555
O36 P2 1.564252 1_555
O37 P3 1.564252 1_555
O38 P0 1.534852 1_555
O39 P1 1.534852 1_555
O40 P4 1.568324 1_455
O41 P5 1.568324 1_655
O42 P6 1.548150 1_555
O43 P7 1.548150 1_555
