# generated using pymatgen
data_CaMoO3
_symmetry_space_group_name_H-M   'P 1'
_cell_length_a   5.42516888
_cell_length_b   5.63189315
_cell_length_c   7.80730714
_cell_angle_alpha   89.99840329
_cell_angle_beta   90.00000000
_cell_angle_gamma   90.00000000
_symmetry_Int_Tables_number   1
_chemical_formula_structural   CaMoO3
_chemical_formula_sum   'Ca4 Mo4 O12'
_cell_volume   238.54423915
_cell_formula_units_Z   4
loop_
 _symmetry_equiv_pos_site_id
 _symmetry_equiv_pos_as_xyz
  1  'x, y, z'
loop_
 _atom_site_type_symbol
 _atom_site_label
 _atom_site_symmetry_multiplicity
 _atom_site_fract_x
 _atom_site_fract_y
 _atom_site_fract_z
 _atom_site_occupancy
  Ca  Ca0  1  0.01274874  0.05199277  0.24997591  1
  Ca  Ca1  1  0.51274874  0.44800723  0.75002409  1
  Ca  Ca2  1  0.48725126  0.55199277  0.24997591  1
  Ca  Ca3  1  0.98725126  0.94800723  0.75002409  1
  Mo  Mo0  1  0.50000000  0.00000000  0.50000000  1
  Mo  Mo1  1  0.00000000  0.50000000  0.50000000  1
  Mo  Mo2  1  0.00000000  0.50000000  0.00000000  1
  Mo  Mo3  1  0.50000000  0.00000000  0.00000000  1
  O  O0  1  0.29870914  0.29680123  0.04873028  1
  O  O1  1  0.79870914  0.20319877  0.95126972  1
  O  O2  1  0.20132613  0.79679992  0.45120080  1
  O  O3  1  0.70132613  0.70320008  0.54879920  1
  O  O4  1  0.70129086  0.70319877  0.95126972  1
  O  O5  1  0.20129086  0.79680123  0.04873028  1
  O  O6  1  0.79867387  0.20320008  0.54879920  1
  O  O7  1  0.29867387  0.29679992  0.45120080  1
  O  O8  1  0.90452966  0.46537776  0.24998207  1
  O  O9  1  0.40452966  0.03462224  0.75001793  1
  O  O10  1  0.59547034  0.96537776  0.24998207  1
  O  O11  1  0.09547034  0.53462224  0.75001793  1
loop_
_geom_bond_atom_site_label_1
_geom_bond_atom_site_label_2
_geom_bond_distance
_geom_bond_site_symmetry_2
Ca0 O10 2.315766 1_445
Ca0 O2 2.362255 1_545
Ca0 O5 2.362329 1_545
Ca0 O8 2.401027 1_455
Ca0 O7 2.602946 1_555
Ca0 O0 2.603115 1_555
Ca0 O1 2.740822 1_454
Ca0 O6 2.741724 1_455
Ca1 O11 2.315766 1_555
Ca1 O3 2.362255 1_555
Ca1 O4 2.362329 1_555
Ca1 O9 2.401027 1_555
Ca1 O6 2.602946 1_555
Ca1 O1 2.603115 1_555
Ca1 O0 2.740822 1_556
Ca1 O7 2.741724 1_555
Ca2 O8 2.315766 1_555
Ca2 O7 2.362255 1_555
Ca2 O0 2.362329 1_555
Ca2 O10 2.401027 1_555
Ca2 O2 2.602946 1_555
Ca2 O5 2.603115 1_555
Ca2 O4 2.740822 1_554
Ca2 O3 2.741724 1_555
Ca3 O9 2.315766 1_665
Ca3 O6 2.362255 1_565
Ca3 O1 2.362329 1_565
Ca3 O11 2.401027 1_655
Ca3 O3 2.602946 1_555
Ca3 O4 2.603115 1_555
Ca3 O5 2.740822 1_656
Ca3 O2 2.741724 1_655
Mo0 O2 2.019997 1_545
Mo0 O6 2.019997 1_555
Mo0 O10 2.028911 1_545
Mo0 O9 2.028911 1_555
Mo0 O3 2.032768 1_545
Mo0 O7 2.032768 1_555
Mo1 O3 2.019997 1_455
Mo1 O7 2.019997 1_555
Mo1 O8 2.028911 1_455
Mo1 O11 2.028911 1_555
Mo1 O2 2.032768 1_555
Mo1 O6 2.032768 1_455
Mo2 O0 2.020032 1_555
Mo2 O4 2.020032 1_454
Mo2 O11 2.028631 1_554
Mo2 O8 2.028631 1_455
Mo2 O5 2.032588 1_555
Mo2 O1 2.032588 1_454
Mo3 O5 2.020032 1_545
Mo3 O1 2.020032 1_554
Mo3 O9 2.028631 1_554
Mo3 O10 2.028631 1_545
Mo3 O4 2.032588 1_544
Mo3 O0 2.032588 1_555
