# generated using pymatgen
data_Tb3Ni2
_symmetry_space_group_name_H-M   'P 1'
_cell_length_a   6.86537521
_cell_length_b   6.86537521
_cell_length_c   9.57457163
_cell_angle_alpha   75.46149604
_cell_angle_beta   75.46149604
_cell_angle_gamma   30.92541884
_symmetry_Int_Tables_number   1
_chemical_formula_structural   Tb3Ni2
_chemical_formula_sum   'Tb6 Ni4'
_cell_volume   223.91883011
_cell_formula_units_Z   2
loop_
 _symmetry_equiv_pos_site_id
 _symmetry_equiv_pos_as_xyz
  1  'x, y, z'
loop_
 _atom_site_type_symbol
 _atom_site_label
 _atom_site_symmetry_multiplicity
 _atom_site_fract_x
 _atom_site_fract_y
 _atom_site_fract_z
 _atom_site_occupancy
  Tb  Tb0  1  0.13116627  0.13116627  0.00124958  1
  Tb  Tb1  1  0.86883373  0.86883373  0.99875042  1
  Tb  Tb2  1  0.40264205  0.40264205  0.67492180  1
  Tb  Tb3  1  0.59735795  0.59735795  0.32507820  1
  Tb  Tb4  1  0.14478912  0.14478912  0.63547416  1
  Tb  Tb5  1  0.85521088  0.85521088  0.36452584  1
  Ni  Ni0  1  0.53490718  0.53490718  0.85692641  1
  Ni  Ni1  1  0.46509282  0.46509282  0.14307359  1
  Ni  Ni2  1  0.74294061  0.74294061  0.77617176  1
  Ni  Ni3  1  0.25705939  0.25705939  0.22382824  1
loop_
_geom_bond_atom_site_label_1
_geom_bond_atom_site_label_2
_geom_bond_distance
_geom_bond_site_symmetry_2
Ni0 Ni1 2.653523 1_556
Ni0 Ni2 2.658634 1_555
Ni0 Tb2 2.772975 1_555
Ni0 Tb0 2.792753 1_566
Ni0 Tb0 2.792753 1_656
Ni0 Tb4 2.890409 1_655
Ni0 Tb4 2.890409 1_565
Ni0 Tb1 2.910297 1_545
Ni0 Tb1 2.910297 1_455
Ni1 Ni3 2.658634 1_555
Ni1 Tb3 2.772975 1_555
Ni1 Tb1 2.792753 1_544
Ni1 Tb1 2.792753 1_454
Ni1 Tb5 2.890409 1_455
Ni1 Tb5 2.890409 1_545
Ni1 Tb0 2.910297 1_565
Ni1 Tb0 2.910297 1_655
Ni2 Tb2 2.772994 1_655
Ni2 Tb2 2.772994 1_565
Ni2 Tb4 2.786343 1_565
Ni2 Tb4 2.786343 1_655
Ni2 Tb0 2.919235 1_566
Ni2 Tb0 2.919235 1_656
Ni2 Tb1 3.027665 1_555
Ni3 Tb3 2.772994 1_455
Ni3 Tb3 2.772994 1_545
Ni3 Tb5 2.786343 1_455
Ni3 Tb5 2.786343 1_545
Ni3 Tb1 2.919235 1_544
Ni3 Tb1 2.919235 1_454
Ni3 Tb0 3.027665 1_555
