# generated using pymatgen
data_Lu3Ga8Ir3
_symmetry_space_group_name_H-M   'P 1'
_cell_length_a   8.06236677
_cell_length_b   8.06236677
_cell_length_c   8.06236677
_cell_angle_alpha   150.35729027
_cell_angle_beta   106.07612830
_cell_angle_gamma   81.60244450
_symmetry_Int_Tables_number   1
_chemical_formula_structural   Lu3Ga8Ir3
_chemical_formula_sum   'Lu3 Ga8 Ir3'
_cell_volume   244.07508272
_cell_formula_units_Z   1
loop_
 _symmetry_equiv_pos_site_id
 _symmetry_equiv_pos_as_xyz
  1  'x, y, z'
loop_
 _atom_site_type_symbol
 _atom_site_label
 _atom_site_symmetry_multiplicity
 _atom_site_fract_x
 _atom_site_fract_y
 _atom_site_fract_z
 _atom_site_occupancy
  Lu  Lu0  1  0.50000000  0.50000000  0.00000000  1
  Lu  Lu1  1  0.16545040  0.16545040  0.00000000  1
  Lu  Lu2  1  0.83454960  0.83454960  -0.00000000  1
  Ga  Ga0  1  0.66049247  0.37585760  0.28463487  1
  Ga  Ga1  1  0.33950753  0.62414240  0.71536513  1
  Ga  Ga2  1  0.09122273  0.37585760  0.71536513  1
  Ga  Ga3  1  0.90877727  0.62414240  0.28463487  1
  Ga  Ga4  1  0.54317436  0.17133517  0.37183919  1
  Ga  Ga5  1  0.45682564  0.82866483  0.62816081  1
  Ga  Ga6  1  0.79949598  0.17133517  0.62816081  1
  Ga  Ga7  1  0.20050402  0.82866483  0.37183919  1
  Ir  Ir0  1  0.00000000  0.50000000  0.50000000  1
  Ir  Ir1  1  0.22346831  -0.00000000  0.22346831  1
  Ir  Ir2  1  0.77653169  0.00000000  0.77653169  1
loop_
_geom_bond_atom_site_label_1
_geom_bond_atom_site_label_2
_geom_bond_distance
_geom_bond_site_symmetry_2
Ga0 Ir2 2.560430 1_554
Ga0 Ir2 2.560430 1_565
Ga0 Ir0 2.579964 1_655
Ga0 Ga5 2.624295 1_544
Ga0 Ga5 2.624295 1_555
Ga0 Ga4 2.635716 1_555
Ga0 Lu2 2.977889 1_545
Ga0 Lu2 2.977889 1_556
Ga0 Lu0 3.148336 1_555
Ga1 Ir1 2.560430 1_566
Ga1 Ir1 2.560430 1_555
Ga1 Ir0 2.579964 1_555
Ga1 Ga4 2.624295 1_566
Ga1 Ga4 2.624295 1_555
Ga1 Ga5 2.635716 1_555
Ga1 Lu1 2.977889 1_555
Ga1 Lu1 2.977889 1_566
Ga1 Lu0 3.148336 1_556
Ga2 Ir1 2.560430 1_555
Ga2 Ir1 2.560430 1_566
Ga2 Ir0 2.579964 1_555
Ga2 Ga7 2.624295 1_545
Ga2 Ga7 2.624295 1_556
Ga2 Ga6 2.635716 1_455
Ga2 Lu2 2.977889 1_445
Ga2 Lu2 2.977889 1_456
Ga2 Lu0 3.148336 1_556
Ga3 Ir2 2.560430 1_565
Ga3 Ir2 2.560430 1_554
Ga3 Ir0 2.579964 1_655
Ga3 Ga6 2.624295 1_554
Ga3 Ga6 2.624295 1_565
Ga3 Ga7 2.635716 1_655
Ga3 Lu1 2.977889 1_666
Ga3 Lu1 2.977889 1_655
Ga3 Lu0 3.148336 1_555
Ga4 Ga6 2.485179 1_555
Ga4 Ir1 2.538323 1_555
Ga4 Lu2 3.125132 1_545
Ga4 Lu2 3.125132 1_556
Ga4 Lu0 3.189236 1_545
Ga4 Lu0 3.189236 1_556
Ga5 Ga7 2.485179 1_555
Ga5 Ir2 2.538323 1_565
Ga5 Lu1 3.125132 1_566
Ga5 Lu1 3.125132 1_555
Ga5 Lu0 3.189236 1_566
Ga5 Lu0 3.189236 1_555
Ga6 Ir2 2.538323 1_555
Ga6 Lu2 3.125132 1_545
Ga6 Lu2 3.125132 1_556
Ga6 Lu0 3.189236 1_556
Ga6 Lu0 3.189236 1_545
Ga7 Ir1 2.538323 1_565
Ga7 Lu1 3.125132 1_566
Ga7 Lu1 3.125132 1_555
Ga7 Lu0 3.189236 1_555
Ga7 Lu0 3.189236 1_566
Ir0 Lu2 2.886505 1_445
Ir0 Lu2 2.886505 1_456
Ir0 Lu1 2.886505 1_555
Ir0 Lu1 2.886505 1_566
Ir1 Lu2 2.961887 1_445
Ir1 Lu1 2.961887 1_555
Ir1 Lu0 3.382594 1_556
Ir1 Lu0 3.382594 1_545
Ir2 Lu2 2.961887 1_546
Ir2 Lu1 2.961887 1_656
Ir2 Lu0 3.382594 1_556
Ir2 Lu0 3.382594 1_545
