# generated using pymatgen
data_CuNi3O4
_symmetry_space_group_name_H-M   'P 1'
_cell_length_a   2.98719098
_cell_length_b   2.98719098
_cell_length_c   9.93505651
_cell_angle_alpha   90.00000000
_cell_angle_beta   81.35361218
_cell_angle_gamma   120.00000000
_symmetry_Int_Tables_number   1
_chemical_formula_structural   CuNi3O4
_chemical_formula_sum   'Cu1 Ni3 O4'
_cell_volume   75.61060509
_cell_formula_units_Z   1
loop_
 _symmetry_equiv_pos_site_id
 _symmetry_equiv_pos_as_xyz
  1  'x, y, z'
loop_
 _atom_site_type_symbol
 _atom_site_label
 _atom_site_symmetry_multiplicity
 _atom_site_fract_x
 _atom_site_fract_y
 _atom_site_fract_z
 _atom_site_occupancy
  Cu  Cu0  1  0.00000000  0.00000000  0.00000000  1
  Ni  Ni0  1  0.50012500  0.25006200  0.24981300  1
  Ni  Ni1  1  0.00000000  0.50000000  0.50000000  1
  Ni  Ni2  1  0.49987500  0.74993800  0.75018700  1
  O  O0  1  0.25010600  0.12505300  0.62484100  1
  O  O1  1  0.75286000  0.37643000  0.87070900  1
  O  O2  1  0.24714000  0.62357000  0.12929100  1
  O  O3  1  0.74989400  0.87494700  0.37515900  1
loop_
_geom_bond_atom_site_label_1
_geom_bond_atom_site_label_2
_geom_bond_distance
_geom_bond_site_symmetry_2
Cu0 O2 2.138851 1_445
Cu0 O1 2.138851 1_554
Cu0 O2 2.138853 1_555
Cu0 O1 2.138853 1_444
Cu0 O2 2.138853 1_545
Cu0 O1 2.138853 1_454
Ni0 O2 2.089252 1_545
Ni0 O2 2.089254 1_555
Ni0 O2 2.089255 1_655
Ni0 O3 2.116251 1_545
Ni0 O3 2.116253 1_555
Ni0 O3 2.116253 1_445
Ni1 O0 2.113393 1_555
Ni1 O3 2.113393 1_445
Ni1 O0 2.113393 1_565
Ni1 O3 2.113393 1_455
Ni1 O0 2.113393 1_455
Ni1 O3 2.113393 1_555
Ni2 O1 2.089252 1_565
Ni2 O1 2.089254 1_555
Ni2 O1 2.089255 1_455
Ni2 O0 2.116251 1_565
Ni2 O0 2.116253 1_555
Ni2 O0 2.116253 1_665
