# generated using pymatgen
data_Mg4Si3
_symmetry_space_group_name_H-M   'P 1'
_cell_length_a   4.83241000
_cell_length_b   7.73003388
_cell_length_c   8.66846345
_cell_angle_alpha   70.80748081
_cell_angle_beta   76.22950659
_cell_angle_gamma   74.68406657
_symmetry_Int_Tables_number   1
_chemical_formula_structural   Mg4Si3
_chemical_formula_sum   'Mg8 Si6'
_cell_volume   290.85735291
_cell_formula_units_Z   2
loop_
 _symmetry_equiv_pos_site_id
 _symmetry_equiv_pos_as_xyz
  1  'x, y, z'
loop_
 _atom_site_type_symbol
 _atom_site_label
 _atom_site_symmetry_multiplicity
 _atom_site_fract_x
 _atom_site_fract_y
 _atom_site_fract_z
 _atom_site_occupancy
  Mg  Mg0  1  0.06893800  0.40690000  0.32760500  1
  Mg  Mg1  1  0.75559700  0.88952500  0.92581400  1
  Mg  Mg2  1  0.69474500  0.16194900  0.57857200  1
  Mg  Mg3  1  0.27290800  0.88813200  0.51377900  1
  Mg  Mg4  1  0.41706400  0.61723400  0.87748000  1
  Mg  Mg5  1  0.46153800  0.65849900  0.26113200  1
  Mg  Mg6  1  0.08372000  0.41186800  0.72061200  1
  Mg  Mg7  1  0.11760200  0.10538300  0.06524500  1
  Si  Si0  1  0.59899100  0.00444800  0.20552400  1
  Si  Si1  1  0.64440500  0.28500000  0.25234100  1
  Si  Si2  1  0.24040300  0.02368600  0.76816600  1
  Si  Si3  1  0.88723400  0.76651400  0.40286100  1
  Si  Si4  1  0.89567100  0.50369200  0.02136600  1
  Si  Si5  1  0.61132200  0.52712900  0.57940300  1
loop_
_geom_bond_atom_site_label_1
_geom_bond_atom_site_label_2
_geom_bond_distance
_geom_bond_site_symmetry_2
Mg0 Si1 2.683856 1_555
Mg0 Si1 2.754075 1_455
Mg0 Si4 2.780143 1_455
Mg0 Si5 2.910033 1_455
Mg0 Si3 2.924748 1_455
Mg1 Si2 2.694291 1_665
Mg1 Si0 2.725499 1_566
Mg1 Si4 2.759661 1_556
Mg1 Si2 2.909497 1_565
Mg2 Si2 2.651562 1_555
Mg2 Si1 2.719885 1_555
Mg2 Si5 2.746248 1_555
Mg2 Si2 3.196198 1_655
Mg3 Si2 2.693076 1_565
Mg3 Si0 2.756062 1_565
Mg3 Si3 2.766729 1_455
Mg3 Si5 2.788109 1_555
Mg3 Si3 2.895233 1_555
Mg4 Si4 2.693763 1_556
Mg4 Si4 2.761651 1_456
Mg4 Si5 2.779545 1_555
Mg4 Si2 2.916993 1_565
Mg5 Si3 2.781326 1_455
Mg5 Si0 2.786270 1_565
Mg5 Si5 2.808399 1_555
Mg5 Si1 2.808410 1_555
Mg5 Si4 2.895895 1_555
Mg5 Si3 3.037004 1_555
Mg6 Si5 2.653709 1_455
Mg6 Si5 2.791026 1_555
Mg6 Si4 2.806158 1_456
Mg6 Si2 2.807535 1_555
Mg7 Si0 2.694992 1_555
Mg7 Si0 2.706761 1_455
Mg7 Si2 2.743445 1_554
Mg7 Si1 2.797281 1_455
Mg7 Si4 2.907667 1_455
Si0 Si1 2.405933 1_555
Si0 Si3 2.441620 1_545
Si1 Si4 2.458151 1_555
Si3 Si5 2.452347 1_555
