# generated using pymatgen
data_NdMg149
_symmetry_space_group_name_H-M   'P 1'
_cell_length_a   16.03861444
_cell_length_b   16.03861920
_cell_length_c   15.66761301
_cell_angle_alpha   90.00000000
_cell_angle_beta   90.00000000
_cell_angle_gamma   120.00001195
_symmetry_Int_Tables_number   1
_chemical_formula_structural   NdMg149
_chemical_formula_sum   'Nd1 Mg149'
_cell_volume   3490.33601750
_cell_formula_units_Z   1
loop_
 _symmetry_equiv_pos_site_id
 _symmetry_equiv_pos_as_xyz
  1  'x, y, z'
loop_
 _atom_site_type_symbol
 _atom_site_label
 _atom_site_symmetry_multiplicity
 _atom_site_fract_x
 _atom_site_fract_y
 _atom_site_fract_z
 _atom_site_occupancy
  Nd  Nd0  1  -0.00000000  -0.00000000  -0.00000000  1
  Mg  Mg0  1  0.60014893  0.20029886  -0.00000000  1
  Mg  Mg1  1  0.40156366  0.20078233  -0.00000000  1
  Mg  Mg2  1  0.79921867  0.20078233  -0.00000000  1
  Mg  Mg3  1  0.00339795  0.20668638  -0.00000000  1
  Mg  Mg4  1  0.20328843  0.20668638  -0.00000000  1
  Mg  Mg5  1  0.60014893  0.39985007  -0.00000000  1
  Mg  Mg6  1  0.79970114  0.39985007  -0.00000000  1
  Mg  Mg7  1  0.40038260  0.40058172  -0.00000000  1
  Mg  Mg8  1  0.00020012  0.40058172  -0.00000000  1
  Mg  Mg9  1  0.20185980  0.40371860  -0.00000000  1
  Mg  Mg10  1  0.79921867  0.59843534  -0.00000000  1
  Mg  Mg11  1  0.00020012  0.59961740  -0.00000000  1
  Mg  Mg12  1  0.59941828  0.59961740  -0.00000000  1
  Mg  Mg13  1  0.39964809  0.60035291  -0.00000000  1
  Mg  Mg14  1  0.20070481  0.60035291  -0.00000000  1
  Mg  Mg15  1  0.00339795  0.79671157  -0.00000000  1
  Mg  Mg16  1  0.79331362  0.79671157  -0.00000000  1
  Mg  Mg17  1  0.20185980  0.79814120  -0.00000000  1
  Mg  Mg18  1  0.59628140  0.79814120  -0.00000000  1
  Mg  Mg19  1  0.39964809  0.79929519  -0.00000000  1
  Mg  Mg20  1  0.79331362  0.99660205  -0.00000000  1
  Mg  Mg21  1  0.20328843  0.99660205  -0.00000000  1
  Mg  Mg22  1  0.59941828  0.99979988  -0.00000000  1
  Mg  Mg23  1  0.40038260  0.99980088  -0.00000000  1
  Mg  Mg24  1  0.26331380  0.13165740  0.16434136  1
  Mg  Mg25  1  0.86834360  0.13165740  0.16434136  1
  Mg  Mg26  1  0.86834360  0.73668620  0.16434136  1
  Mg  Mg27  1  0.66666700  0.33333300  0.16602280  1
  Mg  Mg28  1  0.46550900  0.13298279  0.16650704  1
  Mg  Mg29  1  0.66747380  0.13298279  0.16650704  1
  Mg  Mg30  1  0.86701721  0.33252620  0.16650704  1
  Mg  Mg31  1  0.46550900  0.33252620  0.16650704  1
  Mg  Mg32  1  0.66747380  0.53449100  0.16650704  1
  Mg  Mg33  1  0.86701721  0.53449100  0.16650704  1
  Mg  Mg34  1  0.46661021  0.53338979  0.16737911  1
  Mg  Mg35  1  0.06678057  0.53339079  0.16737911  1
  Mg  Mg36  1  0.46661021  0.93321943  0.16737911  1
  Mg  Mg37  1  0.26720458  0.53440915  0.16735660  1
  Mg  Mg38  1  0.26720458  0.73279542  0.16735660  1
  Mg  Mg39  1  0.46559085  0.73279542  0.16735660  1
  Mg  Mg40  1  0.06820783  0.33606221  0.16788435  1
  Mg  Mg41  1  0.26785538  0.33606221  0.16788435  1
  Mg  Mg42  1  0.06820783  0.73214462  0.16788435  1
  Mg  Mg43  1  0.66393779  0.73214462  0.16788435  1
  Mg  Mg44  1  0.66393779  0.93179317  0.16788435  1
  Mg  Mg45  1  0.26785538  0.93179317  0.16788435  1
  Mg  Mg46  1  0.06854492  0.13709084  0.17102652  1
  Mg  Mg47  1  0.06854492  0.93145408  0.17102652  1
  Mg  Mg48  1  0.86291016  0.93145508  0.17102652  1
  Mg  Mg49  1  0.80018435  0.19981565  0.33271880  1
  Mg  Mg50  1  0.39963029  0.19981565  0.33271880  1
  Mg  Mg51  1  0.80018435  0.60036971  0.33271880  1
  Mg  Mg52  1  0.59997720  0.19995341  0.33271341  1
  Mg  Mg53  1  0.80004659  0.40002380  0.33271341  1
  Mg  Mg54  1  0.59997720  0.40002380  0.33271341  1
  Mg  Mg55  1  0.20086554  0.00010299  0.33374126  1
  Mg  Mg56  1  0.79923744  0.00010299  0.33374126  1
  Mg  Mg57  1  0.99989701  0.20076156  0.33374126  1
  Mg  Mg58  1  0.20086554  0.20076256  0.33374126  1
  Mg  Mg59  1  0.79923744  0.79913446  0.33374126  1
  Mg  Mg60  1  0.99989701  0.79913446  0.33374126  1
  Mg  Mg61  1  0.59964750  0.00016947  0.33380281  1
  Mg  Mg62  1  0.40052196  0.00016947  0.33380281  1
  Mg  Mg63  1  0.40052196  0.40035250  0.33380281  1
  Mg  Mg64  1  0.99983053  0.40035250  0.33380281  1
  Mg  Mg65  1  0.99983053  0.59947804  0.33380281  1
  Mg  Mg66  1  0.59964750  0.59947804  0.33380281  1
  Mg  Mg67  1  0.40007203  0.59992797  0.33366359  1
  Mg  Mg68  1  0.19985694  0.59992897  0.33366359  1
  Mg  Mg69  1  0.40007203  0.80014306  0.33366359  1
  Mg  Mg70  1  0.20020114  0.40040128  0.33419464  1
  Mg  Mg71  1  0.20020114  0.79979886  0.33419464  1
  Mg  Mg72  1  0.59959872  0.79979986  0.33419464  1
  Mg  Mg73  1  -0.00000000  -0.00000000  0.33470144  1
  Mg  Mg74  1  0.86636189  0.13363711  0.50000000  1
  Mg  Mg75  1  0.26727522  0.13363811  0.50000000  1
  Mg  Mg76  1  0.06679156  0.13358412  0.50000000  1
  Mg  Mg77  1  0.46704842  0.13425555  0.50000000  1
  Mg  Mg78  1  0.66720813  0.13425655  0.50000000  1
  Mg  Mg79  1  0.86574345  0.33279187  0.50000000  1
  Mg  Mg80  1  0.46704842  0.33279187  0.50000000  1
  Mg  Mg81  1  0.66666700  0.33333300  0.50000000  1
  Mg  Mg82  1  0.26675204  0.33368034  0.50000000  1
  Mg  Mg83  1  0.06692930  0.33368134  0.50000000  1
  Mg  Mg84  1  0.86574345  0.53295158  0.50000000  1
  Mg  Mg85  1  0.66720813  0.53295258  0.50000000  1
  Mg  Mg86  1  0.46700492  0.53299508  0.50000000  1
  Mg  Mg87  1  0.06599016  0.53299508  0.50000000  1
  Mg  Mg88  1  0.26679579  0.53359158  0.50000000  1
  Mg  Mg89  1  0.86636189  0.73272478  0.50000000  1
  Mg  Mg90  1  0.66631866  0.73324796  0.50000000  1
  Mg  Mg91  1  0.06692930  0.73324796  0.50000000  1
  Mg  Mg92  1  0.26679579  0.73320421  0.50000000  1
  Mg  Mg93  1  0.46640842  0.73320421  0.50000000  1
  Mg  Mg94  1  0.06679156  0.93320844  0.50000000  1
  Mg  Mg95  1  0.86641688  0.93320844  0.50000000  1
  Mg  Mg96  1  0.66631866  0.93307070  0.50000000  1
  Mg  Mg97  1  0.26675204  0.93307070  0.50000000  1
  Mg  Mg98  1  0.46700492  0.93400984  0.50000000  1
  Mg  Mg99  1  -0.00000000  -0.00000000  0.66529856  1
  Mg  Mg100  1  0.20020114  0.40040128  0.66580536  1
  Mg  Mg101  1  0.20020114  0.79979886  0.66580536  1
  Mg  Mg102  1  0.59959872  0.79979986  0.66580536  1
  Mg  Mg103  1  0.40007203  0.59992797  0.66633641  1
  Mg  Mg104  1  0.19985694  0.59992897  0.66633641  1
  Mg  Mg105  1  0.40007203  0.80014306  0.66633641  1
  Mg  Mg106  1  0.59964750  0.00016947  0.66619719  1
  Mg  Mg107  1  0.40052196  0.00016947  0.66619719  1
  Mg  Mg108  1  0.40052196  0.40035250  0.66619719  1
  Mg  Mg109  1  0.99983053  0.40035250  0.66619719  1
  Mg  Mg110  1  0.99983053  0.59947804  0.66619719  1
  Mg  Mg111  1  0.59964750  0.59947804  0.66619719  1
  Mg  Mg112  1  0.20086554  0.00010299  0.66625874  1
  Mg  Mg113  1  0.79923744  0.00010299  0.66625874  1
  Mg  Mg114  1  0.99989701  0.20076156  0.66625874  1
  Mg  Mg115  1  0.20086554  0.20076256  0.66625874  1
  Mg  Mg116  1  0.79923744  0.79913446  0.66625874  1
  Mg  Mg117  1  0.99989701  0.79913446  0.66625874  1
  Mg  Mg118  1  0.59997720  0.19995341  0.66728659  1
  Mg  Mg119  1  0.80004659  0.40002380  0.66728659  1
  Mg  Mg120  1  0.59997720  0.40002380  0.66728659  1
  Mg  Mg121  1  0.80018435  0.19981565  0.66728120  1
  Mg  Mg122  1  0.39963029  0.19981565  0.66728120  1
  Mg  Mg123  1  0.80018435  0.60036971  0.66728120  1
  Mg  Mg124  1  0.06854492  0.13709084  0.82897248  1
  Mg  Mg125  1  0.06854492  0.93145408  0.82897248  1
  Mg  Mg126  1  0.86291016  0.93145508  0.82897248  1
  Mg  Mg127  1  0.06820783  0.33606221  0.83211565  1
  Mg  Mg128  1  0.26785538  0.33606221  0.83211565  1
  Mg  Mg129  1  0.06820783  0.73214462  0.83211565  1
  Mg  Mg130  1  0.66393779  0.73214462  0.83211565  1
  Mg  Mg131  1  0.66393779  0.93179317  0.83211565  1
  Mg  Mg132  1  0.26785538  0.93179317  0.83211565  1
  Mg  Mg133  1  0.26720458  0.53440915  0.83264340  1
  Mg  Mg134  1  0.26720458  0.73279542  0.83264340  1
  Mg  Mg135  1  0.46559085  0.73279542  0.83264340  1
  Mg  Mg136  1  0.46661021  0.53338979  0.83262089  1
  Mg  Mg137  1  0.06678057  0.53339079  0.83262089  1
  Mg  Mg138  1  0.46661021  0.93321943  0.83262089  1
  Mg  Mg139  1  0.46550900  0.13298279  0.83349296  1
  Mg  Mg140  1  0.66747380  0.13298279  0.83349296  1
  Mg  Mg141  1  0.86701721  0.33252620  0.83349296  1
  Mg  Mg142  1  0.46550900  0.33252620  0.83349296  1
  Mg  Mg143  1  0.66747380  0.53449100  0.83349296  1
  Mg  Mg144  1  0.86701721  0.53449100  0.83349296  1
  Mg  Mg145  1  0.66666700  0.33333300  0.83397720  1
  Mg  Mg146  1  0.26331380  0.13165740  0.83565864  1
  Mg  Mg147  1  0.86834360  0.13165740  0.83565864  1
  Mg  Mg148  1  0.86834360  0.73668620  0.83565864  1
loop_
_geom_bond_atom_site_label_1
_geom_bond_atom_site_label_2
_geom_bond_distance
_geom_bond_site_symmetry_2
Mg0 Mg1 3.188917 1_555
Mg0 Mg2 3.188933 1_555
Mg0 Mg27 3.190705 1_555
Mg0 Mg145 3.190705 1_554
Mg0 Mg5 3.200526 1_555
Mg0 Mg6 3.200533 1_555
Mg0 Mg28 3.209836 1_555
Mg0 Mg139 3.209836 1_554
Mg0 Mg29 3.209845 1_555
Mg0 Mg140 3.209845 1_554
Mg0 Mg23 3.209858 1_545
Mg0 Mg22 3.209884 1_545
Mg1 Mg31 3.186717 1_555
Mg1 Mg142 3.186717 1_554
Mg1 Mg28 3.186726 1_555
Mg1 Mg139 3.186726 1_554
Mg1 Mg5 3.188909 1_555
Mg1 Mg146 3.212043 1_554
Mg1 Mg24 3.212043 1_555
Mg1 Mg7 3.214019 1_555
Mg1 Mg23 3.214036 1_545
Mg1 Mg4 3.228448 1_555
Mg1 Mg21 3.228456 1_545
Mg2 Mg30 3.186717 1_555
Mg2 Mg29 3.186725 1_555
Mg2 Mg6 3.188910 1_555
Mg2 Mg25 3.212043 1_555
Mg2 Mg8 3.214027 1_655
Mg2 Mg22 3.214043 1_545
Mg2 Mg3 3.228448 1_655
Mg2 Mg20 3.228457 1_545
Mg3 Mg8 3.135773 1_555
Mg3 Mg9 3.171651 1_555
Mg3 Mg40 3.185589 1_555
Mg3 Mg4 3.205966 1_555
Mg3 Mg46 3.268657 1_555
Mg3 Nd0 3.288054 1_555
Mg4 Mg7 3.135780 1_555
Mg4 Mg9 3.171643 1_555
Mg4 Mg41 3.185589 1_555
Mg4 Mg46 3.268665 1_555
Mg4 Nd0 3.288053 1_555
Mg5 Mg6 3.200541 1_555
Mg5 Mg7 3.209859 1_555
Mg6 Mg8 3.209875 1_655
Mg7 Mg9 3.209482 1_555
Mg8 Mg9 3.209482 1_555
Mg10 Mg33 3.186710 1_555
Mg10 Mg144 3.186710 1_554
Mg10 Mg32 3.186725 1_555
Mg10 Mg143 3.186725 1_554
Mg10 Mg6 3.188910 1_555
Mg10 Mg5 3.188925 1_555
Mg10 Mg148 3.212051 1_554
Mg10 Mg26 3.212051 1_555
Mg10 Mg11 3.214027 1_655
Mg10 Mg12 3.214043 1_555
Mg10 Mg15 3.228456 1_655
Mg10 Mg16 3.228473 1_555
Mg11 Mg15 3.135789 1_555
Mg11 Mg8 3.192257 1_555
Mg11 Mg33 3.198174 1_455
Mg11 Mg144 3.198174 1_454
Mg11 Mg35 3.206238 1_555
Mg11 Mg137 3.206238 1_554
Mg11 Mg17 3.209490 1_555
Mg11 Mg6 3.209874 1_455
Mg11 Mg14 3.209935 1_555
Mg11 Mg42 3.210606 1_555
Mg11 Mg129 3.210606 1_554
Mg12 Mg16 3.135780 1_555
Mg12 Mg7 3.192256 1_555
Mg12 Mg32 3.198166 1_555
Mg12 Mg143 3.198166 1_554
Mg12 Mg34 3.206246 1_555
Mg12 Mg136 3.206246 1_554
Mg12 Mg18 3.209499 1_555
Mg12 Mg5 3.209867 1_555
Mg12 Mg13 3.209952 1_555
Mg12 Mg43 3.210606 1_555
Mg12 Mg130 3.210606 1_554
Mg13 Mg18 3.163029 1_555
Mg13 Mg9 3.163037 1_555
Mg13 Mg19 3.190759 1_555
Mg13 Mg14 3.190775 1_555
Mg13 Mg135 3.203040 1_554
Mg13 Mg39 3.203040 1_555
Mg13 Mg133 3.203048 1_554
Mg13 Mg37 3.203048 1_555
Mg13 Mg7 3.209961 1_555
Mg13 Mg34 3.215197 1_555
Mg13 Mg136 3.215197 1_554
Mg14 Mg17 3.163030 1_555
Mg14 Mg9 3.163046 1_555
Mg14 Mg19 3.190766 1_555
Mg14 Mg38 3.203040 1_555
Mg14 Mg37 3.203049 1_555
Mg14 Mg8 3.209951 1_555
Mg14 Mg35 3.215189 1_555
Mg15 Mg17 3.171651 1_555
Mg15 Mg42 3.185597 1_555
Mg15 Mg26 3.187978 1_455
Mg15 Mg21 3.205966 1_555
Mg15 Mg47 3.268657 1_555
Mg15 Nd0 3.288054 1_565
Mg15 Mg16 3.369462 1_455
Mg16 Mg18 3.171651 1_555
Mg16 Mg43 3.185589 1_555
Mg16 Mg26 3.187987 1_555
Mg16 Mg20 3.205967 1_555
Mg16 Mg48 3.268665 1_555
Mg16 Nd0 3.288053 1_665
Mg17 Mg19 3.163037 1_555
Mg17 Mg21 3.171643 1_555
Mg17 Mg38 3.189124 1_555
Mg17 Mg23 3.209482 1_555
Mg17 Mg42 3.219494 1_555
Mg17 Mg45 3.219495 1_555
Mg18 Mg19 3.163021 1_555
Mg18 Mg20 3.171642 1_555
Mg18 Mg39 3.189123 1_555
Mg18 Mg22 3.209467 1_555
Mg18 Mg44 3.219495 1_555
Mg18 Mg43 3.219503 1_555
Mg19 Mg39 3.203041 1_555
Mg19 Mg38 3.203048 1_555
Mg19 Mg22 3.209943 1_555
Mg19 Mg23 3.209960 1_555
Mg19 Mg36 3.215189 1_555
Mg20 Mg22 3.135772 1_555
Mg20 Mg44 3.185589 1_555
Mg20 Mg25 3.187987 1_565
Mg20 Mg48 3.268665 1_555
Mg20 Nd0 3.288053 1_665
Mg20 Mg3 3.369461 1_665
Mg21 Mg23 3.135780 1_555
Mg21 Mg45 3.185589 1_555
Mg21 Mg24 3.187987 1_565
Mg21 Mg47 3.268665 1_555
Mg21 Nd0 3.288053 1_565
Mg21 Mg4 3.369463 1_565
Mg22 Mg23 3.192265 1_555
Mg22 Mg29 3.198174 1_565
Mg22 Mg36 3.206246 1_555
Mg22 Mg44 3.210598 1_555
Mg23 Mg28 3.198166 1_565
Mg23 Mg36 3.206254 1_555
Mg23 Mg45 3.210606 1_555
Mg24 Mg46 3.170025 1_555
Mg24 Mg47 3.170033 1_545
Mg24 Mg4 3.187978 1_555
Mg24 Mg58 3.222720 1_555
Mg24 Mg55 3.222728 1_555
Mg24 Mg31 3.232525 1_555
Mg24 Mg28 3.232533 1_555
Mg24 Mg41 3.243039 1_555
Mg24 Mg45 3.243055 1_545
Mg24 Mg50 3.247221 1_555
Mg25 Mg46 3.170009 1_655
Mg25 Mg48 3.170026 1_545
Mg25 Mg3 3.187978 1_655
Mg25 Mg57 3.222719 1_555
Mg25 Mg56 3.222728 1_555
Mg25 Mg30 3.232526 1_555
Mg25 Mg29 3.232533 1_555
Mg25 Mg40 3.243046 1_655
Mg25 Mg44 3.243054 1_545
Mg25 Mg49 3.247230 1_555
Mg26 Mg47 3.170009 1_655
Mg26 Mg48 3.170026 1_555
Mg26 Mg60 3.222720 1_555
Mg26 Mg59 3.222728 1_555
Mg26 Mg33 3.232526 1_555
Mg26 Mg32 3.232532 1_555
Mg26 Mg43 3.243054 1_555
Mg26 Mg42 3.243054 1_655
Mg26 Mg51 3.247222 1_555
Mg27 Mg6 3.190704 1_555
Mg27 Mg5 3.190713 1_555
Mg27 Mg53 3.202014 1_555
Mg27 Mg52 3.202014 1_555
Mg27 Mg54 3.202022 1_555
Mg27 Mg30 3.219838 1_555
Mg27 Mg29 3.219839 1_555
Mg27 Mg28 3.219846 1_555
Mg27 Mg33 3.219846 1_555
Mg27 Mg31 3.219854 1_555
Mg27 Mg32 3.219855 1_555
Mg28 Mg50 3.190537 1_555
Mg28 Mg45 3.198896 1_545
Mg28 Mg31 3.200401 1_555
Mg28 Mg52 3.204621 1_555
Mg28 Mg62 3.205300 1_555
Mg28 Mg36 3.212825 1_545
Mg28 Mg29 3.239236 1_555
Mg29 Mg49 3.190529 1_555
Mg29 Mg44 3.198897 1_545
Mg29 Mg30 3.200400 1_555
Mg29 Mg52 3.204613 1_555
Mg29 Mg61 3.205300 1_555
Mg29 Mg36 3.212816 1_545
Mg30 Mg49 3.190529 1_555
Mg30 Mg8 3.198174 1_655
Mg30 Mg40 3.198912 1_655
Mg30 Mg53 3.204621 1_555
Mg30 Mg64 3.205299 1_555
Mg30 Mg6 3.209837 1_555
Mg30 Mg35 3.212824 1_655
Mg30 Mg33 3.239237 1_555
Mg31 Mg50 3.190529 1_555
Mg31 Mg7 3.198166 1_555
Mg31 Mg41 3.198896 1_555
Mg31 Mg54 3.204621 1_555
Mg31 Mg63 3.205300 1_555
Mg31 Mg5 3.209836 1_555
Mg31 Mg34 3.212809 1_555
Mg31 Mg32 3.239235 1_555
Mg32 Mg51 3.190529 1_555
Mg32 Mg43 3.198897 1_555
Mg32 Mg33 3.200400 1_555
Mg32 Mg54 3.204613 1_555
Mg32 Mg66 3.205300 1_555
Mg32 Mg5 3.209845 1_555
Mg32 Mg34 3.212808 1_555
Mg33 Mg51 3.190537 1_555
Mg33 Mg42 3.198904 1_655
Mg33 Mg53 3.204613 1_555
Mg33 Mg65 3.205299 1_555
Mg33 Mg6 3.209845 1_555
Mg33 Mg35 3.212816 1_655
Mg34 Mg41 3.176378 1_555
Mg34 Mg43 3.176378 1_555
Mg34 Mg67 3.194387 1_555
Mg34 Mg66 3.195860 1_555
Mg34 Mg63 3.195860 1_555
Mg34 Mg7 3.206246 1_555
Mg34 Mg37 3.206396 1_555
Mg34 Mg39 3.206397 1_555
Mg35 Mg42 3.176363 1_555
Mg35 Mg40 3.176395 1_555
Mg35 Mg68 3.194387 1_555
Mg35 Mg65 3.195860 1_455
Mg35 Mg64 3.195868 1_455
Mg35 Mg8 3.206254 1_555
Mg35 Mg38 3.206380 1_555
Mg35 Mg37 3.206388 1_555
Mg36 Mg44 3.176370 1_555
Mg36 Mg45 3.176386 1_555
Mg36 Mg69 3.194387 1_555
Mg36 Mg61 3.195860 1_565
Mg36 Mg62 3.195868 1_565
Mg36 Mg39 3.206381 1_555
Mg36 Mg38 3.206388 1_555
Mg37 Mg39 3.181841 1_555
Mg37 Mg38 3.181842 1_555
Mg37 Mg40 3.186445 1_555
Mg37 Mg41 3.186454 1_555
Mg37 Mg9 3.189123 1_555
Mg37 Mg67 3.193030 1_555
Mg37 Mg68 3.193031 1_555
Mg37 Mg70 3.208952 1_555
Mg38 Mg39 3.181841 1_555
Mg38 Mg42 3.186437 1_555
Mg38 Mg45 3.186454 1_555
Mg38 Mg68 3.193023 1_555
Mg38 Mg69 3.193030 1_555
Mg38 Mg71 3.208944 1_555
Mg39 Mg44 3.186453 1_555
Mg39 Mg43 3.186453 1_555
Mg39 Mg69 3.193023 1_555
Mg39 Mg67 3.193031 1_555
Mg39 Mg72 3.208952 1_555
Mg40 Mg70 3.186148 1_555
Mg40 Mg64 3.186594 1_455
Mg40 Mg46 3.194312 1_555
Mg40 Mg41 3.202070 1_555
Mg40 Mg57 3.206950 1_455
Mg40 Mg8 3.210606 1_555
Mg40 Mg9 3.219494 1_555
Mg41 Mg70 3.186148 1_555
Mg41 Mg63 3.186585 1_555
Mg41 Mg46 3.194327 1_555
Mg41 Mg58 3.206942 1_555
Mg41 Mg7 3.210606 1_555
Mg41 Mg9 3.219495 1_555
Mg42 Mg71 3.186148 1_555
Mg42 Mg65 3.186586 1_455
Mg42 Mg47 3.194328 1_555
Mg42 Mg45 3.202078 1_555
Mg42 Mg60 3.206950 1_455
Mg43 Mg72 3.186156 1_555
Mg43 Mg66 3.186586 1_555
Mg43 Mg48 3.194335 1_555
Mg43 Mg44 3.202087 1_555
Mg43 Mg59 3.206942 1_555
Mg44 Mg72 3.186148 1_555
Mg44 Mg61 3.186586 1_565
Mg44 Mg48 3.194335 1_555
Mg44 Mg56 3.206942 1_565
Mg45 Mg71 3.186156 1_555
Mg45 Mg62 3.186585 1_565
Mg45 Mg47 3.194327 1_555
Mg45 Mg55 3.206942 1_565
Mg46 Mg57 3.143026 1_455
Mg46 Mg58 3.143042 1_555
Mg46 Mg73 3.194056 1_555
Mg46 Nd0 3.287248 1_555
Mg46 Mg48 3.298105 1_445
Mg46 Mg47 3.298130 1_545
Mg47 Mg60 3.143034 1_455
Mg47 Mg55 3.143042 1_565
Mg47 Mg73 3.194056 1_565
Mg47 Nd0 3.287249 1_565
Mg47 Mg48 3.298105 1_455
Mg48 Mg59 3.143042 1_555
Mg48 Mg56 3.143042 1_565
Mg48 Mg73 3.194047 1_665
Mg48 Nd0 3.287240 1_665
Mg49 Mg56 3.195589 1_555
Mg49 Mg57 3.195596 1_555
Mg49 Mg74 3.201381 1_555
Mg49 Mg78 3.206369 1_555
Mg49 Mg79 3.206370 1_555
Mg49 Mg61 3.209259 1_555
Mg49 Mg64 3.209259 1_555
Mg49 Mg52 3.212151 1_555
Mg49 Mg53 3.212168 1_555
Mg50 Mg58 3.195572 1_555
Mg50 Mg55 3.195580 1_555
Mg50 Mg75 3.201372 1_555
Mg50 Mg80 3.206370 1_555
Mg50 Mg77 3.206386 1_555
Mg50 Mg63 3.209252 1_555
Mg50 Mg62 3.209268 1_555
Mg50 Mg54 3.212175 1_555
Mg50 Mg52 3.212183 1_555
Mg51 Mg59 3.195573 1_555
Mg51 Mg60 3.195580 1_555
Mg51 Mg89 3.201373 1_555
Mg51 Mg85 3.206369 1_555
Mg51 Mg84 3.206378 1_555
Mg51 Mg66 3.209251 1_555
Mg51 Mg65 3.209268 1_555
Mg51 Mg54 3.212159 1_555
Mg51 Mg53 3.212168 1_555
Mg52 Mg61 3.201663 1_555
Mg52 Mg62 3.201670 1_555
Mg52 Mg78 3.206040 1_555
Mg52 Mg77 3.206048 1_555
Mg52 Mg53 3.208844 1_555
Mg52 Mg54 3.208853 1_555
Mg52 Mg81 3.209635 1_555
Mg53 Mg65 3.201662 1_555
Mg53 Mg64 3.201670 1_555
Mg53 Mg84 3.206040 1_555
Mg53 Mg79 3.206048 1_555
Mg53 Mg54 3.208836 1_555
Mg53 Mg81 3.209634 1_555
Mg54 Mg66 3.201663 1_555
Mg54 Mg63 3.201670 1_555
Mg54 Mg80 3.206048 1_555
Mg54 Mg85 3.206048 1_555
Mg54 Mg81 3.209643 1_555
Mg55 Mg97 3.192806 1_545
Mg55 Mg75 3.197755 1_555
Mg55 Mg62 3.201679 1_555
Mg55 Mg94 3.202098 1_545
Mg55 Mg71 3.207295 1_545
Mg55 Mg58 3.218302 1_555
Mg55 Mg73 3.220814 1_555
Mg55 Mg60 3.223257 1_445
Mg56 Mg96 3.192805 1_545
Mg56 Mg74 3.197747 1_555
Mg56 Mg61 3.201679 1_555
Mg56 Mg95 3.202098 1_545
Mg56 Mg72 3.207278 1_545
Mg56 Mg57 3.218293 1_555
Mg56 Mg73 3.220815 1_655
Mg56 Mg59 3.223258 1_545
Mg57 Mg83 3.192814 1_655
Mg57 Mg74 3.197755 1_555
Mg57 Mg64 3.201696 1_555
Mg57 Mg76 3.202082 1_655
Mg57 Mg70 3.207294 1_655
Mg57 Mg73 3.220800 1_655
Mg57 Mg58 3.223249 1_655
Mg58 Mg82 3.192797 1_555
Mg58 Mg75 3.197747 1_555
Mg58 Mg63 3.201679 1_555
Mg58 Mg76 3.202098 1_555
Mg58 Mg70 3.207279 1_555
Mg58 Mg73 3.220814 1_555
Mg59 Mg90 3.192805 1_555
Mg59 Mg89 3.197747 1_555
Mg59 Mg66 3.201679 1_555
Mg59 Mg95 3.202098 1_555
Mg59 Mg72 3.207286 1_555
Mg59 Mg60 3.218301 1_555
Mg59 Mg73 3.220814 1_665
Mg60 Mg91 3.192806 1_655
Mg60 Mg89 3.197755 1_555
Mg60 Mg65 3.201680 1_555
Mg60 Mg94 3.202098 1_655
Mg60 Mg71 3.207294 1_655
Mg60 Mg73 3.220815 1_665
Mg61 Mg98 3.189789 1_545
Mg61 Mg62 3.193698 1_555
Mg61 Mg96 3.198860 1_545
Mg61 Mg78 3.201430 1_555
Mg61 Mg69 3.204537 1_545
Mg61 Mg72 3.213267 1_545
Mg62 Mg98 3.189789 1_545
Mg62 Mg97 3.198859 1_545
Mg62 Mg77 3.201421 1_555
Mg62 Mg69 3.204546 1_545
Mg62 Mg71 3.213274 1_545
Mg63 Mg86 3.189789 1_555
Mg63 Mg66 3.193698 1_555
Mg63 Mg82 3.198859 1_555
Mg63 Mg80 3.201430 1_555
Mg63 Mg67 3.204530 1_555
Mg63 Mg70 3.213266 1_555
Mg64 Mg87 3.189789 1_655
Mg64 Mg65 3.193699 1_555
Mg64 Mg83 3.198860 1_655
Mg64 Mg79 3.201429 1_555
Mg64 Mg68 3.204545 1_655
Mg64 Mg70 3.213282 1_655
Mg65 Mg87 3.189789 1_655
Mg65 Mg91 3.198860 1_655
Mg65 Mg84 3.201429 1_555
Mg65 Mg68 3.204537 1_655
Mg65 Mg71 3.213274 1_655
Mg66 Mg86 3.189789 1_555
Mg66 Mg90 3.198860 1_555
Mg66 Mg85 3.201422 1_555
Mg66 Mg67 3.204529 1_555
Mg66 Mg72 3.213283 1_555
Mg67 Mg88 3.196661 1_555
Mg67 Mg93 3.196662 1_555
Mg67 Mg86 3.201407 1_555
Mg67 Mg70 3.202906 1_555
Mg67 Mg72 3.202914 1_555
Mg67 Mg69 3.211174 1_555
Mg67 Mg68 3.211181 1_555
Mg68 Mg92 3.196654 1_555
Mg68 Mg88 3.196662 1_555
Mg68 Mg87 3.201415 1_555
Mg68 Mg71 3.202891 1_555
Mg68 Mg70 3.202923 1_555
Mg68 Mg69 3.211165 1_555
Mg69 Mg93 3.196654 1_555
Mg69 Mg92 3.196661 1_555
Mg69 Mg98 3.201415 1_555
Mg69 Mg72 3.202898 1_555
Mg69 Mg71 3.202906 1_555
Mg70 Mg88 3.189186 1_555
Mg70 Mg83 3.189843 1_555
Mg70 Mg82 3.189843 1_555
Mg71 Mg92 3.189178 1_555
Mg71 Mg91 3.189843 1_555
Mg71 Mg97 3.189843 1_555
Mg72 Mg93 3.189185 1_555
Mg72 Mg96 3.189835 1_555
Mg72 Mg90 3.189843 1_555
Mg73 Mg95 3.185896 1_445
Mg73 Mg94 3.185896 1_545
Mg73 Mg76 3.185904 1_555
Mg74 Mg78 3.199129 1_555
Mg74 Mg79 3.199138 1_555
Mg74 Mg96 3.212620 1_545
Mg74 Mg83 3.212636 1_655
Mg74 Mg76 3.215039 1_655
Mg74 Mg95 3.215040 1_545
Mg75 Mg80 3.199129 1_555
Mg75 Mg77 3.199145 1_555
Mg75 Mg82 3.212605 1_555
Mg75 Mg97 3.212637 1_545
Mg75 Mg94 3.215047 1_545
Mg75 Mg76 3.215047 1_555
Mg76 Mg99 3.185904 1_555
Mg76 Mg82 3.208178 1_555
Mg76 Mg83 3.208179 1_555
Mg76 Mg95 3.213740 1_445
Mg76 Mg94 3.213749 1_545
Mg77 Mg80 3.184248 1_555
Mg77 Mg81 3.197275 1_555
Mg77 Mg78 3.210276 1_555
Mg77 Mg98 3.211316 1_545
Mg77 Mg97 3.219625 1_545
Mg78 Mg79 3.184231 1_555
Mg78 Mg81 3.197260 1_555
Mg78 Mg98 3.211331 1_545
Mg78 Mg96 3.219634 1_545
Mg79 Mg81 3.197259 1_555
Mg79 Mg84 3.210285 1_555
Mg79 Mg87 3.211331 1_655
Mg79 Mg83 3.219633 1_655
Mg80 Mg81 3.197275 1_555
Mg80 Mg85 3.210292 1_555
Mg80 Mg86 3.211332 1_555
Mg80 Mg82 3.219625 1_555
Mg81 Mg84 3.197267 1_555
Mg81 Mg85 3.197292 1_555
Mg82 Mg86 3.204282 1_555
Mg82 Mg83 3.204888 1_555
Mg82 Mg88 3.205949 1_555
Mg83 Mg87 3.204275 1_555
Mg83 Mg88 3.205932 1_555
Mg84 Mg85 3.184239 1_555
Mg84 Mg89 3.199138 1_555
Mg84 Mg87 3.211331 1_655
Mg84 Mg91 3.219633 1_655
Mg85 Mg89 3.199121 1_555
Mg85 Mg86 3.211323 1_555
Mg85 Mg90 3.219618 1_555
Mg86 Mg90 3.204274 1_555
Mg86 Mg88 3.215871 1_555
Mg86 Mg93 3.215872 1_555
Mg87 Mg91 3.204275 1_555
Mg87 Mg92 3.215871 1_555
Mg87 Mg88 3.215871 1_555
Mg88 Mg93 3.201510 1_555
Mg88 Mg92 3.201511 1_555
Mg89 Mg90 3.212620 1_555
Mg89 Mg91 3.212636 1_655
Mg89 Mg95 3.215040 1_555
Mg89 Mg94 3.215047 1_655
Mg90 Mg96 3.204881 1_555
Mg90 Mg93 3.205932 1_555
Mg90 Mg95 3.208194 1_555
Mg91 Mg97 3.204880 1_555
Mg91 Mg92 3.205932 1_555
Mg91 Mg94 3.208195 1_555
Mg92 Mg93 3.201510 1_555
Mg92 Mg97 3.205933 1_555
Mg92 Mg98 3.215871 1_555
Mg93 Mg96 3.205932 1_555
Mg93 Mg98 3.215872 1_555
Mg94 Mg99 3.185896 1_565
Mg94 Mg97 3.208194 1_555
Mg94 Mg95 3.213732 1_455
Mg95 Mg99 3.185896 1_665
Mg95 Mg96 3.208194 1_555
Mg96 Mg98 3.204274 1_555
Mg97 Mg98 3.204274 1_555
Mg100 Mg127 3.186148 1_555
Mg100 Mg128 3.186148 1_555
Mg100 Mg88 3.189186 1_555
Mg100 Mg83 3.189843 1_555
Mg100 Mg82 3.189843 1_555
Mg100 Mg103 3.202906 1_555
Mg100 Mg104 3.202923 1_555
Mg100 Mg115 3.207279 1_555
Mg100 Mg114 3.207294 1_455
Mg100 Mg133 3.208952 1_555
Mg100 Mg108 3.213266 1_555
Mg100 Mg109 3.213282 1_455
Mg101 Mg129 3.186148 1_555
Mg101 Mg132 3.186156 1_555
Mg101 Mg92 3.189178 1_555
Mg101 Mg91 3.189843 1_555
Mg101 Mg97 3.189843 1_555
Mg101 Mg104 3.202891 1_555
Mg101 Mg105 3.202906 1_555
Mg101 Mg117 3.207294 1_455
Mg101 Mg112 3.207295 1_565
Mg101 Mg134 3.208944 1_555
Mg101 Mg110 3.213274 1_455
Mg101 Mg107 3.213274 1_565
Mg102 Mg131 3.186148 1_555
Mg102 Mg130 3.186156 1_555
Mg102 Mg93 3.189185 1_555
Mg102 Mg96 3.189835 1_555
Mg102 Mg90 3.189843 1_555
Mg102 Mg105 3.202898 1_555
Mg102 Mg103 3.202914 1_555
Mg102 Mg113 3.207278 1_565
Mg102 Mg116 3.207286 1_555
Mg102 Mg135 3.208952 1_555
Mg102 Mg106 3.213267 1_565
Mg102 Mg111 3.213283 1_555
Mg103 Mg133 3.193030 1_555
Mg103 Mg135 3.193031 1_555
Mg103 Mg136 3.194387 1_555
Mg103 Mg88 3.196661 1_555
Mg103 Mg93 3.196662 1_555
Mg103 Mg86 3.201407 1_555
Mg103 Mg111 3.204529 1_555
Mg103 Mg108 3.204530 1_555
Mg103 Mg105 3.211174 1_555
Mg103 Mg104 3.211181 1_555
Mg104 Mg134 3.193023 1_555
Mg104 Mg133 3.193031 1_555
Mg104 Mg137 3.194387 1_555
Mg104 Mg92 3.196654 1_555
Mg104 Mg88 3.196662 1_555
Mg104 Mg87 3.201415 1_555
Mg104 Mg110 3.204537 1_455
Mg104 Mg109 3.204545 1_455
Mg104 Mg105 3.211165 1_555
Mg105 Mg135 3.193023 1_555
Mg105 Mg134 3.193030 1_555
Mg105 Mg138 3.194387 1_555
Mg105 Mg93 3.196654 1_555
Mg105 Mg92 3.196661 1_555
Mg105 Mg98 3.201415 1_555
Mg105 Mg106 3.204537 1_565
Mg105 Mg107 3.204546 1_565
Mg106 Mg131 3.186586 1_545
Mg106 Mg98 3.189789 1_545
Mg106 Mg107 3.193698 1_555
Mg106 Mg138 3.195860 1_545
Mg106 Mg96 3.198860 1_545
Mg106 Mg78 3.201430 1_555
Mg106 Mg118 3.201663 1_555
Mg106 Mg113 3.201679 1_555
Mg106 Mg140 3.205300 1_555
Mg106 Mg121 3.209259 1_555
Mg107 Mg132 3.186585 1_545
Mg107 Mg98 3.189789 1_545
Mg107 Mg138 3.195868 1_545
Mg107 Mg97 3.198859 1_545
Mg107 Mg77 3.201421 1_555
Mg107 Mg118 3.201670 1_555
Mg107 Mg112 3.201679 1_555
Mg107 Mg139 3.205300 1_555
Mg107 Mg122 3.209268 1_555
Mg108 Mg128 3.186585 1_555
Mg108 Mg86 3.189789 1_555
Mg108 Mg111 3.193698 1_555
Mg108 Mg136 3.195860 1_555
Mg108 Mg82 3.198859 1_555
Mg108 Mg80 3.201430 1_555
Mg108 Mg120 3.201670 1_555
Mg108 Mg115 3.201679 1_555
Mg108 Mg142 3.205300 1_555
Mg108 Mg122 3.209252 1_555
Mg109 Mg127 3.186594 1_655
Mg109 Mg87 3.189789 1_655
Mg109 Mg110 3.193699 1_555
Mg109 Mg137 3.195868 1_655
Mg109 Mg83 3.198860 1_655
Mg109 Mg79 3.201429 1_555
Mg109 Mg119 3.201670 1_555
Mg109 Mg114 3.201696 1_555
Mg109 Mg141 3.205299 1_555
Mg109 Mg121 3.209259 1_555
Mg110 Mg129 3.186586 1_655
Mg110 Mg87 3.189789 1_655
Mg110 Mg137 3.195860 1_655
Mg110 Mg91 3.198860 1_655
Mg110 Mg84 3.201429 1_555
Mg110 Mg119 3.201662 1_555
Mg110 Mg117 3.201680 1_555
Mg110 Mg144 3.205299 1_555
Mg110 Mg123 3.209268 1_555
Mg111 Mg130 3.186586 1_555
Mg111 Mg86 3.189789 1_555
Mg111 Mg136 3.195860 1_555
Mg111 Mg90 3.198860 1_555
Mg111 Mg85 3.201422 1_555
Mg111 Mg120 3.201663 1_555
Mg111 Mg116 3.201679 1_555
Mg111 Mg143 3.205300 1_555
Mg111 Mg123 3.209251 1_555
Mg112 Mg125 3.143029 1_545
Mg112 Mg97 3.192806 1_545
Mg112 Mg122 3.195580 1_555
Mg112 Mg75 3.197755 1_555
Mg112 Mg94 3.202098 1_545
Mg112 Mg132 3.206942 1_545
Mg112 Mg115 3.218302 1_555
Mg112 Mg99 3.220814 1_555
Mg112 Mg146 3.222728 1_555
Mg112 Mg117 3.223257 1_445
Mg113 Mg126 3.143029 1_545
Mg113 Mg96 3.192805 1_545
Mg113 Mg121 3.195589 1_555
Mg113 Mg74 3.197747 1_555
Mg113 Mg95 3.202098 1_545
Mg113 Mg131 3.206942 1_545
Mg113 Mg114 3.218293 1_555
Mg113 Mg99 3.220815 1_655
Mg113 Mg147 3.222728 1_555
Mg113 Mg116 3.223258 1_545
Mg114 Mg124 3.143013 1_655
Mg114 Mg83 3.192814 1_655
Mg114 Mg121 3.195596 1_555
Mg114 Mg74 3.197755 1_555
Mg114 Mg76 3.202082 1_655
Mg114 Mg127 3.206950 1_655
Mg114 Mg99 3.220800 1_655
Mg114 Mg147 3.222719 1_555
Mg114 Mg115 3.223249 1_655
Mg115 Mg124 3.143029 1_555
Mg115 Mg82 3.192797 1_555
Mg115 Mg122 3.195572 1_555
Mg115 Mg75 3.197747 1_555
Mg115 Mg76 3.202098 1_555
Mg115 Mg128 3.206942 1_555
Mg115 Mg99 3.220814 1_555
Mg115 Mg146 3.222720 1_555
Mg116 Mg126 3.143029 1_555
Mg116 Mg90 3.192805 1_555
Mg116 Mg123 3.195573 1_555
Mg116 Mg89 3.197747 1_555
Mg116 Mg95 3.202098 1_555
Mg116 Mg130 3.206942 1_555
Mg116 Mg117 3.218301 1_555
Mg116 Mg99 3.220814 1_665
Mg116 Mg148 3.222728 1_555
Mg117 Mg125 3.143021 1_655
Mg117 Mg91 3.192806 1_655
Mg117 Mg123 3.195580 1_555
Mg117 Mg89 3.197755 1_555
Mg117 Mg94 3.202098 1_655
Mg117 Mg129 3.206950 1_655
Mg117 Mg99 3.220815 1_665
Mg117 Mg148 3.222720 1_555
Mg118 Mg145 3.202014 1_555
Mg118 Mg140 3.204613 1_555
Mg118 Mg139 3.204621 1_555
Mg118 Mg78 3.206040 1_555
Mg118 Mg77 3.206048 1_555
Mg118 Mg119 3.208844 1_555
Mg118 Mg120 3.208853 1_555
Mg118 Mg81 3.209635 1_555
Mg118 Mg121 3.212151 1_555
Mg118 Mg122 3.212183 1_555
Mg119 Mg145 3.202014 1_555
Mg119 Mg144 3.204613 1_555
Mg119 Mg141 3.204621 1_555
Mg119 Mg84 3.206040 1_555
Mg119 Mg79 3.206048 1_555
Mg119 Mg120 3.208836 1_555
Mg119 Mg81 3.209634 1_555
Mg119 Mg123 3.212168 1_555
Mg119 Mg121 3.212168 1_555
Mg120 Mg145 3.202022 1_555
Mg120 Mg143 3.204613 1_555
Mg120 Mg142 3.204621 1_555
Mg120 Mg80 3.206048 1_555
Mg120 Mg85 3.206048 1_555
Mg120 Mg81 3.209643 1_555
Mg120 Mg123 3.212159 1_555
Mg120 Mg122 3.212175 1_555
Mg121 Mg140 3.190529 1_555
Mg121 Mg141 3.190529 1_555
Mg121 Mg74 3.201381 1_555
Mg121 Mg78 3.206369 1_555
Mg121 Mg79 3.206370 1_555
Mg121 Mg147 3.247230 1_555
Mg122 Mg142 3.190529 1_555
Mg122 Mg139 3.190537 1_555
Mg122 Mg75 3.201372 1_555
Mg122 Mg80 3.206370 1_555
Mg122 Mg77 3.206386 1_555
Mg122 Mg146 3.247221 1_555
Mg123 Mg143 3.190529 1_555
Mg123 Mg144 3.190537 1_555
Mg123 Mg89 3.201373 1_555
Mg123 Mg85 3.206369 1_555
Mg123 Mg84 3.206378 1_555
Mg123 Mg148 3.247222 1_555
Mg124 Mg147 3.170010 1_455
Mg124 Mg146 3.170026 1_555
Mg124 Mg99 3.194043 1_555
Mg124 Mg127 3.194312 1_555
Mg124 Mg128 3.194327 1_555
Mg124 Mg3 3.268670 1_556
Mg124 Mg4 3.268677 1_556
Mg124 Nd0 3.287261 1_556
Mg124 Mg126 3.298105 1_445
Mg124 Mg125 3.298130 1_545
Mg125 Mg148 3.170010 1_455
Mg125 Mg146 3.170034 1_565
Mg125 Mg99 3.194043 1_565
Mg125 Mg132 3.194327 1_555
Mg125 Mg129 3.194328 1_555
Mg125 Mg15 3.268670 1_556
Mg125 Mg21 3.268677 1_556
Mg125 Nd0 3.287261 1_566
Mg125 Mg126 3.298105 1_455
Mg126 Mg147 3.170027 1_565
Mg126 Mg148 3.170027 1_555
Mg126 Mg99 3.194034 1_665
Mg126 Mg130 3.194335 1_555
Mg126 Mg131 3.194335 1_555
Mg126 Mg16 3.268678 1_556
Mg126 Mg20 3.268678 1_556
Mg126 Nd0 3.287253 1_666
Mg127 Mg137 3.176395 1_555
Mg127 Mg3 3.185589 1_556
Mg127 Mg133 3.186445 1_555
Mg127 Mg141 3.198912 1_455
Mg127 Mg128 3.202070 1_555
Mg127 Mg8 3.210606 1_556
Mg127 Mg9 3.219494 1_556
Mg127 Mg147 3.243046 1_455
Mg128 Mg136 3.176378 1_555
Mg128 Mg4 3.185589 1_556
Mg128 Mg133 3.186454 1_555
Mg128 Mg142 3.198896 1_555
Mg128 Mg7 3.210606 1_556
Mg128 Mg9 3.219495 1_556
Mg128 Mg146 3.243039 1_555
Mg129 Mg137 3.176363 1_555
Mg129 Mg15 3.185597 1_556
Mg129 Mg134 3.186437 1_555
Mg129 Mg144 3.198904 1_455
Mg129 Mg132 3.202078 1_555
Mg129 Mg17 3.219494 1_556
Mg129 Mg148 3.243054 1_455
Mg130 Mg136 3.176378 1_555
Mg130 Mg16 3.185589 1_556
Mg130 Mg135 3.186453 1_555
Mg130 Mg143 3.198897 1_555
Mg130 Mg131 3.202087 1_555
Mg130 Mg18 3.219503 1_556
Mg130 Mg148 3.243054 1_555
Mg131 Mg138 3.176370 1_555
Mg131 Mg20 3.185589 1_556
Mg131 Mg135 3.186453 1_555
Mg131 Mg140 3.198897 1_565
Mg131 Mg22 3.210598 1_556
Mg131 Mg18 3.219495 1_556
Mg131 Mg147 3.243054 1_565
Mg132 Mg138 3.176386 1_555
Mg132 Mg21 3.185589 1_556
Mg132 Mg134 3.186454 1_555
Mg132 Mg139 3.198896 1_565
Mg132 Mg23 3.210606 1_556
Mg132 Mg17 3.219495 1_556
Mg132 Mg146 3.243055 1_565
Mg133 Mg135 3.181841 1_555
Mg133 Mg134 3.181842 1_555
Mg133 Mg9 3.189123 1_556
Mg133 Mg14 3.203049 1_556
Mg133 Mg137 3.206388 1_555
Mg133 Mg136 3.206396 1_555
Mg134 Mg135 3.181841 1_555
Mg134 Mg17 3.189124 1_556
Mg134 Mg14 3.203040 1_556
Mg134 Mg19 3.203048 1_556
Mg134 Mg137 3.206380 1_555
Mg134 Mg138 3.206388 1_555
Mg135 Mg18 3.189123 1_556
Mg135 Mg19 3.203041 1_556
Mg135 Mg138 3.206381 1_555
Mg135 Mg136 3.206397 1_555
Mg136 Mg7 3.206246 1_556
Mg136 Mg143 3.212808 1_555
Mg136 Mg142 3.212809 1_555
Mg137 Mg8 3.206254 1_556
Mg137 Mg144 3.212816 1_455
Mg137 Mg141 3.212824 1_455
Mg137 Mg14 3.215189 1_556
Mg138 Mg22 3.206246 1_556
Mg138 Mg23 3.206254 1_556
Mg138 Mg140 3.212816 1_565
Mg138 Mg139 3.212825 1_565
Mg138 Mg19 3.215189 1_556
Mg139 Mg23 3.198166 1_546
Mg139 Mg142 3.200401 1_555
Mg139 Mg145 3.219846 1_555
Mg139 Mg146 3.232533 1_555
Mg139 Mg140 3.239236 1_555
Mg140 Mg2 3.186725 1_556
Mg140 Mg22 3.198174 1_546
Mg140 Mg141 3.200400 1_555
Mg140 Mg145 3.219839 1_555
Mg140 Mg147 3.232533 1_555
Mg141 Mg2 3.186717 1_556
Mg141 Mg8 3.198174 1_656
Mg141 Mg6 3.209837 1_556
Mg141 Mg145 3.219838 1_555
Mg141 Mg147 3.232526 1_555
Mg141 Mg144 3.239237 1_555
Mg142 Mg7 3.198166 1_556
Mg142 Mg5 3.209836 1_556
Mg142 Mg145 3.219854 1_555
Mg142 Mg146 3.232525 1_555
Mg142 Mg143 3.239235 1_555
Mg143 Mg144 3.200400 1_555
Mg143 Mg5 3.209845 1_556
Mg143 Mg145 3.219855 1_555
Mg143 Mg148 3.232532 1_555
Mg144 Mg6 3.209845 1_556
Mg144 Mg145 3.219846 1_555
Mg144 Mg148 3.232526 1_555
Mg145 Mg6 3.190704 1_556
Mg145 Mg5 3.190713 1_556
Mg146 Mg4 3.187978 1_556
Mg146 Mg21 3.187987 1_546
Mg147 Mg3 3.187978 1_656
Mg147 Mg20 3.187987 1_546
Mg147 Mg2 3.212043 1_556
Mg148 Mg15 3.187978 1_656
Mg148 Mg16 3.187987 1_556
