# generated using pymatgen
data_Yb2Fe4Si9
_symmetry_space_group_name_H-M   'P 1'
_cell_length_a   3.88701534
_cell_length_b   3.88701534
_cell_length_c   15.82541135
_cell_angle_alpha   90.00000000
_cell_angle_beta   90.00000000
_cell_angle_gamma   119.99999620
_symmetry_Int_Tables_number   1
_chemical_formula_structural   Yb2Fe4Si9
_chemical_formula_sum   'Yb2 Fe4 Si9'
_cell_volume   207.07046770
_cell_formula_units_Z   1
loop_
 _symmetry_equiv_pos_site_id
 _symmetry_equiv_pos_as_xyz
  1  'x, y, z'
loop_
 _atom_site_type_symbol
 _atom_site_label
 _atom_site_symmetry_multiplicity
 _atom_site_fract_x
 _atom_site_fract_y
 _atom_site_fract_z
 _atom_site_occupancy
  Yb  Yb0  1  0.33333300  0.66666700  0.24100040  1
  Yb  Yb1  1  0.66666700  0.33333300  0.75899960  1
  Fe  Fe0  1  0.33333300  0.66666700  0.58997618  1
  Fe  Fe1  1  0.66666700  0.33333300  0.41002382  1
  Fe  Fe2  1  0.66666700  0.33333300  0.10224009  1
  Fe  Fe3  1  0.33333300  0.66666700  0.89775991  1
  Si  Si0  1  0.00000000  0.00000000  0.65079539  1
  Si  Si1  1  0.00000000  0.00000000  0.34920461  1
  Si  Si2  1  0.00000000  0.00000000  0.12759729  1
  Si  Si3  1  0.00000000  0.00000000  0.87240271  1
  Si  Si4  1  0.33333300  0.66666700  0.43479788  1
  Si  Si5  1  0.66666700  0.33333300  0.56520212  1
  Si  Si6  1  0.66666700  0.33333300  0.95712465  1
  Si  Si7  1  0.33333300  0.66666700  0.04287535  1
  Si  Si8  1  0.00000000  0.00000000  0.50000000  1
loop_
_geom_bond_atom_site_label_1
_geom_bond_atom_site_label_2
_geom_bond_distance
_geom_bond_site_symmetry_2
Fe0 Si5 2.278157 1_455
Fe0 Si5 2.278157 1_565
Fe0 Si5 2.278163 1_555
Fe0 Si0 2.441858 1_565
Fe0 Si0 2.441861 1_555
Fe0 Si0 2.441861 1_665
Fe0 Si4 2.455760 1_555
Fe0 Si8 2.657782 1_565
Fe0 Si8 2.657785 1_555
Fe0 Si8 2.657785 1_665
Fe1 Si4 2.278157 1_655
Fe1 Si4 2.278157 1_545
Fe1 Si4 2.278163 1_555
Fe1 Si1 2.441858 1_655
Fe1 Si1 2.441861 1_555
Fe1 Si1 2.441861 1_665
Fe1 Si5 2.455760 1_555
Fe1 Si8 2.657782 1_655
Fe1 Si8 2.657785 1_555
Fe1 Si8 2.657785 1_665
Fe2 Si2 2.279763 1_655
Fe2 Si2 2.279766 1_555
Fe2 Si2 2.279766 1_665
Fe2 Si6 2.296512 1_554
Fe2 Si7 2.432877 1_655
Fe2 Si7 2.432877 1_545
Fe2 Si7 2.432884 1_555
Fe2 Yb0 3.139814 1_655
Fe2 Yb0 3.139814 1_545
Fe2 Yb0 3.139819 1_555
Fe3 Si3 2.279763 1_565
Fe3 Si3 2.279766 1_555
Fe3 Si3 2.279766 1_665
Fe3 Si7 2.296512 1_556
Fe3 Si6 2.432877 1_565
Fe3 Si6 2.432877 1_455
Fe3 Si6 2.432884 1_555
Fe3 Yb1 3.139814 1_565
Fe3 Yb1 3.139814 1_455
Fe3 Yb1 3.139819 1_555
Si0 Si8 2.386399 1_555
Si0 Si5 2.621276 1_455
Si0 Si5 2.621279 1_555
Si0 Si5 2.621279 1_445
Si0 Yb1 2.822856 1_455
Si0 Yb1 2.822859 1_555
Si0 Yb1 2.822859 1_445
Si1 Si8 2.386399 1_555
Si1 Si4 2.621276 1_545
Si1 Si4 2.621279 1_555
Si1 Si4 2.621279 1_445
Si1 Yb0 2.822856 1_545
Si1 Yb0 2.822859 1_555
Si1 Yb0 2.822859 1_445
Si2 Si7 2.614177 1_545
Si2 Si7 2.614180 1_555
Si2 Si7 2.614180 1_445
Si2 Yb0 2.873510 1_545
Si2 Yb0 2.873512 1_555
Si2 Yb0 2.873512 1_445
Si3 Si6 2.614177 1_455
Si3 Si6 2.614180 1_555
Si3 Si6 2.614180 1_445
Si3 Yb1 2.873510 1_455
Si3 Yb1 2.873512 1_555
Si3 Yb1 2.873512 1_445
Si4 Si8 2.470020 1_565
Si4 Si8 2.470024 1_555
Si4 Si8 2.470024 1_665
Si4 Yb0 3.066925 1_555
Si5 Si8 2.470020 1_655
Si5 Si8 2.470024 1_555
Si5 Si8 2.470024 1_665
Si5 Yb1 3.066925 1_555
Si6 Si7 2.622564 1_656
Si6 Si7 2.622564 1_546
Si6 Si7 2.622570 1_556
Si6 Yb1 3.135410 1_555
Si7 Yb0 3.135410 1_555
