# generated using pymatgen
data_SrCa3TiMn3O12
_symmetry_space_group_name_H-M   'P 1'
_cell_length_a   7.70043900
_cell_length_b   8.56247789
_cell_length_c   8.57239981
_cell_angle_alpha   101.68888606
_cell_angle_beta   116.68836660
_cell_angle_gamma   63.27895498
_symmetry_Int_Tables_number   1
_chemical_formula_structural   SrCa3TiMn3O12
_chemical_formula_sum   'Sr2 Ca6 Ti2 Mn6 O24'
_cell_volume   451.07148744
_cell_formula_units_Z   2
loop_
 _symmetry_equiv_pos_site_id
 _symmetry_equiv_pos_as_xyz
  1  'x, y, z'
loop_
 _atom_site_type_symbol
 _atom_site_label
 _atom_site_symmetry_multiplicity
 _atom_site_fract_x
 _atom_site_fract_y
 _atom_site_fract_z
 _atom_site_occupancy
  Sr  Sr0  1  0.99844900  0.75156200  0.24893000  1
  Sr  Sr1  1  0.49894900  0.75155100  0.24903700  1
  Ca  Ca0  1  0.50907900  0.24247300  0.75809600  1
  Ca  Ca1  1  0.00647900  0.24256100  0.75808600  1
  Ca  Ca2  1  0.25211800  0.24372400  0.24493400  1
  Ca  Ca3  1  0.74907900  0.24367800  0.24493600  1
  Ca  Ca4  1  0.24887000  0.75583300  0.75589400  1
  Ca  Ca5  1  0.75117500  0.75584100  0.75592800  1
  Ti  Ti0  1  0.50391300  0.49668700  0.50447400  1
  Ti  Ti1  1  0.00406200  0.49595700  0.50416400  1
  Mn  Mn0  1  0.99962100  0.00092600  0.00047500  1
  Mn  Mn1  1  0.49893500  0.00067800  0.99838800  1
  Mn  Mn2  1  0.75110600  0.00040900  0.50200000  1
  Mn  Mn3  1  0.75072100  0.49842300  0.99994400  1
  Mn  Mn4  1  0.25067300  0.49832300  0.99956700  1
  Mn  Mn5  1  0.25091400  0.00078900  0.50212300  1
  O  O0  1  0.74570500  0.00415600  0.99564200  1
  O  O1  1  0.24569000  0.00416800  0.99564000  1
  O  O2  1  0.25042800  0.49903900  0.49996400  1
  O  O3  1  0.75049100  0.49905000  0.50000600  1
  O  O4  1  0.49822700  0.49552700  0.99200400  1
  O  O5  1  0.99828600  0.49544800  0.99204400  1
  O  O6  1  0.49985500  0.00435500  0.50409900  1
  O  O7  1  0.99991300  0.00435200  0.50413400  1
  O  O8  1  0.62000700  0.00983400  0.24975700  1
  O  O9  1  0.12182700  0.00700100  0.25072300  1
  O  O10  1  0.62203400  0.74991300  0.99399200  1
  O  O11  1  0.12146800  0.74987400  0.99292800  1
  O  O12  1  0.37435500  0.49627800  0.24490600  1
  O  O13  1  0.87409200  0.49681600  0.24512200  1
  O  O14  1  0.37462300  0.75417900  0.50336300  1
  O  O15  1  0.87436200  0.75443800  0.50313100  1
  O  O16  1  0.87387800  0.00248000  0.75037600  1
  O  O17  1  0.37394600  0.00167700  0.74949400  1
  O  O18  1  0.87378700  0.25032700  0.99811700  1
  O  O19  1  0.37372300  0.25033800  0.99773400  1
  O  O20  1  0.62741000  0.49844300  0.75335900  1
  O  O21  1  0.12672800  0.49947500  0.75301900  1
  O  O22  1  0.62759700  0.24672800  0.50187100  1
  O  O23  1  0.12741900  0.24669100  0.50160000  1
loop_
_geom_bond_atom_site_label_1
_geom_bond_atom_site_label_2
_geom_bond_distance
_geom_bond_site_symmetry_2
Ca0 O0 2.576381 1_555
Ca0 O4 2.636237 1_555
Ca0 O16 2.653097 1_555
Ca0 O18 2.654875 1_555
Ca0 O6 2.663736 1_555
Ca0 O19 2.667422 1_555
Ca0 O17 2.671742 1_555
Ca0 O20 2.738785 1_555
Ca0 O22 2.742569 1_555
Ca0 O23 2.757780 1_555
Ca0 O21 2.758668 1_555
Ca0 O2 2.786664 1_555
Ca1 O1 2.576835 1_555
Ca1 O5 2.635559 1_455
Ca1 O16 2.654207 1_455
Ca1 O18 2.656015 1_455
Ca1 O7 2.663960 1_455
Ca1 O19 2.667839 1_555
Ca1 O17 2.672755 1_555
Ca1 O20 2.738779 1_455
Ca1 O22 2.742158 1_455
Ca1 O23 2.757407 1_555
Ca1 O21 2.757752 1_555
Ca1 O3 2.785966 1_455
Ca2 O8 2.619938 1_555
Ca2 O1 2.645171 1_554
Ca2 O9 2.651762 1_555
Ca2 O19 2.692481 1_554
Ca2 O6 2.701411 1_555
Ca2 O18 2.707511 1_454
Ca2 O12 2.719060 1_555
Ca2 O5 2.732067 1_454
Ca2 O13 2.738571 1_455
Ca2 O22 2.745038 1_555
Ca2 O23 2.759895 1_555
Ca2 O2 2.760849 1_555
Ca3 O8 2.618934 1_555
Ca3 O0 2.644990 1_554
Ca3 O9 2.651391 1_655
Ca3 O19 2.692035 1_554
Ca3 O7 2.701376 1_555
Ca3 O18 2.706530 1_554
Ca3 O12 2.718710 1_555
Ca3 O4 2.732969 1_554
Ca3 O13 2.738312 1_555
Ca3 O22 2.744547 1_555
Ca3 O23 2.759714 1_655
Ca3 O3 2.761374 1_555
Ca4 O11 2.640374 1_555
Ca4 O1 2.640739 1_565
Ca4 O10 2.658605 1_555
Ca4 O16 2.689650 1_465
Ca4 O4 2.690652 1_555
Ca4 O17 2.698026 1_565
Ca4 O7 2.708652 1_465
Ca4 O15 2.723829 1_455
Ca4 O14 2.735423 1_555
Ca4 O21 2.741792 1_555
Ca4 O20 2.759469 1_555
Ca4 O2 2.773705 1_555
Ca5 O11 2.639711 1_655
Ca5 O0 2.640460 1_565
Ca5 O10 2.658314 1_555
Ca5 O16 2.688958 1_565
Ca5 O5 2.691175 1_555
Ca5 O17 2.697459 1_565
Ca5 O6 2.709001 1_565
Ca5 O15 2.724328 1_555
Ca5 O14 2.735124 1_555
Ca5 O21 2.741565 1_655
Ca5 O20 2.759831 1_555
Ca5 O3 2.773645 1_555
Mn0 O18 1.907534 1_554
Mn0 O16 1.915584 1_554
Mn0 O9 1.917205 1_655
Mn0 O11 1.920884 1_644
Mn0 O0 1.924736 1_554
Mn0 O1 1.926453 1_654
Mn1 O17 1.906330 1_555
Mn1 O19 1.909425 1_555
Mn1 O10 1.918134 1_545
Mn1 O0 1.924500 1_555
Mn1 O1 1.926381 1_555
Mn1 O8 1.926482 1_556
Mn2 O15 1.881229 1_545
Mn2 O22 1.883865 1_555
Mn2 O16 1.902397 1_555
Mn2 O7 1.923193 1_555
Mn2 O6 1.927935 1_555
Mn2 O8 1.933363 1_555
Mn3 O13 1.877898 1_556
Mn3 O20 1.888624 1_555
Mn3 O18 1.897493 1_555
Mn3 O10 1.923987 1_555
Mn3 O4 1.925981 1_555
Mn3 O5 1.926406 1_555
Mn4 O12 1.879158 1_556
Mn4 O21 1.888368 1_555
Mn4 O19 1.896645 1_555
Mn4 O11 1.924590 1_555
Mn4 O4 1.925618 1_555
Mn4 O5 1.926582 1_455
Mn5 O23 1.880682 1_555
Mn5 O14 1.886120 1_545
Mn5 O17 1.894651 1_555
Mn5 O6 1.923329 1_555
Mn5 O9 1.926128 1_555
Mn5 O7 1.927097 1_455
O0 Sr0 2.738899 1_546
O1 Sr1 2.739615 1_546
O2 Ti1 1.925576 1_555
O2 Ti0 1.925920 1_555
O2 Sr0 2.726303 1_455
O3 Ti1 1.925100 1_655
O3 Ti0 1.925448 1_555
O3 Sr1 2.725832 1_555
O4 Sr1 2.775510 1_556
O5 Sr0 2.775197 1_556
O6 Sr1 2.747459 1_545
O7 Sr0 2.748157 1_545
O8 Sr0 2.756739 1_545
O8 Sr1 2.757397 1_545
O9 Sr0 2.743835 1_445
O9 Sr1 2.744148 1_545
O10 Sr0 2.740811 1_556
O10 Sr1 2.741480 1_556
O11 Sr0 2.748800 1_456
O11 Sr1 2.749876 1_556
O12 Ti0 1.988062 1_555
O12 Sr1 2.742875 1_555
O12 Sr0 2.743571 1_455
O13 Ti1 1.984050 1_655
O13 Sr1 2.737637 1_555
O13 Sr0 2.738147 1_555
O14 Ti0 1.969339 1_555
O14 Sr1 2.739692 1_555
O14 Sr0 2.740778 1_455
O15 Ti1 1.976900 1_655
O15 Sr1 2.736475 1_555
O15 Sr0 2.736722 1_555
O20 Ti0 1.906276 1_555
O21 Ti1 1.906178 1_555
O22 Ti0 1.911789 1_555
O23 Ti1 1.906486 1_555
