# generated using pymatgen
data_TlCdHg2
_symmetry_space_group_name_H-M   'P 1'
_cell_length_a   12.43254270
_cell_length_b   12.43254270
_cell_length_c   12.43254270
_cell_angle_alpha   120.49584762
_cell_angle_beta   118.26016061
_cell_angle_gamma   91.09144803
_symmetry_Int_Tables_number   1
_chemical_formula_structural   TlCdHg2
_chemical_formula_sum   'Tl1 Cd1 Hg2'
_cell_volume   1370.69737933
_cell_formula_units_Z   1
loop_
 _symmetry_equiv_pos_site_id
 _symmetry_equiv_pos_as_xyz
  1  'x, y, z'
loop_
 _atom_site_type_symbol
 _atom_site_label
 _atom_site_symmetry_multiplicity
 _atom_site_fract_x
 _atom_site_fract_y
 _atom_site_fract_z
 _atom_site_occupancy
  Tl  Tl0  1  0.50000000  0.00000000  0.50000000  1
  Cd  Cd0  1  0.00000000  0.00000000  0.00000000  1
  Hg  Hg0  1  0.75631200  0.00000000  0.75631200  1
  Hg  Hg1  1  0.24368800  0.00000000  0.24368800  1
loop_
_geom_bond_atom_site_label_1
_geom_bond_atom_site_label_2
_geom_bond_distance
_geom_bond_site_symmetry_2
Cd0 Hg1 3.108982 1_555
Cd0 Hg0 3.108982 1_454
Hg0 Tl0 3.270040 1_555
Hg1 Tl0 3.270040 1_555
