# generated using pymatgen
data_Li6V3P8O29
_symmetry_space_group_name_H-M   'P 1'
_cell_length_a   9.78229635
_cell_length_b   9.78229635
_cell_length_c   14.02761419
_cell_angle_alpha   89.68240032
_cell_angle_beta   89.68240032
_cell_angle_gamma   60.28864406
_symmetry_Int_Tables_number   1
_chemical_formula_structural   Li6V3P8O29
_chemical_formula_sum   'Li12 V6 P16 O58'
_cell_volume   1165.85085272
_cell_formula_units_Z   2
loop_
 _symmetry_equiv_pos_site_id
 _symmetry_equiv_pos_as_xyz
  1  'x, y, z'
loop_
 _atom_site_type_symbol
 _atom_site_label
 _atom_site_symmetry_multiplicity
 _atom_site_fract_x
 _atom_site_fract_y
 _atom_site_fract_z
 _atom_site_occupancy
  Li  Li0  1  0.76727300  0.90367900  0.19443000  1
  Li  Li1  1  0.90551000  0.33128700  0.19154600  1
  Li  Li2  1  0.76380600  0.33452800  0.68688100  1
  Li  Li3  1  0.33456000  0.90199800  0.68480000  1
  Li  Li4  1  0.66547200  0.23619500  0.31311900  1
  Li  Li5  1  0.33326100  0.76547900  0.19352000  1
  Li  Li6  1  0.66871300  0.09449000  0.80845400  1
  Li  Li7  1  0.23452100  0.66673900  0.80648000  1
  Li  Li8  1  0.09800200  0.66544000  0.31520000  1
  Li  Li9  1  0.09632100  0.23272700  0.80557000  1
  Li  Li10  1  0.98844500  0.95489900  0.73453500  1
  Li  Li11  1  0.04510100  0.01155500  0.26546500  1
  V  V0  1  0.56256600  0.43743400  0.50000000  1
  V  V1  1  0.43619900  0.56380100  0.00000000  1
  V  V2  1  0.56462700  0.99755300  0.00031200  1
  V  V3  1  0.43600900  0.00407600  0.49642500  1
  V  V4  1  0.99592400  0.56399100  0.50357500  1
  V  V5  1  0.00244700  0.43537300  0.99968800  1
  P  P0  1  0.91578200  0.77855200  0.91103400  1
  P  P1  1  0.77830000  0.91471100  0.41009800  1
  P  P2  1  0.91186100  0.31053500  0.40649100  1
  P  P3  1  0.66322500  0.66891100  0.61789300  1
  P  P4  1  0.66608100  0.66385600  0.11834600  1
  P  P5  1  0.77427700  0.31373200  0.90845900  1
  P  P6  1  0.68626800  0.22572300  0.09154100  1
  P  P7  1  0.31247500  0.91491800  0.90340400  1
  P  P8  1  0.68946500  0.08813900  0.59351000  1
  P  P9  1  0.31268300  0.77751300  0.40842800  1
  P  P10  1  0.22248700  0.68731700  0.59157200  1
  P  P11  1  0.33108900  0.33677500  0.38210700  1
  P  P12  1  0.33614400  0.33391900  0.88165400  1
  P  P13  1  0.08508200  0.68752500  0.09659600  1
  P  P14  1  0.22144800  0.08421800  0.08896600  1
  P  P15  1  0.08528900  0.22170000  0.58990200  1
  O  O0  1  0.99918100  0.76688300  0.18741200  1
  O  O1  1  0.92174000  0.74848200  0.40986500  1
  O  O2  1  0.78093900  0.01406300  0.68328800  1
  O  O3  1  0.74372600  0.91746400  0.90980300  1
  O  O4  1  0.92164400  0.61903000  0.91891500  1
  O  O5  1  0.80944600  0.67111000  0.57048200  1
  O  O6  1  0.91854700  0.46249800  0.41537200  1
  O  O7  1  0.99530500  0.22235300  0.67881600  1
  O  O8  1  0.92065800  0.33639300  0.90958300  1
  O  O9  1  0.67805700  0.80803700  0.07925000  1
  O  O10  1  0.62420200  0.91030600  0.42104400  1
  O  O11  1  0.81132300  0.50989200  0.07865100  1
  O  O12  1  0.66276100  0.66879100  0.72395000  1
  O  O13  1  0.65620300  0.66210500  0.22431500  1
  O  O14  1  0.67489700  0.51315200  0.57846600  1
  O  O15  1  0.47045800  0.91070300  0.92103400  1
  O  O16  1  0.51178500  0.81450300  0.57640900  1
  O  O17  1  0.73994000  0.34071500  0.41113100  1
  O  O18  1  0.79660700  0.20339300  0.00000000  1
  O  O19  1  0.77357100  0.22562900  0.18021800  1
  O  O20  1  0.77437100  0.22642900  0.81978200  1
  O  O21  1  0.62196900  0.47134700  0.92113700  1
  O  O22  1  0.51206000  0.67350300  0.07377000  1
  O  O23  1  0.65928500  0.26006000  0.58886900  1
  O  O24  1  0.46491400  0.61827900  0.41850600  1
  O  O25  1  0.34372500  0.91466100  0.40910400  1
  O  O26  1  0.79920700  0.00195500  0.50202500  1
  O  O27  1  0.77764700  0.00469500  0.32118400  1
  O  O28  1  0.20682800  0.99114100  0.17001400  1
  O  O29  1  0.66360700  0.07934200  0.09041700  1
  O  O30  1  0.52865300  0.37803100  0.07886300  1
  O  O31  1  0.33288500  0.74886900  0.90620500  1
  O  O32  1  0.48684800  0.32510300  0.42153400  1
  O  O33  1  0.38172100  0.53508600  0.58149400  1
  O  O34  1  0.21616800  0.78139100  0.67971500  1
  O  O35  1  0.21860900  0.78383200  0.32028500  1
  O  O36  1  0.20382300  0.79617700  0.50000000  1
  O  O37  1  0.25113100  0.66711500  0.09379500  1
  O  O38  1  0.49010800  0.18867700  0.92134900  1
  O  O39  1  0.53750200  0.08145300  0.58462800  1
  O  O40  1  0.32649700  0.48794000  0.92623000  1
  O  O41  1  0.33789500  0.34379700  0.77568500  1
  O  O42  1  0.33120900  0.33723900  0.27605000  1
  O  O43  1  0.18549700  0.48821500  0.42359100  1
  O  O44  1  0.38097000  0.07835600  0.08108500  1
  O  O45  1  0.32889000  0.19055400  0.42951800  1
  O  O46  1  0.08533900  0.65627500  0.59089600  1
  O  O47  1  0.98826200  0.80177900  0.00926300  1
  O  O48  1  0.00885900  0.79317200  0.82998600  1
  O  O49  1  0.08929700  0.52954200  0.07896600  1
  O  O50  1  0.19196300  0.32194300  0.92075000  1
  O  O51  1  0.08969400  0.37579800  0.57895600  1
  O  O52  1  0.25151800  0.07826000  0.59013500  1
  O  O53  1  0.23311700  0.00081900  0.81258800  1
  O  O54  1  0.19822100  0.01173800  0.99073700  1
  O  O55  1  0.08253600  0.25627400  0.09019700  1
  O  O56  1  0.98593700  0.21906100  0.31671200  1
  O  O57  1  0.99804500  0.20079300  0.49797500  1
loop_
_geom_bond_atom_site_label_1
_geom_bond_atom_site_label_2
_geom_bond_distance
_geom_bond_site_symmetry_2
Li0 O0 1.984101 1_555
Li0 O27 2.066190 1_565
Li0 O29 2.090768 1_565
Li0 O9 2.255946 1_555
Li1 O56 2.011156 1_555
Li1 O19 2.021335 1_555
Li1 O55 2.069576 1_655
Li1 O11 2.190716 1_555
Li2 O7 1.969912 1_555
Li2 O23 2.057028 1_555
Li2 O20 2.115750 1_555
Li2 O14 2.145058 1_555
Li3 O52 1.998611 1_565
Li3 O34 2.023525 1_555
Li3 O53 2.044774 1_565
Li3 O16 2.136425 1_555
Li4 O27 1.969921 1_555
Li4 O17 2.057022 1_555
Li4 O19 2.115748 1_555
Li4 O32 2.145058 1_555
Li5 O28 1.949745 1_555
Li5 O35 2.057667 1_555
Li5 O37 2.078940 1_555
Li5 O22 2.261579 1_555
Li6 O2 2.011156 1_555
Li6 O20 2.021335 1_555
Li6 O3 2.069576 1_545
Li6 O38 2.190716 1_555
Li7 O48 1.949745 1_555
Li7 O34 2.057667 1_555
Li7 O31 2.078940 1_555
Li7 O40 2.261579 1_555
Li8 O1 1.998611 1_455
Li8 O35 2.023525 1_555
Li8 O0 2.044774 1_455
Li8 O43 2.136425 1_555
Li9 O53 1.984101 1_555
Li9 O7 2.066190 1_455
Li9 O8 2.090768 1_455
Li9 O50 2.255946 1_555
Li10 O2 1.954275 1_565
Li10 O48 2.000473 1_655
Li10 O34 2.163828 1_655
Li11 O56 1.954275 1_455
Li11 O28 2.000473 1_545
Li11 O35 2.163828 1_545
O0 P13 1.511334 1_655
O1 P1 1.533413 1_555
O1 V4 2.048841 1_555
O2 P8 1.507131 1_555
O3 P0 1.553254 1_555
O3 V2 1.980152 1_556
O4 P0 1.536261 1_555
O4 V5 1.927694 1_655
O5 P3 1.583839 1_555
O5 V4 1.844902 1_555
O6 P2 1.525825 1_555
O6 V4 1.964293 1_555
O7 P15 1.520809 1_655
O8 P5 1.553960 1_555
O8 V5 1.991966 1_655
O9 P4 1.567892 1_555
O9 V2 1.961136 1_555
O10 P1 1.536078 1_555
O10 V3 1.914136 1_565
O11 P4 1.573677 1_555
O11 V5 1.972013 1_654
O12 P3 1.487704 1_555
O13 P4 1.489650 1_555
O14 P3 1.573758 1_555
O14 V0 1.948560 1_555
O15 P7 1.546672 1_555
O15 V2 1.898618 1_556
O16 P3 1.571815 1_555
O16 V3 1.967451 1_565
O17 P2 1.557759 1_555
O17 V0 1.954909 1_555
O18 P6 1.617312 1_555
O18 P5 1.617312 1_554
O19 P6 1.512514 1_555
O20 P5 1.512514 1_555
O21 P5 1.533530 1_555
O21 V1 1.924529 1_556
O22 P4 1.593370 1_555
O22 V1 1.892990 1_555
O23 P8 1.557760 1_555
O23 V0 1.954909 1_555
O24 P9 1.537687 1_555
O24 V0 1.914031 1_555
O25 P9 1.515343 1_555
O25 V3 1.971618 1_565
O26 P8 1.615459 1_555
O26 P1 1.619011 1_545
O27 P1 1.520809 1_545
O28 P14 1.502612 1_565
O29 P6 1.553960 1_555
O29 V2 1.991966 1_545
O30 P6 1.533530 1_555
O30 V1 1.924529 1_555
O31 P7 1.535510 1_555
O31 V1 2.050536 1_556
O32 P11 1.573758 1_555
O32 V0 1.948560 1_555
O33 P10 1.537687 1_555
O33 V0 1.914031 1_555
O34 P10 1.528022 1_555
O35 P9 1.528022 1_555
O36 P9 1.616196 1_555
O36 P10 1.616196 1_555
O37 P13 1.535510 1_555
O37 V1 2.050536 1_555
O38 P12 1.573677 1_555
O38 V2 1.972013 1_546
O39 P8 1.525826 1_555
O39 V3 1.964293 1_555
O40 P12 1.593370 1_555
O40 V1 1.892990 1_556
O41 P12 1.489650 1_555
O42 P11 1.487704 1_555
O43 P11 1.571815 1_555
O43 V4 1.967451 1_455
O44 P14 1.536261 1_555
O44 V2 1.927694 1_545
O45 P11 1.583839 1_555
O45 V3 1.844902 1_555
O46 P10 1.515343 1_555
O46 V4 1.971618 1_455
O47 P13 1.611022 1_655
O47 P0 1.620799 1_554
O48 P0 1.502612 1_455
O49 P13 1.546672 1_555
O49 V5 1.898618 1_554
O50 P12 1.567892 1_555
O50 V5 1.961136 1_555
O51 P15 1.536078 1_555
O51 V4 1.914136 1_455
O52 P15 1.533413 1_555
O52 V3 2.048841 1_555
O53 P7 1.511334 1_545
O54 P7 1.611022 1_545
O54 P14 1.620799 1_556
O55 P14 1.553254 1_555
O55 V5 1.980152 1_554
O56 P2 1.507143 1_555
O57 P2 1.615447 1_555
O57 P15 1.619011 1_655
