# generated using pymatgen
data_LaMgFeSnO6
_symmetry_space_group_name_H-M   'P 1'
_cell_length_a   5.64087700
_cell_length_b   5.44089200
_cell_length_c   9.57010693
_cell_angle_alpha   55.98430522
_cell_angle_beta   90.00000000
_cell_angle_gamma   90.00000000
_symmetry_Int_Tables_number   1
_chemical_formula_structural   LaMgFeSnO6
_chemical_formula_sum   'La2 Mg2 Fe2 Sn2 O12'
_cell_volume   243.45991896
_cell_formula_units_Z   2
loop_
 _symmetry_equiv_pos_site_id
 _symmetry_equiv_pos_as_xyz
  1  'x, y, z'
loop_
 _atom_site_type_symbol
 _atom_site_label
 _atom_site_symmetry_multiplicity
 _atom_site_fract_x
 _atom_site_fract_y
 _atom_site_fract_z
 _atom_site_occupancy
  La  La0  1  0.29158800  0.23680200  0.75123800  1
  La  La1  1  0.70841200  0.23680200  0.25123800  1
  Mg  Mg0  1  0.80790000  0.77698300  0.75148800  1
  Mg  Mg1  1  0.19210000  0.77698300  0.25148800  1
  Fe  Fe0  1  0.75174000  0.99998100  0.99990700  1
  Fe  Fe1  1  0.24826000  0.99998100  0.49990700  1
  Sn  Sn0  1  0.75157300  0.49891000  0.50292800  1
  Sn  Sn1  1  0.24842700  0.49891000  0.00292800  1
  O  O0  1  0.28199300  0.39168500  0.25107900  1
  O  O1  1  0.44336500  0.11978900  0.06380500  1
  O  O2  1  0.44134000  0.75306100  0.43618300  1
  O  O3  1  0.55866000  0.75306100  0.93618300  1
  O  O4  1  0.55663500  0.11978900  0.56380500  1
  O  O5  1  0.71800700  0.39168500  0.75107900  1
  O  O6  1  0.80844400  0.65852400  0.24763400  1
  O  O7  1  0.97818700  0.84891900  0.43367400  1
  O  O8  1  0.96788300  0.21534800  0.06206400  1
  O  O9  1  0.03211700  0.21534800  0.56206400  1
  O  O10  1  0.02181300  0.84891900  0.93367400  1
  O  O11  1  0.19155600  0.65852400  0.74763400  1
loop_
_geom_bond_atom_site_label_1
_geom_bond_atom_site_label_2
_geom_bond_distance
_geom_bond_site_symmetry_2
La0 O11 2.344349 1_555
La0 O9 2.381160 1_555
La0 O10 2.386507 1_545
La0 O5 2.548441 1_555
La0 O3 2.667876 1_545
La0 O4 2.671314 1_555
La0 O1 2.820542 1_556
La0 O2 2.866843 1_555
La1 O6 2.344349 1_555
La1 O8 2.381160 1_555
La1 O7 2.386507 1_545
La1 O0 2.548441 1_555
La1 O2 2.667876 1_545
La1 O1 2.671314 1_555
La1 O4 2.820542 1_555
La1 O3 2.866843 1_554
Mg0 O5 2.158950 1_555
Mg0 O3 2.204637 1_555
Mg0 O4 2.228374 1_565
Mg0 O11 2.264275 1_655
Mg0 O10 2.326511 1_655
Mg0 O9 2.395219 1_665
Mg1 O0 2.158950 1_555
Mg1 O2 2.204637 1_555
Mg1 O1 2.228374 1_565
Mg1 O6 2.264275 1_455
Mg1 O7 2.326511 1_455
Mg1 O8 2.395219 1_465
Fe0 O10 1.995269 1_655
Fe0 O8 1.998335 1_566
Fe0 O6 2.060701 1_556
Fe0 O1 2.066577 1_566
Fe0 O3 2.068746 1_555
Fe0 O5 2.137925 1_565
Fe1 O7 1.995269 1_455
Fe1 O9 1.998335 1_565
Fe1 O11 2.060701 1_555
Fe1 O4 2.066577 1_565
Fe1 O2 2.068746 1_555
Fe1 O0 2.137925 1_565
O0 Sn1 2.113269 1_555
O1 Sn1 2.111629 1_555
O2 Sn0 2.096276 1_555
O3 Sn1 2.096276 1_556
O4 Sn0 2.111629 1_555
O5 Sn0 2.113269 1_555
O6 Sn0 2.110063 1_555
O7 Sn0 2.070692 1_555
O8 Sn1 2.056223 1_655
O9 Sn0 2.056223 1_455
O10 Sn1 2.070692 1_556
O11 Sn1 2.110063 1_556
