# generated using pymatgen
data_Li4VFe3O8
_symmetry_space_group_name_H-M   'P 1'
_cell_length_a   5.97765188
_cell_length_b   5.99162674
_cell_length_c   8.48257025
_cell_angle_alpha   89.97869072
_cell_angle_beta   90.01394139
_cell_angle_gamma   90.25927934
_symmetry_Int_Tables_number   1
_chemical_formula_structural   Li4VFe3O8
_chemical_formula_sum   'Li8 V2 Fe6 O16'
_cell_volume   303.80739800
_cell_formula_units_Z   2
loop_
 _symmetry_equiv_pos_site_id
 _symmetry_equiv_pos_as_xyz
  1  'x, y, z'
loop_
 _atom_site_type_symbol
 _atom_site_label
 _atom_site_symmetry_multiplicity
 _atom_site_fract_x
 _atom_site_fract_y
 _atom_site_fract_z
 _atom_site_occupancy
  Li  Li0  1  0.24676400  0.25156500  0.24955200  1
  Li  Li1  1  0.00000400  0.99999700  0.49999200  1
  Li  Li2  1  0.50000700  0.50000000  0.99999100  1
  Li  Li3  1  0.74392500  0.24854800  0.24930100  1
  Li  Li4  1  0.50000400  0.00001600  0.49997900  1
  Li  Li5  1  0.00000800  0.50001200  0.99997000  1
  Li  Li6  1  0.25610400  0.75146400  0.75067400  1
  Li  Li7  1  0.75323100  0.74844600  0.75043000  1
  V  V0  1  0.99999700  0.00000100  0.99999400  1
  V  V1  1  0.50000100  0.50000900  0.49999500  1
  Fe  Fe0  1  0.49998200  0.00001300  0.99997200  1
  Fe  Fe1  1  0.00000400  0.49999900  0.49999100  1
  Fe  Fe2  1  0.25140800  0.25040500  0.74979800  1
  Fe  Fe3  1  0.74860300  0.74958800  0.25018200  1
  Fe  Fe4  1  0.25245900  0.74947200  0.24840200  1
  Fe  Fe5  1  0.74752700  0.25052000  0.75159900  1
  O  O0  1  0.23288300  0.76060800  0.00947600  1
  O  O1  1  0.99820800  0.51542700  0.26052500  1
  O  O2  1  0.99938500  0.01113300  0.76118000  1
  O  O3  1  0.25056900  0.26594600  0.50725800  1
  O  O4  1  0.49993900  0.51548500  0.24985500  1
  O  O5  1  0.77696900  0.76696300  0.00674600  1
  O  O6  1  0.50174300  0.98104000  0.24723900  1
  O  O7  1  0.25260000  0.73321800  0.49242900  1
  O  O8  1  0.74740800  0.26678500  0.50754900  1
  O  O9  1  0.49826100  0.01896700  0.75275100  1
  O  O10  1  0.22303300  0.23305400  0.99323600  1
  O  O11  1  0.50006900  0.48451600  0.75012600  1
  O  O12  1  0.74944100  0.73405800  0.49272000  1
  O  O13  1  0.00062500  0.98886800  0.23880100  1
  O  O14  1  0.00180100  0.48457600  0.73945700  1
  O  O15  1  0.76712000  0.23939500  0.99050600  1
loop_
_geom_bond_atom_site_label_1
_geom_bond_atom_site_label_2
_geom_bond_distance
_geom_bond_site_symmetry_2
Li0 O13 2.151660 1_545
Li0 O1 2.176485 1_455
Li0 O10 2.181636 1_554
Li0 O4 2.183860 1_555
Li0 O3 2.187847 1_555
Li0 O6 2.230059 1_545
Li1 O12 2.182778 1_455
Li1 O3 2.182828 1_565
Li1 O7 2.204764 1_555
Li1 O8 2.204802 1_465
Li1 O2 2.216579 1_465
Li1 O13 2.216604 1_555
Li2 O4 2.121553 1_556
Li2 O11 2.121562 1_555
Li2 O15 2.239820 1_555
Li2 O0 2.239879 1_556
Li2 O10 2.297551 1_555
Li2 O5 2.297570 1_556
Li3 O6 2.155014 1_545
Li3 O4 2.169400 1_555
Li3 O13 2.192061 1_645
Li3 O8 2.193460 1_555
Li3 O15 2.200374 1_554
Li3 O1 2.203289 1_555
Li4 O6 2.146970 1_545
Li4 O9 2.147233 1_555
Li4 O8 2.173640 1_555
Li4 O7 2.173762 1_545
Li4 O3 2.188011 1_555
Li4 O12 2.188137 1_545
Li5 O10 2.087688 1_555
Li5 O5 2.087719 1_456
Li5 O0 2.088687 1_556
Li5 O15 2.088818 1_455
Li5 O14 2.211819 1_555
Li5 O1 2.212170 1_456
Li6 O9 2.154893 1_565
Li6 O11 2.169364 1_555
Li6 O2 2.192096 1_465
Li6 O7 2.193438 1_555
Li6 O0 2.200442 1_556
Li6 O14 2.203408 1_555
Li7 O2 2.151677 1_565
Li7 O14 2.176578 1_655
Li7 O5 2.181641 1_556
Li7 O11 2.183850 1_555
Li7 O12 2.187882 1_555
Li7 O9 2.230005 1_565
Fe0 O9 2.100125 1_555
Fe0 O6 2.100522 1_546
Fe0 O0 2.143020 1_546
Fe0 O15 2.143089 1_555
Fe0 O10 2.171270 1_555
Fe0 O5 2.171487 1_546
Fe1 O14 2.033382 1_555
Fe1 O1 2.033383 1_455
Fe1 O8 2.053636 1_455
Fe1 O7 2.053657 1_555
Fe1 O3 2.057349 1_555
Fe1 O12 2.057366 1_455
Fe2 O9 2.029633 1_555
Fe2 O11 2.039150 1_555
Fe2 O14 2.054588 1_555
Fe2 O3 2.059440 1_555
Fe2 O10 2.074505 1_555
Fe2 O2 2.077160 1_455
Fe3 O6 2.029720 1_555
Fe3 O4 2.039130 1_555
Fe3 O1 2.054539 1_555
Fe3 O12 2.059420 1_555
Fe3 O5 2.074491 1_555
Fe3 O13 2.077188 1_655
Fe4 O0 2.031142 1_555
Fe4 O6 2.031489 1_555
Fe4 O4 2.042762 1_555
Fe4 O1 2.065815 1_455
Fe4 O7 2.072230 1_555
Fe4 O13 2.085571 1_555
Fe5 O15 2.030985 1_555
Fe5 O9 2.031349 1_555
Fe5 O11 2.042704 1_555
Fe5 O14 2.065969 1_655
Fe5 O8 2.072428 1_555
Fe5 O2 2.085631 1_555
O0 V0 2.004930 1_464
O2 V0 2.026832 1_555
O3 V1 2.043223 1_555
O4 V1 2.123821 1_555
O5 V0 1.927013 1_564
O7 V1 2.040156 1_555
O8 V1 2.040241 1_555
O10 V0 1.927112 1_455
O11 V1 2.123749 1_555
O12 V1 2.043204 1_555
O13 V0 2.026773 1_464
O15 V0 2.004899 1_555
