# generated using pymatgen
data_Ba2Ca(PO4)4
_symmetry_space_group_name_H-M   'P 1'
_cell_length_a   10.61736100
_cell_length_b   5.48168300
_cell_length_c   12.87773869
_cell_angle_alpha   79.75307669
_cell_angle_beta   90.00000000
_cell_angle_gamma   90.00000000
_symmetry_Int_Tables_number   1
_chemical_formula_structural   Ba2Ca(PO4)4
_chemical_formula_sum   'Ba4 Ca2 P8 O32'
_cell_volume   737.54306923
_cell_formula_units_Z   2
loop_
 _symmetry_equiv_pos_site_id
 _symmetry_equiv_pos_as_xyz
  1  'x, y, z'
loop_
 _atom_site_type_symbol
 _atom_site_label
 _atom_site_symmetry_multiplicity
 _atom_site_fract_x
 _atom_site_fract_y
 _atom_site_fract_z
 _atom_site_occupancy
  Ba  Ba0  1  0.34592100  0.13591600  0.16864100  1
  Ba  Ba1  1  0.84592100  0.86408400  0.33135900  1
  Ba  Ba2  1  0.65407900  0.86408400  0.83135900  1
  Ba  Ba3  1  0.15407900  0.13591600  0.66864100  1
  Ca  Ca0  1  0.00000000  0.00000000  0.00000000  1
  Ca  Ca1  1  0.50000000  0.00000000  0.50000000  1
  P  P0  1  0.19097700  0.76277300  0.44745700  1
  P  P1  1  0.69097700  0.23722700  0.05254300  1
  P  P2  1  0.80902300  0.23722700  0.55254300  1
  P  P3  1  0.30902300  0.76277300  0.94745700  1
  P  P4  1  0.51442100  0.58451100  0.30003600  1
  P  P5  1  0.01442100  0.41548900  0.19996400  1
  P  P6  1  0.48557900  0.41548900  0.69996400  1
  P  P7  1  0.98557900  0.58451100  0.80003600  1
  O  O0  1  0.21137500  0.84300300  0.32746800  1
  O  O1  1  0.71137500  0.15699700  0.17253200  1
  O  O2  1  0.78862500  0.15699700  0.67253200  1
  O  O3  1  0.28862500  0.84300300  0.82746800  1
  O  O4  1  0.21745700  0.48553900  0.48697600  1
  O  O5  1  0.71745700  0.51446100  0.01302400  1
  O  O6  1  0.78254300  0.51446100  0.51302400  1
  O  O7  1  0.28254300  0.48553900  0.98697600  1
  O  O8  1  0.65486700  0.55667900  0.26885000  1
  O  O9  1  0.15486700  0.44332100  0.23115000  1
  O  O10  1  0.34513300  0.44332100  0.73115000  1
  O  O11  1  0.84513300  0.55667900  0.76885000  1
  O  O12  1  0.04838500  0.79089200  0.47125400  1
  O  O13  1  0.54838500  0.20910800  0.02874600  1
  O  O14  1  0.95161500  0.20910800  0.52874600  1
  O  O15  1  0.45161500  0.79089200  0.97125400  1
  O  O16  1  0.43410500  0.62231900  0.19779000  1
  O  O17  1  0.93410500  0.37768100  0.30221000  1
  O  O18  1  0.56589500  0.37768100  0.80221000  1
  O  O19  1  0.06589500  0.62231900  0.69779000  1
  O  O20  1  0.46977200  0.34477600  0.37037200  1
  O  O21  1  0.96977200  0.65522400  0.12962800  1
  O  O22  1  0.53022800  0.65522400  0.62962800  1
  O  O23  1  0.03022800  0.34477600  0.87037200  1
  O  O24  1  0.27476400  0.92219000  0.50651800  1
  O  O25  1  0.77476400  0.07781000  0.99348200  1
  O  O26  1  0.72523600  0.07781000  0.49348200  1
  O  O27  1  0.22523600  0.92219000  0.00651800  1
  O  O28  1  0.50847400  0.81609700  0.35168300  1
  O  O29  1  0.00847400  0.18390300  0.14831700  1
  O  O30  1  0.49152600  0.18390300  0.64831700  1
  O  O31  1  0.99152600  0.81609700  0.85168300  1
loop_
_geom_bond_atom_site_label_1
_geom_bond_atom_site_label_2
_geom_bond_distance
_geom_bond_site_symmetry_2
Ba0 O0 2.762929 1_545
Ba0 O13 2.787517 1_555
Ba0 O7 2.829071 1_554
Ba0 O9 2.843397 1_555
Ba0 O27 2.871154 1_545
Ba0 O16 2.912526 1_555
Ba0 O16 2.927093 1_545
Ba0 O28 3.184051 1_545
Ba0 O20 3.293465 1_555
Ba1 O1 2.762929 1_565
Ba1 O12 2.787517 1_655
Ba1 O6 2.829071 1_555
Ba1 O8 2.843397 1_555
Ba1 O26 2.871154 1_565
Ba1 O17 2.912526 1_555
Ba1 O17 2.927093 1_565
Ba1 O29 3.184051 1_665
Ba1 O21 3.293465 1_555
Ba2 O2 2.762929 1_565
Ba2 O15 2.787517 1_555
Ba2 O5 2.829071 1_556
Ba2 O11 2.843397 1_555
Ba2 O25 2.871154 1_565
Ba2 O18 2.912526 1_555
Ba2 O18 2.927093 1_565
Ba2 O30 3.184051 1_565
Ba2 O22 3.293465 1_555
Ba3 O3 2.762929 1_545
Ba3 O14 2.787517 1_455
Ba3 O4 2.829071 1_555
Ba3 O10 2.843397 1_555
Ba3 O24 2.871154 1_545
Ba3 O19 2.912526 1_555
Ba3 O19 2.927093 1_545
Ba3 O31 3.184051 1_445
Ba3 O23 3.293465 1_555
Ca0 O23 2.310644 1_554
Ca0 O21 2.310644 1_445
Ca0 O29 2.314617 1_555
Ca0 O31 2.314617 1_444
Ca0 O25 2.427980 1_454
Ca0 O27 2.427980 1_545
Ca1 O20 2.310644 1_555
Ca1 O22 2.310644 1_545
Ca1 O30 2.314617 1_555
Ca1 O28 2.314617 1_545
Ca1 O24 2.427980 1_545
Ca1 O26 2.427980 1_555
O0 P0 1.544717 1_555
O1 P1 1.544717 1_555
O2 P2 1.544717 1_555
O3 P3 1.544717 1_555
O4 P0 1.540257 1_555
O5 P1 1.540257 1_555
O6 P2 1.540257 1_555
O7 P3 1.540257 1_555
O8 P4 1.558826 1_555
O9 P5 1.558826 1_555
O10 P6 1.558826 1_555
O11 P7 1.558826 1_555
O12 P0 1.557730 1_555
O13 P1 1.557730 1_555
O14 P2 1.557730 1_555
O15 P3 1.557730 1_555
O16 P4 1.551364 1_555
O17 P5 1.551364 1_655
O18 P6 1.551364 1_555
O19 P7 1.551364 1_455
O20 P4 1.532529 1_555
O21 P5 1.532529 1_655
O22 P6 1.532529 1_555
O23 P7 1.532529 1_455
O24 P0 1.539472 1_555
O25 P1 1.539472 1_556
O26 P2 1.539472 1_555
O27 P3 1.539472 1_554
O28 P4 1.535682 1_555
O29 P5 1.535682 1_555
O30 P6 1.535682 1_555
O31 P7 1.535682 1_555
