# generated using pymatgen
data_P3N5
_symmetry_space_group_name_H-M   'P 1'
_cell_length_a   2.62908200
_cell_length_b   4.49009400
_cell_length_c   7.02801725
_cell_angle_alpha   108.62920956
_cell_angle_beta   100.78026354
_cell_angle_gamma   90.00000000
_symmetry_Int_Tables_number   1
_chemical_formula_structural   P3N5
_chemical_formula_sum   'P3 N5'
_cell_volume   77.07093034
_cell_formula_units_Z   1
loop_
 _symmetry_equiv_pos_site_id
 _symmetry_equiv_pos_as_xyz
  1  'x, y, z'
loop_
 _atom_site_type_symbol
 _atom_site_label
 _atom_site_symmetry_multiplicity
 _atom_site_fract_x
 _atom_site_fract_y
 _atom_site_fract_z
 _atom_site_occupancy
  P  P0  1  0.81717500  0.27583500  0.63435100  1
  P  P1  1  0.18282500  0.64148400  0.36565000  1
  P  P2  1  0.50000000  0.79787100  0.00000000  1
  N  N0  1  0.72637600  0.46188400  0.45275200  1
  N  N1  1  0.27362400  0.00913100  0.54724700  1
  N  N2  1  0.39621100  0.47379800  0.79242200  1
  N  N3  1  0.00000000  0.99393100  0.00000000  1
  N  N4  1  0.60378900  0.68137600  0.20757800  1
loop_
_geom_bond_atom_site_label_1
_geom_bond_atom_site_label_2
_geom_bond_distance
_geom_bond_site_symmetry_2
N0 P0 1.717826 1_555
N0 P1 1.747954 1_655
N0 P1 1.747954 1_555
N1 P1 1.717817 1_545
N1 P0 1.747959 1_555
N1 P0 1.747963 1_455
N2 P2 1.677782 1_556
N2 P0 1.754482 1_555
N2 P0 1.754484 1_455
N3 P2 1.582086 1_555
N3 P2 1.582086 1_455
N4 P2 1.677782 1_555
N4 P1 1.754488 1_655
N4 P1 1.754488 1_555
