# generated using pymatgen
data_Li2TeMoO6
_symmetry_space_group_name_H-M   'P 1'
_cell_length_a   13.24626300
_cell_length_b   5.46134200
_cell_length_c   8.61801619
_cell_angle_alpha   55.32100762
_cell_angle_beta   90.00000000
_cell_angle_gamma   90.00000000
_symmetry_Int_Tables_number   1
_chemical_formula_structural   Li2TeMoO6
_chemical_formula_sum   'Li8 Te4 Mo4 O24'
_cell_volume   512.69393844
_cell_formula_units_Z   4
loop_
 _symmetry_equiv_pos_site_id
 _symmetry_equiv_pos_as_xyz
  1  'x, y, z'
loop_
 _atom_site_type_symbol
 _atom_site_label
 _atom_site_symmetry_multiplicity
 _atom_site_fract_x
 _atom_site_fract_y
 _atom_site_fract_z
 _atom_site_occupancy
  Li  Li0  1  0.56888900  0.46604300  0.73430400  1
  Li  Li1  1  0.93111100  0.46604300  0.23430400  1
  Li  Li2  1  0.43111100  0.53395700  0.26569600  1
  Li  Li3  1  0.06888900  0.53395700  0.76569600  1
  Li  Li4  1  0.35344400  0.75852600  0.48370400  1
  Li  Li5  1  0.14655600  0.75852600  0.98370400  1
  Li  Li6  1  0.64655600  0.24147400  0.51629600  1
  Li  Li7  1  0.85344400  0.24147400  0.01629600  1
  Te  Te0  1  0.70713400  0.68557900  0.06630300  1
  Te  Te1  1  0.79286600  0.68557900  0.56630300  1
  Te  Te2  1  0.29286600  0.31442100  0.93369700  1
  Te  Te3  1  0.20713400  0.31442100  0.43369700  1
  Mo  Mo0  1  0.59123600  0.02719100  0.25363200  1
  Mo  Mo1  1  0.90876400  0.02719100  0.75363200  1
  Mo  Mo2  1  0.40876400  0.97280900  0.74636800  1
  Mo  Mo3  1  0.09123600  0.97280900  0.24636800  1
  O  O0  1  0.47970300  0.80424100  0.33683700  1
  O  O1  1  0.02029700  0.80424100  0.83683700  1
  O  O2  1  0.52029700  0.19575900  0.66316300  1
  O  O3  1  0.97970300  0.19575900  0.16316300  1
  O  O4  1  0.59139200  0.18880100  0.00743400  1
  O  O5  1  0.90860800  0.18880100  0.50743400  1
  O  O6  1  0.40860800  0.81119900  0.99256600  1
  O  O7  1  0.09139200  0.81119900  0.49256600  1
  O  O8  1  0.55454900  0.33737700  0.26402700  1
  O  O9  1  0.94545100  0.33737700  0.76402700  1
  O  O10  1  0.44545100  0.66262300  0.73597300  1
  O  O11  1  0.05454900  0.66262300  0.23597300  1
  O  O12  1  0.69213500  0.69357400  0.29020900  1
  O  O13  1  0.80786500  0.69357400  0.79020900  1
  O  O14  1  0.30786500  0.30642600  0.70979100  1
  O  O15  1  0.19213500  0.30642600  0.20979100  1
  O  O16  1  0.84410500  0.83344000  0.03317500  1
  O  O17  1  0.65589500  0.83344000  0.53317500  1
  O  O18  1  0.15589500  0.16656000  0.96682500  1
  O  O19  1  0.34410500  0.16656000  0.46682500  1
  O  O20  1  0.74956800  0.28378800  0.19066200  1
  O  O21  1  0.75043200  0.28378800  0.69066200  1
  O  O22  1  0.25043200  0.71621200  0.80933800  1
  O  O23  1  0.24956800  0.71621200  0.30933800  1
loop_
_geom_bond_atom_site_label_1
_geom_bond_atom_site_label_2
_geom_bond_distance
_geom_bond_site_symmetry_2
Li0 O10 1.960587 1_555
Li0 O4 1.966290 1_556
Li0 O2 1.999736 1_555
Li0 O17 2.097851 1_555
Li1 O11 1.960587 1_655
Li1 O5 1.966290 1_555
Li1 O3 1.999736 1_555
Li1 O16 2.097851 1_555
Li2 O8 1.960587 1_555
Li2 O6 1.966290 1_554
Li2 O0 1.999736 1_555
Li2 O19 2.097851 1_555
Li3 O9 1.960587 1_455
Li3 O7 1.966290 1_555
Li3 O1 1.999736 1_555
Li3 O18 2.097851 1_555
Li4 O0 2.025305 1_555
Li4 O23 2.144745 1_555
Li4 O19 2.152537 1_565
Li4 O14 2.186941 1_555
Li4 O10 2.278252 1_555
Li5 O1 2.025305 1_555
Li5 O22 2.144745 1_555
Li5 O18 2.152537 1_565
Li5 O15 2.186941 1_556
Li5 O11 2.278252 1_556
Li6 O2 2.025305 1_555
Li6 O21 2.144745 1_555
Li6 O17 2.152537 1_545
Li6 O12 2.186941 1_555
Li6 O8 2.278252 1_555
Li7 O3 2.025305 1_555
Li7 O20 2.144745 1_555
Li7 O16 2.152537 1_545
Li7 O13 2.186941 1_554
Li7 O9 2.278252 1_554
Mo0 O4 1.774758 1_555
Mo0 O0 1.784907 1_545
Mo0 O8 1.812906 1_555
Mo0 O12 2.133494 1_545
Mo0 O17 2.180867 1_545
Mo0 O20 2.406578 1_555
Mo1 O5 1.774758 1_555
Mo1 O1 1.784907 1_645
Mo1 O9 1.812906 1_555
Mo1 O13 2.133494 1_545
Mo1 O16 2.180867 1_546
Mo1 O21 2.406578 1_555
Mo2 O6 1.774758 1_555
Mo2 O2 1.784907 1_565
Mo2 O10 1.812906 1_555
Mo2 O14 2.133494 1_565
Mo2 O19 2.180867 1_565
Mo2 O22 2.406578 1_555
Mo3 O7 1.774758 1_555
Mo3 O3 1.784907 1_465
Mo3 O11 1.812906 1_555
Mo3 O15 2.133494 1_565
Mo3 O18 2.180867 1_564
Mo3 O23 2.406578 1_555
O12 Te0 1.964870 1_555
O13 Te1 1.964870 1_555
O14 Te2 1.964870 1_555
O15 Te3 1.964870 1_555
O16 Te0 1.939878 1_555
O17 Te1 1.939878 1_555
O18 Te2 1.939878 1_555
O19 Te3 1.939878 1_555
O20 Te0 1.898272 1_555
O21 Te1 1.898272 1_555
O22 Te2 1.898272 1_555
O23 Te3 1.898272 1_555
