# generated using pymatgen
data_Nb2PbO6
_symmetry_space_group_name_H-M   'P 1'
_cell_length_a   3.94725600
_cell_length_b   12.99088900
_cell_length_c   13.07360430
_cell_angle_alpha   87.77966308
_cell_angle_beta   90.00000000
_cell_angle_gamma   90.00000000
_symmetry_Int_Tables_number   1
_chemical_formula_structural   Nb2PbO6
_chemical_formula_sum   'Nb10 Pb5 O30'
_cell_volume   669.88973475
_cell_formula_units_Z   5
loop_
 _symmetry_equiv_pos_site_id
 _symmetry_equiv_pos_as_xyz
  1  'x, y, z'
loop_
 _atom_site_type_symbol
 _atom_site_label
 _atom_site_symmetry_multiplicity
 _atom_site_fract_x
 _atom_site_fract_y
 _atom_site_fract_z
 _atom_site_occupancy
  Nb  Nb0  1  0.00000000  0.93765300  0.29663300  1
  Nb  Nb1  1  0.00000000  0.29169000  0.93165000  1
  Nb  Nb2  1  0.00000000  0.21107000  0.43968000  1
  Nb  Nb3  1  0.00000000  0.43096600  0.21973600  1
  Nb  Nb4  1  0.00000000  0.08547000  0.71161300  1
  Nb  Nb5  1  0.00000000  0.71854900  0.08543600  1
  Nb  Nb6  1  0.00000000  0.50312500  0.50525500  1
  Nb  Nb7  1  0.00000000  0.80390700  0.57637700  1
  Nb  Nb8  1  0.00000000  0.58590200  0.78511700  1
  Nb  Nb9  1  0.00000000  0.00067700  0.00336100  1
  Pb  Pb0  1  0.50000000  0.71752800  0.37990600  1
  Pb  Pb1  1  0.50000000  0.36968900  0.72338900  1
  Pb  Pb2  1  0.50000000  0.87360200  0.83708300  1
  Pb  Pb3  1  0.50000000  0.19666300  0.21959800  1
  Pb  Pb4  1  0.50000000  0.51332800  0.00798500  1
  O  O0  1  0.50000000  0.06561600  0.71203600  1
  O  O1  1  0.50000000  0.68905400  0.07043800  1
  O  O2  1  0.00000000  0.71457300  0.70882000  1
  O  O3  1  0.50000000  0.78220600  0.55689100  1
  O  O4  1  0.50000000  0.55842300  0.78301000  1
  O  O5  1  0.00000000  0.92609200  0.63653700  1
  O  O6  1  0.00000000  0.62589200  0.92168200  1
  O  O7  1  0.00000000  0.13315800  0.56310700  1
  O  O8  1  0.00000000  0.55444300  0.12584700  1
  O  O9  1  0.00000000  0.65037500  0.48520200  1
  O  O10  1  0.00000000  0.49272600  0.65191800  1
  O  O11  1  0.50000000  0.20401200  0.40276600  1
  O  O12  1  0.50000000  0.40847400  0.19673200  1
  O  O13  1  0.50000000  0.49451400  0.49775000  1
  O  O14  1  0.00000000  0.98779700  0.14713900  1
  O  O15  1  0.00000000  0.14553800  0.98944300  1
  O  O16  1  0.00000000  0.33942900  0.49434300  1
  O  O17  1  0.00000000  0.49613400  0.34046700  1
  O  O18  1  0.00000000  0.84796900  0.42359100  1
  O  O19  1  0.00000000  0.42019300  0.84248100  1
  O  O20  1  0.00000000  0.07073400  0.34084100  1
  O  O21  1  0.00000000  0.35122200  0.05776300  1
  O  O22  1  0.00000000  0.28062200  0.27680000  1
  O  O23  1  0.00000000  0.77498600  0.21195700  1
  O  O24  1  0.00000000  0.21440200  0.76914200  1
  O  O25  1  0.50000000  0.91228300  0.29124700  1
  O  O26  1  0.50000000  0.28842200  0.90661100  1
  O  O27  1  0.00000000  0.98357800  0.83716200  1
  O  O28  1  0.00000000  0.83381700  0.99070600  1
  O  O29  1  0.50000000  0.98139600  0.98165400  1
loop_
_geom_bond_atom_site_label_1
_geom_bond_atom_site_label_2
_geom_bond_distance
_geom_bond_site_symmetry_2
Nb0 O20 1.844003 1_565
Nb0 O18 1.990601 1_555
Nb0 O25 2.002645 1_555
Nb0 O25 2.002645 1_455
Nb0 O14 2.036043 1_555
Nb0 O23 2.423288 1_555
Nb1 O21 1.848050 1_556
Nb1 O19 1.998748 1_555
Nb1 O26 2.001311 1_455
Nb1 O26 2.001311 1_555
Nb1 O15 2.016078 1_555
Nb1 O24 2.384777 1_555
Nb2 O16 1.839456 1_555
Nb2 O7 1.871285 1_555
Nb2 O11 2.034685 1_455
Nb2 O11 2.034685 1_555
Nb2 O20 2.275066 1_555
Nb2 O22 2.280739 1_555
Nb3 O17 1.819771 1_555
Nb3 O8 1.981709 1_555
Nb3 O12 2.019366 1_455
Nb3 O12 2.019366 1_555
Nb3 O22 2.063558 1_555
Nb3 O21 2.393171 1_555
Nb4 O24 1.862448 1_555
Nb4 O0 1.990390 1_455
Nb4 O0 1.990390 1_555
Nb4 O7 2.014957 1_555
Nb4 O27 2.068301 1_545
Nb4 O5 2.325435 1_545
Nb5 O23 1.835075 1_555
Nb5 O28 1.905886 1_554
Nb5 O1 2.021458 1_455
Nb5 O1 2.021458 1_555
Nb5 O8 2.176413 1_555
Nb5 O6 2.496361 1_554
Nb6 O10 1.916939 1_555
Nb6 O9 1.920701 1_555
Nb6 O13 1.979444 1_555
Nb6 O13 1.979444 1_455
Nb6 O16 2.136844 1_555
Nb6 O17 2.159799 1_555
Nb7 O5 1.798562 1_555
Nb7 O3 2.011255 1_555
Nb7 O3 2.011255 1_455
Nb7 O2 2.046763 1_555
Nb7 O18 2.056433 1_555
Nb7 O9 2.362868 1_555
Nb8 O6 1.878669 1_555
Nb8 O2 1.913073 1_555
Nb8 O4 2.006031 1_455
Nb8 O4 2.006031 1_555
Nb8 O10 2.158919 1_555
Nb8 O19 2.251996 1_555
Nb9 O14 1.880661 1_545
Nb9 O15 1.883620 1_554
Nb9 O29 2.010967 1_444
Nb9 O29 2.010967 1_544
Nb9 O28 2.180346 1_544
Nb9 O27 2.192689 1_544
O1 Pb4 2.454062 1_555
O3 Pb0 2.492075 1_555
O4 Pb1 2.601360 1_555
O6 Pb4 2.679318 1_556
O6 Pb4 2.679318 1_456
O8 Pb4 2.572660 1_455
O8 Pb4 2.572660 1_555
O9 Pb0 2.541303 1_555
O9 Pb0 2.541303 1_455
O10 Pb1 2.684644 1_555
O10 Pb1 2.684644 1_455
O11 Pb3 2.400261 1_555
O12 Pb3 2.756266 1_555
O12 Pb4 2.772015 1_555
O18 Pb0 2.677285 1_555
O18 Pb0 2.677285 1_455
O19 Pb1 2.613225 1_455
O19 Pb1 2.613225 1_555
O22 Pb3 2.388996 1_455
O22 Pb3 2.388996 1_555
O24 Pb1 2.868635 1_455
O24 Pb1 2.868635 1_555
O25 Pb0 2.741783 1_555
O26 Pb1 2.580005 1_555
O27 Pb2 2.436487 1_455
O27 Pb2 2.436487 1_555
O29 Pb2 2.395491 1_555
