# generated using pymatgen
data_Nd25(B7C13)2
_symmetry_space_group_name_H-M   'P 1'
_cell_length_a   8.47221843
_cell_length_b   8.50433085
_cell_length_c   29.52606351
_cell_angle_alpha   90.07101714
_cell_angle_beta   90.00000000
_cell_angle_gamma   90.00000000
_symmetry_Int_Tables_number   1
_chemical_formula_structural   Nd25(B7C13)2
_chemical_formula_sum   'Nd50 B28 C52'
_cell_volume   2127.36743761
_cell_formula_units_Z   2
loop_
 _symmetry_equiv_pos_site_id
 _symmetry_equiv_pos_as_xyz
  1  'x, y, z'
loop_
 _atom_site_type_symbol
 _atom_site_label
 _atom_site_symmetry_multiplicity
 _atom_site_fract_x
 _atom_site_fract_y
 _atom_site_fract_z
 _atom_site_occupancy
  Nd  Nd0  1  0.70728204  0.11103405  0.47850944  1
  Nd  Nd1  1  0.20728204  0.38896595  0.02149056  1
  Nd  Nd2  1  0.29271796  0.88896595  0.52149056  1
  Nd  Nd3  1  0.79271796  0.61103405  0.97850944  1
  Nd  Nd4  1  0.69550799  0.09947162  0.30662985  1
  Nd  Nd5  1  0.19550799  0.40052838  0.19337015  1
  Nd  Nd6  1  0.30449201  0.90052838  0.69337015  1
  Nd  Nd7  1  0.80449201  0.59947162  0.80662985  1
  Nd  Nd8  1  0.90775775  0.50022783  0.28982305  1
  Nd  Nd9  1  0.40775775  0.99977217  0.21017695  1
  Nd  Nd10  1  0.09224225  0.49977217  0.71017695  1
  Nd  Nd11  1  0.59224225  0.00022783  0.78982305  1
  Nd  Nd12  1  0.99790050  0.19881247  0.38595541  1
  Nd  Nd13  1  0.49790050  0.30118753  0.11404459  1
  Nd  Nd14  1  0.00209950  0.80118753  0.61404459  1
  Nd  Nd15  1  0.50209950  0.69881247  0.88595541  1
  Nd  Nd16  1  0.80835610  0.20897665  0.19669127  1
  Nd  Nd17  1  0.30835610  0.29102335  0.30330873  1
  Nd  Nd18  1  0.19164390  0.79102335  0.80330873  1
  Nd  Nd19  1  0.69164390  0.70897665  0.69669127  1
  Nd  Nd20  1  0.80139234  0.80621777  0.38536094  1
  Nd  Nd21  1  0.30139234  0.69378223  0.11463906  1
  Nd  Nd22  1  0.19860766  0.19378223  0.61463906  1
  Nd  Nd23  1  0.69860766  0.30621777  0.88536094  1
  Nd  Nd24  1  0.50000000  0.50000000  0.50000000  1
  Nd  Nd25  1  0.00000000  0.00000000  -0.00000000  1
  Nd  Nd26  1  0.90152204  0.69362799  0.49769647  1
  Nd  Nd27  1  0.40152204  0.80637201  0.00230353  1
  Nd  Nd28  1  0.09847796  0.30637201  0.50230353  1
  Nd  Nd29  1  0.59847796  0.19362799  0.99769647  1
  Nd  Nd30  1  0.50298008  0.70924603  0.30107217  1
  Nd  Nd31  1  0.00298008  0.79075397  0.19892783  1
  Nd  Nd32  1  0.49701992  0.29075397  0.69892783  1
  Nd  Nd33  1  0.99701992  0.20924603  0.80107217  1
  Nd  Nd34  1  0.41097989  0.00213140  0.39262552  1
  Nd  Nd35  1  0.91097989  0.49786860  0.10737448  1
  Nd  Nd36  1  0.58902011  0.99786860  0.60737448  1
  Nd  Nd37  1  0.08902011  0.50213140  0.89262552  1
  Nd  Nd38  1  0.61089151  0.40228754  0.38591783  1
  Nd  Nd39  1  0.11089151  0.09771246  0.11408217  1
  Nd  Nd40  1  0.38910849  0.59771246  0.61408217  1
  Nd  Nd41  1  0.88910849  0.90228754  0.88591783  1
  Nd  Nd42  1  0.61889448  0.59736571  0.19478571  1
  Nd  Nd43  1  0.11889448  0.90263429  0.30521429  1
  Nd  Nd44  1  0.38110552  0.40263429  0.80521429  1
  Nd  Nd45  1  0.88110552  0.09736571  0.69478571  1
  Nd  Nd46  1  0.70894224  0.90386923  0.11200451  1
  Nd  Nd47  1  0.20894224  0.59613077  0.38799549  1
  Nd  Nd48  1  0.29105776  0.09613077  0.88799549  1
  Nd  Nd49  1  0.79105776  0.40386923  0.61200451  1
  B  B0  1  0.52090117  0.71323377  0.42960663  1
  B  B1  1  0.02090117  0.78676623  0.07039337  1
  B  B2  1  0.47909883  0.28676623  0.57039337  1
  B  B3  1  0.97909883  0.21323377  0.92960663  1
  B  B4  1  0.33823622  0.28859775  0.43347865  1
  B  B5  1  0.83823622  0.21140225  0.06652135  1
  B  B6  1  0.66176378  0.71140225  0.56652135  1
  B  B7  1  0.16176378  0.78859775  0.93347865  1
  B  B8  1  0.88370214  0.46607964  0.42903951  1
  B  B9  1  0.38370214  0.03392036  0.07096049  1
  B  B10  1  0.11629786  0.53392036  0.57096049  1
  B  B11  1  0.61629786  0.96607964  0.92903951  1
  B  B12  1  0.07513129  0.92188005  0.43576702  1
  B  B13  1  0.57513129  0.57811995  0.06423298  1
  B  B14  1  0.92486871  0.07811995  0.56423298  1
  B  B15  1  0.42486871  0.42188005  0.93576702  1
  B  B16  1  0.05994011  0.15577394  0.25122997  1
  B  B17  1  0.55994011  0.34422606  0.24877003  1
  B  B18  1  0.94005989  0.84422606  0.74877003  1
  B  B19  1  0.44005989  0.65577394  0.75122997  1
  B  B20  1  0.24809000  0.65012034  0.25071305  1
  B  B21  1  0.74809000  0.84987966  0.24928695  1
  B  B22  1  0.75191000  0.34987966  0.74928695  1
  B  B23  1  0.25191000  0.15012034  0.75071305  1
  B  B24  1  0.58240829  0.79612502  0.47471615  1
  B  B25  1  0.08240829  0.70387498  0.02528385  1
  B  B26  1  0.41759171  0.20387498  0.52528385  1
  B  B27  1  0.91759171  0.29612502  0.97471615  1
  C  C0  1  0.50518727  0.70115539  0.38087885  1
  C  C1  1  0.00518727  0.79884461  0.11912115  1
  C  C2  1  0.49481273  0.29884461  0.61912115  1
  C  C3  1  0.99481273  0.20115539  0.88087885  1
  C  C4  1  0.60955029  0.78506181  0.52396858  1
  C  C5  1  0.10955029  0.71493819  0.97603142  1
  C  C6  1  0.39044971  0.21493819  0.47603142  1
  C  C7  1  0.89044971  0.28506181  0.02396858  1
  C  C8  1  0.20655814  0.60162728  0.29689617  1
  C  C9  1  0.70655814  0.89837272  0.20310383  1
  C  C10  1  0.79344186  0.39837272  0.70310383  1
  C  C11  1  0.29344186  0.10162728  0.79689617  1
  C  C12  1  0.82152474  0.39839668  0.47155801  1
  C  C13  1  0.32152474  0.10160332  0.02844199  1
  C  C14  1  0.17847526  0.60160332  0.52844199  1
  C  C15  1  0.67847526  0.89839668  0.97155801  1
  C  C16  1  0.91426386  0.50840642  0.38212796  1
  C  C17  1  0.41426386  0.99159358  0.11787204  1
  C  C18  1  0.08573614  0.49159358  0.61787204  1
  C  C19  1  0.58573614  0.00840642  0.88212796  1
  C  C20  1  0.10726791  0.89712243  0.38805012  1
  C  C21  1  0.60726791  0.60287757  0.11194988  1
  C  C22  1  0.89273209  0.10287757  0.61194988  1
  C  C23  1  0.39273209  0.39712243  0.88805012  1
  C  C24  1  0.70831113  0.10310009  0.38936085  1
  C  C25  1  0.20831113  0.39689991  0.11063915  1
  C  C26  1  0.29168887  0.89689991  0.61063915  1
  C  C27  1  0.79168887  0.60310009  0.88936085  1
  C  C28  1  0.90396877  0.50002324  0.19748363  1
  C  C29  1  0.40396877  0.99997676  0.30251637  1
  C  C30  1  0.09603123  0.49997676  0.80251637  1
  C  C31  1  0.59603123  0.00002324  0.69748363  1
  C  C32  1  0.80417200  0.80255674  0.29439487  1
  C  C33  1  0.30417200  0.69744326  0.20560513  1
  C  C34  1  0.19582800  0.19744326  0.70560513  1
  C  C35  1  0.69582800  0.30255674  0.79439487  1
  C  C36  1  0.00633571  0.19780297  0.29700606  1
  C  C37  1  0.50633571  0.30219703  0.20299394  1
  C  C38  1  0.99366429  0.80219703  0.70299394  1
  C  C39  1  0.49366429  0.69780297  0.79700606  1
  C  C40  1  0.01166724  0.99221840  0.47694842  1
  C  C41  1  0.51166724  0.50778160  0.02305158  1
  C  C42  1  0.98833276  0.00778160  0.52305158  1
  C  C43  1  0.48833276  0.49221840  0.97694842  1
  C  C44  1  0.10671859  0.10230358  0.20598661  1
  C  C45  1  0.60671859  0.39769642  0.29401339  1
  C  C46  1  0.89328141  0.89769642  0.79401339  1
  C  C47  1  0.39328141  0.60230358  0.70598661  1
  C  C48  1  0.30657830  0.29965276  0.38487610  1
  C  C49  1  0.80657830  0.20034724  0.11512390  1
  C  C50  1  0.69342170  0.70034724  0.61512390  1
  C  C51  1  0.19342170  0.79965276  0.88487610  1
loop_
_geom_bond_atom_site_label_1
_geom_bond_atom_site_label_2
_geom_bond_distance
_geom_bond_site_symmetry_2
B0 C0 1.448406 1_555
B0 Nd24 2.765695 1_555
B0 Nd38 3.038028 1_555
B1 C1 1.448406 1_555
B1 Nd25 2.765695 1_565
B1 Nd39 3.038028 1_565
B2 C2 1.448406 1_555
B2 Nd24 2.765695 1_555
B2 Nd40 3.038028 1_555
B3 C3 1.448406 1_555
B3 Nd25 2.765695 1_656
B3 Nd41 3.038028 1_545
B4 C48 1.463030 1_555
B4 C6 1.472626 1_555
B4 Nd38 2.871631 1_555
B4 Nd28 2.877107 1_555
B4 Nd24 2.993236 1_555
B5 C49 1.463030 1_555
B5 C7 1.472626 1_555
B5 Nd39 2.871631 1_655
B5 Nd29 2.877107 1_554
B5 Nd25 2.993236 1_655
B6 C50 1.463030 1_555
B6 C4 1.472626 1_555
B6 Nd40 2.871631 1_555
B6 Nd26 2.877107 1_555
B6 Nd24 2.993236 1_555
B7 C51 1.463030 1_555
B7 C5 1.472626 1_555
B7 Nd41 2.871631 1_455
B7 Nd27 2.877107 1_556
B7 Nd25 2.993236 1_566
B8 C16 1.454782 1_555
B8 C12 1.478730 1_555
B8 Nd38 2.693666 1_555
B8 Nd26 2.804867 1_555
B8 Nd28 3.137273 1_655
B9 C17 1.454782 1_545
B9 C13 1.478730 1_555
B9 Nd39 2.693666 1_555
B9 Nd27 2.804867 1_545
B9 Nd29 3.137273 1_554
B10 C18 1.454782 1_555
B10 C14 1.478730 1_555
B10 Nd40 2.693666 1_555
B10 Nd28 2.804867 1_555
B10 Nd26 3.137273 1_455
B11 C19 1.454782 1_565
B11 C15 1.478730 1_555
B11 Nd41 2.693666 1_555
B11 Nd29 2.804867 1_565
B11 Nd27 3.137273 1_556
B12 C20 1.450070 1_555
B12 C40 1.457255 1_555
B12 Nd26 3.046923 1_455
B12 Nd2 3.144001 1_555
B13 C21 1.450070 1_555
B13 C41 1.457255 1_555
B13 Nd27 3.046923 1_555
B13 Nd3 3.144001 1_554
B14 C22 1.450070 1_555
B14 C42 1.457255 1_555
B14 Nd28 3.046923 1_655
B14 Nd0 3.144001 1_555
B15 C23 1.450070 1_555
B15 C43 1.457255 1_555
B15 Nd29 3.046923 1_555
B15 Nd1 3.144001 1_556
B16 C44 1.465216 1_555
B16 C36 1.469557 1_555
B16 Nd16 2.709763 1_455
B16 Nd43 2.726374 1_545
B16 Nd17 2.848252 1_555
B16 Nd5 2.929005 1_555
B17 C45 1.465216 1_555
B17 C37 1.469557 1_555
B17 Nd17 2.709763 1_555
B17 Nd42 2.726374 1_555
B17 Nd16 2.848252 1_555
B17 Nd4 2.929005 1_555
B18 C46 1.465216 1_555
B18 C38 1.469557 1_555
B18 Nd18 2.709763 1_655
B18 Nd45 2.726374 1_565
B18 Nd19 2.848252 1_555
B18 Nd7 2.929005 1_555
B19 C47 1.465216 1_555
B19 C39 1.469557 1_555
B19 Nd19 2.709763 1_555
B19 Nd44 2.726374 1_555
B19 Nd18 2.848252 1_555
B19 Nd6 2.929005 1_555
B20 C8 1.467890 1_555
B20 C33 1.470680 1_555
B20 Nd30 2.669315 1_555
B20 Nd5 2.749846 1_555
B20 Nd31 2.843447 1_555
B20 Nd43 2.896664 1_555
B21 C9 1.467890 1_555
B21 C32 1.470680 1_555
B21 Nd31 2.669315 1_655
B21 Nd4 2.749846 1_565
B21 Nd30 2.843447 1_555
B21 Nd42 2.896664 1_555
B22 C10 1.467890 1_555
B22 C35 1.470680 1_555
B22 Nd32 2.669315 1_555
B22 Nd7 2.749846 1_555
B22 Nd33 2.843447 1_555
B22 Nd45 2.896664 1_555
B23 C11 1.467890 1_555
B23 C34 1.470680 1_555
B23 Nd33 2.669315 1_455
B23 Nd6 2.749846 1_545
B23 Nd32 2.843447 1_555
B23 Nd44 2.896664 1_555
B24 C4 1.475417 1_555
B24 Nd24 2.718730 1_555
B24 Nd0 2.881535 1_565
B24 Nd26 2.920808 1_555
B24 Nd2 2.924331 1_555
B25 C5 1.475417 1_554
B25 Nd25 2.718730 1_565
B25 Nd1 2.881535 1_555
B25 Nd27 2.920808 1_555
B25 Nd3 2.924331 1_454
B26 C6 1.475417 1_555
B26 Nd24 2.718730 1_555
B26 Nd2 2.881535 1_545
B26 Nd28 2.920808 1_555
B26 Nd0 2.924331 1_555
B27 C7 1.475417 1_556
B27 Nd25 2.718730 1_656
B27 Nd3 2.881535 1_555
B27 Nd29 2.920808 1_555
B27 Nd1 2.924331 1_656
C0 Nd30 2.357541 1_555
C0 Nd20 2.667058 1_555
C0 Nd47 2.672400 1_555
C0 Nd38 2.699106 1_555
C0 Nd34 2.703087 1_565
C1 Nd31 2.357541 1_555
C1 Nd21 2.667058 1_555
C1 Nd46 2.672400 1_455
C1 Nd39 2.699106 1_565
C1 Nd35 2.703087 1_455
C2 Nd32 2.357541 1_555
C2 Nd22 2.667058 1_555
C2 Nd49 2.672400 1_555
C2 Nd40 2.699106 1_555
C2 Nd36 2.703087 1_545
C3 Nd33 2.357541 1_555
C3 Nd23 2.667058 1_555
C3 Nd48 2.672400 1_655
C3 Nd41 2.699106 1_545
C3 Nd37 2.703087 1_655
C4 Nd24 2.689805 1_555
C4 Nd26 2.706253 1_555
C4 Nd2 2.826950 1_555
C4 Nd0 3.190823 1_565
C5 Nd25 2.689805 1_566
C5 Nd27 2.706253 1_556
C5 Nd3 2.826950 1_455
C5 Nd1 3.190823 1_556
C6 Nd24 2.689805 1_555
C6 Nd28 2.706253 1_555
C6 Nd0 2.826950 1_555
C6 Nd2 3.190823 1_545
C7 Nd25 2.689805 1_655
C7 Nd29 2.706253 1_554
C7 Nd1 2.826950 1_655
C7 Nd3 3.190823 1_554
C8 Nd30 2.675714 1_555
C8 Nd43 2.676429 1_555
C8 Nd8 2.682404 1_455
C8 Nd47 2.690344 1_555
C8 Nd17 2.785377 1_555
C9 Nd31 2.675714 1_655
C9 Nd42 2.676429 1_555
C9 Nd9 2.682404 1_555
C9 Nd46 2.690344 1_555
C9 Nd16 2.785377 1_565
C10 Nd32 2.675714 1_555
C10 Nd45 2.676429 1_555
C10 Nd10 2.682404 1_655
C10 Nd49 2.690344 1_555
C10 Nd19 2.785377 1_555
C11 Nd33 2.675714 1_455
C11 Nd44 2.676429 1_555
C11 Nd11 2.682404 1_555
C11 Nd48 2.690344 1_555
C11 Nd18 2.785377 1_545
C12 Nd28 2.635139 1_655
C12 Nd0 2.636754 1_555
C12 Nd26 2.711828 1_555
C12 Nd24 2.978317 1_555
C12 Nd38 3.095118 1_555
C13 Nd29 2.635139 1_554
C13 Nd1 2.636754 1_555
C13 Nd27 2.711828 1_545
C13 Nd25 2.978317 1_555
C13 Nd39 3.095118 1_555
C14 Nd26 2.635139 1_455
C14 Nd2 2.636754 1_555
C14 Nd28 2.711828 1_555
C14 Nd24 2.978317 1_555
C14 Nd40 3.095118 1_555
C15 Nd27 2.635139 1_556
C15 Nd3 2.636754 1_555
C15 Nd29 2.711828 1_565
C15 Nd25 2.978317 1_666
C15 Nd41 3.095118 1_555
C16 Nd47 2.611355 1_655
C16 Nd20 2.708776 1_555
C16 Nd38 2.726415 1_555
C16 Nd8 2.726759 1_555
C16 Nd12 2.729050 1_555
C17 Nd46 2.611355 1_555
C17 Nd21 2.708776 1_555
C17 Nd39 2.726415 1_565
C17 Nd9 2.726759 1_555
C17 Nd13 2.729050 1_565
C18 Nd49 2.611355 1_455
C18 Nd22 2.708776 1_555
C18 Nd40 2.726415 1_555
C18 Nd10 2.726759 1_555
C18 Nd14 2.729050 1_555
C19 Nd48 2.611355 1_555
C19 Nd23 2.708776 1_555
C19 Nd41 2.726415 1_545
C19 Nd11 2.726759 1_555
C19 Nd15 2.729050 1_545
C20 Nd43 2.448306 1_555
C20 Nd47 2.700786 1_555
C20 Nd20 2.705438 1_455
C20 Nd34 2.726971 1_565
C20 Nd12 2.728635 1_465
C21 Nd42 2.448306 1_555
C21 Nd46 2.700786 1_555
C21 Nd21 2.705438 1_555
C21 Nd35 2.726971 1_555
C21 Nd13 2.728635 1_555
C22 Nd45 2.448306 1_555
C22 Nd49 2.700786 1_555
C22 Nd22 2.705438 1_655
C22 Nd36 2.726971 1_545
C22 Nd14 2.728635 1_645
C23 Nd44 2.448306 1_555
C23 Nd48 2.700786 1_555
C23 Nd23 2.705438 1_555
C23 Nd37 2.726971 1_555
C23 Nd15 2.728635 1_555
C24 Nd4 2.445284 1_555
C24 Nd12 2.586957 1_555
C24 Nd0 2.633002 1_555
C24 Nd20 2.647574 1_545
C24 Nd34 2.663166 1_555
C24 Nd38 2.676959 1_555
C25 Nd5 2.445284 1_555
C25 Nd13 2.586957 1_555
C25 Nd1 2.633002 1_555
C25 Nd21 2.647574 1_555
C25 Nd35 2.663166 1_455
C25 Nd39 2.676959 1_555
C26 Nd6 2.445284 1_555
C26 Nd14 2.586957 1_555
C26 Nd2 2.633002 1_555
C26 Nd22 2.647574 1_565
C26 Nd36 2.663166 1_555
C26 Nd40 2.676959 1_555
C27 Nd7 2.445284 1_555
C27 Nd15 2.586957 1_555
C27 Nd3 2.633002 1_555
C27 Nd23 2.647574 1_555
C27 Nd37 2.663166 1_655
C27 Nd41 2.676959 1_555
C28 Nd42 2.554420 1_555
C28 Nd16 2.604417 1_555
C28 Nd31 2.611193 1_655
C28 Nd5 2.613669 1_655
C28 Nd35 2.661272 1_555
C28 Nd8 2.726607 1_555
C29 Nd43 2.554420 1_555
C29 Nd17 2.604417 1_565
C29 Nd30 2.611193 1_555
C29 Nd4 2.613669 1_565
C29 Nd34 2.661272 1_565
C29 Nd9 2.726607 1_555
C30 Nd44 2.554420 1_555
C30 Nd18 2.604417 1_555
C30 Nd33 2.611193 1_455
C30 Nd7 2.613669 1_455
C30 Nd37 2.661272 1_555
C30 Nd10 2.726607 1_555
C31 Nd45 2.554420 1_555
C31 Nd19 2.604417 1_545
C31 Nd32 2.611193 1_555
C31 Nd6 2.613669 1_545
C31 Nd36 2.661272 1_545
C31 Nd11 2.726607 1_555
C32 Nd30 2.679640 1_555
C32 Nd20 2.686115 1_555
C32 Nd4 2.711408 1_565
C32 Nd8 2.719950 1_555
C32 Nd43 2.816986 1_655
C33 Nd31 2.679640 1_555
C33 Nd21 2.686115 1_555
C33 Nd5 2.711408 1_555
C33 Nd9 2.719950 1_555
C33 Nd42 2.816986 1_555
C34 Nd32 2.679640 1_555
C34 Nd22 2.686115 1_555
C34 Nd6 2.711408 1_545
C34 Nd10 2.719950 1_555
C34 Nd45 2.816986 1_455
C35 Nd33 2.679640 1_555
C35 Nd23 2.686115 1_555
C35 Nd7 2.711408 1_555
C35 Nd11 2.719950 1_555
C35 Nd44 2.816986 1_555
C36 Nd12 2.627300 1_455
C36 Nd17 2.685168 1_555
C36 Nd43 2.696443 1_545
C36 Nd8 2.712679 1_455
C36 Nd4 2.777666 1_455
C37 Nd13 2.627300 1_555
C37 Nd16 2.685168 1_555
C37 Nd42 2.696443 1_555
C37 Nd9 2.712679 1_545
C37 Nd5 2.777666 1_555
C38 Nd14 2.627300 1_655
C38 Nd19 2.685168 1_555
C38 Nd45 2.696443 1_565
C38 Nd10 2.712679 1_655
C38 Nd6 2.777666 1_655
C39 Nd15 2.627300 1_555
C39 Nd18 2.685168 1_555
C39 Nd44 2.696443 1_555
C39 Nd11 2.712679 1_565
C39 Nd7 2.777666 1_555
C40 Nd0 2.770075 1_465
C40 Nd26 2.774538 1_455
C40 Nd2 2.858896 1_555
C40 Nd28 2.869535 1_565
C41 Nd1 2.770075 1_555
C41 Nd27 2.774538 1_555
C41 Nd3 2.858896 1_554
C41 Nd29 2.869535 1_554
C42 Nd2 2.770075 1_645
C42 Nd28 2.774538 1_655
C42 Nd0 2.858896 1_555
C42 Nd26 2.869535 1_545
C43 Nd3 2.770075 1_555
C43 Nd29 2.774538 1_555
C43 Nd1 2.858896 1_556
C43 Nd27 2.869535 1_556
C44 Nd5 2.671947 1_555
C44 Nd9 2.698293 1_545
C44 Nd16 2.699751 1_455
C44 Nd39 2.714039 1_555
C44 Nd31 2.799015 1_545
C45 Nd4 2.671947 1_555
C45 Nd8 2.698293 1_555
C45 Nd17 2.699751 1_555
C45 Nd38 2.714039 1_555
C45 Nd30 2.799015 1_555
C46 Nd7 2.671947 1_555
C46 Nd11 2.698293 1_565
C46 Nd18 2.699751 1_655
C46 Nd41 2.714039 1_555
C46 Nd33 2.799015 1_565
C47 Nd6 2.671947 1_555
C47 Nd10 2.698293 1_555
C47 Nd19 2.699751 1_555
C47 Nd40 2.714039 1_555
C47 Nd32 2.799015 1_555
C48 Nd17 2.409437 1_555
C48 Nd47 2.655061 1_555
C48 Nd34 2.690384 1_555
C48 Nd38 2.722111 1_555
C48 Nd12 2.752403 1_455
C49 Nd16 2.409437 1_555
C49 Nd46 2.655061 1_545
C49 Nd35 2.690384 1_555
C49 Nd39 2.722111 1_655
C49 Nd13 2.752403 1_555
C50 Nd19 2.409437 1_555
C50 Nd49 2.655061 1_555
C50 Nd36 2.690384 1_555
C50 Nd40 2.722111 1_555
C50 Nd14 2.752403 1_655
C51 Nd18 2.409437 1_555
C51 Nd48 2.655061 1_565
C51 Nd37 2.690384 1_555
C51 Nd41 2.722111 1_455
C51 Nd15 2.752403 1_555
