# generated using pymatgen
data_KCd4As3
_symmetry_space_group_name_H-M   'P 1'
_cell_length_a   12.36659642
_cell_length_b   12.36659642
_cell_length_c   12.36659659
_cell_angle_alpha   20.96255225
_cell_angle_beta   20.96255225
_cell_angle_gamma   20.96254811
_symmetry_Int_Tables_number   1
_chemical_formula_structural   KCd4As3
_chemical_formula_sum   'K1 Cd4 As3'
_cell_volume   211.97037168
_cell_formula_units_Z   1
loop_
 _symmetry_equiv_pos_site_id
 _symmetry_equiv_pos_as_xyz
  1  'x, y, z'
loop_
 _atom_site_type_symbol
 _atom_site_label
 _atom_site_symmetry_multiplicity
 _atom_site_fract_x
 _atom_site_fract_y
 _atom_site_fract_z
 _atom_site_occupancy
  K  K0  1  0.50000000  0.50000000  0.50000000  1
  Cd  Cd0  1  0.91090845  0.91090845  0.91090845  1
  Cd  Cd1  1  0.08909155  0.08909155  0.08909155  1
  Cd  Cd2  1  0.69854569  0.69854569  0.69854569  1
  Cd  Cd3  1  0.30145431  0.30145431  0.30145431  1
  As  As0  1  0.77196162  0.77196162  0.77196162  1
  As  As1  1  0.22803838  0.22803838  0.22803838  1
  As  As2  1  0.00000000  0.00000000  -0.00000000  1
loop_
_geom_bond_atom_site_label_1
_geom_bond_atom_site_label_2
_geom_bond_distance
_geom_bond_site_symmetry_2
As0 Cd2 2.662947 1_555
As0 Cd1 2.663340 1_656
As0 Cd1 2.663340 1_566
As0 Cd1 2.663341 1_665
As0 K0 3.421021 1_655
As0 K0 3.421021 1_565
As0 K0 3.421021 1_556
As1 Cd3 2.662947 1_555
As1 Cd0 2.663340 1_454
As1 Cd0 2.663340 1_544
As1 Cd0 2.663341 1_445
As1 K0 3.421021 1_545
As1 K0 3.421021 1_455
As1 K0 3.421021 1_554
As2 Cd2 2.843418 1_544
As2 Cd3 2.843418 1_545
As2 Cd3 2.843418 1_455
As2 Cd2 2.843418 1_454
As2 Cd2 2.843419 1_445
As2 Cd3 2.843419 1_554
As2 Cd1 3.231535 1_555
As2 Cd0 3.231535 1_444
