# generated using pymatgen
data_Li7Mn4CoO12
_symmetry_space_group_name_H-M   'P 1'
_cell_length_a   5.03446961
_cell_length_b   5.03446961
_cell_length_c   9.75696204
_cell_angle_alpha   86.20688812
_cell_angle_beta   86.20688812
_cell_angle_gamma   117.48706550
_symmetry_Int_Tables_number   1
_chemical_formula_structural   Li7Mn4CoO12
_chemical_formula_sum   'Li7 Mn4 Co1 O12'
_cell_volume   217.59214520
_cell_formula_units_Z   1
loop_
 _symmetry_equiv_pos_site_id
 _symmetry_equiv_pos_as_xyz
  1  'x, y, z'
loop_
 _atom_site_type_symbol
 _atom_site_label
 _atom_site_symmetry_multiplicity
 _atom_site_fract_x
 _atom_site_fract_y
 _atom_site_fract_z
 _atom_site_occupancy
  Li  Li0  1  0.92167700  0.58155100  0.24192400  1
  Li  Li1  1  0.41844900  0.07832300  0.75807600  1
  Li  Li2  1  0.57917200  0.92093200  0.24581900  1
  Li  Li3  1  0.07906800  0.42082800  0.75418100  1
  Li  Li4  1  0.25478500  0.25300600  0.24633300  1
  Li  Li5  1  0.74699400  0.74521500  0.75366700  1
  Li  Li6  1  0.66774200  0.33225800  0.00000000  1
  Mn  Mn0  1  0.99850500  0.00149500  0.00000000  1
  Mn  Mn1  1  0.50008300  0.49991700  0.50000000  1
  Mn  Mn2  1  0.16666800  0.83333200  0.50000000  1
  Mn  Mn3  1  0.83344500  0.16655500  0.50000000  1
  Co  Co0  1  0.33600100  0.66399900  0.00000000  1
  O  O0  1  0.27337500  0.93657900  0.11117400  1
  O  O1  1  0.76883900  0.43543600  0.62043000  1
  O  O2  1  0.99883000  0.30928200  0.10922800  1
  O  O3  1  0.43745800  0.77022600  0.61778100  1
  O  O4  1  0.63618800  0.66555200  0.10754100  1
  O  O5  1  0.10371500  0.10391900  0.61811900  1
  O  O6  1  0.56456400  0.23116100  0.37957000  1
  O  O7  1  0.06342100  0.72662500  0.88882600  1
  O  O8  1  0.22977400  0.56254200  0.38221900  1
  O  O9  1  0.69071800  0.00117000  0.89077200  1
  O  O10  1  0.89608100  0.89628500  0.38188100  1
  O  O11  1  0.33444800  0.36381200  0.89245900  1
loop_
_geom_bond_atom_site_label_1
_geom_bond_atom_site_label_2
_geom_bond_distance
_geom_bond_site_symmetry_2
Li0 O2 2.089449 1_555
Li0 O0 2.106024 1_655
Li0 O6 2.141797 1_555
Li0 O8 2.165516 1_655
Li0 O4 2.168147 1_555
Li0 O10 2.200801 1_555
Li1 O9 2.089449 1_555
Li1 O7 2.106024 1_545
Li1 O1 2.141797 1_555
Li1 O3 2.165516 1_545
Li1 O11 2.168147 1_555
Li1 O5 2.200801 1_555
Li2 O4 2.018573 1_555
Li2 O0 2.113782 1_555
Li2 O6 2.123861 1_565
Li2 O8 2.136277 1_555
Li2 O10 2.182774 1_555
Li2 O2 2.352036 1_565
Li3 O11 2.018573 1_555
Li3 O7 2.113782 1_555
Li3 O1 2.123861 1_455
Li3 O3 2.136277 1_555
Li3 O5 2.182774 1_555
Li3 O9 2.352036 1_455
Li4 O2 2.011270 1_455
Li4 O6 2.131194 1_555
Li4 O10 2.147454 1_445
Li4 O8 2.152801 1_555
Li4 O0 2.164457 1_545
Li4 O4 2.331743 1_555
Li5 O9 2.011270 1_565
Li5 O1 2.131194 1_555
Li5 O5 2.147454 1_665
Li5 O3 2.152801 1_555
Li5 O7 2.164457 1_655
Li5 O11 2.331743 1_555
Li6 O2 2.079488 1_555
Li6 O9 2.079488 1_554
Li6 O4 2.097309 1_555
Li6 O11 2.097309 1_554
Li6 O7 2.205680 1_654
Li6 O0 2.205680 1_545
Mn0 O2 1.937334 1_555
Mn0 O9 1.937334 1_554
Mn0 O7 1.941024 1_644
Mn0 O0 1.941024 1_645
Mn0 O11 1.988183 1_654
Mn0 O4 1.988183 1_545
Mn1 O3 1.956276 1_555
Mn1 O8 1.956276 1_555
Mn1 O1 1.970317 1_555
Mn1 O6 1.970317 1_555
Mn1 O5 2.237008 1_555
Mn1 O10 2.237008 1_555
Mn2 O3 1.959310 1_555
Mn2 O8 1.959310 1_555
Mn2 O5 1.960194 1_565
Mn2 O10 1.960194 1_455
Mn2 O6 2.253565 1_565
Mn2 O1 2.253565 1_455
Mn3 O5 1.958197 1_655
Mn3 O10 1.958197 1_545
Mn3 O6 1.971100 1_555
Mn3 O1 1.971100 1_555
Mn3 O8 2.235587 1_655
Mn3 O3 2.235587 1_545
Co0 O4 1.893408 1_555
Co0 O11 1.893408 1_554
Co0 O0 1.926218 1_555
Co0 O7 1.926218 1_554
Co0 O2 1.979123 1_455
Co0 O9 1.979123 1_564
