# generated using pymatgen
data_NaMg14Mo
_symmetry_space_group_name_H-M   'P 1'
_cell_length_a   6.39311754
_cell_length_b   6.39311702
_cell_length_c   9.99499588
_cell_angle_alpha   90.00000000
_cell_angle_beta   90.00000000
_cell_angle_gamma   120.00000268
_symmetry_Int_Tables_number   1
_chemical_formula_structural   NaMg14Mo
_chemical_formula_sum   'Na1 Mg14 Mo1'
_cell_volume   353.78432145
_cell_formula_units_Z   1
loop_
 _symmetry_equiv_pos_site_id
 _symmetry_equiv_pos_as_xyz
  1  'x, y, z'
loop_
 _atom_site_type_symbol
 _atom_site_label
 _atom_site_symmetry_multiplicity
 _atom_site_fract_x
 _atom_site_fract_y
 _atom_site_fract_z
 _atom_site_occupancy
  Na  Na0  1  0.16666700  0.33333300  0.12500000  1
  Mg  Mg0  1  0.17059645  0.83529773  0.12500000  1
  Mg  Mg1  1  0.16628705  0.83314303  0.62500000  1
  Mg  Mg2  1  0.66470227  0.32940355  0.12500000  1
  Mg  Mg3  1  0.66685697  0.33371295  0.62500000  1
  Mg  Mg4  1  0.66470227  0.83529773  0.12500000  1
  Mg  Mg5  1  0.66685697  0.83314303  0.62500000  1
  Mg  Mg6  1  0.32898629  0.17101371  0.38692852  1
  Mg  Mg7  1  0.32898629  0.17101371  0.86307148  1
  Mg  Mg8  1  0.32898629  0.65797359  0.38692852  1
  Mg  Mg9  1  0.32898629  0.65797359  0.86307148  1
  Mg  Mg10  1  0.84202641  0.17101371  0.38692852  1
  Mg  Mg11  1  0.84202641  0.17101371  0.86307148  1
  Mg  Mg12  1  0.83333300  0.66666700  0.37326047  1
  Mg  Mg13  1  0.83333300  0.66666700  0.87673953  1
  Mo  Mo0  1  0.16666700  0.33333300  0.62500000  1
loop_
_geom_bond_atom_site_label_1
_geom_bond_atom_site_label_2
_geom_bond_distance
_geom_bond_site_symmetry_2
Mg0 Mg13 3.105470 1_454
Mg0 Mg12 3.105470 1_455
Mg0 Mg2 3.158876 1_565
Mg0 Mg4 3.158877 1_555
Mg0 Na0 3.196633 1_565
Mg0 Na0 3.196633 1_555
Mg0 Mg9 3.211273 1_554
Mg0 Mg8 3.211273 1_555
Mg0 Mg6 3.211279 1_565
Mg0 Mg7 3.211279 1_564
Mg0 Mg2 3.234241 1_455
Mg0 Mg4 3.234241 1_455
Mg1 Mg8 3.027050 1_555
Mg1 Mg9 3.027050 1_555
Mg1 Mg6 3.027057 1_565
Mg1 Mg7 3.027057 1_565
Mg1 Mg13 3.119165 1_455
Mg1 Mg12 3.119165 1_455
Mg1 Mg3 3.192915 1_455
Mg1 Mg5 3.192915 1_455
Mg1 Mo0 3.196559 1_565
Mg1 Mo0 3.196559 1_555
Mg1 Mg3 3.200202 1_565
Mg1 Mg5 3.200202 1_555
Mg2 Mg4 3.158876 1_545
Mg2 Na0 3.196633 1_555
Mg2 Na0 3.196633 1_655
Mg2 Mg7 3.211279 1_554
Mg2 Mg6 3.211279 1_555
Mg2 Mg4 3.234241 1_555
Mg3 Mg7 3.027057 1_555
Mg3 Mg6 3.027057 1_555
Mg3 Mg5 3.192915 1_555
Mg3 Mo0 3.196559 1_555
Mg3 Mo0 3.196559 1_655
Mg3 Mg5 3.200202 1_545
Mg4 Na0 3.196633 1_555
Mg4 Na0 3.196633 1_665
Mg4 Mg9 3.211279 1_554
Mg4 Mg8 3.211279 1_555
Mg5 Mg9 3.027057 1_555
Mg5 Mg8 3.027057 1_555
Mg5 Mo0 3.196559 1_665
Mg5 Mo0 3.196559 1_555
Mg6 Mo0 2.982073 1_555
Mg6 Mg8 3.113191 1_555
Mg6 Na0 3.175597 1_555
Mg6 Mg8 3.279926 1_545
Mg7 Mo0 2.982073 1_555
Mg7 Mg9 3.113191 1_555
Mg7 Na0 3.175597 1_556
Mg7 Mg9 3.279926 1_545
Mg8 Mo0 2.982080 1_555
Mg8 Na0 3.175603 1_555
Mg9 Mo0 2.982080 1_555
Mg9 Na0 3.175603 1_556
Mg10 Mo0 2.982080 1_655
Mg10 Mg3 3.027050 1_555
Mg10 Mg5 3.027057 1_545
Mg10 Mg8 3.113191 1_655
Mg10 Mg6 3.113192 1_655
Mg10 Na0 3.175604 1_655
Mg10 Mg12 3.199838 1_555
Mg10 Mg12 3.199838 1_545
Mg10 Mg2 3.211273 1_555
Mg10 Mg4 3.211279 1_545
Mg10 Mg8 3.279926 1_545
Mg10 Mg6 3.279926 1_555
Mg11 Mo0 2.982080 1_655
Mg11 Mg3 3.027050 1_555
Mg11 Mg5 3.027057 1_545
Mg11 Mg9 3.113191 1_655
Mg11 Mg7 3.113192 1_655
Mg11 Na0 3.175604 1_656
Mg11 Mg13 3.199838 1_555
Mg11 Mg13 3.199838 1_545
Mg11 Mg2 3.211273 1_556
Mg11 Mg4 3.211279 1_546
Mg11 Mg9 3.279926 1_545
Mg11 Mg7 3.279926 1_555
Mg12 Mg4 3.105463 1_555
Mg12 Mg2 3.105470 1_555
Mg12 Mg5 3.119158 1_555
Mg12 Mg3 3.119164 1_555
Mg12 Mg6 3.199838 1_665
Mg12 Mg6 3.199838 1_555
Mg12 Mg8 3.199839 1_655
Mg12 Mg8 3.199839 1_555
Mg13 Mg4 3.105463 1_556
Mg13 Mg2 3.105470 1_556
Mg13 Mg5 3.119158 1_555
Mg13 Mg3 3.119164 1_555
Mg13 Mg7 3.199838 1_665
Mg13 Mg7 3.199838 1_555
Mg13 Mg9 3.199839 1_655
Mg13 Mg9 3.199839 1_555
