# generated using pymatgen
data_CaBiMoO5
_symmetry_space_group_name_H-M   'P 1'
_cell_length_a   5.53641200
_cell_length_b   10.94363300
_cell_length_c   16.52744500
_cell_angle_alpha   90.00000000
_cell_angle_beta   90.00000000
_cell_angle_gamma   90.00000000
_symmetry_Int_Tables_number   1
_chemical_formula_structural   CaBiMoO5
_chemical_formula_sum   'Ca8 Bi8 Mo8 O40'
_cell_volume   1001.37245788
_cell_formula_units_Z   8
loop_
 _symmetry_equiv_pos_site_id
 _symmetry_equiv_pos_as_xyz
  1  'x, y, z'
loop_
 _atom_site_type_symbol
 _atom_site_label
 _atom_site_symmetry_multiplicity
 _atom_site_fract_x
 _atom_site_fract_y
 _atom_site_fract_z
 _atom_site_occupancy
  Ca  Ca0  1  0.52178100  0.36227600  0.44196200  1
  Ca  Ca1  1  0.02178100  0.13772400  0.44196200  1
  Ca  Ca2  1  0.02178100  0.63772400  0.05803800  1
  Ca  Ca3  1  0.97821900  0.36227600  0.94196200  1
  Ca  Ca4  1  0.47821900  0.13772400  0.94196200  1
  Ca  Ca5  1  0.97821900  0.86227600  0.55803800  1
  Ca  Ca6  1  0.47821900  0.63772400  0.55803800  1
  Ca  Ca7  1  0.52178100  0.86227600  0.05803800  1
  Bi  Bi0  1  0.94960900  0.85269000  0.22534200  1
  Bi  Bi1  1  0.05039100  0.14731000  0.77465800  1
  Bi  Bi2  1  0.55039100  0.35269000  0.77465800  1
  Bi  Bi3  1  0.05039100  0.64731000  0.72534200  1
  Bi  Bi4  1  0.44960900  0.14731000  0.27465800  1
  Bi  Bi5  1  0.44960900  0.64731000  0.22534200  1
  Bi  Bi6  1  0.55039100  0.85269000  0.72534200  1
  Bi  Bi7  1  0.94960900  0.35269000  0.27465800  1
  Mo  Mo0  1  0.98654100  0.37793200  0.59104500  1
  Mo  Mo1  1  0.51345900  0.87793200  0.40895500  1
  Mo  Mo2  1  0.01345900  0.62206800  0.40895500  1
  Mo  Mo3  1  0.48654100  0.12206800  0.59104500  1
  Mo  Mo4  1  0.01345900  0.12206800  0.09104500  1
  Mo  Mo5  1  0.98654100  0.87793200  0.90895500  1
  Mo  Mo6  1  0.51345900  0.37793200  0.09104500  1
  Mo  Mo7  1  0.48654100  0.62206800  0.90895500  1
  O  O0  1  0.92585800  0.32410600  0.69958300  1
  O  O1  1  0.27716100  0.03757000  0.05490300  1
  O  O2  1  0.22283900  0.53757000  0.94509700  1
  O  O3  1  0.24404300  0.77121800  0.15098900  1
  O  O4  1  0.25595700  0.27121800  0.84901100  1
  O  O5  1  0.92585800  0.82410600  0.80041700  1
  O  O6  1  0.25595700  0.77121800  0.65098900  1
  O  O7  1  0.57414200  0.82410600  0.30041700  1
  O  O8  1  0.27716100  0.53757000  0.44509700  1
  O  O9  1  0.07414200  0.67589400  0.30041700  1
  O  O10  1  0.57414200  0.32410600  0.19958300  1
  O  O11  1  0.72428300  0.21607300  0.53780600  1
  O  O12  1  0.77716100  0.96243000  0.44509700  1
  O  O13  1  0.75595700  0.72878200  0.65098900  1
  O  O14  1  0.17637800  0.01779300  0.87644100  1
  O  O15  1  0.77716100  0.46243000  0.05490300  1
  O  O16  1  0.07414200  0.17589400  0.19958300  1
  O  O17  1  0.74404300  0.22878200  0.34901100  1
  O  O18  1  0.22428300  0.78392700  0.96219400  1
  O  O19  1  0.22283900  0.03757000  0.55490300  1
  O  O20  1  0.27571700  0.78392700  0.46219400  1
  O  O21  1  0.82362200  0.98220700  0.12355900  1
  O  O22  1  0.75595700  0.22878200  0.84901100  1
  O  O23  1  0.67637800  0.98220700  0.62355900  1
  O  O24  1  0.27571700  0.28392700  0.03780600  1
  O  O25  1  0.22428300  0.28392700  0.53780600  1
  O  O26  1  0.72283900  0.46243000  0.55490300  1
  O  O27  1  0.72283900  0.96243000  0.94509700  1
  O  O28  1  0.67637800  0.48220700  0.87644100  1
  O  O29  1  0.77571700  0.71607300  0.46219400  1
  O  O30  1  0.77571700  0.21607300  0.03780600  1
  O  O31  1  0.72428300  0.71607300  0.96219400  1
  O  O32  1  0.82362200  0.48220700  0.37644100  1
  O  O33  1  0.74404300  0.72878200  0.15098900  1
  O  O34  1  0.24404300  0.27121800  0.34901100  1
  O  O35  1  0.17637800  0.51779300  0.62355900  1
  O  O36  1  0.32362200  0.51779300  0.12355900  1
  O  O37  1  0.42585800  0.17589400  0.69958300  1
  O  O38  1  0.32362200  0.01779300  0.37644100  1
  O  O39  1  0.42585800  0.67589400  0.80041700  1
loop_
_geom_bond_atom_site_label_1
_geom_bond_atom_site_label_2
_geom_bond_distance
_geom_bond_site_symmetry_2
Ca0 O8 2.348816 1_555
Ca0 O32 2.384931 1_555
Ca0 O34 2.391129 1_555
Ca0 O26 2.434070 1_555
Ca0 O25 2.440748 1_555
Ca0 O17 2.451226 1_555
Ca0 O11 2.515184 1_555
Ca1 O12 2.348816 1_445
Ca1 O38 2.384931 1_555
Ca1 O17 2.391129 1_455
Ca1 O19 2.434070 1_555
Ca1 O11 2.440748 1_455
Ca1 O34 2.451226 1_555
Ca1 O25 2.515184 1_555
Ca2 O15 2.348816 1_455
Ca2 O36 2.384931 1_555
Ca2 O33 2.391129 1_455
Ca2 O2 2.434070 1_554
Ca2 O31 2.440748 1_454
Ca2 O3 2.451226 1_555
Ca2 O18 2.515184 1_554
Ca3 O2 2.348816 1_655
Ca3 O28 2.384931 1_555
Ca3 O4 2.391129 1_655
Ca3 O15 2.434070 1_556
Ca3 O24 2.440748 1_656
Ca3 O22 2.451226 1_555
Ca3 O30 2.515184 1_556
Ca4 O27 2.348816 1_545
Ca4 O14 2.384931 1_555
Ca4 O22 2.391129 1_555
Ca4 O1 2.434070 1_556
Ca4 O30 2.440748 1_556
Ca4 O4 2.451226 1_555
Ca4 O24 2.515184 1_556
Ca5 O19 2.348816 1_665
Ca5 O23 2.384931 1_555
Ca5 O6 2.391129 1_655
Ca5 O12 2.434070 1_555
Ca5 O20 2.440748 1_655
Ca5 O13 2.451226 1_555
Ca5 O29 2.515184 1_555
Ca6 O26 2.348816 1_555
Ca6 O35 2.384931 1_555
Ca6 O13 2.391129 1_555
Ca6 O8 2.434070 1_555
Ca6 O29 2.440748 1_555
Ca6 O6 2.451226 1_555
Ca6 O20 2.515184 1_555
Ca7 O1 2.348816 1_565
Ca7 O21 2.384931 1_555
Ca7 O3 2.391129 1_555
Ca7 O27 2.434070 1_554
Ca7 O18 2.440748 1_554
Ca7 O33 2.451226 1_555
Ca7 O31 2.515184 1_554
Bi0 O33 2.155023 1_555
Bi0 O3 2.227625 1_655
Bi0 O21 2.307673 1_555
Bi0 O9 2.399658 1_655
Bi0 O7 2.441023 1_555
Bi1 O4 2.155023 1_555
Bi1 O22 2.227625 1_455
Bi1 O14 2.307673 1_555
Bi1 O0 2.399658 1_455
Bi1 O37 2.441023 1_555
Bi2 O22 2.155023 1_555
Bi2 O4 2.227625 1_555
Bi2 O28 2.307673 1_555
Bi2 O37 2.399658 1_555
Bi2 O0 2.441023 1_555
Bi3 O6 2.155023 1_555
Bi3 O13 2.227625 1_455
Bi3 O35 2.307673 1_555
Bi3 O5 2.399658 1_455
Bi3 O39 2.441023 1_555
Bi4 O34 2.155023 1_555
Bi4 O17 2.227625 1_555
Bi4 O38 2.307673 1_555
Bi4 O10 2.399658 1_555
Bi4 O16 2.441023 1_555
Bi5 O3 2.155023 1_555
Bi5 O33 2.227625 1_555
Bi5 O36 2.307673 1_555
Bi5 O7 2.399658 1_555
Bi5 O9 2.441023 1_555
Bi6 O13 2.155023 1_555
Bi6 O6 2.227625 1_555
Bi6 O23 2.307673 1_555
Bi6 O39 2.399658 1_555
Bi6 O5 2.441023 1_555
Bi7 O17 2.155023 1_555
Bi7 O34 2.227625 1_655
Bi7 O32 2.307673 1_555
Bi7 O16 2.399658 1_655
Bi7 O10 2.441023 1_555
Mo0 O26 1.828496 1_555
Mo0 O25 1.888135 1_655
Mo0 O0 1.917752 1_555
Mo0 O35 1.932900 1_655
Mo0 O11 2.453577 1_555
Mo1 O12 1.828496 1_555
Mo1 O20 1.888135 1_555
Mo1 O7 1.917752 1_555
Mo1 O38 1.932900 1_565
Mo1 O29 2.453577 1_555
Mo2 O8 1.828496 1_555
Mo2 O29 1.888135 1_455
Mo2 O9 1.917752 1_555
Mo2 O32 1.932900 1_455
Mo2 O20 2.453577 1_555
Mo3 O19 1.828496 1_555
Mo3 O11 1.888135 1_555
Mo3 O37 1.917752 1_555
Mo3 O23 1.932900 1_545
Mo3 O25 2.453577 1_555
Mo4 O1 1.828496 1_555
Mo4 O30 1.888135 1_455
Mo4 O16 1.917752 1_555
Mo4 O21 1.932900 1_445
Mo4 O24 2.453577 1_555
Mo5 O27 1.828496 1_555
Mo5 O18 1.888135 1_655
Mo5 O5 1.917752 1_555
Mo5 O14 1.932900 1_665
Mo5 O31 2.453577 1_555
Mo6 O15 1.828496 1_555
Mo6 O24 1.888135 1_555
Mo6 O10 1.917752 1_555
Mo6 O36 1.932900 1_555
Mo6 O30 2.453577 1_555
Mo7 O2 1.828496 1_555
Mo7 O31 1.888135 1_555
Mo7 O39 1.917752 1_555
Mo7 O28 1.932900 1_555
Mo7 O18 2.453577 1_555
