# generated using pymatgen
data_Sr8CaY3Cu12(PbO4)8
_symmetry_space_group_name_H-M   'P 1'
_cell_length_a   7.67715600
_cell_length_b   7.68256314
_cell_length_c   16.78970630
_cell_angle_alpha   102.92919986
_cell_angle_beta   102.60846597
_cell_angle_gamma   90.52875017
_symmetry_Int_Tables_number   1
_chemical_formula_structural   Sr8CaY3Cu12(PbO4)8
_chemical_formula_sum   'Sr8 Ca1 Y3 Cu12 Pb8 O32'
_cell_volume   940.12285299
_cell_formula_units_Z   1
loop_
 _symmetry_equiv_pos_site_id
 _symmetry_equiv_pos_as_xyz
  1  'x, y, z'
loop_
 _atom_site_type_symbol
 _atom_site_label
 _atom_site_symmetry_multiplicity
 _atom_site_fract_x
 _atom_site_fract_y
 _atom_site_fract_z
 _atom_site_occupancy
  Sr  Sr0  1  0.10725300  0.10968300  0.21893200  1
  Sr  Sr1  1  0.60839000  0.61109900  0.22136400  1
  Sr  Sr2  1  0.39161000  0.38890100  0.77863600  1
  Sr  Sr3  1  0.89274700  0.89031700  0.78106800  1
  Sr  Sr4  1  0.60984600  0.10916800  0.22083500  1
  Sr  Sr5  1  0.10991800  0.60912500  0.22083500  1
  Sr  Sr6  1  0.89008200  0.39087500  0.77916500  1
  Sr  Sr7  1  0.39015400  0.89083200  0.77916500  1
  Ca  Ca0  1  0.00000000  0.00000000  0.00000000  1
  Y  Y0  1  0.50000000  0.00000000  0.00000000  1
  Y  Y1  1  0.00000000  0.50000000  0.00000000  1
  Y  Y2  1  0.50000000  0.50000000  0.00000000  1
  Cu  Cu0  1  0.30191900  0.30168100  0.10528800  1
  Cu  Cu1  1  0.80346600  0.80323900  0.10526400  1
  Cu  Cu2  1  0.69808100  0.69831900  0.89471200  1
  Cu  Cu3  1  0.19653400  0.19676100  0.89473600  1
  Cu  Cu4  1  0.74999000  0.25002100  0.49999900  1
  Cu  Cu5  1  0.25001000  0.74997900  0.50000100  1
  Cu  Cu6  1  0.30182700  0.80364400  0.10575300  1
  Cu  Cu7  1  0.80307400  0.30230800  0.10569600  1
  Cu  Cu8  1  0.69817300  0.19635600  0.89424700  1
  Cu  Cu9  1  0.19692600  0.69769200  0.89430400  1
  Cu  Cu10  1  0.24994500  0.25000400  0.49997800  1
  Cu  Cu11  1  0.75005500  0.74999600  0.50002200  1
  Pb  Pb0  1  0.44593600  0.94718600  0.38840300  1
  Pb  Pb1  1  0.94602800  0.44689900  0.38844300  1
  Pb  Pb2  1  0.55406400  0.05281400  0.61159700  1
  Pb  Pb3  1  0.05397200  0.55310100  0.61155700  1
  Pb  Pb4  1  0.44153500  0.45114300  0.38863300  1
  Pb  Pb5  1  0.94199900  0.95149300  0.38865400  1
  Pb  Pb6  1  0.55846500  0.54885700  0.61136700  1
  Pb  Pb7  1  0.05800100  0.04850700  0.61134600  1
  O  O0  1  0.54655600  0.79429000  0.09216100  1
  O  O1  1  0.04800800  0.30477000  0.09553400  1
  O  O2  1  0.95199200  0.69523000  0.90446600  1
  O  O3  1  0.45344400  0.20571000  0.90783900  1
  O  O4  1  0.37858800  0.37286200  0.25172300  1
  O  O5  1  0.87720000  0.87149900  0.25179400  1
  O  O6  1  0.62141200  0.62713800  0.74827700  1
  O  O7  1  0.12280000  0.12850100  0.74820600  1
  O  O8  1  0.54555200  0.29733400  0.09142900  1
  O  O9  1  0.04719500  0.79027800  0.09473200  1
  O  O10  1  0.95280500  0.20972200  0.90526800  1
  O  O11  1  0.45444800  0.70266600  0.90857100  1
  O  O12  1  0.79044600  0.04760800  0.09541600  1
  O  O13  1  0.29749700  0.54585200  0.09219100  1
  O  O14  1  0.70250300  0.45414800  0.90780900  1
  O  O15  1  0.20955400  0.95239200  0.90458400  1
  O  O16  1  0.37155300  0.87695100  0.25139000  1
  O  O17  1  0.87009100  0.37848400  0.25143400  1
  O  O18  1  0.62844700  0.12304900  0.74861000  1
  O  O19  1  0.12990900  0.62151600  0.74856600  1
  O  O20  1  0.13432200  0.20941900  0.38686700  1
  O  O21  1  0.63432500  0.70949700  0.38699600  1
  O  O22  1  0.36567500  0.29050300  0.61300400  1
  O  O23  1  0.86567800  0.79058100  0.61313300  1
  O  O24  1  0.30425100  0.04776900  0.09496800  1
  O  O25  1  0.79371200  0.54611100  0.09151800  1
  O  O26  1  0.20628800  0.45388900  0.90848200  1
  O  O27  1  0.69574900  0.95223100  0.90503200  1
  O  O28  1  0.19927600  0.64005400  0.38607000  1
  O  O29  1  0.69926500  0.14000400  0.38606800  1
  O  O30  1  0.30073500  0.85999600  0.61393200  1
  O  O31  1  0.80072400  0.35994600  0.61393000  1
loop_
_geom_bond_atom_site_label_1
_geom_bond_atom_site_label_2
_geom_bond_distance
_geom_bond_site_symmetry_2
Ca0 O15 2.482378 1_544
Ca0 O12 2.482378 1_455
Ca0 O9 2.482533 1_545
Ca0 O10 2.482533 1_454
Ca0 O24 2.495857 1_555
Ca0 O27 2.495857 1_444
Ca0 O2 2.497241 1_444
Ca0 O1 2.497241 1_555
Cu0 O24 1.919974 1_555
Cu0 O1 1.921050 1_555
Cu0 O8 1.934262 1_555
Cu0 O13 1.936713 1_555
Cu0 O4 2.334704 1_555
Cu1 O9 1.918953 1_655
Cu1 O12 1.922770 1_565
Cu1 O0 1.935081 1_555
Cu1 O25 1.935664 1_555
Cu1 O5 2.336064 1_555
Cu2 O27 1.919974 1_555
Cu2 O2 1.921050 1_555
Cu2 O11 1.934262 1_555
Cu2 O14 1.936713 1_555
Cu2 O6 2.334704 1_555
Cu3 O10 1.918953 1_455
Cu3 O15 1.922770 1_545
Cu3 O3 1.935081 1_555
Cu3 O26 1.935664 1_555
Cu3 O7 2.336064 1_555
Cu4 O31 1.862720 1_555
Cu4 O29 1.862878 1_555
Cu5 O28 1.862720 1_555
Cu5 O30 1.862878 1_555
Cu6 O9 1.922523 1_555
Cu6 O24 1.924437 1_565
Cu6 O13 1.941397 1_555
Cu6 O0 1.941534 1_555
Cu6 O16 2.321527 1_555
Cu7 O12 1.925127 1_555
Cu7 O1 1.925152 1_655
Cu7 O8 1.937852 1_555
Cu7 O25 1.940262 1_555
Cu7 O17 2.323474 1_555
Cu8 O10 1.922523 1_555
Cu8 O27 1.924437 1_545
Cu8 O14 1.941397 1_555
Cu8 O3 1.941534 1_555
Cu8 O18 2.321527 1_555
Cu9 O15 1.925127 1_555
Cu9 O2 1.925152 1_455
Cu9 O11 1.937852 1_555
Cu9 O26 1.940262 1_555
Cu9 O19 2.323474 1_555
Cu10 O22 1.866001 1_555
Cu10 O20 1.867001 1_555
Cu11 O21 1.866001 1_555
Cu11 O23 1.867001 1_555
O0 Y2 2.410778 1_555
O0 Y0 2.425478 1_565
O0 Sr1 2.800140 1_555
O0 Sr4 2.817209 1_565
O1 Y1 2.405597 1_555
O1 Sr5 2.731435 1_555
O1 Sr0 2.781426 1_555
O2 Y1 2.405597 1_656
O2 Sr6 2.731435 1_555
O2 Sr3 2.781426 1_555
O3 Y2 2.410778 1_556
O3 Y0 2.425478 1_556
O3 Sr2 2.800140 1_555
O3 Sr7 2.817209 1_545
O4 Pb4 2.184075 1_555
O4 Sr1 2.733619 1_555
O4 Sr4 2.742857 1_555
O4 Sr0 2.766554 1_555
O4 Sr5 2.800232 1_555
O5 Pb5 2.183712 1_555
O5 Sr1 2.743746 1_555
O5 Sr5 2.743770 1_655
O5 Sr0 2.754939 1_665
O5 Sr4 2.800904 1_565
O6 Pb6 2.184075 1_555
O6 Sr2 2.733619 1_555
O6 Sr7 2.742857 1_555
O6 Sr3 2.766554 1_555
O6 Sr6 2.800232 1_555
O7 Pb7 2.183712 1_555
O7 Sr2 2.743746 1_555
O7 Sr6 2.743770 1_455
O7 Sr3 2.754939 1_445
O7 Sr7 2.800904 1_545
O8 Y2 2.397538 1_555
O8 Y0 2.424548 1_555
O8 Sr1 2.822837 1_555
O8 Sr4 2.829212 1_555
O9 Y1 2.404274 1_555
O9 Sr5 2.745412 1_555
O9 Sr0 2.802127 1_565
O10 Y1 2.404274 1_656
O10 Sr6 2.745412 1_555
O10 Sr3 2.802127 1_545
O11 Y2 2.397538 1_556
O11 Y0 2.424548 1_566
O11 Sr2 2.822837 1_555
O11 Sr7 2.829212 1_555
O12 Y0 2.415665 1_555
O12 Sr4 2.724204 1_555
O12 Sr0 2.788828 1_655
O13 Y2 2.398658 1_555
O13 Y1 2.435995 1_555
O13 Sr5 2.806468 1_555
O13 Sr1 2.807687 1_555
O14 Y2 2.398658 1_556
O14 Y1 2.435995 1_656
O14 Sr6 2.806468 1_555
O14 Sr2 2.807687 1_555
O15 Y0 2.415665 1_566
O15 Sr7 2.724204 1_555
O15 Sr3 2.788828 1_455
O16 Pb0 2.185057 1_555
O16 Sr5 2.744609 1_555
O16 Sr4 2.748037 1_565
O16 Sr0 2.762466 1_565
O16 Sr1 2.782010 1_555
O17 Pb1 2.185296 1_555
O17 Sr1 2.740854 1_555
O17 Sr4 2.745276 1_555
O17 Sr5 2.748400 1_655
O17 Sr0 2.806471 1_655
O18 Pb2 2.185057 1_555
O18 Sr6 2.744609 1_555
O18 Sr7 2.748037 1_545
O18 Sr3 2.762466 1_545
O18 Sr2 2.782010 1_555
O19 Pb3 2.185296 1_555
O19 Sr2 2.740854 1_555
O19 Sr7 2.745276 1_555
O19 Sr6 2.748400 1_455
O19 Sr3 2.806471 1_455
O20 Pb1 2.337255 1_455
O20 Pb5 2.469687 1_445
O20 Sr0 2.711971 1_555
O21 Pb0 2.339054 1_555
O21 Pb4 2.473632 1_555
O21 Sr1 2.675693 1_555
O22 Pb2 2.339054 1_555
O22 Pb6 2.473632 1_555
O22 Sr2 2.675693 1_555
O23 Pb3 2.337255 1_655
O23 Pb7 2.469687 1_665
O23 Sr3 2.711971 1_555
O24 Y0 2.393720 1_555
O24 Sr4 2.749834 1_555
O24 Sr0 2.791046 1_555
O25 Y2 2.408322 1_555
O25 Y1 2.413253 1_655
O25 Sr1 2.811826 1_555
O25 Sr5 2.836970 1_655
O26 Y2 2.408322 1_556
O26 Y1 2.413253 1_556
O26 Sr2 2.811826 1_555
O26 Sr6 2.836970 1_455
O27 Y0 2.393720 1_566
O27 Sr7 2.749834 1_555
O27 Sr3 2.791046 1_555
O28 Pb4 2.368563 1_555
O28 Pb1 2.447582 1_455
O28 Sr5 2.663578 1_555
O29 Pb5 2.369513 1_545
O29 Pb0 2.446308 1_545
O29 Sr4 2.663664 1_555
O30 Pb7 2.369513 1_565
O30 Pb2 2.446308 1_565
O30 Sr7 2.663664 1_555
O31 Pb6 2.368563 1_555
O31 Pb3 2.447582 1_655
O31 Sr6 2.663578 1_555
