# generated using pymatgen
data_Ta4Te16PtI8
_symmetry_space_group_name_H-M   'P 1'
_cell_length_a   6.71553600
_cell_length_b   9.73526866
_cell_length_c   17.23898385
_cell_angle_alpha   73.82958531
_cell_angle_beta   79.57408312
_cell_angle_gamma   81.00815471
_symmetry_Int_Tables_number   1
_chemical_formula_structural   Ta4Te16PtI8
_chemical_formula_sum   'Ta4 Te16 Pt1 I8'
_cell_volume   1057.87111509
_cell_formula_units_Z   1
loop_
 _symmetry_equiv_pos_site_id
 _symmetry_equiv_pos_as_xyz
  1  'x, y, z'
loop_
 _atom_site_type_symbol
 _atom_site_label
 _atom_site_symmetry_multiplicity
 _atom_site_fract_x
 _atom_site_fract_y
 _atom_site_fract_z
 _atom_site_occupancy
  Ta  Ta0  1  0.51388800  0.88649500  0.80245500  1
  Ta  Ta1  1  0.48611200  0.11350500  0.19754500  1
  Ta  Ta2  1  0.01429600  0.89648400  0.80453900  1
  Ta  Ta3  1  0.98570400  0.10351600  0.19546100  1
  Te  Te0  1  0.31795000  0.68897700  0.75488700  1
  Te  Te1  1  0.68205000  0.31102300  0.24511300  1
  Te  Te2  1  0.68287100  0.01570500  0.91384200  1
  Te  Te3  1  0.31712900  0.98429500  0.08615800  1
  Te  Te4  1  0.29933600  0.99081900  0.66489200  1
  Te  Te5  1  0.70066400  0.00918100  0.33510800  1
  Te  Te6  1  0.79031800  0.64663800  0.86196300  1
  Te  Te7  1  0.20968200  0.35336200  0.13803700  1
  Te  Te8  1  0.74562100  0.13291500  0.73171500  1
  Te  Te9  1  0.25437900  0.86708500  0.26828500  1
  Te  Te10  1  0.21973900  0.77713500  0.94343800  1
  Te  Te11  1  0.78026100  0.22286500  0.05656200  1
  Te  Te12  1  0.20015600  0.10996300  0.84342500  1
  Te  Te13  1  0.79984400  0.89003700  0.15657500  1
  Te  Te14  1  0.17461600  0.22077900  0.31261200  1
  Te  Te15  1  0.82538400  0.77922100  0.68738800  1
  Pt  Pt0  1  0.00000000  0.00000000  0.00000000  1
  I  I0  1  0.30149600  0.42001000  0.94004900  1
  I  I1  1  0.69850400  0.57999000  0.05995100  1
  I  I2  1  0.35438700  0.29168100  0.44337000  1
  I  I3  1  0.64561300  0.70831900  0.55663000  1
  I  I4  1  0.77066000  0.66863500  0.33094000  1
  I  I5  1  0.22934000  0.33136500  0.66906000  1
  I  I6  1  0.21010000  0.83032400  0.44571700  1
  I  I7  1  0.78990000  0.16967600  0.55428300  1
loop_
_geom_bond_atom_site_label_1
_geom_bond_atom_site_label_2
_geom_bond_distance
_geom_bond_site_symmetry_2
Ta0 Te6 2.819767 1_555
Ta0 Te0 2.856756 1_555
Ta0 Te4 2.858141 1_555
Ta0 Te15 2.893184 1_555
Ta0 Te10 2.901894 1_555
Ta0 Te8 2.917982 1_565
Ta0 Te12 2.924921 1_565
Ta0 Te2 3.022828 1_565
Ta1 Te7 2.819767 1_555
Ta1 Te1 2.856756 1_555
Ta1 Te5 2.858141 1_555
Ta1 Te14 2.893184 1_555
Ta1 Te11 2.901894 1_555
Ta1 Te9 2.917982 1_545
Ta1 Te13 2.924921 1_545
Ta1 Te3 3.022828 1_545
Ta2 Te4 2.820151 1_555
Ta2 Te0 2.831188 1_555
Ta2 Te8 2.835775 1_465
Ta2 Te10 2.851654 1_555
Ta2 Te12 2.866383 1_565
Ta2 Te6 2.902088 1_455
Ta2 Te2 2.957040 1_465
Ta2 Te15 3.107326 1_455
Ta3 Te5 2.820151 1_555
Ta3 Te1 2.831188 1_555
Ta3 Te9 2.835775 1_645
Ta3 Te11 2.851654 1_555
Ta3 Te13 2.866383 1_545
Ta3 Te7 2.902088 1_655
Ta3 Te3 2.957040 1_645
Ta3 Te14 3.107326 1_655
Te0 Te4 2.910930 1_555
Te1 Te5 2.910930 1_555
Te14 Te7 2.907476 1_555
Te15 Te6 2.907476 1_555
Pt0 Te10 2.737245 1_544
Pt0 Te11 2.737245 1_455
Pt0 Te3 2.771567 1_545
Pt0 Te2 2.771567 1_454
Pt0 Te13 2.786690 1_445
Pt0 Te12 2.786690 1_554
I0 Te7 3.252753 1_556
I0 Te10 3.449231 1_555
I0 Te0 3.516368 1_555
I1 Te6 3.252753 1_554
I1 Te11 3.449231 1_555
I1 Te1 3.516368 1_555
I2 Te14 3.021106 1_555
I3 Te15 3.021106 1_555
I4 Te13 3.166960 1_555
I4 Te5 3.294040 1_565
I5 Te12 3.166960 1_555
I5 Te4 3.294040 1_545
I6 Te9 2.943942 1_555
I7 Te8 2.943942 1_555
