# generated using pymatgen
data_Ba2Yb2Al4Si3(N5O2)2
_symmetry_space_group_name_H-M   'P 1'
_cell_length_a   7.60531966
_cell_length_b   8.09066876
_cell_length_c   8.34032671
_cell_angle_alpha   108.60984837
_cell_angle_beta   72.83936765
_cell_angle_gamma   131.24464250
_symmetry_Int_Tables_number   1
_chemical_formula_structural   Ba2Yb2Al4Si3(N5O2)2
_chemical_formula_sum   'Ba2 Yb2 Al4 Si3 N10 O4'
_cell_volume   363.10811678
_cell_formula_units_Z   1
loop_
 _symmetry_equiv_pos_site_id
 _symmetry_equiv_pos_as_xyz
  1  'x, y, z'
loop_
 _atom_site_type_symbol
 _atom_site_label
 _atom_site_symmetry_multiplicity
 _atom_site_fract_x
 _atom_site_fract_y
 _atom_site_fract_z
 _atom_site_occupancy
  Ba  Ba0  1  0.40887000  0.65436700  0.09221700  1
  Ba  Ba1  1  0.66201300  0.48314700  0.62087300  1
  Yb  Yb0  1  0.29255000  0.70620100  0.79796400  1
  Yb  Yb1  1  0.74010800  0.23874100  0.22006700  1
  Al  Al0  1  0.66194700  0.83968300  0.45854400  1
  Al  Al1  1  0.33977600  0.10111600  0.92155100  1
  Al  Al2  1  0.74698500  0.50600600  0.04973600  1
  Al  Al3  1  0.79988900  0.20083500  0.83266100  1
  Si  Si0  1  0.28410500  0.85592700  0.47686500  1
  Si  Si1  1  0.05969300  0.94198500  0.20154100  1
  Si  Si2  1  0.11347300  0.41845700  0.48332500  1
  N  N0  1  0.20884200  0.98522300  0.38250800  1
  N  N1  1  0.97234100  0.46508000  0.00036600  1
  N  N2  1  0.51345600  0.05561100  0.98839400  1
  N  N3  1  0.19569600  0.14442300  0.47429400  1
  N  N4  1  0.09020300  0.16690400  0.38443000  1
  N  N5  1  0.51873500  0.39655100  0.92539400  1
  N  N6  1  0.77156400  0.71384200  0.24884300  1
  N  N7  1  0.56806200  0.97136800  0.39403200  1
  N  N8  1  0.08128300  0.56306100  0.39768300  1
  N  N9  1  0.75830400  0.94711900  0.68454100  1
  O  O0  1  0.24267600  0.91585800  0.69410800  1
  O  O1  1  0.38703000  0.58064300  0.52433300  1
  O  O2  1  0.64073800  0.78100100  0.79485400  1
  O  O3  1  0.94166100  0.36685100  0.66277700  1
loop_
_geom_bond_atom_site_label_1
_geom_bond_atom_site_label_2
_geom_bond_distance
_geom_bond_site_symmetry_2
Ba0 N5 2.597067 1_554
Ba0 O2 2.639890 1_554
Ba0 N7 2.822017 1_555
Ba0 N1 2.828831 1_455
Ba0 N8 2.876178 1_555
Ba0 N6 3.085740 1_555
Ba0 N2 3.147086 1_564
Ba1 O2 2.466339 1_555
Ba1 N5 2.573867 1_555
Ba1 N8 2.932222 1_655
Ba1 O3 2.969497 1_555
Ba1 N3 3.031079 1_555
Al0 O1 1.828706 1_555
Al0 N7 1.878857 1_555
Al0 N9 1.942909 1_555
Al0 N6 1.978073 1_555
Al0 N4 2.546780 1_665
Al1 N5 1.803913 1_555
Al1 N2 1.843330 1_555
Al1 O0 1.985656 1_545
Al2 N5 1.822722 1_554
Al2 N1 1.860504 1_555
Al2 N6 1.899116 1_555
Al3 O3 1.837889 1_555
Al3 N9 1.896285 1_545
Al3 N1 1.929775 1_556
Al3 N2 1.934562 1_555
N0 N3 1.323015 1_565
N0 Si0 1.903165 1_555
N0 Si1 1.958881 1_555
N1 Yb1 2.407847 1_555
N1 Yb0 2.449036 1_654
N2 Yb1 2.381342 1_556
N2 Yb0 2.404864 1_545
N3 N4 1.368499 1_555
N4 Si2 1.842175 1_555
N4 Si1 1.890109 1_545
N6 Si1 1.727989 1_655
N7 Si0 1.698611 1_555
N7 Yb1 2.376466 1_565
N8 Si2 1.718462 1_555
N8 Si0 1.792505 1_555
N8 Yb1 2.573386 1_455
N9 O2 1.473621 1_555
O0 Si0 1.709129 1_555
O0 Yb0 2.398227 1_555
O1 Si2 1.643493 1_555
O1 Yb0 2.296014 1_555
O2 Yb0 2.288158 1_555
O3 Si2 1.627034 1_655
O3 Yb0 2.463709 1_655
