# generated using pymatgen
data_In2AsPt8
_symmetry_space_group_name_H-M   'P 1'
_cell_length_a   4.00985989
_cell_length_b   4.00985989
_cell_length_c   11.20845678
_cell_angle_alpha   90.00000000
_cell_angle_beta   90.00000000
_cell_angle_gamma   90.00000000
_symmetry_Int_Tables_number   1
_chemical_formula_structural   In2AsPt8
_chemical_formula_sum   'In2 As1 Pt8'
_cell_volume   180.22051134
_cell_formula_units_Z   1
loop_
 _symmetry_equiv_pos_site_id
 _symmetry_equiv_pos_as_xyz
  1  'x, y, z'
loop_
 _atom_site_type_symbol
 _atom_site_label
 _atom_site_symmetry_multiplicity
 _atom_site_fract_x
 _atom_site_fract_y
 _atom_site_fract_z
 _atom_site_occupancy
  In  In0  1  0.50000000  0.50000000  0.81965123  1
  In  In1  1  0.50000000  0.50000000  0.18034877  1
  As  As0  1  -0.00000000  0.00000000  0.50000000  1
  Pt  Pt0  1  0.50000000  0.00000000  -0.00000000  1
  Pt  Pt1  1  -0.00000000  0.50000000  -0.00000000  1
  Pt  Pt2  1  0.50000000  -0.00000000  0.63752743  1
  Pt  Pt3  1  -0.00000000  0.50000000  0.63752743  1
  Pt  Pt4  1  0.50000000  0.00000000  0.36247257  1
  Pt  Pt5  1  -0.00000000  0.50000000  0.36247257  1
  Pt  Pt6  1  -0.00000000  -0.00000000  0.82044151  1
  Pt  Pt7  1  0.00000000  0.00000000  0.17955849  1
loop_
_geom_bond_atom_site_label_1
_geom_bond_atom_site_label_2
_geom_bond_distance
_geom_bond_site_symmetry_2
In0 Pt6 2.835413 1_555
In0 Pt6 2.835413 1_565
In0 Pt6 2.835413 1_655
In0 Pt6 2.835413 1_665
In0 Pt1 2.847091 1_656
In0 Pt1 2.847091 1_556
In0 Pt0 2.847091 1_566
In0 Pt0 2.847091 1_556
In0 Pt2 2.861251 1_555
In0 Pt2 2.861251 1_565
In0 Pt3 2.861251 1_555
In0 Pt3 2.861251 1_655
In1 Pt7 2.835413 1_555
In1 Pt7 2.835413 1_655
In1 Pt7 2.835413 1_665
In1 Pt7 2.835413 1_565
In1 Pt0 2.847091 1_565
In1 Pt1 2.847091 1_655
In1 Pt0 2.847091 1_555
In1 Pt1 2.847091 1_555
In1 Pt5 2.861251 1_555
In1 Pt4 2.861251 1_555
In1 Pt4 2.861251 1_565
In1 Pt5 2.861251 1_655
As0 Pt3 2.529007 1_555
As0 Pt5 2.529007 1_545
As0 Pt4 2.529007 1_455
As0 Pt4 2.529007 1_555
As0 Pt5 2.529007 1_555
As0 Pt3 2.529007 1_545
As0 Pt2 2.529007 1_455
As0 Pt2 2.529007 1_555
Pt0 Pt1 2.835399 1_645
Pt0 Pt1 2.835399 1_555
Pt0 Pt1 2.835399 1_545
Pt0 Pt1 2.835399 1_655
Pt0 Pt7 2.840809 1_655
Pt0 Pt6 2.840809 1_554
Pt0 Pt7 2.840809 1_555
Pt0 Pt6 2.840809 1_654
Pt1 Pt7 2.840809 1_565
Pt1 Pt6 2.840809 1_554
Pt1 Pt6 2.840809 1_564
Pt1 Pt7 2.840809 1_555
Pt2 Pt6 2.867578 1_555
Pt2 Pt6 2.867578 1_655
Pt3 Pt6 2.867578 1_555
Pt3 Pt6 2.867578 1_565
Pt4 Pt7 2.867578 1_555
Pt4 Pt7 2.867578 1_655
Pt5 Pt7 2.867578 1_555
Pt5 Pt7 2.867578 1_565
