# generated using pymatgen
data_ZrSnN2
_symmetry_space_group_name_H-M   'P 1'
_cell_length_a   3.99660600
_cell_length_b   3.99660600
_cell_length_c   8.06815400
_cell_angle_alpha   90.00000000
_cell_angle_beta   90.00000000
_cell_angle_gamma   90.00000000
_symmetry_Int_Tables_number   1
_chemical_formula_structural   ZrSnN2
_chemical_formula_sum   'Zr2 Sn2 N4'
_cell_volume   128.87149042
_cell_formula_units_Z   2
loop_
 _symmetry_equiv_pos_site_id
 _symmetry_equiv_pos_as_xyz
  1  'x, y, z'
loop_
 _atom_site_type_symbol
 _atom_site_label
 _atom_site_symmetry_multiplicity
 _atom_site_fract_x
 _atom_site_fract_y
 _atom_site_fract_z
 _atom_site_occupancy
  Zr  Zr0  1  0.75000000  0.75000000  0.60621500  1
  Zr  Zr1  1  0.25000000  0.25000000  0.39378500  1
  Sn  Sn0  1  0.75000000  0.75000000  0.13136900  1
  Sn  Sn1  1  0.25000000  0.25000000  0.86863100  1
  N  N0  1  0.75000000  0.25000000  0.50000000  1
  N  N1  1  0.25000000  0.75000000  0.50000000  1
  N  N2  1  0.75000000  0.75000000  0.86875100  1
  N  N3  1  0.25000000  0.25000000  0.13124900  1
loop_
_geom_bond_atom_site_label_1
_geom_bond_atom_site_label_2
_geom_bond_distance
_geom_bond_site_symmetry_2
N0 Zr0 2.174303 1_555
N0 Zr0 2.174303 1_545
N0 Zr1 2.174303 1_555
N0 Zr1 2.174303 1_655
N1 Zr0 2.174303 1_555
N1 Zr1 2.174303 1_565
N1 Zr0 2.174303 1_455
N1 Zr1 2.174303 1_555
N2 Zr0 2.118181 1_555
N2 Sn0 2.118842 1_556
N3 Zr1 2.118181 1_555
N3 Sn1 2.118842 1_554
