# generated using pymatgen
data_ThP2O9
_symmetry_space_group_name_H-M   'P 1'
_cell_length_a   7.97815900
_cell_length_b   9.71773100
_cell_length_c   20.25564200
_cell_angle_alpha   90.00000000
_cell_angle_beta   90.00000000
_cell_angle_gamma   90.00000000
_symmetry_Int_Tables_number   1
_chemical_formula_structural   ThP2O9
_chemical_formula_sum   'Th8 P16 O72'
_cell_volume   1570.41188352
_cell_formula_units_Z   8
loop_
 _symmetry_equiv_pos_site_id
 _symmetry_equiv_pos_as_xyz
  1  'x, y, z'
loop_
 _atom_site_type_symbol
 _atom_site_label
 _atom_site_symmetry_multiplicity
 _atom_site_fract_x
 _atom_site_fract_y
 _atom_site_fract_z
 _atom_site_occupancy
  Th  Th0  1  0.49709300  0.84829800  0.37229300  1
  Th  Th1  1  0.50290700  0.34829800  0.12770700  1
  Th  Th2  1  0.00290700  0.15170200  0.87229300  1
  Th  Th3  1  0.99709300  0.65170200  0.62770700  1
  Th  Th4  1  0.50290700  0.15170200  0.62770700  1
  Th  Th5  1  0.49709300  0.65170200  0.87229300  1
  Th  Th6  1  0.99709300  0.84829800  0.12770700  1
  Th  Th7  1  0.00290700  0.34829800  0.37229300  1
  P  P0  1  0.24927400  0.59445600  0.03057300  1
  P  P1  1  0.75072600  0.09445600  0.46942700  1
  P  P2  1  0.25072600  0.40554400  0.53057300  1
  P  P3  1  0.74927400  0.90554400  0.96942700  1
  P  P4  1  0.75072600  0.40554400  0.96942700  1
  P  P5  1  0.24927400  0.90554400  0.53057300  1
  P  P6  1  0.74927400  0.59445600  0.46942700  1
  P  P7  1  0.25072600  0.09445600  0.03057300  1
  P  P8  1  0.07509500  0.98161400  0.30506700  1
  P  P9  1  0.92490500  0.48161400  0.19493300  1
  P  P10  1  0.42490500  0.01838600  0.80506700  1
  P  P11  1  0.57509500  0.51838600  0.69493300  1
  P  P12  1  0.92490500  0.01838600  0.69493300  1
  P  P13  1  0.07509500  0.51838600  0.80506700  1
  P  P14  1  0.57509500  0.98161400  0.19493300  1
  P  P15  1  0.42490500  0.48161400  0.30506700  1
  O  O0  1  0.15079600  0.71602700  0.05891000  1
  O  O1  1  0.84920400  0.21602700  0.44109000  1
  O  O2  1  0.34920400  0.28397300  0.55891000  1
  O  O3  1  0.65079600  0.78397300  0.94109000  1
  O  O4  1  0.84920400  0.28397300  0.94109000  1
  O  O5  1  0.15079600  0.78397300  0.55891000  1
  O  O6  1  0.65079600  0.71602700  0.44109000  1
  O  O7  1  0.34920400  0.21602700  0.05891000  1
  O  O8  1  0.37333700  0.53784100  0.08270000  1
  O  O9  1  0.62666300  0.03784100  0.41730000  1
  O  O10  1  0.12666300  0.46215900  0.58270000  1
  O  O11  1  0.87333700  0.96215900  0.91730000  1
  O  O12  1  0.62666300  0.46215900  0.91730000  1
  O  O13  1  0.37333700  0.96215900  0.58270000  1
  O  O14  1  0.87333700  0.53784100  0.41730000  1
  O  O15  1  0.12666300  0.03784100  0.08270000  1
  O  O16  1  0.12863400  0.47047300  0.01249200  1
  O  O17  1  0.87136600  0.97047300  0.48750800  1
  O  O18  1  0.37136600  0.52952700  0.51249200  1
  O  O19  1  0.62863400  0.02952700  0.98750800  1
  O  O20  1  0.87136600  0.52952700  0.98750800  1
  O  O21  1  0.12863400  0.02952700  0.51249200  1
  O  O22  1  0.62863400  0.47047300  0.48750800  1
  O  O23  1  0.37136600  0.97047300  0.01249200  1
  O  O24  1  0.34113200  0.63615500  0.96705400  1
  O  O25  1  0.65886800  0.13615500  0.53294600  1
  O  O26  1  0.15886800  0.36384500  0.46705400  1
  O  O27  1  0.84113200  0.86384500  0.03294600  1
  O  O28  1  0.65886800  0.36384500  0.03294600  1
  O  O29  1  0.34113200  0.86384500  0.46705400  1
  O  O30  1  0.84113200  0.63615500  0.53294600  1
  O  O31  1  0.15886800  0.13615500  0.96705400  1
  O  O32  1  0.91065600  0.90350100  0.34814100  1
  O  O33  1  0.08934400  0.40350100  0.15185900  1
  O  O34  1  0.58934400  0.09649900  0.84814100  1
  O  O35  1  0.41065600  0.59649900  0.65185900  1
  O  O36  1  0.08934400  0.09649900  0.65185900  1
  O  O37  1  0.91065600  0.59649900  0.84814100  1
  O  O38  1  0.41065600  0.90350100  0.15185900  1
  O  O39  1  0.58934400  0.40350100  0.34814100  1
  O  O40  1  0.22862200  0.91798200  0.33658600  1
  O  O41  1  0.77137800  0.41798200  0.16341400  1
  O  O42  1  0.27137800  0.08201800  0.83658600  1
  O  O43  1  0.72862200  0.58201800  0.66341400  1
  O  O44  1  0.77137800  0.08201800  0.66341400  1
  O  O45  1  0.22862200  0.58201800  0.83658600  1
  O  O46  1  0.72862200  0.91798200  0.16341400  1
  O  O47  1  0.27137800  0.41798200  0.33658600  1
  O  O48  1  0.04831000  0.94943800  0.23311400  1
  O  O49  1  0.95169000  0.44943800  0.26688600  1
  O  O50  1  0.45169000  0.05056200  0.73311400  1
  O  O51  1  0.54831000  0.55056200  0.76688600  1
  O  O52  1  0.95169000  0.05056200  0.76688600  1
  O  O53  1  0.04831000  0.55056200  0.73311400  1
  O  O54  1  0.54831000  0.94943800  0.26688600  1
  O  O55  1  0.45169000  0.44943800  0.23311400  1
  O  O56  1  0.04609000  0.13122100  0.32369500  1
  O  O57  1  0.95391000  0.63122100  0.17630500  1
  O  O58  1  0.45391000  0.86877900  0.82369500  1
  O  O59  1  0.54609000  0.36877900  0.67630500  1
  O  O60  1  0.95391000  0.86877900  0.67630500  1
  O  O61  1  0.04609000  0.36877900  0.82369500  1
  O  O62  1  0.54609000  0.13122100  0.17630500  1
  O  O63  1  0.45391000  0.63122100  0.32369500  1
  O  O64  1  0.31397900  0.81566800  0.18582800  1
  O  O65  1  0.68602100  0.31566800  0.31417200  1
  O  O66  1  0.18602100  0.18433200  0.68582800  1
  O  O67  1  0.81397900  0.68433200  0.81417200  1
  O  O68  1  0.68602100  0.18433200  0.81417200  1
  O  O69  1  0.31397900  0.68433200  0.68582800  1
  O  O70  1  0.81397900  0.81566800  0.31417200  1
  O  O71  1  0.18602100  0.31566800  0.18582800  1
loop_
_geom_bond_atom_site_label_1
_geom_bond_atom_site_label_2
_geom_bond_distance
_geom_bond_site_symmetry_2
O0 P0 1.530501 1_555
O0 Th6 2.257839 1_455
O1 P1 1.530501 1_555
O1 Th7 2.257839 1_655
O2 P2 1.530501 1_555
O2 Th4 2.257839 1_555
O3 P3 1.530501 1_555
O3 Th5 2.257839 1_555
O4 P4 1.530501 1_555
O4 Th2 2.257839 1_655
O5 P5 1.530501 1_555
O5 Th3 2.257839 1_455
O6 P6 1.530501 1_555
O6 Th0 2.257839 1_555
O7 P7 1.530501 1_555
O7 Th1 2.257839 1_555
O8 P0 1.548300 1_555
O8 Th1 2.300520 1_555
O9 P1 1.548300 1_555
O9 Th0 2.300520 1_545
O10 P2 1.548300 1_555
O10 Th3 2.300520 1_455
O11 P3 1.548300 1_555
O11 Th2 2.300520 1_665
O12 P4 1.548300 1_555
O12 Th5 2.300520 1_555
O13 P5 1.548300 1_555
O13 Th4 2.300520 1_565
O14 P6 1.548300 1_555
O14 Th7 2.300520 1_655
O15 P7 1.548300 1_555
O15 Th6 2.300520 1_445
O16 P0 1.584971 1_555
O17 P1 1.584971 1_565
O18 P2 1.584971 1_555
O19 P3 1.584971 1_545
O20 P4 1.584971 1_555
O21 P5 1.584971 1_545
O22 P6 1.584971 1_555
O23 P7 1.584971 1_565
O24 P0 1.535145 1_556
O24 Th5 2.292451 1_555
O25 P1 1.535145 1_555
O25 Th4 2.292451 1_555
O26 P2 1.535145 1_555
O26 Th7 2.292451 1_555
O27 P3 1.535145 1_554
O27 Th6 2.292451 1_555
O28 P4 1.535145 1_554
O28 Th1 2.292451 1_555
O29 P5 1.535145 1_555
O29 Th0 2.292451 1_555
O30 P6 1.535145 1_555
O30 Th3 2.292451 1_555
O31 P7 1.535145 1_556
O31 Th2 2.292451 1_555
O32 O70 1.340473 1_555
O32 P8 1.748880 1_655
O33 O71 1.340473 1_555
O33 P9 1.748880 1_455
O34 O68 1.340473 1_555
O34 P10 1.748880 1_555
O35 O69 1.340473 1_555
O35 P11 1.748880 1_555
O36 O66 1.340473 1_555
O36 P12 1.748880 1_455
O37 O67 1.340473 1_555
O37 P13 1.748880 1_655
O38 O64 1.340473 1_555
O38 P14 1.748880 1_555
O39 O65 1.340473 1_555
O39 P15 1.748880 1_555
O40 P8 1.513360 1_555
O40 Th0 2.359964 1_555
O41 P9 1.513360 1_555
O41 Th1 2.359964 1_555
O42 P10 1.513360 1_555
O42 Th2 2.359964 1_555
O43 P11 1.513360 1_555
O43 Th3 2.359964 1_555
O44 P12 1.513360 1_555
O44 Th4 2.359964 1_555
O45 P13 1.513360 1_555
O45 Th5 2.359964 1_555
O46 P14 1.513360 1_555
O46 Th6 2.359964 1_555
O47 P15 1.513360 1_555
O47 Th7 2.359964 1_555
O48 P8 1.505857 1_555
O48 Th6 2.385699 1_455
O49 P9 1.505857 1_555
O49 Th7 2.385699 1_655
O50 P10 1.505857 1_555
O50 Th4 2.385699 1_555
O51 P11 1.505857 1_555
O51 Th5 2.385699 1_555
O52 P12 1.505857 1_555
O52 Th2 2.385699 1_655
O53 P13 1.505857 1_555
O53 Th3 2.385699 1_455
O54 P14 1.505857 1_555
O54 Th0 2.385699 1_555
O55 P15 1.505857 1_555
O55 Th1 2.385699 1_555
O56 P8 1.519728 1_545
O56 Th7 2.353227 1_555
O57 P9 1.519728 1_555
O57 Th6 2.353227 1_555
O58 P10 1.519728 1_565
O58 Th5 2.353227 1_555
O59 P11 1.519728 1_555
O59 Th4 2.353227 1_555
O60 P12 1.519728 1_565
O60 Th3 2.353227 1_555
O61 P13 1.519728 1_555
O61 Th2 2.353227 1_555
O62 P14 1.519728 1_545
O62 Th1 2.353227 1_555
O63 P15 1.519728 1_555
O63 Th0 2.353227 1_555
O64 Th6 2.806806 1_455
O65 Th7 2.806806 1_655
O66 Th4 2.806806 1_555
O67 Th5 2.806806 1_555
O68 Th2 2.806806 1_655
O69 Th3 2.806806 1_455
O70 Th0 2.806806 1_555
O71 Th1 2.806806 1_555
