# generated using pymatgen
data_MoW(SeS)2
_symmetry_space_group_name_H-M   'P 1'
_cell_length_a   3.25412172
_cell_length_b   3.25412172
_cell_length_c   36.95595700
_cell_angle_alpha   90.00000000
_cell_angle_beta   90.00000000
_cell_angle_gamma   119.99999438
_symmetry_Int_Tables_number   1
_chemical_formula_structural   MoW(SeS)2
_chemical_formula_sum   'Mo2 W2 Se4 S4'
_cell_volume   338.90868444
_cell_formula_units_Z   2
loop_
 _symmetry_equiv_pos_site_id
 _symmetry_equiv_pos_as_xyz
  1  'x, y, z'
loop_
 _atom_site_type_symbol
 _atom_site_label
 _atom_site_symmetry_multiplicity
 _atom_site_fract_x
 _atom_site_fract_y
 _atom_site_fract_z
 _atom_site_occupancy
  Mo  Mo0  1  0.33333300  0.66666700  0.71818000  1
  Mo  Mo1  1  0.66666700  0.33333300  0.28182000  1
  W  W0  1  0.33333300  0.66666700  0.09398000  1
  W  W1  1  0.66666700  0.33333300  0.90602000  1
  Se  Se0  1  0.33333300  0.66666700  0.95226800  1
  Se  Se1  1  0.66666700  0.33333300  0.04773200  1
  Se  Se2  1  0.66666700  0.33333300  0.14019800  1
  Se  Se3  1  0.33333300  0.66666700  0.85980200  1
  S  S0  1  0.33333300  0.66666700  0.32360700  1
  S  S1  1  0.66666700  0.33333300  0.67639300  1
  S  S2  1  0.66666700  0.33333300  0.75997100  1
  S  S3  1  0.33333300  0.66666700  0.24002900  1
loop_
_geom_bond_atom_site_label_1
_geom_bond_atom_site_label_2
_geom_bond_distance
_geom_bond_site_symmetry_2
Mo0 S1 2.431987 1_455
Mo0 S1 2.431987 1_565
Mo0 S1 2.431991 1_555
Mo0 S2 2.432081 1_455
Mo0 S2 2.432081 1_565
Mo0 S2 2.432085 1_555
Mo1 S0 2.431987 1_545
Mo1 S0 2.431987 1_655
Mo1 S0 2.431991 1_555
Mo1 S3 2.432081 1_545
Mo1 S3 2.432081 1_655
Mo1 S3 2.432085 1_555
Se0 W1 2.539866 1_455
Se0 W1 2.539866 1_565
Se0 W1 2.539870 1_555
Se1 W0 2.539866 1_545
Se1 W0 2.539866 1_655
Se1 W0 2.539870 1_555
Se2 W0 2.539120 1_655
Se2 W0 2.539120 1_545
Se2 W0 2.539124 1_555
Se3 W1 2.539120 1_455
Se3 W1 2.539120 1_565
Se3 W1 2.539124 1_555
