# generated using pymatgen
data_YbOs2
_symmetry_space_group_name_H-M   'P 1'
_cell_length_a   5.24371192
_cell_length_b   5.24371192
_cell_length_c   8.78185523
_cell_angle_alpha   90.00000000
_cell_angle_beta   90.00000000
_cell_angle_gamma   119.99999412
_symmetry_Int_Tables_number   1
_chemical_formula_structural   YbOs2
_chemical_formula_sum   'Yb4 Os8'
_cell_volume   209.11952334
_cell_formula_units_Z   4
loop_
 _symmetry_equiv_pos_site_id
 _symmetry_equiv_pos_as_xyz
  1  'x, y, z'
loop_
 _atom_site_type_symbol
 _atom_site_label
 _atom_site_symmetry_multiplicity
 _atom_site_fract_x
 _atom_site_fract_y
 _atom_site_fract_z
 _atom_site_occupancy
  Yb  Yb0  1  0.33333300  0.66666700  0.56602035  1
  Yb  Yb1  1  0.66666700  0.33333300  0.43397965  1
  Yb  Yb2  1  0.66666700  0.33333300  0.06602035  1
  Yb  Yb3  1  0.33333300  0.66666700  0.93397965  1
  Os  Os0  1  0.00000000  0.00000000  0.50000000  1
  Os  Os1  1  0.00000000  0.00000000  0.00000000  1
  Os  Os2  1  0.82783781  0.17216219  0.75000000  1
  Os  Os3  1  0.34432438  0.17216219  0.75000000  1
  Os  Os4  1  0.82783781  0.65567562  0.75000000  1
  Os  Os5  1  0.17216219  0.82783781  0.25000000  1
  Os  Os6  1  0.65567562  0.82783781  0.25000000  1
  Os  Os7  1  0.17216219  0.34432438  0.25000000  1
loop_
_geom_bond_atom_site_label_1
_geom_bond_atom_site_label_2
_geom_bond_distance
_geom_bond_site_symmetry_2
Yb0 Yb3 3.231365 1_555
Yb0 Yb1 3.241924 1_565
Yb0 Yb1 3.241924 1_455
Yb0 Yb1 3.241932 1_555
Yb1 Yb2 3.231365 1_555
Yb2 Yb3 3.241924 1_654
Yb2 Yb3 3.241924 1_544
Yb2 Yb3 3.241932 1_554
Os0 Os2 2.695373 1_455
Os0 Os5 2.695373 1_545
Os0 Os7 2.695373 1_555
Os0 Os3 2.695373 1_555
Os0 Os4 2.695373 1_445
Os0 Os6 2.695373 1_445
Os0 Yb0 3.082472 1_545
Os0 Yb1 3.082472 1_455
Os0 Yb0 3.082476 1_555
Os0 Yb1 3.082476 1_555
Os0 Yb0 3.082476 1_445
Os0 Yb1 3.082476 1_445
Os1 Os2 2.695373 1_454
Os1 Os5 2.695373 1_545
Os1 Os7 2.695373 1_555
Os1 Os3 2.695373 1_554
Os1 Os4 2.695373 1_444
Os1 Os6 2.695373 1_445
Os1 Yb2 3.082472 1_455
Os1 Yb3 3.082472 1_544
Os1 Yb2 3.082476 1_555
Os1 Yb3 3.082476 1_554
Os1 Yb2 3.082476 1_445
Os1 Yb3 3.082476 1_444
Os2 Os3 2.535405 1_555
Os2 Os4 2.535405 1_555
Os2 Os4 2.708307 1_545
Os2 Os3 2.708307 1_655
Os2 Yb3 3.080106 1_655
Os2 Yb3 3.080106 1_545
Os2 Yb0 3.080106 1_655
Os2 Yb0 3.080106 1_545
Os2 Yb2 3.137632 1_556
Os2 Yb1 3.137632 1_555
Os3 Os4 2.535405 1_555
Os3 Os4 2.708307 1_445
Os3 Yb3 3.080103 1_545
Os3 Yb0 3.080103 1_545
Os3 Yb3 3.080108 1_555
Os3 Yb0 3.080108 1_555
Os3 Yb2 3.137634 1_556
Os3 Yb1 3.137634 1_555
Os4 Yb3 3.080103 1_655
Os4 Yb0 3.080103 1_655
Os4 Yb3 3.080108 1_555
Os4 Yb0 3.080108 1_555
Os4 Yb2 3.137634 1_556
Os4 Yb1 3.137634 1_555
Os5 Os7 2.535405 1_555
Os5 Os6 2.535405 1_555
Os5 Os6 2.708307 1_455
Os5 Os7 2.708307 1_565
Os5 Yb1 3.080106 1_565
Os5 Yb1 3.080106 1_455
Os5 Yb2 3.080106 1_565
Os5 Yb2 3.080106 1_455
Os5 Yb0 3.137632 1_555
Os5 Yb3 3.137632 1_554
Os6 Os7 2.535405 1_555
Os6 Os7 2.708307 1_665
Os6 Yb1 3.080103 1_565
Os6 Yb2 3.080103 1_565
Os6 Yb1 3.080108 1_555
Os6 Yb2 3.080108 1_555
Os6 Yb0 3.137634 1_555
Os6 Yb3 3.137634 1_554
Os7 Yb1 3.080103 1_455
Os7 Yb2 3.080103 1_455
Os7 Yb1 3.080108 1_555
Os7 Yb2 3.080108 1_555
Os7 Yb0 3.137634 1_555
Os7 Yb3 3.137634 1_554
