# generated using pymatgen
data_NdIn2Cu9
_symmetry_space_group_name_H-M   'P 1'
_cell_length_a   8.51036100
_cell_length_b   8.51036100
_cell_length_c   5.04108800
_cell_angle_alpha   90.00000000
_cell_angle_beta   90.00000000
_cell_angle_gamma   90.00000000
_symmetry_Int_Tables_number   1
_chemical_formula_structural   NdIn2Cu9
_chemical_formula_sum   'Nd2 In4 Cu18'
_cell_volume   365.10707128
_cell_formula_units_Z   2
loop_
 _symmetry_equiv_pos_site_id
 _symmetry_equiv_pos_as_xyz
  1  'x, y, z'
loop_
 _atom_site_type_symbol
 _atom_site_label
 _atom_site_symmetry_multiplicity
 _atom_site_fract_x
 _atom_site_fract_y
 _atom_site_fract_z
 _atom_site_occupancy
  Nd  Nd0  1  0.00000000  0.00000000  0.00000000  1
  Nd  Nd1  1  0.50000000  0.50000000  0.00000000  1
  In  In0  1  0.12275900  0.62275900  0.00000000  1
  In  In1  1  0.87724100  0.37724100  0.00000000  1
  In  In2  1  0.62275900  0.87724100  0.00000000  1
  In  In3  1  0.37724100  0.12275900  0.00000000  1
  Cu  Cu0  1  0.50000000  0.00000000  0.50000000  1
  Cu  Cu1  1  0.00000000  0.50000000  0.50000000  1
  Cu  Cu2  1  0.20661200  0.06391500  0.50000000  1
  Cu  Cu3  1  0.79338800  0.93608500  0.50000000  1
  Cu  Cu4  1  0.06391500  0.79338800  0.50000000  1
  Cu  Cu5  1  0.70661200  0.43608500  0.50000000  1
  Cu  Cu6  1  0.93608500  0.20661200  0.50000000  1
  Cu  Cu7  1  0.29338800  0.56391500  0.50000000  1
  Cu  Cu8  1  0.56391500  0.70661200  0.50000000  1
  Cu  Cu9  1  0.43608500  0.29338800  0.50000000  1
  Cu  Cu10  1  0.67678000  0.17678000  0.24680200  1
  Cu  Cu11  1  0.32322000  0.82322000  0.75319800  1
  Cu  Cu12  1  0.32322000  0.82322000  0.24680200  1
  Cu  Cu13  1  0.17678000  0.32322000  0.24680200  1
  Cu  Cu14  1  0.17678000  0.32322000  0.75319800  1
  Cu  Cu15  1  0.67678000  0.17678000  0.75319800  1
  Cu  Cu16  1  0.82322000  0.67678000  0.75319800  1
  Cu  Cu17  1  0.82322000  0.67678000  0.24680200  1
loop_
_geom_bond_atom_site_label_1
_geom_bond_atom_site_label_2
_geom_bond_distance
_geom_bond_site_symmetry_2
In0 In1 2.954924 1_455
In0 Nd1 3.376164 1_555
In0 Nd0 3.376164 1_565
In1 Nd1 3.376164 1_555
In1 Nd0 3.376164 1_655
In2 In3 2.954924 1_565
In2 Nd1 3.376164 1_555
In2 Nd0 3.376164 1_665
In3 Nd0 3.376164 1_555
In3 Nd1 3.376164 1_555
Cu0 Cu11 2.481127 1_545
Cu0 Cu15 2.481127 1_555
Cu0 Cu12 2.481127 1_545
Cu0 Cu10 2.481127 1_555
Cu0 Cu8 2.555400 1_545
Cu0 Cu9 2.555400 1_555
Cu0 Cu2 2.555400 1_555
Cu0 Cu3 2.555400 1_545
Cu0 In3 2.921650 1_556
Cu0 In3 2.921650 1_555
Cu0 In2 2.921650 1_545
Cu0 In2 2.921650 1_546
Cu1 Cu16 2.481127 1_455
Cu1 Cu14 2.481127 1_555
Cu1 Cu17 2.481127 1_455
Cu1 Cu13 2.481127 1_555
Cu1 Cu7 2.555400 1_555
Cu1 Cu5 2.555400 1_455
Cu1 Cu4 2.555400 1_555
Cu1 Cu6 2.555400 1_455
Cu1 In0 2.921650 1_556
Cu1 In0 2.921650 1_555
Cu1 In1 2.921650 1_455
Cu1 In1 2.921650 1_456
Cu2 Cu4 2.602937 1_545
Cu2 Cu6 2.602937 1_455
Cu2 Cu9 2.761815 1_555
Cu2 In3 2.951705 1_555
Cu2 In3 2.951705 1_556
Cu2 Nd0 3.121023 1_556
Cu2 Nd0 3.121023 1_555
Cu3 Cu4 2.602937 1_655
Cu3 Cu6 2.602937 1_565
Cu3 Cu8 2.761815 1_555
Cu3 In2 2.951705 1_555
Cu3 In2 2.951705 1_556
Cu3 Nd0 3.121023 1_665
Cu3 Nd0 3.121023 1_666
Cu4 Cu7 2.761815 1_555
Cu4 In0 2.951705 1_555
Cu4 In0 2.951705 1_556
Cu4 Nd0 3.121023 1_565
Cu4 Nd0 3.121023 1_566
Cu5 Cu9 2.602937 1_555
Cu5 Cu8 2.602937 1_555
Cu5 Cu6 2.761815 1_555
Cu5 In1 2.951705 1_555
Cu5 In1 2.951705 1_556
Cu5 Nd1 3.121023 1_556
Cu5 Nd1 3.121023 1_555
Cu6 In1 2.951705 1_555
Cu6 In1 2.951705 1_556
Cu6 Nd0 3.121023 1_656
Cu6 Nd0 3.121023 1_655
Cu7 Cu9 2.602937 1_555
Cu7 Cu8 2.602937 1_555
Cu7 In0 2.951705 1_556
Cu7 In0 2.951705 1_555
Cu7 Nd1 3.121023 1_555
Cu7 Nd1 3.121023 1_556
Cu8 In2 2.951705 1_555
Cu8 In2 2.951705 1_556
Cu8 Nd1 3.121023 1_555
Cu8 Nd1 3.121023 1_556
Cu9 In3 2.951705 1_556
Cu9 In3 2.951705 1_555
Cu9 Nd1 3.121023 1_556
Cu9 Nd1 3.121023 1_555
Cu10 Cu15 2.488301 1_554
Cu10 Cu15 2.552787 1_555
Cu10 Cu6 2.561935 1_555
Cu10 Cu5 2.561935 1_555
Cu10 Cu3 2.609586 1_545
Cu10 Cu9 2.609586 1_555
Cu10 In1 2.714545 1_555
Cu10 In3 2.873606 1_555
Cu10 In2 2.873606 1_545
Cu10 Nd1 3.373095 1_555
Cu10 Nd0 3.373095 1_655
Cu11 Cu12 2.488301 1_556
Cu11 Cu12 2.552787 1_555
Cu11 Cu4 2.561935 1_555
Cu11 Cu7 2.561935 1_555
Cu11 Cu8 2.609586 1_555
Cu11 Cu2 2.609586 1_565
Cu11 In0 2.714545 1_556
Cu11 In2 2.873606 1_556
Cu11 In3 2.873606 1_566
Cu11 Nd0 3.373095 1_566
Cu11 Nd1 3.373095 1_556
Cu12 Cu4 2.561935 1_555
Cu12 Cu7 2.561935 1_555
Cu12 Cu8 2.609586 1_555
Cu12 Cu2 2.609586 1_565
Cu12 In0 2.714545 1_555
Cu12 In2 2.873606 1_555
Cu12 In3 2.873606 1_565
Cu12 Nd0 3.373095 1_565
Cu12 Nd1 3.373095 1_555
Cu13 Cu14 2.488301 1_554
Cu13 Cu14 2.552787 1_555
Cu13 Cu9 2.561935 1_555
Cu13 Cu2 2.561935 1_555
Cu13 Cu7 2.609586 1_555
Cu13 Cu6 2.609586 1_455
Cu13 In3 2.714545 1_555
Cu13 In0 2.873606 1_555
Cu13 In1 2.873606 1_455
Cu13 Nd1 3.373095 1_555
Cu13 Nd0 3.373095 1_555
Cu14 Cu2 2.561935 1_555
Cu14 Cu9 2.561935 1_555
Cu14 Cu7 2.609586 1_555
Cu14 Cu6 2.609586 1_455
Cu14 In3 2.714545 1_556
Cu14 In0 2.873606 1_556
Cu14 In1 2.873606 1_456
Cu14 Nd1 3.373095 1_556
Cu14 Nd0 3.373095 1_556
Cu15 Cu6 2.561935 1_555
Cu15 Cu5 2.561935 1_555
Cu15 Cu3 2.609586 1_545
Cu15 Cu9 2.609586 1_555
Cu15 In1 2.714545 1_556
Cu15 In3 2.873606 1_556
Cu15 In2 2.873606 1_546
Cu15 Nd1 3.373095 1_556
Cu15 Nd0 3.373095 1_656
Cu16 Cu17 2.488301 1_556
Cu16 Cu17 2.552787 1_555
Cu16 Cu3 2.561935 1_555
Cu16 Cu8 2.561935 1_555
Cu16 Cu4 2.609586 1_655
Cu16 Cu5 2.609586 1_555
Cu16 In2 2.714545 1_556
Cu16 In1 2.873606 1_556
Cu16 In0 2.873606 1_656
Cu16 Nd0 3.373095 1_666
Cu16 Nd1 3.373095 1_556
Cu17 Cu3 2.561935 1_555
Cu17 Cu8 2.561935 1_555
Cu17 Cu4 2.609586 1_655
Cu17 Cu5 2.609586 1_555
Cu17 In2 2.714545 1_555
Cu17 In1 2.873606 1_555
Cu17 In0 2.873606 1_655
Cu17 Nd0 3.373095 1_665
Cu17 Nd1 3.373095 1_555
