# generated using pymatgen
data_Cs4Hf3Se14
_symmetry_space_group_name_H-M   'P 1'
_cell_length_a   12.45681852
_cell_length_b   12.45681852
_cell_length_c   15.04574857
_cell_angle_alpha   68.53544058
_cell_angle_beta   68.53544058
_cell_angle_gamma   43.07944093
_symmetry_Int_Tables_number   1
_chemical_formula_structural   Cs4Hf3Se14
_chemical_formula_sum   'Cs8 Hf6 Se28'
_cell_volume   1466.03882082
_cell_formula_units_Z   2
loop_
 _symmetry_equiv_pos_site_id
 _symmetry_equiv_pos_as_xyz
  1  'x, y, z'
loop_
 _atom_site_type_symbol
 _atom_site_label
 _atom_site_symmetry_multiplicity
 _atom_site_fract_x
 _atom_site_fract_y
 _atom_site_fract_z
 _atom_site_occupancy
  Cs  Cs0  1  0.97627800  0.62148400  0.60985100  1
  Cs  Cs1  1  0.37851600  0.02372200  0.89014900  1
  Cs  Cs2  1  0.02372200  0.37851600  0.39014900  1
  Cs  Cs3  1  0.62148400  0.97627800  0.10985100  1
  Cs  Cs4  1  0.80967000  0.31775900  0.84807100  1
  Cs  Cs5  1  0.68224100  0.19033000  0.65192900  1
  Cs  Cs6  1  0.19033000  0.68224100  0.15192900  1
  Cs  Cs7  1  0.31775900  0.80967000  0.34807100  1
  Hf  Hf0  1  0.07499500  0.58934400  0.91481700  1
  Hf  Hf1  1  0.41065600  0.92500500  0.58518300  1
  Hf  Hf2  1  0.92500500  0.41065600  0.08518300  1
  Hf  Hf3  1  0.58934400  0.07499500  0.41481700  1
  Hf  Hf4  1  0.23906700  0.76093300  0.75000000  1
  Hf  Hf5  1  0.76093300  0.23906700  0.25000000  1
  Se  Se0  1  0.12935300  0.80020300  0.60429900  1
  Se  Se1  1  0.19979700  0.87064700  0.89570100  1
  Se  Se2  1  0.87064700  0.19979700  0.39570100  1
  Se  Se3  1  0.80020300  0.12935300  0.10429900  1
  Se  Se4  1  0.33053400  0.54156500  0.91839900  1
  Se  Se5  1  0.45843500  0.66946600  0.58160100  1
  Se  Se6  1  0.66946600  0.45843500  0.08160100  1
  Se  Se7  1  0.54156500  0.33053400  0.41839900  1
  Se  Se8  1  0.94111900  0.89787400  0.86709700  1
  Se  Se9  1  0.10212600  0.05888100  0.63290300  1
  Se  Se10  1  0.05888100  0.10212600  0.13290300  1
  Se  Se11  1  0.89787400  0.94111900  0.36709700  1
  Se  Se12  1  0.25121800  0.54855200  0.72359700  1
  Se  Se13  1  0.45144800  0.74878200  0.77640300  1
  Se  Se14  1  0.74878200  0.45144800  0.27640300  1
  Se  Se15  1  0.54855200  0.25121800  0.22359700  1
  Se  Se16  1  0.00458000  0.43533100  0.90062600  1
  Se  Se17  1  0.56466900  0.99542000  0.59937400  1
  Se  Se18  1  0.99542000  0.56466900  0.09937400  1
  Se  Se19  1  0.43533100  0.00458000  0.40062600  1
  Se  Se20  1  0.16254200  0.18792100  0.66268900  1
  Se  Se21  1  0.81207900  0.83745800  0.83731100  1
  Se  Se22  1  0.83745800  0.81207900  0.33731100  1
  Se  Se23  1  0.18792100  0.16254200  0.16268900  1
  Se  Se24  1  0.68218500  0.60948000  0.60936800  1
  Se  Se25  1  0.39052000  0.31781500  0.89063200  1
  Se  Se26  1  0.31781500  0.39052000  0.39063200  1
  Se  Se27  1  0.60948000  0.68218500  0.10936800  1
loop_
_geom_bond_atom_site_label_1
_geom_bond_atom_site_label_2
_geom_bond_distance
_geom_bond_site_symmetry_2
Cs0 Se17 3.629986 1_555
Cs0 Se12 3.753721 1_655
Cs0 Se24 3.776757 1_555
Cs0 Se0 3.814171 1_655
Cs0 Se20 3.884098 1_655
Cs0 Se26 4.006380 1_655
Cs0 Se11 4.053932 1_555
Cs0 Se21 4.087853 1_555
Cs0 Se16 4.141431 1_655
Cs0 Se22 4.184352 1_555
Cs1 Se16 3.629986 1_555
Cs1 Se13 3.753721 1_545
Cs1 Se25 3.776757 1_555
Cs1 Se1 3.814171 1_545
Cs1 Se21 3.884098 1_545
Cs1 Se27 4.006380 1_546
Cs1 Se10 4.053932 1_556
Cs1 Se20 4.087853 1_555
Cs1 Se17 4.141431 1_545
Cs1 Se23 4.184352 1_556
Cs2 Se19 3.629986 1_555
Cs2 Se14 3.753721 1_455
Cs2 Se26 3.776757 1_555
Cs2 Se2 3.814171 1_455
Cs2 Se22 3.884098 1_455
Cs2 Se24 4.006380 1_455
Cs2 Se9 4.053932 1_555
Cs2 Se23 4.087853 1_555
Cs2 Se18 4.141431 1_455
Cs2 Se20 4.184352 1_555
Cs3 Se18 3.629986 1_555
Cs3 Se15 3.753721 1_565
Cs3 Se27 3.776757 1_555
Cs3 Se3 3.814171 1_565
Cs3 Se23 3.884098 1_565
Cs3 Se25 4.006380 1_564
Cs3 Se8 4.053932 1_554
Cs3 Se22 4.087853 1_555
Cs3 Se19 4.141431 1_565
Cs3 Se21 4.184352 1_554
Cs4 Se20 3.696026 1_655
Cs4 Se3 3.719423 1_556
Cs4 Se6 3.743122 1_556
Cs4 Se13 3.766665 1_555
Cs4 Se24 3.849461 1_555
Cs4 Se1 3.903737 1_645
Cs4 Se9 3.999863 1_655
Cs4 Se16 4.014019 1_655
Cs4 Se8 4.105688 1_545
Cs4 Se4 4.212443 1_555
Cs5 Se21 3.696026 1_545
Cs5 Se2 3.719423 1_555
Cs5 Se7 3.743122 1_555
Cs5 Se12 3.766665 1_555
Cs5 Se25 3.849461 1_555
Cs5 Se0 3.903737 1_645
Cs5 Se8 3.999863 1_545
Cs5 Se17 4.014019 1_545
Cs5 Se9 4.105688 1_655
Cs5 Se5 4.212443 1_555
Cs6 Se22 3.696026 1_455
Cs6 Se1 3.719423 1_554
Cs6 Se4 3.743122 1_554
Cs6 Se15 3.766665 1_555
Cs6 Se26 3.849461 1_555
Cs6 Se3 3.903737 1_465
Cs6 Se11 3.999863 1_455
Cs6 Se18 4.014019 1_455
Cs6 Se10 4.105688 1_565
Cs6 Se6 4.212443 1_555
Cs7 Se23 3.696026 1_565
Cs7 Se0 3.719423 1_555
Cs7 Se5 3.743122 1_555
Cs7 Se14 3.766665 1_555
Cs7 Se27 3.849461 1_555
Cs7 Se2 3.903737 1_465
Cs7 Se10 3.999863 1_565
Cs7 Se19 4.014019 1_565
Cs7 Se11 4.105688 1_455
Cs7 Se7 4.212443 1_555
Hf0 Se18 2.567817 1_456
Hf0 Se21 2.647465 1_455
Hf0 Se16 2.718602 1_555
Hf0 Se25 2.730364 1_555
Hf0 Se8 2.749820 1_455
Hf0 Se4 2.797212 1_555
Hf0 Se12 2.858804 1_555
Hf1 Se19 2.567817 1_565
Hf1 Se20 2.647465 1_565
Hf1 Se17 2.718602 1_555
Hf1 Se24 2.730364 1_555
Hf1 Se9 2.749820 1_565
Hf1 Se5 2.797212 1_555
Hf1 Se13 2.858804 1_555
Hf2 Se16 2.567817 1_654
Hf2 Se23 2.647465 1_655
Hf2 Se18 2.718602 1_555
Hf2 Se27 2.730364 1_555
Hf2 Se10 2.749820 1_655
Hf2 Se6 2.797212 1_555
Hf2 Se14 2.858804 1_555
Hf3 Se17 2.567817 1_545
Hf3 Se22 2.647465 1_545
Hf3 Se19 2.718602 1_555
Hf3 Se26 2.730364 1_555
Hf3 Se11 2.749820 1_545
Hf3 Se7 2.797212 1_555
Hf3 Se15 2.858804 1_555
Hf4 Se12 2.705559 1_555
Hf4 Se13 2.705559 1_555
Hf4 Se0 2.709978 1_555
Hf4 Se1 2.709978 1_555
Hf4 Se5 2.771721 1_555
Hf4 Se4 2.771721 1_555
Hf4 Se8 2.820324 1_455
Hf4 Se9 2.820324 1_565
Hf5 Se15 2.705559 1_555
Hf5 Se14 2.705559 1_555
Hf5 Se3 2.709978 1_555
Hf5 Se2 2.709978 1_555
Hf5 Se6 2.771721 1_555
Hf5 Se7 2.771721 1_555
Hf5 Se10 2.820324 1_655
Hf5 Se11 2.820324 1_545
Se0 Se12 2.505521 1_555
Se1 Se13 2.505521 1_555
Se12 Se25 2.864895 1_555
Se13 Se24 2.864895 1_555
Se14 Se2 2.505521 1_555
Se14 Se27 2.864895 1_555
Se15 Se3 2.505521 1_555
Se15 Se26 2.864895 1_555
Se24 Se5 2.466320 1_555
Se25 Se4 2.466320 1_555
Se26 Se7 2.466320 1_555
Se27 Se6 2.466320 1_555
