# generated using pymatgen
data_Zn2GaP3H8(NO6)2
_symmetry_space_group_name_H-M   'P 1'
_cell_length_a   11.75657600
_cell_length_b   11.79231087
_cell_length_c   11.81294329
_cell_angle_alpha   109.38836874
_cell_angle_beta   109.55634924
_cell_angle_gamma   109.32785611
_symmetry_Int_Tables_number   1
_chemical_formula_structural   Zn2GaP3H8(NO6)2
_chemical_formula_sum   'Zn8 Ga4 P12 H32 N8 O48'
_cell_volume   1262.89869028
_cell_formula_units_Z   4
loop_
 _symmetry_equiv_pos_site_id
 _symmetry_equiv_pos_as_xyz
  1  'x, y, z'
loop_
 _atom_site_type_symbol
 _atom_site_label
 _atom_site_symmetry_multiplicity
 _atom_site_fract_x
 _atom_site_fract_y
 _atom_site_fract_z
 _atom_site_occupancy
  Zn  Zn0  1  0.23004400  0.20235100  0.27082100  1
  Zn  Zn1  1  0.02997200  0.56872400  0.30011500  1
  Zn  Zn2  1  0.04544600  0.97203800  0.77218000  1
  Zn  Zn3  1  0.46463900  0.76692000  0.53909200  1
  Zn  Zn4  1  0.69947000  0.27280600  0.72924400  1
  Zn  Zn5  1  0.07450300  0.29867700  0.52511000  1
  Zn  Zn6  1  0.42743100  0.96061600  0.22932500  1
  Zn  Zn7  1  0.77358600  0.72713100  0.20294800  1
  Ga  Ga0  1  0.46052800  0.22738700  0.92902400  1
  Ga  Ga1  1  0.26671000  0.54586300  0.96771900  1
  Ga  Ga2  1  0.72243900  0.92222100  0.95743500  1
  Ga  Ga3  1  0.80029400  0.53461400  0.57757900  1
  P  P0  1  0.30551000  0.07474600  0.03410800  1
  P  P1  1  0.22802700  0.46084800  0.42420200  1
  P  P2  1  0.76455100  0.45898800  0.03892600  1
  P  P3  1  0.19949500  0.24107100  0.77949700  1
  P  P4  1  0.26962200  0.69625700  0.22856500  1
  P  P5  1  0.73974000  0.77830800  0.70379100  1
  P  P6  1  0.96298600  0.42505700  0.72205500  1
  P  P7  1  0.95807900  0.03741000  0.26272500  1
  P  P8  1  0.57247300  0.03281800  0.80174200  1
  P  P9  1  0.54167400  0.27154800  0.46685800  1
  P  P10  1  0.53664500  0.79691400  0.07440500  1
  P  P11  1  0.92033100  0.72503000  0.46241300  1
  H  H0  1  0.26782500  0.05867600  0.59853300  1
  H  H1  1  0.20530600  0.03944000  0.43755800  1
  H  H2  1  0.16559000  0.89776600  0.45854200  1
  H  H3  1  0.22982500  0.83194100  0.79005100  1
  H  H4  1  0.28851800  0.72996800  0.82981700  1
  H  H5  1  0.33169200  0.79084600  0.73096200  1
  H  H6  1  0.54008900  0.43925900  0.70700700  1
  H  H7  1  0.39638700  0.45801700  0.66452100  1
  H  H8  1  0.55758400  0.59907100  0.76769600  1
  H  H9  1  0.95884100  0.66946600  0.90131500  1
  H  H10  1  0.10159000  0.76806000  0.06156900  1
  H  H11  1  0.93892200  0.70818000  0.04168800  1
  H  H12  1  0.33175900  0.99878200  0.49763400  1
  H  H13  1  0.16553400  0.66493100  0.66363700  1
  H  H14  1  0.49923000  0.49926800  0.83258500  1
  H  H15  1  0.00061600  0.83447200  0.00155300  1
  H  H16  1  0.85793000  0.99902400  0.49928400  1
  H  H17  1  0.64122200  0.14299200  0.14457200  1
  H  H18  1  0.49602100  0.49858000  0.35711000  1
  H  H19  1  0.99943800  0.35880400  0.00260300  1
  H  H20  1  0.73121200  0.93293500  0.53367900  1
  H  H21  1  0.79823700  0.10059500  0.56630100  1
  H  H22  1  0.69721200  0.96599400  0.39882300  1
  H  H23  1  0.76902300  0.30352100  0.20180200  1
  H  H24  1  0.70447000  0.27037200  0.30417600  1
  H  H25  1  0.80469100  0.20204600  0.26906200  1
  H  H26  1  0.60217100  0.56742000  0.30025500  1
  H  H27  1  0.46658800  0.40014600  0.19836900  1
  H  H28  1  0.43297800  0.53378700  0.23073400  1
  H  H29  1  0.90123000  0.19868800  0.96891000  1
  H  H30  1  0.03592100  0.23276800  0.93595400  1
  H  H31  1  0.06849100  0.30000000  0.10473400  1
  N  N0  1  0.24419100  0.99870800  0.49803200  1
  N  N1  1  0.25159400  0.75243500  0.75169600  1
  N  N2  1  0.49805700  0.49866500  0.74495500  1
  N  N3  1  0.99986600  0.74698200  0.00178600  1
  N  N4  1  0.77057700  0.99977000  0.49963300  1
  N  N5  1  0.73025000  0.22985700  0.23006800  1
  N  N6  1  0.49975500  0.50026100  0.27164700  1
  N  N7  1  0.00138600  0.27203500  0.00256200  1
  O  O0  1  0.60309100  0.39615400  0.98595200  1
  O  O1  1  0.21044900  0.09097000  0.09285900  1
  O  O2  1  0.12334100  0.51329200  0.42150900  1
  O  O3  1  0.89539100  0.88255800  0.80239700  1
  O  O4  1  0.29358900  0.40039200  0.88725200  1
  O  O5  1  0.38250700  0.79119400  0.38208600  1
  O  O6  1  0.59149700  0.09401400  0.70974000  1
  O  O7  1  0.01453200  0.41755400  0.61855400  1
  O  O8  1  0.89322400  0.98558000  0.10191300  1
  O  O9  1  0.90905900  0.61784200  0.51630700  1
  O  O10  1  0.50148400  0.11800400  0.40877300  1
  O  O11  1  0.59376700  0.69868900  0.08024900  1
  O  O12  1  0.51950100  0.09923300  0.89513400  1
  O  O13  1  0.42890200  0.30255100  0.39991300  1
  O  O14  1  0.12513100  0.59960000  0.19682200  1
  O  O15  1  0.97192500  0.87108200  0.57504700  1
  O  O16  1  0.08087800  0.48955700  0.87356300  1
  O  O17  1  0.37594700  0.57234900  0.47499300  1
  O  O18  1  0.79691300  0.39675000  0.92596800  1
  O  O19  1  0.11214800  0.20631000  0.63181000  1
  O  O20  1  0.58954000  0.88329500  0.00923600  1
  O  O21  1  0.70789800  0.62774000  0.61815100  1
  O  O22  1  0.40395500  0.02750100  0.09838900  1
  O  O23  1  0.89580000  0.92401600  0.29477800  1
  O  O24  1  0.30595500  0.18704000  0.77556000  1
  O  O25  1  0.11498300  0.08411900  0.31863400  1
  O  O26  1  0.02848800  0.73396900  0.41339500  1
  O  O27  1  0.21337900  0.96959900  0.87532400  1
  O  O28  1  0.37433000  0.70074700  0.96581900  1
  O  O29  1  0.46576400  0.87582400  0.70938200  1
  O  O30  1  0.59290600  0.33576700  0.62509500  1
  O  O31  1  0.24333800  0.40668000  0.53011200  1
  O  O32  1  0.67408300  0.76715800  0.80025000  1
  O  O33  1  0.90902000  0.53323200  0.73360200  1
  O  O34  1  0.25799300  0.79020100  0.16315400  1
  O  O35  1  0.82170100  0.61530100  0.08537800  1
  O  O36  1  0.40331800  0.22267400  0.05682300  1
  O  O37  1  0.17195100  0.34157300  0.27572400  1
  O  O38  1  0.82974700  0.43370100  0.15989100  1
  O  O39  1  0.10769500  0.17101600  0.83085700  1
  O  O40  1  0.31933800  0.59871100  0.15195400  1
  O  O41  1  0.66649800  0.82133800  0.60451200  1
  O  O42  1  0.84800400  0.28286800  0.68058500  1
  O  O43  1  0.93300500  0.15815400  0.32946600  1
  O  O44  1  0.71627100  0.05543100  0.90580800  1
  O  O45  1  0.66893500  0.34938200  0.44777500  1
  O  O46  1  0.56367400  0.89677000  0.21624200  1
  O  O47  1  0.77314000  0.66964700  0.34197200  1
loop_
_geom_bond_atom_site_label_1
_geom_bond_atom_site_label_2
_geom_bond_distance
_geom_bond_site_symmetry_2
Ga0 O0 1.836016 1_555
Ga0 O12 1.844583 1_555
Ga0 O36 1.856167 1_556
Ga0 O24 1.861377 1_555
Ga1 O16 1.836773 1_555
Ga1 O4 1.850254 1_555
Ga1 O40 1.857553 1_556
Ga1 O28 1.858432 1_555
Ga2 O8 1.835413 1_556
Ga2 O20 1.837983 1_556
Ga2 O32 1.861584 1_555
Ga2 O44 1.877934 1_565
Ga3 O9 1.839224 1_555
Ga3 O21 1.845093 1_555
Ga3 O45 1.861550 1_555
Ga3 O33 1.867533 1_555
H0 N0 1.038479 1_545
H1 N0 1.050986 1_545
H2 N0 1.050266 1_555
H3 N1 1.050823 1_555
H3 O27 1.714552 1_555
H4 N1 1.039488 1_555
H5 N1 1.047683 1_555
H5 O29 1.716599 1_555
H6 N2 1.051110 1_555
H6 O30 1.712045 1_555
H7 N2 1.057977 1_555
H7 O31 1.689154 1_555
H8 N2 1.038409 1_555
H9 N3 1.039928 1_556
H10 N3 1.054526 1_455
H10 O34 1.698892 1_555
H11 N3 1.047467 1_555
H12 N0 1.030796 1_555
H13 N1 1.030622 1_555
H14 N2 1.028253 1_555
H15 N3 1.029752 1_455
H16 N4 1.031289 1_555
H17 N5 1.029824 1_555
H18 N6 1.031471 1_555
H19 N7 1.030858 1_655
H20 N4 1.044372 1_555
H21 N4 1.044285 1_545
H22 N4 1.044402 1_555
H23 N5 1.051774 1_555
H24 N5 1.040333 1_555
H25 N5 1.051698 1_555
H26 N6 1.053496 1_555
H27 N6 1.042084 1_555
H28 N6 1.041401 1_555
H29 N7 1.037693 1_656
H30 N7 1.046323 1_556
H31 N7 1.055436 1_555
O0 P2 1.584212 1_556
O1 P0 1.529680 1_555
O1 Zn0 1.959566 1_555
O2 P1 1.545607 1_555
O2 Zn1 1.931878 1_555
O3 P5 1.532928 1_555
O3 Zn2 1.947415 1_655
O4 P3 1.570838 1_555
O5 P4 1.536480 1_555
O5 Zn3 1.946981 1_555
O6 P8 1.525965 1_555
O6 Zn4 1.954418 1_555
O7 P6 1.526318 1_455
O7 Zn5 1.956683 1_555
O8 P7 1.585750 1_565
O9 P11 1.581281 1_555
O10 P9 1.537614 1_555
O10 Zn6 1.943946 1_545
O11 P10 1.527866 1_555
O11 Zn7 1.959361 1_555
O12 P8 1.558045 1_555
O13 P9 1.525688 1_555
O13 Zn0 1.943113 1_555
O14 P4 1.527593 1_555
O14 Zn1 1.952498 1_555
O15 P11 1.533378 1_555
O15 Zn2 1.928209 1_655
O16 P6 1.562186 1_455
O17 P1 1.541807 1_555
O17 Zn3 1.912937 1_555
O18 P2 1.529196 1_556
O18 Zn4 1.924406 1_555
O19 P3 1.520991 1_555
O19 Zn5 1.956566 1_555
O20 P10 1.561669 1_555
O21 P5 1.558857 1_555
O22 P0 1.531622 1_555
O22 Zn6 1.938802 1_545
O23 P7 1.530092 1_565
O23 Zn7 1.925566 1_555
O24 P3 1.588021 1_555
O25 P7 1.553261 1_455
O25 Zn0 1.969428 1_555
O26 P11 1.551768 1_455
O26 Zn1 1.973571 1_555
O27 P0 1.560643 1_566
O27 Zn2 1.957993 1_555
O28 P10 1.592454 1_556
O29 P8 1.548165 1_565
O29 Zn3 1.987911 1_555
O30 P9 1.560396 1_555
O30 Zn4 1.955703 1_555
O31 P1 1.568961 1_555
O31 Zn5 1.939996 1_555
O32 P5 1.591422 1_555
O33 P6 1.589505 1_555
O34 P4 1.562331 1_555
O34 Zn6 1.970364 1_555
O35 P2 1.553084 1_555
O35 Zn7 1.947218 1_555
O36 P0 1.609998 1_555
O37 P1 1.569545 1_555
O37 Zn0 1.967415 1_555
O38 P2 1.555401 1_555
O38 Zn1 1.994404 1_655
O39 P3 1.548001 1_555
O39 Zn2 1.991370 1_545
O40 P4 1.609917 1_555
O41 P5 1.543569 1_555
O41 Zn3 2.018867 1_555
O42 P6 1.545869 1_555
O42 Zn4 1.993485 1_555
O43 P7 1.556902 1_555
O43 Zn5 1.978205 1_655
O44 P8 1.591539 1_555
O45 P9 1.608069 1_555
O46 P10 1.542997 1_555
O46 Zn6 2.010741 1_555
O47 P11 1.559487 1_555
O47 Zn7 1.974632 1_555
