# generated using pymatgen
data_ErFeGe2
_symmetry_space_group_name_H-M   'P 1'
_cell_length_a   8.53267640
_cell_length_b   8.53267640
_cell_length_c   4.19475700
_cell_angle_alpha   90.00000000
_cell_angle_beta   90.00000000
_cell_angle_gamma   151.89906478
_symmetry_Int_Tables_number   1
_chemical_formula_structural   ErFeGe2
_chemical_formula_sum   'Er2 Fe2 Ge4'
_cell_volume   143.85418371
_cell_formula_units_Z   2
loop_
 _symmetry_equiv_pos_site_id
 _symmetry_equiv_pos_as_xyz
  1  'x, y, z'
loop_
 _atom_site_type_symbol
 _atom_site_label
 _atom_site_symmetry_multiplicity
 _atom_site_fract_x
 _atom_site_fract_y
 _atom_site_fract_z
 _atom_site_occupancy
  Er  Er0  1  0.89061300  0.10938700  0.25000000  1
  Er  Er1  1  0.10938700  0.89061300  0.75000000  1
  Fe  Fe0  1  0.68116700  0.31883300  0.25000000  1
  Fe  Fe1  1  0.31883300  0.68116700  0.75000000  1
  Ge  Ge0  1  0.54465700  0.45534300  0.25000000  1
  Ge  Ge1  1  0.45534300  0.54465700  0.75000000  1
  Ge  Ge2  1  0.25083100  0.74916900  0.25000000  1
  Ge  Ge3  1  0.74916900  0.25083100  0.75000000  1
loop_
_geom_bond_atom_site_label_1
_geom_bond_atom_site_label_2
_geom_bond_distance
_geom_bond_site_symmetry_2
Er0 Ge2 3.105823 1_655
Er0 Ge2 3.105823 1_545
Er0 Ge1 3.136647 1_655
Er0 Ge1 3.136647 1_544
Er0 Ge1 3.136647 1_545
Er0 Ge1 3.136647 1_654
Er0 Ge3 3.143561 1_555
Er0 Ge3 3.143561 1_554
Er0 Fe1 3.178413 1_545
Er0 Fe1 3.178413 1_544
Er0 Fe1 3.178413 1_655
Er0 Fe1 3.178413 1_654
Er0 Ge0 3.285514 1_545
Er0 Ge0 3.285514 1_655
Er1 Ge3 3.105823 1_565
Er1 Ge3 3.105823 1_455
Er1 Ge0 3.136647 1_455
Er1 Ge0 3.136647 1_456
Er1 Ge0 3.136647 1_566
Er1 Ge0 3.136647 1_565
Er1 Ge2 3.143561 1_555
Er1 Ge2 3.143561 1_556
Er1 Fe0 3.178413 1_456
Er1 Fe0 3.178413 1_455
Er1 Fe0 3.178413 1_565
Er1 Fe0 3.178413 1_566
Er1 Ge1 3.285514 1_455
Er1 Ge1 3.285514 1_565
Fe0 Ge0 2.259895 1_555
Fe0 Ge2 2.370926 1_655
Fe0 Ge2 2.370926 1_545
Fe0 Ge3 2.380406 1_555
Fe0 Ge3 2.380406 1_554
Fe1 Ge1 2.259895 1_555
Fe1 Ge3 2.370926 1_565
Fe1 Ge3 2.370926 1_455
Fe1 Ge2 2.380406 1_555
Fe1 Ge2 2.380406 1_556
Ge0 Ge1 2.566161 1_555
Ge0 Ge1 2.566161 1_554
