# generated using pymatgen
data_Ho3TmMn8
_symmetry_space_group_name_H-M   'P 1'
_cell_length_a   5.13506274
_cell_length_b   5.34553300
_cell_length_c   8.38938666
_cell_angle_alpha   90.00000000
_cell_angle_beta   93.34363685
_cell_angle_gamma   58.63463674
_symmetry_Int_Tables_number   1
_chemical_formula_structural   Ho3TmMn8
_chemical_formula_sum   'Ho3 Tm1 Mn8'
_cell_volume   196.17378687
_cell_formula_units_Z   1
loop_
 _symmetry_equiv_pos_site_id
 _symmetry_equiv_pos_as_xyz
  1  'x, y, z'
loop_
 _atom_site_type_symbol
 _atom_site_label
 _atom_site_symmetry_multiplicity
 _atom_site_fract_x
 _atom_site_fract_y
 _atom_site_fract_z
 _atom_site_occupancy
  Ho  Ho0  1  0.66127800  0.66936100  0.43900400  1
  Ho  Ho1  1  0.66774800  0.66612600  0.06299700  1
  Ho  Ho2  1  0.33264400  0.33367800  0.93654700  1
  Tm  Tm0  1  0.33824700  0.33087600  0.56137600  1
  Mn  Mn0  1  0.99944900  0.00027600  0.50029800  1
  Mn  Mn1  1  0.00023500  0.99988300  0.00003400  1
  Mn  Mn2  1  0.82996500  0.32824900  0.75461400  1
  Mn  Mn3  1  0.33622700  0.83188600  0.74414700  1
  Mn  Mn4  1  0.82996500  0.84178600  0.75461400  1
  Mn  Mn5  1  0.17021800  0.67120800  0.24513200  1
  Mn  Mn6  1  0.66380800  0.16809600  0.25610300  1
  Mn  Mn7  1  0.17021800  0.15857400  0.24513200  1
loop_
_geom_bond_atom_site_label_1
_geom_bond_atom_site_label_2
_geom_bond_distance
_geom_bond_site_symmetry_2
Ho0 Mn7 2.915432 1_565
Ho0 Mn5 2.915433 1_555
Ho0 Mn0 2.981484 1_465
Ho0 Mn3 3.013825 1_555
Ho0 Mn2 3.028888 1_555
Ho0 Mn4 3.028888 1_555
Ho0 Tm0 3.073811 1_655
Ho0 Mn6 3.082304 1_555
Ho0 Mn6 3.082304 1_565
Ho0 Mn0 3.082614 1_555
Ho0 Mn0 3.082619 1_565
Ho0 Ho1 3.156533 1_555
Ho0 Mn7 3.162001 1_655
Ho0 Mn5 3.162001 1_655
Ho0 Tm0 3.225276 1_565
Ho0 Tm0 3.225280 1_555
Ho1 Mn7 2.933616 1_655
Ho1 Mn5 2.933616 1_655
Ho1 Mn1 2.938375 1_555
Ho1 Mn3 2.955869 1_554
Ho1 Mn7 3.040706 1_565
Ho1 Mn5 3.040707 1_555
Ho1 Mn2 3.055247 1_554
Ho1 Mn4 3.055247 1_554
Ho1 Mn1 3.106957 1_645
Ho1 Mn1 3.106962 1_655
Ho1 Mn6 3.126073 1_565
Ho1 Mn6 3.126073 1_555
Ho1 Ho2 3.169713 1_654
Ho1 Ho2 3.196092 1_564
Ho1 Ho2 3.196092 1_554
Ho2 Mn4 2.934605 1_455
Ho2 Mn2 2.934605 1_455
Ho2 Mn1 2.939206 1_646
Ho2 Mn6 2.960360 1_556
Ho2 Mn4 3.038049 1_545
Ho2 Mn2 3.038050 1_555
Ho2 Mn5 3.055892 1_556
Ho2 Mn7 3.055893 1_556
Ho2 Mn1 3.107684 1_546
Ho2 Mn1 3.107688 1_556
Ho2 Mn3 3.122940 1_555
Ho2 Mn3 3.122945 1_545
Ho2 Tm0 3.149228 1_555
Mn0 Mn6 2.439444 1_555
Mn0 Mn3 2.439854 1_645
Mn0 Mn2 2.647908 1_555
Mn0 Mn4 2.647911 1_545
Mn0 Mn7 2.656869 1_655
Mn0 Mn5 2.656872 1_645
Mn0 Tm0 2.978343 1_555
Mn0 Tm0 3.083662 1_655
Mn0 Tm0 3.083671 1_645
Mn1 Mn7 2.504193 1_565
Mn1 Mn5 2.504196 1_555
Mn1 Mn2 2.505407 1_464
Mn1 Mn4 2.505410 1_454
Mn1 Mn3 2.685305 1_554
Mn1 Mn6 2.687734 1_465
Mn2 Mn3 2.559752 1_555
Mn2 Mn3 2.579207 1_645
Mn2 Mn4 2.600404 1_545
Mn2 Mn4 2.745129 1_555
Mn2 Tm0 2.913684 1_555
Mn2 Tm0 3.157920 1_655
Mn3 Mn4 2.559755 1_555
Mn3 Mn4 2.579205 1_455
Mn3 Tm0 3.081677 1_555
Mn3 Tm0 3.081677 1_565
Mn4 Tm0 2.913682 1_565
Mn4 Tm0 3.157923 1_655
Mn5 Mn6 2.557816 1_555
Mn5 Mn6 2.581379 1_465
Mn5 Mn7 2.605231 1_565
Mn5 Mn7 2.740302 1_555
Mn5 Tm0 3.031830 1_555
Mn6 Mn7 2.557817 1_555
Mn6 Mn7 2.581379 1_655
Mn6 Tm0 3.015975 1_555
Mn7 Tm0 3.031827 1_555
