# generated using pymatgen
data_TaGeRu2
_symmetry_space_group_name_H-M   'P 1'
_cell_length_a   4.37024734
_cell_length_b   4.37024734
_cell_length_c   4.37024734
_cell_angle_alpha   60.00000000
_cell_angle_beta   60.00000000
_cell_angle_gamma   60.00000000
_symmetry_Int_Tables_number   1
_chemical_formula_structural   TaGeRu2
_chemical_formula_sum   'Ta1 Ge1 Ru2'
_cell_volume   59.02052302
_cell_formula_units_Z   1
loop_
 _symmetry_equiv_pos_site_id
 _symmetry_equiv_pos_as_xyz
  1  'x, y, z'
loop_
 _atom_site_type_symbol
 _atom_site_label
 _atom_site_symmetry_multiplicity
 _atom_site_fract_x
 _atom_site_fract_y
 _atom_site_fract_z
 _atom_site_occupancy
  Ta  Ta0  1  0.00000000  -0.00000000  -0.00000000  1
  Ge  Ge0  1  0.50000000  0.50000000  0.50000000  1
  Ru  Ru0  1  0.25000000  0.25000000  0.25000000  1
  Ru  Ru1  1  0.75000000  0.75000000  0.75000000  1
loop_
_geom_bond_atom_site_label_1
_geom_bond_atom_site_label_2
_geom_bond_distance
_geom_bond_site_symmetry_2
Ge0 Ru1 2.676219 1_455
Ge0 Ru0 2.676219 1_655
Ge0 Ru1 2.676219 1_555
Ge0 Ru1 2.676219 1_545
Ge0 Ru0 2.676219 1_556
Ge0 Ru1 2.676219 1_554
Ge0 Ru0 2.676219 1_555
Ge0 Ru0 2.676219 1_565
Ge0 Ta0 3.090232 1_565
Ge0 Ta0 3.090232 1_556
Ge0 Ta0 3.090232 1_566
Ge0 Ta0 3.090232 1_665
Ge0 Ta0 3.090232 1_656
Ge0 Ta0 3.090232 1_655
Ru0 Ta0 2.676219 1_655
Ru0 Ta0 2.676219 1_565
Ru0 Ta0 2.676219 1_556
Ru0 Ta0 2.676219 1_555
Ru1 Ta0 2.676219 1_566
Ru1 Ta0 2.676219 1_665
Ru1 Ta0 2.676219 1_656
Ru1 Ta0 2.676219 1_666
