# generated using pymatgen
data_Si2Mo3
_symmetry_space_group_name_H-M   'P 1'
_cell_length_a   6.63320000
_cell_length_b   6.63320000
_cell_length_c   3.29676000
_cell_angle_alpha   90.00000000
_cell_angle_beta   90.00000000
_cell_angle_gamma   90.00000000
_symmetry_Int_Tables_number   1
_chemical_formula_structural   Si2Mo3
_chemical_formula_sum   'Si4 Mo6'
_cell_volume   145.05527152
_cell_formula_units_Z   2
loop_
 _symmetry_equiv_pos_site_id
 _symmetry_equiv_pos_as_xyz
  1  'x, y, z'
loop_
 _atom_site_type_symbol
 _atom_site_label
 _atom_site_symmetry_multiplicity
 _atom_site_fract_x
 _atom_site_fract_y
 _atom_site_fract_z
 _atom_site_occupancy
  Si  Si0  1  0.13424500  0.63424500  0.00000000  1
  Si  Si1  1  0.86575500  0.36575500  0.00000000  1
  Si  Si2  1  0.63424500  0.86575500  0.00000000  1
  Si  Si3  1  0.36575500  0.13424500  0.00000000  1
  Mo  Mo0  1  0.50000000  0.50000000  0.00000000  1
  Mo  Mo1  1  0.00000000  0.00000000  0.00000000  1
  Mo  Mo2  1  0.66125700  0.16125700  0.50000000  1
  Mo  Mo3  1  0.33874300  0.83874300  0.50000000  1
  Mo  Mo4  1  0.16125700  0.33874300  0.50000000  1
  Mo  Mo5  1  0.83874300  0.66125700  0.50000000  1
loop_
_geom_bond_atom_site_label_1
_geom_bond_atom_site_label_2
_geom_bond_distance
_geom_bond_site_symmetry_2
Si0 Si1 2.518641 1_455
Si2 Si3 2.518641 1_565
Mo0 Si1 2.584382 1_555
Mo0 Si2 2.584382 1_555
Mo0 Si0 2.584382 1_555
Mo0 Si3 2.584382 1_555
Mo1 Si0 2.584382 1_545
Mo1 Si3 2.584382 1_555
Mo1 Si1 2.584382 1_455
Mo1 Si2 2.584382 1_445
Mo2 Si1 2.529271 1_556
Mo2 Si1 2.529271 1_555
Mo2 Si3 2.567362 1_555
Mo2 Si3 2.567362 1_556
Mo2 Si2 2.567362 1_546
Mo2 Si2 2.567362 1_545
Mo3 Si0 2.529271 1_555
Mo3 Si0 2.529271 1_556
Mo3 Si3 2.567362 1_566
Mo3 Si3 2.567362 1_565
Mo3 Si2 2.567362 1_555
Mo3 Si2 2.567362 1_556
Mo4 Si3 2.529271 1_555
Mo4 Si3 2.529271 1_556
Mo4 Si1 2.567362 1_456
Mo4 Si1 2.567362 1_455
Mo4 Si0 2.567362 1_555
Mo4 Si0 2.567362 1_556
Mo5 Si2 2.529271 1_555
Mo5 Si2 2.529271 1_556
Mo5 Si1 2.567362 1_556
Mo5 Si1 2.567362 1_555
Mo5 Si0 2.567362 1_655
Mo5 Si0 2.567362 1_656
