# generated using pymatgen
data_Li9Mn2Co5O16
_symmetry_space_group_name_H-M   'P 1'
_cell_length_a   2.90355900
_cell_length_b   5.16021200
_cell_length_c   19.31481282
_cell_angle_alpha   84.21414630
_cell_angle_beta   90.00000000
_cell_angle_gamma   90.00000000
_symmetry_Int_Tables_number   1
_chemical_formula_structural   Li9Mn2Co5O16
_chemical_formula_sum   'Li9 Mn2 Co5 O16'
_cell_volume   287.91917649
_cell_formula_units_Z   1
loop_
 _symmetry_equiv_pos_site_id
 _symmetry_equiv_pos_as_xyz
  1  'x, y, z'
loop_
 _atom_site_type_symbol
 _atom_site_label
 _atom_site_symmetry_multiplicity
 _atom_site_fract_x
 _atom_site_fract_y
 _atom_site_fract_z
 _atom_site_occupancy
  Li  Li0  1  0.50000000  0.86272600  0.86888100  1
  Li  Li1  1  0.50000000  0.62944300  0.62907100  1
  Li  Li2  1  0.50000000  0.37655700  0.37676800  1
  Li  Li3  1  0.50000000  0.12553200  0.12430800  1
  Li  Li4  1  0.00000000  0.36717400  0.86654700  1
  Li  Li5  1  0.00000000  0.13527000  0.63056700  1
  Li  Li6  1  0.00000000  0.87570400  0.37844300  1
  Li  Li7  1  0.00000000  0.61801100  0.12413200  1
  Li  Li8  1  0.00000000  0.75009200  0.74945200  1
  Mn  Mn0  1  0.00000000  0.99685300  0.99866700  1
  Mn  Mn1  1  0.50000000  0.75060000  0.25042300  1
  Co  Co0  1  0.00000000  0.50220900  0.50160900  1
  Co  Co1  1  0.00000000  0.25082800  0.25008600  1
  Co  Co2  1  0.50000000  0.49721500  0.99740500  1
  Co  Co3  1  0.50000000  0.25118500  0.74984000  1
  Co  Co4  1  0.50000000  0.00221400  0.50234300  1
  O  O0  1  0.50000000  0.15802300  0.94263100  1
  O  O1  1  0.50000000  0.98813600  0.69605400  1
  O  O2  1  0.50000000  0.68526400  0.44347000  1
  O  O3  1  0.50000000  0.40721500  0.19261700  1
  O  O4  1  0.00000000  0.70721700  0.94188500  1
  O  O5  1  0.00000000  0.42302700  0.69488600  1
  O  O6  1  0.00000000  0.18288000  0.44387400  1
  O  O7  1  0.00000000  0.91225500  0.19206100  1
  O  O8  1  0.50000000  0.51524200  0.80494600  1
  O  O9  1  0.50000000  0.32453600  0.55807800  1
  O  O10  1  0.50000000  0.09517100  0.30683200  1
  O  O11  1  0.50000000  0.83230800  0.05584000  1
  O  O12  1  0.00000000  0.07989400  0.80495800  1
  O  O13  1  0.00000000  0.81971700  0.56016000  1
  O  O14  1  0.00000000  0.58646200  0.30840000  1
  O  O15  1  0.00000000  0.29104200  0.05476700  1
loop_
_geom_bond_atom_site_label_1
_geom_bond_atom_site_label_2
_geom_bond_distance
_geom_bond_site_symmetry_2
Li0 O4 2.124084 1_555
Li0 O4 2.124084 1_655
Li0 O12 2.146836 1_665
Li0 O12 2.146836 1_565
Li0 O0 2.188309 1_565
Li0 O8 2.277406 1_555
Li1 O13 2.140042 1_555
Li1 O13 2.140042 1_655
Li1 O5 2.141301 1_555
Li1 O5 2.141301 1_655
Li1 O9 2.188781 1_555
Li1 O1 2.362751 1_555
Li2 O10 2.080494 1_555
Li2 O6 2.127274 1_655
Li2 O6 2.127274 1_555
Li2 O2 2.147377 1_555
Li2 O14 2.176296 1_555
Li2 O14 2.176296 1_655
Li3 O3 2.059176 1_555
Li3 O15 2.099979 1_655
Li3 O15 2.099979 1_555
Li3 O11 2.107551 1_545
Li3 O7 2.177391 1_645
Li3 O7 2.177391 1_545
Li4 O8 1.980862 1_455
Li4 O8 1.980862 1_555
Li4 O12 1.992044 1_555
Li4 O0 2.261033 1_455
Li4 O0 2.261033 1_555
Li4 O4 2.389809 1_555
Li5 O1 2.022469 1_445
Li5 O1 2.022469 1_545
Li5 O5 2.029816 1_555
Li5 O9 2.178560 1_455
Li5 O9 2.178560 1_555
Li5 O13 2.224232 1_545
Li6 O2 2.098101 1_555
Li6 O2 2.098101 1_455
Li6 O14 2.113072 1_555
Li6 O6 2.124517 1_565
Li6 O10 2.233271 1_465
Li6 O10 2.233271 1_565
Li7 O7 2.104405 1_555
Li7 O3 2.179564 1_455
Li7 O3 2.179564 1_555
Li7 O11 2.185473 1_455
Li7 O11 2.185473 1_555
Li7 O15 2.257764 1_555
Li8 O5 2.077937 1_555
Li8 O12 2.100839 1_565
Li8 O1 2.103526 1_455
Li8 O1 2.103526 1_555
Li8 O8 2.112649 1_555
Li8 O8 2.112649 1_455
Mn0 O4 1.940900 1_555
Mn0 O0 1.946608 1_565
Mn0 O0 1.946608 1_465
Mn0 O15 1.952003 1_566
Mn0 O11 1.964437 1_556
Mn0 O11 1.964437 1_456
Mn1 O7 1.970943 1_655
Mn1 O7 1.970943 1_555
Mn1 O14 1.971752 1_555
Mn1 O14 1.971752 1_655
Mn1 O10 2.176961 1_565
Mn1 O3 2.187522 1_555
Co0 O9 1.983992 1_555
Co0 O9 1.983992 1_455
Co0 O2 2.011734 1_555
Co0 O2 2.011734 1_455
Co0 O6 2.080694 1_555
Co0 O13 2.082523 1_555
Co1 O10 1.943356 1_455
Co1 O10 1.943356 1_555
Co1 O3 1.952024 1_455
Co1 O3 1.952024 1_555
Co1 O14 2.159060 1_555
Co1 O7 2.168695 1_545
Co2 O4 2.048811 1_555
Co2 O4 2.048811 1_655
Co2 O15 2.056552 1_556
Co2 O15 2.056552 1_656
Co2 O0 2.134518 1_555
Co2 O11 2.158084 1_556
Co3 O1 1.790548 1_545
Co3 O8 1.811609 1_555
Co3 O5 1.957251 1_555
Co3 O5 1.957251 1_655
Co3 O12 1.957696 1_655
Co3 O12 1.957696 1_555
Co4 O13 2.007373 1_545
Co4 O13 2.007373 1_645
Co4 O6 2.009946 1_555
Co4 O6 2.009946 1_655
Co4 O9 2.070333 1_555
Co4 O2 2.083980 1_545
