# generated using pymatgen
data_Mg4B8H31
_symmetry_space_group_name_H-M   'P 1'
_cell_length_a   8.25265037
_cell_length_b   8.28290706
_cell_length_c   10.15215826
_cell_angle_alpha   89.98583637
_cell_angle_beta   90.39390409
_cell_angle_gamma   89.99798720
_symmetry_Int_Tables_number   1
_chemical_formula_structural   Mg4B8H31
_chemical_formula_sum   'Mg4 B8 H31'
_cell_volume   693.94385974
_cell_formula_units_Z   1
loop_
 _symmetry_equiv_pos_site_id
 _symmetry_equiv_pos_as_xyz
  1  'x, y, z'
loop_
 _atom_site_type_symbol
 _atom_site_label
 _atom_site_symmetry_multiplicity
 _atom_site_fract_x
 _atom_site_fract_y
 _atom_site_fract_z
 _atom_site_occupancy
  Mg  Mg0  1  0.88293700  0.50965000  0.25384600  1
  Mg  Mg1  1  0.38574500  0.99029900  0.75198000  1
  Mg  Mg2  1  0.88758000  0.00595500  0.00670400  1
  Mg  Mg3  1  0.38532100  0.49376200  0.50195400  1
  B  B0  1  0.38601400  0.71792600  0.65720500  1
  B  B1  1  0.11236100  0.99449600  0.84948300  1
  B  B2  1  0.65416000  0.99472800  0.85624000  1
  B  B3  1  0.88443100  0.78243500  0.16181800  1
  B  B4  1  0.88283800  0.24477900  0.14808300  1
  B  B5  1  0.15245900  0.50375400  0.35320900  1
  B  B6  1  0.61472500  0.50526600  0.35222900  1
  B  B7  1  0.38617300  0.25542500  0.64458100  1
  H  H0  1  0.72412200  0.12182600  0.88031900  1
  H  H1  1  0.88564600  0.76082300  0.28143100  1
  H  H2  1  0.75853200  0.17220300  0.11935700  1
  H  H3  1  0.13401200  0.51112800  0.23325300  1
  H  H4  1  0.54101800  0.62762000  0.38330900  1
  H  H5  1  0.26089800  0.32685100  0.61644500  1
  H  H6  1  0.38345500  0.84237500  0.59145300  1
  H  H7  1  0.63929400  0.98742300  0.73610100  1
  H  H8  1  0.11567200  0.98940800  0.72921200  1
  H  H9  1  0.88339600  0.25888400  0.26852400  1
  H  H10  1  0.01013100  0.85424400  0.13660900  1
  H  H11  1  0.54400400  0.37827300  0.37446800  1
  H  H12  1  0.22530900  0.62650600  0.38524600  1
  H  H13  1  0.51118600  0.64624900  0.63018600  1
  H  H14  1  0.38808400  0.24236100  0.76520800  1
  H  H15  1  0.08786500  0.87008500  0.90827400  1
  H  H16  1  0.72604400  0.87225700  0.89036400  1
  H  H17  1  0.76019400  0.85735500  0.13674800  1
  H  H18  1  0.88106700  0.37208400  0.08617000  1
  H  H19  1  0.09128500  0.12424900  0.90098900  1
  H  H20  1  0.52557300  0.99736000  0.91770700  1
  H  H21  1  0.00895900  0.17535700  0.12021600  1
  H  H22  1  0.88227400  0.65915700  0.09471900  1
  H  H23  1  0.02716200  0.50029800  0.41736200  1
  H  H24  1  0.63152600  0.51188600  0.23221700  1
  H  H25  1  0.51135600  0.32536000  0.61481400  1
  H  H26  1  0.26119200  0.64392300  0.63216600  1
  H  H27  1  0.22443200  0.37720200  0.37507700  1
  H  H28  1  0.74069700  0.50351800  0.41673500  1
  H  H29  1  0.38802100  0.73786400  0.77711800  1
  H  H30  1  0.38429000  0.12739600  0.58366800  1
loop_
_geom_bond_atom_site_label_1
_geom_bond_atom_site_label_2
_geom_bond_distance
_geom_bond_site_symmetry_2
B0 H26 1.223924 1_555
B0 H13 1.224229 1_555
B0 H6 1.228026 1_555
B0 H29 1.228565 1_555
B1 H19 1.208403 1_565
B1 H15 1.208459 1_555
B1 H8 1.222241 1_555
B1 Mg1 2.470211 1_555
B2 H16 1.223903 1_555
B2 H0 1.224585 1_565
B2 H7 1.226494 1_555
B2 H20 1.234950 1_555
B3 H17 1.223668 1_555
B3 H10 1.224337 1_655
B3 H1 1.227382 1_555
B3 H22 1.227670 1_555
B4 H2 1.222625 1_555
B4 H21 1.223969 1_655
B4 H18 1.227481 1_555
B4 H9 1.228311 1_555
B5 H12 1.224139 1_555
B5 H27 1.224286 1_555
B5 H23 1.226163 1_555
B5 H3 1.227757 1_555
B6 H4 1.224495 1_555
B6 H11 1.224653 1_555
B6 H28 1.224940 1_555
B6 H24 1.228403 1_555
B7 H5 1.223217 1_555
B7 H25 1.224091 1_555
B7 H30 1.227766 1_555
B7 H14 1.229362 1_555
H0 Mg2 2.088687 1_556
H1 Mg0 2.099374 1_555
H2 Mg2 2.087051 1_555
H3 Mg0 2.084020 1_455
H4 Mg3 2.086106 1_555
H5 Mg3 2.081446 1_555
H6 Mg1 2.039128 1_555
H7 Mg1 2.099891 1_555
H8 Mg1 2.239203 1_555
H9 Mg0 2.082375 1_555
H10 Mg2 2.078933 1_465
H11 Mg3 2.080606 1_555
H12 Mg3 2.081893 1_555
H13 Mg3 2.085971 1_555
H14 Mg1 2.092235 1_545
H15 Mg2 2.240587 1_466
H16 Mg2 2.092274 1_566
H17 Mg2 2.093206 1_565
H18 Mg0 2.048636 1_555
H19 Mg2 2.227644 1_456
H20 Mg1 2.034489 1_555
H21 Mg2 2.070082 1_455
H22 Mg0 2.035244 1_555
H23 Mg0 2.037441 1_455
H24 Mg0 2.084973 1_555
H25 Mg3 2.079183 1_555
H26 Mg3 2.088826 1_555
H27 Mg3 2.081197 1_555
H28 Mg0 2.035145 1_555
H29 Mg1 2.106417 1_555
H30 Mg1 2.051380 1_545
