# generated using pymatgen
data_Mg6SbW
_symmetry_space_group_name_H-M   'P 1'
_cell_length_a   5.01473000
_cell_length_b   6.19160700
_cell_length_c   10.53030700
_cell_angle_alpha   90.00000000
_cell_angle_beta   90.00000000
_cell_angle_gamma   90.00000000
_symmetry_Int_Tables_number   1
_chemical_formula_structural   Mg6SbW
_chemical_formula_sum   'Mg12 Sb2 W2'
_cell_volume   326.95800163
_cell_formula_units_Z   2
loop_
 _symmetry_equiv_pos_site_id
 _symmetry_equiv_pos_as_xyz
  1  'x, y, z'
loop_
 _atom_site_type_symbol
 _atom_site_label
 _atom_site_symmetry_multiplicity
 _atom_site_fract_x
 _atom_site_fract_y
 _atom_site_fract_z
 _atom_site_occupancy
  Mg  Mg0  1  0.00000000  0.24417000  0.08086800  1
  Mg  Mg1  1  0.00000000  0.75583000  0.08086800  1
  Mg  Mg2  1  0.00000000  0.50000000  0.83393200  1
  Mg  Mg3  1  0.50000000  0.23892400  0.91474300  1
  Mg  Mg4  1  0.50000000  0.76107600  0.91474300  1
  Mg  Mg5  1  0.50000000  0.50000000  0.66635500  1
  Mg  Mg6  1  0.00000000  0.74417000  0.58086800  1
  Mg  Mg7  1  0.00000000  0.25583000  0.58086800  1
  Mg  Mg8  1  0.00000000  0.00000000  0.33393200  1
  Mg  Mg9  1  0.50000000  0.73892400  0.41474300  1
  Mg  Mg10  1  0.50000000  0.26107600  0.41474300  1
  Mg  Mg11  1  0.50000000  0.00000000  0.16635500  1
  Sb  Sb0  1  0.50000000  0.50000000  0.17702300  1
  Sb  Sb1  1  0.50000000  0.00000000  0.67702300  1
  W  W0  1  0.00000000  0.50000000  0.33146700  1
  W  W1  1  0.00000000  0.00000000  0.83146700  1
loop_
_geom_bond_atom_site_label_1
_geom_bond_atom_site_label_2
_geom_bond_distance
_geom_bond_site_symmetry_2
Mg0 W1 3.030321 1_554
Mg0 Mg3 3.057474 1_554
Mg0 Mg3 3.057474 1_454
Mg0 Mg11 3.063136 1_455
Mg0 Mg11 3.063136 1_555
Mg0 W0 3.077785 1_555
Mg0 Sb0 3.133875 1_455
Mg0 Sb0 3.133875 1_555
Mg1 W1 3.030321 1_564
Mg1 Mg4 3.057474 1_554
Mg1 Mg4 3.057474 1_454
Mg1 Mg11 3.063136 1_565
Mg1 Mg11 3.063136 1_465
Mg1 W0 3.077785 1_555
Mg1 Sb0 3.133875 1_455
Mg1 Sb0 3.133875 1_555
Mg2 Mg5 3.066076 1_455
Mg2 Mg5 3.066076 1_555
Mg2 W1 3.095912 1_565
Mg2 W1 3.095912 1_555
Mg2 Mg4 3.102262 1_455
Mg2 Mg3 3.102262 1_555
Mg2 Mg4 3.102262 1_555
Mg2 Mg3 3.102262 1_455
Mg3 Sb1 2.907702 1_555
Mg3 Mg4 2.958647 1_545
Mg3 W1 3.040439 1_555
Mg3 W1 3.040439 1_655
Mg3 Mg5 3.074798 1_555
Mg3 Sb0 3.200162 1_556
Mg3 Mg4 3.232960 1_555
Mg4 Sb1 2.907702 1_565
Mg4 W1 3.040439 1_565
Mg4 W1 3.040439 1_665
Mg4 Mg5 3.074798 1_555
Mg4 Sb0 3.200162 1_556
Mg5 Mg9 3.034555 1_555
Mg5 Mg6 3.063136 1_655
Mg5 Mg7 3.063136 1_555
Mg5 Mg7 3.063136 1_655
Mg5 Mg6 3.063136 1_555
Mg5 Sb1 3.097841 1_555
Mg5 Sb1 3.097841 1_565
Mg6 W0 3.030321 1_555
Mg6 Mg9 3.057474 1_555
Mg6 Mg9 3.057474 1_455
Mg6 W1 3.077785 1_565
Mg6 Sb1 3.133875 1_465
Mg6 Sb1 3.133875 1_565
Mg7 W0 3.030321 1_555
Mg7 W1 3.077785 1_555
Mg7 Sb1 3.133875 1_455
Mg7 Sb1 3.133875 1_555
Mg8 W0 3.095912 1_545
Mg8 W0 3.095912 1_555
Mg8 Mg9 3.102262 1_545
Mg8 Mg9 3.102262 1_445
Mg9 Sb0 2.907702 1_555
Mg9 W0 3.040439 1_655
Mg9 W0 3.040439 1_555
Mg9 Sb1 3.200162 1_565
Mg10 Sb0 2.907702 1_555
Mg10 Mg9 2.958647 1_555
Mg10 Mg5 3.034555 1_555
Mg10 W0 3.040439 1_655
Mg10 W0 3.040439 1_555
Mg10 Mg7 3.057474 1_555
Mg10 Mg7 3.057474 1_655
Mg10 Mg11 3.074798 1_555
Mg10 Mg8 3.102262 1_655
Mg10 Mg8 3.102262 1_555
Mg10 Sb1 3.200162 1_555
Mg10 Mg9 3.232960 1_545
Mg11 Mg4 3.034555 1_544
Mg11 Mg3 3.034555 1_554
Mg11 Mg8 3.066076 1_555
Mg11 Mg8 3.066076 1_655
Mg11 Mg9 3.074798 1_545
Mg11 Sb0 3.097841 1_545
Mg11 Sb0 3.097841 1_555
Sb0 W0 2.988623 1_655
Sb0 W0 2.988623 1_555
Sb1 W1 2.988623 1_655
Sb1 W1 2.988623 1_555
