# generated using pymatgen
data_Mg2Ga
_symmetry_space_group_name_H-M   'P 1'
_cell_length_a   5.74603710
_cell_length_b   5.74603710
_cell_length_c   5.74603734
_cell_angle_alpha   55.46521276
_cell_angle_beta   55.46521276
_cell_angle_gamma   55.46520196
_symmetry_Int_Tables_number   1
_chemical_formula_structural   Mg2Ga
_chemical_formula_sum   'Mg4 Ga2'
_cell_volume   120.02317103
_cell_formula_units_Z   2
loop_
 _symmetry_equiv_pos_site_id
 _symmetry_equiv_pos_as_xyz
  1  'x, y, z'
loop_
 _atom_site_type_symbol
 _atom_site_label
 _atom_site_symmetry_multiplicity
 _atom_site_fract_x
 _atom_site_fract_y
 _atom_site_fract_z
 _atom_site_occupancy
  Mg  Mg0  1  0.32897176  0.00000000  0.67102824  1
  Mg  Mg1  1  -0.00000000  0.67102824  0.32897176  1
  Mg  Mg2  1  0.50000000  0.50000000  0.50000000  1
  Mg  Mg3  1  0.67102824  0.32897176  0.00000000  1
  Ga  Ga0  1  0.83462884  0.83462884  0.83462884  1
  Ga  Ga1  1  0.16537116  0.16537116  0.16537116  1
loop_
_geom_bond_atom_site_label_1
_geom_bond_atom_site_label_2
_geom_bond_distance
_geom_bond_site_symmetry_2
Mg0 Mg2 3.015090 1_545
Mg0 Mg2 3.015091 1_555
Mg0 Mg3 3.047147 1_456
Mg0 Mg1 3.047148 1_546
Mg0 Mg3 3.107944 1_546
Mg0 Mg1 3.107944 1_645
Mg0 Mg1 3.107944 1_555
Mg0 Mg3 3.107944 1_555
Mg1 Mg2 3.015090 1_555
Mg1 Mg2 3.015091 1_455
Mg1 Mg3 3.047147 1_465
Mg1 Mg3 3.107944 1_555
Mg1 Mg3 3.107944 1_456
Mg2 Mg3 3.015091 1_555
Mg2 Mg3 3.015091 1_556
Ga0 Mg3 2.979114 1_566
Ga0 Mg1 2.979114 1_656
Ga0 Mg0 2.979114 1_665
Ga0 Mg0 3.030247 1_565
Ga0 Mg1 3.030247 1_655
Ga0 Mg3 3.030247 1_556
Ga0 Mg2 3.087604 1_565
Ga0 Mg2 3.087604 1_655
Ga0 Mg2 3.087605 1_556
Ga0 Ga1 3.087777 1_566
Ga0 Ga1 3.087777 1_656
Ga0 Ga1 3.087777 1_665
Ga1 Mg3 2.979114 1_455
Ga1 Mg0 2.979114 1_554
Ga1 Mg1 2.979114 1_545
Ga1 Mg1 3.030247 1_555
Ga1 Mg0 3.030247 1_555
Ga1 Mg3 3.030247 1_555
Ga1 Mg2 3.087604 1_455
Ga1 Mg2 3.087604 1_545
Ga1 Mg2 3.087605 1_554
