# generated using pymatgen
data_Y16Mg3AlNi4
_symmetry_space_group_name_H-M   'P 1'
_cell_length_a   9.61630935
_cell_length_b   9.61630935
_cell_length_c   9.61630918
_cell_angle_alpha   60.50848084
_cell_angle_beta   60.50848084
_cell_angle_gamma   60.50847831
_symmetry_Int_Tables_number   1
_chemical_formula_structural   Y16Mg3AlNi4
_chemical_formula_sum   'Y16 Mg3 Al1 Ni4'
_cell_volume   636.02220272
_cell_formula_units_Z   1
loop_
 _symmetry_equiv_pos_site_id
 _symmetry_equiv_pos_as_xyz
  1  'x, y, z'
loop_
 _atom_site_type_symbol
 _atom_site_label
 _atom_site_symmetry_multiplicity
 _atom_site_fract_x
 _atom_site_fract_y
 _atom_site_fract_z
 _atom_site_occupancy
  Y  Y0  1  0.43517900  0.06930100  0.43517900  1
  Y  Y1  1  0.06930100  0.43517900  0.43517900  1
  Y  Y2  1  0.43517900  0.43517900  0.06930100  1
  Y  Y3  1  0.06480100  0.43520600  0.06480100  1
  Y  Y4  1  0.43520600  0.06480100  0.06480100  1
  Y  Y5  1  0.06480100  0.06480100  0.43520600  1
  Y  Y6  1  0.81363400  0.18709900  0.81363400  1
  Y  Y7  1  0.18709900  0.81363400  0.81363400  1
  Y  Y8  1  0.81363400  0.81363400  0.18709900  1
  Y  Y9  1  0.18990100  0.80994500  0.18990100  1
  Y  Y10  1  0.80994500  0.18990100  0.18990100  1
  Y  Y11  1  0.18990100  0.18990100  0.80994500  1
  Y  Y12  1  0.65299900  0.65299900  0.65299900  1
  Y  Y13  1  0.65074500  0.65074500  0.04486900  1
  Y  Y14  1  0.04486900  0.65074500  0.65074500  1
  Y  Y15  1  0.65074500  0.04486900  0.65074500  1
  Mg  Mg0  1  0.42000000  0.42000000  0.73456200  1
  Mg  Mg1  1  0.73456200  0.42000000  0.42000000  1
  Mg  Mg2  1  0.42000000  0.73456200  0.42000000  1
  Al  Al0  1  0.41834400  0.41834400  0.41834400  1
  Ni  Ni0  1  0.85737000  0.85737000  0.85737000  1
  Ni  Ni1  1  0.85782000  0.85782000  0.42614600  1
  Ni  Ni2  1  0.42614600  0.85782000  0.85782000  1
  Ni  Ni3  1  0.85782000  0.42614600  0.85782000  1
loop_
_geom_bond_atom_site_label_1
_geom_bond_atom_site_label_2
_geom_bond_distance
_geom_bond_site_symmetry_2
Y0 Y15 3.452721 1_555
Y0 Y1 3.545402 1_555
Y0 Y2 3.545403 1_555
Y0 Y12 3.550878 1_545
Y0 Y4 3.583042 1_555
Y0 Y5 3.583042 1_555
Y0 Y11 3.598421 1_555
Y0 Y10 3.598421 1_555
Y0 Y8 3.660245 1_545
Y0 Y7 3.660245 1_545
Y1 Y14 3.452721 1_555
Y1 Y2 3.545403 1_555
Y1 Y12 3.550878 1_455
Y1 Y3 3.583042 1_555
Y1 Y5 3.583042 1_555
Y1 Y11 3.598421 1_555
Y1 Y9 3.598421 1_555
Y1 Y8 3.660245 1_455
Y1 Y6 3.660245 1_455
Y2 Y3 3.583042 1_555
Y2 Y4 3.583042 1_555
Y2 Y9 3.598421 1_555
Y2 Y6 3.660245 1_554
Y2 Y7 3.660245 1_554
Y3 Y4 3.589270 1_555
Y3 Y5 3.589270 1_555
Y3 Y8 3.636306 1_455
Y3 Y7 3.636306 1_554
Y4 Y5 3.589270 1_555
Y4 Y9 3.607388 1_545
Y4 Y8 3.636306 1_545
Y4 Y6 3.636306 1_554
Y5 Y9 3.607388 1_545
Y5 Y7 3.636306 1_545
Y5 Y6 3.636306 1_455
Y10 Y2 3.598421 1_555
Y10 Y5 3.607388 1_655
Y10 Y3 3.607388 1_655
Y11 Y4 3.607388 1_556
Y11 Y3 3.607388 1_556
Y12 Y2 3.550878 1_556
Y13 Y2 3.452721 1_555
Y13 Y3 3.524383 1_655
Y13 Y4 3.524383 1_565
Y14 Y3 3.524383 1_556
Y14 Y5 3.524383 1_565
Y15 Y4 3.524383 1_556
Y15 Y5 3.524383 1_655
Mg0 Mg2 3.048144 1_555
Mg0 Mg1 3.048144 1_555
Mg0 Y3 3.325474 1_556
Mg0 Y4 3.325474 1_556
Mg0 Y2 3.369048 1_556
Mg0 Y14 3.436154 1_555
Mg0 Y15 3.436154 1_555
Mg0 Y11 3.461161 1_555
Mg0 Y12 3.483959 1_555
Mg0 Y6 3.568307 1_555
Mg0 Y7 3.568307 1_555
Mg1 Mg2 3.048144 1_555
Mg1 Y5 3.325474 1_655
Mg1 Y3 3.325474 1_655
Mg1 Y1 3.369048 1_655
Mg1 Y13 3.436154 1_555
Mg1 Y15 3.436154 1_555
Mg1 Y10 3.461161 1_555
Mg1 Y12 3.483959 1_555
Mg1 Y6 3.568307 1_555
Mg1 Y8 3.568307 1_555
Mg2 Y5 3.325474 1_565
Mg2 Y4 3.325474 1_565
Mg2 Y0 3.369048 1_565
Mg2 Y13 3.436154 1_555
Mg2 Y14 3.436154 1_555
Mg2 Y9 3.461161 1_555
Mg2 Y12 3.483959 1_555
Mg2 Y7 3.568307 1_555
Mg2 Y8 3.568307 1_555
Al0 Mg0 3.056613 1_555
Al0 Mg1 3.056613 1_555
Al0 Mg2 3.056613 1_555
Al0 Y2 3.205359 1_555
Al0 Y0 3.205359 1_555
Al0 Y1 3.205359 1_555
Al0 Y14 3.464076 1_555
Al0 Y15 3.464076 1_555
Al0 Y13 3.464076 1_555
Al0 Y9 3.506275 1_555
Al0 Y10 3.506275 1_555
Al0 Y11 3.506275 1_555
Ni0 Y8 2.820591 1_556
Ni0 Y6 2.820591 1_565
Ni0 Y7 2.820591 1_655
Ni0 Y14 2.824802 1_655
Ni0 Y15 2.824802 1_565
Ni0 Y13 2.824802 1_556
Ni0 Y4 3.522792 1_566
Ni0 Y3 3.522792 1_656
Ni0 Y5 3.522792 1_665
Ni1 Y8 2.783255 1_555
Ni1 Y12 2.806485 1_555
Ni1 Y15 2.815909 1_565
Ni1 Y14 2.815909 1_655
Ni1 Y10 2.830212 1_565
Ni1 Y9 2.830212 1_655
Ni1 Y5 3.488984 1_665
Ni1 Y0 3.514232 1_565
Ni1 Y1 3.514232 1_655
Ni2 Y7 2.783255 1_555
Ni2 Y12 2.806484 1_555
Ni2 Y13 2.815909 1_556
Ni2 Y15 2.815910 1_565
Ni2 Y11 2.830212 1_565
Ni2 Y9 2.830212 1_556
Ni2 Y4 3.488984 1_566
Ni2 Y0 3.514232 1_565
Ni2 Y2 3.514232 1_556
Ni3 Y6 2.783255 1_555
Ni3 Y12 2.806484 1_555
Ni3 Y13 2.815909 1_556
Ni3 Y14 2.815910 1_655
Ni3 Y11 2.830212 1_655
Ni3 Y10 2.830212 1_556
Ni3 Y3 3.488984 1_656
Ni3 Y1 3.514232 1_655
Ni3 Y2 3.514232 1_556
