# generated using pymatgen
data_Ba4CrGa2(S3F2)2
_symmetry_space_group_name_H-M   'P 1'
_cell_length_a   6.24266000
_cell_length_b   13.26556200
_cell_length_c   18.71770600
_cell_angle_alpha   90.00000000
_cell_angle_beta   90.00000000
_cell_angle_gamma   90.00000000
_symmetry_Int_Tables_number   1
_chemical_formula_structural   Ba4CrGa2(S3F2)2
_chemical_formula_sum   'Ba16 Cr4 Ga8 S24 F16'
_cell_volume   1550.05803048
_cell_formula_units_Z   4
loop_
 _symmetry_equiv_pos_site_id
 _symmetry_equiv_pos_as_xyz
  1  'x, y, z'
loop_
 _atom_site_type_symbol
 _atom_site_label
 _atom_site_symmetry_multiplicity
 _atom_site_fract_x
 _atom_site_fract_y
 _atom_site_fract_z
 _atom_site_occupancy
  Ba  Ba0  1  0.26866000  0.74880400  0.07824600  1
  Ba  Ba1  1  0.23134000  0.24880400  0.42175400  1
  Ba  Ba2  1  0.73134000  0.25119600  0.57824600  1
  Ba  Ba3  1  0.76866000  0.75119600  0.92175400  1
  Ba  Ba4  1  0.73134000  0.25119600  0.92175400  1
  Ba  Ba5  1  0.76866000  0.75119600  0.57824600  1
  Ba  Ba6  1  0.26866000  0.74880400  0.42175400  1
  Ba  Ba7  1  0.23134000  0.24880400  0.07824600  1
  Ba  Ba8  1  0.75644500  0.00000800  0.07786500  1
  Ba  Ba9  1  0.74355500  0.50000800  0.42213500  1
  Ba  Ba10  1  0.24355500  0.99999200  0.57786500  1
  Ba  Ba11  1  0.25644500  0.49999200  0.92213500  1
  Ba  Ba12  1  0.24355500  0.99999200  0.92213500  1
  Ba  Ba13  1  0.25644500  0.49999200  0.57786500  1
  Ba  Ba14  1  0.75644500  0.00000800  0.42213500  1
  Ba  Ba15  1  0.74355500  0.50000800  0.07786500  1
  Cr  Cr0  1  0.49733700  0.12496800  0.25000000  1
  Cr  Cr1  1  0.00266300  0.62496800  0.25000000  1
  Cr  Cr2  1  0.50266300  0.87503200  0.75000000  1
  Cr  Cr3  1  0.99733700  0.37503200  0.75000000  1
  Ga  Ga0  1  0.65469000  0.79903500  0.25000000  1
  Ga  Ga1  1  0.84531000  0.29903500  0.25000000  1
  Ga  Ga2  1  0.34531000  0.20096500  0.75000000  1
  Ga  Ga3  1  0.15469000  0.70096500  0.75000000  1
  Ga  Ga4  1  0.15169500  0.94991400  0.25000000  1
  Ga  Ga5  1  0.34830500  0.44991400  0.25000000  1
  Ga  Ga6  1  0.84830500  0.05008600  0.75000000  1
  Ga  Ga7  1  0.65169500  0.55008600  0.75000000  1
  S  S0  1  0.28350700  0.02810800  0.34822700  1
  S  S1  1  0.21649300  0.52810800  0.15177300  1
  S  S2  1  0.71649300  0.97189200  0.84822700  1
  S  S3  1  0.78350700  0.47189200  0.65177300  1
  S  S4  1  0.71649300  0.97189200  0.65177300  1
  S  S5  1  0.78350700  0.47189200  0.84822700  1
  S  S6  1  0.28350700  0.02810800  0.15177300  1
  S  S7  1  0.21649300  0.52810800  0.34822700  1
  S  S8  1  0.78868700  0.72168000  0.15171600  1
  S  S9  1  0.71131300  0.22168000  0.34828400  1
  S  S10  1  0.21131300  0.27832000  0.65171600  1
  S  S11  1  0.28868700  0.77832000  0.84828400  1
  S  S12  1  0.21131300  0.27832000  0.84828400  1
  S  S13  1  0.28868700  0.77832000  0.65171600  1
  S  S14  1  0.78868700  0.72168000  0.34828400  1
  S  S15  1  0.71131300  0.22168000  0.15171600  1
  S  S16  1  0.28405100  0.78688400  0.25000000  1
  S  S17  1  0.21594900  0.28688400  0.25000000  1
  S  S18  1  0.71594900  0.21311600  0.75000000  1
  S  S19  1  0.78405100  0.71311600  0.75000000  1
  S  S20  1  0.78138700  0.96266400  0.25000000  1
  S  S21  1  0.71861300  0.46266400  0.25000000  1
  S  S22  1  0.21861300  0.03733600  0.75000000  1
  S  S23  1  0.28138700  0.53733600  0.75000000  1
  F  F0  1  0.01331300  0.87470400  0.00359900  1
  F  F1  1  0.48668700  0.37470400  0.49640100  1
  F  F2  1  0.98668700  0.12529600  0.50359900  1
  F  F3  1  0.51331300  0.62529600  0.99640100  1
  F  F4  1  0.98668700  0.12529600  0.99640100  1
  F  F5  1  0.51331300  0.62529600  0.50359900  1
  F  F6  1  0.01331300  0.87470400  0.49640100  1
  F  F7  1  0.48668700  0.37470400  0.00359900  1
  F  F8  1  0.01077100  0.62535100  0.99831900  1
  F  F9  1  0.48922900  0.12535100  0.50168100  1
  F  F10  1  0.98922900  0.37464900  0.49831900  1
  F  F11  1  0.51077100  0.87464900  0.00168100  1
  F  F12  1  0.98922900  0.37464900  0.00168100  1
  F  F13  1  0.51077100  0.87464900  0.49831900  1
  F  F14  1  0.01077100  0.62535100  0.50168100  1
  F  F15  1  0.48922900  0.12535100  0.99831900  1
loop_
_geom_bond_atom_site_label_1
_geom_bond_atom_site_label_2
_geom_bond_distance
_geom_bond_site_symmetry_2
Ba0 F11 2.669294 1_555
Ba0 F0 2.698620 1_555
Ba0 F3 2.713639 1_554
Ba0 F8 2.740796 1_554
Ba0 S1 3.251355 1_555
Ba0 S16 3.255705 1_555
Ba0 S8 3.316395 1_455
Ba0 S8 3.543926 1_555
Ba1 F10 2.669294 1_455
Ba1 F1 2.698620 1_555
Ba1 F2 2.713639 1_455
Ba1 F9 2.740796 1_555
Ba1 S0 3.251355 1_555
Ba1 S17 3.255705 1_555
Ba1 S9 3.316395 1_555
Ba1 S9 3.543926 1_455
Ba2 F9 2.669294 1_555
Ba2 F2 2.698620 1_555
Ba2 F1 2.713639 1_555
Ba2 F10 2.740796 1_555
Ba2 S3 3.251355 1_555
Ba2 S18 3.255705 1_555
Ba2 S10 3.316395 1_655
Ba2 S10 3.543926 1_555
Ba3 F8 2.669294 1_655
Ba3 F3 2.698620 1_555
Ba3 F0 2.713639 1_656
Ba3 F11 2.740796 1_556
Ba3 S2 3.251355 1_555
Ba3 S19 3.255705 1_555
Ba3 S11 3.316395 1_555
Ba3 S11 3.543926 1_655
Ba4 F15 2.669294 1_555
Ba4 F4 2.698620 1_555
Ba4 F7 2.713639 1_556
Ba4 F12 2.740796 1_556
Ba4 S5 3.251355 1_555
Ba4 S18 3.255705 1_555
Ba4 S12 3.316395 1_655
Ba4 S12 3.543926 1_555
Ba5 F14 2.669294 1_655
Ba5 F5 2.698620 1_555
Ba5 F6 2.713639 1_655
Ba5 F13 2.740796 1_555
Ba5 S4 3.251355 1_555
Ba5 S19 3.255705 1_555
Ba5 S13 3.316395 1_555
Ba5 S13 3.543926 1_655
Ba6 F13 2.669294 1_555
Ba6 F6 2.698620 1_555
Ba6 F5 2.713639 1_555
Ba6 F14 2.740796 1_555
Ba6 S7 3.251355 1_555
Ba6 S16 3.255705 1_555
Ba6 S14 3.316395 1_455
Ba6 S14 3.543926 1_555
Ba7 F12 2.669294 1_455
Ba7 F7 2.698620 1_555
Ba7 F4 2.713639 1_454
Ba7 F15 2.740796 1_554
Ba7 S6 3.251355 1_555
Ba7 S17 3.255705 1_555
Ba7 S15 3.316395 1_555
Ba7 S15 3.543926 1_455
Ba8 F11 2.674133 1_545
Ba8 F4 2.674559 1_554
Ba8 F0 2.695680 1_645
Ba8 F15 2.786447 1_554
Ba8 S15 3.261494 1_555
Ba8 S20 3.263550 1_545
Ba8 S6 3.281665 1_555
Ba8 S6 3.588674 1_655
Ba9 F10 2.674133 1_555
Ba9 F5 2.674559 1_555
Ba9 F1 2.695680 1_555
Ba9 F14 2.786447 1_655
Ba9 S14 3.261494 1_555
Ba9 S21 3.263550 1_555
Ba9 S7 3.281665 1_655
Ba9 S7 3.588674 1_555
Ba10 F9 2.674133 1_565
Ba10 F6 2.674559 1_555
Ba10 F2 2.695680 1_465
Ba10 F13 2.786447 1_555
Ba10 S13 3.261494 1_555
Ba10 S22 3.263550 1_565
Ba10 S4 3.281665 1_555
Ba10 S4 3.588674 1_455
Ba11 F8 2.674133 1_555
Ba11 F7 2.674559 1_556
Ba11 F3 2.695680 1_555
Ba11 F12 2.786447 1_456
Ba11 S12 3.261494 1_555
Ba11 S23 3.263550 1_555
Ba11 S5 3.281665 1_455
Ba11 S5 3.588674 1_555
Ba12 F15 2.674133 1_565
Ba12 F0 2.674559 1_556
Ba12 F4 2.695680 1_465
Ba12 F11 2.786447 1_556
Ba12 S11 3.261494 1_555
Ba12 S22 3.263550 1_565
Ba12 S2 3.281665 1_555
Ba12 S2 3.588674 1_455
Ba13 F14 2.674133 1_555
Ba13 F1 2.674559 1_555
Ba13 F5 2.695680 1_555
Ba13 F10 2.786447 1_455
Ba13 S10 3.261494 1_555
Ba13 S23 3.263550 1_555
Ba13 S3 3.281665 1_455
Ba13 S3 3.588674 1_555
Ba14 F13 2.674133 1_545
Ba14 F2 2.674559 1_555
Ba14 F6 2.695680 1_645
Ba14 F9 2.786447 1_555
Ba14 S9 3.261494 1_555
Ba14 S20 3.263550 1_545
Ba14 S0 3.281665 1_555
Ba14 S0 3.588674 1_655
Ba15 F12 2.674133 1_555
Ba15 F3 2.674559 1_554
Ba15 F7 2.695680 1_555
Ba15 F8 2.786447 1_654
Ba15 S8 3.261494 1_555
Ba15 S21 3.263550 1_555
Ba15 S1 3.281665 1_655
Ba15 S1 3.588674 1_555
Cr0 S6 2.610218 1_555
Cr0 S0 2.610218 1_555
Cr0 S9 2.610470 1_555
Cr0 S15 2.610470 1_555
Cr0 S17 2.774740 1_555
Cr0 S20 2.789261 1_545
Cr1 S1 2.610218 1_555
Cr1 S7 2.610218 1_555
Cr1 S14 2.610470 1_455
Cr1 S8 2.610470 1_455
Cr1 S16 2.774740 1_555
Cr1 S21 2.789261 1_455
Cr2 S2 2.610218 1_555
Cr2 S4 2.610218 1_555
Cr2 S11 2.610470 1_555
Cr2 S13 2.610470 1_555
Cr2 S19 2.774740 1_555
Cr2 S22 2.789261 1_565
Cr3 S5 2.610218 1_555
Cr3 S3 2.610218 1_555
Cr3 S12 2.610470 1_655
Cr3 S10 2.610470 1_655
Cr3 S18 2.774740 1_555
Cr3 S23 2.789261 1_655
Ga0 S8 2.266505 1_555
Ga0 S14 2.266505 1_555
Ga0 S20 2.310238 1_555
Ga0 S16 2.319381 1_555
Ga1 S9 2.266505 1_555
Ga1 S15 2.266505 1_555
Ga1 S21 2.310238 1_555
Ga1 S17 2.319381 1_655
Ga2 S12 2.266505 1_555
Ga2 S10 2.266505 1_555
Ga2 S22 2.310238 1_555
Ga2 S18 2.319381 1_555
Ga3 S11 2.266505 1_555
Ga3 S13 2.266505 1_555
Ga3 S23 2.310238 1_555
Ga3 S19 2.319381 1_455
Ga4 S6 2.265712 1_565
Ga4 S0 2.265712 1_565
Ga4 S16 2.315146 1_555
Ga4 S20 2.317886 1_455
Ga5 S7 2.265712 1_555
Ga5 S1 2.265712 1_555
Ga5 S17 2.315146 1_555
Ga5 S21 2.317886 1_555
Ga6 S2 2.265712 1_545
Ga6 S4 2.265712 1_545
Ga6 S18 2.315146 1_555
Ga6 S22 2.317886 1_655
Ga7 S5 2.265712 1_555
Ga7 S3 2.265712 1_555
Ga7 S19 2.315146 1_555
Ga7 S23 2.317886 1_555
