# generated using pymatgen
data_Sr(NiB)2
_symmetry_space_group_name_H-M   'P 1'
_cell_length_a   6.42324912
_cell_length_b   15.42366036
_cell_length_c   22.27642856
_cell_angle_alpha   98.59983954
_cell_angle_beta   90.35103593
_cell_angle_gamma   90.11497847
_symmetry_Int_Tables_number   1
_chemical_formula_structural   Sr(NiB)2
_chemical_formula_sum   'Sr32 Ni64 B64'
_cell_volume   2182.06266175
_cell_formula_units_Z   32
loop_
 _symmetry_equiv_pos_site_id
 _symmetry_equiv_pos_as_xyz
  1  'x, y, z'
loop_
 _atom_site_type_symbol
 _atom_site_label
 _atom_site_symmetry_multiplicity
 _atom_site_fract_x
 _atom_site_fract_y
 _atom_site_fract_z
 _atom_site_occupancy
  Sr  Sr0_0  1  0.25211100  0.33295150  0.21527650  1
  Sr  Sr0_1  1  0.25211100  0.33295150  0.71527650  1
  Sr  Sr0_2  1  0.25211100  0.83295150  0.21527650  1
  Sr  Sr0_3  1  0.25211100  0.83295150  0.71527650  1
  Sr  Sr0_4  1  0.75211100  0.33295150  0.21527650  1
  Sr  Sr0_5  1  0.75211100  0.33295150  0.71527650  1
  Sr  Sr0_6  1  0.75211100  0.83295150  0.21527650  1
  Sr  Sr0_7  1  0.75211100  0.83295150  0.71527650  1
  Sr  Sr1_0  1  0.24877350  0.16661000  0.28463500  1
  Sr  Sr1_1  1  0.24877350  0.16661000  0.78463500  1
  Sr  Sr1_2  1  0.24877350  0.66661000  0.28463500  1
  Sr  Sr1_3  1  0.24877350  0.66661000  0.78463500  1
  Sr  Sr1_4  1  0.74877350  0.16661000  0.28463500  1
  Sr  Sr1_5  1  0.74877350  0.16661000  0.78463500  1
  Sr  Sr1_6  1  0.74877350  0.66661000  0.28463500  1
  Sr  Sr1_7  1  0.74877350  0.66661000  0.78463500  1
  Sr  Sr2_0  1  0.00057150  0.40884850  0.45865700  1
  Sr  Sr2_1  1  0.00057150  0.40884850  0.95865700  1
  Sr  Sr2_2  1  0.00057150  0.90884850  0.45865700  1
  Sr  Sr2_3  1  0.00057150  0.90884850  0.95865700  1
  Sr  Sr2_4  1  0.50057150  0.40884850  0.45865700  1
  Sr  Sr2_5  1  0.50057150  0.40884850  0.95865700  1
  Sr  Sr2_6  1  0.50057150  0.90884850  0.45865700  1
  Sr  Sr2_7  1  0.50057150  0.90884850  0.95865700  1
  Sr  Sr3_0  1  0.49922200  0.09132450  0.04148800  1
  Sr  Sr3_1  1  0.49922200  0.09132450  0.54148800  1
  Sr  Sr3_2  1  0.49922200  0.59132450  0.04148800  1
  Sr  Sr3_3  1  0.49922200  0.59132450  0.54148800  1
  Sr  Sr3_4  1  0.99922200  0.09132450  0.04148800  1
  Sr  Sr3_5  1  0.99922200  0.09132450  0.54148800  1
  Sr  Sr3_6  1  0.99922200  0.59132450  0.04148800  1
  Sr  Sr3_7  1  0.99922200  0.59132450  0.54148800  1
  Ni  Ni0_0  1  0.24860000  0.40579950  0.07813450  1
  Ni  Ni0_1  1  0.24860000  0.40579950  0.57813450  1
  Ni  Ni0_2  1  0.24860000  0.90579950  0.07813450  1
  Ni  Ni0_3  1  0.24860000  0.90579950  0.57813450  1
  Ni  Ni0_4  1  0.74860000  0.40579950  0.07813450  1
  Ni  Ni0_5  1  0.74860000  0.40579950  0.57813450  1
  Ni  Ni0_6  1  0.74860000  0.90579950  0.07813450  1
  Ni  Ni0_7  1  0.74860000  0.90579950  0.57813450  1
  Ni  Ni1_0  1  0.25123350  0.09528500  0.42219850  1
  Ni  Ni1_1  1  0.25123350  0.09528500  0.92219850  1
  Ni  Ni1_2  1  0.25123350  0.59528500  0.42219850  1
  Ni  Ni1_3  1  0.25123350  0.59528500  0.92219850  1
  Ni  Ni1_4  1  0.75123350  0.09528500  0.42219850  1
  Ni  Ni1_5  1  0.75123350  0.09528500  0.92219850  1
  Ni  Ni1_6  1  0.75123350  0.59528500  0.42219850  1
  Ni  Ni1_7  1  0.75123350  0.59528500  0.92219850  1
  Ni  Ni2_0  1  0.49927600  0.35758000  0.33973600  1
  Ni  Ni2_1  1  0.49927600  0.35758000  0.83973600  1
  Ni  Ni2_2  1  0.49927600  0.85758000  0.33973600  1
  Ni  Ni2_3  1  0.49927600  0.85758000  0.83973600  1
  Ni  Ni2_4  1  0.99927600  0.35758000  0.33973600  1
  Ni  Ni2_5  1  0.99927600  0.35758000  0.83973600  1
  Ni  Ni2_6  1  0.99927600  0.85758000  0.33973600  1
  Ni  Ni2_7  1  0.99927600  0.85758000  0.83973600  1
  Ni  Ni3_0  1  0.00127900  0.14190750  0.16023650  1
  Ni  Ni3_1  1  0.00127900  0.14190750  0.66023650  1
  Ni  Ni3_2  1  0.00127900  0.64190750  0.16023650  1
  Ni  Ni3_3  1  0.00127900  0.64190750  0.66023650  1
  Ni  Ni3_4  1  0.50127900  0.14190750  0.16023650  1
  Ni  Ni3_5  1  0.50127900  0.14190750  0.66023650  1
  Ni  Ni3_6  1  0.50127900  0.64190750  0.16023650  1
  Ni  Ni3_7  1  0.50127900  0.64190750  0.66023650  1
  Ni  Ni4_0  1  0.25037550  0.24948550  0.40549900  1
  Ni  Ni4_1  1  0.25037550  0.24948550  0.90549900  1
  Ni  Ni4_2  1  0.25037550  0.74948550  0.40549900  1
  Ni  Ni4_3  1  0.25037550  0.74948550  0.90549900  1
  Ni  Ni4_4  1  0.75037550  0.24948550  0.40549900  1
  Ni  Ni4_5  1  0.75037550  0.24948550  0.90549900  1
  Ni  Ni4_6  1  0.75037550  0.74948550  0.40549900  1
  Ni  Ni4_7  1  0.75037550  0.74948550  0.90549900  1
  Ni  Ni5_0  1  0.24953250  0.25114950  0.09420950  1
  Ni  Ni5_1  1  0.24953250  0.25114950  0.59420950  1
  Ni  Ni5_2  1  0.24953250  0.75114950  0.09420950  1
  Ni  Ni5_3  1  0.24953250  0.75114950  0.59420950  1
  Ni  Ni5_4  1  0.74953250  0.25114950  0.09420950  1
  Ni  Ni5_5  1  0.74953250  0.25114950  0.59420950  1
  Ni  Ni5_6  1  0.74953250  0.75114950  0.09420950  1
  Ni  Ni5_7  1  0.74953250  0.75114950  0.59420950  1
  Ni  Ni6_0  1  0.49940450  0.47568350  0.15299800  1
  Ni  Ni6_1  1  0.49940450  0.47568350  0.65299800  1
  Ni  Ni6_2  1  0.49940450  0.97568350  0.15299800  1
  Ni  Ni6_3  1  0.49940450  0.97568350  0.65299800  1
  Ni  Ni6_4  1  0.99940450  0.47568350  0.15299800  1
  Ni  Ni6_5  1  0.99940450  0.47568350  0.65299800  1
  Ni  Ni6_6  1  0.99940450  0.97568350  0.15299800  1
  Ni  Ni6_7  1  0.99940450  0.97568350  0.65299800  1
  Ni  Ni7_0  1  0.00026600  0.02402650  0.34725300  1
  Ni  Ni7_1  1  0.00026600  0.02402650  0.84725300  1
  Ni  Ni7_2  1  0.00026600  0.52402650  0.34725300  1
  Ni  Ni7_3  1  0.00026600  0.52402650  0.84725300  1
  Ni  Ni7_4  1  0.50026600  0.02402650  0.34725300  1
  Ni  Ni7_5  1  0.50026600  0.02402650  0.84725300  1
  Ni  Ni7_6  1  0.50026600  0.52402650  0.34725300  1
  Ni  Ni7_7  1  0.50026600  0.52402650  0.84725300  1
  B  B0_0  1  0.24994650  0.00398300  0.21428400  1
  B  B0_1  1  0.24994650  0.00398300  0.71428400  1
  B  B0_2  1  0.24994650  0.50398300  0.21428400  1
  B  B0_3  1  0.24994650  0.50398300  0.71428400  1
  B  B0_4  1  0.74994650  0.00398300  0.21428400  1
  B  B0_5  1  0.74994650  0.00398300  0.71428400  1
  B  B0_6  1  0.74994650  0.50398300  0.21428400  1
  B  B0_7  1  0.74994650  0.50398300  0.71428400  1
  B  B1_0  1  0.24919000  0.49554000  0.28578500  1
  B  B1_1  1  0.24919000  0.49554000  0.78578500  1
  B  B1_2  1  0.24919000  0.99554000  0.28578500  1
  B  B1_3  1  0.24919000  0.99554000  0.78578500  1
  B  B1_4  1  0.74919000  0.49554000  0.28578500  1
  B  B1_5  1  0.74919000  0.49554000  0.78578500  1
  B  B1_6  1  0.74919000  0.99554000  0.28578500  1
  B  B1_7  1  0.74919000  0.99554000  0.78578500  1
  B  B2_0  1  0.49842400  0.22623400  0.46355700  1
  B  B2_1  1  0.49842400  0.22623400  0.96355700  1
  B  B2_2  1  0.49842400  0.72623400  0.46355700  1
  B  B2_3  1  0.49842400  0.72623400  0.96355700  1
  B  B2_4  1  0.99842400  0.22623400  0.46355700  1
  B  B2_5  1  0.99842400  0.22623400  0.96355700  1
  B  B2_6  1  0.99842400  0.72623400  0.46355700  1
  B  B2_7  1  0.99842400  0.72623400  0.96355700  1
  B  B3_0  1  0.00163250  0.27398050  0.03621550  1
  B  B3_1  1  0.00163250  0.27398050  0.53621550  1
  B  B3_2  1  0.00163250  0.77398050  0.03621550  1
  B  B3_3  1  0.00163250  0.77398050  0.53621550  1
  B  B3_4  1  0.50163250  0.27398050  0.03621550  1
  B  B3_5  1  0.50163250  0.27398050  0.53621550  1
  B  B3_6  1  0.50163250  0.77398050  0.03621550  1
  B  B3_7  1  0.50163250  0.77398050  0.53621550  1
  B  B4_0  1  0.25059950  0.06067700  0.15388100  1
  B  B4_1  1  0.25059950  0.06067700  0.65388100  1
  B  B4_2  1  0.25059950  0.56067700  0.15388100  1
  B  B4_3  1  0.25059950  0.56067700  0.65388100  1
  B  B4_4  1  0.75059950  0.06067700  0.15388100  1
  B  B4_5  1  0.75059950  0.06067700  0.65388100  1
  B  B4_6  1  0.75059950  0.56067700  0.15388100  1
  B  B4_7  1  0.75059950  0.56067700  0.65388100  1
  B  B5_0  1  0.24954700  0.43861300  0.34607150  1
  B  B5_1  1  0.24954700  0.43861300  0.84607150  1
  B  B5_2  1  0.24954700  0.93861300  0.34607150  1
  B  B5_3  1  0.24954700  0.93861300  0.84607150  1
  B  B5_4  1  0.74954700  0.43861300  0.34607150  1
  B  B5_5  1  0.74954700  0.43861300  0.84607150  1
  B  B5_6  1  0.74954700  0.93861300  0.34607150  1
  B  B5_7  1  0.74954700  0.93861300  0.84607150  1
  B  B6_0  1  0.00045850  0.15508350  0.39597000  1
  B  B6_1  1  0.00045850  0.15508350  0.89597000  1
  B  B6_2  1  0.00045850  0.65508350  0.39597000  1
  B  B6_3  1  0.00045850  0.65508350  0.89597000  1
  B  B6_4  1  0.50045850  0.15508350  0.39597000  1
  B  B6_5  1  0.50045850  0.15508350  0.89597000  1
  B  B6_6  1  0.50045850  0.65508350  0.39597000  1
  B  B6_7  1  0.50045850  0.65508350  0.89597000  1
  B  B7_0  1  0.49955750  0.34523750  0.10391350  1
  B  B7_1  1  0.49955750  0.34523750  0.60391350  1
  B  B7_2  1  0.49955750  0.84523750  0.10391350  1
  B  B7_3  1  0.49955750  0.84523750  0.60391350  1
  B  B7_4  1  0.99955750  0.34523750  0.10391350  1
  B  B7_5  1  0.99955750  0.34523750  0.60391350  1
  B  B7_6  1  0.99955750  0.84523750  0.10391350  1
  B  B7_7  1  0.99955750  0.84523750  0.60391350  1
loop_
_geom_bond_atom_site_label_1
_geom_bond_atom_site_label_2
_geom_bond_distance
_geom_bond_site_symmetry_2
Sr0_0 Sr1_0 3.186789 1_555
Sr0_0 Sr0_4 3.211625 1_555
Sr0_0 Sr0_4 3.211625 1_455
Sr0_1 Sr1_1 3.186789 1_555
Sr0_1 Sr0_5 3.211625 1_555
Sr0_1 Sr0_5 3.211625 1_455
Sr0_2 Sr1_2 3.186789 1_555
Sr0_2 Sr0_6 3.211625 1_455
Sr0_2 Sr0_6 3.211625 1_555
Sr0_3 Sr1_3 3.186789 1_555
Sr0_3 Sr0_7 3.211625 1_555
Sr0_3 Sr0_7 3.211625 1_455
Sr0_4 Sr1_4 3.186789 1_555
Sr0_5 Sr1_5 3.186789 1_555
Sr0_6 Sr1_6 3.186789 1_555
Sr0_7 Sr1_7 3.186789 1_555
Sr1_0 Sr1_4 3.211625 1_455
Sr1_0 Sr1_4 3.211625 1_555
Sr1_1 Sr1_5 3.211625 1_455
Sr1_1 Sr1_5 3.211625 1_555
Sr1_2 Sr1_6 3.211625 1_555
Sr1_2 Sr1_6 3.211625 1_455
Sr1_3 Sr1_7 3.211625 1_455
Sr1_3 Sr1_7 3.211625 1_555
Sr2_0 Sr3_7 3.126192 1_455
Sr2_0 Sr2_4 3.211625 1_555
Sr2_0 Sr2_4 3.211625 1_455
Sr2_1 Sr3_6 3.126192 1_456
Sr2_1 Sr2_5 3.211625 1_455
Sr2_1 Sr2_5 3.211625 1_555
Sr2_2 Sr3_5 3.126192 1_465
Sr2_2 Sr2_6 3.211625 1_555
Sr2_2 Sr2_6 3.211625 1_455
Sr2_3 Sr3_4 3.126192 1_466
Sr2_3 Sr2_7 3.211625 1_555
Sr2_3 Sr2_7 3.211625 1_455
Sr2_4 Sr3_3 3.126192 1_555
Sr2_5 Sr3_2 3.126192 1_556
Sr2_6 Sr3_1 3.126192 1_565
Sr2_7 Sr3_0 3.126192 1_566
Sr3_0 Sr3_4 3.211625 1_555
Sr3_0 Sr3_4 3.211625 1_455
Sr3_1 Sr3_5 3.211625 1_455
Sr3_1 Sr3_5 3.211625 1_555
Sr3_2 Sr3_6 3.211625 1_555
Sr3_2 Sr3_6 3.211625 1_455
Sr3_3 Sr3_7 3.211625 1_555
Sr3_3 Sr3_7 3.211625 1_455
Ni0_0 Ni5_0 2.464397 1_555
Ni0_0 Sr2_1 3.099978 1_554
Ni0_0 Sr2_5 3.129750 1_554
Ni0_0 Sr3_6 3.481561 1_455
Ni0_0 Sr3_2 3.484562 1_555
Ni0_1 Ni5_1 2.464397 1_555
Ni0_1 Sr2_0 3.099978 1_555
Ni0_1 Sr2_4 3.129750 1_555
Ni0_1 Sr3_7 3.481561 1_455
Ni0_1 Sr3_3 3.484562 1_555
Ni0_2 Ni5_2 2.464397 1_555
Ni0_2 Sr2_3 3.099978 1_554
Ni0_2 Sr2_7 3.129750 1_554
Ni0_2 Sr3_4 3.481561 1_465
Ni0_2 Sr3_0 3.484562 1_565
Ni0_3 Ni5_3 2.464397 1_555
Ni0_3 Sr2_2 3.099978 1_555
Ni0_3 Sr2_6 3.129750 1_555
Ni0_3 Sr3_5 3.481561 1_465
Ni0_3 Sr3_1 3.484562 1_565
Ni0_4 Ni5_4 2.464397 1_555
Ni0_4 Sr2_5 3.099978 1_554
Ni0_4 Sr2_1 3.129750 1_654
Ni0_4 Sr3_2 3.481561 1_555
Ni0_4 Sr3_6 3.484562 1_555
Ni0_5 Ni5_5 2.464397 1_555
Ni0_5 Sr2_4 3.099978 1_555
Ni0_5 Sr2_0 3.129750 1_655
Ni0_5 Sr3_3 3.481561 1_555
Ni0_5 Sr3_7 3.484562 1_555
Ni0_6 Ni5_6 2.464397 1_555
Ni0_6 Sr2_7 3.099978 1_554
Ni0_6 Sr2_3 3.129750 1_654
Ni0_6 Sr3_0 3.481561 1_565
Ni0_6 Sr3_4 3.484562 1_565
Ni0_7 Ni5_7 2.464397 1_555
Ni0_7 Sr2_6 3.099978 1_555
Ni0_7 Sr2_2 3.129750 1_655
Ni0_7 Sr3_1 3.481561 1_565
Ni0_7 Sr3_5 3.484562 1_565
Ni1_0 Ni4_0 2.461611 1_555
Ni1_0 Sr3_1 3.098319 1_555
Ni1_0 Sr3_5 3.128316 1_455
Ni1_0 Sr2_6 3.492031 1_545
Ni1_0 Sr2_2 3.495210 1_545
Ni1_1 Ni4_1 2.461611 1_555
Ni1_1 Sr3_0 3.098319 1_556
Ni1_1 Sr3_4 3.128316 1_456
Ni1_1 Sr2_7 3.492031 1_545
Ni1_1 Sr2_3 3.495210 1_545
Ni1_2 Ni4_2 2.461611 1_555
Ni1_2 Sr3_3 3.098319 1_555
Ni1_2 Sr3_7 3.128316 1_455
Ni1_2 Sr2_4 3.492031 1_555
Ni1_2 Sr2_0 3.495210 1_555
Ni1_3 Ni4_3 2.461611 1_555
Ni1_3 Sr3_2 3.098319 1_556
Ni1_3 Sr3_6 3.128316 1_456
Ni1_3 Sr2_5 3.492031 1_555
Ni1_3 Sr2_1 3.495210 1_555
Ni1_4 Ni4_4 2.461611 1_555
Ni1_4 Sr3_5 3.098319 1_555
Ni1_4 Sr3_1 3.128316 1_555
Ni1_4 Sr2_2 3.492031 1_645
Ni1_4 Sr2_6 3.495210 1_545
Ni1_5 Ni4_5 2.461611 1_555
Ni1_5 Sr3_4 3.098319 1_556
Ni1_5 Sr3_0 3.128316 1_556
Ni1_5 Sr2_3 3.492031 1_645
Ni1_5 Sr2_7 3.495210 1_545
Ni1_6 Ni4_6 2.461611 1_555
Ni1_6 Sr3_7 3.098319 1_555
Ni1_6 Sr3_3 3.128316 1_555
Ni1_6 Sr2_0 3.492031 1_655
Ni1_6 Sr2_4 3.495210 1_555
Ni1_7 Ni4_7 2.461611 1_555
Ni1_7 Sr3_6 3.098319 1_556
Ni1_7 Sr3_2 3.128316 1_556
Ni1_7 Sr2_1 3.492031 1_655
Ni1_7 Sr2_5 3.495210 1_555
Ni2_0 Sr2_4 2.648866 1_555
Ni2_0 Ni4_0 2.868826 1_555
Ni2_0 Ni4_4 2.870429 1_555
Ni2_0 Sr0_0 3.159159 1_555
Ni2_0 Sr0_4 3.195505 1_555
Ni2_0 Sr1_0 3.412755 1_555
Ni2_0 Sr1_4 3.422344 1_555
Ni2_1 Sr2_5 2.648866 1_555
Ni2_1 Ni4_1 2.868826 1_555
Ni2_1 Ni4_5 2.870429 1_555
Ni2_1 Sr0_1 3.159159 1_555
Ni2_1 Sr0_5 3.195505 1_555
Ni2_1 Sr1_1 3.412755 1_555
Ni2_1 Sr1_5 3.422344 1_555
Ni2_2 Sr2_6 2.648866 1_555
Ni2_2 Ni4_2 2.868826 1_555
Ni2_2 Ni4_6 2.870429 1_555
Ni2_2 Sr0_2 3.159159 1_555
Ni2_2 Sr0_6 3.195505 1_555
Ni2_2 Sr1_2 3.412755 1_555
Ni2_2 Sr1_6 3.422344 1_555
Ni2_3 Sr2_7 2.648866 1_555
Ni2_3 Ni4_3 2.868826 1_555
Ni2_3 Ni4_7 2.870429 1_555
Ni2_3 Sr0_3 3.159159 1_555
Ni2_3 Sr0_7 3.195505 1_555
Ni2_3 Sr1_3 3.412755 1_555
Ni2_3 Sr1_7 3.422344 1_555
Ni2_4 Sr2_0 2.648866 1_655
Ni2_4 Ni4_4 2.868826 1_555
Ni2_4 Ni4_0 2.870429 1_655
Ni2_4 Sr0_4 3.159159 1_555
Ni2_4 Sr0_0 3.195505 1_655
Ni2_4 Sr1_4 3.412755 1_555
Ni2_4 Sr1_0 3.422344 1_655
Ni2_5 Sr2_1 2.648866 1_655
Ni2_5 Ni4_5 2.868826 1_555
Ni2_5 Ni4_1 2.870429 1_655
Ni2_5 Sr0_5 3.159159 1_555
Ni2_5 Sr0_1 3.195505 1_655
Ni2_5 Sr1_5 3.412755 1_555
Ni2_5 Sr1_1 3.422344 1_655
Ni2_6 Sr2_2 2.648866 1_655
Ni2_6 Ni4_6 2.868826 1_555
Ni2_6 Ni4_2 2.870429 1_655
Ni2_6 Sr0_6 3.159159 1_555
Ni2_6 Sr0_2 3.195505 1_655
Ni2_6 Sr1_6 3.412755 1_555
Ni2_6 Sr1_2 3.422344 1_655
Ni2_7 Sr2_3 2.648866 1_655
Ni2_7 Ni4_7 2.868826 1_555
Ni2_7 Ni4_3 2.870429 1_655
Ni2_7 Sr0_7 3.159159 1_555
Ni2_7 Sr0_3 3.195505 1_655
Ni2_7 Sr1_7 3.412755 1_555
Ni2_7 Sr1_3 3.422344 1_655
Ni3_0 Sr3_4 2.643623 1_455
Ni3_0 Ni5_0 2.881693 1_555
Ni3_0 Ni5_4 2.887914 1_455
Ni3_0 Sr1_0 3.159034 1_555
Ni3_0 Sr1_4 3.193248 1_455
Ni3_0 Sr0_0 3.414359 1_555
Ni3_0 Sr0_4 3.421952 1_455
Ni3_1 Sr3_5 2.643623 1_455
Ni3_1 Ni5_1 2.881693 1_555
Ni3_1 Ni5_5 2.887914 1_455
Ni3_1 Sr1_1 3.159034 1_555
Ni3_1 Sr1_5 3.193248 1_455
Ni3_1 Sr0_1 3.414359 1_555
Ni3_1 Sr0_5 3.421952 1_455
Ni3_2 Sr3_6 2.643623 1_455
Ni3_2 Ni5_2 2.881693 1_555
Ni3_2 Ni5_6 2.887914 1_455
Ni3_2 Sr1_2 3.159034 1_555
Ni3_2 Sr1_6 3.193248 1_455
Ni3_2 Sr0_2 3.414359 1_555
Ni3_2 Sr0_6 3.421952 1_455
Ni3_3 Sr3_7 2.643623 1_455
Ni3_3 Ni5_3 2.881693 1_555
Ni3_3 Ni5_7 2.887914 1_455
Ni3_3 Sr1_3 3.159034 1_555
Ni3_3 Sr1_7 3.193248 1_455
Ni3_3 Sr0_3 3.414359 1_555
Ni3_3 Sr0_7 3.421952 1_455
Ni3_4 Sr3_0 2.643623 1_555
Ni3_4 Ni5_4 2.881693 1_555
Ni3_4 Ni5_0 2.887914 1_555
Ni3_4 Sr1_4 3.159034 1_555
Ni3_4 Sr1_0 3.193248 1_555
Ni3_4 Sr0_4 3.414359 1_555
Ni3_4 Sr0_0 3.421952 1_555
Ni3_5 Sr3_1 2.643623 1_555
Ni3_5 Ni5_5 2.881693 1_555
Ni3_5 Ni5_1 2.887914 1_555
Ni3_5 Sr1_5 3.159034 1_555
Ni3_5 Sr1_1 3.193248 1_555
Ni3_5 Sr0_5 3.414359 1_555
Ni3_5 Sr0_1 3.421952 1_555
Ni3_6 Sr3_2 2.643623 1_555
Ni3_6 Ni5_6 2.881693 1_555
Ni3_6 Ni5_2 2.887914 1_555
Ni3_6 Sr1_6 3.159034 1_555
Ni3_6 Sr1_2 3.193248 1_555
Ni3_6 Sr0_6 3.414359 1_555
Ni3_6 Sr0_2 3.421952 1_555
Ni3_7 Sr3_3 2.643623 1_555
Ni3_7 Ni5_7 2.881693 1_555
Ni3_7 Ni5_3 2.887914 1_555
Ni3_7 Sr1_7 3.159034 1_555
Ni3_7 Sr1_3 3.193248 1_555
Ni3_7 Sr0_7 3.414359 1_555
Ni3_7 Sr0_3 3.421952 1_555
Ni4_0 Sr1_0 2.802407 1_555
Ni4_0 Sr2_4 3.019414 1_555
Ni4_0 Sr2_0 3.031016 1_555
Ni4_1 Sr1_1 2.802407 1_555
Ni4_1 Sr2_5 3.019414 1_555
Ni4_1 Sr2_1 3.031016 1_555
Ni4_2 Sr1_2 2.802407 1_555
Ni4_2 Sr2_6 3.019414 1_555
Ni4_2 Sr2_2 3.031016 1_555
Ni4_3 Sr1_3 2.802407 1_555
Ni4_3 Sr2_7 3.019414 1_555
Ni4_3 Sr2_3 3.031016 1_555
Ni4_4 Sr1_4 2.802407 1_555
Ni4_4 Sr2_0 3.019414 1_655
Ni4_4 Sr2_4 3.031016 1_555
Ni4_5 Sr1_5 2.802407 1_555
Ni4_5 Sr2_1 3.019414 1_655
Ni4_5 Sr2_5 3.031016 1_555
Ni4_6 Sr1_6 2.802407 1_555
Ni4_6 Sr2_2 3.019414 1_655
Ni4_6 Sr2_6 3.031016 1_555
Ni4_7 Sr1_7 2.802407 1_555
Ni4_7 Sr2_3 3.019414 1_655
Ni4_7 Sr2_7 3.031016 1_555
Ni5_0 Sr0_0 2.801313 1_555
Ni5_0 Sr3_4 3.022606 1_455
Ni5_0 Sr3_0 3.033369 1_555
Ni5_1 Sr0_1 2.801313 1_555
Ni5_1 Sr3_5 3.022606 1_455
Ni5_1 Sr3_1 3.033369 1_555
Ni5_2 Sr0_2 2.801313 1_555
Ni5_2 Sr3_6 3.022606 1_455
Ni5_2 Sr3_2 3.033369 1_555
Ni5_3 Sr0_3 2.801313 1_555
Ni5_3 Sr3_7 3.022606 1_455
Ni5_3 Sr3_3 3.033369 1_555
Ni5_4 Sr0_4 2.801313 1_555
Ni5_4 Sr3_0 3.022606 1_555
Ni5_4 Sr3_4 3.033369 1_555
Ni5_5 Sr0_5 2.801313 1_555
Ni5_5 Sr3_1 3.022606 1_555
Ni5_5 Sr3_5 3.033369 1_555
Ni5_6 Sr0_6 2.801313 1_555
Ni5_6 Sr3_2 3.022606 1_555
Ni5_6 Sr3_6 3.033369 1_555
Ni5_7 Sr0_7 2.801313 1_555
Ni5_7 Sr3_3 3.022606 1_555
Ni5_7 Sr3_7 3.033369 1_555
Ni6_0 Sr0_0 3.196962 1_555
Ni6_0 Sr0_4 3.210298 1_555
Ni6_0 Sr3_2 3.267527 1_555
Ni6_1 Sr0_1 3.196962 1_555
Ni6_1 Sr0_5 3.210298 1_555
Ni6_1 Sr3_3 3.267527 1_555
Ni6_2 Sr0_2 3.196962 1_555
Ni6_2 Sr0_6 3.210298 1_555
Ni6_2 Sr3_0 3.267527 1_565
Ni6_3 Sr0_3 3.196962 1_555
Ni6_3 Sr0_7 3.210298 1_555
Ni6_3 Sr3_1 3.267527 1_565
Ni6_4 Sr0_4 3.196962 1_555
Ni6_4 Sr0_0 3.210298 1_655
Ni6_4 Sr3_6 3.267527 1_555
Ni6_5 Sr0_5 3.196962 1_555
Ni6_5 Sr0_1 3.210298 1_655
Ni6_5 Sr3_7 3.267527 1_555
Ni6_6 Sr0_6 3.196962 1_555
Ni6_6 Sr0_2 3.210298 1_655
Ni6_6 Sr3_4 3.267527 1_565
Ni6_7 Sr0_7 3.196962 1_555
Ni6_7 Sr0_3 3.210298 1_655
Ni6_7 Sr3_5 3.267527 1_565
Ni7_0 Sr1_0 3.203219 1_555
Ni7_0 Sr1_4 3.208682 1_455
Ni7_0 Sr2_2 3.260830 1_545
Ni7_1 Sr1_1 3.203219 1_555
Ni7_1 Sr1_5 3.208682 1_455
Ni7_1 Sr2_3 3.260830 1_545
Ni7_2 Sr1_2 3.203219 1_555
Ni7_2 Sr1_6 3.208682 1_455
Ni7_2 Sr2_0 3.260830 1_555
Ni7_3 Sr1_3 3.203219 1_555
Ni7_3 Sr1_7 3.208682 1_455
Ni7_3 Sr2_1 3.260830 1_555
Ni7_4 Sr1_4 3.203219 1_555
Ni7_4 Sr1_0 3.208682 1_555
Ni7_4 Sr2_6 3.260830 1_545
Ni7_5 Sr1_5 3.203219 1_555
Ni7_5 Sr1_1 3.208682 1_555
Ni7_5 Sr2_7 3.260830 1_545
Ni7_6 Sr1_6 3.203219 1_555
Ni7_6 Sr1_2 3.208682 1_555
Ni7_6 Sr2_4 3.260830 1_555
Ni7_7 Sr1_7 3.203219 1_555
Ni7_7 Sr1_3 3.208682 1_555
Ni7_7 Sr2_5 3.260830 1_555
B0_0 B1_2 1.617428 1_545
B0_0 B4_0 1.710882 1_555
B0_0 Ni6_6 2.106241 1_445
B0_0 Ni6_2 2.115004 1_545
B0_0 Sr0_2 2.641392 1_545
B0_0 Sr1_0 2.751777 1_555
B0_1 B1_3 1.617428 1_545
B0_1 B4_1 1.710882 1_555
B0_1 Ni6_7 2.106241 1_445
B0_1 Ni6_3 2.115004 1_545
B0_1 Sr0_3 2.641392 1_545
B0_1 Sr1_1 2.751777 1_555
B0_2 B1_0 1.617428 1_555
B0_2 B4_2 1.710882 1_555
B0_2 Ni6_4 2.106241 1_455
B0_2 Ni6_0 2.115004 1_555
B0_2 Sr0_0 2.641392 1_555
B0_2 Sr1_2 2.751777 1_555
B0_3 B1_1 1.617428 1_555
B0_3 B4_3 1.710882 1_555
B0_3 Ni6_5 2.106241 1_455
B0_3 Ni6_1 2.115004 1_555
B0_3 Sr0_1 2.641392 1_555
B0_3 Sr1_3 2.751777 1_555
B0_4 B1_6 1.617428 1_545
B0_4 B4_4 1.710882 1_555
B0_4 Ni6_2 2.106241 1_545
B0_4 Ni6_6 2.115004 1_545
B0_4 Sr0_6 2.641392 1_545
B0_4 Sr1_4 2.751777 1_555
B0_5 B1_7 1.617428 1_545
B0_5 B4_5 1.710882 1_555
B0_5 Ni6_3 2.106241 1_545
B0_5 Ni6_7 2.115004 1_545
B0_5 Sr0_7 2.641392 1_545
B0_5 Sr1_5 2.751777 1_555
B0_6 B1_4 1.617428 1_555
B0_6 B4_6 1.710882 1_555
B0_6 Ni6_0 2.106241 1_555
B0_6 Ni6_4 2.115004 1_555
B0_6 Sr0_4 2.641392 1_555
B0_6 Sr1_6 2.751777 1_555
B0_7 B1_5 1.617428 1_555
B0_7 B4_7 1.710882 1_555
B0_7 Ni6_1 2.106241 1_555
B0_7 Ni6_5 2.115004 1_555
B0_7 Sr0_5 2.641392 1_555
B0_7 Sr1_7 2.751777 1_555
B1_0 B5_0 1.710879 1_555
B1_0 Ni7_6 2.111645 1_555
B1_0 Ni7_2 2.115230 1_555
B1_0 Sr1_2 2.642484 1_555
B1_0 Sr0_0 2.752922 1_555
B1_1 B5_1 1.710879 1_555
B1_1 Ni7_7 2.111645 1_555
B1_1 Ni7_3 2.115230 1_555
B1_1 Sr1_3 2.642484 1_555
B1_1 Sr0_1 2.752922 1_555
B1_2 B5_2 1.710879 1_555
B1_2 Ni7_4 2.111645 1_565
B1_2 Ni7_0 2.115230 1_565
B1_2 Sr1_0 2.642484 1_565
B1_2 Sr0_2 2.752922 1_555
B1_3 B5_3 1.710879 1_555
B1_3 Ni7_5 2.111645 1_565
B1_3 Ni7_1 2.115230 1_565
B1_3 Sr1_1 2.642484 1_565
B1_3 Sr0_3 2.752922 1_555
B1_4 B5_4 1.710879 1_555
B1_4 Ni7_2 2.111645 1_655
B1_4 Ni7_6 2.115230 1_555
B1_4 Sr1_6 2.642484 1_555
B1_4 Sr0_4 2.752922 1_555
B1_5 B5_5 1.710879 1_555
B1_5 Ni7_3 2.111645 1_655
B1_5 Ni7_7 2.115230 1_555
B1_5 Sr1_7 2.642484 1_555
B1_5 Sr0_5 2.752922 1_555
B1_6 B5_6 1.710879 1_555
B1_6 Ni7_0 2.111645 1_665
B1_6 Ni7_4 2.115230 1_565
B1_6 Sr1_4 2.642484 1_565
B1_6 Sr0_6 2.752922 1_555
B1_7 B5_7 1.710879 1_555
B1_7 Ni7_1 2.111645 1_665
B1_7 Ni7_5 2.115230 1_565
B1_7 Sr1_5 2.642484 1_565
B1_7 Sr0_7 2.752922 1_555
B2_0 B3_5 1.674987 1_555
B2_0 B6_4 1.725530 1_555
B2_0 Ni4_0 2.110826 1_555
B2_0 Ni4_4 2.140649 1_555
B2_0 Sr2_4 2.834971 1_555
B2_0 Sr3_1 2.902375 1_555
B2_1 B3_4 1.674987 1_556
B2_1 B6_5 1.725530 1_555
B2_1 Ni4_1 2.110826 1_555
B2_1 Ni4_5 2.140649 1_555
B2_1 Sr2_5 2.834971 1_555
B2_1 Sr3_0 2.902375 1_556
B2_2 B3_7 1.674987 1_555
B2_2 B6_6 1.725530 1_555
B2_2 Ni4_2 2.110826 1_555
B2_2 Ni4_6 2.140649 1_555
B2_2 Sr2_6 2.834971 1_555
B2_2 Sr3_3 2.902375 1_555
B2_3 B3_6 1.674987 1_556
B2_3 B6_7 1.725530 1_555
B2_3 Ni4_3 2.110826 1_555
B2_3 Ni4_7 2.140649 1_555
B2_3 Sr2_7 2.834971 1_555
B2_3 Sr3_2 2.902375 1_556
B2_4 B3_1 1.674987 1_655
B2_4 B6_0 1.725530 1_655
B2_4 Ni4_4 2.110826 1_555
B2_4 Ni4_0 2.140649 1_655
B2_4 Sr2_0 2.834971 1_655
B2_4 Sr3_5 2.902375 1_555
B2_5 B3_0 1.674987 1_656
B2_5 B6_1 1.725530 1_655
B2_5 Ni4_5 2.110826 1_555
B2_5 Ni4_1 2.140649 1_655
B2_5 Sr2_1 2.834971 1_655
B2_5 Sr3_4 2.902375 1_556
B2_6 B3_3 1.674987 1_655
B2_6 B6_2 1.725530 1_655
B2_6 Ni4_6 2.110826 1_555
B2_6 Ni4_2 2.140649 1_655
B2_6 Sr2_2 2.834971 1_655
B2_6 Sr3_7 2.902375 1_555
B2_7 B3_2 1.674987 1_656
B2_7 B6_3 1.725530 1_655
B2_7 Ni4_7 2.110826 1_555
B2_7 Ni4_3 2.140649 1_655
B2_7 Sr2_3 2.834971 1_655
B2_7 Sr3_6 2.902375 1_556
B3_0 B7_4 1.728286 1_455
B3_0 Ni5_0 2.107509 1_555
B3_0 Ni5_4 2.138817 1_455
B3_0 Sr3_4 2.837180 1_455
B3_0 Sr2_1 2.896011 1_554
B3_1 B7_5 1.728286 1_455
B3_1 Ni5_1 2.107509 1_555
B3_1 Ni5_5 2.138817 1_455
B3_1 Sr3_5 2.837180 1_455
B3_1 Sr2_0 2.896011 1_555
B3_2 B7_6 1.728286 1_455
B3_2 Ni5_2 2.107509 1_555
B3_2 Ni5_6 2.138817 1_455
B3_2 Sr3_6 2.837180 1_455
B3_2 Sr2_3 2.896011 1_554
B3_3 B7_7 1.728286 1_455
B3_3 Ni5_3 2.107509 1_555
B3_3 Ni5_7 2.138817 1_455
B3_3 Sr3_7 2.837180 1_455
B3_3 Sr2_2 2.896011 1_555
B3_4 B7_0 1.728286 1_555
B3_4 Ni5_4 2.107509 1_555
B3_4 Ni5_0 2.138817 1_555
B3_4 Sr3_0 2.837180 1_555
B3_4 Sr2_5 2.896011 1_554
B3_5 B7_1 1.728286 1_555
B3_5 Ni5_5 2.107509 1_555
B3_5 Ni5_1 2.138817 1_555
B3_5 Sr3_1 2.837180 1_555
B3_5 Sr2_4 2.896011 1_555
B3_6 B7_2 1.728286 1_555
B3_6 Ni5_6 2.107509 1_555
B3_6 Ni5_2 2.138817 1_555
B3_6 Sr3_2 2.837180 1_555
B3_6 Sr2_7 2.896011 1_554
B3_7 B7_3 1.728286 1_555
B3_7 Ni5_7 2.107509 1_555
B3_7 Ni5_3 2.138817 1_555
B3_7 Sr3_3 2.837180 1_555
B3_7 Sr2_6 2.896011 1_555
B4_0 Ni3_0 2.027844 1_555
B4_0 Ni3_4 2.029400 1_555
B4_0 Ni6_2 2.067365 1_545
B4_0 Ni6_6 2.075001 1_445
B4_0 Sr3_4 3.067022 1_455
B4_0 Sr3_0 3.072821 1_555
B4_0 Sr1_0 3.119443 1_555
B4_1 Ni3_1 2.027844 1_555
B4_1 Ni3_5 2.029400 1_555
B4_1 Ni6_3 2.067365 1_545
B4_1 Ni6_7 2.075001 1_445
B4_1 Sr3_5 3.067022 1_455
B4_1 Sr3_1 3.072821 1_555
B4_1 Sr1_1 3.119443 1_555
B4_2 Ni3_2 2.027844 1_555
B4_2 Ni3_6 2.029400 1_555
B4_2 Ni6_0 2.067365 1_555
B4_2 Ni6_4 2.075001 1_455
B4_2 Sr3_6 3.067022 1_455
B4_2 Sr3_2 3.072821 1_555
B4_2 Sr1_2 3.119443 1_555
B4_3 Ni3_3 2.027844 1_555
B4_3 Ni3_7 2.029400 1_555
B4_3 Ni6_1 2.067365 1_555
B4_3 Ni6_5 2.075001 1_455
B4_3 Sr3_7 3.067022 1_455
B4_3 Sr3_3 3.072821 1_555
B4_3 Sr1_3 3.119443 1_555
B4_4 Ni3_4 2.027844 1_555
B4_4 Ni3_0 2.029400 1_655
B4_4 Ni6_6 2.067365 1_545
B4_4 Ni6_2 2.075001 1_545
B4_4 Sr3_0 3.067022 1_555
B4_4 Sr3_4 3.072821 1_555
B4_4 Sr1_4 3.119443 1_555
B4_5 Ni3_5 2.027844 1_555
B4_5 Ni3_1 2.029400 1_655
B4_5 Ni6_7 2.067365 1_545
B4_5 Ni6_3 2.075001 1_545
B4_5 Sr3_1 3.067022 1_555
B4_5 Sr3_5 3.072821 1_555
B4_5 Sr1_5 3.119443 1_555
B4_6 Ni3_6 2.027844 1_555
B4_6 Ni3_2 2.029400 1_655
B4_6 Ni6_4 2.067365 1_555
B4_6 Ni6_0 2.075001 1_555
B4_6 Sr3_2 3.067022 1_555
B4_6 Sr3_6 3.072821 1_555
B4_6 Sr1_6 3.119443 1_555
B4_7 Ni3_7 2.027844 1_555
B4_7 Ni3_3 2.029400 1_655
B4_7 Ni6_5 2.067365 1_555
B4_7 Ni6_1 2.075001 1_555
B4_7 Sr3_3 3.067022 1_555
B4_7 Sr3_7 3.072821 1_555
B4_7 Sr1_7 3.119443 1_555
B5_0 Ni2_4 2.025491 1_455
B5_0 Ni2_0 2.028077 1_555
B5_0 Ni7_2 2.073316 1_555
B5_0 Ni7_6 2.076124 1_555
B5_0 Sr2_4 3.065680 1_555
B5_0 Sr2_0 3.073907 1_555
B5_0 Sr0_0 3.118672 1_555
B5_1 Ni2_5 2.025491 1_455
B5_1 Ni2_1 2.028077 1_555
B5_1 Ni7_3 2.073316 1_555
B5_1 Ni7_7 2.076124 1_555
B5_1 Sr2_5 3.065680 1_555
B5_1 Sr2_1 3.073907 1_555
B5_1 Sr0_1 3.118672 1_555
B5_2 Ni2_6 2.025491 1_455
B5_2 Ni2_2 2.028077 1_555
B5_2 Ni7_0 2.073316 1_565
B5_2 Ni7_4 2.076124 1_565
B5_2 Sr2_6 3.065680 1_555
B5_2 Sr2_2 3.073907 1_555
B5_2 Sr0_2 3.118672 1_555
B5_3 Ni2_7 2.025491 1_455
B5_3 Ni2_3 2.028077 1_555
B5_3 Ni7_1 2.073316 1_565
B5_3 Ni7_5 2.076124 1_565
B5_3 Sr2_7 3.065680 1_555
B5_3 Sr2_3 3.073907 1_555
B5_3 Sr0_3 3.118672 1_555
B5_4 Ni2_0 2.025491 1_555
B5_4 Ni2_4 2.028077 1_555
B5_4 Ni7_6 2.073316 1_555
B5_4 Ni7_2 2.076124 1_655
B5_4 Sr2_0 3.065680 1_655
B5_4 Sr2_4 3.073907 1_555
B5_4 Sr0_4 3.118672 1_555
B5_5 Ni2_1 2.025491 1_555
B5_5 Ni2_5 2.028077 1_555
B5_5 Ni7_7 2.073316 1_555
B5_5 Ni7_3 2.076124 1_655
B5_5 Sr2_1 3.065680 1_655
B5_5 Sr2_5 3.073907 1_555
B5_5 Sr0_5 3.118672 1_555
B5_6 Ni2_2 2.025491 1_555
B5_6 Ni2_6 2.028077 1_555
B5_6 Ni7_4 2.073316 1_565
B5_6 Ni7_0 2.076124 1_665
B5_6 Sr2_2 3.065680 1_655
B5_6 Sr2_6 3.073907 1_555
B5_6 Sr0_6 3.118672 1_555
B5_7 Ni2_3 2.025491 1_555
B5_7 Ni2_7 2.028077 1_555
B5_7 Ni7_5 2.073316 1_565
B5_7 Ni7_1 2.076124 1_665
B5_7 Sr2_3 3.065680 1_655
B5_7 Sr2_7 3.073907 1_555
B5_7 Sr0_7 3.118672 1_555
B6_0 Ni1_4 1.980254 1_455
B6_0 Ni1_0 1.985517 1_555
B6_0 Ni7_0 2.146541 1_555
B6_0 Ni4_0 2.153137 1_555
B6_0 Ni4_4 2.160219 1_455
B6_0 Sr1_4 2.979955 1_455
B6_0 Sr1_0 2.984279 1_555
B6_1 Ni1_5 1.980254 1_455
B6_1 Ni1_1 1.985517 1_555
B6_1 Ni7_1 2.146541 1_555
B6_1 Ni4_1 2.153137 1_555
B6_1 Ni4_5 2.160219 1_455
B6_1 Sr1_5 2.979955 1_455
B6_1 Sr1_1 2.984279 1_555
B6_2 Ni1_6 1.980254 1_455
B6_2 Ni1_2 1.985517 1_555
B6_2 Ni7_2 2.146541 1_555
B6_2 Ni4_2 2.153137 1_555
B6_2 Ni4_6 2.160219 1_455
B6_2 Sr1_6 2.979955 1_455
B6_2 Sr1_2 2.984279 1_555
B6_3 Ni1_7 1.980254 1_455
B6_3 Ni1_3 1.985517 1_555
B6_3 Ni7_3 2.146541 1_555
B6_3 Ni4_3 2.153137 1_555
B6_3 Ni4_7 2.160219 1_455
B6_3 Sr1_7 2.979955 1_455
B6_3 Sr1_3 2.984279 1_555
B6_4 Ni1_0 1.980254 1_555
B6_4 Ni1_4 1.985517 1_555
B6_4 Ni7_4 2.146541 1_555
B6_4 Ni4_4 2.153137 1_555
B6_4 Ni4_0 2.160219 1_555
B6_4 Sr1_0 2.979955 1_555
B6_4 Sr1_4 2.984279 1_555
B6_5 Ni1_1 1.980254 1_555
B6_5 Ni1_5 1.985517 1_555
B6_5 Ni7_5 2.146541 1_555
B6_5 Ni4_5 2.153137 1_555
B6_5 Ni4_1 2.160219 1_555
B6_5 Sr1_1 2.979955 1_555
B6_5 Sr1_5 2.984279 1_555
B6_6 Ni1_2 1.980254 1_555
B6_6 Ni1_6 1.985517 1_555
B6_6 Ni7_6 2.146541 1_555
B6_6 Ni4_6 2.153137 1_555
B6_6 Ni4_2 2.160219 1_555
B6_6 Sr1_2 2.979955 1_555
B6_6 Sr1_6 2.984279 1_555
B6_7 Ni1_3 1.980254 1_555
B6_7 Ni1_7 1.985517 1_555
B6_7 Ni7_7 2.146541 1_555
B6_7 Ni4_7 2.153137 1_555
B6_7 Ni4_3 2.160219 1_555
B6_7 Sr1_3 2.979955 1_555
B6_7 Sr1_7 2.984279 1_555
B7_0 Ni0_4 1.981641 1_555
B7_0 Ni0_0 1.988931 1_555
B7_0 Ni6_0 2.141412 1_555
B7_0 Ni5_0 2.150437 1_555
B7_0 Ni5_4 2.156516 1_555
B7_0 Sr0_0 2.983965 1_555
B7_0 Sr0_4 2.985669 1_555
B7_1 Ni0_5 1.981641 1_555
B7_1 Ni0_1 1.988931 1_555
B7_1 Ni6_1 2.141412 1_555
B7_1 Ni5_1 2.150437 1_555
B7_1 Ni5_5 2.156516 1_555
B7_1 Sr0_1 2.983965 1_555
B7_1 Sr0_5 2.985669 1_555
B7_2 Ni0_6 1.981641 1_555
B7_2 Ni0_2 1.988931 1_555
B7_2 Ni6_2 2.141412 1_555
B7_2 Ni5_2 2.150437 1_555
B7_2 Ni5_6 2.156516 1_555
B7_2 Sr0_2 2.983965 1_555
B7_2 Sr0_6 2.985669 1_555
B7_3 Ni0_7 1.981641 1_555
B7_3 Ni0_3 1.988931 1_555
B7_3 Ni6_3 2.141412 1_555
B7_3 Ni5_3 2.150437 1_555
B7_3 Ni5_7 2.156516 1_555
B7_3 Sr0_3 2.983965 1_555
B7_3 Sr0_7 2.985669 1_555
B7_4 Ni0_0 1.981641 1_655
B7_4 Ni0_4 1.988931 1_555
B7_4 Ni6_4 2.141412 1_555
B7_4 Ni5_4 2.150437 1_555
B7_4 Ni5_0 2.156516 1_655
B7_4 Sr0_4 2.983965 1_555
B7_4 Sr0_0 2.985669 1_655
B7_5 Ni0_1 1.981641 1_655
B7_5 Ni0_5 1.988931 1_555
B7_5 Ni6_5 2.141412 1_555
B7_5 Ni5_5 2.150437 1_555
B7_5 Ni5_1 2.156516 1_655
B7_5 Sr0_5 2.983965 1_555
B7_5 Sr0_1 2.985669 1_655
B7_6 Ni0_2 1.981641 1_655
B7_6 Ni0_6 1.988931 1_555
B7_6 Ni6_6 2.141412 1_555
B7_6 Ni5_6 2.150437 1_555
B7_6 Ni5_2 2.156516 1_655
B7_6 Sr0_6 2.983965 1_555
B7_6 Sr0_2 2.985669 1_655
B7_7 Ni0_3 1.981641 1_655
B7_7 Ni0_7 1.988931 1_555
B7_7 Ni6_7 2.141412 1_555
B7_7 Ni5_7 2.150437 1_555
B7_7 Ni5_3 2.156516 1_655
B7_7 Sr0_7 2.983965 1_555
B7_7 Sr0_3 2.985669 1_655
