# generated using pymatgen
data_Yb2Cl2F
_symmetry_space_group_name_H-M   'P 1'
_cell_length_a   5.26723500
_cell_length_b   5.26723500
_cell_length_c   12.71141100
_cell_angle_alpha   90.00000000
_cell_angle_beta   90.00000000
_cell_angle_gamma   90.00000000
_symmetry_Int_Tables_number   1
_chemical_formula_structural   Yb2Cl2F
_chemical_formula_sum   'Yb2 Cl2 F1'
_cell_volume   352.66239382
_cell_formula_units_Z   1
loop_
 _symmetry_equiv_pos_site_id
 _symmetry_equiv_pos_as_xyz
  1  'x, y, z'
loop_
 _atom_site_type_symbol
 _atom_site_label
 _atom_site_symmetry_multiplicity
 _atom_site_fract_x
 _atom_site_fract_y
 _atom_site_fract_z
 _atom_site_occupancy
  Yb  Yb0  1  0.50000000  0.50000000  0.16888000  1
  Yb  Yb1  1  0.50000000  0.50000000  0.83112000  1
  Cl  Cl0  1  0.50000000  0.50000000  0.63960700  1
  Cl  Cl1  1  0.50000000  0.50000000  0.36039300  1
  F  F0  1  0.50000000  0.50000000  0.00000000  1
loop_
_geom_bond_atom_site_label_1
_geom_bond_atom_site_label_2
_geom_bond_distance
_geom_bond_site_symmetry_2
Cl0 Yb1 2.434400 1_555
Cl1 Yb0 2.434400 1_555
F0 Yb0 2.146703 1_555
F0 Yb1 2.146703 1_554
