# generated using pymatgen
data_LiFeF3
_symmetry_space_group_name_H-M   'P 1'
_cell_length_a   6.55560800
_cell_length_b   6.67508823
_cell_length_c   8.80483243
_cell_angle_alpha   90.58382742
_cell_angle_beta   104.57472789
_cell_angle_gamma   96.80973418
_symmetry_Int_Tables_number   1
_chemical_formula_structural   LiFeF3
_chemical_formula_sum   'Li6 Fe6 F18'
_cell_volume   369.94238491
_cell_formula_units_Z   6
loop_
 _symmetry_equiv_pos_site_id
 _symmetry_equiv_pos_as_xyz
  1  'x, y, z'
loop_
 _atom_site_type_symbol
 _atom_site_label
 _atom_site_symmetry_multiplicity
 _atom_site_fract_x
 _atom_site_fract_y
 _atom_site_fract_z
 _atom_site_occupancy
  Li  Li0  1  0.65185200  0.55786400  0.25656000  1
  Li  Li1  1  0.79479800  0.69441900  0.97908600  1
  Li  Li2  1  0.97534000  0.10044900  0.70208100  1
  Li  Li3  1  0.02466000  0.89955100  0.29791900  1
  Li  Li4  1  0.20520200  0.30558100  0.02091400  1
  Li  Li5  1  0.34814800  0.44213600  0.74344000  1
  Fe  Fe0  1  0.75647500  0.64169400  0.58144400  1
  Fe  Fe1  1  0.57444600  0.06358200  0.33226900  1
  Fe  Fe2  1  0.29235500  0.81162300  0.00018000  1
  Fe  Fe3  1  0.70764500  0.18837700  0.99982000  1
  Fe  Fe4  1  0.42555400  0.93641800  0.66773100  1
  Fe  Fe5  1  0.24352500  0.35830600  0.41855600  1
  F  F0  1  0.17788300  0.40991600  0.20412800  1
  F  F1  1  0.49300800  0.77932100  0.23925900  1
  F  F2  1  0.70507800  0.96211200  0.57161100  1
  F  F3  1  0.58631400  0.36880800  0.41409200  1
  F  F4  1  0.42365500  0.12733500  0.08555900  1
  F  F5  1  0.71264200  0.47177000  0.08263100  1
  F  F6  1  0.94663100  0.16951700  0.90186400  1
  F  F7  1  0.16096400  0.89343800  0.75184600  1
  F  F8  1  0.89594500  0.69304400  0.40810900  1
  F  F9  1  0.10405500  0.30695600  0.59189100  1
  F  F10  1  0.83903600  0.10656200  0.24815400  1
  F  F11  1  0.05336900  0.83048300  0.09813600  1
  F  F12  1  0.28735800  0.52823000  0.91736900  1
  F  F13  1  0.57634500  0.87266500  0.91444100  1
  F  F14  1  0.41368600  0.63119200  0.58590800  1
  F  F15  1  0.29492200  0.03788800  0.42838900  1
  F  F16  1  0.50699200  0.22067900  0.76074100  1
  F  F17  1  0.82211700  0.59008400  0.79587200  1
loop_
_geom_bond_atom_site_label_1
_geom_bond_atom_site_label_2
_geom_bond_distance
_geom_bond_site_symmetry_2
F0 Li4 1.808731 1_555
F0 Fe5 1.872947 1_555
F1 Li0 1.892764 1_555
F1 Fe1 2.015967 1_565
F1 Fe2 2.211545 1_555
F2 Li2 1.969125 1_565
F2 Fe4 2.193738 1_555
F2 Fe0 2.203533 1_555
F2 Fe1 2.211673 1_565
F3 Li0 1.976880 1_555
F3 Fe1 2.140190 1_555
F3 Fe5 2.250217 1_555
F3 Fe0 2.317275 1_555
F4 Li4 1.948882 1_555
F4 Fe3 2.176159 1_554
F4 Fe1 2.216934 1_555
F4 Fe2 2.226895 1_545
F5 Li0 1.782649 1_555
F5 Li1 1.847965 1_554
F5 Fe3 2.014030 1_554
F6 Li2 1.874279 1_555
F6 Li4 1.875697 1_656
F6 Fe3 1.984667 1_555
F7 Li2 1.930013 1_465
F7 Fe4 2.042631 1_555
F7 Fe2 2.238111 1_556
F8 Li0 1.927105 1_555
F8 Li3 1.927920 1_655
F8 Fe0 1.980233 1_555
F9 Li5 1.927105 1_555
F9 Li2 1.927920 1_455
F9 Fe5 1.980233 1_555
F10 Li3 1.930013 1_645
F10 Fe1 2.042631 1_555
F10 Fe3 2.238111 1_554
F11 Li3 1.874279 1_555
F11 Li1 1.875697 1_454
F11 Fe2 1.984667 1_555
F12 Li5 1.782649 1_555
F12 Li4 1.847965 1_556
F12 Fe2 2.014030 1_556
F13 Li1 1.948882 1_555
F13 Fe2 2.176159 1_556
F13 Fe4 2.216934 1_555
F13 Fe3 2.226895 1_565
F14 Li5 1.976880 1_555
F14 Fe4 2.140190 1_555
F14 Fe0 2.250217 1_555
F14 Fe5 2.317275 1_555
F15 Li3 1.969125 1_545
F15 Fe1 2.193738 1_555
F15 Fe5 2.203533 1_555
F15 Fe4 2.211673 1_545
F16 Li5 1.892764 1_555
F16 Fe4 2.015967 1_545
F16 Fe3 2.211545 1_555
F17 Li1 1.808731 1_555
F17 Fe0 1.872947 1_555
