# generated using pymatgen
data_YHo
_symmetry_space_group_name_H-M   'P 1'
_cell_length_a   7.22209365
_cell_length_b   7.22209365
_cell_length_c   11.59850910
_cell_angle_alpha   90.00000000
_cell_angle_beta   90.00000000
_cell_angle_gamma   120.00002432
_symmetry_Int_Tables_number   1
_chemical_formula_structural   YHo
_chemical_formula_sum   'Y8 Ho8'
_cell_volume   523.91269834
_cell_formula_units_Z   8
loop_
 _symmetry_equiv_pos_site_id
 _symmetry_equiv_pos_as_xyz
  1  'x, y, z'
loop_
 _atom_site_type_symbol
 _atom_site_label
 _atom_site_symmetry_multiplicity
 _atom_site_fract_x
 _atom_site_fract_y
 _atom_site_fract_z
 _atom_site_occupancy
  Y  Y0_0  1  0.00000000  0.00000000  0.00000000  1
  Y  Y0_1  1  0.00000000  0.00000000  0.50000000  1
  Y  Y0_2  1  0.00000000  0.50000000  0.00000000  1
  Y  Y0_3  1  0.00000000  0.50000000  0.50000000  1
  Y  Y0_4  1  0.50000000  0.00000000  0.00000000  1
  Y  Y0_5  1  0.50000000  0.00000000  0.50000000  1
  Y  Y0_6  1  0.50000000  0.50000000  0.00000000  1
  Y  Y0_7  1  0.50000000  0.50000000  0.50000000  1
  Ho  Ho0_0  1  0.16666650  0.33333350  0.25000000  1
  Ho  Ho0_1  1  0.16666650  0.33333350  0.75000000  1
  Ho  Ho0_2  1  0.16666650  0.83333350  0.25000000  1
  Ho  Ho0_3  1  0.16666650  0.83333350  0.75000000  1
  Ho  Ho0_4  1  0.66666650  0.33333350  0.25000000  1
  Ho  Ho0_5  1  0.66666650  0.33333350  0.75000000  1
  Ho  Ho0_6  1  0.66666650  0.83333350  0.25000000  1
  Ho  Ho0_7  1  0.66666650  0.83333350  0.75000000  1
loop_
_geom_bond_atom_site_label_1
_geom_bond_atom_site_label_2
_geom_bond_distance
_geom_bond_site_symmetry_2
Y0_0 Y0_6 3.611046 1_445
Y0_0 Y0_6 3.611046 1_555
Y0_0 Y0_2 3.611047 1_555
Y0_0 Y0_2 3.611047 1_545
Y0_0 Y0_4 3.611047 1_455
Y0_0 Y0_4 3.611047 1_555
Y0_1 Y0_7 3.611046 1_445
Y0_1 Y0_7 3.611046 1_555
Y0_1 Y0_5 3.611047 1_555
Y0_1 Y0_3 3.611047 1_545
Y0_1 Y0_3 3.611047 1_555
Y0_1 Y0_5 3.611047 1_455
Y0_2 Y0_4 3.611046 1_565
Y0_2 Y0_4 3.611046 1_455
Y0_2 Y0_6 3.611047 1_555
Y0_2 Y0_6 3.611047 1_455
Y0_3 Y0_5 3.611046 1_565
Y0_3 Y0_5 3.611046 1_455
Y0_3 Y0_7 3.611047 1_555
Y0_3 Y0_7 3.611047 1_455
Y0_4 Y0_6 3.611047 1_545
Y0_4 Y0_6 3.611047 1_555
Y0_5 Y0_7 3.611047 1_545
Y0_5 Y0_7 3.611047 1_555
Ho0_0 Y0_2 3.571328 1_555
Ho0_0 Y0_3 3.571328 1_555
Ho0_0 Y0_7 3.571329 1_555
Ho0_0 Y0_1 3.571329 1_555
Ho0_0 Y0_6 3.571329 1_555
Ho0_0 Y0_0 3.571329 1_555
Ho0_0 Ho0_6 3.611045 1_445
Ho0_0 Ho0_6 3.611046 1_555
Ho0_0 Ho0_2 3.611047 1_555
Ho0_0 Ho0_4 3.611047 1_555
Ho0_0 Ho0_2 3.611047 1_545
Ho0_0 Ho0_4 3.611047 1_455
Ho0_1 Y0_3 3.571328 1_555
Ho0_1 Y0_2 3.571328 1_556
Ho0_1 Y0_7 3.571329 1_555
Ho0_1 Y0_1 3.571329 1_555
Ho0_1 Y0_0 3.571329 1_556
Ho0_1 Y0_6 3.571329 1_556
Ho0_1 Ho0_7 3.611045 1_445
Ho0_1 Ho0_7 3.611046 1_555
Ho0_1 Ho0_5 3.611047 1_455
Ho0_1 Ho0_3 3.611047 1_545
Ho0_1 Ho0_5 3.611047 1_555
Ho0_1 Ho0_3 3.611047 1_555
Ho0_2 Y0_1 3.571328 1_565
Ho0_2 Y0_0 3.571328 1_565
Ho0_2 Y0_4 3.571329 1_565
Ho0_2 Y0_2 3.571329 1_555
Ho0_2 Y0_5 3.571329 1_565
Ho0_2 Y0_3 3.571329 1_555
Ho0_2 Ho0_4 3.611045 1_565
Ho0_2 Ho0_4 3.611046 1_455
Ho0_2 Ho0_6 3.611047 1_555
Ho0_2 Ho0_6 3.611047 1_455
Ho0_3 Y0_1 3.571328 1_565
Ho0_3 Y0_0 3.571328 1_566
Ho0_3 Y0_5 3.571329 1_565
Ho0_3 Y0_3 3.571329 1_555
Ho0_3 Y0_2 3.571329 1_556
Ho0_3 Y0_4 3.571329 1_566
Ho0_3 Ho0_5 3.611045 1_565
Ho0_3 Ho0_5 3.611046 1_455
Ho0_3 Ho0_7 3.611047 1_555
Ho0_3 Ho0_7 3.611047 1_455
Ho0_4 Y0_6 3.571328 1_555
Ho0_4 Y0_7 3.571328 1_555
Ho0_4 Y0_4 3.571329 1_555
Ho0_4 Y0_2 3.571329 1_655
Ho0_4 Y0_5 3.571329 1_555
Ho0_4 Y0_3 3.571329 1_655
Ho0_4 Ho0_6 3.611047 1_545
Ho0_4 Ho0_6 3.611047 1_555
Ho0_5 Y0_7 3.571328 1_555
Ho0_5 Y0_6 3.571328 1_556
Ho0_5 Y0_5 3.571329 1_555
Ho0_5 Y0_3 3.571329 1_655
Ho0_5 Y0_4 3.571329 1_556
Ho0_5 Y0_2 3.571329 1_656
Ho0_5 Ho0_7 3.611047 1_545
Ho0_5 Ho0_7 3.611047 1_555
Ho0_6 Y0_4 3.571328 1_565
Ho0_6 Y0_5 3.571328 1_565
Ho0_6 Y0_0 3.571329 1_665
Ho0_6 Y0_1 3.571329 1_665
Ho0_6 Y0_6 3.571329 1_555
Ho0_6 Y0_7 3.571329 1_555
Ho0_7 Y0_5 3.571328 1_565
Ho0_7 Y0_4 3.571328 1_566
Ho0_7 Y0_1 3.571329 1_665
Ho0_7 Y0_7 3.571329 1_555
Ho0_7 Y0_0 3.571329 1_666
Ho0_7 Y0_6 3.571329 1_556
