# generated using pymatgen
data_Rb2MoO4
_symmetry_space_group_name_H-M   'P 1'
_cell_length_a   6.22340332
_cell_length_b   7.12955963
_cell_length_c   7.86455862
_cell_angle_alpha   113.11220911
_cell_angle_beta   90.00000000
_cell_angle_gamma   115.87764346
_symmetry_Int_Tables_number   1
_chemical_formula_structural   Rb2MoO4
_chemical_formula_sum   'Rb4 Mo2 O8'
_cell_volume   282.50599379
_cell_formula_units_Z   2
loop_
 _symmetry_equiv_pos_site_id
 _symmetry_equiv_pos_as_xyz
  1  'x, y, z'
loop_
 _atom_site_type_symbol
 _atom_site_label
 _atom_site_symmetry_multiplicity
 _atom_site_fract_x
 _atom_site_fract_y
 _atom_site_fract_z
 _atom_site_occupancy
  Rb  Rb0  1  0.84530029  0.69059858  0.25347081  1
  Rb  Rb1  1  0.15470071  0.30940142  0.74652919  1
  Rb  Rb2  1  0.48800246  0.97600392  0.76192830  1
  Rb  Rb3  1  0.51199754  0.02399508  0.23807270  1
  Mo  Mo0  1  0.17512634  0.35025167  0.22321970  1
  Mo  Mo1  1  0.82487466  0.64974933  0.77678030  1
  O  O0  1  0.37378207  0.28404360  0.07918670  1
  O  O1  1  0.08973847  0.71595640  0.92081330  1
  O  O2  1  0.62621793  0.71595640  0.92081330  1
  O  O3  1  0.91026153  0.28404360  0.07918670  1
  O  O4  1  0.67367791  0.34735381  0.62830150  1
  O  O5  1  0.32632309  0.65264719  0.37169850  1
  O  O6  1  0.09263939  0.18527679  0.35462448  1
  O  O7  1  0.90736061  0.81472221  0.64537452  1
loop_
_geom_bond_atom_site_label_1
_geom_bond_atom_site_label_2
_geom_bond_distance
_geom_bond_site_symmetry_2
Mo0 O0 1.767502 1_555
Mo0 O3 1.767507 1_455
Mo0 O6 1.772620 1_555
Mo0 O5 1.774775 1_555
Mo1 O2 1.767505 1_555
Mo1 O1 1.767505 1_655
Mo1 O7 1.772616 1_555
Mo1 O4 1.774775 1_555
O0 Rb0 2.889240 1_555
O0 Rb2 2.935103 1_544
O0 Rb3 2.991593 1_555
O0 Rb1 3.053301 1_554
O1 Rb1 2.889236 1_555
O1 Rb3 2.935104 1_566
O1 Rb2 2.991585 1_555
O1 Rb0 3.053298 1_456
O2 Rb1 2.889236 1_555
O2 Rb3 2.935104 1_566
O2 Rb2 2.991581 1_555
O2 Rb0 3.053304 1_556
O3 Rb0 2.889233 1_555
O3 Rb2 2.935100 1_544
O3 Rb3 2.991593 1_555
O3 Rb1 3.053301 1_654
O4 Rb3 2.857719 1_555
O4 Rb2 2.993843 1_545
O4 Rb1 3.286940 1_655
O4 Rb1 3.286952 1_555
O5 Rb2 2.857721 1_555
O5 Rb3 2.993825 1_565
O5 Rb0 3.286936 1_455
O5 Rb0 3.286954 1_555
O6 Rb1 2.827072 1_555
O6 Rb0 2.915368 1_445
O6 Rb3 3.281117 1_555
O6 Rb3 3.281128 1_455
O7 Rb0 2.827066 1_555
O7 Rb1 2.915373 1_665
O7 Rb2 3.281119 1_555
O7 Rb2 3.281131 1_655
