# generated using pymatgen
data_Sr2(GaAu)3
_symmetry_space_group_name_H-M   'P 1'
_cell_length_a   3.09881500
_cell_length_b   3.09881500
_cell_length_c   22.66488500
_cell_angle_alpha   90.00000000
_cell_angle_beta   90.00000000
_cell_angle_gamma   90.00000000
_symmetry_Int_Tables_number   1
_chemical_formula_structural   Sr2(GaAu)3
_chemical_formula_sum   'Sr2 Ga3 Au3'
_cell_volume   217.64305777
_cell_formula_units_Z   1
loop_
 _symmetry_equiv_pos_site_id
 _symmetry_equiv_pos_as_xyz
  1  'x, y, z'
loop_
 _atom_site_type_symbol
 _atom_site_label
 _atom_site_symmetry_multiplicity
 _atom_site_fract_x
 _atom_site_fract_y
 _atom_site_fract_z
 _atom_site_occupancy
  Sr  Sr0  1  0.50000000  0.50000000  0.74599000  1
  Sr  Sr1  1  0.50000000  0.50000000  0.25401000  1
  Ga  Ga0  1  0.50000000  0.50000000  0.50000000  1
  Ga  Ga1  1  0.50000000  0.50000000  0.11319300  1
  Ga  Ga2  1  0.50000000  0.50000000  0.88680700  1
  Au  Au0  1  0.50000000  0.50000000  0.00000000  1
  Au  Au1  1  0.50000000  0.50000000  0.38661100  1
  Au  Au2  1  0.50000000  0.50000000  0.61338900  1
loop_
_geom_bond_atom_site_label_1
_geom_bond_atom_site_label_2
_geom_bond_distance
_geom_bond_site_symmetry_2
Ga1 Sr1 3.191601 1_555
Ga2 Sr0 3.191601 1_555
Au0 Ga1 2.565506 1_555
Au0 Ga2 2.565506 1_554
Au1 Ga0 2.569949 1_555
Au1 Sr1 3.005386 1_555
Au2 Ga0 2.569949 1_555
Au2 Sr0 3.005386 1_555
