# generated using pymatgen
data_Li2Fe2(SiO3)3
_symmetry_space_group_name_H-M   'P 1'
_cell_length_a   10.17608301
_cell_length_b   10.17682125
_cell_length_c   12.24749002
_cell_angle_alpha   89.99697088
_cell_angle_beta   90.00612802
_cell_angle_gamma   119.99787442
_symmetry_Int_Tables_number   1
_chemical_formula_structural   Li2Fe2(SiO3)3
_chemical_formula_sum   'Li12 Fe12 Si18 O54'
_cell_volume   1098.44878489
_cell_formula_units_Z   6
loop_
 _symmetry_equiv_pos_site_id
 _symmetry_equiv_pos_as_xyz
  1  'x, y, z'
loop_
 _atom_site_type_symbol
 _atom_site_label
 _atom_site_symmetry_multiplicity
 _atom_site_fract_x
 _atom_site_fract_y
 _atom_site_fract_z
 _atom_site_occupancy
  Li  Li0  1  0.15163800  0.98755300  0.17458200  1
  Li  Li1  1  0.20161800  0.76416800  0.01461400  1
  Li  Li2  1  0.23574700  0.43729700  0.68113300  1
  Li  Li3  1  0.01254300  0.16413300  0.84119500  1
  Li  Li4  1  0.56265000  0.79838200  0.34796800  1
  Li  Li5  1  0.17402600  0.02489500  0.67109400  1
  Li  Li6  1  0.31872400  0.27459100  0.78715100  1
  Li  Li7  1  0.83528700  0.84857100  0.50831700  1
  Li  Li8  1  0.85099800  0.82625200  0.00417900  1
  Li  Li9  1  0.72543300  0.04417500  0.45382400  1
  Li  Li10  1  0.95593100  0.68156400  0.12041300  1
  Li  Li11  1  0.97513300  0.14890900  0.33769200  1
  Fe  Fe0  1  0.33284400  0.84478500  0.49351600  1
  Fe  Fe1  1  0.15504700  0.48804600  0.16013300  1
  Fe  Fe2  1  0.51201800  0.66704800  0.82690200  1
  Fe  Fe3  1  0.33581500  0.32427200  0.24878900  1
  Fe  Fe4  1  0.36564400  0.33122400  0.00410100  1
  Fe  Fe5  1  0.50876500  0.16503700  0.83853400  1
  Fe  Fe6  1  0.65636800  0.49131700  0.17185300  1
  Fe  Fe7  1  0.98830700  0.66420300  0.58214000  1
  Fe  Fe8  1  0.96565300  0.63449800  0.33740200  1
  Fe  Fe9  1  0.66877700  0.03439400  0.67079400  1
  Fe  Fe10  1  0.67579100  0.01158800  0.91550500  1
  Fe  Fe11  1  0.83490200  0.34388200  0.50510100  1
  Si  Si0  1  0.13081100  0.95232000  0.91846300  1
  Si  Si1  1  0.29766700  0.82279600  0.76726900  1
  Si  Si2  1  0.18960600  0.50873400  0.89018900  1
  Si  Si3  1  0.31920800  0.81044800  0.22354100  1
  Si  Si4  1  0.04769400  0.17826800  0.58521600  1
  Si  Si5  1  0.17705800  0.47476000  0.43384100  1
  Si  Si6  1  0.18357800  0.01697600  0.42979000  1
  Si  Si7  1  0.49115700  0.68079100  0.55693600  1
  Si  Si8  1  0.52513100  0.70238900  0.10055600  1
  Si  Si9  1  0.61697900  0.49719300  0.44556900  1
  Si  Si10  1  0.47800800  0.20033600  0.57584500  1
  Si  Si11  1  0.82146900  0.86921500  0.25188700  1
  Si  Si12  1  0.83354600  0.81649400  0.76306700  1
  Si  Si13  1  0.72243600  0.52201700  0.90920900  1
  Si  Si14  1  0.50286800  0.11990400  0.11228300  1
  Si  Si15  1  0.88018400  0.38300900  0.77889600  1
  Si  Si16  1  0.79973200  0.27768500  0.24256400  1
  Si  Si17  1  0.98295800  0.16641600  0.09650100  1
  O  O0  1  0.10480800  0.83121500  0.43601400  1
  O  O1  1  0.07390500  0.87782200  0.03794000  1
  O  O2  1  0.19715300  0.84935400  0.86179000  1
  O  O3  1  0.13693400  0.69100200  0.21586800  1
  O  O4  1  0.05008600  0.52522500  0.44668000  1
  O  O5  1  0.03985500  0.38660700  0.81789800  1
  O  O6  1  0.22276900  0.80592800  0.64633800  1
  O  O7  1  0.14650000  0.55316300  0.00476400  1
  O  O8  1  0.34681100  0.96033200  0.15141000  1
  O  O9  1  0.28133200  0.66147600  0.81067100  1
  O  O10  1  0.15008700  0.34746200  0.52819800  1
  O  O11  1  0.40660200  0.85320400  0.33815400  1
  O  O12  1  0.12250500  0.19648700  0.70464900  1
  O  O13  1  0.19416200  0.41697600  0.31293100  1
  O  O14  1  0.47512000  0.94978400  0.78016100  1
  O  O15  1  0.38005700  0.71872600  0.14391400  1
  O  O16  1  0.30915100  0.44605000  0.88264000  1
  O  O17  1  0.16870600  0.27333600  0.10268000  1
  O  O18  1  0.08579400  0.05963900  0.51716900  1
  O  O19  1  0.33836200  0.61963600  0.47749100  1
  O  O20  1  0.19922000  0.09967400  0.31462000  1
  O  O21  1  0.44683600  0.59337500  0.67151900  1
  O  O22  1  0.55387800  0.86305800  0.54931600  1
  O  O23  1  0.58316500  0.77725800  0.97963400  1
  O  O24  1  0.25322900  0.12948100  0.90594200  1
  O  O25  1  0.47480400  0.52495500  0.11338100  1
  O  O26  1  0.65219500  0.80297600  0.19505500  1
  O  O27  1  0.61325300  0.65320500  0.48455600  1
  O  O28  1  0.35029800  0.06942600  0.49007400  1
  O  O29  1  0.72657500  0.89526600  0.76936400  1
  O  O30  1  0.54450800  0.45128000  0.32334300  1
  O  O31  1  0.39849800  0.16987800  0.69555100  1
  O  O32  1  0.80357500  0.92588500  0.37135600  1
  O  O33  1  0.50693800  0.36423600  0.53163700  1
  O  O34  1  0.46243800  0.25539700  0.12685300  1
  O  O35  1  0.55465000  0.37387300  0.90112800  1
  O  O36  1  0.71939000  0.64989600  0.82350300  1
  O  O37  1  0.54865100  0.09315400  0.99004600  1
  O  O38  1  0.77143300  0.60154700  0.02888100  1
  O  O39  1  0.90038800  0.80075000  0.64790900  1
  O  O40  1  0.87616500  0.74685400  0.23922200  1
  O  O41  1  0.62619800  0.18079500  0.56775500  1
  O  O42  1  0.79299000  0.53764000  0.46019000  1
  O  O43  1  0.97447400  0.91474100  0.85004100  1
  O  O44  1  0.63577700  0.14274000  0.19832400  1
  O  O45  1  0.85751800  0.49312700  0.86502400  1
  O  O46  1  0.81933900  0.44542700  0.23447300  1
  O  O47  1  0.74463800  0.20702700  0.79354900  1
  O  O48  1  0.83012700  0.22859500  0.36226100  1
  O  O49  1  0.90676600  0.45550700  0.65667600  1
  O  O50  1  0.87038900  0.12294100  0.57281200  1
  O  O51  1  0.93056400  0.28072100  0.15677500  1
  O  O52  1  0.90033600  0.09947000  0.98130900  1
  O  O53  1  0.94035300  0.02588800  0.18382500  1
loop_
_geom_bond_atom_site_label_1
_geom_bond_atom_site_label_2
_geom_bond_distance
_geom_bond_site_symmetry_2
Li0 O1 1.946808 1_555
Li0 O20 1.981313 1_565
Li0 O8 2.156885 1_555
Li0 O53 2.372034 1_465
Li1 O7 1.932865 1_555
Li1 O2 2.072708 1_554
Li1 O1 2.147472 1_555
Li1 O8 2.454741 1_555
Li1 O3 2.563840 1_555
Li2 O21 1.933725 1_555
Li2 O10 2.075333 1_555
Li2 O12 2.143089 1_555
Li2 O5 2.453139 1_555
Li2 O16 2.567058 1_555
Li3 O12 1.946588 1_555
Li3 O52 1.982569 1_455
Li3 O5 2.157648 1_555
Li3 O43 2.370691 1_445
Li4 O11 1.932139 1_555
Li4 O26 2.073075 1_555
Li4 O32 2.143669 1_555
Li4 O27 2.450868 1_555
Li4 O22 2.565415 1_555
Li5 O31 2.028371 1_555
Li5 O12 2.099711 1_555
Li5 O18 2.191379 1_555
Li5 O6 2.531603 1_545
Li5 O39 2.585779 1_445
Li6 O24 1.938436 1_555
Li6 O31 1.979529 1_555
Li6 O12 2.013057 1_555
Li6 O16 2.142927 1_555
Li6 O35 2.511417 1_555
Li7 O32 1.946949 1_555
Li7 O39 1.980069 1_555
Li7 O27 2.156545 1_555
Li7 O18 2.376690 1_665
Li8 O38 2.031018 1_555
Li8 O1 2.097886 1_655
Li8 O43 2.196006 1_554
Li8 O23 2.531455 1_554
Li8 O52 2.581802 1_564
Li9 O50 1.938939 1_555
Li9 O48 1.978805 1_555
Li9 O32 2.014727 1_545
Li9 O22 2.143712 1_545
Li9 O41 2.510841 1_555
Li10 O40 1.938390 1_555
Li10 O38 1.978790 1_555
Li10 O1 2.013227 1_655
Li10 O3 2.142717 1_655
Li10 O46 2.513661 1_555
Li11 O48 2.030329 1_555
Li11 O32 2.099317 1_545
Li11 O53 2.191116 1_555
Li11 O13 2.534188 1_655
Li11 O20 2.583302 1_655
Fe0 O11 2.031577 1_555
Fe0 O6 2.114647 1_555
Fe0 O28 2.203109 1_565
Fe0 O22 2.267651 1_555
Fe0 O19 2.328183 1_555
Fe0 O0 2.362001 1_555
Fe1 O7 2.031042 1_555
Fe1 O13 2.114527 1_555
Fe1 O51 2.202773 1_455
Fe1 O3 2.268669 1_555
Fe1 O15 2.327772 1_555
Fe1 O17 2.364918 1_555
Fe2 O21 2.031331 1_555
Fe2 O23 2.114042 1_555
Fe2 O36 2.203097 1_555
Fe2 O16 2.267925 1_555
Fe2 O9 2.328130 1_555
Fe2 O29 2.363759 1_555
Fe3 O30 2.066244 1_555
Fe3 O20 2.151672 1_555
Fe3 O13 2.223782 1_555
Fe3 O34 2.299022 1_555
Fe3 O17 2.341082 1_555
Fe3 O25 2.456328 1_555
Fe4 O16 2.140170 1_554
Fe4 O34 2.141379 1_555
Fe4 O24 2.149560 1_554
Fe4 O17 2.154271 1_555
Fe4 O35 2.154965 1_554
Fe4 O25 2.173101 1_555
Fe5 O35 2.080955 1_555
Fe5 O31 2.093560 1_555
Fe5 O37 2.107106 1_555
Fe5 O14 2.162680 1_545
Fe5 O47 2.285181 1_555
Fe5 O24 2.575640 1_555
Fe6 O46 2.081045 1_555
Fe6 O38 2.093422 1_555
Fe6 O30 2.107307 1_555
Fe6 O25 2.162369 1_555
Fe6 O34 2.285777 1_555
Fe6 O40 2.574878 1_555
Fe7 O49 2.066497 1_555
Fe7 O39 2.150289 1_555
Fe7 O6 2.224800 1_655
Fe7 O42 2.297801 1_555
Fe7 O0 2.341476 1_655
Fe7 O4 2.457158 1_655
Fe8 O3 2.140669 1_655
Fe8 O42 2.142179 1_555
Fe8 O40 2.150208 1_555
Fe8 O0 2.153342 1_655
Fe8 O46 2.154878 1_555
Fe8 O4 2.172821 1_655
Fe9 O22 2.140626 1_545
Fe9 O47 2.141656 1_555
Fe9 O50 2.147794 1_555
Fe9 O29 2.154168 1_545
Fe9 O41 2.155294 1_555
Fe9 O14 2.173208 1_545
Fe10 O37 2.066542 1_555
Fe10 O52 2.150998 1_555
Fe10 O23 2.223647 1_545
Fe10 O47 2.298762 1_555
Fe10 O29 2.341829 1_545
Fe10 O14 2.455271 1_545
Fe11 O41 2.080748 1_555
Fe11 O48 2.093464 1_555
Fe11 O49 2.107314 1_555
Fe11 O4 2.161491 1_655
Fe11 O42 2.283283 1_555
Fe11 O50 2.585620 1_555
O0 Si6 1.645270 1_565
O1 Si0 1.616298 1_554
O2 Si1 1.654118 1_555
O2 Si0 1.656234 1_555
O3 Si3 1.634717 1_555
O4 Si5 1.619115 1_555
O5 Si2 1.660360 1_555
O5 Si15 1.676281 1_455
O6 Si1 1.634927 1_555
O7 Si2 1.601405 1_554
O8 Si3 1.660570 1_555
O8 Si14 1.676324 1_565
O9 Si1 1.653027 1_555
O9 Si2 1.668887 1_555
O10 Si5 1.653327 1_555
O10 Si4 1.656554 1_555
O11 Si3 1.601102 1_555
O12 Si4 1.616239 1_555
O13 Si5 1.634472 1_555
O14 Si1 1.619361 1_555
O15 Si8 1.653679 1_555
O15 Si3 1.668525 1_555
O16 Si2 1.634436 1_555
O17 Si17 1.644961 1_455
O18 Si6 1.660179 1_555
O18 Si4 1.664508 1_555
O19 Si5 1.653441 1_555
O19 Si7 1.668460 1_555
O20 Si6 1.609110 1_555
O21 Si7 1.600948 1_555
O22 Si7 1.634901 1_555
O23 Si8 1.634858 1_556
O24 Si0 1.606277 1_545
O25 Si8 1.619518 1_555
O26 Si8 1.653954 1_555
O26 Si11 1.656732 1_555
O27 Si7 1.660541 1_555
O27 Si9 1.676463 1_555
O28 Si6 1.674097 1_555
O28 Si10 1.684017 1_555
O29 Si12 1.645029 1_555
O30 Si9 1.630447 1_555
O31 Si10 1.627757 1_555
O32 Si11 1.616125 1_555
O33 Si10 1.634292 1_555
O33 Si9 1.637360 1_555
O34 Si14 1.633936 1_555
O35 Si13 1.619874 1_555
O36 Si12 1.674067 1_555
O36 Si13 1.684229 1_555
O37 Si14 1.630790 1_556
O38 Si13 1.627372 1_554
O39 Si12 1.608338 1_555
O40 Si11 1.605484 1_555
O41 Si10 1.619664 1_555
O42 Si9 1.634710 1_555
O43 Si12 1.660422 1_555
O43 Si0 1.664580 1_655
O44 Si16 1.634613 1_555
O44 Si14 1.636807 1_555
O45 Si13 1.634970 1_555
O45 Si15 1.637196 1_555
O46 Si16 1.619617 1_555
O47 Si15 1.634655 1_555
O48 Si16 1.627484 1_555
O49 Si15 1.630521 1_555
O50 Si4 1.606118 1_655
O51 Si17 1.674137 1_555
O51 Si16 1.684221 1_555
O52 Si17 1.608888 1_556
O53 Si17 1.660424 1_555
O53 Si11 1.664913 1_545
