# generated using pymatgen
data_HoCO4
_symmetry_space_group_name_H-M   'P 1'
_cell_length_a   12.03791458
_cell_length_b   12.03791458
_cell_length_c   9.65404900
_cell_angle_alpha   90.00000000
_cell_angle_beta   90.00000000
_cell_angle_gamma   120.00000318
_symmetry_Int_Tables_number   1
_chemical_formula_structural   HoCO4
_chemical_formula_sum   'Ho18 C18 O72'
_cell_volume   1211.55359612
_cell_formula_units_Z   18
loop_
 _symmetry_equiv_pos_site_id
 _symmetry_equiv_pos_as_xyz
  1  'x, y, z'
loop_
 _atom_site_type_symbol
 _atom_site_label
 _atom_site_symmetry_multiplicity
 _atom_site_fract_x
 _atom_site_fract_y
 _atom_site_fract_z
 _atom_site_occupancy
  Ho  Ho0  1  0.23082100  0.11797700  0.26119900  1
  Ho  Ho1  1  0.88715500  0.76917900  0.26119900  1
  Ho  Ho2  1  0.88202300  0.11284500  0.26119900  1
  Ho  Ho3  1  0.23082100  0.11797700  0.73880100  1
  Ho  Ho4  1  0.88715500  0.76917900  0.73880100  1
  Ho  Ho5  1  0.88202300  0.11284500  0.73880100  1
  Ho  Ho6  1  0.56313000  0.78660000  0.24278300  1
  Ho  Ho7  1  0.22347100  0.43687000  0.24278300  1
  Ho  Ho8  1  0.21340000  0.77652900  0.24278300  1
  Ho  Ho9  1  0.56313000  0.78660000  0.75721700  1
  Ho  Ho10  1  0.22347100  0.43687000  0.75721700  1
  Ho  Ho11  1  0.21340000  0.77652900  0.75721700  1
  Ho  Ho12  1  0.54414000  0.10174200  0.24279400  1
  Ho  Ho13  1  0.55760200  0.45586000  0.24279400  1
  Ho  Ho14  1  0.89825800  0.44239800  0.24279400  1
  Ho  Ho15  1  0.54414000  0.10174200  0.75720600  1
  Ho  Ho16  1  0.55760200  0.45586000  0.75720600  1
  Ho  Ho17  1  0.89825800  0.44239800  0.75720600  1
  C  C0  1  0.50888100  0.65068400  0.50000000  1
  C  C1  1  0.14180300  0.49111900  0.50000000  1
  C  C2  1  0.34931600  0.85819700  0.50000000  1
  C  C3  1  0.11397600  0.20354000  0.50000000  1
  C  C4  1  0.08956400  0.88602400  0.50000000  1
  C  C5  1  0.79646000  0.91043600  0.50000000  1
  C  C6  1  0.46806400  0.16007800  0.50000000  1
  C  C7  1  0.69201300  0.53193600  0.50000000  1
  C  C8  1  0.83992200  0.30798700  0.50000000  1
  C  C9  1  0.42177500  0.87154600  0.00000000  1
  C  C10  1  0.44977100  0.57822500  0.00000000  1
  C  C11  1  0.12845400  0.55022900  0.00000000  1
  C  C12  1  0.77533600  0.23753400  0.00000000  1
  C  C13  1  0.46219900  0.22466400  0.00000000  1
  C  C14  1  0.76246600  0.53780100  0.00000000  1
  C  C15  1  0.18256100  0.20077900  0.00000000  1
  C  C16  1  0.01821800  0.81743900  0.00000000  1
  C  C17  1  0.79922100  0.98178200  0.00000000  1
  O  O0  1  0.51636600  0.76233100  0.50000000  1
  O  O1  1  0.24596500  0.48363400  0.50000000  1
  O  O2  1  0.23766900  0.75403500  0.50000000  1
  O  O3  1  0.50731000  0.59980200  0.38201500  1
  O  O4  1  0.09249200  0.49269000  0.38201500  1
  O  O5  1  0.40019800  0.90750800  0.38201500  1
  O  O6  1  0.50731000  0.59980200  0.61798500  1
  O  O7  1  0.09249200  0.49269000  0.61798500  1
  O  O8  1  0.40019800  0.90750800  0.61798500  1
  O  O9  1  0.17608400  0.14125300  0.50000000  1
  O  O10  1  0.96516800  0.82391600  0.50000000  1
  O  O11  1  0.85874700  0.03483200  0.50000000  1
  O  O12  1  0.14940300  0.91598400  0.38282100  1
  O  O13  1  0.76658100  0.85059700  0.38282100  1
  O  O14  1  0.08401600  0.23341900  0.38282100  1
  O  O15  1  0.14940300  0.91598400  0.61717900  1
  O  O16  1  0.76658100  0.85059700  0.61717900  1
  O  O17  1  0.08401600  0.23341900  0.61717900  1
  O  O18  1  0.57292300  0.15506900  0.50000000  1
  O  O19  1  0.58214500  0.42707700  0.50000000  1
  O  O20  1  0.84493100  0.41785500  0.50000000  1
  O  O21  1  0.41689700  0.15996200  0.38284100  1
  O  O22  1  0.74306500  0.58310300  0.38284100  1
  O  O23  1  0.84003800  0.25693500  0.38284100  1
  O  O24  1  0.41689700  0.15996200  0.61715900  1
  O  O25  1  0.74306500  0.58310300  0.61715900  1
  O  O26  1  0.84003800  0.25693500  0.61715900  1
  O  O27  1  0.50563500  0.70185300  0.00000000  1
  O  O28  1  0.19621900  0.49436500  0.00000000  1
  O  O29  1  0.29814700  0.80378100  0.00000000  1
  O  O30  1  0.48305900  0.90535400  0.11642200  1
  O  O31  1  0.42229600  0.51694100  0.11642200  1
  O  O32  1  0.09464600  0.57770400  0.11642200  1
  O  O33  1  0.48305900  0.90535400  0.88357800  1
  O  O34  1  0.42229600  0.51694100  0.88357800  1
  O  O35  1  0.09464600  0.57770400  0.88357800  1
  O  O36  1  0.51704700  0.15527200  0.00000000  1
  O  O37  1  0.63822500  0.48295300  0.00000000  1
  O  O38  1  0.84472800  0.36177500  0.00000000  1
  O  O39  1  0.74196800  0.17762900  0.11713800  1
  O  O40  1  0.43566200  0.25803200  0.11713800  1
  O  O41  1  0.82237100  0.56433800  0.11713800  1
  O  O42  1  0.74196800  0.17762900  0.88286200  1
  O  O43  1  0.43566200  0.25803200  0.88286200  1
  O  O44  1  0.82237100  0.56433800  0.88286200  1
  O  O45  1  0.18494500  0.09437600  0.00000000  1
  O  O46  1  0.90943000  0.81505500  0.00000000  1
  O  O47  1  0.90562400  0.09057000  0.00000000  1
  O  O48  1  0.18261500  0.25193100  0.11713600  1
  O  O49  1  0.06931700  0.81738500  0.11713600  1
  O  O50  1  0.74806900  0.93068300  0.11713600  1
  O  O51  1  0.18261500  0.25193100  0.88286400  1
  O  O52  1  0.06931700  0.81738500  0.88286400  1
  O  O53  1  0.74806900  0.93068300  0.88286400  1
  O  O54  1  0.00000000  0.00000000  0.24365000  1
  O  O55  1  0.00000000  0.00000000  0.75635000  1
  O  O56  1  0.33333300  0.66666700  0.24954300  1
  O  O57  1  0.33333300  0.66666700  0.75045700  1
  O  O58  1  0.66666700  0.33333300  0.25595100  1
  O  O59  1  0.66666700  0.33333300  0.74404900  1
  O  O60  1  0.67494600  0.67908300  0.19227400  1
  O  O61  1  0.00413700  0.32505400  0.19227400  1
  O  O62  1  0.32091700  0.99586300  0.19227400  1
  O  O63  1  0.67494600  0.67908300  0.80772600  1
  O  O64  1  0.00413700  0.32505400  0.80772600  1
  O  O65  1  0.32091700  0.99586300  0.80772600  1
  O  O66  1  0.65929200  0.00299500  0.30587300  1
  O  O67  1  0.34370300  0.34070800  0.30587300  1
  O  O68  1  0.99700500  0.65629700  0.30587300  1
  O  O69  1  0.65929200  0.00299500  0.69412700  1
  O  O70  1  0.34370300  0.34070800  0.69412700  1
  O  O71  1  0.99700500  0.65629700  0.69412700  1
loop_
_geom_bond_atom_site_label_1
_geom_bond_atom_site_label_2
_geom_bond_distance
_geom_bond_site_symmetry_2
Ho0 O62 2.318245 1_545
Ho0 O21 2.349438 1_555
Ho0 O67 2.361786 1_555
Ho0 O48 2.409780 1_555
Ho0 O54 2.412496 1_555
Ho0 O12 2.422515 1_545
Ho0 O9 2.451971 1_555
Ho0 O45 2.566595 1_555
Ho0 O40 2.588404 1_555
Ho1 O60 2.318234 1_555
Ho1 O22 2.349434 1_555
Ho1 O68 2.361796 1_555
Ho1 O49 2.409799 1_655
Ho1 O54 2.412495 1_665
Ho1 O13 2.422505 1_555
Ho1 O10 2.451971 1_555
Ho1 O46 2.566595 1_555
Ho1 O41 2.588408 1_555
Ho2 O61 2.318235 1_655
Ho2 O23 2.349427 1_555
Ho2 O66 2.361786 1_555
Ho2 O50 2.409794 1_545
Ho2 O54 2.412506 1_655
Ho2 O14 2.422514 1_655
Ho2 O11 2.451971 1_555
Ho2 O47 2.566595 1_555
Ho2 O39 2.588389 1_555
Ho3 O65 2.318245 1_545
Ho3 O24 2.349438 1_555
Ho3 O70 2.361786 1_555
Ho3 O51 2.409780 1_555
Ho3 O55 2.412496 1_555
Ho3 O15 2.422515 1_545
Ho3 O9 2.451971 1_555
Ho3 O45 2.566595 1_556
Ho3 O43 2.588404 1_555
Ho4 O63 2.318234 1_555
Ho4 O25 2.349434 1_555
Ho4 O71 2.361796 1_555
Ho4 O52 2.409799 1_655
Ho4 O55 2.412495 1_665
Ho4 O16 2.422505 1_555
Ho4 O10 2.451971 1_555
Ho4 O46 2.566595 1_556
Ho4 O44 2.588408 1_555
Ho5 O64 2.318235 1_655
Ho5 O26 2.349427 1_555
Ho5 O69 2.361786 1_555
Ho5 O53 2.409794 1_545
Ho5 O55 2.412506 1_655
Ho5 O17 2.422514 1_655
Ho5 O11 2.451971 1_555
Ho5 O47 2.566595 1_556
Ho5 O42 2.588389 1_555
Ho6 O60 2.338135 1_555
Ho6 O66 2.341210 1_565
Ho6 O50 2.361070 1_555
Ho6 O56 2.397321 1_555
Ho6 O3 2.409094 1_555
Ho6 O30 2.416354 1_555
Ho6 O27 2.511431 1_555
Ho6 O0 2.530613 1_555
Ho6 O13 2.555907 1_555
Ho7 O61 2.338145 1_555
Ho7 O67 2.341200 1_555
Ho7 O48 2.361070 1_555
Ho7 O56 2.397321 1_555
Ho7 O4 2.409104 1_555
Ho7 O31 2.416354 1_555
Ho7 O28 2.511431 1_555
Ho7 O1 2.530613 1_555
Ho7 O14 2.555909 1_555
Ho8 O62 2.338145 1_555
Ho8 O68 2.341209 1_455
Ho8 O49 2.361070 1_555
Ho8 O56 2.397300 1_555
Ho8 O5 2.409097 1_555
Ho8 O32 2.416354 1_555
Ho8 O29 2.511431 1_555
Ho8 O2 2.530611 1_555
Ho8 O12 2.555917 1_555
Ho9 O63 2.338135 1_555
Ho9 O69 2.341210 1_565
Ho9 O53 2.361070 1_555
Ho9 O57 2.397321 1_555
Ho9 O6 2.409094 1_555
Ho9 O33 2.416354 1_555
Ho9 O27 2.511431 1_556
Ho9 O0 2.530613 1_555
Ho9 O16 2.555907 1_555
Ho10 O64 2.338145 1_555
Ho10 O70 2.341200 1_555
Ho10 O51 2.361070 1_555
Ho10 O57 2.397321 1_555
Ho10 O7 2.409104 1_555
Ho10 O34 2.416354 1_555
Ho10 O28 2.511431 1_556
Ho10 O1 2.530613 1_555
Ho10 O17 2.555909 1_555
Ho11 O65 2.338145 1_555
Ho11 O71 2.341209 1_455
Ho11 O52 2.361070 1_555
Ho11 O57 2.397300 1_555
Ho11 O8 2.409097 1_555
Ho11 O35 2.416354 1_555
Ho11 O29 2.511431 1_556
Ho11 O2 2.530611 1_555
Ho11 O15 2.555917 1_555
Ho12 O66 2.313691 1_555
Ho12 O62 2.378692 1_545
Ho12 O21 2.395598 1_555
Ho12 O39 2.408704 1_555
Ho12 O58 2.419065 1_555
Ho12 O30 2.424816 1_545
Ho12 O5 2.494890 1_545
Ho12 O36 2.495165 1_555
Ho12 O18 2.544682 1_555
Ho13 O67 2.313691 1_555
Ho13 O60 2.378692 1_555
Ho13 O22 2.395598 1_555
Ho13 O40 2.408702 1_555
Ho13 O58 2.419075 1_555
Ho13 O31 2.424806 1_555
Ho13 O3 2.494890 1_555
Ho13 O37 2.495165 1_555
Ho13 O19 2.544679 1_555
Ho14 O68 2.313691 1_555
Ho14 O61 2.378692 1_655
Ho14 O23 2.395598 1_555
Ho14 O41 2.408694 1_555
Ho14 O58 2.419065 1_555
Ho14 O32 2.424814 1_655
Ho14 O4 2.494890 1_655
Ho14 O38 2.495165 1_555
Ho14 O20 2.544682 1_555
Ho15 O69 2.313691 1_555
Ho15 O65 2.378692 1_545
Ho15 O24 2.395598 1_555
Ho15 O42 2.408704 1_555
Ho15 O59 2.419065 1_555
Ho15 O33 2.424816 1_545
Ho15 O8 2.494890 1_545
Ho15 O36 2.495165 1_556
Ho15 O18 2.544682 1_555
Ho16 O70 2.313691 1_555
Ho16 O63 2.378692 1_555
Ho16 O25 2.395598 1_555
Ho16 O43 2.408702 1_555
Ho16 O59 2.419075 1_555
Ho16 O34 2.424806 1_555
Ho16 O6 2.494890 1_555
Ho16 O37 2.495165 1_556
Ho16 O19 2.544679 1_555
Ho17 O71 2.313691 1_555
Ho17 O64 2.378692 1_655
Ho17 O26 2.395598 1_555
Ho17 O44 2.408694 1_555
Ho17 O59 2.419065 1_555
Ho17 O35 2.424814 1_655
Ho17 O7 2.494890 1_655
Ho17 O38 2.495165 1_556
Ho17 O20 2.544682 1_555
C0 O3 1.288931 1_555
C0 O6 1.288931 1_555
C0 O0 1.301287 1_555
C1 O7 1.288931 1_555
C1 O4 1.288931 1_555
C1 O1 1.301287 1_555
C2 O8 1.288931 1_555
C2 O5 1.288931 1_555
C2 O2 1.301287 1_555
C3 O17 1.291857 1_555
C3 O14 1.291857 1_555
C3 O9 1.296836 1_555
C4 O15 1.291857 1_555
C4 O12 1.291857 1_555
C4 O10 1.296846 1_455
C5 O16 1.291857 1_555
C5 O13 1.291857 1_555
C5 O11 1.296846 1_565
C6 O24 1.287565 1_555
C6 O21 1.287565 1_555
C6 O18 1.293487 1_555
C7 O22 1.287567 1_555
C7 O25 1.287567 1_555
C7 O19 1.293487 1_555
C8 O26 1.287570 1_555
C8 O23 1.287570 1_555
C8 O20 1.293487 1_555
C9 O29 1.290829 1_555
C9 O30 1.293402 1_555
C9 O33 1.293402 1_554
C10 O27 1.290828 1_555
C10 O34 1.293402 1_554
C10 O31 1.293402 1_555
C11 O28 1.290839 1_555
C11 O32 1.293397 1_555
C11 O35 1.293397 1_554
C12 O39 1.292497 1_555
C12 O42 1.292497 1_554
C12 O38 1.298184 1_555
C13 O40 1.292497 1_555
C13 O43 1.292497 1_554
C13 O36 1.298174 1_555
C14 O41 1.292497 1_555
C14 O44 1.292497 1_554
C14 O37 1.298185 1_555
C15 O48 1.287461 1_555
C15 O51 1.287461 1_554
C15 O45 1.295458 1_555
C16 O49 1.287467 1_555
C16 O52 1.287467 1_554
C16 O46 1.295470 1_455
C17 O50 1.287464 1_555
C17 O53 1.287464 1_554
C17 O47 1.295464 1_565
