# generated using pymatgen
data_Mg6Si5
_symmetry_space_group_name_H-M   'P 1'
_cell_length_a   4.00013800
_cell_length_b   6.78333500
_cell_length_c   15.48929151
_cell_angle_alpha   84.04380884
_cell_angle_beta   90.00000000
_cell_angle_gamma   90.00000000
_symmetry_Int_Tables_number   1
_chemical_formula_structural   Mg6Si5
_chemical_formula_sum   'Mg12 Si10'
_cell_volume   418.02178469
_cell_formula_units_Z   2
loop_
 _symmetry_equiv_pos_site_id
 _symmetry_equiv_pos_as_xyz
  1  'x, y, z'
loop_
 _atom_site_type_symbol
 _atom_site_label
 _atom_site_symmetry_multiplicity
 _atom_site_fract_x
 _atom_site_fract_y
 _atom_site_fract_z
 _atom_site_occupancy
  Mg  Mg0  1  0.50000000  0.97776400  0.02822200  1
  Mg  Mg1  1  0.00000000  0.43587400  0.49336000  1
  Mg  Mg2  1  0.50000000  0.65431300  0.35022000  1
  Mg  Mg3  1  0.50000000  0.23692800  0.63961700  1
  Mg  Mg4  1  0.50000000  0.55952100  0.79905600  1
  Mg  Mg5  1  0.00000000  0.70573500  0.16023800  1
  Mg  Mg6  1  0.50000000  0.14190700  0.42484500  1
  Mg  Mg7  1  0.50000000  0.73893000  0.57957600  1
  Mg  Mg8  1  0.00000000  0.77649800  0.91615300  1
  Mg  Mg9  1  0.00000000  0.21695200  0.12801900  1
  Mg  Mg10  1  0.50000000  0.51371700  0.02998000  1
  Mg  Mg11  1  0.00000000  0.28169500  0.93286000  1
  Si  Si0  1  0.00000000  0.04202700  0.56173300  1
  Si  Si1  1  0.00000000  0.82986700  0.44854300  1
  Si  Si2  1  0.50000000  0.97959700  0.21437700  1
  Si  Si3  1  0.50000000  0.99772800  0.80912800  1
  Si  Si4  1  0.00000000  0.52571600  0.66980200  1
  Si  Si5  1  0.00000000  0.37077500  0.31004200  1
  Si  Si6  1  0.50000000  0.40088300  0.21198200  1
  Si  Si7  1  0.00000000  0.86972100  0.72177900  1
  Si  Si8  1  0.00000000  0.23591800  0.76974300  1
  Si  Si9  1  0.00000000  0.00431400  0.30430400  1
loop_
_geom_bond_atom_site_label_1
_geom_bond_atom_site_label_2
_geom_bond_distance
_geom_bond_site_symmetry_2
Mg0 Si2 2.884726 1_555
Mg1 Si1 2.690646 1_555
Mg1 Si0 2.769805 1_555
Mg1 Si4 2.861144 1_555
Mg1 Si5 2.918526 1_555
Mg2 Si1 2.848535 1_555
Mg2 Si1 2.848535 1_655
Mg2 Si6 2.881668 1_555
Mg2 Si2 2.886596 1_555
Mg2 Si5 2.887073 1_555
Mg2 Si5 2.887073 1_655
Mg2 Si9 3.129275 1_665
Mg2 Si9 3.129275 1_565
Mg3 Si0 2.744903 1_655
Mg3 Si0 2.744903 1_555
Mg3 Si8 2.839003 1_555
Mg3 Si8 2.839003 1_655
Mg3 Si4 2.871659 1_655
Mg3 Si4 2.871659 1_555
Mg3 Si3 2.939795 1_545
Mg4 Si4 2.855933 1_555
Mg4 Si4 2.855933 1_655
Mg4 Si3 2.992719 1_555
Mg4 Si8 3.038382 1_655
Mg4 Si8 3.038382 1_555
Mg4 Si7 3.055800 1_655
Mg4 Si7 3.055800 1_555
Mg5 Si2 2.911671 1_555
Mg5 Si2 2.911671 1_455
Mg5 Si6 2.928300 1_555
Mg5 Si6 2.928300 1_455
Mg5 Si5 3.074498 1_555
Mg5 Si9 3.165369 1_565
Mg6 Si1 2.907588 1_545
Mg6 Si1 2.907588 1_645
Mg6 Si0 2.942251 1_655
Mg6 Si0 2.942251 1_555
Mg6 Si9 2.952812 1_655
Mg6 Si9 2.952812 1_555
Mg6 Si5 2.999936 1_555
Mg6 Si5 2.999936 1_655
Mg7 Si4 2.761465 1_655
Mg7 Si4 2.761465 1_555
Mg7 Si0 2.861102 1_565
Mg7 Si0 2.861102 1_665
Mg7 Si1 2.870587 1_655
Mg7 Si1 2.870587 1_555
Mg7 Si7 3.169307 1_655
Mg7 Si7 3.169307 1_555
Mg8 Si3 2.912751 1_555
Mg8 Si3 2.912751 1_455
Mg8 Si7 3.011506 1_555
Mg9 Si6 2.754101 1_455
Mg9 Si6 2.754101 1_555
Mg9 Si2 2.816885 1_545
Mg9 Si2 2.816885 1_445
Mg9 Si9 2.952781 1_555
Mg9 Si5 3.106180 1_555
Mg10 Si6 2.843457 1_555
Mg11 Si8 2.577360 1_555
Si0 Si1 2.380889 1_545
Si0 Si7 2.628730 1_545
Si1 Si9 2.417245 1_565
Si2 Si9 2.452966 1_665
Si2 Si9 2.452966 1_565
Si2 Si6 2.854113 1_565
Si3 Si8 2.603542 1_565
Si3 Si8 2.603542 1_665
Si3 Si7 2.613159 1_655
Si3 Si7 2.613159 1_555
Si4 Si8 2.372585 1_555
Si4 Si7 2.546229 1_555
Si5 Si9 2.496616 1_555
Si5 Si6 2.506911 1_555
Si5 Si6 2.506911 1_455
Si7 Si8 2.665592 1_565
