# generated using pymatgen
data_Na3(CoO2)4
_symmetry_space_group_name_H-M   'P 1'
_cell_length_a   5.94593252
_cell_length_b   5.94593252
_cell_length_c   6.45201376
_cell_angle_alpha   62.84376684
_cell_angle_beta   62.84376684
_cell_angle_gamma   60.98951318
_symmetry_Int_Tables_number   1
_chemical_formula_structural   Na3(CoO2)4
_chemical_formula_sum   'Na3 Co4 O8'
_cell_volume   169.20188480
_cell_formula_units_Z   1
loop_
 _symmetry_equiv_pos_site_id
 _symmetry_equiv_pos_as_xyz
  1  'x, y, z'
loop_
 _atom_site_type_symbol
 _atom_site_label
 _atom_site_symmetry_multiplicity
 _atom_site_fract_x
 _atom_site_fract_y
 _atom_site_fract_z
 _atom_site_occupancy
  Na  Na0  1  0.00000000  0.50000000  0.50000000  1
  Na  Na1  1  0.50000000  0.00000000  0.50000000  1
  Na  Na2  1  0.50000000  0.50000000  0.50000000  1
  Co  Co0  1  0.00000000  0.50000000  0.00000000  1
  Co  Co1  1  0.00000000  0.00000000  0.00000000  1
  Co  Co2  1  0.50000000  0.50000000  0.00000000  1
  Co  Co3  1  0.50000000  0.00000000  0.00000000  1
  O  O0  1  0.76600400  0.76600400  0.20268800  1
  O  O1  1  0.76710000  0.27611400  0.18863500  1
  O  O2  1  0.27611400  0.76710000  0.18863500  1
  O  O3  1  0.28444300  0.28444300  0.18814900  1
  O  O4  1  0.72388600  0.23290000  0.81136500  1
  O  O5  1  0.71555700  0.71555700  0.81185100  1
  O  O6  1  0.23399600  0.23399600  0.79731200  1
  O  O7  1  0.23290000  0.72388600  0.81136500  1
loop_
_geom_bond_atom_site_label_1
_geom_bond_atom_site_label_2
_geom_bond_distance
_geom_bond_site_symmetry_2
Na0 O6 2.376850 1_555
Na0 O0 2.376850 1_455
Na0 O5 2.386784 1_455
Na0 O3 2.386784 1_555
Na0 O2 2.420599 1_555
Na0 O4 2.420599 1_455
Na1 O6 2.376850 1_555
Na1 O0 2.376850 1_545
Na1 O5 2.386784 1_545
Na1 O3 2.386784 1_555
Na1 O1 2.420599 1_555
Na1 O7 2.420599 1_545
Na2 O0 2.360127 1_555
Na2 O6 2.360127 1_555
Na2 O4 2.410053 1_555
Na2 O7 2.410053 1_555
Na2 O1 2.410053 1_555
Na2 O2 2.410053 1_555
Co0 O7 1.985364 1_554
Co0 O1 1.985364 1_455
Co0 O0 2.059209 1_455
Co0 O6 2.059209 1_554
Co0 O3 2.080420 1_555
Co0 O5 2.080420 1_454
Co1 O6 2.034097 1_554
Co1 O0 2.034097 1_445
Co1 O2 2.043189 1_545
Co1 O1 2.043189 1_455
Co1 O4 2.043189 1_454
Co1 O7 2.043189 1_544
Co2 O3 1.874003 1_555
Co2 O5 1.874003 1_554
Co2 O7 2.002621 1_554
Co2 O1 2.002621 1_555
Co2 O4 2.002621 1_554
Co2 O2 2.002621 1_555
Co3 O4 1.985364 1_554
Co3 O2 1.985364 1_545
Co3 O0 2.059209 1_545
Co3 O6 2.059209 1_554
Co3 O3 2.080420 1_555
Co3 O5 2.080420 1_544
