# generated using pymatgen
data_Rh6C19NO15
_symmetry_space_group_name_H-M   'P 1'
_cell_length_a   9.79821311
_cell_length_b   17.92881391
_cell_length_c   17.97637267
_cell_angle_alpha   90.00000000
_cell_angle_beta   98.14716514
_cell_angle_gamma   90.00000000
_symmetry_Int_Tables_number   1
_chemical_formula_structural   Rh6C19NO15
_chemical_formula_sum   'Rh24 C76 N4 O60'
_cell_volume   3126.04370389
_cell_formula_units_Z   4
loop_
 _symmetry_equiv_pos_site_id
 _symmetry_equiv_pos_as_xyz
  1  'x, y, z'
loop_
 _atom_site_type_symbol
 _atom_site_label
 _atom_site_symmetry_multiplicity
 _atom_site_fract_x
 _atom_site_fract_y
 _atom_site_fract_z
 _atom_site_occupancy
  Rh  Rh0  1  0.00140958  0.42459401  0.49346941  1
  Rh  Rh1  1  0.99859042  0.92459401  0.00653059  1
  Rh  Rh2  1  0.99859042  0.57540599  0.50653059  1
  Rh  Rh3  1  0.00140958  0.07540599  0.99346941  1
  Rh  Rh4  1  0.04409445  0.29286274  0.58962808  1
  Rh  Rh5  1  0.95590555  0.79286274  0.91037192  1
  Rh  Rh6  1  0.95590555  0.70713726  0.41037192  1
  Rh  Rh7  1  0.04409445  0.20713726  0.08962808  1
  Rh  Rh8  1  0.00374811  0.18951660  0.46869758  1
  Rh  Rh9  1  0.99625189  0.68951660  0.03130242  1
  Rh  Rh10  1  0.99625189  0.81048340  0.53130242  1
  Rh  Rh11  1  0.00374811  0.31048340  0.96869758  1
  Rh  Rh12  1  0.96255225  0.31604571  0.37268696  1
  Rh  Rh13  1  0.03744775  0.81604571  0.12731304  1
  Rh  Rh14  1  0.03744775  0.68395429  0.62731304  1
  Rh  Rh15  1  0.96255225  0.18395429  0.87268696  1
  Rh  Rh16  1  0.80392427  0.29714961  0.49216418  1
  Rh  Rh17  1  0.19607573  0.79714961  0.00783582  1
  Rh  Rh18  1  0.19607573  0.70285039  0.50783582  1
  Rh  Rh19  1  0.80392427  0.20285039  0.99216418  1
  Rh  Rh20  1  0.20289150  0.30368033  0.47036241  1
  Rh  Rh21  1  0.79710850  0.80368033  0.02963759  1
  Rh  Rh22  1  0.79710850  0.69631967  0.52963759  1
  Rh  Rh23  1  0.20289150  0.19631967  0.97036241  1
  C  C0  1  0.90531626  0.49379690  0.55784368  1
  C  C1  1  0.09468374  0.99379690  0.94215632  1
  C  C2  1  0.09468374  0.50620310  0.44215632  1
  C  C3  1  0.90531626  0.00620310  0.05784368  1
  C  C4  1  0.18534819  0.37684682  0.56208396  1
  C  C5  1  0.81465181  0.87684682  0.93791604  1
  C  C6  1  0.81465181  0.62315318  0.43791604  1
  C  C7  1  0.18534819  0.12315318  0.06208396  1
  C  C8  1  0.82103011  0.38964661  0.41861003  1
  C  C9  1  0.17896989  0.88964661  0.08138997  1
  C  C10  1  0.17896989  0.61035339  0.58138997  1
  C  C11  1  0.82103011  0.11035339  0.91861003  1
  C  C12  1  0.97848846  0.34363088  0.67048568  1
  C  C13  1  0.02151154  0.84363088  0.82951432  1
  C  C14  1  0.02151154  0.65636912  0.32951432  1
  C  C15  1  0.97848846  0.15636912  0.17048568  1
  C  C16  1  0.18127643  0.23865247  0.65493885  1
  C  C17  1  0.81872357  0.73865247  0.84506115  1
  C  C18  1  0.81872357  0.76134753  0.34506115  1
  C  C19  1  0.18127643  0.26134753  0.15493885  1
  C  C20  1  0.88850609  0.20180413  0.56207381  1
  C  C21  1  0.11149391  0.70180413  0.93792619  1
  C  C22  1  0.11149391  0.79819587  0.43792619  1
  C  C23  1  0.88850609  0.29819587  0.06207381  1
  C  C24  1  0.12479551  0.11107299  0.50812823  1
  C  C25  1  0.87520449  0.61107299  0.99187177  1
  C  C26  1  0.87520449  0.88892701  0.49187177  1
  C  C27  1  0.12479551  0.38892701  0.00812823  1
  C  C28  1  0.88365724  0.12196449  0.40854711  1
  C  C29  1  0.11634276  0.62196449  0.09145289  1
  C  C30  1  0.11634276  0.87803551  0.59145289  1
  C  C31  1  0.88365724  0.37803551  0.90854711  1
  C  C32  1  0.12292612  0.22595287  0.38206721  1
  C  C33  1  0.87707388  0.72595287  0.11793279  1
  C  C34  1  0.87707388  0.77404713  0.61793279  1
  C  C35  1  0.12292612  0.27404713  0.88206721  1
  C  C36  1  0.03086119  0.37971426  0.30137947  1
  C  C37  1  0.96913881  0.87971426  0.19862053  1
  C  C38  1  0.96913881  0.62028574  0.69862053  1
  C  C39  1  0.03086119  0.12028574  0.80137947  1
  C  C40  1  0.82245370  0.27616390  0.29850898  1
  C  C41  1  0.17754630  0.77616390  0.20149102  1
  C  C42  1  0.17754630  0.72383610  0.70149102  1
  C  C43  1  0.82245370  0.22383610  0.79850898  1
  C  C44  1  0.68850798  0.34009390  0.55792439  1
  C  C45  1  0.31149202  0.84009390  0.94207561  1
  C  C46  1  0.31149202  0.65990610  0.44207561  1
  C  C47  1  0.68850798  0.15990610  0.05792439  1
  C  C48  1  0.65277260  0.25020305  0.43120326  1
  C  C49  1  0.34722740  0.75020305  0.06879674  1
  C  C50  1  0.34722740  0.74979695  0.56879674  1
  C  C51  1  0.65277260  0.24979695  0.93120326  1
  C  C52  1  0.32011442  0.36141506  0.41641208  1
  C  C53  1  0.67988558  0.86141506  0.08358792  1
  C  C54  1  0.67988558  0.63858494  0.58358792  1
  C  C55  1  0.32011442  0.13858494  0.91641208  1
  C  C56  1  0.35062115  0.24420037  0.51938649  1
  C  C57  1  0.64937885  0.74420037  0.98061351  1
  C  C58  1  0.64937885  0.75579963  0.48061351  1
  C  C59  1  0.35062115  0.25579963  0.01938649  1
  C  C60  1  0.29765938  0.47440416  0.79886073  1
  C  C61  1  0.70234062  0.97440416  0.70113927  1
  C  C62  1  0.70234062  0.52559584  0.20113927  1
  C  C63  1  0.29765938  0.02559584  0.29886073  1
  C  C64  1  0.43757165  0.48617285  0.85574316  1
  C  C65  1  0.56242835  0.98617285  0.64425684  1
  C  C66  1  0.56242835  0.51382715  0.14425684  1
  C  C67  1  0.43757165  0.01382715  0.35574316  1
  C  C68  1  0.43322357  0.43156573  0.79429445  1
  C  C69  1  0.56677643  0.93156573  0.70570555  1
  C  C70  1  0.56677643  0.56843427  0.20570555  1
  C  C71  1  0.43322357  0.06843427  0.29429445  1
  C  C72  1  0.47282895  0.55916823  0.83644641  1
  C  C73  1  0.52717105  0.05916823  0.66355359  1
  C  C74  1  0.52717105  0.44083177  0.16355359  1
  C  C75  1  0.47282895  0.94083177  0.33644641  1
  N  N0  1  0.40595000  0.52044644  0.76906840  1
  N  N1  1  0.59405000  0.02044644  0.73093160  1
  N  N2  1  0.59405000  0.47955356  0.23093160  1
  N  N3  1  0.40595000  0.97955356  0.26906840  1
  O  O0  1  0.82876626  0.48886081  0.60278111  1
  O  O1  1  0.17123274  0.98886081  0.89721889  1
  O  O2  1  0.17123274  0.51113919  0.39721889  1
  O  O3  1  0.82876626  0.01113919  0.10278111  1
  O  O4  1  0.26772409  0.41255592  0.60171412  1
  O  O5  1  0.73227591  0.91255592  0.89828588  1
  O  O6  1  0.73227591  0.58744408  0.39828588  1
  O  O7  1  0.26772409  0.08744408  0.10171412  1
  O  O8  1  0.73502439  0.42949864  0.38681711  1
  O  O9  1  0.26497561  0.92949864  0.11318289  1
  O  O10  1  0.26497561  0.57050136  0.61318289  1
  O  O11  1  0.73502439  0.07050136  0.88681711  1
  O  O12  1  0.94419545  0.37444536  0.72105575  1
  O  O13  1  0.05580455  0.87444536  0.77894425  1
  O  O14  1  0.05580455  0.62555464  0.27894425  1
  O  O15  1  0.94419545  0.12555464  0.22105575  1
  O  O16  1  0.26454022  0.20687843  0.69450104  1
  O  O17  1  0.73545978  0.70687843  0.80549896  1
  O  O18  1  0.73545978  0.79312157  0.30549896  1
  O  O19  1  0.26454022  0.29312157  0.19450104  1
  O  O20  1  0.83688909  0.15989563  0.60060645  1
  O  O21  1  0.16311091  0.65989563  0.89939355  1
  O  O22  1  0.16311091  0.84010437  0.39939355  1
  O  O23  1  0.83688909  0.34010437  0.10060645  1
  O  O24  1  0.19706804  0.06260827  0.53037606  1
  O  O25  1  0.80293196  0.56260827  0.96962394  1
  O  O26  1  0.80293196  0.93739173  0.46962394  1
  O  O27  1  0.19706804  0.43739173  0.03037606  1
  O  O28  1  0.81270071  0.08066184  0.37202401  1
  O  O29  1  0.18729929  0.58066184  0.12797599  1
  O  O30  1  0.18729929  0.91933816  0.62797599  1
  O  O31  1  0.81270071  0.41933816  0.87202401  1
  O  O32  1  0.17559092  0.19484165  0.33554842  1
  O  O33  1  0.82440908  0.69484165  0.16445158  1
  O  O34  1  0.82440908  0.80515835  0.66445158  1
  O  O35  1  0.17559092  0.30515835  0.83554842  1
  O  O36  1  0.06817024  0.41607414  0.25527963  1
  O  O37  1  0.93182976  0.91607414  0.24472037  1
  O  O38  1  0.93182976  0.58392586  0.74472037  1
  O  O39  1  0.06817024  0.08392586  0.75527963  1
  O  O40  1  0.73608027  0.25374587  0.25370685  1
  O  O41  1  0.26391973  0.75374587  0.24629315  1
  O  O42  1  0.26391973  0.74625413  0.74629315  1
  O  O43  1  0.73608027  0.24625413  0.75370685  1
  O  O44  1  0.61353939  0.36270058  0.59658690  1
  O  O45  1  0.38646061  0.86270058  0.90341310  1
  O  O46  1  0.38646061  0.63729942  0.40341310  1
  O  O47  1  0.61353939  0.13729942  0.09658690  1
  O  O48  1  0.56090870  0.22186866  0.39445122  1
  O  O49  1  0.43909130  0.72186866  0.10554878  1
  O  O50  1  0.43909130  0.77813134  0.60554878  1
  O  O51  1  0.56090870  0.27813134  0.89445122  1
  O  O52  1  0.39589304  0.39259183  0.38377274  1
  O  O53  1  0.60410696  0.89259183  0.11622726  1
  O  O54  1  0.60410696  0.60740817  0.61622726  1
  O  O55  1  0.39589304  0.10740817  0.88377274  1
  O  O56  1  0.43832819  0.20636074  0.54782551  1
  O  O57  1  0.56167181  0.70636074  0.95217449  1
  O  O58  1  0.56167181  0.79363926  0.45217449  1
  O  O59  1  0.43832819  0.29363926  0.04782551  1
loop_
_geom_bond_atom_site_label_1
_geom_bond_atom_site_label_2
_geom_bond_distance
_geom_bond_site_symmetry_2
C0 O0 1.180976 1_555
C0 Rh2 2.016401 1_555
C0 Rh0 2.018383 1_655
C1 O1 1.180969 1_555
C1 Rh3 2.016401 1_565
C1 Rh1 2.018383 1_456
C2 O2 1.180969 1_555
C2 Rh0 2.016401 1_555
C2 Rh2 2.018383 1_455
C3 O3 1.180976 1_555
C3 Rh1 2.016401 1_545
C3 Rh3 2.018383 1_654
C4 O4 1.185707 1_555
C4 Rh20 2.132903 1_555
C4 Rh4 2.149928 1_555
C4 Rh0 2.207330 1_555
C5 O5 1.185707 1_555
C5 Rh21 2.132903 1_556
C5 Rh5 2.149928 1_555
C5 Rh1 2.207330 1_556
C6 O6 1.185707 1_555
C6 Rh22 2.132903 1_555
C6 Rh6 2.149928 1_555
C6 Rh2 2.207330 1_555
C7 O7 1.185707 1_555
C7 Rh23 2.132903 1_554
C7 Rh7 2.149928 1_555
C7 Rh3 2.207330 1_554
C8 O8 1.187765 1_555
C8 Rh16 2.142283 1_555
C8 Rh0 2.157098 1_655
C8 Rh12 2.161036 1_555
C9 O9 1.187765 1_555
C9 Rh17 2.142283 1_555
C9 Rh1 2.157098 1_455
C9 Rh13 2.161036 1_555
C10 O10 1.187765 1_555
C10 Rh18 2.142283 1_555
C10 Rh2 2.157098 1_455
C10 Rh14 2.161036 1_555
C11 O11 1.187765 1_555
C11 Rh19 2.142283 1_555
C11 Rh3 2.157098 1_655
C11 Rh15 2.161036 1_555
C12 O12 1.153733 1_555
C12 Rh4 1.902439 1_655
C13 O13 1.153733 1_555
C13 Rh5 1.902439 1_455
C14 O14 1.153733 1_555
C14 Rh6 1.902439 1_455
C15 O15 1.153733 1_555
C15 Rh7 1.902439 1_655
C16 O16 1.153883 1_555
C16 Rh4 1.918974 1_555
C17 O17 1.153883 1_555
C17 Rh5 1.918974 1_555
C18 O18 1.153883 1_555
C18 Rh6 1.918974 1_555
C19 O19 1.153883 1_555
C19 Rh7 1.918974 1_555
C20 O20 1.182979 1_555
C20 Rh8 2.162948 1_655
C20 Rh16 2.212043 1_555
C20 Rh4 2.240687 1_655
C21 O21 1.182979 1_555
C21 Rh9 2.162948 1_456
C21 Rh17 2.212043 1_556
C21 Rh5 2.240687 1_455
C22 O22 1.182979 1_555
C22 Rh10 2.162948 1_455
C22 Rh18 2.212043 1_555
C22 Rh6 2.240687 1_455
C23 O23 1.182979 1_555
C23 Rh11 2.162948 1_654
C23 Rh19 2.212043 1_554
C23 Rh7 2.240687 1_655
C24 O24 1.155922 1_555
C24 Rh8 1.910188 1_555
C25 O25 1.155922 1_555
C25 Rh9 1.910188 1_556
C26 O26 1.155922 1_555
C26 Rh10 1.910188 1_555
C27 O27 1.155922 1_555
C27 Rh11 1.910188 1_554
C28 O28 1.154731 1_555
C28 Rh8 1.913103 1_655
C29 O29 1.154731 1_555
C29 Rh9 1.913103 1_455
C30 O30 1.154731 1_555
C30 Rh10 1.913103 1_455
C31 O31 1.154731 1_555
C31 Rh11 1.913103 1_655
C32 O32 1.182796 1_555
C32 Rh20 2.173182 1_555
C32 Rh8 2.175075 1_555
C32 Rh12 2.243127 1_455
C33 O33 1.182796 1_555
C33 Rh21 2.173182 1_555
C33 Rh9 2.175075 1_555
C33 Rh13 2.243127 1_655
C34 O34 1.182796 1_555
C34 Rh22 2.173182 1_555
C34 Rh10 2.175075 1_555
C34 Rh14 2.243127 1_655
C35 O35 1.182796 1_555
C35 Rh23 2.173182 1_555
C35 Rh11 2.175075 1_555
C35 Rh15 2.243127 1_455
C36 O36 1.153784 1_555
C36 Rh12 1.907172 1_455
C37 O37 1.153784 1_555
C37 Rh13 1.907172 1_655
C38 O38 1.153784 1_555
C38 Rh14 1.907172 1_655
C39 O39 1.153784 1_555
C39 Rh15 1.907172 1_455
C40 O40 1.154655 1_555
C40 Rh12 1.911780 1_555
C41 O41 1.154655 1_555
C41 Rh13 1.911780 1_555
C42 O42 1.154655 1_555
C42 Rh14 1.911780 1_555
C43 O43 1.154655 1_555
C43 Rh15 1.911780 1_555
C44 O44 1.153947 1_555
C44 Rh16 1.909978 1_555
C45 O45 1.153947 1_555
C45 Rh17 1.909978 1_556
C46 O46 1.153947 1_555
C46 Rh18 1.909978 1_555
C47 O47 1.153947 1_555
C47 Rh19 1.909978 1_554
C48 O48 1.155934 1_555
C48 Rh16 1.908601 1_555
C49 O49 1.155934 1_555
C49 Rh17 1.908601 1_555
C50 O50 1.155934 1_555
C50 Rh18 1.908601 1_555
C51 O51 1.155934 1_555
C51 Rh19 1.908601 1_555
C52 O52 1.153896 1_555
C52 Rh20 1.909708 1_555
C53 O53 1.153896 1_555
C53 Rh21 1.909708 1_555
C54 O54 1.153896 1_555
C54 Rh22 1.909708 1_555
C55 O55 1.153896 1_555
C55 Rh23 1.909708 1_555
C56 O56 1.155685 1_555
C56 Rh20 1.909850 1_555
C57 O57 1.155685 1_555
C57 Rh21 1.909850 1_556
C58 O58 1.155685 1_555
C58 Rh22 1.909850 1_555
C59 O59 1.155685 1_555
C59 Rh23 1.909850 1_554
C60 N0 1.501714 1_555
C60 C68 1.546569 1_555
C60 C64 1.603788 1_555
C61 N1 1.501714 1_565
C61 C69 1.546569 1_555
C61 C65 1.603788 1_555
C62 N2 1.501714 1_555
C62 C70 1.546569 1_555
C62 C66 1.603788 1_555
C63 N3 1.501714 1_545
C63 C71 1.546569 1_555
C63 C67 1.603788 1_555
C64 C72 1.409392 1_555
C64 C68 1.472139 1_555
C64 N0 1.662658 1_555
C65 C73 1.409392 1_565
C65 C69 1.472139 1_555
C65 N1 1.662658 1_565
C66 C74 1.409392 1_555
C66 C70 1.472139 1_555
C66 N2 1.662658 1_555
C67 C75 1.409392 1_545
C67 C71 1.472139 1_555
C67 N3 1.662658 1_545
C68 N0 1.667941 1_555
C69 N1 1.667941 1_565
C70 N2 1.667941 1_555
C71 N3 1.667941 1_545
C72 N0 1.467463 1_555
C73 N1 1.467463 1_555
C74 N2 1.467463 1_555
C75 N3 1.467463 1_555
