# generated using pymatgen
data_Fe2P2O7
_symmetry_space_group_name_H-M   'P 1'
_cell_length_a   5.63040206
_cell_length_b   6.41901139
_cell_length_c   7.54478567
_cell_angle_alpha   81.61030864
_cell_angle_beta   94.18247849
_cell_angle_gamma   107.37010669
_symmetry_Int_Tables_number   1
_chemical_formula_structural   Fe2P2O7
_chemical_formula_sum   'Fe4 P4 O14'
_cell_volume   257.33584924
_cell_formula_units_Z   2
loop_
 _symmetry_equiv_pos_site_id
 _symmetry_equiv_pos_as_xyz
  1  'x, y, z'
loop_
 _atom_site_type_symbol
 _atom_site_label
 _atom_site_symmetry_multiplicity
 _atom_site_fract_x
 _atom_site_fract_y
 _atom_site_fract_z
 _atom_site_occupancy
  Fe  Fe0  1  0.70815100  0.88059100  0.37493000  1
  Fe  Fe1  1  0.30264300  0.07516300  0.53081800  1
  Fe  Fe2  1  0.70801300  0.38037700  0.87512700  1
  Fe  Fe3  1  0.30278500  0.57575900  0.03041200  1
  P  P0  1  0.20954600  0.54095800  0.60232700  1
  P  P1  1  0.20956600  0.04095800  0.10235700  1
  P  P2  1  0.78747100  0.41979600  0.29910200  1
  P  P3  1  0.78752500  0.91983700  0.79912100  1
  O  O0  1  0.37169200  0.27417700  0.03418600  1
  O  O1  1  0.37154200  0.77434400  0.53433900  1
  O  O2  1  0.35195400  0.87108000  0.11149800  1
  O  O3  1  0.35183700  0.37114900  0.61101100  1
  O  O4  1  0.08465700  0.52936000  0.77976700  1
  O  O5  1  0.08423800  0.02941500  0.27956400  1
  O  O6  1  0.98857300  0.49014100  0.45561500  1
  O  O7  1  0.98862300  0.99009000  0.95560600  1
  O  O8  1  0.92443300  0.43169800  0.12721400  1
  O  O9  1  0.92474200  0.93168800  0.62738600  1
  O  O10  1  0.63609200  0.58571800  0.27963900  1
  O  O11  1  0.63624600  0.08586500  0.77934700  1
  O  O12  1  0.63413000  0.68325500  0.86619300  1
  O  O13  1  0.63434100  0.18308200  0.36614200  1
loop_
_geom_bond_atom_site_label_1
_geom_bond_atom_site_label_2
_geom_bond_distance
_geom_bond_site_symmetry_2
Fe0 O10 2.039654 1_555
Fe0 O13 2.094635 1_565
Fe0 O5 2.174405 1_665
Fe0 O1 2.196576 1_555
Fe0 O9 2.197132 1_555
Fe1 O3 2.012297 1_555
Fe1 O1 2.076197 1_545
Fe1 O9 2.183245 1_445
Fe1 O5 2.190601 1_555
Fe1 O13 2.196881 1_555
Fe1 O11 2.548645 1_555
Fe2 O11 2.039444 1_555
Fe2 O12 2.097137 1_555
Fe2 O4 2.177211 1_655
Fe2 O0 2.193778 1_556
Fe2 O8 2.194499 1_556
Fe3 O2 2.011178 1_555
Fe3 O0 2.080777 1_555
Fe3 O8 2.186379 1_455
Fe3 O4 2.186400 1_554
Fe3 O12 2.193350 1_554
Fe3 O10 2.551547 1_555
O0 P1 1.538433 1_555
O1 P0 1.538670 1_555
O2 P1 1.525953 1_565
O3 P0 1.525507 1_555
O4 P0 1.539225 1_555
O5 P1 1.538979 1_555
O6 P2 1.592379 1_555
O6 P0 1.594291 1_655
O7 P3 1.592106 1_555
O7 P1 1.594398 1_666
O8 P2 1.537576 1_555
O9 P3 1.537430 1_555
O10 P2 1.536388 1_555
O11 P3 1.536431 1_545
O12 P3 1.537723 1_555
O13 P2 1.537890 1_555
