# generated using pymatgen
data_Ga2P2H4NO8
_symmetry_space_group_name_H-M   'P 1'
_cell_length_a   9.41588610
_cell_length_b   9.41588610
_cell_length_c   8.96204639
_cell_angle_alpha   88.00893230
_cell_angle_beta   88.00893230
_cell_angle_gamma   87.63377367
_symmetry_Int_Tables_number   1
_chemical_formula_structural   Ga2P2H4NO8
_chemical_formula_sum   'Ga8 P8 H16 N4 O32'
_cell_volume   792.96692170
_cell_formula_units_Z   4
loop_
 _symmetry_equiv_pos_site_id
 _symmetry_equiv_pos_as_xyz
  1  'x, y, z'
loop_
 _atom_site_type_symbol
 _atom_site_label
 _atom_site_symmetry_multiplicity
 _atom_site_fract_x
 _atom_site_fract_y
 _atom_site_fract_z
 _atom_site_occupancy
  Ga  Ga0  1  0.56321400  0.32289900  0.13807500  1
  Ga  Ga1  1  0.43678600  0.67710100  0.86192500  1
  Ga  Ga2  1  0.67710100  0.43678600  0.36192500  1
  Ga  Ga3  1  0.32289900  0.56321400  0.63807500  1
  Ga  Ga4  1  0.82413300  0.90590700  0.36987000  1
  Ga  Ga5  1  0.17586700  0.09409300  0.63013000  1
  Ga  Ga6  1  0.09409300  0.17586700  0.13013000  1
  Ga  Ga7  1  0.90590700  0.82413300  0.86987000  1
  P  P0  1  0.79103100  0.06277400  0.05460600  1
  P  P1  1  0.20896900  0.93722600  0.94539400  1
  P  P2  1  0.93722600  0.20896900  0.44539400  1
  P  P3  1  0.06277400  0.79103100  0.55460600  1
  P  P4  1  0.40572800  0.28457300  0.45584200  1
  P  P5  1  0.59427200  0.71542700  0.54415800  1
  P  P6  1  0.71542700  0.59427200  0.04415800  1
  P  P7  1  0.28457300  0.40572800  0.95584200  1
  H  H0  1  0.52824400  0.88794200  0.21491000  1
  H  H1  1  0.47175600  0.11205800  0.78509000  1
  H  H2  1  0.11205800  0.47175600  0.28509000  1
  H  H3  1  0.88794200  0.52824400  0.71491000  1
  H  H4  1  0.43782000  0.02949000  0.29102600  1
  H  H5  1  0.56218000  0.97051000  0.70897400  1
  H  H6  1  0.97051000  0.56218000  0.20897400  1
  H  H7  1  0.02949000  0.43782000  0.79102600  1
  H  H8  1  0.41860800  0.85636500  0.36098600  1
  H  H9  1  0.58139200  0.14363500  0.63901400  1
  H  H10  1  0.14363500  0.58139200  0.13901400  1
  H  H11  1  0.85636500  0.41860800  0.86098600  1
  H  H12  1  0.35345500  0.91546000  0.19321100  1
  H  H13  1  0.64654500  0.08454000  0.80678900  1
  H  H14  1  0.08454000  0.64654500  0.30678900  1
  H  H15  1  0.91546000  0.35345500  0.69321100  1
  N  N0  1  0.43463700  0.92245600  0.26613000  1
  N  N1  1  0.56536300  0.07754400  0.73387000  1
  N  N2  1  0.07754400  0.56536300  0.23387000  1
  N  N3  1  0.92245600  0.43463700  0.76613000  1
  O  O0  1  0.55930100  0.29633300  0.50956600  1
  O  O1  1  0.44069900  0.70366700  0.49043400  1
  O  O2  1  0.70366700  0.44069900  0.99043400  1
  O  O3  1  0.29633300  0.55930100  0.00956600  1
  O  O4  1  0.40394800  0.23814700  0.29155900  1
  O  O5  1  0.59605200  0.76185300  0.70844100  1
  O  O6  1  0.76185300  0.59605200  0.20844100  1
  O  O7  1  0.23814700  0.40394800  0.79155900  1
  O  O8  1  0.35533500  0.86202200  0.93029900  1
  O  O9  1  0.64466500  0.13797800  0.06970100  1
  O  O10  1  0.13797800  0.64466500  0.56970100  1
  O  O11  1  0.86202200  0.35533500  0.43029900  1
  O  O12  1  0.80860200  0.93378600  0.16601000  1
  O  O13  1  0.19139800  0.06621400  0.83399000  1
  O  O14  1  0.06621400  0.19139800  0.33399000  1
  O  O15  1  0.93378600  0.80860200  0.66601000  1
  O  O16  1  0.83059700  0.08991300  0.43680400  1
  O  O17  1  0.16940300  0.91008700  0.56319600  1
  O  O18  1  0.91008700  0.16940300  0.06319600  1
  O  O19  1  0.08991300  0.83059700  0.93680400  1
  O  O20  1  0.57402400  0.68152400  0.02051600  1
  O  O21  1  0.42597600  0.31847600  0.97948400  1
  O  O22  1  0.31847600  0.42597600  0.47948400  1
  O  O23  1  0.68152400  0.57402400  0.52051600  1
  O  O24  1  0.65868600  0.84102700  0.44611000  1
  O  O25  1  0.34131400  0.15897300  0.55389000  1
  O  O26  1  0.15897300  0.34131400  0.05389000  1
  O  O27  1  0.84102700  0.65868600  0.94611000  1
  O  O28  1  0.19642500  0.00590400  0.10295000  1
  O  O29  1  0.80357500  0.99409600  0.89705000  1
  O  O30  1  0.99409600  0.80357500  0.39705000  1
  O  O31  1  0.00590400  0.19642500  0.60295000  1
loop_
_geom_bond_atom_site_label_1
_geom_bond_atom_site_label_2
_geom_bond_distance
_geom_bond_site_symmetry_2
Ga0 O21 1.956485 1_554
Ga0 O9 1.981578 1_555
Ga0 O2 2.151186 1_554
Ga0 O4 2.158010 1_555
Ga1 O20 1.956485 1_556
Ga1 O8 1.981578 1_555
Ga1 O3 2.151186 1_556
Ga1 O5 2.158010 1_555
Ga2 O23 1.956485 1_555
Ga2 O11 1.981578 1_555
Ga2 O0 2.151186 1_555
Ga2 O6 2.158010 1_555
Ga3 O22 1.956485 1_555
Ga3 O10 1.981578 1_555
Ga3 O1 2.151186 1_555
Ga3 O7 2.158010 1_555
Ga4 O24 1.800696 1_555
Ga4 O12 1.846701 1_555
Ga4 O30 1.852656 1_555
Ga4 O16 1.857105 1_565
Ga5 O25 1.800696 1_555
Ga5 O13 1.846701 1_555
Ga5 O31 1.852656 1_555
Ga5 O17 1.857105 1_545
Ga6 O26 1.800696 1_555
Ga6 O14 1.846701 1_555
Ga6 O28 1.852656 1_555
Ga6 O18 1.857105 1_455
Ga7 O27 1.800696 1_555
Ga7 O15 1.846701 1_555
Ga7 O29 1.852656 1_555
Ga7 O19 1.857105 1_655
H0 N0 1.025563 1_555
H1 N1 1.025563 1_555
H2 N2 1.025563 1_555
H3 N3 1.025563 1_555
H4 N0 1.041617 1_545
H5 N1 1.041617 1_565
H6 N2 1.041617 1_655
H7 N3 1.041617 1_455
H8 N0 1.046326 1_555
H9 N1 1.046326 1_555
H10 N2 1.046326 1_555
H11 N3 1.046326 1_555
H12 N0 1.028385 1_555
H13 N1 1.028385 1_555
H14 N2 1.028385 1_555
H15 N3 1.028385 1_555
O0 P4 1.549315 1_555
O1 P5 1.549315 1_555
O2 P6 1.549315 1_556
O3 P7 1.549315 1_554
O4 P4 1.551167 1_555
O5 P5 1.551167 1_555
O6 P6 1.551167 1_555
O7 P7 1.551167 1_555
O8 P1 1.527149 1_555
O9 P0 1.527149 1_555
O10 P3 1.527149 1_555
O11 P2 1.527149 1_555
O12 P0 1.552390 1_565
O13 P1 1.552390 1_545
O14 P2 1.552390 1_455
O15 P3 1.552390 1_655
O16 P2 1.541084 1_555
O17 P3 1.541084 1_555
O18 P0 1.541084 1_555
O19 P1 1.541084 1_555
O20 P6 1.552336 1_555
O21 P7 1.552336 1_555
O22 P4 1.552336 1_555
O23 P5 1.552336 1_555
O24 P5 1.577531 1_555
O25 P4 1.577531 1_555
O26 P7 1.577531 1_554
O27 P6 1.577531 1_556
O28 P1 1.572098 1_544
O29 P0 1.572098 1_566
O30 P3 1.572098 1_655
O31 P2 1.572098 1_455
