# generated using pymatgen
data_MgBiWO5
_symmetry_space_group_name_H-M   'P 1'
_cell_length_a   5.13538000
_cell_length_b   10.19224600
_cell_length_c   18.30567200
_cell_angle_alpha   90.00000000
_cell_angle_beta   90.00000000
_cell_angle_gamma   90.00000000
_symmetry_Int_Tables_number   1
_chemical_formula_structural   MgBiWO5
_chemical_formula_sum   'Mg8 Bi8 W8 O40'
_cell_volume   958.13820809
_cell_formula_units_Z   8
loop_
 _symmetry_equiv_pos_site_id
 _symmetry_equiv_pos_as_xyz
  1  'x, y, z'
loop_
 _atom_site_type_symbol
 _atom_site_label
 _atom_site_symmetry_multiplicity
 _atom_site_fract_x
 _atom_site_fract_y
 _atom_site_fract_z
 _atom_site_occupancy
  Mg  Mg0  1  0.51901800  0.36121500  0.55685700  1
  Mg  Mg1  1  0.01901800  0.13878500  0.55685700  1
  Mg  Mg2  1  0.01901800  0.63878500  0.94314300  1
  Mg  Mg3  1  0.98098200  0.36121500  0.05685700  1
  Mg  Mg4  1  0.48098200  0.13878500  0.05685700  1
  Mg  Mg5  1  0.98098200  0.86121500  0.44314300  1
  Mg  Mg6  1  0.48098200  0.63878500  0.44314300  1
  Mg  Mg7  1  0.51901800  0.86121500  0.94314300  1
  Bi  Bi0  1  0.95218500  0.84716700  0.78991400  1
  Bi  Bi1  1  0.04781500  0.15283300  0.21008600  1
  Bi  Bi2  1  0.54781500  0.34716700  0.21008600  1
  Bi  Bi3  1  0.04781500  0.65283300  0.28991400  1
  Bi  Bi4  1  0.45218500  0.15283300  0.71008600  1
  Bi  Bi5  1  0.45218500  0.65283300  0.78991400  1
  Bi  Bi6  1  0.54781500  0.84716700  0.28991400  1
  Bi  Bi7  1  0.95218500  0.34716700  0.71008600  1
  W  W0  1  0.99490700  0.38083100  0.42341800  1
  W  W1  1  0.50509300  0.88083100  0.57658200  1
  W  W2  1  0.00509300  0.61916900  0.57658200  1
  W  W3  1  0.49490700  0.11916900  0.42341800  1
  W  W4  1  0.00509300  0.11916900  0.92341800  1
  W  W5  1  0.99490700  0.88083100  0.07658200  1
  W  W6  1  0.50509300  0.38083100  0.92341800  1
  W  W7  1  0.49490700  0.61916900  0.07658200  1
  O  O0  1  0.86493800  0.31865600  0.33998500  1
  O  O1  1  0.25919000  0.01778600  0.96700200  1
  O  O2  1  0.24081000  0.51778600  0.03299800  1
  O  O3  1  0.24901500  0.78056800  0.87199400  1
  O  O4  1  0.25098500  0.28056800  0.12800600  1
  O  O5  1  0.86493800  0.81865600  0.16001500  1
  O  O6  1  0.25098500  0.78056800  0.37199400  1
  O  O7  1  0.63506200  0.81865600  0.66001500  1
  O  O8  1  0.25919000  0.51778600  0.53299800  1
  O  O9  1  0.13506200  0.68134400  0.66001500  1
  O  O10  1  0.63506200  0.31865600  0.83998500  1
  O  O11  1  0.73188700  0.22799100  0.47693500  1
  O  O12  1  0.75918900  0.98221400  0.53299800  1
  O  O13  1  0.75098500  0.71943200  0.37199400  1
  O  O14  1  0.21251300  0.01012800  0.11505400  1
  O  O15  1  0.75918900  0.48221400  0.96700200  1
  O  O16  1  0.13506200  0.18134400  0.83998500  1
  O  O17  1  0.74901500  0.21943200  0.62800600  1
  O  O18  1  0.23188700  0.77200900  0.02306500  1
  O  O19  1  0.24081000  0.01778600  0.46700200  1
  O  O20  1  0.26811300  0.77200900  0.52306500  1
  O  O21  1  0.78748700  0.98987200  0.88494600  1
  O  O22  1  0.75098500  0.21943200  0.12800600  1
  O  O23  1  0.71251300  0.98987200  0.38494600  1
  O  O24  1  0.26811300  0.27200900  0.97693500  1
  O  O25  1  0.23188700  0.27200900  0.47693500  1
  O  O26  1  0.74081100  0.48221400  0.46700200  1
  O  O27  1  0.74081100  0.98221400  0.03299800  1
  O  O28  1  0.71251300  0.48987200  0.11505400  1
  O  O29  1  0.76811300  0.72799100  0.52306500  1
  O  O30  1  0.76811300  0.22799100  0.97693500  1
  O  O31  1  0.73188700  0.72799100  0.02306500  1
  O  O32  1  0.78748700  0.48987200  0.61505400  1
  O  O33  1  0.74901500  0.71943200  0.87199400  1
  O  O34  1  0.24901500  0.28056800  0.62800600  1
  O  O35  1  0.21251300  0.51012800  0.38494600  1
  O  O36  1  0.28748700  0.51012800  0.88494600  1
  O  O37  1  0.36493800  0.18134400  0.33998500  1
  O  O38  1  0.28748700  0.01012800  0.61505400  1
  O  O39  1  0.36493800  0.68134400  0.16001500  1
loop_
_geom_bond_atom_site_label_1
_geom_bond_atom_site_label_2
_geom_bond_distance
_geom_bond_site_symmetry_2
Mg0 O34 2.072326 1_555
Mg0 O8 2.125503 1_555
Mg0 O32 2.180652 1_555
Mg0 O25 2.267451 1_555
Mg0 O11 2.275788 1_555
Mg0 O17 2.275885 1_555
Mg0 O26 2.350269 1_555
Mg1 O17 2.072326 1_455
Mg1 O12 2.125506 1_445
Mg1 O38 2.180652 1_555
Mg1 O11 2.267451 1_455
Mg1 O25 2.275788 1_555
Mg1 O34 2.275885 1_555
Mg1 O19 2.350266 1_555
Mg2 O33 2.072326 1_455
Mg2 O15 2.125506 1_455
Mg2 O36 2.180652 1_555
Mg2 O31 2.267451 1_456
Mg2 O18 2.275788 1_556
Mg2 O3 2.275885 1_555
Mg2 O2 2.350266 1_556
Mg3 O4 2.072326 1_655
Mg3 O2 2.125503 1_655
Mg3 O28 2.180652 1_555
Mg3 O24 2.267451 1_654
Mg3 O30 2.275788 1_554
Mg3 O22 2.275885 1_555
Mg3 O15 2.350269 1_554
Mg4 O22 2.072326 1_555
Mg4 O27 2.125506 1_545
Mg4 O14 2.180652 1_555
Mg4 O30 2.267451 1_554
Mg4 O24 2.275788 1_554
Mg4 O4 2.275885 1_555
Mg4 O1 2.350266 1_554
Mg5 O6 2.072326 1_655
Mg5 O19 2.125503 1_665
Mg5 O23 2.180652 1_555
Mg5 O20 2.267451 1_655
Mg5 O29 2.275788 1_555
Mg5 O13 2.275885 1_555
Mg5 O12 2.350269 1_555
Mg6 O13 2.072326 1_555
Mg6 O26 2.125506 1_555
Mg6 O35 2.180652 1_555
Mg6 O29 2.267451 1_555
Mg6 O20 2.275788 1_555
Mg6 O6 2.275885 1_555
Mg6 O8 2.350266 1_555
Mg7 O3 2.072326 1_555
Mg7 O1 2.125503 1_565
Mg7 O21 2.180652 1_555
Mg7 O18 2.267451 1_556
Mg7 O31 2.275788 1_556
Mg7 O33 2.275885 1_555
Mg7 O27 2.350269 1_556
Bi0 O33 2.245250 1_555
Bi0 O3 2.245429 1_655
Bi0 O21 2.420160 1_555
Bi1 O4 2.245250 1_555
Bi1 O22 2.245429 1_455
Bi1 O14 2.420160 1_555
Bi2 O22 2.245250 1_555
Bi2 O4 2.245429 1_555
Bi2 O28 2.420160 1_555
Bi3 O6 2.245250 1_555
Bi3 O13 2.245429 1_455
Bi3 O35 2.420160 1_555
Bi4 O34 2.245250 1_555
Bi4 O17 2.245429 1_555
Bi4 O38 2.420160 1_555
Bi5 O3 2.245250 1_555
Bi5 O33 2.245429 1_555
Bi5 O36 2.420160 1_555
Bi6 O13 2.245250 1_555
Bi6 O6 2.245429 1_555
Bi6 O23 2.420160 1_555
Bi7 O17 2.245250 1_555
Bi7 O34 2.245429 1_655
Bi7 O32 2.420160 1_555
O0 W0 1.783169 1_555
O1 W4 1.845810 1_555
O2 W7 1.845810 1_555
O5 W5 1.783169 1_555
O7 W1 1.783169 1_555
O8 W2 1.845810 1_555
O9 W2 1.783169 1_555
O10 W6 1.783169 1_555
O11 W3 1.915981 1_555
O11 W0 2.282727 1_555
O12 W1 1.845806 1_555
O14 W5 1.865858 1_445
O15 W6 1.845806 1_555
O16 W4 1.783169 1_555
O18 W5 1.915981 1_455
O18 W7 2.282727 1_555
O19 W3 1.845810 1_555
O20 W1 1.915981 1_555
O20 W2 2.282727 1_555
O21 W4 1.865858 1_665
O23 W3 1.865858 1_565
O24 W6 1.915981 1_555
O24 W4 2.282727 1_555
O25 W0 1.915981 1_455
O25 W3 2.282727 1_555
O26 W0 1.845806 1_555
O27 W5 1.845806 1_555
O28 W7 1.865858 1_555
O29 W2 1.915981 1_655
O29 W1 2.282727 1_555
O30 W4 1.915981 1_655
O30 W6 2.282727 1_555
O31 W7 1.915981 1_555
O31 W5 2.282727 1_555
O32 W2 1.865858 1_655
O35 W0 1.865858 1_455
O36 W6 1.865858 1_555
O37 W3 1.783169 1_555
O38 W1 1.865858 1_545
O39 W7 1.783169 1_555
