# generated using pymatgen
data_Na4XeO14
_symmetry_space_group_name_H-M   'P 1'
_cell_length_a   9.84351500
_cell_length_b   11.24811000
_cell_length_c   11.55621500
_cell_angle_alpha   90.00000000
_cell_angle_beta   90.00000000
_cell_angle_gamma   90.00000000
_symmetry_Int_Tables_number   1
_chemical_formula_structural   Na4XeO14
_chemical_formula_sum   'Na16 Xe4 O56'
_cell_volume   1279.51498194
_cell_formula_units_Z   4
loop_
 _symmetry_equiv_pos_site_id
 _symmetry_equiv_pos_as_xyz
  1  'x, y, z'
loop_
 _atom_site_type_symbol
 _atom_site_label
 _atom_site_symmetry_multiplicity
 _atom_site_fract_x
 _atom_site_fract_y
 _atom_site_fract_z
 _atom_site_occupancy
  Na  Na0  1  0.55334400  0.96767300  0.13450000  1
  Na  Na1  1  0.94665600  0.46767300  0.36550000  1
  Na  Na2  1  0.94665600  0.03232700  0.63450000  1
  Na  Na3  1  0.55334400  0.53232700  0.86550000  1
  Na  Na4  1  0.44665600  0.03232700  0.86550000  1
  Na  Na5  1  0.05334400  0.53232700  0.63450000  1
  Na  Na6  1  0.05334400  0.96767300  0.36550000  1
  Na  Na7  1  0.44665600  0.46767300  0.13450000  1
  Na  Na8  1  0.76877300  0.74813900  0.36251600  1
  Na  Na9  1  0.73122700  0.24813900  0.13748400  1
  Na  Na10  1  0.73122700  0.25186100  0.86251600  1
  Na  Na11  1  0.76877300  0.75186100  0.63748400  1
  Na  Na12  1  0.23122700  0.25186100  0.63748400  1
  Na  Na13  1  0.26877300  0.75186100  0.86251600  1
  Na  Na14  1  0.26877300  0.74813900  0.13748400  1
  Na  Na15  1  0.23122700  0.24813900  0.36251600  1
  Xe  Xe0  1  0.90645000  0.75000000  0.00000000  1
  Xe  Xe1  1  0.59355000  0.25000000  0.50000000  1
  Xe  Xe2  1  0.09355000  0.25000000  0.00000000  1
  Xe  Xe3  1  0.40644900  0.75000000  0.50000000  1
  O  O0  1  0.58280000  0.75000000  0.00000000  1
  O  O1  1  0.91720000  0.25000000  0.50000000  1
  O  O2  1  0.41720000  0.25000000  0.00000000  1
  O  O3  1  0.08280000  0.75000000  0.50000000  1
  O  O4  1  0.11285700  0.75000000  0.00000000  1
  O  O5  1  0.38714300  0.25000000  0.50000000  1
  O  O6  1  0.88714300  0.25000000  0.00000000  1
  O  O7  1  0.61285700  0.75000000  0.50000000  1
  O  O8  1  0.85242200  0.97527800  0.15834000  1
  O  O9  1  0.64757800  0.47527800  0.34166000  1
  O  O10  1  0.64757800  0.02472200  0.65834000  1
  O  O11  1  0.85242200  0.52472200  0.84166000  1
  O  O12  1  0.14757800  0.02472200  0.84166000  1
  O  O13  1  0.35242200  0.52472200  0.65834000  1
  O  O14  1  0.35242200  0.97527800  0.34166000  1
  O  O15  1  0.14757800  0.47527800  0.15834000  1
  O  O16  1  0.77570700  0.50099700  0.10126600  1
  O  O17  1  0.72429300  0.00099700  0.39873400  1
  O  O18  1  0.72429300  0.49900300  0.60126600  1
  O  O19  1  0.77570700  0.99900300  0.89873400  1
  O  O20  1  0.22429300  0.49900300  0.89873400  1
  O  O21  1  0.27570700  0.99900300  0.60126600  1
  O  O22  1  0.27570700  0.50099700  0.39873400  1
  O  O23  1  0.22429300  0.00099700  0.10126600  1
  O  O24  1  0.66062400  0.93334300  0.31904900  1
  O  O25  1  0.83937600  0.43334300  0.18095100  1
  O  O26  1  0.83937600  0.06665700  0.81904900  1
  O  O27  1  0.66062400  0.56665700  0.68095100  1
  O  O28  1  0.33937600  0.06665700  0.68095100  1
  O  O29  1  0.16062400  0.56665700  0.81904900  1
  O  O30  1  0.16062400  0.93334300  0.18095100  1
  O  O31  1  0.33937600  0.43334300  0.31904900  1
  O  O32  1  0.83347000  0.94148400  0.45195900  1
  O  O33  1  0.66653000  0.44148400  0.04804100  1
  O  O34  1  0.66653000  0.05851600  0.95195900  1
  O  O35  1  0.83347000  0.55851600  0.54804100  1
  O  O36  1  0.16653000  0.05851600  0.54804100  1
  O  O37  1  0.33347000  0.55851600  0.95195900  1
  O  O38  1  0.33347000  0.94148400  0.04804100  1
  O  O39  1  0.16653000  0.44148400  0.45195900  1
  O  O40  1  0.00978600  0.72781700  0.40093100  1
  O  O41  1  0.49021400  0.22781700  0.09906900  1
  O  O42  1  0.49021400  0.27218300  0.90093100  1
  O  O43  1  0.00978600  0.77218300  0.59906900  1
  O  O44  1  0.99021400  0.27218300  0.59906900  1
  O  O45  1  0.50978600  0.77218300  0.90093100  1
  O  O46  1  0.50978600  0.72781700  0.09906900  1
  O  O47  1  0.99021400  0.22781700  0.40093100  1
  O  O48  1  0.61460200  0.57555500  0.30082000  1
  O  O49  1  0.88539800  0.07555500  0.19918000  1
  O  O50  1  0.88539800  0.42444500  0.80082000  1
  O  O51  1  0.61460200  0.92444500  0.69918000  1
  O  O52  1  0.38539800  0.42444500  0.69918000  1
  O  O53  1  0.11460200  0.92444500  0.80082000  1
  O  O54  1  0.11460200  0.57555500  0.19918000  1
  O  O55  1  0.38539800  0.07555500  0.30082000  1
loop_
_geom_bond_atom_site_label_1
_geom_bond_atom_site_label_2
_geom_bond_distance
_geom_bond_site_symmetry_2
Na0 O38 2.401956 1_555
Na0 O24 2.410940 1_555
Na0 O34 2.595254 1_564
Na0 O46 2.762299 1_555
Na0 O55 2.810641 1_565
Na0 O0 2.914561 1_555
Na0 O8 2.958079 1_555
Na0 O41 3.019278 1_565
Na1 O39 2.401956 1_655
Na1 O25 2.410940 1_555
Na1 O35 2.595254 1_555
Na1 O47 2.762299 1_555
Na1 O54 2.810641 1_655
Na1 O1 2.914561 1_555
Na1 O9 2.958079 1_555
Na1 O40 3.019278 1_655
Na2 O36 2.401956 1_655
Na2 O26 2.410940 1_555
Na2 O32 2.595254 1_545
Na2 O44 2.762299 1_555
Na2 O53 2.810641 1_645
Na2 O1 2.914561 1_555
Na2 O10 2.958079 1_555
Na2 O43 3.019278 1_645
Na3 O37 2.401956 1_555
Na3 O27 2.410940 1_555
Na3 O33 2.595254 1_556
Na3 O45 2.762299 1_555
Na3 O52 2.810641 1_555
Na3 O0 2.914561 1_556
Na3 O11 2.958079 1_555
Na3 O42 3.019278 1_555
Na4 O34 2.401956 1_555
Na4 O28 2.410940 1_555
Na4 O38 2.595254 1_546
Na4 O42 2.762299 1_555
Na4 O51 2.810641 1_545
Na4 O2 2.914561 1_556
Na4 O12 2.958079 1_555
Na4 O45 3.019278 1_545
Na5 O35 2.401956 1_455
Na5 O29 2.410940 1_555
Na5 O39 2.595254 1_555
Na5 O43 2.762299 1_555
Na5 O50 2.810641 1_455
Na5 O3 2.914561 1_555
Na5 O13 2.958079 1_555
Na5 O44 3.019278 1_455
Na6 O32 2.401956 1_455
Na6 O30 2.410940 1_555
Na6 O36 2.595254 1_565
Na6 O40 2.762299 1_555
Na6 O49 2.810641 1_465
Na6 O3 2.914561 1_555
Na6 O14 2.958079 1_555
Na6 O47 3.019278 1_465
Na7 O33 2.401956 1_555
Na7 O31 2.410940 1_555
Na7 O37 2.595254 1_554
Na7 O41 2.762299 1_555
Na7 O48 2.810641 1_555
Na7 O2 2.914561 1_555
Na7 O15 2.958079 1_555
Na7 O46 3.019278 1_555
Na8 O7 2.209117 1_555
Na8 O24 2.392765 1_555
Na8 O40 2.424393 1_655
Na8 O32 2.490694 1_555
Na8 O48 2.565116 1_555
Na9 O6 2.209117 1_555
Na9 O25 2.392765 1_555
Na9 O41 2.424393 1_555
Na9 O33 2.490694 1_555
Na9 O49 2.565116 1_555
Na10 O6 2.209117 1_556
Na10 O26 2.392765 1_555
Na10 O42 2.424393 1_555
Na10 O34 2.490694 1_555
Na10 O50 2.565116 1_555
Na11 O7 2.209117 1_555
Na11 O27 2.392765 1_555
Na11 O43 2.424393 1_655
Na11 O35 2.490694 1_555
Na11 O51 2.565116 1_555
Na12 O5 2.209117 1_555
Na12 O28 2.392765 1_555
Na12 O44 2.424393 1_455
Na12 O36 2.490694 1_555
Na12 O52 2.565116 1_555
Na13 O4 2.209117 1_556
Na13 O29 2.392765 1_555
Na13 O45 2.424393 1_555
Na13 O37 2.490694 1_555
Na13 O53 2.565116 1_555
Na14 O4 2.209117 1_555
Na14 O30 2.392765 1_555
Na14 O46 2.424393 1_555
Na14 O38 2.490694 1_555
Na14 O54 2.565116 1_555
Na15 O5 2.209117 1_555
Na15 O31 2.392765 1_555
Na15 O47 2.424393 1_455
Na15 O39 2.490694 1_555
Na15 O55 2.565116 1_555
O0 O46 1.374598 1_555
O0 O45 1.374598 1_554
O1 O44 1.374598 1_555
O1 O47 1.374598 1_555
O2 O41 1.374598 1_555
O2 O42 1.374598 1_554
O3 O43 1.374598 1_555
O3 O40 1.374598 1_555
O4 Xe0 2.031770 1_455
O5 Xe1 2.031770 1_555
O6 Xe2 2.031770 1_655
O7 Xe3 2.031780 1_555
O10 O51 1.265040 1_545
O11 O50 1.265040 1_555
O12 O53 1.265040 1_545
O13 O52 1.265040 1_555
O14 O55 1.265040 1_565
O15 O54 1.265040 1_555
O16 O25 1.349020 1_555
O16 O33 1.407615 1_555
O17 O24 1.349020 1_545
O17 O32 1.407615 1_545
O18 O27 1.349020 1_555
O18 O35 1.407615 1_555
O19 O26 1.349020 1_565
O19 O34 1.407615 1_565
O20 O29 1.349020 1_555
O20 O37 1.407615 1_555
O21 O28 1.349020 1_565
O21 O36 1.407615 1_565
O22 O31 1.349020 1_555
O22 O39 1.407615 1_555
O23 O30 1.349020 1_545
O23 O38 1.407615 1_545
O48 O9 1.265040 1_555
O49 O8 1.265040 1_545
