# generated using pymatgen
data_VH3CO5
_symmetry_space_group_name_H-M   'P 1'
_cell_length_a   5.23234783
_cell_length_b   5.91558591
_cell_length_c   7.25079716
_cell_angle_alpha   77.76063102
_cell_angle_beta   70.14448053
_cell_angle_gamma   74.38055814
_symmetry_Int_Tables_number   1
_chemical_formula_structural   VH3CO5
_chemical_formula_sum   'V2 H6 C2 O10'
_cell_volume   201.48428070
_cell_formula_units_Z   2
loop_
 _symmetry_equiv_pos_site_id
 _symmetry_equiv_pos_as_xyz
  1  'x, y, z'
loop_
 _atom_site_type_symbol
 _atom_site_label
 _atom_site_symmetry_multiplicity
 _atom_site_fract_x
 _atom_site_fract_y
 _atom_site_fract_z
 _atom_site_occupancy
  V  V0  1  0.06060800  0.19614800  0.81633800  1
  V  V1  1  0.93939200  0.80385200  0.18366200  1
  H  H0  1  0.22177200  0.11343000  0.14005600  1
  H  H1  1  0.77822800  0.88657100  0.85994400  1
  H  H2  1  0.54028900  0.56907700  0.21783200  1
  H  H3  1  0.45971100  0.43092300  0.78216800  1
  H  H4  1  0.83697600  0.38477300  0.20500000  1
  H  H5  1  0.16302400  0.61522700  0.79500000  1
  C  C0  1  0.40307900  0.05308100  0.43587600  1
  C  C1  1  0.59692100  0.94691900  0.56412400  1
  O  O0  1  0.24530500  0.62621100  0.16983700  1
  O  O1  1  0.75469500  0.37378900  0.83016300  1
  O  O2  1  0.05115400  0.12605200  0.10393100  1
  O  O3  1  0.94884600  0.87394800  0.89606900  1
  O  O4  1  0.16291500  0.16562900  0.51866500  1
  O  O5  1  0.83708500  0.83437100  0.48133500  1
  O  O6  1  0.50199600  0.01821000  0.25551200  1
  O  O7  1  0.49800400  0.98179000  0.74448800  1
  O  O8  1  0.71973400  0.53747700  0.25166000  1
  O  O9  1  0.28026600  0.46252300  0.74834000  1
loop_
_geom_bond_atom_site_label_1
_geom_bond_atom_site_label_2
_geom_bond_distance
_geom_bond_site_symmetry_2
H0 O2 0.992883 1_555
H1 O3 0.992881 1_555
H2 O8 1.009535 1_555
H2 O0 1.628402 1_555
H3 O9 1.009535 1_555
H3 O1 1.628402 1_555
H4 O8 0.998491 1_555
H5 O9 0.998491 1_555
C0 O4 1.260644 1_555
C0 O6 1.271935 1_555
C1 O5 1.260644 1_555
C1 O7 1.271935 1_555
O0 V1 1.645083 1_455
O1 V0 1.645083 1_655
O2 V0 2.024137 1_554
O2 V1 2.052408 1_445
O3 V1 2.024137 1_556
O3 V0 2.052408 1_665
O4 V0 2.075094 1_555
O5 V1 2.075094 1_555
O6 V1 2.241544 1_545
O7 V0 2.241544 1_565
O8 V1 2.075568 1_555
O9 V0 2.075568 1_555
