# generated using pymatgen
data_K2TbCl5
_symmetry_space_group_name_H-M   'P 1'
_cell_length_a   7.93525029
_cell_length_b   8.56253491
_cell_length_c   12.67358610
_cell_angle_alpha   90.00000000
_cell_angle_beta   90.00000000
_cell_angle_gamma   90.00000000
_symmetry_Int_Tables_number   1
_chemical_formula_structural   K2TbCl5
_chemical_formula_sum   'K8 Tb4 Cl20'
_cell_volume   861.11767678
_cell_formula_units_Z   4
loop_
 _symmetry_equiv_pos_site_id
 _symmetry_equiv_pos_as_xyz
  1  'x, y, z'
loop_
 _atom_site_type_symbol
 _atom_site_label
 _atom_site_symmetry_multiplicity
 _atom_site_fract_x
 _atom_site_fract_y
 _atom_site_fract_z
 _atom_site_occupancy
  K  K0  1  0.94689886  0.00403412  0.82801705  1
  K  K1  1  0.05310114  0.99596588  0.17198295  1
  K  K2  1  0.44689886  0.99596588  0.67198295  1
  K  K3  1  0.05310114  0.50403412  0.17198295  1
  K  K4  1  0.55310114  0.00403412  0.32801705  1
  K  K5  1  0.94689886  0.49596588  0.82801705  1
  K  K6  1  0.55310114  0.49596588  0.32801705  1
  K  K7  1  0.44689886  0.50403412  0.67198295  1
  Tb  Tb0  1  0.92487035  0.75000000  0.50481989  1
  Tb  Tb1  1  0.07512965  0.25000000  0.49518011  1
  Tb  Tb2  1  0.42487035  0.25000000  0.99518011  1
  Tb  Tb3  1  0.57512965  0.75000000  0.00481989  1
  Cl  Cl0  1  0.12231603  0.75000000  0.67667945  1
  Cl  Cl1  1  0.87768397  0.25000000  0.32332055  1
  Cl  Cl2  1  0.62231603  0.25000000  0.82332055  1
  Cl  Cl3  1  0.37768397  0.75000000  0.17667945  1
  Cl  Cl4  1  0.83676365  0.04313781  0.57482360  1
  Cl  Cl5  1  0.16323635  0.95686219  0.42517640  1
  Cl  Cl6  1  0.33676365  0.95686219  0.92517640  1
  Cl  Cl7  1  0.16323635  0.54313781  0.42517640  1
  Cl  Cl8  1  0.66323635  0.04313781  0.07482360  1
  Cl  Cl9  1  0.83676365  0.45686219  0.57482360  1
  Cl  Cl10  1  0.66323635  0.45686219  0.07482360  1
  Cl  Cl11  1  0.33676365  0.54313781  0.92517640  1
  Cl  Cl12  1  0.58285768  0.75000000  0.51023303  1
  Cl  Cl13  1  0.41714232  0.25000000  0.48976697  1
  Cl  Cl14  1  0.08285768  0.25000000  0.98976697  1
  Cl  Cl15  1  0.91714232  0.75000000  0.01023303  1
  Cl  Cl16  1  0.65998805  0.75000000  0.79921323  1
  Cl  Cl17  1  0.34001195  0.25000000  0.20078677  1
  Cl  Cl18  1  0.15998805  0.25000000  0.70078677  1
  Cl  Cl19  1  0.84001195  0.75000000  0.29921323  1
loop_
_geom_bond_atom_site_label_1
_geom_bond_atom_site_label_2
_geom_bond_distance
_geom_bond_site_symmetry_2
Cl0 Tb0 2.683062 1_455
Cl0 K5 3.216781 1_455
Cl0 K0 3.216781 1_465
Cl0 K7 3.327629 1_555
Cl0 K2 3.327629 1_555
Cl1 Tb1 2.683062 1_655
Cl1 K3 3.216781 1_655
Cl1 K1 3.216781 1_645
Cl1 K4 3.327629 1_555
Cl1 K6 3.327629 1_555
Cl2 Tb2 2.683062 1_555
Cl2 K7 3.216781 1_555
Cl2 K2 3.216781 1_545
Cl2 K0 3.327629 1_555
Cl2 K5 3.327629 1_555
Cl3 Tb3 2.683062 1_555
Cl3 K6 3.216781 1_555
Cl3 K4 3.216781 1_565
Cl3 K3 3.327629 1_555
Cl3 K1 3.327629 1_555
Cl4 Tb0 2.752461 1_545
Cl4 Tb1 2.780999 1_655
Cl4 K0 3.342565 1_555
Cl4 K2 3.354133 1_545
Cl5 Tb1 2.752461 1_565
Cl5 Tb0 2.780999 1_455
Cl5 K1 3.342565 1_555
Cl5 K4 3.354133 1_565
Cl6 Tb2 2.752461 1_565
Cl6 Tb3 2.780999 1_556
Cl6 K2 3.342565 1_555
Cl6 K0 3.354133 1_465
Cl7 Tb1 2.752461 1_555
Cl7 Tb0 2.780999 1_455
Cl7 K3 3.342565 1_555
Cl7 K6 3.354133 1_555
Cl8 Tb3 2.752461 1_545
Cl8 Tb2 2.780999 1_554
Cl8 K4 3.342565 1_555
Cl8 K1 3.354133 1_645
Cl9 Tb0 2.752461 1_555
Cl9 Tb1 2.780999 1_655
Cl9 K5 3.342565 1_555
Cl9 K7 3.354133 1_555
Cl10 Tb3 2.752461 1_555
Cl10 Tb2 2.780999 1_554
Cl10 K6 3.342565 1_555
Cl10 K3 3.354133 1_655
Cl11 Tb2 2.752461 1_555
Cl11 Tb3 2.780999 1_556
Cl11 K7 3.342565 1_555
Cl11 K5 3.354133 1_455
Cl12 Tb0 2.714823 1_555
Cl12 K7 3.130795 1_555
Cl12 K2 3.130795 1_555
Cl12 K6 3.181218 1_555
Cl12 K4 3.181218 1_565
Cl13 Tb1 2.714823 1_555
Cl13 K4 3.130795 1_555
Cl13 K6 3.130795 1_555
Cl13 K2 3.181218 1_545
Cl13 K7 3.181218 1_555
Cl14 Tb2 2.714823 1_555
Cl14 K0 3.130795 1_455
Cl14 K5 3.130795 1_455
Cl14 K3 3.181218 1_556
Cl14 K1 3.181218 1_546
Cl15 Tb3 2.714823 1_555
Cl15 K3 3.130795 1_655
Cl15 K1 3.130795 1_655
Cl15 K5 3.181218 1_554
Cl15 K0 3.181218 1_564
Cl16 Tb3 2.691373 1_556
Cl16 K2 3.145609 1_555
Cl16 K7 3.145609 1_555
Cl16 K5 3.169867 1_555
Cl16 K0 3.169867 1_565
Cl17 Tb2 2.691373 1_554
Cl17 K6 3.145609 1_555
Cl17 K4 3.145609 1_555
Cl17 K3 3.169867 1_555
Cl17 K1 3.169867 1_545
Cl18 Tb1 2.691373 1_555
Cl18 K0 3.145609 1_455
Cl18 K5 3.145609 1_455
Cl18 K2 3.169867 1_545
Cl18 K7 3.169867 1_555
Cl19 Tb0 2.691373 1_555
Cl19 K3 3.145609 1_655
Cl19 K1 3.145609 1_655
Cl19 K6 3.169867 1_555
Cl19 K4 3.169867 1_565
