# generated using pymatgen
data_MoIr
_symmetry_space_group_name_H-M   'P 1'
_cell_length_a   5.52186050
_cell_length_b   8.89178824
_cell_length_c   9.64204654
_cell_angle_alpha   90.00000000
_cell_angle_beta   90.00000000
_cell_angle_gamma   90.00000000
_symmetry_Int_Tables_number   1
_chemical_formula_structural   MoIr
_chemical_formula_sum   'Mo16 Ir16'
_cell_volume   473.41690894
_cell_formula_units_Z   16
loop_
 _symmetry_equiv_pos_site_id
 _symmetry_equiv_pos_as_xyz
  1  'x, y, z'
loop_
 _atom_site_type_symbol
 _atom_site_label
 _atom_site_symmetry_multiplicity
 _atom_site_fract_x
 _atom_site_fract_y
 _atom_site_fract_z
 _atom_site_occupancy
  Mo  Mo0_0  1  0.00000000  0.12500000  0.08545662  1
  Mo  Mo0_1  1  0.00000000  0.12500000  0.58545662  1
  Mo  Mo0_2  1  0.00000000  0.62500000  0.08545662  1
  Mo  Mo0_3  1  0.00000000  0.62500000  0.58545662  1
  Mo  Mo0_4  1  0.50000000  0.12500000  0.08545662  1
  Mo  Mo0_5  1  0.50000000  0.12500000  0.58545662  1
  Mo  Mo0_6  1  0.50000000  0.62500000  0.08545662  1
  Mo  Mo0_7  1  0.50000000  0.62500000  0.58545662  1
  Mo  Mo1_0  1  0.00000000  0.37500000  0.41454338  1
  Mo  Mo1_1  1  0.00000000  0.37500000  0.91454338  1
  Mo  Mo1_2  1  0.00000000  0.87500000  0.41454338  1
  Mo  Mo1_3  1  0.00000000  0.87500000  0.91454338  1
  Mo  Mo1_4  1  0.50000000  0.37500000  0.41454338  1
  Mo  Mo1_5  1  0.50000000  0.37500000  0.91454338  1
  Mo  Mo1_6  1  0.50000000  0.87500000  0.41454338  1
  Mo  Mo1_7  1  0.50000000  0.87500000  0.91454338  1
  Ir  Ir0_0  1  0.25000000  0.12500000  0.33792780  1
  Ir  Ir0_1  1  0.25000000  0.12500000  0.83792780  1
  Ir  Ir0_2  1  0.25000000  0.62500000  0.33792780  1
  Ir  Ir0_3  1  0.25000000  0.62500000  0.83792780  1
  Ir  Ir0_4  1  0.75000000  0.12500000  0.33792780  1
  Ir  Ir0_5  1  0.75000000  0.12500000  0.83792780  1
  Ir  Ir0_6  1  0.75000000  0.62500000  0.33792780  1
  Ir  Ir0_7  1  0.75000000  0.62500000  0.83792780  1
  Ir  Ir1_0  1  0.25000000  0.37500000  0.16207220  1
  Ir  Ir1_1  1  0.25000000  0.37500000  0.66207220  1
  Ir  Ir1_2  1  0.25000000  0.87500000  0.16207220  1
  Ir  Ir1_3  1  0.25000000  0.87500000  0.66207220  1
  Ir  Ir1_4  1  0.75000000  0.37500000  0.16207220  1
  Ir  Ir1_5  1  0.75000000  0.37500000  0.66207220  1
  Ir  Ir1_6  1  0.75000000  0.87500000  0.16207220  1
  Ir  Ir1_7  1  0.75000000  0.87500000  0.66207220  1
loop_
_geom_bond_atom_site_label_1
_geom_bond_atom_site_label_2
_geom_bond_distance
_geom_bond_site_symmetry_2
Mo0_0 Mo0_4 2.760930 1_455
Mo0_0 Mo0_4 2.760930 1_555
Mo0_0 Mo1_3 2.767173 1_544
Mo0_0 Mo1_1 2.767173 1_554
Mo0_1 Mo0_5 2.760930 1_555
Mo0_1 Mo0_5 2.760930 1_455
Mo0_1 Mo1_2 2.767173 1_545
Mo0_1 Mo1_0 2.767173 1_555
Mo0_2 Mo0_6 2.760930 1_455
Mo0_2 Mo0_6 2.760930 1_555
Mo0_2 Mo1_1 2.767173 1_554
Mo0_2 Mo1_3 2.767173 1_554
Mo0_3 Mo0_7 2.760930 1_455
Mo0_3 Mo0_7 2.760930 1_555
Mo0_3 Mo1_0 2.767173 1_555
Mo0_3 Mo1_2 2.767173 1_555
Mo0_4 Mo1_7 2.767173 1_544
Mo0_4 Mo1_5 2.767173 1_554
Mo0_5 Mo1_6 2.767173 1_545
Mo0_5 Mo1_4 2.767173 1_555
Mo0_6 Mo1_5 2.767173 1_554
Mo0_6 Mo1_7 2.767173 1_554
Mo0_7 Mo1_4 2.767173 1_555
Mo0_7 Mo1_6 2.767173 1_555
Mo1_0 Mo1_4 2.760930 1_555
Mo1_0 Mo1_4 2.760930 1_455
Mo1_1 Mo1_5 2.760930 1_555
Mo1_1 Mo1_5 2.760930 1_455
Mo1_2 Mo1_6 2.760930 1_555
Mo1_2 Mo1_6 2.760930 1_455
Mo1_3 Mo1_7 2.760930 1_555
Mo1_3 Mo1_7 2.760930 1_455
Ir0_0 Mo1_2 2.718989 1_545
Ir0_0 Mo1_6 2.718989 1_545
Ir0_0 Mo1_4 2.718989 1_555
Ir0_0 Mo1_0 2.718989 1_555
Ir0_0 Mo0_1 2.757163 1_555
Ir0_0 Mo0_5 2.757163 1_555
Ir0_0 Ir0_4 2.760930 1_455
Ir0_0 Ir0_4 2.760930 1_555
Ir0_0 Ir1_2 2.795815 1_545
Ir0_0 Ir1_0 2.795815 1_555
Ir0_0 Mo0_4 2.798516 1_555
Ir0_0 Mo0_0 2.798516 1_555
Ir0_1 Mo1_7 2.718989 1_545
Ir0_1 Mo1_3 2.718989 1_545
Ir0_1 Mo1_1 2.718989 1_555
Ir0_1 Mo1_5 2.718989 1_555
Ir0_1 Mo0_0 2.757163 1_556
Ir0_1 Mo0_4 2.757163 1_556
Ir0_1 Ir0_5 2.760930 1_555
Ir0_1 Ir0_5 2.760930 1_455
Ir0_1 Ir1_3 2.795815 1_545
Ir0_1 Ir1_1 2.795815 1_555
Ir0_1 Mo0_5 2.798516 1_555
Ir0_1 Mo0_1 2.798516 1_555
Ir0_2 Mo1_4 2.718989 1_555
Ir0_2 Mo1_0 2.718989 1_555
Ir0_2 Mo1_2 2.718989 1_555
Ir0_2 Mo1_6 2.718989 1_555
Ir0_2 Mo0_3 2.757163 1_555
Ir0_2 Mo0_7 2.757163 1_555
Ir0_2 Ir0_6 2.760930 1_455
Ir0_2 Ir0_6 2.760930 1_555
Ir0_2 Ir1_0 2.795815 1_555
Ir0_2 Ir1_2 2.795815 1_555
Ir0_2 Mo0_2 2.798516 1_555
Ir0_2 Mo0_6 2.798516 1_555
Ir0_3 Mo1_1 2.718989 1_555
Ir0_3 Mo1_5 2.718989 1_555
Ir0_3 Mo1_7 2.718989 1_555
Ir0_3 Mo1_3 2.718989 1_555
Ir0_3 Mo0_6 2.757163 1_556
Ir0_3 Mo0_2 2.757163 1_556
Ir0_3 Ir0_7 2.760930 1_455
Ir0_3 Ir0_7 2.760930 1_555
Ir0_3 Ir1_1 2.795815 1_555
Ir0_3 Ir1_3 2.795815 1_555
Ir0_3 Mo0_7 2.798516 1_555
Ir0_3 Mo0_3 2.798516 1_555
Ir0_4 Mo1_6 2.718989 1_545
Ir0_4 Mo1_2 2.718989 1_645
Ir0_4 Mo1_4 2.718989 1_555
Ir0_4 Mo1_0 2.718989 1_655
Ir0_4 Mo0_1 2.757163 1_655
Ir0_4 Mo0_5 2.757163 1_555
Ir0_4 Ir1_6 2.795815 1_545
Ir0_4 Ir1_4 2.795815 1_555
Ir0_4 Mo0_4 2.798516 1_555
Ir0_4 Mo0_0 2.798516 1_655
Ir0_5 Mo1_7 2.718989 1_545
Ir0_5 Mo1_3 2.718989 1_645
Ir0_5 Mo1_1 2.718989 1_655
Ir0_5 Mo1_5 2.718989 1_555
Ir0_5 Mo0_0 2.757163 1_656
Ir0_5 Mo0_4 2.757163 1_556
Ir0_5 Ir1_7 2.795815 1_545
Ir0_5 Ir1_5 2.795815 1_555
Ir0_5 Mo0_1 2.798516 1_655
Ir0_5 Mo0_5 2.798516 1_555
Ir0_6 Mo1_4 2.718989 1_555
Ir0_6 Mo1_0 2.718989 1_655
Ir0_6 Mo1_6 2.718989 1_555
Ir0_6 Mo1_2 2.718989 1_655
Ir0_6 Mo0_3 2.757163 1_655
Ir0_6 Mo0_7 2.757163 1_555
Ir0_6 Ir1_4 2.795815 1_555
Ir0_6 Ir1_6 2.795815 1_555
Ir0_6 Mo0_2 2.798516 1_655
Ir0_6 Mo0_6 2.798516 1_555
Ir0_7 Mo1_1 2.718989 1_655
Ir0_7 Mo1_5 2.718989 1_555
Ir0_7 Mo1_7 2.718989 1_555
Ir0_7 Mo1_3 2.718989 1_655
Ir0_7 Mo0_2 2.757163 1_656
Ir0_7 Mo0_6 2.757163 1_556
Ir0_7 Ir1_5 2.795815 1_555
Ir0_7 Ir1_7 2.795815 1_555
Ir0_7 Mo0_7 2.798516 1_555
Ir0_7 Mo0_3 2.798516 1_655
Ir1_0 Mo0_0 2.718989 1_555
Ir1_0 Mo0_6 2.718989 1_555
Ir1_0 Mo0_4 2.718989 1_555
Ir1_0 Mo0_2 2.718989 1_555
Ir1_0 Mo1_5 2.757163 1_554
Ir1_0 Mo1_1 2.757163 1_554
Ir1_0 Ir1_4 2.760930 1_555
Ir1_0 Ir1_4 2.760930 1_455
Ir1_0 Mo1_0 2.798516 1_555
Ir1_0 Mo1_4 2.798516 1_555
Ir1_1 Mo0_3 2.718989 1_555
Ir1_1 Mo0_1 2.718989 1_555
Ir1_1 Mo0_7 2.718989 1_555
Ir1_1 Mo0_5 2.718989 1_555
Ir1_1 Mo1_4 2.757163 1_555
Ir1_1 Mo1_0 2.757163 1_555
Ir1_1 Ir1_5 2.760930 1_455
Ir1_1 Ir1_5 2.760930 1_555
Ir1_1 Mo1_1 2.798516 1_555
Ir1_1 Mo1_5 2.798516 1_555
Ir1_2 Mo0_0 2.718989 1_565
Ir1_2 Mo0_4 2.718989 1_565
Ir1_2 Mo0_6 2.718989 1_555
Ir1_2 Mo0_2 2.718989 1_555
Ir1_2 Mo1_3 2.757163 1_554
Ir1_2 Mo1_7 2.757163 1_554
Ir1_2 Ir1_6 2.760930 1_555
Ir1_2 Ir1_6 2.760930 1_455
Ir1_2 Mo1_2 2.798516 1_555
Ir1_2 Mo1_6 2.798516 1_555
Ir1_3 Mo0_5 2.718989 1_565
Ir1_3 Mo0_1 2.718989 1_565
Ir1_3 Mo0_3 2.718989 1_555
Ir1_3 Mo0_7 2.718989 1_555
Ir1_3 Mo1_6 2.757163 1_555
Ir1_3 Mo1_2 2.757163 1_555
Ir1_3 Ir1_7 2.760930 1_555
Ir1_3 Ir1_7 2.760930 1_455
Ir1_3 Mo1_3 2.798516 1_555
Ir1_3 Mo1_7 2.798516 1_555
Ir1_4 Mo0_2 2.718989 1_655
Ir1_4 Mo0_6 2.718989 1_555
Ir1_4 Mo0_0 2.718989 1_655
Ir1_4 Mo0_4 2.718989 1_555
Ir1_4 Mo1_5 2.757163 1_554
Ir1_4 Mo1_1 2.757163 1_654
Ir1_4 Mo1_0 2.798516 1_655
Ir1_4 Mo1_4 2.798516 1_555
Ir1_5 Mo0_7 2.718989 1_555
Ir1_5 Mo0_1 2.718989 1_655
Ir1_5 Mo0_5 2.718989 1_555
Ir1_5 Mo0_3 2.718989 1_655
Ir1_5 Mo1_4 2.757163 1_555
Ir1_5 Mo1_0 2.757163 1_655
Ir1_5 Mo1_1 2.798516 1_655
Ir1_5 Mo1_5 2.798516 1_555
Ir1_6 Mo0_0 2.718989 1_665
Ir1_6 Mo0_4 2.718989 1_565
Ir1_6 Mo0_6 2.718989 1_555
Ir1_6 Mo0_2 2.718989 1_655
Ir1_6 Mo1_3 2.757163 1_654
Ir1_6 Mo1_7 2.757163 1_554
Ir1_6 Mo1_6 2.798516 1_555
Ir1_6 Mo1_2 2.798516 1_655
Ir1_7 Mo0_1 2.718989 1_665
Ir1_7 Mo0_5 2.718989 1_565
Ir1_7 Mo0_7 2.718989 1_555
Ir1_7 Mo0_3 2.718989 1_655
Ir1_7 Mo1_6 2.757163 1_555
Ir1_7 Mo1_2 2.757163 1_655
Ir1_7 Mo1_3 2.798516 1_655
Ir1_7 Mo1_7 2.798516 1_555
