# generated using pymatgen
data_ZnP3NO9
_symmetry_space_group_name_H-M   'P 1'
_cell_length_a   6.65603354
_cell_length_b   6.65603354
_cell_length_c   9.93195000
_cell_angle_alpha   90.00000000
_cell_angle_beta   90.00000000
_cell_angle_gamma   119.99999542
_symmetry_Int_Tables_number   1
_chemical_formula_structural   ZnP3NO9
_chemical_formula_sum   'Zn2 P6 N2 O18'
_cell_volume   381.06247123
_cell_formula_units_Z   2
loop_
 _symmetry_equiv_pos_site_id
 _symmetry_equiv_pos_as_xyz
  1  'x, y, z'
loop_
 _atom_site_type_symbol
 _atom_site_label
 _atom_site_symmetry_multiplicity
 _atom_site_fract_x
 _atom_site_fract_y
 _atom_site_fract_z
 _atom_site_occupancy
  Zn  Zn0  1  0.00000000  0.00000000  0.00000000  1
  Zn  Zn1  1  0.00000000  0.00000000  0.50000000  1
  P  P0  1  0.72188300  0.10599500  0.25000000  1
  P  P1  1  0.89400500  0.61588800  0.25000000  1
  P  P2  1  0.72188300  0.61588800  0.75000000  1
  P  P3  1  0.38411200  0.27811700  0.25000000  1
  P  P4  1  0.89400500  0.27811700  0.75000000  1
  P  P5  1  0.38411200  0.10599500  0.75000000  1
  N  N0  1  0.33333300  0.66666700  0.00000000  1
  N  N1  1  0.33333300  0.66666700  0.50000000  1
  O  O0  1  0.25879900  0.25711400  0.12030000  1
  O  O1  1  0.74288600  0.00168500  0.12030000  1
  O  O2  1  0.25879900  0.25711400  0.37970000  1
  O  O3  1  0.25879900  0.00168500  0.62030000  1
  O  O4  1  0.99831500  0.74120100  0.12030000  1
  O  O5  1  0.74288600  0.00168500  0.37970000  1
  O  O6  1  0.74288600  0.74120100  0.62030000  1
  O  O7  1  0.25879900  0.00168500  0.87970000  1
  O  O8  1  0.99831500  0.74120100  0.37970000  1
  O  O9  1  0.74288600  0.74120100  0.87970000  1
  O  O10  1  0.99831500  0.25711400  0.62030000  1
  O  O11  1  0.99831500  0.25711400  0.87970000  1
  O  O12  1  0.47546300  0.09431800  0.25000000  1
  O  O13  1  0.90568200  0.38114500  0.25000000  1
  O  O14  1  0.47546300  0.38114500  0.75000000  1
  O  O15  1  0.61885500  0.52453700  0.25000000  1
  O  O16  1  0.90568200  0.52453700  0.75000000  1
  O  O17  1  0.61885500  0.09431800  0.75000000  1
loop_
_geom_bond_atom_site_label_1
_geom_bond_atom_site_label_2
_geom_bond_distance
_geom_bond_site_symmetry_2
O0 P3 1.502676 1_555
O0 Zn0 2.091806 1_555
O1 P0 1.502676 1_555
O1 Zn0 2.091805 1_655
O2 P3 1.502676 1_555
O2 Zn1 2.091806 1_555
O3 P5 1.502676 1_555
O3 Zn1 2.091805 1_555
O4 P1 1.502676 1_555
O4 Zn0 2.091805 1_665
O5 P0 1.502676 1_555
O5 Zn1 2.091805 1_655
O6 P2 1.502676 1_555
O6 Zn1 2.091806 1_665
O7 P5 1.502676 1_555
O7 Zn0 2.091805 1_556
O8 P1 1.502676 1_555
O8 Zn1 2.091805 1_665
O9 P2 1.502676 1_555
O9 Zn0 2.091806 1_666
O10 P4 1.502676 1_555
O10 Zn1 2.091805 1_655
O11 P4 1.502676 1_555
O11 Zn0 2.091805 1_656
O12 P0 1.602733 1_555
O12 P3 1.615611 1_555
O13 P1 1.602733 1_555
O13 P0 1.615612 1_555
O14 P2 1.602733 1_555
O14 P5 1.615611 1_555
O15 P3 1.602733 1_555
O15 P1 1.615611 1_555
O16 P4 1.602733 1_555
O16 P2 1.615611 1_555
O17 P5 1.602733 1_555
O17 P4 1.615612 1_555
