# generated using pymatgen
data_Eu2BPd6
_symmetry_space_group_name_H-M   'P 1'
_cell_length_a   4.30473885
_cell_length_b   4.30473885
_cell_length_c   8.23152651
_cell_angle_alpha   90.00000000
_cell_angle_beta   90.00000000
_cell_angle_gamma   90.00000000
_symmetry_Int_Tables_number   1
_chemical_formula_structural   Eu2BPd6
_chemical_formula_sum   'Eu2 B1 Pd6'
_cell_volume   152.53657856
_cell_formula_units_Z   1
loop_
 _symmetry_equiv_pos_site_id
 _symmetry_equiv_pos_as_xyz
  1  'x, y, z'
loop_
 _atom_site_type_symbol
 _atom_site_label
 _atom_site_symmetry_multiplicity
 _atom_site_fract_x
 _atom_site_fract_y
 _atom_site_fract_z
 _atom_site_occupancy
  Eu  Eu0  1  0.00000000  -0.00000000  0.99044887  1
  Eu  Eu1  1  -0.00000000  0.00000000  0.50955113  1
  B  B0  1  0.50000000  0.50000000  0.25000000  1
  Pd  Pd0  1  -0.00000000  0.50000000  0.25000000  1
  Pd  Pd1  1  -0.00000000  0.50000000  0.75000000  1
  Pd  Pd2  1  0.50000000  0.50000000  0.99202345  1
  Pd  Pd3  1  0.50000000  0.50000000  0.50797655  1
  Pd  Pd4  1  0.50000000  0.00000000  0.25000000  1
  Pd  Pd5  1  0.50000000  0.00000000  0.75000000  1
loop_
_geom_bond_atom_site_label_1
_geom_bond_atom_site_label_2
_geom_bond_distance
_geom_bond_site_symmetry_2
Eu0 Pd5 2.924067 1_555
Eu0 Pd1 2.924067 1_545
Eu0 Pd5 2.924067 1_455
Eu0 Pd1 2.924067 1_555
Eu0 Pd4 3.032711 1_456
Eu0 Pd0 3.032711 1_556
Eu0 Pd4 3.032711 1_556
Eu0 Pd0 3.032711 1_546
Eu0 Pd2 3.043938 1_445
Eu0 Pd2 3.043938 1_545
Eu0 Pd2 3.043938 1_555
Eu0 Pd2 3.043938 1_455
Eu1 Pd5 2.924067 1_555
Eu1 Pd1 2.924067 1_545
Eu1 Pd5 2.924067 1_455
Eu1 Pd1 2.924067 1_555
Eu1 Pd4 3.032711 1_555
Eu1 Pd4 3.032711 1_455
Eu1 Pd0 3.032711 1_555
Eu1 Pd0 3.032711 1_545
Eu1 Pd3 3.043938 1_555
Eu1 Pd3 3.043938 1_445
Eu1 Pd3 3.043938 1_455
Eu1 Pd3 3.043938 1_545
B0 Pd2 2.123541 1_554
B0 Pd3 2.123541 1_555
B0 Pd0 2.152369 1_555
B0 Pd0 2.152369 1_655
B0 Pd4 2.152369 1_555
B0 Pd4 2.152369 1_565
