# generated using pymatgen
data_Mo2NO7
_symmetry_space_group_name_H-M   'P 1'
_cell_length_a   7.71770400
_cell_length_b   9.43205604
_cell_length_c   9.95929437
_cell_angle_alpha   87.47149962
_cell_angle_beta   74.62295799
_cell_angle_gamma   87.06325852
_symmetry_Int_Tables_number   1
_chemical_formula_structural   Mo2NO7
_chemical_formula_sum   'Mo8 N4 O28'
_cell_volume   697.75319872
_cell_formula_units_Z   4
loop_
 _symmetry_equiv_pos_site_id
 _symmetry_equiv_pos_as_xyz
  1  'x, y, z'
loop_
 _atom_site_type_symbol
 _atom_site_label
 _atom_site_symmetry_multiplicity
 _atom_site_fract_x
 _atom_site_fract_y
 _atom_site_fract_z
 _atom_site_occupancy
  Mo  Mo0  1  0.25836100  0.46170900  0.53234600  1
  Mo  Mo1  1  0.74163900  0.53829100  0.46765400  1
  Mo  Mo2  1  0.40543200  0.20287400  0.25577400  1
  Mo  Mo3  1  0.59456800  0.79712600  0.74422600  1
  Mo  Mo4  1  0.62645200  0.20997800  0.53006900  1
  Mo  Mo5  1  0.37354800  0.79002200  0.46993100  1
  Mo  Mo6  1  0.55753100  0.55406800  0.21255400  1
  Mo  Mo7  1  0.44246900  0.44593200  0.78744600  1
  N  N0  1  0.11202500  0.31032500  0.95976300  1
  N  N1  1  0.88797500  0.68967500  0.04023700  1
  N  N2  1  0.50000000  0.00000000  0.00000000  1
  N  N3  1  0.00000000  0.00000000  0.50000000  1
  O  O0  1  0.79509700  0.52278900  0.11281900  1
  O  O1  1  0.20490300  0.47721100  0.88718100  1
  O  O2  1  0.94896300  0.49277300  0.36167300  1
  O  O3  1  0.05103700  0.50722700  0.63832700  1
  O  O4  1  0.85016100  0.13906700  0.45305100  1
  O  O5  1  0.14983900  0.86093300  0.54694900  1
  O  O6  1  0.23025800  0.32591900  0.42000800  1
  O  O7  1  0.76974200  0.67408100  0.57999200  1
  O  O8  1  0.49860200  0.69067400  0.11294500  1
  O  O9  1  0.50139800  0.30932600  0.88705500  1
  O  O10  1  0.64450400  0.67057900  0.34542500  1
  O  O11  1  0.35549600  0.32942100  0.65457500  1
  O  O12  1  0.44078900  0.39545300  0.17205700  1
  O  O13  1  0.55921100  0.60454700  0.82794300  1
  O  O14  1  0.42953700  0.87983100  0.88721700  1
  O  O15  1  0.57046300  0.12016900  0.11278300  1
  O  O16  1  0.43461200  0.89260800  0.32010300  1
  O  O17  1  0.56538800  0.10739200  0.67989700  1
  O  O18  1  0.31032100  0.61586700  0.38221600  1
  O  O19  1  0.68967900  0.38413300  0.61778400  1
  O  O20  1  0.49375900  0.13519900  0.41245100  1
  O  O21  1  0.50624100  0.86480100  0.58754900  1
  O  O22  1  0.58436100  0.40556600  0.39648100  1
  O  O23  1  0.41563900  0.59443400  0.60351900  1
  O  O24  1  0.21554000  0.13001400  0.23719100  1
  O  O25  1  0.78446000  0.86998600  0.76280900  1
  O  O26  1  0.02306600  0.70341600  0.06224500  1
  O  O27  1  0.97693400  0.29658400  0.93775500  1
loop_
_geom_bond_atom_site_label_1
_geom_bond_atom_site_label_2
_geom_bond_distance
_geom_bond_site_symmetry_2
Mo0 O3 1.712462 1_555
Mo0 O6 1.795203 1_555
Mo0 O11 1.963372 1_555
Mo0 O18 2.015077 1_555
Mo0 O23 2.057497 1_555
Mo0 O22 2.561771 1_555
Mo1 O2 1.712462 1_555
Mo1 O7 1.795203 1_555
Mo1 O10 1.963372 1_555
Mo1 O19 2.015077 1_555
Mo1 O22 2.057497 1_555
Mo1 O23 2.561771 1_555
Mo2 O24 1.706624 1_555
Mo2 O15 1.814674 1_555
Mo2 O20 1.933548 1_555
Mo2 O12 1.966085 1_555
Mo2 O6 2.164255 1_555
Mo3 O25 1.706624 1_555
Mo3 O14 1.814674 1_555
Mo3 O21 1.933548 1_555
Mo3 O13 1.966085 1_555
Mo3 O7 2.164255 1_555
Mo4 O17 1.712113 1_555
Mo4 O4 1.800326 1_555
Mo4 O20 1.923927 1_555
Mo4 O19 2.033306 1_555
Mo4 O22 2.286946 1_555
Mo4 O11 2.384620 1_555
Mo5 O16 1.712113 1_555
Mo5 O5 1.800326 1_555
Mo5 O21 1.923927 1_555
Mo5 O18 2.033306 1_555
Mo5 O23 2.286946 1_555
Mo5 O10 2.384620 1_555
Mo6 O8 1.708096 1_555
Mo6 O0 1.854684 1_555
Mo6 O12 1.896502 1_555
Mo6 O10 2.020967 1_555
Mo6 O18 2.257919 1_555
Mo6 O22 2.303316 1_555
Mo7 O9 1.708096 1_555
Mo7 O1 1.854684 1_555
Mo7 O13 1.896502 1_555
Mo7 O11 2.020967 1_555
Mo7 O19 2.257919 1_555
Mo7 O23 2.303316 1_555
N0 O27 1.135510 1_455
N0 O1 1.804020 1_555
N1 O26 1.135510 1_655
N1 O0 1.804020 1_555
N2 O14 1.827984 1_544
N2 O15 1.827984 1_555
N3 O4 1.831302 1_455
N3 O5 1.831302 1_545
