# generated using pymatgen
data_Li7Mn4CoO12
_symmetry_space_group_name_H-M   'P 1'
_cell_length_a   5.10940390
_cell_length_b   5.10940390
_cell_length_c   15.86105535
_cell_angle_alpha   82.63106373
_cell_angle_beta   82.63106373
_cell_angle_gamma   32.75052102
_symmetry_Int_Tables_number   1
_chemical_formula_structural   Li7Mn4CoO12
_chemical_formula_sum   'Li7 Mn4 Co1 O12'
_cell_volume   221.99328664
_cell_formula_units_Z   1
loop_
 _symmetry_equiv_pos_site_id
 _symmetry_equiv_pos_as_xyz
  1  'x, y, z'
loop_
 _atom_site_type_symbol
 _atom_site_label
 _atom_site_symmetry_multiplicity
 _atom_site_fract_x
 _atom_site_fract_y
 _atom_site_fract_z
 _atom_site_occupancy
  Li  Li0  1  0.25440400  0.25440400  0.07724900  1
  Li  Li1  1  0.74741500  0.74741500  0.25251200  1
  Li  Li2  1  0.23706400  0.23706400  0.42935400  1
  Li  Li3  1  0.74593200  0.74593200  0.59570200  1
  Li  Li4  1  0.27082500  0.27082500  0.73949100  1
  Li  Li5  1  0.75795800  0.75795800  0.90304000  1
  Li  Li6  1  0.00031900  0.00031900  0.66579600  1
  Mn  Mn0  1  0.00520300  0.00520300  0.99350200  1
  Mn  Mn1  1  0.48503200  0.48503200  0.51186000  1
  Mn  Mn2  1  0.50510700  0.50510700  0.16503300  1
  Mn  Mn3  1  0.98927000  0.98927000  0.33983900  1
  Co  Co0  1  0.51797500  0.51797500  0.81090600  1
  O  O0  1  0.38748500  0.38748500  0.96743700  1
  O  O1  1  0.89590300  0.89590300  0.12136100  1
  O  O2  1  0.37916900  0.37916900  0.29682300  1
  O  O3  1  0.87586300  0.87586300  0.46732200  1
  O  O4  1  0.38222000  0.38222000  0.61488600  1
  O  O5  1  0.88737200  0.88737200  0.79367500  1
  O  O6  1  0.11866400  0.11866400  0.20368800  1
  O  O7  1  0.59973700  0.59973700  0.38122300  1
  O  O8  1  0.10293700  0.10293700  0.53758300  1
  O  O9  1  0.63030400  0.63030400  0.71343300  1
  O  O10  1  0.10683800  0.10683800  0.88459300  1
  O  O11  1  0.61700500  0.61700500  0.03369100  1
loop_
_geom_bond_atom_site_label_1
_geom_bond_atom_site_label_2
_geom_bond_distance
_geom_bond_site_symmetry_2
Li0 O0 2.031860 1_554
Li0 O11 2.148441 1_545
Li0 O11 2.148441 1_455
Li0 O1 2.179132 1_545
Li0 O1 2.179132 1_455
Li0 O6 2.253754 1_555
Li1 O2 2.116671 1_655
Li1 O2 2.116671 1_565
Li1 O6 2.128254 1_565
Li1 O6 2.128254 1_655
Li1 O7 2.339608 1_555
Li1 O1 2.374224 1_555
Li2 O8 2.018054 1_555
Li2 O3 2.123345 1_545
Li2 O3 2.123345 1_455
Li2 O7 2.178384 1_545
Li2 O7 2.178384 1_455
Li2 O2 2.361533 1_555
Li3 O4 2.015371 1_565
Li3 O4 2.015371 1_655
Li3 O9 2.050886 1_555
Li3 O3 2.252896 1_555
Li3 O8 2.288184 1_565
Li3 O8 2.288184 1_655
Li4 O9 2.072710 1_455
Li4 O9 2.072710 1_545
Li4 O5 2.093276 1_545
Li4 O5 2.093276 1_455
Li4 O4 2.126433 1_555
Li5 O5 2.007593 1_555
Li5 O10 2.114640 1_565
Li5 O10 2.114640 1_655
Li5 O0 2.253385 1_565
Li5 O0 2.253385 1_655
Li5 O11 2.332035 1_556
Li6 O4 2.077900 1_545
Li6 O4 2.077900 1_455
Li6 O9 2.127778 1_545
Li6 O9 2.127778 1_455
Li6 O8 2.144928 1_555
Li6 O5 2.177092 1_445
Mn0 O10 1.875280 1_555
Mn0 O0 1.924970 1_455
Mn0 O0 1.924970 1_545
Mn0 O11 1.967141 1_546
Mn0 O11 1.967141 1_456
Mn0 O1 2.163334 1_446
Mn1 O4 1.801654 1_555
Mn1 O8 1.924530 1_565
Mn1 O8 1.924530 1_655
Mn1 O3 1.980343 1_545
Mn1 O3 1.980343 1_455
Mn1 O7 2.221502 1_555
Mn2 O6 1.967975 1_655
Mn2 O6 1.967975 1_565
Mn2 O1 1.974692 1_455
Mn2 O1 1.974692 1_545
Mn2 O11 2.220891 1_555
Mn2 O2 2.281223 1_555
Mn3 O7 1.966953 1_655
Mn3 O7 1.966953 1_565
Mn3 O2 1.975509 1_565
Mn3 O2 1.975509 1_655
Mn3 O3 2.173412 1_555
Mn3 O6 2.353798 1_665
Co0 O9 1.774217 1_555
Co0 O5 1.970493 1_455
Co0 O5 1.970493 1_545
Co0 O10 2.114774 1_655
Co0 O10 2.114774 1_565
