# generated using pymatgen
data_Nd2FeCo17Si8
_symmetry_space_group_name_H-M   'P 1'
_cell_length_a   7.94708875
_cell_length_b   7.93712752
_cell_length_c   7.75135651
_cell_angle_alpha   60.85565940
_cell_angle_beta   60.72712267
_cell_angle_gamma   58.41721793
_symmetry_Int_Tables_number   1
_chemical_formula_structural   Nd2FeCo17Si8
_chemical_formula_sum   'Nd2 Fe1 Co17 Si8'
_cell_volume   345.33716975
_cell_formula_units_Z   1
loop_
 _symmetry_equiv_pos_site_id
 _symmetry_equiv_pos_as_xyz
  1  'x, y, z'
loop_
 _atom_site_type_symbol
 _atom_site_label
 _atom_site_symmetry_multiplicity
 _atom_site_fract_x
 _atom_site_fract_y
 _atom_site_fract_z
 _atom_site_occupancy
  Nd  Nd0  1  0.25000000  0.25000000  0.25000000  1
  Nd  Nd1  1  0.75000000  0.75000000  0.75000000  1
  Fe  Fe0  1  0.00000000  0.00000000  0.00000000  1
  Co  Co0  1  0.44837300  0.19110100  0.80889900  1
  Co  Co1  1  0.19110100  0.44837300  0.55162700  1
  Co  Co2  1  0.94905700  0.69127000  0.05094300  1
  Co  Co3  1  0.69127000  0.94905700  0.30873000  1
  Co  Co4  1  0.55162700  0.80889900  0.19110100  1
  Co  Co5  1  0.80889900  0.55162700  0.44837300  1
  Co  Co6  1  0.05094300  0.30873000  0.94905700  1
  Co  Co7  1  0.30873000  0.05094300  0.69127000  1
  Co  Co8  1  0.70147000  0.29853000  0.06947400  1
  Co  Co9  1  0.29853000  0.70147000  0.93052600  1
  Co  Co10  1  0.19989000  0.80011000  0.43026800  1
  Co  Co11  1  0.80011000  0.19989000  0.56973200  1
  Co  Co12  1  0.43026800  0.56973200  0.19989000  1
  Co  Co13  1  0.56973200  0.43026800  0.80011000  1
  Co  Co14  1  0.06947400  0.93052600  0.70147000  1
  Co  Co15  1  0.93052600  0.06947400  0.29853000  1
  Co  Co16  1  0.50000000  0.50000000  0.50000000  1
  Si  Si0  1  0.70834400  0.04736100  0.95263900  1
  Si  Si1  1  0.04736100  0.70834400  0.29165600  1
  Si  Si2  1  0.20880300  0.54786600  0.79119700  1
  Si  Si3  1  0.54786600  0.20880300  0.45213400  1
  Si  Si4  1  0.29165600  0.95263900  0.04736100  1
  Si  Si5  1  0.95263900  0.29165600  0.70834400  1
  Si  Si6  1  0.79119700  0.45213400  0.20880300  1
  Si  Si7  1  0.45213400  0.79119700  0.54786600  1
loop_
_geom_bond_atom_site_label_1
_geom_bond_atom_site_label_2
_geom_bond_distance
_geom_bond_site_symmetry_2
Nd0 Si1 3.229749 1_555
Nd0 Si4 3.229749 1_545
Nd0 Si5 3.229749 1_455
Nd0 Si0 3.229749 1_554
Nd0 Si7 3.237686 1_545
Nd0 Si2 3.237686 1_554
Nd0 Si3 3.237686 1_555
Nd0 Si6 3.237686 1_455
Nd1 Si1 3.229749 1_655
Nd1 Si0 3.229749 1_565
Nd1 Si5 3.229749 1_555
Nd1 Si4 3.229749 1_556
Nd1 Si7 3.237686 1_555
Nd1 Si6 3.237686 1_556
Nd1 Si2 3.237686 1_655
Nd1 Si3 3.237686 1_565
Fe0 Si0 2.330970 1_454
Fe0 Si5 2.330970 1_454
Fe0 Si1 2.330970 1_545
Fe0 Si4 2.330970 1_545
Co0 Si0 2.314190 1_555
Co0 Si4 2.315229 1_546
Co0 Si2 2.427347 1_555
Co0 Si3 2.427347 1_555
Co0 Co13 2.503164 1_555
Co0 Co11 2.503164 1_555
Co0 Co16 2.507502 1_555
Co0 Co6 2.563416 1_555
Co0 Co7 2.563416 1_555
Co0 Nd1 3.147686 1_545
Co0 Nd0 3.147686 1_556
Co1 Si1 2.314190 1_555
Co1 Si5 2.315229 1_455
Co1 Si2 2.427347 1_555
Co1 Si3 2.427347 1_555
Co1 Co12 2.503164 1_555
Co1 Co10 2.503164 1_555
Co1 Co16 2.507502 1_555
Co1 Co7 2.563416 1_555
Co1 Co6 2.563416 1_555
Co1 Nd1 3.147686 1_455
Co1 Nd0 3.147686 1_555
Co2 Si2 2.305857 1_654
Co2 Si6 2.324756 1_555
Co2 Si1 2.427505 1_655
Co2 Si0 2.427505 1_564
Co2 Co9 2.493577 1_654
Co2 Fe0 2.502948 1_665
Co2 Co5 2.563416 1_555
Co2 Co4 2.563416 1_555
Co2 Nd0 3.152549 1_655
Co2 Nd1 3.152549 1_554
Co3 Si3 2.305857 1_565
Co3 Si7 2.324756 1_555
Co3 Si1 2.427505 1_655
Co3 Si0 2.427505 1_564
Co3 Co8 2.493577 1_565
Co3 Fe0 2.502948 1_665
Co3 Co4 2.563416 1_555
Co3 Co5 2.563416 1_555
Co3 Nd1 3.152549 1_555
Co3 Nd0 3.152549 1_565
Co4 Si4 2.314190 1_555
Co4 Si0 2.315229 1_564
Co4 Si7 2.427347 1_555
Co4 Si6 2.427347 1_555
Co4 Nd0 3.147686 1_565
Co4 Nd1 3.147686 1_554
Co5 Si5 2.314190 1_555
Co5 Si1 2.315229 1_655
Co5 Si6 2.427347 1_555
Co5 Si7 2.427347 1_555
Co5 Nd0 3.147686 1_655
Co5 Nd1 3.147686 1_555
Co6 Si6 2.305857 1_456
Co6 Si2 2.324756 1_555
Co6 Si4 2.427505 1_546
Co6 Si5 2.427505 1_455
Co6 Co8 2.493577 1_456
Co6 Fe0 2.502948 1_556
Co6 Nd0 3.152549 1_556
Co6 Nd1 3.152549 1_455
Co7 Si7 2.305857 1_545
Co7 Si3 2.324756 1_555
Co7 Si4 2.427505 1_546
Co7 Si5 2.427505 1_455
Co7 Co9 2.493577 1_545
Co7 Fe0 2.502948 1_556
Co7 Nd1 3.152549 1_545
Co7 Nd0 3.152549 1_555
Co8 Fe0 2.374467 1_655
Co8 Si6 2.471326 1_555
Co8 Si3 2.471326 1_555
Co8 Si5 2.528538 1_554
Co8 Si0 2.528538 1_554
Co8 Nd1 3.315429 1_554
Co8 Nd0 3.315429 1_555
Co9 Fe0 2.374467 1_566
Co9 Si7 2.471326 1_555
Co9 Si2 2.471326 1_555
Co9 Si4 2.528538 1_556
Co9 Si1 2.528538 1_556
Co9 Nd1 3.315429 1_555
Co9 Nd0 3.315429 1_556
Co10 Co15 2.326683 1_465
Co10 Co14 2.330215 1_555
Co10 Co16 2.389616 1_555
Co10 Si1 2.472838 1_555
Co10 Si4 2.472838 1_555
Co10 Co4 2.503164 1_555
Co10 Co12 2.522093 1_555
Co10 Si7 2.535741 1_555
Co10 Si2 2.535741 1_555
Co10 Nd0 3.308668 1_565
Co10 Nd1 3.308668 1_455
Co11 Co14 2.326683 1_645
Co11 Co15 2.330215 1_555
Co11 Co16 2.389616 1_555
Co11 Si5 2.472838 1_555
Co11 Si0 2.472838 1_555
Co11 Co5 2.503164 1_555
Co11 Co13 2.522093 1_555
Co11 Si6 2.535741 1_555
Co11 Si3 2.535741 1_555
Co11 Nd1 3.308668 1_545
Co11 Nd0 3.308668 1_655
Co12 Co9 2.326683 1_554
Co12 Co8 2.330215 1_555
Co12 Co16 2.389616 1_555
Co12 Si1 2.472838 1_555
Co12 Si4 2.472838 1_555
Co12 Co4 2.503164 1_555
Co12 Si3 2.535741 1_555
Co12 Si6 2.535741 1_555
Co12 Nd0 3.308668 1_555
Co12 Nd1 3.308668 1_554
Co13 Co8 2.326683 1_556
Co13 Co9 2.330215 1_555
Co13 Co16 2.389616 1_555
Co13 Si5 2.472838 1_555
Co13 Si0 2.472838 1_555
Co13 Co5 2.503164 1_555
Co13 Si2 2.535741 1_555
Co13 Si7 2.535741 1_555
Co13 Nd0 3.308668 1_556
Co13 Nd1 3.308668 1_555
Co14 Fe0 2.374467 1_566
Co14 Si7 2.471326 1_555
Co14 Si2 2.471326 1_555
Co14 Co2 2.493577 1_456
Co14 Co7 2.493577 1_565
Co14 Co9 2.514233 1_555
Co14 Si0 2.528538 1_465
Co14 Si5 2.528538 1_465
Co14 Nd1 3.315429 1_455
Co14 Nd0 3.315429 1_565
Co15 Fe0 2.374467 1_655
Co15 Si6 2.471326 1_555
Co15 Si3 2.471326 1_555
Co15 Co3 2.493577 1_545
Co15 Co6 2.493577 1_654
Co15 Co8 2.514233 1_555
Co15 Si1 2.528538 1_645
Co15 Si4 2.528538 1_645
Co15 Nd1 3.315429 1_545
Co15 Nd0 3.315429 1_655
Co16 Si7 2.323928 1_555
Co16 Si3 2.323928 1_555
Co16 Si2 2.323928 1_555
Co16 Si6 2.323928 1_555
Co16 Co5 2.507502 1_555
Co16 Co4 2.507502 1_555
Si2 Si7 2.797157 1_555
Si3 Si6 2.797157 1_555
