# generated using pymatgen
data_Fe5(OF4)2
_symmetry_space_group_name_H-M   'P 1'
_cell_length_a   4.80157100
_cell_length_b   5.78049420
_cell_length_c   13.55689133
_cell_angle_alpha   78.90188735
_cell_angle_beta   89.36495263
_cell_angle_gamma   89.27075066
_symmetry_Int_Tables_number   1
_chemical_formula_structural   Fe5(OF4)2
_chemical_formula_sum   'Fe10 O4 F16'
_cell_volume   369.19669832
_cell_formula_units_Z   2
loop_
 _symmetry_equiv_pos_site_id
 _symmetry_equiv_pos_as_xyz
  1  'x, y, z'
loop_
 _atom_site_type_symbol
 _atom_site_label
 _atom_site_symmetry_multiplicity
 _atom_site_fract_x
 _atom_site_fract_y
 _atom_site_fract_z
 _atom_site_occupancy
  Fe  Fe0  1  0.50541400  0.49374800  0.99825100  1
  Fe  Fe1  1  0.49707200  0.71563100  0.39416700  1
  Fe  Fe2  1  0.46659400  0.12165300  0.20401700  1
  Fe  Fe3  1  0.51185400  0.31401800  0.60714400  1
  Fe  Fe4  1  0.51212000  0.87878200  0.80253200  1
  Fe  Fe5  1  0.02190900  0.19119400  0.39910000  1
  Fe  Fe6  1  0.95914400  0.41027400  0.79520000  1
  Fe  Fe7  1  0.01758800  0.59142500  0.19384300  1
  Fe  Fe8  1  0.98867900  0.78263600  0.60343600  1
  Fe  Fe9  1  0.00206800  0.00183100  0.99880000  1
  O  O0  1  0.80637200  0.47344300  0.66780800  1
  O  O1  1  0.70108700  0.56412500  0.87363000  1
  O  O2  1  0.29566400  0.03492100  0.33374000  1
  O  O3  1  0.31854800  0.41310700  0.13341600  1
  F  F0  1  0.79735400  0.27486400  0.26567700  1
  F  F1  1  0.80060100  0.08531000  0.85854000  1
  F  F2  1  0.79512000  0.68142200  0.05905500  1
  F  F3  1  0.80784600  0.89695900  0.45330700  1
  F  F4  1  0.70169100  0.17744400  0.06398500  1
  F  F5  1  0.71261600  0.38096500  0.45302500  1
  F  F6  1  0.68729800  0.97614300  0.65736500  1
  F  F7  1  0.70258300  0.80134200  0.24925000  1
  F  F8  1  0.28407400  0.20915500  0.74810700  1
  F  F9  1  0.30467800  0.80599600  0.94827100  1
  F  F10  1  0.30634200  0.62998500  0.53583100  1
  F  F11  1  0.21424700  0.92327600  0.13878800  1
  F  F12  1  0.20391800  0.31996600  0.93649200  1
  F  F13  1  0.19441900  0.13207300  0.53425800  1
  F  F14  1  0.18906500  0.51175900  0.34452200  1
  F  F15  1  0.19403100  0.70655300  0.74844200  1
loop_
_geom_bond_atom_site_label_1
_geom_bond_atom_site_label_2
_geom_bond_distance
_geom_bond_site_symmetry_2
Fe0 O1 1.900657 1_555
Fe0 O3 2.006356 1_556
Fe1 O2 2.098289 1_565
Fe2 O3 1.903574 1_555
Fe2 O2 1.912280 1_555
Fe3 O0 1.968801 1_555
Fe4 O1 2.088792 1_555
Fe5 O2 1.892364 1_555
Fe6 O0 1.852721 1_555
Fe6 O1 1.939988 1_555
Fe7 O3 2.020582 1_555
Fe8 O0 2.035843 1_555
F0 Fe2 2.087013 1_555
F0 Fe5 2.088396 1_655
F0 Fe7 2.180702 1_655
F1 Fe6 2.060675 1_555
F1 Fe4 2.082023 1_545
F1 Fe9 2.111859 1_655
F2 Fe0 2.049266 1_554
F2 Fe7 2.100924 1_655
F2 Fe9 2.128715 1_664
F3 Fe5 2.008948 1_665
F3 Fe1 2.087580 1_555
F3 Fe8 2.199948 1_555
F4 Fe9 2.042409 1_654
F4 Fe0 2.091133 1_554
F4 Fe2 2.169852 1_555
F5 Fe5 2.046090 1_655
F5 Fe1 2.196205 1_555
F5 Fe3 2.257888 1_555
F6 Fe8 2.032239 1_555
F6 Fe4 2.108618 1_555
F6 Fe3 2.108706 1_565
F7 Fe7 2.145536 1_655
F7 Fe2 2.147822 1_565
F7 Fe1 2.161871 1_555
F8 Fe6 2.100190 1_455
F8 Fe3 2.177201 1_555
F8 Fe4 2.193770 1_545
F9 Fe9 2.023992 1_565
F9 Fe0 2.036005 1_555
F9 Fe4 2.172512 1_555
F10 Fe8 2.047243 1_455
F10 Fe1 2.092539 1_555
F10 Fe3 2.130678 1_555
F11 Fe2 2.003642 1_565
F11 Fe9 2.131926 1_564
F11 Fe7 2.146567 1_555
F12 Fe0 2.047803 1_555
F12 Fe9 2.112795 1_555
F12 Fe6 2.229852 1_455
F13 Fe5 1.986373 1_555
F13 Fe3 2.209052 1_555
F13 Fe8 2.288335 1_445
F14 Fe5 2.030322 1_555
F14 Fe1 2.097800 1_555
F14 Fe7 2.174454 1_555
F15 Fe4 2.050899 1_555
F15 Fe6 2.054829 1_455
F15 Fe8 2.174677 1_455
