# generated using pymatgen
data_YBe2B5O11
_symmetry_space_group_name_H-M   'P 1'
_cell_length_a   4.36660200
_cell_length_b   6.72502900
_cell_length_c   25.83481100
_cell_angle_alpha   90.00000000
_cell_angle_beta   90.00000000
_cell_angle_gamma   90.00000000
_symmetry_Int_Tables_number   1
_chemical_formula_structural   YBe2B5O11
_chemical_formula_sum   'Y4 Be8 B20 O44'
_cell_volume   758.65279040
_cell_formula_units_Z   4
loop_
 _symmetry_equiv_pos_site_id
 _symmetry_equiv_pos_as_xyz
  1  'x, y, z'
loop_
 _atom_site_type_symbol
 _atom_site_label
 _atom_site_symmetry_multiplicity
 _atom_site_fract_x
 _atom_site_fract_y
 _atom_site_fract_z
 _atom_site_occupancy
  Y  Y0  1  0.86468400  0.36823700  0.91957000  1
  Y  Y1  1  0.13531600  0.86823700  0.08043000  1
  Y  Y2  1  0.36468400  0.86823700  0.58043000  1
  Y  Y3  1  0.63531600  0.36823700  0.41957000  1
  Be  Be0  1  0.16967000  0.45145600  0.79088500  1
  Be  Be1  1  0.83033000  0.95145600  0.20911500  1
  Be  Be2  1  0.66967000  0.95145600  0.70911500  1
  Be  Be3  1  0.33033000  0.45145600  0.29088500  1
  Be  Be4  1  0.66708400  0.22725800  0.79326800  1
  Be  Be5  1  0.33291600  0.72725800  0.20673200  1
  Be  Be6  1  0.16708400  0.72725800  0.70673200  1
  Be  Be7  1  0.83291600  0.22725800  0.29326800  1
  B  B0  1  0.37431000  0.03989800  0.86987500  1
  B  B1  1  0.62569000  0.53989800  0.13012500  1
  B  B2  1  0.87431000  0.53989800  0.63012500  1
  B  B3  1  0.12569000  0.03989800  0.36987500  1
  B  B4  1  0.14604200  0.70974100  0.87077900  1
  B  B5  1  0.85395800  0.20974100  0.12922100  1
  B  B6  1  0.64604200  0.20974100  0.62922100  1
  B  B7  1  0.35395800  0.70974100  0.37077900  1
  B  B8  1  0.02589600  0.93893900  0.94341000  1
  B  B9  1  0.97410400  0.43893900  0.05659000  1
  B  B10  1  0.52589600  0.43893900  0.55659000  1
  B  B11  1  0.47410400  0.93893900  0.44341000  1
  B  B12  1  0.53753900  0.95963300  0.99797300  1
  B  B13  1  0.46246100  0.45963300  0.00202700  1
  B  B14  1  0.03753900  0.45963300  0.50202700  1
  B  B15  1  0.96246100  0.95963300  0.49797300  1
  B  B16  1  0.18157300  0.08653000  0.75170600  1
  B  B17  1  0.81842700  0.58653000  0.24829400  1
  B  B18  1  0.68157300  0.58653000  0.74829400  1
  B  B19  1  0.31842700  0.08653000  0.25170600  1
  O  O0  1  0.35157100  0.84652500  0.85003600  1
  O  O1  1  0.64842900  0.34652500  0.14996400  1
  O  O2  1  0.85157100  0.34652500  0.64996400  1
  O  O3  1  0.14842900  0.84652500  0.35003600  1
  O  O4  1  0.62850000  0.92815400  0.04740000  1
  O  O5  1  0.37150000  0.42815400  0.95260000  1
  O  O6  1  0.12850000  0.42815400  0.45260000  1
  O  O7  1  0.87150000  0.92815400  0.54740000  1
  O  O8  1  0.99286600  0.74582700  0.91720100  1
  O  O9  1  0.00713400  0.24582700  0.08279900  1
  O  O10  1  0.49286600  0.24582700  0.58279900  1
  O  O11  1  0.50713400  0.74582700  0.41720100  1
  O  O12  1  0.22157900  0.92728400  0.99052200  1
  O  O13  1  0.77842100  0.42728400  0.00947800  1
  O  O14  1  0.72157900  0.42728400  0.50947800  1
  O  O15  1  0.27842100  0.92728400  0.49052200  1
  O  O16  1  0.15707900  0.08774100  0.90772400  1
  O  O17  1  0.84292100  0.58774100  0.09227600  1
  O  O18  1  0.65707900  0.58774100  0.59227600  1
  O  O19  1  0.34292100  0.08774100  0.40772400  1
  O  O20  1  0.08619200  0.52807100  0.84950300  1
  O  O21  1  0.91380800  0.02807100  0.15049700  1
  O  O22  1  0.58619200  0.02807100  0.65049700  1
  O  O23  1  0.41380800  0.52807100  0.34950300  1
  O  O24  1  0.58000700  0.17843100  0.85395800  1
  O  O25  1  0.41999300  0.67843100  0.14604200  1
  O  O26  1  0.08000700  0.67843100  0.64604200  1
  O  O27  1  0.91999300  0.17843100  0.35395800  1
  O  O28  1  0.72347300  0.01936100  0.95727800  1
  O  O29  1  0.27652700  0.51936100  0.04272200  1
  O  O30  1  0.22347300  0.51936100  0.54272200  1
  O  O31  1  0.77652700  0.01936100  0.45727800  1
  O  O32  1  0.03219600  0.22193400  0.78337100  1
  O  O33  1  0.96780400  0.72193400  0.21662900  1
  O  O34  1  0.53219600  0.72193400  0.71662900  1
  O  O35  1  0.46780400  0.22193400  0.28337100  1
  O  O36  1  0.49635300  0.08540800  0.75206100  1
  O  O37  1  0.50364700  0.58540800  0.24793900  1
  O  O38  1  0.99635300  0.58540800  0.74793900  1
  O  O39  1  0.00364700  0.08540800  0.25206100  1
  O  O40  1  0.03128800  0.95318100  0.72042700  1
  O  O41  1  0.96871200  0.45318100  0.27957300  1
  O  O42  1  0.53128800  0.45318100  0.77957300  1
  O  O43  1  0.46871200  0.95318100  0.22042700  1
loop_
_geom_bond_atom_site_label_1
_geom_bond_atom_site_label_2
_geom_bond_distance
_geom_bond_site_symmetry_2
Be0 O42 1.605900 1_555
Be0 O38 1.617172 1_455
Be0 O20 1.640641 1_555
Be0 O32 1.667501 1_555
Be1 O43 1.605900 1_555
Be1 O39 1.617172 1_665
Be1 O21 1.640641 1_565
Be1 O33 1.667501 1_555
Be2 O40 1.605900 1_655
Be2 O36 1.617172 1_565
Be2 O22 1.640641 1_565
Be2 O34 1.667501 1_555
Be3 O41 1.605900 1_455
Be3 O37 1.617172 1_555
Be3 O23 1.640641 1_555
Be3 O35 1.667501 1_555
Be4 O36 1.612180 1_555
Be4 O32 1.615069 1_655
Be4 O24 1.646437 1_555
Be4 O42 1.668886 1_555
Be5 O37 1.612180 1_555
Be5 O33 1.615069 1_455
Be5 O25 1.646437 1_555
Be5 O43 1.668886 1_555
Be6 O38 1.612180 1_455
Be6 O34 1.615069 1_555
Be6 O26 1.646437 1_555
Be6 O40 1.668886 1_555
Be7 O39 1.612180 1_655
Be7 O35 1.615069 1_555
Be7 O27 1.646437 1_555
Be7 O41 1.668886 1_555
B0 O24 1.357867 1_555
B0 O16 1.399794 1_555
B0 O0 1.401319 1_545
B1 O25 1.357867 1_555
B1 O17 1.399794 1_555
B1 O1 1.401319 1_555
B2 O26 1.357867 1_655
B2 O18 1.399794 1_555
B2 O2 1.401319 1_555
B3 O27 1.357867 1_455
B3 O19 1.399794 1_555
B3 O3 1.401319 1_545
B4 O20 1.364942 1_555
B4 O0 1.392405 1_555
B4 O8 1.394487 1_455
B5 O21 1.364942 1_555
B5 O1 1.392405 1_555
B5 O9 1.394487 1_655
B6 O22 1.364942 1_555
B6 O2 1.392405 1_555
B6 O10 1.394487 1_555
B7 O23 1.364942 1_555
B7 O3 1.392405 1_555
B7 O11 1.394487 1_555
B8 O28 1.471310 1_465
B8 O8 1.471683 1_455
B8 O16 1.476313 1_565
B8 O12 1.489183 1_555
B9 O29 1.471310 1_655
B9 O9 1.471683 1_655
B9 O17 1.476313 1_555
B9 O13 1.489183 1_555
B10 O30 1.471310 1_555
B10 O10 1.471683 1_555
B10 O18 1.476313 1_555
B10 O14 1.489183 1_555
B11 O31 1.471310 1_565
B11 O11 1.471683 1_555
B11 O19 1.476313 1_565
B11 O15 1.489183 1_555
B12 O4 1.353937 1_556
B12 O28 1.387751 1_565
B12 O12 1.409920 1_555
B13 O5 1.353937 1_554
B13 O29 1.387751 1_555
B13 O13 1.409920 1_555
B14 O6 1.353937 1_555
B14 O30 1.387751 1_555
B14 O14 1.409920 1_455
B15 O7 1.353937 1_555
B15 O31 1.387751 1_565
B15 O15 1.409920 1_655
B16 O40 1.373993 1_545
B16 O36 1.374570 1_555
B16 O32 1.387033 1_555
B17 O41 1.373993 1_555
B17 O37 1.374570 1_555
B17 O33 1.387033 1_555
B18 O42 1.373993 1_555
B18 O38 1.374570 1_555
B18 O34 1.387033 1_555
B19 O43 1.373993 1_545
B19 O39 1.374570 1_555
B19 O35 1.387033 1_555
O4 Y1 2.351224 1_555
O4 Y1 2.405863 1_655
O5 Y0 2.351224 1_555
O5 Y0 2.405863 1_455
O6 Y3 2.351224 1_455
O6 Y3 2.405863 1_555
O7 Y2 2.351224 1_655
O7 Y2 2.405863 1_555
O8 Y0 2.600980 1_555
O9 Y1 2.600980 1_545
O10 Y2 2.600980 1_545
O11 Y3 2.600980 1_555
O12 Y1 2.386370 1_556
O13 Y0 2.386370 1_554
O14 Y3 2.386370 1_555
O15 Y2 2.386370 1_555
O16 Y0 2.298282 1_455
O17 Y1 2.298282 1_655
O18 Y2 2.298282 1_555
O19 Y3 2.298282 1_555
O20 Y0 2.316817 1_455
O21 Y1 2.316817 1_645
O22 Y2 2.316817 1_545
O23 Y3 2.316817 1_555
O24 Y0 2.459233 1_555
O25 Y1 2.459233 1_555
O26 Y2 2.459233 1_555
O27 Y3 2.459233 1_555
O28 Y0 2.614172 1_555
O29 Y1 2.614172 1_555
O30 Y2 2.614172 1_555
O31 Y3 2.614172 1_555
