# generated using pymatgen
data_Eu2(AlAg)5
_symmetry_space_group_name_H-M   'P 1'
_cell_length_a   4.43570576
_cell_length_b   5.49474067
_cell_length_c   9.75634944
_cell_angle_alpha   90.00000000
_cell_angle_beta   90.00000000
_cell_angle_gamma   90.00000000
_symmetry_Int_Tables_number   1
_chemical_formula_structural   Eu2(AlAg)5
_chemical_formula_sum   'Eu2 Al5 Ag5'
_cell_volume   237.79202042
_cell_formula_units_Z   1
loop_
 _symmetry_equiv_pos_site_id
 _symmetry_equiv_pos_as_xyz
  1  'x, y, z'
loop_
 _atom_site_type_symbol
 _atom_site_label
 _atom_site_symmetry_multiplicity
 _atom_site_fract_x
 _atom_site_fract_y
 _atom_site_fract_z
 _atom_site_occupancy
  Eu  Eu0  1  -0.00000000  0.50000000  -0.00000000  1
  Eu  Eu1  1  -0.00000000  0.00000000  0.50000000  1
  Al  Al0  1  0.50000000  0.00000000  -0.00000000  1
  Al  Al1  1  0.50000000  0.75323008  0.25363573  1
  Al  Al2  1  0.50000000  0.24676992  0.74636427  1
  Al  Al3  1  0.50000000  0.24676992  0.25363573  1
  Al  Al4  1  0.50000000  0.75323008  0.74636427  1
  Ag  Ag0  1  -0.00000000  0.50000000  0.32149424  1
  Ag  Ag1  1  -0.00000000  0.00000000  0.83250591  1
  Ag  Ag2  1  0.00000000  0.00000000  0.16749409  1
  Ag  Ag3  1  0.00000000  0.50000000  0.67850576  1
  Ag  Ag4  1  0.50000000  0.50000000  0.50000000  1
loop_
_geom_bond_atom_site_label_1
_geom_bond_atom_site_label_2
_geom_bond_distance
_geom_bond_site_symmetry_2
Al0 Al2 2.821703 1_554
Al0 Al4 2.821703 1_544
Al0 Al3 2.821703 1_555
Al0 Al1 2.821703 1_545
Al1 Al3 2.711873 1_565
Al1 Al3 2.782867 1_555
Al1 Eu1 3.540453 1_665
Al1 Eu1 3.540453 1_565
Al2 Al4 2.711873 1_545
Al2 Al4 2.782867 1_555
Al2 Eu1 3.540453 1_655
Al2 Eu1 3.540453 1_555
Al3 Eu1 3.540453 1_555
Al3 Eu1 3.540453 1_655
Al4 Eu1 3.540453 1_665
Al4 Eu1 3.540453 1_565
Ag0 Al1 2.700606 1_555
Ag0 Al1 2.700606 1_455
Ag0 Al3 2.700606 1_455
Ag0 Al3 2.700606 1_555
Ag0 Ag4 2.819915 1_555
Ag0 Ag4 2.819915 1_455
Ag0 Ag2 3.131372 1_555
Ag0 Ag2 3.131372 1_565
Ag0 Eu0 3.136610 1_555
Ag0 Eu1 3.252859 1_565
Ag0 Eu1 3.252859 1_555
Ag1 Al4 2.731987 1_445
Ag1 Al4 2.731987 1_545
Ag1 Al2 2.731987 1_555
Ag1 Al2 2.731987 1_455
Ag1 Al0 2.754860 1_556
Ag1 Al0 2.754860 1_456
Ag1 Ag3 3.131372 1_545
Ag1 Ag3 3.131372 1_555
Ag1 Eu0 3.196628 1_556
Ag1 Eu0 3.196628 1_546
Ag1 Eu1 3.244044 1_555
Ag1 Ag2 3.268262 1_556
Ag2 Al3 2.731987 1_555
Ag2 Al1 2.731987 1_445
Ag2 Al1 2.731987 1_545
Ag2 Al3 2.731987 1_455
Ag2 Al0 2.754860 1_455
Ag2 Al0 2.754860 1_555
Ag2 Eu0 3.196628 1_555
Ag2 Eu0 3.196628 1_545
Ag2 Eu1 3.244044 1_555
Ag3 Al4 2.700606 1_555
Ag3 Al2 2.700606 1_455
Ag3 Al2 2.700606 1_555
Ag3 Al4 2.700606 1_455
Ag3 Ag4 2.819915 1_555
Ag3 Ag4 2.819915 1_455
Ag3 Eu0 3.136610 1_556
Ag3 Eu1 3.252859 1_565
Ag3 Eu1 3.252859 1_555
Ag4 Al3 2.777311 1_555
Ag4 Al1 2.777311 1_555
Ag4 Al4 2.777311 1_555
Ag4 Al2 2.777311 1_555
Ag4 Eu1 3.530852 1_565
Ag4 Eu1 3.530852 1_555
Ag4 Eu1 3.530852 1_655
Ag4 Eu1 3.530852 1_665
