# generated using pymatgen
data_Gd2Al4CoGe2
_symmetry_space_group_name_H-M   'P 1'
_cell_length_a   10.24272213
_cell_length_b   10.24272213
_cell_length_c   10.24272213
_cell_angle_alpha   156.63814577
_cell_angle_beta   156.63814577
_cell_angle_gamma   33.27595822
_symmetry_Int_Tables_number   1
_chemical_formula_structural   Gd2Al4CoGe2
_chemical_formula_sum   'Gd2 Al4 Co1 Ge2'
_cell_volume   168.81695771
_cell_formula_units_Z   1
loop_
 _symmetry_equiv_pos_site_id
 _symmetry_equiv_pos_as_xyz
  1  'x, y, z'
loop_
 _atom_site_type_symbol
 _atom_site_label
 _atom_site_symmetry_multiplicity
 _atom_site_fract_x
 _atom_site_fract_y
 _atom_site_fract_z
 _atom_site_occupancy
  Gd  Gd0  1  0.81625300  0.81625300  0.00000000  1
  Gd  Gd1  1  0.18374700  0.18374700  0.00000000  1
  Al  Al0  1  0.43458500  0.93458500  0.50000000  1
  Al  Al1  1  0.93458500  0.43458500  0.50000000  1
  Al  Al2  1  0.56541500  0.06541500  0.50000000  1
  Al  Al3  1  0.06541500  0.56541500  0.50000000  1
  Co  Co0  1  0.00000000  0.00000000  0.00000000  1
  Ge  Ge0  1  0.66150100  0.66150100  0.00000000  1
  Ge  Ge1  1  0.33849900  0.33849900  0.00000000  1
loop_
_geom_bond_atom_site_label_1
_geom_bond_atom_site_label_2
_geom_bond_distance
_geom_bond_site_symmetry_2
Gd0 Ge1 2.965059 1_554
Gd0 Ge1 2.965059 1_666
Gd0 Ge1 2.965059 1_565
Gd0 Ge1 2.965059 1_655
Gd0 Ge0 3.037438 1_555
Gd1 Ge0 2.965059 1_455
Gd1 Ge0 2.965059 1_556
Gd1 Ge0 2.965059 1_444
Gd1 Ge0 2.965059 1_545
Gd1 Ge1 3.037438 1_555
Al0 Co0 2.439055 1_666
Al0 Co0 2.439055 1_565
Al0 Al2 2.567902 1_565
Al0 Ge1 2.803085 1_566
Al0 Ge1 2.803085 1_555
Al0 Al1 2.932732 1_465
Al0 Al1 2.932732 1_566
Al0 Al1 2.932732 1_555
Al0 Al1 2.932732 1_454
Al0 Gd0 3.113664 1_455
Al0 Gd0 3.113664 1_556
Al1 Co0 2.439055 1_666
Al1 Co0 2.439055 1_655
Al1 Al3 2.567902 1_655
Al1 Ge1 2.803085 1_656
Al1 Ge1 2.803085 1_555
Al1 Gd0 3.113664 1_556
Al1 Gd0 3.113664 1_545
Al2 Co0 2.439055 1_555
Al2 Co0 2.439055 1_656
Al2 Ge0 2.803085 1_556
Al2 Ge0 2.803085 1_545
Al2 Al3 2.932732 1_656
Al2 Al3 2.932732 1_544
Al2 Al3 2.932732 1_555
Al2 Al3 2.932732 1_645
Al2 Gd1 3.113664 1_656
Al2 Gd1 3.113664 1_555
Al3 Co0 2.439055 1_555
Al3 Co0 2.439055 1_566
Al3 Ge0 2.803085 1_455
Al3 Ge0 2.803085 1_556
Al3 Gd1 3.113664 1_566
Al3 Gd1 3.113664 1_555
