# generated using pymatgen
data_Mo
_symmetry_space_group_name_H-M   'P 1'
_cell_length_a   5.26126200
_cell_length_b   15.76899160
_cell_length_c   27.31557407
_cell_angle_alpha   101.21274519
_cell_angle_beta   90.00000000
_cell_angle_gamma   90.00000000
_symmetry_Int_Tables_number   1
_chemical_formula_structural   Mo
_chemical_formula_sum   Mo128
_cell_volume   2222.97304900
_cell_formula_units_Z   128
loop_
 _symmetry_equiv_pos_site_id
 _symmetry_equiv_pos_as_xyz
  1  'x, y, z'
loop_
 _atom_site_type_symbol
 _atom_site_label
 _atom_site_symmetry_multiplicity
 _atom_site_fract_x
 _atom_site_fract_y
 _atom_site_fract_z
 _atom_site_occupancy
  Mo  Mo0_0  1  0.34011100  0.47157600  0.29080450  1
  Mo  Mo0_1  1  0.34011100  0.47157600  0.79080450  1
  Mo  Mo0_2  1  0.34011100  0.97157600  0.29080450  1
  Mo  Mo0_3  1  0.34011100  0.97157600  0.79080450  1
  Mo  Mo0_4  1  0.84011100  0.47157600  0.29080450  1
  Mo  Mo0_5  1  0.84011100  0.47157600  0.79080450  1
  Mo  Mo0_6  1  0.84011100  0.97157600  0.29080450  1
  Mo  Mo0_7  1  0.84011100  0.97157600  0.79080450  1
  Mo  Mo1_0  1  0.34011100  0.02842400  0.45919550  1
  Mo  Mo1_1  1  0.34011100  0.02842400  0.95919550  1
  Mo  Mo1_2  1  0.34011100  0.52842400  0.45919550  1
  Mo  Mo1_3  1  0.34011100  0.52842400  0.95919550  1
  Mo  Mo1_4  1  0.84011100  0.02842400  0.45919550  1
  Mo  Mo1_5  1  0.84011100  0.02842400  0.95919550  1
  Mo  Mo1_6  1  0.84011100  0.52842400  0.45919550  1
  Mo  Mo1_7  1  0.84011100  0.52842400  0.95919550  1
  Mo  Mo2_0  1  0.15988900  0.02842400  0.20919550  1
  Mo  Mo2_1  1  0.15988900  0.02842400  0.70919550  1
  Mo  Mo2_2  1  0.15988900  0.52842400  0.20919550  1
  Mo  Mo2_3  1  0.15988900  0.52842400  0.70919550  1
  Mo  Mo2_4  1  0.65988900  0.02842400  0.20919550  1
  Mo  Mo2_5  1  0.65988900  0.02842400  0.70919550  1
  Mo  Mo2_6  1  0.65988900  0.52842400  0.20919550  1
  Mo  Mo2_7  1  0.65988900  0.52842400  0.70919550  1
  Mo  Mo3_0  1  0.15988900  0.47157600  0.04080450  1
  Mo  Mo3_1  1  0.15988900  0.47157600  0.54080450  1
  Mo  Mo3_2  1  0.15988900  0.97157600  0.04080450  1
  Mo  Mo3_3  1  0.15988900  0.97157600  0.54080450  1
  Mo  Mo3_4  1  0.65988900  0.47157600  0.04080450  1
  Mo  Mo3_5  1  0.65988900  0.47157600  0.54080450  1
  Mo  Mo3_6  1  0.65988900  0.97157600  0.04080450  1
  Mo  Mo3_7  1  0.65988900  0.97157600  0.54080450  1
  Mo  Mo4_0  1  0.08324900  0.41252550  0.37421550  1
  Mo  Mo4_1  1  0.08324900  0.41252550  0.87421550  1
  Mo  Mo4_2  1  0.08324900  0.91252550  0.37421550  1
  Mo  Mo4_3  1  0.08324900  0.91252550  0.87421550  1
  Mo  Mo4_4  1  0.58324900  0.41252550  0.37421550  1
  Mo  Mo4_5  1  0.58324900  0.41252550  0.87421550  1
  Mo  Mo4_6  1  0.58324900  0.91252550  0.37421550  1
  Mo  Mo4_7  1  0.58324900  0.91252550  0.87421550  1
  Mo  Mo5_0  1  0.08324900  0.08747450  0.37578450  1
  Mo  Mo5_1  1  0.08324900  0.08747450  0.87578450  1
  Mo  Mo5_2  1  0.08324900  0.58747450  0.37578450  1
  Mo  Mo5_3  1  0.08324900  0.58747450  0.87578450  1
  Mo  Mo5_4  1  0.58324900  0.08747450  0.37578450  1
  Mo  Mo5_5  1  0.58324900  0.08747450  0.87578450  1
  Mo  Mo5_6  1  0.58324900  0.58747450  0.37578450  1
  Mo  Mo5_7  1  0.58324900  0.58747450  0.87578450  1
  Mo  Mo6_0  1  0.41675100  0.08747450  0.12578450  1
  Mo  Mo6_1  1  0.41675100  0.08747450  0.62578450  1
  Mo  Mo6_2  1  0.41675100  0.58747450  0.12578450  1
  Mo  Mo6_3  1  0.41675100  0.58747450  0.62578450  1
  Mo  Mo6_4  1  0.91675100  0.08747450  0.12578450  1
  Mo  Mo6_5  1  0.91675100  0.08747450  0.62578450  1
  Mo  Mo6_6  1  0.91675100  0.58747450  0.12578450  1
  Mo  Mo6_7  1  0.91675100  0.58747450  0.62578450  1
  Mo  Mo7_0  1  0.41675100  0.41252550  0.12421550  1
  Mo  Mo7_1  1  0.41675100  0.41252550  0.62421550  1
  Mo  Mo7_2  1  0.41675100  0.91252550  0.12421550  1
  Mo  Mo7_3  1  0.41675100  0.91252550  0.62421550  1
  Mo  Mo7_4  1  0.91675100  0.41252550  0.12421550  1
  Mo  Mo7_5  1  0.91675100  0.41252550  0.62421550  1
  Mo  Mo7_6  1  0.91675100  0.91252550  0.12421550  1
  Mo  Mo7_7  1  0.91675100  0.91252550  0.62421550  1
  Mo  Mo8_0  1  0.46930700  0.35877700  0.45624400  1
  Mo  Mo8_1  1  0.46930700  0.35877700  0.95624400  1
  Mo  Mo8_2  1  0.46930700  0.85877700  0.45624400  1
  Mo  Mo8_3  1  0.46930700  0.85877700  0.95624400  1
  Mo  Mo8_4  1  0.96930700  0.35877700  0.45624400  1
  Mo  Mo8_5  1  0.96930700  0.35877700  0.95624400  1
  Mo  Mo8_6  1  0.96930700  0.85877700  0.45624400  1
  Mo  Mo8_7  1  0.96930700  0.85877700  0.95624400  1
  Mo  Mo9_0  1  0.46930700  0.14122300  0.29375600  1
  Mo  Mo9_1  1  0.46930700  0.14122300  0.79375600  1
  Mo  Mo9_2  1  0.46930700  0.64122300  0.29375600  1
  Mo  Mo9_3  1  0.46930700  0.64122300  0.79375600  1
  Mo  Mo9_4  1  0.96930700  0.14122300  0.29375600  1
  Mo  Mo9_5  1  0.96930700  0.14122300  0.79375600  1
  Mo  Mo9_6  1  0.96930700  0.64122300  0.29375600  1
  Mo  Mo9_7  1  0.96930700  0.64122300  0.79375600  1
  Mo  Mo10_0  1  0.03069300  0.14122300  0.04375600  1
  Mo  Mo10_1  1  0.03069300  0.14122300  0.54375600  1
  Mo  Mo10_2  1  0.03069300  0.64122300  0.04375600  1
  Mo  Mo10_3  1  0.03069300  0.64122300  0.54375600  1
  Mo  Mo10_4  1  0.53069300  0.14122300  0.04375600  1
  Mo  Mo10_5  1  0.53069300  0.14122300  0.54375600  1
  Mo  Mo10_6  1  0.53069300  0.64122300  0.04375600  1
  Mo  Mo10_7  1  0.53069300  0.64122300  0.54375600  1
  Mo  Mo11_0  1  0.03069300  0.35877700  0.20624400  1
  Mo  Mo11_1  1  0.03069300  0.35877700  0.70624400  1
  Mo  Mo11_2  1  0.03069300  0.85877700  0.20624400  1
  Mo  Mo11_3  1  0.03069300  0.85877700  0.70624400  1
  Mo  Mo11_4  1  0.53069300  0.35877700  0.20624400  1
  Mo  Mo11_5  1  0.53069300  0.35877700  0.70624400  1
  Mo  Mo11_6  1  0.53069300  0.85877700  0.20624400  1
  Mo  Mo11_7  1  0.53069300  0.85877700  0.70624400  1
  Mo  Mo12_0  1  0.30621800  0.30339000  0.04204200  1
  Mo  Mo12_1  1  0.30621800  0.30339000  0.54204200  1
  Mo  Mo12_2  1  0.30621800  0.80339000  0.04204200  1
  Mo  Mo12_3  1  0.30621800  0.80339000  0.54204200  1
  Mo  Mo12_4  1  0.80621800  0.30339000  0.04204200  1
  Mo  Mo12_5  1  0.80621800  0.30339000  0.54204200  1
  Mo  Mo12_6  1  0.80621800  0.80339000  0.04204200  1
  Mo  Mo12_7  1  0.80621800  0.80339000  0.54204200  1
  Mo  Mo13_0  1  0.30621800  0.19661000  0.20795800  1
  Mo  Mo13_1  1  0.30621800  0.19661000  0.70795800  1
  Mo  Mo13_2  1  0.30621800  0.69661000  0.20795800  1
  Mo  Mo13_3  1  0.30621800  0.69661000  0.70795800  1
  Mo  Mo13_4  1  0.80621800  0.19661000  0.20795800  1
  Mo  Mo13_5  1  0.80621800  0.19661000  0.70795800  1
  Mo  Mo13_6  1  0.80621800  0.69661000  0.20795800  1
  Mo  Mo13_7  1  0.80621800  0.69661000  0.70795800  1
  Mo  Mo14_0  1  0.19378200  0.19661000  0.45795800  1
  Mo  Mo14_1  1  0.19378200  0.19661000  0.95795800  1
  Mo  Mo14_2  1  0.19378200  0.69661000  0.45795800  1
  Mo  Mo14_3  1  0.19378200  0.69661000  0.95795800  1
  Mo  Mo14_4  1  0.69378200  0.19661000  0.45795800  1
  Mo  Mo14_5  1  0.69378200  0.19661000  0.95795800  1
  Mo  Mo14_6  1  0.69378200  0.69661000  0.45795800  1
  Mo  Mo14_7  1  0.69378200  0.69661000  0.95795800  1
  Mo  Mo15_0  1  0.19378200  0.30339000  0.29204200  1
  Mo  Mo15_1  1  0.19378200  0.30339000  0.79204200  1
  Mo  Mo15_2  1  0.19378200  0.80339000  0.29204200  1
  Mo  Mo15_3  1  0.19378200  0.80339000  0.79204200  1
  Mo  Mo15_4  1  0.69378200  0.30339000  0.29204200  1
  Mo  Mo15_5  1  0.69378200  0.30339000  0.79204200  1
  Mo  Mo15_6  1  0.69378200  0.80339000  0.29204200  1
  Mo  Mo15_7  1  0.69378200  0.80339000  0.79204200  1
loop_
_geom_bond_atom_site_label_1
_geom_bond_atom_site_label_2
_geom_bond_distance
_geom_bond_site_symmetry_2
Mo0_0 Mo0_4 2.630631 1_555
Mo0_0 Mo0_4 2.630631 1_455
Mo0_0 Mo2_2 2.729313 1_555
Mo0_0 Mo9_2 2.746116 1_555
Mo0_0 Mo15_0 2.768118 1_555
Mo0_0 Mo11_4 2.811887 1_555
Mo0_0 Mo4_4 2.918861 1_555
Mo0_0 Mo4_0 2.951219 1_555
Mo0_0 Mo5_6 2.952112 1_555
Mo0_0 Mo5_2 2.984110 1_555
Mo0_0 Mo2_6 3.062787 1_555
Mo0_0 Mo11_0 3.090542 1_555
Mo0_0 Mo15_4 3.245332 1_555
Mo0_0 Mo9_6 3.299260 1_455
Mo0_1 Mo0_5 2.630631 1_555
Mo0_1 Mo0_5 2.630631 1_455
Mo0_1 Mo2_3 2.729313 1_555
Mo0_1 Mo9_3 2.746116 1_555
Mo0_1 Mo15_1 2.768118 1_555
Mo0_1 Mo11_5 2.811887 1_555
Mo0_1 Mo4_5 2.918861 1_555
Mo0_1 Mo4_1 2.951219 1_555
Mo0_1 Mo5_7 2.952112 1_555
Mo0_1 Mo5_3 2.984110 1_555
Mo0_1 Mo2_7 3.062787 1_555
Mo0_1 Mo11_1 3.090542 1_555
Mo0_1 Mo15_5 3.245332 1_555
Mo0_1 Mo9_7 3.299260 1_455
Mo0_2 Mo0_6 2.630631 1_555
Mo0_2 Mo0_6 2.630631 1_455
Mo0_2 Mo2_0 2.729313 1_565
Mo0_2 Mo9_0 2.746116 1_565
Mo0_2 Mo15_2 2.768118 1_555
Mo0_2 Mo11_6 2.811887 1_555
Mo0_2 Mo4_6 2.918861 1_555
Mo0_2 Mo4_2 2.951219 1_555
Mo0_2 Mo5_4 2.952112 1_565
Mo0_2 Mo5_0 2.984110 1_565
Mo0_2 Mo2_4 3.062787 1_565
Mo0_2 Mo11_2 3.090542 1_555
Mo0_2 Mo15_6 3.245332 1_555
Mo0_2 Mo9_4 3.299260 1_465
Mo0_3 Mo0_7 2.630631 1_555
Mo0_3 Mo0_7 2.630631 1_455
Mo0_3 Mo2_1 2.729313 1_565
Mo0_3 Mo9_1 2.746116 1_565
Mo0_3 Mo15_3 2.768118 1_555
Mo0_3 Mo11_7 2.811887 1_555
Mo0_3 Mo4_7 2.918861 1_555
Mo0_3 Mo4_3 2.951219 1_555
Mo0_3 Mo5_5 2.952112 1_565
Mo0_3 Mo5_1 2.984110 1_565
Mo0_3 Mo2_5 3.062787 1_565
Mo0_3 Mo11_3 3.090542 1_555
Mo0_3 Mo15_7 3.245332 1_555
Mo0_3 Mo9_5 3.299260 1_465
Mo0_4 Mo2_6 2.729313 1_555
Mo0_4 Mo9_6 2.746116 1_555
Mo0_4 Mo15_4 2.768118 1_555
Mo0_4 Mo11_0 2.811887 1_655
Mo0_4 Mo4_0 2.918861 1_655
Mo0_4 Mo4_4 2.951219 1_555
Mo0_4 Mo5_2 2.952112 1_655
Mo0_4 Mo5_6 2.984110 1_555
Mo0_4 Mo2_2 3.062787 1_655
Mo0_4 Mo11_4 3.090542 1_555
Mo0_4 Mo15_0 3.245332 1_655
Mo0_4 Mo9_2 3.299260 1_555
Mo0_5 Mo2_7 2.729313 1_555
Mo0_5 Mo9_7 2.746116 1_555
Mo0_5 Mo15_5 2.768118 1_555
Mo0_5 Mo11_1 2.811887 1_655
Mo0_5 Mo4_1 2.918861 1_655
Mo0_5 Mo4_5 2.951219 1_555
Mo0_5 Mo5_3 2.952112 1_655
Mo0_5 Mo5_7 2.984110 1_555
Mo0_5 Mo2_3 3.062787 1_655
Mo0_5 Mo11_5 3.090542 1_555
Mo0_5 Mo15_1 3.245332 1_655
Mo0_5 Mo9_3 3.299260 1_555
Mo0_6 Mo2_4 2.729313 1_565
Mo0_6 Mo9_4 2.746116 1_565
Mo0_6 Mo15_6 2.768118 1_555
Mo0_6 Mo11_2 2.811887 1_655
Mo0_6 Mo4_2 2.918861 1_655
Mo0_6 Mo4_6 2.951219 1_555
Mo0_6 Mo5_0 2.952112 1_665
Mo0_6 Mo5_4 2.984110 1_565
Mo0_6 Mo2_0 3.062787 1_665
Mo0_6 Mo11_6 3.090542 1_555
Mo0_6 Mo15_2 3.245332 1_655
Mo0_6 Mo9_0 3.299260 1_565
Mo0_7 Mo2_5 2.729313 1_565
Mo0_7 Mo9_5 2.746116 1_565
Mo0_7 Mo15_7 2.768118 1_555
Mo0_7 Mo11_3 2.811887 1_655
Mo0_7 Mo4_3 2.918861 1_655
Mo0_7 Mo4_7 2.951219 1_555
Mo0_7 Mo5_1 2.952112 1_665
Mo0_7 Mo5_5 2.984110 1_565
Mo0_7 Mo2_1 3.062787 1_665
Mo0_7 Mo11_7 3.090542 1_555
Mo0_7 Mo15_3 3.245332 1_655
Mo0_7 Mo9_1 3.299260 1_565
Mo1_0 Mo1_4 2.630631 1_555
Mo1_0 Mo1_4 2.630631 1_455
Mo1_0 Mo3_3 2.729313 1_545
Mo1_0 Mo8_2 2.746116 1_545
Mo1_0 Mo5_4 2.918861 1_555
Mo1_0 Mo5_0 2.951219 1_555
Mo1_0 Mo4_6 2.952112 1_545
Mo1_0 Mo4_2 2.984110 1_545
Mo1_0 Mo3_7 3.062787 1_545
Mo1_0 Mo8_6 3.299260 1_445
Mo1_1 Mo1_5 2.630631 1_555
Mo1_1 Mo1_5 2.630631 1_455
Mo1_1 Mo3_2 2.729313 1_546
Mo1_1 Mo8_3 2.746116 1_545
Mo1_1 Mo5_5 2.918861 1_555
Mo1_1 Mo5_1 2.951219 1_555
Mo1_1 Mo4_7 2.952112 1_545
Mo1_1 Mo4_3 2.984110 1_545
Mo1_1 Mo3_6 3.062787 1_546
Mo1_1 Mo8_7 3.299260 1_445
Mo1_2 Mo1_6 2.630631 1_555
Mo1_2 Mo1_6 2.630631 1_455
Mo1_2 Mo3_1 2.729313 1_555
Mo1_2 Mo8_0 2.746116 1_555
Mo1_2 Mo5_6 2.918861 1_555
Mo1_2 Mo5_2 2.951219 1_555
Mo1_2 Mo4_4 2.952112 1_555
Mo1_2 Mo4_0 2.984110 1_555
Mo1_2 Mo3_5 3.062787 1_555
Mo1_2 Mo8_4 3.299260 1_455
Mo1_3 Mo1_7 2.630631 1_555
Mo1_3 Mo1_7 2.630631 1_455
Mo1_3 Mo3_0 2.729313 1_556
Mo1_3 Mo8_1 2.746116 1_555
Mo1_3 Mo5_7 2.918861 1_555
Mo1_3 Mo5_3 2.951219 1_555
Mo1_3 Mo4_5 2.952112 1_555
Mo1_3 Mo4_1 2.984110 1_555
Mo1_3 Mo3_4 3.062787 1_556
Mo1_3 Mo8_5 3.299260 1_455
Mo1_4 Mo3_7 2.729313 1_545
Mo1_4 Mo8_6 2.746116 1_545
Mo1_4 Mo5_0 2.918861 1_655
Mo1_4 Mo5_4 2.951219 1_555
Mo1_4 Mo4_2 2.952112 1_645
Mo1_4 Mo4_6 2.984110 1_545
Mo1_4 Mo3_3 3.062787 1_645
Mo1_4 Mo8_2 3.299260 1_545
Mo1_5 Mo3_6 2.729313 1_546
Mo1_5 Mo8_7 2.746116 1_545
Mo1_5 Mo5_1 2.918861 1_655
Mo1_5 Mo5_5 2.951219 1_555
Mo1_5 Mo4_3 2.952112 1_645
Mo1_5 Mo4_7 2.984110 1_545
Mo1_5 Mo3_2 3.062787 1_646
Mo1_5 Mo8_3 3.299260 1_545
Mo1_6 Mo3_5 2.729313 1_555
Mo1_6 Mo8_4 2.746116 1_555
Mo1_6 Mo5_2 2.918861 1_655
Mo1_6 Mo5_6 2.951219 1_555
Mo1_6 Mo4_0 2.952112 1_655
Mo1_6 Mo4_4 2.984110 1_555
Mo1_6 Mo3_1 3.062787 1_655
Mo1_6 Mo8_0 3.299260 1_555
Mo1_7 Mo3_4 2.729313 1_556
Mo1_7 Mo8_5 2.746116 1_555
Mo1_7 Mo5_3 2.918861 1_655
Mo1_7 Mo5_7 2.951219 1_555
Mo1_7 Mo4_1 2.952112 1_655
Mo1_7 Mo4_5 2.984110 1_555
Mo1_7 Mo3_0 3.062787 1_656
Mo1_7 Mo8_1 3.299260 1_555
Mo2_0 Mo2_4 2.630631 1_555
Mo2_0 Mo2_4 2.630631 1_455
Mo2_0 Mo9_4 2.811887 1_455
Mo2_0 Mo6_4 2.918861 1_455
Mo2_0 Mo6_0 2.951219 1_555
Mo2_0 Mo7_6 2.952112 1_445
Mo2_0 Mo7_2 2.984110 1_545
Mo2_0 Mo9_0 3.090542 1_555
Mo2_1 Mo2_5 2.630631 1_555
Mo2_1 Mo2_5 2.630631 1_455
Mo2_1 Mo9_5 2.811887 1_455
Mo2_1 Mo6_5 2.918861 1_455
Mo2_1 Mo6_1 2.951219 1_555
Mo2_1 Mo7_7 2.952112 1_445
Mo2_1 Mo7_3 2.984110 1_545
Mo2_1 Mo9_1 3.090542 1_555
Mo2_2 Mo2_6 2.630631 1_555
Mo2_2 Mo2_6 2.630631 1_455
Mo2_2 Mo9_6 2.811887 1_455
Mo2_2 Mo6_6 2.918861 1_455
Mo2_2 Mo6_2 2.951219 1_555
Mo2_2 Mo7_4 2.952112 1_455
Mo2_2 Mo7_0 2.984110 1_555
Mo2_2 Mo9_2 3.090542 1_555
Mo2_3 Mo2_7 2.630631 1_555
Mo2_3 Mo2_7 2.630631 1_455
Mo2_3 Mo9_7 2.811887 1_455
Mo2_3 Mo6_7 2.918861 1_455
Mo2_3 Mo6_3 2.951219 1_555
Mo2_3 Mo7_5 2.952112 1_455
Mo2_3 Mo7_1 2.984110 1_555
Mo2_3 Mo9_3 3.090542 1_555
Mo2_4 Mo9_0 2.811887 1_555
Mo2_4 Mo6_0 2.918861 1_555
Mo2_4 Mo6_4 2.951219 1_555
Mo2_4 Mo7_2 2.952112 1_545
Mo2_4 Mo7_6 2.984110 1_545
Mo2_4 Mo9_4 3.090542 1_555
Mo2_5 Mo9_1 2.811887 1_555
Mo2_5 Mo6_1 2.918861 1_555
Mo2_5 Mo6_5 2.951219 1_555
Mo2_5 Mo7_3 2.952112 1_545
Mo2_5 Mo7_7 2.984110 1_545
Mo2_5 Mo9_5 3.090542 1_555
Mo2_6 Mo9_2 2.811887 1_555
Mo2_6 Mo6_2 2.918861 1_555
Mo2_6 Mo6_6 2.951219 1_555
Mo2_6 Mo7_0 2.952112 1_555
Mo2_6 Mo7_4 2.984110 1_555
Mo2_6 Mo9_6 3.090542 1_555
Mo2_7 Mo9_3 2.811887 1_555
Mo2_7 Mo6_3 2.918861 1_555
Mo2_7 Mo6_7 2.951219 1_555
Mo2_7 Mo7_1 2.952112 1_555
Mo2_7 Mo7_5 2.984110 1_555
Mo2_7 Mo9_7 3.090542 1_555
Mo3_0 Mo3_4 2.630631 1_555
Mo3_0 Mo3_4 2.630631 1_455
Mo3_0 Mo8_5 2.811887 1_454
Mo3_0 Mo7_4 2.918861 1_455
Mo3_0 Mo7_0 2.951219 1_555
Mo3_0 Mo6_6 2.952112 1_455
Mo3_0 Mo6_2 2.984110 1_555
Mo3_0 Mo8_1 3.090542 1_554
Mo3_1 Mo3_5 2.630631 1_555
Mo3_1 Mo3_5 2.630631 1_455
Mo3_1 Mo8_4 2.811887 1_455
Mo3_1 Mo7_5 2.918861 1_455
Mo3_1 Mo7_1 2.951219 1_555
Mo3_1 Mo6_7 2.952112 1_455
Mo3_1 Mo6_3 2.984110 1_555
Mo3_1 Mo8_0 3.090542 1_555
Mo3_2 Mo3_6 2.630631 1_555
Mo3_2 Mo3_6 2.630631 1_455
Mo3_2 Mo8_7 2.811887 1_454
Mo3_2 Mo7_6 2.918861 1_455
Mo3_2 Mo7_2 2.951219 1_555
Mo3_2 Mo6_4 2.952112 1_465
Mo3_2 Mo6_0 2.984110 1_565
Mo3_2 Mo8_3 3.090542 1_554
Mo3_3 Mo3_7 2.630631 1_555
Mo3_3 Mo3_7 2.630631 1_455
Mo3_3 Mo8_6 2.811887 1_455
Mo3_3 Mo7_7 2.918861 1_455
Mo3_3 Mo7_3 2.951219 1_555
Mo3_3 Mo6_5 2.952112 1_465
Mo3_3 Mo6_1 2.984110 1_565
Mo3_3 Mo8_2 3.090542 1_555
Mo3_4 Mo8_1 2.811887 1_554
Mo3_4 Mo7_0 2.918861 1_555
Mo3_4 Mo7_4 2.951219 1_555
Mo3_4 Mo6_2 2.952112 1_555
Mo3_4 Mo6_6 2.984110 1_555
Mo3_4 Mo8_5 3.090542 1_554
Mo3_5 Mo8_0 2.811887 1_555
Mo3_5 Mo7_1 2.918861 1_555
Mo3_5 Mo7_5 2.951219 1_555
Mo3_5 Mo6_3 2.952112 1_555
Mo3_5 Mo6_7 2.984110 1_555
Mo3_5 Mo8_4 3.090542 1_555
Mo3_6 Mo8_3 2.811887 1_554
Mo3_6 Mo7_2 2.918861 1_555
Mo3_6 Mo7_6 2.951219 1_555
Mo3_6 Mo6_0 2.952112 1_565
Mo3_6 Mo6_4 2.984110 1_565
Mo3_6 Mo8_7 3.090542 1_554
Mo3_7 Mo8_2 2.811887 1_555
Mo3_7 Mo7_3 2.918861 1_555
Mo3_7 Mo7_7 2.951219 1_555
Mo3_7 Mo6_1 2.952112 1_565
Mo3_7 Mo6_5 2.984110 1_565
Mo3_7 Mo8_6 3.090542 1_555
Mo4_0 Mo8_4 2.614734 1_455
Mo4_0 Mo4_4 2.630631 1_555
Mo4_0 Mo4_4 2.630631 1_455
Mo4_0 Mo5_2 2.750757 1_555
Mo4_0 Mo8_0 3.256231 1_555
Mo4_1 Mo8_5 2.614734 1_455
Mo4_1 Mo4_5 2.630631 1_555
Mo4_1 Mo4_5 2.630631 1_455
Mo4_1 Mo5_3 2.750757 1_555
Mo4_1 Mo8_1 3.256231 1_555
Mo4_2 Mo8_6 2.614734 1_455
Mo4_2 Mo4_6 2.630631 1_555
Mo4_2 Mo4_6 2.630631 1_455
Mo4_2 Mo5_0 2.750757 1_565
Mo4_2 Mo8_2 3.256231 1_555
Mo4_3 Mo8_7 2.614734 1_455
Mo4_3 Mo4_7 2.630631 1_555
Mo4_3 Mo4_7 2.630631 1_455
Mo4_3 Mo5_1 2.750757 1_565
Mo4_3 Mo8_3 3.256231 1_555
Mo4_4 Mo8_0 2.614734 1_555
Mo4_4 Mo5_6 2.750757 1_555
Mo4_4 Mo8_4 3.256231 1_555
Mo4_5 Mo8_1 2.614734 1_555
Mo4_5 Mo5_7 2.750757 1_555
Mo4_5 Mo8_5 3.256231 1_555
Mo4_6 Mo8_2 2.614734 1_555
Mo4_6 Mo5_4 2.750757 1_565
Mo4_6 Mo8_6 3.256231 1_555
Mo4_7 Mo8_3 2.614734 1_555
Mo4_7 Mo5_5 2.750757 1_565
Mo4_7 Mo8_7 3.256231 1_555
Mo5_0 Mo9_4 2.614734 1_455
Mo5_0 Mo5_4 2.630631 1_555
Mo5_0 Mo5_4 2.630631 1_455
Mo5_0 Mo9_0 3.256231 1_555
Mo5_1 Mo9_5 2.614734 1_455
Mo5_1 Mo5_5 2.630631 1_555
Mo5_1 Mo5_5 2.630631 1_455
Mo5_1 Mo9_1 3.256231 1_555
Mo5_2 Mo9_6 2.614734 1_455
Mo5_2 Mo5_6 2.630631 1_555
Mo5_2 Mo5_6 2.630631 1_455
Mo5_2 Mo9_2 3.256231 1_555
Mo5_3 Mo9_7 2.614734 1_455
Mo5_3 Mo5_7 2.630631 1_555
Mo5_3 Mo5_7 2.630631 1_455
Mo5_3 Mo9_3 3.256231 1_555
Mo5_4 Mo9_0 2.614734 1_555
Mo5_4 Mo9_4 3.256231 1_555
Mo5_5 Mo9_1 2.614734 1_555
Mo5_5 Mo9_5 3.256231 1_555
Mo5_6 Mo9_2 2.614734 1_555
Mo5_6 Mo9_6 3.256231 1_555
Mo5_7 Mo9_3 2.614734 1_555
Mo5_7 Mo9_7 3.256231 1_555
Mo6_0 Mo6_4 2.630631 1_555
Mo6_0 Mo6_4 2.630631 1_455
Mo6_0 Mo7_2 2.750757 1_545
Mo6_1 Mo6_5 2.630631 1_555
Mo6_1 Mo6_5 2.630631 1_455
Mo6_1 Mo7_3 2.750757 1_545
Mo6_2 Mo6_6 2.630631 1_555
Mo6_2 Mo6_6 2.630631 1_455
Mo6_2 Mo7_0 2.750757 1_555
Mo6_3 Mo6_7 2.630631 1_555
Mo6_3 Mo6_7 2.630631 1_455
Mo6_3 Mo7_1 2.750757 1_555
Mo6_4 Mo7_6 2.750757 1_545
Mo6_5 Mo7_7 2.750757 1_545
Mo6_6 Mo7_4 2.750757 1_555
Mo6_7 Mo7_5 2.750757 1_555
Mo7_0 Mo7_4 2.630631 1_455
Mo7_0 Mo7_4 2.630631 1_555
Mo7_1 Mo7_5 2.630631 1_455
Mo7_1 Mo7_5 2.630631 1_555
Mo7_2 Mo7_6 2.630631 1_455
Mo7_2 Mo7_6 2.630631 1_555
Mo7_3 Mo7_7 2.630631 1_555
Mo7_3 Mo7_7 2.630631 1_455
Mo8_0 Mo8_4 2.630631 1_555
Mo8_0 Mo8_4 2.630631 1_455
Mo8_1 Mo8_5 2.630631 1_455
Mo8_1 Mo8_5 2.630631 1_555
Mo8_2 Mo8_6 2.630631 1_455
Mo8_2 Mo8_6 2.630631 1_555
Mo8_3 Mo8_7 2.630631 1_455
Mo8_3 Mo8_7 2.630631 1_555
Mo9_0 Mo9_4 2.630631 1_555
Mo9_0 Mo9_4 2.630631 1_455
Mo9_1 Mo9_5 2.630631 1_555
Mo9_1 Mo9_5 2.630631 1_455
Mo9_2 Mo9_6 2.630631 1_555
Mo9_2 Mo9_6 2.630631 1_455
Mo9_3 Mo9_7 2.630631 1_555
Mo9_3 Mo9_7 2.630631 1_455
Mo10_0 Mo6_4 2.614734 1_455
Mo10_0 Mo10_4 2.630631 1_555
Mo10_0 Mo10_4 2.630631 1_455
Mo10_0 Mo3_2 2.746116 1_545
Mo10_0 Mo14_1 2.790644 1_554
Mo10_0 Mo1_5 2.811887 1_454
Mo10_0 Mo12_4 2.825401 1_455
Mo10_0 Mo12_0 2.947786 1_555
Mo10_0 Mo1_1 3.090542 1_554
Mo10_0 Mo14_5 3.192721 1_454
Mo10_0 Mo6_0 3.256231 1_555
Mo10_0 Mo3_6 3.299260 1_445
Mo10_1 Mo6_5 2.614734 1_455
Mo10_1 Mo10_5 2.630631 1_555
Mo10_1 Mo10_5 2.630631 1_455
Mo10_1 Mo3_3 2.746116 1_545
Mo10_1 Mo14_0 2.790644 1_555
Mo10_1 Mo1_4 2.811887 1_455
Mo10_1 Mo12_5 2.825401 1_455
Mo10_1 Mo12_1 2.947786 1_555
Mo10_1 Mo1_0 3.090542 1_555
Mo10_1 Mo14_4 3.192721 1_455
Mo10_1 Mo6_1 3.256231 1_555
Mo10_1 Mo3_7 3.299260 1_445
Mo10_2 Mo6_6 2.614734 1_455
Mo10_2 Mo10_6 2.630631 1_555
Mo10_2 Mo10_6 2.630631 1_455
Mo10_2 Mo3_0 2.746116 1_555
Mo10_2 Mo14_3 2.790644 1_554
Mo10_2 Mo1_7 2.811887 1_454
Mo10_2 Mo12_6 2.825401 1_455
Mo10_2 Mo12_2 2.947786 1_555
Mo10_2 Mo1_3 3.090542 1_554
Mo10_2 Mo14_7 3.192721 1_454
Mo10_2 Mo6_2 3.256231 1_555
Mo10_2 Mo3_4 3.299260 1_455
Mo10_3 Mo6_7 2.614734 1_455
Mo10_3 Mo10_7 2.630631 1_555
Mo10_3 Mo10_7 2.630631 1_455
Mo10_3 Mo3_1 2.746116 1_555
Mo10_3 Mo14_2 2.790644 1_555
Mo10_3 Mo1_6 2.811887 1_455
Mo10_3 Mo12_7 2.825401 1_455
Mo10_3 Mo12_3 2.947786 1_555
Mo10_3 Mo1_2 3.090542 1_555
Mo10_3 Mo14_6 3.192721 1_455
Mo10_3 Mo6_3 3.256231 1_555
Mo10_3 Mo3_5 3.299260 1_455
Mo10_4 Mo6_0 2.614734 1_555
Mo10_4 Mo3_6 2.746116 1_545
Mo10_4 Mo14_5 2.790644 1_554
Mo10_4 Mo1_1 2.811887 1_554
Mo10_4 Mo12_0 2.825401 1_555
Mo10_4 Mo12_4 2.947786 1_555
Mo10_4 Mo1_5 3.090542 1_554
Mo10_4 Mo14_1 3.192721 1_554
Mo10_4 Mo6_4 3.256231 1_555
Mo10_4 Mo3_2 3.299260 1_545
Mo10_5 Mo6_1 2.614734 1_555
Mo10_5 Mo3_7 2.746116 1_545
Mo10_5 Mo14_4 2.790644 1_555
Mo10_5 Mo1_0 2.811887 1_555
Mo10_5 Mo12_1 2.825401 1_555
Mo10_5 Mo12_5 2.947786 1_555
Mo10_5 Mo1_4 3.090542 1_555
Mo10_5 Mo14_0 3.192721 1_555
Mo10_5 Mo6_5 3.256231 1_555
Mo10_5 Mo3_3 3.299260 1_545
Mo10_6 Mo6_2 2.614734 1_555
Mo10_6 Mo3_4 2.746116 1_555
Mo10_6 Mo14_7 2.790644 1_554
Mo10_6 Mo1_3 2.811887 1_554
Mo10_6 Mo12_2 2.825401 1_555
Mo10_6 Mo12_6 2.947786 1_555
Mo10_6 Mo1_7 3.090542 1_554
Mo10_6 Mo14_3 3.192721 1_554
Mo10_6 Mo6_6 3.256231 1_555
Mo10_6 Mo3_0 3.299260 1_555
Mo10_7 Mo6_3 2.614734 1_555
Mo10_7 Mo3_5 2.746116 1_555
Mo10_7 Mo14_6 2.790644 1_555
Mo10_7 Mo1_2 2.811887 1_555
Mo10_7 Mo12_3 2.825401 1_555
Mo10_7 Mo12_7 2.947786 1_555
Mo10_7 Mo1_6 3.090542 1_555
Mo10_7 Mo14_2 3.192721 1_555
Mo10_7 Mo6_7 3.256231 1_555
Mo10_7 Mo3_1 3.299260 1_555
Mo11_0 Mo7_4 2.614734 1_455
Mo11_0 Mo11_4 2.630631 1_555
Mo11_0 Mo11_4 2.630631 1_455
Mo11_0 Mo2_2 2.746116 1_555
Mo11_0 Mo15_0 2.790644 1_555
Mo11_0 Mo13_4 2.825401 1_455
Mo11_0 Mo13_0 2.947786 1_555
Mo11_0 Mo15_4 3.192721 1_455
Mo11_0 Mo7_0 3.256231 1_555
Mo11_0 Mo2_6 3.299260 1_455
Mo11_1 Mo7_5 2.614734 1_455
Mo11_1 Mo11_5 2.630631 1_555
Mo11_1 Mo11_5 2.630631 1_455
Mo11_1 Mo2_3 2.746116 1_555
Mo11_1 Mo15_1 2.790644 1_555
Mo11_1 Mo13_5 2.825401 1_455
Mo11_1 Mo13_1 2.947786 1_555
Mo11_1 Mo15_5 3.192721 1_455
Mo11_1 Mo7_1 3.256231 1_555
Mo11_1 Mo2_7 3.299260 1_455
Mo11_2 Mo7_6 2.614734 1_455
Mo11_2 Mo11_6 2.630631 1_555
Mo11_2 Mo11_6 2.630631 1_455
Mo11_2 Mo2_0 2.746116 1_565
Mo11_2 Mo15_2 2.790644 1_555
Mo11_2 Mo13_6 2.825401 1_455
Mo11_2 Mo13_2 2.947786 1_555
Mo11_2 Mo15_6 3.192721 1_455
Mo11_2 Mo7_2 3.256231 1_555
Mo11_2 Mo2_4 3.299260 1_465
Mo11_3 Mo7_7 2.614734 1_455
Mo11_3 Mo11_7 2.630631 1_555
Mo11_3 Mo11_7 2.630631 1_455
Mo11_3 Mo2_1 2.746116 1_565
Mo11_3 Mo15_3 2.790644 1_555
Mo11_3 Mo13_7 2.825401 1_455
Mo11_3 Mo13_3 2.947786 1_555
Mo11_3 Mo15_7 3.192721 1_455
Mo11_3 Mo7_3 3.256231 1_555
Mo11_3 Mo2_5 3.299260 1_465
Mo11_4 Mo7_0 2.614734 1_555
Mo11_4 Mo2_6 2.746116 1_555
Mo11_4 Mo15_4 2.790644 1_555
Mo11_4 Mo13_0 2.825401 1_555
Mo11_4 Mo13_4 2.947786 1_555
Mo11_4 Mo15_0 3.192721 1_555
Mo11_4 Mo7_4 3.256231 1_555
Mo11_4 Mo2_2 3.299260 1_555
Mo11_5 Mo7_1 2.614734 1_555
Mo11_5 Mo2_7 2.746116 1_555
Mo11_5 Mo15_5 2.790644 1_555
Mo11_5 Mo13_1 2.825401 1_555
Mo11_5 Mo13_5 2.947786 1_555
Mo11_5 Mo15_1 3.192721 1_555
Mo11_5 Mo7_5 3.256231 1_555
Mo11_5 Mo2_3 3.299260 1_555
Mo11_6 Mo7_2 2.614734 1_555
Mo11_6 Mo2_4 2.746116 1_565
Mo11_6 Mo15_6 2.790644 1_555
Mo11_6 Mo13_2 2.825401 1_555
Mo11_6 Mo13_6 2.947786 1_555
Mo11_6 Mo15_2 3.192721 1_555
Mo11_6 Mo7_6 3.256231 1_555
Mo11_6 Mo2_0 3.299260 1_565
Mo11_7 Mo7_3 2.614734 1_555
Mo11_7 Mo2_5 2.746116 1_565
Mo11_7 Mo15_7 2.790644 1_555
Mo11_7 Mo13_3 2.825401 1_555
Mo11_7 Mo13_7 2.947786 1_555
Mo11_7 Mo15_3 3.192721 1_555
Mo11_7 Mo7_7 3.256231 1_555
Mo11_7 Mo2_1 3.299260 1_565
Mo12_0 Mo7_0 2.614554 1_555
Mo12_0 Mo12_4 2.630631 1_555
Mo12_0 Mo12_4 2.630631 1_455
Mo12_0 Mo14_1 2.637503 1_554
Mo12_0 Mo3_0 2.768118 1_555
Mo12_0 Mo8_1 2.790644 1_554
Mo12_0 Mo8_5 3.192721 1_454
Mo12_0 Mo3_4 3.245332 1_555
Mo12_1 Mo7_1 2.614554 1_555
Mo12_1 Mo12_5 2.630631 1_555
Mo12_1 Mo12_5 2.630631 1_455
Mo12_1 Mo14_0 2.637503 1_555
Mo12_1 Mo3_1 2.768118 1_555
Mo12_1 Mo8_0 2.790644 1_555
Mo12_1 Mo8_4 3.192721 1_455
Mo12_1 Mo3_5 3.245332 1_555
Mo12_2 Mo7_2 2.614554 1_555
Mo12_2 Mo12_6 2.630631 1_555
Mo12_2 Mo12_6 2.630631 1_455
Mo12_2 Mo14_3 2.637503 1_554
Mo12_2 Mo3_2 2.768118 1_555
Mo12_2 Mo8_3 2.790644 1_554
Mo12_2 Mo8_7 3.192721 1_454
Mo12_2 Mo3_6 3.245332 1_555
Mo12_3 Mo7_3 2.614554 1_555
Mo12_3 Mo12_7 2.630631 1_555
Mo12_3 Mo12_7 2.630631 1_455
Mo12_3 Mo14_2 2.637503 1_555
Mo12_3 Mo3_3 2.768118 1_555
Mo12_3 Mo8_2 2.790644 1_555
Mo12_3 Mo8_6 3.192721 1_455
Mo12_3 Mo3_7 3.245332 1_555
Mo12_4 Mo7_4 2.614554 1_555
Mo12_4 Mo14_5 2.637503 1_554
Mo12_4 Mo3_4 2.768118 1_555
Mo12_4 Mo8_5 2.790644 1_554
Mo12_4 Mo8_1 3.192721 1_554
Mo12_4 Mo3_0 3.245332 1_655
Mo12_5 Mo7_5 2.614554 1_555
Mo12_5 Mo14_4 2.637503 1_555
Mo12_5 Mo3_5 2.768118 1_555
Mo12_5 Mo8_4 2.790644 1_555
Mo12_5 Mo8_0 3.192721 1_555
Mo12_5 Mo3_1 3.245332 1_655
Mo12_6 Mo7_6 2.614554 1_555
Mo12_6 Mo14_7 2.637503 1_554
Mo12_6 Mo3_6 2.768118 1_555
Mo12_6 Mo8_7 2.790644 1_554
Mo12_6 Mo8_3 3.192721 1_554
Mo12_6 Mo3_2 3.245332 1_655
Mo12_7 Mo7_7 2.614554 1_555
Mo12_7 Mo14_6 2.637503 1_555
Mo12_7 Mo3_7 2.768118 1_555
Mo12_7 Mo8_6 2.790644 1_555
Mo12_7 Mo8_2 3.192721 1_555
Mo12_7 Mo3_3 3.245332 1_655
Mo13_0 Mo6_0 2.614554 1_555
Mo13_0 Mo13_4 2.630631 1_555
Mo13_0 Mo13_4 2.630631 1_455
Mo13_0 Mo15_0 2.637503 1_555
Mo13_0 Mo2_0 2.768118 1_555
Mo13_0 Mo9_0 2.790644 1_555
Mo13_0 Mo9_4 3.192721 1_455
Mo13_0 Mo2_4 3.245332 1_555
Mo13_1 Mo6_1 2.614554 1_555
Mo13_1 Mo13_5 2.630631 1_555
Mo13_1 Mo13_5 2.630631 1_455
Mo13_1 Mo15_1 2.637503 1_555
Mo13_1 Mo2_1 2.768118 1_555
Mo13_1 Mo9_1 2.790644 1_555
Mo13_1 Mo9_5 3.192721 1_455
Mo13_1 Mo2_5 3.245332 1_555
Mo13_2 Mo6_2 2.614554 1_555
Mo13_2 Mo13_6 2.630631 1_555
Mo13_2 Mo13_6 2.630631 1_455
Mo13_2 Mo15_2 2.637503 1_555
Mo13_2 Mo2_2 2.768118 1_555
Mo13_2 Mo9_2 2.790644 1_555
Mo13_2 Mo9_6 3.192721 1_455
Mo13_2 Mo2_6 3.245332 1_555
Mo13_3 Mo6_3 2.614554 1_555
Mo13_3 Mo13_7 2.630631 1_555
Mo13_3 Mo13_7 2.630631 1_455
Mo13_3 Mo15_3 2.637503 1_555
Mo13_3 Mo2_3 2.768118 1_555
Mo13_3 Mo9_3 2.790644 1_555
Mo13_3 Mo9_7 3.192721 1_455
Mo13_3 Mo2_7 3.245332 1_555
Mo13_4 Mo6_4 2.614554 1_555
Mo13_4 Mo15_4 2.637503 1_555
Mo13_4 Mo2_4 2.768118 1_555
Mo13_4 Mo9_4 2.790644 1_555
Mo13_4 Mo9_0 3.192721 1_555
Mo13_4 Mo2_0 3.245332 1_655
Mo13_5 Mo6_5 2.614554 1_555
Mo13_5 Mo15_5 2.637503 1_555
Mo13_5 Mo2_5 2.768118 1_555
Mo13_5 Mo9_5 2.790644 1_555
Mo13_5 Mo9_1 3.192721 1_555
Mo13_5 Mo2_1 3.245332 1_655
Mo13_6 Mo6_6 2.614554 1_555
Mo13_6 Mo15_6 2.637503 1_555
Mo13_6 Mo2_6 2.768118 1_555
Mo13_6 Mo9_6 2.790644 1_555
Mo13_6 Mo9_2 3.192721 1_555
Mo13_6 Mo2_2 3.245332 1_655
Mo13_7 Mo6_7 2.614554 1_555
Mo13_7 Mo15_7 2.637503 1_555
Mo13_7 Mo2_7 2.768118 1_555
Mo13_7 Mo9_7 2.790644 1_555
Mo13_7 Mo9_3 3.192721 1_555
Mo13_7 Mo2_3 3.245332 1_655
Mo14_0 Mo5_0 2.614554 1_555
Mo14_0 Mo14_4 2.630631 1_455
Mo14_0 Mo14_4 2.630631 1_555
Mo14_0 Mo1_0 2.768118 1_555
Mo14_0 Mo8_4 2.825401 1_455
Mo14_0 Mo8_0 2.947786 1_555
Mo14_0 Mo1_4 3.245332 1_455
Mo14_1 Mo5_1 2.614554 1_555
Mo14_1 Mo14_5 2.630631 1_455
Mo14_1 Mo14_5 2.630631 1_555
Mo14_1 Mo1_1 2.768118 1_555
Mo14_1 Mo8_5 2.825401 1_455
Mo14_1 Mo8_1 2.947786 1_555
Mo14_1 Mo1_5 3.245332 1_455
Mo14_2 Mo5_2 2.614554 1_555
Mo14_2 Mo14_6 2.630631 1_455
Mo14_2 Mo14_6 2.630631 1_555
Mo14_2 Mo1_2 2.768118 1_555
Mo14_2 Mo8_6 2.825401 1_455
Mo14_2 Mo8_2 2.947786 1_555
Mo14_2 Mo1_6 3.245332 1_455
Mo14_3 Mo5_3 2.614554 1_555
Mo14_3 Mo14_7 2.630631 1_455
Mo14_3 Mo14_7 2.630631 1_555
Mo14_3 Mo1_3 2.768118 1_555
Mo14_3 Mo8_7 2.825401 1_455
Mo14_3 Mo8_3 2.947786 1_555
Mo14_3 Mo1_7 3.245332 1_455
Mo14_4 Mo5_4 2.614554 1_555
Mo14_4 Mo1_4 2.768118 1_555
Mo14_4 Mo8_0 2.825401 1_555
Mo14_4 Mo8_4 2.947786 1_555
Mo14_4 Mo1_0 3.245332 1_555
Mo14_5 Mo5_5 2.614554 1_555
Mo14_5 Mo1_5 2.768118 1_555
Mo14_5 Mo8_1 2.825401 1_555
Mo14_5 Mo8_5 2.947786 1_555
Mo14_5 Mo1_1 3.245332 1_555
Mo14_6 Mo5_6 2.614554 1_555
Mo14_6 Mo1_6 2.768118 1_555
Mo14_6 Mo8_2 2.825401 1_555
Mo14_6 Mo8_6 2.947786 1_555
Mo14_6 Mo1_2 3.245332 1_555
Mo14_7 Mo5_7 2.614554 1_555
Mo14_7 Mo1_7 2.768118 1_555
Mo14_7 Mo8_3 2.825401 1_555
Mo14_7 Mo8_7 2.947786 1_555
Mo14_7 Mo1_3 3.245332 1_555
Mo15_0 Mo4_0 2.614554 1_555
Mo15_0 Mo15_4 2.630631 1_455
Mo15_0 Mo15_4 2.630631 1_555
Mo15_0 Mo9_4 2.825401 1_455
Mo15_0 Mo9_0 2.947786 1_555
Mo15_1 Mo4_1 2.614554 1_555
Mo15_1 Mo15_5 2.630631 1_455
Mo15_1 Mo15_5 2.630631 1_555
Mo15_1 Mo9_5 2.825401 1_455
Mo15_1 Mo9_1 2.947786 1_555
Mo15_2 Mo4_2 2.614554 1_555
Mo15_2 Mo15_6 2.630631 1_455
Mo15_2 Mo15_6 2.630631 1_555
Mo15_2 Mo9_6 2.825401 1_455
Mo15_2 Mo9_2 2.947786 1_555
Mo15_3 Mo4_3 2.614554 1_555
Mo15_3 Mo15_7 2.630631 1_455
Mo15_3 Mo15_7 2.630631 1_555
Mo15_3 Mo9_7 2.825401 1_455
Mo15_3 Mo9_3 2.947786 1_555
Mo15_4 Mo4_4 2.614554 1_555
Mo15_4 Mo9_0 2.825401 1_555
Mo15_4 Mo9_4 2.947786 1_555
Mo15_5 Mo4_5 2.614554 1_555
Mo15_5 Mo9_1 2.825401 1_555
Mo15_5 Mo9_5 2.947786 1_555
Mo15_6 Mo4_6 2.614554 1_555
Mo15_6 Mo9_2 2.825401 1_555
Mo15_6 Mo9_6 2.947786 1_555
Mo15_7 Mo4_7 2.614554 1_555
Mo15_7 Mo9_3 2.825401 1_555
Mo15_7 Mo9_7 2.947786 1_555
