# generated using pymatgen
data_MnCdO2
_symmetry_space_group_name_H-M   'P 1'
_cell_length_a   5.59971540
_cell_length_b   5.63117168
_cell_length_c   6.45785406
_cell_angle_alpha   90.00000727
_cell_angle_beta   90.00000000
_cell_angle_gamma   70.58737564
_symmetry_Int_Tables_number   1
_chemical_formula_structural   MnCdO2
_chemical_formula_sum   'Mn4 Cd4 O8'
_cell_volume   192.05846965
_cell_formula_units_Z   4
loop_
 _symmetry_equiv_pos_site_id
 _symmetry_equiv_pos_as_xyz
  1  'x, y, z'
loop_
 _atom_site_type_symbol
 _atom_site_label
 _atom_site_symmetry_multiplicity
 _atom_site_fract_x
 _atom_site_fract_y
 _atom_site_fract_z
 _atom_site_occupancy
  Mn  Mn0  1  1.00000000  0.50000000  0.75096665  1
  Mn  Mn1  1  0.50000000  0.50000000  0.49903335  1
  Mn  Mn2  1  1.00000000  0.50000000  0.25096665  1
  Mn  Mn3  1  0.50000000  0.50000000  0.99903335  1
  Cd  Cd0  1  0.50000000  1.00000000  0.25003115  1
  Cd  Cd1  1  0.50000000  1.00000000  0.75003115  1
  Cd  Cd2  1  0.00000000  0.00000000  0.99996885  1
  Cd  Cd3  1  0.00000000  0.00000000  0.49996885  1
  O  O0  1  0.24207925  0.27264882  0.50052191  1
  O  O1  1  0.24207925  0.27264882  0.00052191  1
  O  O2  1  0.74207925  0.27264882  0.24947809  1
  O  O3  1  0.74207925  0.27264882  0.74947809  1
  O  O4  1  0.75792075  0.72735118  0.50052191  1
  O  O5  1  0.75792075  0.72735118  0.00052191  1
  O  O6  1  0.25792075  0.72735118  0.24947809  1
  O  O7  1  0.25792075  0.72735118  0.74947809  1
loop_
_geom_bond_atom_site_label_1
_geom_bond_atom_site_label_2
_geom_bond_distance
_geom_bond_site_symmetry_2
Mn0 O5 2.218157 1_556
Mn0 O1 2.218157 1_656
Mn0 O0 2.222334 1_655
Mn0 O4 2.222334 1_555
Mn0 O3 2.225809 1_555
Mn0 O7 2.225809 1_655
Mn1 O2 2.218157 1_555
Mn1 O6 2.218157 1_555
Mn1 O7 2.222334 1_555
Mn1 O3 2.222334 1_555
Mn1 O4 2.225809 1_555
Mn1 O0 2.225809 1_555
Mn2 O4 2.218157 1_555
Mn2 O0 2.218157 1_655
Mn2 O1 2.222334 1_655
Mn2 O5 2.222334 1_555
Mn2 O2 2.225809 1_555
Mn2 O6 2.225809 1_655
Mn3 O3 2.218157 1_555
Mn3 O7 2.218157 1_555
Mn3 O6 2.222334 1_556
Mn3 O2 2.222334 1_556
Mn3 O5 2.225809 1_556
Mn3 O1 2.225809 1_556
Cd0 O5 2.359119 1_555
Cd0 O1 2.359119 1_565
Cd0 O6 2.361849 1_555
Cd0 O2 2.361849 1_565
Cd0 O0 2.363452 1_565
Cd0 O4 2.363453 1_555
Cd1 O4 2.359119 1_555
Cd1 O0 2.359119 1_565
Cd1 O7 2.361849 1_555
Cd1 O3 2.361849 1_565
Cd1 O1 2.363452 1_566
Cd1 O5 2.363453 1_556
Cd2 O2 2.359119 1_456
Cd2 O6 2.359119 1_546
Cd2 O1 2.361849 1_556
Cd2 O5 2.361849 1_446
Cd2 O7 2.363452 1_545
Cd2 O3 2.363453 1_455
Cd3 O3 2.359119 1_455
Cd3 O7 2.359119 1_545
Cd3 O0 2.361849 1_555
Cd3 O4 2.361849 1_445
Cd3 O6 2.363452 1_545
Cd3 O2 2.363453 1_455
