# generated using pymatgen
data_GeAu3
_symmetry_space_group_name_H-M   'P 1'
_cell_length_a   5.92055435
_cell_length_b   5.92055435
_cell_length_c   19.38605000
_cell_angle_alpha   90.00000000
_cell_angle_beta   90.00000000
_cell_angle_gamma   119.99998161
_symmetry_Int_Tables_number   1
_chemical_formula_structural   GeAu3
_chemical_formula_sum   'Ge8 Au24'
_cell_volume   588.49772161
_cell_formula_units_Z   8
loop_
 _symmetry_equiv_pos_site_id
 _symmetry_equiv_pos_as_xyz
  1  'x, y, z'
loop_
 _atom_site_type_symbol
 _atom_site_label
 _atom_site_symmetry_multiplicity
 _atom_site_fract_x
 _atom_site_fract_y
 _atom_site_fract_z
 _atom_site_occupancy
  Ge  Ge0_0  1  0.33333350  0.16666650  0.00000000  1
  Ge  Ge0_1  1  0.33333350  0.16666650  0.50000000  1
  Ge  Ge0_2  1  0.33333350  0.66666650  0.00000000  1
  Ge  Ge0_3  1  0.33333350  0.66666650  0.50000000  1
  Ge  Ge0_4  1  0.83333350  0.16666650  0.00000000  1
  Ge  Ge0_5  1  0.83333350  0.16666650  0.50000000  1
  Ge  Ge0_6  1  0.83333350  0.66666650  0.00000000  1
  Ge  Ge0_7  1  0.83333350  0.66666650  0.50000000  1
  Au  Au0_0  1  0.33333350  0.16666650  0.25000000  1
  Au  Au0_1  1  0.33333350  0.16666650  0.75000000  1
  Au  Au0_2  1  0.33333350  0.66666650  0.25000000  1
  Au  Au0_3  1  0.33333350  0.66666650  0.75000000  1
  Au  Au0_4  1  0.83333350  0.16666650  0.25000000  1
  Au  Au0_5  1  0.83333350  0.16666650  0.75000000  1
  Au  Au0_6  1  0.83333350  0.66666650  0.25000000  1
  Au  Au0_7  1  0.83333350  0.66666650  0.75000000  1
  Au  Au1_0  1  0.16666650  0.33333350  0.12397200  1
  Au  Au1_1  1  0.16666650  0.33333350  0.62397200  1
  Au  Au1_2  1  0.16666650  0.83333350  0.12397200  1
  Au  Au1_3  1  0.16666650  0.83333350  0.62397200  1
  Au  Au1_4  1  0.66666650  0.33333350  0.12397200  1
  Au  Au1_5  1  0.66666650  0.33333350  0.62397200  1
  Au  Au1_6  1  0.66666650  0.83333350  0.12397200  1
  Au  Au1_7  1  0.66666650  0.83333350  0.62397200  1
  Au  Au2_0  1  0.16666650  0.33333350  0.37602800  1
  Au  Au2_1  1  0.16666650  0.33333350  0.87602800  1
  Au  Au2_2  1  0.16666650  0.83333350  0.37602800  1
  Au  Au2_3  1  0.16666650  0.83333350  0.87602800  1
  Au  Au2_4  1  0.66666650  0.33333350  0.37602800  1
  Au  Au2_5  1  0.66666650  0.33333350  0.87602800  1
  Au  Au2_6  1  0.66666650  0.83333350  0.37602800  1
  Au  Au2_7  1  0.66666650  0.83333350  0.87602800  1
loop_
_geom_bond_atom_site_label_1
_geom_bond_atom_site_label_2
_geom_bond_distance
_geom_bond_site_symmetry_2
Ge0_0 Ge0_4 2.960277 1_455
Ge0_0 Ge0_2 2.960277 1_555
Ge0_0 Ge0_4 2.960277 1_555
Ge0_0 Ge0_2 2.960277 1_545
Ge0_0 Ge0_6 2.960278 1_445
Ge0_0 Ge0_6 2.960278 1_555
Ge0_1 Ge0_3 2.960277 1_555
Ge0_1 Ge0_5 2.960277 1_455
Ge0_1 Ge0_3 2.960277 1_545
Ge0_1 Ge0_5 2.960277 1_555
Ge0_1 Ge0_7 2.960278 1_445
Ge0_1 Ge0_7 2.960278 1_555
Ge0_2 Ge0_6 2.960277 1_455
Ge0_2 Ge0_6 2.960277 1_555
Ge0_2 Ge0_4 2.960278 1_455
Ge0_2 Ge0_4 2.960278 1_565
Ge0_3 Ge0_7 2.960277 1_455
Ge0_3 Ge0_7 2.960277 1_555
Ge0_3 Ge0_5 2.960278 1_455
Ge0_3 Ge0_5 2.960278 1_565
Ge0_4 Ge0_6 2.960277 1_545
Ge0_4 Ge0_6 2.960277 1_555
Ge0_5 Ge0_7 2.960277 1_555
Ge0_5 Ge0_7 2.960277 1_545
Au0_0 Au0_4 2.960277 1_455
Au0_0 Au0_2 2.960277 1_555
Au0_0 Au0_4 2.960277 1_555
Au0_0 Au0_2 2.960277 1_545
Au0_0 Au0_6 2.960278 1_445
Au0_0 Au0_6 2.960278 1_555
Au0_0 Au2_2 2.981649 1_545
Au0_0 Au2_4 2.981649 1_555
Au0_0 Au1_4 2.981649 1_555
Au0_0 Au1_2 2.981649 1_545
Au0_0 Au2_0 2.981651 1_555
Au0_0 Au1_0 2.981651 1_555
Au0_1 Au0_3 2.960277 1_555
Au0_1 Au0_5 2.960277 1_455
Au0_1 Au0_3 2.960277 1_545
Au0_1 Au0_5 2.960277 1_555
Au0_1 Au0_7 2.960278 1_445
Au0_1 Au0_7 2.960278 1_555
Au0_1 Au2_5 2.981649 1_555
Au0_1 Au2_3 2.981649 1_545
Au0_1 Au1_5 2.981649 1_555
Au0_1 Au1_3 2.981649 1_545
Au0_1 Au2_1 2.981651 1_555
Au0_1 Au1_1 2.981651 1_555
Au0_2 Au0_6 2.960277 1_455
Au0_2 Au0_6 2.960277 1_555
Au0_2 Au0_4 2.960278 1_455
Au0_2 Au0_4 2.960278 1_565
Au0_2 Au2_0 2.981649 1_555
Au0_2 Au2_6 2.981649 1_555
Au0_2 Au1_6 2.981649 1_555
Au0_2 Au1_0 2.981649 1_555
Au0_2 Au2_2 2.981651 1_555
Au0_2 Au1_2 2.981651 1_555
Au0_3 Au0_7 2.960277 1_455
Au0_3 Au0_7 2.960277 1_555
Au0_3 Au0_5 2.960278 1_455
Au0_3 Au0_5 2.960278 1_565
Au0_3 Au2_1 2.981649 1_555
Au0_3 Au2_7 2.981649 1_555
Au0_3 Au1_1 2.981649 1_555
Au0_3 Au1_7 2.981649 1_555
Au0_3 Au2_3 2.981651 1_555
Au0_3 Au1_3 2.981651 1_555
Au0_4 Au0_6 2.960277 1_555
Au0_4 Au0_6 2.960277 1_545
Au0_4 Au2_6 2.981649 1_545
Au0_4 Au2_0 2.981649 1_655
Au0_4 Au1_0 2.981649 1_655
Au0_4 Au1_6 2.981649 1_545
Au0_4 Au2_4 2.981651 1_555
Au0_4 Au1_4 2.981651 1_555
Au0_5 Au0_7 2.960277 1_555
Au0_5 Au0_7 2.960277 1_545
Au0_5 Au2_1 2.981649 1_655
Au0_5 Au2_7 2.981649 1_545
Au0_5 Au1_7 2.981649 1_545
Au0_5 Au1_1 2.981649 1_655
Au0_5 Au2_5 2.981651 1_555
Au0_5 Au1_5 2.981651 1_555
Au0_6 Au2_4 2.981649 1_555
Au0_6 Au2_2 2.981649 1_655
Au0_6 Au1_2 2.981649 1_655
Au0_6 Au1_4 2.981649 1_555
Au0_6 Au2_6 2.981651 1_555
Au0_6 Au1_6 2.981651 1_555
Au0_7 Au2_5 2.981649 1_555
Au0_7 Au2_3 2.981649 1_655
Au0_7 Au1_5 2.981649 1_555
Au0_7 Au1_3 2.981649 1_655
Au0_7 Au2_7 2.981651 1_555
Au0_7 Au1_7 2.981651 1_555
Au1_0 Ge0_4 2.949078 1_455
Au1_0 Ge0_2 2.949078 1_555
Au1_0 Ge0_0 2.949080 1_555
Au1_0 Au1_4 2.960277 1_455
Au1_0 Au1_2 2.960277 1_545
Au1_0 Au1_4 2.960277 1_555
Au1_0 Au1_2 2.960277 1_555
Au1_0 Au1_6 2.960278 1_445
Au1_0 Au1_6 2.960278 1_555
Au1_1 Ge0_3 2.949078 1_555
Au1_1 Ge0_5 2.949078 1_455
Au1_1 Ge0_1 2.949080 1_555
Au1_1 Au1_5 2.960277 1_455
Au1_1 Au1_3 2.960277 1_545
Au1_1 Au1_5 2.960277 1_555
Au1_1 Au1_3 2.960277 1_555
Au1_1 Au1_7 2.960278 1_445
Au1_1 Au1_7 2.960278 1_555
Au1_2 Ge0_6 2.949078 1_455
Au1_2 Ge0_0 2.949078 1_565
Au1_2 Ge0_2 2.949080 1_555
Au1_2 Au1_6 2.960277 1_455
Au1_2 Au1_6 2.960277 1_555
Au1_2 Au1_4 2.960278 1_455
Au1_2 Au1_4 2.960278 1_565
Au1_3 Ge0_7 2.949078 1_455
Au1_3 Ge0_1 2.949078 1_565
Au1_3 Ge0_3 2.949080 1_555
Au1_3 Au1_7 2.960277 1_455
Au1_3 Au1_7 2.960277 1_555
Au1_3 Au1_5 2.960278 1_455
Au1_3 Au1_5 2.960278 1_565
Au1_4 Ge0_6 2.949078 1_555
Au1_4 Ge0_0 2.949078 1_555
Au1_4 Ge0_4 2.949080 1_555
Au1_4 Au1_6 2.960277 1_555
Au1_4 Au1_6 2.960277 1_545
Au1_5 Ge0_7 2.949078 1_555
Au1_5 Ge0_1 2.949078 1_555
Au1_5 Ge0_5 2.949080 1_555
Au1_5 Au1_7 2.960277 1_555
Au1_5 Au1_7 2.960277 1_545
Au1_6 Ge0_2 2.949078 1_555
Au1_6 Ge0_4 2.949078 1_565
Au1_6 Ge0_6 2.949080 1_555
Au1_7 Ge0_5 2.949078 1_565
Au1_7 Ge0_3 2.949078 1_555
Au1_7 Ge0_7 2.949080 1_555
Au2_0 Ge0_3 2.949078 1_555
Au2_0 Ge0_5 2.949078 1_455
Au2_0 Ge0_1 2.949080 1_555
Au2_0 Au2_4 2.960277 1_455
Au2_0 Au2_2 2.960277 1_545
Au2_0 Au2_4 2.960277 1_555
Au2_0 Au2_2 2.960277 1_555
Au2_0 Au2_6 2.960278 1_445
Au2_0 Au2_6 2.960278 1_555
Au2_1 Ge0_2 2.949078 1_556
Au2_1 Ge0_4 2.949078 1_456
Au2_1 Ge0_0 2.949080 1_556
Au2_1 Au2_5 2.960277 1_455
Au2_1 Au2_3 2.960277 1_545
Au2_1 Au2_3 2.960277 1_555
Au2_1 Au2_5 2.960277 1_555
Au2_1 Au2_7 2.960278 1_445
Au2_1 Au2_7 2.960278 1_555
Au2_2 Ge0_7 2.949078 1_455
Au2_2 Ge0_1 2.949078 1_565
Au2_2 Ge0_3 2.949080 1_555
Au2_2 Au2_6 2.960277 1_455
Au2_2 Au2_6 2.960277 1_555
Au2_2 Au2_4 2.960278 1_455
Au2_2 Au2_4 2.960278 1_565
Au2_3 Ge0_6 2.949078 1_456
Au2_3 Ge0_0 2.949078 1_566
Au2_3 Ge0_2 2.949080 1_556
Au2_3 Au2_7 2.960277 1_455
Au2_3 Au2_7 2.960277 1_555
Au2_3 Au2_5 2.960278 1_455
Au2_3 Au2_5 2.960278 1_565
Au2_4 Ge0_7 2.949078 1_555
Au2_4 Ge0_1 2.949078 1_555
Au2_4 Ge0_5 2.949080 1_555
Au2_4 Au2_6 2.960277 1_555
Au2_4 Au2_6 2.960277 1_545
Au2_5 Ge0_6 2.949078 1_556
Au2_5 Ge0_0 2.949078 1_556
Au2_5 Ge0_4 2.949080 1_556
Au2_5 Au2_7 2.960277 1_555
Au2_5 Au2_7 2.960277 1_545
Au2_6 Ge0_3 2.949078 1_555
Au2_6 Ge0_5 2.949078 1_565
Au2_6 Ge0_7 2.949080 1_555
Au2_7 Ge0_2 2.949078 1_556
Au2_7 Ge0_4 2.949078 1_566
Au2_7 Ge0_6 2.949080 1_556
