# generated using pymatgen
data_VH
_symmetry_space_group_name_H-M   'P 1'
_cell_length_a   2.73558020
_cell_length_b   2.73558020
_cell_length_c   4.93596800
_cell_angle_alpha   90.00000000
_cell_angle_beta   90.00000000
_cell_angle_gamma   120.00000473
_symmetry_Int_Tables_number   1
_chemical_formula_structural   VH
_chemical_formula_sum   'V2 H2'
_cell_volume   31.98908725
_cell_formula_units_Z   2
loop_
 _symmetry_equiv_pos_site_id
 _symmetry_equiv_pos_as_xyz
  1  'x, y, z'
loop_
 _atom_site_type_symbol
 _atom_site_label
 _atom_site_symmetry_multiplicity
 _atom_site_fract_x
 _atom_site_fract_y
 _atom_site_fract_z
 _atom_site_occupancy
  V  V0  1  0.00000000  0.00000000  0.50000000  1
  V  V1  1  0.00000000  0.00000000  0.00000000  1
  H  H0  1  0.33333300  0.66666700  0.25000000  1
  H  H1  1  0.66666700  0.33333300  0.75000000  1
loop_
_geom_bond_atom_site_label_1
_geom_bond_atom_site_label_2
_geom_bond_distance
_geom_bond_site_symmetry_2
H0 V0 2.004295 1_565
H0 V1 2.004295 1_565
H0 V1 2.004297 1_665
H0 V1 2.004297 1_555
H0 V0 2.004297 1_665
H0 V0 2.004297 1_555
H1 V0 2.004295 1_655
H1 V1 2.004295 1_656
H1 V1 2.004297 1_666
H1 V1 2.004297 1_556
H1 V0 2.004297 1_665
H1 V0 2.004297 1_555
