# generated using pymatgen
data_Ba2Tl2Zn2Ni3O10
_symmetry_space_group_name_H-M   'P 1'
_cell_length_a   3.63274800
_cell_length_b   3.70348801
_cell_length_c   20.81022081
_cell_angle_alpha   94.96765379
_cell_angle_beta   94.98679692
_cell_angle_gamma   90.00375940
_symmetry_Int_Tables_number   1
_chemical_formula_structural   Ba2Tl2Zn2Ni3O10
_chemical_formula_sum   'Ba2 Tl2 Zn2 Ni3 O10'
_cell_volume   277.86175242
_cell_formula_units_Z   1
loop_
 _symmetry_equiv_pos_site_id
 _symmetry_equiv_pos_as_xyz
  1  'x, y, z'
loop_
 _atom_site_type_symbol
 _atom_site_label
 _atom_site_symmetry_multiplicity
 _atom_site_fract_x
 _atom_site_fract_y
 _atom_site_fract_z
 _atom_site_occupancy
  Ba  Ba0  1  0.83627900  0.89657500  0.71035600  1
  Ba  Ba1  1  0.15946500  0.20091000  0.28880900  1
  Tl  Tl0  1  0.27511400  0.33035900  0.55995200  1
  Tl  Tl1  1  0.72440200  0.77269600  0.44091700  1
  Zn  Zn0  1  0.05536500  0.10868800  0.08477700  1
  Zn  Zn1  1  0.94908500  0.01772200  0.91586500  1
  Ni  Ni0  1  0.59732700  0.64558300  0.16110800  1
  Ni  Ni1  1  0.40080300  0.47520700  0.83825400  1
  Ni  Ni2  1  0.49920700  0.56339100  0.99764500  1
  O  O0  1  0.11893000  0.66268500  0.20442800  1
  O  O1  1  0.68429800  0.72054400  0.34170200  1
  O  O2  1  0.57669700  0.12850400  0.12810800  1
  O  O3  1  0.23142400  0.24065400  0.45713800  1
  O  O4  1  0.47187200  0.04508300  0.96165700  1
  O  O5  1  0.37716800  0.95554000  0.79731300  1
  O  O6  1  0.31354400  0.36767700  0.65944900  1
  O  O7  1  0.91977000  0.49772400  0.87552700  1
  O  O8  1  0.76993900  0.78193300  0.54415900  1
  O  O9  1  0.02134800  0.58743400  0.04187000  1
loop_
_geom_bond_atom_site_label_1
_geom_bond_atom_site_label_2
_geom_bond_distance
_geom_bond_site_symmetry_2
Ba0 O5 2.548832 1_655
Ba0 O5 2.561309 1_555
Ba0 O6 2.782663 1_565
Ba0 O6 2.794886 1_665
Ba0 O6 2.802771 1_555
Ba0 O6 2.815220 1_655
Ba1 O0 2.535207 1_545
Ba1 O0 2.550500 1_555
Ba1 O1 2.796068 1_555
Ba1 O1 2.803328 1_455
Ba1 O1 2.826008 1_545
Ba1 O1 2.832880 1_445
Ni0 O2 1.969698 1_565
Ni0 O2 1.976793 1_555
Ni0 O0 2.024721 1_555
Ni0 O0 2.024919 1_655
Ni1 O7 1.971477 1_455
Ni1 O7 1.974187 1_555
Ni1 O5 2.034835 1_545
Ni1 O5 2.036556 1_555
Ni2 O4 1.992902 1_565
Ni2 O4 1.998369 1_555
Ni2 O9 2.032736 1_556
Ni2 O9 2.033496 1_656
O1 Tl1 2.049414 1_555
O2 Zn0 2.024070 1_555
O2 Zn0 2.025675 1_655
O3 Tl0 2.128667 1_555
O3 Tl1 2.510021 1_445
O3 Tl1 2.515728 1_545
O3 Tl1 2.719665 1_455
O3 Tl1 2.724609 1_555
O4 Zn1 2.047869 1_455
O4 Zn1 2.047980 1_555
O6 Tl0 2.055717 1_555
O7 Zn1 2.029552 1_555
O7 Zn1 2.032041 1_565
O8 Tl1 2.137761 1_555
O8 Tl0 2.502705 1_655
O8 Tl0 2.516687 1_555
O8 Tl0 2.716661 1_665
O8 Tl0 2.729870 1_565
O9 Zn0 2.052123 1_555
O9 Zn0 2.054624 1_565
