# generated using pymatgen
data_NaMg6Nb
_symmetry_space_group_name_H-M   'P 1'
_cell_length_a   6.28801538
_cell_length_b   6.28801538
_cell_length_c   4.52206600
_cell_angle_alpha   90.00000000
_cell_angle_beta   90.00000000
_cell_angle_gamma   90.06928897
_symmetry_Int_Tables_number   1
_chemical_formula_structural   NaMg6Nb
_chemical_formula_sum   'Na1 Mg6 Nb1'
_cell_volume   178.79845804
_cell_formula_units_Z   1
loop_
 _symmetry_equiv_pos_site_id
 _symmetry_equiv_pos_as_xyz
  1  'x, y, z'
loop_
 _atom_site_type_symbol
 _atom_site_label
 _atom_site_symmetry_multiplicity
 _atom_site_fract_x
 _atom_site_fract_y
 _atom_site_fract_z
 _atom_site_occupancy
  Na  Na0  1  0.87032800  0.12967200  0.50000000  1
  Mg  Mg0  1  0.37148900  0.12303500  0.50000000  1
  Mg  Mg1  1  0.87696500  0.62851100  0.50000000  1
  Mg  Mg2  1  0.14174000  0.38919700  0.00000000  1
  Mg  Mg3  1  0.61080300  0.85826000  0.00000000  1
  Mg  Mg4  1  0.60784700  0.39215300  0.00000000  1
  Mg  Mg5  1  0.14396800  0.85603200  0.00000000  1
  Nb  Nb0  1  0.37686500  0.62313500  0.50000000  1
loop_
_geom_bond_atom_site_label_1
_geom_bond_atom_site_label_2
_geom_bond_distance
_geom_bond_site_symmetry_2
Mg0 Na0 3.136934 1_555
Mg0 Nb0 3.143602 1_545
Mg0 Nb0 3.144777 1_555
Mg0 Na0 3.151635 1_455
Mg0 Mg5 3.157848 1_546
Mg0 Mg5 3.157848 1_545
Mg0 Mg2 3.163260 1_555
Mg0 Mg2 3.163260 1_556
Mg0 Mg3 3.186645 1_545
Mg0 Mg3 3.186645 1_546
Mg0 Mg4 3.190399 1_556
Mg0 Mg4 3.190399 1_555
Mg1 Na0 3.136934 1_555
Mg1 Nb0 3.143602 1_655
Mg1 Nb0 3.144777 1_555
Mg1 Na0 3.151635 1_565
Mg1 Mg5 3.157848 1_656
Mg1 Mg5 3.157848 1_655
Mg1 Mg3 3.163260 1_555
Mg1 Mg3 3.163260 1_556
Mg1 Mg2 3.186645 1_655
Mg1 Mg2 3.186645 1_656
Mg1 Mg4 3.190399 1_556
Mg1 Mg4 3.190399 1_555
Mg2 Mg4 2.930924 1_555
Mg2 Mg5 2.935482 1_555
Mg2 Nb0 3.075181 1_555
Mg2 Nb0 3.075181 1_554
Mg2 Na0 3.268219 1_455
Mg2 Na0 3.268219 1_454
Mg2 Mg5 3.352596 1_545
Mg2 Mg4 3.357201 1_455
Mg3 Mg4 2.930924 1_555
Mg3 Mg5 2.935482 1_555
Mg3 Nb0 3.075181 1_555
Mg3 Nb0 3.075181 1_554
Mg3 Na0 3.268219 1_565
Mg3 Na0 3.268219 1_564
Mg3 Mg5 3.352596 1_655
Mg3 Mg4 3.357201 1_565
Mg4 Nb0 3.055554 1_555
Mg4 Nb0 3.055554 1_554
Mg4 Na0 3.250701 1_555
Mg4 Na0 3.250701 1_554
Mg5 Nb0 3.067041 1_555
Mg5 Nb0 3.067041 1_554
Mg5 Na0 3.322758 1_464
Mg5 Na0 3.322758 1_465
