# generated using pymatgen
data_YLuGa6
_symmetry_space_group_name_H-M   'P 1'
_cell_length_a   6.10976414
_cell_length_b   6.10976414
_cell_length_c   9.55051900
_cell_angle_alpha   90.00000000
_cell_angle_beta   90.00000000
_cell_angle_gamma   120.00000155
_symmetry_Int_Tables_number   1
_chemical_formula_structural   YLuGa6
_chemical_formula_sum   'Y2 Lu2 Ga12'
_cell_volume   308.74966038
_cell_formula_units_Z   2
loop_
 _symmetry_equiv_pos_site_id
 _symmetry_equiv_pos_as_xyz
  1  'x, y, z'
loop_
 _atom_site_type_symbol
 _atom_site_label
 _atom_site_symmetry_multiplicity
 _atom_site_fract_x
 _atom_site_fract_y
 _atom_site_fract_z
 _atom_site_occupancy
  Y  Y0  1  0.33333300  0.66666700  0.75000000  1
  Y  Y1  1  0.66666700  0.33333300  0.25000000  1
  Lu  Lu0  1  0.00000000  0.00000000  0.00000000  1
  Lu  Lu1  1  0.00000000  0.00000000  0.50000000  1
  Ga  Ga0  1  0.81637500  0.18362500  0.75000000  1
  Ga  Ga1  1  0.81637500  0.63275000  0.75000000  1
  Ga  Ga2  1  0.36725000  0.18362500  0.75000000  1
  Ga  Ga3  1  0.18362500  0.81637500  0.25000000  1
  Ga  Ga4  1  0.18362500  0.36725000  0.25000000  1
  Ga  Ga5  1  0.63275000  0.81637500  0.25000000  1
  Ga  Ga6  1  0.50000000  0.50000000  0.00000000  1
  Ga  Ga7  1  0.50000000  0.00000000  0.00000000  1
  Ga  Ga8  1  0.00000000  0.50000000  0.00000000  1
  Ga  Ga9  1  0.50000000  0.50000000  0.50000000  1
  Ga  Ga10  1  0.50000000  0.00000000  0.50000000  1
  Ga  Ga11  1  0.00000000  0.50000000  0.50000000  1
loop_
_geom_bond_atom_site_label_1
_geom_bond_atom_site_label_2
_geom_bond_distance
_geom_bond_site_symmetry_2
Ga0 Ga2 2.744048 1_555
Ga0 Ga1 2.744048 1_555
Ga0 Ga7 2.920142 1_556
Ga0 Ga11 2.920142 1_655
Ga0 Ga8 2.920142 1_656
Ga0 Ga10 2.920142 1_555
Ga0 Y0 3.060148 1_545
Ga0 Y0 3.060148 1_655
Ga0 Lu0 3.078440 1_656
Ga0 Lu1 3.078440 1_655
Ga1 Ga2 2.744048 1_555
Ga1 Ga6 2.920142 1_556
Ga1 Ga9 2.920142 1_555
Ga1 Ga11 2.920142 1_655
Ga1 Ga8 2.920142 1_656
Ga1 Y0 3.060146 1_655
Ga1 Y0 3.060152 1_555
Ga1 Lu1 3.078440 1_665
Ga1 Lu0 3.078440 1_666
Ga2 Ga6 2.920142 1_556
Ga2 Ga9 2.920142 1_555
Ga2 Ga7 2.920142 1_556
Ga2 Y0 3.060146 1_545
Ga2 Y0 3.060152 1_555
Ga2 Lu0 3.078440 1_556
Ga2 Lu1 3.078440 1_555
Ga3 Ga4 2.744048 1_555
Ga3 Ga5 2.744048 1_555
Ga3 Ga7 2.920142 1_565
Ga3 Ga8 2.920142 1_555
Ga3 Y1 3.060148 1_455
Ga3 Y1 3.060148 1_565
Ga3 Lu0 3.078440 1_565
Ga3 Lu1 3.078440 1_565
Ga4 Ga5 2.744048 1_555
Ga4 Ga6 2.920142 1_555
Ga4 Ga9 2.920142 1_555
Ga4 Ga8 2.920142 1_555
Ga4 Y1 3.060146 1_455
Ga4 Y1 3.060152 1_555
Ga4 Lu0 3.078440 1_555
Ga4 Lu1 3.078440 1_555
Ga5 Ga6 2.920142 1_555
Ga5 Ga9 2.920142 1_555
Ga5 Ga7 2.920142 1_565
Ga5 Y1 3.060146 1_565
Ga5 Y1 3.060152 1_555
Ga5 Lu1 3.078440 1_665
Ga5 Lu0 3.078440 1_665
Ga6 Y0 2.968427 1_554
Ga6 Y1 2.968427 1_555
Ga6 Lu0 3.054882 1_555
Ga6 Lu0 3.054882 1_665
Ga6 Ga8 3.054882 1_655
Ga6 Ga7 3.054882 1_555
Ga6 Ga7 3.054882 1_565
Ga6 Ga8 3.054882 1_555
Ga7 Y1 2.968423 1_555
Ga7 Y0 2.968423 1_544
Ga7 Ga8 3.054882 1_545
Ga7 Ga8 3.054882 1_655
Ga7 Lu0 3.054882 1_555
Ga7 Lu0 3.054882 1_655
Ga8 Y1 2.968423 1_455
Ga8 Y0 2.968423 1_554
Ga8 Lu0 3.054882 1_555
Ga8 Lu0 3.054882 1_565
Ga9 Y1 2.968427 1_555
Ga9 Y0 2.968427 1_555
Ga9 Lu1 3.054882 1_555
Ga9 Lu1 3.054882 1_665
Ga10 Ga3 2.920142 1_545
Ga10 Ga2 2.920142 1_555
Ga10 Ga5 2.920142 1_545
Ga10 Y1 2.968423 1_555
Ga10 Y0 2.968423 1_545
Ga10 Ga11 3.054882 1_545
Ga10 Ga11 3.054882 1_655
Ga10 Ga9 3.054882 1_545
Ga10 Lu1 3.054882 1_555
Ga10 Ga9 3.054882 1_555
Ga10 Lu1 3.054882 1_655
Ga11 Ga3 2.920142 1_555
Ga11 Ga4 2.920142 1_555
Ga11 Y1 2.968423 1_455
Ga11 Y0 2.968423 1_555
Ga11 Ga9 3.054882 1_455
Ga11 Lu1 3.054882 1_555
Ga11 Ga9 3.054882 1_555
Ga11 Lu1 3.054882 1_565
