# generated using pymatgen
data_MgV8(OF)8
_symmetry_space_group_name_H-M   'P 1'
_cell_length_a   4.92153042
_cell_length_b   10.65023461
_cell_length_c   5.70251367
_cell_angle_alpha   83.95688205
_cell_angle_beta   94.33099947
_cell_angle_gamma   87.99938719
_symmetry_Int_Tables_number   1
_chemical_formula_structural   MgV8(OF)8
_chemical_formula_sum   'Mg1 V8 O8 F8'
_cell_volume   296.11305341
_cell_formula_units_Z   1
loop_
 _symmetry_equiv_pos_site_id
 _symmetry_equiv_pos_as_xyz
  1  'x, y, z'
loop_
 _atom_site_type_symbol
 _atom_site_label
 _atom_site_symmetry_multiplicity
 _atom_site_fract_x
 _atom_site_fract_y
 _atom_site_fract_z
 _atom_site_occupancy
  Mg  Mg0  1  0.01639233  0.36870755  0.90281095  1
  V  V0  1  0.48153110  0.25153002  0.74437532  1
  V  V1  1  0.47586123  0.99040242  0.49975454  1
  V  V2  1  0.52909505  0.74318417  0.23646924  1
  V  V3  1  0.51185950  0.50704184  0.99189476  1
  V  V4  1  0.91848259  0.20341923  0.31603829  1
  V  V5  1  0.03339096  0.76772247  0.72921332  1
  V  V6  1  0.02831340  0.51159965  0.46106471  1
  V  V7  1  0.99077250  0.99793613  0.99637091  1
  O  O0  1  0.76424213  0.05295367  0.27967566  1
  O  O1  1  0.69389070  0.81295082  0.51534136  1
  O  O2  1  0.71919440  0.57068434  0.26158174  1
  O  O3  1  0.69755503  0.32749162  0.05850006  1
  O  O4  1  0.30525685  0.43524670  0.71452693  1
  O  O5  1  0.31952810  0.67308129  0.96566096  1
  O  O6  1  0.28081031  0.16419706  0.46784667  1
  O  O7  1  0.19567789  0.92366654  0.72077895  1
  F  F0  1  0.83945444  0.55620434  0.77030945  1
  F  F1  1  0.83460334  0.33146546  0.56380785  1
  F  F2  1  0.80869491  0.81823649  0.01535571  1
  F  F3  1  0.68233716  0.07592511  0.76317957  1
  F  F4  1  0.29818881  0.91078256  0.22200066  1
  F  F5  1  0.21248671  0.67902168  0.45127786  1
  F  F6  1  0.15959018  0.18735624  0.95574290  1
  F  F7  1  0.20279036  0.43294260  0.19404062  1
loop_
_geom_bond_atom_site_label_1
_geom_bond_atom_site_label_2
_geom_bond_distance
_geom_bond_site_symmetry_2
Mg0 O3 1.902537 1_456
Mg0 O4 1.953662 1_555
O0 V4 1.821631 1_555
O0 V1 2.047482 1_545
O0 V7 2.149890 1_544
O1 V2 1.958296 1_555
O1 V5 2.005885 1_655
O1 V1 2.130651 1_555
O2 V6 1.877640 1_655
O2 V3 1.973960 1_554
O2 V2 2.018749 1_555
O3 V3 2.075770 1_554
O3 V4 2.082079 1_555
O3 V0 2.251915 1_554
O4 V6 1.996417 1_555
O4 V3 2.046053 1_555
O4 V0 2.097388 1_555
O5 V3 1.962524 1_555
O5 V2 2.015437 1_556
O5 V5 2.035945 1_555
O6 V4 1.934537 1_455
O6 V1 2.039433 1_545
O6 V0 2.113127 1_555
O7 V5 1.865537 1_555
O7 V1 2.034091 1_555
O7 V7 2.134916 1_455
F0 V6 2.143025 1_655
F0 V3 2.167386 1_555
F0 Mg0 2.185930 1_655
F0 V5 2.472531 1_655
F1 V4 2.116826 1_555
F1 Mg0 2.149398 1_655
F1 V6 2.215418 1_655
F1 V0 2.234597 1_555
F2 V2 2.061306 1_555
F2 V7 2.137354 1_554
F2 V5 2.142594 1_654
F3 V7 2.033957 1_545
F3 V1 2.059358 1_545
F3 V0 2.073325 1_555
F4 V1 2.029229 1_555
F4 V7 2.040237 1_454
F4 V2 2.073049 1_555
F5 V6 2.025740 1_555
F5 V2 2.140519 1_555
F5 V5 2.156260 1_555
F6 Mg0 2.017004 1_555
F6 V0 2.149650 1_555
F6 V7 2.204867 1_445
F6 V4 2.467130 1_456
F7 Mg0 2.029918 1_554
F7 V6 2.042941 1_555
F7 V3 2.102957 1_554
