# generated using pymatgen
data_Sr4BiP3O13
_symmetry_space_group_name_H-M   'P 1'
_cell_length_a   7.34793300
_cell_length_b   9.76664200
_cell_length_c   9.89837033
_cell_angle_alpha   60.44119646
_cell_angle_beta   90.00000000
_cell_angle_gamma   90.00000000
_symmetry_Int_Tables_number   1
_chemical_formula_structural   Sr4BiP3O13
_chemical_formula_sum   'Sr8 Bi2 P6 O26'
_cell_volume   617.90036275
_cell_formula_units_Z   2
loop_
 _symmetry_equiv_pos_site_id
 _symmetry_equiv_pos_as_xyz
  1  'x, y, z'
loop_
 _atom_site_type_symbol
 _atom_site_label
 _atom_site_symmetry_multiplicity
 _atom_site_fract_x
 _atom_site_fract_y
 _atom_site_fract_z
 _atom_site_occupancy
  Sr  Sr0  1  0.49880800  0.34165600  0.32725000  1
  Sr  Sr1  1  0.99880800  0.65834400  0.67275000  1
  Sr  Sr2  1  0.50119200  0.65834400  0.67275000  1
  Sr  Sr3  1  0.00119200  0.34165600  0.32725000  1
  Sr  Sr4  1  0.25000000  0.00645600  0.76344200  1
  Sr  Sr5  1  0.25000000  0.23767800  0.01083200  1
  Sr  Sr6  1  0.75000000  0.99354400  0.23655800  1
  Sr  Sr7  1  0.75000000  0.76232200  0.98916800  1
  Bi  Bi0  1  0.25000000  0.77543300  0.23165200  1
  Bi  Bi1  1  0.75000000  0.22456700  0.76834800  1
  P  P0  1  0.25000000  0.96805200  0.40139700  1
  P  P1  1  0.25000000  0.62996400  0.96645100  1
  P  P2  1  0.25000000  0.39584200  0.63190600  1
  P  P3  1  0.75000000  0.03194800  0.59860300  1
  P  P4  1  0.75000000  0.37003600  0.03354900  1
  P  P5  1  0.75000000  0.60415800  0.36809400  1
  O  O0  1  0.25000000  0.88112300  0.58122400  1
  O  O1  1  0.25000000  0.53401300  0.87865300  1
  O  O2  1  0.25000000  0.57907100  0.54571300  1
  O  O3  1  0.75000000  0.11887700  0.41877600  1
  O  O4  1  0.75000000  0.46598700  0.12134700  1
  O  O5  1  0.75000000  0.42092900  0.45428700  1
  O  O6  1  0.41873600  0.91205100  0.34308000  1
  O  O7  1  0.42216800  0.73627500  0.91473000  1
  O  O8  1  0.42109800  0.33669500  0.74025000  1
  O  O9  1  0.91873600  0.08794900  0.65692000  1
  O  O10  1  0.92216800  0.26372500  0.08527000  1
  O  O11  1  0.92109800  0.66330500  0.25975000  1
  O  O12  1  0.58126400  0.08794900  0.65692000  1
  O  O13  1  0.57783200  0.26372500  0.08527000  1
  O  O14  1  0.57890200  0.66330500  0.25975000  1
  O  O15  1  0.08126400  0.91205100  0.34308000  1
  O  O16  1  0.07783200  0.73627500  0.91473000  1
  O  O17  1  0.07890200  0.33669500  0.74025000  1
  O  O18  1  0.25000000  0.14850200  0.33071800  1
  O  O19  1  0.25000000  0.51655200  0.14543600  1
  O  O20  1  0.25000000  0.33026300  0.51735700  1
  O  O21  1  0.75000000  0.85149800  0.66928200  1
  O  O22  1  0.75000000  0.48344800  0.85456400  1
  O  O23  1  0.75000000  0.66973700  0.48264300  1
  O  O24  1  0.25000000  0.98166700  0.02193100  1
  O  O25  1  0.75000000  0.01833300  0.97806900  1
loop_
_geom_bond_atom_site_label_1
_geom_bond_atom_site_label_2
_geom_bond_distance
_geom_bond_site_symmetry_2
Bi0 O24 2.059367 1_555
Bi0 O15 2.446655 1_555
Bi0 O6 2.446655 1_555
Bi0 O11 2.610900 1_455
Bi0 O14 2.610900 1_555
Bi0 O2 2.731257 1_555
Bi1 O25 2.059367 1_555
Bi1 O12 2.446655 1_555
Bi1 O9 2.446655 1_555
Bi1 O17 2.610900 1_655
Bi1 O8 2.610900 1_555
Bi1 O5 2.731257 1_555
O0 P0 1.548601 1_555
O0 Sr4 2.632468 1_565
O0 Sr2 2.648925 1_555
O0 Sr1 2.648925 1_455
O1 P1 1.561082 1_555
O1 Sr5 2.520347 1_556
O1 Sr2 2.567755 1_555
O1 Sr1 2.567755 1_455
O2 P2 1.556906 1_555
O2 Sr2 2.558897 1_555
O2 Sr1 2.558897 1_455
O3 P3 1.548601 1_555
O3 Sr6 2.632468 1_545
O3 Sr0 2.648925 1_555
O3 Sr3 2.648925 1_655
O4 P4 1.561082 1_555
O4 Sr7 2.520347 1_554
O4 Sr0 2.567755 1_555
O4 Sr3 2.567755 1_655
O5 P5 1.556906 1_555
O5 Sr0 2.558897 1_555
O5 Sr3 2.558897 1_655
O6 P0 1.575153 1_555
O6 Sr6 2.615742 1_555
O6 Sr2 3.029468 1_555
O7 P1 1.554392 1_555
O7 Sr7 2.568129 1_555
O7 Sr4 2.628168 1_565
O7 Sr2 2.907264 1_555
O8 P2 1.566260 1_555
O8 Sr5 2.670903 1_556
O8 Sr2 2.930955 1_555
O9 P3 1.575153 1_555
O9 Sr4 2.615742 1_655
O9 Sr3 3.029468 1_655
O10 P4 1.554392 1_555
O10 Sr5 2.568129 1_655
O10 Sr6 2.628168 1_545
O10 Sr3 2.907264 1_655
O11 P5 1.566260 1_555
O11 Sr7 2.670903 1_554
O11 Sr3 2.930955 1_655
O12 P3 1.575153 1_555
O12 Sr4 2.615742 1_555
O12 Sr0 3.029468 1_555
O13 P4 1.554392 1_555
O13 Sr5 2.568129 1_555
O13 Sr6 2.628168 1_545
O13 Sr0 2.907264 1_555
O14 P5 1.566260 1_555
O14 Sr7 2.670903 1_554
O14 Sr0 2.930955 1_555
O15 P0 1.575153 1_555
O15 Sr6 2.615742 1_455
O15 Sr1 3.029468 1_455
O16 P1 1.554392 1_555
O16 Sr7 2.568129 1_455
O16 Sr4 2.628168 1_565
O16 Sr1 2.907264 1_455
O17 P2 1.566260 1_555
O17 Sr5 2.670903 1_556
O17 Sr1 2.930955 1_455
O18 P0 1.542391 1_545
O18 Sr3 2.615042 1_555
O18 Sr0 2.615042 1_555
O18 Sr5 2.839623 1_555
O19 P1 1.558692 1_554
O19 Sr0 2.542825 1_555
O19 Sr3 2.542825 1_555
O20 P2 1.553172 1_555
O20 Sr0 2.586345 1_555
O20 Sr3 2.586345 1_555
O20 Sr4 2.886932 1_555
O21 P3 1.542391 1_565
O21 Sr2 2.615042 1_555
O21 Sr1 2.615042 1_555
O21 Sr7 2.839623 1_555
O22 P4 1.558692 1_556
O22 Sr2 2.542825 1_555
O22 Sr1 2.542825 1_555
O23 P5 1.553172 1_555
O23 Sr2 2.586345 1_555
O23 Sr1 2.586345 1_555
O23 Sr6 2.886932 1_555
O24 Sr5 2.448037 1_565
O24 Sr4 2.448260 1_564
O25 Sr7 2.448037 1_545
O25 Sr6 2.448260 1_546
