# generated using pymatgen
data_Ti(CrN)4
_symmetry_space_group_name_H-M   'P 1'
_cell_length_a   4.98776233
_cell_length_b   4.97811210
_cell_length_c   7.88451658
_cell_angle_alpha   71.16811414
_cell_angle_beta   83.31446658
_cell_angle_gamma   69.36701972
_symmetry_Int_Tables_number   1
_chemical_formula_structural   Ti(CrN)4
_chemical_formula_sum   'Ti2 Cr8 N8'
_cell_volume   173.40422973
_cell_formula_units_Z   2
loop_
 _symmetry_equiv_pos_site_id
 _symmetry_equiv_pos_as_xyz
  1  'x, y, z'
loop_
 _atom_site_type_symbol
 _atom_site_label
 _atom_site_symmetry_multiplicity
 _atom_site_fract_x
 _atom_site_fract_y
 _atom_site_fract_z
 _atom_site_occupancy
  Ti  Ti0  1  0.74744400  0.85871400  0.77614300  1
  Ti  Ti1  1  0.25255600  0.14128600  0.22385700  1
  Cr  Cr0  1  0.74046000  0.61860700  0.23736400  1
  Cr  Cr1  1  0.25954000  0.38139300  0.76263600  1
  Cr  Cr2  1  0.75998700  0.24029800  0.99906600  1
  Cr  Cr3  1  0.24001300  0.75970200  0.00093400  1
  Cr  Cr4  1  0.75105000  0.43860700  0.61330000  1
  Cr  Cr5  1  0.24895000  0.56139300  0.38670000  1
  Cr  Cr6  1  0.24428500  0.94421600  0.61582600  1
  Cr  Cr7  1  0.75571500  0.05578400  0.38417400  1
  N  N0  1  0.99964900  0.70568300  0.58198600  1
  N  N1  1  0.00035100  0.29431700  0.41801400  1
  N  N2  1  0.83862100  0.83042900  0.01436200  1
  N  N3  1  0.16137900  0.16957100  0.98563800  1
  N  N4  1  0.49726600  0.59128600  0.81861400  1
  N  N5  1  0.50273400  0.40871400  0.18138600  1
  N  N6  1  0.50510000  0.79193100  0.41331500  1
  N  N7  1  0.49490000  0.20806900  0.58668500  1
loop_
_geom_bond_atom_site_label_1
_geom_bond_atom_site_label_2
_geom_bond_distance
_geom_bond_site_symmetry_2
Cr0 N2 1.846506 1_555
Cr0 N6 1.930504 1_555
Cr0 N1 1.945723 1_655
Cr0 N5 1.996298 1_555
Cr1 N3 1.846506 1_555
Cr1 N7 1.930504 1_555
Cr1 N0 1.945723 1_455
Cr1 N4 1.996298 1_555
Cr2 N2 1.902542 1_546
Cr2 N3 1.902971 1_655
Cr2 N5 2.001536 1_556
Cr2 N4 2.002479 1_555
Cr3 N3 1.902542 1_564
Cr3 N2 1.902971 1_455
Cr3 N4 2.001536 1_554
Cr3 N5 2.002479 1_555
Cr4 N1 2.017833 1_655
Cr4 N6 2.055259 1_555
Cr4 N7 2.060262 1_555
Cr4 N0 2.060277 1_555
Cr4 N4 2.107046 1_555
Cr5 N0 2.017833 1_455
Cr5 N7 2.055259 1_555
Cr5 N6 2.060262 1_555
Cr5 N1 2.060277 1_555
Cr5 N5 2.107046 1_555
Cr6 N1 2.035409 1_565
Cr6 N7 2.058152 1_565
Cr6 N0 2.066770 1_455
Cr6 N4 2.080678 1_555
Cr6 N6 2.102198 1_555
Cr7 N0 2.035409 1_545
Cr7 N6 2.058152 1_545
Cr7 N1 2.066770 1_655
Cr7 N5 2.080678 1_555
Cr7 N7 2.102198 1_555
N0 Ti0 2.033552 1_555
N1 Ti1 2.033552 1_555
N2 Ti0 1.933249 1_554
N3 Ti1 1.933249 1_556
N4 Ti0 2.056016 1_555
N5 Ti1 2.056016 1_555
N6 Ti1 2.014869 1_565
N7 Ti0 2.014869 1_545
