# generated using pymatgen
data_CoAsS
_symmetry_space_group_name_H-M   'P 1'
_cell_length_a   5.55750629
_cell_length_b   5.55750629
_cell_length_c   5.55750629
_cell_angle_alpha   90.00000000
_cell_angle_beta   90.00000000
_cell_angle_gamma   90.00000000
_symmetry_Int_Tables_number   1
_chemical_formula_structural   CoAsS
_chemical_formula_sum   'Co4 As4 S4'
_cell_volume   171.64845105
_cell_formula_units_Z   4
loop_
 _symmetry_equiv_pos_site_id
 _symmetry_equiv_pos_as_xyz
  1  'x, y, z'
loop_
 _atom_site_type_symbol
 _atom_site_label
 _atom_site_symmetry_multiplicity
 _atom_site_fract_x
 _atom_site_fract_y
 _atom_site_fract_z
 _atom_site_occupancy
  Co  Co0  1  0.50691590  0.49308410  0.99308410  1
  Co  Co1  1  0.49308410  0.99308410  0.50691590  1
  Co  Co2  1  0.00691590  0.00691590  0.00691590  1
  Co  Co3  1  0.99308410  0.50691590  0.49308410  1
  As  As0  1  0.62048323  0.87951677  0.12048323  1
  As  As1  1  0.12048323  0.62048323  0.87951677  1
  As  As2  1  0.37951677  0.37951677  0.37951677  1
  As  As3  1  0.87951677  0.12048323  0.62048323  1
  S  S0  1  0.38262341  0.11737659  0.88262341  1
  S  S1  1  0.88262341  0.38262341  0.11737659  1
  S  S2  1  0.11737659  0.88262341  0.38262341  1
  S  S3  1  0.61737659  0.61737659  0.61737659  1
loop_
_geom_bond_atom_site_label_1
_geom_bond_atom_site_label_2
_geom_bond_distance
_geom_bond_site_symmetry_2
Co0 S1 2.283360 1_556
Co0 S3 2.283360 1_555
Co0 S0 2.283360 1_555
Co1 S0 2.283360 1_565
Co1 S2 2.283360 1_555
Co1 S3 2.283360 1_555
Co2 S1 2.283360 1_455
Co2 S2 2.283360 1_545
Co2 S0 2.283360 1_554
Co3 S1 2.283360 1_555
Co3 S3 2.283360 1_555
Co3 S2 2.283360 1_655
As0 S0 2.289611 1_564
As0 Co0 2.347731 1_554
As0 Co1 2.347731 1_555
As0 Co2 2.347731 1_665
As1 S1 2.289611 1_456
As1 Co3 2.347731 1_455
As1 Co0 2.347731 1_555
As1 Co2 2.347731 1_566
As2 S3 2.289611 1_555
As2 Co0 2.347731 1_554
As2 Co1 2.347731 1_545
As2 Co3 2.347731 1_455
As3 S2 2.289611 1_645
As3 Co1 2.347731 1_545
As3 Co2 2.347731 1_656
As3 Co3 2.347731 1_555
