# generated using pymatgen
data_Zn(WO2)4
_symmetry_space_group_name_H-M   'P 1'
_cell_length_a   6.14073077
_cell_length_b   6.14073077
_cell_length_c   6.14073156
_cell_angle_alpha   64.55411549
_cell_angle_beta   64.55411549
_cell_angle_gamma   64.55410949
_symmetry_Int_Tables_number   1
_chemical_formula_structural   Zn(WO2)4
_chemical_formula_sum   'Zn1 W4 O8'
_cell_volume   180.08268040
_cell_formula_units_Z   1
loop_
 _symmetry_equiv_pos_site_id
 _symmetry_equiv_pos_as_xyz
  1  'x, y, z'
loop_
 _atom_site_type_symbol
 _atom_site_label
 _atom_site_symmetry_multiplicity
 _atom_site_fract_x
 _atom_site_fract_y
 _atom_site_fract_z
 _atom_site_occupancy
  Zn  Zn0  1  0.50000000  0.50000000  0.50000000  1
  W  W0  1  0.00000000  0.50000000  0.50000000  1
  W  W1  1  0.50000000  0.00000000  0.50000000  1
  W  W2  1  0.50000000  0.50000000  0.00000000  1
  W  W3  1  0.00000000  0.00000000  0.00000000  1
  O  O0  1  0.27501100  0.75217200  0.75217200  1
  O  O1  1  0.24782800  0.24782800  0.72498900  1
  O  O2  1  0.72498900  0.24782800  0.24782800  1
  O  O3  1  0.24782800  0.72498900  0.24782800  1
  O  O4  1  0.27126400  0.27126400  0.27126400  1
  O  O5  1  0.72873600  0.72873600  0.72873600  1
  O  O6  1  0.75217200  0.27501100  0.75217200  1
  O  O7  1  0.75217200  0.75217200  0.27501100  1
loop_
_geom_bond_atom_site_label_1
_geom_bond_atom_site_label_2
_geom_bond_distance
_geom_bond_site_symmetry_2
O0 W2 2.136819 1_556
O0 W1 2.136819 1_565
O0 W3 2.248819 1_566
O0 Zn0 2.255729 1_555
O1 W0 2.136819 1_555
O1 W1 2.136819 1_555
O1 W3 2.248819 1_556
O1 Zn0 2.255729 1_555
O2 W2 2.136819 1_555
O2 W1 2.136819 1_555
O2 W3 2.248819 1_655
O2 Zn0 2.255729 1_555
O3 W2 2.136819 1_555
O3 W0 2.136819 1_555
O3 W3 2.248819 1_565
O3 Zn0 2.255729 1_555
O4 W0 2.096379 1_555
O4 W1 2.096379 1_555
O4 W2 2.096379 1_555
O5 W0 2.096379 1_655
O5 W1 2.096379 1_565
O5 W2 2.096379 1_556
O6 W2 2.136819 1_556
O6 W0 2.136819 1_655
O6 W3 2.248819 1_656
O6 Zn0 2.255729 1_555
O7 W1 2.136819 1_565
O7 W0 2.136819 1_655
O7 W3 2.248819 1_665
O7 Zn0 2.255729 1_555
