# generated using pymatgen
data_EuZrFeBiO6
_symmetry_space_group_name_H-M   'P 1'
_cell_length_a   9.44551351
_cell_length_b   9.92652081
_cell_length_c   9.05589717
_cell_angle_alpha   90.00000000
_cell_angle_beta   90.00000000
_cell_angle_gamma   90.00000000
_symmetry_Int_Tables_number   1
_chemical_formula_structural   EuZrFeBiO6
_chemical_formula_sum   'Eu4 Zr4 Fe4 Bi4 O24'
_cell_volume   849.09075715
_cell_formula_units_Z   4
loop_
 _symmetry_equiv_pos_site_id
 _symmetry_equiv_pos_as_xyz
  1  'x, y, z'
loop_
 _atom_site_type_symbol
 _atom_site_label
 _atom_site_symmetry_multiplicity
 _atom_site_fract_x
 _atom_site_fract_y
 _atom_site_fract_z
 _atom_site_occupancy
  Eu  Eu0  1  0.00000000  0.50000000  0.50000000  1
  Eu  Eu1  1  0.50000000  0.00000000  0.00000000  1
  Eu  Eu2  1  0.00000000  0.50000000  0.00000000  1
  Eu  Eu3  1  0.00000000  0.00000000  0.50000000  1
  Zr  Zr0  1  0.24935068  0.25007923  0.24917805  1
  Zr  Zr1  1  0.75064932  0.74992077  0.24917805  1
  Zr  Zr2  1  0.75064932  0.25007923  0.75082195  1
  Zr  Zr3  1  0.24935068  0.74992077  0.75082195  1
  Fe  Fe0  1  0.75043912  0.74963970  0.75036022  1
  Fe  Fe1  1  0.24956088  0.25036030  0.75036022  1
  Fe  Fe2  1  0.24956088  0.74963970  0.24963978  1
  Fe  Fe3  1  0.75043912  0.25036030  0.24963978  1
  Bi  Bi0  1  0.50000000  0.00000000  0.50000000  1
  Bi  Bi1  1  0.50000000  0.50000000  0.00000000  1
  Bi  Bi2  1  0.00000000  0.00000000  0.00000000  1
  Bi  Bi3  1  0.50000000  0.50000000  0.50000000  1
  O  O0  1  0.00348976  0.19521690  0.29198723  1
  O  O1  1  0.99651024  0.80478310  0.29198723  1
  O  O2  1  0.99651024  0.19521690  0.70801277  1
  O  O3  1  0.00348976  0.80478310  0.70801277  1
  O  O4  1  0.29223751  0.00561931  0.19533573  1
  O  O5  1  0.29223751  0.99438069  0.80466427  1
  O  O6  1  0.70776249  0.99438069  0.19533573  1
  O  O7  1  0.70776249  0.00561931  0.80466427  1
  O  O8  1  0.19511292  0.29087559  0.00245860  1
  O  O9  1  0.80488708  0.29087559  -0.00245860  1
  O  O10  1  0.19511292  0.70912441  -0.00245860  1
  O  O11  1  0.80488708  0.70912441  0.00245860  1
  O  O12  1  0.49814130  0.30595563  0.20765076  1
  O  O13  1  0.50185870  0.69404437  0.20765076  1
  O  O14  1  0.50185870  0.30595563  0.79234924  1
  O  O15  1  0.49814130  0.69404437  0.79234924  1
  O  O16  1  0.20785429  0.49386388  0.30614325  1
  O  O17  1  0.20785429  0.50613612  0.69385675  1
  O  O18  1  0.79214571  0.50613612  0.30614325  1
  O  O19  1  0.79214571  0.49386388  0.69385675  1
  O  O20  1  0.30601428  0.20690777  0.49872859  1
  O  O21  1  0.69398572  0.20690777  0.50127141  1
  O  O22  1  0.30601428  0.79309223  0.50127141  1
  O  O23  1  0.69398572  0.79309223  0.49872859  1
loop_
_geom_bond_atom_site_label_1
_geom_bond_atom_site_label_2
_geom_bond_distance
_geom_bond_site_symmetry_2
Eu0 O16 2.634419 1_555
Eu0 O18 2.634419 1_455
Eu0 O19 2.634419 1_455
Eu0 O17 2.634419 1_555
Eu1 O5 2.642606 1_544
Eu1 O4 2.642606 1_555
Eu1 O7 2.642606 1_554
Eu1 O6 2.642606 1_545
Eu2 O10 2.776004 1_555
Eu2 O9 2.776004 1_455
Eu2 O8 2.776004 1_555
Eu2 O11 2.776004 1_455
Eu3 O2 2.702727 1_455
Eu3 O1 2.702727 1_445
Eu3 O0 2.702727 1_555
Eu3 O3 2.702727 1_545
Fe0 O11 2.374494 1_556
Fe0 O23 2.379724 1_555
Fe0 O15 2.475526 1_555
Fe0 O3 2.481878 1_655
Fe0 O7 2.619341 1_565
Fe0 O19 2.619800 1_555
Fe1 O8 2.374494 1_556
Fe1 O20 2.379724 1_555
Fe1 O14 2.475526 1_555
Fe1 O2 2.481878 1_455
Fe1 O5 2.619341 1_545
Fe1 O17 2.619800 1_555
Fe2 O10 2.374494 1_555
Fe2 O22 2.379724 1_555
Fe2 O13 2.475526 1_555
Fe2 O1 2.481878 1_455
Fe2 O4 2.619341 1_565
Fe2 O16 2.619800 1_555
Fe3 O9 2.374494 1_555
Fe3 O21 2.379724 1_555
Fe3 O12 2.475526 1_555
Fe3 O0 2.481878 1_655
Fe3 O6 2.619341 1_545
Fe3 O18 2.619800 1_555
Bi0 O22 2.752424 1_545
Bi0 O23 2.752424 1_545
Bi0 O20 2.752424 1_555
Bi0 O21 2.752424 1_555
Bi1 O15 2.691959 1_554
Bi1 O14 2.691959 1_554
Bi1 O13 2.691959 1_555
Bi1 O12 2.691959 1_555
O0 Zr0 2.416582 1_555
O1 Zr1 2.416582 1_555
O2 Zr2 2.416582 1_555
O3 Zr3 2.416582 1_555
O4 Zr0 2.508068 1_555
O5 Zr3 2.508068 1_555
O6 Zr1 2.508068 1_555
O7 Zr2 2.508068 1_555
O8 Zr0 2.327745 1_555
O9 Zr2 2.327745 1_554
O10 Zr3 2.327745 1_554
O11 Zr1 2.327745 1_555
O12 Zr0 2.443637 1_555
O13 Zr1 2.443637 1_555
O14 Zr2 2.443637 1_555
O15 Zr3 2.443637 1_555
O16 Zr0 2.505160 1_555
O17 Zr3 2.505160 1_555
O18 Zr1 2.505160 1_555
O19 Zr2 2.505160 1_555
O20 Zr0 2.361625 1_555
O21 Zr2 2.361625 1_555
O22 Zr3 2.361625 1_555
O23 Zr1 2.361625 1_555
