# generated using pymatgen
data_La2RuO5
_symmetry_space_group_name_H-M   'P 1'
_cell_length_a   5.87526047
_cell_length_b   8.00817992
_cell_length_c   9.25258965
_cell_angle_alpha   78.86131280
_cell_angle_beta   88.19643353
_cell_angle_gamma   89.78858016
_symmetry_Int_Tables_number   1
_chemical_formula_structural   La2RuO5
_chemical_formula_sum   'La8 Ru4 O20'
_cell_volume   426.92213736
_cell_formula_units_Z   4
loop_
 _symmetry_equiv_pos_site_id
 _symmetry_equiv_pos_as_xyz
  1  'x, y, z'
loop_
 _atom_site_type_symbol
 _atom_site_label
 _atom_site_symmetry_multiplicity
 _atom_site_fract_x
 _atom_site_fract_y
 _atom_site_fract_z
 _atom_site_occupancy
  La  La0  1  0.24958500  0.03852900  0.82529600  1
  La  La1  1  0.75041500  0.96147100  0.17470400  1
  La  La2  1  0.23973000  0.53730000  0.82966100  1
  La  La3  1  0.76027000  0.46270000  0.17033900  1
  La  La4  1  0.73096500  0.62032600  0.55311600  1
  La  La5  1  0.26903500  0.37967400  0.44688400  1
  La  La6  1  0.24191300  0.88142500  0.44698500  1
  La  La7  1  0.75808700  0.11857500  0.55301500  1
  Ru  Ru0  1  0.74407800  0.78938900  0.85246700  1
  Ru  Ru1  1  0.25592200  0.21061100  0.14753300  1
  Ru  Ru2  1  0.74808600  0.28635000  0.85262400  1
  Ru  Ru3  1  0.25191400  0.71365000  0.14737600  1
  O  O0  1  0.99785900  0.77689100  0.71900200  1
  O  O1  1  0.00214100  0.22310900  0.28099800  1
  O  O2  1  0.48151100  0.27333700  0.72065600  1
  O  O3  1  0.51848900  0.72666300  0.27934400  1
  O  O4  1  0.95664400  0.37009300  0.68902100  1
  O  O5  1  0.04335600  0.62990700  0.31097800  1
  O  O6  1  0.52496700  0.87701600  0.68582900  1
  O  O7  1  0.47503300  0.12298400  0.31417100  1
  O  O8  1  0.97346800  0.69061900  0.01552200  1
  O  O9  1  0.02653200  0.30938100  0.98447800  1
  O  O10  1  0.47298300  0.79042300  0.98390000  1
  O  O11  1  0.52701700  0.20957700  0.01610000  1
  O  O12  1  0.16318900  0.96490500  0.13590300  1
  O  O13  1  0.83681100  0.03509500  0.86409700  1
  O  O14  1  0.65143200  0.54066600  0.84033500  1
  O  O15  1  0.34856800  0.45933400  0.15966500  1
  O  O16  1  0.15763400  0.10356600  0.57668400  1
  O  O17  1  0.84236600  0.89643400  0.42331600  1
  O  O18  1  0.32708000  0.60275600  0.57405900  1
  O  O19  1  0.67292000  0.39724400  0.42594100  1
loop_
_geom_bond_atom_site_label_1
_geom_bond_atom_site_label_2
_geom_bond_distance
_geom_bond_site_symmetry_2
La0 O16 2.338327 1_555
La0 O2 2.358483 1_555
La0 O13 2.439855 1_455
La0 O6 2.540454 1_545
La0 O10 2.607564 1_545
La0 O12 2.849630 1_546
La0 O0 2.907787 1_445
La1 O17 2.338327 1_555
La1 O3 2.358483 1_555
La1 O12 2.439855 1_655
La1 O7 2.540454 1_565
La1 O11 2.607564 1_565
La1 O13 2.849630 1_564
La1 O1 2.907787 1_665
La2 O18 2.361756 1_555
La2 O9 2.417869 1_555
La2 O14 2.424437 1_555
La2 O0 2.462018 1_455
La2 O4 2.660540 1_455
La2 O2 2.866171 1_555
La3 O19 2.361756 1_555
La3 O8 2.417869 1_555
La3 O15 2.424437 1_555
La3 O1 2.462018 1_655
La3 O5 2.660534 1_655
La3 O3 2.866171 1_555
La4 O19 2.352529 1_555
La4 O18 2.377210 1_555
La4 O17 2.386420 1_555
La4 O4 2.542973 1_555
La4 O14 2.637562 1_555
La4 O0 2.701158 1_555
La4 O3 2.838645 1_555
La4 O6 2.839290 1_555
La4 O5 2.840722 1_655
La5 O18 2.352529 1_555
La5 O19 2.377210 1_555
La5 O16 2.386420 1_555
La5 O5 2.542977 1_555
La5 O15 2.637562 1_555
La5 O1 2.701158 1_555
La5 O2 2.838645 1_555
La5 O7 2.839290 1_555
La5 O4 2.840715 1_455
La6 O17 2.364953 1_455
La6 O18 2.372338 1_555
La6 O16 2.372948 1_565
La6 O7 2.474524 1_565
La6 O3 2.674264 1_555
La6 O6 2.802034 1_555
La6 O0 2.838843 1_455
La6 O5 2.844397 1_555
La6 O12 2.878125 1_555
La7 O16 2.364953 1_655
La7 O19 2.372338 1_555
La7 O17 2.372948 1_545
La7 O6 2.474524 1_545
La7 O2 2.674264 1_555
La7 O7 2.802034 1_555
La7 O1 2.838843 1_655
La7 O4 2.844392 1_555
La7 O13 2.878125 1_555
O0 Ru0 1.920653 1_555
O1 Ru1 1.920653 1_555
O2 Ru2 2.031141 1_555
O3 Ru3 2.031141 1_555
O4 Ru2 1.933832 1_555
O5 Ru3 1.933826 1_555
O6 Ru0 2.056002 1_555
O7 Ru1 2.056002 1_555
O8 Ru0 2.092169 1_554
O8 Ru3 2.100832 1_655
O9 Ru1 2.092169 1_556
O9 Ru2 2.100832 1_455
O10 Ru3 1.968702 1_556
O10 Ru0 1.974257 1_555
O11 Ru2 1.968702 1_554
O11 Ru1 1.974257 1_555
O12 Ru3 2.060279 1_555
O12 Ru1 2.067246 1_565
O13 Ru2 2.060279 1_555
O13 Ru0 2.067246 1_545
O14 Ru0 2.091521 1_555
O14 Ru2 2.095049 1_555
O15 Ru1 2.091521 1_555
O15 Ru3 2.095049 1_555
