# generated using pymatgen
data_YMg14Cd
_symmetry_space_group_name_H-M   'P 1'
_cell_length_a   6.46757402
_cell_length_b   6.46757347
_cell_length_c   10.43051179
_cell_angle_alpha   90.00000000
_cell_angle_beta   90.00000000
_cell_angle_gamma   120.00000280
_symmetry_Int_Tables_number   1
_chemical_formula_structural   YMg14Cd
_chemical_formula_sum   'Y1 Mg14 Cd1'
_cell_volume   377.84964336
_cell_formula_units_Z   1
loop_
 _symmetry_equiv_pos_site_id
 _symmetry_equiv_pos_as_xyz
  1  'x, y, z'
loop_
 _atom_site_type_symbol
 _atom_site_label
 _atom_site_symmetry_multiplicity
 _atom_site_fract_x
 _atom_site_fract_y
 _atom_site_fract_z
 _atom_site_occupancy
  Y  Y0  1  0.16666700  0.33333300  0.12500000  1
  Mg  Mg0  1  0.17807059  0.83903479  0.12500000  1
  Mg  Mg1  1  0.16395359  0.83197629  0.62500000  1
  Mg  Mg2  1  0.66096521  0.32192941  0.12500000  1
  Mg  Mg3  1  0.66802371  0.33604641  0.62500000  1
  Mg  Mg4  1  0.66096521  0.83903479  0.12500000  1
  Mg  Mg5  1  0.66802371  0.83197629  0.62500000  1
  Mg  Mg6  1  0.33332006  0.16667994  0.38110156  1
  Mg  Mg7  1  0.33332006  0.16667994  0.86889844  1
  Mg  Mg8  1  0.33332006  0.66664111  0.38110156  1
  Mg  Mg9  1  0.33332006  0.66664111  0.86889844  1
  Mg  Mg10  1  0.83335889  0.16667994  0.38110156  1
  Mg  Mg11  1  0.83335889  0.16667994  0.86889844  1
  Mg  Mg12  1  0.83333300  0.66666700  0.37112203  1
  Mg  Mg13  1  0.83333300  0.66666700  0.87887797  1
  Cd  Cd0  1  0.16666700  0.33333300  0.62500000  1
loop_
_geom_bond_atom_site_label_1
_geom_bond_atom_site_label_2
_geom_bond_distance
_geom_bond_site_symmetry_2
Mg0 Mg2 3.123156 1_565
Mg0 Mg4 3.123157 1_555
Mg0 Mg12 3.212288 1_455
Mg0 Mg13 3.212288 1_454
Mg0 Y0 3.234417 1_555
Mg0 Y0 3.234418 1_565
Mg0 Mg9 3.241382 1_554
Mg0 Mg8 3.241382 1_555
Mg0 Mg7 3.241389 1_564
Mg0 Mg6 3.241389 1_565
Mg0 Mg2 3.344417 1_455
Mg0 Mg4 3.344417 1_455
Mg1 Mg8 3.160143 1_555
Mg1 Mg9 3.160143 1_555
Mg1 Mg6 3.160149 1_565
Mg1 Mg7 3.160149 1_565
Mg1 Mg3 3.207463 1_455
Mg1 Mg5 3.207463 1_455
Mg1 Mg12 3.231346 1_455
Mg1 Mg13 3.231346 1_455
Mg1 Mg3 3.260111 1_565
Mg1 Mg5 3.260111 1_555
Mg2 Mg4 3.123156 1_545
Mg2 Y0 3.234418 1_655
Mg2 Y0 3.234418 1_555
Mg2 Mg7 3.241389 1_554
Mg2 Mg6 3.241389 1_555
Mg2 Mg4 3.344417 1_555
Mg3 Mg6 3.160149 1_555
Mg3 Mg7 3.160149 1_555
Mg3 Mg5 3.207463 1_555
Mg3 Mg5 3.260111 1_545
Mg4 Y0 3.234417 1_555
Mg4 Y0 3.234417 1_665
Mg4 Mg9 3.241388 1_554
Mg4 Mg8 3.241388 1_555
Mg5 Mg8 3.160149 1_555
Mg5 Mg9 3.160149 1_555
Mg6 Mg8 3.233536 1_555
Mg6 Mg8 3.234038 1_545
Mg6 Y0 3.258974 1_555
Mg7 Mg9 3.233536 1_555
Mg7 Mg9 3.234038 1_545
Mg7 Y0 3.258974 1_556
Mg8 Y0 3.258980 1_555
Mg9 Y0 3.258980 1_556
Mg10 Mg3 3.160143 1_555
Mg10 Mg5 3.160149 1_545
Mg10 Mg8 3.233536 1_655
Mg10 Mg6 3.233536 1_655
Mg10 Mg8 3.234038 1_545
Mg10 Mg6 3.234038 1_555
Mg10 Mg12 3.235462 1_545
Mg10 Mg12 3.235462 1_555
Mg10 Mg2 3.241382 1_555
Mg10 Mg4 3.241388 1_545
Mg10 Y0 3.258980 1_655
Mg11 Mg3 3.160143 1_555
Mg11 Mg5 3.160149 1_545
Mg11 Mg9 3.233536 1_655
Mg11 Mg7 3.233536 1_655
Mg11 Mg9 3.234038 1_545
Mg11 Mg7 3.234038 1_555
Mg11 Mg13 3.235462 1_545
Mg11 Mg13 3.235462 1_555
Mg11 Mg2 3.241382 1_556
Mg11 Mg4 3.241388 1_546
Mg11 Y0 3.258980 1_656
Mg12 Mg4 3.212282 1_555
Mg12 Mg2 3.212288 1_555
Mg12 Mg5 3.231340 1_555
Mg12 Mg3 3.231346 1_555
Mg12 Mg6 3.235462 1_665
Mg12 Mg6 3.235462 1_555
Mg12 Mg8 3.235462 1_555
Mg12 Mg8 3.235462 1_655
Mg13 Mg4 3.212282 1_556
Mg13 Mg2 3.212288 1_556
Mg13 Mg5 3.231340 1_555
Mg13 Mg3 3.231346 1_555
Mg13 Mg7 3.235462 1_665
Mg13 Mg7 3.235462 1_555
Mg13 Mg9 3.235462 1_555
Mg13 Mg9 3.235462 1_655
Cd0 Mg6 3.155485 1_555
Cd0 Mg7 3.155485 1_555
Cd0 Mg8 3.155492 1_555
Cd0 Mg9 3.155492 1_555
Cd0 Mg10 3.155492 1_455
Cd0 Mg11 3.155492 1_455
Cd0 Mg1 3.233822 1_555
Cd0 Mg5 3.233822 1_445
Cd0 Mg5 3.233822 1_555
Cd0 Mg1 3.233822 1_545
Cd0 Mg3 3.233823 1_455
Cd0 Mg3 3.233823 1_555
