# generated using pymatgen
data_Mg14NbV
_symmetry_space_group_name_H-M   'P 1'
_cell_length_a   6.31340958
_cell_length_b   6.31340908
_cell_length_c   10.04232178
_cell_angle_alpha   90.00000000
_cell_angle_beta   90.00000000
_cell_angle_gamma   120.00000264
_symmetry_Int_Tables_number   1
_chemical_formula_structural   Mg14NbV
_chemical_formula_sum   'Mg14 Nb1 V1'
_cell_volume   346.65115257
_cell_formula_units_Z   1
loop_
 _symmetry_equiv_pos_site_id
 _symmetry_equiv_pos_as_xyz
  1  'x, y, z'
loop_
 _atom_site_type_symbol
 _atom_site_label
 _atom_site_symmetry_multiplicity
 _atom_site_fract_x
 _atom_site_fract_y
 _atom_site_fract_z
 _atom_site_occupancy
  Mg  Mg0  1  0.16834703  0.83417301  0.12500000  1
  Mg  Mg1  1  0.17032005  0.83515952  0.62500000  1
  Mg  Mg2  1  0.66582699  0.33165297  0.12500000  1
  Mg  Mg3  1  0.66484048  0.32967995  0.62500000  1
  Mg  Mg4  1  0.66582699  0.83417301  0.12500000  1
  Mg  Mg5  1  0.66484048  0.83515952  0.62500000  1
  Mg  Mg6  1  0.32783564  0.17216436  0.37583063  1
  Mg  Mg7  1  0.32783564  0.17216436  0.87416937  1
  Mg  Mg8  1  0.32783564  0.65567229  0.37583063  1
  Mg  Mg9  1  0.32783564  0.65567229  0.87416937  1
  Mg  Mg10  1  0.84432771  0.17216436  0.37583063  1
  Mg  Mg11  1  0.84432771  0.17216436  0.87416937  1
  Mg  Mg12  1  0.83333300  0.66666700  0.37645721  1
  Mg  Mg13  1  0.83333300  0.66666700  0.87354279  1
  Nb  Nb0  1  0.16666700  0.33333300  0.62500000  1
  V  V0  1  0.16666700  0.33333300  0.12500000  1
loop_
_geom_bond_atom_site_label_1
_geom_bond_atom_site_label_2
_geom_bond_distance
_geom_bond_site_symmetry_2
Mg0 Mg12 3.119596 1_455
Mg0 Mg13 3.119596 1_454
Mg0 Mg8 3.124677 1_555
Mg0 Mg9 3.124677 1_554
Mg0 Mg6 3.124683 1_565
Mg0 Mg7 3.124683 1_564
Mg0 Mg2 3.140794 1_565
Mg0 Mg4 3.140795 1_555
Mg0 V0 3.156718 1_555
Mg0 V0 3.156718 1_565
Mg0 Mg2 3.172615 1_455
Mg0 Mg4 3.172615 1_455
Mg1 Mg13 3.102348 1_455
Mg1 Mg12 3.102348 1_455
Mg1 Mg9 3.108237 1_555
Mg1 Mg8 3.108237 1_555
Mg1 Mg7 3.108244 1_565
Mg1 Mg6 3.108244 1_565
Mg1 Mg3 3.122110 1_565
Mg1 Mg5 3.122110 1_555
Mg1 Nb0 3.156768 1_555
Mg1 Nb0 3.156768 1_565
Mg1 Mg3 3.191299 1_455
Mg1 Mg5 3.191300 1_455
Mg2 Mg6 3.124683 1_555
Mg2 Mg7 3.124683 1_554
Mg2 Mg4 3.140794 1_545
Mg2 V0 3.156718 1_655
Mg2 V0 3.156718 1_555
Mg2 Mg4 3.172615 1_555
Mg3 Mg7 3.108244 1_555
Mg3 Mg6 3.108244 1_555
Mg3 Mg5 3.122110 1_545
Mg3 Nb0 3.156768 1_655
Mg3 Nb0 3.156768 1_555
Mg3 Mg5 3.191299 1_555
Mg4 Mg8 3.124683 1_555
Mg4 Mg9 3.124683 1_554
Mg4 V0 3.156718 1_555
Mg4 V0 3.156718 1_665
Mg5 Mg9 3.108244 1_555
Mg5 Mg8 3.108244 1_555
Mg5 Nb0 3.156768 1_555
Mg5 Nb0 3.156768 1_665
Mg6 Mg8 3.052583 1_555
Mg6 Nb0 3.060598 1_555
Mg6 V0 3.074253 1_555
Mg6 Mg8 3.260826 1_545
Mg7 Mg9 3.052583 1_555
Mg7 Nb0 3.060598 1_555
Mg7 V0 3.074253 1_556
Mg7 Mg9 3.260826 1_545
Mg8 Nb0 3.060605 1_555
Mg8 V0 3.074259 1_555
Mg9 Nb0 3.060605 1_555
Mg9 V0 3.074259 1_556
Mg10 Mg8 3.052583 1_655
Mg10 Mg6 3.052584 1_655
Mg10 Nb0 3.060605 1_655
Mg10 V0 3.074259 1_655
Mg10 Mg3 3.108237 1_555
Mg10 Mg5 3.108244 1_545
Mg10 Mg2 3.124677 1_555
Mg10 Mg4 3.124683 1_545
Mg10 Mg12 3.157283 1_555
Mg10 Mg12 3.157283 1_545
Mg10 Mg8 3.260826 1_545
Mg10 Mg6 3.260826 1_555
Mg11 Mg9 3.052583 1_655
Mg11 Mg7 3.052584 1_655
Mg11 Nb0 3.060605 1_655
Mg11 V0 3.074259 1_656
Mg11 Mg3 3.108237 1_555
Mg11 Mg5 3.108244 1_545
Mg11 Mg2 3.124677 1_556
Mg11 Mg4 3.124683 1_546
Mg11 Mg13 3.157283 1_555
Mg11 Mg13 3.157283 1_545
Mg11 Mg9 3.260826 1_545
Mg11 Mg7 3.260826 1_555
Mg12 Mg5 3.102341 1_555
Mg12 Mg3 3.102348 1_555
Mg12 Mg4 3.119590 1_555
Mg12 Mg2 3.119596 1_555
Mg12 Mg6 3.157283 1_665
Mg12 Mg6 3.157283 1_555
Mg12 Mg8 3.157283 1_655
Mg12 Mg8 3.157283 1_555
Mg13 Mg5 3.102341 1_555
Mg13 Mg3 3.102348 1_555
Mg13 Mg4 3.119590 1_556
Mg13 Mg2 3.119596 1_556
Mg13 Mg7 3.157283 1_665
Mg13 Mg7 3.157283 1_555
Mg13 Mg9 3.157283 1_655
Mg13 Mg9 3.157283 1_555
