# generated using pymatgen
data_H4CSIN2
_symmetry_space_group_name_H-M   'P 1'
_cell_length_a   11.78471506
_cell_length_b   11.78471506
_cell_length_c   10.01988573
_cell_angle_alpha   64.97243220
_cell_angle_beta   64.97243220
_cell_angle_gamma   26.44990135
_symmetry_Int_Tables_number   1
_chemical_formula_structural   H4CSIN2
_chemical_formula_sum   'H16 C4 S4 I4 N8'
_cell_volume   558.23101483
_cell_formula_units_Z   4
loop_
 _symmetry_equiv_pos_site_id
 _symmetry_equiv_pos_as_xyz
  1  'x, y, z'
loop_
 _atom_site_type_symbol
 _atom_site_label
 _atom_site_symmetry_multiplicity
 _atom_site_fract_x
 _atom_site_fract_y
 _atom_site_fract_z
 _atom_site_occupancy
  H  H0  1  0.30885000  0.06238600  0.80877700  1
  H  H1  1  0.93761400  0.69115000  0.69122300  1
  H  H2  1  0.69115000  0.93761400  0.19122300  1
  H  H3  1  0.06238600  0.30885000  0.30877700  1
  H  H4  1  0.23604300  0.98987700  0.78880300  1
  H  H5  1  0.01012300  0.76395700  0.71119700  1
  H  H6  1  0.76395700  0.01012300  0.21119700  1
  H  H7  1  0.98987700  0.23604300  0.28880300  1
  H  H8  1  0.53652000  0.56864500  0.83646600  1
  H  H9  1  0.43135500  0.46348000  0.66353400  1
  H  H10  1  0.46348000  0.43135500  0.16353400  1
  H  H11  1  0.56864500  0.53652000  0.33646600  1
  H  H12  1  0.77635000  0.35029500  0.94972500  1
  H  H13  1  0.64970500  0.22365000  0.55027500  1
  H  H14  1  0.22365000  0.64970500  0.05027500  1
  H  H15  1  0.35029500  0.77635000  0.44972500  1
  C  C0  1  0.56443500  0.69584000  0.88420300  1
  C  C1  1  0.30416000  0.43556500  0.61579700  1
  C  C2  1  0.43556500  0.30416000  0.11579700  1
  C  C3  1  0.69584000  0.56443500  0.38420300  1
  S  S0  1  0.76672500  0.58715800  0.95353700  1
  S  S1  1  0.41284200  0.23327500  0.54646300  1
  S  S2  1  0.23327500  0.41284200  0.04646300  1
  S  S3  1  0.58715800  0.76672500  0.45353700  1
  I  I0  1  0.50000000  0.00000000  0.00000000  1
  I  I1  1  0.00000000  0.50000000  0.50000000  1
  I  I2  1  0.05382900  0.94617100  0.75000000  1
  I  I3  1  0.94617100  0.05382900  0.25000000  1
  N  N0  1  0.35109700  0.93604900  0.82509500  1
  N  N1  1  0.06395100  0.64890300  0.67490500  1
  N  N2  1  0.64890300  0.06395100  0.17490500  1
  N  N3  1  0.93604900  0.35109700  0.32509500  1
  N  N4  1  0.63459100  0.52329600  0.88759600  1
  N  N5  1  0.47670400  0.36540900  0.61240400  1
  N  N6  1  0.36540900  0.47670400  0.11240400  1
  N  N7  1  0.52329600  0.63459100  0.38759600  1
loop_
_geom_bond_atom_site_label_1
_geom_bond_atom_site_label_2
_geom_bond_distance
_geom_bond_site_symmetry_2
H0 N0 1.013339 1_545
H1 N1 1.013339 1_655
H2 N2 1.013339 1_565
H3 N3 1.013339 1_455
H4 N0 1.027086 1_555
H5 N1 1.027086 1_555
H6 N2 1.027086 1_555
H7 N3 1.027086 1_555
H8 N4 1.023294 1_555
H9 N5 1.023294 1_555
H10 N6 1.023294 1_555
H11 N7 1.023294 1_555
H12 N4 1.020884 1_555
H13 N5 1.020884 1_555
H14 N6 1.020884 1_555
H15 N7 1.020884 1_555
C0 N4 1.332033 1_555
C0 N0 1.335032 1_555
C0 S0 1.728355 1_555
C1 N5 1.332033 1_555
C1 N1 1.335032 1_555
C1 S1 1.728355 1_555
C2 N6 1.332033 1_555
C2 N2 1.335032 1_555
C2 S2 1.728355 1_555
C3 N7 1.332033 1_555
C3 N3 1.335032 1_555
C3 S3 1.728355 1_555
I0 S2 2.657385 1_555
I0 S0 2.657385 1_544
I1 S1 2.657385 1_555
I1 S3 2.657385 1_455
