# generated using pymatgen
data_Mg6NiMo
_symmetry_space_group_name_H-M   'P 1'
_cell_length_a   4.75280500
_cell_length_b   5.97460000
_cell_length_c   10.54044400
_cell_angle_alpha   90.00000000
_cell_angle_beta   90.00000000
_cell_angle_gamma   90.00000000
_symmetry_Int_Tables_number   1
_chemical_formula_structural   Mg6NiMo
_chemical_formula_sum   'Mg12 Ni2 Mo2'
_cell_volume   299.30759413
_cell_formula_units_Z   2
loop_
 _symmetry_equiv_pos_site_id
 _symmetry_equiv_pos_as_xyz
  1  'x, y, z'
loop_
 _atom_site_type_symbol
 _atom_site_label
 _atom_site_symmetry_multiplicity
 _atom_site_fract_x
 _atom_site_fract_y
 _atom_site_fract_z
 _atom_site_occupancy
  Mg  Mg0  1  0.50000000  0.25228300  0.41902300  1
  Mg  Mg1  1  0.50000000  0.74771700  0.41902300  1
  Mg  Mg2  1  0.00000000  0.75022800  0.08926200  1
  Mg  Mg3  1  0.00000000  0.24977200  0.08926200  1
  Mg  Mg4  1  0.00000000  0.00000000  0.32134300  1
  Mg  Mg5  1  0.00000000  0.50000000  0.32462800  1
  Mg  Mg6  1  0.50000000  0.75228300  0.91902300  1
  Mg  Mg7  1  0.50000000  0.24771700  0.91902300  1
  Mg  Mg8  1  0.00000000  0.25022800  0.58926200  1
  Mg  Mg9  1  0.00000000  0.74977200  0.58926200  1
  Mg  Mg10  1  0.00000000  0.50000000  0.82134300  1
  Mg  Mg11  1  0.00000000  0.00000000  0.82462800  1
  Ni  Ni0  1  0.50000000  0.00000000  0.16708500  1
  Ni  Ni1  1  0.50000000  0.50000000  0.66708500  1
  Mo  Mo0  1  0.50000000  0.50000000  0.17037000  1
  Mo  Mo1  1  0.50000000  0.00000000  0.67037000  1
loop_
_geom_bond_atom_site_label_1
_geom_bond_atom_site_label_2
_geom_bond_distance
_geom_bond_site_symmetry_2
Mg0 Mg1 2.960020 1_555
Mg0 Mg5 2.971140 1_655
Mg0 Mg5 2.971140 1_555
Mg0 Mg8 2.977800 1_655
Mg0 Mg8 2.977800 1_555
Mg0 Mg4 2.996543 1_555
Mg0 Mg4 2.996543 1_655
Mg0 Ni1 3.004497 1_555
Mg0 Mo0 3.009919 1_555
Mg0 Mg1 3.014580 1_545
Mg0 Mo1 3.048075 1_555
Mg0 Ni0 3.053491 1_555
Mg1 Mg5 2.971140 1_655
Mg1 Mg5 2.971140 1_555
Mg1 Mg9 2.977800 1_555
Mg1 Mg9 2.977800 1_655
Mg1 Mg4 2.996543 1_565
Mg1 Mg4 2.996543 1_665
Mg1 Ni1 3.004497 1_555
Mg1 Mo0 3.009919 1_555
Mg1 Mo1 3.048075 1_565
Mg1 Ni0 3.053491 1_565
Mg2 Ni0 2.923540 1_565
Mg2 Ni0 2.923540 1_465
Mg2 Mo0 2.934830 1_455
Mg2 Mo0 2.934830 1_555
Mg2 Mg6 2.977800 1_454
Mg2 Mg6 2.977800 1_554
Mg3 Ni0 2.923540 1_455
Mg3 Ni0 2.923540 1_555
Mg3 Mo0 2.934830 1_455
Mg3 Mo0 2.934830 1_555
Mg3 Mg7 2.977800 1_554
Mg3 Mg7 2.977800 1_454
Mg4 Ni0 2.879409 1_455
Mg4 Ni0 2.879409 1_555
Mg5 Mo0 2.879409 1_555
Mg5 Mo0 2.879409 1_455
Mg6 Mg7 2.960020 1_565
Mg6 Ni0 3.004497 1_566
Mg6 Mo1 3.009919 1_565
Mg6 Mg7 3.014580 1_555
Mg6 Mo0 3.048075 1_556
Mg6 Ni1 3.053491 1_555
Mg7 Ni0 3.004497 1_556
Mg7 Mo1 3.009919 1_555
Mg7 Mo0 3.048075 1_556
Mg7 Ni1 3.053491 1_555
Mg8 Ni1 2.923540 1_555
Mg8 Ni1 2.923540 1_455
Mg8 Mo1 2.934830 1_555
Mg8 Mo1 2.934830 1_455
Mg9 Ni1 2.923540 1_555
Mg9 Ni1 2.923540 1_455
Mg9 Mo1 2.934830 1_465
Mg9 Mo1 2.934830 1_565
Mg10 Ni1 2.879409 1_455
Mg10 Ni1 2.879409 1_555
Mg10 Mg7 2.996543 1_555
Mg10 Mg6 2.996543 1_455
Mg10 Mg6 2.996543 1_555
Mg10 Mg7 2.996543 1_455
Mg11 Mo1 2.879409 1_555
Mg11 Mo1 2.879409 1_455
Mg11 Mg7 2.971140 1_555
Mg11 Mg6 2.971140 1_445
Mg11 Mg7 2.971140 1_455
Mg11 Mg6 2.971140 1_545
Mo0 Ni0 2.987501 1_555
Mo0 Ni0 2.987501 1_565
Mo1 Ni1 2.987501 1_555
Mo1 Ni1 2.987501 1_545
