# generated using pymatgen
data_RbMgCu2H3(SO5)2
_symmetry_space_group_name_H-M   'P 1'
_cell_length_a   5.45532942
_cell_length_b   6.98002124
_cell_length_c   8.51574768
_cell_angle_alpha   68.43788128
_cell_angle_beta   83.37728560
_cell_angle_gamma   119.58620784
_symmetry_Int_Tables_number   1
_chemical_formula_structural   RbMgCu2H3(SO5)2
_chemical_formula_sum   'Rb1 Mg1 Cu2 H3 S2 O10'
_cell_volume   243.95650166
_cell_formula_units_Z   1
loop_
 _symmetry_equiv_pos_site_id
 _symmetry_equiv_pos_as_xyz
  1  'x, y, z'
loop_
 _atom_site_type_symbol
 _atom_site_label
 _atom_site_symmetry_multiplicity
 _atom_site_fract_x
 _atom_site_fract_y
 _atom_site_fract_z
 _atom_site_occupancy
  Rb  Rb0  1  0.53755500  0.00603900  0.52799000  1
  Mg  Mg0  1  0.42122700  0.63183200  0.26450600  1
  Cu  Cu0  1  0.02873600  0.53747900  0.99069400  1
  Cu  Cu1  1  0.34192700  0.01121000  0.94735100  1
  H  H0  1  0.75276500  0.58217800  0.77464700  1
  H  H1  1  0.15135800  0.28991400  0.16967800  1
  H  H2  1  0.55616000  0.52409900  0.96642500  1
  S  S0  1  0.09192400  0.26079300  0.71223500  1
  S  S1  1  0.94091300  0.75913900  0.33159300  1
  O  O0  1  0.76665000  0.05924200  0.82752700  1
  O  O1  1  0.22394900  0.46873400  0.75438900  1
  O  O2  1  0.26185000  0.86553700  0.21304300  1
  O  O3  1  0.71818400  0.52217500  0.33266500  1
  O  O4  1  0.71433900  0.51205300  0.90522800  1
  O  O5  1  0.27351300  0.47576100  0.11254600  1
  O  O6  1  0.26632500  0.14481500  0.73241800  1
  O  O7  1  0.85470400  0.93589300  0.24188900  1
  O  O8  1  0.11994900  0.36271400  0.51582800  1
  O  O9  1  0.94614400  0.73416800  0.50834900  1
loop_
_geom_bond_atom_site_label_1
_geom_bond_atom_site_label_2
_geom_bond_distance
_geom_bond_site_symmetry_2
Mg0 O5 1.980032 1_555
Mg0 O8 1.998834 1_555
Mg0 O2 2.138223 1_555
Mg0 O3 2.159144 1_555
Mg0 O7 2.184517 1_555
Cu0 O4 1.893462 1_455
Cu0 O5 1.898563 1_556
Cu0 O1 2.476650 1_555
Cu1 O6 1.920719 1_555
Cu1 O2 1.996585 1_546
Cu1 O0 2.226711 1_555
H0 O4 0.982296 1_555
H1 O5 0.985525 1_555
H2 O4 1.011636 1_555
H2 O5 1.665794 1_556
O0 S0 1.486503 1_655
O0 Rb0 3.029794 1_555
O1 S0 1.471254 1_555
O1 Rb0 2.880649 1_565
O2 S1 1.547041 1_455
O3 S1 1.487960 1_555
O3 Rb0 2.903204 1_555
O6 S0 1.511973 1_555
O6 Rb0 2.866856 1_555
O7 S1 1.513258 1_555
O7 Rb0 3.148018 1_565
O8 S0 1.511935 1_555
O8 Rb0 2.868277 1_455
O9 S1 1.455621 1_555
O9 Rb0 2.889703 1_665
