# generated using pymatgen
data_Li4MnCo2O7
_symmetry_space_group_name_H-M   'P 1'
_cell_length_a   4.97664800
_cell_length_b   6.61520156
_cell_length_c   7.78464650
_cell_angle_alpha   85.48136212
_cell_angle_beta   78.17436258
_cell_angle_gamma   82.31458357
_symmetry_Int_Tables_number   1
_chemical_formula_structural   Li4MnCo2O7
_chemical_formula_sum   'Li8 Mn2 Co4 O14'
_cell_volume   248.24087183
_cell_formula_units_Z   2
loop_
 _symmetry_equiv_pos_site_id
 _symmetry_equiv_pos_as_xyz
  1  'x, y, z'
loop_
 _atom_site_type_symbol
 _atom_site_label
 _atom_site_symmetry_multiplicity
 _atom_site_fract_x
 _atom_site_fract_y
 _atom_site_fract_z
 _atom_site_occupancy
  Li  Li0  1  0.79271200  0.43463600  0.92243300  1
  Li  Li1  1  0.92894800  0.14300200  0.63754200  1
  Li  Li2  1  0.64741100  0.71458100  0.22128200  1
  Li  Li3  1  0.49346700  0.99384300  0.49987100  1
  Li  Li4  1  0.34698600  0.29429100  0.77975000  1
  Li  Li5  1  0.21909900  0.56658000  0.06790300  1
  Li  Li6  1  0.07655300  0.85151900  0.37070000  1
  Li  Li7  1  0.14546900  0.71276700  0.71190100  1
  Mn  Mn0  1  0.00031200  0.99894200  0.99925100  1
  Mn  Mn1  1  0.57261600  0.85563100  0.85402200  1
  Co  Co0  1  0.28275900  0.43245600  0.43199800  1
  Co  Co1  1  0.43011400  0.13949900  0.14041600  1
  Co  Co2  1  0.71090800  0.57797800  0.57807500  1
  Co  Co3  1  0.85435000  0.28630800  0.28748700  1
  O  O0  1  0.67840600  0.12333400  0.90821400  1
  O  O1  1  0.79625300  0.86031300  0.62649500  1
  O  O2  1  0.54086800  0.39836000  0.18051300  1
  O  O3  1  0.41103400  0.70055900  0.46585400  1
  O  O4  1  0.24967700  0.99624800  0.77428600  1
  O  O5  1  0.11380000  0.26208800  0.04105700  1
  O  O6  1  0.97699400  0.55957700  0.32486800  1
  O  O7  1  0.87983100  0.74273500  0.96543000  1
  O  O8  1  0.02105700  0.43226100  0.66733800  1
  O  O9  1  0.75137100  0.00920200  0.23004400  1
  O  O10  1  0.59731400  0.29361300  0.52517300  1
  O  O11  1  0.47722800  0.59507700  0.82667600  1
  O  O12  1  0.32107900  0.87705100  0.09251400  1
  O  O13  1  0.18338500  0.14754900  0.36890600  1
loop_
_geom_bond_atom_site_label_1
_geom_bond_atom_site_label_2
_geom_bond_distance
_geom_bond_site_symmetry_2
Li0 O11 2.014084 1_555
Li0 O8 2.076135 1_655
Li0 O2 2.153414 1_556
Li0 O5 2.158687 1_656
Li0 O7 2.203936 1_555
Li0 O0 2.225249 1_555
Li1 O8 2.067258 1_655
Li1 O1 2.078336 1_545
Li1 O10 2.120460 1_555
Li1 O4 2.177721 1_645
Li1 O13 2.211896 1_655
Li1 O0 2.221434 1_555
Li2 O3 2.025014 1_555
Li2 O6 2.086614 1_555
Li2 O9 2.091877 1_565
Li2 O7 2.096294 1_554
Li2 O12 2.197295 1_555
Li2 O2 2.286485 1_555
Li3 O1 2.034239 1_555
Li3 O3 2.083482 1_555
Li3 O13 2.125200 1_565
Li3 O10 2.148421 1_565
Li3 O9 2.228468 1_565
Li3 O4 2.230157 1_555
Li4 O8 2.071172 1_555
Li4 O4 2.097767 1_545
Li4 O10 2.113647 1_555
Li4 O5 2.135485 1_556
Li4 O0 2.235710 1_555
Li4 O11 2.251498 1_555
Li5 O11 2.057283 1_554
Li5 O6 2.113729 1_455
Li5 O2 2.125115 1_555
Li5 O7 2.173558 1_454
Li5 O5 2.183836 1_555
Li5 O12 2.212045 1_555
Li6 O3 2.064229 1_555
Li6 O13 2.094975 1_565
Li6 O6 2.130609 1_455
Li6 O1 2.184604 1_455
Li6 O9 2.236237 1_465
Li6 O12 2.261937 1_555
Li7 O11 2.069207 1_555
Li7 O1 2.081518 1_455
Li7 O3 2.092893 1_555
Li7 O8 2.108014 1_555
Li7 O4 2.127991 1_555
Li7 O7 2.145772 1_455
Mn0 O7 1.925670 1_455
Mn0 O4 1.927585 1_555
Mn0 O12 1.940129 1_556
Mn0 O0 1.940792 1_465
Mn0 O9 1.962601 1_466
Mn0 O5 1.970464 1_566
Mn1 O11 1.886692 1_555
Mn1 O1 1.889301 1_555
Mn1 O4 1.936895 1_555
Mn1 O7 1.945114 1_555
Mn1 O0 2.012310 1_565
Mn1 O12 2.018768 1_556
Co0 O6 1.945654 1_455
Co0 O10 1.948365 1_555
Co0 O3 2.016911 1_555
Co0 O8 2.018594 1_555
Co0 O2 2.120121 1_555
Co0 O13 2.129009 1_555
Co1 O2 1.934115 1_555
Co1 O13 1.943352 1_555
Co1 O9 1.944153 1_555
Co1 O5 1.947493 1_555
Co1 O12 1.970946 1_545
Co1 O0 1.971138 1_554
Co2 O8 1.931466 1_655
Co2 O3 1.935705 1_555
Co2 O11 2.046304 1_555
Co2 O1 2.049270 1_555
Co2 O10 2.128324 1_555
Co2 O6 2.139758 1_555
Co3 O2 1.950059 1_555
Co3 O13 1.964019 1_655
Co3 O10 2.022301 1_555
Co3 O6 2.043501 1_555
Co3 O9 2.072987 1_555
Co3 O5 2.085870 1_655
