# generated using pymatgen
data_Lu(FeO2)2
_symmetry_space_group_name_H-M   'P 1'
_cell_length_a   8.69006581
_cell_length_b   8.69006581
_cell_length_c   8.69006520
_cell_angle_alpha   23.03881170
_cell_angle_beta   23.03881170
_cell_angle_gamma   23.03880398
_symmetry_Int_Tables_number   1
_chemical_formula_structural   Lu(FeO2)2
_chemical_formula_sum   'Lu1 Fe2 O4'
_cell_volume   88.21659181
_cell_formula_units_Z   1
loop_
 _symmetry_equiv_pos_site_id
 _symmetry_equiv_pos_as_xyz
  1  'x, y, z'
loop_
 _atom_site_type_symbol
 _atom_site_label
 _atom_site_symmetry_multiplicity
 _atom_site_fract_x
 _atom_site_fract_y
 _atom_site_fract_z
 _atom_site_occupancy
  Lu  Lu0  1  0.00000000  0.00000000  0.00000000  1
  Fe  Fe0  1  0.78565600  0.78565600  0.78565600  1
  Fe  Fe1  1  0.21434400  0.21434400  0.21434400  1
  O  O0  1  0.70700300  0.70700300  0.70700300  1
  O  O1  1  0.29299700  0.29299700  0.29299700  1
  O  O2  1  0.87164200  0.87164200  0.87164200  1
  O  O3  1  0.12835800  0.12835800  0.12835800  1
loop_
_geom_bond_atom_site_label_1
_geom_bond_atom_site_label_2
_geom_bond_distance
_geom_bond_site_symmetry_2
Lu0 O1 2.250004 1_455
Lu0 O0 2.250004 1_544
Lu0 O1 2.250004 1_545
Lu0 O0 2.250004 1_454
Lu0 O1 2.250004 1_554
Lu0 O0 2.250004 1_445
Fe0 O0 1.995239 1_555
Fe0 O3 2.017916 1_566
Fe0 O3 2.017916 1_656
Fe0 O3 2.017917 1_665
Fe0 O2 2.181259 1_555
Fe1 O1 1.995239 1_555
Fe1 O2 2.017916 1_454
Fe1 O2 2.017916 1_544
Fe1 O2 2.017917 1_445
Fe1 O3 2.181259 1_555
