# generated using pymatgen
data_Rb3YN6
_symmetry_space_group_name_H-M   'P 1'
_cell_length_a   8.17514093
_cell_length_b   8.17514093
_cell_length_c   8.17514080
_cell_angle_alpha   91.19265023
_cell_angle_beta   91.19265023
_cell_angle_gamma   91.19265082
_symmetry_Int_Tables_number   1
_chemical_formula_structural   Rb3YN6
_chemical_formula_sum   'Rb6 Y2 N12'
_cell_volume   546.00850625
_cell_formula_units_Z   2
loop_
 _symmetry_equiv_pos_site_id
 _symmetry_equiv_pos_as_xyz
  1  'x, y, z'
loop_
 _atom_site_type_symbol
 _atom_site_label
 _atom_site_symmetry_multiplicity
 _atom_site_fract_x
 _atom_site_fract_y
 _atom_site_fract_z
 _atom_site_occupancy
  Rb  Rb0  1  0.75000000  0.40479300  0.09520700  1
  Rb  Rb1  1  0.40479300  0.09520700  0.75000000  1
  Rb  Rb2  1  0.09520700  0.75000000  0.40479300  1
  Rb  Rb3  1  0.25000000  0.59520700  0.90479300  1
  Rb  Rb4  1  0.59520700  0.90479300  0.25000000  1
  Rb  Rb5  1  0.90479300  0.25000000  0.59520700  1
  Y  Y0  1  0.50000000  0.50000000  0.50000000  1
  Y  Y1  1  0.00000000  0.00000000  0.00000000  1
  N  N0  1  0.23421600  0.43602500  0.55879100  1
  N  N1  1  0.43602500  0.55879100  0.23421600  1
  N  N2  1  0.55879100  0.23421600  0.43602500  1
  N  N3  1  0.26578400  0.94120900  0.06397500  1
  N  N4  1  0.06397500  0.26578400  0.94120900  1
  N  N5  1  0.94120900  0.06397500  0.26578400  1
  N  N6  1  0.56397500  0.44120900  0.76578400  1
  N  N7  1  0.44120900  0.76578400  0.56397500  1
  N  N8  1  0.76578400  0.56397500  0.44120900  1
  N  N9  1  0.93602500  0.73421600  0.05879100  1
  N  N10  1  0.05879100  0.93602500  0.73421600  1
  N  N11  1  0.73421600  0.05879100  0.93602500  1
loop_
_geom_bond_atom_site_label_1
_geom_bond_atom_site_label_2
_geom_bond_distance
_geom_bond_site_symmetry_2
N0 Y0 2.287426 1_555
N0 Rb3 3.088004 1_555
N0 Rb5 3.088011 1_455
N0 Rb2 3.108250 1_555
N0 Rb1 3.521859 1_555
N1 Y0 2.287426 1_555
N1 Rb4 3.088004 1_555
N1 Rb3 3.088011 1_554
N1 Rb0 3.108250 1_555
N1 Rb2 3.521859 1_555
N2 Y0 2.287426 1_555
N2 Rb5 3.088004 1_555
N2 Rb4 3.088011 1_545
N2 Rb1 3.108250 1_555
N2 Rb0 3.521859 1_555
N3 Y1 2.287426 1_565
N3 Rb3 3.088004 1_554
N3 Rb4 3.088011 1_555
N3 Rb1 3.108250 1_564
N3 Rb2 3.521859 1_555
N4 Y1 2.287426 1_556
N4 Rb5 3.088004 1_455
N4 Rb3 3.088011 1_555
N4 Rb0 3.108250 1_456
N4 Rb1 3.521859 1_555
N5 Y1 2.287426 1_655
N5 Rb4 3.088004 1_545
N5 Rb5 3.088011 1_555
N5 Rb2 3.108250 1_645
N5 Rb0 3.521859 1_555
N6 Y0 2.287426 1_555
N6 Rb1 3.088004 1_555
N6 Rb0 3.088011 1_556
N6 Rb3 3.108250 1_555
N6 Rb5 3.521859 1_555
N7 Y0 2.287426 1_555
N7 Rb2 3.088004 1_555
N7 Rb1 3.088011 1_565
N7 Rb4 3.108250 1_555
N7 Rb3 3.521859 1_555
N8 Y0 2.287426 1_555
N8 Rb0 3.088004 1_555
N8 Rb2 3.088011 1_655
N8 Rb5 3.108250 1_555
N8 Rb4 3.521859 1_555
N9 Y1 2.287426 1_665
N9 Rb2 3.088004 1_655
N9 Rb0 3.088011 1_555
N9 Rb3 3.108250 1_654
N9 Rb4 3.521859 1_555
N10 Y1 2.287426 1_566
N10 Rb1 3.088004 1_565
N10 Rb2 3.088011 1_555
N10 Rb5 3.108250 1_465
N10 Rb3 3.521859 1_555
N11 Y1 2.287426 1_656
N11 Rb0 3.088004 1_556
N11 Rb1 3.088011 1_555
N11 Rb4 3.108250 1_546
N11 Rb5 3.521859 1_555
