# generated using pymatgen
data_GdB12
_symmetry_space_group_name_H-M   'P 1'
_cell_length_a   5.31110176
_cell_length_b   5.31088044
_cell_length_c   5.31110169
_cell_angle_alpha   60.00136896
_cell_angle_beta   59.99723794
_cell_angle_gamma   60.00137896
_symmetry_Int_Tables_number   1
_chemical_formula_structural   GdB12
_chemical_formula_sum   'Gd1 B12'
_cell_volume   105.93042596
_cell_formula_units_Z   1
loop_
 _symmetry_equiv_pos_site_id
 _symmetry_equiv_pos_as_xyz
  1  'x, y, z'
loop_
 _atom_site_type_symbol
 _atom_site_label
 _atom_site_symmetry_multiplicity
 _atom_site_fract_x
 _atom_site_fract_y
 _atom_site_fract_z
 _atom_site_occupancy
  Gd  Gd0  1  -0.00000000  -0.00000000  0.00000000  1
  B  B0  1  0.16243331  0.50001796  0.49998204  1
  B  B1  1  0.83756669  0.49998204  0.50001796  1
  B  B2  1  0.50001796  0.49998204  0.83756669  1
  B  B3  1  0.83756669  0.16243331  0.50001796  1
  B  B4  1  0.49998204  0.83756669  0.16243331  1
  B  B5  1  0.50001796  0.16243331  0.83756669  1
  B  B6  1  0.50000000  0.83753510  0.50000000  1
  B  B7  1  0.83753510  0.50000000  0.16246490  1
  B  B8  1  0.16243331  0.83756669  0.49998204  1
  B  B9  1  0.50000000  0.16246490  0.50000000  1
  B  B10  1  0.16246490  0.50000000  0.83753510  1
  B  B11  1  0.49998204  0.50001796  0.16243331  1
loop_
_geom_bond_atom_site_label_1
_geom_bond_atom_site_label_2
_geom_bond_distance
_geom_bond_site_symmetry_2
B0 B1 1.725400 1_455
B0 B11 1.792681 1_555
B0 B8 1.792681 1_555
B0 B10 1.792815 1_555
B0 B9 1.792815 1_555
B0 Gd0 2.792145 1_565
B0 Gd0 2.792190 1_556
B1 B2 1.792681 1_555
B1 B3 1.792681 1_555
B1 B7 1.792815 1_555
B1 B6 1.792815 1_555
B1 Gd0 2.792145 1_656
B1 Gd0 2.792190 1_665
B2 B5 1.792681 1_555
B2 B6 1.792815 1_555
B2 Gd0 2.792146 1_656
B2 Gd0 2.792190 1_566
B3 B8 1.725400 1_645
B3 B5 1.792681 1_555
B3 B7 1.792815 1_555
B3 B9 1.792815 1_555
B3 Gd0 2.792145 1_656
B3 Gd0 2.792190 1_655
B4 B5 1.725399 1_564
B4 B8 1.792681 1_555
B4 B6 1.792815 1_555
B4 B7 1.792815 1_555
B4 Gd0 2.792146 1_565
B4 Gd0 2.792190 1_665
B5 B9 1.792815 1_555
B5 Gd0 2.792146 1_656
B5 Gd0 2.792190 1_556
B6 B9 1.725663 1_565
B6 B8 1.792815 1_555
B6 Gd0 2.792103 1_665
B6 Gd0 2.792103 1_566
B7 Gd0 2.792103 1_665
B7 Gd0 2.792103 1_655
B8 Gd0 2.792145 1_565
B8 Gd0 2.792190 1_566
B9 Gd0 2.792103 1_556
B9 Gd0 2.792103 1_655
B10 B7 1.725663 1_456
B10 B8 1.792815 1_555
B10 B2 1.792815 1_555
B10 B5 1.792815 1_555
B10 Gd0 2.792103 1_556
B10 Gd0 2.792103 1_566
B11 B2 1.725400 1_554
B11 B4 1.792681 1_555
B11 B9 1.792815 1_555
B11 B7 1.792815 1_555
B11 Gd0 2.792146 1_565
B11 Gd0 2.792190 1_655
