# generated using pymatgen
data_Na3GeMo3O19
_symmetry_space_group_name_H-M   'P 1'
_cell_length_a   8.73385700
_cell_length_b   9.46426077
_cell_length_c   10.72427946
_cell_angle_alpha   72.64867667
_cell_angle_beta   76.60437874
_cell_angle_gamma   82.03731158
_symmetry_Int_Tables_number   1
_chemical_formula_structural   Na3GeMo3O19
_chemical_formula_sum   'Na6 Ge2 Mo6 O38'
_cell_volume   820.79948261
_cell_formula_units_Z   2
loop_
 _symmetry_equiv_pos_site_id
 _symmetry_equiv_pos_as_xyz
  1  'x, y, z'
loop_
 _atom_site_type_symbol
 _atom_site_label
 _atom_site_symmetry_multiplicity
 _atom_site_fract_x
 _atom_site_fract_y
 _atom_site_fract_z
 _atom_site_occupancy
  Na  Na0  1  0.32536300  0.84481600  0.96558400  1
  Na  Na1  1  0.67463700  0.15518400  0.03441600  1
  Na  Na2  1  0.40063000  0.31939100  0.18044400  1
  Na  Na3  1  0.59937000  0.68060900  0.81955600  1
  Na  Na4  1  0.01636200  0.13061200  0.58029500  1
  Na  Na5  1  0.98363800  0.86938800  0.41970500  1
  Ge  Ge0  1  0.31659000  0.44268400  0.50158700  1
  Ge  Ge1  1  0.68341000  0.55731600  0.49841300  1
  Mo  Mo0  1  0.71370000  0.23387300  0.38303100  1
  Mo  Mo1  1  0.28630000  0.76612700  0.61696900  1
  Mo  Mo2  1  0.57253400  0.17823800  0.70643800  1
  Mo  Mo3  1  0.42746600  0.82176200  0.29356200  1
  Mo  Mo4  1  0.33993500  0.42610000  0.83457300  1
  Mo  Mo5  1  0.66006500  0.57390000  0.16542700  1
  O  O0  1  0.89146900  0.12646300  0.40810300  1
  O  O1  1  0.10853100  0.87353700  0.59189700  1
  O  O2  1  0.78894900  0.42085500  0.26664400  1
  O  O3  1  0.21105100  0.57914500  0.73335600  1
  O  O4  1  0.65764800  0.17691800  0.25995000  1
  O  O5  1  0.34235200  0.82308200  0.74005000  1
  O  O6  1  0.57320900  0.13277300  0.54198000  1
  O  O7  1  0.42679100  0.86722700  0.45802000  1
  O  O8  1  0.45306600  0.39223700  0.36520900  1
  O  O9  1  0.54693400  0.60776300  0.63479100  1
  O  O10  1  0.76126100  0.09856200  0.73404200  1
  O  O11  1  0.23873900  0.90143800  0.26595800  1
  O  O12  1  0.44109800  0.04732300  0.81156200  1
  O  O13  1  0.55890200  0.95267700  0.18843800  1
  O  O14  1  0.54230000  0.30389300  0.83009100  1
  O  O15  1  0.45770000  0.69610700  0.16990900  1
  O  O16  1  0.38089000  0.35205800  0.65541400  1
  O  O17  1  0.61911000  0.64794200  0.34458600  1
  O  O18  1  0.20401600  0.30706000  0.94406400  1
  O  O19  1  0.79598400  0.69294000  0.05593600  1
  O  O20  1  0.38227700  0.53307000  0.93018100  1
  O  O21  1  0.61772300  0.46693000  0.06981900  1
  O  O22  1  0.29822600  0.63887900  0.46865700  1
  O  O23  1  0.70177400  0.36112100  0.53134300  1
  O  O24  1  0.13305900  0.36330000  0.52019100  1
  O  O25  1  0.86694100  0.63670000  0.47980900  1
  O  O26  1  0.97363800  0.29264700  0.78464200  1
  O  O27  1  0.02636200  0.70735300  0.21535800  1
  O  O28  1  0.28560300  0.21003100  0.42199600  1
  O  O29  1  0.71439700  0.78996900  0.57800400  1
  O  O30  1  0.93705000  0.98899300  0.98886900  1
  O  O31  1  0.06295000  0.01100700  0.01113100  1
  O  O32  1  0.12607000  0.67903800  0.12288000  1
  O  O33  1  0.87393000  0.32096200  0.87712000  1
  O  O34  1  0.37672700  0.12263700  0.08471000  1
  O  O35  1  0.62327300  0.87736300  0.91529000  1
  O  O36  1  0.17296200  0.39828100  0.31547000  1
  O  O37  1  0.82703800  0.60171900  0.68453000  1
loop_
_geom_bond_atom_site_label_1
_geom_bond_atom_site_label_2
_geom_bond_distance
_geom_bond_site_symmetry_2
Na0 O12 2.301793 1_565
Na0 O5 2.456907 1_555
Na0 O32 2.480813 1_556
Na0 O35 2.574569 1_555
Na0 O31 2.627932 1_566
Na0 O15 2.646052 1_556
Na1 O13 2.301793 1_545
Na1 O4 2.456907 1_555
Na1 O33 2.480813 1_554
Na1 O34 2.574569 1_555
Na1 O30 2.627932 1_544
Na1 O14 2.646052 1_554
Na2 O36 2.346819 1_555
Na2 O21 2.378124 1_555
Na2 O34 2.431567 1_555
Na2 O8 2.435990 1_555
Na2 O28 2.504816 1_555
Na2 O4 2.635642 1_555
Na2 O20 2.861966 1_554
Na3 O37 2.346819 1_555
Na3 O20 2.378124 1_555
Na3 O35 2.431567 1_555
Na3 O9 2.435990 1_555
Na3 O29 2.504816 1_555
Na3 O5 2.635642 1_555
Na3 O21 2.861966 1_556
Na4 O0 2.364293 1_455
Na4 O24 2.403090 1_555
Na4 O1 2.430291 1_545
Na4 O10 2.441610 1_455
Na4 O28 2.618296 1_555
Na4 O26 2.959838 1_455
Na5 O1 2.364293 1_655
Na5 O25 2.403090 1_555
Na5 O0 2.430291 1_565
Na5 O11 2.441610 1_655
Na5 O29 2.618296 1_555
Na5 O27 2.959838 1_655
Ge0 O22 1.775079 1_555
Ge0 O16 1.795648 1_555
Ge0 O8 1.799685 1_555
Ge0 O24 1.808242 1_555
Ge1 O23 1.775079 1_555
Ge1 O17 1.795648 1_555
Ge1 O9 1.799685 1_555
Ge1 O25 1.808242 1_555
Mo0 O4 1.751972 1_555
Mo0 O0 1.763348 1_555
Mo0 O6 1.926171 1_555
Mo0 O2 1.935502 1_555
Mo0 O23 2.240987 1_555
Mo0 O8 2.559321 1_555
Mo1 O5 1.751972 1_555
Mo1 O1 1.763348 1_555
Mo1 O7 1.926171 1_555
Mo1 O3 1.935502 1_555
Mo1 O22 2.240987 1_555
Mo1 O9 2.559321 1_555
Mo2 O12 1.756465 1_555
Mo2 O10 1.766856 1_555
Mo2 O6 1.934667 1_555
Mo2 O14 1.983405 1_555
Mo2 O16 2.220778 1_555
Mo2 O23 2.327357 1_555
Mo3 O13 1.756465 1_555
Mo3 O11 1.766856 1_555
Mo3 O7 1.934667 1_555
Mo3 O15 1.983405 1_555
Mo3 O17 2.220778 1_555
Mo3 O22 2.327357 1_555
Mo4 O18 1.729995 1_555
Mo4 O20 1.763960 1_555
Mo4 O3 1.928735 1_555
Mo4 O14 1.972629 1_555
Mo4 O16 2.173885 1_555
Mo5 O19 1.729995 1_555
Mo5 O21 1.763960 1_555
Mo5 O2 1.928735 1_555
Mo5 O15 1.972629 1_555
Mo5 O17 2.173885 1_555
O26 O33 1.227782 1_555
O27 O32 1.227782 1_555
O30 O31 1.234622 1_666
