# generated using pymatgen
data_ZrZnNi4
_symmetry_space_group_name_H-M   'P 1'
_cell_length_a   4.74422039
_cell_length_b   4.74422025
_cell_length_c   4.74421985
_cell_angle_alpha   59.99999575
_cell_angle_beta   59.99999670
_cell_angle_gamma   59.99999278
_symmetry_Int_Tables_number   1
_chemical_formula_structural   ZrZnNi4
_chemical_formula_sum   'Zr1 Zn1 Ni4'
_cell_volume   75.50565136
_cell_formula_units_Z   1
loop_
 _symmetry_equiv_pos_site_id
 _symmetry_equiv_pos_as_xyz
  1  'x, y, z'
loop_
 _atom_site_type_symbol
 _atom_site_label
 _atom_site_symmetry_multiplicity
 _atom_site_fract_x
 _atom_site_fract_y
 _atom_site_fract_z
 _atom_site_occupancy
  Zr  Zr0  1  -0.00000000  0.00000000  -0.00000000  1
  Zn  Zn0  1  0.25000000  0.25000000  0.25000000  1
  Ni  Ni0  1  0.62408166  0.62408166  0.62408166  1
  Ni  Ni1  1  0.62408166  0.62408166  0.12775303  1
  Ni  Ni2  1  0.12775303  0.62408166  0.62408166  1
  Ni  Ni3  1  0.62408166  0.12775303  0.62408166  1
loop_
_geom_bond_atom_site_label_1
_geom_bond_atom_site_label_2
_geom_bond_distance
_geom_bond_site_symmetry_2
Zn0 Zr0 2.905229 1_556
Zn0 Zr0 2.905229 1_565
Zn0 Zr0 2.905230 1_655
Zn0 Zr0 2.905230 1_555
Ni0 Ni1 2.354692 1_555
Ni0 Ni3 2.354692 1_555
Ni0 Ni2 2.354692 1_555
Ni0 Ni1 2.389528 1_556
Ni0 Ni3 2.389528 1_565
Ni0 Ni2 2.389528 1_655
Ni0 Zn0 2.779707 1_565
Ni0 Zn0 2.779708 1_655
Ni0 Zn0 2.779708 1_556
Ni0 Zr0 2.783423 1_656
Ni0 Zr0 2.783423 1_566
Ni0 Zr0 2.783423 1_665
Ni1 Ni3 2.354692 1_555
Ni1 Ni2 2.354692 1_555
Ni1 Ni3 2.389528 1_564
Ni1 Ni2 2.389528 1_654
Ni1 Zn0 2.779704 1_555
Ni1 Zn0 2.779712 1_565
Ni1 Zn0 2.779712 1_655
Ni1 Zr0 2.783419 1_655
Ni1 Zr0 2.783419 1_565
Ni1 Zr0 2.783427 1_665
Ni2 Ni3 2.354692 1_555
Ni2 Ni3 2.389528 1_465
Ni2 Zn0 2.779704 1_555
Ni2 Zn0 2.779711 1_556
Ni2 Zn0 2.779712 1_565
Ni2 Zr0 2.783419 1_565
Ni2 Zr0 2.783419 1_556
Ni2 Zr0 2.783427 1_566
Ni3 Zn0 2.779704 1_555
Ni3 Zn0 2.779711 1_556
Ni3 Zn0 2.779712 1_655
Ni3 Zr0 2.783419 1_655
Ni3 Zr0 2.783419 1_556
Ni3 Zr0 2.783427 1_656
