# generated using pymatgen
data_Ca3Al2SO16
_symmetry_space_group_name_H-M   'P 1'
_cell_length_a   8.55163143
_cell_length_b   8.55163143
_cell_length_c   9.94530060
_cell_angle_alpha   85.84281725
_cell_angle_beta   85.84281725
_cell_angle_gamma   65.02702435
_symmetry_Int_Tables_number   1
_chemical_formula_structural   Ca3Al2SO16
_chemical_formula_sum   'Ca6 Al4 S2 O32'
_cell_volume   656.86525457
_cell_formula_units_Z   2
loop_
 _symmetry_equiv_pos_site_id
 _symmetry_equiv_pos_as_xyz
  1  'x, y, z'
loop_
 _atom_site_type_symbol
 _atom_site_label
 _atom_site_symmetry_multiplicity
 _atom_site_fract_x
 _atom_site_fract_y
 _atom_site_fract_z
 _atom_site_occupancy
  Ca  Ca0  1  0.02904900  0.48207400  0.30475000  1
  Ca  Ca1  1  0.51792600  0.97095100  0.19525000  1
  Ca  Ca2  1  0.97095100  0.51792600  0.69525000  1
  Ca  Ca3  1  0.48207400  0.02904900  0.80475000  1
  Ca  Ca4  1  0.02450000  0.97550000  0.75000000  1
  Ca  Ca5  1  0.97550000  0.02450000  0.25000000  1
  Al  Al0  1  0.30785600  0.09720100  0.49893900  1
  Al  Al1  1  0.90279900  0.69214400  0.00106100  1
  Al  Al2  1  0.69214400  0.90279900  0.50106100  1
  Al  Al3  1  0.09720100  0.30785600  0.99893900  1
  S  S0  1  0.65736000  0.34264000  0.75000000  1
  S  S1  1  0.34264000  0.65736000  0.25000000  1
  O  O0  1  0.72930400  0.99108200  0.33119300  1
  O  O1  1  0.00891800  0.27069600  0.16880700  1
  O  O2  1  0.27069600  0.00891800  0.66880700  1
  O  O3  1  0.99108200  0.72930400  0.83119300  1
  O  O4  1  0.87304300  0.92412100  0.57944900  1
  O  O5  1  0.07587900  0.12695700  0.92055100  1
  O  O6  1  0.12695700  0.07587900  0.42055100  1
  O  O7  1  0.92412100  0.87304300  0.07944900  1
  O  O8  1  0.86060700  0.67999900  0.48723100  1
  O  O9  1  0.32000100  0.13939300  0.01276900  1
  O  O10  1  0.13939300  0.32000100  0.51276900  1
  O  O11  1  0.67999900  0.86060700  0.98723100  1
  O  O12  1  0.16890100  0.67764500  0.30676900  1
  O  O13  1  0.32235500  0.83109900  0.19323100  1
  O  O14  1  0.83109900  0.32235500  0.69323100  1
  O  O15  1  0.67764500  0.16890100  0.80676900  1
  O  O16  1  0.52175900  0.41358400  0.64833000  1
  O  O17  1  0.58641600  0.47824100  0.85167000  1
  O  O18  1  0.47824100  0.58641600  0.35167000  1
  O  O19  1  0.41358400  0.52175900  0.14833000  1
  O  O20  1  0.13422500  0.69421000  0.63268400  1
  O  O21  1  0.30579000  0.86577500  0.86731600  1
  O  O22  1  0.86577500  0.30579000  0.36731600  1
  O  O23  1  0.69421000  0.13422500  0.13268400  1
  O  O24  1  0.21661300  0.28527400  0.82534200  1
  O  O25  1  0.71472600  0.78338700  0.67465800  1
  O  O26  1  0.78338700  0.71472600  0.17465800  1
  O  O27  1  0.28527400  0.21661300  0.32534200  1
  O  O28  1  0.50958600  0.10661600  0.55018500  1
  O  O29  1  0.89338400  0.49041400  0.94981500  1
  O  O30  1  0.49041400  0.89338400  0.44981500  1
  O  O31  1  0.10661600  0.50958600  0.05018500  1
loop_
_geom_bond_atom_site_label_1
_geom_bond_atom_site_label_2
_geom_bond_distance
_geom_bond_site_symmetry_2
Ca0 O1 2.403305 1_555
Ca0 O27 2.407088 1_555
Ca0 O10 2.419578 1_555
Ca0 O12 2.434152 1_555
Ca0 O22 2.474809 1_455
Ca0 O8 2.498201 1_455
Ca0 O26 2.556812 1_455
Ca0 O31 2.589772 1_555
Ca1 O0 2.403305 1_555
Ca1 O26 2.407088 1_555
Ca1 O11 2.419578 1_554
Ca1 O13 2.434152 1_555
Ca1 O23 2.474809 1_565
Ca1 O9 2.498201 1_565
Ca1 O27 2.556812 1_565
Ca1 O30 2.589772 1_555
Ca2 O3 2.403305 1_555
Ca2 O25 2.407088 1_555
Ca2 O8 2.419578 1_555
Ca2 O14 2.434152 1_555
Ca2 O20 2.474809 1_655
Ca2 O10 2.498201 1_655
Ca2 O24 2.556812 1_655
Ca2 O29 2.589772 1_555
Ca3 O2 2.403305 1_555
Ca3 O24 2.407088 1_555
Ca3 O9 2.419578 1_556
Ca3 O15 2.434152 1_555
Ca3 O21 2.474809 1_545
Ca3 O11 2.498201 1_545
Ca3 O25 2.556812 1_545
Ca3 O28 2.589772 1_555
Ca4 O2 2.322589 1_565
Ca4 O3 2.322589 1_455
Ca4 O5 2.377967 1_565
Ca4 O4 2.377967 1_455
Ca4 O21 2.523970 1_555
Ca4 O20 2.523970 1_555
Ca4 O14 2.757279 1_465
Ca4 O15 2.757279 1_465
Ca5 O1 2.322589 1_655
Ca5 O0 2.322589 1_545
Ca5 O6 2.377967 1_655
Ca5 O7 2.377967 1_545
Ca5 O22 2.523970 1_555
Ca5 O23 2.523970 1_555
Ca5 O12 2.757279 1_645
Ca5 O13 2.757279 1_645
Al0 O10 1.848268 1_555
Al0 O30 1.851790 1_545
Al0 O2 1.861400 1_555
Al0 O6 1.862204 1_555
Al0 O28 1.868951 1_555
Al0 O27 1.920157 1_555
Al1 O11 1.848268 1_554
Al1 O31 1.851790 1_655
Al1 O3 1.861400 1_554
Al1 O7 1.862204 1_555
Al1 O29 1.868951 1_554
Al1 O26 1.920157 1_555
Al2 O8 1.848268 1_555
Al2 O28 1.851790 1_565
Al2 O0 1.861400 1_555
Al2 O4 1.862204 1_555
Al2 O30 1.868951 1_555
Al2 O25 1.920157 1_555
Al3 O9 1.848268 1_556
Al3 O29 1.851790 1_455
Al3 O1 1.861400 1_556
Al3 O5 1.862204 1_555
Al3 O31 1.868951 1_556
Al3 O24 1.920157 1_555
O12 S1 1.493741 1_555
O13 S1 1.493741 1_555
O14 S0 1.493741 1_555
O15 S0 1.493741 1_555
O16 S0 1.490699 1_555
O17 S0 1.490699 1_555
O18 S1 1.490699 1_555
O19 S1 1.490699 1_555
