# generated using pymatgen
data_VPO7
_symmetry_space_group_name_H-M   'P 1'
_cell_length_a   7.48665700
_cell_length_b   7.53274100
_cell_length_c   9.72104572
_cell_angle_alpha   78.43561568
_cell_angle_beta   90.00000000
_cell_angle_gamma   90.00000000
_symmetry_Int_Tables_number   1
_chemical_formula_structural   VPO7
_chemical_formula_sum   'V4 P4 O28'
_cell_volume   537.09002750
_cell_formula_units_Z   4
loop_
 _symmetry_equiv_pos_site_id
 _symmetry_equiv_pos_as_xyz
  1  'x, y, z'
loop_
 _atom_site_type_symbol
 _atom_site_label
 _atom_site_symmetry_multiplicity
 _atom_site_fract_x
 _atom_site_fract_y
 _atom_site_fract_z
 _atom_site_occupancy
  V  V0  1  0.15000800  0.50871300  0.28088500  1
  V  V1  1  0.65000800  0.49128700  0.21911500  1
  V  V2  1  0.84999200  0.49128700  0.71911500  1
  V  V3  1  0.34999200  0.50871300  0.78088500  1
  P  P0  1  0.15765500  0.74454900  0.52220700  1
  P  P1  1  0.65765500  0.25545100  0.97779300  1
  P  P2  1  0.84234500  0.25545100  0.47779300  1
  P  P3  1  0.34234500  0.74454900  0.02220700  1
  O  O0  1  0.14537100  0.69808200  0.36952600  1
  O  O1  1  0.64537100  0.30191800  0.13047400  1
  O  O2  1  0.85462900  0.30191800  0.63047400  1
  O  O3  1  0.35462900  0.69808200  0.86952600  1
  O  O4  1  0.31753800  0.62277600  0.59728100  1
  O  O5  1  0.81753800  0.37722400  0.90271900  1
  O  O6  1  0.68246200  0.37722400  0.40271900  1
  O  O7  1  0.18246200  0.62277600  0.09728100  1
  O  O8  1  0.98156400  0.65812900  0.59579200  1
  O  O9  1  0.48156400  0.34187100  0.90420800  1
  O  O10  1  0.01843600  0.34187100  0.40420800  1
  O  O11  1  0.51843600  0.65812900  0.09579200  1
  O  O12  1  0.18701500  0.93842300  0.51868300  1
  O  O13  1  0.68701500  0.06157700  0.98131700  1
  O  O14  1  0.81298500  0.06157700  0.48131700  1
  O  O15  1  0.31298500  0.93842300  0.01868300  1
  O  O16  1  0.10087000  0.22110300  0.14896300  1
  O  O17  1  0.60087000  0.77889700  0.35103700  1
  O  O18  1  0.89913000  0.77889700  0.85103700  1
  O  O19  1  0.39913000  0.22110300  0.64896300  1
  O  O20  1  0.14599900  0.43280600  0.80885400  1
  O  O21  1  0.64599900  0.56719400  0.69114600  1
  O  O22  1  0.85400100  0.56719400  0.19114600  1
  O  O23  1  0.35400100  0.43280600  0.30885400  1
  O  O24  1  0.50990100  0.91360800  0.30504400  1
  O  O25  1  0.00990100  0.08639200  0.19495600  1
  O  O26  1  0.49009900  0.08639200  0.69495600  1
  O  O27  1  0.99009900  0.91360800  0.80504400  1
loop_
_geom_bond_atom_site_label_1
_geom_bond_atom_site_label_2
_geom_bond_distance
_geom_bond_site_symmetry_2
O0 P0 1.594419 1_555
O0 V0 1.808682 1_555
O1 P1 1.594419 1_554
O1 V1 1.808682 1_555
O2 P2 1.594419 1_555
O2 V2 1.808682 1_555
O3 P3 1.594419 1_556
O3 V3 1.808682 1_555
O4 P0 1.593235 1_555
O4 V3 1.835215 1_555
O5 P1 1.593235 1_555
O5 V2 1.835215 1_555
O6 P2 1.593235 1_555
O6 V1 1.835215 1_555
O7 P3 1.593235 1_555
O7 V0 1.835215 1_555
O8 P0 1.576947 1_655
O8 V2 1.839265 1_555
O9 P1 1.576947 1_555
O9 V3 1.839265 1_555
O10 P2 1.576947 1_455
O10 V0 1.839265 1_555
O11 P3 1.576947 1_555
O11 V1 1.839265 1_555
O12 P0 1.470444 1_555
O13 P1 1.470444 1_555
O14 P2 1.470444 1_555
O15 P3 1.470444 1_555
O16 O25 1.229445 1_555
O16 V0 2.754554 1_555
O17 O24 1.229445 1_555
O17 V1 2.754554 1_555
O18 O27 1.229445 1_555
O18 V2 2.754554 1_555
O19 O26 1.229445 1_555
O19 V3 2.754554 1_555
O20 V3 1.634305 1_555
O21 V2 1.634305 1_555
O22 V1 1.634305 1_555
O23 V0 1.634305 1_555
