# generated using pymatgen
data_MgAlNi2
_symmetry_space_group_name_H-M   'P 1'
_cell_length_a   10.55052651
_cell_length_b   10.55052651
_cell_length_c   10.55052651
_cell_angle_alpha   126.23980232
_cell_angle_beta   119.29722332
_cell_angle_gamma   85.38233187
_symmetry_Int_Tables_number   1
_chemical_formula_structural   MgAlNi2
_chemical_formula_sum   'Mg1 Al1 Ni2'
_cell_volume   788.84256145
_cell_formula_units_Z   1
loop_
 _symmetry_equiv_pos_site_id
 _symmetry_equiv_pos_as_xyz
  1  'x, y, z'
loop_
 _atom_site_type_symbol
 _atom_site_label
 _atom_site_symmetry_multiplicity
 _atom_site_fract_x
 _atom_site_fract_y
 _atom_site_fract_z
 _atom_site_occupancy
  Mg  Mg0  1  0.00000000  0.00000000  0.00000000  1
  Al  Al0  1  0.00000000  0.50000000  0.50000000  1
  Ni  Ni0  1  0.00000000  0.26654000  0.26654000  1
  Ni  Ni1  1  0.00000000  0.73346000  0.73346000  1
loop_
_geom_bond_atom_site_label_1
_geom_bond_atom_site_label_2
_geom_bond_distance
_geom_bond_site_symmetry_2
Mg0 Ni1 2.542875 1_544
Mg0 Ni0 2.542875 1_555
Al0 Ni1 2.227281 1_555
Al0 Ni0 2.227281 1_555
