# generated using pymatgen
data_MgFe3Co2Sb(PO4)6
_symmetry_space_group_name_H-M   'P 1'
_cell_length_a   8.69468859
_cell_length_b   8.75107026
_cell_length_c   8.83053759
_cell_angle_alpha   60.28053126
_cell_angle_beta   59.26029748
_cell_angle_gamma   58.05559577
_symmetry_Int_Tables_number   1
_chemical_formula_structural   MgFe3Co2Sb(PO4)6
_chemical_formula_sum   'Mg1 Fe3 Co2 Sb1 P6 O24'
_cell_volume   466.06930948
_cell_formula_units_Z   1
loop_
 _symmetry_equiv_pos_site_id
 _symmetry_equiv_pos_as_xyz
  1  'x, y, z'
loop_
 _atom_site_type_symbol
 _atom_site_label
 _atom_site_symmetry_multiplicity
 _atom_site_fract_x
 _atom_site_fract_y
 _atom_site_fract_z
 _atom_site_occupancy
  Mg  Mg0  1  0.25112100  0.25776800  0.85742600  1
  Fe  Fe0  1  0.05892200  0.65706300  0.63271800  1
  Fe  Fe1  1  0.44990900  0.84583800  0.84714800  1
  Fe  Fe2  1  0.92441400  0.35776900  0.36017600  1
  Co  Co0  1  0.01391900  0.98136100  0.00598200  1
  Co  Co1  1  0.50570000  0.50881300  0.48874800  1
  Sb  Sb0  1  0.56814000  0.14250400  0.14970400  1
  P  P0  1  0.24685400  0.24902900  0.54937800  1
  P  P1  1  0.24038500  0.95401200  0.25841600  1
  P  P2  1  0.24694400  0.54681000  0.96390300  1
  P  P3  1  0.76617200  0.44085000  0.04690000  1
  P  P4  1  0.72373100  0.06301000  0.75247100  1
  P  P5  1  0.75364700  0.74567500  0.45151400  1
  O  O0  1  0.05115200  0.09555000  0.33542000  1
  O  O1  1  0.06848200  0.51528400  0.11452400  1
  O  O2  1  0.07272400  0.30562300  0.51275100  1
  O  O3  1  0.23584800  0.09345900  0.74865400  1
  O  O4  1  0.44065800  0.18077700  0.39349400  1
  O  O5  1  0.27659900  0.39617900  0.57499800  1
  O  O6  1  0.23265200  0.95714100  0.08003700  1
  O  O7  1  0.29248400  0.75353100  0.39569500  1
  O  O8  1  0.61619900  0.61202500  0.96088600  1
  O  O9  1  0.28972100  0.51459300  0.78458100  1
  O  O10  1  0.77345300  0.24291400  0.06518800  1
  O  O11  1  0.52641200  0.04521100  0.82445200  1
  O  O12  1  0.41035800  0.02348100  0.18089800  1
  O  O13  1  0.23724500  0.74726800  0.92395800  1
  O  O14  1  0.71486500  0.43871900  0.24070900  1
  O  O15  1  0.43284100  0.40164900  0.02048500  1
  O  O16  1  0.70675800  0.25583100  0.60300900  1
  O  O17  1  0.75155500  0.06714900  0.91818200  1
  O  O18  1  0.70985100  0.60581800  0.43793100  1
  O  O19  1  0.58185500  0.83411400  0.60108500  1
  O  O20  1  0.77035000  0.91069100  0.24879800  1
  O  O21  1  0.94563700  0.68053100  0.46539300  1
  O  O22  1  0.97044900  0.43144400  0.91264800  1
  O  O23  1  0.89199500  0.89051500  0.70580100  1
loop_
_geom_bond_atom_site_label_1
_geom_bond_atom_site_label_2
_geom_bond_distance
_geom_bond_site_symmetry_2
Mg0 O22 2.024002 1_455
Mg0 O11 2.094542 1_555
Mg0 O5 2.111906 1_555
Mg0 O3 2.170148 1_555
Mg0 O9 2.172945 1_555
Mg0 O6 2.409958 1_546
Fe0 O23 1.977050 1_455
Fe0 O21 2.041675 1_455
Fe0 O5 2.156214 1_555
Fe0 O7 2.221370 1_555
Fe0 O22 2.329082 1_455
Fe0 O9 2.413609 1_555
Fe1 O19 1.896363 1_555
Fe1 O8 1.897944 1_555
Fe1 O11 2.066828 1_565
Fe1 O3 2.105828 1_565
Fe1 O13 2.109190 1_555
Fe1 O6 2.194112 1_556
Fe2 O0 2.025598 1_655
Fe2 O2 2.056729 1_655
Fe2 O1 2.063816 1_655
Fe2 O18 2.132317 1_555
Fe2 O16 2.171792 1_555
Fe2 O14 2.189169 1_555
Co0 O13 2.077450 1_554
Co0 O6 2.190179 1_555
Co0 O10 2.211033 1_465
Co0 O20 2.212242 1_455
Co0 O3 2.271496 1_564
Co0 O17 2.405657 1_464
Co1 O7 2.075937 1_555
Co1 O16 2.113819 1_555
Co1 O18 2.115480 1_555
Co1 O14 2.135582 1_555
Co1 O5 2.302590 1_555
Co1 O9 2.317097 1_555
O0 P1 1.496156 1_545
O1 P2 1.494067 1_554
O2 P0 1.480006 1_555
O3 P0 1.596731 1_555
O4 P0 1.571620 1_555
O4 Sb0 1.964183 1_555
O5 P0 1.573969 1_555
O6 P1 1.596880 1_555
O7 P1 1.537659 1_555
O8 P3 1.529235 1_556
O9 P2 1.566823 1_555
O10 P3 1.627113 1_555
O10 Sb0 2.040462 1_555
O11 P4 1.562523 1_555
O12 P1 1.589392 1_545
O12 Sb0 1.970799 1_555
O13 P2 1.571361 1_555
O14 P3 1.524812 1_555
O15 P2 1.580941 1_554
O15 Sb0 1.952506 1_555
O16 P4 1.529204 1_555
O17 P4 1.620140 1_555
O17 Sb0 2.012158 1_556
O18 P5 1.530600 1_555
O19 P5 1.532319 1_555
O20 P5 1.644369 1_555
O20 Sb0 2.002651 1_565
O21 P5 1.503135 1_555
O22 P3 1.535044 1_556
O23 P4 1.500791 1_565
