# generated using pymatgen
data_YbAlZn2
_symmetry_space_group_name_H-M   'P 1'
_cell_length_a   4.61105070
_cell_length_b   4.61105070
_cell_length_c   4.61105070
_cell_angle_alpha   60.00000000
_cell_angle_beta   60.00000000
_cell_angle_gamma   60.00000000
_symmetry_Int_Tables_number   1
_chemical_formula_structural   YbAlZn2
_chemical_formula_sum   'Yb1 Al1 Zn2'
_cell_volume   69.32417237
_cell_formula_units_Z   1
loop_
 _symmetry_equiv_pos_site_id
 _symmetry_equiv_pos_as_xyz
  1  'x, y, z'
loop_
 _atom_site_type_symbol
 _atom_site_label
 _atom_site_symmetry_multiplicity
 _atom_site_fract_x
 _atom_site_fract_y
 _atom_site_fract_z
 _atom_site_occupancy
  Yb  Yb0  1  0.75000000  0.75000000  0.75000000  1
  Al  Al0  1  0.25000000  0.25000000  0.25000000  1
  Zn  Zn0  1  0.00000000  0.00000000  0.00000000  1
  Zn  Zn1  1  0.50000100  0.50000100  0.50000100  1
loop_
_geom_bond_atom_site_label_1
_geom_bond_atom_site_label_2
_geom_bond_distance
_geom_bond_site_symmetry_2
Yb0 Zn1 2.823669 1_555
Yb0 Zn0 2.823680 1_566
Yb0 Zn0 2.823680 1_656
Yb0 Zn0 2.823680 1_665
Yb0 Zn0 2.823680 1_666
Yb0 Zn1 2.823684 1_565
Yb0 Zn1 2.823684 1_556
Yb0 Zn1 2.823684 1_655
Al0 Zn1 2.823677 1_554
Al0 Zn1 2.823677 1_545
Al0 Zn1 2.823677 1_455
Al0 Zn0 2.823680 1_655
Al0 Zn0 2.823680 1_565
Al0 Zn0 2.823680 1_555
Al0 Zn0 2.823680 1_556
Al0 Zn1 2.823692 1_555
