# generated using pymatgen
data_Te2Mo2WSe4
_symmetry_space_group_name_H-M   'P 1'
_cell_length_a   3.40405466
_cell_length_b   3.40405466
_cell_length_c   31.40123500
_cell_angle_alpha   90.00000000
_cell_angle_beta   90.00000000
_cell_angle_gamma   120.00001279
_symmetry_Int_Tables_number   1
_chemical_formula_structural   Te2Mo2WSe4
_chemical_formula_sum   'Te2 Mo2 W1 Se4'
_cell_volume   315.11592706
_cell_formula_units_Z   1
loop_
 _symmetry_equiv_pos_site_id
 _symmetry_equiv_pos_as_xyz
  1  'x, y, z'
loop_
 _atom_site_type_symbol
 _atom_site_label
 _atom_site_symmetry_multiplicity
 _atom_site_fract_x
 _atom_site_fract_y
 _atom_site_fract_z
 _atom_site_occupancy
  Te  Te0  1  0.33333300  0.66666700  0.51841500  1
  Te  Te1  1  0.33333300  0.66666700  0.63819600  1
  Mo  Mo0  1  0.00000000  0.00000000  0.11565300  1
  Mo  Mo1  1  0.33333300  0.66666700  0.34696700  1
  W  W0  1  0.00000000  0.00000000  0.57832100  1
  Se  Se0  1  0.00000000  0.00000000  0.39946500  1
  Se  Se1  1  0.33333300  0.66666700  0.06317800  1
  Se  Se2  1  0.33333300  0.66666700  0.16814300  1
  Se  Se3  1  0.00000000  0.00000000  0.29450300  1
loop_
_geom_bond_atom_site_label_1
_geom_bond_atom_site_label_2
_geom_bond_distance
_geom_bond_site_symmetry_2
Te0 W0 2.720504 1_565
Te0 W0 2.720506 1_555
Te0 W0 2.720506 1_665
Te1 W0 2.719831 1_565
Te1 W0 2.719833 1_555
Te1 W0 2.719833 1_665
Mo0 Se1 2.564703 1_545
Mo0 Se1 2.564705 1_445
Mo0 Se1 2.564705 1_555
Mo0 Se2 2.565005 1_545
Mo0 Se2 2.565007 1_555
Mo0 Se2 2.565007 1_445
Mo1 Se3 2.564481 1_565
Mo1 Se3 2.564483 1_555
Mo1 Se3 2.564483 1_665
Mo1 Se0 2.565167 1_565
Mo1 Se0 2.565169 1_555
Mo1 Se0 2.565169 1_665
