# generated using pymatgen
data_K2ZrFe(PO4)3
_symmetry_space_group_name_H-M   'P 1'
_cell_length_a   10.21028600
_cell_length_b   10.21028600
_cell_length_c   10.21028600
_cell_angle_alpha   90.00000000
_cell_angle_beta   90.00000000
_cell_angle_gamma   90.00000000
_symmetry_Int_Tables_number   1
_chemical_formula_structural   K2ZrFe(PO4)3
_chemical_formula_sum   'K8 Zr4 Fe4 P12 O48'
_cell_volume   1064.42170494
_cell_formula_units_Z   4
loop_
 _symmetry_equiv_pos_site_id
 _symmetry_equiv_pos_as_xyz
  1  'x, y, z'
loop_
 _atom_site_type_symbol
 _atom_site_label
 _atom_site_symmetry_multiplicity
 _atom_site_fract_x
 _atom_site_fract_y
 _atom_site_fract_z
 _atom_site_occupancy
  K  K0  1  0.04898200  0.04898200  0.04898200  1
  K  K1  1  0.45101800  0.95101800  0.54898200  1
  K  K2  1  0.95101800  0.54898200  0.45101800  1
  K  K3  1  0.54898200  0.45101800  0.95101800  1
  K  K4  1  0.81537000  0.81537000  0.81537000  1
  K  K5  1  0.68463000  0.18463000  0.31537000  1
  K  K6  1  0.18463000  0.31537000  0.68463000  1
  K  K7  1  0.31537000  0.68463000  0.18463000  1
  Zr  Zr0  1  0.33598800  0.33598800  0.33598800  1
  Zr  Zr1  1  0.16401200  0.66401200  0.83598800  1
  Zr  Zr2  1  0.66401200  0.83598800  0.16401200  1
  Zr  Zr3  1  0.83598800  0.16401200  0.66401200  1
  Fe  Fe0  1  0.60443000  0.60443000  0.60443000  1
  Fe  Fe1  1  0.89557000  0.39557000  0.10443000  1
  Fe  Fe2  1  0.39557000  0.10443000  0.89557000  1
  Fe  Fe3  1  0.10443000  0.89557000  0.39557000  1
  P  P0  1  0.01850300  0.20746300  0.37080800  1
  P  P1  1  0.48149700  0.79253700  0.87080800  1
  P  P2  1  0.98149700  0.70746300  0.12919200  1
  P  P3  1  0.37080800  0.01850300  0.20746300  1
  P  P4  1  0.51850300  0.29253700  0.62919200  1
  P  P5  1  0.87080800  0.48149700  0.79253700  1
  P  P6  1  0.12919200  0.98149700  0.70746300  1
  P  P7  1  0.62919200  0.51850300  0.29253700  1
  P  P8  1  0.20746300  0.37080800  0.01850300  1
  P  P9  1  0.70746300  0.12919200  0.98149700  1
  P  P10  1  0.29253700  0.62919200  0.51850300  1
  P  P11  1  0.79253700  0.87080800  0.48149700  1
  O  O0  1  0.01534700  0.06184400  0.32897900  1
  O  O1  1  0.48465300  0.93815600  0.82897900  1
  O  O2  1  0.98465300  0.56184400  0.17102100  1
  O  O3  1  0.32897900  0.01534700  0.06184400  1
  O  O4  1  0.51534700  0.43815600  0.67102100  1
  O  O5  1  0.82897900  0.48465300  0.93815600  1
  O  O6  1  0.17102100  0.98465300  0.56184400  1
  O  O7  1  0.67102100  0.51534700  0.43815600  1
  O  O8  1  0.06184400  0.32897900  0.01534700  1
  O  O9  1  0.56184400  0.17102100  0.98465300  1
  O  O10  1  0.43815600  0.67102100  0.51534700  1
  O  O11  1  0.93815600  0.82897900  0.48465300  1
  O  O12  1  0.04845000  0.79432000  0.23174700  1
  O  O13  1  0.45155000  0.20568000  0.73174700  1
  O  O14  1  0.95155000  0.29432000  0.26825300  1
  O  O15  1  0.23174700  0.04845000  0.79432000  1
  O  O16  1  0.54845000  0.70568000  0.76825300  1
  O  O17  1  0.73174700  0.45155000  0.20568000  1
  O  O18  1  0.26825300  0.95155000  0.29432000  1
  O  O19  1  0.76825300  0.54845000  0.70568000  1
  O  O20  1  0.79432000  0.23174700  0.04845000  1
  O  O21  1  0.29432000  0.26825300  0.95155000  1
  O  O22  1  0.70568000  0.76825300  0.54845000  1
  O  O23  1  0.20568000  0.73174700  0.45155000  1
  O  O24  1  0.16117300  0.25205800  0.39831200  1
  O  O25  1  0.33882700  0.74794200  0.89831200  1
  O  O26  1  0.83882700  0.75205800  0.10168800  1
  O  O27  1  0.39831200  0.16117300  0.25205800  1
  O  O28  1  0.66117300  0.24794200  0.60168800  1
  O  O29  1  0.89831200  0.33882700  0.74794200  1
  O  O30  1  0.10168800  0.83882700  0.75205800  1
  O  O31  1  0.60168800  0.66117300  0.24794200  1
  O  O32  1  0.25205800  0.39831200  0.16117300  1
  O  O33  1  0.75205800  0.10168800  0.83882700  1
  O  O34  1  0.24794200  0.60168800  0.66117300  1
  O  O35  1  0.74794200  0.89831200  0.33882700  1
  O  O36  1  0.27075900  0.49828800  0.44322300  1
  O  O37  1  0.22924100  0.50171200  0.94322300  1
  O  O38  1  0.72924100  0.99828800  0.05677700  1
  O  O39  1  0.44322300  0.27075900  0.49828800  1
  O  O40  1  0.77075900  0.00171200  0.55677700  1
  O  O41  1  0.94322300  0.22924100  0.50171200  1
  O  O42  1  0.05677700  0.72924100  0.99828800  1
  O  O43  1  0.55677700  0.77075900  0.00171200  1
  O  O44  1  0.49828800  0.44322300  0.27075900  1
  O  O45  1  0.99828800  0.05677700  0.72924100  1
  O  O46  1  0.00171200  0.55677700  0.77075900  1
  O  O47  1  0.50171200  0.94322300  0.22924100  1
loop_
_geom_bond_atom_site_label_1
_geom_bond_atom_site_label_2
_geom_bond_distance
_geom_bond_site_symmetry_2
K0 O8 2.882396 1_555
K0 O0 2.882396 1_555
K0 O3 2.882396 1_555
K0 O15 3.200498 1_554
K0 O20 3.200498 1_455
K0 O12 3.200498 1_545
K0 O38 3.306382 1_445
K0 O45 3.306382 1_454
K0 O42 3.306382 1_544
K1 O6 2.882396 1_555
K1 O10 2.882396 1_555
K1 O1 2.882396 1_555
K1 O18 3.200498 1_555
K1 O22 3.200498 1_555
K1 O13 3.200498 1_565
K1 O39 3.306382 1_565
K1 O47 3.306382 1_555
K1 O40 3.306382 1_565
K2 O2 2.882396 1_555
K2 O7 2.882396 1_555
K2 O11 2.882396 1_555
K2 O14 3.200498 1_555
K2 O19 3.200498 1_555
K2 O23 3.200498 1_655
K2 O36 3.306382 1_655
K2 O46 3.306382 1_655
K2 O41 3.306382 1_555
K3 O9 2.882396 1_555
K3 O5 2.882396 1_555
K3 O4 2.882396 1_555
K3 O21 3.200498 1_555
K3 O16 3.200498 1_555
K3 O17 3.200498 1_556
K3 O37 3.306382 1_555
K3 O44 3.306382 1_556
K3 O43 3.306382 1_556
K4 O22 2.985495 1_555
K4 O19 2.985495 1_555
K4 O16 2.985495 1_555
K4 O33 3.003571 1_565
K4 O30 3.003571 1_655
K4 O26 3.003571 1_556
K4 O42 3.215098 1_655
K4 O38 3.215098 1_556
K4 O45 3.215098 1_565
K4 O46 3.286123 1_655
K4 O43 3.286123 1_556
K4 O40 3.286123 1_565
K5 O17 2.985495 1_555
K5 O14 2.985495 1_555
K5 O20 2.985495 1_555
K5 O27 3.003571 1_555
K5 O35 3.003571 1_545
K5 O28 3.003571 1_555
K5 O47 3.215098 1_545
K5 O40 3.215098 1_555
K5 O39 3.215098 1_555
K5 O44 3.286123 1_555
K5 O38 3.286123 1_545
K5 O41 3.286123 1_555
K6 O15 2.985495 1_555
K6 O13 2.985495 1_555
K6 O21 2.985495 1_555
K6 O24 3.003571 1_555
K6 O29 3.003571 1_455
K6 O34 3.003571 1_555
K6 O41 3.215098 1_455
K6 O46 3.215098 1_555
K6 O36 3.215098 1_555
K6 O39 3.286123 1_555
K6 O45 3.286123 1_455
K6 O37 3.286123 1_555
K7 O23 2.985495 1_555
K7 O12 2.985495 1_555
K7 O18 2.985495 1_555
K7 O25 3.003571 1_554
K7 O32 3.003571 1_555
K7 O31 3.003571 1_555
K7 O37 3.215098 1_554
K7 O43 3.215098 1_555
K7 O44 3.215098 1_555
K7 O36 3.286123 1_555
K7 O42 3.286123 1_554
K7 O47 3.286123 1_555
Fe0 O10 2.042496 1_555
Fe0 O7 2.042496 1_555
Fe0 O4 2.042496 1_555
Fe0 O16 2.047749 1_555
Fe0 O22 2.047749 1_555
Fe0 O19 2.047749 1_555
Fe1 O5 2.042496 1_554
Fe1 O2 2.042496 1_555
Fe1 O8 2.042496 1_655
Fe1 O17 2.047749 1_555
Fe1 O20 2.047749 1_555
Fe1 O14 2.047749 1_555
Fe2 O1 2.042496 1_545
Fe2 O3 2.042496 1_556
Fe2 O9 2.042496 1_555
Fe2 O15 2.047749 1_555
Fe2 O13 2.047749 1_555
Fe2 O21 2.047749 1_555
Fe3 O11 2.042496 1_455
Fe3 O0 2.042496 1_565
Fe3 O6 2.042496 1_555
Fe3 O23 2.047749 1_555
Fe3 O12 2.047749 1_555
Fe3 O18 2.047749 1_555
O0 P0 1.547272 1_555
O1 P1 1.547272 1_555
O2 P2 1.547272 1_555
O3 P3 1.547272 1_555
O4 P4 1.547272 1_555
O5 P5 1.547272 1_555
O6 P6 1.547272 1_555
O7 P7 1.547272 1_555
O8 P8 1.547272 1_555
O9 P9 1.547272 1_555
O10 P10 1.547272 1_555
O11 P11 1.547272 1_555
O12 P2 1.533052 1_455
O13 P4 1.533052 1_555
O14 P0 1.533052 1_655
O15 P6 1.533052 1_545
O16 P1 1.533052 1_555
O17 P7 1.533052 1_555
O18 P3 1.533052 1_565
O19 P5 1.533052 1_555
O20 P9 1.533052 1_554
O21 P8 1.533052 1_556
O22 P11 1.533052 1_555
O23 P10 1.533052 1_555
O24 P0 1.551826 1_555
O24 Zr0 2.079713 1_555
O25 P1 1.551826 1_555
O25 Zr1 2.079713 1_555
O26 P2 1.551826 1_555
O26 Zr2 2.079713 1_555
O27 P3 1.551826 1_555
O27 Zr0 2.079713 1_555
O28 P4 1.551826 1_555
O28 Zr3 2.079713 1_555
O29 P5 1.551826 1_555
O29 Zr3 2.079713 1_555
O30 P6 1.551826 1_555
O30 Zr1 2.079713 1_555
O31 P7 1.551826 1_555
O31 Zr2 2.079713 1_555
O32 P8 1.551826 1_555
O32 Zr0 2.079713 1_555
O33 P9 1.551826 1_555
O33 Zr3 2.079713 1_555
O34 P10 1.551826 1_555
O34 Zr1 2.079713 1_555
O35 P11 1.551826 1_555
O35 Zr2 2.079713 1_555
O36 P10 1.557770 1_555
O36 Zr0 2.094863 1_555
O37 P8 1.557770 1_556
O37 Zr1 2.094863 1_555
O38 P9 1.557770 1_564
O38 Zr2 2.094863 1_555
O39 P4 1.557770 1_555
O39 Zr0 2.094863 1_555
O40 P11 1.557770 1_545
O40 Zr3 2.094863 1_555
O41 P0 1.557770 1_655
O41 Zr3 2.094863 1_555
O42 P2 1.557770 1_456
O42 Zr1 2.094863 1_555
O43 P1 1.557770 1_554
O43 Zr2 2.094863 1_555
O44 P7 1.557770 1_555
O44 Zr0 2.094863 1_555
O45 P6 1.557770 1_645
O45 Zr3 2.094863 1_555
O46 P5 1.557770 1_455
O46 Zr1 2.094863 1_555
O47 P3 1.557770 1_565
O47 Zr2 2.094863 1_555
