# generated using pymatgen
data_MgAu3
_symmetry_space_group_name_H-M   'P 1'
_cell_length_a   5.06340548
_cell_length_b   5.06340548
_cell_length_c   5.06340548
_cell_angle_alpha   132.45627850
_cell_angle_beta   132.45627850
_cell_angle_gamma   69.50933226
_symmetry_Int_Tables_number   1
_chemical_formula_structural   MgAu3
_chemical_formula_sum   'Mg1 Au3'
_cell_volume   69.32111776
_cell_formula_units_Z   1
loop_
 _symmetry_equiv_pos_site_id
 _symmetry_equiv_pos_as_xyz
  1  'x, y, z'
loop_
 _atom_site_type_symbol
 _atom_site_label
 _atom_site_symmetry_multiplicity
 _atom_site_fract_x
 _atom_site_fract_y
 _atom_site_fract_z
 _atom_site_occupancy
  Mg  Mg0  1  0.00000000  0.00000000  0.00000000  1
  Au  Au0  1  0.50000000  0.50000000  0.00000000  1
  Au  Au1  1  0.75000000  0.25000000  0.50000000  1
  Au  Au2  1  0.25000000  0.75000000  0.50000000  1
loop_
_geom_bond_atom_site_label_1
_geom_bond_atom_site_label_2
_geom_bond_distance
_geom_bond_site_symmetry_2
Au0 Mg0 2.886464 1_565
Au0 Mg0 2.886464 1_666
Au0 Mg0 2.886464 1_655
Au0 Mg0 2.886464 1_554
Au1 Mg0 2.914179 1_666
Au1 Mg0 2.914179 1_656
Au1 Mg0 2.914179 1_555
Au1 Mg0 2.914179 1_655
Au2 Mg0 2.914179 1_666
Au2 Mg0 2.914179 1_555
Au2 Mg0 2.914179 1_566
Au2 Mg0 2.914179 1_565
