# generated using pymatgen
data_Mg2Fe3O8
_symmetry_space_group_name_H-M   'P 1'
_cell_length_a   5.94604970
_cell_length_b   5.94604970
_cell_length_c   9.40449100
_cell_angle_alpha   90.00000000
_cell_angle_beta   90.00000000
_cell_angle_gamma   119.99999661
_symmetry_Int_Tables_number   1
_chemical_formula_structural   Mg2Fe3O8
_chemical_formula_sum   'Mg4 Fe6 O16'
_cell_volume   287.95393045
_cell_formula_units_Z   2
loop_
 _symmetry_equiv_pos_site_id
 _symmetry_equiv_pos_as_xyz
  1  'x, y, z'
loop_
 _atom_site_type_symbol
 _atom_site_label
 _atom_site_symmetry_multiplicity
 _atom_site_fract_x
 _atom_site_fract_y
 _atom_site_fract_z
 _atom_site_occupancy
  Mg  Mg0  1  0.66666700  0.33333300  0.02457400  1
  Mg  Mg1  1  0.33333300  0.66666700  0.52457400  1
  Mg  Mg2  1  0.66666700  0.33333300  0.41782300  1
  Mg  Mg3  1  0.33333300  0.66666700  0.91782300  1
  Fe  Fe0  1  0.67173800  0.83586900  0.24523300  1
  Fe  Fe1  1  0.83586900  0.16413100  0.74523300  1
  Fe  Fe2  1  0.16413100  0.32826200  0.24523300  1
  Fe  Fe3  1  0.83586900  0.67173800  0.74523300  1
  Fe  Fe4  1  0.32826200  0.16413100  0.74523300  1
  Fe  Fe5  1  0.16413100  0.83586900  0.24523300  1
  O  O0  1  0.83803500  0.16196500  0.14346800  1
  O  O1  1  0.67607000  0.83803500  0.64346800  1
  O  O2  1  0.16196500  0.32393000  0.64346800  1
  O  O3  1  0.83803500  0.67607000  0.14346800  1
  O  O4  1  0.32393000  0.16196500  0.14346800  1
  O  O5  1  0.16196500  0.83803500  0.64346800  1
  O  O6  1  0.51890300  0.48109700  0.86586200  1
  O  O7  1  0.03780700  0.51890300  0.36586200  1
  O  O8  1  0.48109700  0.96219300  0.36586200  1
  O  O9  1  0.51890300  0.03780700  0.86586200  1
  O  O10  1  0.00000000  0.00000000  0.35688700  1
  O  O11  1  0.00000000  0.00000000  0.85688700  1
  O  O12  1  0.33333300  0.66666700  0.13053000  1
  O  O13  1  0.96219300  0.48109700  0.86586200  1
  O  O14  1  0.48109700  0.51890300  0.36586200  1
  O  O15  1  0.66666700  0.33333300  0.63053000  1
loop_
_geom_bond_atom_site_label_1
_geom_bond_atom_site_label_2
_geom_bond_distance
_geom_bond_site_symmetry_2
Mg0 O0 2.089279 1_555
Mg0 O4 2.089283 1_555
Mg0 O3 2.089283 1_555
Mg0 O13 2.131600 1_554
Mg0 O9 2.131600 1_554
Mg0 O6 2.131607 1_554
Mg1 O5 2.089279 1_555
Mg1 O2 2.089283 1_555
Mg1 O1 2.089283 1_555
Mg1 O8 2.131600 1_555
Mg1 O7 2.131600 1_555
Mg1 O14 2.131607 1_555
Mg2 O14 1.972644 1_555
Mg2 O7 1.972644 1_655
Mg2 O8 1.972644 1_545
Mg2 O15 2.000401 1_555
Mg3 O6 1.972644 1_555
Mg3 O9 1.972644 1_565
Mg3 O13 1.972644 1_455
Mg3 O12 2.000401 1_556
Fe0 O3 1.932888 1_555
Fe0 O0 1.932888 1_565
Fe0 O10 1.989957 1_665
Fe0 O8 1.996895 1_555
Fe0 O14 1.996899 1_555
Fe0 O12 2.049457 1_555
Fe1 O2 1.932888 1_655
Fe1 O1 1.932888 1_545
Fe1 O11 1.989957 1_655
Fe1 O9 1.996900 1_555
Fe1 O13 1.996900 1_555
Fe1 O15 2.049453 1_555
Fe2 O4 1.932888 1_555
Fe2 O0 1.932888 1_455
Fe2 O10 1.989957 1_555
Fe2 O7 1.996895 1_555
Fe2 O14 1.996899 1_555
Fe2 O12 2.049457 1_555
Fe3 O1 1.932888 1_555
Fe3 O5 1.932888 1_655
Fe3 O11 1.989957 1_665
Fe3 O13 1.996895 1_555
Fe3 O6 1.996899 1_555
Fe3 O15 2.049457 1_555
Fe4 O2 1.932888 1_555
Fe4 O5 1.932888 1_545
Fe4 O11 1.989957 1_555
Fe4 O9 1.996895 1_555
Fe4 O6 1.996899 1_555
Fe4 O15 2.049457 1_555
Fe5 O4 1.932888 1_565
Fe5 O3 1.932888 1_455
Fe5 O10 1.989957 1_565
Fe5 O7 1.996900 1_555
Fe5 O8 1.996900 1_555
Fe5 O12 2.049453 1_555
