# generated using pymatgen
data_NbNiB2
_symmetry_space_group_name_H-M   'P 1'
_cell_length_a   3.12886500
_cell_length_b   6.04931000
_cell_length_c   8.21034500
_cell_angle_alpha   90.00000000
_cell_angle_beta   90.00000000
_cell_angle_gamma   90.00000000
_symmetry_Int_Tables_number   1
_chemical_formula_structural   NbNiB2
_chemical_formula_sum   'Nb4 Ni4 B8'
_cell_volume   155.40109425
_cell_formula_units_Z   4
loop_
 _symmetry_equiv_pos_site_id
 _symmetry_equiv_pos_as_xyz
  1  'x, y, z'
loop_
 _atom_site_type_symbol
 _atom_site_label
 _atom_site_symmetry_multiplicity
 _atom_site_fract_x
 _atom_site_fract_y
 _atom_site_fract_z
 _atom_site_occupancy
  Nb  Nb0  1  0.75000000  0.36777700  0.63269800  1
  Nb  Nb1  1  0.75000000  0.86777700  0.86730200  1
  Nb  Nb2  1  0.25000000  0.63222300  0.36730200  1
  Nb  Nb3  1  0.25000000  0.13222300  0.13269800  1
  Ni  Ni0  1  0.75000000  0.50102200  0.11514000  1
  Ni  Ni1  1  0.75000000  0.00102200  0.38486000  1
  Ni  Ni2  1  0.25000000  0.49897800  0.88486000  1
  Ni  Ni3  1  0.25000000  0.99897800  0.61514000  1
  B  B0  1  0.75000000  0.25875500  0.92313200  1
  B  B1  1  0.75000000  0.75875500  0.57686800  1
  B  B2  1  0.25000000  0.74124500  0.07686800  1
  B  B3  1  0.25000000  0.24124500  0.42313200  1
  B  B4  1  0.75000000  0.32908900  0.33295800  1
  B  B5  1  0.75000000  0.82908900  0.16704200  1
  B  B6  1  0.25000000  0.67091100  0.66704200  1
  B  B7  1  0.25000000  0.17091100  0.83295800  1
loop_
_geom_bond_atom_site_label_1
_geom_bond_atom_site_label_2
_geom_bond_distance
_geom_bond_site_symmetry_2
Nb0 Ni2 2.713607 1_555
Nb0 Ni2 2.713607 1_655
Nb0 Ni3 2.728644 1_645
Nb0 Ni3 2.728644 1_545
Nb1 Ni3 2.713607 1_655
Nb1 Ni3 2.713607 1_555
Nb1 Ni2 2.728644 1_555
Nb1 Ni2 2.728644 1_655
Nb2 Ni0 2.713607 1_555
Nb2 Ni0 2.713607 1_455
Nb2 Ni1 2.728644 1_565
Nb2 Ni1 2.728644 1_465
Nb3 Ni1 2.713607 1_455
Nb3 Ni1 2.713607 1_555
Nb3 Ni0 2.728644 1_455
Nb3 Ni0 2.728644 1_555
B0 B7 1.810514 1_555
B0 B7 1.810514 1_655
B0 Ni0 2.152448 1_556
B0 Ni2 2.158224 1_555
B0 Ni2 2.158224 1_655
B0 Nb1 2.409157 1_545
B0 Nb3 2.448230 1_656
B0 Nb3 2.448230 1_556
B0 Nb0 2.474084 1_555
B1 B6 1.810514 1_555
B1 B6 1.810514 1_655
B1 Ni1 2.152448 1_565
B1 Ni3 2.158224 1_555
B1 Ni3 2.158224 1_655
B1 Nb0 2.409157 1_555
B1 Nb2 2.448230 1_555
B1 Nb2 2.448230 1_655
B1 Nb1 2.474084 1_555
B2 B5 1.810514 1_555
B2 B5 1.810514 1_455
B2 Ni2 2.152448 1_554
B2 Ni0 2.158224 1_455
B2 Ni0 2.158224 1_555
B2 Nb3 2.409157 1_565
B2 Nb1 2.448230 1_454
B2 Nb1 2.448230 1_554
B2 Nb2 2.474084 1_555
B3 B4 1.810514 1_555
B3 B4 1.810514 1_455
B3 Ni3 2.152448 1_545
B3 Ni1 2.158224 1_555
B3 Ni1 2.158224 1_455
B3 Nb2 2.409157 1_555
B3 Nb0 2.448230 1_455
B3 Nb0 2.448230 1_555
B3 Nb3 2.474084 1_555
B4 Ni1 2.029814 1_555
B4 Ni0 2.068814 1_555
B4 Nb2 2.426851 1_555
B4 Nb2 2.426851 1_655
B4 Nb0 2.472072 1_555
B4 Nb3 2.563027 1_655
B4 Nb3 2.563027 1_555
B5 Ni0 2.029814 1_555
B5 Ni1 2.068814 1_565
B5 Nb3 2.426851 1_665
B5 Nb3 2.426851 1_565
B5 Nb1 2.472072 1_554
B5 Nb2 2.563027 1_555
B5 Nb2 2.563027 1_655
B6 Ni3 2.029814 1_555
B6 Ni2 2.068814 1_555
B6 Nb0 2.426851 1_455
B6 Nb0 2.426851 1_555
B6 Nb2 2.472072 1_555
B6 Nb1 2.563027 1_555
B6 Nb1 2.563027 1_455
B7 Ni2 2.029814 1_555
B7 Ni3 2.068814 1_545
B7 Nb1 2.426851 1_445
B7 Nb1 2.426851 1_545
B7 Nb3 2.472072 1_556
B7 Nb0 2.563027 1_455
B7 Nb0 2.563027 1_555
