# generated using pymatgen
data_SrAl(OF2)2
_symmetry_space_group_name_H-M   'P 1'
_cell_length_a   7.02611445
_cell_length_b   7.02611445
_cell_length_c   14.21208506
_cell_angle_alpha   72.67877888
_cell_angle_beta   72.67877888
_cell_angle_gamma   44.63881186
_symmetry_Int_Tables_number   1
_chemical_formula_structural   SrAl(OF2)2
_chemical_formula_sum   'Sr4 Al4 O8 F16'
_cell_volume   466.73849267
_cell_formula_units_Z   4
loop_
 _symmetry_equiv_pos_site_id
 _symmetry_equiv_pos_as_xyz
  1  'x, y, z'
loop_
 _atom_site_type_symbol
 _atom_site_label
 _atom_site_symmetry_multiplicity
 _atom_site_fract_x
 _atom_site_fract_y
 _atom_site_fract_z
 _atom_site_occupancy
  Sr  Sr0  1  0.98745700  0.35153800  0.65358900  1
  Sr  Sr1  1  0.64846200  0.01254300  0.84641100  1
  Sr  Sr2  1  0.01254300  0.64846200  0.34641100  1
  Sr  Sr3  1  0.35153800  0.98745700  0.15358900  1
  Al  Al0  1  0.99756900  0.21773400  0.91412100  1
  Al  Al1  1  0.78226600  0.00243100  0.58587900  1
  Al  Al2  1  0.00243100  0.78226600  0.08587900  1
  Al  Al3  1  0.21773400  0.99756900  0.41412100  1
  O  O0  1  0.17213600  0.83396400  0.95812900  1
  O  O1  1  0.16603600  0.82786400  0.54187100  1
  O  O2  1  0.82786400  0.16603600  0.04187100  1
  O  O3  1  0.83396400  0.17213600  0.45812900  1
  O  O4  1  0.41516200  0.79662500  0.64940100  1
  O  O5  1  0.20337500  0.58483800  0.85059900  1
  O  O6  1  0.58483800  0.20337500  0.35059900  1
  O  O7  1  0.79662500  0.41516200  0.14940100  1
  F  F0  1  0.23049400  0.16601200  0.80279500  1
  F  F1  1  0.83398800  0.76950600  0.69720500  1
  F  F2  1  0.76950600  0.83398800  0.19720500  1
  F  F3  1  0.16601200  0.23049400  0.30279500  1
  F  F4  1  0.42716000  0.22583600  0.59592500  1
  F  F5  1  0.77416400  0.57284000  0.90407500  1
  F  F6  1  0.57284000  0.77416400  0.40407500  1
  F  F7  1  0.22583600  0.42716000  0.09592500  1
  F  F8  1  0.76230300  0.18613200  0.66104600  1
  F  F9  1  0.81386800  0.23769700  0.83895400  1
  F  F10  1  0.23769700  0.81386800  0.33895400  1
  F  F11  1  0.18613200  0.76230300  0.16104600  1
  F  F12  1  0.14136300  0.23440000  0.48054100  1
  F  F13  1  0.76560000  0.85863700  0.01945900  1
  F  F14  1  0.85863700  0.76560000  0.51945900  1
  F  F15  1  0.23440000  0.14136300  0.98054100  1
loop_
_geom_bond_atom_site_label_1
_geom_bond_atom_site_label_2
_geom_bond_distance
_geom_bond_site_symmetry_2
Al0 F5 1.748520 1_555
Al0 F0 1.807716 1_655
Al0 F9 1.816863 1_555
Al0 F15 1.819599 1_655
Al0 O2 1.945416 1_556
Al0 O0 1.977942 1_645
Al1 F4 1.748520 1_555
Al1 F1 1.807716 1_545
Al1 F8 1.816863 1_555
Al1 F14 1.819599 1_545
Al1 O3 1.945416 1_555
Al1 O1 1.977942 1_645
Al2 F7 1.748520 1_555
Al2 F2 1.807716 1_455
Al2 F11 1.816863 1_555
Al2 F13 1.819599 1_455
Al2 O0 1.945416 1_554
Al2 O2 1.977942 1_465
Al3 F6 1.748520 1_555
Al3 F3 1.807716 1_565
Al3 F10 1.816863 1_555
Al3 F12 1.819599 1_565
Al3 O1 1.945416 1_555
Al3 O3 1.977942 1_465
O4 Sr0 2.755600 1_465
O4 Sr0 2.844004 1_555
O5 Sr1 2.755600 1_465
O5 Sr1 2.844004 1_555
O6 Sr2 2.755600 1_645
O6 Sr2 2.844004 1_555
O7 Sr3 2.755600 1_645
O7 Sr3 2.844004 1_555
F0 Sr1 2.520052 1_555
F0 Sr0 2.540526 1_455
F1 Sr0 2.520052 1_555
F1 Sr1 2.540526 1_565
F2 Sr3 2.520052 1_555
F2 Sr2 2.540526 1_655
F3 Sr2 2.520052 1_555
F3 Sr3 2.540526 1_545
F4 Sr0 2.456921 1_455
F5 Sr1 2.456921 1_565
F6 Sr2 2.456921 1_655
F7 Sr3 2.456921 1_545
F8 Sr0 2.511499 1_555
F8 Sr1 2.699601 1_555
F9 Sr1 2.511499 1_555
F9 Sr0 2.699601 1_555
F10 Sr2 2.511499 1_555
F10 Sr3 2.699601 1_555
F11 Sr3 2.511499 1_555
F11 Sr2 2.699601 1_555
F12 Sr0 2.500073 1_455
F12 Sr2 2.625760 1_555
F13 Sr1 2.500073 1_564
F13 Sr3 2.625760 1_555
F14 Sr2 2.500073 1_655
F14 Sr0 2.625760 1_555
F15 Sr3 2.500073 1_546
F15 Sr1 2.625760 1_555
