# generated using pymatgen
data_Sr2YbSbO6
_symmetry_space_group_name_H-M   'P 1'
_cell_length_a   5.88562999
_cell_length_b   5.93672400
_cell_length_c   8.33323978
_cell_angle_alpha   90.00000000
_cell_angle_beta   90.08588864
_cell_angle_gamma   90.00000000
_symmetry_Int_Tables_number   1
_chemical_formula_structural   Sr2YbSbO6
_chemical_formula_sum   'Sr4 Yb2 Sb2 O12'
_cell_volume   291.17441112
_cell_formula_units_Z   2
loop_
 _symmetry_equiv_pos_site_id
 _symmetry_equiv_pos_as_xyz
  1  'x, y, z'
loop_
 _atom_site_type_symbol
 _atom_site_label
 _atom_site_symmetry_multiplicity
 _atom_site_fract_x
 _atom_site_fract_y
 _atom_site_fract_z
 _atom_site_occupancy
  Sr  Sr0  1  0.49225200  0.53669500  0.24988600  1
  Sr  Sr1  1  0.99225200  0.96330500  0.74988600  1
  Sr  Sr2  1  0.50774800  0.46330500  0.75011400  1
  Sr  Sr3  1  0.00774800  0.03669500  0.25011400  1
  Yb  Yb0  1  0.00000000  0.50000000  0.50000000  1
  Yb  Yb1  1  0.50000000  0.00000000  0.00000000  1
  Sb  Sb0  1  0.50000000  0.00000000  0.50000000  1
  Sb  Sb1  1  0.00000000  0.50000000  0.00000000  1
  O  O0  1  0.22916500  0.80167900  0.45954100  1
  O  O1  1  0.72916500  0.69832100  0.95954100  1
  O  O2  1  0.77083500  0.19832100  0.54045900  1
  O  O3  1  0.27083500  0.30167900  0.04045900  1
  O  O4  1  0.19455300  0.77141800  0.04402900  1
  O  O5  1  0.69455300  0.72858200  0.54402900  1
  O  O6  1  0.80544700  0.22858200  0.95597100  1
  O  O7  1  0.30544700  0.27141800  0.45597100  1
  O  O8  1  0.58028900  0.97594100  0.26630600  1
  O  O9  1  0.08028900  0.52405900  0.76630600  1
  O  O10  1  0.41971100  0.02405900  0.73369400  1
  O  O11  1  0.91971100  0.47594100  0.23369400  1
loop_
_geom_bond_atom_site_label_1
_geom_bond_atom_site_label_2
_geom_bond_distance
_geom_bond_site_symmetry_2
O0 Sb0 2.009782 1_565
O0 Yb0 2.267570 1_555
O0 Sr3 2.585314 1_565
O0 Sr0 2.816539 1_555
O0 Sr1 2.954516 1_455
O1 Sb1 2.009782 1_656
O1 Yb1 2.267570 1_566
O1 Sr2 2.585314 1_555
O1 Sr1 2.816539 1_555
O1 Sr0 2.954516 1_556
O2 Sb0 2.009782 1_555
O2 Yb0 2.267570 1_655
O2 Sr1 2.585314 1_545
O2 Sr2 2.816539 1_555
O2 Sr3 2.954516 1_655
O3 Sb1 2.009782 1_555
O3 Yb1 2.267570 1_555
O3 Sr0 2.585314 1_555
O3 Sr3 2.816539 1_555
O3 Sr2 2.954516 1_554
O4 Sb1 2.010207 1_555
O4 Yb1 2.282547 1_565
O4 Sr3 2.577602 1_565
O4 Sr0 2.818793 1_555
O4 Sr1 2.952097 1_454
O5 Sb0 2.010207 1_565
O5 Yb0 2.282547 1_655
O5 Sr2 2.577602 1_555
O5 Sr1 2.818793 1_555
O5 Sr0 2.952097 1_555
O6 Sb1 2.010207 1_656
O6 Yb1 2.282547 1_556
O6 Sr1 2.577602 1_545
O6 Sr2 2.818793 1_555
O6 Sr3 2.952097 1_656
O7 Sb0 2.010207 1_555
O7 Yb0 2.282547 1_555
O7 Sr0 2.577602 1_555
O7 Sr3 2.818793 1_555
O7 Sr2 2.952097 1_555
O8 Sb0 2.009712 1_565
O8 Yb1 2.272746 1_565
O8 Sr3 2.545367 1_665
O8 Sr0 2.662142 1_555
O9 Sb1 2.009712 1_556
O9 Yb0 2.272746 1_555
O9 Sr2 2.545367 1_555
O9 Sr1 2.662142 1_455
O10 Sb0 2.009712 1_555
O10 Yb1 2.272746 1_556
O10 Sr1 2.545367 1_445
O10 Sr2 2.662142 1_555
O11 Sb1 2.009712 1_655
O11 Yb0 2.272746 1_655
O11 Sr0 2.545367 1_555
O11 Sr3 2.662142 1_655
