# generated using pymatgen
data_K3InC12(O2F3)6
_symmetry_space_group_name_H-M   'P 1'
_cell_length_a   10.20678380
_cell_length_b   10.20678380
_cell_length_c   7.51120300
_cell_angle_alpha   90.00000000
_cell_angle_beta   90.00000000
_cell_angle_gamma   119.99999868
_symmetry_Int_Tables_number   1
_chemical_formula_structural   K3InC12(O2F3)6
_chemical_formula_sum   'K3 In1 C12 O12 F18'
_cell_volume   677.66954411
_cell_formula_units_Z   1
loop_
 _symmetry_equiv_pos_site_id
 _symmetry_equiv_pos_as_xyz
  1  'x, y, z'
loop_
 _atom_site_type_symbol
 _atom_site_label
 _atom_site_symmetry_multiplicity
 _atom_site_fract_x
 _atom_site_fract_y
 _atom_site_fract_z
 _atom_site_occupancy
  K  K0  1  0.00000000  0.00000000  0.50000000  1
  K  K1  1  0.33333300  0.66666700  0.07911600  1
  K  K2  1  0.66666700  0.33333300  0.92088400  1
  In  In0  1  0.00000000  0.00000000  0.00000000  1
  C  C0  1  0.40195200  0.05259400  0.31121200  1
  C  C1  1  0.59804800  0.94740600  0.68878800  1
  C  C2  1  0.94740600  0.34935800  0.31121200  1
  C  C3  1  0.05259400  0.65064200  0.68878800  1
  C  C4  1  0.65064200  0.59804800  0.31121200  1
  C  C5  1  0.34935800  0.40195200  0.68878800  1
  C  C6  1  0.31504400  0.07496600  0.15289400  1
  C  C7  1  0.68495600  0.92503400  0.84710600  1
  C  C8  1  0.92503400  0.24007800  0.15289400  1
  C  C9  1  0.07496600  0.75992200  0.84710600  1
  C  C10  1  0.75992200  0.68495600  0.15289400  1
  C  C11  1  0.24007800  0.31504400  0.84710600  1
  O  O0  1  0.17882700  0.03855000  0.19358600  1
  O  O1  1  0.82117300  0.96145000  0.80641400  1
  O  O2  1  0.96145000  0.14027800  0.19358600  1
  O  O3  1  0.03855000  0.85972200  0.80641400  1
  O  O4  1  0.85972200  0.82117300  0.19358600  1
  O  O5  1  0.14027800  0.17882700  0.80641400  1
  O  O6  1  0.38265300  0.11947800  0.00956900  1
  O  O7  1  0.61734700  0.88052200  0.99043100  1
  O  O8  1  0.88052200  0.26317500  0.00956900  1
  O  O9  1  0.11947800  0.73682500  0.99043100  1
  O  O10  1  0.73682500  0.61734700  0.00956900  1
  O  O11  1  0.26317500  0.38265300  0.99043100  1
  F  F0  1  0.36103700  0.08013700  0.47309200  1
  F  F1  1  0.63896300  0.91986300  0.52690800  1
  F  F2  1  0.91986300  0.28090100  0.47309200  1
  F  F3  1  0.08013700  0.71909900  0.52690800  1
  F  F4  1  0.71909900  0.63896300  0.47309200  1
  F  F5  1  0.28090100  0.36103700  0.52690800  1
  F  F6  1  0.55420300  0.14244700  0.29516600  1
  F  F7  1  0.44579700  0.85755300  0.70483400  1
  F  F8  1  0.85755300  0.41175700  0.29516600  1
  F  F9  1  0.14244700  0.58824300  0.70483400  1
  F  F10  1  0.58824300  0.44579700  0.29516600  1
  F  F11  1  0.41175700  0.55420300  0.70483400  1
  F  F12  1  0.09439100  0.46713600  0.31272800  1
  F  F13  1  0.90560900  0.53286400  0.68727200  1
  F  F14  1  0.53286400  0.62725500  0.31272800  1
  F  F15  1  0.46713600  0.37274500  0.68727200  1
  F  F16  1  0.37274500  0.90560900  0.31272800  1
  F  F17  1  0.62725500  0.09439100  0.68727200  1
loop_
_geom_bond_atom_site_label_1
_geom_bond_atom_site_label_2
_geom_bond_distance
_geom_bond_site_symmetry_2
K0 O0 2.839937 1_555
K0 O1 2.839937 1_445
K0 O5 2.839939 1_555
K0 O4 2.839939 1_445
K0 O3 2.839943 1_545
K0 O2 2.839943 1_455
K1 O9 2.698900 1_554
K1 O7 2.698907 1_554
K1 O11 2.698909 1_554
K2 O8 2.698900 1_556
K2 O6 2.698907 1_556
K2 O10 2.698909 1_556
In0 O0 2.209631 1_555
In0 O1 2.209631 1_444
In0 O5 2.209634 1_554
In0 O4 2.209634 1_445
In0 O2 2.209639 1_455
In0 O3 2.209639 1_544
C0 F6 1.358429 1_555
C0 F0 1.359881 1_555
C0 F16 1.375680 1_545
C1 F7 1.358429 1_555
C1 F1 1.359881 1_555
C1 F17 1.375680 1_565
C2 F8 1.358437 1_555
C2 F2 1.359877 1_555
C2 F12 1.375680 1_655
C3 F9 1.358437 1_555
C3 F3 1.359877 1_555
C3 F13 1.375680 1_455
C4 F10 1.358428 1_555
C4 F4 1.359877 1_555
C4 F14 1.375680 1_555
C5 F11 1.358428 1_555
C5 F5 1.359877 1_555
C5 F15 1.375680 1_555
C6 O6 1.236138 1_555
C6 O0 1.283681 1_555
C7 O7 1.236138 1_555
C7 O1 1.283681 1_555
C8 O8 1.236138 1_555
C8 O2 1.283671 1_555
C9 O9 1.236138 1_555
C9 O3 1.283671 1_555
C10 O10 1.236138 1_555
C10 O4 1.283678 1_555
C11 O11 1.236138 1_555
C11 O5 1.283678 1_555
F12 K1 2.864901 1_555
F13 K2 2.864901 1_555
F14 K1 2.864906 1_555
F15 K2 2.864906 1_555
F16 K1 2.864898 1_555
F17 K2 2.864898 1_555
