# generated using pymatgen
data_CaAl2(Si8O19)2
_symmetry_space_group_name_H-M   'P 1'
_cell_length_a   13.50404139
_cell_length_b   13.50404139
_cell_length_c   14.75367200
_cell_angle_alpha   90.00000000
_cell_angle_beta   90.00000000
_cell_angle_gamma   120.71052975
_symmetry_Int_Tables_number   1
_chemical_formula_structural   CaAl2(Si8O19)2
_chemical_formula_sum   'Ca2 Al4 Si32 O76'
_cell_volume   2313.15155186
_cell_formula_units_Z   2
loop_
 _symmetry_equiv_pos_site_id
 _symmetry_equiv_pos_as_xyz
  1  'x, y, z'
loop_
 _atom_site_type_symbol
 _atom_site_label
 _atom_site_symmetry_multiplicity
 _atom_site_fract_x
 _atom_site_fract_y
 _atom_site_fract_z
 _atom_site_occupancy
  Ca  Ca0  1  0.01408200  0.98591800  0.25000000  1
  Ca  Ca1  1  0.98591800  0.01408200  0.75000000  1
  Al  Al0  1  0.10070600  0.43424200  0.75000000  1
  Al  Al1  1  0.56575800  0.89929400  0.75000000  1
  Al  Al2  1  0.89929400  0.56575800  0.25000000  1
  Al  Al3  1  0.43424200  0.10070600  0.25000000  1
  Si  Si0  1  0.00261500  0.22418500  0.38914500  1
  Si  Si1  1  0.76728600  0.76642000  0.39137200  1
  Si  Si2  1  0.22997500  0.00243800  0.39250100  1
  Si  Si3  1  0.99756200  0.77002500  0.39250100  1
  Si  Si4  1  0.77581500  0.99738500  0.38914500  1
  Si  Si5  1  0.23358000  0.23271400  0.39137200  1
  Si  Si6  1  0.99738500  0.77581500  0.61085500  1
  Si  Si7  1  0.23271400  0.23358000  0.60862800  1
  Si  Si8  1  0.77002500  0.99756200  0.60749900  1
  Si  Si9  1  0.00243800  0.22997500  0.60749900  1
  Si  Si10  1  0.22418500  0.00261500  0.61085500  1
  Si  Si11  1  0.76642000  0.76728600  0.60862800  1
  Si  Si12  1  0.99738500  0.77581500  0.88914500  1
  Si  Si13  1  0.23271400  0.23358000  0.89137200  1
  Si  Si14  1  0.77002500  0.99756200  0.89250100  1
  Si  Si15  1  0.00243800  0.22997500  0.89250100  1
  Si  Si16  1  0.22418500  0.00261500  0.88914500  1
  Si  Si17  1  0.76642000  0.76728600  0.89137200  1
  Si  Si18  1  0.00261500  0.22418500  0.11085500  1
  Si  Si19  1  0.76728600  0.76642000  0.10862800  1
  Si  Si20  1  0.22997500  0.00243800  0.10749900  1
  Si  Si21  1  0.99756200  0.77002500  0.10749900  1
  Si  Si22  1  0.77581500  0.99738500  0.11085500  1
  Si  Si23  1  0.23358000  0.23271400  0.10862800  1
  Si  Si24  1  0.57032200  0.66406600  0.75000000  1
  Si  Si25  1  0.32832800  0.90888800  0.75000000  1
  Si  Si26  1  0.09111200  0.67167200  0.75000000  1
  Si  Si27  1  0.33593400  0.42967800  0.75000000  1
  Si  Si28  1  0.42967800  0.33593400  0.25000000  1
  Si  Si29  1  0.67167200  0.09111200  0.25000000  1
  Si  Si30  1  0.90888800  0.32832800  0.25000000  1
  Si  Si31  1  0.66406600  0.57032200  0.25000000  1
  O  O0  1  0.33430300  0.66569700  0.42994900  1
  O  O1  1  0.66569700  0.33430300  0.57005100  1
  O  O2  1  0.66569700  0.33430300  0.92994900  1
  O  O3  1  0.33430300  0.66569700  0.07005100  1
  O  O4  1  0.99802800  0.23501300  0.49764300  1
  O  O5  1  0.74895400  0.74895400  0.50000000  1
  O  O6  1  0.23501300  0.99802800  0.50235700  1
  O  O7  1  0.00197200  0.76498700  0.50235700  1
  O  O8  1  0.76498700  0.00197200  0.49764300  1
  O  O9  1  0.25104600  0.25104600  0.50000000  1
  O  O10  1  0.00197200  0.76498700  0.99764300  1
  O  O11  1  0.25104600  0.25104600  0.00000000  1
  O  O12  1  0.76498700  0.00197200  0.00235700  1
  O  O13  1  0.99802800  0.23501300  0.00235700  1
  O  O14  1  0.23501300  0.99802800  0.99764300  1
  O  O15  1  0.74895400  0.74895400  0.00000000  1
  O  O16  1  0.09536500  0.18548500  0.86435100  1
  O  O17  1  0.81451500  0.90463500  0.86435100  1
  O  O18  1  0.08649700  0.91350300  0.85884300  1
  O  O19  1  0.90463500  0.81451500  0.13564900  1
  O  O20  1  0.18548500  0.09536500  0.13564900  1
  O  O21  1  0.91350300  0.08649700  0.14115700  1
  O  O22  1  0.90463500  0.81451500  0.36435100  1
  O  O23  1  0.18548500  0.09536500  0.36435100  1
  O  O24  1  0.91350300  0.08649700  0.35884300  1
  O  O25  1  0.09536500  0.18548500  0.63564900  1
  O  O26  1  0.81451500  0.90463500  0.63564900  1
  O  O27  1  0.08649700  0.91350300  0.64115700  1
  O  O28  1  0.46909900  0.53090100  0.75000000  1
  O  O29  1  0.45003800  0.92017400  0.75000000  1
  O  O30  1  0.07982600  0.54996200  0.75000000  1
  O  O31  1  0.53090100  0.46909900  0.25000000  1
  O  O32  1  0.54996200  0.07982600  0.25000000  1
  O  O33  1  0.92017400  0.45003800  0.25000000  1
  O  O34  1  0.03368800  0.34711900  0.84608800  1
  O  O35  1  0.64964200  0.67874700  0.84035400  1
  O  O36  1  0.31067600  0.97210900  0.83955200  1
  O  O37  1  0.02789100  0.68932400  0.83955200  1
  O  O38  1  0.65288100  0.96631200  0.84608800  1
  O  O39  1  0.32125300  0.35035800  0.84035400  1
  O  O40  1  0.96631200  0.65288100  0.15391200  1
  O  O41  1  0.35035800  0.32125300  0.15964600  1
  O  O42  1  0.68932400  0.02789100  0.16044800  1
  O  O43  1  0.97210900  0.31067600  0.16044800  1
  O  O44  1  0.34711900  0.03368800  0.15391200  1
  O  O45  1  0.67874700  0.64964200  0.15964600  1
  O  O46  1  0.96631200  0.65288100  0.34608800  1
  O  O47  1  0.35035800  0.32125300  0.34035400  1
  O  O48  1  0.68932400  0.02789100  0.33955200  1
  O  O49  1  0.97210900  0.31067600  0.33955200  1
  O  O50  1  0.34711900  0.03368800  0.34608800  1
  O  O51  1  0.67874700  0.64964200  0.34035400  1
  O  O52  1  0.03368800  0.34711900  0.65391200  1
  O  O53  1  0.64964200  0.67874700  0.65964600  1
  O  O54  1  0.31067600  0.97210900  0.66044800  1
  O  O55  1  0.02789100  0.68932400  0.66044800  1
  O  O56  1  0.65288100  0.96631200  0.65391200  1
  O  O57  1  0.32125300  0.35035800  0.65964600  1
  O  O58  1  0.24540100  0.47145300  0.75000000  1
  O  O59  1  0.52854700  0.75459900  0.75000000  1
  O  O60  1  0.22440300  0.77559700  0.75000000  1
  O  O61  1  0.75459900  0.52854700  0.25000000  1
  O  O62  1  0.47145300  0.24540100  0.25000000  1
  O  O63  1  0.77559700  0.22440300  0.25000000  1
  O  O64  1  0.12850100  0.24928100  0.14342900  1
  O  O65  1  0.75071900  0.87149900  0.14342900  1
  O  O66  1  0.11716400  0.88283600  0.14479700  1
  O  O67  1  0.87149900  0.75071900  0.85657100  1
  O  O68  1  0.24928100  0.12850100  0.85657100  1
  O  O69  1  0.88283600  0.11716400  0.85520300  1
  O  O70  1  0.87149900  0.75071900  0.64342900  1
  O  O71  1  0.24928100  0.12850100  0.64342900  1
  O  O72  1  0.88283600  0.11716400  0.64479700  1
  O  O73  1  0.12850100  0.24928100  0.35657100  1
  O  O74  1  0.75071900  0.87149900  0.35657100  1
  O  O75  1  0.11716400  0.88283600  0.35520300  1
loop_
_geom_bond_atom_site_label_1
_geom_bond_atom_site_label_2
_geom_bond_distance
_geom_bond_site_symmetry_2
Ca0 O22 2.625652 1_455
Ca0 O19 2.625652 1_455
Ca0 O23 2.625652 1_565
Ca0 O20 2.625652 1_565
Ca0 O24 2.855257 1_465
Ca0 O21 2.855257 1_465
Ca0 O75 2.874677 1_555
Ca0 O66 2.874677 1_555
Ca1 O26 2.625652 1_545
Ca1 O17 2.625652 1_545
Ca1 O25 2.625652 1_655
Ca1 O16 2.625652 1_655
Ca1 O18 2.855257 1_645
Ca1 O27 2.855257 1_645
Ca1 O69 2.874677 1_555
Ca1 O72 2.874677 1_555
Al0 O30 1.723818 1_555
Al0 O58 1.751460 1_555
Al0 O34 1.767885 1_555
Al0 O52 1.767885 1_555
Al1 O29 1.723818 1_555
Al1 O59 1.751460 1_555
Al1 O38 1.767885 1_555
Al1 O56 1.767885 1_555
Al2 O33 1.723818 1_555
Al2 O61 1.751460 1_555
Al2 O40 1.767885 1_555
Al2 O46 1.767885 1_555
Al3 O32 1.723818 1_555
Al3 O62 1.751460 1_555
Al3 O50 1.767885 1_555
Al3 O44 1.767885 1_555
O4 Si0 1.611474 1_655
O4 Si9 1.624574 1_655
O5 Si11 1.620432 1_555
O5 Si1 1.620432 1_555
O6 Si10 1.611474 1_565
O6 Si2 1.624574 1_565
O7 Si6 1.611474 1_455
O7 Si3 1.624574 1_455
O8 Si4 1.611474 1_545
O8 Si8 1.624574 1_545
O9 Si7 1.620432 1_555
O9 Si5 1.620432 1_555
O10 Si12 1.611474 1_455
O10 Si21 1.624574 1_456
O11 Si23 1.620432 1_555
O11 Si13 1.620432 1_554
O12 Si22 1.611474 1_545
O12 Si14 1.624574 1_544
O13 Si18 1.611474 1_655
O13 Si15 1.624574 1_654
O14 Si16 1.611474 1_565
O14 Si20 1.624574 1_566
O15 Si19 1.620432 1_555
O15 Si17 1.620432 1_554
O16 Si13 1.670479 1_555
O16 Si15 1.696543 1_555
O17 Si17 1.670479 1_555
O17 Si14 1.696543 1_555
O18 Si12 1.679215 1_455
O18 Si16 1.679215 1_565
O19 Si19 1.670479 1_555
O19 Si21 1.696543 1_555
O20 Si23 1.670479 1_555
O20 Si20 1.696543 1_555
O21 Si22 1.679215 1_545
O21 Si18 1.679215 1_655
O22 Si1 1.670479 1_555
O22 Si3 1.696543 1_555
O23 Si5 1.670479 1_555
O23 Si2 1.696543 1_555
O24 Si4 1.679215 1_545
O24 Si0 1.679215 1_655
O25 Si7 1.670479 1_555
O25 Si9 1.696543 1_555
O26 Si11 1.670479 1_555
O26 Si8 1.696543 1_555
O27 Si6 1.679215 1_455
O27 Si10 1.679215 1_565
O28 Si24 1.609825 1_555
O28 Si27 1.609825 1_555
O29 Si25 1.571216 1_555
O30 Si26 1.571216 1_555
O31 Si31 1.609825 1_555
O31 Si28 1.609825 1_555
O32 Si29 1.571216 1_555
O33 Si30 1.571216 1_555
O34 Si15 1.570856 1_555
O35 Si17 1.599098 1_555
O35 Si24 1.657340 1_555
O36 Si16 1.600214 1_565
O36 Si25 1.655047 1_555
O37 Si12 1.600214 1_455
O37 Si26 1.655047 1_555
O38 Si14 1.570856 1_555
O39 Si13 1.599098 1_555
O39 Si27 1.657340 1_555
O40 Si21 1.570856 1_555
O41 Si23 1.599098 1_555
O41 Si28 1.657340 1_555
O42 Si22 1.600214 1_545
O42 Si29 1.655047 1_555
O43 Si18 1.600214 1_655
O43 Si30 1.655047 1_555
O44 Si20 1.570856 1_555
O45 Si19 1.599098 1_555
O45 Si31 1.657340 1_555
O46 Si3 1.570856 1_555
O47 Si5 1.599098 1_555
O47 Si28 1.657340 1_555
O48 Si4 1.600214 1_545
O48 Si29 1.655047 1_555
O49 Si0 1.600214 1_655
O49 Si30 1.655047 1_555
O50 Si2 1.570856 1_555
O51 Si1 1.599098 1_555
O51 Si31 1.657340 1_555
O52 Si9 1.570856 1_555
O53 Si11 1.599098 1_555
O53 Si24 1.657340 1_555
O54 Si10 1.600214 1_565
O54 Si25 1.655047 1_555
O55 Si6 1.600214 1_455
O55 Si26 1.655047 1_555
O56 Si8 1.570856 1_555
O57 Si7 1.599098 1_555
O57 Si27 1.657340 1_555
O58 Si27 1.586615 1_555
O59 Si24 1.586615 1_555
O60 Si25 1.621507 1_555
O60 Si26 1.621507 1_555
O61 Si31 1.586615 1_555
O62 Si28 1.586615 1_555
O63 Si30 1.621507 1_555
O63 Si29 1.621507 1_555
O64 Si18 1.627042 1_555
O64 Si23 1.628331 1_555
O65 Si22 1.627042 1_555
O65 Si19 1.628331 1_555
O66 Si21 1.648948 1_455
O66 Si20 1.648948 1_565
O67 Si12 1.627042 1_555
O67 Si17 1.628331 1_555
O68 Si16 1.627042 1_555
O68 Si13 1.628331 1_555
O69 Si14 1.648948 1_545
O69 Si15 1.648948 1_655
O70 Si6 1.627042 1_555
O70 Si11 1.628331 1_555
O71 Si10 1.627042 1_555
O71 Si7 1.628331 1_555
O72 Si8 1.648948 1_545
O72 Si9 1.648948 1_655
O73 Si0 1.627042 1_555
O73 Si5 1.628331 1_555
O74 Si4 1.627042 1_555
O74 Si1 1.628331 1_555
O75 Si3 1.648948 1_455
O75 Si2 1.648948 1_565
