# generated using pymatgen
data_Tb5Ge4
_symmetry_space_group_name_H-M   'P 1'
_cell_length_a   7.67628329
_cell_length_b   7.73886030
_cell_length_c   14.73108896
_cell_angle_alpha   90.00000000
_cell_angle_beta   90.00000000
_cell_angle_gamma   90.00000000
_symmetry_Int_Tables_number   1
_chemical_formula_structural   Tb5Ge4
_chemical_formula_sum   'Tb20 Ge16'
_cell_volume   875.11041580
_cell_formula_units_Z   4
loop_
 _symmetry_equiv_pos_site_id
 _symmetry_equiv_pos_as_xyz
  1  'x, y, z'
loop_
 _atom_site_type_symbol
 _atom_site_label
 _atom_site_symmetry_multiplicity
 _atom_site_fract_x
 _atom_site_fract_y
 _atom_site_fract_z
 _atom_site_occupancy
  Tb  Tb0  1  0.72200979  0.99677366  0.75000000  1
  Tb  Tb1  1  0.22200979  0.50322634  0.75000000  1
  Tb  Tb2  1  0.77799021  0.49677366  0.25000000  1
  Tb  Tb3  1  0.27799021  0.00322634  0.25000000  1
  Tb  Tb4  1  0.03785427  0.17449371  0.60372833  1
  Tb  Tb5  1  0.53785427  0.32550629  0.89627167  1
  Tb  Tb6  1  0.46214573  0.67449371  0.39627167  1
  Tb  Tb7  1  0.96214573  0.82550629  0.10372833  1
  Tb  Tb8  1  0.96214573  0.82550629  0.39627167  1
  Tb  Tb9  1  0.46214573  0.67449371  0.10372833  1
  Tb  Tb10  1  0.53785427  0.32550629  0.60372833  1
  Tb  Tb11  1  0.03785427  0.17449371  0.89627167  1
  Tb  Tb12  1  0.88702318  0.65950828  0.61474710  1
  Tb  Tb13  1  0.38702318  0.84049172  0.88525290  1
  Tb  Tb14  1  0.61297682  0.15950828  0.38525290  1
  Tb  Tb15  1  0.11297682  0.34049172  0.11474710  1
  Tb  Tb16  1  0.11297682  0.34049172  0.38525290  1
  Tb  Tb17  1  0.61297682  0.15950828  0.11474710  1
  Tb  Tb18  1  0.38702318  0.84049172  0.61474710  1
  Tb  Tb19  1  0.88702318  0.65950828  0.88525290  1
  Ge  Ge0  1  0.15886628  0.63540485  0.25000000  1
  Ge  Ge1  1  0.65886628  0.86459515  0.25000000  1
  Ge  Ge2  1  0.34113372  0.13540485  0.75000000  1
  Ge  Ge3  1  0.84113372  0.36459515  0.75000000  1
  Ge  Ge4  1  0.90676617  0.11663930  0.25000000  1
  Ge  Ge5  1  0.40676617  0.38336070  0.25000000  1
  Ge  Ge6  1  0.59323383  0.61663930  0.75000000  1
  Ge  Ge7  1  0.09323383  0.88336070  0.75000000  1
  Ge  Ge8  1  0.77198393  0.47236597  0.45441590  1
  Ge  Ge9  1  0.27198393  0.02763403  0.04558410  1
  Ge  Ge10  1  0.72801607  0.97236597  0.54558410  1
  Ge  Ge11  1  0.22801607  0.52763403  0.95441590  1
  Ge  Ge12  1  0.22801607  0.52763403  0.54558410  1
  Ge  Ge13  1  0.72801607  0.97236597  0.95441590  1
  Ge  Ge14  1  0.27198393  0.02763403  0.45441590  1
  Ge  Ge15  1  0.77198393  0.47236597  0.04558410  1
loop_
_geom_bond_atom_site_label_1
_geom_bond_atom_site_label_2
_geom_bond_distance
_geom_bond_site_symmetry_2
Ge0 Ge5 2.725033 1_555
Ge0 Tb3 2.989791 1_565
Ge0 Tb7 3.014564 1_455
Ge0 Tb8 3.014564 1_455
Ge0 Tb16 3.050031 1_555
Ge0 Tb15 3.050031 1_555
Ge0 Tb2 3.114337 1_455
Ge0 Tb9 3.186577 1_555
Ge0 Tb6 3.186577 1_555
Ge1 Ge4 2.725033 1_565
Ge1 Tb2 2.989791 1_555
Ge1 Tb9 3.014564 1_555
Ge1 Tb6 3.014564 1_555
Ge1 Tb14 3.050031 1_565
Ge1 Tb17 3.050031 1_565
Ge1 Tb3 3.114337 1_565
Ge1 Tb7 3.186577 1_555
Ge1 Tb8 3.186577 1_555
Ge2 Ge7 2.725033 1_545
Ge2 Tb1 2.989791 1_555
Ge2 Tb10 3.014564 1_555
Ge2 Tb5 3.014564 1_555
Ge2 Tb13 3.050031 1_545
Ge2 Tb18 3.050031 1_545
Ge2 Tb0 3.114337 1_545
Ge2 Tb4 3.186577 1_555
Ge2 Tb11 3.186577 1_555
Ge3 Ge6 2.725033 1_555
Ge3 Tb0 2.989791 1_545
Ge3 Tb11 3.014564 1_655
Ge3 Tb4 3.014564 1_655
Ge3 Tb12 3.050031 1_555
Ge3 Tb19 3.050031 1_555
Ge3 Tb1 3.114337 1_655
Ge3 Tb10 3.186577 1_555
Ge3 Tb5 3.186577 1_555
Ge4 Tb3 2.981723 1_655
Ge4 Tb14 3.027505 1_555
Ge4 Tb17 3.027505 1_555
Ge4 Tb16 3.078392 1_655
Ge4 Tb15 3.078392 1_655
Ge4 Tb2 3.103450 1_555
Ge4 Tb7 3.146396 1_545
Ge4 Tb8 3.146396 1_545
Ge5 Tb2 2.981723 1_555
Ge5 Tb16 3.027505 1_555
Ge5 Tb15 3.027505 1_555
Ge5 Tb14 3.078392 1_555
Ge5 Tb17 3.078392 1_555
Ge5 Tb3 3.103450 1_555
Ge5 Tb9 3.146396 1_555
Ge5 Tb6 3.146396 1_555
Ge6 Tb1 2.981723 1_555
Ge6 Tb19 3.027505 1_555
Ge6 Tb12 3.027505 1_555
Ge6 Tb13 3.078392 1_555
Ge6 Tb18 3.078392 1_555
Ge6 Tb0 3.103450 1_555
Ge6 Tb10 3.146396 1_555
Ge6 Tb5 3.146396 1_555
Ge7 Tb0 2.981723 1_455
Ge7 Tb18 3.027505 1_555
Ge7 Tb13 3.027505 1_555
Ge7 Tb19 3.078392 1_455
Ge7 Tb12 3.078392 1_455
Ge7 Tb1 3.103450 1_555
Ge7 Tb11 3.146396 1_565
Ge7 Tb4 3.146396 1_565
Ge8 Tb14 2.896532 1_555
Ge8 Tb12 2.907860 1_555
Ge8 Tb6 2.972759 1_555
Ge8 Tb16 2.988510 1_655
Ge8 Tb2 3.017539 1_555
Ge8 Tb10 3.059369 1_555
Ge8 Tb8 3.214534 1_555
Ge9 Tb15 2.896532 1_555
Ge9 Tb13 2.907860 1_544
Ge9 Tb7 2.972759 1_445
Ge9 Tb17 2.988510 1_555
Ge9 Tb3 3.017539 1_555
Ge9 Tb11 3.059369 1_554
Ge9 Tb9 3.214534 1_545
Ge10 Tb12 2.896532 1_555
Ge10 Tb14 2.907860 1_565
Ge10 Tb4 2.972759 1_665
Ge10 Tb18 2.988510 1_555
Ge10 Tb0 3.017539 1_555
Ge10 Tb8 3.059369 1_555
Ge10 Tb10 3.214534 1_565
Ge11 Tb13 2.896532 1_555
Ge11 Tb15 2.907860 1_556
Ge11 Tb5 2.972759 1_555
Ge11 Tb19 2.988510 1_455
Ge11 Tb1 3.017539 1_555
Ge11 Tb9 3.059369 1_556
Ge11 Tb11 3.214534 1_555
Ge12 Tb18 2.896532 1_555
Ge12 Tb16 2.907860 1_555
Ge12 Tb10 2.972759 1_555
Ge12 Tb12 2.988510 1_455
Ge12 Tb1 3.017539 1_555
Ge12 Tb6 3.059369 1_555
Ge12 Tb4 3.214534 1_555
Ge13 Tb19 2.896532 1_555
Ge13 Tb17 2.907860 1_566
Ge13 Tb11 2.972759 1_665
Ge13 Tb13 2.988510 1_555
Ge13 Tb0 3.017539 1_555
Ge13 Tb7 3.059369 1_556
Ge13 Tb5 3.214534 1_565
Ge14 Tb16 2.896532 1_555
Ge14 Tb18 2.907860 1_545
Ge14 Tb8 2.972759 1_445
Ge14 Tb14 2.988510 1_555
Ge14 Tb3 3.017539 1_555
Ge14 Tb4 3.059369 1_555
Ge14 Tb6 3.214534 1_545
Ge15 Tb17 2.896532 1_555
Ge15 Tb19 2.907860 1_554
Ge15 Tb9 2.972759 1_555
Ge15 Tb15 2.988510 1_655
Ge15 Tb2 3.017539 1_555
Ge15 Tb5 3.059369 1_554
Ge15 Tb7 3.214534 1_555
