# generated using pymatgen
data_K2YTlBr6
_symmetry_space_group_name_H-M   'P 1'
_cell_length_a   8.45034889
_cell_length_b   8.45034889
_cell_length_c   8.45034889
_cell_angle_alpha   60.00000000
_cell_angle_beta   60.00000000
_cell_angle_gamma   60.00000000
_symmetry_Int_Tables_number   1
_chemical_formula_structural   K2YTlBr6
_chemical_formula_sum   'K2 Y1 Tl1 Br6'
_cell_volume   426.68651888
_cell_formula_units_Z   1
loop_
 _symmetry_equiv_pos_site_id
 _symmetry_equiv_pos_as_xyz
  1  'x, y, z'
loop_
 _atom_site_type_symbol
 _atom_site_label
 _atom_site_symmetry_multiplicity
 _atom_site_fract_x
 _atom_site_fract_y
 _atom_site_fract_z
 _atom_site_occupancy
  K  K0  1  0.75000000  0.75000000  0.75000000  1
  K  K1  1  0.25000000  0.25000000  0.25000000  1
  Y  Y0  1  0.00000000  0.00000000  0.00000000  1
  Tl  Tl0  1  0.50000000  0.50000000  0.50000000  1
  Br  Br0  1  0.76625200  0.23374800  0.23374800  1
  Br  Br1  1  0.23374800  0.23374800  0.76625200  1
  Br  Br2  1  0.23374800  0.76625200  0.76625200  1
  Br  Br3  1  0.23374800  0.76625200  0.23374800  1
  Br  Br4  1  0.76625200  0.23374800  0.76625200  1
  Br  Br5  1  0.76625200  0.76625200  0.23374800  1
loop_
_geom_bond_atom_site_label_1
_geom_bond_atom_site_label_2
_geom_bond_distance
_geom_bond_site_symmetry_2
Br0 Y0 2.793428 1_655
Br0 Tl0 3.181871 1_555
Br1 Y0 2.793428 1_556
Br1 Tl0 3.181871 1_555
Br2 Y0 2.793428 1_566
Br2 Tl0 3.181871 1_555
Br3 Y0 2.793428 1_565
Br3 Tl0 3.181871 1_555
Br4 Y0 2.793428 1_656
Br4 Tl0 3.181871 1_555
Br5 Y0 2.793428 1_665
Br5 Tl0 3.181871 1_555
