# generated using pymatgen
data_CaPr2Mn3O9
_symmetry_space_group_name_H-M   'P 1'
_cell_length_a   5.51742700
_cell_length_b   5.96096539
_cell_length_c   7.29635897
_cell_angle_alpha   89.17964218
_cell_angle_beta   89.44061519
_cell_angle_gamma   76.40744636
_symmetry_Int_Tables_number   1
_chemical_formula_structural   CaPr2Mn3O9
_chemical_formula_sum   'Ca1 Pr2 Mn3 O9'
_cell_volume   233.22115953
_cell_formula_units_Z   1
loop_
 _symmetry_equiv_pos_site_id
 _symmetry_equiv_pos_as_xyz
  1  'x, y, z'
loop_
 _atom_site_type_symbol
 _atom_site_label
 _atom_site_symmetry_multiplicity
 _atom_site_fract_x
 _atom_site_fract_y
 _atom_site_fract_z
 _atom_site_occupancy
  Ca  Ca0  1  0.48875600  0.59051800  0.27096000  1
  Pr  Pr0  1  0.76816000  0.03350800  0.02103400  1
  Pr  Pr1  1  0.47886200  0.59110400  0.79646600  1
  Mn  Mn0  1  0.04638000  0.47359700  0.06609800  1
  Mn  Mn1  1  0.97293200  0.40109200  0.52953200  1
  Mn  Mn2  1  0.52923300  0.03486300  0.52973800  1
  O  O0  1  0.16060500  0.75043400  0.02162700  1
  O  O1  1  0.33457500  0.35945800  0.53319900  1
  O  O2  1  0.38558300  0.32901500  0.05700200  1
  O  O3  1  0.51170000  0.98484100  0.77615300  1
  O  O4  1  0.52279200  0.99656500  0.28316400  1
  O  O5  1  0.72159200  0.65431400  0.03612800  1
  O  O6  1  0.69886300  0.68603300  0.52491600  1
  O  O7  1  0.89230200  0.31842300  0.77428100  1
  O  O8  1  0.91945200  0.32126200  0.27776900  1
loop_
_geom_bond_atom_site_label_1
_geom_bond_atom_site_label_2
_geom_bond_distance
_geom_bond_site_symmetry_2
Ca0 O5 2.213312 1_555
Ca0 O6 2.341764 1_555
Ca0 O2 2.386447 1_555
Ca0 O4 2.474233 1_555
Ca0 O8 2.536301 1_555
Ca0 O0 2.588393 1_555
Ca0 O1 2.593312 1_555
Mn0 O2 1.868386 1_555
Mn0 O5 1.874319 1_455
Mn0 O0 1.922290 1_555
Mn0 O8 1.984417 1_455
Mn0 O7 2.563814 1_454
Mn1 O7 1.921478 1_555
Mn1 O8 1.946670 1_555
Mn1 O1 1.952378 1_655
Mn1 O6 1.991191 1_555
Mn2 O4 1.818499 1_545
Mn2 O3 1.823634 1_545
Mn2 O1 1.980422 1_555
Mn2 O6 2.070665 1_545
O0 Pr0 2.412138 1_465
O0 Pr1 2.426700 1_554
O1 Pr1 2.617783 1_555
O2 Pr0 2.425314 1_555
O2 Pr1 2.567707 1_554
O3 Pr0 2.352865 1_566
O3 Pr1 2.398508 1_555
O4 Pr0 2.369979 1_565
O5 Pr1 2.301118 1_554
O5 Pr0 2.335098 1_565
O6 Pr1 2.441937 1_555
O7 Pr1 2.475746 1_555
O7 Pr0 2.651449 1_556
O8 Pr0 2.818432 1_555
