# generated using pymatgen
data_Zr2AgPdF11
_symmetry_space_group_name_H-M   'P 1'
_cell_length_a   5.95741988
_cell_length_b   5.95741988
_cell_length_c   7.96529442
_cell_angle_alpha   69.55585056
_cell_angle_beta   69.55585056
_cell_angle_gamma   73.16524049
_symmetry_Int_Tables_number   1
_chemical_formula_structural   Zr2AgPdF11
_chemical_formula_sum   'Zr2 Ag1 Pd1 F11'
_cell_volume   243.64001963
_cell_formula_units_Z   1
loop_
 _symmetry_equiv_pos_site_id
 _symmetry_equiv_pos_as_xyz
  1  'x, y, z'
loop_
 _atom_site_type_symbol
 _atom_site_label
 _atom_site_symmetry_multiplicity
 _atom_site_fract_x
 _atom_site_fract_y
 _atom_site_fract_z
 _atom_site_occupancy
  Zr  Zr0  1  0.50743800  0.50743800  0.76276700  1
  Zr  Zr1  1  0.49256200  0.49256200  0.23723300  1
  Ag  Ag0  1  0.00000000  0.00000000  0.00000000  1
  Pd  Pd0  1  0.00000000  0.00000000  0.50000000  1
  F  F0  1  0.19828200  0.76764500  0.30801300  1
  F  F1  1  0.23235500  0.80171800  0.69198700  1
  F  F2  1  0.80171800  0.23235500  0.69198700  1
  F  F3  1  0.76764500  0.19828200  0.30801300  1
  F  F4  1  0.50000000  0.50000000  0.50000000  1
  F  F5  1  0.66300000  0.33700000  0.00000000  1
  F  F6  1  0.33700000  0.66300000  0.00000000  1
  F  F7  1  0.74492300  0.74492300  0.65247100  1
  F  F8  1  0.25507700  0.25507700  0.34752900  1
  F  F9  1  0.72272500  0.72272500  0.11281900  1
  F  F10  1  0.27727500  0.27727500  0.88718100  1
loop_
_geom_bond_atom_site_label_1
_geom_bond_atom_site_label_2
_geom_bond_distance
_geom_bond_site_symmetry_2
Ag0 F5 2.393044 1_455
Ag0 F6 2.393044 1_545
Ag0 F10 2.402334 1_554
Ag0 F9 2.402334 1_445
F0 Zr1 2.089934 1_555
F0 Pd0 2.218053 1_565
F1 Zr0 2.089934 1_555
F1 Pd0 2.218053 1_565
F2 Zr0 2.089934 1_555
F2 Pd0 2.218053 1_655
F3 Zr1 2.089934 1_555
F3 Pd0 2.218053 1_655
F4 Zr0 2.124938 1_555
F4 Zr1 2.124938 1_555
F5 Zr1 2.190550 1_555
F5 Zr0 2.190550 1_554
F6 Zr1 2.190550 1_555
F6 Zr0 2.190550 1_554
F7 Zr0 2.048882 1_555
F7 Pd0 2.202805 1_665
F8 Zr1 2.048882 1_555
F8 Pd0 2.202805 1_555
F9 Zr1 1.983134 1_555
F10 Zr0 1.983134 1_555
