# generated using pymatgen
data_CsHfMg6
_symmetry_space_group_name_H-M   'P 1'
_cell_length_a   6.96419803
_cell_length_b   6.96419803
_cell_length_c   4.61799400
_cell_angle_alpha   90.00000000
_cell_angle_beta   90.00000000
_cell_angle_gamma   90.20203031
_symmetry_Int_Tables_number   1
_chemical_formula_structural   CsHfMg6
_chemical_formula_sum   'Cs1 Hf1 Mg6'
_cell_volume   223.97156701
_cell_formula_units_Z   1
loop_
 _symmetry_equiv_pos_site_id
 _symmetry_equiv_pos_as_xyz
  1  'x, y, z'
loop_
 _atom_site_type_symbol
 _atom_site_label
 _atom_site_symmetry_multiplicity
 _atom_site_fract_x
 _atom_site_fract_y
 _atom_site_fract_z
 _atom_site_occupancy
  Cs  Cs0  1  0.87171000  0.12829000  0.50000000  1
  Hf  Hf0  1  0.37508500  0.62491500  0.50000000  1
  Mg  Mg0  1  0.37151300  0.12065000  0.50000000  1
  Mg  Mg1  1  0.87935000  0.62848700  0.50000000  1
  Mg  Mg2  1  0.16445000  0.41012500  0.00000000  1
  Mg  Mg3  1  0.58987500  0.83555000  0.00000000  1
  Mg  Mg4  1  0.58567700  0.41432300  0.00000000  1
  Mg  Mg5  1  0.16312300  0.83687700  0.00000000  1
loop_
_geom_bond_atom_site_label_1
_geom_bond_atom_site_label_2
_geom_bond_distance
_geom_bond_site_symmetry_2
Cs0 Mg0 3.481321 1_655
Cs0 Mg1 3.481321 1_545
Cs0 Mg1 3.483690 1_555
Cs0 Mg0 3.483690 1_555
Cs0 Mg4 3.646300 1_556
Cs0 Mg4 3.646300 1_555
Cs0 Mg2 3.648554 1_655
Cs0 Mg2 3.648554 1_656
Cs0 Mg3 3.648554 1_546
Cs0 Mg3 3.648554 1_545
Cs0 Mg5 3.687535 1_645
Cs0 Mg5 3.687535 1_646
Hf0 Mg4 3.106202 1_556
Hf0 Mg4 3.106202 1_555
Hf0 Mg5 3.115260 1_556
Hf0 Mg5 3.115260 1_555
Hf0 Mg3 3.115339 1_556
Hf0 Mg3 3.115339 1_555
Hf0 Mg2 3.115339 1_555
Hf0 Mg2 3.115339 1_556
Hf0 Mg0 3.452574 1_565
Hf0 Mg1 3.452574 1_455
Hf0 Mg0 3.511802 1_555
Hf0 Mg1 3.511802 1_555
Mg0 Mg5 3.364966 1_546
Mg0 Mg5 3.364966 1_545
Mg0 Mg2 3.390503 1_555
Mg0 Mg2 3.390503 1_556
Mg0 Mg3 3.406981 1_546
Mg0 Mg3 3.406981 1_545
Mg0 Mg4 3.423054 1_556
Mg0 Mg4 3.423054 1_555
Mg1 Mg5 3.364966 1_656
Mg1 Mg5 3.364966 1_655
Mg1 Mg3 3.390503 1_556
Mg1 Mg3 3.390503 1_555
Mg1 Mg2 3.406981 1_656
Mg1 Mg2 3.406981 1_655
Mg1 Mg4 3.423054 1_555
Mg1 Mg4 3.423054 1_556
Mg2 Mg4 2.933551 1_555
Mg2 Mg5 2.972032 1_555
Mg3 Mg4 2.933551 1_555
Mg3 Mg5 2.972032 1_555
