# generated using pymatgen
data_Ca6MnBe4Si6HO24
_symmetry_space_group_name_H-M   'P 1'
_cell_length_a   9.91006376
_cell_length_b   13.70765863
_cell_length_c   13.95485643
_cell_angle_alpha   90.00000000
_cell_angle_beta   90.00000000
_cell_angle_gamma   90.00000000
_symmetry_Int_Tables_number   1
_chemical_formula_structural   Ca6MnBe4Si6HO24
_chemical_formula_sum   'Ca24 Mn4 Be16 Si24 H4 O96'
_cell_volume   1895.68032154
_cell_formula_units_Z   4
loop_
 _symmetry_equiv_pos_site_id
 _symmetry_equiv_pos_as_xyz
  1  'x, y, z'
loop_
 _atom_site_type_symbol
 _atom_site_label
 _atom_site_symmetry_multiplicity
 _atom_site_fract_x
 _atom_site_fract_y
 _atom_site_fract_z
 _atom_site_occupancy
  Ca  Ca0  1  0.49636947  0.88811018  0.38371360  1
  Ca  Ca1  1  0.99636947  0.61188982  0.11628640  1
  Ca  Ca2  1  0.50363053  0.11188982  0.88371360  1
  Ca  Ca3  1  0.00363053  0.38811018  0.61628640  1
  Ca  Ca4  1  0.50363053  0.11188982  0.61628640  1
  Ca  Ca5  1  0.00363053  0.38811018  0.88371360  1
  Ca  Ca6  1  0.49636947  0.88811018  0.11628640  1
  Ca  Ca7  1  0.99636947  0.61188982  0.38371360  1
  Ca  Ca8  1  0.00963131  0.18399868  0.38823307  1
  Ca  Ca9  1  0.50963131  0.31600132  0.11176693  1
  Ca  Ca10  1  0.99036869  0.81600132  0.88823307  1
  Ca  Ca11  1  0.49036869  0.68399868  0.61176693  1
  Ca  Ca12  1  0.99036869  0.81600132  0.61176693  1
  Ca  Ca13  1  0.49036869  0.68399868  0.88823307  1
  Ca  Ca14  1  0.00963131  0.18399868  0.11176693  1
  Ca  Ca15  1  0.50963131  0.31600132  0.38823307  1
  Ca  Ca16  1  0.99949521  0.91011669  0.39212205  1
  Ca  Ca17  1  0.49949521  0.58988331  0.10787795  1
  Ca  Ca18  1  0.00050479  0.08988331  0.89212205  1
  Ca  Ca19  1  0.50050479  0.41011669  0.60787795  1
  Ca  Ca20  1  0.00050479  0.08988331  0.60787795  1
  Ca  Ca21  1  0.50050479  0.41011669  0.89212205  1
  Ca  Ca22  1  0.99949521  0.91011669  0.10787795  1
  Ca  Ca23  1  0.49949521  0.58988331  0.39212205  1
  Mn  Mn0  1  0.49933343  0.10509931  0.25000000  1
  Mn  Mn1  1  0.99933343  0.39490069  0.25000000  1
  Mn  Mn2  1  0.50066657  0.89490069  0.75000000  1
  Mn  Mn3  1  0.00066657  0.60509931  0.75000000  1
  Be  Be0  1  0.73727279  0.09831002  0.41570771  1
  Be  Be1  1  0.23727279  0.40168998  0.08429229  1
  Be  Be2  1  0.26272721  0.90168998  0.91570771  1
  Be  Be3  1  0.76272721  0.59831002  0.58429229  1
  Be  Be4  1  0.26272721  0.90168998  0.58429229  1
  Be  Be5  1  0.76272721  0.59831002  0.91570771  1
  Be  Be6  1  0.73727279  0.09831002  0.08429229  1
  Be  Be7  1  0.23727279  0.40168998  0.41570771  1
  Be  Be8  1  0.76228599  0.96166035  0.75000000  1
  Be  Be9  1  0.26228599  0.53833965  0.75000000  1
  Be  Be10  1  0.23771401  0.03833965  0.25000000  1
  Be  Be11  1  0.73771401  0.46166035  0.25000000  1
  Be  Be12  1  0.76752573  0.77144567  0.25000000  1
  Be  Be13  1  0.26752573  0.72855433  0.25000000  1
  Be  Be14  1  0.23247427  0.22855433  0.75000000  1
  Be  Be15  1  0.73247427  0.27144567  0.75000000  1
  Si  Si0  1  0.72825505  0.24269976  0.25000000  1
  Si  Si1  1  0.22825505  0.25730024  0.25000000  1
  Si  Si2  1  0.27174495  0.75730024  0.75000000  1
  Si  Si3  1  0.77174495  0.74269976  0.75000000  1
  Si  Si4  1  0.78281769  0.98471447  0.25000000  1
  Si  Si5  1  0.28281769  0.51528553  0.25000000  1
  Si  Si6  1  0.21718231  0.01528553  0.75000000  1
  Si  Si7  1  0.71718231  0.48471447  0.75000000  1
  Si  Si8  1  0.71459014  0.95055054  0.54887565  1
  Si  Si9  1  0.21459014  0.54944946  0.95112435  1
  Si  Si10  1  0.28540986  0.04944946  0.04887565  1
  Si  Si11  1  0.78540986  0.45055054  0.45112435  1
  Si  Si12  1  0.28540986  0.04944946  0.45112435  1
  Si  Si13  1  0.78540986  0.45055054  0.04887565  1
  Si  Si14  1  0.71459014  0.95055054  0.95112435  1
  Si  Si15  1  0.21459014  0.54944946  0.54887565  1
  Si  Si16  1  0.73318948  0.75154418  0.45219093  1
  Si  Si17  1  0.23318948  0.74845582  0.04780907  1
  Si  Si18  1  0.26681052  0.24845582  0.95219093  1
  Si  Si19  1  0.76681052  0.25154418  0.54780907  1
  Si  Si20  1  0.26681052  0.24845582  0.54780907  1
  Si  Si21  1  0.76681052  0.25154418  0.95219093  1
  Si  Si22  1  0.73318948  0.75154418  0.04780907  1
  Si  Si23  1  0.23318948  0.74845582  0.45219093  1
  H  H0  1  0.67957660  0.61332889  0.25000000  1
  H  H1  1  0.17957660  0.88667111  0.25000000  1
  H  H2  1  0.32042340  0.38667111  0.75000000  1
  H  H3  1  0.82042340  0.11332889  0.75000000  1
  O  O0  1  0.65767001  0.84140393  0.51445912  1
  O  O1  1  0.15767001  0.65859607  0.98554088  1
  O  O2  1  0.34232999  0.15859607  0.01445912  1
  O  O3  1  0.84232999  0.34140393  0.48554088  1
  O  O4  1  0.34232999  0.15859607  0.48554088  1
  O  O5  1  0.84232999  0.34140393  0.01445912  1
  O  O6  1  0.65767001  0.84140393  0.98554088  1
  O  O7  1  0.15767001  0.65859607  0.51445912  1
  O  O8  1  0.89577948  0.75865014  0.45642646  1
  O  O9  1  0.39577948  0.74134986  0.04357354  1
  O  O10  1  0.10422052  0.24134986  0.95642646  1
  O  O11  1  0.60422052  0.25865014  0.54357354  1
  O  O12  1  0.10422052  0.24134986  0.54357354  1
  O  O13  1  0.60422052  0.25865014  0.95642646  1
  O  O14  1  0.89577948  0.75865014  0.04357354  1
  O  O15  1  0.39577948  0.74134986  0.45642646  1
  O  O16  1  0.66924607  0.65466785  0.50443554  1
  O  O17  1  0.16924607  0.84533215  0.99556446  1
  O  O18  1  0.33075393  0.34533215  0.00443554  1
  O  O19  1  0.83075393  0.15466785  0.49556446  1
  O  O20  1  0.33075393  0.34533215  0.49556446  1
  O  O21  1  0.83075393  0.15466785  0.00443554  1
  O  O22  1  0.66924607  0.65466785  0.99556446  1
  O  O23  1  0.16924607  0.84533215  0.50443554  1
  O  O24  1  0.66826590  0.75991052  0.34469804  1
  O  O25  1  0.16826590  0.74008948  0.15530196  1
  O  O26  1  0.33173410  0.24008948  0.84469804  1
  O  O27  1  0.83173410  0.25991052  0.65530196  1
  O  O28  1  0.33173410  0.24008948  0.65530196  1
  O  O29  1  0.83173410  0.25991052  0.84469804  1
  O  O30  1  0.66826590  0.75991052  0.15530196  1
  O  O31  1  0.16826590  0.74008948  0.34469804  1
  O  O32  1  0.63820946  0.02695744  0.47588301  1
  O  O33  1  0.13820946  0.47304256  0.02411699  1
  O  O34  1  0.36179054  0.97304256  0.97588301  1
  O  O35  1  0.86179054  0.52695744  0.52411699  1
  O  O36  1  0.36179054  0.97304256  0.52411699  1
  O  O37  1  0.86179054  0.52695744  0.97588301  1
  O  O38  1  0.63820946  0.02695744  0.02411699  1
  O  O39  1  0.13820946  0.47304256  0.47588301  1
  O  O40  1  0.65332013  0.96882121  0.65788385  1
  O  O41  1  0.15332013  0.53117879  0.84211615  1
  O  O42  1  0.34667987  0.03117879  0.15788385  1
  O  O43  1  0.84667987  0.46882121  0.34211615  1
  O  O44  1  0.34667987  0.03117879  0.34211615  1
  O  O45  1  0.84667987  0.46882121  0.15788385  1
  O  O46  1  0.65332013  0.96882121  0.84211615  1
  O  O47  1  0.15332013  0.53117879  0.65788385  1
  O  O48  1  0.87801562  0.94990164  0.54755092  1
  O  O49  1  0.37801562  0.55009836  0.95244908  1
  O  O50  1  0.12198438  0.05009836  0.04755092  1
  O  O51  1  0.62198438  0.44990164  0.45244908  1
  O  O52  1  0.12198438  0.05009836  0.45244908  1
  O  O53  1  0.62198438  0.44990164  0.04755092  1
  O  O54  1  0.87801562  0.94990164  0.95244908  1
  O  O55  1  0.37801562  0.55009836  0.54755092  1
  O  O56  1  0.66083423  0.18311842  0.34311357  1
  O  O57  1  0.16083423  0.31688158  0.15688643  1
  O  O58  1  0.33916577  0.81688158  0.84311357  1
  O  O59  1  0.83916577  0.68311842  0.65688643  1
  O  O60  1  0.33916577  0.81688158  0.65688643  1
  O  O61  1  0.83916577  0.68311842  0.84311357  1
  O  O62  1  0.66083423  0.18311842  0.15688643  1
  O  O63  1  0.16083423  0.31688158  0.34311357  1
  O  O64  1  0.84222614  0.03965689  0.34632241  1
  O  O65  1  0.34222614  0.46034311  0.15367759  1
  O  O66  1  0.15777386  0.96034311  0.84632241  1
  O  O67  1  0.65777386  0.53965689  0.65367759  1
  O  O68  1  0.15777386  0.96034311  0.65367759  1
  O  O69  1  0.65777386  0.53965689  0.84632241  1
  O  O70  1  0.84222614  0.03965689  0.15367759  1
  O  O71  1  0.34222614  0.46034311  0.34632241  1
  O  O72  1  0.61632539  0.97706112  0.25000000  1
  O  O73  1  0.11632539  0.52293888  0.25000000  1
  O  O74  1  0.38367461  0.02293888  0.75000000  1
  O  O75  1  0.88367461  0.47706112  0.75000000  1
  O  O76  1  0.65966777  0.35289262  0.25000000  1
  O  O77  1  0.15966777  0.14710738  0.25000000  1
  O  O78  1  0.34033223  0.64710738  0.75000000  1
  O  O79  1  0.84033223  0.85289262  0.75000000  1
  O  O80  1  0.89279579  0.25320417  0.25000000  1
  O  O81  1  0.39279579  0.24679583  0.25000000  1
  O  O82  1  0.10720421  0.74679583  0.75000000  1
  O  O83  1  0.60720421  0.75320417  0.75000000  1
  O  O84  1  0.85102547  0.87485703  0.25000000  1
  O  O85  1  0.35102547  0.62514297  0.25000000  1
  O  O86  1  0.14897453  0.12514297  0.75000000  1
  O  O87  1  0.64897453  0.37485703  0.75000000  1
  O  O88  1  0.86876338  0.05077910  0.75000000  1
  O  O89  1  0.36876338  0.44922090  0.75000000  1
  O  O90  1  0.13123662  0.94922090  0.25000000  1
  O  O91  1  0.63123662  0.55077910  0.25000000  1
  O  O92  1  0.61788484  0.18310063  0.75000000  1
  O  O93  1  0.11788484  0.31689937  0.75000000  1
  O  O94  1  0.38211516  0.81689937  0.25000000  1
  O  O95  1  0.88211516  0.68310063  0.25000000  1
loop_
_geom_bond_atom_site_label_1
_geom_bond_atom_site_label_2
_geom_bond_distance
_geom_bond_site_symmetry_2
Ca0 O94 2.390952 1_555
Ca0 O15 2.463824 1_555
Ca0 O24 2.507294 1_555
Ca0 O0 2.508789 1_555
Ca0 O72 2.526198 1_555
Ca0 O44 2.526577 1_565
Ca0 O36 2.640649 1_555
Ca0 O32 2.693067 1_565
Ca1 O95 2.390952 1_555
Ca1 O14 2.463824 1_555
Ca1 O25 2.507294 1_655
Ca1 O1 2.508789 1_654
Ca1 O73 2.526198 1_655
Ca1 O45 2.526577 1_555
Ca1 O37 2.640649 1_554
Ca1 O33 2.693067 1_655
Ca2 O92 2.390952 1_555
Ca2 O13 2.463824 1_555
Ca2 O26 2.507294 1_555
Ca2 O2 2.508789 1_556
Ca2 O74 2.526198 1_555
Ca2 O46 2.526577 1_545
Ca2 O38 2.640649 1_556
Ca2 O34 2.693067 1_545
Ca3 O93 2.390952 1_555
Ca3 O12 2.463824 1_555
Ca3 O27 2.507294 1_455
Ca3 O3 2.508789 1_455
Ca3 O75 2.526198 1_455
Ca3 O47 2.526577 1_555
Ca3 O39 2.640649 1_555
Ca3 O35 2.693067 1_455
Ca4 O92 2.390952 1_555
Ca4 O11 2.463824 1_555
Ca4 O28 2.507294 1_555
Ca4 O4 2.508789 1_555
Ca4 O74 2.526198 1_555
Ca4 O40 2.526577 1_545
Ca4 O32 2.640649 1_555
Ca4 O36 2.693067 1_545
Ca5 O93 2.390952 1_555
Ca5 O10 2.463824 1_555
Ca5 O29 2.507294 1_455
Ca5 O5 2.508789 1_456
Ca5 O75 2.526198 1_455
Ca5 O41 2.526577 1_555
Ca5 O33 2.640649 1_556
Ca5 O37 2.693067 1_455
Ca6 O94 2.390952 1_555
Ca6 O9 2.463824 1_555
Ca6 O30 2.507294 1_555
Ca6 O6 2.508789 1_554
Ca6 O72 2.526198 1_555
Ca6 O42 2.526577 1_565
Ca6 O34 2.640649 1_554
Ca6 O38 2.693067 1_565
Ca7 O95 2.390952 1_555
Ca7 O8 2.463824 1_555
Ca7 O31 2.507294 1_655
Ca7 O7 2.508789 1_655
Ca7 O73 2.526198 1_655
Ca7 O43 2.526577 1_555
Ca7 O35 2.640649 1_555
Ca7 O39 2.693067 1_655
Ca8 O52 2.326300 1_555
Ca8 O19 2.355303 1_455
Ca8 O63 2.441239 1_555
Ca8 O80 2.441652 1_455
Ca8 O77 2.487497 1_555
Ca8 O12 2.489153 1_555
Ca8 O64 2.647477 1_455
Ca9 O53 2.326300 1_555
Ca9 O18 2.355303 1_555
Ca9 O62 2.441239 1_555
Ca9 O81 2.441652 1_555
Ca9 O76 2.487497 1_555
Ca9 O13 2.489153 1_554
Ca9 O65 2.647477 1_555
Ca10 O54 2.326300 1_555
Ca10 O17 2.355303 1_655
Ca10 O61 2.441239 1_555
Ca10 O82 2.441652 1_655
Ca10 O79 2.487497 1_555
Ca10 O14 2.489153 1_556
Ca10 O66 2.647477 1_655
Ca11 O55 2.326300 1_555
Ca11 O16 2.355303 1_555
Ca11 O60 2.441239 1_555
Ca11 O83 2.441652 1_555
Ca11 O78 2.487497 1_555
Ca11 O15 2.489153 1_555
Ca11 O67 2.647477 1_555
Ca12 O48 2.326300 1_555
Ca12 O23 2.355303 1_655
Ca12 O59 2.441239 1_555
Ca12 O82 2.441652 1_655
Ca12 O79 2.487497 1_555
Ca12 O8 2.489153 1_555
Ca12 O68 2.647477 1_655
Ca13 O49 2.326300 1_555
Ca13 O22 2.355303 1_555
Ca13 O58 2.441239 1_555
Ca13 O83 2.441652 1_555
Ca13 O78 2.487497 1_555
Ca13 O9 2.489153 1_556
Ca13 O69 2.647477 1_555
Ca14 O50 2.326300 1_555
Ca14 O21 2.355303 1_455
Ca14 O57 2.441239 1_555
Ca14 O80 2.441652 1_455
Ca14 O77 2.487497 1_555
Ca14 O10 2.489153 1_554
Ca14 O70 2.647477 1_455
Ca15 O51 2.326300 1_555
Ca15 O20 2.355303 1_555
Ca15 O56 2.441239 1_555
Ca15 O81 2.441652 1_555
Ca15 O76 2.487497 1_555
Ca15 O11 2.489153 1_555
Ca15 O71 2.647477 1_555
Ca16 O52 2.421588 1_665
Ca16 O90 2.434189 1_655
Ca16 O64 2.447578 1_565
Ca16 O23 2.464761 1_655
Ca16 O8 2.484453 1_555
Ca16 O84 2.516329 1_555
Ca16 O48 2.539927 1_555
Ca17 O53 2.421588 1_555
Ca17 O91 2.434189 1_555
Ca17 O65 2.447578 1_555
Ca17 O22 2.464761 1_554
Ca17 O9 2.484453 1_555
Ca17 O85 2.516329 1_555
Ca17 O49 2.539927 1_554
Ca18 O54 2.421588 1_445
Ca18 O88 2.434189 1_455
Ca18 O66 2.447578 1_545
Ca18 O21 2.464761 1_456
Ca18 O10 2.484453 1_555
Ca18 O86 2.516329 1_555
Ca18 O50 2.539927 1_556
Ca19 O55 2.421588 1_555
Ca19 O89 2.434189 1_555
Ca19 O67 2.447578 1_555
Ca19 O20 2.464761 1_555
Ca19 O11 2.484453 1_555
Ca19 O87 2.516329 1_555
Ca19 O51 2.539927 1_555
Ca20 O48 2.421588 1_445
Ca20 O88 2.434189 1_455
Ca20 O68 2.447578 1_545
Ca20 O19 2.464761 1_455
Ca20 O12 2.484453 1_555
Ca20 O86 2.516329 1_555
Ca20 O52 2.539927 1_555
Ca21 O49 2.421588 1_555
Ca21 O89 2.434189 1_555
Ca21 O69 2.447578 1_555
Ca21 O18 2.464761 1_556
Ca21 O13 2.484453 1_555
Ca21 O87 2.516329 1_555
Ca21 O53 2.539927 1_556
Ca22 O50 2.421588 1_665
Ca22 O90 2.434189 1_655
Ca22 O70 2.447578 1_565
Ca22 O17 2.464761 1_654
Ca22 O14 2.484453 1_555
Ca22 O84 2.516329 1_555
Ca22 O54 2.539927 1_554
Ca23 O51 2.421588 1_555
Ca23 O91 2.434189 1_555
Ca23 O71 2.447578 1_555
Ca23 O16 2.464761 1_555
Ca23 O15 2.484453 1_555
Ca23 O85 2.516329 1_555
Ca23 O55 2.539927 1_555
Mn0 O72 2.103472 1_545
Mn0 O81 2.210733 1_555
Mn0 O44 2.228843 1_555
Mn0 O42 2.228843 1_555
Mn0 O62 2.322433 1_555
Mn0 O56 2.322433 1_555
Mn1 O73 2.103472 1_655
Mn1 O80 2.210733 1_555
Mn1 O45 2.228843 1_555
Mn1 O43 2.228843 1_555
Mn1 O63 2.322433 1_655
Mn1 O57 2.322433 1_655
Mn2 O74 2.103472 1_565
Mn2 O83 2.210733 1_555
Mn2 O40 2.228843 1_555
Mn2 O46 2.228843 1_555
Mn2 O60 2.322433 1_555
Mn2 O58 2.322433 1_555
Mn3 O75 2.103472 1_455
Mn3 O82 2.210733 1_555
Mn3 O47 2.228843 1_555
Mn3 O41 2.228843 1_555
Mn3 O61 2.322433 1_455
Mn3 O59 2.322433 1_455
Be0 O32 1.620363 1_555
Be0 O64 1.632709 1_555
Be0 O19 1.642223 1_555
Be0 O56 1.718004 1_555
Be1 O33 1.620363 1_555
Be1 O65 1.632709 1_555
Be1 O18 1.642223 1_555
Be1 O57 1.718004 1_555
Be2 O34 1.620363 1_555
Be2 O66 1.632709 1_555
Be2 O17 1.642223 1_555
Be2 O58 1.718004 1_555
Be3 O35 1.620363 1_555
Be3 O67 1.632709 1_555
Be3 O16 1.642223 1_555
Be3 O59 1.718004 1_555
Be4 O36 1.620363 1_555
Be4 O68 1.632709 1_555
Be4 O23 1.642223 1_555
Be4 O60 1.718004 1_555
Be5 O37 1.620363 1_555
Be5 O69 1.632709 1_555
Be5 O22 1.642223 1_555
Be5 O61 1.718004 1_555
Be6 O38 1.620363 1_555
Be6 O70 1.632709 1_555
Be6 O21 1.642223 1_555
Be6 O62 1.718004 1_555
Be7 O39 1.620363 1_555
Be7 O71 1.632709 1_555
Be7 O20 1.642223 1_555
Be7 O63 1.718004 1_555
Be8 O88 1.614240 1_565
Be8 O79 1.679628 1_555
Be8 O40 1.681712 1_555
Be8 O46 1.681712 1_555
Be9 O89 1.614240 1_555
Be9 O78 1.679628 1_555
Be9 O41 1.681712 1_555
Be9 O47 1.681712 1_555
Be10 O90 1.614240 1_545
Be10 O77 1.679628 1_555
Be10 O42 1.681712 1_555
Be10 O44 1.681712 1_555
Be11 O91 1.614240 1_555
Be11 O76 1.679628 1_555
Be11 O45 1.681712 1_555
Be11 O43 1.681712 1_555
Be12 O84 1.641378 1_555
Be12 O24 1.654982 1_555
Be12 O30 1.654982 1_555
Be12 O95 1.660148 1_555
Be13 O85 1.641378 1_555
Be13 O31 1.654982 1_555
Be13 O25 1.654982 1_555
Be13 O94 1.660148 1_555
Be14 O86 1.641378 1_555
Be14 O26 1.654982 1_555
Be14 O28 1.654982 1_555
Be14 O93 1.660148 1_555
Be15 O87 1.641378 1_555
Be15 O29 1.654982 1_555
Be15 O27 1.654982 1_555
Be15 O92 1.660148 1_555
H0 O91 0.982163 1_555
H1 O90 0.982163 1_555
H2 O89 0.982163 1_555
H3 O88 0.982163 1_555
O0 Si8 1.669522 1_555
O0 Si16 1.682979 1_555
O1 Si9 1.669522 1_555
O1 Si17 1.682979 1_556
O2 Si10 1.669522 1_555
O2 Si18 1.682979 1_554
O3 Si11 1.669522 1_555
O3 Si19 1.682979 1_555
O4 Si12 1.669522 1_555
O4 Si20 1.682979 1_555
O5 Si13 1.669522 1_555
O5 Si21 1.682979 1_554
O6 Si14 1.669522 1_555
O6 Si22 1.682979 1_556
O7 Si15 1.669522 1_555
O7 Si23 1.682979 1_555
O8 Si16 1.615301 1_555
O9 Si17 1.615301 1_555
O10 Si18 1.615301 1_555
O11 Si19 1.615301 1_555
O12 Si20 1.615301 1_555
O13 Si21 1.615301 1_555
O14 Si22 1.615301 1_555
O15 Si23 1.615301 1_555
O16 Si16 1.642114 1_555
O17 Si17 1.642114 1_556
O18 Si18 1.642114 1_554
O19 Si19 1.642114 1_555
O20 Si20 1.642114 1_555
O21 Si21 1.642114 1_554
O22 Si22 1.642114 1_556
O23 Si23 1.642114 1_555
O24 Si16 1.636232 1_555
O25 Si17 1.636232 1_555
O26 Si18 1.636232 1_555
O27 Si19 1.636232 1_555
O28 Si20 1.636232 1_555
O29 Si21 1.636232 1_555
O30 Si22 1.636232 1_555
O31 Si23 1.636232 1_555
O32 Si8 1.645438 1_545
O33 Si9 1.645438 1_554
O34 Si10 1.645438 1_566
O35 Si11 1.645438 1_555
O36 Si12 1.645438 1_565
O37 Si13 1.645438 1_556
O38 Si14 1.645438 1_544
O39 Si15 1.645438 1_555
O40 Si8 1.656935 1_555
O41 Si9 1.656935 1_555
O42 Si10 1.656935 1_555
O43 Si11 1.656935 1_555
O44 Si12 1.656935 1_555
O45 Si13 1.656935 1_555
O46 Si14 1.656935 1_555
O47 Si15 1.656935 1_555
O48 Si8 1.619687 1_555
O49 Si9 1.619687 1_555
O50 Si10 1.619687 1_555
O51 Si11 1.619687 1_555
O52 Si12 1.619687 1_555
O53 Si13 1.619687 1_555
O54 Si14 1.619687 1_555
O55 Si15 1.619687 1_555
O56 Si0 1.673874 1_555
O57 Si1 1.673874 1_555
O58 Si2 1.673874 1_555
O59 Si3 1.673874 1_555
O60 Si2 1.673874 1_555
O61 Si3 1.673874 1_555
O62 Si0 1.673874 1_555
O63 Si1 1.673874 1_555
O64 Si4 1.649426 1_545
O65 Si5 1.649426 1_555
O66 Si6 1.649426 1_565
O67 Si7 1.649426 1_555
O68 Si6 1.649426 1_565
O69 Si7 1.649426 1_555
O70 Si4 1.649426 1_545
O71 Si5 1.649426 1_555
O72 Si4 1.653281 1_555
O73 Si5 1.653281 1_555
O74 Si6 1.653281 1_555
O75 Si7 1.653281 1_555
O76 Si0 1.656371 1_555
O77 Si1 1.656371 1_555
O78 Si2 1.656371 1_555
O79 Si3 1.656371 1_555
O80 Si0 1.636954 1_555
O81 Si1 1.636954 1_555
O82 Si2 1.636954 1_555
O83 Si3 1.636954 1_555
O84 Si4 1.650636 1_555
O85 Si5 1.650636 1_555
O86 Si6 1.650636 1_555
O87 Si7 1.650636 1_555
