# generated using pymatgen
data_V5Bi3
_symmetry_space_group_name_H-M   'P 1'
_cell_length_a   5.68233289
_cell_length_b   7.97964680
_cell_length_c   7.97964779
_cell_angle_alpha   82.71685732
_cell_angle_beta   69.14208963
_cell_angle_gamma   69.14209200
_symmetry_Int_Tables_number   1
_chemical_formula_structural   V5Bi3
_chemical_formula_sum   'V10 Bi6'
_cell_volume   315.95216985
_cell_formula_units_Z   2
loop_
 _symmetry_equiv_pos_site_id
 _symmetry_equiv_pos_as_xyz
  1  'x, y, z'
loop_
 _atom_site_type_symbol
 _atom_site_label
 _atom_site_symmetry_multiplicity
 _atom_site_fract_x
 _atom_site_fract_y
 _atom_site_fract_z
 _atom_site_occupancy
  V  V0  1  0.57823500  0.64740800  0.19612200  1
  V  V1  1  0.42176500  0.35259200  0.80387800  1
  V  V2  1  0.77435700  0.80387800  0.64740800  1
  V  V3  1  0.22564300  0.19612200  0.35259200  1
  V  V4  1  0.92176500  0.80387800  0.35259200  1
  V  V5  1  0.27435700  0.64740800  0.80387800  1
  V  V6  1  0.25000000  0.50000000  0.50000000  1
  V  V7  1  0.75000000  0.50000000  0.50000000  1
  V  V8  1  0.07823500  0.19612200  0.64740800  1
  V  V9  1  0.72564300  0.35259200  0.19612200  1
  Bi  Bi0  1  0.82677600  0.50000000  0.84644900  1
  Bi  Bi1  1  0.67322400  0.15355100  0.50000000  1
  Bi  Bi2  1  0.32677600  0.84644900  0.50000000  1
  Bi  Bi3  1  0.17322400  0.50000000  0.15355100  1
  Bi  Bi4  1  0.75000000  0.00000000  0.00000000  1
  Bi  Bi5  1  0.25000000  0.00000000  0.00000000  1
loop_
_geom_bond_atom_site_label_1
_geom_bond_atom_site_label_2
_geom_bond_distance
_geom_bond_site_symmetry_2
V0 V9 2.198358 1_555
V0 V6 2.891486 1_555
V0 V7 2.891486 1_555
V1 V5 2.198358 1_555
V1 V7 2.891486 1_555
V1 V6 2.891486 1_555
V2 V4 2.198358 1_555
V2 V7 2.891486 1_555
V2 V6 2.891486 1_655
V3 V8 2.198358 1_555
V3 V6 2.891486 1_555
V3 V7 2.891486 1_455
V4 V7 2.891486 1_555
V4 V6 2.891486 1_655
V5 V6 2.891486 1_555
V5 V7 2.891486 1_555
V6 V7 2.841166 1_455
V6 V7 2.841166 1_555
V6 V8 2.891486 1_555
V6 V9 2.891486 1_555
V7 V8 2.891486 1_655
V7 V9 2.891486 1_555
Bi0 V2 2.708739 1_555
Bi0 V8 2.708739 1_655
Bi0 V9 2.829626 1_556
Bi0 V0 2.829626 1_556
Bi0 V6 2.948194 1_655
Bi0 V7 2.948197 1_555
Bi0 V5 3.062870 1_655
Bi0 V1 3.062870 1_655
Bi0 V1 3.062875 1_555
Bi0 V5 3.062875 1_555
Bi1 V9 2.708739 1_555
Bi1 V1 2.708739 1_555
Bi1 V2 2.829626 1_545
Bi1 V4 2.829626 1_545
Bi1 V6 2.948194 1_555
Bi1 V7 2.948197 1_555
Bi1 V8 3.062870 1_555
Bi1 V3 3.062870 1_555
Bi1 V3 3.062875 1_655
Bi1 V8 3.062875 1_655
Bi2 V5 2.708739 1_555
Bi2 V0 2.708739 1_555
Bi2 V3 2.829626 1_565
Bi2 V8 2.829626 1_565
Bi2 V7 2.948194 1_555
Bi2 V6 2.948197 1_555
Bi2 V4 3.062870 1_555
Bi2 V2 3.062870 1_555
Bi2 V2 3.062875 1_455
Bi2 V4 3.062875 1_455
Bi3 V3 2.708739 1_555
Bi3 V4 2.708739 1_455
Bi3 V5 2.829626 1_554
Bi3 V1 2.829626 1_554
Bi3 V7 2.948194 1_455
Bi3 V6 2.948197 1_555
Bi3 V9 3.062870 1_455
Bi3 V0 3.062870 1_455
Bi3 V0 3.062875 1_555
Bi3 V9 3.062875 1_555
Bi4 Bi5 2.841166 1_555
Bi4 Bi5 2.841166 1_655
Bi4 V0 3.327058 1_545
Bi4 V9 3.327058 1_555
Bi4 V1 3.327058 1_554
Bi4 V8 3.327058 1_654
Bi4 V5 3.327058 1_644
Bi4 V2 3.327058 1_544
Bi4 V3 3.327058 1_555
Bi4 V4 3.327058 1_545
Bi5 V1 3.327058 1_554
Bi5 V5 3.327058 1_544
Bi5 V0 3.327058 1_545
Bi5 V4 3.327058 1_445
Bi5 V9 3.327058 1_455
Bi5 V3 3.327058 1_555
Bi5 V2 3.327058 1_544
Bi5 V8 3.327058 1_554
