# generated using pymatgen
data_Li4V3OF11
_symmetry_space_group_name_H-M   'P 1'
_cell_length_a   5.19947562
_cell_length_b   5.46884029
_cell_length_c   16.53394828
_cell_angle_alpha   79.69045644
_cell_angle_beta   89.61869464
_cell_angle_gamma   89.69583459
_symmetry_Int_Tables_number   1
_chemical_formula_structural   Li4V3OF11
_chemical_formula_sum   'Li8 V6 O2 F22'
_cell_volume   462.53983853
_cell_formula_units_Z   2
loop_
 _symmetry_equiv_pos_site_id
 _symmetry_equiv_pos_as_xyz
  1  'x, y, z'
loop_
 _atom_site_type_symbol
 _atom_site_label
 _atom_site_symmetry_multiplicity
 _atom_site_fract_x
 _atom_site_fract_y
 _atom_site_fract_z
 _atom_site_occupancy
  Li  Li0  1  0.67537622  0.14041971  0.17409660  1
  Li  Li1  1  0.04527430  0.09827424  0.54186121  1
  Li  Li2  1  0.99899231  0.03872957  0.77198158  1
  Li  Li3  1  0.47565514  0.12887572  0.88249040  1
  Li  Li4  1  0.18381584  0.69422672  0.15802950  1
  Li  Li5  1  0.45903411  0.58430694  0.54246928  1
  Li  Li6  1  0.50037404  0.57997368  0.76883300  1
  Li  Li7  1  0.96484676  0.67489154  0.44910005  1
  V  V0  1  0.47473124  0.15275162  0.67267214  1
  V  V1  1  0.99748201  0.99909777  0.99770948  1
  V  V2  1  0.99601747  0.32849020  0.33279012  1
  V  V3  1  0.02385655  0.65079798  0.67332430  1
  V  V4  1  0.49703147  0.50120177  0.99773281  1
  V  V5  1  0.49222480  0.83043505  0.33401062  1
  O  O0  1  0.19976214  0.35338364  0.70567968  1
  O  O1  1  0.30199746  0.85484868  0.70213760  1
  F  F0  1  0.16849747  0.99131465  0.36682945  1
  F  F1  1  0.31645117  0.16264651  0.02263693  1
  F  F2  1  0.68466165  0.15994658  0.29902226  1
  F  F3  1  0.12518563  0.02268027  0.88690679  1
  F  F4  1  0.09591730  0.37851959  0.21940995  1
  F  F5  1  0.36358809  0.23906168  0.55435791  1
  F  F6  1  0.90488176  0.31339549  0.44781124  1
  F  F7  1  0.59469325  0.45391798  0.11133360  1
  F  F8  1  0.64552377  0.16103452  0.78348820  1
  F  F9  1  0.30171185  0.50563751  0.36227797  1
  F  F10  1  0.18937321  0.67177641  0.03228652  1
  F  F11  1  0.68826662  0.48999176  0.63474741  1
  F  F12  1  0.81091085  0.32290627  0.97265425  1
  F  F13  1  0.82005696  0.66118012  0.31120570  1
  F  F14  1  0.40931069  0.49513898  0.88579004  1
  F  F15  1  0.40795500  0.87923166  0.21628499  1
  F  F16  1  0.12276040  0.73064168  0.54672636  1
  F  F17  1  0.61613076  0.77890877  0.44820413  1
  F  F18  1  0.90564078  0.95387932  0.11343063  1
  F  F19  1  0.84914377  0.68113814  0.77686249  1
  F  F20  1  0.81457649  0.99384158  0.63297958  1
  F  F21  1  0.67756868  0.84144469  0.96585924  1
loop_
_geom_bond_atom_site_label_1
_geom_bond_atom_site_label_2
_geom_bond_distance
_geom_bond_site_symmetry_2
Li2 O0 2.140378 1_655
Li2 O1 2.280688 1_645
Li6 O1 1.986207 1_555
Li6 O0 2.361005 1_555
O0 V3 1.856750 1_555
O0 V0 1.932112 1_555
O1 V0 1.850360 1_565
O1 V3 1.944294 1_555
F0 V5 2.011154 1_555
F0 V2 2.034428 1_465
F0 Li7 2.263580 1_455
F1 V1 1.969056 1_444
F1 V4 2.054173 1_554
F1 Li3 2.492920 1_554
F2 V2 1.998546 1_555
F2 V5 2.054622 1_545
F2 Li0 2.088161 1_555
F3 Li3 1.912467 1_555
F3 V1 1.927152 1_445
F3 Li2 2.001286 1_455
F4 Li4 1.896004 1_555
F4 V2 1.914114 1_455
F5 Li1 1.857355 1_555
F5 Li5 1.930186 1_555
F5 V0 2.016216 1_555
F6 Li1 1.919943 1_655
F6 V2 1.944287 1_555
F6 Li7 2.006929 1_555
F7 Li0 1.885102 1_555
F7 V4 1.920955 1_554
F8 Li3 1.835706 1_555
F8 Li2 1.972084 1_555
F8 V0 2.049268 1_555
F8 Li6 2.379674 1_555
F9 V2 1.974421 1_455
F9 V5 2.017462 1_555
F9 Li7 2.531842 1_455
F10 V4 1.979460 1_554
F10 V1 2.036905 1_454
F10 Li4 2.104470 1_555
F11 Li5 1.936613 1_555
F11 V3 2.111098 1_655
F11 V0 2.150794 1_555
F11 Li6 2.543239 1_555
F12 V4 1.976096 1_555
F12 V1 1.993268 1_545
F13 V5 2.001021 1_555
F13 V2 2.007234 1_555
F13 Li7 2.419738 1_555
F14 V4 1.915244 1_555
F14 Li6 1.961603 1_555
F14 Li3 2.040992 1_555
F15 Li4 1.919856 1_555
F15 V5 1.968789 1_555
F15 Li0 2.027751 1_565
F16 Li7 1.889189 1_455
F16 Li5 1.925133 1_555
F16 Li1 2.035912 1_565
F16 V3 2.120699 1_555
F17 Li7 1.896756 1_555
F17 Li5 1.904613 1_555
F17 V5 1.970557 1_555
F18 V1 1.941583 1_554
F18 Li0 1.953858 1_565
F18 Li4 2.066329 1_655
F19 Li6 1.911112 1_555
F19 V3 1.965376 1_655
F19 Li2 2.096861 1_565
F20 Li1 1.926118 1_665
F20 V0 2.116767 1_565
F20 V3 2.165330 1_655
F21 V1 1.994219 1_555
F21 V4 2.069344 1_555
F21 Li3 2.167789 1_565
