# generated using pymatgen
data_ZrSe
_symmetry_space_group_name_H-M   'P 1'
_cell_length_a   5.18963900
_cell_length_b   6.64466768
_cell_length_c   6.69342616
_cell_angle_alpha   81.77809661
_cell_angle_beta   67.63842186
_cell_angle_gamma   68.45075108
_symmetry_Int_Tables_number   1
_chemical_formula_structural   ZrSe
_chemical_formula_sum   'Zr4 Se4'
_cell_volume   198.53399877
_cell_formula_units_Z   4
loop_
 _symmetry_equiv_pos_site_id
 _symmetry_equiv_pos_as_xyz
  1  'x, y, z'
loop_
 _atom_site_type_symbol
 _atom_site_label
 _atom_site_symmetry_multiplicity
 _atom_site_fract_x
 _atom_site_fract_y
 _atom_site_fract_z
 _atom_site_occupancy
  Zr  Zr0  1  0.91917700  0.91948100  0.74089000  1
  Zr  Zr1  1  0.08082300  0.08051900  0.25911000  1
  Zr  Zr2  1  0.33556800  0.24001100  0.57867700  1
  Zr  Zr3  1  0.66443200  0.75998900  0.42132300  1
  Se  Se0  1  0.23280700  0.66161700  0.37591600  1
  Se  Se1  1  0.39069000  0.87499300  0.83971600  1
  Se  Se2  1  0.60931000  0.12500700  0.16028400  1
  Se  Se3  1  0.76719300  0.33838300  0.62408400  1
loop_
_geom_bond_atom_site_label_1
_geom_bond_atom_site_label_2
_geom_bond_distance
_geom_bond_site_symmetry_2
Se0 Zr3 2.679267 1_455
Se0 Zr3 2.680959 1_555
Se0 Zr1 2.686089 1_565
Se0 Zr0 2.770545 1_455
Se0 Zr2 2.887927 1_555
Se1 Zr0 2.675256 1_455
Se1 Zr0 2.684459 1_555
Se1 Zr3 2.689281 1_555
Se1 Zr2 2.770547 1_565
Se1 Zr1 2.894754 1_566
Se2 Zr1 2.675256 1_655
Se2 Zr1 2.684459 1_555
Se2 Zr2 2.689281 1_555
Se2 Zr3 2.770547 1_545
Se2 Zr0 2.894754 1_544
Se3 Zr2 2.679267 1_655
Se3 Zr2 2.680959 1_555
Se3 Zr0 2.686089 1_545
Se3 Zr1 2.770545 1_655
Se3 Zr3 2.887927 1_555
