# generated using pymatgen
data_LiMg6Sb
_symmetry_space_group_name_H-M   'P 1'
_cell_length_a   5.21170500
_cell_length_b   6.23037100
_cell_length_c   11.12665500
_cell_angle_alpha   90.00000000
_cell_angle_beta   90.00000000
_cell_angle_gamma   90.00000000
_symmetry_Int_Tables_number   1
_chemical_formula_structural   LiMg6Sb
_chemical_formula_sum   'Li2 Mg12 Sb2'
_cell_volume   361.29200885
_cell_formula_units_Z   2
loop_
 _symmetry_equiv_pos_site_id
 _symmetry_equiv_pos_as_xyz
  1  'x, y, z'
loop_
 _atom_site_type_symbol
 _atom_site_label
 _atom_site_symmetry_multiplicity
 _atom_site_fract_x
 _atom_site_fract_y
 _atom_site_fract_z
 _atom_site_occupancy
  Li  Li0  1  0.00000000  0.00000000  0.16686400  1
  Li  Li1  1  0.00000000  0.50000000  0.66686400  1
  Mg  Mg0  1  0.00000000  0.24909100  0.41640900  1
  Mg  Mg1  1  0.00000000  0.75090900  0.41640900  1
  Mg  Mg2  1  0.50000000  0.75464900  0.08283800  1
  Mg  Mg3  1  0.50000000  0.24535100  0.08283800  1
  Mg  Mg4  1  0.50000000  0.00000000  0.33267500  1
  Mg  Mg5  1  0.50000000  0.50000000  0.33558100  1
  Mg  Mg6  1  0.00000000  0.74909100  0.91640900  1
  Mg  Mg7  1  0.00000000  0.25090900  0.91640900  1
  Mg  Mg8  1  0.50000000  0.25464900  0.58283800  1
  Mg  Mg9  1  0.50000000  0.74535100  0.58283800  1
  Mg  Mg10  1  0.50000000  0.50000000  0.83267500  1
  Mg  Mg11  1  0.50000000  0.00000000  0.83558100  1
  Sb  Sb0  1  0.00000000  0.50000000  0.16638100  1
  Sb  Sb1  1  0.00000000  0.00000000  0.66638100  1
loop_
_geom_bond_atom_site_label_1
_geom_bond_atom_site_label_2
_geom_bond_distance
_geom_bond_site_symmetry_2
Li0 Sb0 3.115190 1_545
Li0 Sb0 3.115190 1_555
Li0 Mg3 3.162477 1_455
Li0 Mg2 3.162477 1_445
Li0 Mg2 3.162477 1_545
Li0 Mg3 3.162477 1_555
Li0 Mg0 3.180880 1_555
Li0 Mg1 3.180880 1_545
Li0 Mg4 3.192836 1_455
Li0 Mg4 3.192836 1_555
Li0 Mg7 3.195249 1_554
Li0 Mg6 3.195249 1_544
Li1 Sb1 3.115190 1_555
Li1 Sb1 3.115190 1_565
Li1 Mg9 3.162477 1_455
Li1 Mg9 3.162477 1_555
Li1 Mg8 3.162477 1_455
Li1 Mg8 3.162477 1_555
Li1 Mg7 3.180880 1_555
Li1 Mg6 3.180880 1_555
Li1 Mg10 3.192836 1_555
Li1 Mg10 3.192836 1_455
Li1 Mg0 3.195249 1_555
Li1 Mg1 3.195249 1_555
Mg0 Mg1 3.103859 1_545
Mg0 Mg1 3.126512 1_555
Mg0 Mg5 3.169079 1_555
Mg0 Mg5 3.169079 1_455
Mg0 Mg4 3.172850 1_455
Mg0 Mg4 3.172850 1_555
Mg0 Sb1 3.185028 1_555
Mg0 Sb0 3.191106 1_555
Mg0 Mg8 3.197002 1_455
Mg0 Mg8 3.197002 1_555
Mg1 Mg5 3.169079 1_455
Mg1 Mg5 3.169079 1_555
Mg1 Mg4 3.172850 1_465
Mg1 Mg4 3.172850 1_565
Mg1 Sb1 3.185028 1_565
Mg1 Sb0 3.191106 1_555
Mg1 Mg9 3.197002 1_455
Mg1 Mg9 3.197002 1_555
Mg2 Mg3 3.057256 1_565
Mg2 Mg4 3.172423 1_565
Mg2 Mg3 3.173115 1_555
Mg2 Sb0 3.189311 1_555
Mg2 Sb0 3.189311 1_655
Mg2 Mg6 3.197002 1_554
Mg2 Mg6 3.197002 1_654
Mg2 Mg5 3.228861 1_555
Mg3 Mg4 3.172423 1_555
Mg3 Sb0 3.189311 1_555
Mg3 Sb0 3.189311 1_655
Mg3 Mg7 3.197002 1_654
Mg3 Mg7 3.197002 1_554
Mg3 Mg5 3.228861 1_555
Mg4 Mg5 3.115353 1_555
Mg4 Mg5 3.115353 1_545
Mg4 Mg8 3.203890 1_555
Mg4 Mg9 3.203890 1_545
Mg5 Mg8 3.147299 1_555
Mg5 Mg9 3.147299 1_555
Mg5 Sb0 3.214773 1_655
Mg5 Sb0 3.214773 1_555
Mg6 Mg7 3.103859 1_555
Mg6 Mg7 3.126512 1_565
Mg6 Sb0 3.185028 1_556
Mg6 Sb1 3.191106 1_565
Mg7 Sb0 3.185028 1_556
Mg7 Sb1 3.191106 1_555
Mg8 Mg9 3.057256 1_555
Mg8 Mg9 3.173115 1_545
Mg8 Sb1 3.189311 1_555
Mg8 Sb1 3.189311 1_655
Mg9 Sb1 3.189311 1_565
Mg9 Sb1 3.189311 1_665
Mg10 Mg11 3.115353 1_565
Mg10 Mg11 3.115353 1_555
Mg10 Mg9 3.172423 1_555
Mg10 Mg8 3.172423 1_555
Mg10 Mg7 3.172850 1_655
Mg10 Mg6 3.172850 1_555
Mg10 Mg7 3.172850 1_555
Mg10 Mg6 3.172850 1_655
Mg10 Mg2 3.203890 1_556
Mg10 Mg3 3.203890 1_556
Mg11 Mg2 3.147299 1_546
Mg11 Mg3 3.147299 1_556
Mg11 Mg7 3.169079 1_555
Mg11 Mg7 3.169079 1_655
Mg11 Mg6 3.169079 1_545
Mg11 Mg6 3.169079 1_645
Mg11 Sb1 3.214773 1_555
Mg11 Sb1 3.214773 1_655
Mg11 Mg8 3.228861 1_555
Mg11 Mg9 3.228861 1_545
