# generated using pymatgen
data_YbH12(CN3)3
_symmetry_space_group_name_H-M   'P 1'
_cell_length_a   12.10934916
_cell_length_b   12.10934916
_cell_length_c   12.10934916
_cell_angle_alpha   109.47122063
_cell_angle_beta   109.47122063
_cell_angle_gamma   109.47122063
_symmetry_Int_Tables_number   1
_chemical_formula_structural   YbH12(CN3)3
_chemical_formula_sum   'Yb4 H48 C12 N36'
_cell_volume   1366.91187085
_cell_formula_units_Z   4
loop_
 _symmetry_equiv_pos_site_id
 _symmetry_equiv_pos_as_xyz
  1  'x, y, z'
loop_
 _atom_site_type_symbol
 _atom_site_label
 _atom_site_symmetry_multiplicity
 _atom_site_fract_x
 _atom_site_fract_y
 _atom_site_fract_z
 _atom_site_occupancy
  Yb  Yb0  1  0.50000000  0.00000000  0.00000000  1
  Yb  Yb1  1  0.00000000  0.00000000  0.50000000  1
  Yb  Yb2  1  0.00000000  0.50000000  0.00000000  1
  Yb  Yb3  1  0.50000000  0.50000000  0.50000000  1
  H  H0  1  0.42667000  0.20611900  0.37396800  1
  H  H1  1  0.16785000  0.79388100  0.22055100  1
  H  H2  1  0.83215000  0.05270200  0.62603200  1
  H  H3  1  0.57333000  0.94729800  0.77944900  1
  H  H4  1  0.37396800  0.42667000  0.20611900  1
  H  H5  1  0.22055100  0.16785000  0.79388100  1
  H  H6  1  0.62603200  0.83215000  0.05270200  1
  H  H7  1  0.77944900  0.57333000  0.94729800  1
  H  H8  1  0.20611900  0.37396800  0.42667000  1
  H  H9  1  0.79388100  0.22055100  0.16785000  1
  H  H10  1  0.05270200  0.62603200  0.83215000  1
  H  H11  1  0.94729800  0.77944900  0.57333000  1
  H  H12  1  0.57333000  0.79388100  0.62603200  1
  H  H13  1  0.83215000  0.20611900  0.77944900  1
  H  H14  1  0.16785000  0.94729800  0.37396800  1
  H  H15  1  0.42667000  0.05270200  0.22055100  1
  H  H16  1  0.62603200  0.57333000  0.79388100  1
  H  H17  1  0.77944900  0.83215000  0.20611900  1
  H  H18  1  0.37396800  0.16785000  0.94729800  1
  H  H19  1  0.22055100  0.42667000  0.05270200  1
  H  H20  1  0.79388100  0.62603200  0.57333000  1
  H  H21  1  0.20611900  0.77944900  0.83215000  1
  H  H22  1  0.94729800  0.37396800  0.16785000  1
  H  H23  1  0.05270200  0.22055100  0.42667000  1
  H  H24  1  0.63810000  0.43704100  0.32626100  1
  H  H25  1  0.88922000  0.56295900  0.20105900  1
  H  H26  1  0.11078000  0.31184000  0.67373900  1
  H  H27  1  0.36190000  0.68816000  0.79894100  1
  H  H28  1  0.32626100  0.63810000  0.43704100  1
  H  H29  1  0.20105900  0.88922000  0.56295900  1
  H  H30  1  0.67373900  0.11078000  0.31184000  1
  H  H31  1  0.79894100  0.36190000  0.68816000  1
  H  H32  1  0.43704100  0.32626100  0.63810000  1
  H  H33  1  0.56295900  0.20105900  0.88922000  1
  H  H34  1  0.31184000  0.67373900  0.11078000  1
  H  H35  1  0.68816000  0.79894100  0.36190000  1
  H  H36  1  0.36190000  0.56295900  0.67373900  1
  H  H37  1  0.11078000  0.43704100  0.79894100  1
  H  H38  1  0.88922000  0.68816000  0.32626100  1
  H  H39  1  0.63810000  0.31184000  0.20105900  1
  H  H40  1  0.67373900  0.36190000  0.56295900  1
  H  H41  1  0.79894100  0.11078000  0.43704100  1
  H  H42  1  0.32626100  0.88922000  0.68816000  1
  H  H43  1  0.20105900  0.63810000  0.31184000  1
  H  H44  1  0.56295900  0.67373900  0.36190000  1
  H  H45  1  0.43704100  0.79894100  0.11078000  1
  H  H46  1  0.68816000  0.32626100  0.88922000  1
  H  H47  1  0.31184000  0.20105900  0.63810000  1
  C  C0  1  0.52023000  0.24331300  0.27691700  1
  C  C1  1  0.03360400  0.75668700  0.27691700  1
  C  C2  1  0.96639600  0.24331300  0.72308300  1
  C  C3  1  0.47977000  0.75668700  0.72308300  1
  C  C4  1  0.27691700  0.52023000  0.24331300  1
  C  C5  1  0.27691700  0.03360400  0.75668700  1
  C  C6  1  0.72308300  0.96639600  0.24331300  1
  C  C7  1  0.72308300  0.47977000  0.75668700  1
  C  C8  1  0.24331300  0.27691700  0.52023000  1
  C  C9  1  0.75668700  0.27691700  0.03360500  1
  C  C10  1  0.24331300  0.72308300  0.96639500  1
  C  C11  1  0.75668700  0.72308300  0.47977000  1
  N  N0  1  0.49051900  0.28752600  0.37477100  1
  N  N1  1  0.08724500  0.71247400  0.20299300  1
  N  N2  1  0.91275500  0.11574800  0.62522900  1
  N  N3  1  0.50948100  0.88425200  0.79700700  1
  N  N4  1  0.37477100  0.49051900  0.28752600  1
  N  N5  1  0.20299300  0.08724500  0.71247400  1
  N  N6  1  0.62522900  0.91275500  0.11574800  1
  N  N7  1  0.79700700  0.50948100  0.88425200  1
  N  N8  1  0.28752600  0.37477100  0.49051900  1
  N  N9  1  0.71247400  0.20299300  0.08724500  1
  N  N10  1  0.11574800  0.62522900  0.91275500  1
  N  N11  1  0.88425200  0.79700700  0.50948100  1
  N  N12  1  0.50948100  0.71247400  0.62522900  1
  N  N13  1  0.91275500  0.28752600  0.79700700  1
  N  N14  1  0.08724500  0.88425200  0.37477100  1
  N  N15  1  0.49051900  0.11574800  0.20299300  1
  N  N16  1  0.62522900  0.50948100  0.71247400  1
  N  N17  1  0.79700700  0.91275500  0.28752600  1
  N  N18  1  0.37477100  0.08724500  0.88425200  1
  N  N19  1  0.20299300  0.49051900  0.11574800  1
  N  N20  1  0.71247400  0.62522900  0.50948100  1
  N  N21  1  0.28752600  0.79700700  0.91275500  1
  N  N22  1  0.88425200  0.37477100  0.08724500  1
  N  N23  1  0.11574800  0.20299300  0.49051900  1
  N  N24  1  0.58999200  0.33857900  0.25141300  1
  N  N25  1  0.91283500  0.66142100  0.25141300  1
  N  N26  1  0.08716500  0.33857900  0.74858700  1
  N  N27  1  0.41000800  0.66142100  0.74858700  1
  N  N28  1  0.25141300  0.58999200  0.33857900  1
  N  N29  1  0.25141300  0.91283500  0.66142100  1
  N  N30  1  0.74858700  0.08716500  0.33857900  1
  N  N31  1  0.74858700  0.41000800  0.66142100  1
  N  N32  1  0.33857900  0.25141300  0.58999200  1
  N  N33  1  0.66142100  0.25141300  0.91283500  1
  N  N34  1  0.33857900  0.74858700  0.08716500  1
  N  N35  1  0.66142100  0.74858700  0.41000800  1
loop_
_geom_bond_atom_site_label_1
_geom_bond_atom_site_label_2
_geom_bond_distance
_geom_bond_site_symmetry_2
H0 N0 1.024762 1_555
H1 N1 1.024769 1_555
H2 N2 1.024771 1_555
H3 N3 1.024762 1_555
H4 N4 1.024762 1_555
H5 N5 1.024769 1_555
H6 N6 1.024771 1_555
H7 N7 1.024762 1_555
H8 N8 1.024762 1_555
H9 N9 1.024769 1_555
H10 N10 1.024771 1_555
H11 N11 1.024762 1_555
H12 N12 1.024762 1_555
H13 N13 1.024769 1_555
H14 N14 1.024771 1_555
H15 N15 1.024762 1_555
H16 N16 1.024762 1_555
H17 N17 1.024769 1_555
H18 N18 1.024771 1_555
H19 N19 1.024762 1_555
H20 N20 1.024762 1_555
H21 N21 1.024769 1_555
H22 N22 1.024771 1_555
H23 N23 1.024762 1_555
H24 N24 1.023211 1_555
H25 N25 1.023207 1_555
H26 N26 1.023218 1_555
H27 N27 1.023207 1_555
H28 N28 1.023211 1_555
H29 N29 1.023207 1_555
H30 N30 1.023218 1_555
H31 N31 1.023207 1_555
H32 N32 1.023211 1_555
H33 N33 1.023207 1_555
H34 N34 1.023218 1_555
H35 N35 1.023207 1_555
H36 N27 1.023211 1_555
H37 N26 1.023207 1_555
H38 N25 1.023218 1_555
H39 N24 1.023207 1_555
H40 N31 1.023211 1_555
H41 N30 1.023207 1_555
H42 N29 1.023218 1_555
H43 N28 1.023207 1_555
H44 N35 1.023211 1_555
H45 N34 1.023207 1_555
H46 N33 1.023218 1_555
H47 N32 1.023207 1_555
C0 N0 1.345317 1_555
C0 N15 1.345317 1_555
C0 N24 1.378982 1_555
C1 N1 1.345317 1_555
C1 N14 1.345317 1_555
C1 N25 1.378974 1_455
C2 N2 1.345317 1_555
C2 N13 1.345317 1_555
C2 N26 1.378974 1_655
C3 N12 1.345317 1_555
C3 N3 1.345317 1_555
C3 N27 1.378982 1_555
C4 N4 1.345317 1_555
C4 N19 1.345317 1_555
C4 N28 1.378982 1_555
C5 N5 1.345317 1_555
C5 N18 1.345317 1_555
C5 N29 1.378974 1_545
C6 N6 1.345317 1_555
C6 N17 1.345317 1_555
C6 N30 1.378974 1_565
C7 N16 1.345317 1_555
C7 N7 1.345317 1_555
C7 N31 1.378982 1_555
C8 N8 1.345317 1_555
C8 N23 1.345317 1_555
C8 N32 1.378982 1_555
C9 N9 1.345307 1_555
C9 N22 1.345319 1_555
C9 N33 1.378982 1_554
C10 N21 1.345307 1_555
C10 N10 1.345319 1_555
C10 N34 1.378982 1_556
C11 N20 1.345317 1_555
C11 N11 1.345317 1_555
C11 N35 1.378982 1_555
N0 Yb3 2.453280 1_555
N1 Yb2 2.453280 1_555
N2 Yb1 2.453280 1_655
N3 Yb0 2.453280 1_566
N4 Yb3 2.453280 1_555
N5 Yb1 2.453280 1_555
N6 Yb0 2.453280 1_565
N7 Yb2 2.453280 1_656
N8 Yb3 2.453280 1_555
N9 Yb0 2.453280 1_555
N10 Yb2 2.453280 1_556
N11 Yb1 2.453280 1_665
N12 Yb3 2.453280 1_555
N13 Yb2 2.453280 1_656
N14 Yb1 2.453280 1_565
N15 Yb0 2.453280 1_555
N16 Yb3 2.453280 1_555
N17 Yb1 2.453280 1_665
N18 Yb0 2.453280 1_556
N19 Yb2 2.453280 1_555
N20 Yb3 2.453280 1_555
N21 Yb0 2.453280 1_566
N22 Yb2 2.453280 1_655
N23 Yb1 2.453280 1_555
