# generated using pymatgen
data_FeBP2O11
_symmetry_space_group_name_H-M   'P 1'
_cell_length_a   9.29406577
_cell_length_b   9.29406577
_cell_length_c   15.53612500
_cell_angle_alpha   90.00000000
_cell_angle_beta   90.00000000
_cell_angle_gamma   119.99999839
_symmetry_Int_Tables_number   1
_chemical_formula_structural   FeBP2O11
_chemical_formula_sum   'Fe6 B6 P12 O66'
_cell_volume   1162.21059130
_cell_formula_units_Z   6
loop_
 _symmetry_equiv_pos_site_id
 _symmetry_equiv_pos_as_xyz
  1  'x, y, z'
loop_
 _atom_site_type_symbol
 _atom_site_label
 _atom_site_symmetry_multiplicity
 _atom_site_fract_x
 _atom_site_fract_y
 _atom_site_fract_z
 _atom_site_occupancy
  Fe  Fe0  1  0.43998300  0.87996600  0.25000000  1
  Fe  Fe1  1  0.12003400  0.56001700  0.58333300  1
  Fe  Fe2  1  0.56001700  0.12003400  0.75000000  1
  Fe  Fe3  1  0.87996600  0.43998300  0.08333300  1
  Fe  Fe4  1  0.43998300  0.56001700  0.91666700  1
  Fe  Fe5  1  0.56001700  0.43998300  0.41666700  1
  B  B0  1  0.15254900  0.30509900  0.25000000  1
  B  B1  1  0.69490100  0.84745100  0.58333300  1
  B  B2  1  0.84745100  0.69490100  0.75000000  1
  B  B3  1  0.30509900  0.15254900  0.08333300  1
  B  B4  1  0.15254900  0.84745100  0.91666700  1
  B  B5  1  0.84745100  0.15254900  0.41666700  1
  P  P0  1  0.20923800  0.38559100  0.07980000  1
  P  P1  1  0.61440900  0.82364700  0.41313300  1
  P  P2  1  0.79076200  0.61440900  0.57980000  1
  P  P3  1  0.38559100  0.20923800  0.25353300  1
  P  P4  1  0.17635300  0.79076200  0.74646700  1
  P  P5  1  0.38559100  0.17635300  0.91313300  1
  P  P6  1  0.82364700  0.61440900  0.92020000  1
  P  P7  1  0.61440900  0.79076200  0.75353300  1
  P  P8  1  0.82364700  0.20923800  0.24646700  1
  P  P9  1  0.17635300  0.38559100  0.42020000  1
  P  P10  1  0.79076200  0.17635300  0.58686700  1
  P  P11  1  0.20923800  0.82364700  0.08686700  1
  O  O0  1  0.05669500  0.38998800  0.04888900  1
  O  O1  1  0.61001200  0.66670700  0.38222300  1
  O  O2  1  0.94330500  0.61001200  0.54888900  1
  O  O3  1  0.38998800  0.05669500  0.28444400  1
  O  O4  1  0.33329300  0.94330500  0.71555600  1
  O  O5  1  0.38998800  0.33329300  0.88222300  1
  O  O6  1  0.66670700  0.61001200  0.95111100  1
  O  O7  1  0.61001200  0.94330500  0.78444400  1
  O  O8  1  0.66670700  0.05669500  0.21555600  1
  O  O9  1  0.33329300  0.38998800  0.45111100  1
  O  O10  1  0.94330500  0.33329300  0.61777700  1
  O  O11  1  0.05669500  0.66670700  0.11777700  1
  O  O12  1  0.18921900  0.21198000  0.05983800  1
  O  O13  1  0.78802000  0.97724000  0.39317100  1
  O  O14  1  0.81078100  0.78802000  0.55983800  1
  O  O15  1  0.21198000  0.18921900  0.27349500  1
  O  O16  1  0.02276000  0.81078100  0.72650500  1
  O  O17  1  0.21198000  0.02276000  0.89317100  1
  O  O18  1  0.97724000  0.78802000  0.94016200  1
  O  O19  1  0.78802000  0.81078100  0.77349500  1
  O  O20  1  0.97724000  0.18921900  0.22650500  1
  O  O21  1  0.02276000  0.21198000  0.44016200  1
  O  O22  1  0.81078100  0.02276000  0.60682900  1
  O  O23  1  0.18921900  0.97724000  0.10682900  1
  O  O24  1  0.41818400  0.17762800  0.01124900  1
  O  O25  1  0.82237200  0.24055600  0.34458300  1
  O  O26  1  0.58181600  0.82237200  0.51124900  1
  O  O27  1  0.17762800  0.41818400  0.32208400  1
  O  O28  1  0.75944400  0.58181600  0.67791600  1
  O  O29  1  0.17762800  0.75944400  0.84458300  1
  O  O30  1  0.24055600  0.82237200  0.98875100  1
  O  O31  1  0.82237200  0.58181600  0.82208400  1
  O  O32  1  0.24055600  0.41818400  0.17791600  1
  O  O33  1  0.75944400  0.17762800  0.48875100  1
  O  O34  1  0.58181600  0.75944400  0.65541700  1
  O  O35  1  0.41818400  0.24055600  0.15541700  1
  O  O36  1  0.37625100  0.51865600  0.03708200  1
  O  O37  1  0.48134400  0.85759500  0.37041500  1
  O  O38  1  0.62374900  0.48134400  0.53708200  1
  O  O39  1  0.51865600  0.37625100  0.29625200  1
  O  O40  1  0.14240500  0.62374900  0.70374800  1
  O  O41  1  0.51865600  0.14240500  0.87041500  1
  O  O42  1  0.85759500  0.48134400  0.96291800  1
  O  O43  1  0.48134400  0.62374900  0.79625200  1
  O  O44  1  0.85759500  0.37625100  0.20374800  1
  O  O45  1  0.14240500  0.51865600  0.46291800  1
  O  O46  1  0.62374900  0.14240500  0.62958500  1
  O  O47  1  0.37625100  0.85759500  0.12958500  1
  O  O48  1  0.50537100  0.23796300  0.43988000  1
  O  O49  1  0.76203700  0.26740800  0.77321300  1
  O  O50  1  0.49462900  0.76203700  0.93988000  1
  O  O51  1  0.23796300  0.50537100  0.89345400  1
  O  O52  1  0.73259200  0.49462900  0.10654600  1
  O  O53  1  0.23796300  0.73259200  0.27321300  1
  O  O54  1  0.26740800  0.76203700  0.56012000  1
  O  O55  1  0.76203700  0.49462900  0.39345400  1
  O  O56  1  0.26740800  0.50537100  0.60654600  1
  O  O57  1  0.73259200  0.23796300  0.06012000  1
  O  O58  1  0.49462900  0.73259200  0.22678700  1
  O  O59  1  0.50537100  0.26740800  0.72678700  1
  O  O60  1  0.91177100  0.82354200  0.25000000  1
  O  O61  1  0.17645800  0.08822900  0.58333300  1
  O  O62  1  0.08822900  0.17645800  0.75000000  1
  O  O63  1  0.82354200  0.91177100  0.08333300  1
  O  O64  1  0.91177100  0.08822900  0.91666700  1
  O  O65  1  0.08822900  0.91177100  0.41666700  1
loop_
_geom_bond_atom_site_label_1
_geom_bond_atom_site_label_2
_geom_bond_distance
_geom_bond_site_symmetry_2
Fe0 O58 1.720391 1_555
Fe0 O53 1.720391 1_555
Fe0 O37 1.941843 1_555
Fe0 O47 1.941843 1_555
Fe0 O3 1.990826 1_565
Fe0 O8 1.990826 1_565
Fe1 O56 1.720391 1_555
Fe1 O54 1.720391 1_555
Fe1 O45 1.941843 1_555
Fe1 O40 1.941843 1_555
Fe1 O2 1.990826 1_455
Fe1 O10 1.990826 1_455
Fe2 O59 1.720391 1_555
Fe2 O49 1.720391 1_555
Fe2 O41 1.941843 1_555
Fe2 O46 1.941843 1_555
Fe2 O7 1.990826 1_545
Fe2 O4 1.990826 1_545
Fe3 O52 1.720391 1_555
Fe3 O57 1.720391 1_555
Fe3 O42 1.941843 1_554
Fe3 O44 1.941843 1_555
Fe3 O0 1.990826 1_655
Fe3 O11 1.990826 1_655
Fe4 O50 1.720391 1_555
Fe4 O51 1.720391 1_555
Fe4 O36 1.941843 1_556
Fe4 O43 1.941843 1_555
Fe4 O6 1.990826 1_555
Fe4 O5 1.990826 1_555
Fe5 O55 1.720391 1_555
Fe5 O48 1.720391 1_555
Fe5 O39 1.941843 1_555
Fe5 O38 1.941843 1_555
Fe5 O1 1.990826 1_555
Fe5 O9 1.990826 1_555
B0 O27 1.472475 1_555
B0 O32 1.472477 1_555
B0 O20 1.480913 1_455
B0 O15 1.480927 1_555
B1 O26 1.472475 1_555
B1 O34 1.472477 1_555
B1 O22 1.480917 1_565
B1 O14 1.480927 1_555
B2 O31 1.472475 1_555
B2 O28 1.472477 1_555
B2 O16 1.480913 1_655
B2 O19 1.480927 1_555
B3 O24 1.472475 1_555
B3 O35 1.472477 1_555
B3 O23 1.480917 1_545
B3 O12 1.480927 1_555
B4 O30 1.472481 1_555
B4 O29 1.472481 1_555
B4 O18 1.480910 1_455
B4 O17 1.480913 1_565
B5 O25 1.472481 1_555
B5 O33 1.472481 1_555
B5 O21 1.480910 1_655
B5 O13 1.480913 1_545
O0 P0 1.516653 1_555
O1 P1 1.516648 1_555
O2 P2 1.516653 1_555
O3 P3 1.516653 1_555
O4 P4 1.516653 1_555
O5 P5 1.516648 1_555
O6 P6 1.516653 1_555
O7 P7 1.516653 1_555
O8 P8 1.516653 1_555
O9 P9 1.516653 1_555
O10 P10 1.516648 1_555
O11 P11 1.516648 1_555
O12 P0 1.560172 1_555
O13 P1 1.560175 1_555
O14 P2 1.560172 1_555
O15 P3 1.560172 1_555
O16 P4 1.560181 1_555
O17 P5 1.560175 1_555
O18 P6 1.560175 1_555
O19 P7 1.560172 1_555
O20 P8 1.560181 1_555
O21 P9 1.560175 1_555
O22 P10 1.560181 1_555
O23 P11 1.560181 1_555
O24 P5 1.553040 1_554
O25 P8 1.553040 1_555
O26 P1 1.553040 1_555
O27 P9 1.553040 1_555
O28 P2 1.553040 1_555
O29 P4 1.553040 1_555
O30 P11 1.553040 1_556
O31 P6 1.553040 1_555
O32 P0 1.553040 1_555
O33 P10 1.553040 1_555
O34 P7 1.553040 1_555
O35 P3 1.553040 1_555
O36 P0 1.568335 1_555
O37 P1 1.568335 1_555
O38 P2 1.568335 1_555
O39 P3 1.568342 1_555
O40 P4 1.568342 1_555
O41 P5 1.568335 1_555
O42 P6 1.568335 1_555
O43 P7 1.568342 1_555
O44 P8 1.568342 1_555
O45 P9 1.568335 1_555
O46 P10 1.568335 1_555
O47 P11 1.568335 1_555
