# generated using pymatgen
data_BaNiO3
_symmetry_space_group_name_H-M   'P 1'
_cell_length_a   5.67658447
_cell_length_b   5.67658423
_cell_length_c   4.78201573
_cell_angle_alpha   90.00000000
_cell_angle_beta   90.00000000
_cell_angle_gamma   120.00000145
_symmetry_Int_Tables_number   1
_chemical_formula_structural   BaNiO3
_chemical_formula_sum   'Ba2 Ni2 O6'
_cell_volume   133.44915155
_cell_formula_units_Z   2
loop_
 _symmetry_equiv_pos_site_id
 _symmetry_equiv_pos_as_xyz
  1  'x, y, z'
loop_
 _atom_site_type_symbol
 _atom_site_label
 _atom_site_symmetry_multiplicity
 _atom_site_fract_x
 _atom_site_fract_y
 _atom_site_fract_z
 _atom_site_occupancy
  Ba  Ba0  1  0.66666700  0.33333300  0.25000000  1
  Ba  Ba1  1  0.33333300  0.66666700  0.75000000  1
  Ni  Ni0  1  -0.00000000  -0.00000000  0.50000000  1
  Ni  Ni1  1  -0.00000000  -0.00000000  -0.00000000  1
  O  O0  1  0.85344194  0.70688388  0.75000000  1
  O  O1  1  0.14655806  0.85344194  0.25000000  1
  O  O2  1  0.70688388  0.85344194  0.25000000  1
  O  O3  1  0.29311612  0.14655806  0.75000000  1
  O  O4  1  0.14655806  0.29311612  0.25000000  1
  O  O5  1  0.85344194  0.14655806  0.75000000  1
loop_
_geom_bond_atom_site_label_1
_geom_bond_atom_site_label_2
_geom_bond_distance
_geom_bond_site_symmetry_2
Ba0 O2 2.845167 1_545
Ba0 O4 2.845167 1_655
Ba0 O1 2.845170 1_655
Ba0 O1 2.845170 1_545
Ba0 O2 2.845173 1_555
Ba0 O4 2.845173 1_555
Ba0 O5 3.014841 1_555
Ba0 O5 3.014841 1_554
Ba0 O0 3.014844 1_554
Ba0 O0 3.014844 1_555
Ba0 O3 3.014844 1_554
Ba0 O3 3.014844 1_555
Ba1 O3 2.845167 1_565
Ba1 O0 2.845167 1_455
Ba1 O5 2.845170 1_455
Ba1 O5 2.845170 1_565
Ba1 O3 2.845173 1_555
Ba1 O0 2.845173 1_555
Ba1 O1 3.014841 1_556
Ba1 O1 3.014841 1_555
Ba1 O4 3.014844 1_556
Ba1 O4 3.014844 1_555
Ba1 O2 3.014844 1_555
Ba1 O2 3.014844 1_556
Ni0 O4 1.872338 1_555
Ni0 O0 1.872338 1_445
Ni0 O3 1.872338 1_555
Ni0 O2 1.872338 1_445
Ni0 O5 1.872338 1_455
Ni0 O1 1.872338 1_545
Ni1 O4 1.872338 1_555
Ni1 O0 1.872338 1_444
Ni1 O3 1.872338 1_554
Ni1 O2 1.872338 1_445
Ni1 O5 1.872338 1_454
Ni1 O1 1.872338 1_545
