# generated using pymatgen
data_Li3Fe2(P2O7)2
_symmetry_space_group_name_H-M   'P 1'
_cell_length_a   9.83338893
_cell_length_b   9.79090858
_cell_length_c   11.16984656
_cell_angle_alpha   90.32939004
_cell_angle_beta   102.26772811
_cell_angle_gamma   89.49583498
_symmetry_Int_Tables_number   1
_chemical_formula_structural   Li3Fe2(P2O7)2
_chemical_formula_sum   'Li12 Fe8 P16 O56'
_cell_volume   1050.80291298
_cell_formula_units_Z   4
loop_
 _symmetry_equiv_pos_site_id
 _symmetry_equiv_pos_as_xyz
  1  'x, y, z'
loop_
 _atom_site_type_symbol
 _atom_site_label
 _atom_site_symmetry_multiplicity
 _atom_site_fract_x
 _atom_site_fract_y
 _atom_site_fract_z
 _atom_site_occupancy
  Li  Li0  1  0.17119923  0.42675965  0.54329707  1
  Li  Li1  1  0.34482152  0.91215380  0.95752614  1
  Li  Li2  1  0.14340498  0.39027247  0.04164244  1
  Li  Li3  1  0.41288800  0.61292344  0.97162827  1
  Li  Li4  1  0.32290492  0.91878380  0.44933876  1
  Li  Li5  1  0.61398317  0.78063063  0.45551138  1
  Li  Li6  1  0.66570358  0.08376808  0.54349342  1
  Li  Li7  1  0.59247060  0.39981099  0.03296490  1
  Li  Li8  1  0.65506466  0.10752045  0.03519309  1
  Li  Li9  1  0.91898560  0.90773448  0.97446205  1
  Li  Li10  1  0.83467338  0.57883857  0.45878880  1
  Li  Li11  1  0.88696930  0.28357168  0.54659343  1
  Fe  Fe0  1  0.19728858  0.92303195  0.66827914  1
  Fe  Fe1  1  0.24706035  0.20986535  0.82320574  1
  Fe  Fe2  1  0.23717976  0.71940321  0.17323986  1
  Fe  Fe3  1  0.30067167  0.42232317  0.32754921  1
  Fe  Fe4  1  0.70013669  0.57591081  0.68461744  1
  Fe  Fe5  1  0.75203731  0.28182171  0.82467173  1
  Fe  Fe6  1  0.74842257  0.77795965  0.16982695  1
  Fe  Fe7  1  0.80520423  0.07054441  0.32380856  1
  P  P0  1  0.02162274  0.45207000  0.75717212  1
  P  P1  1  0.11507626  0.71224773  0.87998265  1
  P  P2  1  0.06882848  0.92417235  0.24648548  1
  P  P3  1  0.12423945  0.14879090  0.42172621  1
  P  P4  1  0.37800190  0.64808109  0.57659006  1
  P  P5  1  0.43658768  0.42949021  0.75949712  1
  P  P6  1  0.51502285  0.04813668  0.74933785  1
  P  P7  1  0.38606028  0.20552747  0.11472706  1
  P  P8  1  0.61956176  0.79849411  0.88468104  1
  P  P9  1  0.48059613  0.95083330  0.24322806  1
  P  P10  1  0.56337362  0.57425269  0.24510012  1
  P  P11  1  0.62427147  0.35095189  0.41798295  1
  P  P12  1  0.87469075  0.85194121  0.57961895  1
  P  P13  1  0.92830927  0.07448927  0.75614986  1
  P  P14  1  0.88407508  0.28777273  0.11506165  1
  P  P15  1  0.98221133  0.54210598  0.25506201  1
  O  O0  1  0.02592898  0.40627766  0.62812152  1
  O  O1  1  0.02618250  0.84114956  0.57037312  1
  O  O2  1  0.07831739  0.07952410  0.73123311  1
  O  O3  1  0.09448066  0.59916069  0.77034617  1
  O  O4  1  0.10441363  0.36285121  0.85934814  1
  O  O5  1  0.19252848  0.82726476  0.82570897  1
  O  O6  1  0.21862965  0.64977625  0.99273087  1
  O  O7  1  0.02363538  0.26499438  0.08781115  1
  O  O8  1  0.12364666  0.07645640  0.29261828  1
  O  O9  1  0.06938219  0.91052260  0.11281859  1
  O  O10  1  0.13142977  0.52162828  0.22498422  1
  O  O11  1  0.18718530  0.29018106  0.41213413  1
  O  O12  1  0.17725855  0.82441304  0.31916179  1
  O  O13  1  0.20766589  0.05562924  0.52115589  1
  O  O14  1  0.29399446  0.55496012  0.47803428  1
  O  O15  1  0.32951285  0.32471457  0.69800026  1
  O  O16  1  0.31560074  0.79090725  0.58644100  1
  O  O17  1  0.36326845  0.02588480  0.77184820  1
  O  O18  1  0.37709248  0.57797574  0.70596674  1
  O  O19  1  0.44474410  0.43998308  0.89569743  1
  O  O20  1  0.48135240  0.77632584  0.91915698  1
  O  O21  1  0.29378191  0.13916737  0.00091019  1
  O  O22  1  0.31392668  0.32807011  0.16537661  1
  O  O23  1  0.40664854  0.09853043  0.22778839  1
  O  O24  1  0.41337702  0.58145055  0.26886856  1
  O  O25  1  0.39787154  0.85887606  0.14346040  1
  O  O26  1  0.47280682  0.34224361  0.42733866  1
  O  O27  1  0.51764396  0.08371701  0.61990645  1
  O  O28  1  0.48088173  0.91169434  0.37429145  1
  O  O29  1  0.53244807  0.65868301  0.56704359  1
  O  O30  1  0.59341563  0.14121107  0.85147665  1
  O  O31  1  0.58299988  0.41634401  0.72560356  1
  O  O32  1  0.59370385  0.90119399  0.76981244  1
  O  O33  1  0.67973410  0.67193778  0.83053715  1
  O  O34  1  0.72457149  0.86545759  0.99207423  1
  O  O35  1  0.52977228  0.23587917  0.09482342  1
  O  O36  1  0.57053034  0.58031498  0.11121001  1
  O  O37  1  0.62650796  0.42539178  0.29038964  1
  O  O38  1  0.63376300  0.96652693  0.22176140  1
  O  O39  1  0.69182959  0.20884205  0.40915613  1
  O  O40  1  0.66370841  0.67873120  0.31995845  1
  O  O41  1  0.71953244  0.43496336  0.51891698  1
  O  O42  1  0.78127104  0.93801226  0.47782652  1
  O  O43  1  0.82933947  0.18034884  0.67774531  1
  O  O44  1  0.80559740  0.71151911  0.58649178  1
  O  O45  1  0.86718010  0.46805919  0.77185580  1
  O  O46  1  0.91363934  0.08333696  0.88663948  1
  O  O47  1  0.86752907  0.92647803  0.70586298  1
  O  O48  1  0.97594245  0.74862401  0.90250910  1
  O  O49  1  0.76994440  0.33483896  0.00400166  1
  O  O50  1  0.81980339  0.16417836  0.17181078  1
  O  O51  1  0.90553075  0.65004430  0.16817962  1
  O  O52  1  0.89454355  0.40212884  0.22095675  1
  O  O53  1  0.92090481  0.91653211  0.27773601  1
  O  O54  1  0.96999213  0.16269263  0.43307568  1
  O  O55  1  0.98842719  0.55963846  0.38994580  1
loop_
_geom_bond_atom_site_label_1
_geom_bond_atom_site_label_2
_geom_bond_distance
_geom_bond_site_symmetry_2
Li0 O0 1.887043 1_555
Li0 O14 1.994048 1_555
Li0 O11 2.007727 1_555
Li0 O15 2.292825 1_555
Li0 O55 2.555984 1_455
Li1 O20 1.990294 1_555
Li1 O5 2.042591 1_555
Li1 O25 2.098769 1_556
Li1 O21 2.344851 1_566
Li1 O17 2.400893 1_565
Li2 O7 1.856968 1_555
Li2 O4 2.007225 1_554
Li2 O22 2.024752 1_555
Li2 O10 2.435432 1_555
Li3 O20 1.885131 1_555
Li3 O19 1.942059 1_555
Li3 O36 1.976279 1_556
Li3 O6 2.003228 1_555
Li4 O28 1.916123 1_555
Li4 O16 1.997078 1_555
Li4 O13 2.017429 1_565
Li4 O12 2.035206 1_555
Li5 O28 1.913639 1_555
Li5 O40 1.953369 1_555
Li5 O29 2.019614 1_555
Li5 O44 2.228470 1_555
Li5 O42 2.237973 1_555
Li6 O27 1.837478 1_555
Li6 O39 2.001920 1_555
Li6 O42 2.044424 1_545
Li6 O43 2.171901 1_555
Li7 O35 1.909158 1_555
Li7 O19 1.914718 1_554
Li7 O49 1.942413 1_555
Li7 O36 1.997349 1_555
Li8 O35 1.962869 1_555
Li8 O30 2.040335 1_554
Li8 O50 2.053333 1_555
Li8 O34 2.532658 1_544
Li8 O38 2.552646 1_545
Li8 O49 2.563487 1_555
Li9 O48 1.883619 1_555
Li9 O9 1.898738 1_656
Li9 O46 1.979131 1_565
Li9 O34 2.009853 1_555
Li10 O55 1.843896 1_555
Li10 O44 1.987326 1_555
Li10 O41 2.019767 1_555
Li10 O40 2.251271 1_555
Li11 O0 1.904558 1_655
Li11 O43 1.966853 1_555
Li11 O54 2.020055 1_555
Li11 O41 2.179348 1_555
Li11 O39 2.309569 1_555
Fe0 O1 1.975191 1_555
Fe0 O5 2.007060 1_555
Fe0 O17 2.056560 1_565
Fe0 O16 2.067475 1_555
Fe0 O13 2.120039 1_565
Fe0 O2 2.125185 1_565
Fe1 O21 2.062239 1_556
Fe1 O15 2.096114 1_555
Fe1 O4 2.137962 1_555
Fe1 O2 2.176024 1_555
Fe1 O17 2.260568 1_555
Fe2 O6 2.096041 1_554
Fe2 O12 2.106923 1_555
Fe2 O25 2.176885 1_555
Fe2 O24 2.270724 1_555
Fe2 O10 2.338537 1_555
Fe2 O9 2.483246 1_555
Fe3 O26 1.976664 1_555
Fe3 O10 2.049771 1_555
Fe3 O22 2.056433 1_555
Fe3 O11 2.073505 1_555
Fe3 O24 2.106204 1_555
Fe3 O14 2.129901 1_555
Fe4 O33 1.923229 1_555
Fe4 O45 2.015898 1_555
Fe4 O29 2.041804 1_555
Fe4 O31 2.059401 1_555
Fe4 O44 2.136263 1_555
Fe4 O41 2.341461 1_555
Fe5 O49 2.037788 1_556
Fe5 O30 2.158447 1_555
Fe5 O43 2.180904 1_555
Fe5 O31 2.217830 1_555
Fe5 O45 2.299453 1_555
Fe5 O46 2.504918 1_555
Fe6 O51 1.983271 1_555
Fe6 O34 2.132871 1_554
Fe6 O40 2.253128 1_555
Fe6 O38 2.290279 1_555
Fe6 O53 2.307211 1_555
Fe6 O36 2.606081 1_555
Fe7 O50 1.966557 1_555
Fe7 O53 2.010669 1_545
Fe7 O54 2.025337 1_555
Fe7 O38 2.092557 1_545
Fe7 O39 2.096532 1_555
Fe7 O42 2.214025 1_545
O0 P0 1.516191 1_555
O1 P12 1.517712 1_455
O2 P13 1.559383 1_455
O3 P0 1.606206 1_555
O3 P1 1.627766 1_555
O4 P0 1.527248 1_555
O5 P1 1.560409 1_555
O6 P1 1.565241 1_555
O7 P14 1.482256 1_455
O8 P3 1.601894 1_555
O8 P2 1.632927 1_545
O9 P2 1.499401 1_555
O10 P15 1.584187 1_455
O11 P3 1.534915 1_555
O12 P2 1.540397 1_555
O13 P3 1.532890 1_555
O14 P4 1.529970 1_555
O15 P5 1.528522 1_555
O16 P4 1.534917 1_555
O17 P6 1.582190 1_555
O18 P4 1.605175 1_555
O18 P5 1.630864 1_555
O19 P5 1.509287 1_555
O20 P8 1.506993 1_555
O21 P7 1.540267 1_555
O22 P7 1.552573 1_555
O23 P9 1.606468 1_545
O23 P7 1.623619 1_555
O24 P10 1.554146 1_555
O25 P9 1.526541 1_555
O26 P11 1.518228 1_555
O27 P6 1.494636 1_555
O28 P9 1.514831 1_555
O29 P4 1.549324 1_555
O30 P6 1.533929 1_555
O31 P5 1.568604 1_555
O32 P8 1.610491 1_555
O32 P6 1.621660 1_565
O33 P8 1.543304 1_555
O34 P8 1.552921 1_555
O35 P7 1.508796 1_555
O36 P10 1.513576 1_555
O37 P11 1.608856 1_555
O37 P10 1.620087 1_555
O38 P9 1.583527 1_555
O39 P11 1.548221 1_555
O40 P10 1.541541 1_555
O41 P11 1.542477 1_555
O42 P12 1.549310 1_555
O43 P13 1.555264 1_555
O44 P12 1.548407 1_555
O45 P0 1.568188 1_655
O46 P13 1.496811 1_555
O47 P12 1.598582 1_555
O47 P13 1.623581 1_565
O48 P1 1.482801 1_655
O49 P14 1.554549 1_555
O50 P14 1.567835 1_555
O51 P15 1.521189 1_555
O52 P14 1.611944 1_555
O52 P15 1.625361 1_555
O53 P2 1.568841 1_655
O54 P3 1.553410 1_655
O55 P15 1.503734 1_555
