# generated using pymatgen
data_Co(SiO3)2
_symmetry_space_group_name_H-M   'P 1'
_cell_length_a   6.39875919
_cell_length_b   6.39875919
_cell_length_c   5.33575106
_cell_angle_alpha   75.30329010
_cell_angle_beta   75.30329010
_cell_angle_gamma   84.25527186
_symmetry_Int_Tables_number   1
_chemical_formula_structural   Co(SiO3)2
_chemical_formula_sum   'Co2 Si4 O12'
_cell_volume   204.25686617
_cell_formula_units_Z   2
loop_
 _symmetry_equiv_pos_site_id
 _symmetry_equiv_pos_as_xyz
  1  'x, y, z'
loop_
 _atom_site_type_symbol
 _atom_site_label
 _atom_site_symmetry_multiplicity
 _atom_site_fract_x
 _atom_site_fract_y
 _atom_site_fract_z
 _atom_site_occupancy
  Co  Co0  1  0.89957200  0.10042800  0.50000000  1
  Co  Co1  1  0.09325600  0.90674400  0.00000000  1
  Si  Si0  1  0.79033900  0.61831100  0.48914000  1
  Si  Si1  1  0.21338600  0.38815600  0.00256700  1
  Si  Si2  1  0.38168900  0.20966100  0.51086000  1
  Si  Si3  1  0.61184400  0.78661400  0.99743300  1
  O  O0  1  0.36176700  0.35012700  0.21832600  1
  O  O1  1  0.90956500  0.37800900  0.52569400  1
  O  O2  1  0.18619200  0.03167100  0.62791200  1
  O  O3  1  0.63314600  0.64303600  0.28813100  1
  O  O4  1  0.09043500  0.62520300  0.96845900  1
  O  O5  1  0.81475400  0.95881200  0.89360800  1
  O  O6  1  0.62199100  0.09043500  0.47430600  1
  O  O7  1  0.96832900  0.81380800  0.37208800  1
  O  O8  1  0.35696400  0.36685400  0.71186900  1
  O  O9  1  0.64987300  0.63823300  0.78167400  1
  O  O10  1  0.04118800  0.18524600  0.10639200  1
  O  O11  1  0.37479700  0.90956500  0.03154100  1
loop_
_geom_bond_atom_site_label_1
_geom_bond_atom_site_label_2
_geom_bond_distance
_geom_bond_site_symmetry_2
Co0 O1 1.824396 1_555
Co0 O6 1.824396 1_555
Co0 O5 2.020136 1_545
Co0 O10 2.020136 1_655
Co0 O2 2.084279 1_655
Co0 O7 2.084279 1_545
Co1 O11 1.853642 1_555
Co1 O4 1.853642 1_554
Co1 O7 1.903983 1_455
Co1 O2 1.903983 1_564
Co1 O10 1.976743 1_565
Co1 O5 1.976743 1_454
O0 Si2 1.620693 1_555
O0 Si1 1.628571 1_555
O1 Si0 1.634890 1_555
O2 Si2 1.667307 1_555
O3 Si0 1.617561 1_555
O3 Si3 1.621006 1_554
O4 Si1 1.626795 1_556
O5 Si3 1.678827 1_555
O6 Si2 1.634890 1_555
O7 Si0 1.667307 1_555
O8 Si2 1.617561 1_555
O8 Si1 1.621006 1_556
O9 Si0 1.620693 1_555
O9 Si3 1.628571 1_555
O10 Si1 1.678827 1_555
O11 Si3 1.626795 1_554
