# generated using pymatgen
data_Li4Mn3SbO8
_symmetry_space_group_name_H-M   'P 1'
_cell_length_a   6.09914414
_cell_length_b   6.09721732
_cell_length_c   10.77720194
_cell_angle_alpha   90.38703345
_cell_angle_beta   72.85329280
_cell_angle_gamma   62.07008207
_symmetry_Int_Tables_number   1
_chemical_formula_structural   Li4Mn3SbO8
_chemical_formula_sum   'Li8 Mn6 Sb2 O16'
_cell_volume   333.34241949
_cell_formula_units_Z   2
loop_
 _symmetry_equiv_pos_site_id
 _symmetry_equiv_pos_as_xyz
  1  'x, y, z'
loop_
 _atom_site_type_symbol
 _atom_site_label
 _atom_site_symmetry_multiplicity
 _atom_site_fract_x
 _atom_site_fract_y
 _atom_site_fract_z
 _atom_site_occupancy
  Li  Li0  1  0.50027000  0.74974600  0.24997500  1
  Li  Li1  1  0.49998300  0.25013400  0.75002800  1
  Li  Li2  1  0.52734100  0.96911200  0.98481700  1
  Li  Li3  1  0.47255600  0.53107900  0.51520600  1
  Li  Li4  1  0.99997900  0.75008200  0.75004200  1
  Li  Li5  1  0.99967200  0.25006100  0.25004500  1
  Li  Li6  1  0.01634400  0.48721200  0.01499800  1
  Li  Li7  1  0.98348200  0.01298400  0.48496700  1
  Mn  Mn0  1  0.50156500  0.49844800  0.00111100  1
  Mn  Mn1  1  0.49858200  0.00148800  0.49883100  1
  Mn  Mn2  1  0.50007000  0.75001800  0.75005200  1
  Mn  Mn3  1  0.00041700  0.74989300  0.25001400  1
  Mn  Mn4  1  0.00022500  0.24982600  0.74989300  1
  Mn  Mn5  1  0.49938800  0.24977700  0.24992200  1
  Sb  Sb0  1  0.00119200  0.49930600  0.50014300  1
  Sb  Sb1  1  0.99867700  0.00085600  0.99994900  1
  O  O0  1  0.28048700  0.86659300  0.64204400  1
  O  O1  1  0.22480000  0.42080000  0.14213300  1
  O  O2  1  0.77530000  0.07893900  0.35770100  1
  O  O3  1  0.71970100  0.63336500  0.85793000  1
  O  O4  1  0.23472600  0.65652100  0.87984500  1
  O  O5  1  0.22544600  0.15104300  0.38678400  1
  O  O6  1  0.76437200  0.87505000  0.11377800  1
  O  O7  1  0.76139000  0.37890400  0.61356700  1
  O  O8  1  0.76550100  0.11158200  0.88639800  1
  O  O9  1  0.77920100  0.61303100  0.37907000  1
  O  O10  1  0.77429800  0.34898500  0.11339400  1
  O  O11  1  0.76528000  0.84365700  0.62017100  1
  O  O12  1  0.23849500  0.12130200  0.88650700  1
  O  O13  1  0.23571200  0.62482400  0.38618500  1
  O  O14  1  0.22095000  0.88687100  0.12091500  1
  O  O15  1  0.23458900  0.38850900  0.61358400  1
loop_
_geom_bond_atom_site_label_1
_geom_bond_atom_site_label_2
_geom_bond_distance
_geom_bond_site_symmetry_2
Li0 O6 2.259814 1_555
Li0 O13 2.260193 1_555
Li0 O10 2.367677 1_555
Li0 O9 2.368029 1_555
Li0 O14 2.369500 1_555
Li0 O5 2.371146 1_565
Li1 O7 2.264283 1_555
Li1 O12 2.264960 1_555
Li1 O4 2.361707 1_555
Li1 O11 2.362274 1_545
Li1 O8 2.373766 1_555
Li1 O15 2.373851 1_555
Li2 O3 2.050235 1_555
Li2 O8 2.067757 1_565
Li2 O12 2.160952 1_565
Li2 O6 2.183892 1_556
Li2 O14 2.272997 1_556
Li3 O0 2.049108 1_555
Li3 O15 2.067199 1_555
Li3 O7 2.161295 1_555
Li3 O13 2.183686 1_555
Li3 O9 2.273228 1_555
Li4 O4 2.181502 1_655
Li4 O3 2.181615 1_555
Li4 O11 2.181900 1_555
Li4 O0 2.182194 1_655
Li4 O8 2.197080 1_565
Li4 O15 2.197893 1_655
Li5 O9 2.169722 1_555
Li5 O14 2.170978 1_645
Li5 O2 2.173752 1_555
Li5 O1 2.176120 1_655
Li5 O10 2.202534 1_555
Li5 O5 2.205027 1_655
Li6 O1 2.051865 1_555
Li6 O10 2.066099 1_455
Li6 O6 2.164248 1_455
Li6 O12 2.179699 1_554
Li6 O4 2.264018 1_554
Li7 O2 2.052105 1_555
Li7 O5 2.064257 1_655
Li7 O13 2.165824 1_645
Li7 O7 2.180282 1_555
Li7 O11 2.263687 1_545
Mn0 O1 2.151534 1_555
Mn0 O3 2.158655 1_554
Mn0 O10 2.200810 1_555
Mn0 O8 2.216705 1_554
Mn0 O14 2.250278 1_555
Mn0 O4 2.255526 1_554
Mn1 O2 2.151184 1_555
Mn1 O0 2.158603 1_545
Mn1 O5 2.200654 1_555
Mn1 O15 2.217553 1_555
Mn1 O9 2.250266 1_545
Mn1 O11 2.255428 1_545
Mn2 O3 1.920661 1_555
Mn2 O0 1.921573 1_555
Mn2 O4 2.107364 1_555
Mn2 O11 2.107760 1_555
Mn2 O7 2.240140 1_555
Mn2 O12 2.240765 1_565
Mn3 O2 1.925009 1_465
Mn3 O1 1.925813 1_555
Mn3 O14 2.099312 1_555
Mn3 O9 2.101228 1_455
Mn3 O13 2.241977 1_555
Mn3 O6 2.245677 1_455
Mn4 O0 2.186998 1_545
Mn4 O3 2.189096 1_455
Mn4 O15 2.197088 1_555
Mn4 O8 2.197636 1_455
Mn4 O7 2.259097 1_455
Mn4 O12 2.259225 1_555
Mn5 O1 2.183838 1_555
Mn5 O2 2.189282 1_555
Mn5 O5 2.197893 1_555
Mn5 O10 2.202203 1_555
Mn5 O6 2.254422 1_545
Mn5 O13 2.255908 1_555
O4 Sb1 2.046690 1_465
O5 Sb0 2.032538 1_555
O6 Sb1 2.035052 1_564
O7 Sb0 2.033741 1_655
O8 Sb1 2.028273 1_555
O9 Sb0 2.047198 1_655
O10 Sb1 2.032317 1_554
O11 Sb0 2.046385 1_655
O12 Sb1 2.034074 1_455
O13 Sb0 2.035279 1_555
O14 Sb1 2.047477 1_464
O15 Sb0 2.028288 1_555
