# generated using pymatgen
data_Zn2Cu2O5
_symmetry_space_group_name_H-M   'P 1'
_cell_length_a   3.57647100
_cell_length_b   5.11671600
_cell_length_c   10.60491000
_cell_angle_alpha   90.00000000
_cell_angle_beta   90.00000000
_cell_angle_gamma   90.00000000
_symmetry_Int_Tables_number   1
_chemical_formula_structural   Zn2Cu2O5
_chemical_formula_sum   'Zn4 Cu4 O10'
_cell_volume   194.06758768
_cell_formula_units_Z   2
loop_
 _symmetry_equiv_pos_site_id
 _symmetry_equiv_pos_as_xyz
  1  'x, y, z'
loop_
 _atom_site_type_symbol
 _atom_site_label
 _atom_site_symmetry_multiplicity
 _atom_site_fract_x
 _atom_site_fract_y
 _atom_site_fract_z
 _atom_site_occupancy
  Zn  Zn0  1  0.50000000  0.74914200  0.40610700  1
  Zn  Zn1  1  0.50000000  0.25085800  0.59389300  1
  Zn  Zn2  1  0.50000000  0.24914200  0.09389300  1
  Zn  Zn3  1  0.50000000  0.75085800  0.90610700  1
  Cu  Cu0  1  0.00000000  0.72639000  0.13876100  1
  Cu  Cu1  1  0.00000000  0.27361000  0.86123900  1
  Cu  Cu2  1  0.00000000  0.77361000  0.63876100  1
  Cu  Cu3  1  0.00000000  0.22639000  0.36123900  1
  O  O0  1  0.00000000  0.00000000  0.00000000  1
  O  O1  1  0.00000000  0.65602900  0.81981900  1
  O  O2  1  0.00000000  0.15602900  0.68018100  1
  O  O3  1  0.00000000  0.84397100  0.31981900  1
  O  O4  1  0.50000000  0.81543300  0.59740200  1
  O  O5  1  0.50000000  0.18456700  0.40259800  1
  O  O6  1  0.00000000  0.34397100  0.18018100  1
  O  O7  1  0.50000000  0.68456700  0.09740200  1
  O  O8  1  0.00000000  0.50000000  0.50000000  1
  O  O9  1  0.50000000  0.31543300  0.90259800  1
loop_
_geom_bond_atom_site_label_1
_geom_bond_atom_site_label_2
_geom_bond_distance
_geom_bond_site_symmetry_2
Cu0 O7 1.853634 1_455
Cu0 O7 1.853634 1_555
Cu0 O6 2.005426 1_555
Cu0 O3 2.012152 1_555
Cu0 O0 2.031111 1_565
Cu1 O9 1.853634 1_455
Cu1 O9 1.853634 1_555
Cu1 O1 2.005426 1_555
Cu1 O2 2.012152 1_555
Cu1 O0 2.031111 1_556
Cu2 O4 1.853634 1_455
Cu2 O4 1.853634 1_555
Cu2 O2 2.005426 1_565
Cu2 O1 2.012152 1_555
Cu2 O8 2.031111 1_555
Cu3 O5 1.853634 1_555
Cu3 O5 1.853634 1_455
Cu3 O3 2.005426 1_545
Cu3 O6 2.012152 1_555
Cu3 O8 2.031111 1_555
O0 Zn2 2.411295 1_555
O0 Zn2 2.411295 1_455
O0 Zn3 2.411295 1_544
O0 Zn3 2.411295 1_444
O1 Zn3 2.066539 1_555
O1 Zn3 2.066539 1_455
O2 Zn1 2.066539 1_555
O2 Zn1 2.066539 1_455
O3 Zn0 2.066539 1_455
O3 Zn0 2.066539 1_555
O4 Zn0 2.056827 1_555
O4 Zn1 2.228257 1_565
O5 Zn1 2.056827 1_555
O5 Zn0 2.228257 1_545
O6 Zn2 2.066539 1_455
O6 Zn2 2.066539 1_555
O7 Zn3 2.056827 1_554
O7 Zn2 2.228257 1_555
O8 Zn0 2.411295 1_455
O8 Zn0 2.411295 1_555
O8 Zn1 2.411295 1_455
O8 Zn1 2.411295 1_555
O9 Zn2 2.056827 1_556
O9 Zn3 2.228257 1_555
