# generated using pymatgen
data_NaTi(SiO3)2
_symmetry_space_group_name_H-M   'P 1'
_cell_length_a   5.31463700
_cell_length_b   6.65079938
_cell_length_c   6.65439885
_cell_angle_alpha   83.54688597
_cell_angle_beta   77.89892149
_cell_angle_gamma   77.95935941
_symmetry_Int_Tables_number   1
_chemical_formula_structural   NaTi(SiO3)2
_chemical_formula_sum   'Na2 Ti2 Si4 O12'
_cell_volume   224.34356711
_cell_formula_units_Z   2
loop_
 _symmetry_equiv_pos_site_id
 _symmetry_equiv_pos_as_xyz
  1  'x, y, z'
loop_
 _atom_site_type_symbol
 _atom_site_label
 _atom_site_symmetry_multiplicity
 _atom_site_fract_x
 _atom_site_fract_y
 _atom_site_fract_z
 _atom_site_occupancy
  Na  Na0  1  0.24705700  0.19481600  0.29974900  1
  Na  Na1  1  0.75294300  0.80518400  0.70025100  1
  Ti  Ti0  1  0.74918200  0.41060700  0.08849500  1
  Ti  Ti1  1  0.25081800  0.58939300  0.91150500  1
  Si  Si0  1  0.25858200  0.69931300  0.38624000  1
  Si  Si1  1  0.74141800  0.30068700  0.61376000  1
  Si  Si2  1  0.75861900  0.88516600  0.20119100  1
  Si  Si3  1  0.24138100  0.11483400  0.79880900  1
  O  O0  1  0.19562500  0.60798500  0.62231600  1
  O  O1  1  0.80437500  0.39201500  0.37768400  1
  O  O2  1  0.34775400  0.53399500  0.20645800  1
  O  O3  1  0.65224600  0.46600500  0.79354200  1
  O  O4  1  0.48455000  0.84327300  0.35904500  1
  O  O5  1  0.51545000  0.15672700  0.64095500  1
  O  O6  1  0.98415900  0.85818200  0.34552900  1
  O  O7  1  0.01584100  0.14181800  0.65447100  1
  O  O8  1  0.84954600  0.70542800  0.03581200  1
  O  O9  1  0.15045400  0.29457200  0.96418800  1
  O  O10  1  0.69427600  0.12065600  0.10763300  1
  O  O11  1  0.30572400  0.87934400  0.89236700  1
loop_
_geom_bond_atom_site_label_1
_geom_bond_atom_site_label_2
_geom_bond_distance
_geom_bond_site_symmetry_2
Na0 O9 2.386505 1_554
Na0 O2 2.410409 1_555
Na0 O1 2.424500 1_455
Na0 O10 2.430120 1_555
Na0 O7 2.446136 1_555
Na0 O4 2.446525 1_545
Na0 O6 2.833892 1_445
Na0 O5 2.886511 1_555
Na1 O8 2.386505 1_556
Na1 O3 2.410409 1_555
Na1 O0 2.424500 1_655
Na1 O11 2.430120 1_555
Na1 O6 2.446136 1_555
Na1 O5 2.446525 1_565
Na1 O7 2.833892 1_665
Na1 O4 2.886511 1_555
O0 Si0 1.612043 1_555
O0 Ti1 1.993143 1_555
O1 Si1 1.612043 1_555
O1 Ti0 1.993143 1_555
O2 Si0 1.644774 1_555
O2 Ti1 2.106110 1_554
O2 Ti0 2.133870 1_555
O3 Si1 1.644774 1_555
O3 Ti0 2.106110 1_556
O3 Ti1 2.133870 1_555
O4 Si0 1.655707 1_555
O4 Si2 1.662730 1_555
O5 Si1 1.655707 1_555
O5 Si3 1.662730 1_555
O6 Si2 1.657028 1_555
O6 Si0 1.665922 1_655
O7 Si3 1.657028 1_555
O7 Si1 1.665922 1_455
O8 Si2 1.644788 1_555
O8 Ti0 2.110822 1_555
O8 Ti1 2.131916 1_654
O9 Si3 1.644788 1_555
O9 Ti1 2.110822 1_555
O9 Ti0 2.131916 1_456
O10 Si2 1.613735 1_545
O10 Ti0 1.996023 1_555
O11 Si3 1.613735 1_565
O11 Ti1 1.996023 1_555
