# generated using pymatgen
data_Pr2Fe17N3
_symmetry_space_group_name_H-M   'P 1'
_cell_length_a   6.57174594
_cell_length_b   6.57174594
_cell_length_c   6.57174546
_cell_angle_alpha   83.61570853
_cell_angle_beta   83.61570853
_cell_angle_gamma   83.61571808
_symmetry_Int_Tables_number   1
_chemical_formula_structural   Pr2Fe17N3
_chemical_formula_sum   'Pr2 Fe17 N3'
_cell_volume   278.90317558
_cell_formula_units_Z   1
loop_
 _symmetry_equiv_pos_site_id
 _symmetry_equiv_pos_as_xyz
  1  'x, y, z'
loop_
 _atom_site_type_symbol
 _atom_site_label
 _atom_site_symmetry_multiplicity
 _atom_site_fract_x
 _atom_site_fract_y
 _atom_site_fract_z
 _atom_site_occupancy
  Pr  Pr0  1  0.65625900  0.65625900  0.65625900  1
  Pr  Pr1  1  0.34374100  0.34374100  0.34374100  1
  Fe  Fe0  1  0.00000000  0.00000000  0.50000000  1
  Fe  Fe1  1  0.50000000  0.00000000  0.00000000  1
  Fe  Fe2  1  0.00000000  0.50000000  0.00000000  1
  Fe  Fe3  1  0.71777300  0.28222700  0.00000000  1
  Fe  Fe4  1  0.00000000  0.71777300  0.28222700  1
  Fe  Fe5  1  0.28222700  0.00000000  0.71777300  1
  Fe  Fe6  1  0.00000000  0.28222700  0.71777300  1
  Fe  Fe7  1  0.71777300  0.00000000  0.28222700  1
  Fe  Fe8  1  0.28222700  0.71777300  0.00000000  1
  Fe  Fe9  1  0.34103900  0.34103900  0.85921100  1
  Fe  Fe10  1  0.85921100  0.34103900  0.34103900  1
  Fe  Fe11  1  0.34103900  0.85921100  0.34103900  1
  Fe  Fe12  1  0.65896100  0.65896100  0.14078900  1
  Fe  Fe13  1  0.14078900  0.65896100  0.65896100  1
  Fe  Fe14  1  0.65896100  0.14078900  0.65896100  1
  Fe  Fe15  1  0.90670900  0.90670900  0.90670900  1
  Fe  Fe16  1  0.09329100  0.09329100  0.09329100  1
  N  N0  1  0.50000000  0.50000000  0.00000000  1
  N  N1  1  0.00000000  0.50000000  0.50000000  1
  N  N2  1  0.50000000  0.00000000  0.50000000  1
loop_
_geom_bond_atom_site_label_1
_geom_bond_atom_site_label_2
_geom_bond_distance
_geom_bond_site_symmetry_2
Fe0 Fe5 2.465462 1_555
Fe0 Fe6 2.465462 1_555
Fe0 Fe4 2.465462 1_545
Fe0 Fe7 2.465462 1_455
Fe0 Fe10 2.490687 1_455
Fe0 Fe14 2.490687 1_455
Fe0 Fe11 2.490687 1_545
Fe0 Fe13 2.490687 1_545
Fe0 Fe16 2.692636 1_555
Fe0 Fe15 2.692636 1_445
Fe0 Pr1 3.370988 1_555
Fe0 Pr0 3.370988 1_445
Fe1 Fe8 2.465462 1_545
Fe1 Fe3 2.465462 1_555
Fe1 Fe7 2.465462 1_555
Fe1 Fe5 2.465462 1_554
Fe1 Fe14 2.490687 1_554
Fe1 Fe11 2.490687 1_545
Fe1 Fe9 2.490687 1_554
Fe1 Fe12 2.490687 1_545
Fe1 Fe15 2.692636 1_544
Fe1 Fe16 2.692636 1_555
Fe1 Pr1 3.370988 1_555
Fe1 Pr0 3.370988 1_544
Fe2 Fe8 2.465462 1_555
Fe2 Fe3 2.465462 1_455
Fe2 Fe6 2.465462 1_554
Fe2 Fe4 2.465462 1_555
Fe2 Fe9 2.490687 1_554
Fe2 Pr1 3.370988 1_555
Fe2 Pr0 3.370988 1_454
Fe3 N0 1.908107 1_555
Fe4 N1 1.908107 1_555
Fe5 N2 1.908107 1_555
Fe6 N1 1.908107 1_555
Fe7 N2 1.908107 1_555
Fe8 N0 1.908107 1_555
Fe9 N0 1.926459 1_556
Fe10 N1 1.926459 1_655
Fe10 Fe2 2.490687 1_655
Fe10 Fe16 2.672750 1_655
Fe11 N2 1.926459 1_565
Fe11 Fe16 2.672750 1_565
Fe12 N0 1.926459 1_555
Fe12 Fe2 2.490687 1_655
Fe12 Fe15 2.672750 1_554
Fe13 N1 1.926459 1_555
Fe13 Fe2 2.490687 1_556
Fe13 Fe15 2.672750 1_455
Fe14 N2 1.926459 1_555
Fe14 Fe15 2.672750 1_545
Fe15 Fe16 2.348100 1_666
Fe15 Fe2 2.692636 1_656
Fe15 Fe5 2.737401 1_665
Fe15 Fe6 2.737401 1_665
Fe15 Fe4 2.737401 1_656
Fe15 Fe7 2.737401 1_566
Fe15 Fe3 2.737401 1_566
Fe15 Fe8 2.737401 1_656
Fe15 Pr0 3.151867 1_555
Fe16 Fe9 2.672750 1_554
Fe16 Fe2 2.692636 1_555
Fe16 Fe4 2.737401 1_545
Fe16 Fe7 2.737401 1_455
Fe16 Fe6 2.737401 1_554
Fe16 Fe5 2.737401 1_554
Fe16 Fe3 2.737401 1_455
Fe16 Fe8 2.737401 1_545
Fe16 Pr1 3.151867 1_555
N0 Pr1 2.532734 1_555
N0 Pr0 2.532734 1_554
N1 Pr1 2.532734 1_555
N1 Pr0 2.532734 1_455
N2 Pr1 2.532734 1_555
N2 Pr0 2.532734 1_545
