# generated using pymatgen
data_K15Os7N19
_symmetry_space_group_name_H-M   'P 1'
_cell_length_a   6.87868100
_cell_length_b   12.36684480
_cell_length_c   19.07914346
_cell_angle_alpha   89.31986370
_cell_angle_beta   94.63558830
_cell_angle_gamma   99.39355316
_symmetry_Int_Tables_number   1
_chemical_formula_structural   K15Os7N19
_chemical_formula_sum   'K30 Os14 N38'
_cell_volume   1596.01344063
_cell_formula_units_Z   2
loop_
 _symmetry_equiv_pos_site_id
 _symmetry_equiv_pos_as_xyz
  1  'x, y, z'
loop_
 _atom_site_type_symbol
 _atom_site_label
 _atom_site_symmetry_multiplicity
 _atom_site_fract_x
 _atom_site_fract_y
 _atom_site_fract_z
 _atom_site_occupancy
  K  K0  1  0.50773300  0.62466500  0.43649400  1
  K  K1  1  0.49226700  0.37533500  0.56350600  1
  K  K2  1  0.63449400  0.12721300  0.65285500  1
  K  K3  1  0.36550600  0.87278700  0.34714500  1
  K  K4  1  0.71567000  0.02737300  0.20187600  1
  K  K5  1  0.28433000  0.97262700  0.79812400  1
  K  K6  1  0.93076100  0.03977000  0.39283700  1
  K  K7  1  0.06923900  0.96023000  0.60716300  1
  K  K8  1  0.76647300  0.76126600  0.28341100  1
  K  K9  1  0.23352700  0.23873400  0.71658900  1
  K  K10  1  0.86210700  0.17502000  0.83387100  1
  K  K11  1  0.13789300  0.82498000  0.16612900  1
  K  K12  1  0.86154400  0.90302600  0.89481300  1
  K  K13  1  0.13845600  0.09697400  0.10518700  1
  K  K14  1  0.71394000  0.07882400  0.01097600  1
  K  K15  1  0.28606000  0.92117600  0.98902400  1
  K  K16  1  0.59041900  0.88766400  0.53812800  1
  K  K17  1  0.40958100  0.11233600  0.46187200  1
  K  K18  1  0.59698300  0.46571300  0.27791600  1
  K  K19  1  0.40301700  0.53428700  0.72208400  1
  K  K20  1  0.98485400  0.33948700  0.01999800  1
  K  K21  1  0.01514600  0.66051300  0.98000200  1
  K  K22  1  0.91878200  0.65749300  0.78214900  1
  K  K23  1  0.08121800  0.34250700  0.21785100  1
  K  K24  1  0.78480600  0.27438000  0.37247100  1
  K  K25  1  0.21519400  0.72562000  0.62752900  1
  K  K26  1  0.59643400  0.37243000  0.84318700  1
  K  K27  1  0.40356600  0.62757000  0.15681300  1
  K  K28  1  0.00000000  0.50000000  0.50000000  1
  K  K29  1  0.50000000  0.50000000  0.00000000  1
  Os  Os0  1  0.58619500  0.27667600  0.12736700  1
  Os  Os1  1  0.41380500  0.72332400  0.87263300  1
  Os  Os2  1  0.87390800  0.40291800  0.68749000  1
  Os  Os3  1  0.12609200  0.59708200  0.31251000  1
  Os  Os4  1  0.72191800  0.64631100  0.60310500  1
  Os  Os5  1  0.27808200  0.35368900  0.39689500  1
  Os  Os6  1  0.97473000  0.77869700  0.45096100  1
  Os  Os7  1  0.02527000  0.22130300  0.54903900  1
  Os  Os8  1  0.87775700  0.55093600  0.13547100  1
  Os  Os9  1  0.12224300  0.44906400  0.86452900  1
  Os  Os10  1  0.67467100  0.86438700  0.72440100  1
  Os  Os11  1  0.32532900  0.13561300  0.27559900  1
  Os  Os12  1  0.68438800  0.79252800  0.05211000  1
  Os  Os13  1  0.31561200  0.20747200  0.94789000  1
  N  N0  1  0.80013100  0.21228000  0.12543700  1
  N  N1  1  0.19986900  0.78772000  0.87456300  1
  N  N2  1  0.96421300  0.31258500  0.61996500  1
  N  N3  1  0.03578700  0.68741500  0.38003500  1
  N  N4  1  0.54290500  0.09145700  0.32064100  1
  N  N5  1  0.45709500  0.90854300  0.67935900  1
  N  N6  1  0.59990800  0.77261400  0.79935500  1
  N  N7  1  0.40009200  0.22738600  0.20064500  1
  N  N8  1  0.67833100  0.42552400  0.14743100  1
  N  N9  1  0.32166900  0.57447600  0.85256900  1
  N  N10  1  0.53194900  0.39859100  0.42033000  1
  N  N11  1  0.46805100  0.60140900  0.57967000  1
  N  N12  1  0.81975800  0.11175100  0.52961300  1
  N  N13  1  0.18024200  0.88824900  0.47038700  1
  N  N14  1  0.89458500  0.70547400  0.53069500  1
  N  N15  1  0.10541500  0.29452600  0.46930500  1
  N  N16  1  0.92107000  0.88432500  0.04912900  1
  N  N17  1  0.07893000  0.11567500  0.95087100  1
  N  N18  1  0.75700400  0.83409700  0.41540000  1
  N  N19  1  0.24299600  0.16590300  0.58460000  1
  N  N20  1  0.78884600  0.78486300  0.66057200  1
  N  N21  1  0.21115400  0.21513700  0.33942800  1
  N  N22  1  0.91736600  0.47442700  0.90832900  1
  N  N23  1  0.08263400  0.52557300  0.09167100  1
  N  N24  1  0.57896400  0.76491200  0.95875200  1
  N  N25  1  0.42103600  0.23508800  0.04124800  1
  N  N26  1  0.73942100  0.66263700  0.09284200  1
  N  N27  1  0.26057900  0.33736300  0.90715800  1
  N  N28  1  0.85143300  0.98360300  0.75507400  1
  N  N29  1  0.14856700  0.01639700  0.24492600  1
  N  N30  1  0.95389500  0.61078500  0.23001900  1
  N  N31  1  0.04610500  0.38921500  0.76998100  1
  N  N32  1  0.86347600  0.54139900  0.64929200  1
  N  N33  1  0.13652400  0.45860100  0.35070800  1
  N  N34  1  0.62321000  0.35199400  0.70803500  1
  N  N35  1  0.37679000  0.64800600  0.29196500  1
  N  N36  1  0.51641100  0.85282200  0.10243300  1
  N  N37  1  0.48358900  0.14717800  0.89756700  1
loop_
_geom_bond_atom_site_label_1
_geom_bond_atom_site_label_2
_geom_bond_distance
_geom_bond_site_symmetry_2
K0 N11 2.774080 1_555
K0 N10 2.849609 1_555
K0 N35 2.857074 1_555
K0 N18 2.906425 1_555
K0 N14 3.116330 1_555
K1 N10 2.774080 1_555
K1 N11 2.849609 1_555
K1 N34 2.857074 1_555
K1 N19 2.906425 1_555
K1 N15 3.116330 1_555
K2 N12 2.786396 1_555
K2 N5 2.836875 1_545
K2 N34 2.999162 1_555
K2 N19 3.002657 1_555
K2 N2 3.048245 1_555
K2 N28 3.081716 1_545
K3 N13 2.786396 1_555
K3 N4 2.836875 1_565
K3 N35 2.999162 1_555
K3 N18 3.002657 1_555
K3 N3 3.048245 1_555
K3 N29 3.081716 1_565
K4 N0 2.705110 1_555
K4 N4 2.821375 1_555
K4 N36 2.974757 1_545
K4 N29 3.048618 1_655
K5 N1 2.705110 1_555
K5 N5 2.821375 1_555
K5 N37 2.974757 1_565
K5 N28 3.048618 1_455
K6 N18 2.673610 1_545
K6 N21 2.891638 1_655
K6 N12 2.963844 1_555
K6 N13 3.036265 1_645
K6 N4 3.060325 1_555
K6 N29 3.337080 1_655
K7 N19 2.673610 1_565
K7 N20 2.891638 1_455
K7 N13 2.963844 1_555
K7 N12 3.036265 1_465
K7 N5 3.060325 1_555
K7 N28 3.337080 1_455
K8 N30 2.683925 1_555
K8 N18 2.693791 1_555
K8 N3 2.761302 1_655
K8 N35 2.830780 1_555
K9 N31 2.683925 1_555
K9 N19 2.693791 1_555
K9 N2 2.761302 1_455
K9 N34 2.830780 1_555
K10 N17 2.743415 1_655
K10 N28 2.806992 1_545
K10 N37 2.929773 1_555
K10 N31 3.030323 1_655
K10 N27 3.339096 1_655
K11 N16 2.743415 1_455
K11 N29 2.806992 1_565
K11 N36 2.929773 1_555
K11 N30 3.030323 1_455
K11 N26 3.339096 1_455
K12 N24 2.726511 1_555
K12 N6 2.783786 1_555
K12 N28 2.834693 1_555
K12 N16 2.951177 1_556
K12 N17 2.969910 1_665
K12 N1 2.973273 1_655
K13 N25 2.726511 1_555
K13 N7 2.783786 1_555
K13 N29 2.834693 1_555
K13 N17 2.951177 1_554
K13 N16 2.969910 1_445
K13 N0 2.973273 1_455
K14 N0 2.720544 1_555
K14 N37 2.783287 1_554
K14 N17 2.811682 1_654
K14 N16 3.042208 1_545
K14 N25 3.100495 1_555
K15 N1 2.720544 1_555
K15 N36 2.783287 1_556
K15 N16 2.811682 1_456
K15 N17 3.042208 1_565
K15 N24 3.100495 1_555
K16 N18 2.820114 1_555
K16 N5 2.943071 1_555
K16 N12 2.966232 1_565
K16 N20 2.986182 1_555
K16 N13 3.008024 1_555
K17 N19 2.820114 1_555
K17 N4 2.943071 1_555
K17 N13 2.966232 1_545
K17 N21 2.986182 1_555
K17 N12 3.008024 1_555
K18 N8 2.665199 1_555
K18 N10 2.879880 1_555
K18 N35 2.939870 1_555
K18 N30 2.994524 1_555
K18 N7 3.342455 1_555
K19 N9 2.665199 1_555
K19 N11 2.879880 1_555
K19 N34 2.939870 1_555
K19 N31 2.994524 1_555
K19 N6 3.342455 1_555
K20 N23 2.653127 1_655
K20 N22 2.747397 1_554
K20 N0 2.796740 1_555
K20 N27 2.985031 1_654
K20 N17 3.260137 1_654
K21 N22 2.653127 1_455
K21 N23 2.747397 1_556
K21 N1 2.796740 1_555
K21 N26 2.985031 1_456
K21 N16 3.260137 1_456
K22 N1 2.817953 1_655
K22 N6 2.844754 1_555
K22 N32 2.895418 1_555
K22 N20 2.949271 1_555
K22 N22 3.284564 1_555
K22 N9 3.291445 1_655
K23 N0 2.817953 1_455
K23 N7 2.844754 1_555
K23 N33 2.895418 1_555
K23 N21 2.949271 1_555
K23 N23 3.284564 1_555
K23 N8 3.291445 1_455
K24 N10 2.716756 1_555
K24 N4 2.724426 1_555
K24 N15 2.740803 1_655
K24 N33 3.091394 1_655
K24 N21 3.247493 1_655
K25 N11 2.716756 1_555
K25 N5 2.724426 1_555
K25 N14 2.740803 1_455
K25 N32 3.091394 1_455
K25 N20 3.247493 1_455
K26 N22 2.587271 1_555
K26 N34 2.618077 1_555
K26 N27 2.670407 1_555
K26 N37 2.965566 1_555
K27 N23 2.587271 1_555
K27 N35 2.618077 1_555
K27 N26 2.670407 1_555
K27 N36 2.965566 1_555
K28 N14 2.833939 1_455
K28 N15 2.833939 1_555
K28 N32 3.143428 1_455
K28 N33 3.143428 1_555
K28 N2 3.232662 1_455
K28 N3 3.232662 1_555
K29 N26 2.902943 1_555
K29 N27 2.902943 1_554
K29 N8 3.164616 1_555
K29 N9 3.164616 1_554
K29 N24 3.327817 1_554
K29 N25 3.327817 1_555
N0 Os0 1.786947 1_555
N1 Os1 1.786947 1_555
N2 Os7 1.888070 1_655
N2 Os2 1.919287 1_555
N3 Os6 1.888070 1_455
N3 Os3 1.919287 1_555
N4 Os11 1.823285 1_555
N5 Os10 1.823285 1_555
N6 Os10 1.867471 1_555
N6 Os1 1.994818 1_555
N7 Os11 1.867471 1_555
N7 Os0 1.994818 1_555
N8 Os0 1.879726 1_555
N8 Os8 1.920159 1_555
N9 Os1 1.879726 1_555
N9 Os9 1.920159 1_555
N10 Os5 1.766602 1_555
N11 Os4 1.766602 1_555
N12 Os7 1.809237 1_655
N13 Os6 1.809237 1_455
N14 Os6 1.837943 1_555
N14 Os4 1.952476 1_555
N15 Os7 1.837943 1_555
N15 Os5 1.952476 1_555
N16 Os12 1.831037 1_555
N17 Os13 1.831037 1_555
N18 Os6 1.825485 1_555
N19 Os7 1.825485 1_555
N20 Os10 1.871418 1_555
N20 Os4 2.013831 1_555
N21 Os11 1.871418 1_555
N21 Os5 2.013831 1_555
N22 Os9 1.767392 1_655
N23 Os8 1.767392 1_455
N24 Os12 1.881482 1_556
N24 Os1 1.944864 1_555
N25 Os13 1.881482 1_554
N25 Os0 1.944864 1_555
N26 Os12 1.857116 1_555
N26 Os8 1.937146 1_555
N27 Os13 1.857116 1_555
N27 Os9 1.937146 1_555
N28 Os10 1.820661 1_555
N29 Os11 1.820661 1_555
N30 Os3 1.914843 1_655
N30 Os8 1.956680 1_555
N31 Os2 1.914843 1_455
N31 Os9 1.956680 1_555
N32 Os2 1.863120 1_555
N32 Os4 1.911692 1_555
N33 Os3 1.863120 1_555
N33 Os5 1.911692 1_555
N34 Os2 1.809130 1_555
N35 Os3 1.809130 1_555
N36 Os12 1.813962 1_555
N37 Os13 1.813962 1_555
