# generated using pymatgen
data_Zn3(GaTe3)2
_symmetry_space_group_name_H-M   'P 1'
_cell_length_a   6.06379600
_cell_length_b   8.66452512
_cell_length_c   7.52308898
_cell_angle_alpha   72.35458829
_cell_angle_beta   113.76664084
_cell_angle_gamma   90.00000000
_symmetry_Int_Tables_number   1
_chemical_formula_structural   Zn3(GaTe3)2
_chemical_formula_sum   'Zn3 Ga2 Te6'
_cell_volume   341.32370129
_cell_formula_units_Z   1
loop_
 _symmetry_equiv_pos_site_id
 _symmetry_equiv_pos_as_xyz
  1  'x, y, z'
loop_
 _atom_site_type_symbol
 _atom_site_label
 _atom_site_symmetry_multiplicity
 _atom_site_fract_x
 _atom_site_fract_y
 _atom_site_fract_z
 _atom_site_occupancy
  Zn  Zn0  1  0.00297100  0.99214200  0.01066800  1
  Zn  Zn1  1  0.69698700  0.16666700  0.33333300  1
  Zn  Zn2  1  0.32563600  0.34119100  0.65599900  1
  Ga  Ga0  1  0.98840800  0.50383000  0.00132300  1
  Ga  Ga1  1  0.32041700  0.82950300  0.66534400  1
  Te  Te0  1  0.27493800  0.74148100  0.02022700  1
  Te  Te1  1  0.90142300  0.89680600  0.33563200  1
  Te  Te2  1  0.58435500  0.08299500  0.66665800  1
  Te  Te3  1  0.25103200  0.25033800  0.00000900  1
  Te  Te4  1  0.89912400  0.43652800  0.33103400  1
  Te  Te5  1  0.58804400  0.59185200  0.64644000  1
loop_
_geom_bond_atom_site_label_1
_geom_bond_atom_site_label_2
_geom_bond_distance
_geom_bond_site_symmetry_2
Ga0 Te4 2.644104 1_555
Ga0 Te5 2.672953 1_554
Ga0 Te0 2.693955 1_655
Ga0 Te3 2.717742 1_655
Ga1 Te1 2.644103 1_455
Ga1 Te0 2.672948 1_556
Ga1 Te5 2.693958 1_555
Ga1 Te2 2.717742 1_565
Te0 Zn0 2.692873 1_555
Te1 Zn1 2.638657 1_565
Te1 Zn0 2.650909 1_655
Te2 Zn0 2.689010 1_646
Te2 Zn2 2.694863 1_555
Te2 Zn1 2.749286 1_555
Te3 Zn2 2.689003 1_554
Te3 Zn0 2.694867 1_545
Te3 Zn1 2.749275 1_555
Te4 Zn1 2.638657 1_555
Te4 Zn2 2.650912 1_655
Te5 Zn2 2.692873 1_555
