# generated using pymatgen
data_Li3MnV(PO4)3
_symmetry_space_group_name_H-M   'P 1'
_cell_length_a   8.84991700
_cell_length_b   8.61769000
_cell_length_c   12.28656009
_cell_angle_alpha   86.89441725
_cell_angle_beta   90.00000000
_cell_angle_gamma   90.00000000
_symmetry_Int_Tables_number   1
_chemical_formula_structural   Li3MnV(PO4)3
_chemical_formula_sum   'Li12 Mn4 V4 P12 O48'
_cell_volume   935.66869340
_cell_formula_units_Z   4
loop_
 _symmetry_equiv_pos_site_id
 _symmetry_equiv_pos_as_xyz
  1  'x, y, z'
loop_
 _atom_site_type_symbol
 _atom_site_label
 _atom_site_symmetry_multiplicity
 _atom_site_fract_x
 _atom_site_fract_y
 _atom_site_fract_z
 _atom_site_occupancy
  Li  Li0  1  0.00818500  0.00305200  0.00652000  1
  Li  Li1  1  0.10770800  0.97993900  0.24383900  1
  Li  Li2  1  0.99181500  0.00305200  0.50652000  1
  Li  Li3  1  0.89229200  0.97993900  0.74383900  1
  Li  Li4  1  0.80460200  0.27558700  0.06134700  1
  Li  Li5  1  0.19539800  0.27558700  0.56134700  1
  Li  Li6  1  0.50606100  0.50932900  0.99884800  1
  Li  Li7  1  0.40659700  0.50752500  0.26279500  1
  Li  Li8  1  0.49393900  0.50932900  0.49884800  1
  Li  Li9  1  0.59340300  0.50752500  0.76279500  1
  Li  Li10  1  0.80046700  0.71801800  0.44258700  1
  Li  Li11  1  0.19953300  0.71801800  0.94258700  1
  Mn  Mn0  1  0.00234600  0.71218000  0.14234900  1
  Mn  Mn1  1  0.99765400  0.71218000  0.64234900  1
  Mn  Mn2  1  0.49893000  0.79506200  0.35449800  1
  Mn  Mn3  1  0.50107000  0.79506200  0.85449800  1
  V  V0  1  0.50034600  0.21146600  0.14486800  1
  V  V1  1  0.49965400  0.21146600  0.64486800  1
  V  V2  1  0.99706200  0.28640100  0.35433800  1
  V  V3  1  0.00293800  0.28640100  0.85433800  1
  P  P0  1  0.80511600  0.00415500  0.24907900  1
  P  P1  1  0.19488400  0.00415500  0.74907900  1
  P  P2  1  0.35247900  0.16332700  0.39471200  1
  P  P3  1  0.64752100  0.16332700  0.89471200  1
  P  P4  1  0.15131500  0.35080200  0.09831700  1
  P  P5  1  0.84868500  0.35080200  0.59831700  1
  P  P6  1  0.70962100  0.49688000  0.25012900  1
  P  P7  1  0.29037900  0.49688000  0.75012900  1
  P  P8  1  0.14248700  0.64788400  0.39674700  1
  P  P9  1  0.85751300  0.64788400  0.89674700  1
  P  P10  1  0.35913100  0.83941900  0.10673500  1
  P  P11  1  0.64086900  0.83941900  0.60673500  1
  O  O0  1  0.42421300  0.00288000  0.11194700  1
  O  O1  1  0.57578700  0.00288000  0.61194700  1
  O  O2  1  0.91504500  0.07672000  0.33557600  1
  O  O3  1  0.08495500  0.07672000  0.83557600  1
  O  O4  1  0.70385600  0.13057200  0.19283800  1
  O  O5  1  0.29614400  0.13057200  0.69283800  1
  O  O6  1  0.17376600  0.16635900  0.41015500  1
  O  O7  1  0.82623400  0.16635900  0.91015500  1
  O  O8  1  0.40165500  0.25825800  0.29093700  1
  O  O9  1  0.06081700  0.25319000  0.01534700  1
  O  O10  1  0.40704500  0.25400000  0.49323500  1
  O  O11  1  0.59834500  0.25825800  0.79093700  1
  O  O12  1  0.93918300  0.25319000  0.51534700  1
  O  O13  1  0.09500800  0.27924500  0.21109700  1
  O  O14  1  0.59295500  0.25400000  0.99323500  1
  O  O15  1  0.90499200  0.27924500  0.71109700  1
  O  O16  1  0.32316700  0.32934100  0.08318200  1
  O  O17  1  0.67683300  0.32934100  0.58318200  1
  O  O18  1  0.81270900  0.36753000  0.30714600  1
  O  O19  1  0.18729100  0.36753000  0.80714600  1
  O  O20  1  0.60388800  0.42721600  0.16379800  1
  O  O21  1  0.39611200  0.42721600  0.66379800  1
  O  O22  1  0.08232700  0.47759200  0.39831600  1
  O  O23  1  0.91767300  0.47759200  0.89831600  1
  O  O24  1  0.12054300  0.52429400  0.08403400  1
  O  O25  1  0.87945700  0.52429400  0.58403400  1
  O  O26  1  0.61173000  0.55944700  0.34175300  1
  O  O27  1  0.38827000  0.55944700  0.84175300  1
  O  O28  1  0.81075100  0.61526800  0.19038400  1
  O  O29  1  0.18924900  0.61526800  0.69038400  1
  O  O30  1  0.31398100  0.63157600  0.41173400  1
  O  O31  1  0.68601900  0.63157600  0.91173400  1
  O  O32  1  0.09377900  0.73786900  0.28944300  1
  O  O33  1  0.41039500  0.74568600  0.00911700  1
  O  O34  1  0.90622100  0.73786900  0.78944300  1
  O  O35  1  0.05969000  0.74267000  0.48359700  1
  O  O36  1  0.40053400  0.73835800  0.20942100  1
  O  O37  1  0.58960500  0.74568600  0.50911700  1
  O  O38  1  0.94031000  0.74267000  0.98359700  1
  O  O39  1  0.59946600  0.73835800  0.70942100  1
  O  O40  1  0.18241300  0.86190000  0.09266400  1
  O  O41  1  0.81758700  0.86190000  0.59266400  1
  O  O42  1  0.72086700  0.87550300  0.31349300  1
  O  O43  1  0.27913300  0.87550300  0.81349300  1
  O  O44  1  0.91346300  0.94931300  0.15975400  1
  O  O45  1  0.08653700  0.94931300  0.65975400  1
  O  O46  1  0.39486300  0.99418700  0.39332900  1
  O  O47  1  0.60513700  0.99418700  0.89332900  1
loop_
_geom_bond_atom_site_label_1
_geom_bond_atom_site_label_2
_geom_bond_distance
_geom_bond_site_symmetry_2
Li0 O44 2.089819 1_445
Li0 O40 2.199510 1_545
Li0 O9 2.213756 1_555
Li0 O3 2.265275 1_554
Li0 O38 2.354501 1_444
Li0 O7 2.407236 1_454
Li1 O44 2.030189 1_455
Li1 O32 2.134068 1_555
Li1 O2 2.230491 1_465
Li1 O40 2.264194 1_555
Li1 O13 2.591324 1_565
Li2 O45 2.089819 1_645
Li2 O41 2.199510 1_545
Li2 O12 2.213756 1_555
Li2 O2 2.265275 1_555
Li2 O35 2.354501 1_645
Li2 O6 2.407236 1_655
Li3 O45 2.030189 1_655
Li3 O34 2.134068 1_555
Li3 O3 2.230491 1_665
Li3 O41 2.264194 1_555
Li3 O15 2.591324 1_565
Li4 O14 2.064016 1_554
Li4 O7 2.136102 1_554
Li4 O4 2.178988 1_555
Li4 O9 2.347334 1_655
Li4 O20 2.573988 1_555
Li5 O10 2.064016 1_555
Li5 O6 2.136102 1_555
Li5 O5 2.178988 1_555
Li5 O12 2.347334 1_455
Li5 O21 2.573988 1_555
Li6 O31 2.160945 1_555
Li6 O27 2.215491 1_555
Li6 O33 2.215699 1_556
Li6 O20 2.280848 1_556
Li6 O14 2.335399 1_555
Li6 O16 2.434178 1_556
Li7 O36 2.061235 1_555
Li7 O26 2.117568 1_555
Li7 O8 2.157626 1_555
Li7 O20 2.257918 1_555
Li7 O30 2.318475 1_555
Li8 O30 2.160945 1_555
Li8 O26 2.215491 1_555
Li8 O37 2.215699 1_555
Li8 O21 2.280848 1_555
Li8 O10 2.335399 1_555
Li8 O17 2.434178 1_555
Li9 O39 2.061235 1_555
Li9 O27 2.117568 1_555
Li9 O11 2.157626 1_555
Li9 O21 2.257918 1_555
Li9 O31 2.318475 1_555
Li10 O37 2.056337 1_555
Li10 O42 2.149574 1_555
Li10 O41 2.282146 1_555
Li10 O35 2.360831 1_655
Li10 O25 2.445746 1_555
Li10 O26 2.524997 1_555
Li11 O33 2.056337 1_556
Li11 O43 2.149574 1_555
Li11 O40 2.282146 1_556
Li11 O38 2.360831 1_455
Li11 O24 2.445746 1_556
Li11 O27 2.524997 1_555
Mn0 O28 1.966586 1_455
Mn0 O32 2.003343 1_555
Mn0 O38 2.029640 1_454
Mn0 O24 2.086833 1_555
Mn0 O40 2.119323 1_555
Mn0 O44 2.210856 1_455
Mn1 O29 1.966586 1_655
Mn1 O34 2.003343 1_555
Mn1 O35 2.029640 1_655
Mn1 O25 2.086833 1_555
Mn1 O41 2.119323 1_555
Mn1 O45 2.210856 1_655
Mn2 O46 2.027114 1_555
Mn2 O36 2.066095 1_555
Mn2 O37 2.084806 1_555
Mn2 O42 2.134084 1_555
Mn2 O30 2.247480 1_555
Mn2 O26 2.275582 1_555
Mn3 O47 2.027114 1_555
Mn3 O39 2.066095 1_555
Mn3 O33 2.084806 1_556
Mn3 O43 2.134084 1_555
Mn3 O31 2.247480 1_555
Mn3 O27 2.275582 1_555
O0 P10 1.526411 1_545
O0 V0 1.981784 1_555
O1 P11 1.526411 1_545
O1 V1 1.981784 1_555
O2 P0 1.593412 1_555
O2 V2 1.972371 1_555
O3 P1 1.593412 1_555
O3 V3 1.972371 1_555
O4 P0 1.544616 1_555
O4 V0 2.008134 1_555
O5 P1 1.544616 1_555
O5 V1 2.008134 1_555
O6 P2 1.593319 1_555
O6 V2 1.977152 1_455
O7 P3 1.593319 1_555
O7 V3 1.977152 1_655
O8 P2 1.539924 1_555
O8 V0 2.055420 1_555
O9 P4 1.575171 1_555
O9 V3 2.048511 1_554
O10 P2 1.552929 1_555
O10 V1 2.050128 1_555
O11 P3 1.539924 1_555
O11 V1 2.055420 1_555
O12 P5 1.575171 1_555
O12 V2 2.048511 1_555
O13 P4 1.567194 1_555
O13 V2 1.965786 1_455
O14 P3 1.552929 1_555
O14 V0 2.050128 1_556
O15 P5 1.567194 1_555
O15 V3 1.965786 1_655
O16 P4 1.544530 1_555
O16 V0 1.995385 1_555
O17 P5 1.544530 1_555
O17 V1 1.995385 1_555
O18 P6 1.575128 1_555
O18 V2 1.855505 1_555
O19 P7 1.575128 1_555
O19 V3 1.855505 1_555
O20 P6 1.558879 1_555
O20 V0 2.097021 1_555
O21 P7 1.558879 1_555
O21 V1 2.097021 1_555
O22 P8 1.560254 1_555
O22 V2 1.916377 1_455
O23 P9 1.560254 1_555
O23 V3 1.916377 1_655
O24 P4 1.520479 1_555
O25 P5 1.520479 1_555
O26 P6 1.540879 1_555
O27 P7 1.540879 1_555
O28 P6 1.516437 1_555
O29 P7 1.516437 1_555
O30 P8 1.534370 1_555
O31 P9 1.534370 1_555
O32 P8 1.553883 1_555
O33 P10 1.549779 1_555
O34 P9 1.553883 1_555
O35 P8 1.561172 1_555
O36 P10 1.538009 1_555
O37 P11 1.549779 1_555
O38 P9 1.561172 1_555
O39 P11 1.538009 1_555
O40 P10 1.584203 1_555
O41 P11 1.584203 1_555
O42 P0 1.521964 1_565
O43 P1 1.521964 1_565
O44 P0 1.550316 1_565
O45 P1 1.550316 1_565
O46 P2 1.506073 1_565
O47 P3 1.506073 1_565
