# generated using pymatgen
data_Sm5B4Rh15
_symmetry_space_group_name_H-M   'P 1'
_cell_length_a   4.24968300
_cell_length_b   4.24968300
_cell_length_c   20.70316700
_cell_angle_alpha   90.00000000
_cell_angle_beta   90.00000000
_cell_angle_gamma   90.00000000
_symmetry_Int_Tables_number   1
_chemical_formula_structural   Sm5B4Rh15
_chemical_formula_sum   'Sm5 B4 Rh15'
_cell_volume   373.89517133
_cell_formula_units_Z   1
loop_
 _symmetry_equiv_pos_site_id
 _symmetry_equiv_pos_as_xyz
  1  'x, y, z'
loop_
 _atom_site_type_symbol
 _atom_site_label
 _atom_site_symmetry_multiplicity
 _atom_site_fract_x
 _atom_site_fract_y
 _atom_site_fract_z
 _atom_site_occupancy
  Sm  Sm0  1  0.00000000  0.00000000  0.90365700  1
  Sm  Sm1  1  0.00000000  0.00000000  0.09634300  1
  Sm  Sm2  1  0.00000000  0.00000000  0.29868900  1
  Sm  Sm3  1  0.00000000  0.00000000  0.50000000  1
  Sm  Sm4  1  0.00000000  0.00000000  0.70131100  1
  B  B0  1  0.50000000  0.50000000  0.18962100  1
  B  B1  1  0.50000000  0.50000000  0.39759600  1
  B  B2  1  0.50000000  0.50000000  0.60240400  1
  B  B3  1  0.50000000  0.50000000  0.81037900  1
  Rh  Rh0  1  0.50000000  0.50000000  0.90901700  1
  Rh  Rh1  1  0.50000000  0.50000000  0.09098300  1
  Rh  Rh2  1  0.50000000  0.50000000  0.29611400  1
  Rh  Rh3  1  0.50000000  0.50000000  0.50000000  1
  Rh  Rh4  1  0.50000000  0.50000000  0.70388600  1
  Rh  Rh5  1  0.50000000  0.00000000  0.00000000  1
  Rh  Rh6  1  0.50000000  0.00000000  0.19718800  1
  Rh  Rh7  1  0.50000000  0.00000000  0.39933000  1
  Rh  Rh8  1  0.50000000  0.00000000  0.60067000  1
  Rh  Rh9  1  0.50000000  0.00000000  0.80281200  1
  Rh  Rh10  1  0.00000000  0.50000000  0.00000000  1
  Rh  Rh11  1  0.00000000  0.50000000  0.19718800  1
  Rh  Rh12  1  0.00000000  0.50000000  0.39933000  1
  Rh  Rh13  1  0.00000000  0.50000000  0.60067000  1
  Rh  Rh14  1  0.00000000  0.50000000  0.80281200  1
loop_
_geom_bond_atom_site_label_1
_geom_bond_atom_site_label_2
_geom_bond_distance
_geom_bond_site_symmetry_2
B0 Rh1 2.042119 1_555
B0 Rh6 2.130609 1_565
B0 Rh11 2.130609 1_655
B0 Rh6 2.130609 1_555
B0 Rh11 2.130609 1_555
B0 Rh2 2.204742 1_555
B1 Rh2 2.100999 1_555
B1 Rh3 2.120087 1_555
B1 Rh7 2.125145 1_565
B1 Rh7 2.125145 1_555
B1 Rh12 2.125145 1_655
B1 Rh12 2.125145 1_555
B2 Rh4 2.100999 1_555
B2 Rh3 2.120087 1_555
B2 Rh8 2.125145 1_565
B2 Rh13 2.125145 1_555
B2 Rh13 2.125145 1_655
B2 Rh8 2.125145 1_555
B3 Rh0 2.042119 1_555
B3 Rh9 2.130609 1_565
B3 Rh9 2.130609 1_555
B3 Rh14 2.130609 1_555
B3 Rh14 2.130609 1_655
B3 Rh4 2.204742 1_555
Rh0 Sm0 3.007028 1_565
Rh0 Sm0 3.007028 1_555
Rh0 Sm0 3.007028 1_665
Rh0 Sm0 3.007028 1_655
Rh1 Sm1 3.007028 1_555
Rh1 Sm1 3.007028 1_655
Rh1 Sm1 3.007028 1_565
Rh1 Sm1 3.007028 1_665
Rh2 Sm2 3.005453 1_565
Rh2 Sm2 3.005453 1_555
Rh2 Sm2 3.005453 1_655
Rh2 Sm2 3.005453 1_665
Rh3 Sm3 3.004980 1_555
Rh3 Sm3 3.004980 1_565
Rh3 Sm3 3.004980 1_655
Rh3 Sm3 3.004980 1_665
Rh4 Sm4 3.005453 1_565
Rh4 Sm4 3.005453 1_555
Rh4 Sm4 3.005453 1_655
Rh4 Sm4 3.005453 1_665
Rh5 Sm0 2.914344 1_554
Rh5 Sm0 2.914344 1_654
Rh5 Sm1 2.914344 1_655
Rh5 Sm1 2.914344 1_555
Rh6 Sm1 2.978910 1_655
Rh6 Sm1 2.978910 1_555
Rh6 Sm2 2.988444 1_555
Rh6 Sm2 2.988444 1_655
Rh7 Sm2 2.975952 1_555
Rh7 Sm2 2.975952 1_655
Rh7 Sm3 2.976372 1_655
Rh7 Sm3 2.976372 1_555
Rh8 Sm4 2.975952 1_555
Rh8 Sm4 2.975952 1_655
Rh8 Sm3 2.976372 1_555
Rh8 Sm3 2.976372 1_655
Rh9 Sm0 2.978910 1_555
Rh9 Sm0 2.978910 1_655
Rh9 Sm4 2.988444 1_655
Rh9 Sm4 2.988444 1_555
Rh10 Sm0 2.914344 1_564
Rh10 Sm0 2.914344 1_554
Rh10 Sm1 2.914344 1_565
Rh10 Sm1 2.914344 1_555
Rh11 Sm1 2.978910 1_565
Rh11 Sm1 2.978910 1_555
Rh11 Sm2 2.988444 1_565
Rh11 Sm2 2.988444 1_555
Rh12 Sm2 2.975952 1_555
Rh12 Sm2 2.975952 1_565
Rh12 Sm3 2.976372 1_555
Rh12 Sm3 2.976372 1_565
Rh13 Sm4 2.975952 1_555
Rh13 Sm4 2.975952 1_565
Rh13 Sm3 2.976372 1_555
Rh13 Sm3 2.976372 1_565
Rh14 Sm0 2.978910 1_565
Rh14 Sm0 2.978910 1_555
Rh14 Sm4 2.988444 1_565
Rh14 Sm4 2.988444 1_555
