# generated using pymatgen
data_CaCu2(TeO4)2
_symmetry_space_group_name_H-M   'P 1'
_cell_length_a   6.72893543
_cell_length_b   8.80362700
_cell_length_c   13.20288158
_cell_angle_alpha   90.00000000
_cell_angle_beta   91.25958938
_cell_angle_gamma   90.00000000
_symmetry_Int_Tables_number   1
_chemical_formula_structural   CaCu2(TeO4)2
_chemical_formula_sum   'Ca4 Cu8 Te8 O32'
_cell_volume   781.93700790
_cell_formula_units_Z   4
loop_
 _symmetry_equiv_pos_site_id
 _symmetry_equiv_pos_as_xyz
  1  'x, y, z'
loop_
 _atom_site_type_symbol
 _atom_site_label
 _atom_site_symmetry_multiplicity
 _atom_site_fract_x
 _atom_site_fract_y
 _atom_site_fract_z
 _atom_site_occupancy
  Ca  Ca0  1  0.12672100  0.15874900  0.04489900  1
  Ca  Ca1  1  0.87327900  0.84125100  0.95510100  1
  Ca  Ca2  1  0.87327900  0.65874900  0.45510100  1
  Ca  Ca3  1  0.12672100  0.34125100  0.54489900  1
  Cu  Cu0  1  0.72729200  0.19309200  0.88339000  1
  Cu  Cu1  1  0.39640300  0.05350900  0.62978000  1
  Cu  Cu2  1  0.60359700  0.94649100  0.37022000  1
  Cu  Cu3  1  0.27270800  0.80690800  0.11661000  1
  Cu  Cu4  1  0.72729200  0.30690800  0.38339000  1
  Cu  Cu5  1  0.39640300  0.44649100  0.12978000  1
  Cu  Cu6  1  0.27270800  0.69309200  0.61661000  1
  Cu  Cu7  1  0.60359700  0.55350900  0.87022000  1
  Te  Te0  1  0.08746400  0.45578400  0.84192900  1
  Te  Te1  1  0.08746400  0.04421600  0.34192900  1
  Te  Te2  1  0.64677200  0.10750800  0.14189100  1
  Te  Te3  1  0.91253600  0.95578400  0.65807100  1
  Te  Te4  1  0.35322800  0.89249200  0.85810900  1
  Te  Te5  1  0.35322800  0.60750800  0.35810900  1
  Te  Te6  1  0.64677200  0.39249200  0.64189100  1
  Te  Te7  1  0.91253600  0.54421600  0.15807100  1
  O  O0  1  0.01434800  0.23686400  0.38947900  1
  O  O1  1  0.67164800  0.01484100  0.59721800  1
  O  O2  1  0.21002200  0.58653500  0.49296500  1
  O  O3  1  0.78997800  0.08653500  0.00703500  1
  O  O4  1  0.01434800  0.26313600  0.88947900  1
  O  O5  1  0.98565200  0.76313600  0.61052100  1
  O  O6  1  0.10121800  0.09431800  0.61034600  1
  O  O7  1  0.52320000  0.91644900  0.14166400  1
  O  O8  1  0.52320000  0.58355100  0.64166400  1
  O  O9  1  0.34442500  0.86743800  0.69575800  1
  O  O10  1  0.65557500  0.36743800  0.80424200  1
  O  O11  1  0.47680000  0.08355100  0.85833600  1
  O  O12  1  0.89878200  0.90568200  0.38965400  1
  O  O13  1  0.90515600  0.53305200  0.29726800  1
  O  O14  1  0.43012100  0.26666600  0.59838200  1
  O  O15  1  0.43012100  0.23333400  0.09838200  1
  O  O16  1  0.09484400  0.03305200  0.20273200  1
  O  O17  1  0.47680000  0.41644900  0.35833600  1
  O  O18  1  0.09484400  0.46694800  0.70273200  1
  O  O19  1  0.78997800  0.41346500  0.50703500  1
  O  O20  1  0.67164800  0.48515900  0.09721800  1
  O  O21  1  0.65557500  0.13256200  0.30424200  1
  O  O22  1  0.98565200  0.73686400  0.11052100  1
  O  O23  1  0.10121800  0.40568200  0.11034600  1
  O  O24  1  0.21002200  0.91346500  0.99296500  1
  O  O25  1  0.56987800  0.76666600  0.90161800  1
  O  O26  1  0.32835200  0.98515900  0.40278200  1
  O  O27  1  0.32835200  0.51484100  0.90278200  1
  O  O28  1  0.89878200  0.59431800  0.88965400  1
  O  O29  1  0.56987800  0.73333400  0.40161800  1
  O  O30  1  0.34442500  0.63256200  0.19575800  1
  O  O31  1  0.90515600  0.96694800  0.79726800  1
loop_
_geom_bond_atom_site_label_1
_geom_bond_atom_site_label_2
_geom_bond_distance
_geom_bond_site_symmetry_2
Ca0 O15 2.243736 1_555
Ca0 O24 2.337563 1_544
Ca0 O23 2.347016 1_555
Ca0 O4 2.357700 1_554
Ca0 O16 2.373317 1_555
Ca0 O3 2.395556 1_455
Ca1 O25 2.243742 1_555
Ca1 O3 2.337563 1_566
Ca1 O28 2.347016 1_555
Ca1 O22 2.357700 1_556
Ca1 O31 2.373317 1_555
Ca1 O24 2.395556 1_655
Ca2 O29 2.243742 1_555
Ca2 O19 2.337563 1_555
Ca2 O12 2.347016 1_555
Ca2 O5 2.357700 1_555
Ca2 O13 2.373317 1_555
Ca2 O2 2.395556 1_655
Ca3 O14 2.243736 1_555
Ca3 O2 2.337563 1_555
Ca3 O6 2.347016 1_555
Ca3 O0 2.357700 1_555
Ca3 O18 2.373317 1_555
Ca3 O19 2.395556 1_455
Cu0 O10 1.912733 1_555
Cu0 O3 1.921619 1_556
Cu0 O11 1.963658 1_555
Cu0 O4 2.027533 1_655
Cu0 O31 2.597841 1_545
Cu1 O9 1.891536 1_545
Cu1 O14 1.936212 1_555
Cu1 O1 1.940621 1_555
Cu1 O6 2.029240 1_555
Cu2 O21 1.891536 1_565
Cu2 O29 1.936213 1_555
Cu2 O26 1.940621 1_555
Cu2 O12 2.029240 1_555
Cu3 O30 1.912733 1_555
Cu3 O24 1.921619 1_554
Cu3 O7 1.963658 1_555
Cu3 O22 2.027533 1_455
Cu3 O16 2.597841 1_565
Cu4 O21 1.912733 1_555
Cu4 O19 1.921619 1_555
Cu4 O17 1.963658 1_555
Cu4 O0 2.027533 1_655
Cu4 O13 2.597841 1_555
Cu5 O30 1.891536 1_555
Cu5 O15 1.936212 1_555
Cu5 O20 1.940621 1_555
Cu5 O23 2.029240 1_555
Cu6 O9 1.912733 1_555
Cu6 O2 1.921619 1_555
Cu6 O8 1.963658 1_555
Cu6 O5 2.027533 1_455
Cu6 O18 2.597841 1_555
Cu7 O10 1.891536 1_555
Cu7 O25 1.936213 1_555
Cu7 O27 1.940621 1_555
Cu7 O28 2.029240 1_555
O0 Te1 1.877814 1_555
O1 Te3 1.867069 1_545
O2 Te5 2.051397 1_555
O3 Te2 2.051397 1_555
O4 Te0 1.877814 1_555
O5 Te3 1.877814 1_555
O6 Te3 1.879253 1_445
O7 Te2 1.876292 1_565
O8 Te6 1.876292 1_555
O9 Te4 2.154338 1_555
O10 Te6 2.154338 1_555
O11 Te4 1.876292 1_545
O12 Te1 1.879253 1_665
O13 Te7 1.842187 1_555
O14 Te6 1.909318 1_555
O15 Te2 1.909318 1_555
O16 Te1 1.842187 1_555
O17 Te5 1.876292 1_555
O18 Te0 1.842187 1_555
O19 Te6 2.051397 1_555
O20 Te7 1.867069 1_555
O21 Te2 2.154338 1_555
O22 Te7 1.877814 1_555
O23 Te7 1.879253 1_455
O24 Te4 2.051397 1_555
O25 Te4 1.909312 1_555
O26 Te1 1.867069 1_565
O27 Te0 1.867069 1_555
O28 Te0 1.879253 1_655
O29 Te5 1.909312 1_555
O30 Te5 2.154338 1_555
O31 Te3 1.842187 1_555
