# generated using pymatgen
data_NaCeAgTe4
_symmetry_space_group_name_H-M   'P 1'
_cell_length_a   4.45643700
_cell_length_b   4.45643700
_cell_length_c   20.41035700
_cell_angle_alpha   90.00000000
_cell_angle_beta   90.00000000
_cell_angle_gamma   90.00000000
_symmetry_Int_Tables_number   1
_chemical_formula_structural   NaCeAgTe4
_chemical_formula_sum   'Na2 Ce2 Ag2 Te8'
_cell_volume   405.34623526
_cell_formula_units_Z   2
loop_
 _symmetry_equiv_pos_site_id
 _symmetry_equiv_pos_as_xyz
  1  'x, y, z'
loop_
 _atom_site_type_symbol
 _atom_site_label
 _atom_site_symmetry_multiplicity
 _atom_site_fract_x
 _atom_site_fract_y
 _atom_site_fract_z
 _atom_site_occupancy
  Na  Na0  1  0.00000000  0.50000000  0.13713000  1
  Na  Na1  1  0.50000000  0.00000000  0.86287000  1
  Ce  Ce0  1  0.00000000  0.50000000  0.60422100  1
  Ce  Ce1  1  0.50000000  0.00000000  0.39577900  1
  Ag  Ag0  1  0.00000000  0.00000000  0.00000000  1
  Ag  Ag1  1  0.50000000  0.50000000  0.00000000  1
  Te  Te0  1  0.00000000  0.00000000  0.27738400  1
  Te  Te1  1  0.50000000  0.50000000  0.72261600  1
  Te  Te2  1  0.00000000  0.50000000  0.44154200  1
  Te  Te3  1  0.50000000  0.00000000  0.55845800  1
  Te  Te4  1  0.00000000  0.00000000  0.72261600  1
  Te  Te5  1  0.50000000  0.50000000  0.27738400  1
  Te  Te6  1  0.00000000  0.50000000  0.90902200  1
  Te  Te7  1  0.50000000  0.00000000  0.09097800  1
loop_
_geom_bond_atom_site_label_1
_geom_bond_atom_site_label_2
_geom_bond_distance
_geom_bond_site_symmetry_2
Na0 Te7 3.288957 1_565
Na0 Te7 3.288957 1_455
Na0 Te7 3.288957 1_555
Na0 Te7 3.288957 1_465
Na0 Te0 3.627621 1_555
Na0 Te5 3.627621 1_455
Na0 Te5 3.627621 1_555
Na0 Te0 3.627621 1_565
Na1 Te6 3.288957 1_655
Na1 Te6 3.288957 1_545
Na1 Te6 3.288957 1_645
Na1 Te6 3.288957 1_555
Na1 Te1 3.627621 1_555
Na1 Te4 3.627621 1_555
Na1 Te1 3.627621 1_545
Na1 Te4 3.627621 1_655
Ce0 Te3 3.286692 1_455
Ce0 Te3 3.286692 1_555
Ce0 Te3 3.286692 1_565
Ce0 Te3 3.286692 1_465
Ce0 Te1 3.286998 1_455
Ce0 Te4 3.286998 1_565
Ce0 Te4 3.286998 1_555
Ce0 Te1 3.286998 1_555
Ce0 Te2 3.320336 1_555
Ce1 Te2 3.286692 1_645
Ce1 Te2 3.286692 1_545
Ce1 Te2 3.286692 1_555
Ce1 Te2 3.286692 1_655
Ce1 Te0 3.286998 1_555
Ce1 Te0 3.286998 1_655
Ce1 Te5 3.286998 1_545
Ce1 Te5 3.286998 1_555
Ce1 Te3 3.320336 1_555
Ag0 Te7 2.900519 1_455
Ag0 Te7 2.900519 1_555
Ag0 Te6 2.900519 1_544
Ag0 Te6 2.900519 1_554
Ag0 Ag1 3.151177 1_555
Ag0 Ag1 3.151177 1_445
Ag0 Ag1 3.151177 1_455
Ag0 Ag1 3.151177 1_545
Ag0 Na1 3.577519 1_554
Ag0 Na1 3.577519 1_454
Ag0 Na0 3.577519 1_555
Ag0 Na0 3.577519 1_545
Ag1 Te7 2.900519 1_565
Ag1 Te7 2.900519 1_555
Ag1 Te6 2.900519 1_654
Ag1 Te6 2.900519 1_554
Ag1 Na1 3.577519 1_554
Ag1 Na1 3.577519 1_564
Ag1 Na0 3.577519 1_555
Ag1 Na0 3.577519 1_655
Te0 Te5 3.151177 1_445
Te0 Te5 3.151177 1_455
Te0 Te5 3.151177 1_545
Te0 Te5 3.151177 1_555
Te1 Te4 3.151177 1_655
Te1 Te4 3.151177 1_555
Te1 Te4 3.151177 1_665
Te1 Te4 3.151177 1_565
