# generated using pymatgen
data_MgCO6
_symmetry_space_group_name_H-M   'P 1'
_cell_length_a   5.31116700
_cell_length_b   6.87791000
_cell_length_c   13.31721285
_cell_angle_alpha   65.51818380
_cell_angle_beta   90.00000000
_cell_angle_gamma   90.00000000
_symmetry_Int_Tables_number   1
_chemical_formula_structural   MgCO6
_chemical_formula_sum   'Mg4 C4 O24'
_cell_volume   442.73665791
_cell_formula_units_Z   4
loop_
 _symmetry_equiv_pos_site_id
 _symmetry_equiv_pos_as_xyz
  1  'x, y, z'
loop_
 _atom_site_type_symbol
 _atom_site_label
 _atom_site_symmetry_multiplicity
 _atom_site_fract_x
 _atom_site_fract_y
 _atom_site_fract_z
 _atom_site_occupancy
  Mg  Mg0  1  0.91157600  0.40126800  0.85329900  1
  Mg  Mg1  1  0.58842400  0.40126800  0.35329900  1
  Mg  Mg2  1  0.08842400  0.59873200  0.14670100  1
  Mg  Mg3  1  0.41157600  0.59873200  0.64670100  1
  C  C0  1  0.85807400  0.65251500  0.59763700  1
  C  C1  1  0.64192600  0.65251500  0.09763700  1
  C  C2  1  0.14192600  0.34748500  0.40236300  1
  C  C3  1  0.35807400  0.34748500  0.90236300  1
  O  O0  1  0.03563400  0.85477800  0.81181000  1
  O  O1  1  0.46436600  0.85477800  0.31181000  1
  O  O2  1  0.96436600  0.14522200  0.18819000  1
  O  O3  1  0.53563400  0.14522200  0.68819000  1
  O  O4  1  0.91119800  0.06487700  0.79008000  1
  O  O5  1  0.58880200  0.06487700  0.29008000  1
  O  O6  1  0.08880200  0.93512300  0.20992000  1
  O  O7  1  0.41119800  0.93512300  0.70992000  1
  O  O8  1  0.58971400  0.32042100  0.92759600  1
  O  O9  1  0.91028600  0.32042100  0.42759600  1
  O  O10  1  0.41028600  0.67957900  0.07240400  1
  O  O11  1  0.08971400  0.67957900  0.57240400  1
  O  O12  1  0.77886900  0.56654400  0.70325400  1
  O  O13  1  0.72113100  0.56654400  0.20325400  1
  O  O14  1  0.22113100  0.43345600  0.29674600  1
  O  O15  1  0.27886900  0.43345600  0.79674600  1
  O  O16  1  0.17702900  0.29744000  0.97312600  1
  O  O17  1  0.32297100  0.29744000  0.47312600  1
  O  O18  1  0.82297100  0.70256000  0.02687400  1
  O  O19  1  0.67702900  0.70256000  0.52687400  1
  O  O20  1  0.71252900  0.13235900  0.17769500  1
  O  O21  1  0.78747100  0.13235900  0.67769500  1
  O  O22  1  0.28747100  0.86764100  0.82230500  1
  O  O23  1  0.21252900  0.86764100  0.32230500  1
loop_
_geom_bond_atom_site_label_1
_geom_bond_atom_site_label_2
_geom_bond_distance
_geom_bond_site_symmetry_2
Mg0 O8 1.937638 1_555
Mg0 O12 1.974622 1_555
Mg0 O16 2.024762 1_655
Mg0 O15 2.069654 1_655
Mg0 O4 2.770609 1_555
Mg1 O9 1.937638 1_555
Mg1 O13 1.974622 1_555
Mg1 O17 2.024762 1_555
Mg1 O14 2.069654 1_555
Mg1 O5 2.770609 1_555
Mg2 O10 1.937638 1_555
Mg2 O14 1.974622 1_555
Mg2 O18 2.024762 1_455
Mg2 O13 2.069654 1_455
Mg2 O6 2.770609 1_555
Mg3 O11 1.937638 1_555
Mg3 O15 1.974622 1_555
Mg3 O19 2.024762 1_555
Mg3 O12 2.069654 1_555
Mg3 O7 2.770609 1_555
C0 O11 1.268586 1_655
C0 O19 1.289298 1_555
C0 O12 1.347445 1_555
C1 O10 1.268586 1_555
C1 O18 1.289298 1_555
C1 O13 1.347445 1_555
C2 O9 1.268586 1_455
C2 O17 1.289298 1_555
C2 O14 1.347445 1_555
C3 O8 1.268586 1_555
C3 O16 1.289298 1_555
C3 O15 1.347445 1_555
O0 O22 1.351534 1_555
O0 O4 1.504026 1_465
O1 O23 1.351534 1_555
O1 O5 1.504026 1_565
O2 O20 1.351534 1_555
O2 O6 1.504026 1_645
O3 O7 1.504026 1_545
O20 O5 1.520359 1_555
O21 O3 1.351534 1_555
O21 O4 1.520359 1_555
O22 O7 1.520359 1_555
O23 O6 1.520359 1_555
