# generated using pymatgen
data_LaNb2CuBrO7
_symmetry_space_group_name_H-M   'P 1'
_cell_length_a   5.58218498
_cell_length_b   5.58218498
_cell_length_c   11.79887381
_cell_angle_alpha   89.94768410
_cell_angle_beta   89.94768410
_cell_angle_gamma   89.82023939
_symmetry_Int_Tables_number   1
_chemical_formula_structural   LaNb2CuBrO7
_chemical_formula_sum   'La2 Nb4 Cu2 Br2 O14'
_cell_volume   367.66010447
_cell_formula_units_Z   2
loop_
 _symmetry_equiv_pos_site_id
 _symmetry_equiv_pos_as_xyz
  1  'x, y, z'
loop_
 _atom_site_type_symbol
 _atom_site_label
 _atom_site_symmetry_multiplicity
 _atom_site_fract_x
 _atom_site_fract_y
 _atom_site_fract_z
 _atom_site_occupancy
  La  La0  1  0.26187900  0.26395900  0.49999500  1
  La  La1  1  0.73604100  0.73812100  0.50000500  1
  Nb  Nb0  1  0.24599900  0.75440500  0.30938200  1
  Nb  Nb1  1  0.75015900  0.25081500  0.30953600  1
  Nb  Nb2  1  0.24559500  0.75400100  0.69061800  1
  Nb  Nb3  1  0.74918500  0.24984100  0.69046400  1
  Cu  Cu0  1  0.22927500  0.77072500  0.00000000  1
  Cu  Cu1  1  0.77359500  0.22640500  0.00000000  1
  Br  Br0  1  0.71620400  0.76370000  0.00499900  1
  Br  Br1  1  0.23630000  0.28379600  0.99500100  1
  O  O0  1  0.00037600  0.50025200  0.34753600  1
  O  O1  1  0.49974800  0.99962400  0.65246400  1
  O  O2  1  0.00000100  0.49982600  0.65322100  1
  O  O3  1  0.50017400  0.99999900  0.34677900  1
  O  O4  1  0.28606900  0.71393100  0.50000000  1
  O  O5  1  0.71137900  0.28862100  0.50000000  1
  O  O6  1  0.49855100  0.50142400  0.32695300  1
  O  O7  1  0.49857700  0.50144900  0.67304700  1
  O  O8  1  0.99911700  0.00110200  0.36191000  1
  O  O9  1  0.99889800  0.00088300  0.63809000  1
  O  O10  1  0.22329500  0.77526500  0.15674400  1
  O  O11  1  0.76635200  0.23790200  0.15694600  1
  O  O12  1  0.22473500  0.77670500  0.84325600  1
  O  O13  1  0.76209800  0.23364800  0.84305400  1
loop_
_geom_bond_atom_site_label_1
_geom_bond_atom_site_label_2
_geom_bond_distance
_geom_bond_site_symmetry_2
La0 O5 2.513397 1_555
La0 O4 2.515877 1_555
La0 O9 2.640318 1_455
La0 O8 2.642189 1_455
La0 O0 2.663636 1_555
La0 O2 2.669552 1_555
La0 O1 2.676549 1_545
La0 O3 2.682686 1_545
La0 O6 2.769880 1_555
La0 O7 2.773664 1_555
La0 O4 3.072903 1_545
La0 O5 3.075643 1_455
La1 O5 2.513397 1_555
La1 O4 2.515877 1_555
La1 O8 2.640318 1_565
La1 O9 2.642189 1_565
La1 O1 2.663636 1_555
La1 O3 2.669552 1_555
La1 O0 2.676549 1_655
La1 O2 2.682686 1_655
La1 O7 2.769878 1_555
La1 O6 2.773661 1_555
La1 O4 3.072903 1_655
La1 O5 3.075643 1_565
Nb0 O10 1.809145 1_555
Nb0 O6 2.003066 1_555
Nb0 O3 2.025289 1_555
Nb0 O0 2.026157 1_555
Nb0 O8 2.041545 1_465
Nb0 O4 2.271366 1_555
Nb1 O11 1.804070 1_555
Nb1 O6 1.989882 1_555
Nb1 O0 2.026137 1_655
Nb1 O3 2.027489 1_545
Nb1 O8 2.060130 1_555
Nb1 O5 2.267437 1_555
Nb2 O12 1.809145 1_555
Nb2 O7 2.003070 1_555
Nb2 O2 2.025289 1_555
Nb2 O1 2.026157 1_555
Nb2 O9 2.041545 1_465
Nb2 O4 2.271366 1_555
Nb3 O13 1.804070 1_555
Nb3 O7 1.989878 1_555
Nb3 O1 2.026137 1_545
Nb3 O2 2.027489 1_655
Nb3 O9 2.060130 1_555
Nb3 O5 2.267437 1_555
Cu0 O12 1.849869 1_554
Cu0 O10 1.849869 1_555
Cu1 O11 1.853356 1_555
Cu1 O13 1.853356 1_554
Br0 Cu1 2.604302 1_565
Br0 Cu0 2.718980 1_555
Br0 Cu0 2.865001 1_655
Br0 Cu1 3.015967 1_555
Br1 Cu1 2.604302 1_456
Br1 Cu0 2.718980 1_556
Br1 Cu0 2.865001 1_546
Br1 Cu1 3.015967 1_556
