# generated using pymatgen
data_Sr2ScIrO6
_symmetry_space_group_name_H-M   'P 1'
_cell_length_a   5.64379638
_cell_length_b   5.64379638
_cell_length_c   5.70564032
_cell_angle_alpha   59.81645438
_cell_angle_beta   59.81645438
_cell_angle_gamma   59.97804255
_symmetry_Int_Tables_number   1
_chemical_formula_structural   Sr2ScIrO6
_chemical_formula_sum   'Sr2 Sc1 Ir1 O6'
_cell_volume   128.12972739
_cell_formula_units_Z   1
loop_
 _symmetry_equiv_pos_site_id
 _symmetry_equiv_pos_as_xyz
  1  'x, y, z'
loop_
 _atom_site_type_symbol
 _atom_site_label
 _atom_site_symmetry_multiplicity
 _atom_site_fract_x
 _atom_site_fract_y
 _atom_site_fract_z
 _atom_site_occupancy
  Sr  Sr0  1  0.74898756  0.74898756  0.25449741  1
  Sr  Sr1  1  0.25101244  0.25101244  0.74550259  1
  Sc  Sc0  1  0.50000000  0.50000000  0.00000000  1
  Ir  Ir0  1  -0.00000000  0.00000000  0.50000000  1
  O  O0  1  0.75711936  0.75711936  0.79970225  1
  O  O1  1  0.24288064  0.24288064  0.20029775  1
  O  O2  1  0.78581939  0.27414670  0.71295951  1
  O  O3  1  0.72585330  0.21418061  0.28704049  1
  O  O4  1  0.21418061  0.72585330  0.28704049  1
  O  O5  1  0.27414670  0.78581939  0.71295951  1
loop_
_geom_bond_atom_site_label_1
_geom_bond_atom_site_label_2
_geom_bond_distance
_geom_bond_site_symmetry_2
Ir0 O0 1.961720 1_445
Ir0 O1 1.961720 1_555
Ir0 O5 1.968114 1_545
Ir0 O2 1.968114 1_455
Ir0 O4 1.968114 1_545
Ir0 O3 1.968114 1_455
O0 Sc0 2.071138 1_556
O0 Sr0 2.549571 1_556
O0 Sr1 2.842262 1_655
O0 Sr1 2.842262 1_565
O0 Sr0 3.157555 1_555
O1 Sc0 2.071138 1_555
O1 Sr1 2.549571 1_554
O1 Sr0 2.842262 1_545
O1 Sr0 2.842262 1_455
O1 Sr1 3.157555 1_555
O2 Sc0 2.072253 1_556
O2 Sr0 2.647249 1_555
O2 Sr1 2.658446 1_655
O2 Sr1 2.994718 1_555
O2 Sr0 3.022725 1_546
O3 Sc0 2.072253 1_555
O3 Sr1 2.647249 1_555
O3 Sr0 2.658446 1_545
O3 Sr0 2.994718 1_555
O3 Sr1 3.022725 1_654
O4 Sc0 2.072253 1_555
O4 Sr1 2.647249 1_555
O4 Sr0 2.658446 1_455
O4 Sr0 2.994718 1_555
O4 Sr1 3.022725 1_564
O5 Sc0 2.072253 1_556
O5 Sr0 2.647249 1_555
O5 Sr1 2.658446 1_565
O5 Sr1 2.994718 1_555
O5 Sr0 3.022725 1_456
