# generated using pymatgen
data_HoMg2
_symmetry_space_group_name_H-M   'P 1'
_cell_length_a   10.40642286
_cell_length_b   10.40642286
_cell_length_c   6.50960062
_cell_angle_alpha   90.00000000
_cell_angle_beta   90.00000000
_cell_angle_gamma   119.99999685
_symmetry_Int_Tables_number   1
_chemical_formula_structural   HoMg2
_chemical_formula_sum   'Ho8 Mg16'
_cell_volume   610.50317759
_cell_formula_units_Z   8
loop_
 _symmetry_equiv_pos_site_id
 _symmetry_equiv_pos_as_xyz
  1  'x, y, z'
loop_
 _atom_site_type_symbol
 _atom_site_label
 _atom_site_symmetry_multiplicity
 _atom_site_fract_x
 _atom_site_fract_y
 _atom_site_fract_z
 _atom_site_occupancy
  Ho  Ho0_0  1  0.00000000  0.00000000  0.25000000  1
  Ho  Ho0_1  1  0.00000000  0.00000000  0.75000000  1
  Ho  Ho0_2  1  0.00000000  0.50000000  0.25000000  1
  Ho  Ho0_3  1  0.00000000  0.50000000  0.75000000  1
  Ho  Ho0_4  1  0.50000000  0.00000000  0.25000000  1
  Ho  Ho0_5  1  0.50000000  0.00000000  0.75000000  1
  Ho  Ho0_6  1  0.50000000  0.50000000  0.25000000  1
  Ho  Ho0_7  1  0.50000000  0.50000000  0.75000000  1
  Mg  Mg0_0  1  0.16666650  0.33333350  0.00000000  1
  Mg  Mg0_1  1  0.16666650  0.33333350  0.50000000  1
  Mg  Mg0_2  1  0.16666650  0.83333350  0.00000000  1
  Mg  Mg0_3  1  0.16666650  0.83333350  0.50000000  1
  Mg  Mg0_4  1  0.66666650  0.33333350  0.00000000  1
  Mg  Mg0_5  1  0.66666650  0.33333350  0.50000000  1
  Mg  Mg0_6  1  0.66666650  0.83333350  0.00000000  1
  Mg  Mg0_7  1  0.66666650  0.83333350  0.50000000  1
  Mg  Mg1_0  1  0.33333350  0.16666650  0.00000000  1
  Mg  Mg1_1  1  0.33333350  0.16666650  0.50000000  1
  Mg  Mg1_2  1  0.33333350  0.66666650  0.00000000  1
  Mg  Mg1_3  1  0.33333350  0.66666650  0.50000000  1
  Mg  Mg1_4  1  0.83333350  0.16666650  0.00000000  1
  Mg  Mg1_5  1  0.83333350  0.16666650  0.50000000  1
  Mg  Mg1_6  1  0.83333350  0.66666650  0.00000000  1
  Mg  Mg1_7  1  0.83333350  0.66666650  0.50000000  1
loop_
_geom_bond_atom_site_label_1
_geom_bond_atom_site_label_2
_geom_bond_distance
_geom_bond_site_symmetry_2
Ho0_0 Ho0_1 3.254800 1_555
Ho0_0 Ho0_1 3.254800 1_554
Ho0_0 Mg0_3 3.416560 1_545
Ho0_0 Mg0_2 3.416560 1_545
Ho0_0 Mg1_5 3.416560 1_455
Ho0_0 Mg1_4 3.416560 1_455
Ho0_0 Mg1_6 3.416564 1_445
Ho0_0 Mg1_7 3.416564 1_445
Ho0_0 Mg0_7 3.416564 1_445
Ho0_0 Mg0_6 3.416564 1_445
Ho0_0 Mg0_0 3.416564 1_555
Ho0_0 Mg1_1 3.416564 1_555
Ho0_0 Mg0_1 3.416564 1_555
Ho0_0 Mg1_0 3.416564 1_555
Ho0_1 Mg0_3 3.416560 1_545
Ho0_1 Mg0_2 3.416560 1_546
Ho0_1 Mg1_5 3.416560 1_455
Ho0_1 Mg1_4 3.416560 1_456
Ho0_1 Mg1_6 3.416564 1_446
Ho0_1 Mg1_7 3.416564 1_445
Ho0_1 Mg0_6 3.416564 1_446
Ho0_1 Mg0_7 3.416564 1_445
Ho0_1 Mg0_0 3.416564 1_556
Ho0_1 Mg1_1 3.416564 1_555
Ho0_1 Mg1_0 3.416564 1_556
Ho0_1 Mg0_1 3.416564 1_555
Ho0_2 Ho0_3 3.254800 1_555
Ho0_2 Ho0_3 3.254800 1_554
Ho0_2 Mg0_0 3.416560 1_555
Ho0_2 Mg0_1 3.416560 1_555
Ho0_2 Mg1_7 3.416560 1_455
Ho0_2 Mg1_6 3.416560 1_455
Ho0_2 Mg0_2 3.416564 1_555
Ho0_2 Mg0_3 3.416564 1_555
Ho0_2 Mg1_3 3.416564 1_555
Ho0_2 Mg1_2 3.416564 1_555
Ho0_2 Mg1_5 3.416564 1_455
Ho0_2 Mg1_4 3.416564 1_455
Ho0_2 Mg0_5 3.416564 1_455
Ho0_2 Mg0_4 3.416564 1_455
Ho0_3 Mg0_0 3.416560 1_556
Ho0_3 Mg0_1 3.416560 1_555
Ho0_3 Mg1_7 3.416560 1_455
Ho0_3 Mg1_6 3.416560 1_456
Ho0_3 Mg0_2 3.416564 1_556
Ho0_3 Mg0_3 3.416564 1_555
Ho0_3 Mg1_3 3.416564 1_555
Ho0_3 Mg1_2 3.416564 1_556
Ho0_3 Mg1_5 3.416564 1_455
Ho0_3 Mg1_4 3.416564 1_456
Ho0_3 Mg0_5 3.416564 1_455
Ho0_3 Mg0_4 3.416564 1_456
Ho0_4 Ho0_5 3.254800 1_554
Ho0_4 Ho0_5 3.254800 1_555
Ho0_4 Mg0_6 3.416560 1_545
Ho0_4 Mg0_7 3.416560 1_545
Ho0_4 Mg1_0 3.416560 1_555
Ho0_4 Mg1_1 3.416560 1_555
Ho0_4 Mg1_3 3.416564 1_545
Ho0_4 Mg1_4 3.416564 1_555
Ho0_4 Mg1_5 3.416564 1_555
Ho0_4 Mg1_2 3.416564 1_545
Ho0_4 Mg0_2 3.416564 1_545
Ho0_4 Mg0_3 3.416564 1_545
Ho0_4 Mg0_4 3.416564 1_555
Ho0_4 Mg0_5 3.416564 1_555
Ho0_5 Mg0_6 3.416560 1_546
Ho0_5 Mg0_7 3.416560 1_545
Ho0_5 Mg1_1 3.416560 1_555
Ho0_5 Mg1_0 3.416560 1_556
Ho0_5 Mg1_2 3.416564 1_546
Ho0_5 Mg1_3 3.416564 1_545
Ho0_5 Mg1_4 3.416564 1_556
Ho0_5 Mg1_5 3.416564 1_555
Ho0_5 Mg0_2 3.416564 1_546
Ho0_5 Mg0_3 3.416564 1_545
Ho0_5 Mg0_4 3.416564 1_556
Ho0_5 Mg0_5 3.416564 1_555
Ho0_6 Ho0_7 3.254800 1_555
Ho0_6 Ho0_7 3.254800 1_554
Ho0_6 Mg0_4 3.416560 1_555
Ho0_6 Mg0_5 3.416560 1_555
Ho0_6 Mg1_2 3.416560 1_555
Ho0_6 Mg1_3 3.416560 1_555
Ho0_6 Mg0_0 3.416564 1_555
Ho0_6 Mg1_1 3.416564 1_555
Ho0_6 Mg1_0 3.416564 1_555
Ho0_6 Mg0_1 3.416564 1_555
Ho0_6 Mg1_6 3.416564 1_555
Ho0_6 Mg1_7 3.416564 1_555
Ho0_6 Mg0_6 3.416564 1_555
Ho0_6 Mg0_7 3.416564 1_555
Ho0_7 Mg0_4 3.416560 1_556
Ho0_7 Mg0_5 3.416560 1_555
Ho0_7 Mg1_2 3.416560 1_556
Ho0_7 Mg1_3 3.416560 1_555
Ho0_7 Mg0_0 3.416564 1_556
Ho0_7 Mg1_1 3.416564 1_555
Ho0_7 Mg1_0 3.416564 1_556
Ho0_7 Mg0_1 3.416564 1_555
Ho0_7 Mg1_6 3.416564 1_556
Ho0_7 Mg1_7 3.416564 1_555
Ho0_7 Mg0_7 3.416564 1_555
Ho0_7 Mg0_6 3.416564 1_556
Mg0_0 Mg1_2 3.004073 1_555
Mg0_0 Mg1_4 3.004073 1_455
Mg0_0 Mg1_0 3.004081 1_555
Mg0_0 Mg0_1 3.254800 1_554
Mg0_0 Mg0_1 3.254800 1_555
Mg0_1 Mg1_3 3.004073 1_555
Mg0_1 Mg1_5 3.004073 1_455
Mg0_1 Mg1_1 3.004081 1_555
Mg0_2 Mg1_6 3.004073 1_455
Mg0_2 Mg1_0 3.004073 1_565
Mg0_2 Mg1_2 3.004081 1_555
Mg0_2 Mg0_3 3.254800 1_555
Mg0_2 Mg0_3 3.254800 1_554
Mg0_3 Mg1_7 3.004073 1_455
Mg0_3 Mg1_1 3.004073 1_565
Mg0_3 Mg1_3 3.004081 1_555
Mg0_4 Mg1_0 3.004073 1_555
Mg0_4 Mg1_6 3.004073 1_555
Mg0_4 Mg1_4 3.004081 1_555
Mg0_4 Mg0_5 3.254800 1_554
Mg0_4 Mg0_5 3.254800 1_555
Mg0_5 Mg1_1 3.004073 1_555
Mg0_5 Mg1_7 3.004073 1_555
Mg0_5 Mg1_5 3.004081 1_555
Mg0_6 Mg1_4 3.004073 1_565
Mg0_6 Mg1_2 3.004073 1_555
Mg0_6 Mg1_6 3.004081 1_555
Mg0_6 Mg0_7 3.254800 1_555
Mg0_6 Mg0_7 3.254800 1_554
Mg0_7 Mg1_5 3.004073 1_565
Mg0_7 Mg1_3 3.004073 1_555
Mg0_7 Mg1_7 3.004081 1_555
Mg1_0 Mg1_1 3.254800 1_555
Mg1_0 Mg1_1 3.254800 1_554
Mg1_2 Mg1_3 3.254800 1_554
Mg1_2 Mg1_3 3.254800 1_555
Mg1_4 Mg1_5 3.254800 1_555
Mg1_4 Mg1_5 3.254800 1_554
Mg1_6 Mg1_7 3.254800 1_555
Mg1_6 Mg1_7 3.254800 1_554
