# generated using pymatgen
data_KSrSmWO6
_symmetry_space_group_name_H-M   'P 1'
_cell_length_a   8.44244663
_cell_length_b   8.44240820
_cell_length_c   8.46230973
_cell_angle_alpha   90.00000000
_cell_angle_beta   90.00000000
_cell_angle_gamma   90.00000000
_symmetry_Int_Tables_number   1
_chemical_formula_structural   KSrSmWO6
_chemical_formula_sum   'K4 Sr4 Sm4 W4 O24'
_cell_volume   603.14757740
_cell_formula_units_Z   4
loop_
 _symmetry_equiv_pos_site_id
 _symmetry_equiv_pos_as_xyz
  1  'x, y, z'
loop_
 _atom_site_type_symbol
 _atom_site_label
 _atom_site_symmetry_multiplicity
 _atom_site_fract_x
 _atom_site_fract_y
 _atom_site_fract_z
 _atom_site_occupancy
  K  K0  1  0.00000000  0.50000000  0.50000000  1
  K  K1  1  0.50000000  0.50000000  0.00000000  1
  K  K2  1  0.50000000  0.00000000  0.00000000  1
  K  K3  1  0.00000000  0.00000000  0.50000000  1
  Sr  Sr0  1  0.50000000  -0.00000000  0.50000000  1
  Sr  Sr1  1  0.00000000  0.50000000  0.00000000  1
  Sr  Sr2  1  0.00000000  -0.00000000  0.00000000  1
  Sr  Sr3  1  0.50000000  0.50000000  0.50000000  1
  Sm  Sm0  1  0.75000000  0.75000000  0.75000000  1
  Sm  Sm1  1  0.25000000  0.25000000  0.75000000  1
  Sm  Sm2  1  0.25000000  0.75000000  0.25000000  1
  Sm  Sm3  1  0.75000000  0.25000000  0.25000000  1
  W  W0  1  0.25000000  0.25000000  0.25000000  1
  W  W1  1  0.75000000  0.75000000  0.25000000  1
  W  W2  1  0.75000000  0.25000000  0.75000000  1
  W  W3  1  0.25000000  0.75000000  0.75000000  1
  O  O0  1  0.02147066  0.22291119  0.26649985  1
  O  O1  1  0.97852934  0.77708881  0.26649985  1
  O  O2  1  0.97852934  0.22291119  0.73350015  1
  O  O3  1  0.02147066  0.77708881  0.73350015  1
  O  O4  1  0.27188052  0.02130359  0.22439745  1
  O  O5  1  0.27188052  0.97869641  0.77560255  1
  O  O6  1  0.72811948  0.97869641  0.22439745  1
  O  O7  1  0.72811948  0.02130359  0.77560255  1
  O  O8  1  0.21387165  0.27378656  0.02039734  1
  O  O9  1  0.78612835  0.27378656  0.97960266  1
  O  O10  1  0.21387165  0.72621344  0.97960266  1
  O  O11  1  0.78612835  0.72621344  0.02039734  1
  O  O12  1  0.47852934  0.27708881  0.23350015  1
  O  O13  1  0.52147066  0.72291119  0.23350015  1
  O  O14  1  0.52147066  0.27708881  0.76649985  1
  O  O15  1  0.47852934  0.72291119  0.76649985  1
  O  O16  1  0.22811948  0.47869641  0.27560255  1
  O  O17  1  0.22811948  0.52130359  0.72439745  1
  O  O18  1  0.77188052  0.52130359  0.27560255  1
  O  O19  1  0.77188052  0.47869641  0.72439745  1
  O  O20  1  0.28612835  0.22621344  0.47960266  1
  O  O21  1  0.71387165  0.22621344  0.52039734  1
  O  O22  1  0.28612835  0.77378656  0.52039734  1
  O  O23  1  0.71387165  0.77378656  0.47960266  1
loop_
_geom_bond_atom_site_label_1
_geom_bond_atom_site_label_2
_geom_bond_distance
_geom_bond_site_symmetry_2
K0 O17 2.710588 1_555
K0 O16 2.710588 1_555
K0 O18 2.710588 1_455
K0 O19 2.710588 1_455
K0 O2 3.067499 1_455
K0 O1 3.067499 1_455
K0 O0 3.067499 1_555
K0 O3 3.067499 1_555
K1 O12 2.734742 1_555
K1 O15 2.734742 1_554
K1 O13 2.734742 1_555
K1 O14 2.734742 1_554
K1 O10 3.084204 1_554
K1 O11 3.084204 1_555
K1 O8 3.084204 1_555
K1 O9 3.084204 1_554
K1 O19 3.277230 1_554
K1 O16 3.277230 1_555
K1 O17 3.277230 1_554
K1 O18 3.277230 1_555
K2 O4 2.710588 1_555
K2 O5 2.710588 1_544
K2 O7 2.710588 1_554
K2 O6 2.710588 1_545
K2 O13 3.067499 1_545
K2 O15 3.067499 1_544
K2 O12 3.067499 1_555
K2 O14 3.067499 1_554
K3 O0 2.734742 1_555
K3 O2 2.734742 1_455
K3 O3 2.734742 1_545
K3 O1 2.734742 1_445
K3 O20 3.084204 1_555
K3 O22 3.084204 1_545
K3 O21 3.084204 1_455
K3 O23 3.084204 1_445
K3 O7 3.277230 1_455
K3 O6 3.277230 1_445
K3 O5 3.277230 1_545
K3 O4 3.277230 1_555
O0 W0 1.947864 1_555
O0 Sm3 2.307487 1_455
O0 Sr2 2.942852 1_555
O1 W1 1.947864 1_555
O1 Sm2 2.307487 1_655
O1 Sr2 2.942852 1_665
O2 W2 1.947864 1_555
O2 Sm1 2.307487 1_655
O2 Sr2 2.942852 1_656
O3 W3 1.947864 1_555
O3 Sm0 2.307487 1_455
O3 Sr2 2.942852 1_566
O4 W0 1.951628 1_555
O4 Sm2 2.308084 1_545
O4 Sr2 2.984429 1_555
O5 W3 1.951628 1_555
O5 Sm1 2.308084 1_565
O5 Sr2 2.984429 1_566
O6 W1 1.951628 1_555
O6 Sm3 2.308084 1_565
O6 Sr2 2.984429 1_665
O7 W2 1.951628 1_555
O7 Sm0 2.308084 1_545
O7 Sr2 2.984429 1_656
O8 W0 1.976989 1_555
O8 Sm1 2.317144 1_554
O8 Sr1 2.633869 1_555
O8 Sr2 2.938135 1_555
O9 W2 1.976989 1_555
O9 Sm3 2.317144 1_556
O9 Sr1 2.633869 1_656
O9 Sr2 2.938135 1_656
O10 W3 1.976989 1_555
O10 Sm2 2.317144 1_556
O10 Sr1 2.633869 1_556
O10 Sr2 2.938135 1_566
O11 W1 1.976989 1_555
O11 Sm0 2.317144 1_554
O11 Sr1 2.633869 1_655
O11 Sr2 2.938135 1_665
O12 W0 1.947864 1_555
O12 Sm3 2.307487 1_555
O12 Sr3 2.942852 1_555
O13 W1 1.947864 1_555
O13 Sm2 2.307487 1_555
O13 Sr3 2.942852 1_555
O14 W2 1.947864 1_555
O14 Sm1 2.307487 1_555
O14 Sr3 2.942852 1_555
O15 W3 1.947864 1_555
O15 Sm0 2.307487 1_555
O15 Sr3 2.942852 1_555
O16 W0 1.951628 1_555
O16 Sm2 2.308084 1_555
O16 Sr3 2.984429 1_555
O17 W3 1.951628 1_555
O17 Sm1 2.308084 1_555
O17 Sr3 2.984429 1_555
O18 W1 1.951628 1_555
O18 Sm3 2.308084 1_555
O18 Sr3 2.984429 1_555
O19 W2 1.951628 1_555
O19 Sm0 2.308084 1_555
O19 Sr3 2.984429 1_555
O20 W0 1.976989 1_555
O20 Sm1 2.317144 1_555
O20 Sr0 2.633869 1_555
O20 Sr3 2.938135 1_555
O21 W2 1.976989 1_555
O21 Sm3 2.317144 1_555
O21 Sr0 2.633869 1_555
O21 Sr3 2.938135 1_555
O22 W3 1.976989 1_555
O22 Sm2 2.317144 1_555
O22 Sr0 2.633869 1_565
O22 Sr3 2.938135 1_555
O23 W1 1.976989 1_555
O23 Sm0 2.317144 1_555
O23 Sr0 2.633869 1_565
O23 Sr3 2.938135 1_555
