# generated using pymatgen
data_Li2NiBiO4
_symmetry_space_group_name_H-M   'P 1'
_cell_length_a   6.26824687
_cell_length_b   8.32473344
_cell_length_c   8.32468845
_cell_angle_alpha   65.04777875
_cell_angle_beta   112.20521112
_cell_angle_gamma   112.20530642
_symmetry_Int_Tables_number   1
_chemical_formula_structural   Li2NiBiO4
_chemical_formula_sum   'Li8 Ni4 Bi4 O16'
_cell_volume   352.06973658
_cell_formula_units_Z   4
loop_
 _symmetry_equiv_pos_site_id
 _symmetry_equiv_pos_as_xyz
  1  'x, y, z'
loop_
 _atom_site_type_symbol
 _atom_site_label
 _atom_site_symmetry_multiplicity
 _atom_site_fract_x
 _atom_site_fract_y
 _atom_site_fract_z
 _atom_site_occupancy
  Li  Li0  1  0.12296700  0.62304100  0.12343800  1
  Li  Li1  1  0.87688700  0.87656200  0.37695900  1
  Li  Li2  1  0.62339100  0.12305500  0.62339200  1
  Li  Li3  1  0.37671300  0.37660000  0.87693800  1
  Li  Li4  1  0.24997600  0.24985100  0.25012500  1
  Li  Li5  1  0.99998100  0.49987100  0.50011000  1
  Li  Li6  1  0.75000600  0.74987800  0.75014000  1
  Li  Li7  1  0.49999700  0.99991700  0.00009400  1
  Ni  Ni0  1  0.12371500  0.12381200  0.62357600  1
  Ni  Ni1  1  0.87672300  0.37649000  0.87635800  1
  Ni  Ni2  1  0.62325100  0.62362600  0.12347900  1
  Ni  Ni3  1  0.37660200  0.87641200  0.37634700  1
  Bi  Bi0  1  0.99996700  0.99994400  0.00001300  1
  Bi  Bi1  1  0.74999900  0.25011600  0.24991900  1
  Bi  Bi2  1  0.50002200  0.50000400  0.50003600  1
  Bi  Bi3  1  0.24997800  0.75011700  0.74984200  1
  O  O0  1  0.62982800  0.86208900  0.89395800  1
  O  O1  1  0.37004100  0.10599300  0.13787000  1
  O  O2  1  0.12989200  0.36205100  0.39392700  1
  O  O3  1  0.87019800  0.60611400  0.63798800  1
  O  O4  1  0.62598000  0.39414200  0.36184000  1
  O  O5  1  0.37395900  0.63817900  0.60589800  1
  O  O6  1  0.12596900  0.89411400  0.86178200  1
  O  O7  1  0.87403900  0.13818700  0.10583700  1
  O  O8  1  0.49998400  0.74380000  0.25619900  1
  O  O9  1  0.25000700  0.00347400  0.49645800  1
  O  O10  1  0.99999600  0.24386500  0.75613100  1
  O  O11  1  0.74997200  0.50368000  0.99638200  1
  O  O12  1  0.24994400  0.49642500  0.00352700  1
  O  O13  1  0.99998300  0.75619600  0.24379000  1
  O  O14  1  0.75003500  0.99635700  0.50368100  1
  O  O15  1  0.49999600  0.25603800  0.74396600  1
loop_
_geom_bond_atom_site_label_1
_geom_bond_atom_site_label_2
_geom_bond_distance
_geom_bond_site_symmetry_2
Li0 O11 2.198642 1_454
Li0 O12 2.205297 1_555
Li0 O8 2.232597 1_555
Li0 O13 2.234612 1_455
Li0 O2 2.379574 1_555
Li0 O6 2.385140 1_554
Li1 O9 2.199166 1_665
Li1 O14 2.204686 1_555
Li1 O8 2.232101 1_555
Li1 O13 2.235291 1_555
Li1 O3 2.379546 1_555
Li1 O7 2.385239 1_565
Li2 O9 2.200565 1_555
Li2 O14 2.203044 1_545
Li2 O10 2.230845 1_555
Li2 O15 2.236710 1_555
Li2 O0 2.379810 1_545
Li2 O4 2.384772 1_555
Li3 O11 2.200047 1_555
Li3 O12 2.203621 1_556
Li3 O10 2.231321 1_455
Li3 O15 2.236063 1_555
Li3 O1 2.379859 1_556
Li3 O5 2.384663 1_555
Li4 O9 2.205267 1_555
Li4 O12 2.207335 1_555
Li4 O7 2.237579 1_455
Li4 O4 2.237981 1_555
Li4 O2 2.242312 1_555
Li4 O1 2.242973 1_555
Li5 O4 2.202509 1_555
Li5 O5 2.202605 1_655
Li5 O2 2.206060 1_655
Li5 O3 2.206262 1_555
Li5 O10 2.291726 1_555
Li5 O13 2.294492 1_555
Li6 O11 2.204059 1_555
Li6 O14 2.206287 1_555
Li6 O6 2.237511 1_655
Li6 O5 2.238007 1_555
Li6 O3 2.242213 1_555
Li6 O0 2.242904 1_555
Li7 O7 2.202719 1_565
Li7 O6 2.202865 1_554
Li7 O1 2.205280 1_565
Li7 O0 2.205458 1_554
Li7 O8 2.292599 1_555
Li7 O15 2.292719 1_564
Ni0 O2 2.094895 1_555
Ni0 O6 2.094959 1_545
Ni0 O14 2.203717 1_445
Ni0 O9 2.208419 1_555
Ni0 O15 2.227299 1_555
Ni0 O10 2.231817 1_455
Ni1 O7 2.094455 1_556
Ni1 O3 2.095405 1_555
Ni1 O12 2.201115 1_656
Ni1 O11 2.208882 1_555
Ni1 O15 2.229787 1_555
Ni1 O10 2.231468 1_555
Ni2 O4 2.094745 1_555
Ni2 O0 2.095391 1_554
Ni2 O12 2.201606 1_555
Ni2 O11 2.207610 1_554
Ni2 O13 2.229928 1_555
Ni2 O8 2.231737 1_555
Ni3 O5 2.094440 1_555
Ni3 O1 2.095714 1_565
Ni3 O14 2.202452 1_555
Ni3 O9 2.207900 1_565
Ni3 O13 2.229195 1_455
Ni3 O8 2.231342 1_555
Bi0 O13 2.182060 1_555
Bi0 O10 2.183304 1_564
Bi0 O1 2.184538 1_665
Bi0 O0 2.184834 1_554
Bi0 O7 2.188879 1_565
Bi0 O6 2.189162 1_654
Bi1 O2 2.254661 1_655
Bi1 O1 2.255467 1_555
Bi1 O4 2.259299 1_555
Bi1 O7 2.259829 1_555
Bi1 O11 2.269678 1_554
Bi1 O14 2.271558 1_545
Bi2 O8 2.182543 1_555
Bi2 O15 2.183721 1_555
Bi2 O2 2.185136 1_555
Bi2 O3 2.185340 1_555
Bi2 O4 2.188926 1_555
Bi2 O5 2.189251 1_555
Bi3 O3 2.253993 1_455
Bi3 O0 2.254823 1_555
Bi3 O5 2.258669 1_555
Bi3 O6 2.259175 1_555
Bi3 O9 2.268067 1_565
Bi3 O12 2.270913 1_556
