# generated using pymatgen
data_KAg2PS4
_symmetry_space_group_name_H-M   'P 1'
_cell_length_a   6.35157196
_cell_length_b   6.35157196
_cell_length_c   6.35157196
_cell_angle_alpha   95.13316588
_cell_angle_beta   117.08195893
_cell_angle_gamma   117.08195893
_symmetry_Int_Tables_number   1
_chemical_formula_structural   KAg2PS4
_chemical_formula_sum   'K1 Ag2 P1 S4'
_cell_volume   188.36109720
_cell_formula_units_Z   1
loop_
 _symmetry_equiv_pos_site_id
 _symmetry_equiv_pos_as_xyz
  1  'x, y, z'
loop_
 _atom_site_type_symbol
 _atom_site_label
 _atom_site_symmetry_multiplicity
 _atom_site_fract_x
 _atom_site_fract_y
 _atom_site_fract_z
 _atom_site_occupancy
  K  K0  1  0.00000000  0.50000000  0.50000000  1
  Ag  Ag0  1  0.50000000  0.25000000  0.75000000  1
  Ag  Ag1  1  0.50000000  0.75000000  0.25000000  1
  P  P0  1  0.00000000  0.00000000  0.00000000  1
  S  S0  1  0.00000000  0.68141200  0.04478100  1
  S  S1  1  0.00000000  0.04478100  0.68141200  1
  S  S2  1  0.63663100  0.95521900  0.95521900  1
  S  S3  1  0.36336900  0.31858800  0.31858800  1
loop_
_geom_bond_atom_site_label_1
_geom_bond_atom_site_label_2
_geom_bond_distance
_geom_bond_site_symmetry_2
K0 S0 3.206833 1_555
K0 S1 3.206833 1_555
K0 S2 3.206833 1_555
K0 S3 3.206833 1_455
K0 S2 3.547863 1_444
K0 S0 3.547863 1_556
K0 S1 3.547863 1_565
K0 S3 3.547863 1_555
Ag0 S2 2.616091 1_545
Ag0 S1 2.616091 1_555
Ag0 S3 2.616091 1_555
Ag0 S0 2.616091 1_656
Ag1 S0 2.616091 1_555
Ag1 S2 2.616091 1_554
Ag1 S3 2.616091 1_555
Ag1 S1 2.616091 1_665
P0 S0 2.068474 1_545
P0 S3 2.068474 1_555
P0 S1 2.068474 1_554
P0 S2 2.068474 1_444
