# generated using pymatgen
data_Ba2ZnCuNi2F14
_symmetry_space_group_name_H-M   'P 1'
_cell_length_a   5.32747400
_cell_length_b   7.40078554
_cell_length_c   14.47845485
_cell_angle_alpha   89.85166813
_cell_angle_beta   89.75027692
_cell_angle_gamma   69.51256040
_symmetry_Int_Tables_number   1
_chemical_formula_structural   Ba2ZnCuNi2F14
_chemical_formula_sum   'Ba4 Zn2 Cu2 Ni4 F28'
_cell_volume   534.73693104
_cell_formula_units_Z   2
loop_
 _symmetry_equiv_pos_site_id
 _symmetry_equiv_pos_as_xyz
  1  'x, y, z'
loop_
 _atom_site_type_symbol
 _atom_site_label
 _atom_site_symmetry_multiplicity
 _atom_site_fract_x
 _atom_site_fract_y
 _atom_site_fract_z
 _atom_site_occupancy
  Ba  Ba0  1  0.75662800  0.38723300  0.61851200  1
  Ba  Ba1  1  0.85843900  0.38665200  0.11876500  1
  Ba  Ba2  1  0.23502400  0.60479300  0.37684500  1
  Ba  Ba3  1  0.15895100  0.60667400  0.87866200  1
  Zn  Zn0  1  0.39718700  0.04723600  0.75963900  1
  Zn  Zn1  1  0.55038500  0.03831300  0.25842600  1
  Cu  Cu0  1  0.51039200  0.00005900  0.00143300  1
  Cu  Cu1  1  0.49147700  0.99898100  0.50280700  1
  Ni  Ni0  1  0.88293600  0.22737100  0.87387800  1
  Ni  Ni1  1  0.13016600  0.76784200  0.12869300  1
  Ni  Ni2  1  0.89490100  0.21868500  0.37306900  1
  Ni  Ni3  1  0.10286800  0.77017900  0.62843300  1
  F  F0  1  0.89739700  0.96405500  0.33264800  1
  F  F1  1  0.57615500  0.22345900  0.46192900  1
  F  F2  1  0.40622200  0.77089900  0.54309800  1
  F  F3  1  0.18585900  0.51952500  0.57764200  1
  F  F4  1  0.50482800  0.09685700  0.62777100  1
  F  F5  1  0.61874800  0.90414800  0.87906200  1
  F  F6  1  0.18531900  0.23399100  0.95984200  1
  F  F7  1  0.91837200  0.01755100  0.15642000  1
  F  F8  1  0.06322000  0.32102600  0.77118700  1
  F  F9  1  0.80215300  0.48789200  0.41904800  1
  F  F10  1  0.58356100  0.24162300  0.78764100  1
  F  F11  1  0.70369700  0.49147500  0.91903900  1
  F  F12  1  0.17550200  0.23690500  0.28555400  1
  F  F13  1  0.41032400  0.75775200  0.20920800  1
  F  F14  1  0.40900300  0.09737200  0.12431500  1
  F  F15  1  0.96420600  0.65780100  0.21949800  1
  F  F16  1  0.29480800  0.84585800  0.01717500  1
  F  F17  1  0.07285600  0.01836600  0.65891100  1
  F  F18  1  0.72046700  0.15198400  0.98557700  1
  F  F19  1  0.86716500  0.84863000  0.51695500  1
  F  F20  1  0.84275300  0.76148300  0.04257000  1
  F  F21  1  0.84075800  0.74643500  0.70692100  1
  F  F22  1  0.61778900  0.31618300  0.27226400  1
  F  F23  1  0.12092800  0.15343800  0.48908200  1
  F  F24  1  0.46349100  0.90643000  0.37973300  1
  F  F25  1  0.12492900  0.96945300  0.83453800  1
  F  F26  1  0.37701300  0.65931500  0.71908600  1
  F  F27  1  0.30730000  0.51738800  0.08159000  1
loop_
_geom_bond_atom_site_label_1
_geom_bond_atom_site_label_2
_geom_bond_distance
_geom_bond_site_symmetry_2
Ba0 F8 2.694419 1_655
Ba0 F26 2.721026 1_555
Ba0 F17 2.722806 1_655
Ba0 F23 2.811868 1_655
Ba0 F3 2.844327 1_655
Ba0 F1 2.895190 1_555
Ba0 F4 2.906999 1_555
Ba0 F3 2.912666 1_555
Ba0 F10 2.944455 1_555
Ba0 F2 3.005113 1_555
Ba0 F9 3.010507 1_555
Ba0 F21 3.124577 1_555
Ba1 F7 2.691522 1_555
Ba1 F15 2.699136 1_555
Ba1 F22 2.700379 1_555
Ba1 F27 2.805251 1_555
Ba1 F18 2.863279 1_554
Ba1 F6 2.864400 1_654
Ba1 F27 2.924008 1_655
Ba1 F12 2.936700 1_655
Ba1 F20 2.956688 1_555
Ba1 F14 2.966236 1_655
Ba1 F11 3.033972 1_554
Ba1 F13 3.218482 1_555
Ba2 F15 2.655796 1_455
Ba2 F0 2.714339 1_455
Ba2 F9 2.796712 1_455
Ba2 F22 2.820302 1_555
Ba2 F24 2.893011 1_555
Ba2 F9 2.904149 1_555
Ba2 F19 2.953135 1_455
Ba2 F13 2.958147 1_555
Ba2 F2 2.992729 1_555
Ba2 F3 3.003062 1_555
Ba2 F1 3.032534 1_555
Ba2 F12 3.144377 1_555
Ba3 F26 2.669857 1_555
Ba3 F25 2.702014 1_555
Ba3 F11 2.787678 1_555
Ba3 F8 2.815885 1_555
Ba3 F11 2.895421 1_455
Ba3 F20 2.900054 1_456
Ba3 F16 2.933768 1_556
Ba3 F5 2.948563 1_455
Ba3 F6 2.953306 1_555
Ba3 F21 2.987039 1_455
Ba3 F27 3.055849 1_556
Ba3 F10 3.141212 1_555
Cu0 F18 1.856533 1_554
Cu0 F16 1.894007 1_545
Cu0 F5 1.920134 1_544
Cu0 F14 1.923988 1_555
Cu0 F6 2.064954 1_554
Cu0 F20 2.103031 1_545
Cu1 F23 1.914635 1_565
Cu1 F19 1.931168 1_555
Cu1 F24 1.935653 1_555
Cu1 F1 1.957284 1_565
Cu1 F4 1.961439 1_565
Cu1 F2 1.981200 1_555
F0 Ni2 1.970273 1_565
F0 Zn1 2.043913 1_565
F1 Ni2 2.116423 1_555
F2 Ni3 2.031486 1_555
F3 Ni3 1.899348 1_555
F4 Zn0 2.059895 1_555
F5 Zn0 2.153518 1_565
F6 Ni0 2.054180 1_455
F7 Ni1 1.841138 1_645
F7 Zn1 2.411061 1_555
F8 Ni0 2.015368 1_455
F8 Zn0 2.185132 1_555
F9 Ni2 1.992895 1_555
F10 Ni0 2.003182 1_555
F10 Zn0 2.055787 1_555
F11 Ni0 1.963264 1_555
F12 Ni2 1.995519 1_455
F12 Zn1 2.060226 1_555
F13 Ni1 1.878528 1_555
F13 Zn1 2.544155 1_565
F14 Zn1 2.075222 1_555
F15 Ni1 1.913578 1_655
F16 Ni1 2.011719 1_555
F17 Ni3 1.841751 1_545
F17 Zn0 2.332394 1_555
F18 Ni0 1.999262 1_555
F19 Ni3 2.005353 1_655
F20 Ni1 1.992225 1_655
F21 Ni3 1.851766 1_655
F22 Ni2 2.024334 1_555
F22 Zn1 2.217608 1_555
F23 Ni2 2.027540 1_455
F24 Zn1 2.133540 1_565
F25 Ni0 1.976517 1_465
F25 Zn0 2.044182 1_565
F26 Ni3 1.923865 1_555
F27 Ni1 1.888865 1_555
