# generated using pymatgen
data_U(CoGe)6
_symmetry_space_group_name_H-M   'P 1'
_cell_length_a   5.09557300
_cell_length_b   5.09557354
_cell_length_c   7.88386500
_cell_angle_alpha   90.00000000
_cell_angle_beta   90.00000000
_cell_angle_gamma   120.00000298
_symmetry_Int_Tables_number   1
_chemical_formula_structural   U(CoGe)6
_chemical_formula_sum   'U1 Co6 Ge6'
_cell_volume   177.27843092
_cell_formula_units_Z   1
loop_
 _symmetry_equiv_pos_site_id
 _symmetry_equiv_pos_as_xyz
  1  'x, y, z'
loop_
 _atom_site_type_symbol
 _atom_site_label
 _atom_site_symmetry_multiplicity
 _atom_site_fract_x
 _atom_site_fract_y
 _atom_site_fract_z
 _atom_site_occupancy
  U  U0  1  0.00000000  0.00000000  0.00000000  1
  Co  Co0  1  0.50000000  0.50000000  0.74992000  1
  Co  Co1  1  0.50000000  0.00000000  0.74992000  1
  Co  Co2  1  0.00000000  0.50000000  0.74992000  1
  Co  Co3  1  0.50000000  0.50000000  0.25008000  1
  Co  Co4  1  0.50000000  0.00000000  0.25008000  1
  Co  Co5  1  0.00000000  0.50000000  0.25008000  1
  Ge  Ge0  1  0.66666700  0.33333300  0.00000000  1
  Ge  Ge1  1  0.33333300  0.66666700  0.00000000  1
  Ge  Ge2  1  0.66666700  0.33333300  0.50000000  1
  Ge  Ge3  1  0.33333300  0.66666700  0.50000000  1
  Ge  Ge4  1  0.00000000  0.00000000  0.65373300  1
  Ge  Ge5  1  0.00000000  0.00000000  0.34626700  1
loop_
_geom_bond_atom_site_label_1
_geom_bond_atom_site_label_2
_geom_bond_distance
_geom_bond_site_symmetry_2
Co0 Ge3 2.458855 1_555
Co0 Ge2 2.458855 1_555
Co0 Ge1 2.459866 1_556
Co0 Ge0 2.459866 1_556
Co0 Co2 2.547786 1_655
Co0 Co2 2.547786 1_555
Co0 Co1 2.547787 1_555
Co0 Co1 2.547787 1_565
Co0 Ge4 2.658246 1_665
Co0 Ge4 2.658246 1_555
Co0 U0 3.221554 1_666
Co0 U0 3.221554 1_556
Co1 Ge3 2.458853 1_545
Co1 Ge2 2.458853 1_555
Co1 Ge0 2.459864 1_556
Co1 Ge1 2.459864 1_546
Co1 Co2 2.547787 1_545
Co1 Co2 2.547787 1_655
Co1 Ge4 2.658246 1_655
Co1 Ge4 2.658246 1_555
Co1 U0 3.221554 1_656
Co1 U0 3.221554 1_556
Co2 Ge2 2.458853 1_455
Co2 Ge3 2.458853 1_555
Co2 Ge0 2.459864 1_456
Co2 Ge1 2.459864 1_556
Co2 Ge4 2.658247 1_555
Co2 Ge4 2.658247 1_565
Co2 U0 3.221554 1_566
Co2 U0 3.221554 1_556
Co3 Ge3 2.458855 1_555
Co3 Ge2 2.458855 1_555
Co3 Ge1 2.459866 1_555
Co3 Ge0 2.459866 1_555
Co3 Co5 2.547786 1_555
Co3 Co5 2.547786 1_655
Co3 Co4 2.547787 1_555
Co3 Co4 2.547787 1_565
Co3 Ge5 2.658246 1_555
Co3 Ge5 2.658246 1_665
Co3 U0 3.221554 1_665
Co3 U0 3.221554 1_555
Co4 Ge2 2.458853 1_555
Co4 Ge3 2.458853 1_545
Co4 Ge1 2.459864 1_545
Co4 Ge0 2.459864 1_555
Co4 Co5 2.547787 1_655
Co4 Co5 2.547787 1_545
Co4 Ge5 2.658246 1_555
Co4 Ge5 2.658246 1_655
Co4 U0 3.221554 1_655
Co4 U0 3.221554 1_555
Co5 Ge3 2.458853 1_555
Co5 Ge2 2.458853 1_455
Co5 Ge1 2.459864 1_555
Co5 Ge0 2.459864 1_455
Co5 Ge5 2.658247 1_555
Co5 Ge5 2.658247 1_565
Co5 U0 3.221554 1_565
Co5 U0 3.221554 1_555
Ge0 U0 2.941928 1_655
Ge0 U0 2.941932 1_555
Ge0 U0 2.941932 1_665
Ge1 U0 2.941928 1_565
Ge1 U0 2.941932 1_665
Ge1 U0 2.941932 1_555
Ge4 Ge5 2.424020 1_555
Ge4 U0 2.729922 1_556
Ge5 U0 2.729922 1_555
