# generated using pymatgen
data_V4Pb3O3F19
_symmetry_space_group_name_H-M   'P 1'
_cell_length_a   10.40766947
_cell_length_b   10.40766947
_cell_length_c   9.29846200
_cell_angle_alpha   90.00000000
_cell_angle_beta   90.00000000
_cell_angle_gamma   119.99999662
_symmetry_Int_Tables_number   1
_chemical_formula_structural   V4Pb3O3F19
_chemical_formula_sum   'V8 Pb6 O6 F38'
_cell_volume   872.26560849
_cell_formula_units_Z   2
loop_
 _symmetry_equiv_pos_site_id
 _symmetry_equiv_pos_as_xyz
  1  'x, y, z'
loop_
 _atom_site_type_symbol
 _atom_site_label
 _atom_site_symmetry_multiplicity
 _atom_site_fract_x
 _atom_site_fract_y
 _atom_site_fract_z
 _atom_site_occupancy
  V  V0  1  0.92676400  0.23240900  0.20481600  1
  V  V1  1  0.30564500  0.07323600  0.20481600  1
  V  V2  1  0.76759100  0.69435500  0.20481600  1
  V  V3  1  0.23240900  0.92676400  0.70481600  1
  V  V4  1  0.07323600  0.30564500  0.70481600  1
  V  V5  1  0.69435500  0.76759100  0.70481600  1
  V  V6  1  0.66666700  0.33333300  0.92949000  1
  V  V7  1  0.33333300  0.66666700  0.42949000  1
  Pb  Pb0  1  0.07481500  0.60954300  0.02456000  1
  Pb  Pb1  1  0.53472800  0.92518500  0.02456000  1
  Pb  Pb2  1  0.39045700  0.46527200  0.02456000  1
  Pb  Pb3  1  0.60954300  0.07481500  0.52456000  1
  Pb  Pb4  1  0.92518500  0.53472800  0.52456000  1
  Pb  Pb5  1  0.46527200  0.39045700  0.52456000  1
  O  O0  1  0.00790900  0.16545600  0.29668800  1
  O  O1  1  0.15754800  0.99209100  0.29668800  1
  O  O2  1  0.83454400  0.84245200  0.29668800  1
  O  O3  1  0.16545600  0.00790900  0.79668800  1
  O  O4  1  0.99209100  0.15754800  0.79668800  1
  O  O5  1  0.84245200  0.83454400  0.79668800  1
  F  F0  1  0.08797200  0.36552400  0.08873800  1
  F  F1  1  0.27755200  0.91202800  0.08873800  1
  F  F2  1  0.63447600  0.72244800  0.08873800  1
  F  F3  1  0.36552400  0.08797200  0.58873800  1
  F  F4  1  0.91202800  0.27755200  0.58873800  1
  F  F5  1  0.72244800  0.63447600  0.58873800  1
  F  F6  1  0.83883000  0.09836000  0.05910200  1
  F  F7  1  0.25953000  0.16117000  0.05910200  1
  F  F8  1  0.90164000  0.74047000  0.05910200  1
  F  F9  1  0.09836000  0.83883000  0.55910200  1
  F  F10  1  0.16117000  0.25953000  0.55910200  1
  F  F11  1  0.74047000  0.90164000  0.55910200  1
  F  F12  1  0.73697200  0.13428100  0.29130300  1
  F  F13  1  0.39730900  0.26302800  0.29130300  1
  F  F14  1  0.86571900  0.60269100  0.29130300  1
  F  F15  1  0.13428100  0.73697200  0.79130300  1
  F  F16  1  0.26302800  0.39730900  0.79130300  1
  F  F17  1  0.60269100  0.86571900  0.79130300  1
  F  F18  1  0.95635800  0.39734500  0.31018300  1
  F  F19  1  0.44098800  0.04364200  0.31018300  1
  F  F20  1  0.60265500  0.55901200  0.31018300  1
  F  F21  1  0.39734500  0.95635800  0.81018300  1
  F  F22  1  0.04364200  0.44098800  0.81018300  1
  F  F23  1  0.55901200  0.60265500  0.81018300  1
  F  F24  1  0.82819000  0.36132700  0.05393800  1
  F  F25  1  0.53313700  0.17181000  0.05393800  1
  F  F26  1  0.63867300  0.46686300  0.05393800  1
  F  F27  1  0.36132700  0.82819000  0.55393800  1
  F  F28  1  0.17181000  0.53313700  0.55393800  1
  F  F29  1  0.46686300  0.63867300  0.55393800  1
  F  F30  1  0.80898200  0.49068100  0.81877200  1
  F  F31  1  0.68170000  0.19101800  0.81877200  1
  F  F32  1  0.50931900  0.31830000  0.81877200  1
  F  F33  1  0.49068100  0.80898200  0.31877200  1
  F  F34  1  0.19101800  0.68170000  0.31877200  1
  F  F35  1  0.31830000  0.50931900  0.31877200  1
  F  F36  1  0.33333300  0.66666700  0.01609800  1
  F  F37  1  0.66666700  0.33333300  0.51609800  1
loop_
_geom_bond_atom_site_label_1
_geom_bond_atom_site_label_2
_geom_bond_distance
_geom_bond_site_symmetry_2
O0 V0 1.586525 1_455
O1 V1 1.586517 1_565
O2 V2 1.586517 1_555
O3 V3 1.586525 1_545
O4 V4 1.586517 1_655
O5 V5 1.586517 1_555
F0 V0 1.890748 1_455
F0 Pb0 2.678163 1_555
F1 V1 1.890748 1_565
F1 Pb1 2.678163 1_555
F2 V2 1.890748 1_555
F2 Pb2 2.678163 1_555
F3 V3 1.890748 1_545
F3 Pb3 2.678163 1_555
F4 V4 1.890748 1_655
F4 Pb4 2.678163 1_555
F5 V5 1.890748 1_555
F5 Pb5 2.678163 1_555
F6 V0 1.828377 1_555
F6 Pb1 2.768462 1_545
F7 V1 1.828377 1_555
F7 Pb2 2.768462 1_555
F8 V2 1.828377 1_555
F8 Pb0 2.768462 1_655
F9 V3 1.828377 1_555
F9 Pb4 2.768462 1_455
F10 V4 1.828377 1_555
F10 Pb5 2.768462 1_555
F11 V5 1.828377 1_555
F11 Pb3 2.768462 1_565
F12 V0 1.890555 1_555
F12 Pb3 2.454669 1_555
F13 V1 1.890555 1_555
F13 Pb5 2.454669 1_555
F14 V2 1.890555 1_555
F14 Pb4 2.454669 1_555
F15 V3 1.890555 1_555
F15 Pb0 2.454669 1_556
F16 V4 1.890555 1_555
F16 Pb2 2.454669 1_556
F17 V5 1.890555 1_555
F17 Pb1 2.454669 1_556
F18 V0 1.863537 1_555
F18 Pb4 2.566542 1_555
F19 V1 1.863546 1_555
F19 Pb3 2.566535 1_555
F20 V2 1.863541 1_555
F20 Pb5 2.566538 1_555
F21 V3 1.863537 1_555
F21 Pb1 2.566542 1_556
F22 V4 1.863546 1_555
F22 Pb0 2.566535 1_556
F23 V5 1.863541 1_555
F23 Pb2 2.566538 1_556
F24 V6 1.939118 1_554
F24 V0 2.489482 1_555
F24 Pb0 2.589559 1_655
F25 V6 1.939121 1_554
F25 V1 2.489482 1_555
F25 Pb1 2.589559 1_545
F26 V6 1.939126 1_554
F26 V2 2.489482 1_555
F26 Pb2 2.589559 1_555
F27 V7 1.939118 1_555
F27 V3 2.489482 1_555
F27 Pb3 2.589559 1_565
F28 V7 1.939121 1_555
F28 V4 2.489482 1_555
F28 Pb4 2.589559 1_455
F29 V7 1.939126 1_555
F29 V5 2.489482 1_555
F29 Pb5 2.589559 1_555
F30 V6 1.873489 1_555
F31 V6 1.873489 1_555
F32 V6 1.873489 1_555
F33 V7 1.873489 1_555
F34 V7 1.873489 1_555
F35 V7 1.873489 1_555
F36 Pb0 2.449327 1_555
F36 Pb1 2.449330 1_555
F36 Pb2 2.449337 1_555
F37 Pb3 2.449327 1_555
F37 Pb4 2.449330 1_555
F37 Pb5 2.449337 1_555
