# generated using pymatgen
data_V2S5
_symmetry_space_group_name_H-M   'P 1'
_cell_length_a   4.33421200
_cell_length_b   6.51143600
_cell_length_c   13.86584000
_cell_angle_alpha   90.00000000
_cell_angle_beta   90.00000000
_cell_angle_gamma   90.00000000
_symmetry_Int_Tables_number   1
_chemical_formula_structural   V2S5
_chemical_formula_sum   'V4 S10'
_cell_volume   391.32096066
_cell_formula_units_Z   2
loop_
 _symmetry_equiv_pos_site_id
 _symmetry_equiv_pos_as_xyz
  1  'x, y, z'
loop_
 _atom_site_type_symbol
 _atom_site_label
 _atom_site_symmetry_multiplicity
 _atom_site_fract_x
 _atom_site_fract_y
 _atom_site_fract_z
 _atom_site_occupancy
  V  V0  1  0.00000000  0.40063100  0.64969800  1
  V  V1  1  0.50000000  0.59936900  0.85030200  1
  V  V2  1  0.50000000  0.59936900  0.14969800  1
  V  V3  1  0.00000000  0.40063100  0.35030200  1
  S  S0  1  0.50000000  0.52511800  0.67960000  1
  S  S1  1  0.00000000  0.47488200  0.82040000  1
  S  S2  1  0.00000000  0.47488200  0.17960000  1
  S  S3  1  0.50000000  0.52511800  0.32040000  1
  S  S4  1  0.00000000  0.09141500  0.35814600  1
  S  S5  1  0.50000000  0.90858500  0.14185400  1
  S  S6  1  0.50000000  0.90858500  0.85814600  1
  S  S7  1  0.50000000  0.46623500  0.00000000  1
  S  S8  1  0.00000000  0.53376500  0.50000000  1
  S  S9  1  0.00000000  0.09141500  0.64185400  1
loop_
_geom_bond_atom_site_label_1
_geom_bond_atom_site_label_2
_geom_bond_distance
_geom_bond_site_symmetry_2
S0 V0 2.350598 1_655
S0 V0 2.350598 1_555
S0 V1 2.415801 1_555
S1 V1 2.350598 1_455
S1 V1 2.350598 1_555
S1 V0 2.415801 1_555
S2 V2 2.350598 1_455
S2 V2 2.350598 1_555
S2 V3 2.415801 1_555
S3 V3 2.350598 1_555
S3 V3 2.350598 1_655
S3 V2 2.415801 1_555
S4 V3 2.016376 1_555
S5 V2 2.016376 1_555
S6 V1 2.016376 1_555
S7 V1 2.249442 1_554
S7 V2 2.249442 1_555
S8 V3 2.249442 1_555
S8 V0 2.249442 1_555
S9 V0 2.016376 1_555
