# generated using pymatgen
data_ThTe2MoO9
_symmetry_space_group_name_H-M   'P 1'
_cell_length_a   11.43037160
_cell_length_b   11.43037160
_cell_length_c   11.03527208
_cell_angle_alpha   70.56535898
_cell_angle_beta   70.56535898
_cell_angle_gamma   36.45079402
_symmetry_Int_Tables_number   1
_chemical_formula_structural   ThTe2MoO9
_chemical_formula_sum   'Th4 Te8 Mo4 O36'
_cell_volume   802.33836235
_cell_formula_units_Z   4
loop_
 _symmetry_equiv_pos_site_id
 _symmetry_equiv_pos_as_xyz
  1  'x, y, z'
loop_
 _atom_site_type_symbol
 _atom_site_label
 _atom_site_symmetry_multiplicity
 _atom_site_fract_x
 _atom_site_fract_y
 _atom_site_fract_z
 _atom_site_occupancy
  Th  Th0  1  0.69289400  0.00177200  0.47702300  1
  Th  Th1  1  0.99822800  0.30710600  0.02297700  1
  Th  Th2  1  0.30710600  0.99822800  0.52297700  1
  Th  Th3  1  0.00177200  0.69289400  0.97702300  1
  Te  Te0  1  0.22572600  0.55503200  0.28426600  1
  Te  Te1  1  0.44496800  0.77427400  0.21573400  1
  Te  Te2  1  0.77427400  0.44496800  0.71573400  1
  Te  Te3  1  0.55503200  0.22572600  0.78426600  1
  Te  Te4  1  0.81286300  0.66119500  0.33312800  1
  Te  Te5  1  0.33880500  0.18713700  0.16687200  1
  Te  Te6  1  0.18713700  0.33880500  0.66687200  1
  Te  Te7  1  0.66119500  0.81286300  0.83312800  1
  Mo  Mo0  1  0.74589300  0.17419300  0.09454000  1
  Mo  Mo1  1  0.82580700  0.25410700  0.40546000  1
  Mo  Mo2  1  0.25410700  0.82580700  0.90546000  1
  Mo  Mo3  1  0.17419300  0.74589300  0.59454000  1
  O  O0  1  0.97793800  0.65575500  0.38379100  1
  O  O1  1  0.34424500  0.02206200  0.11620900  1
  O  O2  1  0.02206200  0.34424500  0.61620900  1
  O  O3  1  0.65575500  0.97793800  0.88379100  1
  O  O4  1  0.60630700  0.90256000  0.40814600  1
  O  O5  1  0.09744000  0.39369300  0.09185400  1
  O  O6  1  0.39369300  0.09744000  0.59185400  1
  O  O7  1  0.90256000  0.60630700  0.90814600  1
  O  O8  1  0.21714000  0.47393000  0.16285100  1
  O  O9  1  0.52607000  0.78286000  0.33714900  1
  O  O10  1  0.78286000  0.52607000  0.83714900  1
  O  O11  1  0.47393000  0.21714000  0.66285100  1
  O  O12  1  0.82465300  0.02006000  0.24909900  1
  O  O13  1  0.97994000  0.17534700  0.25090100  1
  O  O14  1  0.17534700  0.97994000  0.75090100  1
  O  O15  1  0.02006000  0.82465300  0.74909900  1
  O  O16  1  0.78758900  0.78669600  0.16367700  1
  O  O17  1  0.21330400  0.21241100  0.33632300  1
  O  O18  1  0.21241100  0.21330400  0.83632300  1
  O  O19  1  0.78669600  0.78758900  0.66367700  1
  O  O20  1  0.80750600  0.10167400  0.49913000  1
  O  O21  1  0.89832600  0.19249400  0.00087000  1
  O  O22  1  0.19249400  0.89832600  0.50087000  1
  O  O23  1  0.10167400  0.80750600  0.99913000  1
  O  O24  1  0.70337100  0.11081000  0.00173400  1
  O  O25  1  0.88918900  0.29662900  0.49826600  1
  O  O26  1  0.29662900  0.88919000  0.99826600  1
  O  O27  1  0.11081000  0.70337100  0.50173400  1
  O  O28  1  0.40852700  0.31094100  0.38550900  1
  O  O29  1  0.68905900  0.59147300  0.11449100  1
  O  O30  1  0.59147300  0.68905900  0.61449100  1
  O  O31  1  0.31094100  0.40852700  0.88550900  1
  O  O32  1  0.51462100  0.41688200  0.13841700  1
  O  O33  1  0.58311800  0.48537900  0.36158300  1
  O  O34  1  0.48537900  0.58311800  0.86158300  1
  O  O35  1  0.41688200  0.51462100  0.63841700  1
loop_
_geom_bond_atom_site_label_1
_geom_bond_atom_site_label_2
_geom_bond_distance
_geom_bond_site_symmetry_2
Mo0 O32 1.778413 1_555
Mo0 O24 1.789270 1_555
Mo0 O12 1.814949 1_555
Mo0 O21 1.841742 1_555
Mo1 O33 1.778413 1_555
Mo1 O25 1.789260 1_555
Mo1 O13 1.814949 1_555
Mo1 O20 1.841742 1_555
Mo2 O34 1.778413 1_555
Mo2 O26 1.789270 1_555
Mo2 O14 1.814949 1_555
Mo2 O23 1.841742 1_555
Mo3 O35 1.778413 1_555
Mo3 O27 1.789270 1_555
Mo3 O15 1.814949 1_555
Mo3 O22 1.841742 1_555
O0 Te0 2.019722 1_655
O0 Te4 2.089696 1_555
O0 Th0 2.657704 1_565
O1 Te1 2.019722 1_545
O1 Te5 2.089696 1_555
O1 Th1 2.657704 1_455
O2 Te2 2.019722 1_455
O2 Te6 2.089696 1_555
O2 Th2 2.657704 1_545
O3 Te3 2.019722 1_565
O3 Te7 2.089696 1_555
O3 Th3 2.657704 1_655
O4 Te4 1.900379 1_555
O4 Th0 2.392298 1_565
O4 Th2 2.553353 1_555
O5 Te5 1.900379 1_555
O5 Th1 2.392298 1_455
O5 Th3 2.553353 1_554
O6 Te6 1.900379 1_555
O6 Th2 2.392298 1_545
O6 Th0 2.553353 1_555
O7 Te7 1.900379 1_555
O7 Th3 2.392298 1_655
O7 Th1 2.553353 1_556
O8 Te0 1.929928 1_555
O8 Te5 2.300546 1_555
O8 Th3 2.561548 1_554
O9 Te1 1.929928 1_555
O9 Te4 2.300546 1_555
O9 Th2 2.561548 1_555
O10 Te2 1.929928 1_555
O10 Te7 2.300546 1_555
O10 Th1 2.561548 1_556
O11 Te3 1.929928 1_555
O11 Te6 2.300546 1_555
O11 Th0 2.561548 1_555
O12 Th0 2.504782 1_555
O13 Th1 2.504782 1_555
O14 Th2 2.504782 1_555
O15 Th3 2.504782 1_555
O16 Te4 1.883001 1_555
O16 Th3 2.297175 1_654
O17 Te5 1.883001 1_555
O17 Th2 2.297175 1_545
O18 Te6 1.883001 1_555
O18 Th1 2.297175 1_456
O19 Te7 1.883001 1_555
O19 Th0 2.297175 1_565
O20 Th0 2.425785 1_555
O21 Th1 2.425785 1_555
O22 Th2 2.425785 1_555
O23 Th3 2.425785 1_555
O24 Th3 2.926347 1_644
O25 Th2 2.926356 1_645
O26 Th1 2.926347 1_466
O27 Th0 2.926347 1_465
O28 Te0 1.870602 1_555
O28 Th0 2.324664 1_555
O29 Te1 1.870602 1_555
O29 Th1 2.324664 1_555
O30 Te2 1.870602 1_555
O30 Th2 2.324664 1_555
O31 Te3 1.870602 1_555
O31 Th3 2.324664 1_555
O32 Te0 2.398783 1_555
O33 Te1 2.398783 1_555
O34 Te2 2.398783 1_555
O35 Te3 2.398783 1_555
