# generated using pymatgen
data_Tm3(P3Pd10)2
_symmetry_space_group_name_H-M   'P 1'
_cell_length_a   8.59321091
_cell_length_b   8.59325499
_cell_length_c   8.59317757
_cell_angle_alpha   60.00020516
_cell_angle_beta   60.00009290
_cell_angle_gamma   60.00024188
_symmetry_Int_Tables_number   1
_chemical_formula_structural   Tm3(P3Pd10)2
_chemical_formula_sum   'Tm3 P6 Pd20'
_cell_volume   448.69758317
_cell_formula_units_Z   1
loop_
 _symmetry_equiv_pos_site_id
 _symmetry_equiv_pos_as_xyz
  1  'x, y, z'
loop_
 _atom_site_type_symbol
 _atom_site_label
 _atom_site_symmetry_multiplicity
 _atom_site_fract_x
 _atom_site_fract_y
 _atom_site_fract_z
 _atom_site_occupancy
  Tm  Tm0  1  0.25000163  0.24998388  0.25000060  1
  Tm  Tm1  1  0.74999863  0.75000746  0.74998771  1
  Tm  Tm2  1  0.00000029  0.99999858  0.99999522  1
  P  P0  1  0.73675267  0.26324734  0.26324445  1
  P  P1  1  0.26324949  0.73674938  0.73675374  1
  P  P2  1  0.26324910  0.73674755  0.26324693  1
  P  P3  1  0.73675051  0.26325192  0.73675161  1
  P  P4  1  0.26324661  0.26324946  0.73674935  1
  P  P5  1  0.73675254  0.73674849  0.26325059  1
  Pd  Pd0  1  0.38366716  0.38366983  0.38367873  1
  Pd  Pd1  1  0.61631896  0.61633176  0.61632798  1
  Pd  Pd2  1  0.38367538  0.38367653  0.84897852  1
  Pd  Pd3  1  0.38367064  0.84898021  0.38368236  1
  Pd  Pd4  1  0.61632443  0.61633815  0.15101856  1
  Pd  Pd5  1  0.61632829  0.15101574  0.61633439  1
  Pd  Pd6  1  0.84898010  0.38367103  0.38368133  1
  Pd  Pd7  1  0.15101951  0.61633531  0.61633007  1
  Pd  Pd8  1  0.34488542  0.00000164  -0.00000117  1
  Pd  Pd9  1  0.65512014  -0.00000282  0.99999973  1
  Pd  Pd10  1  0.00000045  0.34488196  0.65511350  1
  Pd  Pd11  1  0.99999762  0.65511645  0.34488307  1
  Pd  Pd12  1  0.00000566  0.34488729  0.99999749  1
  Pd  Pd13  1  0.65511683  0.99999297  0.34488599  1
  Pd  Pd14  1  -0.00000007  0.65511903  -0.00000291  1
  Pd  Pd15  1  0.34488168  -0.00000365  0.65511641  1
  Pd  Pd16  1  0.00000601  0.99999850  0.34488304  1
  Pd  Pd17  1  0.00000160  -0.00000113  0.65511838  1
  Pd  Pd18  1  0.65511410  0.34488517  0.99999659  1
  Pd  Pd19  1  0.34488263  0.65511798  -0.00000326  1
loop_
_geom_bond_atom_site_label_1
_geom_bond_atom_site_label_2
_geom_bond_distance
_geom_bond_site_symmetry_2
P0 Pd18 2.368423 1_554
P0 Pd12 2.368458 1_654
P0 Pd13 2.368470 1_545
P0 Pd16 2.368473 1_645
P0 Pd0 2.477703 1_555
P0 Pd6 2.477713 1_555
P0 Pd5 2.477723 1_555
P0 Pd4 2.477756 1_555
P0 Tm2 3.199174 1_644
P1 Pd19 2.368372 1_556
P1 Pd15 2.368402 1_565
P1 Pd14 2.368404 1_556
P1 Pd17 2.368437 1_565
P1 Pd7 2.477570 1_555
P1 Pd1 2.477590 1_555
P1 Pd3 2.477592 1_555
P1 Pd2 2.477629 1_555
P1 Tm2 3.199130 1_555
P2 Pd19 2.368407 1_555
P2 Pd11 2.368427 1_455
P2 Pd16 2.368438 1_555
P2 Pd8 2.368466 1_565
P2 Pd4 2.477631 1_555
P2 Pd0 2.477663 1_555
P2 Pd7 2.477675 1_555
P2 Pd3 2.477723 1_555
P2 Tm2 3.199187 1_554
P3 Pd18 2.368376 1_555
P3 Pd10 2.368403 1_655
P3 Pd9 2.368455 1_555
P3 Pd17 2.368465 1_655
P3 Pd6 2.477584 1_555
P3 Pd5 2.477624 1_555
P3 Pd2 2.477630 1_555
P3 Pd1 2.477678 1_555
P3 Tm2 3.199143 1_645
P4 Pd12 2.368407 1_555
P4 Pd10 2.368416 1_555
P4 Pd8 2.368444 1_556
P4 Pd15 2.368461 1_555
P4 Pd0 2.477587 1_555
P4 Pd5 2.477675 1_555
P4 Pd2 2.477692 1_555
P4 Pd7 2.477721 1_555
P4 Tm2 3.199174 1_545
P5 Pd11 2.368390 1_555
P5 Pd13 2.368402 1_555
P5 Pd14 2.368433 1_655
P5 Pd9 2.368437 1_564
P5 Pd4 2.477589 1_555
P5 Pd1 2.477635 1_555
P5 Pd6 2.477661 1_555
P5 Pd3 2.477676 1_555
P5 Tm2 3.199178 1_654
Pd0 Tm0 2.813752 1_555
Pd0 Pd10 3.008782 1_555
Pd0 Pd15 3.008842 1_555
Pd0 Pd11 3.008846 1_455
Pd0 Pd18 3.008886 1_554
Pd0 Pd19 3.008893 1_555
Pd0 Pd13 3.008901 1_545
Pd1 Tm1 2.813651 1_555
Pd1 Pd19 3.008786 1_556
Pd1 Pd15 3.008793 1_565
Pd1 Pd13 3.008797 1_555
Pd1 Pd18 3.008828 1_555
Pd1 Pd11 3.008868 1_555
Pd1 Pd10 3.008905 1_655
Pd2 Tm0 2.813696 1_556
Pd2 Pd8 3.008873 1_556
Pd2 Pd9 3.008894 1_555
Pd3 Tm0 2.813596 1_565
Pd3 Pd8 3.008894 1_565
Pd3 Pd9 3.008897 1_564
Pd4 Tm1 2.813757 1_554
Pd4 Pd9 3.008770 1_564
Pd4 Pd8 3.008802 1_565
Pd5 Tm1 2.813629 1_545
Pd5 Pd9 3.008778 1_555
Pd5 Pd8 3.008788 1_556
Pd6 Tm0 2.813704 1_655
Pd7 Tm1 2.813699 1_455
Pd8 Pd9 2.665897 1_554
Pd8 Tm2 2.963699 1_544
Pd8 Tm0 3.317587 1_555
Pd8 Tm1 3.317722 1_544
Pd9 Tm2 2.963615 1_645
Pd9 Tm0 3.317672 1_556
Pd9 Tm1 3.317735 1_545
Pd10 Pd11 2.665903 1_455
Pd10 Pd17 2.963642 1_555
Pd10 Tm2 2.963660 1_545
Pd10 Pd18 2.963666 1_455
Pd10 Pd15 2.963674 1_555
Pd10 Pd12 2.963695 1_555
Pd10 Pd6 3.008749 1_455
Pd10 Pd7 3.008953 1_555
Pd10 Tm0 3.317727 1_555
Pd10 Tm1 3.317754 1_455
Pd11 Pd13 2.963633 1_555
Pd11 Pd14 2.963645 1_655
Pd11 Pd19 2.963674 1_655
Pd11 Tm2 2.963681 1_654
Pd11 Pd16 2.963695 1_655
Pd11 Pd6 3.008816 1_555
Pd11 Pd7 3.008911 1_655
Pd11 Tm1 3.317639 1_555
Pd11 Tm0 3.317838 1_655
Pd12 Pd14 2.665874 1_556
Pd12 Pd8 2.963668 1_556
Pd12 Pd16 2.963699 1_546
Pd12 Pd18 2.963739 1_455
Pd12 Tm2 2.963749 1_545
Pd12 Pd2 3.008814 1_555
Pd12 Pd7 3.008825 1_555
Pd12 Pd6 3.008884 1_456
Pd12 Pd4 3.008918 1_456
Pd12 Tm0 3.317622 1_556
Pd12 Tm1 3.317798 1_455
Pd13 Pd15 2.665894 1_565
Pd13 Pd9 2.963637 1_564
Pd13 Tm2 2.963686 1_654
Pd13 Pd16 2.963717 1_655
Pd13 Pd18 2.963730 1_564
Pd13 Pd3 3.008793 1_555
Pd13 Pd5 3.008901 1_565
Pd13 Tm1 3.317586 1_555
Pd13 Tm0 3.317709 1_565
Pd14 Pd17 2.963631 1_564
Pd14 Tm2 2.963631 1_554
Pd14 Pd9 2.963636 1_464
Pd14 Pd19 2.963644 1_555
Pd14 Pd7 3.008758 1_554
Pd14 Pd4 3.008825 1_455
Pd14 Pd2 3.008856 1_554
Pd14 Pd6 3.008910 1_455
Pd14 Tm1 3.317758 1_454
Pd14 Tm0 3.317805 1_555
Pd15 Pd17 2.963608 1_555
Pd15 Tm2 2.963626 1_545
Pd15 Pd19 2.963632 1_546
Pd15 Pd8 2.963675 1_556
Pd15 Pd3 3.008740 1_545
Pd15 Pd5 3.008900 1_555
Pd15 Tm1 3.317668 1_545
Pd15 Tm0 3.317682 1_555
Pd16 Pd17 2.665890 1_565
Pd16 Pd8 2.963641 1_565
Pd16 Tm2 2.963707 1_554
Pd16 Pd3 3.008813 1_555
Pd16 Pd7 3.008813 1_555
Pd16 Pd6 3.008877 1_465
Pd16 Pd5 3.008888 1_465
Pd16 Tm0 3.317577 1_565
Pd16 Tm1 3.317662 1_455
Pd17 Tm2 2.963581 1_545
Pd17 Pd9 2.963637 1_455
Pd17 Pd7 3.008779 1_545
Pd17 Pd3 3.008796 1_545
Pd17 Pd5 3.008826 1_455
Pd17 Pd6 3.008832 1_455
Pd17 Tm0 3.317656 1_555
Pd17 Tm1 3.317720 1_445
Pd18 Pd19 2.665907 1_556
Pd18 Pd9 2.963671 1_555
Pd18 Tm2 2.963700 1_645
Pd18 Pd2 3.008781 1_555
Pd18 Pd4 3.008939 1_556
Pd18 Tm0 3.317747 1_556
Pd18 Tm1 3.317770 1_555
Pd19 Tm2 2.963658 1_554
Pd19 Pd8 2.963694 1_565
Pd19 Pd2 3.008808 1_554
Pd19 Pd4 3.008879 1_555
Pd19 Tm1 3.317727 1_554
Pd19 Tm0 3.317843 1_555
