# generated using pymatgen
data_LiMg6Cu
_symmetry_space_group_name_H-M   'P 1'
_cell_length_a   4.88675900
_cell_length_b   6.22973200
_cell_length_c   10.53860800
_cell_angle_alpha   90.00000000
_cell_angle_beta   90.00000000
_cell_angle_gamma   90.00000000
_symmetry_Int_Tables_number   1
_chemical_formula_structural   LiMg6Cu
_chemical_formula_sum   'Li2 Mg12 Cu2'
_cell_volume   320.82893967
_cell_formula_units_Z   2
loop_
 _symmetry_equiv_pos_site_id
 _symmetry_equiv_pos_as_xyz
  1  'x, y, z'
loop_
 _atom_site_type_symbol
 _atom_site_label
 _atom_site_symmetry_multiplicity
 _atom_site_fract_x
 _atom_site_fract_y
 _atom_site_fract_z
 _atom_site_occupancy
  Li  Li0  1  0.50000000  0.50000000  0.83323700  1
  Li  Li1  1  0.50000000  0.00000000  0.33323700  1
  Mg  Mg0  1  0.50000000  0.24893100  0.08422000  1
  Mg  Mg1  1  0.50000000  0.75106900  0.08422000  1
  Mg  Mg2  1  0.00000000  0.24477700  0.91224000  1
  Mg  Mg3  1  0.00000000  0.75522300  0.91224000  1
  Mg  Mg4  1  0.00000000  0.50000000  0.17141100  1
  Mg  Mg5  1  0.00000000  0.50000000  0.66856700  1
  Mg  Mg6  1  0.50000000  0.74893100  0.58422000  1
  Mg  Mg7  1  0.50000000  0.25106900  0.58422000  1
  Mg  Mg8  1  0.00000000  0.74477700  0.41224000  1
  Mg  Mg9  1  0.00000000  0.25522300  0.41224000  1
  Mg  Mg10  1  0.00000000  0.00000000  0.67141100  1
  Mg  Mg11  1  0.00000000  0.00000000  0.16856700  1
  Cu  Cu0  1  0.50000000  0.50000000  0.33386800  1
  Cu  Cu1  1  0.50000000  0.00000000  0.83386800  1
loop_
_geom_bond_atom_site_label_1
_geom_bond_atom_site_label_2
_geom_bond_distance
_geom_bond_site_symmetry_2
Li0 Mg5 2.996947 1_655
Li0 Mg5 2.996947 1_555
Li0 Mg3 3.031716 1_655
Li0 Mg2 3.031716 1_655
Li0 Mg3 3.031716 1_555
Li0 Mg2 3.031716 1_555
Li0 Mg7 3.048247 1_555
Li0 Mg6 3.048247 1_555
Li0 Mg1 3.072860 1_556
Li0 Mg0 3.072860 1_556
Li1 Mg11 2.996947 1_655
Li1 Mg11 2.996947 1_555
Li1 Mg9 3.031716 1_555
Li1 Mg9 3.031716 1_655
Li1 Mg8 3.031716 1_645
Li1 Mg8 3.031716 1_545
Li1 Mg0 3.048247 1_555
Li1 Mg1 3.048247 1_545
Li1 Mg6 3.072860 1_545
Li1 Mg7 3.072860 1_555
Mg0 Mg11 3.027399 1_555
Mg0 Mg11 3.027399 1_655
Mg0 Mg2 3.042314 1_554
Mg0 Mg2 3.042314 1_654
Mg0 Mg4 3.043159 1_555
Mg0 Mg4 3.043159 1_655
Mg0 Mg1 3.101547 1_545
Mg0 Mg1 3.128185 1_555
Mg1 Mg11 3.027399 1_665
Mg1 Mg11 3.027399 1_565
Mg1 Mg3 3.042314 1_554
Mg1 Mg3 3.042314 1_654
Mg1 Mg4 3.043159 1_555
Mg1 Mg4 3.043159 1_655
Mg2 Mg5 3.020348 1_555
Mg2 Mg3 3.049790 1_545
Mg2 Mg4 3.160382 1_556
Mg2 Mg3 3.179942 1_555
Mg3 Mg5 3.020348 1_555
Mg3 Mg4 3.160382 1_556
Mg4 Mg8 2.960872 1_555
Mg4 Mg9 2.960872 1_555
Mg5 Mg7 3.027399 1_455
Mg5 Mg7 3.027399 1_555
Mg5 Mg6 3.027399 1_455
Mg5 Mg6 3.027399 1_555
Mg5 Mg8 3.102013 1_555
Mg5 Mg9 3.102013 1_555
Mg6 Mg8 3.042314 1_655
Mg6 Mg8 3.042314 1_555
Mg6 Mg7 3.101547 1_555
Mg6 Mg7 3.128185 1_565
Mg7 Mg9 3.042314 1_655
Mg7 Mg9 3.042314 1_555
Mg8 Mg9 3.049790 1_555
Mg8 Mg9 3.179942 1_565
Mg10 Mg2 2.960872 1_555
Mg10 Mg3 2.960872 1_545
Mg10 Mg7 3.043159 1_555
Mg10 Mg6 3.043159 1_445
Mg10 Mg6 3.043159 1_545
Mg10 Mg7 3.043159 1_455
Mg10 Mg5 3.115010 1_555
Mg10 Mg5 3.115010 1_545
Mg10 Mg9 3.160382 1_555
Mg10 Mg8 3.160382 1_545
Mg11 Mg9 3.020348 1_555
Mg11 Mg8 3.020348 1_545
Mg11 Mg3 3.102013 1_544
Mg11 Mg2 3.102013 1_554
Mg11 Mg4 3.115010 1_555
Mg11 Mg4 3.115010 1_545
Cu0 Mg4 2.983503 1_655
Cu0 Mg4 2.983503 1_555
Cu0 Mg8 2.996260 1_655
Cu0 Mg8 2.996260 1_555
Cu0 Mg9 2.996260 1_655
Cu0 Mg9 2.996260 1_555
Cu0 Mg7 3.060368 1_555
Cu0 Mg6 3.060368 1_555
Cu0 Mg1 3.060759 1_555
Cu0 Mg0 3.060759 1_555
Cu0 Li1 3.114873 1_565
Cu0 Li1 3.114873 1_555
Cu1 Mg10 2.983503 1_555
Cu1 Mg10 2.983503 1_655
Cu1 Mg2 2.996260 1_555
Cu1 Mg3 2.996260 1_645
Cu1 Mg2 2.996260 1_655
Cu1 Mg3 2.996260 1_545
Cu1 Mg0 3.060368 1_556
Cu1 Mg1 3.060368 1_546
Cu1 Mg6 3.060759 1_545
Cu1 Mg7 3.060759 1_555
Cu1 Li0 3.114873 1_545
Cu1 Li0 3.114873 1_555
