# generated using pymatgen
data_MgAg20(BiO4)4
_symmetry_space_group_name_H-M   'P 1'
_cell_length_a   6.04961236
_cell_length_b   9.05782379
_cell_length_c   13.10699807
_cell_angle_alpha   90.73140497
_cell_angle_beta   91.40155057
_cell_angle_gamma   93.20262495
_symmetry_Int_Tables_number   1
_chemical_formula_structural   MgAg20(BiO4)4
_chemical_formula_sum   'Mg1 Ag20 Bi4 O16'
_cell_volume   716.80720666
_cell_formula_units_Z   1
loop_
 _symmetry_equiv_pos_site_id
 _symmetry_equiv_pos_as_xyz
  1  'x, y, z'
loop_
 _atom_site_type_symbol
 _atom_site_label
 _atom_site_symmetry_multiplicity
 _atom_site_fract_x
 _atom_site_fract_y
 _atom_site_fract_z
 _atom_site_occupancy
  Mg  Mg0  1  0.19395060  0.72626665  0.43671786  1
  Ag  Ag0  1  0.29352168  0.72271223  0.13366900  1
  Ag  Ag1  1  0.66733310  0.77400211  0.63375502  1
  Ag  Ag2  1  0.00432610  0.49176040  0.99338913  1
  Ag  Ag3  1  0.49470499  0.00727071  0.49197629  1
  Ag  Ag4  1  0.00039956  0.12133825  0.66579008  1
  Ag  Ag5  1  0.46327663  0.63674392  0.83228410  1
  Ag  Ag6  1  0.92808063  0.95854963  0.38284745  1
  Ag  Ag7  1  0.53215030  0.35398203  0.15576591  1
  Ag  Ag8  1  0.52118133  0.98579910  0.24268446  1
  Ag  Ag9  1  0.05030964  0.49827075  0.26392637  1
  Ag  Ag10  1  0.44126279  0.01079725  0.74972580  1
  Ag  Ag11  1  0.00760171  0.48294555  0.74301522  1
  Ag  Ag12  1  0.48419351  0.99728864  0.99323719  1
  Ag  Ag13  1  0.04729627  0.44051122  0.46892117  1
  Ag  Ag14  1  0.23074770  0.25457928  0.86456374  1
  Ag  Ag15  1  0.18861513  0.75960835  0.65311429  1
  Ag  Ag16  1  0.79352583  0.71930167  0.13738618  1
  Ag  Ag17  1  0.76493899  0.24966091  0.35013322  1
  Ag  Ag18  1  0.72465455  0.25698516  0.86500019  1
  Ag  Ag19  1  0.29469262  0.24104263  0.35431283  1
  Bi  Bi0  1  0.49531524  0.37897567  0.62165798  1
  Bi  Bi1  1  0.96064400  0.85539474  0.88935051  1
  Bi  Bi2  1  0.63863420  0.61840247  0.38194304  1
  Bi  Bi3  1  0.01403405  0.12815162  0.10627632  1
  O  O0  1  0.10786360  0.36556480  0.11679665  1
  O  O1  1  0.43010166  0.84356215  0.36896992  1
  O  O2  1  0.89610047  0.61318741  0.86671018  1
  O  O3  1  0.55974369  0.14534764  0.62443552  1
  O  O4  1  0.93679327  0.89408179  0.71829812  1
  O  O5  1  0.48357011  0.39293533  0.79761222  1
  O  O6  1  0.96959923  0.12318020  0.92943320  1
  O  O7  1  0.39962195  0.64395396  0.54503600  1
  O  O8  1  0.04316755  0.85195063  0.06886213  1
  O  O9  1  0.54166793  0.37016343  0.44240465  1
  O  O10  1  0.64836905  0.12828650  0.11662196  1
  O  O11  1  0.89184918  0.76967794  0.47278679  1
  O  O12  1  0.32253707  0.85876541  0.87259061  1
  O  O13  1  0.13360407  0.34388373  0.62110063  1
  O  O14  1  0.01944178  0.12383018  0.28039257  1
  O  O15  1  0.53682826  0.58985900  0.20483848  1
loop_
_geom_bond_atom_site_label_1
_geom_bond_atom_site_label_2
_geom_bond_distance
_geom_bond_site_symmetry_2
Mg0 O11 1.958581 1_455
Mg0 O1 1.968448 1_555
Mg0 O7 2.040558 1_555
Ag0 O8 2.132198 1_555
Ag0 O15 2.155029 1_555
Ag1 O4 2.179675 1_555
Ag1 O7 2.241082 1_555
Ag1 O11 2.538041 1_555
Ag2 O0 2.095916 1_556
Ag2 O2 2.114033 1_455
Ag3 O3 2.142279 1_555
Ag3 O1 2.189586 1_545
Ag4 O4 2.195347 1_445
Ag4 O13 2.219811 1_555
Ag4 O3 2.728493 1_455
Ag5 O5 2.259627 1_555
Ag5 O12 2.287894 1_555
Ag5 O2 2.666893 1_555
Ag6 O14 2.084521 1_665
Ag6 O11 2.094432 1_555
Ag7 O15 2.221832 1_555
Ag7 O10 2.255708 1_555
Ag7 O0 2.612953 1_555
Ag8 O1 2.173239 1_555
Ag8 O10 2.234619 1_565
Ag9 O0 2.303338 1_555
Ag10 O3 2.169536 1_555
Ag10 O12 2.237913 1_545
Ag11 O2 2.137478 1_455
Ag11 O13 2.199206 1_555
Ag12 O10 2.179556 1_566
Ag12 O12 2.183545 1_555
Ag13 O13 2.249851 1_555
Ag14 O6 2.125284 1_455
Ag14 O5 2.135288 1_555
Ag15 O4 2.186049 1_455
Ag15 O7 2.221168 1_555
Ag16 O8 2.102917 1_655
Ag16 O15 2.111412 1_555
Ag17 O9 2.165488 1_555
Ag17 O14 2.177939 1_655
Ag18 O6 2.131547 1_555
Ag18 O5 2.142210 1_555
Ag19 O14 2.129775 1_555
Ag19 O9 2.149241 1_555
Bi0 O3 2.173664 1_555
Bi0 O13 2.193354 1_555
Bi0 O5 2.311129 1_555
Bi0 O9 2.373809 1_555
Bi0 O7 2.700495 1_555
Bi1 O12 2.204202 1_655
Bi1 O2 2.221618 1_555
Bi1 O4 2.275958 1_555
Bi1 O8 2.394223 1_656
Bi1 O6 2.472578 1_565
Bi2 O11 2.297047 1_555
Bi2 O15 2.394073 1_555
Bi2 O9 2.439006 1_555
Bi2 O1 2.462848 1_555
Bi2 O7 2.624849 1_555
Bi3 O0 2.194961 1_555
Bi3 O10 2.219659 1_455
Bi3 O14 2.282442 1_555
Bi3 O6 2.326450 1_454
Bi3 O8 2.559808 1_545
