# generated using pymatgen
data_Ba4Ta2TiZnO12
_symmetry_space_group_name_H-M   'P 1'
_cell_length_a   5.81220100
_cell_length_b   5.81220100
_cell_length_c   8.22903200
_cell_angle_alpha   90.00000000
_cell_angle_beta   90.00000000
_cell_angle_gamma   90.00000000
_symmetry_Int_Tables_number   1
_chemical_formula_structural   Ba4Ta2TiZnO12
_chemical_formula_sum   'Ba4 Ta2 Ti1 Zn1 O12'
_cell_volume   277.99052956
_cell_formula_units_Z   1
loop_
 _symmetry_equiv_pos_site_id
 _symmetry_equiv_pos_as_xyz
  1  'x, y, z'
loop_
 _atom_site_type_symbol
 _atom_site_label
 _atom_site_symmetry_multiplicity
 _atom_site_fract_x
 _atom_site_fract_y
 _atom_site_fract_z
 _atom_site_occupancy
  Ba  Ba0  1  0.50000000  0.00000000  0.74304000  1
  Ba  Ba1  1  0.00000000  0.50000000  0.74304000  1
  Ba  Ba2  1  0.50000000  0.00000000  0.25696000  1
  Ba  Ba3  1  0.00000000  0.50000000  0.25696000  1
  Ta  Ta0  1  0.50000000  0.50000000  0.50000000  1
  Ta  Ta1  1  0.00000000  0.00000000  0.00000000  1
  Ti  Ti0  1  0.50000000  0.50000000  0.00000000  1
  Zn  Zn0  1  0.00000000  0.00000000  0.50000000  1
  O  O0  1  0.25961000  0.25961000  0.50000000  1
  O  O1  1  0.74039000  0.74039000  0.50000000  1
  O  O2  1  0.25196200  0.25196200  0.00000000  1
  O  O3  1  0.74803800  0.74803800  0.00000000  1
  O  O4  1  0.00000000  0.00000000  0.76280000  1
  O  O5  1  0.50000000  0.50000000  0.75625400  1
  O  O6  1  0.00000000  0.00000000  0.23720000  1
  O  O7  1  0.50000000  0.50000000  0.24374600  1
  O  O8  1  0.25961000  0.74039000  0.50000000  1
  O  O9  1  0.74039000  0.25961000  0.50000000  1
  O  O10  1  0.25196200  0.74803800  0.00000000  1
  O  O11  1  0.74803800  0.25196200  0.00000000  1
loop_
_geom_bond_atom_site_label_1
_geom_bond_atom_site_label_2
_geom_bond_distance
_geom_bond_site_symmetry_2
Ba0 O1 2.868603 1_545
Ba0 O9 2.868603 1_555
Ba0 O0 2.868603 1_555
Ba0 O8 2.868603 1_545
Ba0 O5 2.908134 1_555
Ba0 O5 2.908134 1_545
Ba0 O4 2.910646 1_655
Ba0 O4 2.910646 1_555
Ba0 O3 2.948596 1_546
Ba0 O11 2.948596 1_556
Ba0 O10 2.948596 1_546
Ba0 O2 2.948596 1_556
Ba1 O9 2.868603 1_455
Ba1 O8 2.868603 1_555
Ba1 O0 2.868603 1_555
Ba1 O1 2.868603 1_455
Ba1 O5 2.908134 1_555
Ba1 O5 2.908134 1_455
Ba1 O4 2.910646 1_565
Ba1 O4 2.910646 1_555
Ba1 O10 2.948596 1_556
Ba1 O3 2.948596 1_456
Ba1 O2 2.948596 1_556
Ba1 O11 2.948596 1_456
Ba2 O1 2.868603 1_545
Ba2 O0 2.868603 1_555
Ba2 O8 2.868603 1_545
Ba2 O9 2.868603 1_555
Ba2 O7 2.908134 1_545
Ba2 O7 2.908134 1_555
Ba2 O6 2.910646 1_655
Ba2 O6 2.910646 1_555
Ba2 O3 2.948596 1_545
Ba2 O11 2.948596 1_555
Ba2 O10 2.948596 1_545
Ba2 O2 2.948596 1_555
Ba3 O0 2.868603 1_555
Ba3 O1 2.868603 1_455
Ba3 O9 2.868603 1_455
Ba3 O8 2.868603 1_555
Ba3 O7 2.908134 1_455
Ba3 O7 2.908134 1_555
Ba3 O6 2.910646 1_555
Ba3 O6 2.910646 1_565
Ba3 O11 2.948596 1_455
Ba3 O10 2.948596 1_555
Ba3 O3 2.948596 1_455
Ba3 O2 2.948596 1_555
O0 Ta0 1.975932 1_555
O0 Zn0 2.133915 1_555
O1 Ta0 1.975932 1_555
O1 Zn0 2.133915 1_665
O2 Ti0 2.038796 1_555
O2 Ta1 2.071050 1_555
O3 Ti0 2.038796 1_555
O3 Ta1 2.071050 1_665
O4 Ta1 1.951926 1_556
O4 Zn0 2.162590 1_555
O5 Ti0 2.005794 1_556
O5 Ta0 2.108722 1_555
O6 Ta1 1.951926 1_555
O6 Zn0 2.162590 1_555
O7 Ti0 2.005794 1_555
O7 Ta0 2.108722 1_555
O8 Ta0 1.975932 1_555
O8 Zn0 2.133915 1_565
O9 Ta0 1.975932 1_555
O9 Zn0 2.133915 1_655
O10 Ti0 2.038796 1_555
O10 Ta1 2.071050 1_565
O11 Ti0 2.038796 1_555
O11 Ta1 2.071050 1_655
