# generated using pymatgen
data_K4Ag2Sn3S9O2
_symmetry_space_group_name_H-M   'P 1'
_cell_length_a   25.59333000
_cell_length_b   8.03209400
_cell_length_c   11.36743032
_cell_angle_alpha   80.18536377
_cell_angle_beta   90.00000000
_cell_angle_gamma   90.00000000
_symmetry_Int_Tables_number   1
_chemical_formula_structural   K4Ag2Sn3S9O2
_chemical_formula_sum   'K16 Ag8 Sn12 S36 O8'
_cell_volume   2302.58006981
_cell_formula_units_Z   4
loop_
 _symmetry_equiv_pos_site_id
 _symmetry_equiv_pos_as_xyz
  1  'x, y, z'
loop_
 _atom_site_type_symbol
 _atom_site_label
 _atom_site_symmetry_multiplicity
 _atom_site_fract_x
 _atom_site_fract_y
 _atom_site_fract_z
 _atom_site_occupancy
  K  K0  1  0.75000000  0.66622900  0.77592800  1
  K  K1  1  0.25000000  0.33377100  0.22407200  1
  K  K2  1  0.75000000  0.06352600  0.38945600  1
  K  K3  1  0.25000000  0.93647400  0.61054400  1
  K  K4  1  0.75000000  0.15833900  0.03352000  1
  K  K5  1  0.25000000  0.84166100  0.96648000  1
  K  K6  1  0.75000000  0.61173200  0.36543500  1
  K  K7  1  0.25000000  0.38826800  0.63456500  1
  K  K8  1  0.06003900  0.24949400  0.59621900  1
  K  K9  1  0.56003900  0.75050600  0.40378100  1
  K  K10  1  0.93996100  0.75050600  0.40378100  1
  K  K11  1  0.43996100  0.24949400  0.59621900  1
  K  K12  1  0.06607500  0.81945900  0.09109200  1
  K  K13  1  0.56607500  0.18054100  0.90890800  1
  K  K14  1  0.93392500  0.18054100  0.90890800  1
  K  K15  1  0.43392500  0.81945900  0.09109200  1
  Ag  Ag0  1  0.83038100  0.36056300  0.21250200  1
  Ag  Ag1  1  0.33038100  0.63943700  0.78749800  1
  Ag  Ag2  1  0.16961900  0.63943700  0.78749800  1
  Ag  Ag3  1  0.66961900  0.36056300  0.21250200  1
  Ag  Ag4  1  0.86863700  0.50834500  0.68740400  1
  Ag  Ag5  1  0.36863700  0.49165500  0.31259600  1
  Ag  Ag6  1  0.13136300  0.49165500  0.31259600  1
  Ag  Ag7  1  0.63136300  0.50834500  0.68740400  1
  Sn  Sn0  1  0.87215100  0.67157200  0.98569800  1
  Sn  Sn1  1  0.37215100  0.32842800  0.01430200  1
  Sn  Sn2  1  0.12784900  0.32842800  0.01430200  1
  Sn  Sn3  1  0.62784900  0.67157200  0.98569800  1
  Sn  Sn4  1  0.85937700  0.97568000  0.66655700  1
  Sn  Sn5  1  0.35937700  0.02432000  0.33344300  1
  Sn  Sn6  1  0.14062300  0.02432000  0.33344300  1
  Sn  Sn7  1  0.64062300  0.97568000  0.66655700  1
  Sn  Sn8  1  0.00061600  0.71834500  0.75435500  1
  Sn  Sn9  1  0.50061600  0.28165500  0.24564500  1
  Sn  Sn10  1  0.99938400  0.28165500  0.24564500  1
  Sn  Sn11  1  0.49938400  0.71834500  0.75435500  1
  S  S0  1  0.82949300  0.93470800  0.87619400  1
  S  S1  1  0.32949300  0.06529200  0.12380600  1
  S  S2  1  0.17050700  0.06529200  0.12380600  1
  S  S3  1  0.67050700  0.93470800  0.87619400  1
  S  S4  1  0.95275400  0.00029300  0.65128600  1
  S  S5  1  0.45275400  0.99970700  0.34871400  1
  S  S6  1  0.04724600  0.99970700  0.34871400  1
  S  S7  1  0.54724600  0.00029300  0.65128600  1
  S  S8  1  0.96514400  0.48480700  0.66879800  1
  S  S9  1  0.46514400  0.51519300  0.33120200  1
  S  S10  1  0.03485600  0.51519300  0.33120200  1
  S  S11  1  0.53485600  0.48480700  0.66879800  1
  S  S12  1  0.85282300  0.65298400  0.19604600  1
  S  S13  1  0.35282300  0.34701600  0.80395400  1
  S  S14  1  0.14717700  0.34701600  0.80395400  1
  S  S15  1  0.64717700  0.65298400  0.19604600  1
  S  S16  1  0.82859400  0.77228000  0.55416500  1
  S  S17  1  0.32859400  0.22772000  0.44583500  1
  S  S18  1  0.17140600  0.22772000  0.44583500  1
  S  S19  1  0.67140600  0.77228000  0.55416500  1
  S  S20  1  0.80839700  0.26133300  0.60231500  1
  S  S21  1  0.30839700  0.73866700  0.39768500  1
  S  S22  1  0.19160300  0.73866700  0.39768500  1
  S  S23  1  0.69160300  0.26133300  0.60231500  1
  S  S24  1  0.83786100  0.43847200  0.90761900  1
  S  S25  1  0.33786100  0.56152800  0.09238100  1
  S  S26  1  0.16213900  0.56152800  0.09238100  1
  S  S27  1  0.66213900  0.43847200  0.90761900  1
  S  S28  1  0.96416900  0.72436100  0.96414800  1
  S  S29  1  0.46416900  0.27563900  0.03585200  1
  S  S30  1  0.03583100  0.27563900  0.03585200  1
  S  S31  1  0.53583100  0.72436100  0.96414800  1
  S  S32  1  0.10584600  0.88226800  0.78857300  1
  S  S33  1  0.60584600  0.11773200  0.21142700  1
  S  S34  1  0.89415400  0.11773200  0.21142700  1
  S  S35  1  0.39415400  0.88226800  0.78857300  1
  O  O0  1  0.75000000  0.24546300  0.68090000  1
  O  O1  1  0.25000000  0.75453700  0.31910000  1
  O  O2  1  0.75000000  0.36000800  0.25830400  1
  O  O3  1  0.25000000  0.63999200  0.74169600  1
  O  O4  1  0.83016700  0.09657700  0.21488800  1
  O  O5  1  0.33016700  0.90342300  0.78511200  1
  O  O6  1  0.16983300  0.90342300  0.78511200  1
  O  O7  1  0.66983300  0.09657700  0.21488800  1
loop_
_geom_bond_atom_site_label_1
_geom_bond_atom_site_label_2
_geom_bond_distance
_geom_bond_site_symmetry_2
K0 S24 3.116147 1_555
K0 S27 3.116147 1_555
K0 S16 3.224033 1_555
K0 S19 3.224033 1_555
K0 S0 3.305515 1_555
K0 S3 3.305515 1_555
K1 S25 3.116147 1_555
K1 S26 3.116147 1_555
K1 S17 3.224033 1_555
K1 S18 3.224033 1_555
K1 S1 3.305515 1_555
K1 S2 3.305515 1_555
K2 O2 2.585193 1_555
K2 O4 2.835193 1_555
K2 O7 2.835193 1_555
K2 S16 3.395705 1_545
K2 S19 3.395705 1_545
K2 S20 3.453033 1_555
K2 S23 3.453033 1_555
K3 O3 2.585193 1_555
K3 O5 2.835193 1_555
K3 O6 2.835193 1_555
K3 S17 3.395705 1_565
K3 S18 3.395705 1_565
K3 S22 3.453033 1_555
K3 S21 3.453033 1_555
K4 O7 2.890953 1_555
K4 O4 2.890953 1_555
K4 O2 3.250237 1_555
K4 S24 3.327102 1_554
K4 S27 3.327102 1_554
K4 S0 3.414541 1_544
K4 S3 3.414541 1_544
K5 O5 2.890953 1_555
K5 O6 2.890953 1_555
K5 O3 3.250237 1_555
K5 S25 3.327102 1_556
K5 S26 3.327102 1_556
K5 S1 3.414541 1_566
K5 S2 3.414541 1_566
K6 O2 2.531885 1_555
K6 S15 3.244245 1_555
K6 S12 3.244245 1_555
K6 S16 3.354814 1_555
K6 S19 3.354814 1_555
K7 O3 2.531885 1_555
K7 S13 3.244245 1_555
K7 S14 3.244245 1_555
K7 S17 3.354814 1_555
K7 S18 3.354814 1_555
K8 S8 3.268502 1_455
K8 S18 3.343467 1_555
K8 S4 3.392701 1_455
K8 S14 3.434243 1_555
K8 S10 3.442899 1_555
K8 S32 3.557644 1_545
K8 S6 3.738004 1_545
K9 S9 3.268502 1_555
K9 S19 3.343467 1_555
K9 S5 3.392701 1_555
K9 S15 3.434243 1_555
K9 S11 3.442899 1_555
K9 S33 3.557644 1_565
K9 S7 3.738004 1_565
K10 S10 3.268502 1_655
K10 S16 3.343467 1_555
K10 S6 3.392701 1_655
K10 S12 3.434243 1_555
K10 S8 3.442899 1_555
K10 S34 3.557644 1_565
K10 S4 3.738004 1_565
K11 S11 3.268502 1_555
K11 S17 3.343467 1_555
K11 S7 3.392701 1_555
K11 S13 3.434243 1_555
K11 S9 3.442899 1_555
K11 S35 3.557644 1_545
K11 S5 3.738004 1_545
K12 S28 3.137484 1_454
K12 S26 3.213505 1_555
K12 S2 3.380998 1_565
K12 S10 3.433179 1_555
K12 S6 3.514230 1_555
K12 S32 3.539054 1_554
K12 S30 3.692498 1_565
K13 S29 3.137484 1_556
K13 S27 3.213505 1_555
K13 S3 3.380998 1_545
K13 S11 3.433179 1_555
K13 S7 3.514230 1_555
K13 S33 3.539054 1_556
K13 S31 3.692498 1_545
K14 S30 3.137484 1_656
K14 S24 3.213505 1_555
K14 S0 3.380998 1_545
K14 S8 3.433179 1_555
K14 S4 3.514230 1_555
K14 S34 3.539054 1_556
K14 S28 3.692498 1_545
K15 S31 3.137484 1_554
K15 S25 3.213505 1_555
K15 S1 3.380998 1_565
K15 S9 3.433179 1_555
K15 S5 3.514230 1_555
K15 S35 3.539054 1_554
K15 S29 3.692498 1_565
Ag0 O4 2.115913 1_555
Ag0 O2 2.121898 1_555
Ag0 S12 2.394105 1_555
Ag1 O5 2.115913 1_555
Ag1 O3 2.121898 1_555
Ag1 S13 2.394105 1_555
Ag2 O6 2.115913 1_555
Ag2 O3 2.121898 1_555
Ag2 S14 2.394105 1_555
Ag3 O7 2.115913 1_555
Ag3 O2 2.121898 1_555
Ag3 S15 2.394105 1_555
Ag4 S8 2.488913 1_555
Ag4 S24 2.592841 1_555
Ag4 S16 2.596882 1_555
Ag4 S20 2.811249 1_555
Ag5 S9 2.488913 1_555
Ag5 S25 2.592841 1_555
Ag5 S17 2.596882 1_555
Ag5 S21 2.811249 1_555
Ag6 S10 2.488913 1_555
Ag6 S26 2.592841 1_555
Ag6 S18 2.596882 1_555
Ag6 S22 2.811249 1_555
Ag7 S11 2.488913 1_555
Ag7 S27 2.592841 1_555
Ag7 S19 2.596882 1_555
Ag7 S23 2.811249 1_555
S0 Sn4 2.470780 1_555
S0 Sn0 2.512272 1_555
S1 Sn5 2.470780 1_555
S1 Sn1 2.512272 1_555
S2 Sn6 2.470780 1_555
S2 Sn2 2.512272 1_555
S3 Sn7 2.470780 1_555
S3 Sn3 2.512272 1_555
S4 Sn4 2.401832 1_545
S4 Sn8 2.664057 1_645
S5 Sn5 2.401832 1_565
S5 Sn9 2.664057 1_565
S6 Sn6 2.401832 1_565
S6 Sn10 2.664057 1_465
S7 Sn7 2.401832 1_545
S7 Sn11 2.664057 1_545
S8 Sn8 2.431181 1_655
S9 Sn9 2.431181 1_555
S10 Sn10 2.431181 1_455
S11 Sn11 2.431181 1_555
S12 Sn0 2.421305 1_554
S13 Sn1 2.421305 1_556
S14 Sn2 2.421305 1_556
S15 Sn3 2.421305 1_554
S16 Sn4 2.373528 1_555
S17 Sn5 2.373528 1_555
S18 Sn6 2.373528 1_555
S19 Sn7 2.373528 1_555
S20 Sn4 2.632236 1_545
S21 Sn5 2.632236 1_565
S22 Sn6 2.632236 1_565
S23 Sn7 2.632236 1_545
S24 Sn0 2.372741 1_555
S25 Sn1 2.372741 1_555
S26 Sn2 2.372741 1_555
S27 Sn3 2.372741 1_555
S28 Sn0 2.398046 1_555
S28 Sn8 2.568860 1_655
S29 Sn1 2.398046 1_555
S29 Sn9 2.568860 1_555
S30 Sn2 2.398046 1_555
S30 Sn10 2.568860 1_455
S31 Sn3 2.398046 1_555
S31 Sn11 2.568860 1_555
S32 Sn8 3.051672 1_555
S33 Sn9 3.051672 1_555
S34 Sn10 3.051672 1_555
S35 Sn11 3.051672 1_555
O0 S20 1.734699 1_555
O0 S23 1.734699 1_555
O1 S21 1.734699 1_555
O1 S22 1.734699 1_555
O4 S34 1.646210 1_555
O5 S35 1.646210 1_555
O6 S32 1.646210 1_555
O7 S33 1.646210 1_555
