# generated using pymatgen
data_UAg2P2H2CO8
_symmetry_space_group_name_H-M   'P 1'
_cell_length_a   8.14817921
_cell_length_b   8.30992811
_cell_length_c   12.76455800
_cell_angle_alpha   90.00000000
_cell_angle_beta   90.00000000
_cell_angle_gamma   94.99665506
_symmetry_Int_Tables_number   1
_chemical_formula_structural   UAg2P2H2CO8
_chemical_formula_sum   'U4 Ag8 P8 H8 C4 O32'
_cell_volume   861.01370266
_cell_formula_units_Z   4
loop_
 _symmetry_equiv_pos_site_id
 _symmetry_equiv_pos_as_xyz
  1  'x, y, z'
loop_
 _atom_site_type_symbol
 _atom_site_label
 _atom_site_symmetry_multiplicity
 _atom_site_fract_x
 _atom_site_fract_y
 _atom_site_fract_z
 _atom_site_occupancy
  U  U0  1  0.68852500  0.88940400  0.83501100  1
  U  U1  1  0.18852500  0.38940400  0.66498900  1
  U  U2  1  0.31147500  0.11059600  0.16498900  1
  U  U3  1  0.81147500  0.61059600  0.33501100  1
  Ag  Ag0  1  0.83970200  0.00558100  0.56611600  1
  Ag  Ag1  1  0.33970200  0.50558100  0.93388400  1
  Ag  Ag2  1  0.16029800  0.99441900  0.43388400  1
  Ag  Ag3  1  0.66029800  0.49441900  0.06611600  1
  Ag  Ag4  1  0.53913900  0.30706600  0.48502700  1
  Ag  Ag5  1  0.03913900  0.80706600  0.01497300  1
  Ag  Ag6  1  0.46086100  0.69293400  0.51497300  1
  Ag  Ag7  1  0.96086100  0.19293400  0.98502700  1
  P  P0  1  0.83333400  0.60752800  0.62501400  1
  P  P1  1  0.33333400  0.10752800  0.87498600  1
  P  P2  1  0.16666600  0.39247200  0.37498600  1
  P  P3  1  0.66666600  0.89247200  0.12501400  1
  P  P4  1  0.87298300  0.50570900  0.84466700  1
  P  P5  1  0.37298300  0.00570900  0.65533300  1
  P  P6  1  0.12701700  0.49429100  0.15533300  1
  P  P7  1  0.62701700  0.99429100  0.34466700  1
  H  H0  1  0.75980700  0.34495100  0.70259600  1
  H  H1  1  0.25980700  0.84495100  0.79740400  1
  H  H2  1  0.24019300  0.65504900  0.29740400  1
  H  H3  1  0.74019300  0.15504900  0.20259600  1
  H  H4  1  0.62149500  0.48940200  0.74157900  1
  H  H5  1  0.12149500  0.98940200  0.75842100  1
  H  H6  1  0.37850500  0.51059800  0.25842100  1
  H  H7  1  0.87850500  0.01059800  0.24157900  1
  C  C0  1  0.75098600  0.47094200  0.72625800  1
  C  C1  1  0.25098600  0.97094200  0.77374200  1
  C  C2  1  0.24901400  0.52905800  0.27374200  1
  C  C3  1  0.74901400  0.02905800  0.22625800  1
  O  O0  1  0.85810600  0.04672400  0.81726800  1
  O  O1  1  0.35810600  0.54672400  0.68273200  1
  O  O2  1  0.14189400  0.95327600  0.18273200  1
  O  O3  1  0.64189400  0.45327600  0.31726800  1
  O  O4  1  0.52486400  0.72885700  0.86139000  1
  O  O5  1  0.02486400  0.22885700  0.63861000  1
  O  O6  1  0.47513600  0.27114300  0.13861000  1
  O  O7  1  0.97513600  0.77114300  0.36139000  1
  O  O8  1  0.80966100  0.77832200  0.66718600  1
  O  O9  1  0.30966100  0.27832200  0.83281400  1
  O  O10  1  0.19033900  0.22167800  0.33281400  1
  O  O11  1  0.69033900  0.72167800  0.16718600  1
  O  O12  1  0.01585400  0.57619300  0.61072600  1
  O  O13  1  0.51585400  0.07619300  0.88927400  1
  O  O14  1  0.98414600  0.42380700  0.38927400  1
  O  O15  1  0.48414600  0.92380700  0.11072600  1
  O  O16  1  0.73732400  0.57425900  0.52061500  1
  O  O17  1  0.23732400  0.07425900  0.97938500  1
  O  O18  1  0.26267600  0.42574100  0.47938500  1
  O  O19  1  0.76267600  0.92574100  0.02061500  1
  O  O20  1  0.04980400  0.46669000  0.81609700  1
  O  O21  1  0.54980400  0.96669000  0.68390300  1
  O  O22  1  0.95019600  0.53331000  0.18390300  1
  O  O23  1  0.45019600  0.03331000  0.31609700  1
  O  O24  1  0.79903700  0.39493700  0.93206900  1
  O  O25  1  0.29903700  0.89493700  0.56793100  1
  O  O26  1  0.20096300  0.60506300  0.06793100  1
  O  O27  1  0.70096300  0.10506300  0.43206900  1
  O  O28  1  0.86948700  0.68748100  0.87392700  1
  O  O29  1  0.36948700  0.18748000  0.62607300  1
  O  O30  1  0.13051300  0.31252000  0.12607300  1
  O  O31  1  0.63051300  0.81251900  0.37392700  1
loop_
_geom_bond_atom_site_label_1
_geom_bond_atom_site_label_2
_geom_bond_distance
_geom_bond_site_symmetry_2
Ag0 O27 2.247635 1_555
Ag0 O8 2.282595 1_545
Ag0 O5 2.467279 1_655
Ag1 O26 2.247635 1_556
Ag1 O9 2.282595 1_555
Ag1 O4 2.467279 1_555
Ag2 O25 2.247635 1_555
Ag2 O10 2.282595 1_565
Ag2 O7 2.467279 1_455
Ag3 O24 2.247635 1_554
Ag3 O11 2.282595 1_555
Ag3 O6 2.467279 1_555
Ag4 O27 2.323564 1_555
Ag4 O29 2.429106 1_555
Ag4 O18 2.537566 1_555
Ag4 O3 2.566220 1_555
Ag4 O16 2.668235 1_555
Ag5 O26 2.323564 1_555
Ag5 O28 2.429103 1_454
Ag5 O19 2.537566 1_455
Ag5 O2 2.566220 1_555
Ag5 O17 2.668235 1_564
Ag6 O25 2.323564 1_555
Ag6 O31 2.429103 1_555
Ag6 O16 2.537566 1_555
Ag6 O1 2.566220 1_555
Ag6 O18 2.668235 1_555
Ag7 O24 2.323564 1_555
Ag7 O30 2.429106 1_656
Ag7 O17 2.537566 1_655
Ag7 O0 2.566220 1_555
Ag7 O19 2.668235 1_546
C0 H4 1.096924 1_555
C0 H0 1.098025 1_555
C0 P0 1.809961 1_555
C0 P4 1.818249 1_555
C1 H5 1.096924 1_555
C1 H1 1.098025 1_555
C1 P1 1.809961 1_565
C1 P5 1.818249 1_565
C2 H6 1.096924 1_555
C2 H2 1.098025 1_555
C2 P2 1.809961 1_555
C2 P6 1.818249 1_555
C3 H7 1.096924 1_555
C3 H3 1.098025 1_555
C3 P3 1.809961 1_545
C3 P7 1.818249 1_545
O0 U0 1.831669 1_545
O1 U1 1.831669 1_555
O2 U2 1.831669 1_565
O3 U3 1.831669 1_555
O4 U0 1.833495 1_555
O5 U1 1.833495 1_555
O6 U2 1.833495 1_555
O7 U3 1.833495 1_555
O8 P0 1.545653 1_555
O8 U0 2.564003 1_555
O9 P1 1.545653 1_555
O9 U1 2.564003 1_555
O10 P2 1.545653 1_555
O10 U2 2.564003 1_555
O11 P3 1.545653 1_555
O11 U3 2.564003 1_555
O12 P0 1.542824 1_455
O12 U1 2.291076 1_555
O13 P1 1.542824 1_555
O13 U0 2.291076 1_545
O14 P2 1.542824 1_655
O14 U3 2.291076 1_555
O15 P3 1.542824 1_555
O15 U2 2.291076 1_565
O16 P0 1.557756 1_555
O16 U3 2.457099 1_555
O17 P1 1.557756 1_555
O17 U2 2.457099 1_556
O18 P2 1.557756 1_555
O18 U1 2.457099 1_555
O19 P3 1.557756 1_555
O19 U0 2.457099 1_554
O20 P4 1.547683 1_455
O20 U1 2.353069 1_555
O21 P5 1.547683 1_565
O21 U0 2.353069 1_555
O22 P6 1.547683 1_655
O22 U3 2.353069 1_555
O23 P7 1.547683 1_545
O23 U2 2.353069 1_555
O24 P4 1.535717 1_555
O25 P5 1.535717 1_565
O26 P6 1.535717 1_555
O27 P7 1.535717 1_545
O28 P4 1.558669 1_555
O28 U0 2.380650 1_555
O29 P5 1.558661 1_555
O29 U1 2.380657 1_555
O30 P6 1.558661 1_555
O30 U2 2.380657 1_555
O31 P7 1.558669 1_555
O31 U3 2.380650 1_555
