# generated using pymatgen
data_Y2ZrWO8
_symmetry_space_group_name_H-M   'P 1'
_cell_length_a   6.67296266
_cell_length_b   6.67296266
_cell_length_c   6.67296266
_cell_angle_alpha   133.24890806
_cell_angle_beta   133.24890806
_cell_angle_gamma   68.26352244
_symmetry_Int_Tables_number   1
_chemical_formula_structural   Y2ZrWO8
_chemical_formula_sum   'Y2 Zr1 W1 O8'
_cell_volume   154.86821969
_cell_formula_units_Z   1
loop_
 _symmetry_equiv_pos_site_id
 _symmetry_equiv_pos_as_xyz
  1  'x, y, z'
loop_
 _atom_site_type_symbol
 _atom_site_label
 _atom_site_symmetry_multiplicity
 _atom_site_fract_x
 _atom_site_fract_y
 _atom_site_fract_z
 _atom_site_occupancy
  Y  Y0  1  0.25000000  0.75000000  0.50000000  1
  Y  Y1  1  0.00000000  0.00000000  0.00000000  1
  Zr  Zr0  1  0.75000000  0.25000000  0.50000000  1
  W  W0  1  0.50000000  0.50000000  0.00000000  1
  O  O0  1  0.59398200  0.18184700  0.95663300  1
  O  O1  1  0.22521300  0.63734800  0.04336700  1
  O  O2  1  0.92071200  0.34501900  0.95807400  1
  O  O3  1  0.38694500  0.96263800  0.04192600  1
  O  O4  1  0.65498100  0.61305500  0.57569300  1
  O  O5  1  0.03736200  0.07928800  0.42430700  1
  O  O6  1  0.36265200  0.40601800  0.58786500  1
  O  O7  1  0.81815300  0.77478700  0.41213500  1
loop_
_geom_bond_atom_site_label_1
_geom_bond_atom_site_label_2
_geom_bond_distance
_geom_bond_site_symmetry_2
O0 W0 1.845240 1_556
O0 Y1 2.422490 1_656
O0 Y0 2.477874 1_545
O0 Zr0 2.712154 1_556
O1 W0 1.845246 1_555
O1 Y1 2.422495 1_565
O1 Y0 2.477867 1_555
O1 Zr0 2.712147 1_454
O2 Zr0 2.037317 1_555
O2 Y0 2.307851 1_656
O2 Y1 2.331603 1_656
O3 Zr0 2.037317 1_565
O3 Y0 2.307851 1_554
O3 Y1 2.331603 1_565
O4 Zr0 2.037317 1_555
O4 Y0 2.307851 1_555
O4 Y1 2.331603 1_666
O5 Zr0 2.037317 1_455
O5 Y0 2.307851 1_545
O5 Y1 2.331603 1_555
O6 W0 1.845243 1_556
O6 Y1 2.422492 1_555
O6 Y0 2.477873 1_555
O6 Zr0 2.712148 1_555
O7 W0 1.845243 1_555
O7 Y1 2.422492 1_666
O7 Y0 2.477873 1_655
O7 Zr0 2.712148 1_565
