# generated using pymatgen
data_YFe11Re
_symmetry_space_group_name_H-M   'P 1'
_cell_length_a   4.68799400
_cell_length_b   6.45738170
_cell_length_c   6.45738170
_cell_angle_alpha   98.02756817
_cell_angle_beta   111.28423148
_cell_angle_gamma   68.71576852
_symmetry_Int_Tables_number   1
_chemical_formula_structural   YFe11Re
_chemical_formula_sum   'Y1 Fe11 Re1'
_cell_volume   169.71461056
_cell_formula_units_Z   1
loop_
 _symmetry_equiv_pos_site_id
 _symmetry_equiv_pos_as_xyz
  1  'x, y, z'
loop_
 _atom_site_type_symbol
 _atom_site_label
 _atom_site_symmetry_multiplicity
 _atom_site_fract_x
 _atom_site_fract_y
 _atom_site_fract_z
 _atom_site_occupancy
  Y  Y0  1  0.00511900  0.99488100  0.00511900  1
  Fe  Fe0  1  0.72850200  0.77149800  0.22850200  1
  Fe  Fe1  1  0.27108500  0.22891500  0.77108500  1
  Fe  Fe2  1  0.49845300  0.77712300  0.77402900  1
  Fe  Fe3  1  0.49845300  0.22597100  0.22287700  1
  Fe  Fe4  1  0.50040500  0.99903400  0.49996300  1
  Fe  Fe5  1  0.00052500  0.99903400  0.49996300  1
  Fe  Fe6  1  0.50040500  0.50003700  0.00096600  1
  Fe  Fe7  1  0.00052500  0.50003700  0.00096600  1
  Fe  Fe8  1  0.36028800  0.63971200  0.36028800  1
  Fe  Fe9  1  0.99914100  0.36018300  0.35846400  1
  Fe  Fe10  1  0.99914100  0.64153600  0.63981700  1
  Re  Re0  1  0.63796000  0.36204000  0.63796000  1
loop_
_geom_bond_atom_site_label_1
_geom_bond_atom_site_label_2
_geom_bond_distance
_geom_bond_site_symmetry_2
Fe0 Fe6 2.424014 1_555
Fe0 Fe4 2.424014 1_555
Fe0 Fe7 2.424016 1_655
Fe0 Fe5 2.424016 1_655
Fe0 Fe8 2.600629 1_555
Fe0 Fe8 2.600629 1_655
Fe0 Fe9 2.602217 1_555
Fe0 Fe10 2.602217 1_555
Fe0 Fe3 2.735050 1_565
Fe0 Fe2 2.735050 1_554
Fe0 Y0 3.023282 1_655
Fe0 Y0 3.023282 1_555
Fe1 Fe5 2.430294 1_545
Fe1 Fe7 2.430294 1_556
Fe1 Fe4 2.430296 1_545
Fe1 Fe6 2.430296 1_556
Fe1 Re0 2.605607 1_555
Fe1 Re0 2.605608 1_455
Fe1 Fe9 2.612146 1_455
Fe1 Fe10 2.612146 1_455
Fe1 Fe2 2.718620 1_545
Fe1 Fe3 2.718620 1_556
Fe1 Y0 3.081590 1_546
Fe1 Y0 3.081591 1_646
Fe2 Fe5 2.432087 1_555
Fe2 Fe4 2.432089 1_555
Fe2 Fe6 2.461636 1_556
Fe2 Fe7 2.461639 1_656
Fe2 Fe8 2.616022 1_555
Fe2 Re0 2.621221 1_555
Fe2 Y0 3.018494 1_556
Fe2 Y0 3.018494 1_656
Fe3 Fe7 2.432087 1_555
Fe3 Fe6 2.432089 1_555
Fe3 Fe4 2.461636 1_545
Fe3 Fe5 2.461639 1_645
Fe3 Fe9 2.607687 1_455
Fe3 Fe9 2.607691 1_555
Fe3 Fe8 2.616022 1_555
Fe3 Re0 2.621221 1_555
Fe3 Y0 3.018494 1_545
Fe3 Y0 3.018494 1_645
Fe4 Fe5 2.343434 1_555
Fe4 Fe5 2.344560 1_655
Fe4 Fe8 2.592400 1_555
Fe4 Re0 2.607945 1_565
Fe4 Fe9 2.617891 1_465
Fe4 Y0 3.199588 1_555
Fe4 Y0 3.258026 1_656
Fe5 Fe8 2.592398 1_555
Fe5 Re0 2.607947 1_465
Fe5 Fe9 2.617891 1_465
Fe5 Y0 3.199586 1_555
Fe5 Y0 3.258027 1_556
Fe6 Fe7 2.343434 1_555
Fe6 Fe7 2.344560 1_655
Fe6 Fe8 2.592400 1_555
Fe6 Fe9 2.596575 1_555
Fe6 Re0 2.607945 1_554
Fe6 Y0 3.199588 1_555
Fe6 Y0 3.258026 1_645
Fe7 Fe8 2.592398 1_555
Fe7 Fe9 2.596574 1_455
Fe7 Re0 2.607947 1_454
Fe7 Y0 3.199586 1_555
Fe7 Y0 3.258027 1_545
Fe8 Re0 2.373478 1_555
Fe8 Fe9 2.884945 1_455
Fe8 Fe9 2.884949 1_555
Fe8 Y0 3.035904 1_555
Fe9 Re0 2.884829 1_655
Fe9 Re0 2.884832 1_555
Fe9 Y0 3.044079 1_645
Fe10 Fe9 2.383201 1_555
Fe10 Fe5 2.596574 1_655
Fe10 Fe4 2.596575 1_555
Fe10 Fe2 2.607687 1_655
Fe10 Fe2 2.607691 1_555
Fe10 Fe7 2.617891 1_656
Fe10 Fe6 2.617891 1_656
Fe10 Re0 2.884829 1_655
Fe10 Re0 2.884832 1_555
Fe10 Fe8 2.884945 1_655
Fe10 Fe8 2.884949 1_555
Fe10 Y0 3.044079 1_656
Re0 Y0 3.138392 1_646
