# generated using pymatgen
data_Li3MnCoO5
_symmetry_space_group_name_H-M   'P 1'
_cell_length_a   7.84112463
_cell_length_b   7.84112463
_cell_length_c   8.32187604
_cell_angle_alpha   75.07307397
_cell_angle_beta   75.07307397
_cell_angle_gamma   21.43966592
_symmetry_Int_Tables_number   1
_chemical_formula_structural   Li3MnCoO5
_chemical_formula_sum   'Li6 Mn2 Co2 O10'
_cell_volume   180.47982521
_cell_formula_units_Z   2
loop_
 _symmetry_equiv_pos_site_id
 _symmetry_equiv_pos_as_xyz
  1  'x, y, z'
loop_
 _atom_site_type_symbol
 _atom_site_label
 _atom_site_symmetry_multiplicity
 _atom_site_fract_x
 _atom_site_fract_y
 _atom_site_fract_z
 _atom_site_occupancy
  Li  Li0  1  0.40292400  0.40292400  0.30534700  1
  Li  Li1  1  0.59641200  0.59641200  0.70213900  1
  Li  Li2  1  0.80186600  0.80186600  0.08186400  1
  Li  Li3  1  0.98975100  0.98975100  0.51742500  1
  Li  Li4  1  0.20419300  0.20419300  0.89699600  1
  Li  Li5  1  0.40319200  0.40319200  0.79619000  1
  Mn  Mn0  1  0.99806200  0.99806200  0.99158000  1
  Mn  Mn1  1  0.20154500  0.20154500  0.40085000  1
  Co  Co0  1  0.59846500  0.59846500  0.19966200  1
  Co  Co1  1  0.80580900  0.80580900  0.62306200  1
  O  O0  1  0.58863200  0.58863200  0.96177000  1
  O  O1  1  0.78636000  0.78636000  0.35041800  1
  O  O2  1  0.00168800  0.00168800  0.77249300  1
  O  O3  1  0.19240700  0.19240700  0.16513400  1
  O  O4  1  0.39493300  0.39493300  0.54734100  1
  O  O5  1  0.20543200  0.20543200  0.62344400  1
  O  O6  1  0.41320100  0.41320100  0.04833400  1
  O  O7  1  0.61173500  0.61173500  0.43920000  1
  O  O8  1  0.79510800  0.79510800  0.84183700  1
  O  O9  1  0.00828400  0.00828400  0.23491300  1
loop_
_geom_bond_atom_site_label_1
_geom_bond_atom_site_label_2
_geom_bond_distance
_geom_bond_site_symmetry_2
Li0 O4 1.985123 1_555
Li0 O6 2.102876 1_555
Li0 O9 2.146495 1_655
Li0 O9 2.146495 1_565
Li0 O1 2.267291 1_455
Li0 O1 2.267291 1_545
Li1 O2 2.037713 1_565
Li1 O2 2.037713 1_655
Li1 O0 2.132330 1_555
Li1 O7 2.138421 1_555
Li1 O5 2.191156 1_565
Li1 O5 2.191156 1_655
Li2 O8 2.027266 1_554
Li2 O1 2.184438 1_555
Li2 O3 2.199832 1_565
Li2 O3 2.199832 1_655
Li2 O6 2.212936 1_655
Li2 O6 2.212936 1_565
Li3 O4 2.032989 1_565
Li3 O4 2.032989 1_655
Li3 O2 2.178109 1_665
Li3 O9 2.292787 1_665
Li3 O7 2.332883 1_655
Li3 O7 2.332883 1_565
Li4 O8 1.990782 1_545
Li4 O8 1.990782 1_455
Li4 O3 2.190822 1_556
Li4 O0 2.255033 1_455
Li4 O0 2.255033 1_545
Li4 O5 2.271536 1_555
Li5 O2 2.076668 1_655
Li5 O2 2.076668 1_565
Li5 O4 2.107834 1_555
Li5 O6 2.143915 1_556
Li5 O8 2.171046 1_455
Li5 O8 2.171046 1_545
Mn0 O2 1.809371 1_665
Mn0 O6 1.932943 1_656
Mn0 O6 1.932943 1_566
Mn0 O0 1.988673 1_655
Mn0 O0 1.988673 1_565
Mn0 O9 2.071862 1_666
Mn1 O5 1.868995 1_555
Mn1 O1 1.929693 1_545
Mn1 O1 1.929693 1_455
Mn1 O7 1.978014 1_455
Mn1 O7 1.978014 1_545
Mn1 O3 2.003127 1_555
Co0 O9 1.982531 1_655
Co0 O9 1.982531 1_565
Co0 O3 2.021634 1_565
Co0 O3 2.021634 1_655
Co0 O0 2.024715 1_554
Co0 O7 2.056499 1_555
Co1 O8 1.784500 1_555
Co1 O4 1.989085 1_655
Co1 O4 1.989085 1_565
Co1 O5 2.125285 1_655
Co1 O5 2.125285 1_565
Co1 O1 2.365222 1_555
