# generated using pymatgen
data_Sr2Sb3
_symmetry_space_group_name_H-M   'P 1'
_cell_length_a   6.73414697
_cell_length_b   13.09169727
_cell_length_c   15.37095592
_cell_angle_alpha   90.00000000
_cell_angle_beta   90.11979148
_cell_angle_gamma   90.00000000
_symmetry_Int_Tables_number   1
_chemical_formula_structural   Sr2Sb3
_chemical_formula_sum   'Sr16 Sb24'
_cell_volume   1355.12223984
_cell_formula_units_Z   8
loop_
 _symmetry_equiv_pos_site_id
 _symmetry_equiv_pos_as_xyz
  1  'x, y, z'
loop_
 _atom_site_type_symbol
 _atom_site_label
 _atom_site_symmetry_multiplicity
 _atom_site_fract_x
 _atom_site_fract_y
 _atom_site_fract_z
 _atom_site_occupancy
  Sr  Sr0  1  0.74576625  0.12428438  0.99606786  1
  Sr  Sr1  1  0.25423375  0.62428438  0.50393214  1
  Sr  Sr2  1  0.25423375  0.87571562  0.00393214  1
  Sr  Sr3  1  0.74576625  0.37571662  0.49606786  1
  Sr  Sr4  1  0.24686801  0.12667075  0.49449034  1
  Sr  Sr5  1  0.75313199  0.62667075  0.00550966  1
  Sr  Sr6  1  0.75313199  0.87332925  0.50550966  1
  Sr  Sr7  1  0.24686801  0.37332925  0.99449034  1
  Sr  Sr8  1  0.00853004  0.27828553  0.24337010  1
  Sr  Sr9  1  0.99146996  0.77828553  0.25662990  1
  Sr  Sr10  1  0.99146996  0.72171447  0.75662990  1
  Sr  Sr11  1  0.00853004  0.22171447  0.74337010  1
  Sr  Sr12  1  0.50956480  0.47162487  0.25334886  1
  Sr  Sr13  1  0.49043520  0.97162487  0.24665114  1
  Sr  Sr14  1  0.49043520  0.52837513  0.74665114  1
  Sr  Sr15  1  0.50956480  0.02837513  0.75334886  1
  Sb  Sb0  1  0.73522888  0.36750782  0.07341163  1
  Sb  Sb1  1  0.26477112  0.86750782  0.42658837  1
  Sb  Sb2  1  0.26477112  0.63249218  0.92658837  1
  Sb  Sb3  1  0.73522888  0.13249218  0.57341163  1
  Sb  Sb4  1  0.46902252  0.22322329  0.16011684  1
  Sb  Sb5  1  0.53097748  0.72322329  0.33988316  1
  Sb  Sb6  1  0.53097748  0.77677671  0.83988316  1
  Sb  Sb7  1  0.46902252  0.27677671  0.66011684  1
  Sb  Sb8  1  0.58345583  0.20394291  0.34138071  1
  Sb  Sb9  1  0.41654417  0.70394291  0.15861929  1
  Sb  Sb10  1  0.41654417  0.79605709  0.65861929  1
  Sb  Sb11  1  0.58345583  0.29605709  0.84138071  1
  Sb  Sb12  1  0.91069943  0.04654788  0.34488324  1
  Sb  Sb13  1  0.08930057  0.54654788  0.15511676  1
  Sb  Sb14  1  0.08930057  0.95345212  0.65511676  1
  Sb  Sb15  1  0.91069943  0.45345212  0.84488324  1
  Sb  Sb16  1  0.02929817  0.02994370  0.16400159  1
  Sb  Sb17  1  0.97070183  0.52994370  0.33599841  1
  Sb  Sb18  1  0.97070183  0.97005630  0.83599841  1
  Sb  Sb19  1  0.02929817  0.47005630  0.66400159  1
  Sb  Sb20  1  0.23330562  0.38524860  0.42190852  1
  Sb  Sb21  1  0.76669438  0.88524860  0.07809148  1
  Sb  Sb22  1  0.76669438  0.61475140  0.57809148  1
  Sb  Sb23  1  0.23330562  0.11475140  0.92190852  1
loop_
_geom_bond_atom_site_label_1
_geom_bond_atom_site_label_2
_geom_bond_distance
_geom_bond_site_symmetry_2
Sb0 Sb4 2.927101 1_555
Sb0 Sr8 3.399456 1_655
Sb0 Sr0 3.399695 1_554
Sb0 Sr12 3.440141 1_555
Sb0 Sr7 3.503746 1_554
Sb0 Sr5 3.551910 1_555
Sb0 Sr7 3.655959 1_654
Sb1 Sb5 2.927101 1_555
Sb1 Sr9 3.399456 1_455
Sb1 Sr1 3.399695 1_555
Sb1 Sr13 3.440141 1_555
Sb1 Sr6 3.503746 1_555
Sb1 Sr4 3.551910 1_565
Sb1 Sr6 3.655959 1_455
Sb2 Sb6 2.927101 1_555
Sb2 Sr10 3.399456 1_455
Sb2 Sr2 3.399695 1_556
Sb2 Sr14 3.440141 1_555
Sb2 Sr5 3.503746 1_556
Sb2 Sr7 3.551910 1_555
Sb2 Sr5 3.655959 1_456
Sb3 Sb7 2.927101 1_555
Sb3 Sr11 3.399456 1_655
Sb3 Sr3 3.399707 1_555
Sb3 Sr15 3.440141 1_555
Sb3 Sr4 3.503746 1_555
Sb3 Sr6 3.551910 1_545
Sb3 Sr4 3.655959 1_655
Sb4 Sb8 2.900255 1_555
Sb4 Sr0 3.395429 1_554
Sb4 Sr8 3.433681 1_555
Sb4 Sr7 3.544746 1_554
Sb4 Sr13 3.555087 1_545
Sb4 Sr12 3.563997 1_555
Sb4 Sr8 3.916295 1_655
Sb5 Sb9 2.900255 1_555
Sb5 Sr1 3.395429 1_555
Sb5 Sr9 3.433681 1_555
Sb5 Sr6 3.544746 1_555
Sb5 Sr12 3.555087 1_555
Sb5 Sr13 3.563997 1_555
Sb5 Sr9 3.916295 1_455
Sb6 Sr2 3.395429 1_556
Sb6 Sr10 3.433681 1_555
Sb6 Sr5 3.544746 1_556
Sb6 Sr15 3.555087 1_565
Sb6 Sr14 3.563997 1_555
Sb6 Sr10 3.916295 1_455
Sb7 Sr3 3.395434 1_555
Sb7 Sr11 3.433681 1_555
Sb7 Sr4 3.544746 1_555
Sb7 Sr14 3.555087 1_555
Sb7 Sr15 3.563997 1_555
Sb7 Sr11 3.916295 1_655
Sb8 Sr8 3.380659 1_655
Sb8 Sr4 3.423740 1_555
Sb8 Sr13 3.429155 1_545
Sb8 Sr3 3.448823 1_555
Sb8 Sr12 3.789017 1_555
Sb9 Sr9 3.380659 1_455
Sb9 Sr5 3.423740 1_555
Sb9 Sr12 3.429155 1_555
Sb9 Sr2 3.448815 1_555
Sb9 Sr13 3.789017 1_555
Sb10 Sb6 2.900255 1_555
Sb10 Sb14 3.017394 1_555
Sb10 Sr10 3.380659 1_455
Sb10 Sr6 3.423740 1_555
Sb10 Sr15 3.429155 1_565
Sb10 Sr1 3.448815 1_555
Sb10 Sr14 3.789017 1_555
Sb11 Sb7 2.900255 1_555
Sb11 Sb15 3.017394 1_555
Sb11 Sr11 3.380659 1_655
Sb11 Sr7 3.423740 1_555
Sb11 Sr14 3.429155 1_555
Sb11 Sr0 3.448815 1_555
Sb11 Sr15 3.789017 1_555
Sb12 Sb16 2.902516 1_655
Sb12 Sb8 3.017394 1_555
Sb12 Sr13 3.351669 1_545
Sb12 Sr4 3.389915 1_655
Sb12 Sr8 3.475228 1_655
Sb12 Sr6 3.517855 1_545
Sb12 Sr9 3.804384 1_545
Sb13 Sb17 2.902516 1_455
Sb13 Sb9 3.017394 1_555
Sb13 Sr12 3.351669 1_555
Sb13 Sr5 3.389915 1_455
Sb13 Sr9 3.475228 1_455
Sb13 Sr7 3.517855 1_554
Sb13 Sr8 3.804384 1_555
Sb14 Sb18 2.902516 1_455
Sb14 Sr15 3.351669 1_565
Sb14 Sr6 3.389915 1_455
Sb14 Sr10 3.475228 1_455
Sb14 Sr4 3.517855 1_565
Sb14 Sr11 3.804384 1_565
Sb15 Sb19 2.902516 1_655
Sb15 Sr14 3.351669 1_555
Sb15 Sr7 3.389915 1_655
Sb15 Sr11 3.475228 1_655
Sb15 Sr5 3.517855 1_556
Sb15 Sr10 3.804384 1_555
Sb16 Sb21 2.906834 1_445
Sb16 Sr0 3.437082 1_454
Sb16 Sr13 3.438551 1_545
Sb16 Sr8 3.475486 1_555
Sb16 Sr2 3.527111 1_545
Sb16 Sr9 3.598358 1_445
Sb16 Sr13 3.922267 1_445
Sb17 Sb20 2.906834 1_655
Sb17 Sr1 3.437082 1_655
Sb17 Sr12 3.438551 1_555
Sb17 Sr9 3.475486 1_555
Sb17 Sr3 3.527104 1_555
Sb17 Sr8 3.598358 1_655
Sb17 Sr12 3.922267 1_655
Sb18 Sb23 2.906834 1_665
Sb18 Sr2 3.437082 1_656
Sb18 Sr15 3.438551 1_565
Sb18 Sr10 3.475486 1_555
Sb18 Sr0 3.527111 1_565
Sb18 Sr11 3.598358 1_665
Sb18 Sr15 3.922267 1_665
Sb19 Sb22 2.906834 1_455
Sb19 Sr3 3.437077 1_455
Sb19 Sr14 3.438551 1_555
Sb19 Sr11 3.475486 1_555
Sb19 Sr1 3.527111 1_555
Sb19 Sr10 3.598358 1_455
Sb19 Sr14 3.922267 1_455
Sb20 Sr1 3.376645 1_555
Sb20 Sr12 3.387145 1_555
Sb20 Sr8 3.430156 1_555
Sb20 Sr3 3.479906 1_455
Sb20 Sr4 3.565435 1_555
Sb20 Sr3 3.634253 1_555
Sb21 Sr0 3.376645 1_564
Sb21 Sr13 3.387145 1_555
Sb21 Sr9 3.430156 1_555
Sb21 Sr2 3.479906 1_655
Sb21 Sr5 3.565435 1_555
Sb21 Sr2 3.634253 1_555
Sb22 Sr3 3.376633 1_555
Sb22 Sr14 3.387145 1_555
Sb22 Sr10 3.430156 1_555
Sb22 Sr1 3.479906 1_655
Sb22 Sr6 3.565435 1_555
Sb22 Sr1 3.634253 1_555
Sb23 Sr2 3.376645 1_546
Sb23 Sr15 3.387145 1_555
Sb23 Sr11 3.430156 1_555
Sb23 Sr0 3.479906 1_455
Sb23 Sr7 3.565435 1_555
Sb23 Sr0 3.634253 1_555
