# generated using pymatgen
data_Li9Mn2Co5O16
_symmetry_space_group_name_H-M   'P 1'
_cell_length_a   5.11595800
_cell_length_b   7.72323835
_cell_length_c   7.73466347
_cell_angle_alpha   82.86493617
_cell_angle_beta   83.47508104
_cell_angle_gamma   71.54790445
_symmetry_Int_Tables_number   1
_chemical_formula_structural   Li9Mn2Co5O16
_chemical_formula_sum   'Li9 Mn2 Co5 O16'
_cell_volume   286.75526093
_cell_formula_units_Z   1
loop_
 _symmetry_equiv_pos_site_id
 _symmetry_equiv_pos_as_xyz
  1  'x, y, z'
loop_
 _atom_site_type_symbol
 _atom_site_label
 _atom_site_symmetry_multiplicity
 _atom_site_fract_x
 _atom_site_fract_y
 _atom_site_fract_z
 _atom_site_occupancy
  Li  Li0  1  0.51132500  0.80448500  0.06149200  1
  Li  Li1  1  0.50062100  0.44438200  0.18402300  1
  Li  Li2  1  0.50772900  0.67970000  0.44739500  1
  Li  Li3  1  0.49227100  0.32030000  0.55260500  1
  Li  Li4  1  0.49937900  0.55561800  0.81597700  1
  Li  Li5  1  0.48867500  0.19551500  0.93850800  1
  Li  Li6  1  0.48731200  0.06917400  0.31145000  1
  Li  Li7  1  0.51268800  0.93082600  0.68855000  1
  Li  Li8  1  0.00000000  0.50000000  0.00000000  1
  Mn  Mn0  1  0.01345200  0.86795100  0.87640600  1
  Mn  Mn1  1  0.98654800  0.13204900  0.12359400  1
  Co  Co0  1  0.99842200  0.74073600  0.24676900  1
  Co  Co1  1  0.99527000  0.37713100  0.37104200  1
  Co  Co2  1  0.00000000  0.00000000  0.50000000  1
  Co  Co3  1  0.00473000  0.62286900  0.62895800  1
  Co  Co4  1  0.00157800  0.25926400  0.75323100  1
  O  O0  1  0.22180400  0.03351200  0.91756500  1
  O  O1  1  0.23631700  0.67515800  0.02526900  1
  O  O2  1  0.20433500  0.92331500  0.28097800  1
  O  O3  1  0.23298000  0.53892700  0.40763300  1
  O  O4  1  0.24529600  0.77999900  0.67336200  1
  O  O5  1  0.23681100  0.39642000  0.77065700  1
  O  O6  1  0.21373400  0.27630400  0.16135600  1
  O  O7  1  0.21502700  0.15689600  0.52447000  1
  O  O8  1  0.76318900  0.60358000  0.22934300  1
  O  O9  1  0.75470400  0.22000100  0.32663800  1
  O  O10  1  0.76702000  0.46107300  0.59236700  1
  O  O11  1  0.79566500  0.07668500  0.71902200  1
  O  O12  1  0.76368300  0.32484200  0.97473100  1
  O  O13  1  0.77819600  0.96648800  0.08243500  1
  O  O14  1  0.78497300  0.84310400  0.47553000  1
  O  O15  1  0.78626600  0.72369600  0.83864400  1
loop_
_geom_bond_atom_site_label_1
_geom_bond_atom_site_label_2
_geom_bond_distance
_geom_bond_site_symmetry_2
Li0 O1 2.025900 1_555
Li0 O8 2.089864 1_555
Li0 O15 2.121173 1_554
Li0 O13 2.153539 1_555
Li0 O0 2.188381 1_564
Li0 O2 2.249348 1_555
Li1 O9 2.081975 1_555
Li1 O12 2.091341 1_554
Li1 O3 2.131185 1_555
Li1 O8 2.167627 1_555
Li1 O1 2.195660 1_555
Li1 O6 2.278386 1_555
Li2 O8 2.038905 1_555
Li2 O10 2.077955 1_555
Li2 O3 2.097871 1_555
Li2 O4 2.145232 1_555
Li2 O14 2.218844 1_555
Li2 O2 2.368504 1_555
Li3 O5 2.038905 1_555
Li3 O3 2.077955 1_555
Li3 O10 2.097871 1_555
Li3 O9 2.145232 1_555
Li3 O7 2.218844 1_555
Li3 O11 2.368504 1_555
Li4 O4 2.081975 1_555
Li4 O1 2.091341 1_556
Li4 O10 2.131185 1_555
Li4 O5 2.167627 1_555
Li4 O12 2.195660 1_555
Li4 O15 2.278386 1_555
Li5 O12 2.025900 1_555
Li5 O5 2.089864 1_555
Li5 O6 2.121173 1_556
Li5 O0 2.153539 1_555
Li5 O13 2.188381 1_546
Li5 O11 2.249348 1_555
Li6 O7 2.066984 1_555
Li6 O9 2.078775 1_555
Li6 O6 2.087189 1_555
Li6 O2 2.143887 1_545
Li6 O13 2.232494 1_545
Li6 O14 2.276789 1_545
Li7 O14 2.066984 1_555
Li7 O4 2.078775 1_555
Li7 O15 2.087189 1_555
Li7 O11 2.143887 1_565
Li7 O0 2.232494 1_565
Li7 O7 2.276789 1_565
Li8 O6 2.077666 1_555
Li8 O15 2.077666 1_454
Li8 O1 2.117682 1_555
Li8 O12 2.117682 1_454
Li8 O8 2.122498 1_455
Li8 O5 2.122498 1_554
Mn0 O1 1.908031 1_556
Mn0 O15 1.911842 1_455
Mn0 O4 1.914757 1_555
Mn0 O13 1.962836 1_456
Mn0 O0 1.978269 1_565
Mn0 O11 2.001465 1_465
Mn1 O12 1.908031 1_554
Mn1 O6 1.911842 1_655
Mn1 O9 1.914757 1_555
Mn1 O0 1.962836 1_654
Mn1 O13 1.978269 1_545
Mn1 O2 2.001465 1_645
Co0 O8 1.862213 1_555
Co0 O1 2.006084 1_655
Co0 O3 2.022620 1_655
Co0 O2 2.065067 1_655
Co0 O14 2.076086 1_555
Co0 O13 2.111006 1_555
Co1 O6 1.958768 1_655
Co1 O10 2.014086 1_555
Co1 O7 2.038794 1_655
Co1 O8 2.043217 1_555
Co1 O3 2.061202 1_655
Co1 O9 2.061652 1_555
Co2 O7 1.913744 1_555
Co2 O14 1.913744 1_445
Co2 O11 1.941198 1_455
Co2 O2 1.941198 1_545
Co2 O4 2.174058 1_545
Co2 O9 2.174058 1_455
Co3 O15 1.958768 1_455
Co3 O3 2.014086 1_555
Co3 O14 2.038794 1_455
Co3 O5 2.043217 1_555
Co3 O10 2.061202 1_455
Co3 O4 2.061652 1_555
Co4 O5 1.862213 1_555
Co4 O12 2.006084 1_455
Co4 O10 2.022620 1_455
Co4 O11 2.065067 1_455
Co4 O7 2.076086 1_555
Co4 O0 2.111006 1_555
