# generated using pymatgen
data_SrCa3(Co2O5)2
_symmetry_space_group_name_H-M   'P 1'
_cell_length_a   10.68646179
_cell_length_b   11.14713130
_cell_length_c   17.21050079
_cell_angle_alpha   109.13866554
_cell_angle_beta   108.37797825
_cell_angle_gamma   89.06183797
_symmetry_Int_Tables_number   1
_chemical_formula_structural   SrCa3(Co2O5)2
_chemical_formula_sum   'Sr8 Ca24 Co32 O80'
_cell_volume   1829.39730321
_cell_formula_units_Z   8
loop_
 _symmetry_equiv_pos_site_id
 _symmetry_equiv_pos_as_xyz
  1  'x, y, z'
loop_
 _atom_site_type_symbol
 _atom_site_label
 _atom_site_symmetry_multiplicity
 _atom_site_fract_x
 _atom_site_fract_y
 _atom_site_fract_z
 _atom_site_occupancy
  Sr  Sr0  1  0.30985900  0.56380500  0.61155900  1
  Sr  Sr1  1  0.80621100  0.05921000  0.61120200  1
  Sr  Sr2  1  0.19759200  0.43982400  0.89093600  1
  Sr  Sr3  1  0.05789800  0.29739500  0.61081300  1
  Sr  Sr4  1  0.05826400  0.80111000  0.61131700  1
  Sr  Sr5  1  0.55688400  0.29850900  0.61143300  1
  Sr  Sr6  1  0.44621300  0.20070700  0.88886600  1
  Sr  Sr7  1  0.94384800  0.19982700  0.38397400  1
  Ca  Ca0  1  0.30531300  0.06666200  0.11016800  1
  Ca  Ca1  1  0.30805800  0.06458000  0.60530800  1
  Ca  Ca2  1  0.30497300  0.56808300  0.11257400  1
  Ca  Ca3  1  0.80222900  0.06732600  0.10805500  1
  Ca  Ca4  1  0.80687100  0.56501800  0.11020100  1
  Ca  Ca5  1  0.80569500  0.56538500  0.60883100  1
  Ca  Ca6  1  0.19586200  0.43371500  0.38889700  1
  Ca  Ca7  1  0.19843100  0.93398900  0.38949500  1
  Ca  Ca8  1  0.19710900  0.93566600  0.89357700  1
  Ca  Ca9  1  0.69456300  0.43337200  0.38940300  1
  Ca  Ca10  1  0.70036300  0.43246400  0.89259200  1
  Ca  Ca11  1  0.69296900  0.92974500  0.38917100  1
  Ca  Ca12  1  0.69399500  0.93628000  0.89072800  1
  Ca  Ca13  1  0.05593000  0.29370600  0.11088400  1
  Ca  Ca14  1  0.05618700  0.79158100  0.11064400  1
  Ca  Ca15  1  0.55558700  0.29376600  0.11193500  1
  Ca  Ca16  1  0.55431800  0.79532600  0.11131600  1
  Ca  Ca17  1  0.55875800  0.79451100  0.60858400  1
  Ca  Ca18  1  0.44498400  0.20461700  0.38879600  1
  Ca  Ca19  1  0.44887800  0.70795000  0.39076800  1
  Ca  Ca20  1  0.44509800  0.71157300  0.89279100  1
  Ca  Ca21  1  0.94714700  0.20701500  0.89257200  1
  Ca  Ca22  1  0.94552700  0.70631500  0.38853600  1
  Ca  Ca23  1  0.94759100  0.70605100  0.89207900  1
  Co  Co0  1  0.00586200  0.00093600  0.00111700  1
  Co  Co1  1  0.00217700  0.99711600  0.49500400  1
  Co  Co2  1  0.00697300  0.50028100  0.00364500  1
  Co  Co3  1  0.00160000  0.49932900  0.49616000  1
  Co  Co4  1  0.50636800  0.00222600  0.00410200  1
  Co  Co5  1  0.50274500  0.99735800  0.49596700  1
  Co  Co6  1  0.50682500  0.50191100  0.00344100  1
  Co  Co7  1  0.50307500  0.49741400  0.49423600  1
  Co  Co8  1  0.25562400  0.25207600  0.00336800  1
  Co  Co9  1  0.25220800  0.24709300  0.49404900  1
  Co  Co10  1  0.25693600  0.75312300  0.00443900  1
  Co  Co11  1  0.25494200  0.74992200  0.49665300  1
  Co  Co12  1  0.75726200  0.25134800  0.00359500  1
  Co  Co13  1  0.75059800  0.24783300  0.49620600  1
  Co  Co14  1  0.75603700  0.75065800  0.00092300  1
  Co  Co15  1  0.75209700  0.74553700  0.49522600  1
  Co  Co16  1  0.10875100  0.09075100  0.24493800  1
  Co  Co17  1  0.11059400  0.09260200  0.75392700  1
  Co  Co18  1  0.10831600  0.59498200  0.25017400  1
  Co  Co19  1  0.10682100  0.59991000  0.74997300  1
  Co  Co20  1  0.60491400  0.09342400  0.24938700  1
  Co  Co21  1  0.60767700  0.09133800  0.74780800  1
  Co  Co22  1  0.60651700  0.59308800  0.24781900  1
  Co  Co23  1  0.61537000  0.60165200  0.75443300  1
  Co  Co24  1  0.35821200  0.40656200  0.25008900  1
  Co  Co25  1  0.36731400  0.41020100  0.75387100  1
  Co  Co26  1  0.35853200  0.90561500  0.25054300  1
  Co  Co27  1  0.36337700  0.90527500  0.75019800  1
  Co  Co28  1  0.85788300  0.40939700  0.24977500  1
  Co  Co29  1  0.85933500  0.40901500  0.75303800  1
  Co  Co30  1  0.85741800  0.90158700  0.24675400  1
  Co  Co31  1  0.85889200  0.90226000  0.75396500  1
  O  O0  1  0.12810100  0.12192000  0.48876700  1
  O  O1  1  0.12485100  0.12436800  0.99003600  1
  O  O2  1  0.12358000  0.62339100  0.48200800  1
  O  O3  1  0.12301000  0.62662400  0.99109400  1
  O  O4  1  0.62167900  0.12126400  0.48325100  1
  O  O5  1  0.62758900  0.12049800  0.99066100  1
  O  O6  1  0.62726100  0.62002900  0.48659200  1
  O  O7  1  0.62890100  0.62829400  0.98995900  1
  O  O8  1  0.13258900  0.38643900  0.01653900  1
  O  O9  1  0.12908000  0.38198600  0.50380000  1
  O  O10  1  0.14117500  0.87310800  0.01351500  1
  O  O11  1  0.13157900  0.88392900  0.50574300  1
  O  O12  1  0.64290800  0.37439200  0.01464000  1
  O  O13  1  0.63067700  0.38421800  0.50723700  1
  O  O14  1  0.63160600  0.88567300  0.01413100  1
  O  O15  1  0.63000200  0.87210800  0.50711000  1
  O  O16  1  0.36803000  0.11380100  0.48267600  1
  O  O17  1  0.37742800  0.11246800  0.99302100  1
  O  O18  1  0.37823600  0.61462000  0.48608300  1
  O  O19  1  0.37351000  0.63154500  0.99283400  1
  O  O20  1  0.87322000  0.11098800  0.48809400  1
  O  O21  1  0.86860800  0.12625500  0.98941500  1
  O  O22  1  0.87434000  0.61321500  0.48638800  1
  O  O23  1  0.87726700  0.61095000  0.98858600  1
  O  O24  1  0.38572700  0.38329800  0.01743400  1
  O  O25  1  0.37745900  0.37545000  0.50300700  1
  O  O26  1  0.38624100  0.88349700  0.01701400  1
  O  O27  1  0.38189100  0.87838200  0.50979700  1
  O  O28  1  0.88596800  0.38222400  0.01668500  1
  O  O29  1  0.87492700  0.37897500  0.50723900  1
  O  O30  1  0.88351500  0.87735100  0.01401200  1
  O  O31  1  0.87719800  0.87166500  0.50212500  1
  O  O32  1  0.08830800  0.09839800  0.13747600  1
  O  O33  1  0.08276800  0.08835800  0.64255300  1
  O  O34  1  0.08762900  0.60339900  0.14253000  1
  O  O35  1  0.07521700  0.59219200  0.63753300  1
  O  O36  1  0.58822800  0.10388400  0.14298600  1
  O  O37  1  0.57893000  0.09063300  0.63786700  1
  O  O38  1  0.58776400  0.60139100  0.14067400  1
  O  O39  1  0.58637200  0.59987800  0.64307900  1
  O  O40  1  0.44549800  0.39824700  0.35801500  1
  O  O41  1  0.44980500  0.40778500  0.86354500  1
  O  O42  1  0.44411200  0.89783500  0.35802600  1
  O  O43  1  0.45148900  0.89992000  0.85910100  1
  O  O44  1  0.94452200  0.40728500  0.35831400  1
  O  O45  1  0.94260200  0.39595100  0.85996600  1
  O  O46  1  0.94478600  0.90066300  0.35652300  1
  O  O47  1  0.94604600  0.89935700  0.86374400  1
  O  O48  1  0.33739100  0.28894200  0.14408000  1
  O  O49  1  0.33619500  0.29424800  0.64553000  1
  O  O50  1  0.33976700  0.78771800  0.14443500  1
  O  O51  1  0.33517600  0.79583300  0.64080000  1
  O  O52  1  0.84046500  0.28842200  0.14486500  1
  O  O53  1  0.82924800  0.29753600  0.64389900  1
  O  O54  1  0.83668600  0.78391200  0.14027700  1
  O  O55  1  0.83132100  0.79156700  0.64427200  1
  O  O56  1  0.18857100  0.20804300  0.35101000  1
  O  O57  1  0.19183700  0.20699500  0.86095900  1
  O  O58  1  0.19529600  0.71015100  0.35553800  1
  O  O59  1  0.19507500  0.71366300  0.85715400  1
  O  O60  1  0.68557300  0.21068400  0.35527100  1
  O  O61  1  0.69262100  0.20894700  0.85451900  1
  O  O62  1  0.69093000  0.70743600  0.35397800  1
  O  O63  1  0.70236100  0.71752000  0.86174800  1
  O  O64  1  0.42345500  0.06586700  0.24880700  1
  O  O65  1  0.42517300  0.06220500  0.74304400  1
  O  O66  1  0.42544500  0.56701400  0.24969900  1
  O  O67  1  0.43806100  0.57277400  0.75876300  1
  O  O68  1  0.92563800  0.05567200  0.23920200  1
  O  O69  1  0.93223800  0.06297600  0.75845300  1
  O  O70  1  0.92507600  0.56957400  0.24896800  1
  O  O71  1  0.92681900  0.57003900  0.75196400  1
  O  O72  1  0.17562200  0.43215100  0.24961300  1
  O  O73  1  0.18685000  0.44411900  0.75122900  1
  O  O74  1  0.17592600  0.92987200  0.24864500  1
  O  O75  1  0.18697300  0.93589700  0.75943800  1
  O  O76  1  0.67494000  0.43140600  0.24920800  1
  O  O77  1  0.68229900  0.44202900  0.75927700  1
  O  O78  1  0.67661600  0.93223000  0.25002400  1
  O  O79  1  0.67566600  0.92955100  0.75108300  1
loop_
_geom_bond_atom_site_label_1
_geom_bond_atom_site_label_2
_geom_bond_distance
_geom_bond_site_symmetry_2
Ca0 O64 2.324050 1_555
Ca0 O48 2.356050 1_555
Ca0 O26 2.481358 1_545
Ca0 O32 2.505043 1_555
Ca0 O10 2.535665 1_545
Ca0 O17 2.566552 1_554
Ca0 O1 2.593221 1_554
Ca0 O36 2.905600 1_555
Ca1 O65 2.314230 1_555
Ca1 O49 2.419878 1_555
Ca1 O27 2.481863 1_545
Ca1 O11 2.524309 1_545
Ca1 O0 2.549109 1_555
Ca1 O16 2.605762 1_555
Ca1 O33 2.668010 1_555
Ca1 O37 2.770456 1_555
Ca2 O66 2.308512 1_555
Ca2 O50 2.335392 1_555
Ca2 O8 2.496605 1_555
Ca2 O24 2.507976 1_555
Ca2 O34 2.531300 1_555
Ca2 O3 2.620632 1_554
Ca2 O19 2.684838 1_554
Ca2 O38 2.915795 1_555
Ca3 O68 2.271630 1_555
Ca3 O52 2.342741 1_555
Ca3 O14 2.480717 1_545
Ca3 O5 2.507535 1_554
Ca3 O36 2.536382 1_555
Ca3 O30 2.537243 1_545
Ca3 O21 2.629053 1_554
Ca3 O32 2.943844 1_655
Ca4 O70 2.306996 1_555
Ca4 O54 2.327344 1_555
Ca4 O28 2.471398 1_555
Ca4 O12 2.510698 1_555
Ca4 O38 2.554562 1_555
Ca4 O7 2.613149 1_554
Ca4 O23 2.630049 1_554
Ca4 O34 2.885789 1_655
Ca5 O71 2.377857 1_555
Ca5 O55 2.390142 1_555
Ca5 O29 2.511037 1_555
Ca5 O13 2.525844 1_555
Ca5 O39 2.584880 1_555
Ca5 O6 2.589526 1_555
Ca5 O22 2.643375 1_555
Ca5 O35 2.768269 1_655
Ca6 O72 2.332205 1_555
Ca6 O56 2.378714 1_555
Ca6 O2 2.477991 1_555
Ca6 O9 2.530530 1_555
Ca6 O25 2.537051 1_555
Ca6 O18 2.554218 1_555
Ca6 O44 2.571160 1_455
Ca6 O40 2.877031 1_555
Ca7 O74 2.344355 1_555
Ca7 O58 2.366997 1_555
Ca7 O16 2.460221 1_565
Ca7 O0 2.506738 1_565
Ca7 O11 2.543799 1_555
Ca7 O46 2.594616 1_455
Ca7 O27 2.599395 1_555
Ca7 O42 2.840361 1_555
Ca8 O75 2.277625 1_555
Ca8 O59 2.343826 1_555
Ca8 O1 2.498453 1_565
Ca8 O17 2.521824 1_565
Ca8 O47 2.580010 1_455
Ca8 O10 2.615340 1_556
Ca8 O26 2.645835 1_556
Ca8 O43 2.954191 1_555
Ca9 O76 2.347896 1_555
Ca9 O60 2.352094 1_555
Ca9 O6 2.464119 1_555
Ca9 O22 2.530982 1_555
Ca9 O13 2.548126 1_555
Ca9 O29 2.549285 1_555
Ca9 O40 2.553068 1_555
Ca9 O44 2.877465 1_555
Ca10 O77 2.278911 1_555
Ca10 O61 2.355034 1_555
Ca10 O23 2.502055 1_555
Ca10 O7 2.551524 1_555
Ca10 O41 2.566108 1_555
Ca10 O28 2.624068 1_556
Ca10 O12 2.631731 1_556
Ca10 O45 2.813258 1_555
Ca11 O62 2.348957 1_555
Ca11 O78 2.354946 1_555
Ca11 O4 2.493549 1_565
Ca11 O31 2.538595 1_555
Ca11 O42 2.548203 1_555
Ca11 O20 2.548498 1_565
Ca11 O15 2.591554 1_555
Ca11 O46 2.909969 1_555
Ca12 O79 2.324987 1_555
Ca12 O63 2.329535 1_555
Ca12 O5 2.466691 1_565
Ca12 O43 2.485324 1_555
Ca12 O21 2.573660 1_565
Ca12 O14 2.638976 1_556
Ca12 O30 2.682523 1_556
Ca12 O47 2.875298 1_555
Ca13 O72 2.332631 1_555
Ca13 O32 2.365980 1_555
Ca13 O28 2.456489 1_455
Ca13 O8 2.518576 1_555
Ca13 O52 2.554100 1_455
Ca13 O1 2.603365 1_554
Ca13 O21 2.605109 1_454
Ca13 O48 2.882238 1_555
Ca14 O74 2.324251 1_555
Ca14 O34 2.330199 1_555
Ca14 O30 2.476826 1_455
Ca14 O10 2.534887 1_555
Ca14 O3 2.554834 1_554
Ca14 O54 2.561087 1_455
Ca14 O23 2.634919 1_454
Ca14 O50 2.902521 1_555
Ca15 O76 2.312914 1_555
Ca15 O36 2.342521 1_555
Ca15 O24 2.465693 1_555
Ca15 O12 2.545984 1_555
Ca15 O48 2.565741 1_555
Ca15 O17 2.618106 1_554
Ca15 O5 2.645661 1_554
Ca15 O52 2.919072 1_555
Ca16 O78 2.333459 1_555
Ca16 O38 2.373511 1_555
Ca16 O26 2.444626 1_555
Ca16 O19 2.532700 1_554
Ca16 O50 2.539905 1_555
Ca16 O14 2.548907 1_555
Ca16 O7 2.629730 1_554
Ca16 O54 2.906998 1_555
Ca17 O79 2.355902 1_555
Ca17 O39 2.420711 1_555
Ca17 O15 2.495665 1_555
Ca17 O27 2.509018 1_555
Ca17 O51 2.616339 1_555
Ca17 O6 2.640421 1_555
Ca17 O18 2.641494 1_555
Ca17 O55 2.782864 1_555
Ca18 O64 2.338473 1_555
Ca18 O40 2.385672 1_555
Ca18 O4 2.463494 1_555
Ca18 O16 2.499859 1_555
Ca18 O25 2.530956 1_555
Ca18 O56 2.611894 1_555
Ca18 O13 2.646627 1_555
Ca18 O60 2.813263 1_555
Ca19 O66 2.356662 1_555
Ca19 O42 2.358159 1_555
Ca19 O18 2.503772 1_555
Ca19 O6 2.516049 1_555
Ca19 O15 2.524638 1_555
Ca19 O27 2.578092 1_555
Ca19 O58 2.585201 1_555
Ca19 O62 2.849868 1_555
Ca20 O67 2.296643 1_555
Ca20 O43 2.361520 1_555
Ca20 O19 2.491130 1_555
Ca20 O7 2.530509 1_555
Ca20 O59 2.547461 1_555
Ca20 O26 2.600200 1_556
Ca20 O14 2.635250 1_556
Ca20 O63 2.967068 1_555
Ca21 O69 2.297333 1_555
Ca21 O45 2.346769 1_555
Ca21 O21 2.486666 1_555
Ca21 O1 2.493214 1_655
Ca21 O61 2.590704 1_555
Ca21 O28 2.628288 1_556
Ca21 O8 2.673029 1_656
Ca21 O57 2.833826 1_655
Ca22 O70 2.328096 1_555
Ca22 O46 2.403406 1_555
Ca22 O2 2.459708 1_655
Ca22 O31 2.499112 1_555
Ca22 O22 2.543932 1_555
Ca22 O62 2.596095 1_555
Ca22 O11 2.631203 1_655
Ca22 O58 2.902447 1_655
Ca23 O71 2.332207 1_555
Ca23 O47 2.358827 1_555
Ca23 O3 2.474393 1_655
Ca23 O63 2.515307 1_555
Ca23 O23 2.532789 1_555
Ca23 O30 2.598972 1_556
Ca23 O10 2.638801 1_656
Ca23 O59 2.899358 1_655
Co0 O1 1.982086 1_554
Co0 O21 2.018543 1_454
Co0 O30 2.024586 1_445
Co0 O10 2.025885 1_545
Co0 O32 2.125981 1_555
Co0 O47 2.143781 1_444
Co1 O20 1.860882 1_465
Co1 O11 1.863587 1_555
Co1 O0 2.002036 1_565
Co1 O31 2.007768 1_455
Co1 O46 2.152214 1_455
Co1 O33 2.276130 1_565
Co2 O8 1.844635 1_555
Co2 O23 1.854033 1_454
Co2 O28 1.971482 1_455
Co2 O3 1.998343 1_554
Co2 O34 2.170105 1_555
Co2 O45 2.237922 1_454
Co3 O22 1.851661 1_455
Co3 O9 1.877661 1_555
Co3 O29 2.014618 1_455
Co3 O2 2.037433 1_555
Co3 O44 2.136581 1_455
Co3 O35 2.186002 1_555
Co4 O17 1.837848 1_554
Co4 O14 1.858338 1_545
Co4 O26 1.969097 1_545
Co4 O5 1.978550 1_554
Co4 O36 2.168092 1_555
Co4 O43 2.259452 1_544
Co5 O16 1.932748 1_565
Co5 O15 1.945362 1_555
Co5 O27 1.985061 1_555
Co5 O4 2.000520 1_565
Co5 O42 2.148767 1_555
Co5 O37 2.194782 1_565
Co6 O24 1.985512 1_555
Co6 O19 2.023048 1_554
Co6 O12 2.026764 1_555
Co6 O7 2.050819 1_554
Co6 O38 2.140567 1_555
Co6 O41 2.169901 1_554
Co7 O13 1.854202 1_555
Co7 O18 1.857832 1_555
Co7 O6 1.983451 1_555
Co7 O25 1.998821 1_555
Co7 O40 2.123734 1_555
Co7 O39 2.309969 1_555
Co8 O1 1.918593 1_554
Co8 O24 1.937384 1_555
Co8 O8 1.980965 1_555
Co8 O17 2.011461 1_554
Co8 O48 2.195904 1_555
Co8 O57 2.207797 1_554
Co9 O0 1.901463 1_555
Co9 O25 1.910627 1_555
Co9 O16 1.918280 1_555
Co9 O9 1.982299 1_555
Co9 O56 2.227927 1_555
Co9 O49 2.349476 1_555
Co10 O10 1.809504 1_555
Co10 O19 1.831019 1_554
Co10 O3 1.932849 1_554
Co10 O26 1.933718 1_555
Co10 O50 2.189645 1_555
Co10 O59 2.297326 1_554
Co11 O27 1.897324 1_555
Co11 O2 1.905828 1_555
Co11 O11 1.976404 1_555
Co11 O18 1.987464 1_555
Co11 O58 2.197344 1_555
Co11 O51 2.234327 1_555
Co12 O21 1.823588 1_554
Co12 O12 1.825212 1_555
Co12 O28 1.930204 1_555
Co12 O5 1.938077 1_554
Co12 O52 2.205162 1_555
Co12 O61 2.319745 1_554
Co13 O4 1.897897 1_555
Co13 O29 1.913338 1_555
Co13 O13 1.972318 1_555
Co13 O20 1.993444 1_555
Co13 O60 2.196744 1_555
Co13 O53 2.284544 1_555
Co14 O7 1.863402 1_554
Co14 O30 1.887313 1_555
Co14 O14 1.996421 1_555
Co14 O23 2.009810 1_554
Co14 O54 2.180917 1_555
Co14 O63 2.182476 1_554
Co15 O6 1.886514 1_555
Co15 O31 1.905282 1_555
Co15 O15 1.911455 1_555
Co15 O22 1.954588 1_555
Co15 O62 2.201654 1_555
Co15 O55 2.311242 1_555
Co16 O56 1.805336 1_555
Co16 O32 1.823057 1_555
Co16 O74 1.933766 1_545
Co16 O68 1.967173 1_455
Co17 O57 1.805713 1_555
Co17 O33 1.829311 1_555
Co17 O75 1.933829 1_545
Co17 O69 1.969529 1_455
Co18 O58 1.802822 1_555
Co18 O34 1.828899 1_555
Co18 O72 1.939627 1_555
Co18 O70 1.975810 1_455
Co19 O59 1.818918 1_555
Co19 O35 1.829189 1_555
Co19 O73 1.926671 1_555
Co19 O71 1.970341 1_455
Co20 O60 1.804686 1_555
Co20 O36 1.825421 1_555
Co20 O78 1.943824 1_545
Co20 O64 1.964706 1_555
Co21 O37 1.816157 1_555
Co21 O61 1.823353 1_555
Co21 O79 1.944598 1_545
Co21 O65 1.954070 1_555
Co22 O62 1.802200 1_555
Co22 O38 1.824120 1_555
Co22 O76 1.938440 1_555
Co22 O66 1.973293 1_555
Co23 O63 1.826494 1_555
Co23 O39 1.835783 1_555
Co23 O77 1.924201 1_555
Co23 O67 1.955558 1_555
Co24 O48 1.811708 1_555
Co24 O40 1.829307 1_555
Co24 O66 1.941204 1_555
Co24 O72 1.965197 1_555
Co25 O49 1.816800 1_555
Co25 O41 1.823180 1_555
Co25 O67 1.941007 1_555
Co25 O73 1.948413 1_555
Co26 O42 1.817040 1_555
Co26 O50 1.818321 1_555
Co26 O64 1.939574 1_565
Co26 O74 1.957168 1_555
Co27 O51 1.808913 1_555
Co27 O43 1.833512 1_555
Co27 O65 1.934350 1_565
Co27 O75 1.956504 1_555
Co28 O44 1.812397 1_555
Co28 O52 1.820148 1_555
Co28 O70 1.941234 1_555
Co28 O76 1.963720 1_555
Co29 O53 1.810384 1_555
Co29 O45 1.827171 1_555
Co29 O77 1.950792 1_555
Co29 O71 1.953161 1_555
Co30 O54 1.818020 1_555
Co30 O46 1.827851 1_555
Co30 O68 1.935377 1_565
Co30 O78 1.971633 1_555
Co31 O55 1.818546 1_555
Co31 O47 1.835115 1_555
Co31 O69 1.935703 1_565
Co31 O79 1.964196 1_555
O0 Sr7 2.572101 1_455
O0 Sr3 2.655648 1_555
O2 Sr4 2.721737 1_555
O2 Sr0 2.739385 1_555
O3 Sr2 2.530001 1_555
O4 Sr5 2.703754 1_555
O4 Sr1 2.726237 1_555
O5 Sr6 2.540614 1_555
O8 Sr2 2.704348 1_554
O9 Sr0 2.585292 1_555
O9 Sr3 2.627829 1_555
O9 Sr7 2.665726 1_455
O11 Sr4 2.605532 1_555
O12 Sr6 2.714501 1_554
O13 Sr5 2.605819 1_555
O15 Sr1 2.580045 1_565
O16 Sr5 2.747216 1_555
O17 Sr6 2.594566 1_555
O18 Sr0 2.707196 1_555
O19 Sr2 2.602336 1_555
O20 Sr7 2.608142 1_555
O20 Sr1 2.665919 1_555
O20 Sr3 2.702149 1_655
O22 Sr4 2.718472 1_655
O24 Sr2 2.697565 1_554
O24 Sr6 2.713360 1_554
O25 Sr5 2.575596 1_555
O25 Sr0 2.578729 1_555
O29 Sr3 2.575776 1_655
O29 Sr7 2.681445 1_555
O31 Sr4 2.553543 1_655
O31 Sr1 2.596696 1_565
O33 Sr3 2.553725 1_555
O33 Sr1 2.835867 1_455
O33 Sr4 3.069251 1_545
O35 Sr4 2.506691 1_555
O35 Sr0 2.678723 1_555
O37 Sr5 2.497555 1_555
O37 Sr1 2.608084 1_555
O39 Sr0 2.841260 1_555
O41 Sr6 2.488535 1_555
O41 Sr2 2.876370 1_555
O44 Sr7 2.493038 1_555
O45 Sr2 2.627821 1_655
O49 Sr5 2.608300 1_555
O49 Sr3 2.844785 1_555
O51 Sr0 2.469763 1_555
O51 Sr4 2.843394 1_555
O53 Sr1 2.527618 1_555
O53 Sr3 2.677944 1_655
O53 Sr5 2.785928 1_555
O55 Sr4 2.670215 1_655
O56 Sr7 2.854316 1_455
O57 Sr2 2.472478 1_555
O57 Sr6 2.611079 1_555
O60 Sr7 2.654251 1_555
O61 Sr6 2.883890 1_555
O65 Sr6 2.418161 1_555
O67 Sr0 2.440311 1_555
O68 Sr7 2.430490 1_555
O69 Sr1 2.453156 1_555
O73 Sr2 2.387048 1_555
O73 Sr3 2.407548 1_555
O75 Sr4 2.448083 1_555
O77 Sr5 2.465901 1_555
