# generated using pymatgen
data_ScHgAu2
_symmetry_space_group_name_H-M   'P 1'
_cell_length_a   11.34457736
_cell_length_b   11.34457736
_cell_length_c   11.34457736
_cell_angle_alpha   121.86114847
_cell_angle_beta   119.48069187
_cell_angle_gamma   88.85442250
_symmetry_Int_Tables_number   1
_chemical_formula_structural   ScHgAu2
_chemical_formula_sum   'Sc1 Hg1 Au2'
_cell_volume   1021.14853595
_cell_formula_units_Z   1
loop_
 _symmetry_equiv_pos_site_id
 _symmetry_equiv_pos_as_xyz
  1  'x, y, z'
loop_
 _atom_site_type_symbol
 _atom_site_label
 _atom_site_symmetry_multiplicity
 _atom_site_fract_x
 _atom_site_fract_y
 _atom_site_fract_z
 _atom_site_occupancy
  Sc  Sc0  1  0.00000000  0.00000000  0.00000000  1
  Hg  Hg0  1  0.00000000  0.50000000  0.50000000  1
  Au  Au0  1  0.00000000  0.23391000  0.23391000  1
  Au  Au1  1  0.00000000  0.76609000  0.76609000  1
loop_
_geom_bond_atom_site_label_1
_geom_bond_atom_site_label_2
_geom_bond_distance
_geom_bond_site_symmetry_2
Au0 Sc0 2.578614 1_555
Au0 Hg0 2.933365 1_555
Au1 Sc0 2.578614 1_566
Au1 Hg0 2.933365 1_555
