# generated using pymatgen
data_CaCu2(BiO4)2
_symmetry_space_group_name_H-M   'P 1'
_cell_length_a   9.10796800
_cell_length_b   6.70452200
_cell_length_c   13.52471502
_cell_angle_alpha   89.14381347
_cell_angle_beta   90.00000000
_cell_angle_gamma   90.00000000
_symmetry_Int_Tables_number   1
_chemical_formula_structural   CaCu2(BiO4)2
_chemical_formula_sum   'Ca4 Cu8 Bi8 O32'
_cell_volume   825.78872311
_cell_formula_units_Z   4
loop_
 _symmetry_equiv_pos_site_id
 _symmetry_equiv_pos_as_xyz
  1  'x, y, z'
loop_
 _atom_site_type_symbol
 _atom_site_label
 _atom_site_symmetry_multiplicity
 _atom_site_fract_x
 _atom_site_fract_y
 _atom_site_fract_z
 _atom_site_occupancy
  Ca  Ca0  1  0.15932100  0.11977100  0.04027500  1
  Ca  Ca1  1  0.84067900  0.88022900  0.95972500  1
  Ca  Ca2  1  0.65932100  0.88022900  0.45972500  1
  Ca  Ca3  1  0.34067900  0.11977100  0.54027500  1
  Cu  Cu0  1  0.19147000  0.74713400  0.88149100  1
  Cu  Cu1  1  0.05051700  0.37550100  0.61694700  1
  Cu  Cu2  1  0.94948300  0.62449900  0.38305300  1
  Cu  Cu3  1  0.80853000  0.25286600  0.11850900  1
  Cu  Cu4  1  0.30853000  0.74713400  0.38149100  1
  Cu  Cu5  1  0.44948300  0.37550100  0.11694700  1
  Cu  Cu6  1  0.69147000  0.25286600  0.61850900  1
  Cu  Cu7  1  0.55051700  0.62449900  0.88305300  1
  Bi  Bi0  1  0.44945800  0.10032800  0.83541900  1
  Bi  Bi1  1  0.05054200  0.10032800  0.33541900  1
  Bi  Bi2  1  0.09461000  0.61213400  0.14328900  1
  Bi  Bi3  1  0.94945800  0.89967200  0.66458100  1
  Bi  Bi4  1  0.90539000  0.38786600  0.85671100  1
  Bi  Bi5  1  0.59461000  0.38786600  0.35671100  1
  Bi  Bi6  1  0.40539000  0.61213400  0.64328900  1
  Bi  Bi7  1  0.55054200  0.89967200  0.16458100  1
  O  O0  1  0.25782900  0.01850500  0.38702200  1
  O  O1  1  0.01378000  0.64514500  0.58882900  1
  O  O2  1  0.58109700  0.20894900  0.49094500  1
  O  O3  1  0.08109700  0.79105100  0.00905500  1
  O  O4  1  0.24217100  0.01850500  0.88702200  1
  O  O5  1  0.74217100  0.98149500  0.61297800  1
  O  O6  1  0.10055600  0.10387500  0.60617600  1
  O  O7  1  0.87670200  0.50833100  0.13797400  1
  O  O8  1  0.62329800  0.50833100  0.63797400  1
  O  O9  1  0.87469600  0.30697000  0.68459000  1
  O  O10  1  0.37469600  0.69303000  0.81541000  1
  O  O11  1  0.12329800  0.49166900  0.86202600  1
  O  O12  1  0.89944400  0.89612500  0.39382400  1
  O  O13  1  0.52055600  0.86420400  0.31275300  1
  O  O14  1  0.24780000  0.41724900  0.58492400  1
  O  O15  1  0.25220000  0.41724900  0.08492400  1
  O  O16  1  0.02055600  0.13579600  0.18724700  1
  O  O17  1  0.37670200  0.49166900  0.36202600  1
  O  O18  1  0.47944400  0.13579600  0.68724700  1
  O  O19  1  0.41890300  0.79105100  0.50905500  1
  O  O20  1  0.48622000  0.64514500  0.08882900  1
  O  O21  1  0.12530400  0.69303000  0.31541000  1
  O  O22  1  0.75782900  0.98149500  0.11297800  1
  O  O23  1  0.39944400  0.10387500  0.10617600  1
  O  O24  1  0.91890300  0.20894900  0.99094500  1
  O  O25  1  0.74780000  0.58275100  0.91507600  1
  O  O26  1  0.98622000  0.35485500  0.41117100  1
  O  O27  1  0.51378000  0.35485500  0.91117100  1
  O  O28  1  0.60055600  0.89612500  0.89382400  1
  O  O29  1  0.75220000  0.58275100  0.41507600  1
  O  O30  1  0.62530400  0.30697000  0.18459000  1
  O  O31  1  0.97944400  0.86420400  0.81275300  1
loop_
_geom_bond_atom_site_label_1
_geom_bond_atom_site_label_2
_geom_bond_distance
_geom_bond_site_symmetry_2
Ca0 O15 2.257007 1_555
Ca0 O4 2.317008 1_554
Ca0 O16 2.359333 1_555
Ca0 O3 2.360280 1_545
Ca0 O24 2.363377 1_454
Ca0 O23 2.363479 1_555
Ca1 O25 2.257007 1_555
Ca1 O22 2.317008 1_556
Ca1 O31 2.359333 1_555
Ca1 O24 2.360280 1_565
Ca1 O3 2.363377 1_656
Ca1 O28 2.363479 1_555
Ca2 O29 2.257007 1_555
Ca2 O5 2.317008 1_555
Ca2 O13 2.359333 1_555
Ca2 O2 2.360280 1_565
Ca2 O19 2.363377 1_555
Ca2 O12 2.363479 1_555
Ca3 O14 2.257007 1_555
Ca3 O0 2.317008 1_555
Ca3 O18 2.359333 1_555
Ca3 O19 2.360280 1_545
Ca3 O2 2.363377 1_555
Ca3 O6 2.363479 1_555
Cu0 O11 1.844422 1_555
Cu0 O4 1.879673 1_565
Cu0 O10 1.930017 1_555
Cu0 O3 2.022127 1_556
Cu0 O31 2.277669 1_455
Cu1 O14 1.868411 1_555
Cu1 O1 1.871976 1_555
Cu1 O6 1.885033 1_555
Cu1 O9 1.897339 1_455
Cu2 O29 1.868411 1_555
Cu2 O26 1.871976 1_555
Cu2 O12 1.885033 1_555
Cu2 O21 1.897339 1_655
Cu3 O7 1.844422 1_555
Cu3 O22 1.879673 1_545
Cu3 O30 1.930017 1_555
Cu3 O24 2.022127 1_554
Cu3 O16 2.277669 1_655
Cu4 O17 1.844422 1_555
Cu4 O0 1.879673 1_565
Cu4 O21 1.930017 1_555
Cu4 O19 2.022127 1_555
Cu4 O13 2.277669 1_555
Cu5 O15 1.868411 1_555
Cu5 O20 1.871976 1_555
Cu5 O23 1.885033 1_555
Cu5 O30 1.897339 1_555
Cu6 O8 1.844422 1_555
Cu6 O5 1.879673 1_545
Cu6 O9 1.930017 1_555
Cu6 O2 2.022127 1_555
Cu6 O18 2.277669 1_555
Cu7 O25 1.868411 1_555
Cu7 O27 1.871976 1_555
Cu7 O28 1.885033 1_555
Cu7 O10 1.897339 1_555
Bi0 O18 2.032941 1_555
Bi0 O4 2.083505 1_555
Bi0 O27 2.087389 1_555
Bi0 O28 2.088048 1_545
Bi1 O16 2.032941 1_555
Bi1 O0 2.083505 1_555
Bi1 O26 2.087389 1_455
Bi1 O12 2.088048 1_445
Bi2 O15 2.102693 1_555
Bi2 O7 2.104766 1_455
Bi2 O3 2.164474 1_555
Bi2 O21 2.414355 1_555
Bi3 O31 2.032941 1_555
Bi3 O5 2.083505 1_555
Bi3 O1 2.087389 1_655
Bi3 O6 2.088048 1_665
Bi4 O25 2.102693 1_555
Bi4 O11 2.104766 1_655
Bi4 O24 2.164474 1_555
Bi4 O9 2.414355 1_555
Bi5 O29 2.102693 1_555
Bi5 O17 2.104766 1_555
Bi5 O2 2.164474 1_555
Bi5 O30 2.414355 1_555
Bi6 O14 2.102693 1_555
Bi6 O8 2.104766 1_555
Bi6 O19 2.164474 1_555
Bi6 O10 2.414355 1_555
Bi7 O13 2.032941 1_555
Bi7 O22 2.083505 1_555
Bi7 O20 2.087389 1_555
Bi7 O23 2.088048 1_565
