# generated using pymatgen
data_LiMg6Cu
_symmetry_space_group_name_H-M   'P 1'
_cell_length_a   4.97858900
_cell_length_b   6.12501800
_cell_length_c   10.63868600
_cell_angle_alpha   90.00000000
_cell_angle_beta   90.00000000
_cell_angle_gamma   90.00000000
_symmetry_Int_Tables_number   1
_chemical_formula_structural   LiMg6Cu
_chemical_formula_sum   'Li2 Mg12 Cu2'
_cell_volume   324.41552958
_cell_formula_units_Z   2
loop_
 _symmetry_equiv_pos_site_id
 _symmetry_equiv_pos_as_xyz
  1  'x, y, z'
loop_
 _atom_site_type_symbol
 _atom_site_label
 _atom_site_symmetry_multiplicity
 _atom_site_fract_x
 _atom_site_fract_y
 _atom_site_fract_z
 _atom_site_occupancy
  Li  Li0  1  0.50000000  0.50000000  0.16993000  1
  Li  Li1  1  0.50000000  0.00000000  0.66993000  1
  Mg  Mg0  1  0.00000000  0.74662100  0.08565000  1
  Mg  Mg1  1  0.00000000  0.25337900  0.08565000  1
  Mg  Mg2  1  0.00000000  0.00000000  0.33280500  1
  Mg  Mg3  1  0.50000000  0.25943700  0.41245100  1
  Mg  Mg4  1  0.50000000  0.74056300  0.41245100  1
  Mg  Mg5  1  0.50000000  0.00000000  0.16652200  1
  Mg  Mg6  1  0.00000000  0.24662100  0.58565000  1
  Mg  Mg7  1  0.00000000  0.75337900  0.58565000  1
  Mg  Mg8  1  0.00000000  0.50000000  0.83280500  1
  Mg  Mg9  1  0.50000000  0.75943700  0.91245100  1
  Mg  Mg10  1  0.50000000  0.24056300  0.91245100  1
  Mg  Mg11  1  0.50000000  0.50000000  0.66652200  1
  Cu  Cu0  1  0.00000000  0.50000000  0.33454000  1
  Cu  Cu1  1  0.00000000  0.00000000  0.83454000  1
loop_
_geom_bond_atom_site_label_1
_geom_bond_atom_site_label_2
_geom_bond_distance
_geom_bond_site_symmetry_2
Li0 Mg4 2.971196 1_555
Li0 Mg3 2.971196 1_555
Li0 Mg0 3.046689 1_655
Li0 Mg0 3.046689 1_555
Li0 Mg1 3.046689 1_555
Li0 Mg1 3.046689 1_655
Li0 Mg5 3.062724 1_565
Li0 Mg5 3.062724 1_555
Li0 Mg9 3.166785 1_554
Li0 Mg10 3.166785 1_554
Li1 Mg10 2.971196 1_555
Li1 Mg9 2.971196 1_545
Li1 Mg6 3.046689 1_655
Li1 Mg6 3.046689 1_555
Li1 Mg7 3.046689 1_645
Li1 Mg7 3.046689 1_545
Li1 Mg11 3.062724 1_555
Li1 Mg11 3.062724 1_545
Li1 Mg3 3.166785 1_555
Li1 Mg4 3.166785 1_545
Mg0 Mg1 3.021116 1_555
Mg0 Mg2 3.053247 1_565
Mg0 Mg5 3.057021 1_465
Mg0 Mg5 3.057021 1_565
Mg0 Mg8 3.085054 1_554
Mg0 Mg9 3.098057 1_454
Mg0 Mg9 3.098057 1_554
Mg0 Mg1 3.103902 1_565
Mg1 Mg2 3.053247 1_555
Mg1 Mg5 3.057021 1_455
Mg1 Mg5 3.057021 1_555
Mg1 Mg8 3.085054 1_554
Mg1 Mg10 3.098057 1_454
Mg1 Mg10 3.098057 1_554
Mg2 Mg5 3.053860 1_455
Mg2 Mg5 3.053860 1_555
Mg2 Mg4 3.072402 1_445
Mg2 Mg3 3.072402 1_555
Mg2 Mg4 3.072402 1_545
Mg2 Mg3 3.072402 1_455
Mg2 Mg6 3.085054 1_555
Mg2 Mg7 3.085054 1_545
Mg3 Mg4 2.946905 1_555
Mg3 Mg5 3.061119 1_555
Mg3 Mg6 3.098057 1_555
Mg3 Mg6 3.098057 1_655
Mg3 Mg4 3.178113 1_545
Mg4 Mg5 3.061119 1_565
Mg4 Mg7 3.098057 1_655
Mg4 Mg7 3.098057 1_555
Mg5 Mg9 3.078502 1_544
Mg6 Mg7 3.021116 1_545
Mg6 Mg8 3.053247 1_555
Mg6 Mg7 3.103902 1_555
Mg7 Mg8 3.053247 1_555
Mg8 Mg9 3.072402 1_555
Mg8 Mg9 3.072402 1_455
Mg10 Mg9 2.946905 1_545
Mg10 Mg11 3.061119 1_555
Mg10 Mg8 3.072402 1_655
Mg10 Mg8 3.072402 1_555
Mg10 Mg5 3.078502 1_556
Mg10 Mg9 3.178113 1_555
Mg11 Mg8 3.053860 1_555
Mg11 Mg8 3.053860 1_655
Mg11 Mg7 3.057021 1_555
Mg11 Mg7 3.057021 1_655
Mg11 Mg6 3.057021 1_655
Mg11 Mg6 3.057021 1_555
Mg11 Mg9 3.061119 1_555
Mg11 Mg4 3.078502 1_555
Mg11 Mg3 3.078502 1_555
Cu0 Mg3 3.009099 1_455
Cu0 Mg4 3.009099 1_455
Cu0 Mg3 3.009099 1_555
Cu0 Mg4 3.009099 1_555
Cu0 Li0 3.043585 1_555
Cu0 Li0 3.043585 1_455
Cu0 Mg0 3.048436 1_555
Cu0 Mg1 3.048436 1_555
Cu0 Mg2 3.062565 1_565
Cu0 Mg2 3.062565 1_555
Cu0 Mg7 3.089557 1_555
Cu0 Mg6 3.089557 1_555
Cu1 Mg10 3.009099 1_455
Cu1 Mg10 3.009099 1_555
Cu1 Mg9 3.009099 1_445
Cu1 Mg9 3.009099 1_545
Cu1 Li1 3.043585 1_555
Cu1 Li1 3.043585 1_455
Cu1 Mg6 3.048436 1_555
Cu1 Mg7 3.048436 1_545
Cu1 Mg8 3.062565 1_555
Cu1 Mg8 3.062565 1_545
Cu1 Mg1 3.089557 1_556
Cu1 Mg0 3.089557 1_546
