# generated using pymatgen
data_Li9Mn2Co5O16
_symmetry_space_group_name_H-M   'P 1'
_cell_length_a   4.98115100
_cell_length_b   5.91785422
_cell_length_c   9.81859075
_cell_angle_alpha   88.20180242
_cell_angle_beta   79.03141250
_cell_angle_gamma   88.65222022
_symmetry_Int_Tables_number   1
_chemical_formula_structural   Li9Mn2Co5O16
_chemical_formula_sum   'Li9 Mn2 Co5 O16'
_cell_volume   283.95696140
_cell_formula_units_Z   1
loop_
 _symmetry_equiv_pos_site_id
 _symmetry_equiv_pos_as_xyz
  1  'x, y, z'
loop_
 _atom_site_type_symbol
 _atom_site_label
 _atom_site_symmetry_multiplicity
 _atom_site_fract_x
 _atom_site_fract_y
 _atom_site_fract_z
 _atom_site_occupancy
  Li  Li0  1  0.25161300  0.00720000  0.25454400  1
  Li  Li1  1  0.24322400  0.25313400  0.74905600  1
  Li  Li2  1  0.24576800  0.49204900  0.25799900  1
  Li  Li3  1  0.75011000  0.24789200  0.24967100  1
  Li  Li4  1  0.75429800  0.50140300  0.74581100  1
  Li  Li5  1  0.75865500  0.75165000  0.25237100  1
  Li  Li6  1  0.24761800  0.74422100  0.74794400  1
  Li  Li7  1  0.74885000  0.00456500  0.74372000  1
  Li  Li8  1  0.00046900  0.25169200  0.49809400  1
  Mn  Mn0  1  0.00178000  0.99960100  0.99849200  1
  Mn  Mn1  1  0.49900500  0.00324600  0.49944200  1
  Co  Co0  1  0.00013400  0.49960400  0.00096200  1
  Co  Co1  1  0.99878600  0.75242600  0.50172800  1
  Co  Co2  1  0.49378000  0.49390800  0.49860700  1
  Co  Co3  1  0.49990600  0.74665200  0.00052800  1
  Co  Co4  1  0.50054700  0.25196300  0.99963900  1
  O  O0  1  0.14116700  0.76524500  0.11737200  1
  O  O1  1  0.13346500  0.97543900  0.60700300  1
  O  O2  1  0.13684000  0.27337200  0.11776800  1
  O  O3  1  0.63967600  0.99629800  0.11347000  1
  O  O4  1  0.59432000  0.24165900  0.60831500  1
  O  O5  1  0.64397300  0.49428700  0.11429500  1
  O  O6  1  0.13800400  0.52003600  0.60894200  1
  O  O7  1  0.64144000  0.76676700  0.61497300  1
  O  O8  1  0.39275000  0.23386000  0.38003600  1
  O  O9  1  0.35720100  0.50244700  0.88654100  1
  O  O10  1  0.37023300  0.75206300  0.39398600  1
  O  O11  1  0.86583500  0.53085500  0.39855200  1
  O  O12  1  0.86164400  0.72470100  0.88487700  1
  O  O13  1  0.86401700  0.98338200  0.39113400  1
  O  O14  1  0.36279300  0.00386100  0.88439000  1
  O  O15  1  0.86210100  0.23452200  0.87974000  1
loop_
_geom_bond_atom_site_label_1
_geom_bond_atom_site_label_2
_geom_bond_distance
_geom_bond_site_symmetry_2
Li0 O8 2.071079 1_555
Li0 O13 2.135788 1_445
Li0 O0 2.146366 1_545
Li0 O10 2.153939 1_545
Li0 O3 2.154097 1_545
Li0 O2 2.174523 1_555
Li1 O4 2.013296 1_555
Li1 O15 2.082449 1_455
Li1 O14 2.105547 1_555
Li1 O6 2.182008 1_555
Li1 O9 2.185731 1_555
Li1 O1 2.328345 1_545
Li2 O2 2.072200 1_555
Li2 O8 2.114866 1_555
Li2 O11 2.131754 1_455
Li2 O5 2.204633 1_555
Li2 O0 2.210395 1_555
Li2 O10 2.241347 1_555
Li3 O8 1.986744 1_555
Li3 O5 2.069286 1_555
Li3 O2 2.112560 1_655
Li3 O3 2.179728 1_545
Li3 O13 2.196154 1_545
Li3 O11 2.406846 1_555
Li4 O12 2.078664 1_555
Li4 O6 2.119992 1_655
Li4 O7 2.130524 1_555
Li4 O15 2.147189 1_555
Li4 O9 2.186710 1_555
Li4 O4 2.327564 1_555
Li5 O11 2.047795 1_555
Li5 O0 2.105523 1_655
Li5 O13 2.106079 1_555
Li5 O3 2.109649 1_555
Li5 O10 2.157089 1_555
Li5 O5 2.224667 1_555
Li6 O1 2.062674 1_555
Li6 O9 2.078624 1_555
Li6 O6 2.086196 1_555
Li6 O12 2.129413 1_455
Li6 O7 2.144139 1_555
Li6 O14 2.224401 1_565
Li7 O7 2.066164 1_545
Li7 O15 2.095388 1_555
Li7 O1 2.126589 1_645
Li7 O4 2.133129 1_555
Li7 O14 2.143578 1_555
Li7 O12 2.255667 1_545
Li8 O11 2.056749 1_455
Li8 O8 2.075812 1_555
Li8 O1 2.088998 1_545
Li8 O4 2.106195 1_455
Li8 O13 2.124409 1_445
Li8 O6 2.149206 1_555
Mn0 O14 1.929561 1_565
Mn0 O3 1.937412 1_456
Mn0 O0 1.982285 1_556
Mn0 O15 1.984390 1_465
Mn0 O12 2.200423 1_455
Mn0 O2 2.217913 1_566
Mn1 O8 1.902341 1_555
Mn1 O4 1.917825 1_555
Mn1 O13 1.926783 1_545
Mn1 O1 1.931112 1_545
Mn1 O7 1.976996 1_545
Mn1 O10 2.021710 1_545
Co0 O5 1.906785 1_455
Co0 O9 1.914601 1_554
Co0 O12 1.926179 1_454
Co0 O2 1.931154 1_555
Co0 O0 2.177489 1_555
Co0 O15 2.197635 1_454
Co1 O11 1.887764 1_555
Co1 O6 1.903271 1_655
Co1 O13 1.907594 1_555
Co1 O1 1.910861 1_655
Co1 O7 1.912478 1_555
Co1 O10 1.948739 1_655
Co2 O6 1.898725 1_555
Co2 O4 1.925796 1_555
Co2 O11 1.939135 1_555
Co2 O10 1.966142 1_555
Co2 O8 2.085362 1_555
Co2 O7 2.223789 1_555
Co3 O0 1.933895 1_555
Co3 O12 1.942337 1_554
Co3 O5 2.035458 1_555
Co3 O14 2.054793 1_564
Co3 O9 2.073395 1_554
Co3 O3 2.083762 1_555
Co4 O15 1.957564 1_555
Co4 O2 1.960180 1_556
Co4 O9 2.022102 1_555
Co4 O3 2.039088 1_546
Co4 O5 2.071178 1_556
Co4 O14 2.086661 1_555
