# generated using pymatgen
data_Cr6Cd(CuO6)2
_symmetry_space_group_name_H-M   'P 1'
_cell_length_a   6.11138900
_cell_length_b   13.38425005
_cell_length_c   6.11138900
_cell_angle_alpha   76.80268279
_cell_angle_beta   90.00000000
_cell_angle_gamma   76.80268279
_symmetry_Int_Tables_number   1
_chemical_formula_structural   Cr6Cd(CuO6)2
_chemical_formula_sum   'Cr12 Cd2 Cu4 O24'
_cell_volume   473.11653814
_cell_formula_units_Z   2
loop_
 _symmetry_equiv_pos_site_id
 _symmetry_equiv_pos_as_xyz
  1  'x, y, z'
loop_
 _atom_site_type_symbol
 _atom_site_label
 _atom_site_symmetry_multiplicity
 _atom_site_fract_x
 _atom_site_fract_y
 _atom_site_fract_z
 _atom_site_occupancy
  Cr  Cr0  1  0.79025200  0.41761600  0.54071000  1
  Cr  Cr1  1  0.12197000  0.75422800  0.87616900  1
  Cr  Cr2  1  0.45959900  0.07873600  0.20749400  1
  Cr  Cr3  1  0.46166400  0.07873600  0.71376900  1
  Cr  Cr4  1  0.79213400  0.41761600  0.04167600  1
  Cr  Cr5  1  0.12380200  0.75422800  0.36960300  1
  Cr  Cr6  1  0.12595700  0.24905100  0.87453300  1
  Cr  Cr7  1  0.45917200  0.58793000  0.20500200  1
  Cr  Cr8  1  0.79049800  0.91243900  0.54286500  1
  Cr  Cr9  1  0.29706400  0.91243900  0.54469700  1
  Cr  Cr10  1  0.62499100  0.24905100  0.87641500  1
  Cr  Cr11  1  0.95289700  0.58793000  0.20706700  1
  Cd  Cd0  1  0.91857900  0.16284300  0.41857900  1
  Cd  Cd1  1  0.24808800  0.50382400  0.74808800  1
  Cu  Cu0  1  0.58333300  0.83333300  0.08333300  1
  Cu  Cu1  1  0.00148000  0.99704100  0.00148000  1
  Cu  Cu2  1  0.33333300  0.33333300  0.33333300  1
  Cu  Cu3  1  0.66518700  0.66962600  0.66518700  1
  O  O0  1  0.25677600  0.06811700  0.46691300  1
  O  O1  1  0.58382600  0.40645900  0.79767000  1
  O  O2  1  0.90309800  0.74867200  0.12659400  1
  O  O3  1  0.23490400  0.08718500  0.95517300  1
  O  O4  1  0.56375400  0.42592400  0.28584900  1
  O  O5  1  0.90470800  0.75398500  0.62216500  1
  O  O6  1  0.00971600  0.40645900  0.79587200  1
  O  O7  1  0.34823000  0.74867200  0.12473400  1
  O  O8  1  0.67510700  0.06811700  0.46497000  1
  O  O9  1  0.67791000  0.08718500  0.95764000  1
  O  O10  1  0.01032400  0.42592400  0.28822800  1
  O  O11  1  0.34130700  0.75398500  0.62385000  1
  O  O12  1  0.86899700  0.26020800  0.65695100  1
  O  O13  1  0.19975300  0.59854900  0.99155900  1
  O  O14  1  0.54007300  0.91799500  0.31843700  1
  O  O15  1  0.37843900  0.24074300  0.10291300  1
  O  O16  1  0.70902600  0.57948100  0.43176200  1
  O  O17  1  0.04281700  0.91268200  0.76195900  1
  O  O18  1  0.54193300  0.91799500  0.76356900  1
  O  O19  1  0.87079500  0.26020800  0.08284100  1
  O  O20  1  0.20169600  0.59854900  0.40989000  1
  O  O21  1  0.38081800  0.24074300  0.65634300  1
  O  O22  1  0.71149300  0.57948100  0.98875600  1
  O  O23  1  0.04450200  0.91268200  0.32536000  1
loop_
_geom_bond_atom_site_label_1
_geom_bond_atom_site_label_2
_geom_bond_distance
_geom_bond_site_symmetry_2
Cr0 O12 2.007107 1_555
Cr0 O6 2.013735 1_655
Cr0 O1 2.014659 1_555
Cr0 O10 2.047458 1_655
Cr0 O4 2.050618 1_555
Cr0 O16 2.057549 1_555
Cr1 O13 1.985359 1_555
Cr1 O17 2.018558 1_555
Cr1 O7 2.031410 1_556
Cr1 O2 2.032351 1_456
Cr1 O11 2.043270 1_555
Cr1 O5 2.043760 1_455
Cr2 O8 2.010785 1_555
Cr2 O0 2.011893 1_555
Cr2 O9 2.028416 1_554
Cr2 O3 2.031206 1_554
Cr2 O14 2.044729 1_545
Cr2 O15 2.057264 1_555
Cr3 O0 2.010776 1_555
Cr3 O8 2.011893 1_555
Cr3 O3 2.028411 1_555
Cr3 O9 2.031201 1_555
Cr3 O18 2.044728 1_545
Cr3 O21 2.057264 1_555
Cr4 O19 2.007108 1_555
Cr4 O1 2.013744 1_554
Cr4 O6 2.014659 1_654
Cr4 O4 2.047453 1_555
Cr4 O10 2.050614 1_655
Cr4 O22 2.057548 1_554
Cr5 O20 1.985361 1_555
Cr5 O23 2.018558 1_555
Cr5 O2 2.031410 1_455
Cr5 O7 2.032351 1_555
Cr5 O5 2.043270 1_455
Cr5 O11 2.043760 1_555
Cr6 O6 2.007107 1_555
Cr6 O19 2.013739 1_456
Cr6 O12 2.014655 1_455
Cr6 O15 2.047458 1_556
Cr6 O21 2.050618 1_555
Cr6 O3 2.057561 1_555
Cr7 O20 2.010781 1_555
Cr7 O13 2.011897 1_554
Cr7 O16 2.028416 1_555
Cr7 O22 2.031206 1_554
Cr7 O7 2.044740 1_555
Cr7 O4 2.057252 1_555
Cr8 O8 1.985348 1_565
Cr8 O5 2.018558 1_555
Cr8 O18 2.031410 1_555
Cr8 O14 2.032350 1_555
Cr8 O17 2.043270 1_655
Cr8 O23 2.043760 1_655
Cr9 O0 1.985347 1_565
Cr9 O11 2.018558 1_555
Cr9 O14 2.031410 1_555
Cr9 O18 2.032351 1_555
Cr9 O23 2.043270 1_555
Cr9 O17 2.043760 1_555
Cr10 O1 2.007108 1_555
Cr10 O12 2.013740 1_555
Cr10 O19 2.014663 1_556
Cr10 O21 2.047453 1_555
Cr10 O15 2.050614 1_556
Cr10 O9 2.057561 1_555
Cr11 O13 2.010780 1_654
Cr11 O20 2.011889 1_655
Cr11 O22 2.028411 1_554
Cr11 O16 2.031201 1_555
Cr11 O2 2.044741 1_555
Cr11 O10 2.057250 1_655
Cd0 O12 2.144479 1_555
Cd0 O19 2.144484 1_555
Cd0 O0 2.144534 1_655
Cd0 O8 2.144539 1_555
Cd1 O6 2.144479 1_555
Cd1 O1 2.144484 1_555
Cd1 O13 2.144525 1_555
Cd1 O20 2.144535 1_555
Cu0 O7 2.006212 1_555
Cu0 O18 2.006216 1_554
Cu0 O2 2.006217 1_555
Cu0 O14 2.006227 1_555
Cu1 O23 2.026277 1_555
Cu1 O17 2.026277 1_554
Cu1 O3 2.049578 1_564
Cu1 O9 2.049588 1_464
Cu2 O10 2.058046 1_555
Cu2 O21 2.058047 1_555
Cu2 O15 2.058047 1_555
Cu2 O4 2.058061 1_555
Cu3 O11 2.026277 1_555
Cu3 O5 2.026277 1_555
Cu3 O22 2.049587 1_555
Cu3 O16 2.049593 1_555
