# generated using pymatgen
data_RbMg6Zr
_symmetry_space_group_name_H-M   'P 1'
_cell_length_a   6.75841813
_cell_length_b   6.75841813
_cell_length_c   5.25008000
_cell_angle_alpha   90.00000000
_cell_angle_beta   90.00000000
_cell_angle_gamma   119.16224820
_symmetry_Int_Tables_number   1
_chemical_formula_structural   RbMg6Zr
_chemical_formula_sum   'Rb1 Mg6 Zr1'
_cell_volume   209.40705800
_cell_formula_units_Z   1
loop_
 _symmetry_equiv_pos_site_id
 _symmetry_equiv_pos_as_xyz
  1  'x, y, z'
loop_
 _atom_site_type_symbol
 _atom_site_label
 _atom_site_symmetry_multiplicity
 _atom_site_fract_x
 _atom_site_fract_y
 _atom_site_fract_z
 _atom_site_occupancy
  Rb  Rb0  1  0.58578300  0.41421700  0.50000000  1
  Mg  Mg0  1  0.93876900  0.59850400  0.00000000  1
  Mg  Mg1  1  0.40149600  0.06123100  0.00000000  1
  Mg  Mg2  1  0.40094400  0.59905600  0.00000000  1
  Mg  Mg3  1  0.60530500  0.92352200  0.50000000  1
  Mg  Mg4  1  0.07647800  0.39469500  0.50000000  1
  Mg  Mg5  1  0.07528400  0.92471600  0.50000000  1
  Zr  Zr0  1  0.91594000  0.08406000  0.00000000  1
loop_
_geom_bond_atom_site_label_1
_geom_bond_atom_site_label_2
_geom_bond_distance
_geom_bond_site_symmetry_2
Mg0 Mg2 3.121756 1_655
Mg0 Mg1 3.166818 1_665
Mg0 Mg5 3.258882 1_655
Mg0 Mg5 3.258882 1_654
Mg0 Mg4 3.302074 1_655
Mg0 Mg4 3.302074 1_654
Mg0 Rb0 3.352251 1_555
Mg0 Rb0 3.352251 1_554
Mg0 Zr0 3.359475 1_565
Mg0 Zr0 3.404313 1_555
Mg1 Mg2 3.121756 1_545
Mg1 Mg5 3.258882 1_544
Mg1 Mg5 3.258882 1_545
Mg1 Mg3 3.302074 1_544
Mg1 Mg3 3.302074 1_545
Mg1 Rb0 3.352251 1_554
Mg1 Rb0 3.352251 1_555
Mg1 Zr0 3.359475 1_455
Mg1 Zr0 3.404313 1_555
Mg2 Mg4 3.264269 1_554
Mg2 Mg4 3.264269 1_555
Mg2 Mg3 3.264269 1_554
Mg2 Mg3 3.264269 1_555
Mg2 Rb0 3.395997 1_555
Mg2 Rb0 3.395997 1_554
Mg2 Zr0 3.426370 1_455
Mg2 Zr0 3.426370 1_565
Mg3 Mg5 3.172390 1_655
Mg3 Zr0 3.202440 1_566
Mg3 Zr0 3.202440 1_565
Mg3 Mg4 3.224621 1_665
Mg3 Rb0 3.379769 1_555
Mg3 Rb0 3.382576 1_565
Mg4 Mg5 3.172390 1_545
Mg4 Zr0 3.202440 1_456
Mg4 Zr0 3.202440 1_455
Mg4 Rb0 3.379769 1_555
Mg4 Rb0 3.382576 1_455
Mg5 Zr0 3.215675 1_465
Mg5 Zr0 3.215675 1_466
Mg5 Rb0 3.424096 1_455
Mg5 Rb0 3.424096 1_565
