# generated using pymatgen
data_Dy3Cu11Si4
_symmetry_space_group_name_H-M   'P 1'
_cell_length_a   8.42520650
_cell_length_b   8.42520650
_cell_length_c   8.60923600
_cell_angle_alpha   90.00000000
_cell_angle_beta   90.00000000
_cell_angle_gamma   120.00000389
_symmetry_Int_Tables_number   1
_chemical_formula_structural   Dy3Cu11Si4
_chemical_formula_sum   'Dy6 Cu22 Si8'
_cell_volume   529.24447813
_cell_formula_units_Z   2
loop_
 _symmetry_equiv_pos_site_id
 _symmetry_equiv_pos_as_xyz
  1  'x, y, z'
loop_
 _atom_site_type_symbol
 _atom_site_label
 _atom_site_symmetry_multiplicity
 _atom_site_fract_x
 _atom_site_fract_y
 _atom_site_fract_z
 _atom_site_occupancy
  Dy  Dy0  1  0.80210000  0.19790000  0.75000000  1
  Dy  Dy1  1  0.19790000  0.80210000  0.25000000  1
  Dy  Dy2  1  0.39580000  0.19790000  0.75000000  1
  Dy  Dy3  1  0.60420000  0.80210000  0.25000000  1
  Dy  Dy4  1  0.80210000  0.60420000  0.75000000  1
  Dy  Dy5  1  0.19790000  0.39580000  0.25000000  1
  Cu  Cu0  1  0.84719900  0.15280100  0.41015600  1
  Cu  Cu1  1  0.15280100  0.84719900  0.58984400  1
  Cu  Cu2  1  0.30560300  0.15280100  0.41015600  1
  Cu  Cu3  1  0.15280100  0.84719900  0.91015600  1
  Cu  Cu4  1  0.69439700  0.84719900  0.58984400  1
  Cu  Cu5  1  0.84719900  0.15280100  0.08984400  1
  Cu  Cu6  1  0.84719900  0.69439700  0.41015600  1
  Cu  Cu7  1  0.69439700  0.84719900  0.91015600  1
  Cu  Cu8  1  0.15280100  0.30560300  0.58984400  1
  Cu  Cu9  1  0.30560300  0.15280100  0.08984400  1
  Cu  Cu10  1  0.15280100  0.30560300  0.91015600  1
  Cu  Cu11  1  0.84719900  0.69439700  0.08984400  1
  Cu  Cu12  1  0.43443300  0.56556700  0.75000000  1
  Cu  Cu13  1  0.56556700  0.43443300  0.25000000  1
  Cu  Cu14  1  0.13113400  0.56556700  0.75000000  1
  Cu  Cu15  1  0.86886600  0.43443300  0.25000000  1
  Cu  Cu16  1  0.43443300  0.86886600  0.75000000  1
  Cu  Cu17  1  0.56556700  0.13113400  0.25000000  1
  Cu  Cu18  1  0.66666700  0.33333300  0.00745900  1
  Cu  Cu19  1  0.33333300  0.66666700  0.99254100  1
  Cu  Cu20  1  0.33333300  0.66666700  0.50745900  1
  Cu  Cu21  1  0.66666700  0.33333300  0.49254100  1
  Si  Si0  1  0.50000000  0.50000000  0.00000000  1
  Si  Si1  1  0.00000000  0.50000000  0.00000000  1
  Si  Si2  1  0.50000000  0.50000000  0.50000000  1
  Si  Si3  1  0.50000000  0.00000000  0.00000000  1
  Si  Si4  1  0.00000000  0.50000000  0.50000000  1
  Si  Si5  1  0.50000000  0.00000000  0.50000000  1
  Si  Si6  1  0.00000000  0.00000000  0.75000000  1
  Si  Si7  1  0.00000000  0.00000000  0.25000000  1
loop_
_geom_bond_atom_site_label_1
_geom_bond_atom_site_label_2
_geom_bond_distance
_geom_bond_site_symmetry_2
Dy0 Si6 2.887932 1_655
Dy0 Si1 3.105959 1_656
Dy0 Si4 3.105959 1_655
Dy0 Si3 3.105959 1_556
Dy0 Si5 3.105959 1_555
Dy1 Si7 2.887932 1_565
Dy1 Si3 3.105959 1_565
Dy1 Si5 3.105959 1_565
Dy1 Si4 3.105959 1_555
Dy1 Si1 3.105959 1_555
Dy2 Si6 2.887932 1_555
Dy2 Si0 3.105959 1_556
Dy2 Si2 3.105959 1_555
Dy2 Si3 3.105959 1_556
Dy2 Si5 3.105959 1_555
Dy3 Si7 2.887932 1_665
Dy3 Si2 3.105959 1_555
Dy3 Si0 3.105959 1_555
Dy3 Si5 3.105959 1_565
Dy3 Si3 3.105959 1_565
Dy4 Si6 2.887932 1_665
Dy4 Si2 3.105959 1_555
Dy4 Si0 3.105959 1_556
Dy4 Si1 3.105959 1_656
Dy4 Si4 3.105959 1_655
Dy5 Si7 2.887932 1_555
Dy5 Si2 3.105959 1_555
Dy5 Si0 3.105959 1_555
Dy5 Si4 3.105959 1_555
Dy5 Si1 3.105959 1_555
Cu0 Si7 2.621677 1_655
Cu0 Si5 2.654560 1_555
Cu0 Si4 2.654560 1_655
Cu0 Cu15 2.670493 1_555
Cu0 Cu17 2.670493 1_555
Cu0 Cu8 2.713886 1_655
Cu0 Cu4 2.713886 1_545
Cu0 Cu21 2.728290 1_555
Cu0 Cu5 2.757642 1_555
Cu0 Dy3 2.962061 1_545
Cu0 Dy5 2.962061 1_655
Cu0 Dy0 2.998903 1_555
Cu1 Si6 2.621677 1_565
Cu1 Si4 2.654560 1_555
Cu1 Si5 2.654560 1_565
Cu1 Cu16 2.670493 1_555
Cu1 Cu14 2.670493 1_555
Cu1 Cu6 2.713886 1_455
Cu1 Cu2 2.713886 1_565
Cu1 Cu20 2.728290 1_555
Cu1 Cu3 2.757642 1_555
Cu1 Dy4 2.962061 1_455
Cu1 Dy2 2.962061 1_565
Cu1 Dy1 2.998903 1_555
Cu2 Si7 2.621683 1_555
Cu2 Si5 2.654553 1_555
Cu2 Si2 2.654559 1_555
Cu2 Cu8 2.713898 1_555
Cu2 Cu21 2.728290 1_555
Cu2 Cu9 2.757642 1_555
Cu2 Dy1 2.962060 1_545
Cu2 Dy5 2.962067 1_555
Cu2 Dy2 2.998901 1_555
Cu3 Si6 2.621677 1_565
Cu3 Si1 2.654560 1_556
Cu3 Si3 2.654560 1_566
Cu3 Cu9 2.713886 1_566
Cu3 Dy4 2.962061 1_455
Cu3 Dy2 2.962061 1_565
Cu3 Dy1 2.998903 1_556
Cu4 Si6 2.621683 1_665
Cu4 Si5 2.654553 1_565
Cu4 Si2 2.654559 1_555
Cu4 Cu6 2.713898 1_555
Cu4 Cu7 2.757642 1_555
Cu4 Dy0 2.962060 1_565
Cu4 Dy4 2.962067 1_555
Cu4 Dy3 2.998901 1_555
Cu5 Si7 2.621677 1_655
Cu5 Si3 2.654560 1_555
Cu5 Si1 2.654560 1_655
Cu5 Cu7 2.713886 1_544
Cu5 Dy3 2.962061 1_545
Cu5 Dy5 2.962061 1_655
Cu5 Dy0 2.998903 1_554
Cu6 Si7 2.621683 1_665
Cu6 Si4 2.654553 1_655
Cu6 Si2 2.654559 1_555
Cu6 Dy1 2.962060 1_655
Cu6 Dy3 2.962067 1_555
Cu6 Dy4 2.998901 1_555
Cu7 Si6 2.621683 1_665
Cu7 Si3 2.654553 1_566
Cu7 Si0 2.654559 1_556
Cu7 Dy0 2.962060 1_565
Cu7 Dy4 2.962067 1_555
Cu7 Dy3 2.998901 1_556
Cu8 Si6 2.621683 1_555
Cu8 Si4 2.654553 1_555
Cu8 Si2 2.654559 1_555
Cu8 Dy0 2.962060 1_455
Cu8 Dy2 2.962067 1_555
Cu8 Dy5 2.998901 1_555
Cu9 Si7 2.621683 1_555
Cu9 Si3 2.654553 1_555
Cu9 Si0 2.654559 1_555
Cu9 Dy1 2.962060 1_545
Cu9 Dy5 2.962067 1_555
Cu9 Dy2 2.998901 1_554
Cu10 Si6 2.621683 1_555
Cu10 Si1 2.654553 1_556
Cu10 Si0 2.654559 1_556
Cu10 Cu14 2.670486 1_555
Cu10 Cu12 2.670490 1_555
Cu10 Cu5 2.713886 1_456
Cu10 Cu9 2.713898 1_556
Cu10 Cu19 2.728290 1_555
Cu10 Cu8 2.757642 1_555
Cu10 Dy0 2.962060 1_455
Cu10 Dy2 2.962067 1_555
Cu10 Dy5 2.998901 1_556
Cu11 Si7 2.621683 1_665
Cu11 Si1 2.654553 1_655
Cu11 Si0 2.654559 1_555
Cu11 Cu15 2.670486 1_555
Cu11 Cu13 2.670490 1_555
Cu11 Cu3 2.713886 1_654
Cu11 Cu7 2.713898 1_554
Cu11 Cu18 2.728290 1_555
Cu11 Cu6 2.757642 1_555
Cu11 Dy1 2.962060 1_655
Cu11 Dy3 2.962067 1_555
Cu11 Dy4 2.998901 1_554
Cu12 Si2 2.355403 1_555
Cu12 Si0 2.355403 1_556
Cu12 Cu14 2.555357 1_555
Cu12 Cu16 2.555357 1_555
Cu12 Cu19 2.556709 1_555
Cu12 Cu20 2.556709 1_555
Cu12 Cu8 2.670490 1_555
Cu12 Cu7 2.670490 1_555
Cu12 Cu4 2.670490 1_555
Cu12 Dy2 2.948430 1_555
Cu12 Dy4 2.948430 1_555
Cu13 Si2 2.355403 1_555
Cu13 Si0 2.355403 1_555
Cu13 Cu17 2.555357 1_555
Cu13 Cu15 2.555357 1_555
Cu13 Cu21 2.556709 1_555
Cu13 Cu18 2.556709 1_555
Cu13 Cu2 2.670490 1_555
Cu13 Cu9 2.670490 1_555
Cu13 Cu6 2.670490 1_555
Cu13 Dy5 2.948430 1_555
Cu13 Dy3 2.948430 1_555
Cu14 Si4 2.355403 1_555
Cu14 Si1 2.355403 1_556
Cu14 Cu16 2.555357 1_555
Cu14 Cu19 2.556705 1_555
Cu14 Cu20 2.556705 1_555
Cu14 Cu8 2.670486 1_555
Cu14 Cu3 2.670493 1_555
Cu14 Dy0 2.948430 1_455
Cu14 Dy4 2.948431 1_455
Cu15 Si1 2.355403 1_655
Cu15 Si4 2.355403 1_655
Cu15 Cu17 2.555357 1_555
Cu15 Cu21 2.556705 1_555
Cu15 Cu18 2.556705 1_555
Cu15 Cu6 2.670486 1_555
Cu15 Cu5 2.670493 1_555
Cu15 Dy1 2.948430 1_655
Cu15 Dy5 2.948431 1_655
Cu16 Si3 2.355403 1_566
Cu16 Si5 2.355403 1_565
Cu16 Cu19 2.556705 1_555
Cu16 Cu20 2.556705 1_555
Cu16 Cu7 2.670486 1_555
Cu16 Cu4 2.670486 1_555
Cu16 Cu3 2.670493 1_555
Cu16 Dy0 2.948430 1_565
Cu16 Dy2 2.948431 1_565
Cu17 Si5 2.355403 1_555
Cu17 Si3 2.355403 1_555
Cu17 Cu21 2.556705 1_555
Cu17 Cu18 2.556705 1_555
Cu17 Cu2 2.670486 1_555
Cu17 Cu9 2.670486 1_555
Cu17 Cu5 2.670493 1_555
Cu17 Dy1 2.948430 1_545
Cu17 Dy3 2.948431 1_545
Cu18 Si1 2.432993 1_655
Cu18 Si3 2.432993 1_555
Cu18 Si0 2.433000 1_555
Cu18 Cu9 2.728290 1_555
Cu18 Cu5 2.728290 1_555
Cu18 Dy0 2.969676 1_554
Cu18 Dy2 2.969681 1_554
Cu18 Dy4 2.969681 1_554
Cu19 Si1 2.432993 1_556
Cu19 Si3 2.432993 1_566
Cu19 Si0 2.433000 1_556
Cu19 Cu7 2.728290 1_555
Cu19 Cu3 2.728290 1_555
Cu19 Dy1 2.969676 1_556
Cu19 Dy5 2.969681 1_556
Cu19 Dy3 2.969681 1_556
Cu20 Si4 2.432993 1_555
Cu20 Si5 2.432993 1_565
Cu20 Si2 2.433000 1_555
Cu20 Cu4 2.728290 1_555
Cu20 Cu8 2.728290 1_555
Cu20 Dy1 2.969676 1_555
Cu20 Dy5 2.969681 1_555
Cu20 Dy3 2.969681 1_555
Cu21 Si4 2.432993 1_655
Cu21 Si5 2.432993 1_555
Cu21 Si2 2.433000 1_555
Cu21 Cu6 2.728290 1_555
Cu21 Dy0 2.969676 1_555
Cu21 Dy2 2.969681 1_555
Cu21 Dy4 2.969681 1_555
