# generated using pymatgen
data_NaZn2CdF7
_symmetry_space_group_name_H-M   'P 1'
_cell_length_a   7.42780611
_cell_length_b   7.42780611
_cell_length_c   7.42780611
_cell_angle_alpha   120.59752996
_cell_angle_beta   119.62924760
_cell_angle_gamma   89.80576928
_symmetry_Int_Tables_number   1
_chemical_formula_structural   NaZn2CdF7
_chemical_formula_sum   'Na2 Zn4 Cd2 F14'
_cell_volume   289.25447463
_cell_formula_units_Z   2
loop_
 _symmetry_equiv_pos_site_id
 _symmetry_equiv_pos_as_xyz
  1  'x, y, z'
loop_
 _atom_site_type_symbol
 _atom_site_label
 _atom_site_symmetry_multiplicity
 _atom_site_fract_x
 _atom_site_fract_y
 _atom_site_fract_z
 _atom_site_occupancy
  Na  Na0  1  0.50000000  0.00000000  0.00000000  1
  Na  Na1  1  0.50000000  0.50000000  0.50000000  1
  Zn  Zn0  1  0.00000000  0.50000000  0.00000000  1
  Zn  Zn1  1  0.00000000  0.00000000  0.50000000  1
  Zn  Zn2  1  0.00000000  0.50000000  0.50000000  1
  Zn  Zn3  1  0.50000000  0.50000000  0.00000000  1
  Cd  Cd0  1  0.50000000  0.00000000  0.50000000  1
  Cd  Cd1  1  0.00000000  0.00000000  0.00000000  1
  F  F0  1  0.33255000  0.59198000  0.17010900  1
  F  F1  1  0.92187100  0.16244100  0.32989100  1
  F  F2  1  0.32777200  0.57777200  0.75000000  1
  F  F3  1  0.91319600  0.16319600  0.75000000  1
  F  F4  1  0.33255000  0.16244100  0.74057000  1
  F  F5  1  0.92187100  0.59198000  0.75943000  1
  F  F6  1  0.66745000  0.40802000  0.82989100  1
  F  F7  1  0.07812900  0.83755900  0.67010900  1
  F  F8  1  0.67222800  0.42222800  0.25000000  1
  F  F9  1  0.08680400  0.83680400  0.25000000  1
  F  F10  1  0.66745000  0.83755900  0.25943000  1
  F  F11  1  0.07812900  0.40802000  0.24057000  1
  F  F12  1  0.63339200  0.88339200  0.75000000  1
  F  F13  1  0.36660800  0.11660800  0.25000000  1
loop_
_geom_bond_atom_site_label_1
_geom_bond_atom_site_label_2
_geom_bond_distance
_geom_bond_site_symmetry_2
Cd0 F13 2.234385 1_555
Cd0 F12 2.234385 1_545
Cd0 F6 2.487650 1_555
Cd0 F4 2.487650 1_555
Cd0 F0 2.487650 1_545
Cd0 F10 2.487650 1_545
Cd0 F3 2.536878 1_555
Cd0 F9 2.536878 1_545
Cd1 F13 2.234385 1_555
Cd1 F12 2.234385 1_444
Cd1 F7 2.487650 1_544
Cd1 F1 2.487650 1_455
Cd1 F5 2.487650 1_444
Cd1 F11 2.487650 1_555
Cd1 F3 2.536878 1_454
Cd1 F9 2.536878 1_545
F0 Zn0 2.052164 1_555
F0 Zn3 2.068734 1_555
F0 Na1 2.589028 1_555
F1 Zn1 2.052164 1_655
F1 Zn2 2.068734 1_655
F1 Na0 2.589028 1_555
F2 Zn3 2.038791 1_556
F2 Zn2 2.038791 1_555
F2 Na1 2.582704 1_555
F2 Na0 2.582704 1_566
F3 Zn1 2.054368 1_655
F3 Zn0 2.054368 1_656
F4 Zn1 2.052164 1_555
F4 Zn3 2.068734 1_556
F4 Na0 2.589028 1_556
F5 Zn0 2.052164 1_656
F5 Zn2 2.068734 1_655
F5 Na1 2.589028 1_555
F6 Zn0 2.052164 1_656
F6 Zn3 2.068734 1_556
F6 Na1 2.589028 1_555
F7 Zn1 2.052164 1_565
F7 Zn2 2.068734 1_555
F7 Na0 2.589028 1_566
F8 Zn3 2.038791 1_555
F8 Zn2 2.038791 1_655
F8 Na1 2.582704 1_555
F8 Na0 2.582704 1_555
F9 Zn1 2.054368 1_565
F9 Zn0 2.054368 1_555
F10 Zn1 2.052164 1_665
F10 Zn3 2.068734 1_555
F10 Na0 2.589028 1_565
F11 Zn0 2.052164 1_555
F11 Zn2 2.068734 1_555
F11 Na1 2.589028 1_555
F12 Na1 2.314354 1_555
F12 Na0 2.314354 1_566
F13 Na0 2.314354 1_555
F13 Na1 2.314354 1_555
