# generated using pymatgen
data_MgTi3Fe2Co(PO4)6
_symmetry_space_group_name_H-M   'P 1'
_cell_length_a   8.67944329
_cell_length_b   8.76051915
_cell_length_c   8.74119492
_cell_angle_alpha   59.91659316
_cell_angle_beta   60.04579666
_cell_angle_gamma   60.02654287
_symmetry_Int_Tables_number   1
_chemical_formula_structural   MgTi3Fe2Co(PO4)6
_chemical_formula_sum   'Mg1 Ti3 Fe2 Co1 P6 O24'
_cell_volume   469.93729021
_cell_formula_units_Z   1
loop_
 _symmetry_equiv_pos_site_id
 _symmetry_equiv_pos_as_xyz
  1  'x, y, z'
loop_
 _atom_site_type_symbol
 _atom_site_label
 _atom_site_symmetry_multiplicity
 _atom_site_fract_x
 _atom_site_fract_y
 _atom_site_fract_z
 _atom_site_occupancy
  Mg  Mg0  1  0.62715200  0.12613000  0.12434600  1
  Ti  Ti0  1  0.07204500  0.64268800  0.64320200  1
  Ti  Ti1  1  0.45294500  0.84933000  0.84793700  1
  Ti  Ti2  1  0.90560000  0.36554600  0.36515200  1
  Fe  Fe0  1  0.02482200  0.99096800  0.99035000  1
  Fe  Fe1  1  0.49757700  0.50123900  0.50201500  1
  Co  Co0  1  0.26827600  0.23887100  0.24370900  1
  P  P0  1  0.26570800  0.24639300  0.54244600  1
  P  P1  1  0.26256400  0.94511400  0.24498900  1
  P  P2  1  0.26490200  0.54408700  0.94699200  1
  P  P3  1  0.76513700  0.45328500  0.03538100  1
  P  P4  1  0.76636600  0.03442100  0.74713100  1
  P  P5  1  0.76348600  0.74676000  0.45358000  1
  O  O0  1  0.08712700  0.11110100  0.30347100  1
  O  O1  1  0.08870000  0.49516600  0.11352500  1
  O  O2  1  0.08908500  0.30611000  0.49253600  1
  O  O3  1  0.25005600  0.08363700  0.73278000  1
  O  O4  1  0.43760400  0.19293300  0.37574200  1
  O  O5  1  0.27784200  0.40624900  0.56278300  1
  O  O6  1  0.24678900  0.93228400  0.08290100  1
  O  O7  1  0.27423000  0.75420100  0.40650000  1
  O  O8  1  0.58689800  0.60502900  0.98643500  1
  O  O9  1  0.27621900  0.56362900  0.75488500  1
  O  O10  1  0.80405000  0.25932200  0.04168000  1
  O  O11  1  0.58712800  0.98670800  0.82305700  1
  O  O12  1  0.43644200  0.99384200  0.18950900  1
  O  O13  1  0.25030500  0.73495300  0.93119000  1
  O  O14  1  0.73057100  0.44441400  0.23411300  1
  O  O15  1  0.43723000  0.37804100  0.99670600  1
  O  O16  1  0.73159800  0.23366900  0.59289700  1
  O  O17  1  0.80654700  0.04022500  0.89676900  1
  O  O18  1  0.72577000  0.59225700  0.44681300  1
  O  O19  1  0.58582800  0.82358900  0.60364800  1
  O  O20  1  0.80339400  0.89591200  0.25881900  1
  O  O21  1  0.93729600  0.65916800  0.51445800  1
  O  O22  1  0.93912500  0.51326900  0.88908400  1
  O  O23  1  0.93920700  0.88803600  0.66104000  1
loop_
_geom_bond_atom_site_label_1
_geom_bond_atom_site_label_2
_geom_bond_distance
_geom_bond_site_symmetry_2
Mg0 O10 2.019383 1_555
Mg0 O20 2.031134 1_545
Mg0 O17 2.045710 1_554
Mg0 O15 2.136737 1_554
Mg0 O4 2.143616 1_555
Mg0 O12 2.172749 1_545
Fe0 O6 2.186369 1_556
Fe0 O17 2.195756 1_465
Fe0 O13 2.212252 1_555
Fe0 O3 2.215374 1_565
Fe0 O20 2.242840 1_456
Fe0 O10 2.257793 1_466
Fe1 O5 2.177837 1_555
Fe1 O9 2.190173 1_555
Fe1 O7 2.198831 1_555
Fe1 O18 2.242598 1_555
Fe1 O16 2.288777 1_555
Fe1 O14 2.292374 1_555
Co0 O12 2.039867 1_545
Co0 O15 2.069836 1_554
Co0 O4 2.071503 1_555
Co0 O0 2.085644 1_555
Co0 O1 2.116250 1_555
Co0 O2 2.118398 1_555
O0 P1 1.565218 1_545
O0 Ti2 2.142237 1_455
O1 P2 1.564574 1_554
O1 Ti2 2.112223 1_455
O2 P0 1.565822 1_555
O2 Ti2 2.099573 1_455
O3 P0 1.552138 1_555
O3 Ti1 2.101098 1_545
O4 P0 1.543901 1_555
O5 P0 1.555480 1_555
O5 Ti0 2.117562 1_555
O6 P1 1.551636 1_555
O6 Ti1 2.115485 1_554
O7 P1 1.551462 1_555
O7 Ti0 2.091789 1_555
O8 P3 1.542526 1_556
O8 Ti1 1.928626 1_555
O9 P2 1.556502 1_555
O9 Ti0 2.096791 1_555
O10 P3 1.534854 1_555
O11 P4 1.541404 1_565
O11 Ti1 1.933202 1_555
O12 P1 1.549289 1_555
O13 P2 1.550889 1_555
O13 Ti1 2.092536 1_555
O14 P3 1.575202 1_555
O14 Ti2 1.998183 1_555
O15 P2 1.543813 1_555
O16 P4 1.573609 1_555
O16 Ti2 2.003495 1_555
O17 P4 1.541118 1_555
O18 P5 1.576395 1_555
O18 Ti2 2.025225 1_555
O19 P5 1.542609 1_555
O19 Ti1 1.924670 1_555
O20 P5 1.535865 1_555
O21 P5 1.543834 1_555
O21 Ti0 1.907331 1_655
O22 P3 1.543598 1_556
O22 Ti0 1.903612 1_655
O23 P4 1.542473 1_565
O23 Ti0 1.911479 1_655
