# generated using pymatgen
data_Ba2ZnCuAg2F14
_symmetry_space_group_name_H-M   'P 1'
_cell_length_a   7.69024817
_cell_length_b   7.69024817
_cell_length_c   15.45770591
_cell_angle_alpha   88.40745003
_cell_angle_beta   88.40745003
_cell_angle_gamma   41.18725586
_symmetry_Int_Tables_number   1
_chemical_formula_structural   Ba2ZnCuAg2F14
_chemical_formula_sum   'Ba4 Zn2 Cu2 Ag4 F28'
_cell_volume   601.73408397
_cell_formula_units_Z   2
loop_
 _symmetry_equiv_pos_site_id
 _symmetry_equiv_pos_as_xyz
  1  'x, y, z'
loop_
 _atom_site_type_symbol
 _atom_site_label
 _atom_site_symmetry_multiplicity
 _atom_site_fract_x
 _atom_site_fract_y
 _atom_site_fract_z
 _atom_site_occupancy
  Ba  Ba0  1  0.09983100  0.27338600  0.37427200  1
  Ba  Ba1  1  0.27338600  0.09983100  0.87427200  1
  Ba  Ba2  1  0.90016900  0.72661400  0.62572800  1
  Ba  Ba3  1  0.72661400  0.90016900  0.12572800  1
  Zn  Zn0  1  0.42503000  0.57497000  0.25000000  1
  Zn  Zn1  1  0.57497000  0.42503000  0.75000000  1
  Cu  Cu0  1  0.50000000  0.50000000  0.00000000  1
  Cu  Cu1  1  0.50000000  0.50000000  0.50000000  1
  Ag  Ag0  1  0.08929100  0.14507200  0.12741200  1
  Ag  Ag1  1  0.91070900  0.85492800  0.87258800  1
  Ag  Ag2  1  0.14507200  0.08929100  0.62741200  1
  Ag  Ag3  1  0.85492800  0.91070900  0.37258800  1
  F  F0  1  0.86231100  0.10954800  0.66527800  1
  F  F1  1  0.86610200  0.41889500  0.54042100  1
  F  F2  1  0.13389800  0.58110500  0.45957900  1
  F  F3  1  0.62646500  0.86312100  0.40467100  1
  F  F4  1  0.62019000  0.46883000  0.38751100  1
  F  F5  1  0.53117000  0.37981000  0.11248900  1
  F  F6  1  0.41889500  0.86610200  0.04042100  1
  F  F7  1  0.89045200  0.13768900  0.83472200  1
  F  F8  1  0.37135800  0.97921100  0.22897500  1
  F  F9  1  0.37353500  0.13687900  0.59532900  1
  F  F10  1  0.77350700  0.43499700  0.22188900  1
  F  F11  1  0.13687900  0.37353500  0.09532900  1
  F  F12  1  0.43499700  0.77350700  0.72188900  1
  F  F13  1  0.22649300  0.56500300  0.77811100  1
  F  F14  1  0.46883000  0.62019000  0.88751100  1
  F  F15  1  0.62864200  0.02078900  0.77102500  1
  F  F16  1  0.14202400  0.70755900  0.99077500  1
  F  F17  1  0.13768900  0.89045200  0.33472200  1
  F  F18  1  0.85797600  0.29244100  0.00922500  1
  F  F19  1  0.70755900  0.14202400  0.49077500  1
  F  F20  1  0.58110500  0.13389800  0.95957900  1
  F  F21  1  0.56500300  0.22649300  0.27811100  1
  F  F22  1  0.97921100  0.37135800  0.72897500  1
  F  F23  1  0.29244100  0.85797600  0.50922500  1
  F  F24  1  0.37981000  0.53117000  0.61248900  1
  F  F25  1  0.10954800  0.86231100  0.16527800  1
  F  F26  1  0.02078900  0.62864200  0.27102500  1
  F  F27  1  0.86312100  0.62646500  0.90467100  1
loop_
_geom_bond_atom_site_label_1
_geom_bond_atom_site_label_2
_geom_bond_distance
_geom_bond_site_symmetry_2
Ba0 F3 2.714489 1_545
Ba0 F8 2.726564 1_545
Ba0 F4 2.745397 1_455
Ba0 F26 2.773538 1_555
Ba0 F17 2.816105 1_545
Ba0 F1 2.820436 1_455
Ba0 F2 2.921176 1_555
Ba0 F10 2.976935 1_455
Ba0 F3 3.035659 1_455
Ba0 F23 3.070896 1_545
Ba1 F27 2.714489 1_455
Ba1 F22 2.726564 1_455
Ba1 F14 2.745397 1_545
Ba1 F15 2.773538 1_555
Ba1 F7 2.816105 1_455
Ba1 F6 2.820436 1_546
Ba1 F20 2.921176 1_555
Ba1 F12 2.976935 1_545
Ba1 F27 3.035659 1_545
Ba1 F18 3.070896 1_456
Ba2 F9 2.714489 1_565
Ba2 F15 2.726564 1_565
Ba2 F24 2.745397 1_655
Ba2 F22 2.773538 1_555
Ba2 F0 2.816105 1_565
Ba2 F2 2.820436 1_655
Ba2 F1 2.921176 1_555
Ba2 F13 2.976935 1_655
Ba2 F9 3.035659 1_655
Ba2 F19 3.070896 1_565
Ba3 F11 2.714489 1_655
Ba3 F26 2.726564 1_655
Ba3 F5 2.745397 1_565
Ba3 F8 2.773538 1_555
Ba3 F25 2.816105 1_655
Ba3 F20 2.820436 1_564
Ba3 F6 2.921176 1_555
Ba3 F21 2.976935 1_565
Ba3 F11 3.035659 1_565
Ba3 F16 3.070896 1_654
Cu0 F14 1.880329 1_554
Cu0 F5 1.880329 1_555
Cu0 F16 1.882055 1_554
Cu0 F18 1.882055 1_555
Cu0 F6 2.477714 1_555
Cu0 F20 2.477714 1_554
Cu1 F24 1.880329 1_555
Cu1 F4 1.880329 1_555
Cu1 F19 1.882055 1_555
Cu1 F23 1.882055 1_555
Cu1 F1 2.477714 1_555
Cu1 F2 2.477714 1_555
Ag0 F11 2.091875 1_555
Ag0 F25 2.125981 1_545
Ag0 F6 2.149832 1_545
Ag0 F8 2.170370 1_545
Ag0 F18 2.194891 1_455
Ag0 F10 2.199015 1_455
Ag1 F27 2.091875 1_555
Ag1 F7 2.125981 1_565
Ag1 F20 2.149832 1_565
Ag1 F15 2.170370 1_565
Ag1 F16 2.194891 1_655
Ag1 F13 2.199015 1_655
Ag2 F9 2.091875 1_555
Ag2 F0 2.125981 1_455
Ag2 F1 2.149832 1_455
Ag2 F22 2.170370 1_455
Ag2 F23 2.194891 1_545
Ag2 F12 2.199015 1_545
Ag3 F3 2.091875 1_555
Ag3 F17 2.125981 1_655
Ag3 F2 2.149832 1_655
Ag3 F26 2.170370 1_655
Ag3 F19 2.194891 1_565
Ag3 F21 2.199015 1_565
F0 Zn1 2.104932 1_555
F4 Zn0 2.382012 1_555
F5 Zn0 2.382012 1_555
F7 Zn1 2.104932 1_555
F10 Zn0 2.036836 1_555
F12 Zn1 2.036836 1_555
F13 Zn1 2.036836 1_555
F14 Zn1 2.382012 1_555
F17 Zn0 2.104932 1_555
F21 Zn0 2.036836 1_555
F24 Zn1 2.382012 1_555
F25 Zn0 2.104932 1_555
