# generated using pymatgen
data_Yb3O7
_symmetry_space_group_name_H-M   'P 1'
_cell_length_a   4.02895100
_cell_length_b   11.64474000
_cell_length_c   11.95333391
_cell_angle_alpha   71.46145272
_cell_angle_beta   90.00000000
_cell_angle_gamma   90.00000000
_symmetry_Int_Tables_number   1
_chemical_formula_structural   Yb3O7
_chemical_formula_sum   'Yb6 O14'
_cell_volume   531.70353118
_cell_formula_units_Z   2
loop_
 _symmetry_equiv_pos_site_id
 _symmetry_equiv_pos_as_xyz
  1  'x, y, z'
loop_
 _atom_site_type_symbol
 _atom_site_label
 _atom_site_symmetry_multiplicity
 _atom_site_fract_x
 _atom_site_fract_y
 _atom_site_fract_z
 _atom_site_occupancy
  Yb  Yb0  1  0.75000000  0.08293300  0.10111600  1
  Yb  Yb1  1  0.25000000  0.91706700  0.89888400  1
  Yb  Yb2  1  0.25000000  0.06390600  0.36519600  1
  Yb  Yb3  1  0.75000000  0.63866700  0.93345400  1
  Yb  Yb4  1  0.75000000  0.93609400  0.63480400  1
  Yb  Yb5  1  0.25000000  0.36133300  0.06654600  1
  O  O0  1  0.75000000  0.00732400  0.30577000  1
  O  O1  1  0.25000000  0.70684500  0.98168700  1
  O  O2  1  0.25000000  0.99267600  0.69423000  1
  O  O3  1  0.75000000  0.29315500  0.01831300  1
  O  O4  1  0.25000000  0.27204500  0.27038800  1
  O  O5  1  0.75000000  0.72795500  0.72961200  1
  O  O6  1  0.25000000  0.15508800  0.16164700  1
  O  O7  1  0.75000000  0.84491200  0.83835300  1
  O  O8  1  0.75000000  0.08408200  0.44582400  1
  O  O9  1  0.25000000  0.55328900  0.91799600  1
  O  O10  1  0.25000000  0.91591800  0.55417600  1
  O  O11  1  0.75000000  0.44671100  0.08200400  1
  O  O12  1  0.75000000  0.01877000  0.94001600  1
  O  O13  1  0.25000000  0.98123000  0.05998400  1
loop_
_geom_bond_atom_site_label_1
_geom_bond_atom_site_label_2
_geom_bond_distance
_geom_bond_site_symmetry_2
O0 Yb2 2.300963 1_555
O0 Yb2 2.300963 1_655
O0 Yb0 2.321630 1_555
O1 Yb3 2.304751 1_555
O1 Yb3 2.304751 1_455
O1 Yb1 2.330567 1_555
O2 Yb4 2.300963 1_555
O2 Yb4 2.300963 1_455
O2 Yb1 2.321630 1_555
O3 Yb5 2.304751 1_555
O3 Yb5 2.304751 1_655
O3 Yb0 2.330567 1_555
O4 Yb5 2.325311 1_555
O4 Yb2 2.326400 1_555
O5 Yb3 2.325311 1_555
O5 Yb4 2.326400 1_555
O6 Yb5 2.307424 1_555
O6 Yb2 2.324770 1_555
O6 Yb0 2.382057 1_555
O6 Yb0 2.382057 1_455
O7 Yb3 2.307424 1_555
O7 Yb4 2.324770 1_555
O7 Yb1 2.382057 1_555
O7 Yb1 2.382057 1_655
O8 Yb2 2.277313 1_555
O8 Yb2 2.277313 1_655
O8 Yb4 2.365829 1_545
O9 Yb3 2.279805 1_455
O9 Yb3 2.279805 1_555
O9 Yb5 2.371827 1_556
O10 Yb4 2.277313 1_555
O10 Yb4 2.277313 1_455
O10 Yb2 2.365829 1_565
O11 Yb5 2.279805 1_655
O11 Yb5 2.279805 1_555
O11 Yb3 2.371827 1_554
O12 Yb0 2.276271 1_556
O12 Yb1 2.464282 1_545
O12 Yb1 2.464282 1_645
O13 Yb1 2.276271 1_554
O13 Yb0 2.464282 1_565
O13 Yb0 2.464282 1_465
