# generated using pymatgen
data_BaMn8O16
_symmetry_space_group_name_H-M   'P 1'
_cell_length_a   5.76338279
_cell_length_b   9.76808617
_cell_length_c   13.81753361
_cell_angle_alpha   45.76727374
_cell_angle_beta   90.00000000
_cell_angle_gamma   90.00000000
_symmetry_Int_Tables_number   1
_chemical_formula_structural   BaMn8O16
_chemical_formula_sum   'Ba2 Mn16 O32'
_cell_volume   557.36682696
_cell_formula_units_Z   2
loop_
 _symmetry_equiv_pos_site_id
 _symmetry_equiv_pos_as_xyz
  1  'x, y, z'
loop_
 _atom_site_type_symbol
 _atom_site_label
 _atom_site_symmetry_multiplicity
 _atom_site_fract_x
 _atom_site_fract_y
 _atom_site_fract_z
 _atom_site_occupancy
  Ba  Ba0  1  0.87164131  0.50000000  0.75000000  1
  Ba  Ba1  1  0.12835869  0.50000000  0.25000000  1
  Mn  Mn0  1  0.37507353  0.31685621  0.08355353  1
  Mn  Mn1  1  0.62492647  0.68314379  0.91644647  1
  Mn  Mn2  1  0.37507353  0.68314379  0.41644647  1
  Mn  Mn3  1  0.62492647  0.31685621  0.58355353  1
  Mn  Mn4  1  0.12510365  0.01466383  0.40114034  1
  Mn  Mn5  1  0.87489635  0.98533617  0.59885966  1
  Mn  Mn6  1  0.12510365  0.98533617  0.09885966  1
  Mn  Mn7  1  0.87489635  0.01466383  0.90114034  1
  Mn  Mn8  1  0.62474666  0.02194023  0.39765750  1
  Mn  Mn9  1  0.37525334  0.97805977  0.60234250  1
  Mn  Mn10  1  0.62474666  0.97805977  0.10234250  1
  Mn  Mn11  1  0.37525334  0.02194023  0.89765750  1
  Mn  Mn12  1  0.87464013  0.31709718  0.08653955  1
  Mn  Mn13  1  0.12535987  0.68290282  0.91346045  1
  Mn  Mn14  1  0.87464013  0.68290282  0.41346045  1
  Mn  Mn15  1  0.12535987  0.31709718  0.58653955  1
  O  O0  1  0.12561607  0.21668128  0.20838387  1
  O  O1  1  0.87438393  0.78331872  0.79161613  1
  O  O2  1  0.12561607  0.78331872  0.29161613  1
  O  O3  1  0.87438393  0.21668128  0.70838387  1
  O  O4  1  0.12136656  0.44602900  0.95417716  1
  O  O5  1  0.87863344  0.55397100  0.04582284  1
  O  O6  1  0.12136656  0.55397100  0.54582284  1
  O  O7  1  0.87863344  0.44602900  0.45417716  1
  O  O8  1  0.37163031  0.55428298  0.04457717  1
  O  O9  1  0.62836969  0.44571702  0.95542283  1
  O  O10  1  0.37163031  0.44571702  0.45542283  1
  O  O11  1  0.62836969  0.55428298  0.54457717  1
  O  O12  1  0.87452535  0.11792978  0.09035088  1
  O  O13  1  0.12547465  0.88207022  0.90964912  1
  O  O14  1  0.87452535  0.88207022  0.40964912  1
  O  O15  1  0.12547465  0.11792978  0.59035088  1
  O  O16  1  0.87945635  0.14588022  0.40586851  1
  O  O17  1  0.12054365  0.85411978  0.59413149  1
  O  O18  1  0.87945635  0.85411978  0.09413149  1
  O  O19  1  0.12054365  0.14588022  0.90586851  1
  O  O20  1  0.37524660  0.88646137  0.40635751  1
  O  O21  1  0.62475340  0.11353863  0.59364249  1
  O  O22  1  0.37524660  0.11353863  0.09364249  1
  O  O23  1  0.62475340  0.88646137  0.90635751  1
  O  O24  1  0.62914635  0.85740739  0.59255340  1
  O  O25  1  0.37085365  0.14259261  0.40744660  1
  O  O26  1  0.62914635  0.14259261  0.90744660  1
  O  O27  1  0.37085365  0.85740739  0.09255340  1
  O  O28  1  0.62407086  0.21337056  0.20715656  1
  O  O29  1  0.37592914  0.78662944  0.79284344  1
  O  O30  1  0.62407086  0.78662944  0.29284344  1
  O  O31  1  0.37592914  0.21337056  0.70715656  1
loop_
_geom_bond_atom_site_label_1
_geom_bond_atom_site_label_2
_geom_bond_distance
_geom_bond_site_symmetry_2
Ba0 O11 2.864244 1_555
Ba0 O9 2.864244 1_555
Ba0 O6 2.869437 1_655
Ba0 O4 2.869437 1_655
Ba0 O19 2.875388 1_655
Ba0 O17 2.875388 1_655
Ba0 O26 2.877181 1_555
Ba0 O24 2.877181 1_555
Ba1 O8 2.864244 1_555
Ba1 O10 2.864244 1_555
Ba1 O5 2.869437 1_455
Ba1 O7 2.869437 1_455
Ba1 O16 2.875388 1_455
Ba1 O18 2.875388 1_455
Ba1 O25 2.877181 1_555
Ba1 O27 2.877181 1_555
Mn0 O22 1.891418 1_555
Mn0 O28 1.894599 1_555
Mn0 O0 1.909164 1_555
Mn0 O9 1.934146 1_554
Mn0 O4 1.943948 1_554
Mn0 O8 1.981559 1_555
Mn1 O23 1.891418 1_555
Mn1 O29 1.894599 1_555
Mn1 O1 1.909164 1_555
Mn1 O8 1.934146 1_556
Mn1 O5 1.943948 1_556
Mn1 O9 1.981559 1_555
Mn2 O20 1.891418 1_555
Mn2 O30 1.894599 1_555
Mn2 O2 1.909164 1_555
Mn2 O11 1.934146 1_555
Mn2 O6 1.943948 1_555
Mn2 O10 1.981559 1_555
Mn3 O21 1.891418 1_555
Mn3 O31 1.894599 1_555
Mn3 O3 1.909164 1_555
Mn3 O10 1.934146 1_555
Mn3 O7 1.943948 1_555
Mn3 O11 1.981559 1_555
Mn4 O20 1.877737 1_545
Mn4 O14 1.887997 1_445
Mn4 O0 1.911860 1_555
Mn4 O25 1.930572 1_555
Mn4 O17 1.933056 1_545
Mn4 O16 1.941213 1_455
Mn5 O21 1.877737 1_565
Mn5 O15 1.887997 1_665
Mn5 O1 1.911860 1_555
Mn5 O24 1.930572 1_555
Mn5 O16 1.933056 1_565
Mn5 O17 1.941213 1_655
Mn6 O22 1.877737 1_565
Mn6 O12 1.887997 1_465
Mn6 O2 1.911860 1_555
Mn6 O27 1.930572 1_555
Mn6 O19 1.933056 1_564
Mn6 O18 1.941213 1_455
Mn7 O23 1.877737 1_545
Mn7 O13 1.887997 1_645
Mn7 O3 1.911860 1_555
Mn7 O26 1.930572 1_555
Mn7 O18 1.933056 1_546
Mn7 O19 1.941213 1_655
Mn8 O28 1.886347 1_555
Mn8 O20 1.900408 1_545
Mn8 O14 1.910668 1_545
Mn8 O25 1.941869 1_555
Mn8 O24 1.948710 1_545
Mn8 O16 1.955808 1_555
Mn9 O29 1.886347 1_555
Mn9 O21 1.900408 1_565
Mn9 O15 1.910668 1_565
Mn9 O24 1.941869 1_555
Mn9 O25 1.948710 1_565
Mn9 O17 1.955808 1_555
Mn10 O30 1.886347 1_555
Mn10 O22 1.900408 1_565
Mn10 O12 1.910668 1_565
Mn10 O27 1.941869 1_555
Mn10 O26 1.948710 1_564
Mn10 O18 1.955808 1_555
Mn11 O31 1.886347 1_555
Mn11 O23 1.900408 1_545
Mn11 O13 1.910668 1_545
Mn11 O26 1.941869 1_555
Mn11 O27 1.948710 1_546
Mn11 O19 1.955808 1_555
Mn12 O28 1.879850 1_555
Mn12 O0 1.893391 1_655
Mn12 O12 1.909121 1_555
Mn12 O9 1.923462 1_554
Mn12 O4 1.933794 1_654
Mn12 O5 1.963313 1_555
Mn13 O29 1.879850 1_555
Mn13 O1 1.893391 1_455
Mn13 O13 1.909121 1_555
Mn13 O8 1.923462 1_556
Mn13 O5 1.933794 1_456
Mn13 O4 1.963313 1_555
Mn14 O30 1.879850 1_555
Mn14 O2 1.893391 1_655
Mn14 O14 1.909121 1_555
Mn14 O11 1.923462 1_555
Mn14 O6 1.933794 1_655
Mn14 O7 1.963313 1_555
Mn15 O31 1.879850 1_555
Mn15 O3 1.893391 1_455
Mn15 O15 1.909121 1_555
Mn15 O10 1.923462 1_555
Mn15 O7 1.933794 1_455
Mn15 O6 1.963313 1_555
