# generated using pymatgen
data_BaCaCeZrO6
_symmetry_space_group_name_H-M   'P 1'
_cell_length_a   5.97360279
_cell_length_b   6.04685982
_cell_length_c   8.54402929
_cell_angle_alpha   90.27072354
_cell_angle_beta   90.24683875
_cell_angle_gamma   89.99958210
_symmetry_Int_Tables_number   1
_chemical_formula_structural   BaCaCeZrO6
_chemical_formula_sum   'Ba2 Ca2 Ce2 Zr2 O12'
_cell_volume   308.61717523
_cell_formula_units_Z   2
loop_
 _symmetry_equiv_pos_site_id
 _symmetry_equiv_pos_as_xyz
  1  'x, y, z'
loop_
 _atom_site_type_symbol
 _atom_site_label
 _atom_site_symmetry_multiplicity
 _atom_site_fract_x
 _atom_site_fract_y
 _atom_site_fract_z
 _atom_site_occupancy
  Ba  Ba0  1  0.50652728  0.53185457  0.25019269  1
  Ba  Ba1  1  0.49347272  0.46814543  0.74980731  1
  Ca  Ca0  1  0.99275864  0.03689098  0.25220993  1
  Ca  Ca1  1  0.00724136  0.96310902  0.74779007  1
  Ce  Ce0  1  0.00000000  0.50000000  0.00000000  1
  Ce  Ce1  1  0.50000000  -0.00000000  0.50000000  1
  Zr  Zr0  1  0.50000000  -0.00000000  0.00000000  1
  Zr  Zr1  1  0.00000000  0.50000000  0.50000000  1
  O  O0  1  0.21170584  0.19464193  0.93788322  1
  O  O1  1  0.28499800  0.70279371  0.52917065  1
  O  O2  1  0.78829416  0.80535807  0.06211678  1
  O  O3  1  0.71500200  0.29720629  0.47082935  1
  O  O4  1  0.29775102  0.71683294  0.96642114  1
  O  O5  1  0.19111162  0.20764297  0.55948922  1
  O  O6  1  0.70224898  0.28316706  0.03357886  1
  O  O7  1  0.80888838  0.79235703  0.44051078  1
  O  O8  1  0.39305806  0.00047928  0.24156476  1
  O  O9  1  0.06474159  0.43513653  0.25851571  1
  O  O10  1  0.60694194  -0.00047928  0.75843524  1
  O  O11  1  0.93525841  0.56486347  0.74148429  1
loop_
_geom_bond_atom_site_label_1
_geom_bond_atom_site_label_2
_geom_bond_distance
_geom_bond_site_symmetry_2
Ba0 O6 2.654412 1_555
Ba0 O3 2.668866 1_555
Ba0 O9 2.704390 1_555
Ba0 O2 2.863370 1_555
Ba0 O7 2.887612 1_555
Ba0 O8 2.914840 1_565
Ba0 O1 2.916337 1_555
Ba0 O4 2.946949 1_554
Ba1 O4 2.654412 1_555
Ba1 O1 2.668866 1_555
Ba1 O11 2.704390 1_555
Ba1 O0 2.863370 1_555
Ba1 O5 2.887612 1_555
Ba1 O10 2.914840 1_555
Ba1 O3 2.916337 1_555
Ba1 O6 2.946949 1_556
Ca0 O8 2.403416 1_655
Ca0 O9 2.446529 1_655
Ca0 O7 2.453360 1_545
Ca0 O2 2.459933 1_545
Ca0 O6 2.952455 1_555
Ca0 O3 2.952732 1_555
Ca0 O5 3.051290 1_655
Ca1 O10 2.403416 1_465
Ca1 O11 2.446529 1_455
Ca1 O5 2.453360 1_565
Ca1 O0 2.459933 1_565
Ca1 O4 2.952455 1_555
Ca1 O1 2.952732 1_555
Ca1 O7 3.051290 1_455
Ce0 O4 2.230026 1_554
Ce0 O6 2.230026 1_455
Ce0 O11 2.276593 1_454
Ce0 O9 2.276593 1_555
Ce0 O0 2.299325 1_554
Ce0 O2 2.299325 1_455
Ce1 O3 2.224514 1_555
Ce1 O1 2.224514 1_545
Ce1 O5 2.289441 1_555
Ce1 O7 2.289441 1_545
Ce1 O8 2.296002 1_555
Ce1 O10 2.296002 1_555
O0 Zr0 2.151918 1_556
O1 Zr1 2.111331 1_555
O2 Zr0 2.151918 1_565
O3 Zr1 2.111331 1_655
O4 Zr0 2.113344 1_566
O5 Zr1 2.165729 1_555
O6 Zr0 2.113344 1_555
O7 Zr1 2.165729 1_655
O8 Zr0 2.163157 1_555
O9 Zr1 2.135328 1_555
O10 Zr0 2.163157 1_556
O11 Zr1 2.135328 1_655
