# generated using pymatgen
data_LiCoSnO4
_symmetry_space_group_name_H-M   'P 1'
_cell_length_a   5.92997340
_cell_length_b   6.15884165
_cell_length_c   10.79876603
_cell_angle_alpha   106.84266220
_cell_angle_beta   90.00789372
_cell_angle_gamma   61.22779087
_symmetry_Int_Tables_number   1
_chemical_formula_structural   LiCoSnO4
_chemical_formula_sum   'Li4 Co4 Sn4 O16'
_cell_volume   326.27505616
_cell_formula_units_Z   4
loop_
 _symmetry_equiv_pos_site_id
 _symmetry_equiv_pos_as_xyz
  1  'x, y, z'
loop_
 _atom_site_type_symbol
 _atom_site_label
 _atom_site_symmetry_multiplicity
 _atom_site_fract_x
 _atom_site_fract_y
 _atom_site_fract_z
 _atom_site_occupancy
  Li  Li0  1  0.56232600  0.87627400  0.31135900  1
  Li  Li1  1  0.06141200  0.87624500  0.81136300  1
  Li  Li2  1  0.93858300  0.12375500  0.18863600  1
  Li  Li3  1  0.43768000  0.12372600  0.68864100  1
  Co  Co0  1  0.50000100  0.49999600  0.50000100  1
  Co  Co1  1  0.50000300  0.49999600  0.99999900  1
  Co  Co2  1  0.99999800  0.50000300  0.99999900  1
  Co  Co3  1  0.99999800  0.50000400  0.49999900  1
  Sn  Sn0  1  0.50002700  0.00001600  0.00001000  1
  Sn  Sn1  1  0.99993900  0.00002400  0.50000400  1
  Sn  Sn2  1  0.25429600  0.50004900  0.25010400  1
  Sn  Sn3  1  0.74570900  0.49995100  0.74989700  1
  O  O0  1  0.85208500  0.27585000  0.39955200  1
  O  O1  1  0.37224900  0.27575500  0.89951300  1
  O  O2  1  0.15604600  0.70043900  0.11136500  1
  O  O3  1  0.64335000  0.70045900  0.61140100  1
  O  O4  1  0.35665200  0.29953800  0.38859800  1
  O  O5  1  0.84395300  0.29956000  0.88863600  1
  O  O6  1  0.62774800  0.72424400  0.10048500  1
  O  O7  1  0.14792500  0.72414200  0.60044800  1
  O  O8  1  0.60816200  0.25070400  0.12315500  1
  O  O9  1  0.10375800  0.26327900  0.62019200  1
  O  O10  1  0.13298300  0.26316900  0.12014100  1
  O  O11  1  0.64125500  0.25056600  0.62310400  1
  O  O12  1  0.35876800  0.74941600  0.37688700  1
  O  O13  1  0.86700600  0.73683000  0.87985800  1
  O  O14  1  0.89625400  0.73672600  0.37981100  1
  O  O15  1  0.39183300  0.74928400  0.87684000  1
loop_
_geom_bond_atom_site_label_1
_geom_bond_atom_site_label_2
_geom_bond_distance
_geom_bond_site_symmetry_2
Li0 O12 1.948519 1_555
Li0 O14 1.983842 1_555
Li0 O6 2.151218 1_555
Li0 O4 2.158322 1_565
Li1 O15 1.948250 1_555
Li1 O13 1.983560 1_455
Li1 O7 2.151644 1_555
Li1 O5 2.158588 1_465
Li2 O8 1.948269 1_555
Li2 O10 1.983527 1_655
Li2 O0 2.151651 1_555
Li2 O2 2.158592 1_645
Li3 O11 1.948558 1_555
Li3 O9 1.983799 1_555
Li3 O1 2.151196 1_555
Li3 O3 2.158338 1_545
Co0 O7 1.949249 1_555
Co0 O0 1.949291 1_555
Co0 O4 1.960452 1_555
Co0 O3 1.960459 1_555
Co0 O11 2.184748 1_555
Co0 O12 2.184796 1_555
Co1 O6 1.948656 1_556
Co1 O1 1.948663 1_555
Co1 O5 1.961307 1_555
Co1 O2 1.961350 1_556
Co1 O8 2.184594 1_556
Co1 O15 2.184599 1_555
Co2 O2 2.016311 1_656
Co2 O5 2.016312 1_555
Co2 O6 2.038395 1_556
Co2 O1 2.038399 1_655
Co2 O13 2.102748 1_555
Co2 O10 2.102785 1_656
Co3 O3 2.017618 1_555
Co3 O4 2.017636 1_655
Co3 O7 2.037012 1_655
Co3 O0 2.037014 1_555
Co3 O14 2.102716 1_555
Co3 O9 2.102770 1_655
O0 Sn1 2.113060 1_555
O1 Sn0 2.113037 1_556
O2 Sn2 2.118093 1_555
O3 Sn3 2.116273 1_555
O4 Sn2 2.116266 1_555
O5 Sn3 2.118097 1_555
O6 Sn0 2.113028 1_565
O7 Sn1 2.113277 1_465
O8 Sn2 2.078382 1_555
O8 Sn0 2.080003 1_555
O9 Sn3 2.105469 1_455
O9 Sn1 2.105594 1_455
O10 Sn0 2.105608 1_555
O10 Sn2 2.106919 1_555
O11 Sn3 2.077113 1_555
O11 Sn1 2.079621 1_555
O12 Sn2 2.077058 1_555
O12 Sn1 2.080297 1_465
O13 Sn0 2.105460 1_566
O13 Sn3 2.106841 1_555
O14 Sn1 2.105283 1_565
O14 Sn2 2.105451 1_655
O15 Sn3 2.078387 1_555
O15 Sn0 2.080541 1_566
