# generated using pymatgen
data_NaSm3Ti2(SbO7)2
_symmetry_space_group_name_H-M   'P 1'
_cell_length_a   7.33255446
_cell_length_b   7.33255446
_cell_length_c   7.29540348
_cell_angle_alpha   60.78236926
_cell_angle_beta   60.78236926
_cell_angle_gamma   60.99675905
_symmetry_Int_Tables_number   1
_chemical_formula_structural   NaSm3Ti2(SbO7)2
_chemical_formula_sum   'Na1 Sm3 Ti2 Sb2 O14'
_cell_volume   282.69770113
_cell_formula_units_Z   1
loop_
 _symmetry_equiv_pos_site_id
 _symmetry_equiv_pos_as_xyz
  1  'x, y, z'
loop_
 _atom_site_type_symbol
 _atom_site_label
 _atom_site_symmetry_multiplicity
 _atom_site_fract_x
 _atom_site_fract_y
 _atom_site_fract_z
 _atom_site_occupancy
  Na  Na0  1  0.00000000  0.00000000  0.00000000  1
  Sm  Sm0  1  0.00000000  0.00000000  0.50000000  1
  Sm  Sm1  1  0.50000000  0.00000000  0.00000000  1
  Sm  Sm2  1  0.00000000  0.50000000  0.00000000  1
  Ti  Ti0  1  0.50000000  0.50000000  0.50000000  1
  Ti  Ti1  1  0.50000000  0.50000000  0.00000000  1
  Sb  Sb0  1  0.00000000  0.50000000  0.50000000  1
  Sb  Sb1  1  0.50000000  0.00000000  0.50000000  1
  O  O0  1  0.57060800  0.57060800  0.18217400  1
  O  O1  1  0.17257900  0.17257900  0.57090500  1
  O  O2  1  0.17625500  0.57701900  0.57649000  1
  O  O3  1  0.56162600  0.17982500  0.17872200  1
  O  O4  1  0.17982500  0.56162600  0.17872200  1
  O  O5  1  0.57701900  0.17625500  0.57649000  1
  O  O6  1  0.42939200  0.42939200  0.81782600  1
  O  O7  1  0.82742100  0.82742100  0.42909500  1
  O  O8  1  0.82374500  0.42298100  0.42351000  1
  O  O9  1  0.43837400  0.82017500  0.82127800  1
  O  O10  1  0.82017500  0.43837400  0.82127800  1
  O  O11  1  0.42298100  0.82374500  0.42351000  1
  O  O12  1  0.86999700  0.86999700  0.87297100  1
  O  O13  1  0.13000300  0.13000300  0.12702900  1
loop_
_geom_bond_atom_site_label_1
_geom_bond_atom_site_label_2
_geom_bond_distance
_geom_bond_site_symmetry_2
Na0 O12 2.298315 1_444
Na0 O13 2.298315 1_555
Na0 O1 2.611601 1_554
Na0 O7 2.611601 1_445
Na0 O9 2.692170 1_544
Na0 O10 2.692170 1_454
Na0 O4 2.692170 1_545
Na0 O3 2.692170 1_455
O0 Ti0 1.956617 1_555
O0 Ti1 1.976327 1_555
O0 Sm2 2.636954 1_655
O0 Sm1 2.636954 1_565
O1 Sb0 2.028161 1_555
O1 Sb1 2.028161 1_555
O1 Sm0 2.510226 1_555
O2 Ti0 1.994997 1_555
O2 Sb0 2.005026 1_555
O2 Sm2 2.577086 1_556
O2 Sm0 2.593950 1_565
O3 Sb1 1.990759 1_555
O3 Ti1 1.993487 1_555
O3 Sm1 2.544453 1_555
O4 Sb0 1.990759 1_555
O4 Ti1 1.993487 1_555
O4 Sm2 2.544453 1_555
O5 Ti0 1.994997 1_555
O5 Sb1 2.005026 1_555
O5 Sm1 2.577086 1_556
O5 Sm0 2.593950 1_655
O6 Ti0 1.956617 1_555
O6 Ti1 1.976327 1_556
O6 Sm2 2.636954 1_556
O6 Sm1 2.636954 1_556
O7 Sb1 2.028161 1_565
O7 Sb0 2.028161 1_655
O7 Sm0 2.510226 1_665
O8 Ti0 1.994997 1_555
O8 Sb0 2.005026 1_655
O8 Sm2 2.577086 1_655
O8 Sm0 2.593950 1_655
O9 Sb1 1.990759 1_565
O9 Ti1 1.993487 1_556
O9 Sm1 2.544453 1_566
O10 Sb0 1.990759 1_655
O10 Ti1 1.993487 1_556
O10 Sm2 2.544453 1_656
O11 Ti0 1.994997 1_555
O11 Sb1 2.005026 1_565
O11 Sm1 2.577086 1_565
O11 Sm0 2.593950 1_565
O12 Sm2 2.242325 1_656
O12 Sm1 2.242325 1_566
O12 Sm0 2.244521 1_665
O13 Sm2 2.242325 1_555
O13 Sm1 2.242325 1_555
O13 Sm0 2.244521 1_555
