# generated using pymatgen
data_La2InPd2
_symmetry_space_group_name_H-M   'P 1'
_cell_length_a   3.94620800
_cell_length_b   7.99299000
_cell_length_c   7.99299000
_cell_angle_alpha   90.00000000
_cell_angle_beta   90.00000000
_cell_angle_gamma   90.00000000
_symmetry_Int_Tables_number   1
_chemical_formula_structural   La2InPd2
_chemical_formula_sum   'La4 In2 Pd4'
_cell_volume   252.11489923
_cell_formula_units_Z   2
loop_
 _symmetry_equiv_pos_site_id
 _symmetry_equiv_pos_as_xyz
  1  'x, y, z'
loop_
 _atom_site_type_symbol
 _atom_site_label
 _atom_site_symmetry_multiplicity
 _atom_site_fract_x
 _atom_site_fract_y
 _atom_site_fract_z
 _atom_site_occupancy
  La  La0  1  0.50000000  0.17583800  0.67583800  1
  La  La1  1  0.50000000  0.82416200  0.32416200  1
  La  La2  1  0.50000000  0.32416200  0.17583800  1
  La  La3  1  0.50000000  0.67583800  0.82416200  1
  In  In0  1  0.00000000  0.50000000  0.50000000  1
  In  In1  1  0.00000000  0.00000000  0.00000000  1
  Pd  Pd0  1  0.00000000  0.62995800  0.12995800  1
  Pd  Pd1  1  0.00000000  0.37004200  0.87004200  1
  Pd  Pd2  1  0.00000000  0.87004200  0.62995800  1
  Pd  Pd3  1  0.00000000  0.12995800  0.37004200  1
loop_
_geom_bond_atom_site_label_1
_geom_bond_atom_site_label_2
_geom_bond_distance
_geom_bond_site_symmetry_2
La0 Pd1 2.951648 1_555
La0 Pd1 2.951648 1_655
La0 Pd3 3.162571 1_555
La0 Pd3 3.162571 1_655
La0 Pd2 3.162571 1_545
La0 Pd2 3.162571 1_645
La1 Pd0 2.951648 1_655
La1 Pd0 2.951648 1_555
La1 Pd2 3.162571 1_655
La1 Pd2 3.162571 1_555
La1 Pd3 3.162571 1_565
La1 Pd3 3.162571 1_665
La2 Pd3 2.951648 1_555
La2 Pd3 2.951648 1_655
La2 Pd0 3.162571 1_655
La2 Pd1 3.162571 1_554
La2 Pd0 3.162571 1_555
La2 Pd1 3.162571 1_654
La3 Pd2 2.951648 1_555
La3 Pd2 2.951648 1_655
La3 Pd1 3.162571 1_655
La3 Pd1 3.162571 1_555
La3 Pd0 3.162571 1_556
La3 Pd0 3.162571 1_656
In0 Pd1 3.134844 1_555
In0 Pd0 3.134844 1_555
In0 Pd2 3.134844 1_555
In0 Pd3 3.134844 1_555
In0 La3 3.547096 1_455
In0 La3 3.547096 1_555
In0 La0 3.547096 1_455
In0 La0 3.547096 1_555
In0 La1 3.547096 1_455
In0 La1 3.547096 1_555
In0 La2 3.547096 1_455
In0 La2 3.547096 1_555
In1 Pd0 3.134844 1_545
In1 Pd3 3.134844 1_555
In1 Pd2 3.134844 1_544
In1 Pd1 3.134844 1_554
In1 La1 3.547096 1_545
In1 La2 3.547096 1_455
In1 La2 3.547096 1_555
In1 La1 3.547096 1_445
In1 La0 3.547096 1_554
In1 La0 3.547096 1_454
In1 La3 3.547096 1_444
In1 La3 3.547096 1_544
Pd0 Pd1 2.938037 1_554
Pd2 Pd3 2.938037 1_565
