# generated using pymatgen
data_Sm(AlBr4)3
_symmetry_space_group_name_H-M   'P 1'
_cell_length_a   10.53563060
_cell_length_b   10.53567766
_cell_length_c   18.46456672
_cell_angle_alpha   89.98942147
_cell_angle_beta   90.01016441
_cell_angle_gamma   119.98008276
_symmetry_Int_Tables_number   1
_chemical_formula_structural   Sm(AlBr4)3
_chemical_formula_sum   'Sm3 Al9 Br36'
_cell_volume   1775.33322535
_cell_formula_units_Z   3
loop_
 _symmetry_equiv_pos_site_id
 _symmetry_equiv_pos_as_xyz
  1  'x, y, z'
loop_
 _atom_site_type_symbol
 _atom_site_label
 _atom_site_symmetry_multiplicity
 _atom_site_fract_x
 _atom_site_fract_y
 _atom_site_fract_z
 _atom_site_occupancy
  Sm  Sm0  1  0.73009415  0.00009566  0.33330146  1
  Sm  Sm1  1  0.00010357  0.73008738  0.66669433  1
  Sm  Sm2  1  0.26978820  0.26979025  0.00000328  1
  Al  Al0  1  0.30209229  0.63205757  0.72070687  1
  Al  Al1  1  0.36800721  0.67004324  0.05395744  1
  Al  Al2  1  0.63203413  0.30207573  0.27929418  1
  Al  Al3  1  0.32978514  0.69808077  0.38736644  1
  Al  Al4  1  0.67001800  0.36799085  0.94602892  1
  Al  Al5  1  0.69806954  0.32977942  0.61263777  1
  Al  Al6  1  0.10074672  0.00005982  0.83333754  1
  Al  Al7  1  0.00005751  0.10074602  0.16667360  1
  Al  Al8  1  0.89909424  0.89908322  0.49999867  1
  Br  Br0  1  0.07522579  0.19826877  0.86381118  1
  Br  Br1  1  0.80164587  0.87721969  0.19695476  1
  Br  Br2  1  0.19825395  0.07521027  0.13619440  1
  Br  Br3  1  0.12288344  0.92463121  0.53030537  1
  Br  Br4  1  0.87721071  0.80165400  0.80304397  1
  Br  Br5  1  0.92464753  0.12287514  0.46968267  1
  Br  Br6  1  0.08034963  0.58690343  0.77864943  1
  Br  Br7  1  0.41285231  0.49292916  0.11180700  1
  Br  Br8  1  0.58688110  0.08032418  0.22135409  1
  Br  Br9  1  0.50687134  0.91994329  0.44510682  1
  Br  Br10  1  0.49289728  0.41284891  0.88820698  1
  Br  Br11  1  0.91991349  0.50687374  0.55488176  1
  Br  Br12  1  0.50372534  0.27992739  0.54241575  1
  Br  Br13  1  0.71998039  0.22372615  0.87568375  1
  Br  Br14  1  0.28000645  0.50377373  0.45759808  1
  Br  Br15  1  0.77651775  0.49643478  0.20913719  1
  Br  Br16  1  0.22372540  0.71999692  0.12428703  1
  Br  Br17  1  0.49644499  0.77652745  0.79087167  1
  Br  Br18  1  0.23276988  0.52308863  0.95489655  1
  Br  Br19  1  0.47710351  0.70990396  0.28843005  1
  Br  Br20  1  0.52307907  0.23275500  0.04508899  1
  Br  Br21  1  0.29010150  0.76714042  0.62158200  1
  Br  Br22  1  0.70991340  0.47709574  0.71158135  1
  Br  Br23  1  0.76713927  0.29010339  0.37841997  1
  Br  Br24  1  0.23505270  0.02709558  0.72944602  1
  Br  Br25  1  0.97281881  0.20823471  0.06295393  1
  Br  Br26  1  0.02710598  0.23503031  0.27057228  1
  Br  Br27  1  0.79195962  0.76493480  0.39607256  1
  Br  Br28  1  0.20816702  0.97277361  0.93706496  1
  Br  Br29  1  0.76490649  0.79191544  0.60390790  1
  Br  Br30  1  0.28086389  0.41889495  0.68254775  1
  Br  Br31  1  0.58119932  0.86173524  0.01570611  1
  Br  Br32  1  0.41888068  0.28086981  0.31744283  1
  Br  Br33  1  0.13805469  0.71922020  0.34884313  1
  Br  Br34  1  0.86173123  0.58119042  0.98429840  1
  Br  Br35  1  0.71923148  0.13805764  0.65115382  1
loop_
_geom_bond_atom_site_label_1
_geom_bond_atom_site_label_2
_geom_bond_distance
_geom_bond_site_symmetry_2
Al0 Br17 2.252334 1_555
Al0 Br30 2.255812 1_555
Al0 Br21 2.360097 1_555
Al0 Br6 2.391394 1_555
Al1 Br16 2.252678 1_555
Al1 Br31 2.255923 1_555
Al1 Br18 2.359734 1_554
Al1 Br7 2.392994 1_555
Al2 Br15 2.252310 1_555
Al2 Br32 2.255740 1_555
Al2 Br23 2.360192 1_555
Al2 Br8 2.391478 1_555
Al3 Br14 2.252522 1_555
Al3 Br33 2.255001 1_555
Al3 Br19 2.359972 1_555
Al3 Br9 2.392306 1_555
Al4 Br13 2.252762 1_555
Al4 Br34 2.256171 1_555
Al4 Br20 2.359642 1_556
Al4 Br10 2.392907 1_555
Al5 Br12 2.252562 1_555
Al5 Br35 2.255006 1_555
Al5 Br22 2.360015 1_555
Al5 Br11 2.392328 1_555
Al6 Br4 2.304094 1_445
Al6 Br0 2.304648 1_555
Al6 Br28 2.314297 1_545
Al6 Br24 2.315433 1_555
Al7 Br1 2.303999 1_445
Al7 Br2 2.304623 1_555
Al7 Br25 2.314388 1_455
Al7 Br26 2.315406 1_555
Al8 Br3 2.304339 1_655
Al8 Br5 2.304392 1_565
Al8 Br29 2.315077 1_555
Al8 Br27 2.315136 1_555
Br0 Sm2 3.090095 1_556
Br1 Sm0 3.091867 1_565
Br2 Sm2 3.090158 1_555
Br3 Sm1 3.092898 1_555
Br4 Sm1 3.092074 1_655
Br5 Sm0 3.092843 1_555
Br6 Sm1 2.921752 1_555
Br7 Sm2 2.918872 1_555
Br8 Sm0 2.921754 1_555
Br9 Sm0 2.919285 1_565
Br10 Sm2 2.918572 1_556
Br11 Sm1 2.919294 1_655
Br18 Sm2 3.001140 1_556
Br19 Sm0 2.999050 1_565
Br20 Sm2 3.001053 1_555
Br21 Sm1 2.998324 1_555
Br22 Sm1 2.999110 1_655
Br23 Sm0 2.998507 1_555
Br24 Sm1 3.085584 1_545
Br25 Sm2 3.087708 1_655
Br26 Sm0 3.085386 1_455
Br27 Sm0 3.085315 1_565
Br28 Sm2 3.087894 1_566
Br29 Sm1 3.085524 1_655
