# generated using pymatgen
data_LaCoO3
_symmetry_space_group_name_H-M   'P 1'
_cell_length_a   5.49830883
_cell_length_b   5.59082109
_cell_length_c   7.79286777
_cell_angle_alpha   89.72569796
_cell_angle_beta   91.74818082
_cell_angle_gamma   89.55862809
_symmetry_Int_Tables_number   1
_chemical_formula_structural   LaCoO3
_chemical_formula_sum   'La4 Co4 O12'
_cell_volume   239.43160538
_cell_formula_units_Z   4
loop_
 _symmetry_equiv_pos_site_id
 _symmetry_equiv_pos_as_xyz
  1  'x, y, z'
loop_
 _atom_site_type_symbol
 _atom_site_label
 _atom_site_symmetry_multiplicity
 _atom_site_fract_x
 _atom_site_fract_y
 _atom_site_fract_z
 _atom_site_occupancy
  La  La0  1  0.24832000  0.75324100  0.50301800  1
  La  La1  1  0.74993500  0.24621500  0.99924400  1
  La  La2  1  0.75006600  0.25378400  0.50075900  1
  La  La3  1  0.25168100  0.74675900  0.99698000  1
  Co  Co0  1  0.25000000  0.25000000  0.75000000  1
  Co  Co1  1  0.75000000  0.75000000  0.75000000  1
  Co  Co2  1  0.75000000  0.75000000  0.25000000  1
  Co  Co3  1  0.25000000  0.25000000  0.25000000  1
  O  O0  1  0.95756000  0.04248900  0.28306900  1
  O  O1  1  0.46305000  0.52135500  0.78422500  1
  O  O2  1  0.03695000  0.97864500  0.71577500  1
  O  O3  1  0.54244000  0.45751200  0.21693200  1
  O  O4  1  0.75262200  0.68865800  0.49493700  1
  O  O5  1  0.25812700  0.17771500  0.99009800  1
  O  O6  1  0.24187300  0.32228500  0.50990300  1
  O  O7  1  0.74737800  0.81134200  0.00506300  1
  O  O8  1  0.52449000  0.03930300  0.71487300  1
  O  O9  1  0.04934000  0.53170000  0.21777600  1
  O  O10  1  0.45066100  0.96830100  0.28222400  1
  O  O11  1  0.97551000  0.46069600  0.78512700  1
loop_
_geom_bond_atom_site_label_1
_geom_bond_atom_site_label_2
_geom_bond_distance
_geom_bond_site_symmetry_2
La0 O10 2.400318 1_555
La0 O2 2.408874 1_555
La0 O6 2.410296 1_555
La0 O8 2.738426 1_565
La0 O4 2.750927 1_455
La0 O9 2.751547 1_555
La0 O1 2.769171 1_555
La0 O4 2.796113 1_555
La0 O0 2.806292 1_465
La1 O3 2.385674 1_556
La1 O11 2.427014 1_555
La1 O7 2.431660 1_546
La1 O0 2.700819 1_556
La1 O1 2.727404 1_555
La1 O5 2.732842 1_555
La1 O8 2.768522 1_555
La1 O5 2.820498 1_655
La1 O9 2.837816 1_656
La2 O0 2.385678 1_555
La2 O8 2.427001 1_555
La2 O4 2.431666 1_555
La2 O3 2.700839 1_555
La2 O2 2.727384 1_645
La2 O6 2.732838 1_655
La2 O11 2.768501 1_555
La2 O6 2.820503 1_555
La2 O10 2.837823 1_545
La3 O9 2.400327 1_556
La3 O1 2.408860 1_555
La3 O5 2.410296 1_565
La3 O11 2.738423 1_455
La3 O7 2.750922 1_556
La3 O10 2.751562 1_556
La3 O2 2.769161 1_555
La3 O7 2.796120 1_456
La3 O3 2.806300 1_556
Co0 O6 1.911415 1_555
Co0 O5 1.911422 1_555
Co0 O11 1.934222 1_455
Co0 O8 1.934225 1_555
Co0 O2 1.938330 1_545
Co0 O1 1.938330 1_555
Co1 O4 2.019125 1_555
Co1 O7 2.019125 1_556
Co1 O8 2.042698 1_565
Co1 O11 2.042702 1_555
Co1 O2 2.061059 1_655
Co1 O1 2.061059 1_555
Co2 O7 1.937311 1_555
Co2 O4 1.937311 1_555
Co2 O3 2.014371 1_555
Co2 O0 2.014376 1_565
Co2 O10 2.063659 1_555
Co2 O9 2.063660 1_655
Co3 O10 1.926982 1_545
Co3 O9 1.926984 1_555
Co3 O0 2.012202 1_455
Co3 O3 2.012204 1_555
Co3 O5 2.068955 1_554
Co3 O6 2.068962 1_555
