# generated using pymatgen
data_Mg14BC
_symmetry_space_group_name_H-M   'P 1'
_cell_length_a   6.09900523
_cell_length_b   6.09900478
_cell_length_c   9.85821193
_cell_angle_alpha   90.00000000
_cell_angle_beta   90.00000000
_cell_angle_gamma   120.00000239
_symmetry_Int_Tables_number   1
_chemical_formula_structural   Mg14BC
_chemical_formula_sum   'Mg14 B1 C1'
_cell_volume   317.57532487
_cell_formula_units_Z   1
loop_
 _symmetry_equiv_pos_site_id
 _symmetry_equiv_pos_as_xyz
  1  'x, y, z'
loop_
 _atom_site_type_symbol
 _atom_site_label
 _atom_site_symmetry_multiplicity
 _atom_site_fract_x
 _atom_site_fract_y
 _atom_site_fract_z
 _atom_site_occupancy
  Mg  Mg0  1  0.16626723  0.83313311  0.12500000  1
  Mg  Mg1  1  0.16520139  0.83260020  0.62500000  1
  Mg  Mg2  1  0.66686689  0.33373277  0.12500000  1
  Mg  Mg3  1  0.66739980  0.33479861  0.62500000  1
  Mg  Mg4  1  0.66686689  0.83313311  0.12500000  1
  Mg  Mg5  1  0.66739980  0.83260020  0.62500000  1
  Mg  Mg6  1  0.32728621  0.17271379  0.37591823  1
  Mg  Mg7  1  0.32728621  0.17271379  0.87408177  1
  Mg  Mg8  1  0.32728621  0.65457343  0.37591823  1
  Mg  Mg9  1  0.32728621  0.65457343  0.87408177  1
  Mg  Mg10  1  0.84542657  0.17271379  0.37591823  1
  Mg  Mg11  1  0.84542657  0.17271379  0.87408177  1
  Mg  Mg12  1  0.83333300  0.66666700  0.37518331  1
  Mg  Mg13  1  0.83333300  0.66666700  0.87481669  1
  B  B0  1  0.16666700  0.33333300  0.12500000  1
  C  C0  1  0.16666700  0.33333300  0.62500000  1
loop_
_geom_bond_atom_site_label_1
_geom_bond_atom_site_label_2
_geom_bond_distance
_geom_bond_site_symmetry_2
Mg0 Mg12 3.029082 1_455
Mg0 Mg13 3.029082 1_454
Mg1 Mg13 3.022872 1_455
Mg1 Mg12 3.022872 1_455
Mg10 Mg12 3.050180 1_555
Mg10 Mg12 3.050180 1_545
Mg11 Mg13 3.050180 1_555
Mg11 Mg13 3.050180 1_545
Mg12 Mg5 3.022865 1_555
Mg12 Mg3 3.022872 1_555
Mg12 Mg4 3.029075 1_555
Mg12 Mg2 3.029082 1_555
Mg12 Mg6 3.050180 1_665
Mg12 Mg6 3.050180 1_555
Mg12 Mg8 3.050180 1_655
Mg12 Mg8 3.050180 1_555
Mg13 Mg5 3.022865 1_555
Mg13 Mg3 3.022872 1_555
Mg13 Mg4 3.029075 1_556
Mg13 Mg2 3.029082 1_556
Mg13 Mg7 3.050180 1_665
Mg13 Mg7 3.050180 1_555
Mg13 Mg9 3.050180 1_655
Mg13 Mg9 3.050180 1_555
B0 Mg6 2.999612 1_555
B0 Mg7 2.999612 1_554
B0 Mg8 2.999618 1_555
B0 Mg9 2.999618 1_554
B0 Mg11 2.999618 1_454
B0 Mg10 2.999618 1_455
B0 Mg0 3.049503 1_555
B0 Mg4 3.049503 1_445
B0 Mg4 3.049503 1_555
B0 Mg0 3.049503 1_545
B0 Mg2 3.049503 1_455
B0 Mg2 3.049503 1_555
