# generated using pymatgen
data_LiMn3P3O13
_symmetry_space_group_name_H-M   'P 1'
_cell_length_a   6.22127100
_cell_length_b   7.50928300
_cell_length_c   10.57570101
_cell_angle_alpha   80.62680007
_cell_angle_beta   90.00000000
_cell_angle_gamma   90.00000000
_symmetry_Int_Tables_number   1
_chemical_formula_structural   LiMn3P3O13
_chemical_formula_sum   'Li2 Mn6 P6 O26'
_cell_volume   487.47145901
_cell_formula_units_Z   2
loop_
 _symmetry_equiv_pos_site_id
 _symmetry_equiv_pos_as_xyz
  1  'x, y, z'
loop_
 _atom_site_type_symbol
 _atom_site_label
 _atom_site_symmetry_multiplicity
 _atom_site_fract_x
 _atom_site_fract_y
 _atom_site_fract_z
 _atom_site_occupancy
  Li  Li0  1  0.75000000  0.36648200  0.13042100  1
  Li  Li1  1  0.25000000  0.63351800  0.86957900  1
  Mn  Mn0  1  0.25000000  0.63458200  0.19794000  1
  Mn  Mn1  1  0.75000000  0.36541800  0.80206000  1
  Mn  Mn2  1  0.25000000  0.23548700  0.45060200  1
  Mn  Mn3  1  0.50000000  0.00000000  0.00000000  1
  Mn  Mn4  1  0.75000000  0.76451300  0.54939800  1
  Mn  Mn5  1  0.00000000  0.00000000  0.00000000  1
  P  P0  1  0.25000000  0.79006800  0.47251800  1
  P  P1  1  0.75000000  0.20993200  0.52748200  1
  P  P2  1  0.25000000  0.27054900  0.76971600  1
  P  P3  1  0.75000000  0.72945100  0.23028400  1
  P  P4  1  0.75000000  0.69416800  0.87637600  1
  P  P5  1  0.25000000  0.30583200  0.12362400  1
  O  O0  1  0.75000000  0.64589800  0.73805100  1
  O  O1  1  0.55464500  0.26157300  0.43737000  1
  O  O2  1  0.25000000  0.21926800  0.63712900  1
  O  O3  1  0.54190300  0.79378600  0.90164000  1
  O  O4  1  0.75000000  0.34031500  0.62872500  1
  O  O5  1  0.75000000  0.12945700  0.90711200  1
  O  O6  1  0.25000000  0.65968500  0.37127500  1
  O  O7  1  0.04190300  0.20621400  0.09836000  1
  O  O8  1  0.25000000  0.98472100  0.40506400  1
  O  O9  1  0.75000000  0.01527900  0.59493600  1
  O  O10  1  0.05843700  0.38920800  0.80015700  1
  O  O11  1  0.25000000  0.87054300  0.09288800  1
  O  O12  1  0.55843700  0.61079200  0.19984300  1
  O  O13  1  0.75000000  0.49643000  0.95239000  1
  O  O14  1  0.75000000  0.78073200  0.36287100  1
  O  O15  1  0.45809700  0.20621400  0.09836000  1
  O  O16  1  0.94535500  0.26157300  0.43737000  1
  O  O17  1  0.44535500  0.73842700  0.56263000  1
  O  O18  1  0.44156300  0.38920800  0.80015700  1
  O  O19  1  0.25000000  0.35410200  0.26194900  1
  O  O20  1  0.75000000  0.90621300  0.12790100  1
  O  O21  1  0.25000000  0.09378700  0.87209900  1
  O  O22  1  0.94156300  0.61079200  0.19984300  1
  O  O23  1  0.95809700  0.79378600  0.90164000  1
  O  O24  1  0.05464500  0.73842700  0.56263000  1
  O  O25  1  0.25000000  0.50357000  0.04761000  1
loop_
_geom_bond_atom_site_label_1
_geom_bond_atom_site_label_2
_geom_bond_distance
_geom_bond_site_symmetry_2
Li0 O13 1.974515 1_554
Li0 O7 2.234765 1_655
Li0 O15 2.234765 1_555
Li0 O22 2.400792 1_555
Li0 O12 2.400792 1_555
Li1 O25 1.974515 1_556
Li1 O3 2.234765 1_555
Li1 O23 2.234765 1_455
Li1 O18 2.400792 1_555
Li1 O10 2.400792 1_555
Mn0 O6 1.873097 1_555
Mn0 O12 1.926969 1_555
Mn0 O22 1.926969 1_455
Mn0 O11 1.932024 1_555
Mn0 O25 2.001238 1_555
Mn0 O19 2.104739 1_555
Mn1 O4 1.873097 1_555
Mn1 O10 1.926969 1_655
Mn1 O18 1.926969 1_555
Mn1 O5 1.932024 1_555
Mn1 O13 2.001238 1_555
Mn1 O0 2.104739 1_555
Mn2 O1 1.908169 1_555
Mn2 O16 1.908169 1_455
Mn2 O2 1.956512 1_555
Mn2 O8 2.018241 1_545
Mn2 O19 2.048193 1_555
Mn3 O11 2.004497 1_545
Mn3 O5 2.004497 1_554
Mn3 O15 2.018075 1_555
Mn3 O3 2.018075 1_544
Mn3 O21 2.105791 1_554
Mn3 O20 2.105791 1_545
Mn4 O17 1.908169 1_555
Mn4 O24 1.908169 1_655
Mn4 O14 1.956512 1_555
Mn4 O9 2.018241 1_565
Mn4 O0 2.048193 1_555
Mn5 O11 2.004497 1_545
Mn5 O5 2.004497 1_454
Mn5 O7 2.018075 1_555
Mn5 O23 2.018075 1_444
Mn5 O21 2.105791 1_554
Mn5 O20 2.105791 1_445
O0 P4 1.563373 1_555
O1 P1 1.554123 1_555
O2 P2 1.513386 1_555
O3 P4 1.540177 1_555
O4 P1 1.564130 1_555
O6 P0 1.564130 1_555
O7 P5 1.540177 1_555
O8 P0 1.518496 1_555
O9 P1 1.518496 1_555
O10 P2 1.552850 1_555
O12 P3 1.552850 1_555
O13 P4 1.569165 1_555
O14 P3 1.513386 1_555
O15 P5 1.540177 1_555
O16 P1 1.554123 1_555
O17 P0 1.554123 1_555
O18 P2 1.552850 1_555
O19 P5 1.563373 1_555
O20 P3 1.570390 1_555
O21 P2 1.570390 1_555
O22 P3 1.552850 1_555
O23 P4 1.540177 1_555
O24 P0 1.554123 1_555
O25 P5 1.569165 1_555
