# generated using pymatgen
data_Nb4Mo6I22O
_symmetry_space_group_name_H-M   'P 1'
_cell_length_a   11.21421700
_cell_length_b   11.24467364
_cell_length_c   12.39699796
_cell_angle_alpha   80.41740958
_cell_angle_beta   80.36912188
_cell_angle_gamma   79.76184755
_symmetry_Int_Tables_number   1
_chemical_formula_structural   Nb4Mo6I22O
_chemical_formula_sum   'Nb4 Mo6 I22 O1'
_cell_volume   1501.55348895
_cell_formula_units_Z   1
loop_
 _symmetry_equiv_pos_site_id
 _symmetry_equiv_pos_as_xyz
  1  'x, y, z'
loop_
 _atom_site_type_symbol
 _atom_site_label
 _atom_site_symmetry_multiplicity
 _atom_site_fract_x
 _atom_site_fract_y
 _atom_site_fract_z
 _atom_site_occupancy
  Nb  Nb0  1  0.42191100  0.66371900  0.55884300  1
  Nb  Nb1  1  0.57808900  0.33628100  0.44115700  1
  Nb  Nb2  1  0.64154900  0.43804400  0.59566800  1
  Nb  Nb3  1  0.35845100  0.56195600  0.40433200  1
  Mo  Mo0  1  0.85388700  0.88248200  0.94072800  1
  Mo  Mo1  1  0.14611300  0.11751800  0.05927200  1
  Mo  Mo2  1  0.16834600  0.94009200  0.83744600  1
  Mo  Mo3  1  0.83165400  0.05990800  0.16255400  1
  Mo  Mo4  1  0.92185900  0.18914200  0.88045100  1
  Mo  Mo5  1  0.07814100  0.81085800  0.11954900  1
  I  I0  1  0.95268000  0.01318600  0.72561300  1
  I  I1  1  0.04732000  0.98681400  0.27438700  1
  I  I2  1  0.92868400  0.30315800  0.07269400  1
  I  I3  1  0.07131600  0.69684200  0.92730600  1
  I  I4  1  0.18730000  0.21316900  0.82815500  1
  I  I5  1  0.81270000  0.78683100  0.17184500  1
  I  I6  1  0.36218000  0.89117000  0.65128600  1
  I  I7  1  0.63782000  0.10883000  0.34871400  1
  I  I8  1  0.69320500  0.76019300  0.87441400  1
  I  I9  1  0.30679500  0.23980700  0.12558600  1
  I  I10  1  0.68302700  0.10239100  0.98569800  1
  I  I11  1  0.31697300  0.89760900  0.01430200  1
  I  I12  1  0.82446300  0.41518700  0.73754900  1
  I  I13  1  0.17553700  0.58481300  0.26245100  1
  I  I14  1  0.17102100  0.63609700  0.57973200  1
  I  I15  1  0.82897900  0.36390300  0.42026800  1
  I  I16  1  0.39828800  0.80869800  0.34658700  1
  I  I17  1  0.60171200  0.19130200  0.65341300  1
  I  I18  1  0.44597200  0.50860300  0.76638100  1
  I  I19  1  0.55402800  0.49139700  0.23361900  1
  I  I20  1  0.67557500  0.68795200  0.53045100  1
  I  I21  1  0.32442500  0.31204800  0.46954900  1
  O  O0  1  0.50000000  0.50000000  0.50000000  1
loop_
_geom_bond_atom_site_label_1
_geom_bond_atom_site_label_2
_geom_bond_distance
_geom_bond_site_symmetry_2
Nb0 O0 2.085292 1_555
Nb1 O0 2.085292 1_555
Nb2 O0 2.091260 1_555
Nb3 O0 2.091260 1_555
I0 Mo2 2.912526 1_645
I0 Mo4 2.918588 1_555
I0 Mo0 2.963872 1_545
I1 Mo3 2.912526 1_465
I1 Mo5 2.918588 1_555
I1 Mo1 2.963872 1_565
I2 Mo4 2.905613 1_554
I2 Mo1 2.915651 1_655
I2 Mo3 3.089434 1_555
I3 Mo5 2.905613 1_556
I3 Mo0 2.915651 1_455
I3 Mo2 3.089434 1_555
I4 Mo1 2.878731 1_556
I4 Mo4 2.989310 1_455
I4 Mo2 3.097334 1_545
I5 Mo0 2.878731 1_554
I5 Mo5 2.989310 1_655
I5 Mo3 3.097334 1_565
I6 Nb0 2.900590 1_555
I6 Mo2 2.944949 1_555
I7 Nb1 2.900590 1_555
I7 Mo3 2.944949 1_555
I8 Mo0 2.750730 1_555
I9 Mo1 2.750730 1_555
I10 Mo3 2.898996 1_556
I10 Mo0 2.917899 1_545
I10 Mo4 3.027050 1_555
I11 Mo2 2.898996 1_554
I11 Mo1 2.917899 1_565
I11 Mo5 3.027050 1_555
I12 Nb2 2.869955 1_555
I12 Mo4 2.992232 1_555
I13 Nb3 2.869955 1_555
I13 Mo5 2.992232 1_555
I14 Nb0 2.849490 1_555
I14 Nb3 2.879668 1_555
I15 Nb1 2.849490 1_555
I15 Nb2 2.879668 1_555
I16 Nb3 2.842957 1_555
I16 Nb0 2.881547 1_555
I17 Nb2 2.842957 1_555
I17 Nb1 2.881547 1_555
I18 Nb0 2.881938 1_555
I18 Nb2 2.882019 1_555
I19 Nb1 2.881938 1_555
I19 Nb3 2.882019 1_555
I20 Nb0 2.863343 1_555
I20 Nb2 2.866642 1_555
I21 Nb1 2.863343 1_555
I21 Nb3 2.866642 1_555
