# generated using pymatgen
data_MgSi2
_symmetry_space_group_name_H-M   'P 1'
_cell_length_a   5.12509282
_cell_length_b   5.12509282
_cell_length_c   12.26360506
_cell_angle_alpha   80.29594815
_cell_angle_beta   80.29594815
_cell_angle_gamma   40.63200830
_symmetry_Int_Tables_number   1
_chemical_formula_structural   MgSi2
_chemical_formula_sum   'Mg4 Si8'
_cell_volume   206.34966233
_cell_formula_units_Z   4
loop_
 _symmetry_equiv_pos_site_id
 _symmetry_equiv_pos_as_xyz
  1  'x, y, z'
loop_
 _atom_site_type_symbol
 _atom_site_label
 _atom_site_symmetry_multiplicity
 _atom_site_fract_x
 _atom_site_fract_y
 _atom_site_fract_z
 _atom_site_occupancy
  Mg  Mg0  1  0.44018200  0.44018200  0.87534400  1
  Mg  Mg1  1  0.00272000  0.00272000  0.07755400  1
  Mg  Mg2  1  0.38196100  0.38196100  0.29505300  1
  Mg  Mg3  1  0.88212500  0.88212500  0.68291400  1
  Si  Si0  1  0.67422800  0.67422800  0.20798800  1
  Si  Si1  1  0.16392200  0.16392200  0.79480600  1
  Si  Si2  1  0.25232700  0.25232700  0.51934900  1
  Si  Si3  1  0.64173000  0.64173000  0.41220600  1
  Si  Si4  1  0.71053100  0.71053100  0.93549100  1
  Si  Si5  1  0.27801800  0.27801800  0.08727300  1
  Si  Si6  1  0.95558500  0.95558500  0.45563200  1
  Si  Si7  1  0.61179700  0.61179700  0.65662100  1
loop_
_geom_bond_atom_site_label_1
_geom_bond_atom_site_label_2
_geom_bond_distance
_geom_bond_site_symmetry_2
Mg0 Si5 2.779994 1_556
Mg0 Si4 2.826061 1_555
Mg0 Si4 2.828119 1_545
Mg0 Si4 2.828119 1_455
Mg0 Si1 2.829098 1_565
Mg0 Si1 2.829098 1_655
Mg0 Si7 2.885411 1_555
Mg0 Si1 2.995062 1_555
Mg1 Si5 2.670312 1_555
Mg1 Si5 2.784495 1_545
Mg1 Si5 2.784495 1_455
Mg1 Si4 2.990136 1_454
Mg1 Si4 2.990136 1_544
Mg1 Si0 3.064474 1_545
Mg1 Si0 3.064474 1_455
Mg1 Mg2 3.242740 1_545
Mg1 Mg2 3.242740 1_455
Mg2 Si2 2.808353 1_555
Mg2 Si0 2.820390 1_555
Mg2 Si6 2.836591 1_545
Mg2 Si6 2.836591 1_455
Mg2 Si5 2.899400 1_555
Mg2 Si0 3.010018 1_545
Mg2 Si0 3.010018 1_455
Mg2 Si3 3.061109 1_545
Mg2 Si3 3.061109 1_455
Mg2 Si3 3.096615 1_555
Mg3 Si7 2.675366 1_555
Mg3 Si6 2.749567 1_555
Mg3 Si7 2.808644 1_565
Mg3 Si7 2.808644 1_655
Mg3 Si1 2.900701 1_565
Mg3 Si1 2.900701 1_655
Mg3 Si2 3.105860 1_565
Mg3 Si2 3.105860 1_655
Si0 Si5 2.412956 1_565
Si0 Si5 2.412956 1_655
Si0 Si3 2.467510 1_555
Si1 Si7 2.567967 1_455
Si1 Si7 2.567967 1_545
Si1 Si4 2.573251 1_545
Si1 Si4 2.573251 1_455
Si2 Si3 2.554448 1_545
Si2 Si3 2.554448 1_455
Si2 Si7 2.647196 1_545
Si2 Si7 2.647196 1_455
Si2 Si6 2.654342 1_455
Si2 Si6 2.654342 1_545
Si3 Si6 2.511790 1_545
Si3 Si6 2.511790 1_455
Si4 Si5 2.736064 1_566
Si4 Si5 2.736064 1_656
