# generated using pymatgen
data_GdNi3
_symmetry_space_group_name_H-M   'P 1'
_cell_length_a   4.93883785
_cell_length_b   4.93883785
_cell_length_c   8.67270226
_cell_angle_alpha   73.45701377
_cell_angle_beta   73.45701377
_cell_angle_gamma   60.00000201
_symmetry_Int_Tables_number   1
_chemical_formula_structural   GdNi3
_chemical_formula_sum   'Gd3 Ni9'
_cell_volume   173.01871527
_cell_formula_units_Z   3
loop_
 _symmetry_equiv_pos_site_id
 _symmetry_equiv_pos_as_xyz
  1  'x, y, z'
loop_
 _atom_site_type_symbol
 _atom_site_label
 _atom_site_symmetry_multiplicity
 _atom_site_fract_x
 _atom_site_fract_y
 _atom_site_fract_z
 _atom_site_occupancy
  Gd  Gd0  1  0.00000000  0.00000000  0.00000000  1
  Gd  Gd1  1  0.13884400  0.13884400  0.58346700  1
  Gd  Gd2  1  0.86115600  0.86115600  0.41653300  1
  Ni  Ni0  1  0.50000000  0.50000000  0.50000000  1
  Ni  Ni1  1  0.33284700  0.33284700  0.00146000  1
  Ni  Ni2  1  0.66715300  0.66715300  0.99854000  1
  Ni  Ni3  1  0.08212100  0.58139800  0.75508200  1
  Ni  Ni4  1  0.58139800  0.58139800  0.75508200  1
  Ni  Ni5  1  0.58139800  0.08212100  0.75508200  1
  Ni  Ni6  1  0.91787900  0.41860200  0.24491800  1
  Ni  Ni7  1  0.41860200  0.41860200  0.24491800  1
  Ni  Ni8  1  0.41860200  0.91787900  0.24491800  1
loop_
_geom_bond_atom_site_label_1
_geom_bond_atom_site_label_2
_geom_bond_distance
_geom_bond_site_symmetry_2
Gd0 Ni2 2.851463 1_544
Gd0 Ni2 2.851463 1_454
Gd0 Ni1 2.851463 1_545
Gd0 Ni1 2.851463 1_455
Gd0 Ni2 2.851467 1_444
Gd0 Ni1 2.851467 1_555
Gd0 Ni8 3.181526 1_445
Gd0 Ni6 3.181526 1_445
Gd0 Ni3 3.181526 1_554
Gd0 Ni5 3.181526 1_554
Gd0 Ni7 3.181528 1_545
Gd0 Ni7 3.181528 1_455
Gd0 Ni4 3.181528 1_454
Gd0 Ni4 3.181528 1_544
Gd0 Ni8 3.181530 1_545
Gd0 Ni6 3.181530 1_455
Gd0 Ni5 3.181530 1_454
Gd0 Ni3 3.181530 1_544
Gd0 Gd2 3.411633 1_445
Gd0 Gd1 3.411633 1_554
Gd1 Ni3 2.841444 1_555
Gd1 Ni5 2.841444 1_555
Gd1 Ni3 2.841444 1_545
Gd1 Ni5 2.841444 1_455
Gd1 Ni4 2.841444 1_545
Gd1 Ni4 2.841444 1_455
Gd1 Ni0 2.932245 1_455
Gd1 Ni0 2.932245 1_545
Gd1 Ni0 2.932249 1_555
Gd1 Ni6 3.118899 1_455
Gd1 Ni8 3.118899 1_545
Gd1 Ni7 3.118903 1_555
Gd1 Gd2 3.162298 1_445
Gd1 Gd2 3.162306 1_545
Gd1 Gd2 3.162306 1_455
Gd2 Ni8 2.841444 1_555
Gd2 Ni6 2.841444 1_555
Gd2 Ni8 2.841444 1_655
Gd2 Ni6 2.841444 1_565
Gd2 Ni7 2.841444 1_655
Gd2 Ni7 2.841444 1_565
Gd2 Ni0 2.932245 1_655
Gd2 Ni0 2.932245 1_565
Gd2 Ni0 2.932249 1_555
Gd2 Ni3 3.118899 1_655
Gd2 Ni5 3.118899 1_565
Gd2 Ni4 3.118903 1_555
Ni0 Ni4 2.528202 1_555
Ni0 Ni7 2.528202 1_555
Ni0 Ni3 2.528205 1_555
Ni0 Ni5 2.528205 1_555
Ni0 Ni8 2.528205 1_555
Ni0 Ni6 2.528205 1_555
Ni1 Ni7 2.452511 1_555
Ni1 Ni6 2.452511 1_455
Ni1 Ni8 2.452511 1_545
Ni1 Ni4 2.469614 1_554
Ni1 Ni3 2.469619 1_554
Ni1 Ni5 2.469619 1_554
Ni1 Ni2 2.851534 1_554
Ni1 Ni2 2.851543 1_544
Ni1 Ni2 2.851543 1_454
Ni2 Ni4 2.452511 1_555
Ni2 Ni3 2.452511 1_655
Ni2 Ni5 2.452511 1_565
Ni2 Ni7 2.469614 1_556
Ni2 Ni6 2.469619 1_556
Ni2 Ni8 2.469619 1_556
Ni3 Ni4 2.465848 1_555
Ni3 Ni5 2.465848 1_555
Ni3 Ni4 2.472990 1_455
Ni3 Ni5 2.472990 1_465
Ni4 Ni5 2.465848 1_555
Ni4 Ni5 2.472990 1_565
Ni6 Ni7 2.465848 1_555
Ni6 Ni8 2.465848 1_555
Ni6 Ni7 2.472990 1_655
Ni6 Ni8 2.472990 1_645
Ni7 Ni8 2.465848 1_555
Ni7 Ni8 2.472990 1_545
