# generated using pymatgen
data_Ho2SiPd2
_symmetry_space_group_name_H-M   'P 1'
_cell_length_a   4.13659800
_cell_length_b   7.52682200
_cell_length_c   13.80300800
_cell_angle_alpha   90.00000000
_cell_angle_beta   90.00000000
_cell_angle_gamma   90.00000000
_symmetry_Int_Tables_number   1
_chemical_formula_structural   Ho2SiPd2
_chemical_formula_sum   'Ho8 Si4 Pd8'
_cell_volume   429.76268367
_cell_formula_units_Z   4
loop_
 _symmetry_equiv_pos_site_id
 _symmetry_equiv_pos_as_xyz
  1  'x, y, z'
loop_
 _atom_site_type_symbol
 _atom_site_label
 _atom_site_symmetry_multiplicity
 _atom_site_fract_x
 _atom_site_fract_y
 _atom_site_fract_z
 _atom_site_occupancy
  Ho  Ho0  1  0.50000000  0.03948500  0.37421100  1
  Ho  Ho1  1  0.50000000  0.96051500  0.62578900  1
  Ho  Ho2  1  0.00000000  0.53948500  0.12578900  1
  Ho  Ho3  1  0.00000000  0.46051500  0.87421100  1
  Ho  Ho4  1  0.50000000  0.95049800  0.13111400  1
  Ho  Ho5  1  0.50000000  0.04950200  0.86888600  1
  Ho  Ho6  1  0.00000000  0.45049800  0.36888600  1
  Ho  Ho7  1  0.00000000  0.54950200  0.63111400  1
  Si  Si0  1  0.50000000  0.65336600  0.47234400  1
  Si  Si1  1  0.50000000  0.34663400  0.52765600  1
  Si  Si2  1  0.00000000  0.15336600  0.02765600  1
  Si  Si3  1  0.00000000  0.84663400  0.97234400  1
  Pd  Pd0  1  0.50000000  0.67231100  0.28104900  1
  Pd  Pd1  1  0.50000000  0.32768900  0.71895100  1
  Pd  Pd2  1  0.00000000  0.17231100  0.21895100  1
  Pd  Pd3  1  0.00000000  0.82768900  0.78104900  1
  Pd  Pd4  1  0.50000000  0.67893200  0.98320800  1
  Pd  Pd5  1  0.50000000  0.32106800  0.01679200  1
  Pd  Pd6  1  0.00000000  0.17893200  0.51679200  1
  Pd  Pd7  1  0.00000000  0.82106800  0.48320800  1
loop_
_geom_bond_atom_site_label_1
_geom_bond_atom_site_label_2
_geom_bond_distance
_geom_bond_site_symmetry_2
Ho0 Pd7 3.040400 1_645
Ho0 Pd7 3.040400 1_545
Ho0 Pd6 3.041827 1_555
Ho0 Pd6 3.041827 1_655
Ho0 Pd0 3.048173 1_545
Ho0 Si1 3.135381 1_555
Ho0 Pd2 3.141665 1_555
Ho0 Pd2 3.141665 1_655
Ho0 Si0 3.206406 1_545
Ho1 Pd6 3.040400 1_565
Ho1 Pd6 3.040400 1_665
Ho1 Pd7 3.041827 1_555
Ho1 Pd7 3.041827 1_655
Ho1 Pd1 3.048173 1_565
Ho1 Si0 3.135381 1_555
Ho1 Pd3 3.141665 1_655
Ho1 Pd3 3.141665 1_555
Ho1 Si1 3.206406 1_565
Ho2 Pd5 3.040400 1_455
Ho2 Pd5 3.040400 1_555
Ho2 Pd4 3.041827 1_454
Ho2 Pd4 3.041827 1_554
Ho2 Pd2 3.048173 1_555
Ho2 Si3 3.135381 1_554
Ho2 Pd0 3.141665 1_455
Ho2 Pd0 3.141665 1_555
Ho2 Si2 3.206406 1_555
Ho3 Pd4 3.040400 1_455
Ho3 Pd4 3.040400 1_555
Ho3 Pd5 3.041827 1_456
Ho3 Pd5 3.041827 1_556
Ho3 Pd3 3.048173 1_555
Ho3 Si2 3.135381 1_556
Ho3 Pd1 3.141665 1_455
Ho3 Pd1 3.141665 1_555
Ho3 Si3 3.206406 1_555
Ho4 Pd4 2.888939 1_554
Ho4 Pd2 2.921506 1_565
Ho4 Pd2 2.921506 1_665
Ho4 Si2 2.940870 1_665
Ho4 Si2 2.940870 1_565
Ho4 Pd0 2.944031 1_555
Ho4 Si3 3.113151 1_554
Ho4 Si3 3.113151 1_654
Ho4 Pd5 3.204647 1_565
Ho5 Pd5 2.888939 1_556
Ho5 Pd3 2.921506 1_645
Ho5 Pd3 2.921506 1_545
Ho5 Si3 2.940870 1_645
Ho5 Si3 2.940870 1_545
Ho5 Pd1 2.944031 1_555
Ho5 Si2 3.113151 1_556
Ho5 Si2 3.113151 1_656
Ho5 Pd4 3.204647 1_545
Ho6 Pd6 2.888939 1_555
Ho6 Pd0 2.921506 1_455
Ho6 Pd0 2.921506 1_555
Ho6 Si0 2.940870 1_555
Ho6 Si0 2.940870 1_455
Ho6 Pd2 2.944031 1_555
Ho6 Si1 3.113151 1_555
Ho6 Si1 3.113151 1_455
Ho6 Pd7 3.204647 1_555
Ho7 Pd7 2.888939 1_555
Ho7 Pd1 2.921506 1_555
Ho7 Pd1 2.921506 1_455
Ho7 Si1 2.940870 1_555
Ho7 Si1 2.940870 1_455
Ho7 Pd3 2.944031 1_555
Ho7 Si0 3.113151 1_455
Ho7 Si0 3.113151 1_555
Ho7 Pd6 3.204647 1_555
Si0 Si1 2.431679 1_555
Si2 Si3 2.431679 1_544
Pd0 Si0 2.644294 1_555
Pd1 Si1 2.644294 1_555
Pd2 Si2 2.644294 1_555
Pd3 Si3 2.644294 1_555
Pd4 Si3 2.427685 1_555
Pd4 Si3 2.427685 1_655
Pd4 Pd5 2.733177 1_556
Pd5 Si2 2.427685 1_655
Pd5 Si2 2.427685 1_555
Pd6 Si1 2.427685 1_555
Pd6 Si1 2.427685 1_455
Pd6 Pd7 2.733177 1_545
Pd7 Si0 2.427685 1_555
Pd7 Si0 2.427685 1_455
