# generated using pymatgen
data_Ti3NbCr2(PO4)6
_symmetry_space_group_name_H-M   'P 1'
_cell_length_a   8.80445638
_cell_length_b   8.80445638
_cell_length_c   8.80445614
_cell_angle_alpha   59.36711092
_cell_angle_beta   59.36711092
_cell_angle_gamma   59.36711031
_symmetry_Int_Tables_number   1
_chemical_formula_structural   Ti3NbCr2(PO4)6
_chemical_formula_sum   'Ti3 Nb1 Cr2 P6 O24'
_cell_volume   475.65389135
_cell_formula_units_Z   1
loop_
 _symmetry_equiv_pos_site_id
 _symmetry_equiv_pos_as_xyz
  1  'x, y, z'
loop_
 _atom_site_type_symbol
 _atom_site_label
 _atom_site_symmetry_multiplicity
 _atom_site_fract_x
 _atom_site_fract_y
 _atom_site_fract_z
 _atom_site_occupancy
  Ti  Ti0  1  0.14482400  0.14482400  0.14482400  1
  Ti  Ti1  1  0.35550900  0.35550900  0.35550900  1
  Ti  Ti2  1  0.64491000  0.64491000  0.64491000  1
  Nb  Nb0  1  0.85603800  0.85603800  0.85603800  1
  Cr  Cr0  1  0.00260200  0.00260200  0.00260200  1
  Cr  Cr1  1  0.50000100  0.50000100  0.50000100  1
  P  P0  1  0.04342500  0.45382700  0.74844900  1
  P  P1  1  0.45382700  0.74844900  0.04342500  1
  P  P2  1  0.25488200  0.95923300  0.53694100  1
  P  P3  1  0.53694100  0.25488200  0.95923300  1
  P  P4  1  0.95923300  0.53694100  0.25488200  1
  P  P5  1  0.74844900  0.04342500  0.45382700  1
  O  O0  1  0.12195000  0.49881000  0.30538900  1
  O  O1  1  0.30538900  0.12195000  0.49881000  1
  O  O2  1  0.06028000  0.26790800  0.91625400  1
  O  O3  1  0.49881000  0.30538900  0.12195000  1
  O  O4  1  0.00758700  0.61513900  0.80240200  1
  O  O5  1  0.23110600  0.43833000  0.58240300  1
  O  O6  1  0.26790800  0.91625400  0.06028000  1
  O  O7  1  0.43833000  0.58240300  0.23110600  1
  O  O8  1  0.19785600  0.99888600  0.37765200  1
  O  O9  1  0.58240300  0.23110600  0.43833000  1
  O  O10  1  0.08777000  0.94214400  0.72737500  1
  O  O11  1  0.37765200  0.19785600  0.99888600  1
  O  O12  1  0.61513900  0.80240200  0.00758700  1
  O  O13  1  0.91625400  0.06028000  0.26790800  1
  O  O14  1  0.41824700  0.77030000  0.55735500  1
  O  O15  1  0.80240200  0.00758700  0.61513900  1
  O  O16  1  0.55735500  0.41824700  0.77030000  1
  O  O17  1  0.72737500  0.08777000  0.94214400  1
  O  O18  1  0.77030000  0.55735500  0.41824700  1
  O  O19  1  0.99888600  0.37765200  0.19785600  1
  O  O20  1  0.49812200  0.69714200  0.87895100  1
  O  O21  1  0.94214400  0.72737500  0.08777000  1
  O  O22  1  0.69714200  0.87895100  0.49812200  1
  O  O23  1  0.87895100  0.49812200  0.69714200  1
loop_
_geom_bond_atom_site_label_1
_geom_bond_atom_site_label_2
_geom_bond_distance
_geom_bond_site_symmetry_2
Nb0 O15 1.999131 1_565
Nb0 O4 1.999131 1_655
Nb0 O12 1.999131 1_556
Nb0 O21 2.089613 1_556
Nb0 O17 2.089613 1_565
Nb0 O10 2.089613 1_655
Cr0 O13 2.301709 1_455
Cr0 O6 2.301709 1_545
Cr0 O2 2.301709 1_554
Cr0 O10 2.402839 1_544
Cr0 O17 2.402839 1_454
Cr0 O21 2.402840 1_445
Cr1 O16 2.354848 1_555
Cr1 O14 2.354848 1_555
Cr1 O18 2.354848 1_555
Cr1 O7 2.363114 1_555
Cr1 O9 2.363114 1_555
Cr1 O5 2.363114 1_555
O0 P4 1.539429 1_455
O0 Ti1 1.930957 1_555
O1 P2 1.539429 1_545
O1 Ti1 1.930958 1_555
O2 P0 1.547788 1_555
O2 Ti0 2.064078 1_556
O3 P3 1.539429 1_554
O3 Ti1 1.930957 1_555
O4 P0 1.555783 1_555
O5 P0 1.548581 1_555
O5 Ti1 2.040318 1_555
O6 P1 1.547788 1_555
O6 Ti0 2.064078 1_565
O7 P1 1.548581 1_555
O7 Ti1 2.040318 1_555
O8 P2 1.542993 1_555
O8 Ti0 1.936751 1_565
O9 P5 1.548581 1_555
O9 Ti1 2.040318 1_555
O10 P2 1.566270 1_555
O11 P3 1.542993 1_555
O11 Ti0 1.936751 1_556
O12 P1 1.555783 1_555
O13 P5 1.547788 1_555
O13 Ti0 2.064078 1_655
O14 P2 1.545551 1_555
O14 Ti2 2.061774 1_555
O15 P5 1.555783 1_555
O16 P3 1.545551 1_555
O16 Ti2 2.061774 1_555
O17 P3 1.566270 1_555
O18 P4 1.545551 1_555
O18 Ti2 2.061774 1_555
O19 P4 1.542993 1_555
O19 Ti0 1.936751 1_655
O20 P1 1.537770 1_556
O20 Ti2 1.942671 1_555
O21 P4 1.566270 1_555
O22 P5 1.537770 1_565
O22 Ti2 1.942671 1_555
O23 P0 1.537770 1_655
O23 Ti2 1.942671 1_555
