# generated using pymatgen
data_Mg14TiBiO16
_symmetry_space_group_name_H-M   'P 1'
_cell_length_a   8.78726451
_cell_length_b   8.75776139
_cell_length_c   4.41477132
_cell_angle_alpha   90.00000000
_cell_angle_beta   90.00000000
_cell_angle_gamma   90.00000000
_symmetry_Int_Tables_number   1
_chemical_formula_structural   Mg14TiBiO16
_chemical_formula_sum   'Mg14 Ti1 Bi1 O16'
_cell_volume   339.74652275
_cell_formula_units_Z   1
loop_
 _symmetry_equiv_pos_site_id
 _symmetry_equiv_pos_as_xyz
  1  'x, y, z'
loop_
 _atom_site_type_symbol
 _atom_site_label
 _atom_site_symmetry_multiplicity
 _atom_site_fract_x
 _atom_site_fract_y
 _atom_site_fract_z
 _atom_site_occupancy
  Mg  Mg0  1  0.50000000  0.00000000  -0.00000000  1
  Mg  Mg1  1  0.50000000  0.50000000  -0.00000000  1
  Mg  Mg2  1  -0.00000000  0.23831280  0.50000000  1
  Mg  Mg3  1  -0.00000000  0.76168720  0.50000000  1
  Mg  Mg4  1  0.50000000  0.24795833  0.50000000  1
  Mg  Mg5  1  0.50000000  0.75204167  0.50000000  1
  Mg  Mg6  1  0.25375074  0.00000000  0.50000000  1
  Mg  Mg7  1  0.26365660  0.50000000  0.50000000  1
  Mg  Mg8  1  0.74624926  0.00000000  0.50000000  1
  Mg  Mg9  1  0.73634340  0.50000000  0.50000000  1
  Mg  Mg10  1  0.25871758  0.24425651  0.00000000  1
  Mg  Mg11  1  0.25871758  0.75574349  -0.00000000  1
  Mg  Mg12  1  0.74128242  0.24425651  0.00000000  1
  Mg  Mg13  1  0.74128242  0.75574349  0.00000000  1
  Ti  Ti0  1  -0.00000000  0.00000000  -0.00000000  1
  Bi  Bi0  1  -0.00000000  0.50000000  -0.00000000  1
  O  O0  1  0.25726826  0.00000000  -0.00000000  1
  O  O1  1  0.27487958  0.50000000  0.00000000  1
  O  O2  1  0.74273174  0.00000000  -0.00000000  1
  O  O3  1  0.72512042  0.50000000  -0.00000000  1
  O  O4  1  0.24860361  0.24974540  0.50000000  1
  O  O5  1  0.24860361  0.75025460  0.50000000  1
  O  O6  1  0.75139639  0.24974540  0.50000000  1
  O  O7  1  0.75139639  0.75025460  0.50000000  1
  O  O8  1  -0.00000000  0.00000000  0.50000000  1
  O  O9  1  -0.00000000  0.50000000  0.50000000  1
  O  O10  1  0.50000000  0.00000000  0.50000000  1
  O  O11  1  0.50000000  0.50000000  0.50000000  1
  O  O12  1  -0.00000000  0.23528315  -0.00000000  1
  O  O13  1  -0.00000000  0.76471685  -0.00000000  1
  O  O14  1  0.50000000  0.24541525  0.00000000  1
  O  O15  1  0.50000000  0.75458475  -0.00000000  1
loop_
_geom_bond_atom_site_label_1
_geom_bond_atom_site_label_2
_geom_bond_distance
_geom_bond_site_symmetry_2
Mg0 O2 2.132948 1_555
Mg0 O0 2.132948 1_555
Mg0 O15 2.149288 1_545
Mg0 O14 2.149288 1_555
Mg0 O10 2.207386 1_554
Mg0 O10 2.207386 1_555
Mg1 O3 1.978193 1_555
Mg1 O1 1.978193 1_555
Mg1 O11 2.207386 1_554
Mg1 O11 2.207386 1_555
Mg1 O14 2.229592 1_555
Mg1 O15 2.229592 1_555
Mg2 O8 2.087087 1_555
Mg2 O4 2.186839 1_555
Mg2 O6 2.186839 1_455
Mg2 O12 2.207545 1_556
Mg2 O12 2.207545 1_555
Mg2 O9 2.291794 1_555
Mg3 O8 2.087087 1_565
Mg3 O7 2.186839 1_455
Mg3 O5 2.186839 1_555
Mg3 O13 2.207545 1_555
Mg3 O13 2.207545 1_556
Mg3 O9 2.291794 1_555
Mg4 O10 2.171560 1_555
Mg4 O11 2.207321 1_555
Mg4 O14 2.207498 1_556
Mg4 O14 2.207498 1_555
Mg4 O6 2.209142 1_555
Mg4 O4 2.209142 1_555
Mg5 O10 2.171560 1_565
Mg5 O11 2.207321 1_555
Mg5 O15 2.207498 1_556
Mg5 O15 2.207498 1_555
Mg5 O5 2.209142 1_555
Mg5 O7 2.209142 1_555
Mg6 O10 2.163857 1_555
Mg6 O4 2.187678 1_555
Mg6 O5 2.187678 1_545
Mg6 O0 2.207602 1_555
Mg6 O0 2.207602 1_556
Mg6 O8 2.229775 1_555
Mg7 O11 2.076812 1_555
Mg7 O5 2.195658 1_555
Mg7 O4 2.195658 1_555
Mg7 O1 2.209588 1_555
Mg7 O1 2.209588 1_556
Mg7 O9 2.316820 1_555
Mg8 O10 2.163857 1_555
Mg8 O6 2.187678 1_555
Mg8 O7 2.187678 1_545
Mg8 O2 2.207602 1_556
Mg8 O2 2.207602 1_555
Mg8 O8 2.229775 1_655
Mg9 O11 2.076812 1_555
Mg9 O7 2.195658 1_555
Mg9 O6 2.195658 1_555
Mg9 O3 2.209588 1_556
Mg9 O3 2.209588 1_555
Mg9 O9 2.316820 1_655
Mg10 O14 2.120237 1_555
Mg10 O0 2.139178 1_555
Mg10 O4 2.209697 1_554
Mg10 O4 2.209697 1_555
Mg10 O1 2.244239 1_555
Mg10 O12 2.274778 1_555
Mg11 O15 2.120237 1_555
Mg11 O0 2.139178 1_565
Mg11 O5 2.209697 1_555
Mg11 O5 2.209697 1_554
Mg11 O1 2.244239 1_555
Mg11 O13 2.274778 1_555
Mg12 O14 2.120237 1_555
Mg12 O2 2.139178 1_555
Mg12 O6 2.209697 1_555
Mg12 O6 2.209697 1_554
Mg12 O3 2.244239 1_555
Mg12 O12 2.274778 1_655
Mg13 O15 2.120237 1_555
Mg13 O2 2.139178 1_565
Mg13 O7 2.209697 1_555
Mg13 O7 2.209697 1_554
Mg13 O3 2.244239 1_555
Mg13 O13 2.274778 1_655
Bi0 O9 2.207386 1_554
Bi0 O9 2.207386 1_555
Bi0 O13 2.318327 1_555
Bi0 O12 2.318327 1_555
Bi0 O3 2.415440 1_455
Bi0 O1 2.415440 1_555
O0 Ti0 2.260684 1_555
O2 Ti0 2.260684 1_655
O8 Ti0 2.207386 1_555
O8 Ti0 2.207386 1_556
O12 Ti0 2.060554 1_555
O13 Ti0 2.060554 1_565
