# generated using pymatgen
data_MgSi2
_symmetry_space_group_name_H-M   'P 1'
_cell_length_a   9.22985908
_cell_length_b   9.22985908
_cell_length_c   6.83295650
_cell_angle_alpha   89.56922364
_cell_angle_beta   89.56922364
_cell_angle_gamma   23.52728182
_symmetry_Int_Tables_number   1
_chemical_formula_structural   MgSi2
_chemical_formula_sum   'Mg4 Si8'
_cell_volume   232.35977774
_cell_formula_units_Z   4
loop_
 _symmetry_equiv_pos_site_id
 _symmetry_equiv_pos_as_xyz
  1  'x, y, z'
loop_
 _atom_site_type_symbol
 _atom_site_label
 _atom_site_symmetry_multiplicity
 _atom_site_fract_x
 _atom_site_fract_y
 _atom_site_fract_z
 _atom_site_occupancy
  Mg  Mg0  1  0.83820700  0.83820700  0.50194300  1
  Mg  Mg1  1  0.10087600  0.10087600  0.94099700  1
  Mg  Mg2  1  0.16179300  0.16179300  0.49805700  1
  Mg  Mg3  1  0.89912400  0.89912400  0.05900300  1
  Si  Si0  1  0.57866200  0.57866200  0.25267600  1
  Si  Si1  1  0.29352900  0.29352900  0.85192100  1
  Si  Si2  1  0.42133800  0.42133800  0.74732400  1
  Si  Si3  1  0.70647100  0.70647100  0.14807900  1
  Si  Si4  1  0.28329900  0.28329900  0.22269900  1
  Si  Si5  1  0.99285900  0.99285900  0.67413700  1
  Si  Si6  1  0.71670100  0.71670100  0.77730100  1
  Si  Si7  1  0.00714100  0.00714100  0.32586300  1
loop_
_geom_bond_atom_site_label_1
_geom_bond_atom_site_label_2
_geom_bond_distance
_geom_bond_site_symmetry_2
Mg0 Si4 2.862755 1_655
Mg0 Si4 2.862755 1_565
Mg0 Si6 2.880696 1_555
Mg0 Si2 2.940732 1_565
Mg0 Si2 2.940732 1_655
Mg0 Si5 3.040755 1_555
Mg0 Si1 3.143552 1_655
Mg0 Si1 3.143552 1_565
Mg0 Mg3 3.212636 1_555
Mg0 Si7 3.272890 1_665
Mg1 Si5 2.681464 1_445
Mg1 Si0 2.867845 1_456
Mg1 Si0 2.867845 1_546
Mg1 Si6 3.022833 1_455
Mg1 Si6 3.022833 1_545
Mg1 Si3 3.037473 1_456
Mg1 Si3 3.037473 1_546
Mg1 Si7 3.117186 1_556
Mg1 Mg2 3.212636 1_555
Mg2 Si6 2.862755 1_455
Mg2 Si6 2.862755 1_545
Mg2 Si4 2.880696 1_555
Mg2 Si0 2.940732 1_545
Mg2 Si0 2.940732 1_455
Mg2 Si7 3.040755 1_555
Mg2 Si3 3.143552 1_545
Mg2 Si3 3.143552 1_455
Mg2 Si5 3.272890 1_445
Mg3 Si7 2.681464 1_665
Mg3 Si2 2.867845 1_564
Mg3 Si2 2.867845 1_654
Mg3 Si4 3.022833 1_655
Mg3 Si4 3.022833 1_565
Mg3 Si1 3.037473 1_564
Mg3 Si1 3.037473 1_654
Mg3 Si5 3.117186 1_554
Si0 Si7 2.334891 1_655
Si0 Si7 2.334891 1_565
Si0 Si3 2.412564 1_555
Si1 Si6 2.395732 1_455
Si1 Si6 2.395732 1_545
Si1 Si2 2.412564 1_555
Si1 Si4 2.538830 1_556
Si2 Si5 2.334891 1_455
Si2 Si5 2.334891 1_545
Si3 Si4 2.395732 1_655
Si3 Si4 2.395732 1_565
Si3 Si6 2.538830 1_554
