# generated using pymatgen
data_Bi5(TeO6)3
_symmetry_space_group_name_H-M   'P 1'
_cell_length_a   9.28119417
_cell_length_b   9.28119417
_cell_length_c   11.72963952
_cell_angle_alpha   83.37810968
_cell_angle_beta   83.37810968
_cell_angle_gamma   59.81295378
_symmetry_Int_Tables_number   1
_chemical_formula_structural   Bi5(TeO6)3
_chemical_formula_sum   'Bi10 Te6 O36'
_cell_volume   865.61354707
_cell_formula_units_Z   2
loop_
 _symmetry_equiv_pos_site_id
 _symmetry_equiv_pos_as_xyz
  1  'x, y, z'
loop_
 _atom_site_type_symbol
 _atom_site_label
 _atom_site_symmetry_multiplicity
 _atom_site_fract_x
 _atom_site_fract_y
 _atom_site_fract_z
 _atom_site_occupancy
  Bi  Bi0  1  0.49454300  0.83020600  0.99475000  1
  Bi  Bi1  1  0.21315500  0.11619900  0.52313100  1
  Bi  Bi2  1  0.36629800  0.36588300  0.28417500  1
  Bi  Bi3  1  0.78553600  0.96132200  0.76767400  1
  Bi  Bi4  1  0.63411700  0.63370200  0.71582500  1
  Bi  Bi5  1  0.97761500  0.02238500  0.00000000  1
  Bi  Bi6  1  0.38354200  0.61645800  0.50000000  1
  Bi  Bi7  1  0.03867800  0.21446400  0.23232600  1
  Bi  Bi8  1  0.88380100  0.78684500  0.47686900  1
  Bi  Bi9  1  0.16979400  0.50545700  0.00525000  1
  Te  Te0  1  0.84862900  0.48731800  0.95808000  1
  Te  Te1  1  0.20227700  0.78964100  0.24327600  1
  Te  Te2  1  0.21035900  0.79772300  0.75672400  1
  Te  Te3  1  0.86042800  0.45973100  0.44816500  1
  Te  Te4  1  0.54026900  0.13957200  0.55183500  1
  Te  Te5  1  0.51268200  0.15137100  0.04192000  1
  O  O0  1  0.06623600  0.43458900  0.88122400  1
  O  O1  1  0.39747600  0.78461800  0.84556400  1
  O  O2  1  0.64057500  0.54149600  0.53014800  1
  O  O3  1  0.13078900  0.68635000  0.37921300  1
  O  O4  1  0.21538200  0.60252400  0.15443600  1
  O  O5  1  0.31365000  0.86921100  0.62078700  1
  O  O6  1  0.80403900  0.37480500  0.32999600  1
  O  O7  1  0.04775400  0.01790300  0.79957600  1
  O  O8  1  0.38579400  0.58104400  0.71100600  1
  O  O9  1  0.44872200  0.08490100  0.42671100  1
  O  O10  1  0.63232200  0.57487600  0.05001200  1
  O  O11  1  0.92969200  0.55396500  0.08347800  1
  O  O12  1  0.04445900  0.80314500  0.66433900  1
  O  O13  1  0.73076000  0.72519800  0.87648800  1
  O  O14  1  0.42512400  0.36767800  0.94998800  1
  O  O15  1  0.58264000  0.21436800  0.16495600  1
  O  O16  1  0.74089600  0.06172700  0.44562400  1
  O  O17  1  0.27480200  0.26924000  0.12351200  1
  O  O18  1  0.45850400  0.35942500  0.46985200  1
  O  O19  1  0.93827300  0.25910400  0.55437600  1
  O  O20  1  0.80366300  0.67356100  0.36523300  1
  O  O21  1  0.66244600  0.89986600  0.62798000  1
  O  O22  1  0.98209700  0.95224600  0.20042400  1
  O  O23  1  0.78563200  0.41736000  0.83504400  1
  O  O24  1  0.72695400  0.08061500  0.95606700  1
  O  O25  1  0.11446800  0.73384400  0.90462100  1
  O  O26  1  0.44603500  0.07030800  0.91652200  1
  O  O27  1  0.62519500  0.19596100  0.67000400  1
  O  O28  1  0.19685500  0.95554100  0.33566100  1
  O  O29  1  0.10013400  0.33755400  0.37202000  1
  O  O30  1  0.32643900  0.19633700  0.63476700  1
  O  O31  1  0.26615600  0.88553200  0.09537900  1
  O  O32  1  0.41895600  0.61420600  0.28899400  1
  O  O33  1  0.91509900  0.55127800  0.57328900  1
  O  O34  1  0.91938500  0.27304600  0.04393300  1
  O  O35  1  0.56541100  0.93376400  0.11877600  1
loop_
_geom_bond_atom_site_label_1
_geom_bond_atom_site_label_2
_geom_bond_distance
_geom_bond_site_symmetry_2
Bi0 O10 2.112014 1_556
Bi0 O31 2.148994 1_556
Bi0 O26 2.150655 1_565
Bi0 O35 2.156785 1_556
Bi0 O1 2.229454 1_555
Bi0 O13 2.267651 1_555
Bi1 O30 2.168389 1_555
Bi1 O19 2.212652 1_455
Bi1 O5 2.219803 1_545
Bi1 O9 2.238387 1_555
Bi1 O29 2.425796 1_555
Bi2 O15 2.220614 1_555
Bi2 O4 2.393446 1_555
Bi2 O18 2.414017 1_555
Bi2 O17 2.569438 1_555
Bi2 O32 2.592879 1_555
Bi2 O29 2.690160 1_555
Bi2 O9 2.732119 1_555
Bi3 O27 2.197336 1_565
Bi3 O12 2.364334 1_655
Bi3 O21 2.370217 1_555
Bi3 O24 2.467062 1_565
Bi3 O13 2.648757 1_555
Bi3 O7 2.807005 1_665
Bi4 O23 2.220614 1_555
Bi4 O1 2.393446 1_555
Bi4 O2 2.414017 1_555
Bi4 O13 2.569438 1_555
Bi4 O8 2.592879 1_555
Bi4 O21 2.690160 1_555
Bi4 O33 2.732119 1_555
Bi5 O34 2.217607 1_555
Bi5 O24 2.217607 1_554
Bi5 O22 2.365291 1_545
Bi5 O7 2.365291 1_654
Bi5 O25 2.641816 1_644
Bi5 O31 2.641816 1_645
Bi6 O18 2.183752 1_555
Bi6 O2 2.183752 1_555
Bi6 O8 2.460003 1_555
Bi6 O32 2.460003 1_555
Bi6 O5 2.637299 1_555
Bi6 O3 2.637299 1_555
Bi7 O6 2.197336 1_455
Bi7 O28 2.364334 1_545
Bi7 O29 2.370217 1_555
Bi7 O34 2.467062 1_455
Bi7 O17 2.648757 1_555
Bi7 O22 2.807005 1_445
Bi8 O20 2.168389 1_555
Bi8 O16 2.212652 1_565
Bi8 O3 2.219803 1_655
Bi8 O33 2.238387 1_555
Bi8 O21 2.425796 1_555
Bi9 O14 2.112014 1_554
Bi9 O25 2.148994 1_554
Bi9 O11 2.150655 1_455
Bi9 O0 2.156785 1_554
Bi9 O4 2.229454 1_555
Bi9 O17 2.267651 1_555
O0 Te0 1.954238 1_455
O1 Te2 2.071818 1_555
O2 Te3 1.955194 1_555
O3 Te1 1.986149 1_555
O4 Te1 2.071818 1_555
O5 Te2 1.986149 1_555
O6 Te3 1.910636 1_555
O7 Te2 1.914876 1_545
O8 Te2 1.933239 1_555
O9 Te4 2.006576 1_555
O10 Te0 1.978823 1_554
O11 Te0 2.011271 1_554
O12 Te2 1.960093 1_555
O13 Te0 2.076621 1_555
O14 Te5 1.978823 1_556
O15 Te5 1.907531 1_555
O16 Te4 1.964934 1_555
O17 Te5 2.076621 1_555
O18 Te4 1.955194 1_555
O19 Te3 1.964934 1_555
O20 Te3 1.945232 1_555
O21 Te4 2.066737 1_565
O22 Te1 1.914876 1_655
O23 Te0 1.907531 1_555
O24 Te5 1.943595 1_556
O25 Te2 2.022465 1_555
O26 Te5 2.011271 1_556
O27 Te4 1.910636 1_555
O28 Te1 1.960093 1_555
O29 Te3 2.066737 1_455
O30 Te4 1.945232 1_555
O31 Te1 2.022465 1_555
O32 Te1 1.933239 1_555
O33 Te3 2.006576 1_555
O34 Te0 1.943595 1_554
O35 Te5 1.954238 1_565
