# generated using pymatgen
data_Li7Mn4CoO12
_symmetry_space_group_name_H-M   'P 1'
_cell_length_a   5.16003600
_cell_length_b   5.80610878
_cell_length_c   7.69300600
_cell_angle_alpha   99.92085283
_cell_angle_beta   108.12652805
_cell_angle_gamma   90.27887613
_symmetry_Int_Tables_number   1
_chemical_formula_structural   Li7Mn4CoO12
_chemical_formula_sum   'Li7 Mn4 Co1 O12'
_cell_volume   215.34541399
_cell_formula_units_Z   1
loop_
 _symmetry_equiv_pos_site_id
 _symmetry_equiv_pos_as_xyz
  1  'x, y, z'
loop_
 _atom_site_type_symbol
 _atom_site_label
 _atom_site_symmetry_multiplicity
 _atom_site_fract_x
 _atom_site_fract_y
 _atom_site_fract_z
 _atom_site_occupancy
  Li  Li0  1  0.50992800  0.25397300  0.99728800  1
  Li  Li1  1  0.15456000  0.41915700  0.68230600  1
  Li  Li2  1  0.84284000  0.57611000  0.32094400  1
  Li  Li3  1  0.49019700  0.74059600  0.99742900  1
  Li  Li4  1  0.16080300  0.92224400  0.67073900  1
  Li  Li5  1  0.83896600  0.08022600  0.32919100  1
  Li  Li6  1  0.99287600  0.49575800  0.99665000  1
  Mn  Mn0  1  0.99885700  0.00217500  0.99856900  1
  Mn  Mn1  1  0.33697700  0.33257200  0.32889100  1
  Mn  Mn2  1  0.66005700  0.66916400  0.67228300  1
  Mn  Mn3  1  0.34311400  0.83205100  0.33078200  1
  Co  Co0  1  0.65991400  0.16898800  0.66783700  1
  O  O0  1  0.94914900  0.28011900  0.17007800  1
  O  O1  1  0.57257400  0.45586400  0.81290100  1
  O  O2  1  0.27619900  0.64635600  0.50332400  1
  O  O3  1  0.97055800  0.80349000  0.18075600  1
  O  O4  1  0.57379600  0.95184800  0.81462400  1
  O  O5  1  0.28299100  0.12125600  0.49026200  1
  O  O6  1  0.03686800  0.19640600  0.82381500  1
  O  O7  1  0.73072800  0.38577300  0.51534200  1
  O  O8  1  0.42656100  0.54926300  0.18766800  1
  O  O9  1  0.03400100  0.71649400  0.82481000  1
  O  O10  1  0.72225000  0.88030500  0.50962600  1
  O  O11  1  0.43523600  0.01981000  0.17388700  1
loop_
_geom_bond_atom_site_label_1
_geom_bond_atom_site_label_2
_geom_bond_distance
_geom_bond_site_symmetry_2
Li0 O1 2.084523 1_555
Li0 O4 2.145884 1_545
Li0 O11 2.190866 1_556
Li0 O8 2.191694 1_556
Li0 O0 2.231391 1_556
Li0 O6 2.379616 1_555
Li1 O6 2.028659 1_555
Li1 O1 2.068969 1_555
Li1 O9 2.086111 1_555
Li1 O7 2.152322 1_455
Li1 O2 2.277177 1_555
Li1 O5 2.313744 1_555
Li2 O8 2.064168 1_555
Li2 O3 2.065115 1_555
Li2 O0 2.078322 1_555
Li2 O7 2.212254 1_555
Li2 O2 2.230916 1_655
Li2 O10 2.302800 1_555
Li3 O11 2.009242 1_566
Li3 O8 2.083139 1_556
Li3 O1 2.121921 1_555
Li3 O4 2.152892 1_555
Li3 O9 2.304773 1_555
Li3 O3 2.429978 1_556
Li4 O6 2.040149 1_565
Li4 O9 2.054971 1_555
Li4 O4 2.063807 1_555
Li4 O2 2.086811 1_555
Li4 O5 2.179622 1_565
Li4 O10 2.204962 1_455
Li5 O0 2.021060 1_555
Li5 O11 2.047000 1_555
Li5 O3 2.051237 1_545
Li5 O10 2.169203 1_545
Li5 O5 2.228927 1_655
Li5 O7 2.267568 1_555
Li6 O0 2.039281 1_556
Li6 O9 2.047163 1_655
Li6 O6 2.058069 1_655
Li6 O3 2.107878 1_556
Li6 O1 2.174886 1_555
Li6 O8 2.248010 1_656
Mn0 O6 1.949855 1_655
Mn0 O0 1.972776 1_556
Mn0 O9 1.990166 1_645
Mn0 O3 1.999825 1_546
Mn0 O4 2.195126 1_545
Mn0 O11 2.227174 1_656
Mn1 O8 1.937711 1_555
Mn1 O5 1.964886 1_555
Mn1 O0 1.983624 1_455
Mn1 O7 2.075755 1_555
Mn1 O11 2.148399 1_555
Mn1 O2 2.154830 1_555
Mn2 O9 1.910626 1_655
Mn2 O1 1.915150 1_555
Mn2 O4 1.944778 1_555
Mn2 O7 1.973140 1_555
Mn2 O10 1.986521 1_555
Mn2 O2 1.991594 1_555
Mn3 O3 1.898833 1_455
Mn3 O11 1.917440 1_565
Mn3 O8 1.942257 1_555
Mn3 O2 1.954034 1_555
Mn3 O5 1.988237 1_565
Mn3 O10 1.996444 1_555
Co0 O6 1.930666 1_655
Co0 O4 1.964545 1_545
Co0 O7 1.965990 1_555
Co0 O1 1.975502 1_555
Co0 O5 1.984145 1_555
Co0 O10 1.984977 1_545
