# generated using pymatgen
data_Nb3Si2
_symmetry_space_group_name_H-M   'P 1'
_cell_length_a   6.74561363
_cell_length_b   6.74561363
_cell_length_c   3.52140915
_cell_angle_alpha   90.00000000
_cell_angle_beta   90.00000000
_cell_angle_gamma   90.00000000
_symmetry_Int_Tables_number   1
_chemical_formula_structural   Nb3Si2
_chemical_formula_sum   'Nb6 Si4'
_cell_volume   160.23574840
_cell_formula_units_Z   2
loop_
 _symmetry_equiv_pos_site_id
 _symmetry_equiv_pos_as_xyz
  1  'x, y, z'
loop_
 _atom_site_type_symbol
 _atom_site_label
 _atom_site_symmetry_multiplicity
 _atom_site_fract_x
 _atom_site_fract_y
 _atom_site_fract_z
 _atom_site_occupancy
  Nb  Nb0  1  0.50000000  0.50000000  0.00000000  1
  Nb  Nb1  1  0.00000000  0.00000000  0.00000000  1
  Nb  Nb2  1  0.67145248  0.17144854  0.50000000  1
  Nb  Nb3  1  0.32854752  0.82855146  0.50000000  1
  Nb  Nb4  1  0.17144854  0.32854752  0.50000000  1
  Nb  Nb5  1  0.82855146  0.67145248  0.50000000  1
  Si  Si0  1  0.12727802  0.62727103  0.00000000  1
  Si  Si1  1  0.87272198  0.37272897  -0.00000000  1
  Si  Si2  1  0.62727103  0.87272198  -0.00000000  1
  Si  Si3  1  0.37272897  0.12727802  0.00000000  1
loop_
_geom_bond_atom_site_label_1
_geom_bond_atom_site_label_2
_geom_bond_distance
_geom_bond_site_symmetry_2
Nb0 Si1 2.656775 1_555
Nb0 Si0 2.656775 1_555
Nb0 Si2 2.656775 1_555
Nb0 Si3 2.656775 1_555
Nb1 Si3 2.656835 1_555
Nb1 Si1 2.656835 1_455
Nb1 Si2 2.656835 1_445
Nb1 Si0 2.656835 1_545
Nb2 Si1 2.605169 1_555
Nb2 Si1 2.605169 1_556
Nb2 Si3 2.692467 1_555
Nb2 Si3 2.692467 1_556
Nb2 Si2 2.692491 1_545
Nb2 Si2 2.692491 1_546
Nb3 Si0 2.605169 1_555
Nb3 Si0 2.605169 1_556
Nb3 Si2 2.692467 1_556
Nb3 Si2 2.692467 1_555
Nb3 Si3 2.692491 1_566
Nb3 Si3 2.692491 1_565
Nb4 Si3 2.605169 1_556
Nb4 Si3 2.605169 1_555
Nb4 Si0 2.692467 1_556
Nb4 Si0 2.692467 1_555
Nb4 Si1 2.692491 1_455
Nb4 Si1 2.692491 1_456
Nb5 Si2 2.605169 1_556
Nb5 Si2 2.605169 1_555
Nb5 Si1 2.692467 1_556
Nb5 Si1 2.692467 1_555
Nb5 Si0 2.692491 1_655
Nb5 Si0 2.692491 1_656
Si0 Si1 2.428331 1_455
Si2 Si3 2.428331 1_565
