# generated using pymatgen
data_NaTi3F10
_symmetry_space_group_name_H-M   'P 1'
_cell_length_a   7.54726450
_cell_length_b   7.66268397
_cell_length_c   8.76755634
_cell_angle_alpha   77.77291533
_cell_angle_beta   64.51750851
_cell_angle_gamma   60.50189589
_symmetry_Int_Tables_number   1
_chemical_formula_structural   NaTi3F10
_chemical_formula_sum   'Na2 Ti6 F20'
_cell_volume   398.38729430
_cell_formula_units_Z   2
loop_
 _symmetry_equiv_pos_site_id
 _symmetry_equiv_pos_as_xyz
  1  'x, y, z'
loop_
 _atom_site_type_symbol
 _atom_site_label
 _atom_site_symmetry_multiplicity
 _atom_site_fract_x
 _atom_site_fract_y
 _atom_site_fract_z
 _atom_site_occupancy
  Na  Na0  1  0.97651785  0.99931661  1.00002176  1
  Na  Na1  1  0.72657834  0.49929772  0.49990460  1
  Ti  Ti0  1  0.50403833  1.00006040  -0.00001018  1
  Ti  Ti1  1  0.25406814  0.50001784  0.50001624  1
  Ti  Ti2  1  0.75781790  0.00182850  0.49872773  1
  Ti  Ti3  1  0.25841264  0.99816030  0.50128668  1
  Ti  Ti4  1  0.50954038  0.49824053  0.99870629  1
  Ti  Ti5  1  0.00641441  0.50193684  0.00129364  1
  F  F0  1  0.87789535  0.00563173  0.26624415  1
  F  F1  1  0.14962577  0.99462065  0.73378290  1
  F  F2  1  0.63315816  0.49453755  0.76625562  1
  F  F3  1  0.89417583  0.50557023  0.23373697  1
  F  F4  1  0.80835749  0.39471306  0.00539185  1
  F  F5  1  0.20823740  0.60567716  0.99465887  1
  F  F6  1  0.95321852  0.10526268  0.50531287  1
  F  F7  1  0.56378056  0.89481926  0.49460312  1
  F  F8  1  0.34305471  0.70471993  0.49425008  1
  F  F9  1  0.54187065  0.29526844  0.50597125  1
  F  F10  1  0.79775091  0.79538112  0.99409104  1
  F  F11  1  0.58723378  0.20475315  0.00581046  1
  F  F12  1  0.37797358  0.99893011  0.25364323  1
  F  F13  1  0.63060600  0.00076786  0.74631740  1
  F  F14  1  0.12677955  0.50111273  0.75366642  1
  F  F15  1  0.38148360  0.49897242  0.24636803  1
  F  F16  1  0.97008875  0.71330853  0.50528686  1
  F  F17  1  0.18849991  0.28678930  0.49467235  1
  F  F18  1  0.43296018  0.78688778  0.00541291  1
  F  F19  1  0.22546632  0.21341858  0.99457589  1
loop_
_geom_bond_atom_site_label_1
_geom_bond_atom_site_label_2
_geom_bond_distance
_geom_bond_site_symmetry_2
F0 Ti2 1.840714 1_555
F0 Na0 2.126479 1_544
F1 Ti3 1.840766 1_555
F1 Na0 2.126526 1_455
F2 Ti4 1.840406 1_555
F2 Na1 2.127042 1_555
F3 Ti5 1.840371 1_655
F3 Na1 2.126162 1_555
F4 Ti4 2.012734 1_554
F4 Ti5 2.015315 1_655
F4 Na0 2.648558 1_544
F5 Ti5 2.012975 1_556
F5 Ti4 2.015835 1_555
F5 Na0 2.636930 1_455
F6 Ti2 2.012487 1_555
F6 Ti3 2.015202 1_645
F6 Na1 2.639643 1_555
F7 Ti3 2.012036 1_555
F7 Ti2 2.014689 1_565
F7 Na1 2.649450 1_555
F8 Ti1 1.971964 1_555
F8 Ti3 2.019435 1_555
F8 Na1 2.542066 1_555
F9 Ti1 1.972105 1_555
F9 Ti2 2.019582 1_555
F9 Na1 2.537264 1_555
F10 Ti0 1.971878 1_556
F10 Ti5 2.019487 1_656
F10 Na0 2.536959 1_555
F11 Ti0 1.971901 1_545
F11 Ti4 2.019586 1_554
F11 Na0 2.542349 1_544
F12 Ti3 1.960224 1_555
F12 Ti0 2.007585 1_555
F13 Ti2 1.959824 1_555
F13 Ti0 2.007727 1_546
F14 Ti5 1.960094 1_556
F14 Ti1 2.007558 1_555
F15 Ti4 1.960376 1_554
F15 Ti1 2.007541 1_555
F16 Ti1 1.940120 1_655
F16 Ti2 1.998778 1_565
F17 Ti1 1.940452 1_555
F17 Ti3 1.999009 1_545
F18 Ti0 1.940714 1_555
F18 Ti4 1.999137 1_554
F19 Ti0 1.939961 1_546
F19 Ti5 1.999089 1_556
