# generated using pymatgen
data_EuGa4Au3
_symmetry_space_group_name_H-M   'P 1'
_cell_length_a   4.31539263
_cell_length_b   4.31539263
_cell_length_c   8.68797661
_cell_angle_alpha   90.00000000
_cell_angle_beta   90.00000000
_cell_angle_gamma   90.00000000
_symmetry_Int_Tables_number   1
_chemical_formula_structural   EuGa4Au3
_chemical_formula_sum   'Eu1 Ga4 Au3'
_cell_volume   161.79283095
_cell_formula_units_Z   1
loop_
 _symmetry_equiv_pos_site_id
 _symmetry_equiv_pos_as_xyz
  1  'x, y, z'
loop_
 _atom_site_type_symbol
 _atom_site_label
 _atom_site_symmetry_multiplicity
 _atom_site_fract_x
 _atom_site_fract_y
 _atom_site_fract_z
 _atom_site_occupancy
  Eu  Eu0  1  -0.00000000  0.00000000  0.50000000  1
  Ga  Ga0  1  0.00000000  0.50000000  0.17406991  1
  Ga  Ga1  1  -0.00000000  0.50000000  0.82593009  1
  Ga  Ga2  1  0.50000000  0.00000000  0.17406991  1
  Ga  Ga3  1  0.50000000  -0.00000000  0.82593009  1
  Au  Au0  1  0.50000000  0.50000000  0.34150810  1
  Au  Au1  1  0.50000000  0.50000000  0.65849190  1
  Au  Au2  1  -0.00000000  0.00000000  0.00000000  1
loop_
_geom_bond_atom_site_label_1
_geom_bond_atom_site_label_2
_geom_bond_distance
_geom_bond_site_symmetry_2
Eu0 Ga3 3.560060 1_555
Eu0 Ga1 3.560060 1_545
Eu0 Ga1 3.560060 1_555
Eu0 Ga3 3.560060 1_455
Eu0 Ga2 3.560060 1_555
Eu0 Ga0 3.560060 1_555
Eu0 Ga2 3.560060 1_455
Eu0 Ga0 3.560060 1_545
Au0 Ga0 2.602269 1_655
Au0 Ga2 2.602269 1_565
Au0 Ga2 2.602269 1_555
Au0 Ga0 2.602269 1_555
Au0 Au1 2.753948 1_555
Au0 Eu0 3.347740 1_565
Au0 Eu0 3.347740 1_555
Au0 Eu0 3.347740 1_665
Au0 Eu0 3.347740 1_655
Au1 Ga1 2.602269 1_655
Au1 Ga3 2.602269 1_565
Au1 Ga3 2.602269 1_555
Au1 Ga1 2.602269 1_555
Au1 Eu0 3.347740 1_565
Au1 Eu0 3.347740 1_555
Au1 Eu0 3.347740 1_665
Au1 Eu0 3.347740 1_655
Au2 Ga0 2.634910 1_555
Au2 Ga2 2.634910 1_455
Au2 Ga2 2.634910 1_555
Au2 Ga0 2.634910 1_545
Au2 Ga1 2.634910 1_544
Au2 Ga3 2.634910 1_554
Au2 Ga3 2.634910 1_454
Au2 Ga1 2.634910 1_554
