# generated using pymatgen
data_Mg(NiO2)2
_symmetry_space_group_name_H-M   'P 1'
_cell_length_a   2.92772800
_cell_length_b   9.28862700
_cell_length_c   9.52908800
_cell_angle_alpha   90.00000000
_cell_angle_beta   90.00000000
_cell_angle_gamma   90.00000000
_symmetry_Int_Tables_number   1
_chemical_formula_structural   Mg(NiO2)2
_chemical_formula_sum   'Mg4 Ni8 O16'
_cell_volume   259.13948257
_cell_formula_units_Z   4
loop_
 _symmetry_equiv_pos_site_id
 _symmetry_equiv_pos_as_xyz
  1  'x, y, z'
loop_
 _atom_site_type_symbol
 _atom_site_label
 _atom_site_symmetry_multiplicity
 _atom_site_fract_x
 _atom_site_fract_y
 _atom_site_fract_z
 _atom_site_occupancy
  Mg  Mg0  1  0.80414100  0.25000000  0.85292700  1
  Mg  Mg1  1  0.80414100  0.75000000  0.64707300  1
  Mg  Mg2  1  0.19585900  0.25000000  0.35292700  1
  Mg  Mg3  1  0.19585900  0.75000000  0.14707300  1
  Ni  Ni0  1  0.27559300  0.07023600  0.61340100  1
  Ni  Ni1  1  0.27559300  0.57023600  0.88659900  1
  Ni  Ni2  1  0.72440700  0.57023600  0.38659900  1
  Ni  Ni3  1  0.27559300  0.92976400  0.88659900  1
  Ni  Ni4  1  0.72440700  0.92976400  0.38659900  1
  Ni  Ni5  1  0.27559300  0.42976400  0.61340100  1
  Ni  Ni6  1  0.72440700  0.42976400  0.11340100  1
  Ni  Ni7  1  0.72440700  0.07023600  0.11340100  1
  O  O0  1  0.72343700  0.38670300  0.47261300  1
  O  O1  1  0.27656300  0.61329700  0.52738700  1
  O  O2  1  0.84879800  0.50000000  0.75000000  1
  O  O3  1  0.27656300  0.38670300  0.97261300  1
  O  O4  1  0.27656300  0.11329700  0.97261300  1
  O  O5  1  0.30345400  0.75000000  0.79511800  1
  O  O6  1  0.72343700  0.61329700  0.02738700  1
  O  O7  1  0.69654600  0.75000000  0.29511800  1
  O  O8  1  0.84879800  0.00000000  0.75000000  1
  O  O9  1  0.15120200  0.50000000  0.25000000  1
  O  O10  1  0.72343700  0.11329700  0.47261300  1
  O  O11  1  0.69654600  0.25000000  0.20488200  1
  O  O12  1  0.30345400  0.25000000  0.70488200  1
  O  O13  1  0.15120200  0.00000000  0.25000000  1
  O  O14  1  0.72343700  0.88670300  0.02738700  1
  O  O15  1  0.27656300  0.88670300  0.52738700  1
loop_
_geom_bond_atom_site_label_1
_geom_bond_atom_site_label_2
_geom_bond_distance
_geom_bond_site_symmetry_2
Mg0 O12 2.031547 1_655
Mg0 O12 2.034444 1_555
Mg0 O4 2.196842 1_655
Mg0 O3 2.196842 1_655
Mg0 O3 2.301932 1_555
Mg0 O4 2.301932 1_555
Mg0 O2 2.524178 1_555
Mg0 O8 2.524178 1_555
Mg1 O5 2.031547 1_655
Mg1 O5 2.034444 1_555
Mg1 O15 2.196842 1_655
Mg1 O1 2.196842 1_655
Mg1 O15 2.301932 1_555
Mg1 O1 2.301932 1_555
Mg1 O2 2.524178 1_555
Mg1 O8 2.524178 1_565
Mg2 O11 2.031547 1_455
Mg2 O11 2.034444 1_555
Mg2 O0 2.196842 1_455
Mg2 O10 2.196842 1_455
Mg2 O10 2.301932 1_555
Mg2 O0 2.301932 1_555
Mg2 O13 2.524178 1_555
Mg2 O9 2.524178 1_555
Mg3 O7 2.031547 1_455
Mg3 O7 2.034444 1_555
Mg3 O14 2.196842 1_455
Mg3 O6 2.196842 1_455
Mg3 O14 2.301932 1_555
Mg3 O6 2.301932 1_555
Mg3 O13 2.524178 1_565
Mg3 O9 2.524178 1_555
Ni0 O12 1.885383 1_555
Ni0 O15 1.891573 1_545
Ni0 O10 1.918066 1_555
Ni0 O8 1.918671 1_455
Ni0 O10 2.138480 1_455
Ni0 O8 2.221771 1_555
Ni1 O5 1.885383 1_555
Ni1 O3 1.891573 1_555
Ni1 O6 1.918066 1_556
Ni1 O2 1.918671 1_455
Ni1 O6 2.138480 1_456
Ni1 O2 2.221771 1_555
Ni2 O7 1.885383 1_555
Ni2 O0 1.891573 1_555
Ni2 O1 1.918066 1_555
Ni2 O9 1.918671 1_655
Ni2 O1 2.138480 1_655
Ni2 O9 2.221771 1_555
Ni3 O5 1.885383 1_555
Ni3 O4 1.891573 1_565
Ni3 O14 1.918066 1_556
Ni3 O8 1.918671 1_465
Ni3 O14 2.138480 1_456
Ni3 O8 2.221771 1_565
Ni4 O7 1.885383 1_555
Ni4 O10 1.891573 1_565
Ni4 O15 1.918066 1_555
Ni4 O13 1.918671 1_665
Ni4 O15 2.138480 1_655
Ni4 O13 2.221771 1_565
Ni5 O12 1.885383 1_555
Ni5 O1 1.891573 1_555
Ni5 O0 1.918066 1_555
Ni5 O2 1.918671 1_455
Ni5 O0 2.138480 1_455
Ni5 O2 2.221771 1_555
Ni6 O11 1.885383 1_555
Ni6 O6 1.891573 1_555
Ni6 O3 1.918066 1_554
Ni6 O9 1.918671 1_655
Ni6 O3 2.138480 1_654
Ni6 O9 2.221771 1_555
Ni7 O11 1.885383 1_555
Ni7 O14 1.891573 1_545
Ni7 O4 1.918066 1_554
Ni7 O13 1.918671 1_655
Ni7 O4 2.138480 1_654
Ni7 O13 2.221771 1_555
