# generated using pymatgen
data_Tm2C(NO)2
_symmetry_space_group_name_H-M   'P 1'
_cell_length_a   3.66410028
_cell_length_b   3.66410028
_cell_length_c   8.13480200
_cell_angle_alpha   90.00000000
_cell_angle_beta   90.00000000
_cell_angle_gamma   120.00000497
_symmetry_Int_Tables_number   1
_chemical_formula_structural   Tm2C(NO)2
_chemical_formula_sum   'Tm2 C1 N2 O2'
_cell_volume   94.58282854
_cell_formula_units_Z   1
loop_
 _symmetry_equiv_pos_site_id
 _symmetry_equiv_pos_as_xyz
  1  'x, y, z'
loop_
 _atom_site_type_symbol
 _atom_site_label
 _atom_site_symmetry_multiplicity
 _atom_site_fract_x
 _atom_site_fract_y
 _atom_site_fract_z
 _atom_site_occupancy
  Tm  Tm0  1  0.66666700  0.33333300  0.17580900  1
  Tm  Tm1  1  0.33333300  0.66666700  0.82419100  1
  C  C0  1  0.00000000  0.00000000  0.50000000  1
  N  N0  1  0.00000000  0.00000000  0.34810100  1
  N  N1  1  0.00000000  0.00000000  0.65189900  1
  O  O0  1  0.33333300  0.66666700  0.10263000  1
  O  O1  1  0.66666700  0.33333300  0.89737000  1
loop_
_geom_bond_atom_site_label_1
_geom_bond_atom_site_label_2
_geom_bond_distance
_geom_bond_site_symmetry_2
C0 N0 1.235668 1_555
C0 N1 1.235668 1_555
N0 Tm0 2.537632 1_455
N0 Tm0 2.537634 1_445
N0 Tm0 2.537634 1_555
N1 Tm1 2.537632 1_545
N1 Tm1 2.537634 1_555
N1 Tm1 2.537634 1_445
O0 Tm0 2.197630 1_455
O0 Tm0 2.197630 1_565
O0 Tm0 2.197637 1_555
O0 Tm1 2.265046 1_554
O1 Tm1 2.197630 1_545
O1 Tm1 2.197630 1_655
O1 Tm1 2.197637 1_555
O1 Tm0 2.265046 1_556
