# generated using pymatgen
data_NaAsO6
_symmetry_space_group_name_H-M   'P 1'
_cell_length_a   4.63225400
_cell_length_b   7.04225000
_cell_length_c   9.05478943
_cell_angle_alpha   78.53828063
_cell_angle_beta   90.00000000
_cell_angle_gamma   90.00000000
_symmetry_Int_Tables_number   1
_chemical_formula_structural   NaAsO6
_chemical_formula_sum   'Na2 As2 O12'
_cell_volume   289.49015499
_cell_formula_units_Z   2
loop_
 _symmetry_equiv_pos_site_id
 _symmetry_equiv_pos_as_xyz
  1  'x, y, z'
loop_
 _atom_site_type_symbol
 _atom_site_label
 _atom_site_symmetry_multiplicity
 _atom_site_fract_x
 _atom_site_fract_y
 _atom_site_fract_z
 _atom_site_occupancy
  Na  Na0  1  0.92441600  0.11151900  0.89781600  1
  Na  Na1  1  0.42441600  0.88848100  0.10218400  1
  As  As0  1  0.40158500  0.44270700  0.89190200  1
  As  As1  1  0.90158500  0.55729300  0.10809800  1
  O  O0  1  0.43169700  0.19152000  0.93653800  1
  O  O1  1  0.93169700  0.80848000  0.06346200  1
  O  O2  1  0.51183200  0.53097700  0.06720400  1
  O  O3  1  0.01183200  0.46902300  0.93279600  1
  O  O4  1  0.04806600  0.03076400  0.31320200  1
  O  O5  1  0.54806600  0.96923600  0.68679800  1
  O  O6  1  0.87156900  0.13768400  0.23342700  1
  O  O7  1  0.37156900  0.86231600  0.76657300  1
  O  O8  1  0.93689000  0.69863300  0.56728700  1
  O  O9  1  0.43689000  0.30136700  0.43271300  1
  O  O10  1  0.20794600  0.33696400  0.49184500  1
  O  O11  1  0.70794600  0.66303600  0.50815500  1
loop_
_geom_bond_atom_site_label_1
_geom_bond_atom_site_label_2
_geom_bond_distance
_geom_bond_site_symmetry_2
Na0 O1 2.352228 1_546
Na0 O0 2.393364 1_555
Na0 O0 2.457775 1_655
Na0 O3 2.630529 1_655
Na0 O5 2.907749 1_545
Na1 O0 2.352228 1_564
Na1 O1 2.393364 1_455
Na1 O1 2.457775 1_555
Na1 O2 2.630529 1_555
Na1 O4 2.907749 1_565
As0 O0 1.740045 1_555
As0 O3 1.859657 1_555
As0 O2 1.886519 1_556
As1 O1 1.740045 1_555
As1 O2 1.859657 1_555
As1 O3 1.886519 1_654
O4 O6 1.241372 1_455
O5 O7 1.241372 1_555
O10 O9 1.235955 1_555
O11 O8 1.235955 1_555
