# generated using pymatgen
data_Sr2VMoO6
_symmetry_space_group_name_H-M   'P 1'
_cell_length_a   5.66008573
_cell_length_b   5.66045908
_cell_length_c   8.00663600
_cell_angle_alpha   89.99964576
_cell_angle_beta   90.00029353
_cell_angle_gamma   89.99994274
_symmetry_Int_Tables_number   1
_chemical_formula_structural   Sr2VMoO6
_chemical_formula_sum   'Sr4 V2 Mo2 O12'
_cell_volume   256.52207789
_cell_formula_units_Z   2
loop_
 _symmetry_equiv_pos_site_id
 _symmetry_equiv_pos_as_xyz
  1  'x, y, z'
loop_
 _atom_site_type_symbol
 _atom_site_label
 _atom_site_symmetry_multiplicity
 _atom_site_fract_x
 _atom_site_fract_y
 _atom_site_fract_z
 _atom_site_occupancy
  Sr  Sr0  1  0.49999900  0.00000200  0.25022700  1
  Sr  Sr1  1  0.50000100  0.99999800  0.74977300  1
  Sr  Sr2  1  0.99999900  0.50000200  0.25019800  1
  Sr  Sr3  1  0.00000200  0.49999800  0.74980200  1
  V  V0  1  0.00000000  0.00000000  0.50000000  1
  V  V1  1  0.00000000  0.00000000  0.00000000  1
  Mo  Mo0  1  0.50000000  0.50000000  0.50000000  1
  Mo  Mo1  1  0.50000000  0.50000000  0.00000000  1
  O  O0  1  0.99999800  0.00000100  0.26052000  1
  O  O1  1  0.00000200  0.99999900  0.73948000  1
  O  O2  1  0.50000000  0.50000000  0.24165600  1
  O  O3  1  0.50000000  0.50000000  0.75834500  1
  O  O4  1  0.24852500  0.24849000  0.99999900  1
  O  O5  1  0.23944200  0.23940100  0.50000000  1
  O  O6  1  0.75147500  0.75151000  0.00000100  1
  O  O7  1  0.76055700  0.76059900  0.50000000  1
  O  O8  1  0.24852600  0.75152800  0.00000100  1
  O  O9  1  0.23946700  0.76057500  0.50000400  1
  O  O10  1  0.75147500  0.24847200  0.99999900  1
  O  O11  1  0.76053300  0.23942500  0.49999600  1
loop_
_geom_bond_atom_site_label_1
_geom_bond_atom_site_label_2
_geom_bond_distance
_geom_bond_site_symmetry_2
Mo0 O2 2.068466 1_555
Mo0 O3 2.068474 1_555
Mo0 O11 2.085690 1_555
Mo0 O9 2.085690 1_555
Mo0 O7 2.085885 1_555
Mo0 O5 2.085889 1_555
Mo1 O3 1.934844 1_554
Mo1 O2 1.934852 1_555
Mo1 O6 2.013157 1_555
Mo1 O4 2.013157 1_554
Mo1 O8 2.013223 1_555
Mo1 O10 2.013227 1_554
O0 V0 1.917429 1_655
O0 V1 2.085889 1_655
O0 Sr0 2.831236 1_555
O0 Sr0 2.831249 1_655
O0 Sr2 2.831431 1_545
O0 Sr2 2.831441 1_555
O1 V0 1.917429 1_565
O1 V1 2.085889 1_566
O1 Sr1 2.831236 1_555
O1 Sr1 2.831249 1_455
O1 Sr3 2.831431 1_565
O1 Sr3 2.831441 1_555
O2 Sr2 2.830863 1_555
O2 Sr2 2.830875 1_455
O2 Sr0 2.831050 1_555
O2 Sr0 2.831073 1_565
O3 Sr3 2.830858 1_555
O3 Sr3 2.830881 1_655
O3 Sr1 2.831050 1_555
O3 Sr1 2.831073 1_545
O4 V1 1.989262 1_556
O4 Sr0 2.831651 1_556
O4 Sr3 2.831672 1_555
O4 Sr1 2.831679 1_545
O4 Sr2 2.831726 1_456
O5 V0 1.916530 1_555
O5 Sr1 2.830313 1_545
O5 Sr0 2.830319 1_555
O5 Sr2 2.830717 1_455
O5 Sr3 2.830720 1_555
O6 V1 1.989262 1_665
O6 Sr1 2.831651 1_554
O6 Sr2 2.831675 1_555
O6 Sr0 2.831679 1_565
O6 Sr3 2.831728 1_654
O7 V0 1.916534 1_665
O7 Sr0 2.830310 1_565
O7 Sr1 2.830316 1_555
O7 Sr3 2.830723 1_655
O7 Sr2 2.830725 1_555
O8 V1 1.989192 1_565
O8 Sr0 2.831611 1_565
O8 Sr1 2.831615 1_554
O8 Sr2 2.831746 1_455
O8 Sr3 2.831762 1_554
O9 V0 1.916725 1_565
O9 Sr1 2.830284 1_555
O9 Sr0 2.830333 1_565
O9 Sr3 2.830695 1_555
O9 Sr2 2.830739 1_455
O10 V1 1.989188 1_656
O10 Sr1 2.831614 1_545
O10 Sr0 2.831618 1_556
O10 Sr3 2.831746 1_655
O10 Sr2 2.831762 1_556
O11 V0 1.916725 1_655
O11 Sr0 2.830284 1_555
O11 Sr1 2.830333 1_545
O11 Sr2 2.830697 1_555
O11 Sr3 2.830742 1_655
