# generated using pymatgen
data_Li4MnCo2O7
_symmetry_space_group_name_H-M   'P 1'
_cell_length_a   5.10200700
_cell_length_b   7.67094017
_cell_length_c   7.70552852
_cell_angle_alpha   61.16730005
_cell_angle_beta   72.08649069
_cell_angle_gamma   77.86997323
_symmetry_Int_Tables_number   1
_chemical_formula_structural   Li4MnCo2O7
_chemical_formula_sum   'Li8 Mn2 Co4 O14'
_cell_volume   250.68814767
_cell_formula_units_Z   2
loop_
 _symmetry_equiv_pos_site_id
 _symmetry_equiv_pos_as_xyz
  1  'x, y, z'
loop_
 _atom_site_type_symbol
 _atom_site_label
 _atom_site_symmetry_multiplicity
 _atom_site_fract_x
 _atom_site_fract_y
 _atom_site_fract_z
 _atom_site_occupancy
  Li  Li0  1  0.49644500  0.78379300  0.14866000  1
  Li  Li1  1  0.49816500  0.65090300  0.56295400  1
  Li  Li2  1  0.50394700  0.36120500  0.42312400  1
  Li  Li3  1  0.49771400  0.21461300  0.85601500  1
  Li  Li4  1  0.50456400  0.92550400  0.71257800  1
  Li  Li5  1  0.50027000  0.50066500  0.00208900  1
  Li  Li6  1  0.50241000  0.06221700  0.29524300  1
  Li  Li7  1  0.00348100  0.85686300  0.42680200  1
  Mn  Mn0  1  0.99338300  0.99941300  0.00508900  1
  Mn  Mn1  1  0.99774800  0.28168500  0.14745600  1
  Co  Co0  1  0.99538800  0.71676800  0.84755400  1
  Co  Co1  1  0.00832300  0.57751800  0.29440600  1
  Co  Co2  1  0.99919700  0.43172900  0.71280400  1
  Co  Co3  1  0.00532300  0.13398500  0.56703100  1
  O  O0  1  0.76921100  0.96737300  0.85625300  1
  O  O1  1  0.76932800  0.82827700  0.26232700  1
  O  O2  1  0.78238800  0.52451900  0.14240100  1
  O  O3  1  0.77909800  0.39002900  0.57521400  1
  O  O4  1  0.76968100  0.12584300  0.41104600  1
  O  O5  1  0.77040300  0.66255000  0.72483400  1
  O  O6  1  0.77013300  0.23450000  0.01358400  1
  O  O7  1  0.24420400  0.59972800  0.42227600  1
  O  O8  1  0.21733400  0.45506400  0.86877100  1
  O  O9  1  0.20999300  0.18156900  0.73242100  1
  O  O10  1  0.21997200  0.04907800  0.13286000  1
  O  O11  1  0.22343000  0.76493600  0.99698100  1
  O  O12  1  0.23087900  0.31850200  0.27820300  1
  O  O13  1  0.23758800  0.90117100  0.58102700  1
loop_
_geom_bond_atom_site_label_1
_geom_bond_atom_site_label_2
_geom_bond_distance
_geom_bond_site_symmetry_2
Li0 O1 2.014947 1_555
Li0 O7 2.078042 1_555
Li0 O11 2.139253 1_554
Li0 O10 2.192263 1_565
Li0 O0 2.197925 1_554
Li0 O2 2.217232 1_555
Li1 O7 2.120435 1_555
Li1 O13 2.131621 1_555
Li1 O5 2.172226 1_555
Li1 O3 2.182535 1_555
Li1 O1 2.216088 1_555
Li1 O8 2.296932 1_555
Li2 O7 2.019600 1_555
Li2 O4 2.040139 1_555
Li2 O2 2.123797 1_555
Li2 O3 2.187570 1_555
Li2 O12 2.190196 1_555
Li2 O9 2.308752 1_555
Li3 O9 2.091732 1_555
Li3 O0 2.099958 1_545
Li3 O8 2.106564 1_555
Li3 O10 2.110712 1_556
Li3 O3 2.155496 1_555
Li3 O6 2.176023 1_556
Li4 O13 2.014060 1_555
Li4 O11 2.140650 1_555
Li4 O0 2.143990 1_555
Li4 O5 2.159285 1_555
Li4 O9 2.246792 1_565
Li4 O4 2.255248 1_565
Li5 O5 2.086842 1_554
Li5 O12 2.123473 1_555
Li5 O2 2.129093 1_555
Li5 O8 2.175440 1_554
Li5 O6 2.188927 1_555
Li5 O11 2.204542 1_554
Li6 O1 2.082960 1_545
Li6 O4 2.083793 1_555
Li6 O13 2.109096 1_545
Li6 O6 2.119241 1_555
Li6 O12 2.125964 1_555
Li6 O10 2.223533 1_555
Li7 O13 2.094701 1_555
Li7 O1 2.095477 1_455
Li7 O7 2.102891 1_555
Li7 O10 2.109157 1_565
Li7 O4 2.123221 1_465
Li7 O5 2.161753 1_455
Mn0 O1 1.919921 1_555
Mn0 O10 1.923014 1_665
Mn0 O6 1.938669 1_565
Mn0 O11 1.947490 1_654
Mn0 O0 1.969953 1_554
Mn0 O9 1.994295 1_664
Mn1 O12 1.913713 1_655
Mn1 O4 1.922828 1_555
Mn1 O10 1.935669 1_655
Mn1 O2 1.942905 1_555
Mn1 O6 1.953821 1_555
Mn1 O8 2.006728 1_654
Co0 O5 1.905909 1_555
Co0 O13 2.029081 1_655
Co0 O0 2.043540 1_555
Co0 O8 2.044768 1_655
Co0 O11 2.056952 1_655
Co0 O2 2.107289 1_556
Co1 O7 1.850868 1_555
Co1 O1 1.997270 1_455
Co1 O3 2.065622 1_455
Co1 O2 2.086325 1_455
Co1 O12 2.111060 1_555
Co1 O11 2.112267 1_554
Co2 O3 1.922968 1_555
Co2 O5 1.931165 1_555
Co2 O9 1.953157 1_655
Co2 O8 1.956790 1_655
Co2 O7 2.099507 1_655
Co2 O6 2.172831 1_556
Co3 O13 1.899680 1_545
Co3 O4 1.971514 1_455
Co3 O9 2.067677 1_555
Co3 O0 2.073556 1_445
Co3 O3 2.077450 1_455
Co3 O12 2.086048 1_555
