# generated using pymatgen
data_Mg2ScTi3S8
_symmetry_space_group_name_H-M   'P 1'
_cell_length_a   7.44262845
_cell_length_b   7.43335537
_cell_length_c   7.43296559
_cell_angle_alpha   58.99938080
_cell_angle_beta   59.02721836
_cell_angle_gamma   59.02305784
_symmetry_Int_Tables_number   1
_chemical_formula_structural   Mg2ScTi3S8
_chemical_formula_sum   'Mg2 Sc1 Ti3 S8'
_cell_volume   284.25351026
_cell_formula_units_Z   1
loop_
 _symmetry_equiv_pos_site_id
 _symmetry_equiv_pos_as_xyz
  1  'x, y, z'
loop_
 _atom_site_type_symbol
 _atom_site_label
 _atom_site_symmetry_multiplicity
 _atom_site_fract_x
 _atom_site_fract_y
 _atom_site_fract_z
 _atom_site_occupancy
  Mg  Mg0  1  0.87408800  0.87361900  0.87376100  1
  Mg  Mg1  1  0.12590500  0.12638500  0.12624600  1
  Sc  Sc0  1  0.50002700  0.50005400  0.49993500  1
  Ti  Ti0  1  0.49999600  0.49998700  0.00000000  1
  Ti  Ti1  1  0.99999500  0.49999700  0.50001300  1
  Ti  Ti2  1  0.49999400  0.99999500  0.50001400  1
  S  S0  1  0.74052000  0.74081500  0.74073800  1
  S  S1  1  0.25432100  0.25403200  0.72275500  1
  S  S2  1  0.25425500  0.72277300  0.25409800  1
  S  S3  1  0.72250100  0.25417300  0.25424400  1
  S  S4  1  0.74572900  0.27721000  0.74589500  1
  S  S5  1  0.27751100  0.74582200  0.74575000  1
  S  S6  1  0.25947500  0.25916600  0.25928600  1
  S  S7  1  0.74568700  0.74596600  0.27726600  1
loop_
_geom_bond_atom_site_label_1
_geom_bond_atom_site_label_2
_geom_bond_distance
_geom_bond_site_symmetry_2
Mg0 S7 2.420921 1_556
Mg0 S4 2.421436 1_565
Mg0 S5 2.424342 1_655
Mg0 S0 2.442890 1_555
Mg1 S1 2.420832 1_554
Mg1 S2 2.421573 1_545
Mg1 S3 2.424231 1_455
Mg1 S6 2.442866 1_555
S0 Ti2 2.512679 1_555
S0 Ti0 2.513444 1_556
S0 Ti1 2.513904 1_555
S1 Ti2 2.490109 1_545
S1 Ti1 2.492345 1_455
S1 Sc0 2.576198 1_555
S2 Ti0 2.490663 1_555
S2 Ti1 2.492384 1_455
S2 Sc0 2.575374 1_555
S3 Ti2 2.490208 1_545
S3 Ti0 2.490327 1_555
S3 Sc0 2.574481 1_555
S4 Ti0 2.490655 1_556
S4 Ti1 2.492471 1_555
S4 Sc0 2.575584 1_555
S5 Ti2 2.490059 1_555
S5 Ti0 2.490258 1_556
S5 Sc0 2.574515 1_555
S6 Ti2 2.512662 1_545
S6 Ti0 2.513399 1_555
S6 Ti1 2.513982 1_455
S7 Ti2 2.490102 1_555
S7 Ti1 2.492273 1_555
S7 Sc0 2.575433 1_555
