# generated using pymatgen
data_ThCd3
_symmetry_space_group_name_H-M   'P 1'
_cell_length_a   4.92701216
_cell_length_b   6.83623004
_cell_length_c   6.83505708
_cell_angle_alpha   120.06866113
_cell_angle_beta   90.00000000
_cell_angle_gamma   90.00000000
_symmetry_Int_Tables_number   1
_chemical_formula_structural   ThCd3
_chemical_formula_sum   'Th2 Cd6'
_cell_volume   199.23800597
_cell_formula_units_Z   2
loop_
 _symmetry_equiv_pos_site_id
 _symmetry_equiv_pos_as_xyz
  1  'x, y, z'
loop_
 _atom_site_type_symbol
 _atom_site_label
 _atom_site_symmetry_multiplicity
 _atom_site_fract_x
 _atom_site_fract_y
 _atom_site_fract_z
 _atom_site_occupancy
  Th  Th0  1  0.25000000  0.66690596  0.33280346  1
  Th  Th1  1  0.75000000  0.33309460  0.66719848  1
  Cd  Cd0  1  0.75000000  0.84560114  0.15457556  1
  Cd  Cd1  1  0.25000000  0.15438824  0.84543780  1
  Cd  Cd2  1  0.75000000  0.30958305  0.15527666  1
  Cd  Cd3  1  0.25000000  0.69044040  0.84473669  1
  Cd  Cd4  1  0.75000000  0.84473052  0.69023888  1
  Cd  Cd5  1  0.25000000  0.15525810  0.30974046  1
loop_
_geom_bond_atom_site_label_1
_geom_bond_atom_site_label_2
_geom_bond_distance
_geom_bond_site_symmetry_2
Cd0 Cd5 3.070035 1_565
Cd0 Cd5 3.070035 1_665
Cd0 Cd3 3.070489 1_554
Cd0 Cd3 3.070489 1_654
Cd0 Cd2 3.169489 1_565
Cd0 Cd4 3.170790 1_554
Cd0 Th0 3.245985 1_555
Cd0 Th0 3.245985 1_655
Cd0 Th1 3.417148 1_554
Cd0 Th1 3.417883 1_565
Cd1 Cd4 3.070038 1_445
Cd1 Cd4 3.070038 1_545
Cd1 Cd2 3.070489 1_556
Cd1 Cd2 3.070489 1_456
Cd1 Cd3 3.169256 1_545
Cd1 Cd5 3.170560 1_556
Cd1 Th1 3.246072 1_555
Cd1 Th1 3.246072 1_455
Cd1 Th0 3.417153 1_556
Cd1 Th0 3.417890 1_545
Cd2 Cd5 3.068010 1_555
Cd2 Cd5 3.068010 1_655
Cd2 Cd4 3.174900 1_544
Cd2 Th0 3.246231 1_555
Cd2 Th0 3.246231 1_655
Cd2 Th1 3.419405 1_554
Cd2 Th1 3.421312 1_555
Cd3 Cd4 3.068007 1_455
Cd3 Cd4 3.068007 1_555
Cd3 Cd5 3.174665 1_566
Cd3 Th1 3.246319 1_455
Cd3 Th1 3.246319 1_555
Cd3 Th0 3.419411 1_556
Cd3 Th0 3.421317 1_555
Cd4 Th0 3.246422 1_655
Cd4 Th0 3.246422 1_555
Cd4 Th1 3.420190 1_565
Cd4 Th1 3.421472 1_555
Cd5 Th1 3.246509 1_455
Cd5 Th1 3.246509 1_555
Cd5 Th0 3.420191 1_545
Cd5 Th0 3.421481 1_555
