# generated using pymatgen
data_ZnCu(CO3)4
_symmetry_space_group_name_H-M   'P 1'
_cell_length_a   8.14353900
_cell_length_b   9.22823500
_cell_length_c   9.24126651
_cell_angle_alpha   88.64018928
_cell_angle_beta   90.00000000
_cell_angle_gamma   90.00000000
_symmetry_Int_Tables_number   1
_chemical_formula_structural   ZnCu(CO3)4
_chemical_formula_sum   'Zn2 Cu2 C8 O24'
_cell_volume   694.29014155
_cell_formula_units_Z   2
loop_
 _symmetry_equiv_pos_site_id
 _symmetry_equiv_pos_as_xyz
  1  'x, y, z'
loop_
 _atom_site_type_symbol
 _atom_site_label
 _atom_site_symmetry_multiplicity
 _atom_site_fract_x
 _atom_site_fract_y
 _atom_site_fract_z
 _atom_site_occupancy
  Zn  Zn0  1  0.00000000  0.50000000  0.50000000  1
  Zn  Zn1  1  0.50000000  0.00000000  0.50000000  1
  Cu  Cu0  1  0.50000000  0.50000000  0.00000000  1
  Cu  Cu1  1  0.00000000  0.00000000  0.00000000  1
  C  C0  1  0.68651100  0.19184400  0.10653800  1
  C  C1  1  0.18651100  0.30815600  0.89346200  1
  C  C2  1  0.31348900  0.80815600  0.89346200  1
  C  C3  1  0.81348900  0.69184400  0.10653800  1
  C  C4  1  0.15954100  0.04615500  0.32470900  1
  C  C5  1  0.65954100  0.45384500  0.67529100  1
  C  C6  1  0.84045900  0.95384500  0.67529100  1
  C  C7  1  0.34045900  0.54615500  0.32470900  1
  O  O0  1  0.59151800  0.28628400  0.08423700  1
  O  O1  1  0.09151800  0.21371600  0.91576300  1
  O  O2  1  0.40848200  0.71371600  0.91576300  1
  O  O3  1  0.90848200  0.78628400  0.08423700  1
  O  O4  1  0.78945800  0.10153700  0.10372600  1
  O  O5  1  0.28945800  0.39846300  0.89627400  1
  O  O6  1  0.21054200  0.89846300  0.89627400  1
  O  O7  1  0.71054200  0.60153700  0.10372600  1
  O  O8  1  0.17113900  0.09042300  0.44243300  1
  O  O9  1  0.67113900  0.40957700  0.55756700  1
  O  O10  1  0.82886100  0.90957700  0.55756700  1
  O  O11  1  0.32886100  0.59042300  0.44243300  1
  O  O12  1  0.13871000  0.00323500  0.20690500  1
  O  O13  1  0.63871000  0.49676500  0.79309500  1
  O  O14  1  0.86129000  0.99676500  0.79309500  1
  O  O15  1  0.36129000  0.50323500  0.20690500  1
  O  O16  1  0.00540900  0.49537000  0.29587700  1
  O  O17  1  0.50540900  0.00463000  0.70412300  1
  O  O18  1  0.99459100  0.50463000  0.70412300  1
  O  O19  1  0.49459100  0.99537000  0.29587700  1
  O  O20  1  0.57511200  0.13139300  0.34303400  1
  O  O21  1  0.07511200  0.36860700  0.65696600  1
  O  O22  1  0.42488800  0.86860700  0.65696600  1
  O  O23  1  0.92488800  0.63139300  0.34303400  1
loop_
_geom_bond_atom_site_label_1
_geom_bond_atom_site_label_2
_geom_bond_distance
_geom_bond_site_symmetry_2
Cu0 O7 2.186128 1_555
Cu0 O5 2.186128 1_554
Cu0 O15 2.221613 1_555
Cu0 O13 2.221613 1_554
Cu0 O2 2.231194 1_554
Cu0 O0 2.231194 1_555
Cu1 O4 2.186128 1_455
Cu1 O6 2.186128 1_544
Cu1 O14 2.221613 1_444
Cu1 O12 2.221613 1_555
Cu1 O1 2.231194 1_554
Cu1 O3 2.231194 1_445
C0 O0 1.179793 1_555
C0 O4 1.182815 1_555
C1 O1 1.179793 1_555
C1 O5 1.182815 1_555
C2 O2 1.179793 1_555
C2 O6 1.182815 1_555
C3 O3 1.179793 1_555
C3 O7 1.182815 1_555
C4 O8 1.174933 1_555
C4 O12 1.179532 1_555
C5 O9 1.174933 1_555
C5 O13 1.179532 1_555
C6 O10 1.174933 1_555
C6 O14 1.179532 1_555
C7 O11 1.174933 1_555
C7 O15 1.179532 1_555
O16 O23 1.490473 1_455
O16 Zn0 1.888366 1_555
O17 O22 1.490473 1_545
O17 Zn1 1.888366 1_555
O18 O21 1.490473 1_655
O18 Zn0 1.888366 1_655
O19 O20 1.490473 1_565
O19 Zn1 1.888366 1_565
O20 Zn1 1.965967 1_555
O21 Zn0 1.965967 1_555
O22 Zn1 1.965967 1_565
O23 Zn0 1.965967 1_655
