# generated using pymatgen
data_Mg14NbCr
_symmetry_space_group_name_H-M   'P 1'
_cell_length_a   6.31064579
_cell_length_b   6.31064529
_cell_length_c   10.01719767
_cell_angle_alpha   90.00000000
_cell_angle_beta   90.00000000
_cell_angle_gamma   120.00000259
_symmetry_Int_Tables_number   1
_chemical_formula_structural   Mg14NbCr
_chemical_formula_sum   'Mg14 Nb1 Cr1'
_cell_volume   345.48121500
_cell_formula_units_Z   1
loop_
 _symmetry_equiv_pos_site_id
 _symmetry_equiv_pos_as_xyz
  1  'x, y, z'
loop_
 _atom_site_type_symbol
 _atom_site_label
 _atom_site_symmetry_multiplicity
 _atom_site_fract_x
 _atom_site_fract_y
 _atom_site_fract_z
 _atom_site_occupancy
  Mg  Mg0  1  0.16978733  0.83489316  0.12500000  1
  Mg  Mg1  1  0.16692087  0.83345994  0.62500000  1
  Mg  Mg2  1  0.66510684  0.33021267  0.12500000  1
  Mg  Mg3  1  0.66654006  0.33307913  0.62500000  1
  Mg  Mg4  1  0.66510684  0.83489316  0.12500000  1
  Mg  Mg5  1  0.66654006  0.83345994  0.62500000  1
  Mg  Mg6  1  0.32822884  0.17177116  0.37386439  1
  Mg  Mg7  1  0.32822884  0.17177116  0.87613561  1
  Mg  Mg8  1  0.32822884  0.65645868  0.37386439  1
  Mg  Mg9  1  0.32822884  0.65645868  0.87613561  1
  Mg  Mg10  1  0.84354132  0.17177116  0.37386439  1
  Mg  Mg11  1  0.84354132  0.17177116  0.87613561  1
  Mg  Mg12  1  0.83333300  0.66666700  0.37354728  1
  Mg  Mg13  1  0.83333300  0.66666700  0.87645272  1
  Nb  Nb0  1  0.16666700  0.33333300  0.12500000  1
  Cr  Cr0  1  0.16666700  0.33333300  0.62500000  1
loop_
_geom_bond_atom_site_label_1
_geom_bond_atom_site_label_2
_geom_bond_distance
_geom_bond_site_symmetry_2
Mg0 Mg12 3.095152 1_455
Mg0 Mg13 3.095152 1_454
Mg0 Mg9 3.099718 1_554
Mg0 Mg8 3.099718 1_555
Mg0 Mg7 3.099725 1_564
Mg0 Mg6 3.099725 1_565
Mg0 Mg2 3.125786 1_565
Mg0 Mg4 3.125786 1_555
Mg0 Nb0 3.155369 1_555
Mg0 Nb0 3.155369 1_565
Mg0 Mg2 3.184860 1_455
Mg0 Mg4 3.184860 1_455
Mg1 Mg13 3.109400 1_455
Mg1 Mg12 3.109400 1_455
Mg1 Mg8 3.122432 1_555
Mg1 Mg9 3.122432 1_555
Mg1 Mg6 3.122438 1_565
Mg1 Mg7 3.122438 1_565
Mg1 Mg3 3.152919 1_565
Mg1 Mg5 3.152920 1_555
Mg1 Mg3 3.157726 1_455
Mg1 Mg5 3.157726 1_455
Mg2 Mg7 3.099725 1_554
Mg2 Mg6 3.099725 1_555
Mg2 Mg4 3.125786 1_545
Mg2 Nb0 3.155369 1_655
Mg2 Nb0 3.155369 1_555
Mg2 Mg4 3.184860 1_555
Mg3 Mg7 3.122438 1_555
Mg3 Mg6 3.122438 1_555
Mg3 Mg5 3.152919 1_545
Mg3 Mg5 3.157726 1_555
Mg4 Mg9 3.099725 1_554
Mg4 Mg8 3.099725 1_555
Mg4 Nb0 3.155369 1_555
Mg4 Nb0 3.155369 1_665
Mg5 Mg8 3.122438 1_555
Mg5 Mg9 3.122438 1_555
Mg6 Nb0 3.055024 1_555
Mg6 Mg8 3.058691 1_555
Mg6 Mg8 3.251954 1_545
Mg7 Nb0 3.055024 1_556
Mg7 Mg9 3.058691 1_555
Mg7 Mg9 3.251954 1_545
Mg8 Nb0 3.055031 1_555
Mg9 Nb0 3.055031 1_556
Mg10 Nb0 3.055031 1_655
Mg10 Mg8 3.058691 1_655
Mg10 Mg6 3.058691 1_655
Mg10 Mg2 3.099718 1_555
Mg10 Mg4 3.099724 1_545
Mg10 Mg3 3.122432 1_555
Mg10 Mg5 3.122438 1_545
Mg10 Mg12 3.155817 1_545
Mg10 Mg12 3.155817 1_555
Mg10 Mg8 3.251954 1_545
Mg10 Mg6 3.251955 1_555
Mg11 Nb0 3.055031 1_656
Mg11 Mg9 3.058691 1_655
Mg11 Mg7 3.058691 1_655
Mg11 Mg2 3.099718 1_556
Mg11 Mg4 3.099724 1_546
Mg11 Mg3 3.122432 1_555
Mg11 Mg5 3.122438 1_545
Mg11 Mg13 3.155817 1_545
Mg11 Mg13 3.155817 1_555
Mg11 Mg9 3.251954 1_545
Mg11 Mg7 3.251955 1_555
Mg12 Mg4 3.095145 1_555
Mg12 Mg2 3.095152 1_555
Mg12 Mg5 3.109394 1_555
Mg12 Mg3 3.109400 1_555
Mg12 Mg6 3.155817 1_665
Mg12 Mg6 3.155817 1_555
Mg12 Mg8 3.155818 1_655
Mg12 Mg8 3.155818 1_555
Mg13 Mg4 3.095145 1_556
Mg13 Mg2 3.095152 1_556
Mg13 Mg5 3.109394 1_555
Mg13 Mg3 3.109400 1_555
Mg13 Mg7 3.155817 1_665
Mg13 Mg7 3.155817 1_555
Mg13 Mg9 3.155818 1_655
Mg13 Mg9 3.155818 1_555
Cr0 Mg6 3.073618 1_555
Cr0 Mg7 3.073618 1_555
Cr0 Mg8 3.073624 1_555
Cr0 Mg9 3.073624 1_555
Cr0 Mg10 3.073624 1_455
Cr0 Mg11 3.073624 1_455
Cr0 Mg1 3.155323 1_545
Cr0 Mg5 3.155323 1_555
Cr0 Mg5 3.155323 1_445
Cr0 Mg1 3.155323 1_555
Cr0 Mg3 3.155323 1_555
Cr0 Mg3 3.155323 1_455
