# generated using pymatgen
data_KMg30SiO32
_symmetry_space_group_name_H-M   'P 1'
_cell_length_a   8.59774000
_cell_length_b   8.59774000
_cell_length_c   8.60862200
_cell_angle_alpha   90.00000000
_cell_angle_beta   90.00000000
_cell_angle_gamma   90.00000000
_symmetry_Int_Tables_number   1
_chemical_formula_structural   KMg30SiO32
_chemical_formula_sum   'K1 Mg30 Si1 O32'
_cell_volume   636.35909274
_cell_formula_units_Z   1
loop_
 _symmetry_equiv_pos_site_id
 _symmetry_equiv_pos_as_xyz
  1  'x, y, z'
loop_
 _atom_site_type_symbol
 _atom_site_label
 _atom_site_symmetry_multiplicity
 _atom_site_fract_x
 _atom_site_fract_y
 _atom_site_fract_z
 _atom_site_occupancy
  K  K0  1  0.00000000  0.00000000  0.00000000  1
  Mg  Mg0  1  0.00000000  0.50000000  0.00000000  1
  Mg  Mg1  1  0.50000000  0.00000000  0.00000000  1
  Mg  Mg2  1  0.00000000  0.00000000  0.50000000  1
  Mg  Mg3  1  0.00000000  0.50000000  0.50000000  1
  Mg  Mg4  1  0.50000000  0.00000000  0.50000000  1
  Mg  Mg5  1  0.50000000  0.50000000  0.50000000  1
  Mg  Mg6  1  0.24921600  0.24921600  0.00000000  1
  Mg  Mg7  1  0.24921600  0.75078400  0.00000000  1
  Mg  Mg8  1  0.75078400  0.24921600  0.00000000  1
  Mg  Mg9  1  0.75078400  0.75078400  0.00000000  1
  Mg  Mg10  1  0.24897000  0.24897000  0.50000000  1
  Mg  Mg11  1  0.24897000  0.75103000  0.50000000  1
  Mg  Mg12  1  0.75103000  0.24897000  0.50000000  1
  Mg  Mg13  1  0.75103000  0.75103000  0.50000000  1
  Mg  Mg14  1  0.00000000  0.25033700  0.25243200  1
  Mg  Mg15  1  0.00000000  0.74966300  0.25243200  1
  Mg  Mg16  1  0.50000000  0.24845600  0.25201700  1
  Mg  Mg17  1  0.50000000  0.75154400  0.25201700  1
  Mg  Mg18  1  0.00000000  0.25033700  0.74756800  1
  Mg  Mg19  1  0.00000000  0.74966300  0.74756800  1
  Mg  Mg20  1  0.50000000  0.24845600  0.74798300  1
  Mg  Mg21  1  0.50000000  0.75154400  0.74798300  1
  Mg  Mg22  1  0.25033700  0.00000000  0.25243200  1
  Mg  Mg23  1  0.24845600  0.50000000  0.25201700  1
  Mg  Mg24  1  0.74966300  0.00000000  0.25243200  1
  Mg  Mg25  1  0.75154400  0.50000000  0.25201700  1
  Mg  Mg26  1  0.25033700  0.00000000  0.74756800  1
  Mg  Mg27  1  0.24845600  0.50000000  0.74798300  1
  Mg  Mg28  1  0.74966300  0.00000000  0.74756800  1
  Mg  Mg29  1  0.75154400  0.50000000  0.74798300  1
  Si  Si0  1  0.50000000  0.50000000  0.00000000  1
  O  O0  1  0.00000000  0.00000000  0.27357500  1
  O  O1  1  0.00000000  0.50000000  0.25077400  1
  O  O2  1  0.50000000  0.00000000  0.25077400  1
  O  O3  1  0.50000000  0.50000000  0.22382900  1
  O  O4  1  0.00000000  0.00000000  0.72642500  1
  O  O5  1  0.00000000  0.50000000  0.74922600  1
  O  O6  1  0.50000000  0.00000000  0.74922600  1
  O  O7  1  0.50000000  0.50000000  0.77617100  1
  O  O8  1  0.25116000  0.25116000  0.24860900  1
  O  O9  1  0.25116000  0.74884000  0.24860900  1
  O  O10  1  0.74884000  0.25116000  0.24860900  1
  O  O11  1  0.74884000  0.74884000  0.24860900  1
  O  O12  1  0.25116000  0.25116000  0.75139100  1
  O  O13  1  0.25116000  0.74884000  0.75139100  1
  O  O14  1  0.74884000  0.25116000  0.75139100  1
  O  O15  1  0.74884000  0.74884000  0.75139100  1
  O  O16  1  0.00000000  0.27628800  0.00000000  1
  O  O17  1  0.00000000  0.72371200  0.00000000  1
  O  O18  1  0.50000000  0.28310500  0.00000000  1
  O  O19  1  0.50000000  0.71689500  0.00000000  1
  O  O20  1  0.00000000  0.25587500  0.50000000  1
  O  O21  1  0.00000000  0.74412500  0.50000000  1
  O  O22  1  0.50000000  0.25544900  0.50000000  1
  O  O23  1  0.50000000  0.74455100  0.50000000  1
  O  O24  1  0.27628800  0.00000000  0.00000000  1
  O  O25  1  0.28310500  0.50000000  0.00000000  1
  O  O26  1  0.72371200  0.00000000  0.00000000  1
  O  O27  1  0.71689500  0.50000000  0.00000000  1
  O  O28  1  0.25587500  0.00000000  0.50000000  1
  O  O29  1  0.25544900  0.50000000  0.50000000  1
  O  O30  1  0.74412500  0.00000000  0.50000000  1
  O  O31  1  0.74455100  0.50000000  0.50000000  1
loop_
_geom_bond_atom_site_label_1
_geom_bond_atom_site_label_2
_geom_bond_distance
_geom_bond_site_symmetry_2
K0 O4 2.355104 1_554
K0 O0 2.355104 1_555
K0 O24 2.375452 1_555
K0 O16 2.375452 1_555
K0 O26 2.375452 1_455
K0 O17 2.375452 1_545
Mg0 O17 1.923418 1_555
Mg0 O16 1.923418 1_555
Mg0 O1 2.158819 1_555
Mg0 O5 2.158819 1_554
Mg0 O25 2.434063 1_555
Mg0 O27 2.434063 1_455
Mg1 O24 1.923418 1_555
Mg1 O26 1.923418 1_555
Mg1 O2 2.158819 1_555
Mg1 O6 2.158819 1_554
Mg1 O18 2.434063 1_555
Mg1 O19 2.434063 1_545
Mg2 O4 1.949207 1_555
Mg2 O0 1.949207 1_555
Mg2 O20 2.199947 1_555
Mg2 O28 2.199947 1_555
Mg2 O30 2.199947 1_455
Mg2 O21 2.199947 1_545
Mg3 O21 2.098923 1_555
Mg3 O20 2.098923 1_555
Mg3 O5 2.145492 1_555
Mg3 O1 2.145492 1_555
Mg3 O29 2.196284 1_555
Mg3 O31 2.196284 1_455
Mg4 O30 2.098923 1_555
Mg4 O28 2.098923 1_555
Mg4 O6 2.145492 1_555
Mg4 O2 2.145492 1_555
Mg4 O22 2.196284 1_555
Mg4 O23 2.196284 1_545
Mg5 O31 2.102586 1_555
Mg5 O23 2.102586 1_555
Mg5 O22 2.102586 1_555
Mg5 O29 2.102586 1_555
Mg5 O7 2.377452 1_555
Mg5 O3 2.377452 1_555
Mg6 O8 2.140311 1_555
Mg6 O12 2.140311 1_554
Mg6 O24 2.155299 1_555
Mg6 O16 2.155299 1_555
Mg6 O25 2.175773 1_555
Mg6 O18 2.175773 1_555
Mg7 O9 2.140311 1_555
Mg7 O13 2.140311 1_554
Mg7 O24 2.155299 1_565
Mg7 O17 2.155299 1_555
Mg7 O19 2.175773 1_555
Mg7 O25 2.175773 1_555
Mg8 O10 2.140311 1_555
Mg8 O14 2.140311 1_554
Mg8 O26 2.155299 1_555
Mg8 O16 2.155299 1_655
Mg8 O27 2.175773 1_555
Mg8 O18 2.175773 1_555
Mg9 O11 2.140311 1_555
Mg9 O15 2.140311 1_554
Mg9 O17 2.155299 1_655
Mg9 O26 2.155299 1_565
Mg9 O19 2.175773 1_555
Mg9 O27 2.175773 1_555
Mg10 O28 2.141402 1_555
Mg10 O20 2.141402 1_555
Mg10 O22 2.159009 1_555
Mg10 O29 2.159009 1_555
Mg10 O12 2.164294 1_555
Mg10 O8 2.164294 1_555
Mg11 O28 2.141402 1_565
Mg11 O21 2.141402 1_555
Mg11 O23 2.159009 1_555
Mg11 O29 2.159009 1_555
Mg11 O13 2.164294 1_555
Mg11 O9 2.164294 1_555
Mg12 O20 2.141402 1_655
Mg12 O30 2.141402 1_555
Mg12 O31 2.159009 1_555
Mg12 O22 2.159009 1_555
Mg12 O14 2.164294 1_555
Mg12 O10 2.164294 1_555
Mg13 O21 2.141402 1_655
Mg13 O30 2.141402 1_565
Mg13 O31 2.159009 1_555
Mg13 O23 2.159009 1_555
Mg13 O15 2.164294 1_555
Mg13 O11 2.164294 1_555
Mg14 O20 2.131751 1_555
Mg14 O1 2.146585 1_555
Mg14 O10 2.159671 1_455
Mg14 O8 2.159671 1_555
Mg14 O0 2.160015 1_555
Mg14 O16 2.184516 1_555
Mg15 O21 2.131751 1_555
Mg15 O1 2.146585 1_555
Mg15 O11 2.159671 1_455
Mg15 O9 2.159671 1_555
Mg15 O0 2.160015 1_565
Mg15 O17 2.184516 1_555
Mg16 O22 2.135638 1_555
Mg16 O2 2.136187 1_555
Mg16 O8 2.139789 1_555
Mg16 O10 2.139789 1_555
Mg16 O3 2.176281 1_555
Mg16 O18 2.189877 1_555
Mg17 O23 2.135638 1_555
Mg17 O2 2.136187 1_565
Mg17 O9 2.139789 1_555
Mg17 O11 2.139789 1_555
Mg17 O3 2.176281 1_555
Mg17 O19 2.189877 1_555
Mg18 O20 2.131751 1_555
Mg18 O5 2.146585 1_555
Mg18 O14 2.159671 1_455
Mg18 O12 2.159671 1_555
Mg18 O4 2.160015 1_555
Mg18 O16 2.184516 1_556
Mg19 O21 2.131751 1_555
Mg19 O5 2.146585 1_555
Mg19 O15 2.159671 1_455
Mg19 O13 2.159671 1_555
Mg19 O4 2.160015 1_565
Mg19 O17 2.184516 1_556
Mg20 O22 2.135638 1_555
Mg20 O6 2.136187 1_555
Mg20 O12 2.139789 1_555
Mg20 O14 2.139789 1_555
Mg20 O7 2.176281 1_555
Mg20 O18 2.189877 1_556
Mg21 O23 2.135638 1_555
Mg21 O6 2.136187 1_565
Mg21 O13 2.139789 1_555
Mg21 O15 2.139789 1_555
Mg21 O7 2.176281 1_555
Mg21 O19 2.189877 1_556
Mg22 O28 2.131751 1_555
Mg22 O2 2.146585 1_555
Mg22 O9 2.159671 1_545
Mg22 O8 2.159671 1_555
Mg22 O0 2.160015 1_555
Mg22 O24 2.184516 1_555
Mg23 O29 2.135638 1_555
Mg23 O1 2.136187 1_555
Mg23 O8 2.139789 1_555
Mg23 O9 2.139789 1_555
Mg23 O3 2.176281 1_555
Mg23 O25 2.189877 1_555
Mg24 O30 2.131751 1_555
Mg24 O2 2.146585 1_555
Mg24 O11 2.159671 1_545
Mg24 O10 2.159671 1_555
Mg24 O0 2.160015 1_655
Mg24 O26 2.184516 1_555
Mg25 O31 2.135638 1_555
Mg25 O1 2.136187 1_655
Mg25 O10 2.139789 1_555
Mg25 O11 2.139789 1_555
Mg25 O3 2.176281 1_555
Mg25 O27 2.189877 1_555
Mg26 O28 2.131751 1_555
Mg26 O6 2.146585 1_555
Mg26 O13 2.159671 1_545
Mg26 O12 2.159671 1_555
Mg26 O4 2.160015 1_555
Mg26 O24 2.184516 1_556
Mg27 O29 2.135638 1_555
Mg27 O5 2.136187 1_555
Mg27 O12 2.139789 1_555
Mg27 O13 2.139789 1_555
Mg27 O7 2.176281 1_555
Mg27 O25 2.189877 1_556
Mg28 O30 2.131751 1_555
Mg28 O6 2.146585 1_555
Mg28 O15 2.159671 1_545
Mg28 O14 2.159671 1_555
Mg28 O4 2.160015 1_655
Mg28 O26 2.184516 1_556
Mg29 O31 2.135638 1_555
Mg29 O5 2.136187 1_655
Mg29 O14 2.139789 1_555
Mg29 O15 2.139789 1_555
Mg29 O7 2.176281 1_555
Mg29 O27 2.189877 1_556
O3 Si0 1.926859 1_555
O7 Si0 1.926859 1_556
O18 Si0 1.864807 1_555
O19 Si0 1.864807 1_555
O25 Si0 1.864807 1_555
O27 Si0 1.864807 1_555
