# generated using pymatgen
data_Mo3W(Se3S)2
_symmetry_space_group_name_H-M   'P 1'
_cell_length_a   3.28625584
_cell_length_b   3.28625584
_cell_length_c   37.34625500
_cell_angle_alpha   90.00000000
_cell_angle_beta   90.00000000
_cell_angle_gamma   119.99999687
_symmetry_Int_Tables_number   1
_chemical_formula_structural   Mo3W(Se3S)2
_chemical_formula_sum   'Mo3 W1 Se6 S2'
_cell_volume   349.28541125
_cell_formula_units_Z   1
loop_
 _symmetry_equiv_pos_site_id
 _symmetry_equiv_pos_as_xyz
  1  'x, y, z'
loop_
 _atom_site_type_symbol
 _atom_site_label
 _atom_site_symmetry_multiplicity
 _atom_site_fract_x
 _atom_site_fract_y
 _atom_site_fract_z
 _atom_site_occupancy
  Mo  Mo0  1  0.33333300  0.66666700  0.09391000  1
  Mo  Mo1  1  0.33333300  0.66666700  0.46965400  1
  Mo  Mo2  1  0.66666700  0.33333300  0.28178900  1
  W  W0  1  0.66666700  0.33333300  0.65753600  1
  Se  Se0  1  0.33333300  0.66666700  0.32697000  1
  Se  Se1  1  0.66666700  0.33333300  0.04874500  1
  Se  Se2  1  0.66666700  0.33333300  0.42450000  1
  Se  Se3  1  0.66666700  0.33333300  0.13909800  1
  Se  Se4  1  0.66666700  0.33333300  0.51483500  1
  Se  Se5  1  0.33333300  0.66666700  0.23663900  1
  S  S0  1  0.33333300  0.66666700  0.69881700  1
  S  S1  1  0.33333300  0.66666700  0.61625200  1
loop_
_geom_bond_atom_site_label_1
_geom_bond_atom_site_label_2
_geom_bond_distance
_geom_bond_site_symmetry_2
Mo0 Se1 2.538685 1_455
Mo0 Se1 2.538685 1_565
Mo0 Se1 2.538689 1_555
Mo0 Se3 2.539256 1_455
Mo0 Se3 2.539256 1_565
Mo0 Se3 2.539260 1_555
Mo1 Se2 2.538412 1_565
Mo1 Se2 2.538412 1_455
Mo1 Se2 2.538417 1_555
Mo1 Se4 2.539082 1_565
Mo1 Se4 2.539082 1_455
Mo1 Se4 2.539087 1_555
Mo2 Se5 2.538313 1_545
Mo2 Se5 2.538313 1_655
Mo2 Se5 2.538317 1_555
Mo2 Se0 2.539082 1_545
Mo2 Se0 2.539082 1_655
Mo2 Se0 2.539087 1_555
S0 W0 2.444715 1_455
S0 W0 2.444715 1_565
S0 W0 2.444719 1_555
S1 W0 2.444785 1_565
S1 W0 2.444785 1_455
S1 W0 2.444790 1_555
