# generated using pymatgen
data_Mg14NbMo
_symmetry_space_group_name_H-M   'P 1'
_cell_length_a   6.29617649
_cell_length_b   6.29617599
_cell_length_c   9.88966728
_cell_angle_alpha   90.00000000
_cell_angle_beta   90.00000000
_cell_angle_gamma   120.00000259
_symmetry_Int_Tables_number   1
_chemical_formula_structural   Mg14NbMo
_chemical_formula_sum   'Mg14 Nb1 Mo1'
_cell_volume   339.52054022
_cell_formula_units_Z   1
loop_
 _symmetry_equiv_pos_site_id
 _symmetry_equiv_pos_as_xyz
  1  'x, y, z'
loop_
 _atom_site_type_symbol
 _atom_site_label
 _atom_site_symmetry_multiplicity
 _atom_site_fract_x
 _atom_site_fract_y
 _atom_site_fract_z
 _atom_site_occupancy
  Mg  Mg0  1  0.17035021  0.83517460  0.12500000  1
  Mg  Mg1  1  0.16810158  0.83405029  0.62500000  1
  Mg  Mg2  1  0.66482540  0.32964979  0.12500000  1
  Mg  Mg3  1  0.66594971  0.33189842  0.62500000  1
  Mg  Mg4  1  0.66482540  0.83517460  0.12500000  1
  Mg  Mg5  1  0.66594971  0.83405029  0.62500000  1
  Mg  Mg6  1  0.32487628  0.17512372  0.37753502  1
  Mg  Mg7  1  0.32487628  0.17512372  0.87246498  1
  Mg  Mg8  1  0.32487628  0.64975357  0.37753502  1
  Mg  Mg9  1  0.32487628  0.64975357  0.87246498  1
  Mg  Mg10  1  0.85024643  0.17512372  0.37753502  1
  Mg  Mg11  1  0.85024643  0.17512372  0.87246498  1
  Mg  Mg12  1  0.83333300  0.66666700  0.37328549  1
  Mg  Mg13  1  0.83333300  0.66666700  0.87671451  1
  Nb  Nb0  1  0.16666700  0.33333300  0.12500000  1
  Mo  Mo0  1  0.16666700  0.33333300  0.62500000  1
loop_
_geom_bond_atom_site_label_1
_geom_bond_atom_site_label_2
_geom_bond_distance
_geom_bond_site_symmetry_2
Mg0 Mg13 3.066952 1_454
Mg0 Mg12 3.066952 1_455
Mg0 Mg9 3.111717 1_554
Mg0 Mg8 3.111717 1_555
Mg0 Mg6 3.111723 1_565
Mg0 Mg7 3.111723 1_564
Mg0 Mg2 3.113303 1_565
Mg0 Mg4 3.113303 1_555
Mg0 Nb0 3.148152 1_555
Mg0 Nb0 3.148152 1_565
Mg0 Mg2 3.182873 1_455
Mg0 Mg4 3.182873 1_455
Mg1 Mg8 3.075005 1_555
Mg1 Mg9 3.075005 1_555
Mg1 Mg6 3.075011 1_565
Mg1 Mg7 3.075011 1_565
Mg1 Mg12 3.086903 1_455
Mg1 Mg13 3.086903 1_455
Mg1 Mg3 3.134539 1_565
Mg1 Mg5 3.134540 1_555
Mg1 Mo0 3.148098 1_555
Mg1 Mo0 3.148098 1_565
Mg1 Mg3 3.161637 1_455
Mg1 Mg5 3.161637 1_455
Mg2 Mg7 3.111723 1_554
Mg2 Mg6 3.111723 1_555
Mg2 Mg4 3.113303 1_545
Mg2 Nb0 3.148152 1_655
Mg2 Nb0 3.148152 1_555
Mg2 Mg4 3.182873 1_555
Mg3 Mg6 3.075011 1_555
Mg3 Mg7 3.075011 1_555
Mg3 Mg5 3.134539 1_545
Mg3 Mo0 3.148098 1_555
Mg3 Mo0 3.148098 1_655
Mg3 Mg5 3.161637 1_555
Mg4 Mg9 3.111723 1_554
Mg4 Mg8 3.111723 1_555
Mg4 Nb0 3.148152 1_555
Mg4 Nb0 3.148152 1_665
Mg5 Mg8 3.075011 1_555
Mg5 Mg9 3.075011 1_555
Mg5 Mo0 3.148098 1_555
Mg5 Mo0 3.148098 1_665
Mg6 Mg8 2.988353 1_555
Mg6 Mo0 2.994366 1_555
Mg6 Nb0 3.035485 1_555
Mg6 Mg8 3.307823 1_545
Mg7 Mg9 2.988353 1_555
Mg7 Mo0 2.994366 1_555
Mg7 Nb0 3.035485 1_556
Mg7 Mg9 3.307823 1_545
Mg8 Mo0 2.994373 1_555
Mg8 Nb0 3.035491 1_555
Mg9 Mo0 2.994373 1_555
Mg9 Nb0 3.035491 1_556
Mg10 Mg8 2.988353 1_655
Mg10 Mg6 2.988353 1_655
Mg10 Mo0 2.994373 1_655
Mg10 Nb0 3.035491 1_655
Mg10 Mg3 3.075005 1_555
Mg10 Mg5 3.075011 1_545
Mg10 Mg2 3.111717 1_555
Mg10 Mg4 3.111723 1_545
Mg10 Mg12 3.149719 1_555
Mg10 Mg12 3.149719 1_545
Mg10 Mg8 3.307823 1_545
Mg10 Mg6 3.307823 1_555
Mg11 Mg9 2.988353 1_655
Mg11 Mg7 2.988353 1_655
Mg11 Mo0 2.994373 1_655
Mg11 Nb0 3.035491 1_656
Mg11 Mg3 3.075005 1_555
Mg11 Mg5 3.075011 1_545
Mg11 Mg2 3.111717 1_556
Mg11 Mg4 3.111723 1_546
Mg11 Mg13 3.149719 1_555
Mg11 Mg13 3.149719 1_545
Mg11 Mg9 3.307823 1_545
Mg11 Mg7 3.307823 1_555
Mg12 Mg4 3.066946 1_555
Mg12 Mg2 3.066952 1_555
Mg12 Mg5 3.086897 1_555
Mg12 Mg3 3.086903 1_555
Mg12 Mg6 3.149719 1_665
Mg12 Mg6 3.149719 1_555
Mg12 Mg8 3.149719 1_655
Mg12 Mg8 3.149719 1_555
Mg13 Mg4 3.066946 1_556
Mg13 Mg2 3.066952 1_556
Mg13 Mg5 3.086897 1_555
Mg13 Mg3 3.086903 1_555
Mg13 Mg7 3.149719 1_665
Mg13 Mg7 3.149719 1_555
Mg13 Mg9 3.149719 1_655
Mg13 Mg9 3.149719 1_555
