# generated using pymatgen
data_H12C5S2N2O5
_symmetry_space_group_name_H-M   'P 1'
_cell_length_a   6.25508100
_cell_length_b   7.55774304
_cell_length_c   13.33458711
_cell_angle_alpha   78.19050197
_cell_angle_beta   89.90746881
_cell_angle_gamma   86.20605623
_symmetry_Int_Tables_number   1
_chemical_formula_structural   H12C5S2N2O5
_chemical_formula_sum   'H24 C10 S4 N4 O10'
_cell_volume   615.64200948
_cell_formula_units_Z   2
loop_
 _symmetry_equiv_pos_site_id
 _symmetry_equiv_pos_as_xyz
  1  'x, y, z'
loop_
 _atom_site_type_symbol
 _atom_site_label
 _atom_site_symmetry_multiplicity
 _atom_site_fract_x
 _atom_site_fract_y
 _atom_site_fract_z
 _atom_site_occupancy
  H  H0  1  0.41974900  0.71217900  0.75094400  1
  H  H1  1  0.58025100  0.28782100  0.24905600  1
  H  H2  1  0.53503200  0.68270900  0.87811400  1
  H  H3  1  0.46496800  0.31729100  0.12188600  1
  H  H4  1  0.55883200  0.89290200  0.78827800  1
  H  H5  1  0.44116800  0.10709800  0.21172200  1
  H  H6  1  0.20035800  0.23894000  0.84596800  1
  H  H7  1  0.79964200  0.76106000  0.15403200  1
  H  H8  1  0.15791600  0.41687900  0.91832600  1
  H  H9  1  0.84208400  0.58312100  0.08167400  1
  H  H10  1  0.13311000  0.18396700  0.98041900  1
  H  H11  1  0.86689000  0.81603300  0.01958100  1
  H  H12  1  0.71317400  0.27167600  0.47120800  1
  H  H13  1  0.28682600  0.72832400  0.52879200  1
  H  H14  1  0.65032000  0.07829900  0.56550300  1
  H  H15  1  0.34968000  0.92170100  0.43449700  1
  H  H16  1  0.47769000  0.28201700  0.54727400  1
  H  H17  1  0.52231000  0.71798300  0.45272600  1
  H  H18  1  0.03816200  0.11063800  0.66311900  1
  H  H19  1  0.96183800  0.88936200  0.33688100  1
  H  H20  1  0.04905500  0.25989800  0.54101400  1
  H  H21  1  0.95094500  0.74010200  0.45898600  1
  H  H22  1  0.08584100  0.34521700  0.65474600  1
  H  H23  1  0.91415900  0.65478300  0.34525400  1
  C  C0  1  0.54983900  0.74584900  0.79712000  1
  C  C1  1  0.45016100  0.25415100  0.20288000  1
  C  C2  1  0.11234800  0.28422100  0.90817900  1
  C  C3  1  0.88765200  0.71577900  0.09182100  1
  C  C4  1  0.66455700  0.37860600  0.68857100  1
  C  C5  1  0.33544300  0.62139400  0.31142900  1
  C  C6  1  0.64371400  0.22721600  0.54703900  1
  C  C7  1  0.35628600  0.77278400  0.45296100  1
  C  C8  1  0.99965800  0.25031800  0.62092800  1
  C  C9  1  0.00034200  0.74968200  0.37907200  1
  S  S0  1  0.79926600  0.66990700  0.75148200  1
  S  S1  1  0.20073400  0.33009300  0.24851800  1
  S  S2  1  0.83367700  0.29773100  0.88168400  1
  S  S3  1  0.16632300  0.70226900  0.11831600  1
  N  N0  1  0.80392500  0.43986800  0.76267800  1
  N  N1  1  0.19607500  0.56013200  0.23732200  1
  N  N2  1  0.76930000  0.29439700  0.62174500  1
  N  N3  1  0.23070000  0.70560300  0.37825500  1
  O  O0  1  0.80599500  0.73964500  0.64218400  1
  O  O1  1  0.19400500  0.26035500  0.35781600  1
  O  O2  1  0.96944200  0.69891100  0.81764300  1
  O  O3  1  0.03055800  0.30108900  0.18235700  1
  O  O4  1  0.77317800  0.12510600  0.86421700  1
  O  O5  1  0.22682200  0.87489400  0.13578300  1
  O  O6  1  0.72127500  0.38168300  0.95604200  1
  O  O7  1  0.27872500  0.61831700  0.04395800  1
  O  O8  1  0.46851000  0.41139800  0.69006200  1
  O  O9  1  0.53149000  0.58860200  0.30993800  1
loop_
_geom_bond_atom_site_label_1
_geom_bond_atom_site_label_2
_geom_bond_distance
_geom_bond_site_symmetry_2
C0 H2 1.094218 1_555
C0 H0 1.095075 1_555
C0 H4 1.098575 1_555
C0 S0 1.776330 1_555
C1 H3 1.094218 1_555
C1 H1 1.095075 1_555
C1 H5 1.098575 1_555
C1 S1 1.776330 1_555
C2 H6 1.094595 1_555
C2 H8 1.094631 1_555
C2 H10 1.098874 1_555
C2 S2 1.771256 1_455
C3 H7 1.094595 1_555
C3 H9 1.094631 1_555
C3 H11 1.098874 1_555
C3 S3 1.771256 1_655
C4 O8 1.235849 1_555
C4 N2 1.342914 1_555
C4 N0 1.481323 1_555
C5 O9 1.235849 1_555
C5 N3 1.342914 1_555
C5 N1 1.481323 1_555
C6 H16 1.092528 1_555
C6 H12 1.096805 1_555
C6 H14 1.099763 1_555
C6 N2 1.459311 1_555
C7 H17 1.092528 1_555
C7 H13 1.096805 1_555
C7 H15 1.099763 1_555
C7 N3 1.459311 1_555
C8 H22 1.092112 1_655
C8 H20 1.098442 1_655
C8 H18 1.101202 1_655
C8 N2 1.457815 1_555
C9 H23 1.092112 1_455
C9 H21 1.098442 1_455
C9 H19 1.101202 1_455
C9 N3 1.457815 1_555
N0 S0 1.712557 1_555
N0 S2 1.727307 1_555
N1 S1 1.712557 1_555
N1 S3 1.727307 1_555
O0 S0 1.446383 1_555
O1 S1 1.446383 1_555
O2 S0 1.439630 1_555
O3 S1 1.439630 1_555
O4 S2 1.445539 1_555
O5 S3 1.445539 1_555
O6 S2 1.440923 1_555
O7 S3 1.440923 1_555
