# generated using pymatgen
data_Li3MnCoO5
_symmetry_space_group_name_H-M   'P 1'
_cell_length_a   7.65123124
_cell_length_b   7.65123124
_cell_length_c   5.14438244
_cell_angle_alpha   83.53741096
_cell_angle_beta   83.53741096
_cell_angle_gamma   141.03505495
_symmetry_Int_Tables_number   1
_chemical_formula_structural   Li3MnCoO5
_chemical_formula_sum   'Li6 Mn2 Co2 O10'
_cell_volume   178.27202611
_cell_formula_units_Z   2
loop_
 _symmetry_equiv_pos_site_id
 _symmetry_equiv_pos_as_xyz
  1  'x, y, z'
loop_
 _atom_site_type_symbol
 _atom_site_label
 _atom_site_symmetry_multiplicity
 _atom_site_fract_x
 _atom_site_fract_y
 _atom_site_fract_z
 _atom_site_occupancy
  Li  Li0  1  0.80071500  0.19928500  0.50000000  1
  Li  Li1  1  0.19928500  0.80071500  0.50000000  1
  Li  Li2  1  0.59782700  0.40217300  0.50000000  1
  Li  Li3  1  0.00000000  0.00000000  0.50000000  1
  Li  Li4  1  0.40217300  0.59782700  0.50000000  1
  Li  Li5  1  0.50000000  0.50000000  0.00000000  1
  Mn  Mn0  1  0.90127200  0.09872800  0.00000000  1
  Mn  Mn1  1  0.09872800  0.90127200  0.00000000  1
  Co  Co0  1  0.30645800  0.69354200  0.00000000  1
  Co  Co1  1  0.69354200  0.30645800  0.00000000  1
  O  O0  1  0.56864800  0.95767900  0.22727100  1
  O  O1  1  0.95767900  0.56864800  0.22727100  1
  O  O2  1  0.34390800  0.13313100  0.22591500  1
  O  O3  1  0.78155500  0.78155500  0.22677600  1
  O  O4  1  0.13313100  0.34390800  0.22591500  1
  O  O5  1  0.04232100  0.43135200  0.77272900  1
  O  O6  1  0.43135200  0.04232100  0.77272900  1
  O  O7  1  0.86686900  0.65609200  0.77408500  1
  O  O8  1  0.21844500  0.21844500  0.77322400  1
  O  O9  1  0.65609200  0.86686900  0.77408500  1
loop_
_geom_bond_atom_site_label_1
_geom_bond_atom_site_label_2
_geom_bond_distance
_geom_bond_site_symmetry_2
Li0 O9 2.036258 1_545
Li0 O4 2.036258 1_655
Li0 O0 2.139830 1_545
Li0 O5 2.139830 1_655
Li0 O6 2.201756 1_555
Li0 O1 2.201756 1_555
Li1 O7 2.036258 1_455
Li1 O2 2.036258 1_565
Li1 O1 2.139830 1_455
Li1 O6 2.139830 1_565
Li1 O5 2.201756 1_555
Li1 O0 2.201756 1_555
Li2 O1 2.108585 1_555
Li2 O6 2.108585 1_555
Li2 O8 2.160778 1_555
Li2 O3 2.160778 1_555
Li2 O7 2.247426 1_555
Li2 O2 2.247426 1_555
Li3 O8 2.067902 1_555
Li3 O3 2.067902 1_445
Li3 O2 2.150111 1_555
Li3 O7 2.150111 1_445
Li3 O9 2.150111 1_445
Li3 O4 2.150111 1_555
Li4 O0 2.108585 1_555
Li4 O5 2.108585 1_555
Li4 O8 2.160778 1_555
Li4 O3 2.160778 1_555
Li4 O4 2.247426 1_555
Li4 O9 2.247426 1_555
Li5 O4 2.096734 1_555
Li5 O2 2.096734 1_555
Li5 O9 2.096734 1_554
Li5 O7 2.096734 1_554
Li5 O3 2.134793 1_555
Li5 O8 2.134793 1_554
Mn0 O3 1.937691 1_545
Mn0 O8 1.937691 1_654
Mn0 O0 1.945167 1_545
Mn0 O5 1.945167 1_654
Mn0 O9 1.948510 1_544
Mn0 O4 1.948510 1_655
Mn1 O3 1.937691 1_455
Mn1 O8 1.937691 1_564
Mn1 O1 1.945167 1_455
Mn1 O6 1.945167 1_564
Mn1 O7 1.948510 1_454
Mn1 O2 1.948510 1_565
Co0 O9 1.924077 1_554
Co0 O4 1.924077 1_555
Co0 O0 2.056925 1_555
Co0 O5 2.056925 1_554
Co0 O6 2.117095 1_564
Co0 O1 2.117095 1_455
Co1 O2 1.924077 1_555
Co1 O7 1.924077 1_554
Co1 O6 2.056925 1_554
Co1 O1 2.056925 1_555
Co1 O5 2.117095 1_654
Co1 O0 2.117095 1_545
