# generated using pymatgen
data_CsRe3(Se2Br)2
_symmetry_space_group_name_H-M   'P 1'
_cell_length_a   19.34724200
_cell_length_b   6.68257200
_cell_length_c   10.33492218
_cell_angle_alpha   64.99415718
_cell_angle_beta   90.00000000
_cell_angle_gamma   90.00000000
_symmetry_Int_Tables_number   1
_chemical_formula_structural   CsRe3(Se2Br)2
_chemical_formula_sum   'Cs4 Re12 Se16 Br8'
_cell_volume   1210.94656222
_cell_formula_units_Z   4
loop_
 _symmetry_equiv_pos_site_id
 _symmetry_equiv_pos_as_xyz
  1  'x, y, z'
loop_
 _atom_site_type_symbol
 _atom_site_label
 _atom_site_symmetry_multiplicity
 _atom_site_fract_x
 _atom_site_fract_y
 _atom_site_fract_z
 _atom_site_occupancy
  Cs  Cs0  1  0.30993400  0.04254900  0.95230300  1
  Cs  Cs1  1  0.19006600  0.04254900  0.45230300  1
  Cs  Cs2  1  0.69006600  0.95745100  0.04769700  1
  Cs  Cs3  1  0.80993400  0.95745100  0.54769700  1
  Re  Re0  1  0.50468900  0.78589600  0.42957600  1
  Re  Re1  1  0.99531100  0.78589600  0.92957600  1
  Re  Re2  1  0.49531100  0.21410400  0.57042400  1
  Re  Re3  1  0.00468900  0.21410400  0.07042400  1
  Re  Re4  1  0.44090000  0.17144200  0.34828900  1
  Re  Re5  1  0.05910000  0.17144200  0.84828900  1
  Re  Re6  1  0.55910000  0.82855800  0.65171100  1
  Re  Re7  1  0.94090000  0.82855800  0.15171100  1
  Re  Re8  1  0.57847800  0.14093500  0.39171500  1
  Re  Re9  1  0.92152200  0.14093500  0.89171500  1
  Re  Re10  1  0.42152200  0.85906500  0.60828500  1
  Re  Re11  1  0.07847800  0.85906500  0.10828500  1
  Se  Se0  1  0.52268200  0.09531700  0.18100900  1
  Se  Se1  1  0.97731800  0.09531700  0.68100900  1
  Se  Se2  1  0.47731800  0.90468300  0.81899100  1
  Se  Se3  1  0.02268200  0.90468300  0.31899100  1
  Se  Se4  1  0.37498100  0.82127200  0.38872300  1
  Se  Se5  1  0.12501900  0.82127200  0.88872300  1
  Se  Se6  1  0.62501900  0.17872800  0.61127700  1
  Se  Se7  1  0.87498100  0.17872800  0.11127700  1
  Se  Se8  1  0.63441800  0.76309000  0.47081900  1
  Se  Se9  1  0.86558200  0.76309000  0.97081900  1
  Se  Se10  1  0.36558200  0.23691000  0.52918100  1
  Se  Se11  1  0.13441800  0.23691000  0.02918100  1
  Se  Se12  1  0.48512600  0.48913900  0.69691700  1
  Se  Se13  1  0.01487400  0.48913900  0.19691700  1
  Se  Se14  1  0.51487400  0.51086100  0.30308300  1
  Se  Se15  1  0.98512600  0.51086100  0.80308300  1
  Br  Br0  1  0.35765500  0.39860700  0.14130500  1
  Br  Br1  1  0.14234500  0.39860700  0.64130500  1
  Br  Br2  1  0.64234500  0.60139300  0.85869500  1
  Br  Br3  1  0.85765500  0.60139300  0.35869500  1
  Br  Br4  1  0.69093700  0.32129900  0.25034800  1
  Br  Br5  1  0.80906300  0.32129900  0.75034800  1
  Br  Br6  1  0.30906300  0.67870100  0.74965200  1
  Br  Br7  1  0.19093700  0.67870100  0.24965200  1
loop_
_geom_bond_atom_site_label_1
_geom_bond_atom_site_label_2
_geom_bond_distance
_geom_bond_site_symmetry_2
Cs0 Se2 3.782529 1_545
Cs0 Se11 3.836900 1_556
Cs0 Se5 4.029760 1_545
Cs0 Se10 4.143297 1_555
Cs0 Se4 4.298280 1_546
Cs1 Se3 3.782529 1_545
Cs1 Se10 3.836900 1_555
Cs1 Se4 4.029760 1_545
Cs1 Se11 4.143297 1_555
Cs1 Se5 4.298280 1_545
Cs2 Se0 3.782529 1_565
Cs2 Se9 3.836900 1_554
Cs2 Se7 4.029760 1_565
Cs2 Se8 4.143297 1_555
Cs2 Se6 4.298280 1_564
Cs3 Se1 3.782529 1_565
Cs3 Se8 3.836900 1_555
Cs3 Se6 4.029760 1_565
Cs3 Se9 4.143297 1_555
Cs3 Se7 4.298280 1_565
Re0 Se4 2.539157 1_555
Re0 Se8 2.539602 1_555
Re0 Se0 2.550549 1_565
Re0 Se12 2.660374 1_555
Re0 Se14 2.675294 1_555
Re1 Se5 2.539157 1_655
Re1 Se9 2.539602 1_555
Re1 Se1 2.550549 1_565
Re1 Se13 2.660374 1_656
Re1 Se15 2.675294 1_555
Re2 Se6 2.539157 1_555
Re2 Se10 2.539602 1_555
Re2 Se2 2.550549 1_545
Re2 Se14 2.660374 1_555
Re2 Se12 2.675294 1_555
Re3 Se7 2.539157 1_455
Re3 Se11 2.539602 1_555
Re3 Se3 2.550549 1_545
Re3 Se15 2.660374 1_454
Re3 Se13 2.675294 1_555
Re4 Se4 2.539727 1_545
Re4 Se0 2.548467 1_555
Re4 Se10 2.549772 1_555
Re4 Se14 2.552526 1_555
Re5 Se5 2.539727 1_545
Re5 Se1 2.548467 1_455
Re5 Se11 2.549772 1_556
Re5 Se15 2.552526 1_455
Re6 Se6 2.539727 1_565
Re6 Se2 2.548467 1_555
Re6 Se8 2.549772 1_555
Re6 Se12 2.552526 1_555
Re7 Se7 2.539727 1_565
Re7 Se3 2.548467 1_655
Re7 Se9 2.549772 1_554
Re7 Se13 2.552526 1_655
Re8 Se8 2.543628 1_545
Re8 Se6 2.551107 1_555
Re8 Se14 2.559302 1_555
Re8 Se0 2.561552 1_555
Re9 Se9 2.543628 1_545
Re9 Se7 2.551107 1_556
Re9 Se15 2.559302 1_555
Re9 Se1 2.561552 1_555
Re10 Se10 2.543628 1_565
Re10 Se4 2.551107 1_555
Re10 Se12 2.559302 1_555
Re10 Se2 2.561552 1_555
Re11 Se11 2.543628 1_565
Re11 Se5 2.551107 1_554
Re11 Se13 2.559302 1_555
Re11 Se3 2.561552 1_555
Br0 Re4 2.594034 1_555
Br0 Cs0 3.776059 1_554
Br0 Cs0 4.009879 1_564
Br1 Re5 2.594034 1_555
Br1 Cs1 3.776059 1_555
Br1 Cs1 4.009879 1_565
Br2 Re6 2.594034 1_555
Br2 Cs2 3.776059 1_556
Br2 Cs2 4.009879 1_546
Br3 Re7 2.594034 1_555
Br3 Cs3 3.776059 1_555
Br3 Cs3 4.009879 1_545
Br4 Re8 2.613912 1_555
Br4 Cs3 3.786706 1_545
Br4 Cs2 3.821494 1_545
Br4 Cs2 3.864148 1_555
Br5 Re9 2.613912 1_555
Br5 Cs2 3.786706 1_546
Br5 Cs3 3.821494 1_545
Br5 Cs3 3.864148 1_555
Br6 Re10 2.613912 1_555
Br6 Cs1 3.786706 1_565
Br6 Cs0 3.821494 1_565
Br6 Cs0 3.864148 1_555
Br7 Re11 2.613912 1_555
Br7 Cs0 3.786706 1_564
Br7 Cs1 3.821494 1_565
Br7 Cs1 3.864148 1_555
