# generated using pymatgen
data_CrO2
_symmetry_space_group_name_H-M   'P 1'
_cell_length_a   5.92061498
_cell_length_b   5.92061498
_cell_length_c   5.92061498
_cell_angle_alpha   60.00000000
_cell_angle_beta   60.00000000
_cell_angle_gamma   60.00000000
_symmetry_Int_Tables_number   1
_chemical_formula_structural   CrO2
_chemical_formula_sum   'Cr4 O8'
_cell_volume   146.75248391
_cell_formula_units_Z   4
loop_
 _symmetry_equiv_pos_site_id
 _symmetry_equiv_pos_as_xyz
  1  'x, y, z'
loop_
 _atom_site_type_symbol
 _atom_site_label
 _atom_site_symmetry_multiplicity
 _atom_site_fract_x
 _atom_site_fract_y
 _atom_site_fract_z
 _atom_site_occupancy
  Cr  Cr0  1  0.12500000  0.12500000  0.12500000  1
  Cr  Cr1  1  0.12500000  0.12500000  0.62500000  1
  Cr  Cr2  1  0.62500000  0.12500000  0.12500000  1
  Cr  Cr3  1  0.12500000  0.62500000  0.12500000  1
  O  O0  1  0.35651600  0.93045100  0.35651600  1
  O  O1  1  0.93045100  0.35651600  0.35651600  1
  O  O2  1  0.35651600  0.35651600  0.35651600  1
  O  O3  1  0.35651600  0.35651600  0.93045100  1
  O  O4  1  0.89348400  0.89348400  0.89348400  1
  O  O5  1  0.89348400  0.89348400  0.31954900  1
  O  O6  1  0.31954900  0.89348400  0.89348400  1
  O  O7  1  0.89348400  0.31954900  0.89348400  1
loop_
_geom_bond_atom_site_label_1
_geom_bond_atom_site_label_2
_geom_bond_distance
_geom_bond_site_symmetry_2
Cr0 O1 1.950803 1_455
Cr0 O3 1.950803 1_554
Cr0 O0 1.950803 1_545
Cr0 O5 1.950803 1_445
Cr0 O6 1.950803 1_544
Cr0 O7 1.950803 1_454
Cr1 O2 1.950804 1_555
Cr1 O4 1.950804 1_445
Cr1 O7 1.950808 1_455
Cr1 O6 1.950808 1_545
Cr1 O1 1.950808 1_455
Cr1 O0 1.950808 1_545
Cr2 O2 1.950804 1_555
Cr2 O4 1.950804 1_544
Cr2 O5 1.950808 1_545
Cr2 O7 1.950808 1_554
Cr2 O3 1.950808 1_554
Cr2 O0 1.950808 1_545
Cr3 O2 1.950804 1_555
Cr3 O4 1.950804 1_454
Cr3 O6 1.950808 1_554
Cr3 O5 1.950808 1_455
Cr3 O3 1.950808 1_554
Cr3 O1 1.950808 1_455
