# generated using pymatgen
data_RbNdNb2O7
_symmetry_space_group_name_H-M   'P 1'
_cell_length_a   3.92387400
_cell_length_b   3.92387400
_cell_length_c   11.37253400
_cell_angle_alpha   90.00000000
_cell_angle_beta   90.00000000
_cell_angle_gamma   90.00000000
_symmetry_Int_Tables_number   1
_chemical_formula_structural   RbNdNb2O7
_chemical_formula_sum   'Rb1 Nd1 Nb2 O7'
_cell_volume   175.10048556
_cell_formula_units_Z   1
loop_
 _symmetry_equiv_pos_site_id
 _symmetry_equiv_pos_as_xyz
  1  'x, y, z'
loop_
 _atom_site_type_symbol
 _atom_site_label
 _atom_site_symmetry_multiplicity
 _atom_site_fract_x
 _atom_site_fract_y
 _atom_site_fract_z
 _atom_site_occupancy
  Rb  Rb0  1  0.50000000  0.50000000  0.50000000  1
  Nd  Nd0  1  0.50000000  0.50000000  0.00000000  1
  Nb  Nb0  1  0.00000000  0.00000000  0.19983500  1
  Nb  Nb1  1  0.00000000  0.00000000  0.80016500  1
  O  O0  1  0.00000000  0.50000000  0.15974200  1
  O  O1  1  0.00000000  0.50000000  0.84025800  1
  O  O2  1  0.50000000  0.00000000  0.15974200  1
  O  O3  1  0.50000000  0.00000000  0.84025800  1
  O  O4  1  0.00000000  0.00000000  0.35905400  1
  O  O5  1  0.00000000  0.00000000  0.64094600  1
  O  O6  1  0.00000000  0.00000000  0.00000000  1
loop_
_geom_bond_atom_site_label_1
_geom_bond_atom_site_label_2
_geom_bond_distance
_geom_bond_site_symmetry_2
Nd0 O2 2.673853 1_555
Nd0 O2 2.673853 1_565
Nd0 O0 2.673853 1_655
Nd0 O0 2.673853 1_555
Nd0 O1 2.673853 1_654
Nd0 O3 2.673853 1_554
Nd0 O1 2.673853 1_554
Nd0 O3 2.673853 1_564
Nd0 O6 2.774598 1_665
Nd0 O6 2.774598 1_555
Nd0 O6 2.774598 1_655
Nd0 O6 2.774598 1_565
Nb0 O4 1.810723 1_555
Nb0 O0 2.014223 1_555
Nb0 O2 2.014223 1_555
Nb0 O2 2.014223 1_455
Nb0 O0 2.014223 1_545
Nb0 O6 2.272630 1_555
Nb1 O5 1.810723 1_555
Nb1 O3 2.014223 1_555
Nb1 O1 2.014223 1_555
Nb1 O3 2.014223 1_455
Nb1 O1 2.014223 1_545
Nb1 O6 2.272630 1_556
O4 Rb0 3.204329 1_555
O4 Rb0 3.204329 1_545
O4 Rb0 3.204329 1_445
O4 Rb0 3.204329 1_455
O5 Rb0 3.204329 1_555
O5 Rb0 3.204329 1_545
O5 Rb0 3.204329 1_445
O5 Rb0 3.204329 1_455
