# generated using pymatgen
data_Li17Cl5O6
_symmetry_space_group_name_H-M   'P 1'
_cell_length_a   3.83637300
_cell_length_b   5.57916010
_cell_length_c   16.74330077
_cell_angle_alpha   93.16286926
_cell_angle_beta   90.00000000
_cell_angle_gamma   90.00000000
_symmetry_Int_Tables_number   1
_chemical_formula_structural   Li17Cl5O6
_chemical_formula_sum   'Li17 Cl5 O6'
_cell_volume   357.82334911
_cell_formula_units_Z   1
loop_
 _symmetry_equiv_pos_site_id
 _symmetry_equiv_pos_as_xyz
  1  'x, y, z'
loop_
 _atom_site_type_symbol
 _atom_site_label
 _atom_site_symmetry_multiplicity
 _atom_site_fract_x
 _atom_site_fract_y
 _atom_site_fract_z
 _atom_site_occupancy
  Li  Li0  1  0.50000000  0.26660700  0.90981200  1
  Li  Li1  1  0.50000000  0.24052200  0.56689100  1
  Li  Li2  1  0.50000000  0.33343700  0.24068100  1
  Li  Li3  1  0.50000000  0.71719500  0.75280800  1
  Li  Li4  1  0.50000000  0.67886900  0.43535000  1
  Li  Li5  1  0.50000000  0.77144100  0.08293000  1
  Li  Li6  1  0.50000000  0.20728600  0.74162200  1
  Li  Li7  1  0.50000000  0.27343000  0.07786200  1
  Li  Li8  1  0.50000000  0.75653600  0.91641600  1
  Li  Li9  1  0.50000000  0.72950400  0.59421500  1
  Li  Li10  1  0.50000000  0.80104200  0.24932600  1
  Li  Li11  1  0.00000000  0.99084300  0.82863400  1
  Li  Li12  1  0.00000000  0.97360800  0.50355200  1
  Li  Li13  1  0.00000000  0.04175600  0.15903800  1
  Li  Li14  1  0.00000000  0.51524600  0.99650700  1
  Li  Li15  1  0.00000000  0.46018100  0.66402000  1
  Li  Li16  1  0.00000000  0.52627700  0.34313100  1
  Cl  Cl0  1  0.00000000  0.49151200  0.83634400  1
  Cl  Cl1  1  0.00000000  0.44146000  0.49333800  1
  Cl  Cl2  1  0.00000000  0.53844200  0.16120300  1
  Cl  Cl3  1  0.00000000  0.01441000  0.00949000  1
  Cl  Cl4  1  0.00000000  0.96006800  0.67755400  1
  O  O0  1  0.50000000  0.99050200  0.83619100  1
  O  O1  1  0.50000000  0.93700200  0.51026000  1
  O  O2  1  0.50000000  0.04420400  0.17380000  1
  O  O3  1  0.50000000  0.51520600  0.99830800  1
  O  O4  1  0.50000000  0.46289200  0.66582700  1
  O  O5  1  0.50000000  0.57051700  0.32489200  1
loop_
_geom_bond_atom_site_label_1
_geom_bond_atom_site_label_2
_geom_bond_distance
_geom_bond_site_symmetry_2
Li0 O0 1.919075 1_545
Li0 O3 1.972916 1_555
Li1 O1 1.894582 1_545
Li1 O4 2.014061 1_555
Li2 O5 1.879301 1_555
Li2 O2 1.912727 1_555
Li3 O4 1.976342 1_555
Li3 O0 2.009798 1_555
Li4 O1 1.856844 1_555
Li4 O5 1.913756 1_555
Li5 O3 1.956437 1_554
Li5 O2 2.091697 1_565
Li6 O4 1.960582 1_555
Li6 O0 2.044822 1_545
Li7 O3 1.947314 1_554
Li7 O2 2.107725 1_555
Li8 O0 1.923967 1_555
Li8 O3 1.973979 1_555
Li9 O1 1.869681 1_555
Li9 O4 1.961385 1_555
Li10 O5 1.853241 1_555
Li10 O2 1.904961 1_565
Li11 O0 1.922363 1_455
Li11 O0 1.922363 1_555
Li12 O1 1.932950 1_555
Li12 O1 1.932950 1_455
Li13 O2 1.933997 1_555
Li13 O2 1.933997 1_455
Li14 O3 1.918424 1_455
Li14 O3 1.918424 1_555
Li15 O4 1.918472 1_455
Li15 O4 1.918472 1_555
Li16 O5 1.960086 1_455
Li16 O5 1.960086 1_555
Cl0 Li0 2.633890 1_455
Cl0 Li0 2.633890 1_555
Cl0 Li14 2.677618 1_555
Cl0 Li3 2.723130 1_455
Cl0 Li3 2.723130 1_555
Cl0 Li8 2.728439 1_555
Cl0 Li8 2.728439 1_455
Cl0 Li11 2.789170 1_545
Cl0 Li11 2.795943 1_555
Cl0 Li15 2.880920 1_555
Cl0 Li6 2.903750 1_555
Cl0 Li6 2.903750 1_455
Cl1 Li4 2.553122 1_555
Cl1 Li4 2.553122 1_455
Cl1 Li1 2.570062 1_555
Cl1 Li1 2.570062 1_455
Cl1 Li16 2.584624 1_555
Cl1 Li12 2.625216 1_545
Cl1 Li15 2.853923 1_555
Cl1 Li12 2.964425 1_555
Cl1 Li9 2.969053 1_555
Cl1 Li9 2.969053 1_455
Cl2 Li2 2.631805 1_455
Cl2 Li2 2.631805 1_555
Cl2 Li5 2.697186 1_455
Cl2 Li5 2.697186 1_555
Cl2 Li14 2.753448 1_554
Cl2 Li7 2.754091 1_455
Cl2 Li7 2.754091 1_555
Cl2 Li13 2.769327 1_555
Cl2 Li10 2.786466 1_555
Cl2 Li10 2.786466 1_455
Cl2 Li13 2.810302 1_565
Cl3 Li13 2.500155 1_555
Cl3 Li7 2.625975 1_455
Cl3 Li7 2.625975 1_555
Cl3 Li5 2.685686 1_445
Cl3 Li5 2.685686 1_545
Cl3 Li14 2.781404 1_544
Cl3 Li14 2.814619 1_554
Cl3 Li8 2.816106 1_544
Cl3 Li8 2.816106 1_444
Cl3 Li0 2.950205 1_454
Cl3 Li0 2.950205 1_554
Cl3 Li11 3.023723 1_544
Cl4 Li11 2.525929 1_555
Cl4 Li6 2.563057 1_565
Cl4 Li6 2.563057 1_465
Cl4 Li9 2.661415 1_455
Cl4 Li9 2.661415 1_555
Cl4 Li3 2.700286 1_455
Cl4 Li3 2.700286 1_555
Cl4 Li15 2.785651 1_555
Cl4 Li15 2.811831 1_565
Cl4 Li12 2.918511 1_555
