# generated using pymatgen
data_LiSm4V4O12
_symmetry_space_group_name_H-M   'P 1'
_cell_length_a   5.41455259
_cell_length_b   5.93213881
_cell_length_c   7.82516477
_cell_angle_alpha   90.91585472
_cell_angle_beta   90.11281806
_cell_angle_gamma   88.59006141
_symmetry_Int_Tables_number   1
_chemical_formula_structural   LiSm4V4O12
_chemical_formula_sum   'Li1 Sm4 V4 O12'
_cell_volume   251.23482475
_cell_formula_units_Z   1
loop_
 _symmetry_equiv_pos_site_id
 _symmetry_equiv_pos_as_xyz
  1  'x, y, z'
loop_
 _atom_site_type_symbol
 _atom_site_label
 _atom_site_symmetry_multiplicity
 _atom_site_fract_x
 _atom_site_fract_y
 _atom_site_fract_z
 _atom_site_occupancy
  Li  Li0  1  0.86319100  0.25910200  0.35413900  1
  Sm  Sm0  1  0.98507100  0.42860300  0.74808100  1
  Sm  Sm1  1  0.03406000  0.60845100  0.23395600  1
  Sm  Sm2  1  0.44788800  0.07193300  0.25002800  1
  Sm  Sm3  1  0.52754900  0.92521700  0.74862800  1
  V  V0  1  0.00414800  0.97325100  0.51683200  1
  V  V1  1  0.49549300  0.49766900  0.50039700  1
  V  V2  1  0.99604300  0.01224600  0.99555200  1
  V  V3  1  0.50724100  0.49901800  0.99819700  1
  O  O0  1  0.31695000  0.78843000  0.43579500  1
  O  O1  1  0.68204900  0.19567900  0.55283600  1
  O  O2  1  0.79864500  0.67925800  0.55701700  1
  O  O3  1  0.18294400  0.31201800  0.43908800  1
  O  O4  1  0.80557700  0.69817500  0.94556900  1
  O  O5  1  0.19902000  0.31241800  0.05773600  1
  O  O6  1  0.30345600  0.80843400  0.05468900  1
  O  O7  1  0.69815100  0.20035100  0.93678500  1
  O  O8  1  0.88384700  0.97741300  0.24596700  1
  O  O9  1  0.12036000  0.04210900  0.76154600  1
  O  O10  1  0.38884600  0.54178500  0.75420400  1
  O  O11  1  0.62851800  0.44968900  0.24629000  1
loop_
_geom_bond_atom_site_label_1
_geom_bond_atom_site_label_2
_geom_bond_distance
_geom_bond_site_symmetry_2
Li0 O8 1.862061 1_545
Li0 O3 1.885053 1_655
Li0 O11 1.886953 1_555
Li0 O1 1.887832 1_555
Li0 V0 2.253932 1_645
Li0 Sm1 2.489032 1_655
O0 V1 2.027083 1_555
O0 V0 2.088866 1_555
O0 Sm2 2.363266 1_565
O0 Sm1 2.449019 1_555
O0 Sm3 2.814660 1_555
O1 V1 2.081061 1_555
O1 V0 2.176880 1_645
O1 Sm3 2.402289 1_545
O1 Sm0 2.640008 1_555
O1 Sm2 2.781975 1_555
O2 V1 2.029749 1_555
O2 V0 2.119662 1_655
O2 Sm0 2.335906 1_555
O2 Sm3 2.522892 1_555
O2 Sm1 2.853842 1_655
O3 V1 2.092509 1_555
O3 V0 2.341582 1_545
O3 Sm2 2.472953 1_555
O3 Sm1 2.516772 1_555
O3 Sm0 2.718973 1_455
O4 V3 2.070467 1_555
O4 V2 2.181145 1_565
O4 Sm0 2.395916 1_555
O4 Sm3 2.532317 1_555
O4 Sm1 2.627048 1_656
O5 V3 2.082784 1_554
O5 V2 2.163771 1_454
O5 Sm1 2.373489 1_555
O5 Sm2 2.465999 1_555
O5 Sm0 2.773351 1_454
O6 V2 2.088615 1_464
O6 V3 2.158307 1_554
O6 Sm2 2.317426 1_565
O6 Sm1 2.376826 1_555
O6 Sm3 2.791765 1_554
O7 V2 1.995784 1_555
O7 V3 2.079209 1_555
O7 Sm3 2.382646 1_545
O7 Sm0 2.569788 1_555
O7 Sm2 2.923760 1_556
O8 V2 2.067691 1_564
O8 V0 2.216505 1_655
O8 Sm1 2.316684 1_655
O8 Sm2 2.412895 1_565
O9 V2 1.964338 1_455
O9 V0 2.052470 1_545
O9 Sm3 2.296815 1_545
O9 Sm0 2.393556 1_455
O10 V3 2.030603 1_555
O10 V1 2.080124 1_555
O10 Sm0 2.302959 1_455
O10 Sm3 2.413912 1_555
O11 V3 2.071094 1_554
O11 V1 2.128641 1_555
O11 Sm1 2.413187 1_655
O11 Sm2 2.467610 1_555
