# generated using pymatgen
data_LaZnFeCoO6
_symmetry_space_group_name_H-M   'P 1'
_cell_length_a   5.53659800
_cell_length_b   5.31773700
_cell_length_c   9.23394996
_cell_angle_alpha   55.60454981
_cell_angle_beta   90.00000000
_cell_angle_gamma   90.00000000
_symmetry_Int_Tables_number   1
_chemical_formula_structural   LaZnFeCoO6
_chemical_formula_sum   'La2 Zn2 Fe2 Co2 O12'
_cell_volume   224.33377603
_cell_formula_units_Z   2
loop_
 _symmetry_equiv_pos_site_id
 _symmetry_equiv_pos_as_xyz
  1  'x, y, z'
loop_
 _atom_site_type_symbol
 _atom_site_label
 _atom_site_symmetry_multiplicity
 _atom_site_fract_x
 _atom_site_fract_y
 _atom_site_fract_z
 _atom_site_occupancy
  La  La0  1  0.22235200  0.73954700  0.25029200  1
  La  La1  1  0.77764800  0.73954700  0.75029200  1
  Zn  Zn0  1  0.71543700  0.27702300  0.25105500  1
  Zn  Zn1  1  0.28456300  0.27702300  0.75105500  1
  Fe  Fe0  1  0.74697300  0.99784300  0.00218700  1
  Fe  Fe1  1  0.25302700  0.99784300  0.50218700  1
  Co  Co0  1  0.74816700  0.49999100  0.49860300  1
  Co  Co1  1  0.25183300  0.49999100  0.99860300  1
  O  O0  1  0.23638600  0.88673800  0.75356400  1
  O  O1  1  0.04539300  0.25974500  0.94327100  1
  O  O2  1  0.04562600  0.64204500  0.55686200  1
  O  O3  1  0.95437400  0.64204500  0.05686200  1
  O  O4  1  0.95460700  0.25974500  0.44327100  1
  O  O5  1  0.76361400  0.88673800  0.25356400  1
  O  O6  1  0.72183300  0.17719000  0.74661800  1
  O  O7  1  0.50839700  0.70187700  0.55567300  1
  O  O8  1  0.50511600  0.31800100  0.94187500  1
  O  O9  1  0.49488400  0.31800100  0.44187500  1
  O  O10  1  0.49160300  0.70187700  0.05567300  1
  O  O11  1  0.27816700  0.17719000  0.24661800  1
loop_
_geom_bond_atom_site_label_1
_geom_bond_atom_site_label_2
_geom_bond_distance
_geom_bond_site_symmetry_2
La0 O11 2.328869 1_565
La0 O10 2.428727 1_555
La0 O9 2.439476 1_555
La0 O3 2.589727 1_455
La0 O4 2.597319 1_455
La0 O5 2.662915 1_455
La0 O2 2.753480 1_555
La0 O1 2.790897 1_564
La1 O6 2.328869 1_565
La1 O7 2.428727 1_555
La1 O8 2.439476 1_555
La1 O2 2.589727 1_655
La1 O1 2.597319 1_655
La1 O0 2.662915 1_655
La1 O3 2.753480 1_556
La1 O4 2.790897 1_565
Fe0 O10 1.960061 1_555
Fe0 O8 1.982568 1_564
Fe0 O6 1.988793 1_564
Fe0 O3 2.018433 1_555
Fe0 O1 2.027188 1_664
Fe0 O5 2.048439 1_555
Fe1 O7 1.960061 1_555
Fe1 O9 1.982568 1_565
Fe1 O11 1.988793 1_565
Fe1 O2 2.018433 1_555
Fe1 O4 2.027188 1_465
Fe1 O0 2.048439 1_555
Co0 O9 1.936555 1_555
Co0 O6 1.941956 1_555
Co0 O7 1.957486 1_555
Co0 O4 1.984212 1_555
Co0 O2 2.007855 1_655
Co0 O5 2.024650 1_555
Co1 O8 1.936555 1_555
Co1 O11 1.941956 1_556
Co1 O10 1.957486 1_556
Co1 O1 1.984212 1_555
Co1 O3 2.007855 1_456
Co1 O0 2.024650 1_555
O0 Zn1 2.079611 1_565
O1 Zn1 2.174393 1_555
O2 Zn1 2.191081 1_555
O3 Zn0 2.191081 1_555
O4 Zn0 2.174393 1_555
O5 Zn0 2.079611 1_565
O6 Zn1 2.483803 1_555
O7 Zn1 2.299978 1_555
O8 Zn1 2.253248 1_555
O9 Zn0 2.253248 1_555
O10 Zn0 2.299978 1_555
O11 Zn0 2.483803 1_555
