# generated using pymatgen
data_Li4Mn3CoCu2(PO4)6
_symmetry_space_group_name_H-M   'P 1'
_cell_length_a   8.26672859
_cell_length_b   8.98515184
_cell_length_c   8.85580839
_cell_angle_alpha   60.15648002
_cell_angle_beta   59.26759856
_cell_angle_gamma   62.98708061
_symmetry_Int_Tables_number   1
_chemical_formula_structural   Li4Mn3CoCu2(PO4)6
_chemical_formula_sum   'Li4 Mn3 Co1 Cu2 P6 O24'
_cell_volume   472.47788097
_cell_formula_units_Z   1
loop_
 _symmetry_equiv_pos_site_id
 _symmetry_equiv_pos_as_xyz
  1  'x, y, z'
loop_
 _atom_site_type_symbol
 _atom_site_label
 _atom_site_symmetry_multiplicity
 _atom_site_fract_x
 _atom_site_fract_y
 _atom_site_fract_z
 _atom_site_occupancy
  Li  Li0  1  0.25204800  0.86672300  0.64732900  1
  Li  Li1  1  0.73419100  0.15298900  0.34408400  1
  Li  Li2  1  0.70159400  0.79306200  0.15701600  1
  Li  Li3  1  0.75167700  0.34273000  0.76050200  1
  Mn  Mn0  1  0.06474500  0.64544500  0.64449400  1
  Mn  Mn1  1  0.44089300  0.84329400  0.86027700  1
  Mn  Mn2  1  0.95577400  0.34380700  0.34804300  1
  Co  Co0  1  0.54475600  0.15801600  0.14325300  1
  Cu  Cu0  1  0.99973000  0.01615600  0.00006100  1
  Cu  Cu1  1  0.50034700  0.48977600  0.50521500  1
  P  P0  1  0.25484500  0.25056200  0.55416000  1
  P  P1  1  0.22739400  0.95197200  0.24661700  1
  P  P2  1  0.27486100  0.54168100  0.93152200  1
  P  P3  1  0.74361400  0.46082800  0.04937600  1
  P  P4  1  0.77961700  0.03345900  0.75135900  1
  P  P5  1  0.73386300  0.75459000  0.45910600  1
  O  O0  1  0.04580600  0.10016300  0.30253700  1
  O  O1  1  0.08982700  0.49935100  0.09673600  1
  O  O2  1  0.06187200  0.32605700  0.52079900  1
  O  O3  1  0.22473900  0.08034900  0.74054700  1
  O  O4  1  0.43510100  0.19112600  0.39546900  1
  O  O5  1  0.28596500  0.39422800  0.57862800  1
  O  O6  1  0.21755000  0.93112600  0.08580700  1
  O  O7  1  0.23963400  0.76688600  0.40922700  1
  O  O8  1  0.56506800  0.61270300  0.02039200  1
  O  O9  1  0.27929200  0.58472400  0.73232000  1
  O  O10  1  0.75628600  0.27717300  0.05904000  1
  O  O11  1  0.60216400  0.97405100  0.81223900  1
  O  O12  1  0.42366500  0.98438400  0.18593000  1
  O  O13  1  0.25793400  0.72928500  0.91831400  1
  O  O14  1  0.72966600  0.42458100  0.24953300  1
  O  O15  1  0.46278800  0.39443800  0.94417600  1
  O  O16  1  0.75242900  0.22431400  0.60082100  1
  O  O17  1  0.77894900  0.05867300  0.91754400  1
  O  O18  1  0.70986900  0.60987500  0.42575200  1
  O  O19  1  0.53942000  0.82772700  0.59849300  1
  O  O20  1  0.77876100  0.90982800  0.26351100  1
  O  O21  1  0.89715000  0.67501300  0.53334600  1
  O  O22  1  0.93393500  0.50545500  0.89189200  1
  O  O23  1  0.97218300  0.89640300  0.69153400  1
loop_
_geom_bond_atom_site_label_1
_geom_bond_atom_site_label_2
_geom_bond_distance
_geom_bond_site_symmetry_2
Li0 O23 2.048106 1_455
Li0 O19 2.073168 1_555
Li0 O13 2.098007 1_555
Li0 O9 2.189564 1_555
Li0 O3 2.325883 1_565
Li1 O10 2.135662 1_555
Li1 O14 2.138457 1_555
Li1 O4 2.161797 1_555
Li1 O0 2.256332 1_655
Li1 O20 2.443368 1_545
Li2 O18 2.131466 1_555
Li2 O12 2.132731 1_555
Li2 O20 2.145867 1_555
Li2 O17 2.359031 1_564
Li3 O15 2.083020 1_555
Li3 O16 2.148084 1_555
Li3 O17 2.182700 1_555
Li3 O2 2.346970 1_655
Li3 O10 2.422955 1_556
Mn0 O22 1.903407 1_455
Mn0 O7 1.927036 1_555
Mn0 O21 1.938588 1_455
Mn0 O9 2.038824 1_555
Mn0 O23 2.210286 1_455
Mn0 O5 2.291307 1_555
Mn1 O11 1.919476 1_555
Mn1 O13 1.920938 1_555
Mn1 O8 1.997201 1_556
Mn1 O19 2.084913 1_555
Mn1 O6 2.120602 1_556
Mn1 O3 2.255080 1_565
Mn2 O1 1.981120 1_655
Mn2 O2 2.033918 1_655
Mn2 O16 2.095475 1_555
Mn2 O14 2.141440 1_555
Mn2 O0 2.144825 1_655
Mn2 O18 2.472708 1_555
Co0 O12 2.005981 1_545
Co0 O4 2.060603 1_555
Co0 O15 2.065410 1_554
Co0 O10 2.081680 1_555
Co0 O17 2.188850 1_554
Co0 O20 2.381709 1_545
Cu0 O6 1.993265 1_645
Cu0 O3 2.088176 1_654
Cu0 O17 2.112583 1_554
Cu0 O20 2.168829 1_545
Cu0 O10 2.383410 1_555
Cu1 O5 1.987343 1_555
Cu1 O18 2.087108 1_555
Cu1 O9 2.155761 1_555
Cu1 O14 2.233398 1_555
Cu1 O16 2.454980 1_555
Cu1 O7 2.541353 1_555
O0 P1 1.533757 1_545
O1 P2 1.520643 1_554
O2 P0 1.546455 1_555
O3 P0 1.593394 1_555
O4 P0 1.537661 1_555
O5 P0 1.554502 1_555
O6 P1 1.570842 1_555
O7 P1 1.569138 1_555
O8 P3 1.521705 1_555
O9 P2 1.590830 1_555
O10 P3 1.566184 1_555
O11 P4 1.531046 1_565
O12 P1 1.545459 1_555
O13 P2 1.575091 1_555
O14 P3 1.584919 1_555
O15 P2 1.529616 1_555
O16 P4 1.565031 1_555
O17 P4 1.593631 1_555
O18 P5 1.579163 1_555
O19 P5 1.535964 1_555
O20 P5 1.578682 1_555
O21 P5 1.525788 1_555
O22 P3 1.534618 1_556
O23 P4 1.529024 1_565
