# generated using pymatgen
data_LiNbSe2
_symmetry_space_group_name_H-M   'P 1'
_cell_length_a   3.53331149
_cell_length_b   3.53331149
_cell_length_c   13.54231558
_cell_angle_alpha   90.00000000
_cell_angle_beta   90.00000000
_cell_angle_gamma   120.00002456
_symmetry_Int_Tables_number   1
_chemical_formula_structural   LiNbSe2
_chemical_formula_sum   'Li2 Nb2 Se4'
_cell_volume   146.41558467
_cell_formula_units_Z   2
loop_
 _symmetry_equiv_pos_site_id
 _symmetry_equiv_pos_as_xyz
  1  'x, y, z'
loop_
 _atom_site_type_symbol
 _atom_site_label
 _atom_site_symmetry_multiplicity
 _atom_site_fract_x
 _atom_site_fract_y
 _atom_site_fract_z
 _atom_site_occupancy
  Li  Li0  1  -0.00000000  0.00000000  -0.00000000  1
  Li  Li1  1  -0.00000000  0.00000000  0.50000000  1
  Nb  Nb0  1  -0.00000000  -0.00000000  0.75000000  1
  Nb  Nb1  1  0.00000000  0.00000000  0.25000000  1
  Se  Se0  1  0.66666700  0.33333300  0.87304681  1
  Se  Se1  1  0.33333300  0.66666700  0.12695319  1
  Se  Se2  1  0.33333300  0.66666700  0.37304681  1
  Se  Se3  1  0.66666700  0.33333300  0.62695319  1
loop_
_geom_bond_atom_site_label_1
_geom_bond_atom_site_label_2
_geom_bond_distance
_geom_bond_site_symmetry_2
Li0 Se1 2.667810 1_545
Li0 Se0 2.667810 1_454
Li0 Se1 2.667812 1_445
Li0 Se1 2.667812 1_555
Li0 Se0 2.667812 1_554
Li0 Se0 2.667812 1_444
Li1 Se2 2.667810 1_545
Li1 Se3 2.667810 1_455
Li1 Se2 2.667812 1_445
Li1 Se2 2.667812 1_555
Li1 Se3 2.667812 1_445
Li1 Se3 2.667812 1_555
Nb0 Se3 2.634029 1_455
Nb0 Se0 2.634029 1_455
Nb0 Se0 2.634031 1_445
Nb0 Se3 2.634031 1_445
Nb0 Se3 2.634031 1_555
Nb0 Se0 2.634031 1_555
Nb1 Se1 2.634029 1_545
Nb1 Se2 2.634029 1_545
Nb1 Se1 2.634031 1_445
Nb1 Se1 2.634031 1_555
Nb1 Se2 2.634031 1_445
Nb1 Se2 2.634031 1_555
