# generated using pymatgen
data_NiSe
_symmetry_space_group_name_H-M   'P 1'
_cell_length_a   5.84765774
_cell_length_b   5.84765740
_cell_length_c   5.84765928
_cell_angle_alpha   116.51340712
_cell_angle_beta   116.51339899
_cell_angle_gamma   116.51344018
_symmetry_Int_Tables_number   1
_chemical_formula_structural   NiSe
_chemical_formula_sum   'Ni3 Se3'
_cell_volume   94.69001445
_cell_formula_units_Z   3
loop_
 _symmetry_equiv_pos_site_id
 _symmetry_equiv_pos_as_xyz
  1  'x, y, z'
loop_
 _atom_site_type_symbol
 _atom_site_label
 _atom_site_symmetry_multiplicity
 _atom_site_fract_x
 _atom_site_fract_y
 _atom_site_fract_z
 _atom_site_occupancy
  Ni  Ni0  1  0.00720415  0.26254928  0.00720415  1
  Ni  Ni1  1  0.00720415  0.00720415  0.26254928  1
  Ni  Ni2  1  0.26254928  0.00720415  0.00720415  1
  Se  Se0  1  0.72459369  0.38585303  0.72459369  1
  Se  Se1  1  0.72459369  0.72459369  0.38585303  1
  Se  Se2  1  0.38585303  0.72459369  0.72459369  1
loop_
_geom_bond_atom_site_label_1
_geom_bond_atom_site_label_2
_geom_bond_distance
_geom_bond_site_symmetry_2
Ni0 Se2 2.370974 1_444
Ni0 Se1 2.370977 1_444
Ni0 Se0 2.381491 1_454
Ni0 Se1 2.459125 1_555
Ni0 Se2 2.459127 1_555
Ni1 Se0 2.370976 1_444
Ni1 Se2 2.370977 1_444
Ni1 Se1 2.381490 1_445
Ni1 Se2 2.459125 1_555
Ni1 Se0 2.459125 1_555
Ni2 Se0 2.370974 1_444
Ni2 Se1 2.370977 1_444
Ni2 Se2 2.381490 1_544
Ni2 Se1 2.459124 1_555
Ni2 Se0 2.459127 1_555
