# generated using pymatgen
data_Tl2Fe3S4
_symmetry_space_group_name_H-M   'P 1'
_cell_length_a   8.74221839
_cell_length_b   8.74221839
_cell_length_c   8.74221839
_cell_angle_alpha   145.48476762
_cell_angle_beta   105.37933413
_cell_angle_gamma   84.88333846
_symmetry_Int_Tables_number   1
_chemical_formula_structural   Tl2Fe3S4
_chemical_formula_sum   'Tl4 Fe6 S8'
_cell_volume   354.64932193
_cell_formula_units_Z   2
loop_
 _symmetry_equiv_pos_site_id
 _symmetry_equiv_pos_as_xyz
  1  'x, y, z'
loop_
 _atom_site_type_symbol
 _atom_site_label
 _atom_site_symmetry_multiplicity
 _atom_site_fract_x
 _atom_site_fract_y
 _atom_site_fract_z
 _atom_site_occupancy
  Tl  Tl0  1  0.13007300  0.25172700  0.38180000  1
  Tl  Tl1  1  0.36992700  0.75172700  0.12165400  1
  Tl  Tl2  1  0.63007300  0.24827300  0.87834600  1
  Tl  Tl3  1  0.86992700  0.74827300  0.61820000  1
  Fe  Fe0  1  0.25000000  0.75000000  0.50000000  1
  Fe  Fe1  1  0.75000000  0.25000000  0.50000000  1
  Fe  Fe2  1  0.50539200  0.25000000  0.25539200  1
  Fe  Fe3  1  0.99460800  0.25000000  0.74460800  1
  Fe  Fe4  1  0.00539200  0.75000000  0.25539200  1
  Fe  Fe5  1  0.49460800  0.75000000  0.74460800  1
  S  S0  1  0.53997100  0.41973100  0.63074600  1
  S  S1  1  0.96002900  0.59077500  0.87976000  1
  S  S2  1  0.71101500  0.08026900  0.12024000  1
  S  S3  1  0.78898500  0.90922500  0.36925400  1
  S  S4  1  0.28898500  0.91973100  0.87976000  1
  S  S5  1  0.21101500  0.09077500  0.63074600  1
  S  S6  1  0.03997100  0.40922500  0.12024000  1
  S  S7  1  0.46002900  0.58026900  0.36925400  1
loop_
_geom_bond_atom_site_label_1
_geom_bond_atom_site_label_2
_geom_bond_distance
_geom_bond_site_symmetry_2
Fe0 S5 2.170668 1_565
Fe0 S6 2.170668 1_555
Fe0 S7 2.170668 1_555
Fe0 S4 2.170668 1_555
Fe1 S2 2.170668 1_555
Fe1 S1 2.170668 1_555
Fe1 S0 2.170668 1_555
Fe1 S3 2.170668 1_545
Fe2 S0 2.142605 1_555
Fe2 S2 2.142605 1_555
Fe2 S4 2.180233 1_544
Fe2 S7 2.180233 1_555
Fe3 S3 2.142605 1_545
Fe3 S1 2.142605 1_555
Fe3 S6 2.180233 1_656
Fe3 S5 2.180233 1_655
Fe4 S5 2.142605 1_565
Fe4 S6 2.142605 1_555
Fe4 S3 2.180233 1_455
Fe4 S1 2.180233 1_454
Fe5 S4 2.142605 1_555
Fe5 S7 2.142605 1_555
Fe5 S2 2.180233 1_566
Fe5 S0 2.180233 1_555
