# generated using pymatgen
data_Li2TiFeO4
_symmetry_space_group_name_H-M   'P 1'
_cell_length_a   5.26554128
_cell_length_b   5.97872437
_cell_length_c   6.00871162
_cell_angle_alpha   60.14539160
_cell_angle_beta   107.31456690
_cell_angle_gamma   89.93116519
_symmetry_Int_Tables_number   1
_chemical_formula_structural   Li2TiFeO4
_chemical_formula_sum   'Li4 Ti2 Fe2 O8'
_cell_volume   154.05473354
_cell_formula_units_Z   2
loop_
 _symmetry_equiv_pos_site_id
 _symmetry_equiv_pos_as_xyz
  1  'x, y, z'
loop_
 _atom_site_type_symbol
 _atom_site_label
 _atom_site_symmetry_multiplicity
 _atom_site_fract_x
 _atom_site_fract_y
 _atom_site_fract_z
 _atom_site_occupancy
  Li  Li0  1  0.00001500  0.50000600  0.99999800  1
  Li  Li1  1  0.00001600  0.00000500  0.99999700  1
  Li  Li2  1  0.49850600  0.74738600  0.99920900  1
  Li  Li3  1  0.50154500  0.25264300  0.00078700  1
  Ti  Ti0  1  0.52407600  0.74601900  0.50767700  1
  Ti  Ti1  1  0.47596700  0.25400500  0.49233100  1
  Fe  Fe0  1  0.00007900  0.99997000  0.49992900  1
  Fe  Fe1  1  0.99960800  0.49985700  0.50010600  1
  O  O0  1  0.25515400  0.64303200  0.71425300  1
  O  O1  1  0.28048100  0.13143900  0.73794200  1
  O  O2  1  0.74489300  0.35697800  0.28573800  1
  O  O3  1  0.71956800  0.86861100  0.26203600  1
  O  O4  1  0.72393700  0.38848700  0.73300700  1
  O  O5  1  0.72366800  0.87769500  0.73297700  1
  O  O6  1  0.27610900  0.61153400  0.26700000  1
  O  O7  1  0.27637900  0.12233400  0.26701400  1
loop_
_geom_bond_atom_site_label_1
_geom_bond_atom_site_label_2
_geom_bond_distance
_geom_bond_site_symmetry_2
Li0 O7 2.187663 1_556
Li0 O5 2.187692 1_455
Li0 O4 2.193301 1_455
Li0 O6 2.193420 1_556
Li0 O2 2.323273 1_456
Li0 O0 2.323366 1_555
Li1 O6 2.230576 1_546
Li1 O4 2.230588 1_455
Li1 O5 2.237711 1_445
Li1 O7 2.237811 1_556
Li1 O3 2.330712 1_446
Li1 O1 2.330854 1_555
Li2 O1 2.094480 1_565
Li2 O3 2.102769 1_556
Li2 O6 2.107814 1_556
Li2 O5 2.112349 1_555
Li2 O0 2.173112 1_555
Li2 O2 2.181228 1_556
Li3 O3 2.094381 1_545
Li3 O1 2.102764 1_554
Li3 O4 2.107744 1_554
Li3 O7 2.112344 1_555
Li3 O2 2.173005 1_555
Li3 O0 2.181161 1_554
Fe0 O0 2.060074 1_555
Fe0 O2 2.060717 1_465
Fe0 O3 2.169203 1_455
Fe0 O1 2.169839 1_565
Fe0 O7 2.192185 1_565
Fe0 O5 2.193211 1_455
Fe1 O2 2.063400 1_555
Fe1 O0 2.065876 1_655
Fe1 O3 2.162863 1_555
Fe1 O1 2.163674 1_655
Fe1 O4 2.189186 1_555
Fe1 O6 2.193738 1_655
O0 Ti0 2.052399 1_555
O1 Ti1 1.898384 1_555
O2 Ti1 2.052485 1_555
O3 Ti0 1.898543 1_555
O4 Ti0 1.942925 1_555
O4 Ti1 2.116337 1_555
O5 Ti0 1.942458 1_555
O5 Ti1 2.117846 1_565
O6 Ti1 1.942907 1_555
O6 Ti0 2.116347 1_555
O7 Ti1 1.942504 1_555
O7 Ti0 2.117856 1_545
