# generated using pymatgen
data_Sr2YCu3(PbO4)2
_symmetry_space_group_name_H-M   'P 1'
_cell_length_a   3.83424800
_cell_length_b   3.86303600
_cell_length_c   15.97075804
_cell_angle_alpha   88.66870089
_cell_angle_beta   90.00000000
_cell_angle_gamma   90.00000000
_symmetry_Int_Tables_number   1
_chemical_formula_structural   Sr2YCu3(PbO4)2
_chemical_formula_sum   'Sr2 Y1 Cu3 Pb2 O8'
_cell_volume   236.49242731
_cell_formula_units_Z   1
loop_
 _symmetry_equiv_pos_site_id
 _symmetry_equiv_pos_as_xyz
  1  'x, y, z'
loop_
 _atom_site_type_symbol
 _atom_site_label
 _atom_site_symmetry_multiplicity
 _atom_site_fract_x
 _atom_site_fract_y
 _atom_site_fract_z
 _atom_site_occupancy
  Sr  Sr0  1  0.00000000  0.99048900  0.22129500  1
  Sr  Sr1  1  0.00000000  0.00951100  0.77870500  1
  Y  Y0  1  0.00000000  0.00000000  0.00000000  1
  Cu  Cu0  1  0.50000000  0.49841000  0.10440600  1
  Cu  Cu1  1  0.50000000  0.50159000  0.89559400  1
  Cu  Cu2  1  0.00000000  0.00000000  0.50000000  1
  Pb  Pb0  1  0.50000000  0.49597200  0.38894000  1
  Pb  Pb1  1  0.50000000  0.50402800  0.61106000  1
  O  O0  1  0.50000000  0.48837900  0.25149200  1
  O  O1  1  0.50000000  0.51162100  0.74850800  1
  O  O2  1  0.00000000  0.49734800  0.09167000  1
  O  O3  1  0.50000000  0.00018200  0.90771200  1
  O  O4  1  0.00000000  0.50265200  0.90833000  1
  O  O5  1  0.50000000  0.99981800  0.09228800  1
  O  O6  1  0.00000000  0.89956000  0.38562300  1
  O  O7  1  0.00000000  0.10044000  0.61437700  1
loop_
_geom_bond_atom_site_label_1
_geom_bond_atom_site_label_2
_geom_bond_distance
_geom_bond_site_symmetry_2
Cu0 O2 1.927899 1_655
Cu0 O2 1.927899 1_555
Cu0 O5 1.940246 1_545
Cu0 O5 1.942122 1_555
Cu0 O0 2.348494 1_555
Cu1 O4 1.927899 1_555
Cu1 O4 1.927899 1_655
Cu1 O3 1.940246 1_565
Cu1 O3 1.942122 1_555
Cu1 O1 2.348494 1_555
Cu2 O7 1.876238 1_555
Cu2 O6 1.876238 1_545
O0 Pb0 2.196026 1_555
O0 Sr0 2.761666 1_655
O0 Sr0 2.761666 1_555
O0 Sr0 2.765934 1_645
O0 Sr0 2.765934 1_545
O1 Pb1 2.196026 1_555
O1 Sr1 2.761666 1_655
O1 Sr1 2.761666 1_555
O1 Sr1 2.765934 1_565
O1 Sr1 2.765934 1_665
O2 Y0 2.404528 1_565
O2 Y0 2.442418 1_555
O2 Sr0 2.816245 1_545
O2 Sr0 2.845721 1_555
O3 Y0 2.418207 1_656
O3 Y0 2.418207 1_556
O3 Sr1 2.813932 1_555
O3 Sr1 2.813932 1_655
O4 Y0 2.404528 1_556
O4 Y0 2.442418 1_566
O4 Sr1 2.816245 1_565
O4 Sr1 2.845721 1_555
O5 Y0 2.418207 1_565
O5 Y0 2.418207 1_665
O5 Sr0 2.813932 1_655
O5 Sr0 2.813932 1_555
O6 Pb0 2.470839 1_455
O6 Pb0 2.470839 1_555
O6 Sr0 2.639744 1_555
O7 Pb1 2.470839 1_455
O7 Pb1 2.470839 1_555
O7 Sr1 2.639744 1_555
