# generated using pymatgen
data_MgMn3P3O13
_symmetry_space_group_name_H-M   'P 1'
_cell_length_a   6.18089800
_cell_length_b   7.70676600
_cell_length_c   10.30119444
_cell_angle_alpha   79.72347884
_cell_angle_beta   90.00000000
_cell_angle_gamma   90.00000000
_symmetry_Int_Tables_number   1
_chemical_formula_structural   MgMn3P3O13
_chemical_formula_sum   'Mg2 Mn6 P6 O26'
_cell_volume   482.82304955
_cell_formula_units_Z   2
loop_
 _symmetry_equiv_pos_site_id
 _symmetry_equiv_pos_as_xyz
  1  'x, y, z'
loop_
 _atom_site_type_symbol
 _atom_site_label
 _atom_site_symmetry_multiplicity
 _atom_site_fract_x
 _atom_site_fract_y
 _atom_site_fract_z
 _atom_site_occupancy
  Mg  Mg0  1  0.75000000  0.36726600  0.16747700  1
  Mg  Mg1  1  0.25000000  0.63273400  0.83252300  1
  Mn  Mn0  1  0.25000000  0.64906200  0.20821000  1
  Mn  Mn1  1  0.75000000  0.35093800  0.79179000  1
  Mn  Mn2  1  0.25000000  0.22872300  0.42980500  1
  Mn  Mn3  1  0.50000000  0.00000000  0.00000000  1
  Mn  Mn4  1  0.75000000  0.77127700  0.57019500  1
  Mn  Mn5  1  0.00000000  0.00000000  0.00000000  1
  P  P0  1  0.25000000  0.78723700  0.49307600  1
  P  P1  1  0.75000000  0.21276300  0.50692400  1
  P  P2  1  0.25000000  0.26567300  0.75976500  1
  P  P3  1  0.75000000  0.73432700  0.24023500  1
  P  P4  1  0.75000000  0.67761700  0.88859100  1
  P  P5  1  0.25000000  0.32238300  0.11140900  1
  O  O0  1  0.75000000  0.62320200  0.74863200  1
  O  O1  1  0.55785300  0.25063600  0.40596000  1
  O  O2  1  0.25000000  0.22031200  0.62340400  1
  O  O3  1  0.53650400  0.78209100  0.89731500  1
  O  O4  1  0.75000000  0.34934700  0.59874000  1
  O  O5  1  0.75000000  0.11701800  0.90729700  1
  O  O6  1  0.25000000  0.65065300  0.40126000  1
  O  O7  1  0.03650400  0.21790900  0.10268500  1
  O  O8  1  0.25000000  0.97378100  0.41373200  1
  O  O9  1  0.75000000  0.02621900  0.58626800  1
  O  O10  1  0.05947900  0.38590200  0.78966600  1
  O  O11  1  0.25000000  0.88298200  0.09270300  1
  O  O12  1  0.55947900  0.61409800  0.21033400  1
  O  O13  1  0.75000000  0.49715200  0.97969900  1
  O  O14  1  0.75000000  0.77968800  0.37659600  1
  O  O15  1  0.46349600  0.21790900  0.10268500  1
  O  O16  1  0.94214700  0.25063600  0.40596000  1
  O  O17  1  0.44214700  0.74936400  0.59404000  1
  O  O18  1  0.44052100  0.38590200  0.78966600  1
  O  O19  1  0.25000000  0.37679800  0.25136800  1
  O  O20  1  0.75000000  0.90528100  0.13378100  1
  O  O21  1  0.25000000  0.09471900  0.86621900  1
  O  O22  1  0.94052100  0.61409800  0.21033400  1
  O  O23  1  0.96349600  0.78209100  0.89731500  1
  O  O24  1  0.05785300  0.74936400  0.59404000  1
  O  O25  1  0.25000000  0.50284800  0.02030100  1
loop_
_geom_bond_atom_site_label_1
_geom_bond_atom_site_label_2
_geom_bond_distance
_geom_bond_site_symmetry_2
Mg0 O13 2.013158 1_554
Mg0 O15 2.276057 1_555
Mg0 O7 2.276057 1_655
Mg0 O12 2.345191 1_555
Mg0 O22 2.345191 1_555
Mg0 O16 2.732347 1_555
Mg0 O1 2.732347 1_555
Mg1 O25 2.013158 1_556
Mg1 O3 2.276057 1_555
Mg1 O23 2.276057 1_455
Mg1 O10 2.345191 1_555
Mg1 O18 2.345191 1_555
Mg1 O17 2.732347 1_555
Mg1 O24 2.732347 1_555
Mn0 O12 1.931323 1_555
Mn0 O22 1.931323 1_455
Mn0 O11 1.974940 1_555
Mn0 O6 1.990870 1_555
Mn0 O19 2.065810 1_555
Mn0 O25 2.407259 1_555
Mn1 O18 1.931323 1_555
Mn1 O10 1.931323 1_655
Mn1 O5 1.974940 1_555
Mn1 O4 1.990870 1_555
Mn1 O0 2.065810 1_555
Mn1 O13 2.407259 1_555
Mn2 O16 1.922169 1_455
Mn2 O1 1.922169 1_555
Mn2 O19 1.983060 1_555
Mn2 O2 1.983762 1_555
Mn2 O8 2.000959 1_545
Mn3 O5 1.950813 1_554
Mn3 O11 1.950813 1_545
Mn3 O20 2.112066 1_545
Mn3 O21 2.112066 1_554
Mn3 O15 2.150329 1_555
Mn3 O3 2.150329 1_544
Mn4 O24 1.922169 1_655
Mn4 O17 1.922169 1_555
Mn4 O0 1.983060 1_555
Mn4 O14 1.983762 1_555
Mn4 O9 2.000959 1_565
Mn5 O5 1.950813 1_454
Mn5 O11 1.950813 1_545
Mn5 O20 2.112066 1_445
Mn5 O21 2.112066 1_554
Mn5 O7 2.150329 1_555
Mn5 O23 2.150329 1_444
O0 P4 1.571693 1_555
O1 P1 1.571329 1_555
O2 P2 1.506834 1_555
O3 P4 1.556762 1_555
O4 P1 1.535512 1_555
O6 P0 1.535512 1_555
O7 P5 1.556762 1_555
O8 P0 1.521719 1_555
O9 P1 1.521719 1_555
O10 P2 1.562680 1_555
O12 P3 1.562680 1_555
O13 P4 1.532783 1_555
O14 P3 1.506834 1_555
O15 P5 1.556762 1_555
O16 P1 1.571329 1_555
O17 P0 1.571329 1_555
O18 P2 1.562680 1_555
O19 P5 1.571693 1_555
O20 P3 1.556553 1_555
O21 P2 1.556553 1_555
O22 P3 1.562680 1_555
O23 P4 1.556762 1_555
O24 P0 1.571329 1_555
O25 P5 1.532783 1_555
