# generated using pymatgen
data_ZnCu2H4(SO4)2
_symmetry_space_group_name_H-M   'P 1'
_cell_length_a   7.91501700
_cell_length_b   5.91272200
_cell_length_c   9.76551007
_cell_angle_alpha   55.59314470
_cell_angle_beta   90.00000000
_cell_angle_gamma   90.00000000
_symmetry_Int_Tables_number   1
_chemical_formula_structural   ZnCu2H4(SO4)2
_chemical_formula_sum   'Zn2 Cu4 H8 S4 O16'
_cell_volume   377.06164020
_cell_formula_units_Z   2
loop_
 _symmetry_equiv_pos_site_id
 _symmetry_equiv_pos_as_xyz
  1  'x, y, z'
loop_
 _atom_site_type_symbol
 _atom_site_label
 _atom_site_symmetry_multiplicity
 _atom_site_fract_x
 _atom_site_fract_y
 _atom_site_fract_z
 _atom_site_occupancy
  Zn  Zn0  1  0.50000000  0.00000000  0.50000000  1
  Zn  Zn1  1  0.00000000  0.00000000  0.00000000  1
  Cu  Cu0  1  0.63055800  0.80727100  0.95046000  1
  Cu  Cu1  1  0.86944200  0.80727100  0.45046000  1
  Cu  Cu2  1  0.36944200  0.19272900  0.04954000  1
  Cu  Cu3  1  0.13055800  0.19272900  0.54954000  1
  H  H0  1  0.51395000  0.52273200  0.23777700  1
  H  H1  1  0.98605000  0.52273200  0.73777700  1
  H  H2  1  0.48605000  0.47726800  0.76222300  1
  H  H3  1  0.01395000  0.47726800  0.26222300  1
  H  H4  1  0.61474300  0.47684900  0.39564100  1
  H  H5  1  0.88525700  0.47684900  0.89564100  1
  H  H6  1  0.38525700  0.52315100  0.60435900  1
  H  H7  1  0.11474300  0.52315100  0.10435900  1
  S  S0  1  0.87342100  0.12924200  0.62936200  1
  S  S1  1  0.62657900  0.12924200  0.12936200  1
  S  S2  1  0.12657900  0.87075800  0.37063800  1
  S  S3  1  0.37342100  0.87075800  0.87063800  1
  O  O0  1  0.86140200  0.96151000  0.82073300  1
  O  O1  1  0.63859800  0.96151000  0.32073300  1
  O  O2  1  0.13859800  0.03849000  0.17926700  1
  O  O3  1  0.36140200  0.03849000  0.67926700  1
  O  O4  1  0.76541300  0.96028100  0.58497300  1
  O  O5  1  0.73458700  0.96028100  0.08497300  1
  O  O6  1  0.23458700  0.03971900  0.41502700  1
  O  O7  1  0.26541300  0.03971900  0.91502700  1
  O  O8  1  0.77859500  0.39524500  0.55943400  1
  O  O9  1  0.72140500  0.39524500  0.05943400  1
  O  O10  1  0.22140500  0.60475500  0.44056600  1
  O  O11  1  0.27859500  0.60475500  0.94056600  1
  O  O12  1  0.51867400  0.41579900  0.35895500  1
  O  O13  1  0.98132600  0.41579900  0.85895500  1
  O  O14  1  0.48132600  0.58420100  0.64104500  1
  O  O15  1  0.01867400  0.58420100  0.14104500  1
loop_
_geom_bond_atom_site_label_1
_geom_bond_atom_site_label_2
_geom_bond_distance
_geom_bond_site_symmetry_2
Cu0 O0 2.114083 1_555
Cu0 S3 2.135431 1_555
Cu0 O5 2.136595 1_556
Cu0 O9 2.157462 1_556
Cu1 O1 2.114083 1_555
Cu1 S2 2.135431 1_655
Cu1 O4 2.136595 1_555
Cu1 O8 2.157462 1_555
Cu2 O2 2.114083 1_555
Cu2 S1 2.135431 1_555
Cu2 O7 2.136595 1_554
Cu2 O11 2.157462 1_554
Cu3 O3 2.114083 1_555
Cu3 S0 2.135431 1_455
Cu3 O6 2.136595 1_555
Cu3 O10 2.157462 1_555
H0 O12 0.977724 1_555
H1 O13 0.977724 1_555
H2 O14 0.977724 1_555
H3 O15 0.977724 1_555
H4 O12 0.991458 1_555
H5 O13 0.991458 1_555
H6 O14 0.991458 1_555
H7 O15 0.991458 1_555
O0 S0 1.546143 1_565
O0 Zn1 2.184076 1_666
O1 S1 1.546143 1_565
O1 Zn0 2.184076 1_565
O2 S2 1.546143 1_545
O2 Zn1 2.184076 1_555
O3 S3 1.546143 1_545
O3 Zn0 2.184076 1_555
O4 S0 1.551188 1_565
O4 Zn0 2.221854 1_565
O5 S1 1.551188 1_565
O5 Zn1 2.221854 1_665
O6 S2 1.551188 1_545
O6 Zn0 2.221854 1_555
O7 S3 1.551188 1_545
O7 Zn1 2.221854 1_556
O8 S0 1.513127 1_555
O9 S1 1.513127 1_555
O10 S2 1.513127 1_555
O11 S3 1.513127 1_555
O12 Zn0 2.033791 1_555
O13 Zn1 2.033791 1_656
O14 Zn0 2.033791 1_565
O15 Zn1 2.033791 1_565
