# generated using pymatgen
data_Ga8As16H102C32(S12O)3
_symmetry_space_group_name_H-M   'P 1'
_cell_length_a   10.22292745
_cell_length_b   12.89151361
_cell_length_c   23.88891516
_cell_angle_alpha   89.97802995
_cell_angle_beta   89.93377292
_cell_angle_gamma   89.99545513
_symmetry_Int_Tables_number   1
_chemical_formula_structural   Ga8As16H102C32(S12O)3
_chemical_formula_sum   'Ga8 As16 H102 C32 S36 O3'
_cell_volume   3148.29409399
_cell_formula_units_Z   1
loop_
 _symmetry_equiv_pos_site_id
 _symmetry_equiv_pos_as_xyz
  1  'x, y, z'
loop_
 _atom_site_type_symbol
 _atom_site_label
 _atom_site_symmetry_multiplicity
 _atom_site_fract_x
 _atom_site_fract_y
 _atom_site_fract_z
 _atom_site_occupancy
  Ga  Ga0  1  0.00080931  0.53919708  0.60198396  1
  Ga  Ga1  1  0.49907762  0.46082842  0.10210150  1
  Ga  Ga2  1  0.50064395  0.96088290  0.39803619  1
  Ga  Ga3  1  0.99870522  0.03880012  0.89742609  1
  Ga  Ga4  1  0.22367263  0.73665360  0.64446307  1
  Ga  Ga5  1  0.27661657  0.26461258  0.14469005  1
  Ga  Ga6  1  0.72345706  0.76479004  0.35543936  1
  Ga  Ga7  1  0.77708877  0.23489171  0.85529385  1
  As  As0  1  0.07991741  0.57354843  0.74627032  1
  As  As1  1  0.42045332  0.42663090  0.24647510  1
  As  As2  1  0.57955667  0.92670127  0.25363320  1
  As  As3  1  0.92108947  0.07311782  0.75354671  1
  As  As4  1  0.43539728  0.93449835  0.69327679  1
  As  As5  1  0.06388482  0.06460624  0.19400705  1
  As  As6  1  0.93613636  0.56462249  0.30599623  1
  As  As7  1  0.56367833  0.43451579  0.80575783  1
  As  As8  1  0.78579912  0.34767509  0.55104044  1
  As  As9  1  0.71430944  0.65236336  0.05115068  1
  As  As10  1  0.28575319  0.15235720  0.44898427  1
  As  As11  1  0.21383824  0.84780033  0.94915113  1
  As  As12  1  0.28252469  0.59451198  0.52089247  1
  As  As13  1  0.21760882  0.40564704  0.02068075  1
  As  As14  1  0.78232476  0.90573054  0.47940185  1
  As  As15  1  0.71800789  0.09440778  0.97946575  1
  H  H0  1  0.70043912  0.39618803  0.45525073  1
  H  H1  1  0.79974651  0.60389292  0.95515351  1
  H  H2  1  0.20044645  0.10379720  0.54481949  1
  H  H3  1  0.29971071  0.89615080  0.04483071  1
  H  H4  1  0.59647500  0.07785218  0.67756512  1
  H  H5  1  0.90313782  0.92160477  0.17759977  1
  H  H6  1  0.09689219  0.42161331  0.32244186  1
  H  H7  1  0.40300335  0.57861432  0.82222784  1
  H  H8  1  0.13317437  0.55990291  0.84762801  1
  H  H9  1  0.36661892  0.44015005  0.34771250  1
  H  H10  1  0.63342924  0.94016038  0.15234450  1
  H  H11  1  0.86631223  0.05976556  0.65244437  1
  H  H12  1  0.85053323  0.60982178  0.77528818  1
  H  H13  1  0.64981333  0.38967316  0.27545877  1
  H  H14  1  0.35021366  0.88972624  0.22456051  1
  H  H15  1  0.15010042  0.11060638  0.72438610  1
  H  H16  1  0.11739028  0.73098573  0.49579411  1
  H  H17  1  0.38259430  0.26892073  0.99572841  1
  H  H18  1  0.61738582  0.76894592  0.50429649  1
  H  H19  1  0.88258636  0.23118593  0.00428822  1
  H  H20  1  0.19831439  0.44884322  0.81002802  1
  H  H21  1  0.30147658  0.55126384  0.31014703  1
  H  H22  1  0.69848989  0.05126349  0.18986169  1
  H  H23  1  0.80137761  0.94865985  0.69023272  1
  H  H24  1  0.49019599  0.00743650  0.78788898  1
  H  H25  1  0.01030834  0.99174023  0.28863442  1
  H  H26  1  0.98971097  0.49172717  0.21138534  1
  H  H27  1  0.51020603  0.50825634  0.71133394  1
  H  H28  1  0.53776732  0.34766387  0.55626891  1
  H  H29  1  0.96228314  0.65236632  0.05619732  1
  H  H30  1  0.03774612  0.15234862  0.44379895  1
  H  H31  1  0.46236370  0.84790717  0.94353931  1
  H  H32  1  0.95818162  0.71432382  0.79587439  1
  H  H33  1  0.54171124  0.28587559  0.29593513  1
  H  H34  1  0.45833470  0.78595719  0.20411022  1
  H  H35  1  0.04185785  0.21436241  0.70395609  1
  H  H36  1  0.43696032  0.11797521  0.65435835  1
  H  H37  1  0.06295417  0.88193948  0.15435254  1
  H  H38  1  0.93706611  0.38192958  0.34569117  1
  H  H39  1  0.56312603  0.61683422  0.84540226  1
  H  H40  1  0.16241815  0.65606332  0.43499669  1
  H  H41  1  0.33776315  0.34370792  0.93487095  1
  H  H42  1  0.66201277  0.84360008  0.56519785  1
  H  H43  1  0.83768648  0.15643976  0.06518519  1
  H  H44  1  0.48871299  0.59588553  0.46415295  1
  H  H45  1  0.01144116  0.40402446  0.96419680  1
  H  H46  1  0.98859922  0.90408899  0.53583222  1
  H  H47  1  0.51135413  0.09598963  0.03589698  1
  H  H48  1  0.53357583  0.03058962  0.61177412  1
  H  H49  1  0.96663793  0.96988055  0.11202314  1
  H  H50  1  0.03337645  0.46982194  0.38800211  1
  H  H51  1  0.46626509  0.53010175  0.88787351  1
  H  H52  1  0.90325658  0.70465805  0.72396031  1
  H  H53  1  0.59661058  0.29544580  0.22394222  1
  H  H54  1  0.40341401  0.79547691  0.27609184  1
  H  H55  1  0.09649027  0.20466788  0.77593285  1
  H  H56  1  0.32975187  0.04907989  0.76696969  1
  H  H57  1  0.17073920  0.95048775  0.26724693  1
  H  H58  1  0.82928185  0.45043673  0.23278117  1
  H  H59  1  0.67054282  0.54947435  0.73268123  1
  H  H60  1  0.47294360  0.47601845  0.50249953  1
  H  H61  1  0.02707379  0.52392279  0.00252252  1
  H  H62  1  0.97295209  0.02398989  0.49748064  1
  H  H63  1  0.52721651  0.97623203  0.99754661  1
  H  H64  1  0.76230211  0.26537329  0.45578532  1
  H  H65  1  0.73850413  0.73498837  0.95600632  1
  H  H66  1  0.26223458  0.23465141  0.54423062  1
  H  H67  1  0.23788396  0.76524096  0.04432948  1
  H  H68  1  0.60570773  0.29445666  0.61924908  1
  H  H69  1  0.89419208  0.70548661  0.11922003  1
  H  H70  1  0.10596525  0.20547040  0.38078247  1
  H  H71  1  0.39187999  0.79457141  0.88063761  1
  H  H72  1  0.27241269  0.75394911  0.46146357  1
  H  H73  1  0.22758668  0.24598986  0.96147974  1
  H  H74  1  0.77238579  0.74604662  0.53855480  1
  H  H75  1  0.72749817  0.25419146  0.03863060  1
  H  H76  1  0.87375964  0.37367269  0.45360516  1
  H  H77  1  0.62638263  0.62647553  0.95391046  1
  H  H78  1  0.37372596  0.12634561  0.54632913  1
  H  H79  1  0.12644177  0.87358900  0.04652059  1
  H  H80  1  0.60428144  0.21915360  0.55556046  1
  H  H81  1  0.89573960  0.78090788  0.05550519  1
  H  H82  1  0.10422378  0.28085158  0.44447716  1
  H  H83  1  0.39581803  0.71927104  0.94443233  1
  H  H84  1  0.35299805  0.91942633  0.79264342  1
  H  H85  1  0.14681459  0.08018562  0.29303462  1
  H  H86  1  0.85320220  0.58018474  0.20699690  1
  H  H87  1  0.64690763  0.41995376  0.70670749  1
  H  H88  1  0.37971859  0.49529201  0.43990192  1
  H  H89  1  0.12021309  0.50477455  0.93979615  1
  H  H90  1  0.87978973  0.00478487  0.56021394  1
  H  H91  1  0.62000227  0.99521847  0.06027974  1
  H  H92  1  0.02591014  0.45571831  0.82629089  1
  H  H93  1  0.47396986  0.54433466  0.32636101  1
  H  H94  1  0.52602666  0.04432492  0.17364499  1
  H  H95  1  0.97380437  0.95556510  0.67357393  1
  H  H96  1  0.36049211  0.30638838  0.70669684  1
  H  H97  1  0.13878166  0.69370553  0.20672228  1
  H  H98  1  0.86094824  0.19354225  0.29323240  1
  H  H99  1  0.27492125  0.34399731  0.65695822  1
  H  H100  1  0.22496747  0.65605558  0.15709103  1
  H  H101  1  0.77510922  0.15616055  0.34304732  1
  C  C0  1  0.39723194  0.98320876  0.76907955  1
  C  C1  1  0.10303542  0.01614401  0.26959665  1
  C  C2  1  0.89697813  0.51609238  0.23042847  1
  C  C3  1  0.60289418  0.48378823  0.73028442  1
  C  C4  1  0.11394884  0.50034402  0.81581428  1
  C  C5  1  0.38586860  0.49982747  0.31592262  1
  C  C6  1  0.61412687  0.99981417  0.18411138  1
  C  C7  1  0.88571955  0.00005759  0.68418468  1
  C  C8  1  0.77985919  0.34543248  0.46932875  1
  C  C9  1  0.72049981  0.65477808  0.96932475  1
  C  C10  1  0.27983569  0.15459062  0.53067798  1
  C  C11  1  0.22035473  0.84532371  0.03080359  1
  C  C12  1  0.19825649  0.69598473  0.47251514  1
  C  C13  1  0.30180621  0.30389049  0.97246193  1
  C  C14  1  0.69810056  0.80393420  0.52758585  1
  C  C15  1  0.80175742  0.19627961  0.02763318  1
  C  C16  1  0.42224266  0.53317771  0.47660547  1
  C  C17  1  0.07777519  0.46682317  0.97656068  1
  C  C18  1  0.92222944  0.96687804  0.52344719  1
  C  C19  1  0.57783857  0.03324784  0.02352930  1
  C  C20  1  0.92941073  0.66184466  0.76189368  1
  C  C21  1  0.57062111  0.33826036  0.26190011  1
  C  C22  1  0.42943246  0.83832328  0.23813119  1
  C  C23  1  0.07072805  0.16193461  0.73794102  1
  C  C24  1  0.61358008  0.29698254  0.57362775  1
  C  C25  1  0.88646719  0.70306115  0.07359455  1
  C  C26  1  0.11360712  0.20302162  0.42640757  1
  C  C27  1  0.38643059  0.79712113  0.92636007  1
  C  C28  1  0.50865741  0.05454346  0.65447014  1
  C  C29  1  0.99113422  0.94527620  0.15464758  1
  C  C30  1  0.00887909  0.44525760  0.34538243  1
  C  C31  1  0.49058281  0.55419765  0.84512738  1
  S  S0  1  0.94216309  0.26025128  0.58431881  1
  S  S1  1  0.55758159  0.73995808  0.08397509  1
  S  S2  1  0.44220375  0.23967965  0.41551007  1
  S  S3  1  0.05911810  0.75896035  0.91583834  1
  S  S4  1  0.03430430  0.45012777  0.68601555  1
  S  S5  1  0.46523155  0.54997556  0.18589620  1
  S  S6  1  0.53471822  0.05005081  0.31407818  1
  S  S7  1  0.96634936  0.95006092  0.81382073  1
  S  S8  1  0.24309447  0.91395197  0.65012378  1
  S  S9  1  0.25436248  0.08728012  0.14987573  1
  S  S10  1  0.74564716  0.58737733  0.35003020  1
  S  S11  1  0.75359106  0.41273762  0.85013982  1
  S  S12  1  0.15065601  0.46353675  0.54007530  1
  S  S13  1  0.34947343  0.53637408  0.03997195  1
  S  S14  1  0.65067866  0.03644274  0.45982469  1
  S  S15  1  0.84980146  0.96389123  0.96031528  1
  S  S16  1  0.78740193  0.51495703  0.57441744  1
  S  S17  1  0.71251135  0.48501970  0.07418035  1
  S  S18  1  0.28727247  0.98503321  0.42563142  1
  S  S19  1  0.21224686  0.01481558  0.92571500  1
  S  S20  1  0.55887185  0.80369085  0.69215516  1
  S  S21  1  0.93632979  0.19384219  0.19421183  1
  S  S22  1  0.06394761  0.69369596  0.30555095  1
  S  S23  1  0.43504959  0.30635025  0.80596538  1
  S  S24  1  0.25883871  0.66398196  0.73273794  1
  S  S25  1  0.24148138  0.33635533  0.23290022  1
  S  S26  1  0.75849699  0.83626073  0.26706132  1
  S  S27  1  0.74214123  0.16392845  0.76718498  1
  S  S28  1  0.01962323  0.71306067  0.61056147  1
  S  S29  1  0.48043943  0.28684583  0.11033103  1
  S  S30  1  0.51943426  0.78687709  0.38949779  1
  S  S31  1  0.98050199  0.21315734  0.88982561  1
  S  S32  1  0.39016132  0.66670912  0.59005108  1
  S  S33  1  0.11022155  0.33420262  0.09008846  1
  S  S34  1  0.88978025  0.83420561  0.40998590  1
  S  S35  1  0.61050929  0.16587923  0.91016712  1
  O  O0  1  0.34162113  0.29288944  0.66713389  1
  O  O1  1  0.15849521  0.70745179  0.16721667  1
  O  O2  1  0.84135155  0.20758860  0.33269806  1
loop_
_geom_bond_atom_site_label_1
_geom_bond_atom_site_label_2
_geom_bond_distance
_geom_bond_site_symmetry_2
Ga0 S28 2.259028 1_555
Ga0 S16 2.300977 1_455
Ga0 S4 2.337779 1_555
Ga0 S12 2.341123 1_555
Ga1 S29 2.259467 1_555
Ga1 S17 2.302065 1_555
Ga1 S5 2.334017 1_555
Ga1 S13 2.343991 1_555
Ga2 S30 2.260671 1_555
Ga2 S18 2.299177 1_555
Ga2 S6 2.337111 1_565
Ga2 S14 2.342367 1_565
Ga3 S31 2.262649 1_555
Ga3 S19 2.306733 1_655
Ga3 S7 2.326031 1_545
Ga3 S15 2.345346 1_545
Ga4 S28 2.259185 1_555
Ga4 S8 2.298314 1_555
Ga4 S32 2.322712 1_555
Ga4 S24 2.335403 1_555
Ga5 S29 2.256876 1_555
Ga5 S9 2.300670 1_555
Ga5 S33 2.324598 1_555
Ga5 S25 2.329072 1_555
Ga6 S30 2.255969 1_555
Ga6 S10 2.301987 1_555
Ga6 S34 2.322943 1_555
Ga6 S26 2.330545 1_555
Ga7 S31 2.255424 1_555
Ga7 S11 2.308487 1_555
Ga7 S27 2.323381 1_555
Ga7 S35 2.324659 1_555
As0 C4 1.942095 1_555
As0 C20 1.949623 1_455
As0 S24 2.192702 1_555
As0 S4 2.196435 1_555
As1 C5 1.941023 1_555
As1 C21 1.947058 1_555
As1 S25 2.192958 1_555
As1 S5 2.197514 1_555
As2 C6 1.941398 1_555
As2 C22 1.947422 1_555
As2 S26 2.193014 1_555
As2 S6 2.196333 1_565
As3 C7 1.940636 1_555
As3 C23 1.946463 1_655
As3 S7 2.191721 1_545
As3 S27 2.195869 1_555
As4 C28 1.952627 1_565
As4 C0 1.955738 1_555
As4 S20 2.106489 1_555
As4 S8 2.236649 1_555
As5 C29 1.951055 1_445
As5 C1 1.952438 1_555
As5 S21 2.115600 1_455
As5 S9 2.232427 1_555
As6 C30 1.951025 1_655
As6 C2 1.952715 1_555
As6 S22 2.115743 1_655
As6 S10 2.231637 1_555
As7 C3 1.952541 1_555
As7 C31 1.955173 1_555
As7 S23 2.111728 1_555
As7 S11 2.230841 1_555
As8 C8 1.953243 1_555
As8 C24 1.953353 1_555
As8 S0 2.111716 1_555
As8 S16 2.227926 1_555
As9 C25 1.953126 1_555
As9 C9 1.955920 1_554
As9 S1 2.110597 1_555
As9 S17 2.226225 1_555
As10 C10 1.952665 1_555
As10 C26 1.953520 1_555
As10 S2 2.112195 1_555
As10 S18 2.228288 1_545
As11 C11 1.952052 1_556
As11 C27 1.958123 1_555
As11 S3 2.109651 1_555
As11 S19 2.224535 1_565
As12 C16 1.944628 1_555
As12 C12 1.946770 1_555
As12 S32 2.193653 1_555
As12 S12 2.208302 1_555
As13 C17 1.943968 1_554
As13 C13 1.946083 1_554
As13 S33 2.190314 1_555
As13 S13 2.207288 1_555
As14 C18 1.943804 1_555
As14 C14 1.945555 1_555
As14 S34 2.191710 1_555
As14 S14 2.206785 1_565
As15 C19 1.943978 1_556
As15 C15 1.945605 1_556
As15 S35 2.190908 1_555
As15 S15 2.203259 1_545
H96 O0 0.980458 1_555
H97 O1 0.980873 1_555
H98 O2 0.980545 1_555
H99 O0 0.978937 1_555
H100 O1 0.979267 1_555
H101 O2 0.979193 1_555
C0 H84 1.093879 1_555
C0 H56 1.095209 1_565
C0 H24 1.097174 1_565
C1 H85 1.093799 1_555
C1 H57 1.094741 1_545
C1 H25 1.096971 1_545
C2 H86 1.093823 1_555
C2 H58 1.094741 1_555
C2 H26 1.096989 1_555
C3 H87 1.093887 1_555
C3 H59 1.094908 1_555
C3 H27 1.096866 1_555
C4 H92 1.096847 1_555
C4 H20 1.097017 1_555
C4 H8 1.098436 1_555
C5 H21 1.096883 1_555
C5 H93 1.096938 1_555
C5 H9 1.098433 1_555
C6 H22 1.096821 1_565
C6 H94 1.096932 1_565
C6 H10 1.098322 1_555
C7 H23 1.096842 1_545
C7 H95 1.097094 1_545
C7 H11 1.098475 1_555
C8 H76 1.092806 1_555
C8 H0 1.095811 1_555
C8 H64 1.096590 1_555
C9 H77 1.093359 1_555
C9 H1 1.095761 1_555
C9 H65 1.097255 1_555
C10 H78 1.092853 1_555
C10 H2 1.095835 1_555
C10 H66 1.096598 1_555
C11 H79 1.093018 1_555
C11 H3 1.095734 1_555
C11 H67 1.096445 1_555
C12 H16 1.093316 1_555
C12 H72 1.096478 1_555
C12 H40 1.097061 1_555
C13 H17 1.093190 1_555
C13 H73 1.096526 1_555
C13 H41 1.097239 1_555
C14 H18 1.093230 1_555
C14 H74 1.096582 1_555
C14 H42 1.097480 1_555
C15 H19 1.093204 1_555
C15 H75 1.096491 1_555
C15 H43 1.097185 1_555
C16 H60 1.092976 1_555
C16 H88 1.094329 1_555
C16 H44 1.096898 1_555
C17 H61 1.093019 1_556
C17 H89 1.094420 1_555
C17 H45 1.096920 1_555
C18 H62 1.093027 1_565
C18 H90 1.094484 1_565
C18 H46 1.096944 1_555
C19 H63 1.092925 1_544
C19 H91 1.094263 1_545
C19 H47 1.096852 1_555
C20 H52 1.094277 1_555
C20 H12 1.096222 1_555
C20 H32 1.097348 1_555
C21 H53 1.094200 1_555
C21 H13 1.095660 1_555
C21 H33 1.097052 1_555
C22 H54 1.094204 1_555
C22 H14 1.095641 1_555
C22 H34 1.096989 1_555
C23 H55 1.094310 1_555
C23 H15 1.095705 1_555
C23 H35 1.096875 1_555
C24 H68 1.093191 1_555
C24 H28 1.095429 1_555
C24 H80 1.096559 1_555
C25 H69 1.093351 1_555
C25 H29 1.095414 1_555
C25 H81 1.096563 1_555
C26 H70 1.093264 1_555
C26 H30 1.095403 1_555
C26 H82 1.096567 1_555
C27 H71 1.094122 1_555
C27 H31 1.095750 1_555
C27 H83 1.096617 1_555
C28 H48 1.095537 1_555
C28 H4 1.096337 1_555
C28 H36 1.098099 1_555
C29 H49 1.095667 1_555
C29 H5 1.096257 1_555
C29 H37 1.098041 1_655
C30 H50 1.095652 1_555
C30 H6 1.096238 1_555
C30 H38 1.097994 1_455
C31 H51 1.095555 1_555
C31 H7 1.095850 1_555
C31 H39 1.096428 1_555
