# generated using pymatgen
data_CeRh2O5
_symmetry_space_group_name_H-M   'P 1'
_cell_length_a   5.13972500
_cell_length_b   7.20323790
_cell_length_c   9.82987707
_cell_angle_alpha   90.00000000
_cell_angle_beta   90.00000000
_cell_angle_gamma   90.00000000
_symmetry_Int_Tables_number   1
_chemical_formula_structural   CeRh2O5
_chemical_formula_sum   'Ce4 Rh8 O20'
_cell_volume   363.92821543
_cell_formula_units_Z   4
loop_
 _symmetry_equiv_pos_site_id
 _symmetry_equiv_pos_as_xyz
  1  'x, y, z'
loop_
 _atom_site_type_symbol
 _atom_site_label
 _atom_site_symmetry_multiplicity
 _atom_site_fract_x
 _atom_site_fract_y
 _atom_site_fract_z
 _atom_site_occupancy
  Ce  Ce0  1  0.29871707  0.76400479  0.25000000  1
  Ce  Ce1  1  0.20128293  0.26400479  0.25000000  1
  Ce  Ce2  1  0.70128293  0.23599521  0.75000000  1
  Ce  Ce3  1  0.79871707  0.73599521  0.75000000  1
  Rh  Rh0  1  0.25034104  0.91719297  0.55894274  1
  Rh  Rh1  1  0.24965896  0.41719297  0.94105726  1
  Rh  Rh2  1  0.74965896  0.08280703  0.05894274  1
  Rh  Rh3  1  0.75034104  0.58280703  0.44105726  1
  Rh  Rh4  1  0.74965896  0.08280703  0.44105726  1
  Rh  Rh5  1  0.75034104  0.58280703  0.05894274  1
  Rh  Rh6  1  0.25034104  0.91719297  0.94105726  1
  Rh  Rh7  1  0.24965896  0.41719297  0.55894274  1
  O  O0  1  0.56652291  0.83361755  0.44449855  1
  O  O1  1  0.93347709  0.33361755  0.05550145  1
  O  O2  1  0.43347709  0.16638245  0.94449855  1
  O  O3  1  0.06652291  0.66638245  0.55550145  1
  O  O4  1  0.43347709  0.16638245  0.55550145  1
  O  O5  1  0.06652291  0.66638245  0.94449855  1
  O  O6  1  0.56652291  0.83361755  0.05550145  1
  O  O7  1  0.93347709  0.33361755  0.44449855  1
  O  O8  1  0.40536694  0.48349471  0.37796942  1
  O  O9  1  0.09463306  0.98349471  0.12203058  1
  O  O10  1  0.59463306  0.51650529  0.87796942  1
  O  O11  1  0.90536694  0.01650529  0.62203058  1
  O  O12  1  0.59463306  0.51650529  0.62203058  1
  O  O13  1  0.90536694  0.01650529  0.87796942  1
  O  O14  1  0.40536694  0.48349471  0.12203058  1
  O  O15  1  0.09463306  0.98349471  0.37796942  1
  O  O16  1  0.58180108  0.12213225  0.25000000  1
  O  O17  1  0.91819892  0.62213225  0.25000000  1
  O  O18  1  0.41819892  0.87786775  0.75000000  1
  O  O19  1  0.08180108  0.37786775  0.75000000  1
loop_
_geom_bond_atom_site_label_1
_geom_bond_atom_site_label_2
_geom_bond_distance
_geom_bond_site_symmetry_2
Ce0 O17 2.206662 1_455
Ce0 O15 2.276471 1_555
Ce0 O9 2.276471 1_555
Ce0 O0 2.408609 1_555
Ce0 O6 2.408609 1_555
Ce0 O14 2.442455 1_555
Ce0 O8 2.442455 1_555
Ce1 O16 2.206662 1_555
Ce1 O14 2.276471 1_555
Ce1 O8 2.276471 1_555
Ce1 O7 2.408609 1_455
Ce1 O1 2.408609 1_455
Ce1 O9 2.442455 1_545
Ce1 O15 2.442455 1_545
Ce2 O19 2.206662 1_655
Ce2 O11 2.276471 1_555
Ce2 O13 2.276471 1_555
Ce2 O4 2.408609 1_555
Ce2 O2 2.408609 1_555
Ce2 O12 2.442455 1_555
Ce2 O10 2.442455 1_555
Ce3 O18 2.206662 1_555
Ce3 O12 2.276471 1_555
Ce3 O10 2.276471 1_555
Ce3 O3 2.408609 1_655
Ce3 O5 2.408609 1_655
Ce3 O13 2.442455 1_565
Ce3 O11 2.442455 1_565
O0 Rh4 2.027080 1_565
O0 Rh3 2.039049 1_555
O0 Rh0 2.066130 1_555
O1 Rh5 2.027080 1_555
O1 Rh2 2.039049 1_555
O1 Rh1 2.066130 1_654
O2 Rh6 2.027080 1_545
O2 Rh1 2.039049 1_555
O2 Rh2 2.066130 1_556
O3 Rh7 2.027080 1_555
O3 Rh0 2.039049 1_555
O3 Rh3 2.066130 1_455
O4 Rh0 2.027080 1_545
O4 Rh7 2.039049 1_555
O4 Rh4 2.066130 1_555
O5 Rh1 2.027080 1_555
O5 Rh6 2.039049 1_555
O5 Rh5 2.066130 1_456
O6 Rh2 2.027080 1_565
O6 Rh5 2.039049 1_555
O6 Rh6 2.066130 1_554
O7 Rh3 2.027080 1_555
O7 Rh4 2.039049 1_555
O7 Rh7 2.066130 1_655
O8 Rh7 2.008285 1_555
O8 Rh3 2.010005 1_555
O9 Rh6 2.008285 1_554
O9 Rh2 2.010005 1_465
O10 Rh5 2.008285 1_556
O10 Rh1 2.010005 1_555
O11 Rh4 2.008285 1_555
O11 Rh0 2.010005 1_645
O12 Rh3 2.008285 1_555
O12 Rh7 2.010005 1_555
O13 Rh2 2.008285 1_556
O13 Rh6 2.010005 1_645
O14 Rh1 2.008285 1_554
O14 Rh5 2.010005 1_555
O15 Rh0 2.008285 1_555
O15 Rh4 2.010005 1_465
O16 Rh4 2.086076 1_555
O16 Rh2 2.086076 1_555
O17 Rh3 2.086076 1_555
O17 Rh5 2.086076 1_555
O18 Rh0 2.086076 1_555
O18 Rh6 2.086076 1_555
O19 Rh1 2.086076 1_555
O19 Rh7 2.086076 1_555
