# generated using pymatgen
data_Ca3AlAs3
_symmetry_space_group_name_H-M   'P 1'
_cell_length_a   4.19991855
_cell_length_b   12.24448974
_cell_length_c   13.43329894
_cell_angle_alpha   90.00000000
_cell_angle_beta   90.00000000
_cell_angle_gamma   90.00000000
_symmetry_Int_Tables_number   1
_chemical_formula_structural   Ca3AlAs3
_chemical_formula_sum   'Ca12 Al4 As12'
_cell_volume   690.81894518
_cell_formula_units_Z   4
loop_
 _symmetry_equiv_pos_site_id
 _symmetry_equiv_pos_as_xyz
  1  'x, y, z'
loop_
 _atom_site_type_symbol
 _atom_site_label
 _atom_site_symmetry_multiplicity
 _atom_site_fract_x
 _atom_site_fract_y
 _atom_site_fract_z
 _atom_site_occupancy
  Ca  Ca0  1  0.25000000  0.85191626  0.49983861  1
  Ca  Ca1  1  0.25000000  0.35191626  0.00016139  1
  Ca  Ca2  1  0.75000000  0.14808374  0.50016139  1
  Ca  Ca3  1  0.75000000  0.22838358  0.21257667  1
  Ca  Ca4  1  0.75000000  0.43328241  0.39334369  1
  Ca  Ca5  1  0.25000000  0.56671759  0.60665631  1
  Ca  Ca6  1  0.75000000  0.93328241  0.10665631  1
  Ca  Ca7  1  0.25000000  0.06671759  0.89334369  1
  Ca  Ca8  1  0.25000000  0.27161642  0.71257667  1
  Ca  Ca9  1  0.75000000  0.72838358  0.28742333  1
  Ca  Ca10  1  0.25000000  0.77161642  0.78742333  1
  Ca  Ca11  1  0.75000000  0.64808374  -0.00016139  1
  Al  Al0  1  0.75000000  0.93917999  0.70238205  1
  Al  Al1  1  0.25000000  0.06082001  0.29761795  1
  Al  Al2  1  0.25000000  0.56082001  0.20238205  1
  Al  Al3  1  0.75000000  0.43917999  0.79761795  1
  As  As0  1  0.75000000  0.45959921  0.14915222  1
  As  As1  1  0.25000000  0.54040079  0.85084778  1
  As  As2  1  0.75000000  0.95959921  0.35084778  1
  As  As3  1  0.25000000  0.04040079  0.64915222  1
  As  As4  1  0.75000000  0.39686144  0.61542428  1
  As  As5  1  0.25000000  0.60313856  0.38457572  1
  As  As6  1  0.75000000  0.89686144  0.88457572  1
  As  As7  1  0.25000000  0.10313856  0.11542428  1
  As  As8  1  0.75000000  0.25385541  0.87493174  1
  As  As9  1  0.25000000  0.74614459  0.12506826  1
  As  As10  1  0.75000000  0.75385541  0.62506826  1
  As  As11  1  0.25000000  0.24614459  0.37493174  1
loop_
_geom_bond_atom_site_label_1
_geom_bond_atom_site_label_2
_geom_bond_distance
_geom_bond_site_symmetry_2
Al0 As10 2.495584 1_555
Al0 As6 2.501713 1_555
Al0 As3 2.541109 1_565
Al0 As3 2.541109 1_665
Al0 Ca10 3.150313 1_655
Al0 Ca10 3.150313 1_555
Al1 As11 2.495584 1_555
Al1 As7 2.501713 1_555
Al1 As2 2.541109 1_545
Al1 As2 2.541109 1_445
Al1 Ca3 3.150313 1_455
Al1 Ca3 3.150313 1_555
Al2 As9 2.495584 1_555
Al2 As5 2.501713 1_555
Al2 As0 2.541109 1_455
Al2 As0 2.541109 1_555
Al2 Ca9 3.150313 1_555
Al2 Ca9 3.150313 1_455
Al3 As8 2.495584 1_555
Al3 As4 2.501713 1_555
Al3 As1 2.541109 1_555
Al3 As1 2.541109 1_655
Al3 Ca8 3.150313 1_555
Al3 Ca8 3.150313 1_655
As0 Ca3 2.956540 1_555
As0 Ca11 3.057698 1_555
As0 Ca1 3.186548 1_655
As0 Ca1 3.186548 1_555
As0 Ca4 3.296086 1_555
As1 Ca10 2.956540 1_555
As1 Ca1 3.057698 1_556
As1 Ca11 3.186548 1_556
As1 Ca11 3.186548 1_456
As1 Ca5 3.296086 1_555
As2 Ca9 2.956540 1_555
As2 Ca2 3.057698 1_565
As2 Ca0 3.186548 1_555
As2 Ca0 3.186548 1_655
As2 Ca6 3.296086 1_555
As3 Ca8 2.956540 1_555
As3 Ca0 3.057698 1_545
As3 Ca2 3.186548 1_455
As3 Ca2 3.186548 1_555
As3 Ca7 3.296086 1_555
As4 Ca8 2.909444 1_655
As4 Ca8 2.909444 1_555
As4 Ca5 2.957918 1_555
As4 Ca5 2.957918 1_655
As4 Ca4 3.016423 1_555
As4 Ca2 3.417088 1_555
As5 Ca9 2.909444 1_455
As5 Ca9 2.909444 1_555
As5 Ca4 2.957918 1_455
As5 Ca4 2.957918 1_555
As5 Ca5 3.016423 1_555
As5 Ca0 3.417088 1_555
As6 Ca10 2.909444 1_655
As6 Ca10 2.909444 1_555
As6 Ca7 2.957918 1_565
As6 Ca7 2.957918 1_665
As6 Ca6 3.016423 1_556
As6 Ca11 3.417088 1_556
As7 Ca3 2.909444 1_455
As7 Ca3 2.909444 1_555
As7 Ca6 2.957918 1_545
As7 Ca6 2.957918 1_445
As7 Ca7 3.016423 1_554
As7 Ca1 3.417088 1_555
As8 Ca1 2.946435 1_656
As8 Ca1 2.946435 1_556
As8 Ca8 3.035412 1_655
As8 Ca8 3.035412 1_555
As8 Ca7 3.117940 1_555
As8 Ca7 3.117940 1_655
As9 Ca11 2.946435 1_455
As9 Ca11 2.946435 1_555
As9 Ca9 3.035412 1_455
As9 Ca9 3.035412 1_555
As9 Ca6 3.117940 1_455
As9 Ca6 3.117940 1_555
As10 Ca0 2.946435 1_655
As10 Ca0 2.946435 1_555
As10 Ca10 3.035412 1_555
As10 Ca10 3.035412 1_655
As10 Ca5 3.117940 1_555
As10 Ca5 3.117940 1_655
As11 Ca2 2.946435 1_455
As11 Ca2 2.946435 1_555
As11 Ca3 3.035412 1_455
As11 Ca3 3.035412 1_555
As11 Ca4 3.117940 1_555
As11 Ca4 3.117940 1_455
