# generated using pymatgen
data_Na2CO6
_symmetry_space_group_name_H-M   'P 1'
_cell_length_a   8.73930786
_cell_length_b   8.73930786
_cell_length_c   9.46310935
_cell_angle_alpha   89.59702747
_cell_angle_beta   89.59702747
_cell_angle_gamma   133.25605273
_symmetry_Int_Tables_number   1
_chemical_formula_structural   Na2CO6
_chemical_formula_sum   'Na8 C4 O24'
_cell_volume   526.29486828
_cell_formula_units_Z   4
loop_
 _symmetry_equiv_pos_site_id
 _symmetry_equiv_pos_as_xyz
  1  'x, y, z'
loop_
 _atom_site_type_symbol
 _atom_site_label
 _atom_site_symmetry_multiplicity
 _atom_site_fract_x
 _atom_site_fract_y
 _atom_site_fract_z
 _atom_site_occupancy
  Na  Na0  1  0.77868100  0.27805400  0.24761600  1
  Na  Na1  1  0.77714500  0.27667100  0.74225200  1
  Na  Na2  1  0.27667100  0.77714500  0.24225200  1
  Na  Na3  1  0.27805400  0.77868100  0.74761600  1
  Na  Na4  1  0.51996300  0.51999100  0.50081500  1
  Na  Na5  1  0.02550000  0.01953200  0.50229100  1
  Na  Na6  1  0.01953200  0.02550000  0.00229100  1
  Na  Na7  1  0.51999100  0.51996300  0.00081500  1
  C  C0  1  0.36188300  0.18255500  0.24964700  1
  C  C1  1  0.68487000  0.86015200  0.74958100  1
  C  C2  1  0.86015200  0.68487000  0.24958100  1
  C  C3  1  0.18255500  0.36188300  0.74964700  1
  O  O0  1  0.44015600  0.11055000  0.30089900  1
  O  O1  1  0.61540800  0.93951200  0.69516400  1
  O  O2  1  0.93951200  0.61540800  0.19516400  1
  O  O3  1  0.11055000  0.44015600  0.80089900  1
  O  O4  1  0.34454600  0.18741500  0.11447600  1
  O  O5  1  0.69259000  0.84949200  0.88523000  1
  O  O6  1  0.84949200  0.69259000  0.38523000  1
  O  O7  1  0.18741500  0.34454600  0.61447600  1
  O  O8  1  0.48601100  0.24252700  0.65535100  1
  O  O9  1  0.73427100  0.97623400  0.34592800  1
  O  O10  1  0.97623400  0.73427100  0.84592800  1
  O  O11  1  0.24252700  0.48601100  0.15535100  1
  O  O12  1  0.32995200  0.06174400  0.60846900  1
  O  O13  1  0.54999700  0.82636400  0.39237800  1
  O  O14  1  0.82636400  0.54999700  0.89237800  1
  O  O15  1  0.06174400  0.32995200  0.10846900  1
  O  O16  1  0.30102400  0.24865900  0.33285400  1
  O  O17  1  0.74506300  0.79202600  0.66780100  1
  O  O18  1  0.79202600  0.74506300  0.16780100  1
  O  O19  1  0.24865900  0.30102400  0.83285400  1
  O  O20  1  0.46455600  0.02343900  0.95686100  1
  O  O21  1  0.02343900  0.46455600  0.45686100  1
  O  O22  1  0.63164500  0.09382400  0.01538700  1
  O  O23  1  0.09382400  0.63164500  0.51538700  1
loop_
_geom_bond_atom_site_label_1
_geom_bond_atom_site_label_2
_geom_bond_distance
_geom_bond_site_symmetry_2
Na0 O0 2.276595 1_555
Na0 O2 2.281309 1_555
Na0 O22 2.515345 1_555
Na0 O15 2.543071 1_655
Na0 O21 2.545508 1_655
Na0 O9 2.555578 1_545
Na1 O3 2.273234 1_655
Na1 O1 2.279882 1_545
Na1 O8 2.496235 1_555
Na1 O14 2.560713 1_555
Na1 O22 2.821694 1_556
Na1 O20 2.838645 1_555
Na2 O0 2.273234 1_565
Na2 O2 2.279882 1_455
Na2 O11 2.496235 1_555
Na2 O13 2.560713 1_555
Na2 O23 2.821694 1_555
Na2 O21 2.838645 1_555
Na3 O3 2.276595 1_555
Na3 O1 2.281309 1_555
Na3 O23 2.515345 1_555
Na3 O12 2.543071 1_565
Na3 O20 2.545508 1_565
Na3 O10 2.555578 1_455
Na4 O16 2.384902 1_555
Na4 O17 2.388695 1_555
Na4 O6 2.396708 1_555
Na4 O7 2.404113 1_555
Na4 O8 2.657900 1_555
Na4 O13 2.699114 1_555
Na5 O17 2.374162 1_445
Na5 O16 2.381371 1_555
Na5 O7 2.398394 1_555
Na5 O6 2.408754 1_445
Na5 O12 2.631080 1_555
Na5 O9 2.747966 1_445
Na6 O18 2.374162 1_445
Na6 O19 2.381371 1_554
Na6 O4 2.398394 1_555
Na6 O5 2.408754 1_444
Na6 O15 2.631080 1_555
Na6 O10 2.747966 1_444
Na7 O19 2.384902 1_554
Na7 O18 2.388695 1_555
Na7 O5 2.396708 1_554
Na7 O4 2.404113 1_555
Na7 O11 2.657900 1_555
Na7 O14 2.699114 1_554
C0 O16 1.287723 1_555
C0 O4 1.292956 1_555
C0 O0 1.299793 1_555
C1 O17 1.288448 1_555
C1 O5 1.291963 1_555
C1 O1 1.300419 1_555
C2 O18 1.288448 1_555
C2 O6 1.291963 1_555
C2 O2 1.300419 1_555
C3 O19 1.287723 1_555
C3 O7 1.292956 1_555
C3 O3 1.299793 1_555
O10 O14 1.262262 1_555
O11 O15 1.272111 1_555
O12 O8 1.272111 1_555
O13 O9 1.262262 1_555
O20 O22 1.265920 1_556
O21 O23 1.265920 1_555
