# generated using pymatgen
data_Li3MnCoO5
_symmetry_space_group_name_H-M   'P 1'
_cell_length_a   6.54343889
_cell_length_b   6.54343889
_cell_length_c   9.86517567
_cell_angle_alpha   79.35790896
_cell_angle_beta   79.35790896
_cell_angle_gamma   25.63911462
_symmetry_Int_Tables_number   1
_chemical_formula_structural   Li3MnCoO5
_chemical_formula_sum   'Li6 Mn2 Co2 O10'
_cell_volume   179.46215917
_cell_formula_units_Z   2
loop_
 _symmetry_equiv_pos_site_id
 _symmetry_equiv_pos_as_xyz
  1  'x, y, z'
loop_
 _atom_site_type_symbol
 _atom_site_label
 _atom_site_symmetry_multiplicity
 _atom_site_fract_x
 _atom_site_fract_y
 _atom_site_fract_z
 _atom_site_occupancy
  Li  Li0  1  0.70687700  0.70687700  0.89392000  1
  Li  Li1  1  0.09408800  0.09408800  0.70466000  1
  Li  Li2  1  0.30323600  0.30323600  0.08463800  1
  Li  Li3  1  0.89923200  0.89923200  0.30575000  1
  Li  Li4  1  0.49748400  0.49748400  0.50555900  1
  Li  Li5  1  0.39762600  0.39762600  0.80400800  1
  Mn  Mn0  1  0.99521400  0.99521400  0.99610900  1
  Mn  Mn1  1  0.19991300  0.19991300  0.40211500  1
  Co  Co0  1  0.81162100  0.81162100  0.61358300  1
  Co  Co1  1  0.60106000  0.60106000  0.19601300  1
  O  O0  1  0.54376800  0.54376800  0.87022400  1
  O  O1  1  0.94529300  0.94529300  0.64343200  1
  O  O2  1  0.14149500  0.14149500  0.05483900  1
  O  O3  1  0.74322100  0.74322100  0.26913200  1
  O  O4  1  0.33642800  0.33642800  0.45388800  1
  O  O5  1  0.86056700  0.86056700  0.95693500  1
  O  O6  1  0.24917100  0.24917100  0.73629700  1
  O  O7  1  0.45725400  0.45725400  0.13578000  1
  O  O8  1  0.06070700  0.06070700  0.34286800  1
  O  O9  1  0.65574400  0.65574400  0.53025100  1
loop_
_geom_bond_atom_site_label_1
_geom_bond_atom_site_label_2
_geom_bond_distance
_geom_bond_site_symmetry_2
Li0 O6 2.121147 1_655
Li0 O6 2.121147 1_565
Li0 O0 2.138011 1_555
Li0 O5 2.166684 1_555
Li0 O2 2.196007 1_656
Li0 O2 2.196007 1_566
Li1 O6 2.060985 1_555
Li1 O1 2.098672 1_445
Li1 O0 2.188765 1_545
Li1 O0 2.188765 1_455
Li1 O9 2.274762 1_545
Li1 O9 2.274762 1_455
Li2 O5 1.970062 1_544
Li2 O5 1.970062 1_454
Li2 O7 2.119631 1_555
Li2 O2 2.139165 1_555
Li2 O3 2.340742 1_545
Li2 O3 2.340742 1_455
Li3 O3 2.089548 1_555
Li3 O4 2.107669 1_565
Li3 O4 2.107669 1_655
Li3 O8 2.160015 1_665
Li3 O7 2.235498 1_655
Li3 O7 2.235498 1_565
Li4 O1 2.014528 1_455
Li4 O1 2.014528 1_545
Li4 O9 2.079440 1_555
Li4 O8 2.200969 1_655
Li4 O8 2.200969 1_565
Li4 O4 2.209171 1_555
Li5 O5 2.082628 1_545
Li5 O5 2.082628 1_455
Li5 O0 2.089471 1_555
Li5 O6 2.124669 1_555
Li5 O1 2.149959 1_545
Li5 O1 2.149959 1_455
Mn0 O5 1.831128 1_555
Mn0 O0 1.934581 1_655
Mn0 O0 1.934581 1_565
Mn0 O7 1.997070 1_566
Mn0 O7 1.997070 1_656
Mn0 O2 2.056624 1_666
Mn1 O4 1.905920 1_555
Mn1 O9 1.937427 1_545
Mn1 O9 1.937427 1_455
Mn1 O3 1.964634 1_455
Mn1 O3 1.964634 1_545
Mn1 O8 1.972399 1_555
Co0 O1 1.785086 1_555
Co0 O6 1.960379 1_565
Co0 O6 1.960379 1_655
Co0 O4 2.121595 1_565
Co0 O4 2.121595 1_655
Co0 O9 2.291663 1_555
Co1 O2 2.010369 1_565
Co1 O2 2.010369 1_655
Co1 O7 2.033118 1_555
Co1 O8 2.046795 1_565
Co1 O8 2.046795 1_655
Co1 O3 2.075290 1_555
