# generated using pymatgen
data_Na2Mg2NiH6
_symmetry_space_group_name_H-M   'P 1'
_cell_length_a   5.40767400
_cell_length_b   8.41891000
_cell_length_c   11.38246400
_cell_angle_alpha   90.00000000
_cell_angle_beta   90.00000000
_cell_angle_gamma   90.00000000
_symmetry_Int_Tables_number   1
_chemical_formula_structural   Na2Mg2NiH6
_chemical_formula_sum   'Na8 Mg8 Ni4 H24'
_cell_volume   518.20625958
_cell_formula_units_Z   4
loop_
 _symmetry_equiv_pos_site_id
 _symmetry_equiv_pos_as_xyz
  1  'x, y, z'
loop_
 _atom_site_type_symbol
 _atom_site_label
 _atom_site_symmetry_multiplicity
 _atom_site_fract_x
 _atom_site_fract_y
 _atom_site_fract_z
 _atom_site_occupancy
  Na  Na0  1  0.95284000  0.75000000  0.39147100  1
  Na  Na1  1  0.54716000  0.75000000  0.89147100  1
  Na  Na2  1  0.04716000  0.25000000  0.60852900  1
  Na  Na3  1  0.45284000  0.25000000  0.10852900  1
  Na  Na4  1  0.44467400  0.75000000  0.16848600  1
  Na  Na5  1  0.05532600  0.75000000  0.66848600  1
  Na  Na6  1  0.55532600  0.25000000  0.83151400  1
  Na  Na7  1  0.94467400  0.25000000  0.33151400  1
  Mg  Mg0  1  0.43977100  0.49306600  0.37208600  1
  Mg  Mg1  1  0.06022900  0.00693400  0.87208600  1
  Mg  Mg2  1  0.56022900  0.99306600  0.62791400  1
  Mg  Mg3  1  0.93977100  0.50693400  0.12791400  1
  Mg  Mg4  1  0.56022900  0.50693400  0.62791400  1
  Mg  Mg5  1  0.93977100  0.99306600  0.12791400  1
  Mg  Mg6  1  0.43977100  0.00693400  0.37208600  1
  Mg  Mg7  1  0.06022900  0.49306600  0.87208600  1
  Ni  Ni0  1  0.06128400  0.75000000  0.00113800  1
  Ni  Ni1  1  0.43871600  0.75000000  0.50113800  1
  Ni  Ni2  1  0.93871600  0.25000000  0.99886200  1
  Ni  Ni3  1  0.56128400  0.25000000  0.49886200  1
  H  H0  1  0.84819000  0.75000000  0.09624400  1
  H  H1  1  0.65181000  0.75000000  0.59624400  1
  H  H2  1  0.15181000  0.25000000  0.90375600  1
  H  H3  1  0.34819000  0.25000000  0.40375600  1
  H  H4  1  0.23635700  0.60090900  0.02195700  1
  H  H5  1  0.26364300  0.89909100  0.52195700  1
  H  H6  1  0.76364300  0.10090900  0.97804300  1
  H  H7  1  0.73635700  0.39909100  0.47804300  1
  H  H8  1  0.76364300  0.39909100  0.97804300  1
  H  H9  1  0.73635700  0.10090900  0.47804300  1
  H  H10  1  0.23635700  0.89909100  0.02195700  1
  H  H11  1  0.26364300  0.60090900  0.52195700  1
  H  H12  1  0.97454700  0.75000000  0.86889800  1
  H  H13  1  0.52545300  0.75000000  0.36889800  1
  H  H14  1  0.02545300  0.25000000  0.13110200  1
  H  H15  1  0.47454700  0.25000000  0.63110200  1
  H  H16  1  0.13615100  0.50610100  0.27502600  1
  H  H17  1  0.36384900  0.99389900  0.77502600  1
  H  H18  1  0.86384900  0.00610100  0.72497400  1
  H  H19  1  0.63615100  0.49389900  0.22497400  1
  H  H20  1  0.86384900  0.49389900  0.72497400  1
  H  H21  1  0.63615100  0.00610100  0.22497400  1
  H  H22  1  0.13615100  0.99389900  0.27502600  1
  H  H23  1  0.36384900  0.50610100  0.77502600  1
loop_
_geom_bond_atom_site_label_1
_geom_bond_atom_site_label_2
_geom_bond_distance
_geom_bond_site_symmetry_2
H0 Ni0 1.581072 1_655
H0 Mg5 2.136062 1_555
H0 Mg3 2.136062 1_555
H0 Na4 2.331877 1_555
H1 Ni1 1.581072 1_555
H1 Mg4 2.136062 1_555
H1 Mg2 2.136062 1_555
H1 Na5 2.331877 1_655
H2 Ni2 1.581072 1_455
H2 Mg7 2.136062 1_555
H2 Mg1 2.136062 1_555
H2 Na6 2.331877 1_555
H3 Ni3 1.581072 1_555
H3 Mg6 2.136062 1_555
H3 Mg0 2.136062 1_555
H3 Na7 2.331877 1_455
H4 Ni0 1.589954 1_555
H4 Mg7 2.154429 1_554
H4 Mg3 2.157037 1_455
H4 Na4 2.371976 1_555
H4 Na1 2.570269 1_554
H5 Ni1 1.589954 1_555
H5 Mg6 2.154429 1_565
H5 Mg2 2.157037 1_555
H5 Na5 2.371976 1_555
H5 Na0 2.570269 1_455
H6 Ni2 1.589954 1_555
H6 Mg5 2.154429 1_546
H6 Mg1 2.157037 1_655
H6 Na6 2.371976 1_555
H6 Na3 2.570269 1_556
H7 Ni3 1.589954 1_555
H7 Mg4 2.154429 1_555
H7 Mg0 2.157037 1_555
H7 Na7 2.371976 1_555
H7 Na2 2.570269 1_655
H8 Ni2 1.589954 1_555
H8 Mg3 2.154429 1_556
H8 Mg7 2.157037 1_655
H8 Na6 2.371976 1_555
H8 Na3 2.570269 1_556
H9 Ni3 1.589954 1_555
H9 Mg2 2.154429 1_545
H9 Mg6 2.157037 1_555
H9 Na7 2.371976 1_555
H9 Na2 2.570269 1_655
H10 Ni0 1.589954 1_555
H10 Mg1 2.154429 1_564
H10 Mg5 2.157037 1_455
H10 Na4 2.371976 1_555
H10 Na1 2.570269 1_554
H11 Ni1 1.589954 1_555
H11 Mg0 2.154429 1_555
H11 Mg4 2.157037 1_555
H11 Na5 2.371976 1_555
H11 Na0 2.570269 1_455
H12 Ni0 1.576605 1_656
H12 Mg7 2.212469 1_655
H12 Mg1 2.212469 1_665
H12 Na5 2.322630 1_655
H12 Na1 2.325408 1_555
H13 Ni1 1.576605 1_555
H13 Mg6 2.212469 1_565
H13 Mg0 2.212469 1_555
H13 Na4 2.322630 1_555
H13 Na0 2.325408 1_555
H14 Ni2 1.576605 1_454
H14 Mg5 2.212469 1_445
H14 Mg3 2.212469 1_455
H14 Na7 2.322630 1_455
H14 Na3 2.325408 1_555
H15 Ni3 1.576605 1_555
H15 Mg2 2.212469 1_545
H15 Mg4 2.212469 1_555
H15 Na6 2.322630 1_555
H15 Na2 2.325408 1_555
H16 Mg0 1.982006 1_555
H16 Mg3 1.982863 1_455
H16 Na7 2.476750 1_455
H16 Na0 2.637370 1_455
H17 Mg1 1.982006 1_565
H17 Mg2 1.982863 1_555
H17 Na6 2.476750 1_565
H17 Na1 2.637370 1_555
H18 Mg2 1.982006 1_545
H18 Mg1 1.982863 1_655
H18 Na5 2.476750 1_645
H18 Na2 2.637370 1_655
H19 Mg3 1.982006 1_555
H19 Mg0 1.982863 1_555
H19 Na4 2.476750 1_555
H19 Na3 2.637370 1_555
H20 Mg4 1.982006 1_555
H20 Mg7 1.982863 1_655
H20 Na5 2.476750 1_655
H20 Na2 2.637370 1_655
H21 Mg5 1.982006 1_545
H21 Mg6 1.982863 1_555
H21 Na4 2.476750 1_545
H21 Na3 2.637370 1_555
H22 Mg6 1.982006 1_565
H22 Mg5 1.982863 1_455
H22 Na7 2.476750 1_465
H22 Na0 2.637370 1_455
H23 Mg7 1.982006 1_555
H23 Mg4 1.982863 1_555
H23 Na6 2.476750 1_555
H23 Na1 2.637370 1_555
