# generated using pymatgen
data_Bi2Se3O10
_symmetry_space_group_name_H-M   'P 1'
_cell_length_a   8.78964127
_cell_length_b   8.78964127
_cell_length_c   8.05229048
_cell_angle_alpha   69.56897879
_cell_angle_beta   69.56897879
_cell_angle_gamma   50.72166489
_symmetry_Int_Tables_number   1
_chemical_formula_structural   Bi2Se3O10
_chemical_formula_sum   'Bi4 Se6 O20'
_cell_volume   444.17319494
_cell_formula_units_Z   2
loop_
 _symmetry_equiv_pos_site_id
 _symmetry_equiv_pos_as_xyz
  1  'x, y, z'
loop_
 _atom_site_type_symbol
 _atom_site_label
 _atom_site_symmetry_multiplicity
 _atom_site_fract_x
 _atom_site_fract_y
 _atom_site_fract_z
 _atom_site_occupancy
  Bi  Bi0  1  0.83101286  0.53139047  0.85097842  1
  Bi  Bi1  1  0.46860953  0.16898714  0.64902158  1
  Bi  Bi2  1  0.16898714  0.46860953  0.14902158  1
  Bi  Bi3  1  0.53139047  0.83101286  0.35097842  1
  Se  Se0  1  0.94813295  0.80194867  0.46705056  1
  Se  Se1  1  0.19805133  0.05186705  0.03294944  1
  Se  Se2  1  0.05186705  0.19805133  0.53294944  1
  Se  Se3  1  0.80194867  0.94813295  0.96705056  1
  Se  Se4  1  0.60959530  0.39040470  0.25000000  1
  Se  Se5  1  0.39040470  0.60959530  0.75000000  1
  O  O0  1  0.74873859  0.29083087  0.06621921  1
  O  O1  1  0.70916913  0.25126141  0.43378079  1
  O  O2  1  0.25126141  0.70916913  0.93378079  1
  O  O3  1  0.29083087  0.74873859  0.56621921  1
  O  O4  1  0.39397848  0.41856393  0.30624759  1
  O  O5  1  0.58143607  0.60602152  0.19375241  1
  O  O6  1  0.60602152  0.58143607  0.69375241  1
  O  O7  1  0.41856393  0.39397848  0.80624759  1
  O  O8  1  0.04025605  0.57906097  0.61246359  1
  O  O9  1  0.42093903  0.95974395  0.88753641  1
  O  O10  1  0.95974395  0.42093903  0.38753641  1
  O  O11  1  0.57906097  0.04025605  0.11246359  1
  O  O12  1  -0.00246590  0.74487601  0.26439991  1
  O  O13  1  0.25512399  0.00246590  0.23560009  1
  O  O14  1  0.00246590  0.25512399  0.73560009  1
  O  O15  1  0.74487601  -0.00246590  0.76439991  1
  O  O16  1  0.69412719  0.89382534  0.51822702  1
  O  O17  1  0.10617466  0.30587281  0.98177298  1
  O  O18  1  0.30587281  0.10617466  0.48177298  1
  O  O19  1  0.89382534  0.69412719  0.01822702  1
loop_
_geom_bond_atom_site_label_1
_geom_bond_atom_site_label_2
_geom_bond_distance
_geom_bond_site_symmetry_2
Bi0 O14 2.234916 1_655
Bi0 O17 2.266833 1_655
Bi0 O8 2.279166 1_655
Bi0 O6 2.442317 1_555
Bi0 O0 2.549548 1_556
Bi0 O19 2.651128 1_556
Bi0 O5 2.841762 1_556
Bi1 O15 2.234916 1_555
Bi1 O16 2.266833 1_545
Bi1 O9 2.279166 1_545
Bi1 O7 2.442317 1_555
Bi1 O1 2.549548 1_555
Bi1 O18 2.651128 1_555
Bi1 O4 2.841762 1_555
Bi2 O12 2.234916 1_555
Bi2 O19 2.266833 1_455
Bi2 O10 2.279166 1_455
Bi2 O4 2.442317 1_555
Bi2 O2 2.549548 1_554
Bi2 O17 2.651128 1_554
Bi2 O7 2.841762 1_554
Bi3 O13 2.234916 1_565
Bi3 O18 2.266833 1_565
Bi3 O11 2.279166 1_565
Bi3 O5 2.442317 1_555
Bi3 O3 2.549548 1_555
Bi3 O16 2.651128 1_555
Bi3 O6 2.841762 1_555
O0 Se4 1.654416 1_555
O1 Se4 1.654416 1_555
O2 Se5 1.654416 1_555
O3 Se5 1.654416 1_555
O4 Se4 1.656263 1_555
O5 Se4 1.656263 1_555
O6 Se5 1.656263 1_555
O7 Se5 1.656263 1_555
O8 Se0 1.707803 1_455
O9 Se1 1.707803 1_566
O10 Se2 1.707803 1_655
O11 Se3 1.707803 1_544
O12 Se0 1.704109 1_455
O13 Se1 1.704109 1_555
O14 Se2 1.704109 1_555
O15 Se3 1.704109 1_545
O16 Se0 1.764562 1_555
O17 Se1 1.764562 1_556
O18 Se2 1.764562 1_555
O19 Se3 1.764562 1_554
