# generated using pymatgen
data_Mg2Ta2FeO8
_symmetry_space_group_name_H-M   'P 1'
_cell_length_a   5.21246912
_cell_length_b   6.02534026
_cell_length_c   10.08080292
_cell_angle_alpha   107.43024243
_cell_angle_beta   89.64134857
_cell_angle_gamma   89.98654508
_symmetry_Int_Tables_number   1
_chemical_formula_structural   Mg2Ta2FeO8
_chemical_formula_sum   'Mg4 Ta4 Fe2 O16'
_cell_volume   302.06227481
_cell_formula_units_Z   2
loop_
 _symmetry_equiv_pos_site_id
 _symmetry_equiv_pos_as_xyz
  1  'x, y, z'
loop_
 _atom_site_type_symbol
 _atom_site_label
 _atom_site_symmetry_multiplicity
 _atom_site_fract_x
 _atom_site_fract_y
 _atom_site_fract_z
 _atom_site_occupancy
  Mg  Mg0  1  0.75211000  0.41529100  0.54484000  1
  Mg  Mg1  1  0.74365400  0.87045200  0.45468100  1
  Mg  Mg2  1  0.24360800  0.58575200  0.45495200  1
  Mg  Mg3  1  0.25203900  0.13054700  0.54498500  1
  Ta  Ta0  1  0.74389200  0.28207000  0.23365700  1
  Ta  Ta1  1  0.75161600  0.04801000  0.76603500  1
  Ta  Ta2  1  0.25170600  0.71892800  0.76618800  1
  Ta  Ta3  1  0.24399800  0.95276500  0.23368600  1
  Fe  Fe0  1  0.74800500  0.64840800  0.99981100  1
  Fe  Fe1  1  0.24819700  0.35201700  0.99977800  1
  O  O0  1  0.07983800  0.18130400  0.14405800  1
  O  O1  1  0.41524900  0.03805100  0.85603500  1
  O  O2  1  0.91536500  0.81911800  0.85589700  1
  O  O3  1  0.58000200  0.96344400  0.14394600  1
  O  O4  1  0.59425300  0.43442400  0.12025300  1
  O  O5  1  0.90184300  0.31313900  0.87965400  1
  O  O6  1  0.40220800  0.56728700  0.87946200  1
  O  O7  1  0.09462300  0.68674100  0.12006000  1
  O  O8  1  0.45445400  0.29105000  0.37341500  1
  O  O9  1  0.04116100  0.91732200  0.62635400  1
  O  O10  1  0.37983700  0.83844500  0.38308300  1
  O  O11  1  0.11576700  0.45516900  0.61673500  1
  O  O12  1  0.61579900  0.16265500  0.61675100  1
  O  O13  1  0.87989700  0.54577700  0.38310600  1
  O  O14  1  0.95445300  0.08355700  0.37346200  1
  O  O15  1  0.54115900  0.71011100  0.62644800  1
loop_
_geom_bond_atom_site_label_1
_geom_bond_atom_site_label_2
_geom_bond_distance
_geom_bond_site_symmetry_2
Mg0 O12 2.000659 1_555
Mg0 O11 2.022179 1_655
Mg0 O15 2.038058 1_555
Mg0 O13 2.115337 1_555
Mg0 O8 2.283211 1_555
Mg0 O14 2.449443 1_555
Mg1 O13 1.999817 1_555
Mg1 O10 2.021962 1_555
Mg1 O14 2.036084 1_565
Mg1 O12 2.115600 1_565
Mg1 O9 2.284854 1_655
Mg1 O15 2.454690 1_555
Mg2 O10 2.000558 1_555
Mg2 O13 2.022288 1_455
Mg2 O8 2.037130 1_555
Mg2 O11 2.116211 1_555
Mg2 O15 2.283383 1_555
Mg2 O9 2.449188 1_555
Mg3 O11 1.999709 1_555
Mg3 O12 2.022243 1_555
Mg3 O9 2.037737 1_545
Mg3 O10 2.114260 1_545
Mg3 O14 2.283966 1_455
Mg3 O8 2.453473 1_555
Fe0 O6 2.152249 1_555
Fe0 O7 2.155682 1_656
Fe0 O4 2.169091 1_556
Fe0 O5 2.170761 1_555
Fe0 O2 2.191413 1_555
Fe0 O3 2.193669 1_556
Fe1 O5 2.153651 1_455
Fe1 O4 2.154486 1_556
Fe1 O7 2.168102 1_556
Fe1 O6 2.174563 1_555
Fe1 O1 2.185831 1_555
Fe1 O0 2.196432 1_556
O0 Ta0 1.975347 1_455
O0 Ta3 2.049203 1_545
O1 Ta1 1.978273 1_555
O1 Ta2 2.052165 1_545
O2 Ta2 1.976979 1_655
O2 Ta1 2.051537 1_565
O3 Ta3 1.976123 1_555
O3 Ta0 2.050290 1_565
O4 Ta0 1.843239 1_555
O5 Ta1 1.841923 1_555
O6 Ta2 1.841221 1_555
O7 Ta3 1.843728 1_555
O8 Ta0 2.047356 1_555
O8 Ta3 2.375385 1_545
O9 Ta1 2.046751 1_465
O9 Ta2 2.376703 1_555
O10 Ta3 1.969412 1_555
O11 Ta2 1.969031 1_555
O12 Ta1 1.969511 1_555
O13 Ta0 1.968954 1_555
O14 Ta3 2.047407 1_645
O14 Ta0 2.377012 1_555
O15 Ta2 2.047468 1_555
O15 Ta1 2.373319 1_565
