# generated using pymatgen
data_Li9Mn2Co5O16
_symmetry_space_group_name_H-M   'P 1'
_cell_length_a   5.79892544
_cell_length_b   8.40505882
_cell_length_c   6.54554735
_cell_angle_alpha   90.60706453
_cell_angle_beta   116.29335481
_cell_angle_gamma   89.99999620
_symmetry_Int_Tables_number   1
_chemical_formula_structural   Li9Mn2Co5O16
_chemical_formula_sum   'Li9 Mn2 Co5 O16'
_cell_volume   286.00428047
_cell_formula_units_Z   1
loop_
 _symmetry_equiv_pos_site_id
 _symmetry_equiv_pos_as_xyz
  1  'x, y, z'
loop_
 _atom_site_type_symbol
 _atom_site_label
 _atom_site_symmetry_multiplicity
 _atom_site_fract_x
 _atom_site_fract_y
 _atom_site_fract_z
 _atom_site_occupancy
  Li  Li0  1  0.62486900  0.25538900  0.74973900  1
  Li  Li1  1  0.37648600  0.74574100  0.25297100  1
  Li  Li2  1  0.12286000  0.25764000  0.74572000  1
  Li  Li3  1  0.50039100  0.50645700  0.99476800  1
  Li  Li4  1  0.25501700  0.99210900  0.50235900  1
  Li  Li5  1  0.99437800  0.50645700  0.99476800  1
  Li  Li6  1  0.87472000  0.74272000  0.24944100  1
  Li  Li7  1  0.74734200  0.99210900  0.50235900  1
  Li  Li8  1  0.62471800  0.74461600  0.74943700  1
  Mn  Mn0  1  0.99724600  0.99701000  0.99610800  1
  Mn  Mn1  1  0.49886200  0.99701000  0.99610800  1
  Co  Co0  1  0.75382200  0.51071400  0.51011800  1
  Co  Co1  1  0.25629600  0.51071400  0.51011800  1
  Co  Co2  1  0.37690000  0.25901200  0.25380000  1
  Co  Co3  1  0.12406000  0.74723300  0.74811900  1
  Co  Co4  1  0.87827400  0.25876200  0.25654800  1
  O  O0  1  0.63834100  0.00391100  0.77668300  1
  O  O1  1  0.37980800  0.49607400  0.25961600  1
  O  O2  1  0.13719000  0.00900200  0.77438100  1
  O  O3  1  0.50925200  0.23133300  0.01750900  1
  O  O4  1  0.24109600  0.74015900  0.51254700  1
  O  O5  1  0.00825700  0.23133300  0.01750900  1
  O  O6  1  0.87841400  0.49226900  0.25682900  1
  O  O7  1  0.77145100  0.74015900  0.51254700  1
  O  O8  1  0.61895500  0.49396500  0.73791100  1
  O  O9  1  0.36249600  0.00181000  0.22499200  1
  O  O10  1  0.12311000  0.49564100  0.74621900  1
  O  O11  1  0.47560200  0.77038800  0.98120300  1
  O  O12  1  0.24271900  0.25253200  0.48373600  1
  O  O13  1  0.00560100  0.77038800  0.98120300  1
  O  O14  1  0.86044900  0.99480700  0.22089800  1
  O  O15  1  0.74101700  0.25253200  0.48373600  1
loop_
_geom_bond_atom_site_label_1
_geom_bond_atom_site_label_2
_geom_bond_distance
_geom_bond_site_symmetry_2
Li0 O8 2.007266 1_555
Li0 O0 2.121456 1_555
Li0 O12 2.126927 1_555
Li0 O15 2.126931 1_555
Li0 O3 2.147307 1_556
Li0 O5 2.147311 1_656
Li1 O1 2.099289 1_555
Li1 O11 2.109803 1_554
Li1 O13 2.109807 1_554
Li1 O9 2.160463 1_565
Li1 O7 2.165390 1_555
Li1 O4 2.165394 1_555
Li2 O10 2.000380 1_555
Li2 O2 2.098555 1_555
Li2 O15 2.116592 1_455
Li2 O12 2.116592 1_555
Li2 O3 2.170525 1_556
Li2 O5 2.170525 1_556
Li3 O10 2.070055 1_555
Li3 O8 2.081048 1_555
Li3 O6 2.105951 1_556
Li3 O1 2.139858 1_556
Li3 O11 2.223177 1_555
Li3 O3 2.317901 1_556
Li4 O4 2.122071 1_555
Li4 O0 2.152971 1_565
Li4 O9 2.167216 1_565
Li4 O2 2.174804 1_565
Li4 O12 2.192955 1_565
Li4 O14 2.212752 1_455
Li5 O10 2.070055 1_655
Li5 O8 2.081056 1_555
Li5 O6 2.105959 1_556
Li5 O1 2.139854 1_656
Li5 O13 2.223177 1_655
Li5 O5 2.317901 1_656
Li6 O7 2.058988 1_555
Li6 O4 2.058992 1_655
Li6 O6 2.106014 1_555
Li6 O14 2.127389 1_555
Li6 O11 2.214052 1_554
Li6 O13 2.214056 1_654
Li7 O7 2.122071 1_555
Li7 O0 2.152975 1_565
Li7 O9 2.167216 1_565
Li7 O2 2.174800 1_665
Li7 O15 2.192955 1_565
Li7 O14 2.212752 1_555
Li8 O11 2.061856 1_555
Li8 O13 2.061861 1_655
Li8 O4 2.073002 1_555
Li8 O7 2.073006 1_555
Li8 O8 2.107023 1_555
Li8 O0 2.183362 1_565
Mn0 O13 1.907949 1_655
Mn0 O0 1.936843 1_565
Mn0 O2 1.954895 1_665
Mn0 O14 1.956838 1_556
Mn0 O5 1.972018 1_666
Mn0 O9 1.979842 1_666
Mn1 O11 1.907949 1_555
Mn1 O0 1.936838 1_565
Mn1 O2 1.954900 1_565
Mn1 O14 1.956838 1_556
Mn1 O3 1.972018 1_566
Mn1 O9 1.979842 1_566
Co0 O7 1.930731 1_555
Co0 O8 1.972863 1_555
Co0 O10 2.015550 1_655
Co0 O1 2.062238 1_555
Co0 O6 2.085782 1_555
Co0 O15 2.173726 1_555
Co1 O4 1.930731 1_555
Co1 O8 1.972859 1_555
Co1 O10 2.015546 1_555
Co1 O1 2.062238 1_555
Co1 O6 2.085786 1_455
Co1 O12 2.173726 1_555
Co2 O15 1.978095 1_555
Co2 O12 1.978095 1_555
Co2 O1 1.992409 1_555
Co2 O5 2.019739 1_555
Co2 O3 2.019739 1_555
Co2 O9 2.166405 1_555
Co3 O11 1.938964 1_555
Co3 O13 1.938968 1_555
Co3 O4 1.940858 1_555
Co3 O7 1.940862 1_455
Co3 O10 2.114543 1_555
Co3 O2 2.203757 1_565
Co4 O6 1.962621 1_555
Co4 O12 1.974312 1_655
Co4 O15 1.974312 1_555
Co4 O3 2.026476 1_555
Co4 O5 2.026476 1_655
Co4 O14 2.225937 1_545
