# generated using pymatgen
data_PmSmZn2
_symmetry_space_group_name_H-M   'P 1'
_cell_length_a   5.13044494
_cell_length_b   5.13044494
_cell_length_c   5.13044494
_cell_angle_alpha   60.00000000
_cell_angle_beta   60.00000000
_cell_angle_gamma   60.00000000
_symmetry_Int_Tables_number   1
_chemical_formula_structural   PmSmZn2
_chemical_formula_sum   'Pm1 Sm1 Zn2'
_cell_volume   95.48828567
_cell_formula_units_Z   1
loop_
 _symmetry_equiv_pos_site_id
 _symmetry_equiv_pos_as_xyz
  1  'x, y, z'
loop_
 _atom_site_type_symbol
 _atom_site_label
 _atom_site_symmetry_multiplicity
 _atom_site_fract_x
 _atom_site_fract_y
 _atom_site_fract_z
 _atom_site_occupancy
  Pm  Pm0  1  0.50000000  0.50000000  0.50000000  1
  Sm  Sm0  1  0.00000000  0.00000000  0.00000000  1
  Zn  Zn0  1  0.25000000  0.25000000  0.25000000  1
  Zn  Zn1  1  0.75000000  0.75000000  0.75000000  1
loop_
_geom_bond_atom_site_label_1
_geom_bond_atom_site_label_2
_geom_bond_distance
_geom_bond_site_symmetry_2
Pm0 Zn1 3.141743 1_455
Pm0 Zn0 3.141743 1_655
Pm0 Zn1 3.141743 1_555
Pm0 Zn1 3.141743 1_545
Pm0 Zn0 3.141743 1_565
Pm0 Zn1 3.141743 1_554
Pm0 Zn0 3.141743 1_555
Pm0 Zn0 3.141743 1_556
Sm0 Zn0 3.141743 1_455
Sm0 Zn1 3.141743 1_544
Sm0 Zn0 3.141743 1_554
Sm0 Zn0 3.141743 1_555
Sm0 Zn1 3.141743 1_444
Sm0 Zn0 3.141743 1_545
Sm0 Zn1 3.141743 1_445
Sm0 Zn1 3.141743 1_454
