# generated using pymatgen
data_Sr2NdMn2O7
_symmetry_space_group_name_H-M   'P 1'
_cell_length_a   10.46691012
_cell_length_b   10.46691012
_cell_length_c   10.46691012
_cell_angle_alpha   158.45868187
_cell_angle_beta   158.45868187
_cell_angle_gamma   30.64903570
_symmetry_Int_Tables_number   1
_chemical_formula_structural   Sr2NdMn2O7
_chemical_formula_sum   'Sr2 Nd1 Mn2 O7'
_cell_volume   154.49351830
_cell_formula_units_Z   1
loop_
 _symmetry_equiv_pos_site_id
 _symmetry_equiv_pos_as_xyz
  1  'x, y, z'
loop_
 _atom_site_type_symbol
 _atom_site_label
 _atom_site_symmetry_multiplicity
 _atom_site_fract_x
 _atom_site_fract_y
 _atom_site_fract_z
 _atom_site_occupancy
  Sr  Sr0  1  0.50525100  0.50525100  0.00000000  1
  Sr  Sr1  1  0.68254300  0.68254300  0.00000000  1
  Nd  Nd0  1  0.31780100  0.31780100  0.00000000  1
  Mn  Mn0  1  0.90342900  0.90342900  0.00000000  1
  Mn  Mn1  1  0.09898600  0.09898600  0.00000000  1
  O  O0  1  0.80379300  0.80379300  0.00000000  1
  O  O1  1  0.20268700  0.20268700  0.00000000  1
  O  O2  1  0.89583000  0.39583000  0.50000000  1
  O  O3  1  0.39583000  0.89583000  0.50000000  1
  O  O4  1  0.09764300  0.59764300  0.50000000  1
  O  O5  1  0.59764300  0.09764300  0.50000000  1
  O  O6  1  0.99856300  0.99856300  0.00000000  1
loop_
_geom_bond_atom_site_label_1
_geom_bond_atom_site_label_2
_geom_bond_distance
_geom_bond_site_symmetry_2
Nd0 O1 2.324095 1_555
Nd0 O2 2.511546 1_555
Nd0 O2 2.511546 1_454
Nd0 O3 2.511546 1_544
Nd0 O3 2.511546 1_555
Nd0 O0 2.780675 1_556
Nd0 O0 2.780675 1_444
Nd0 O0 2.780675 1_545
Nd0 O0 2.780675 1_455
Mn0 O6 1.920708 1_555
Mn0 O2 1.962045 1_554
Mn0 O2 1.962045 1_565
Mn0 O3 1.962045 1_554
Mn0 O3 1.962045 1_655
Mn0 O0 2.011602 1_555
Mn1 O4 1.956226 1_544
Mn1 O4 1.956226 1_555
Mn1 O5 1.956226 1_454
Mn1 O5 1.956226 1_555
Mn1 O6 2.027491 1_445
Mn1 O1 2.093672 1_555
O0 Sr1 2.447978 1_555
O1 Sr1 2.795992 1_545
O1 Sr1 2.795992 1_455
O1 Sr1 2.795992 1_556
O1 Sr1 2.795992 1_444
O2 Sr0 2.950670 1_656
O2 Sr0 2.950670 1_555
O3 Sr0 2.950670 1_566
O3 Sr0 2.950670 1_555
O4 Sr1 2.600805 1_556
O4 Sr1 2.600805 1_455
O4 Sr0 2.702889 1_455
O4 Sr0 2.702889 1_556
O5 Sr1 2.600805 1_545
O5 Sr1 2.600805 1_556
O5 Sr0 2.702889 1_556
O5 Sr0 2.702889 1_545
O6 Sr0 2.769549 1_565
O6 Sr0 2.769549 1_666
O6 Sr0 2.769549 1_655
O6 Sr0 2.769549 1_554
