# generated using pymatgen
data_Ce3Pd4
_symmetry_space_group_name_H-M   'P 1'
_cell_length_a   8.18474932
_cell_length_b   8.18474932
_cell_length_c   8.18474923
_cell_angle_alpha   114.65587078
_cell_angle_beta   114.65587076
_cell_angle_gamma   114.65586929
_symmetry_Int_Tables_number   1
_chemical_formula_structural   Ce3Pd4
_chemical_formula_sum   'Ce6 Pd8'
_cell_volume   316.26663918
_cell_formula_units_Z   2
loop_
 _symmetry_equiv_pos_site_id
 _symmetry_equiv_pos_as_xyz
  1  'x, y, z'
loop_
 _atom_site_type_symbol
 _atom_site_label
 _atom_site_symmetry_multiplicity
 _atom_site_fract_x
 _atom_site_fract_y
 _atom_site_fract_z
 _atom_site_occupancy
  Ce  Ce0  1  0.96917509  0.59374918  0.71728108  1
  Ce  Ce1  1  0.71728108  0.96917509  0.59374918  1
  Ce  Ce2  1  0.59374918  0.71728108  0.96917509  1
  Ce  Ce3  1  0.03082491  0.40625082  0.28271892  1
  Ce  Ce4  1  0.28271892  0.03082491  0.40625082  1
  Ce  Ce5  1  0.40625082  0.28271892  0.03082491  1
  Pd  Pd0  1  0.00000000  0.00000000  0.00000000  1
  Pd  Pd1  1  0.50000000  0.50000000  0.50000000  1
  Pd  Pd2  1  0.94309045  0.77793190  0.44348642  1
  Pd  Pd3  1  0.44348642  0.94309045  0.77793190  1
  Pd  Pd4  1  0.77793190  0.44348642  0.94309045  1
  Pd  Pd5  1  0.05690955  0.22206810  0.55651358  1
  Pd  Pd6  1  0.55651358  0.05690955  0.22206810  1
  Pd  Pd7  1  0.22206810  0.55651358  0.05690955  1
loop_
_geom_bond_atom_site_label_1
_geom_bond_atom_site_label_2
_geom_bond_distance
_geom_bond_site_symmetry_2
Ce0 Pd6 2.911990 1_555
Ce0 Pd7 2.921806 1_656
Ce0 Pd0 2.977871 1_666
Ce0 Pd1 3.033633 1_555
Ce0 Pd6 3.115574 1_666
Ce0 Pd2 3.166673 1_555
Ce0 Pd4 3.175288 1_555
Ce0 Pd5 3.282181 1_655
Ce0 Pd3 3.382227 1_655
Ce1 Pd7 2.911990 1_555
Ce1 Pd5 2.921806 1_665
Ce1 Pd0 2.977871 1_666
Ce1 Pd1 3.033634 1_555
Ce1 Pd7 3.115574 1_666
Ce1 Pd3 3.166673 1_555
Ce1 Pd2 3.175288 1_555
Ce1 Pd6 3.282181 1_565
Ce1 Pd4 3.382227 1_565
Ce2 Pd5 2.911990 1_555
Ce2 Pd6 2.921806 1_566
Ce2 Pd0 2.977871 1_666
Ce2 Pd1 3.033633 1_555
Ce2 Pd5 3.115574 1_666
Ce2 Pd4 3.166673 1_555
Ce2 Pd3 3.175288 1_555
Ce2 Pd7 3.282181 1_556
Ce2 Pd2 3.382227 1_556
Ce3 Pd3 2.911990 1_555
Ce3 Pd4 2.921806 1_454
Ce3 Pd0 2.977871 1_555
Ce3 Pd1 3.033633 1_555
Ce3 Pd3 3.115574 1_444
Ce3 Pd5 3.166673 1_555
Ce3 Pd7 3.175288 1_555
Ce3 Pd2 3.282181 1_455
Ce3 Pd6 3.382227 1_455
Ce4 Pd4 2.911990 1_555
Ce4 Pd2 2.921806 1_445
Ce4 Pd0 2.977871 1_555
Ce4 Pd1 3.033634 1_555
Ce4 Pd4 3.115574 1_444
Ce4 Pd6 3.166673 1_555
Ce4 Pd5 3.175288 1_555
Ce4 Pd3 3.282181 1_545
Ce4 Pd7 3.382227 1_545
Ce5 Pd2 2.911990 1_555
Ce5 Pd3 2.921806 1_544
Ce5 Pd0 2.977871 1_555
Ce5 Pd1 3.033633 1_555
Ce5 Pd2 3.115574 1_444
Ce5 Pd7 3.166673 1_555
Ce5 Pd6 3.175288 1_555
Ce5 Pd4 3.282181 1_554
Ce5 Pd5 3.382227 1_554
Pd0 Pd1 2.885042 1_444
Pd0 Pd1 2.885042 1_555
Pd2 Pd5 2.930480 1_665
Pd2 Pd4 3.005687 1_554
Pd2 Pd3 3.005687 1_655
Pd3 Pd6 2.930480 1_566
Pd3 Pd4 3.005687 1_565
Pd4 Pd7 2.930480 1_656
Pd5 Pd7 3.005687 1_556
Pd5 Pd6 3.005687 1_455
Pd6 Pd7 3.005687 1_545
