# generated using pymatgen
data_U(PO2)4
_symmetry_space_group_name_H-M   'P 1'
_cell_length_a   7.83994200
_cell_length_b   13.64726500
_cell_length_c   19.89638200
_cell_angle_alpha   90.00000000
_cell_angle_beta   90.00000000
_cell_angle_gamma   90.00000000
_symmetry_Int_Tables_number   1
_chemical_formula_structural   U(PO2)4
_chemical_formula_sum   'U8 P32 O64'
_cell_volume   2128.78884112
_cell_formula_units_Z   8
loop_
 _symmetry_equiv_pos_site_id
 _symmetry_equiv_pos_as_xyz
  1  'x, y, z'
loop_
 _atom_site_type_symbol
 _atom_site_label
 _atom_site_symmetry_multiplicity
 _atom_site_fract_x
 _atom_site_fract_y
 _atom_site_fract_z
 _atom_site_occupancy
  U  U0  1  0.65057700  0.13907200  0.38723500  1
  U  U1  1  0.15057700  0.36092800  0.61276500  1
  U  U2  1  0.34942300  0.63907200  0.11276500  1
  U  U3  1  0.84942300  0.86092800  0.88723500  1
  U  U4  1  0.34942300  0.86092800  0.61276500  1
  U  U5  1  0.84942300  0.63907200  0.38723500  1
  U  U6  1  0.65057700  0.36092800  0.88723500  1
  U  U7  1  0.15057700  0.13907200  0.11276500  1
  P  P0  1  0.72622400  0.17377700  0.20609400  1
  P  P1  1  0.22622400  0.32622300  0.79390600  1
  P  P2  1  0.27377600  0.67377700  0.29390600  1
  P  P3  1  0.77377600  0.82622300  0.70609400  1
  P  P4  1  0.27377600  0.82622300  0.79390600  1
  P  P5  1  0.77377600  0.67377700  0.20609400  1
  P  P6  1  0.72622400  0.32622300  0.70609400  1
  P  P7  1  0.22622400  0.17377700  0.29390600  1
  P  P8  1  0.64666900  0.40459300  0.32515500  1
  P  P9  1  0.14666900  0.09540700  0.67484500  1
  P  P10  1  0.35333100  0.90459300  0.17484500  1
  P  P11  1  0.85333100  0.59540700  0.82515500  1
  P  P12  1  0.35333100  0.59540700  0.67484500  1
  P  P13  1  0.85333100  0.90459300  0.32515500  1
  P  P14  1  0.64666900  0.09540700  0.82515500  1
  P  P15  1  0.14666900  0.40459300  0.17484500  1
  P  P16  1  0.62988200  0.07621100  0.57437100  1
  P  P17  1  0.12988200  0.42378900  0.42562900  1
  P  P18  1  0.37011800  0.57621100  0.92562900  1
  P  P19  1  0.87011800  0.92378900  0.07437100  1
  P  P20  1  0.37011800  0.92378900  0.42562900  1
  P  P21  1  0.87011800  0.57621100  0.57437100  1
  P  P22  1  0.62988200  0.42378900  0.07437100  1
  P  P23  1  0.12988200  0.07621100  0.92562900  1
  P  P24  1  0.55646700  0.33171900  0.51624100  1
  P  P25  1  0.05646700  0.16828100  0.48375900  1
  P  P26  1  0.44353300  0.83171900  0.98375900  1
  P  P27  1  0.94353300  0.66828100  0.01624100  1
  P  P28  1  0.44353300  0.66828100  0.48375900  1
  P  P29  1  0.94353300  0.83171900  0.51624100  1
  P  P30  1  0.55646700  0.16828100  0.01624100  1
  P  P31  1  0.05646700  0.33171900  0.98375900  1
  O  O0  1  0.74130000  0.12570300  0.27577700  1
  O  O1  1  0.24130000  0.37429700  0.72422300  1
  O  O2  1  0.25870000  0.62570300  0.22422300  1
  O  O3  1  0.75870000  0.87429700  0.77577700  1
  O  O4  1  0.25870000  0.87429700  0.72422300  1
  O  O5  1  0.75870000  0.62570300  0.27577700  1
  O  O6  1  0.74130000  0.37429700  0.77577700  1
  O  O7  1  0.24130000  0.12570300  0.22422300  1
  O  O8  1  0.90067400  0.18560300  0.17280300  1
  O  O9  1  0.40067400  0.31439700  0.82719700  1
  O  O10  1  0.09932600  0.68560300  0.32719700  1
  O  O11  1  0.59932600  0.81439700  0.67280300  1
  O  O12  1  0.09932600  0.81439700  0.82719700  1
  O  O13  1  0.59932600  0.68560300  0.17280300  1
  O  O14  1  0.90067400  0.31439700  0.67280300  1
  O  O15  1  0.40067400  0.18560300  0.32719700  1
  O  O16  1  0.70556500  0.30233500  0.34624800  1
  O  O17  1  0.20556500  0.19766500  0.65375200  1
  O  O18  1  0.29443500  0.80233500  0.15375200  1
  O  O19  1  0.79443500  0.69766500  0.84624800  1
  O  O20  1  0.29443500  0.69766500  0.65375200  1
  O  O21  1  0.79443500  0.80233500  0.34624800  1
  O  O22  1  0.70556500  0.19766500  0.84624800  1
  O  O23  1  0.20556500  0.30233500  0.15375200  1
  O  O24  1  0.71966800  0.48425100  0.37127200  1
  O  O25  1  0.21966800  0.01574900  0.62872800  1
  O  O26  1  0.28033200  0.98425100  0.12872800  1
  O  O27  1  0.78033200  0.51574900  0.87127200  1
  O  O28  1  0.28033200  0.51574900  0.62872800  1
  O  O29  1  0.78033200  0.98425100  0.37127200  1
  O  O30  1  0.71966800  0.01574900  0.87127200  1
  O  O31  1  0.21966800  0.48425100  0.12872800  1
  O  O32  1  0.66531900  0.07377400  0.49915000  1
  O  O33  1  0.16531900  0.42622600  0.50085000  1
  O  O34  1  0.33468100  0.57377400  0.00085000  1
  O  O35  1  0.83468100  0.92622600  0.99915000  1
  O  O36  1  0.33468100  0.92622600  0.50085000  1
  O  O37  1  0.83468100  0.57377400  0.49915000  1
  O  O38  1  0.66531900  0.42622600  0.99915000  1
  O  O39  1  0.16531900  0.07377400  0.00085000  1
  O  O40  1  0.56522300  0.97755800  0.60122000  1
  O  O41  1  0.06522300  0.52244200  0.39878000  1
  O  O42  1  0.43477700  0.47755800  0.89878000  1
  O  O43  1  0.93477700  0.02244200  0.10122000  1
  O  O44  1  0.43477700  0.02244200  0.39878000  1
  O  O45  1  0.93477700  0.47755800  0.60122000  1
  O  O46  1  0.56522300  0.52244200  0.10122000  1
  O  O47  1  0.06522300  0.97755800  0.89878000  1
  O  O48  1  0.52877500  0.25274000  0.46241500  1
  O  O49  1  0.02877500  0.24726000  0.53758500  1
  O  O50  1  0.47122500  0.75274000  0.03758500  1
  O  O51  1  0.97122500  0.74726000  0.96241500  1
  O  O52  1  0.47122500  0.74726000  0.53758500  1
  O  O53  1  0.97122500  0.75274000  0.46241500  1
  O  O54  1  0.52877500  0.24726000  0.96241500  1
  O  O55  1  0.02877500  0.25274000  0.03758500  1
  O  O56  1  0.41686300  0.32532900  0.57035700  1
  O  O57  1  0.91686300  0.17467100  0.42964300  1
  O  O58  1  0.58313700  0.82532900  0.92964300  1
  O  O59  1  0.08313700  0.67467100  0.07035700  1
  O  O60  1  0.58313700  0.67467100  0.42964300  1
  O  O61  1  0.08313700  0.82532900  0.57035700  1
  O  O62  1  0.41686300  0.17467100  0.07035700  1
  O  O63  1  0.91686300  0.32532900  0.92964300  1
loop_
_geom_bond_atom_site_label_1
_geom_bond_atom_site_label_2
_geom_bond_distance
_geom_bond_site_symmetry_2
O0 P0 1.538384 1_555
O0 U0 2.336018 1_555
O1 P1 1.538384 1_555
O1 U1 2.336018 1_555
O2 P2 1.538384 1_555
O2 U2 2.336018 1_555
O3 P3 1.538384 1_555
O3 U3 2.336018 1_555
O4 P4 1.538384 1_555
O4 U4 2.336018 1_555
O5 P5 1.538384 1_555
O5 U5 2.336018 1_555
O6 P6 1.538384 1_555
O6 U6 2.336018 1_555
O7 P7 1.538384 1_555
O7 U7 2.336018 1_555
O8 P0 1.528177 1_555
O8 U7 2.380911 1_655
O9 P1 1.528177 1_555
O9 U6 2.380911 1_555
O10 P2 1.528177 1_555
O10 U5 2.380911 1_455
O11 P3 1.528177 1_555
O11 U4 2.380911 1_555
O12 P4 1.528177 1_555
O12 U3 2.380911 1_455
O13 P5 1.528177 1_555
O13 U2 2.380911 1_555
O14 P6 1.528177 1_555
O14 U1 2.380911 1_655
O15 P7 1.528177 1_555
O15 U0 2.380911 1_555
O16 P8 1.528682 1_555
O16 U0 2.411489 1_555
O17 P9 1.528682 1_555
O17 U1 2.411489 1_555
O18 P10 1.528682 1_555
O18 U2 2.411489 1_555
O19 P11 1.528682 1_555
O19 U3 2.411489 1_555
O20 P12 1.528682 1_555
O20 U4 2.411489 1_555
O21 P13 1.528682 1_555
O21 U5 2.411489 1_555
O22 P14 1.528682 1_555
O22 U6 2.411489 1_555
O23 P15 1.528682 1_555
O23 U7 2.411489 1_555
O24 P8 1.533386 1_555
O24 U5 2.366430 1_555
O25 P9 1.533386 1_555
O25 U4 2.366430 1_545
O26 P10 1.533386 1_555
O26 U7 2.366430 1_565
O27 P11 1.533386 1_555
O27 U6 2.366430 1_555
O28 P12 1.533386 1_555
O28 U1 2.366430 1_555
O29 P13 1.533386 1_555
O29 U0 2.366430 1_565
O30 P14 1.533386 1_555
O30 U3 2.366430 1_545
O31 P15 1.533386 1_555
O31 U2 2.366430 1_555
O32 P16 1.522557 1_555
O32 U0 2.401186 1_555
O33 P17 1.522557 1_555
O33 U1 2.401186 1_555
O34 P18 1.522557 1_554
O34 U2 2.401186 1_555
O35 P19 1.522557 1_556
O35 U3 2.401186 1_555
O36 P20 1.522557 1_555
O36 U4 2.401186 1_555
O37 P21 1.522557 1_555
O37 U5 2.401186 1_555
O38 P22 1.522557 1_556
O38 U6 2.401186 1_555
O39 P23 1.522557 1_554
O39 U7 2.401186 1_555
O40 P16 1.534594 1_565
O40 U4 2.334223 1_555
O41 P17 1.534594 1_555
O41 U5 2.334223 1_455
O42 P18 1.534594 1_555
O42 U6 2.334223 1_555
O43 P19 1.534594 1_545
O43 U7 2.334223 1_655
O44 P20 1.534594 1_545
O44 U0 2.334223 1_555
O45 P21 1.534594 1_555
O45 U1 2.334223 1_655
O46 P22 1.534594 1_555
O46 U2 2.334223 1_555
O47 P23 1.534594 1_565
O47 U3 2.334223 1_455
O48 P24 1.534864 1_555
O48 U0 2.357058 1_555
O49 P25 1.534864 1_555
O49 U1 2.357058 1_555
O50 P26 1.534864 1_554
O50 U2 2.357058 1_555
O51 P27 1.534864 1_556
O51 U3 2.357058 1_555
O52 P28 1.534864 1_555
O52 U4 2.357058 1_555
O53 P29 1.534864 1_555
O53 U5 2.357058 1_555
O54 P30 1.534864 1_556
O54 U6 2.357058 1_555
O55 P31 1.534864 1_554
O55 U7 2.357058 1_555
O56 P24 1.537796 1_555
O56 U1 2.303546 1_555
O57 P25 1.537796 1_655
O57 U0 2.303546 1_555
O58 P26 1.537796 1_555
O58 U3 2.303546 1_555
O59 P27 1.537796 1_455
O59 U2 2.303546 1_555
O60 P28 1.537796 1_555
O60 U5 2.303546 1_555
O61 P29 1.537796 1_455
O61 U4 2.303546 1_555
O62 P30 1.537796 1_555
O62 U7 2.303546 1_555
O63 P31 1.537796 1_655
O63 U6 2.303546 1_555
