# generated using pymatgen
data_KNaAl6Si6(HO6)4
_symmetry_space_group_name_H-M   'P 1'
_cell_length_a   9.06437700
_cell_length_b   5.21041600
_cell_length_c   20.07900941
_cell_angle_alpha   84.24264950
_cell_angle_beta   90.00000000
_cell_angle_gamma   90.00000000
_symmetry_Int_Tables_number   1
_chemical_formula_structural   KNaAl6Si6(HO6)4
_chemical_formula_sum   'K2 Na2 Al12 Si12 H8 O48'
_cell_volume   943.53142192
_cell_formula_units_Z   2
loop_
 _symmetry_equiv_pos_site_id
 _symmetry_equiv_pos_as_xyz
  1  'x, y, z'
loop_
 _atom_site_type_symbol
 _atom_site_label
 _atom_site_symmetry_multiplicity
 _atom_site_fract_x
 _atom_site_fract_y
 _atom_site_fract_z
 _atom_site_occupancy
  K  K0  1  0.09707400  0.00000000  0.25000000  1
  K  K1  1  0.90292600  0.00000000  0.75000000  1
  Na  Na0  1  0.57343000  0.50000000  0.25000000  1
  Na  Na1  1  0.42657000  0.50000000  0.75000000  1
  Al  Al0  1  0.08614200  0.75194400  0.00113400  1
  Al  Al1  1  0.26092800  0.53611500  0.13770200  1
  Al  Al2  1  0.08614200  0.24805600  0.49886600  1
  Al  Al3  1  0.26092800  0.46388500  0.36229800  1
  Al  Al4  1  0.91385800  0.24805600  0.99886600  1
  Al  Al5  1  0.73907200  0.46388500  0.86229800  1
  Al  Al6  1  0.91385800  0.75194400  0.50113400  1
  Al  Al7  1  0.73907200  0.53611500  0.63770200  1
  Al  Al8  1  0.58426500  0.25297800  0.99925100  1
  Al  Al9  1  0.58426500  0.74702200  0.50074900  1
  Al  Al10  1  0.41573500  0.74702200  0.00074900  1
  Al  Al11  1  0.41573500  0.25297800  0.49925100  1
  Si  Si0  1  0.92893800  0.54008600  0.13686400  1
  Si  Si1  1  0.92893800  0.45991400  0.36313600  1
  Si  Si2  1  0.07106200  0.45991400  0.86313600  1
  Si  Si3  1  0.07106200  0.54008600  0.63686400  1
  Si  Si4  1  0.43203300  0.01658000  0.13810400  1
  Si  Si5  1  0.75572500  0.05175100  0.13660400  1
  Si  Si6  1  0.43203300  0.98342000  0.36189600  1
  Si  Si7  1  0.75572500  0.94824900  0.36339600  1
  Si  Si8  1  0.56796700  0.98342000  0.86189600  1
  Si  Si9  1  0.24427500  0.94824900  0.86339600  1
  Si  Si10  1  0.56796700  0.01658000  0.63810400  1
  Si  Si11  1  0.24427500  0.05175100  0.63660400  1
  H  H0  1  0.65766700  0.63736000  0.05527000  1
  H  H1  1  0.65766700  0.36264000  0.44473000  1
  H  H2  1  0.34233300  0.36264000  0.94473000  1
  H  H3  1  0.34233300  0.63736000  0.55527000  1
  H  H4  1  0.14404600  0.12301600  0.06907900  1
  H  H5  1  0.14404600  0.87698400  0.43092100  1
  H  H6  1  0.85595400  0.87698400  0.93092100  1
  H  H7  1  0.85595400  0.12301600  0.56907900  1
  O  O0  1  0.94262700  0.53766100  0.05516100  1
  O  O1  1  0.25064900  0.62592300  0.05112300  1
  O  O2  1  0.56644400  0.54576300  0.04871500  1
  O  O3  1  0.08516600  0.58778700  0.17178800  1
  O  O4  1  0.80734900  0.75294600  0.15969700  1
  O  O5  1  0.86562300  0.25577800  0.16937600  1
  O  O6  1  0.94262700  0.46233900  0.44483900  1
  O  O7  1  0.25064900  0.37407700  0.44887700  1
  O  O8  1  0.56644400  0.45423700  0.45128500  1
  O  O9  1  0.08516600  0.41221300  0.32821200  1
  O  O10  1  0.80734900  0.24705400  0.34030300  1
  O  O11  1  0.86562300  0.74422200  0.33062400  1
  O  O12  1  0.05737300  0.46233900  0.94483900  1
  O  O13  1  0.74935100  0.37407700  0.94887700  1
  O  O14  1  0.43355600  0.45423700  0.95128500  1
  O  O15  1  0.91483400  0.41221300  0.82821200  1
  O  O16  1  0.19265100  0.24705400  0.84030300  1
  O  O17  1  0.13437700  0.74422200  0.83062400  1
  O  O18  1  0.05737300  0.53766100  0.55516100  1
  O  O19  1  0.74935100  0.62592300  0.55112300  1
  O  O20  1  0.43355600  0.54576300  0.54871500  1
  O  O21  1  0.91483400  0.58778700  0.67178800  1
  O  O22  1  0.19265100  0.75294600  0.65969700  1
  O  O23  1  0.13437700  0.25577800  0.66937600  1
  O  O24  1  0.45128600  0.03116300  0.05582700  1
  O  O25  1  0.75123100  0.10814100  0.05555300  1
  O  O26  1  0.05867300  0.04586600  0.04969000  1
  O  O27  1  0.59348300  0.09532500  0.17001700  1
  O  O28  1  0.30457400  0.21138900  0.15868200  1
  O  O29  1  0.39429500  0.72769600  0.17289100  1
  O  O30  1  0.45128600  0.96883700  0.44417300  1
  O  O31  1  0.75123100  0.89185900  0.44444700  1
  O  O32  1  0.05867300  0.95413400  0.45031000  1
  O  O33  1  0.59348300  0.90467500  0.32998300  1
  O  O34  1  0.30457400  0.78861100  0.34131800  1
  O  O35  1  0.39429500  0.27230400  0.32710900  1
  O  O36  1  0.54871400  0.96883700  0.94417300  1
  O  O37  1  0.24876900  0.89185900  0.94444700  1
  O  O38  1  0.94132700  0.95413400  0.95031000  1
  O  O39  1  0.40651700  0.90467500  0.82998300  1
  O  O40  1  0.69542600  0.78861100  0.84131800  1
  O  O41  1  0.60570500  0.27230400  0.82710900  1
  O  O42  1  0.54871400  0.03116300  0.55582700  1
  O  O43  1  0.24876900  0.10814100  0.55555300  1
  O  O44  1  0.94132700  0.04586600  0.54969000  1
  O  O45  1  0.40651700  0.09532500  0.67001700  1
  O  O46  1  0.69542600  0.21138900  0.65868200  1
  O  O47  1  0.60570500  0.72769600  0.67289100  1
loop_
_geom_bond_atom_site_label_1
_geom_bond_atom_site_label_2
_geom_bond_distance
_geom_bond_site_symmetry_2
K0 O28 2.776252 1_555
K0 O34 2.776252 1_545
K0 O9 2.787048 1_555
K0 O3 2.787048 1_545
K0 O11 2.892295 1_445
K0 O5 2.892295 1_455
K1 O46 2.776252 1_555
K1 O40 2.776252 1_545
K1 O21 2.787048 1_545
K1 O15 2.787048 1_555
K1 O23 2.892295 1_655
K1 O17 2.892295 1_645
Na0 O35 2.464284 1_555
Na0 O29 2.464284 1_555
Na0 O27 2.781632 1_555
Na0 O33 2.781632 1_555
Na0 O4 3.006830 1_555
Na0 O10 3.006830 1_555
Na1 O47 2.464284 1_555
Na1 O41 2.464284 1_555
Na1 O45 2.781632 1_555
Na1 O39 2.781632 1_555
Na1 O16 3.006830 1_555
Na1 O22 3.006830 1_555
Al0 O1 1.878812 1_555
Al0 O26 1.912448 1_565
Al0 O38 1.912756 1_454
Al0 O37 1.957941 1_554
Al0 O0 1.967908 1_455
Al0 O12 1.991197 1_554
Al1 O28 1.747483 1_555
Al1 O1 1.756856 1_555
Al1 O29 1.760279 1_555
Al1 O3 1.765241 1_555
Al2 O7 1.878812 1_555
Al2 O32 1.912448 1_545
Al2 O44 1.912756 1_455
Al2 O43 1.957941 1_555
Al2 O6 1.967908 1_455
Al2 O18 1.991197 1_555
Al3 O34 1.747483 1_555
Al3 O7 1.756856 1_555
Al3 O35 1.760279 1_555
Al3 O9 1.765241 1_555
Al4 O13 1.878812 1_555
Al4 O38 1.912448 1_545
Al4 O26 1.912756 1_656
Al4 O25 1.957941 1_556
Al4 O12 1.967908 1_655
Al4 O0 1.991197 1_556
Al5 O40 1.747483 1_555
Al5 O13 1.756856 1_555
Al5 O41 1.760279 1_555
Al5 O15 1.765241 1_555
Al6 O19 1.878812 1_555
Al6 O44 1.912448 1_565
Al6 O32 1.912756 1_655
Al6 O31 1.957941 1_555
Al6 O18 1.967908 1_655
Al6 O6 1.991197 1_555
Al7 O46 1.747483 1_555
Al7 O19 1.756856 1_555
Al7 O47 1.760279 1_555
Al7 O21 1.765241 1_555
Al8 O13 1.879456 1_555
Al8 O2 1.908860 1_556
Al8 O14 1.921142 1_555
Al8 O24 1.953391 1_556
Al8 O36 1.961437 1_545
Al8 O25 1.991698 1_556
Al9 O19 1.879456 1_555
Al9 O8 1.908860 1_555
Al9 O20 1.921142 1_555
Al9 O30 1.953391 1_555
Al9 O42 1.961437 1_565
Al9 O31 1.991698 1_555
Al10 O1 1.879456 1_555
Al10 O14 1.908860 1_554
Al10 O2 1.921142 1_555
Al10 O36 1.953391 1_554
Al10 O24 1.961437 1_565
Al10 O37 1.991698 1_554
Al11 O7 1.879456 1_555
Al11 O20 1.908860 1_555
Al11 O8 1.921142 1_555
Al11 O42 1.953391 1_555
Al11 O30 1.961437 1_545
Al11 O43 1.991698 1_555
H0 O2 0.970274 1_555
H1 O8 0.970274 1_555
H2 O14 0.970274 1_555
H3 O20 0.970274 1_555
H4 O26 0.971288 1_555
H5 O32 0.971288 1_555
H6 O38 0.971288 1_555
H7 O44 0.971288 1_555
O0 Si0 1.646513 1_555
O3 Si0 1.610541 1_455
O4 Si5 1.647139 1_565
O4 Si0 1.660413 1_555
O5 Si5 1.641885 1_555
O5 Si0 1.660105 1_555
O6 Si1 1.646513 1_555
O9 Si1 1.610541 1_455
O10 Si7 1.647139 1_545
O10 Si1 1.660413 1_555
O11 Si7 1.641885 1_555
O11 Si1 1.660105 1_555
O12 Si2 1.646513 1_555
O15 Si2 1.610541 1_655
O16 Si9 1.647139 1_545
O16 Si2 1.660413 1_555
O17 Si9 1.641885 1_555
O17 Si2 1.660105 1_555
O18 Si3 1.646513 1_555
O21 Si3 1.610541 1_655
O22 Si11 1.647139 1_565
O22 Si3 1.660413 1_555
O23 Si11 1.641885 1_555
O23 Si3 1.660105 1_555
O24 Si4 1.655380 1_555
O25 Si5 1.624980 1_555
O27 Si5 1.641629 1_555
O27 Si4 1.665340 1_555
O28 Si4 1.618631 1_555
O29 Si4 1.630830 1_565
O30 Si6 1.655380 1_555
O31 Si7 1.624980 1_555
O33 Si7 1.641629 1_555
O33 Si6 1.665340 1_555
O34 Si6 1.618631 1_555
O35 Si6 1.630830 1_545
O36 Si8 1.655380 1_555
O37 Si9 1.624980 1_555
O39 Si9 1.641629 1_555
O39 Si8 1.665340 1_555
O40 Si8 1.618631 1_555
O41 Si8 1.630830 1_545
O42 Si10 1.655380 1_555
O43 Si11 1.624980 1_555
O45 Si11 1.641629 1_555
O45 Si10 1.665340 1_555
O46 Si10 1.618631 1_555
O47 Si10 1.630830 1_565
