# generated using pymatgen
data_BaMnV2(AgO4)2
_symmetry_space_group_name_H-M   'P 1'
_cell_length_a   5.63470057
_cell_length_b   14.94515900
_cell_length_c   5.63470000
_cell_angle_alpha   90.00000000
_cell_angle_beta   119.99999666
_cell_angle_gamma   90.00000000
_symmetry_Int_Tables_number   1
_chemical_formula_structural   BaMnV2(AgO4)2
_chemical_formula_sum   'Ba2 Mn2 V4 Ag4 O16'
_cell_volume   410.93471103
_cell_formula_units_Z   2
loop_
 _symmetry_equiv_pos_site_id
 _symmetry_equiv_pos_as_xyz
  1  'x, y, z'
loop_
 _atom_site_type_symbol
 _atom_site_label
 _atom_site_symmetry_multiplicity
 _atom_site_fract_x
 _atom_site_fract_y
 _atom_site_fract_z
 _atom_site_occupancy
  Ba  Ba0  1  0.00000000  0.00000000  0.00000000  1
  Ba  Ba1  1  0.00000000  0.50000000  0.00000000  1
  Mn  Mn0  1  0.00000000  0.25000000  0.00000000  1
  Mn  Mn1  1  0.00000000  0.75000000  0.00000000  1
  V  V0  1  0.33333300  0.62410800  0.66666700  1
  V  V1  1  0.66666700  0.37589200  0.33333300  1
  V  V2  1  0.66666700  0.87589200  0.33333300  1
  V  V3  1  0.33333300  0.12410800  0.66666700  1
  Ag  Ag0  1  0.66666700  0.15450000  0.33333300  1
  Ag  Ag1  1  0.66666700  0.65450000  0.33333300  1
  Ag  Ag2  1  0.33333300  0.34550000  0.66666700  1
  Ag  Ag3  1  0.33333300  0.84550000  0.66666700  1
  O  O0  1  0.33333300  0.00974600  0.66666700  1
  O  O1  1  0.33333300  0.50974600  0.66666700  1
  O  O2  1  0.66666700  0.49025400  0.33333300  1
  O  O3  1  0.66666700  0.99025400  0.33333300  1
  O  O4  1  0.66530200  0.15914600  0.74718300  1
  O  O5  1  0.66530200  0.65914600  0.74718300  1
  O  O6  1  0.25281700  0.15914600  0.91811900  1
  O  O7  1  0.25281700  0.65914600  0.91811900  1
  O  O8  1  0.08188100  0.15914600  0.33469800  1
  O  O9  1  0.08188100  0.65914600  0.33469800  1
  O  O10  1  0.33469800  0.34085400  0.25281700  1
  O  O11  1  0.33469800  0.84085400  0.25281700  1
  O  O12  1  0.91811900  0.34085400  0.66530200  1
  O  O13  1  0.91811900  0.84085400  0.66530200  1
  O  O14  1  0.74718300  0.34085400  0.08188100  1
  O  O15  1  0.74718300  0.84085400  0.08188100  1
loop_
_geom_bond_atom_site_label_1
_geom_bond_atom_site_label_2
_geom_bond_distance
_geom_bond_site_symmetry_2
Ba0 O13 2.925156 1_444
Ba0 O8 2.925156 1_555
Ba0 O6 2.925156 1_554
Ba0 O15 2.925156 1_445
Ba0 O11 2.925156 1_545
Ba0 O4 2.925156 1_454
Ba0 O0 3.256452 1_554
Ba0 O3 3.256452 1_445
Ba0 O0 3.256456 1_555
Ba0 O3 3.256456 1_444
Ba0 O0 3.256457 1_454
Ba0 O3 3.256457 1_545
Ba1 O9 2.925156 1_555
Ba1 O12 2.925156 1_454
Ba1 O7 2.925156 1_554
Ba1 O14 2.925156 1_455
Ba1 O10 2.925156 1_555
Ba1 O5 2.925156 1_454
Ba1 O2 3.256452 1_455
Ba1 O1 3.256452 1_554
Ba1 O2 3.256456 1_454
Ba1 O1 3.256456 1_555
Ba1 O2 3.256457 1_555
Ba1 O1 3.256457 1_454
Mn0 O12 2.177877 1_454
Mn0 O8 2.177877 1_555
Mn0 O14 2.177877 1_455
Mn0 O6 2.177877 1_554
Mn0 O10 2.177878 1_555
Mn0 O4 2.177878 1_454
Mn1 O9 2.177877 1_555
Mn1 O13 2.177877 1_454
Mn1 O15 2.177877 1_455
Mn1 O7 2.177877 1_554
Mn1 O11 2.177878 1_555
Mn1 O5 2.177878 1_454
Ag0 O8 2.336802 1_655
Ag0 O6 2.336805 1_554
Ag0 O4 2.336808 1_555
Ag0 O3 2.454683 1_545
Ag1 O9 2.336802 1_655
Ag1 O7 2.336805 1_554
Ag1 O5 2.336808 1_555
Ag1 O2 2.454683 1_555
Ag2 O12 2.336802 1_455
Ag2 O14 2.336805 1_556
Ag2 O10 2.336808 1_555
Ag2 O1 2.454683 1_555
Ag3 O13 2.336802 1_455
Ag3 O15 2.336805 1_556
Ag3 O11 2.336808 1_555
Ag3 O0 2.454683 1_565
O0 V3 1.709158 1_555
O1 V0 1.709158 1_555
O2 V1 1.709158 1_555
O3 V2 1.709158 1_555
O4 V3 1.769277 1_555
O5 V0 1.769277 1_555
O6 V3 1.769272 1_555
O7 V0 1.769272 1_555
O8 V3 1.769276 1_555
O9 V0 1.769276 1_555
O10 V1 1.769277 1_555
O11 V2 1.769277 1_555
O12 V1 1.769276 1_555
O13 V2 1.769276 1_555
O14 V1 1.769272 1_555
O15 V2 1.769272 1_555
