# generated using pymatgen
data_La2(Ni2B)3
_symmetry_space_group_name_H-M   'P 1'
_cell_length_a   5.95467177
_cell_length_b   5.95467177
_cell_length_c   5.95467177
_cell_angle_alpha   127.90106715
_cell_angle_beta   110.35684908
_cell_angle_gamma   92.16824862
_symmetry_Int_Tables_number   1
_chemical_formula_structural   La2(Ni2B)3
_chemical_formula_sum   'La2 Ni6 B3'
_cell_volume   146.89491213
_cell_formula_units_Z   1
loop_
 _symmetry_equiv_pos_site_id
 _symmetry_equiv_pos_as_xyz
  1  'x, y, z'
loop_
 _atom_site_type_symbol
 _atom_site_label
 _atom_site_symmetry_multiplicity
 _atom_site_fract_x
 _atom_site_fract_y
 _atom_site_fract_z
 _atom_site_occupancy
  La  La0  1  0.55169600  0.55169600  0.00000000  1
  La  La1  1  0.93824400  0.43824400  0.50000000  1
  Ni  Ni0  1  0.06066200  0.49961400  0.06393800  1
  Ni  Ni1  1  0.43567600  0.99672400  0.93606200  1
  Ni  Ni2  1  0.06066200  0.99672400  0.56104800  1
  Ni  Ni3  1  0.43567600  0.49961400  0.43895200  1
  Ni  Ni4  1  0.74019200  0.99994200  0.74025100  1
  Ni  Ni5  1  0.25969100  0.99994200  0.25974900  1
  B  B0  1  0.12883100  0.12883100  0.00000000  1
  B  B1  1  0.35669500  0.85669500  0.50000000  1
  B  B2  1  0.88974400  0.88974400  0.00000000  1
loop_
_geom_bond_atom_site_label_1
_geom_bond_atom_site_label_2
_geom_bond_distance
_geom_bond_site_symmetry_2
La0 Ni1 2.973185 1_554
La0 Ni2 2.973185 1_655
La0 Ni0 2.973185 1_655
La0 Ni3 2.973185 1_554
La0 Ni3 3.105087 1_555
La0 Ni0 3.105087 1_555
La0 Ni2 3.105087 1_544
La0 Ni1 3.105087 1_544
La0 Ni4 3.112914 1_544
La0 Ni5 3.112918 1_544
La0 Ni5 3.112918 1_555
La0 Ni4 3.112919 1_555
La1 Ni0 2.951373 1_656
La1 Ni3 2.951373 1_555
La1 Ni1 2.951373 1_544
La1 Ni2 2.951373 1_645
B0 B2 1.974939 1_445
B0 Ni5 2.062467 1_545
B0 Ni4 2.062472 1_444
B0 Ni2 2.080163 1_544
B0 Ni3 2.080163 1_555
B0 Ni0 2.080163 1_555
B0 Ni1 2.080163 1_544
B1 Ni4 2.017300 1_555
B1 Ni5 2.017305 1_555
B1 Ni3 2.029643 1_555
B1 Ni2 2.029643 1_555
B1 Ni0 2.029643 1_555
B1 Ni1 2.029643 1_555
B1 La0 3.071269 1_566
B1 La0 3.071269 1_555
B2 Ni5 1.987172 1_655
B2 Ni4 1.987173 1_554
B2 La1 2.645487 1_565
B2 La1 2.645487 1_554
B2 La0 2.792391 1_555
