# generated using pymatgen
data_Mg14TiB
_symmetry_space_group_name_H-M   'P 1'
_cell_length_a   6.30546041
_cell_length_b   6.04216540
_cell_length_c   9.99730763
_cell_angle_alpha   90.00000000
_cell_angle_beta   90.00000000
_cell_angle_gamma   118.62805747
_symmetry_Int_Tables_number   1
_chemical_formula_structural   Mg14TiB
_chemical_formula_sum   'Mg14 Ti1 B1'
_cell_volume   334.32014283
_cell_formula_units_Z   1
loop_
 _symmetry_equiv_pos_site_id
 _symmetry_equiv_pos_as_xyz
  1  'x, y, z'
loop_
 _atom_site_type_symbol
 _atom_site_label
 _atom_site_symmetry_multiplicity
 _atom_site_fract_x
 _atom_site_fract_y
 _atom_site_fract_z
 _atom_site_occupancy
  Mg  Mg0  1  0.16774022  0.33386961  0.62500000  1
  Mg  Mg1  1  0.16087446  0.83043673  0.62500000  1
  Mg  Mg2  1  0.63166280  0.30352157  0.12500000  1
  Mg  Mg3  1  0.66095446  0.33474656  0.62500000  1
  Mg  Mg4  1  0.63166280  0.82814022  0.12500000  1
  Mg  Mg5  1  0.66095446  0.82620690  0.62500000  1
  Mg  Mg6  1  0.33008307  0.16451259  0.35946234  1
  Mg  Mg7  1  0.33008307  0.16451259  0.89053766  1
  Mg  Mg8  1  0.33008307  0.66557149  0.35946234  1
  Mg  Mg9  1  0.33008307  0.66557149  0.89053766  1
  Mg  Mg10  1  0.83894993  0.16947547  0.37468831  1
  Mg  Mg11  1  0.83894993  0.16947547  0.87531169  1
  Mg  Mg12  1  0.86391857  0.68195979  0.34277845  1
  Mg  Mg13  1  0.86391857  0.68195979  0.90722155  1
  Ti  Ti0  1  0.13600681  0.31800290  0.12500000  1
  B  B0  1  0.22407468  0.86203684  0.12500000  1
loop_
_geom_bond_atom_site_label_1
_geom_bond_atom_site_label_2
_geom_bond_distance
_geom_bond_site_symmetry_2
Mg0 Mg1 3.021322 1_545
Mg0 Mg1 3.021322 1_555
Mg0 Mg11 3.094127 1_455
Mg0 Mg10 3.094127 1_455
Mg0 Mg5 3.107407 1_555
Mg0 Mg3 3.107408 1_555
Mg0 Mg6 3.185268 1_555
Mg0 Mg7 3.185268 1_555
Mg0 Mg9 3.185273 1_555
Mg0 Mg8 3.185273 1_555
Mg0 Mg5 3.198059 1_445
Mg0 Mg3 3.198060 1_455
Mg1 Mg3 3.140061 1_455
Mg1 Mg5 3.140061 1_455
Mg1 Mg3 3.165559 1_565
Mg1 Mg5 3.165559 1_555
Mg1 Mg8 3.193169 1_555
Mg1 Mg9 3.193169 1_555
Mg1 Mg7 3.193175 1_565
Mg1 Mg6 3.193175 1_565
Mg1 Mg12 3.265244 1_455
Mg1 Mg13 3.265244 1_455
Mg2 Mg6 2.878428 1_555
Mg2 Mg7 2.878428 1_554
Mg2 Ti0 3.139138 1_655
Mg2 Ti0 3.168193 1_555
Mg3 Mg5 2.969485 1_555
Mg3 Mg5 3.072681 1_545
Mg3 Mg6 3.225139 1_555
Mg3 Mg7 3.225139 1_555
Mg4 Mg9 2.878427 1_554
Mg4 Mg8 2.878427 1_555
Mg4 Ti0 3.139138 1_665
Mg4 Ti0 3.168192 1_555
Mg5 Mg8 3.225139 1_555
Mg5 Mg9 3.225139 1_555
Mg6 Ti0 2.989893 1_555
Mg6 Mg8 3.014685 1_545
Mg6 Mg8 3.027481 1_555
Mg7 Ti0 2.989893 1_556
Mg7 Mg9 3.014685 1_545
Mg7 Mg9 3.027481 1_555
Mg8 Ti0 2.989899 1_555
Mg9 Ti0 2.989899 1_556
Mg10 Ti0 2.988998 1_655
Mg10 Mg12 3.041021 1_555
Mg10 Mg12 3.041021 1_545
Mg10 Mg3 3.097263 1_555
Mg10 Mg5 3.097269 1_545
Mg10 Mg2 3.099970 1_555
Mg10 Mg4 3.099976 1_545
Mg10 Mg8 3.115020 1_655
Mg10 Mg6 3.115020 1_655
Mg10 Mg8 3.198006 1_545
Mg10 Mg6 3.198006 1_555
Mg11 Ti0 2.988998 1_656
Mg11 Mg13 3.041021 1_555
Mg11 Mg13 3.041021 1_545
Mg11 Mg3 3.097263 1_555
Mg11 Mg5 3.097269 1_545
Mg11 Mg2 3.099970 1_556
Mg11 Mg4 3.099976 1_546
Mg11 Mg9 3.115020 1_655
Mg11 Mg7 3.115020 1_655
Mg11 Mg9 3.198006 1_545
Mg11 Mg7 3.198006 1_555
Mg12 Mg4 2.984041 1_555
Mg12 Mg2 2.984047 1_555
Mg12 Mg6 2.992740 1_665
Mg12 Mg8 2.992741 1_655
Mg12 Mg6 3.323961 1_555
Mg12 Mg8 3.323961 1_555
Mg12 Mg5 3.380372 1_555
Mg12 Mg3 3.380378 1_555
Mg13 Mg4 2.984041 1_556
Mg13 Mg2 2.984047 1_556
Mg13 Mg7 2.992740 1_665
Mg13 Mg9 2.992741 1_655
Mg13 Mg7 3.323961 1_555
Mg13 Mg9 3.323961 1_555
Mg13 Mg5 3.380372 1_555
Mg13 Mg3 3.380378 1_555
B0 Mg2 2.674208 1_565
B0 Mg4 2.674208 1_555
B0 Mg8 2.847911 1_555
B0 Mg9 2.847911 1_554
B0 Mg7 2.847917 1_564
B0 Mg6 2.847917 1_565
B0 Mg13 2.951869 1_454
B0 Mg12 2.951869 1_455
B0 Ti0 3.060150 1_555
B0 Ti0 3.060150 1_565
