# generated using pymatgen
data_CdFe4NiO8
_symmetry_space_group_name_H-M   'P 1'
_cell_length_a   6.14066802
_cell_length_b   6.14066802
_cell_length_c   6.14066796
_cell_angle_alpha   59.99191887
_cell_angle_beta   59.99191887
_cell_angle_gamma   59.99191942
_symmetry_Int_Tables_number   1
_chemical_formula_structural   CdFe4NiO8
_chemical_formula_sum   'Cd1 Fe4 Ni1 O8'
_cell_volume   163.70135523
_cell_formula_units_Z   1
loop_
 _symmetry_equiv_pos_site_id
 _symmetry_equiv_pos_as_xyz
  1  'x, y, z'
loop_
 _atom_site_type_symbol
 _atom_site_label
 _atom_site_symmetry_multiplicity
 _atom_site_fract_x
 _atom_site_fract_y
 _atom_site_fract_z
 _atom_site_occupancy
  Cd  Cd0  1  0.24889800  0.24889800  0.24889800  1
  Fe  Fe0  1  0.00186600  0.00186600  0.00186600  1
  Fe  Fe1  1  0.62313400  0.13145400  0.62313400  1
  Fe  Fe2  1  0.62313400  0.62313400  0.13145400  1
  Fe  Fe3  1  0.13145400  0.62313400  0.62313400  1
  Ni  Ni0  1  0.62402300  0.62402300  0.62402300  1
  O  O0  1  0.87255700  0.39314500  0.87255700  1
  O  O1  1  0.87255700  0.87255700  0.39314500  1
  O  O2  1  0.39314500  0.87255700  0.87255700  1
  O  O3  1  0.86821800  0.86821800  0.86821800  1
  O  O4  1  0.38821000  0.82368400  0.38821000  1
  O  O5  1  0.38821000  0.38821000  0.82368400  1
  O  O6  1  0.82368400  0.38821000  0.38821000  1
  O  O7  1  0.39090900  0.39090900  0.39090900  1
loop_
_geom_bond_atom_site_label_1
_geom_bond_atom_site_label_2
_geom_bond_distance
_geom_bond_site_symmetry_2
Cd0 O5 2.131895 1_554
Cd0 O4 2.131895 1_545
Cd0 O6 2.131895 1_455
Cd0 O7 2.136189 1_555
Fe0 O1 1.961646 1_445
Fe0 O2 1.961646 1_544
Fe0 O0 1.961646 1_454
Fe0 O3 2.010390 1_444
Fe1 O6 1.993400 1_555
Fe1 O5 1.993400 1_555
Fe1 O7 2.023461 1_555
Fe1 O2 2.124735 1_545
Fe1 O1 2.124735 1_545
Fe1 O3 2.131130 1_545
Fe2 O4 1.993400 1_555
Fe2 O6 1.993400 1_555
Fe2 O7 2.023461 1_555
Fe2 O2 2.124735 1_554
Fe2 O0 2.124735 1_554
Fe2 O3 2.131130 1_554
Fe3 O4 1.993400 1_555
Fe3 O5 1.993400 1_555
Fe3 O7 2.023461 1_555
Fe3 O0 2.124735 1_455
Fe3 O1 2.124735 1_455
Fe3 O3 2.131130 1_455
Ni0 O5 2.059762 1_555
Ni0 O6 2.059762 1_555
Ni0 O4 2.059762 1_555
Ni0 O1 2.160931 1_555
Ni0 O0 2.160931 1_555
Ni0 O2 2.160931 1_555
