# generated using pymatgen
data_Mg2V3O8
_symmetry_space_group_name_H-M   'P 1'
_cell_length_a   5.99571210
_cell_length_b   8.85987994
_cell_length_c   6.47547646
_cell_angle_alpha   95.01722133
_cell_angle_beta   117.57646421
_cell_angle_gamma   70.22309189
_symmetry_Int_Tables_number   1
_chemical_formula_structural   Mg2V3O8
_chemical_formula_sum   'Mg4 V6 O16'
_cell_volume   285.93391254
_cell_formula_units_Z   2
loop_
 _symmetry_equiv_pos_site_id
 _symmetry_equiv_pos_as_xyz
  1  'x, y, z'
loop_
 _atom_site_type_symbol
 _atom_site_label
 _atom_site_symmetry_multiplicity
 _atom_site_fract_x
 _atom_site_fract_y
 _atom_site_fract_z
 _atom_site_occupancy
  Mg  Mg0  1  0.82802500  0.89678900  0.55270300  1
  Mg  Mg1  1  0.32809300  0.39689700  0.05300200  1
  Mg  Mg2  1  0.17201500  0.10310200  0.44700400  1
  Mg  Mg3  1  0.67212900  0.60320900  0.94729500  1
  V  V0  1  0.74974000  0.24999200  0.75002700  1
  V  V1  1  0.27167000  0.00015000  0.99985300  1
  V  V2  1  0.77197200  0.49983900  0.50013500  1
  V  V3  1  0.24973200  0.75000500  0.24996000  1
  V  V4  1  0.22810600  0.49982800  0.50019600  1
  V  V5  1  0.72775000  0.00018000  0.99983000  1
  O  O0  1  0.04351500  0.35038700  0.43759000  1
  O  O1  1  0.54329700  0.85055400  0.93733200  1
  O  O2  1  0.95650300  0.64944200  0.56266800  1
  O  O3  1  0.45628900  0.14962100  0.06241000  1
  O  O4  1  0.54887600  0.34491500  0.44275000  1
  O  O5  1  0.04878300  0.84499900  0.94268400  1
  O  O6  1  0.45106300  0.65499900  0.55731600  1
  O  O7  1  0.95100000  0.15508900  0.05725200  1
  O  O8  1  0.42240400  0.91987800  0.31421400  1
  O  O9  1  0.92256700  0.41981600  0.81437500  1
  O  O10  1  0.97213400  0.91980500  0.31396100  1
  O  O11  1  0.47229800  0.41972100  0.81417700  1
  O  O12  1  0.02803900  0.08020300  0.68563100  1
  O  O13  1  0.52810500  0.58013600  0.18579400  1
  O  O14  1  0.57788400  0.08026500  0.68581800  1
  O  O15  1  0.07800900  0.58017700  0.18602600  1
loop_
_geom_bond_atom_site_label_1
_geom_bond_atom_site_label_2
_geom_bond_distance
_geom_bond_site_symmetry_2
Mg0 O2 2.058252 1_555
Mg0 O8 2.140701 1_555
Mg0 O10 2.142260 1_555
Mg0 O14 2.221902 1_565
Mg0 O12 2.222197 1_665
Mg0 O5 2.244247 1_655
Mg1 O3 2.057839 1_555
Mg1 O9 2.140785 1_454
Mg1 O11 2.142695 1_554
Mg1 O15 2.220504 1_555
Mg1 O13 2.220760 1_555
Mg1 O4 2.243111 1_555
Mg2 O0 2.057912 1_555
Mg2 O12 2.140658 1_555
Mg2 O14 2.142780 1_555
Mg2 O8 2.220419 1_545
Mg2 O10 2.220855 1_445
Mg2 O7 2.243138 1_455
Mg3 O1 2.058236 1_555
Mg3 O13 2.140574 1_556
Mg3 O15 2.142330 1_656
Mg3 O9 2.221835 1_555
Mg3 O11 2.222198 1_555
Mg3 O6 2.244236 1_555
O0 V4 1.903852 1_555
O0 V2 1.904172 1_455
O1 V5 1.904772 1_565
O1 V1 1.904943 1_565
O2 V4 1.904728 1_655
O2 V2 1.904903 1_555
O3 V5 1.903905 1_554
O3 V1 1.904242 1_554
O4 V0 1.872290 1_555
O4 V2 2.122361 1_555
O4 V4 2.123159 1_555
O5 V3 1.872489 1_556
O5 V1 2.123340 1_565
O5 V5 2.124098 1_465
O6 V3 1.872940 1_555
O6 V2 2.123588 1_555
O6 V4 2.123868 1_555
O7 V0 1.871962 1_554
O7 V1 2.122610 1_654
O7 V5 2.122916 1_554
O8 V1 1.892441 1_564
O8 V3 2.014006 1_555
O9 V2 1.891189 1_555
O9 V0 2.014179 1_555
O10 V5 1.891961 1_564
O10 V3 2.010065 1_655
O11 V4 1.890567 1_555
O11 V0 2.009661 1_555
O12 V1 1.891139 1_555
O12 V0 2.014183 1_455
O13 V2 1.892377 1_555
O13 V3 2.014017 1_555
O14 V5 1.890697 1_555
O14 V0 2.009584 1_555
O15 V4 1.892121 1_555
O15 V3 2.010030 1_555
