# generated using pymatgen
data_NaFe9Si6B3H3O31
_symmetry_space_group_name_H-M   'P 1'
_cell_length_a   9.85006884
_cell_length_b   9.85006884
_cell_length_c   9.85006899
_cell_angle_alpha   113.50949890
_cell_angle_beta   113.50949890
_cell_angle_gamma   113.50950176
_symmetry_Int_Tables_number   1
_chemical_formula_structural   NaFe9Si6B3H3O31
_chemical_formula_sum   'Na1 Fe9 Si6 B3 H3 O31'
_cell_volume   601.16404846
_cell_formula_units_Z   1
loop_
 _symmetry_equiv_pos_site_id
 _symmetry_equiv_pos_as_xyz
  1  'x, y, z'
loop_
 _atom_site_type_symbol
 _atom_site_label
 _atom_site_symmetry_multiplicity
 _atom_site_fract_x
 _atom_site_fract_y
 _atom_site_fract_z
 _atom_site_occupancy
  Na  Na0  1  0.46211800  0.46211800  0.46211800  1
  Fe  Fe0  1  0.80687900  0.57714400  0.14261300  1
  Fe  Fe1  1  0.57714400  0.14261300  0.80687900  1
  Fe  Fe2  1  0.80687900  0.14261300  0.57714400  1
  Fe  Fe3  1  0.14261300  0.80687900  0.57714400  1
  Fe  Fe4  1  0.57714400  0.80687900  0.14261300  1
  Fe  Fe5  1  0.14261300  0.57714400  0.80687900  1
  Fe  Fe6  1  0.99854400  0.81353600  0.81353600  1
  Fe  Fe7  1  0.81353600  0.81353600  0.99854400  1
  Fe  Fe8  1  0.81353600  0.99854400  0.81353600  1
  Si  Si0  1  0.03988200  0.41398000  0.22503300  1
  Si  Si1  1  0.41398000  0.22503300  0.03988200  1
  Si  Si2  1  0.03988200  0.22503300  0.41398000  1
  Si  Si3  1  0.22503300  0.03988200  0.41398000  1
  Si  Si4  1  0.41398000  0.03988200  0.22503300  1
  Si  Si5  1  0.22503300  0.41398000  0.03988200  1
  B  B0  1  0.47010900  0.79698400  0.79698400  1
  B  B1  1  0.79698400  0.79698400  0.47010900  1
  B  B2  1  0.79698400  0.47010900  0.79698400  1
  H  H0  1  0.86311700  0.49521000  0.49521000  1
  H  H1  1  0.49521000  0.49521000  0.86311700  1
  H  H2  1  0.49521000  0.86311700  0.49521000  1
  O  O0  1  0.99659300  0.61810400  0.61810400  1
  O  O1  1  0.61810400  0.61810400  0.99659300  1
  O  O2  1  0.61810400  0.99659300  0.61810400  1
  O  O3  1  0.73020300  0.40480400  0.87477400  1
  O  O4  1  0.40480400  0.87477400  0.73020300  1
  O  O5  1  0.73020300  0.87477400  0.40480400  1
  O  O6  1  0.87477400  0.73020300  0.40480400  1
  O  O7  1  0.40480400  0.73020300  0.87477400  1
  O  O8  1  0.87477400  0.40480400  0.73020300  1
  O  O9  1  0.83103000  0.20529700  0.00562200  1
  O  O10  1  0.20529700  0.00562200  0.83103000  1
  O  O11  1  0.83103000  0.00562200  0.20529700  1
  O  O12  1  0.00562200  0.83103000  0.20529700  1
  O  O13  1  0.20529700  0.83103000  0.00562200  1
  O  O14  1  0.00562200  0.20529700  0.83103000  1
  O  O15  1  0.49212200  0.22040800  0.22040800  1
  O  O16  1  0.22040800  0.22040800  0.49212200  1
  O  O17  1  0.22040800  0.49212200  0.22040800  1
  O  O18  1  0.58059700  0.30460400  0.02290900  1
  O  O19  1  0.30460400  0.02290900  0.58059700  1
  O  O20  1  0.58059700  0.02290900  0.30460400  1
  O  O21  1  0.02290900  0.58059700  0.30460400  1
  O  O22  1  0.30460400  0.58059700  0.02290900  1
  O  O23  1  0.02290900  0.30460400  0.58059700  1
  O  O24  1  0.11385700  0.38565200  0.38565200  1
  O  O25  1  0.38565200  0.38565200  0.11385700  1
  O  O26  1  0.38565200  0.11385700  0.38565200  1
  O  O27  1  0.99692900  0.99692900  0.99692900  1
  O  O28  1  0.60447800  0.78681200  0.78681200  1
  O  O29  1  0.78681200  0.78681200  0.60447800  1
  O  O30  1  0.78681200  0.60447800  0.78681200  1
loop_
_geom_bond_atom_site_label_1
_geom_bond_atom_site_label_2
_geom_bond_distance
_geom_bond_site_symmetry_2
Na0 O29 2.665989 1_555
Na0 O30 2.665990 1_555
Na0 O28 2.665990 1_555
Na0 O16 2.832796 1_555
Na0 O17 2.832796 1_555
Na0 O15 2.832796 1_555
Na0 O26 2.885648 1_555
Na0 O24 2.885648 1_555
Na0 O25 2.885648 1_555
Fe0 O6 2.025185 1_555
Fe0 O18 2.041886 1_555
Fe0 O3 2.055934 1_554
Fe0 O21 2.065265 1_655
Fe0 O12 2.089396 1_655
Fe0 O1 2.148684 1_554
Fe1 O3 2.025185 1_555
Fe1 O19 2.041886 1_555
Fe1 O4 2.055934 1_545
Fe1 O18 2.065265 1_556
Fe1 O9 2.089396 1_556
Fe1 O2 2.148684 1_545
Fe2 O8 2.025185 1_555
Fe2 O20 2.041886 1_555
Fe2 O5 2.055934 1_545
Fe2 O23 2.065265 1_655
Fe2 O14 2.089396 1_655
Fe2 O2 2.148684 1_545
Fe3 O4 2.025185 1_555
Fe3 O21 2.041886 1_555
Fe3 O6 2.055934 1_455
Fe3 O19 2.065265 1_565
Fe3 O10 2.089396 1_565
Fe3 O0 2.148684 1_455
Fe4 O5 2.025185 1_555
Fe4 O22 2.041886 1_555
Fe4 O7 2.055934 1_554
Fe4 O20 2.065265 1_565
Fe4 O11 2.089396 1_565
Fe4 O1 2.148684 1_554
Fe5 O7 2.025185 1_555
Fe5 O23 2.041886 1_555
Fe5 O8 2.055934 1_455
Fe5 O22 2.065265 1_556
Fe5 O13 2.089396 1_556
Fe5 O0 2.148684 1_455
Fe6 O27 1.992265 1_555
Fe6 O10 2.035396 1_665
Fe6 O13 2.035396 1_656
Fe6 O30 2.088686 1_555
Fe6 O29 2.088686 1_555
Fe6 O0 2.096741 1_555
Fe7 O27 1.992265 1_555
Fe7 O11 2.035396 1_566
Fe7 O12 2.035396 1_656
Fe7 O30 2.088686 1_555
Fe7 O28 2.088686 1_555
Fe7 O1 2.096741 1_555
Fe8 O27 1.992265 1_555
Fe8 O14 2.035396 1_665
Fe8 O9 2.035396 1_566
Fe8 O28 2.088686 1_555
Fe8 O29 2.088686 1_555
Fe8 O2 2.096741 1_555
B0 O7 1.375269 1_555
B0 O4 1.375269 1_555
B0 O28 1.405501 1_555
B1 O6 1.375269 1_555
B1 O5 1.375269 1_555
B1 O29 1.405501 1_555
B2 O3 1.375269 1_555
B2 O8 1.375269 1_555
B2 O30 1.405501 1_555
H0 O0 0.975068 1_555
H1 O1 0.975068 1_555
H2 O2 0.975068 1_555
O9 Si0 1.631950 1_655
O10 Si1 1.631950 1_556
O11 Si2 1.631950 1_655
O12 Si3 1.631950 1_565
O13 Si4 1.631950 1_565
O14 Si5 1.631950 1_556
O15 Si4 1.660469 1_555
O15 Si1 1.660469 1_555
O16 Si3 1.660469 1_555
O16 Si2 1.660469 1_555
O17 Si0 1.660469 1_555
O17 Si5 1.660469 1_555
O18 Si1 1.622643 1_555
O19 Si3 1.622643 1_555
O20 Si4 1.622643 1_555
O21 Si0 1.622643 1_555
O22 Si5 1.622643 1_555
O23 Si2 1.622643 1_555
O24 Si2 1.645161 1_555
O24 Si0 1.645161 1_555
O25 Si1 1.645161 1_555
O25 Si5 1.645161 1_555
O26 Si3 1.645161 1_555
O26 Si4 1.645161 1_555
