# generated using pymatgen
data_KNO3
_symmetry_space_group_name_H-M   'P 1'
_cell_length_a   9.51241200
_cell_length_b   5.16349500
_cell_length_c   7.16673800
_cell_angle_alpha   90.00000000
_cell_angle_beta   90.00000000
_cell_angle_gamma   90.00000000
_symmetry_Int_Tables_number   1
_chemical_formula_structural   KNO3
_chemical_formula_sum   'K4 N4 O12'
_cell_volume   352.01076160
_cell_formula_units_Z   4
loop_
 _symmetry_equiv_pos_site_id
 _symmetry_equiv_pos_as_xyz
  1  'x, y, z'
loop_
 _atom_site_type_symbol
 _atom_site_label
 _atom_site_symmetry_multiplicity
 _atom_site_fract_x
 _atom_site_fract_y
 _atom_site_fract_z
 _atom_site_occupancy
  K  K0  1  0.25330100  0.25000000  0.58286600  1
  K  K1  1  0.75330100  0.25000000  0.91713400  1
  K  K2  1  0.74669900  0.75000000  0.41713400  1
  K  K3  1  0.24669900  0.75000000  0.08286600  1
  N  N0  1  0.52175900  0.25000000  0.29369600  1
  N  N1  1  0.02175900  0.25000000  0.20630400  1
  N  N2  1  0.47824100  0.75000000  0.70630400  1
  N  N3  1  0.97824100  0.75000000  0.79369600  1
  O  O0  1  0.65577800  0.25000000  0.30345000  1
  O  O1  1  0.15577800  0.25000000  0.19655000  1
  O  O2  1  0.34422200  0.75000000  0.69655000  1
  O  O3  1  0.84422200  0.75000000  0.80345000  1
  O  O4  1  0.04309900  0.53678900  0.78925100  1
  O  O5  1  0.54309900  0.96321100  0.71074900  1
  O  O6  1  0.95690100  0.03678900  0.21074900  1
  O  O7  1  0.45690100  0.46321100  0.28925100  1
  O  O8  1  0.95690100  0.46321100  0.21074900  1
  O  O9  1  0.45690100  0.03678900  0.28925100  1
  O  O10  1  0.04309900  0.96321100  0.78925100  1
  O  O11  1  0.54309900  0.53678900  0.71074900  1
loop_
_geom_bond_atom_site_label_1
_geom_bond_atom_site_label_2
_geom_bond_distance
_geom_bond_site_symmetry_2
K0 O2 2.842049 1_545
K0 O2 2.842049 1_555
K0 O4 2.894605 1_555
K0 O10 2.894605 1_545
K0 O1 2.919910 1_555
K0 O7 3.064448 1_555
K0 O9 3.064448 1_555
K0 O11 3.260693 1_555
K0 O5 3.260693 1_545
K1 O3 2.842049 1_555
K1 O3 2.842049 1_545
K1 O11 2.894605 1_555
K1 O5 2.894605 1_545
K1 O0 2.919910 1_556
K1 O8 3.064448 1_556
K1 O6 3.064448 1_556
K1 O4 3.260693 1_655
K1 O10 3.260693 1_645
K2 O0 2.842049 1_555
K2 O0 2.842049 1_565
K2 O6 2.894605 1_565
K2 O8 2.894605 1_555
K2 O3 2.919910 1_555
K2 O5 3.064448 1_555
K2 O11 3.064448 1_555
K2 O9 3.260693 1_565
K2 O7 3.260693 1_555
K3 O1 2.842049 1_555
K3 O1 2.842049 1_565
K3 O9 2.894605 1_565
K3 O7 2.894605 1_555
K3 O2 2.919910 1_554
K3 O10 3.064448 1_554
K3 O4 3.064448 1_554
K3 O6 3.260693 1_465
K3 O8 3.260693 1_455
N0 O7 1.262403 1_555
N0 O9 1.262403 1_555
N0 O0 1.276759 1_555
N1 O8 1.262403 1_455
N1 O6 1.262403 1_455
N1 O1 1.276759 1_555
N2 O5 1.262403 1_555
N2 O11 1.262403 1_555
N2 O2 1.276759 1_555
N3 O10 1.262403 1_655
N3 O4 1.262403 1_655
N3 O3 1.276759 1_555
