# generated using pymatgen
data_Ca2VMoO6
_symmetry_space_group_name_H-M   'P 1'
_cell_length_a   5.44446954
_cell_length_b   5.60228500
_cell_length_c   7.79361370
_cell_angle_alpha   90.00101861
_cell_angle_beta   89.84317523
_cell_angle_gamma   89.99997998
_symmetry_Int_Tables_number   1
_chemical_formula_structural   Ca2VMoO6
_chemical_formula_sum   'Ca4 V2 Mo2 O12'
_cell_volume   237.71578404
_cell_formula_units_Z   2
loop_
 _symmetry_equiv_pos_site_id
 _symmetry_equiv_pos_as_xyz
  1  'x, y, z'
loop_
 _atom_site_type_symbol
 _atom_site_label
 _atom_site_symmetry_multiplicity
 _atom_site_fract_x
 _atom_site_fract_y
 _atom_site_fract_z
 _atom_site_occupancy
  Ca  Ca0  1  0.51044400  0.55044300  0.24919500  1
  Ca  Ca1  1  0.98954900  0.05044100  0.25080800  1
  Ca  Ca2  1  0.48955500  0.44955400  0.75080700  1
  Ca  Ca3  1  0.01043700  0.94955700  0.74919300  1
  V  V0  1  0.50007300  0.00001400  0.50000100  1
  V  V1  1  0.00000300  0.50000100  0.99999600  1
  Mo  Mo0  1  0.99998700  0.49999800  0.50000000  1
  Mo  Mo1  1  0.49999500  0.99999900  0.99999900  1
  O  O0  1  0.81232400  0.78324000  0.04842200  1
  O  O1  1  0.68766100  0.28324100  0.45158700  1
  O  O2  1  0.18767000  0.21675900  0.95157800  1
  O  O3  1  0.31233000  0.71675600  0.54841300  1
  O  O4  1  0.21446700  0.19096000  0.54351200  1
  O  O5  1  0.28552300  0.69096600  0.95648400  1
  O  O6  1  0.78552300  0.80904000  0.45648700  1
  O  O7  1  0.71447200  0.30903400  0.04351700  1
  O  O8  1  0.41204900  0.97225700  0.26267400  1
  O  O9  1  0.08794800  0.47225400  0.23733400  1
  O  O10  1  0.58794100  0.02774100  0.73732600  1
  O  O11  1  0.91204800  0.52774600  0.76266700  1
loop_
_geom_bond_atom_site_label_1
_geom_bond_atom_site_label_2
_geom_bond_distance
_geom_bond_site_symmetry_2
Ca0 O9 2.343675 1_555
Ca0 O7 2.371230 1_555
Ca0 O1 2.380813 1_555
Ca0 O8 2.425293 1_555
Ca0 O0 2.614708 1_555
Ca0 O6 2.639127 1_555
Ca0 O5 2.709045 1_554
Ca0 O3 2.730547 1_555
Ca1 O8 2.343693 1_645
Ca1 O6 2.371238 1_545
Ca1 O0 2.380761 1_545
Ca1 O9 2.425295 1_655
Ca1 O1 2.614743 1_555
Ca1 O7 2.639135 1_555
Ca1 O4 2.708962 1_655
Ca1 O2 2.730680 1_654
Ca2 O11 2.343662 1_555
Ca2 O5 2.371245 1_555
Ca2 O3 2.380841 1_555
Ca2 O10 2.425278 1_555
Ca2 O2 2.614710 1_555
Ca2 O4 2.639160 1_555
Ca2 O7 2.709024 1_556
Ca2 O1 2.730543 1_555
Ca3 O10 2.343672 1_465
Ca3 O4 2.371265 1_565
Ca3 O2 2.380777 1_565
Ca3 O11 2.425272 1_455
Ca3 O3 2.614768 1_555
Ca3 O5 2.639156 1_555
Ca3 O6 2.708962 1_455
Ca3 O0 2.730654 1_456
Mo0 O11 2.106832 1_555
Mo0 O9 2.106850 1_655
Mo0 O6 2.116158 1_555
Mo0 O4 2.116186 1_655
Mo0 O1 2.124146 1_555
Mo0 O3 2.124224 1_655
Mo1 O10 2.106889 1_565
Mo1 O8 2.106904 1_556
Mo1 O5 2.116134 1_555
Mo1 O7 2.116162 1_566
Mo1 O2 2.124170 1_565
Mo1 O0 2.124187 1_556
O0 V1 1.924135 1_654
O1 V0 1.923811 1_555
O2 V1 1.924102 1_555
O3 V0 1.924398 1_565
O4 V0 1.916864 1_555
O5 V1 1.916552 1_555
O6 V0 1.916267 1_565
O7 V1 1.916619 1_654
O8 V0 1.918293 1_565
O9 V1 1.918268 1_554
O10 V0 1.918050 1_555
O11 V1 1.918213 1_655
