# generated using pymatgen
data_Ba2CuSi2O7
_symmetry_space_group_name_H-M   'P 1'
_cell_length_a   8.41732000
_cell_length_b   8.41732000
_cell_length_c   5.35818400
_cell_angle_alpha   90.00000000
_cell_angle_beta   90.00000000
_cell_angle_gamma   90.00000000
_symmetry_Int_Tables_number   1
_chemical_formula_structural   Ba2CuSi2O7
_chemical_formula_sum   'Ba4 Cu2 Si4 O14'
_cell_volume   379.63417335
_cell_formula_units_Z   2
loop_
 _symmetry_equiv_pos_site_id
 _symmetry_equiv_pos_as_xyz
  1  'x, y, z'
loop_
 _atom_site_type_symbol
 _atom_site_label
 _atom_site_symmetry_multiplicity
 _atom_site_fract_x
 _atom_site_fract_y
 _atom_site_fract_z
 _atom_site_occupancy
  Ba  Ba0  1  0.66722400  0.16722400  0.50916400  1
  Ba  Ba1  1  0.83277600  0.66722400  0.49083600  1
  Ba  Ba2  1  0.16722400  0.33277600  0.49083600  1
  Ba  Ba3  1  0.33277600  0.83277600  0.50916400  1
  Cu  Cu0  1  0.50000000  0.50000000  0.00000000  1
  Cu  Cu1  1  0.00000000  0.00000000  0.00000000  1
  Si  Si0  1  0.86595000  0.36595000  0.97552200  1
  Si  Si1  1  0.63405000  0.86595000  0.02447800  1
  Si  Si2  1  0.36595000  0.13405000  0.02447800  1
  Si  Si3  1  0.13405000  0.63405000  0.97552200  1
  O  O0  1  0.69779000  0.42115000  0.84376300  1
  O  O1  1  0.30221000  0.57885000  0.84376300  1
  O  O2  1  0.42115000  0.30221000  0.15623700  1
  O  O3  1  0.57885000  0.69779000  0.15623700  1
  O  O4  1  0.92115000  0.19779000  0.84376300  1
  O  O5  1  0.80221000  0.92115000  0.15623700  1
  O  O6  1  0.19779000  0.07885000  0.15623700  1
  O  O7  1  0.07885000  0.80221000  0.84376300  1
  O  O8  1  0.86603600  0.36603600  0.27732100  1
  O  O9  1  0.63396400  0.86603600  0.72267900  1
  O  O10  1  0.00000000  0.50000000  0.86965500  1
  O  O11  1  0.50000000  0.00000000  0.13034500  1
  O  O12  1  0.13396400  0.63396400  0.27732100  1
  O  O13  1  0.36603600  0.13396400  0.72267900  1
loop_
_geom_bond_atom_site_label_1
_geom_bond_atom_site_label_2
_geom_bond_distance
_geom_bond_site_symmetry_2
Ba0 O8 2.672858 1_555
Ba0 O9 2.795434 1_545
Ba0 O13 2.795434 1_555
Ba0 O0 2.801581 1_555
Ba0 O4 2.801581 1_555
Ba0 O11 2.842985 1_555
Ba0 O5 3.026099 1_545
Ba0 O2 3.026099 1_555
Ba1 O9 2.672858 1_555
Ba1 O12 2.795434 1_655
Ba1 O8 2.795434 1_555
Ba1 O5 2.801581 1_555
Ba1 O3 2.801581 1_555
Ba1 O10 2.842985 1_655
Ba1 O0 3.026099 1_555
Ba1 O7 3.026099 1_655
Ba2 O13 2.672858 1_555
Ba2 O12 2.795434 1_555
Ba2 O8 2.795434 1_455
Ba2 O6 2.801581 1_555
Ba2 O2 2.801581 1_555
Ba2 O10 2.842985 1_555
Ba2 O4 3.026099 1_455
Ba2 O1 3.026099 1_555
Ba3 O12 2.672858 1_555
Ba3 O13 2.795434 1_565
Ba3 O9 2.795434 1_555
Ba3 O7 2.801581 1_555
Ba3 O1 2.801581 1_555
Ba3 O11 2.842985 1_565
Ba3 O3 3.026099 1_555
Ba3 O6 3.026099 1_565
Cu0 O1 1.978152 1_554
Cu0 O0 1.978152 1_554
Cu0 O2 1.978152 1_555
Cu0 O3 1.978152 1_555
Cu1 O6 1.978152 1_555
Cu1 O4 1.978152 1_454
Cu1 O5 1.978152 1_445
Cu1 O7 1.978152 1_544
O0 Si0 1.648583 1_555
O1 Si3 1.648583 1_555
O2 Si2 1.648583 1_555
O3 Si1 1.648583 1_555
O4 Si0 1.648583 1_555
O5 Si1 1.648583 1_555
O6 Si2 1.648583 1_555
O7 Si3 1.648583 1_555
O8 Si0 1.617095 1_554
O9 Si1 1.617095 1_556
O10 Si0 1.693543 1_455
O10 Si3 1.693543 1_555
O11 Si1 1.693543 1_545
O11 Si2 1.693543 1_555
O12 Si3 1.617095 1_554
O13 Si2 1.617095 1_556
