# generated using pymatgen
data_CaWO3
_symmetry_space_group_name_H-M   'P 1'
_cell_length_a   4.09948691
_cell_length_b   4.09948691
_cell_length_c   4.12867910
_cell_angle_alpha   88.89967660
_cell_angle_beta   88.89967660
_cell_angle_gamma   86.75179450
_symmetry_Int_Tables_number   1
_chemical_formula_structural   CaWO3
_chemical_formula_sum   'Ca1 W1 O3'
_cell_volume   69.25007417
_cell_formula_units_Z   1
loop_
 _symmetry_equiv_pos_site_id
 _symmetry_equiv_pos_as_xyz
  1  'x, y, z'
loop_
 _atom_site_type_symbol
 _atom_site_label
 _atom_site_symmetry_multiplicity
 _atom_site_fract_x
 _atom_site_fract_y
 _atom_site_fract_z
 _atom_site_occupancy
  Ca  Ca0  1  0.55078800  0.55078800  0.49973500  1
  W  W0  1  0.97307500  0.97307500  0.00763900  1
  O  O0  1  0.94856400  0.94856400  0.51059200  1
  O  O1  1  0.46935000  0.93870300  0.01832400  1
  O  O2  1  0.93870300  0.46935000  0.01832400  1
loop_
_geom_bond_atom_site_label_1
_geom_bond_atom_site_label_2
_geom_bond_distance
_geom_bond_site_symmetry_2
Ca0 O0 2.372168 1_555
Ca0 O1 2.536692 1_555
Ca0 O2 2.536692 1_555
Ca0 O2 2.695880 1_556
Ca0 O1 2.695880 1_556
Ca0 O0 2.880708 1_545
Ca0 O0 2.880708 1_455
O0 W0 2.061186 1_556
O0 W0 2.077810 1_555
O1 W0 2.032634 1_455
O1 W0 2.077335 1_555
O2 W0 2.032634 1_545
O2 W0 2.077335 1_555
