# generated using pymatgen
data_LiMnSnO4
_symmetry_space_group_name_H-M   'P 1'
_cell_length_a   5.94889000
_cell_length_b   5.94889000
_cell_length_c   9.22073500
_cell_angle_alpha   90.00000000
_cell_angle_beta   90.00000000
_cell_angle_gamma   90.00000000
_symmetry_Int_Tables_number   1
_chemical_formula_structural   LiMnSnO4
_chemical_formula_sum   'Li4 Mn4 Sn4 O16'
_cell_volume   326.31528551
_cell_formula_units_Z   4
loop_
 _symmetry_equiv_pos_site_id
 _symmetry_equiv_pos_as_xyz
  1  'x, y, z'
loop_
 _atom_site_type_symbol
 _atom_site_label
 _atom_site_symmetry_multiplicity
 _atom_site_fract_x
 _atom_site_fract_y
 _atom_site_fract_z
 _atom_site_occupancy
  Li  Li0  1  0.00000000  0.23314700  0.00000000  1
  Li  Li1  1  0.00000000  0.76685300  0.50000000  1
  Li  Li2  1  0.23314700  0.00000000  0.25000000  1
  Li  Li3  1  0.76685300  0.00000000  0.75000000  1
  Mn  Mn0  1  0.23749800  0.50000000  0.25000000  1
  Mn  Mn1  1  0.50000000  0.23749800  0.00000000  1
  Mn  Mn2  1  0.50000000  0.76250200  0.50000000  1
  Mn  Mn3  1  0.76250200  0.50000000  0.75000000  1
  Sn  Sn0  1  0.26031800  0.26031800  0.62500000  1
  Sn  Sn1  1  0.26031800  0.73968200  0.87500000  1
  Sn  Sn2  1  0.73968200  0.26031800  0.37500000  1
  Sn  Sn3  1  0.73968200  0.73968200  0.12500000  1
  O  O0  1  0.01342400  0.26128700  0.25170700  1
  O  O1  1  0.01342400  0.73871300  0.24829300  1
  O  O2  1  0.26128700  0.01342400  0.99829300  1
  O  O3  1  0.26128700  0.98657600  0.50170700  1
  O  O4  1  0.26205500  0.47332300  0.00771500  1
  O  O5  1  0.26205500  0.52667700  0.49228500  1
  O  O6  1  0.47332300  0.26205500  0.24228500  1
  O  O7  1  0.47332300  0.73794500  0.25771500  1
  O  O8  1  0.52667700  0.26205500  0.75771500  1
  O  O9  1  0.52667700  0.73794500  0.74228500  1
  O  O10  1  0.73794500  0.52667700  0.50771500  1
  O  O11  1  0.73794500  0.47332300  0.99228500  1
  O  O12  1  0.73871300  0.01342400  0.00170700  1
  O  O13  1  0.73871300  0.98657600  0.49829300  1
  O  O14  1  0.98657600  0.26128700  0.74829300  1
  O  O15  1  0.98657600  0.73871300  0.75170700  1
loop_
_geom_bond_atom_site_label_1
_geom_bond_atom_site_label_2
_geom_bond_distance
_geom_bond_site_symmetry_2
Li0 O2 2.030970 1_554
Li0 O12 2.030970 1_455
Li0 O4 2.115835 1_555
Li0 O11 2.115835 1_454
Li0 O14 2.328323 1_454
Li0 O0 2.328323 1_555
Li1 O3 2.030970 1_555
Li1 O13 2.030970 1_455
Li1 O5 2.115835 1_555
Li1 O10 2.115835 1_455
Li1 O15 2.328323 1_455
Li1 O1 2.328323 1_555
Li2 O0 2.030970 1_555
Li2 O1 2.030970 1_545
Li2 O6 2.115835 1_555
Li2 O7 2.115835 1_545
Li2 O3 2.328323 1_545
Li2 O2 2.328323 1_554
Li3 O14 2.030970 1_555
Li3 O15 2.030970 1_545
Li3 O8 2.115835 1_555
Li3 O9 2.115835 1_545
Li3 O12 2.328323 1_556
Li3 O13 2.328323 1_545
Mn0 O1 1.947751 1_555
Mn0 O0 1.947751 1_555
Mn0 O7 1.994203 1_555
Mn0 O6 1.994203 1_555
Mn0 O5 2.244435 1_555
Mn0 O4 2.244435 1_555
Mn1 O12 1.947751 1_555
Mn1 O2 1.947751 1_554
Mn1 O11 1.994203 1_554
Mn1 O4 1.994203 1_555
Mn1 O8 2.244435 1_554
Mn1 O6 2.244435 1_555
Mn2 O13 1.947751 1_555
Mn2 O3 1.947751 1_555
Mn2 O10 1.994203 1_555
Mn2 O5 1.994203 1_555
Mn2 O9 2.244435 1_555
Mn2 O7 2.244435 1_555
Mn3 O15 1.947751 1_555
Mn3 O14 1.947751 1_555
Mn3 O9 1.994203 1_555
Mn3 O8 1.994203 1_555
Mn3 O10 2.244435 1_555
Mn3 O11 2.244435 1_555
O0 Sn2 1.986039 1_455
O1 Sn3 1.986039 1_455
O2 Sn1 1.986039 1_545
O3 Sn0 1.986039 1_565
O4 Sn1 2.002096 1_554
O5 Sn0 2.002096 1_555
O6 Sn2 2.002096 1_555
O7 Sn3 2.002096 1_555
O8 Sn0 2.002096 1_555
O9 Sn1 2.002096 1_555
O10 Sn2 2.002096 1_555
O11 Sn3 2.002096 1_556
O12 Sn3 1.986039 1_545
O13 Sn2 1.986039 1_565
O14 Sn0 1.986039 1_655
O15 Sn1 1.986039 1_655
