# generated using pymatgen
data_Mg5ZnN4
_symmetry_space_group_name_H-M   'P 1'
_cell_length_a   7.14735600
_cell_length_b   6.75933600
_cell_length_c   5.18337800
_cell_angle_alpha   90.00000000
_cell_angle_beta   90.00000000
_cell_angle_gamma   90.00000000
_symmetry_Int_Tables_number   1
_chemical_formula_structural   Mg5ZnN4
_chemical_formula_sum   'Mg10 Zn2 N8'
_cell_volume   250.41614795
_cell_formula_units_Z   2
loop_
 _symmetry_equiv_pos_site_id
 _symmetry_equiv_pos_as_xyz
  1  'x, y, z'
loop_
 _atom_site_type_symbol
 _atom_site_label
 _atom_site_symmetry_multiplicity
 _atom_site_fract_x
 _atom_site_fract_y
 _atom_site_fract_z
 _atom_site_occupancy
  Mg  Mg0  1  0.55086400  0.50258500  0.24938300  1
  Mg  Mg1  1  0.94913600  0.50258500  0.24938300  1
  Mg  Mg2  1  0.55086400  0.99741500  0.24938300  1
  Mg  Mg3  1  0.94913600  0.99741500  0.24938300  1
  Mg  Mg4  1  0.44913600  0.49741500  0.75061700  1
  Mg  Mg5  1  0.05086400  0.49741500  0.75061700  1
  Mg  Mg6  1  0.44913600  0.00258500  0.75061700  1
  Mg  Mg7  1  0.05086400  0.00258500  0.75061700  1
  Mg  Mg8  1  0.75000000  0.75000000  0.72242900  1
  Mg  Mg9  1  0.25000000  0.25000000  0.27757100  1
  Zn  Zn0  1  0.75000000  0.25000000  0.72668600  1
  Zn  Zn1  1  0.25000000  0.75000000  0.27331400  1
  N  N0  1  0.75000000  0.99874200  0.95292600  1
  N  N1  1  0.75000000  0.50125800  0.95292600  1
  N  N2  1  0.25000000  0.00125800  0.04707400  1
  N  N3  1  0.25000000  0.49874200  0.04707400  1
  N  N4  1  0.50202100  0.75000000  0.50263900  1
  N  N5  1  0.99797900  0.75000000  0.50263900  1
  N  N6  1  0.49797900  0.25000000  0.49736100  1
  N  N7  1  0.00202100  0.25000000  0.49736100  1
loop_
_geom_bond_atom_site_label_1
_geom_bond_atom_site_label_2
_geom_bond_distance
_geom_bond_site_symmetry_2
Mg0 N1 2.094550 1_554
Mg0 N4 2.154507 1_555
Mg0 N6 2.170238 1_555
Mg0 N3 2.392587 1_555
Mg1 N1 2.094550 1_554
Mg1 N5 2.154507 1_555
Mg1 N7 2.170238 1_655
Mg1 N3 2.392587 1_655
Mg2 N0 2.094550 1_554
Mg2 N4 2.154507 1_555
Mg2 N6 2.170238 1_565
Mg2 N2 2.392587 1_565
Mg3 N0 2.094550 1_554
Mg3 N5 2.154507 1_555
Mg3 N7 2.170238 1_665
Mg3 N2 2.392587 1_665
Mg4 N3 2.094550 1_556
Mg4 N6 2.154507 1_555
Mg4 N4 2.170238 1_555
Mg4 N1 2.392587 1_555
Mg5 N3 2.094550 1_556
Mg5 N7 2.154507 1_555
Mg5 N5 2.170238 1_455
Mg5 N1 2.392587 1_455
Mg6 N2 2.094550 1_556
Mg6 N6 2.154507 1_555
Mg6 N4 2.170238 1_545
Mg6 N0 2.392587 1_545
Mg7 N2 2.094550 1_556
Mg7 N7 2.154507 1_555
Mg7 N5 2.170238 1_445
Mg7 N0 2.392587 1_445
Mg8 N0 2.062597 1_555
Mg8 N1 2.062597 1_555
Mg8 N5 2.106960 1_555
Mg8 N4 2.106960 1_555
Mg9 N3 2.062597 1_555
Mg9 N2 2.062597 1_555
Mg9 N7 2.106960 1_555
Mg9 N6 2.106960 1_555
N0 Zn0 2.063867 1_565
N1 Zn0 2.063867 1_555
N2 Zn1 2.063867 1_545
N3 Zn1 2.063867 1_555
N4 Zn1 2.158143 1_555
N5 Zn1 2.158143 1_655
N6 Zn0 2.158143 1_555
N7 Zn0 2.158143 1_455
