# generated using pymatgen
data_Sr4CaCr2(SO3)2
_symmetry_space_group_name_H-M   'P 1'
_cell_length_a   3.96920800
_cell_length_b   17.02114780
_cell_length_c   7.94173201
_cell_angle_alpha   76.51456860
_cell_angle_beta   90.00017319
_cell_angle_gamma   90.00000953
_symmetry_Int_Tables_number   1
_chemical_formula_structural   Sr4CaCr2(SO3)2
_chemical_formula_sum   'Sr8 Ca2 Cr4 S4 O12'
_cell_volume   521.75418493
_cell_formula_units_Z   2
loop_
 _symmetry_equiv_pos_site_id
 _symmetry_equiv_pos_as_xyz
  1  'x, y, z'
loop_
 _atom_site_type_symbol
 _atom_site_label
 _atom_site_symmetry_multiplicity
 _atom_site_fract_x
 _atom_site_fract_y
 _atom_site_fract_z
 _atom_site_occupancy
  Sr  Sr0  1  0.74999900  0.20467400  0.02267100  1
  Sr  Sr1  1  0.75000600  0.20467300  0.52265100  1
  Sr  Sr2  1  0.24999900  0.79532200  0.97732000  1
  Sr  Sr3  1  0.24999600  0.79532400  0.47735700  1
  Sr  Sr4  1  0.75000400  0.41810200  0.91594200  1
  Sr  Sr5  1  0.74999500  0.41810400  0.41594300  1
  Sr  Sr6  1  0.24999400  0.58189600  0.08406600  1
  Sr  Sr7  1  0.25000200  0.58189500  0.58403600  1
  Ca  Ca0  1  0.25000700  0.99999400  0.12501400  1
  Ca  Ca1  1  0.24999500  0.99999200  0.62500900  1
  Cr  Cr0  1  0.25000300  0.31798100  0.21604500  1
  Cr  Cr1  1  0.75000800  0.68207200  0.78395400  1
  Cr  Cr2  1  0.24999100  0.31798700  0.71605400  1
  Cr  Cr3  1  0.75000400  0.68201800  0.28394700  1
  S  S0  1  0.25000000  0.11287500  0.31857900  1
  S  S1  1  0.25000100  0.11287800  0.81858000  1
  S  S2  1  0.74999900  0.88713000  0.68140800  1
  S  S3  1  0.75000000  0.88712300  0.18141300  1
  O  O0  1  0.74999800  0.30074800  0.22464500  1
  O  O1  1  0.75000300  0.30074400  0.72464400  1
  O  O2  1  0.74999900  0.69721400  0.02633600  1
  O  O3  1  0.74999700  0.69721200  0.52634800  1
  O  O4  1  0.24999900  0.30251400  0.97379600  1
  O  O5  1  0.24999900  0.30251300  0.47379400  1
  O  O6  1  0.25000400  0.69949600  0.77523800  1
  O  O7  1  0.25000400  0.69951700  0.27522900  1
  O  O8  1  0.24999900  0.43410400  0.15798700  1
  O  O9  1  0.25000200  0.43408900  0.65799100  1
  O  O10  1  0.74999500  0.56588100  0.84201300  1
  O  O11  1  0.74999700  0.56592800  0.34199100  1
loop_
_geom_bond_atom_site_label_1
_geom_bond_atom_site_label_2
_geom_bond_distance
_geom_bond_site_symmetry_2
Ca0 S3 2.725583 1_555
Ca0 S3 2.725625 1_455
Ca0 S0 2.726224 1_565
Ca0 S1 2.726438 1_564
Ca1 S2 2.725491 1_455
Ca1 S2 2.725513 1_555
Ca1 S1 2.726330 1_565
Ca1 S0 2.726406 1_565
Cr0 O8 1.922052 1_555
Cr0 O4 2.001708 1_554
Cr0 O5 2.002014 1_555
Cr0 O0 2.004977 1_555
Cr0 O0 2.005017 1_455
Cr1 O10 1.923177 1_555
Cr1 O2 2.000795 1_556
Cr1 O3 2.001492 1_555
Cr1 O6 2.005434 1_655
Cr1 O6 2.005465 1_555
Cr2 O9 1.921704 1_555
Cr2 O5 2.001837 1_555
Cr2 O4 2.001950 1_555
Cr2 O1 2.004974 1_455
Cr2 O1 2.005068 1_555
Cr3 O11 1.921506 1_555
Cr3 O3 2.001258 1_555
Cr3 O2 2.001428 1_555
Cr3 O7 2.005628 1_555
Cr3 O7 2.005628 1_655
S0 Sr1 3.191817 1_455
S0 Sr1 3.191841 1_555
S0 Sr0 3.192199 1_455
S0 Sr0 3.192203 1_555
S1 Sr0 3.191894 1_556
S1 Sr0 3.191910 1_456
S1 Sr1 3.192267 1_455
S1 Sr1 3.192300 1_555
S2 Sr3 3.191804 1_655
S2 Sr3 3.191812 1_555
S2 Sr2 3.192265 1_655
S2 Sr2 3.192274 1_555
S3 Sr2 3.191963 1_554
S3 Sr2 3.191965 1_654
S3 Sr3 3.192365 1_655
S3 Sr3 3.192393 1_555
O0 Sr1 2.543688 1_555
O0 Sr0 2.543706 1_555
O0 Sr5 2.777339 1_555
O0 Sr4 2.777862 1_554
O1 Sr0 2.543782 1_556
O1 Sr1 2.543784 1_555
O1 Sr4 2.777367 1_555
O1 Sr5 2.777903 1_555
O2 Sr2 2.564294 1_554
O2 Sr2 2.564295 1_654
O2 Sr6 2.753509 1_655
O2 Sr6 2.753539 1_555
O3 Sr3 2.564334 1_655
O3 Sr3 2.564339 1_555
O3 Sr7 2.753499 1_555
O3 Sr7 2.753526 1_655
O4 Sr0 2.561487 1_556
O4 Sr0 2.561489 1_456
O4 Sr4 2.756609 1_455
O4 Sr4 2.756639 1_555
O5 Sr1 2.561467 1_455
O5 Sr1 2.561509 1_555
O5 Sr5 2.756648 1_555
O5 Sr5 2.756669 1_455
O6 Sr2 2.541043 1_555
O6 Sr3 2.541125 1_555
O6 Sr7 2.780326 1_555
O6 Sr6 2.780722 1_556
O7 Sr3 2.541073 1_555
O7 Sr2 2.541132 1_554
O7 Sr6 2.780394 1_555
O7 Sr7 2.780796 1_555
O8 Sr6 2.446233 1_555
O8 Sr5 2.819460 1_555
O8 Sr5 2.819491 1_455
O8 Sr4 2.819929 1_454
O8 Sr4 2.819965 1_554
O9 Sr7 2.446465 1_555
O9 Sr4 2.819463 1_455
O9 Sr4 2.819465 1_555
O9 Sr5 2.819874 1_555
O9 Sr5 2.819905 1_455
O10 Sr4 2.446018 1_555
O10 Sr7 2.819552 1_555
O10 Sr7 2.819600 1_655
O10 Sr6 2.820041 1_656
O10 Sr6 2.820055 1_556
O11 Sr5 2.446763 1_555
O11 Sr6 2.819338 1_655
O11 Sr6 2.819346 1_555
O11 Sr7 2.819785 1_555
O11 Sr7 2.819805 1_655
