# generated using pymatgen
data_Nd4MgPt
_symmetry_space_group_name_H-M   'P 1'
_cell_length_a   10.07855198
_cell_length_b   10.07852576
_cell_length_c   10.07855196
_cell_angle_alpha   60.00060034
_cell_angle_beta   60.00055355
_cell_angle_gamma   60.00066734
_symmetry_Int_Tables_number   1
_chemical_formula_structural   Nd4MgPt
_chemical_formula_sum   'Nd16 Mg4 Pt4'
_cell_volume   723.90948853
_cell_formula_units_Z   4
loop_
 _symmetry_equiv_pos_site_id
 _symmetry_equiv_pos_as_xyz
  1  'x, y, z'
loop_
 _atom_site_type_symbol
 _atom_site_label
 _atom_site_symmetry_multiplicity
 _atom_site_fract_x
 _atom_site_fract_y
 _atom_site_fract_z
 _atom_site_occupancy
  Nd  Nd0  1  0.34776893  0.34778309  0.34777763  1
  Nd  Nd1  1  0.34778139  0.34779123  0.95665644  1
  Nd  Nd2  1  0.34778704  0.95665251  0.34778856  1
  Nd  Nd3  1  0.95666351  0.34778473  0.34778408  1
  Nd  Nd4  1  0.80967384  0.19032226  0.19033271  1
  Nd  Nd5  1  0.19031715  0.80967860  0.80967648  1
  Nd  Nd6  1  0.19032841  0.80966652  0.19032392  1
  Nd  Nd7  1  0.80967547  0.19031334  0.80967540  1
  Nd  Nd8  1  0.19033532  0.19031818  0.80967422  1
  Nd  Nd9  1  0.80967612  0.80967784  0.19031427  1
  Nd  Nd10  1  0.93559174  0.56441548  0.56440734  1
  Nd  Nd11  1  0.56442062  0.93558642  0.93557823  1
  Nd  Nd12  1  0.56441310  0.93559392  0.56441869  1
  Nd  Nd13  1  0.93557765  0.56443222  0.93558546  1
  Nd  Nd14  1  0.56440892  0.56441904  0.93559128  1
  Nd  Nd15  1  0.93557439  0.93558835  0.56442616  1
  Mg  Mg0  1  0.57943607  0.57944106  0.57943865  1
  Mg  Mg1  1  0.57944619  0.57944971  0.26167127  1
  Mg  Mg2  1  0.57944646  0.26167352  0.57944665  1
  Mg  Mg3  1  0.26167043  0.57944945  0.57944777  1
  Pt  Pt0  1  0.14260523  0.14259000  0.14259777  1
  Pt  Pt1  1  0.14260227  0.14258756  0.57220104  1
  Pt  Pt2  1  0.14260104  0.57219878  0.14259374  1
  Pt  Pt3  1  0.57220371  0.14258917  0.14259722  1
loop_
_geom_bond_atom_site_label_1
_geom_bond_atom_site_label_2
_geom_bond_distance
_geom_bond_site_symmetry_2
Nd0 Pt2 2.930858 1_555
Nd0 Pt1 2.930925 1_555
Nd0 Pt3 2.931018 1_555
Nd0 Nd10 3.663087 1_455
Nd0 Nd14 3.663179 1_554
Nd0 Nd12 3.663227 1_545
Nd1 Pt2 2.930797 1_556
Nd1 Pt3 2.930937 1_556
Nd1 Pt0 2.931031 1_556
Nd1 Nd14 3.663088 1_555
Nd1 Nd13 3.663265 1_455
Nd1 Nd11 3.663289 1_545
Nd2 Pt1 2.930819 1_565
Nd2 Pt3 2.930858 1_565
Nd2 Pt0 2.931007 1_565
Nd3 Pt2 2.930844 1_655
Nd3 Pt1 2.930883 1_655
Nd3 Pt0 2.931061 1_655
Nd4 Pt0 2.953813 1_655
Nd4 Pt3 2.953861 1_555
Nd5 Pt1 2.953714 1_565
Nd5 Pt2 2.953785 1_556
Nd6 Pt2 2.953760 1_555
Nd6 Pt0 2.953785 1_565
Nd7 Pt3 2.953789 1_556
Nd7 Pt1 2.953831 1_655
Nd8 Pt0 2.953764 1_556
Nd8 Pt1 2.953860 1_555
Nd9 Pt3 2.953722 1_565
Nd9 Pt2 2.953835 1_655
Nd10 Pt2 3.659644 1_655
Nd10 Pt1 3.659735 1_655
Nd10 Nd3 3.663042 1_555
Nd10 Nd15 3.740883 1_555
Nd10 Nd13 3.740951 1_555
Nd10 Nd12 3.740975 1_555
Nd10 Nd14 3.741022 1_555
Nd10 Nd6 3.776652 1_655
Nd10 Nd9 3.776787 1_555
Nd10 Nd8 3.776820 1_655
Nd10 Nd7 3.776854 1_555
Nd11 Pt3 3.659531 1_566
Nd11 Pt0 3.659647 1_566
Nd11 Nd2 3.663302 1_556
Nd11 Nd15 3.740715 1_555
Nd11 Nd13 3.740744 1_555
Nd11 Nd12 3.740751 1_555
Nd11 Nd14 3.740813 1_555
Nd11 Nd7 3.776575 1_565
Nd11 Nd9 3.776649 1_556
Nd11 Nd8 3.776665 1_565
Nd11 Nd6 3.776795 1_556
Nd12 Pt1 3.659627 1_565
Nd12 Pt3 3.659694 1_565
Nd12 Nd2 3.663138 1_555
Nd12 Nd15 3.740778 1_555
Nd12 Nd14 3.740923 1_555
Nd12 Nd8 3.776596 1_565
Nd12 Nd4 3.776666 1_565
Nd12 Nd5 3.776803 1_555
Nd12 Nd9 3.776880 1_555
Nd13 Pt2 3.659525 1_656
Nd13 Pt0 3.659851 1_656
Nd13 Nd3 3.663267 1_556
Nd13 Nd15 3.740761 1_555
Nd13 Nd14 3.740880 1_555
Nd13 Nd9 3.776521 1_556
Nd13 Nd5 3.776590 1_655
Nd13 Nd4 3.776858 1_556
Nd13 Nd8 3.776934 1_655
Nd14 Pt2 3.659604 1_556
Nd14 Pt3 3.659747 1_556
Nd14 Nd6 3.776608 1_556
Nd14 Nd5 3.776773 1_555
Nd14 Nd4 3.776797 1_556
Nd14 Nd7 3.776886 1_555
Nd15 Pt1 3.659528 1_665
Nd15 Pt0 3.659747 1_665
Nd15 Nd3 3.663248 1_565
Nd15 Nd2 3.663315 1_655
Nd15 Nd7 3.776527 1_565
Nd15 Nd5 3.776659 1_655
Nd15 Nd4 3.776714 1_565
Nd15 Nd6 3.776892 1_655
Mg0 Mg3 3.202529 1_555
Mg0 Mg2 3.202536 1_555
Mg0 Mg1 3.202540 1_555
Mg0 Nd10 3.444738 1_555
Mg0 Nd14 3.444743 1_555
Mg0 Nd12 3.444764 1_555
Mg0 Nd2 3.613037 1_555
Mg0 Nd1 3.613082 1_555
Mg0 Nd3 3.613154 1_555
Mg0 Nd5 3.651500 1_555
Mg0 Nd9 3.651526 1_555
Mg0 Nd7 3.651543 1_555
Mg1 Mg2 3.202745 1_555
Mg1 Mg3 3.202750 1_555
Mg1 Nd13 3.444572 1_554
Mg1 Nd14 3.444603 1_554
Mg1 Nd11 3.444631 1_554
Mg1 Nd2 3.613078 1_555
Mg1 Nd3 3.613192 1_555
Mg1 Nd0 3.613303 1_555
Mg1 Nd9 3.651306 1_555
Mg1 Nd6 3.651445 1_555
Mg1 Nd4 3.651481 1_555
Mg2 Mg3 3.202750 1_555
Mg2 Nd15 3.444551 1_545
Mg2 Nd12 3.444555 1_545
Mg2 Nd11 3.444576 1_545
Mg2 Nd1 3.613144 1_555
Mg2 Nd3 3.613175 1_555
Mg2 Nd0 3.613322 1_555
Mg2 Nd7 3.651299 1_555
Mg2 Nd8 3.651414 1_555
Mg2 Nd4 3.651423 1_555
Mg3 Nd10 3.444626 1_455
Mg3 Nd13 3.444638 1_455
Mg3 Nd15 3.444660 1_455
Mg3 Nd2 3.613074 1_555
Mg3 Nd1 3.613108 1_555
Mg3 Nd0 3.613274 1_555
Mg3 Nd5 3.651323 1_555
Mg3 Nd6 3.651472 1_555
Mg3 Nd8 3.651496 1_555
