# generated using pymatgen
data_RbTb3F10
_symmetry_space_group_name_H-M   'P 1'
_cell_length_a   8.21887157
_cell_length_b   8.21887066
_cell_length_c   8.21887819
_cell_angle_alpha   59.99976082
_cell_angle_beta   59.99975445
_cell_angle_gamma   59.99984893
_symmetry_Int_Tables_number   1
_chemical_formula_structural   RbTb3F10
_chemical_formula_sum   'Rb2 Tb6 F20'
_cell_volume   392.57243288
_cell_formula_units_Z   2
loop_
 _symmetry_equiv_pos_site_id
 _symmetry_equiv_pos_as_xyz
  1  'x, y, z'
loop_
 _atom_site_type_symbol
 _atom_site_label
 _atom_site_symmetry_multiplicity
 _atom_site_fract_x
 _atom_site_fract_y
 _atom_site_fract_z
 _atom_site_occupancy
  Rb  Rb0  1  0.25000004  0.24999989  0.24999975  1
  Rb  Rb1  1  0.74999999  0.75000006  0.75000044  1
  Tb  Tb0  1  0.76008149  0.23991839  0.23991768  1
  Tb  Tb1  1  0.23991841  0.76008197  0.76008156  1
  Tb  Tb2  1  0.23991694  0.76008255  0.23991879  1
  Tb  Tb3  1  0.76008101  0.23991923  0.76008297  1
  Tb  Tb4  1  0.23991913  0.23991852  0.76008093  1
  Tb  Tb5  1  0.76008165  0.76008081  0.23991920  1
  F  F0  1  0.83115436  0.50000106  0.50000070  1
  F  F1  1  0.16884541  0.49999934  0.49999935  1
  F  F2  1  0.50000007  0.83115259  0.16884742  1
  F  F3  1  0.49999973  0.16884783  0.83115247  1
  F  F4  1  0.50000102  0.83115484  0.50000069  1
  F  F5  1  0.16884704  0.49999966  0.83115322  1
  F  F6  1  0.49999928  0.16884601  0.49999926  1
  F  F7  1  0.83115201  0.50000003  0.16884789  1
  F  F8  1  0.50000157  0.49999974  0.83115501  1
  F  F9  1  0.50000031  0.49999822  0.16884521  1
  F  F10  1  0.16884735  0.83115258  0.49999915  1
  F  F11  1  0.83115254  0.16884747  0.49999903  1
  F  F12  1  0.11079456  0.11079433  0.11079384  1
  F  F13  1  0.88920588  0.88920538  0.88920589  1
  F  F14  1  0.11079416  0.11079384  0.66761682  1
  F  F15  1  0.11079384  0.66761670  0.11079382  1
  F  F16  1  0.88920606  0.88920580  0.33238303  1
  F  F17  1  0.88920614  0.33238325  0.88920601  1
  F  F18  1  0.66761680  0.11079386  0.11079381  1
  F  F19  1  0.33238321  0.88920607  0.88920604  1
loop_
_geom_bond_atom_site_label_1
_geom_bond_atom_site_label_2
_geom_bond_distance
_geom_bond_site_symmetry_2
F0 Tb5 2.215943 1_555
F0 Tb3 2.215951 1_555
F0 Rb1 3.220165 1_555
F0 Rb0 3.220170 1_655
F1 Tb4 2.215948 1_555
F1 Tb2 2.215949 1_555
F1 Rb0 3.220167 1_555
F1 Rb1 3.220168 1_455
F2 Tb5 2.215953 1_555
F2 Tb2 2.215955 1_555
F2 Rb1 3.220170 1_554
F2 Rb0 3.220171 1_565
F3 Tb4 2.215947 1_555
F3 Tb3 2.215953 1_555
F3 Rb0 3.220170 1_556
F3 Rb1 3.220174 1_545
F4 Tb5 2.215948 1_555
F4 Tb1 2.215950 1_555
F4 Rb1 3.220164 1_555
F4 Rb0 3.220168 1_565
F5 Tb4 2.215950 1_555
F5 Tb1 2.215954 1_555
F5 Rb0 3.220168 1_556
F5 Rb1 3.220171 1_455
F6 Tb4 2.215944 1_555
F6 Tb0 2.215949 1_555
F6 Rb0 3.220167 1_555
F6 Rb1 3.220171 1_545
F7 Tb5 2.215948 1_555
F7 Tb0 2.215950 1_555
F7 Rb1 3.220171 1_554
F7 Rb0 3.220175 1_655
F8 Tb3 2.215936 1_555
F8 Tb1 2.215961 1_555
F8 Rb0 3.220160 1_556
F8 Rb1 3.220161 1_555
F9 Tb0 2.215942 1_555
F9 Tb2 2.215970 1_555
F9 Rb0 3.220160 1_555
F9 Rb1 3.220161 1_554
F10 Tb2 2.215941 1_555
F10 Tb1 2.215960 1_555
F10 Rb1 3.220168 1_455
F10 Rb0 3.220168 1_565
F11 Tb0 2.215950 1_555
F11 Tb3 2.215973 1_555
F11 Rb1 3.220169 1_545
F11 Rb0 3.220169 1_655
F12 Tb2 2.359929 1_545
F12 Tb4 2.359936 1_554
F12 Tb0 2.359937 1_455
F12 Rb0 2.802499 1_555
F13 Tb1 2.359934 1_655
F13 Tb5 2.359939 1_556
F13 Tb3 2.359942 1_565
F13 Rb1 2.802497 1_555
F14 Tb1 2.359930 1_545
F14 Tb3 2.359938 1_455
F14 Tb4 2.359952 1_555
F14 Rb0 2.802488 1_555
F15 Tb5 2.359932 1_455
F15 Tb1 2.359932 1_554
F15 Tb2 2.359953 1_555
F15 Rb0 2.802486 1_555
F16 Tb2 2.359923 1_655
F16 Tb0 2.359934 1_565
F16 Tb5 2.359949 1_555
F16 Rb1 2.802490 1_555
F17 Tb0 2.359928 1_556
F17 Tb4 2.359937 1_655
F17 Tb3 2.359942 1_555
F17 Rb1 2.802486 1_555
F18 Tb3 2.359923 1_554
F18 Tb5 2.359937 1_545
F18 Tb0 2.359948 1_555
F18 Rb0 2.802486 1_555
F19 Tb4 2.359934 1_565
F19 Tb2 2.359935 1_556
F19 Tb1 2.359950 1_555
F19 Rb1 2.802486 1_555
