# generated using pymatgen
data_Na3Bi2H42C18I9(N2O3)3
_symmetry_space_group_name_H-M   'P 1'
_cell_length_a   13.42481177
_cell_length_b   13.55239211
_cell_length_c   18.95679666
_cell_angle_alpha   71.66273752
_cell_angle_beta   74.85753375
_cell_angle_gamma   63.45436065
_symmetry_Int_Tables_number   1
_chemical_formula_structural   Na3Bi2H42C18I9(N2O3)3
_chemical_formula_sum   'Na6 Bi4 H84 C36 I18 N12 O18'
_cell_volume   2899.00462070
_cell_formula_units_Z   2
loop_
 _symmetry_equiv_pos_site_id
 _symmetry_equiv_pos_as_xyz
  1  'x, y, z'
loop_
 _atom_site_type_symbol
 _atom_site_label
 _atom_site_symmetry_multiplicity
 _atom_site_fract_x
 _atom_site_fract_y
 _atom_site_fract_z
 _atom_site_occupancy
  Na  Na0  1  0.00000000  0.50000000  0.50000000  1
  Na  Na1  1  0.00008600  0.33359000  0.66097800  1
  Na  Na2  1  0.99991400  0.66641000  0.33902200  1
  Na  Na3  1  0.94517500  0.19089000  0.83709100  1
  Na  Na4  1  0.05482500  0.80911000  0.16290900  1
  Na  Na5  1  0.00000000  0.00000000  0.00000000  1
  Bi  Bi0  1  0.52806200  0.09172500  0.72473000  1
  Bi  Bi1  1  0.47193800  0.90827500  0.27527000  1
  Bi  Bi2  1  0.35242000  0.42763800  0.76174500  1
  Bi  Bi3  1  0.64758000  0.57236200  0.23825500  1
  H  H0  1  0.05156900  0.31104600  0.90964100  1
  H  H1  1  0.94843100  0.68895400  0.09035900  1
  H  H2  1  0.02038900  0.22481100  0.14138900  1
  H  H3  1  0.97961100  0.77518900  0.85861100  1
  H  H4  1  0.91203900  0.22560700  0.10247700  1
  H  H5  1  0.08796100  0.77439300  0.89752300  1
  H  H6  1  0.04824200  0.11146000  0.10045800  1
  H  H7  1  0.95175800  0.88854000  0.89954200  1
  H  H8  1  0.08845800  0.34914900  0.07731200  1
  H  H9  1  0.91154200  0.65085100  0.92268800  1
  H  H10  1  0.18711200  0.30038100  0.99936400  1
  H  H11  1  0.81288800  0.69961900  0.00063600  1
  H  H12  1  0.05964900  0.42238700  0.98396300  1
  H  H13  1  0.94035100  0.57761300  0.01603700  1
  H  H14  1  0.74692600  0.00787700  0.93252600  1
  H  H15  1  0.25307400  0.99212300  0.06747400  1
  H  H16  1  0.59562500  0.30132600  0.01169200  1
  H  H17  1  0.40437500  0.69867400  0.98830800  1
  H  H18  1  0.74273400  0.22381200  0.01932800  1
  H  H19  1  0.25726600  0.77618800  0.98067200  1
  H  H20  1  0.69808500  0.30454800  0.93046500  1
  H  H21  1  0.30191500  0.69545200  0.06953500  1
  H  H22  1  0.50079200  0.20628600  0.01894300  1
  H  H23  1  0.49920800  0.79371400  0.98105700  1
  H  H24  1  0.53420800  0.14479200  0.94130300  1
  H  H25  1  0.46579300  0.85520800  0.05869700  1
  H  H26  1  0.57411300  0.05679900  0.03105400  1
  H  H27  1  0.42588700  0.94320100  0.96894600  1
  H  H28  1  0.89215300  0.04426200  0.74696900  1
  H  H29  1  0.10784700  0.95573800  0.25303100  1
  H  H30  1  0.17540200  0.92929700  0.59261900  1
  H  H31  1  0.82459800  0.07070300  0.40738100  1
  H  H32  1  0.11284700  0.07949200  0.58381500  1
  H  H33  1  0.88715300  0.92050800  0.41618500  1
  H  H34  1  0.19192300  0.98832100  0.65854700  1
  H  H35  1  0.80807700  0.01167900  0.34145300  1
  H  H36  1  0.06451500  0.84383100  0.63270300  1
  H  H37  1  0.93548500  0.15616900  0.36729700  1
  H  H38  1  0.00232600  0.83712000  0.72758000  1
  H  H39  1  0.99767400  0.16288000  0.27242000  1
  H  H40  1  0.91777100  0.92714800  0.65487800  1
  H  H41  1  0.08222900  0.07285200  0.34512200  1
  H  H42  1  0.70073900  0.44670300  0.75019700  1
  H  H43  1  0.29926100  0.55329700  0.24980300  1
  H  H44  1  0.74500500  0.60029700  0.89015800  1
  H  H45  1  0.25499500  0.39970300  0.10984200  1
  H  H46  1  0.82365500  0.45004500  0.90593200  1
  H  H47  1  0.17634500  0.54995500  0.09406800  1
  H  H48  1  0.86538500  0.54077300  0.82460500  1
  H  H49  1  0.13461500  0.45922700  0.17539500  1
  H  H50  1  0.58507200  0.66296400  0.85610100  1
  H  H51  1  0.41492800  0.33703600  0.14389900  1
  H  H52  1  0.57746200  0.64880500  0.76806900  1
  H  H53  1  0.42253800  0.35119500  0.23193100  1
  H  H54  1  0.54390400  0.55646800  0.85199200  1
  H  H55  1  0.45609600  0.44353200  0.14800800  1
  H  H56  1  0.26691200  0.19410000  0.58154100  1
  H  H57  1  0.73308800  0.80590000  0.41845900  1
  H  H58  1  0.32259400  0.27393900  0.35043400  1
  H  H59  1  0.67740600  0.72606100  0.64956600  1
  H  H60  1  0.19333900  0.25807100  0.38958800  1
  H  H61  1  0.80666100  0.74192900  0.61041200  1
  H  H62  1  0.20591100  0.38366500  0.39006900  1
  H  H63  1  0.79408900  0.61633500  0.60993100  1
  H  H64  1  0.45869500  0.16770100  0.41217000  1
  H  H65  1  0.54130500  0.83229900  0.58783000  1
  H  H66  1  0.45006000  0.19552500  0.49980100  1
  H  H67  1  0.54994000  0.80447500  0.50019900  1
  H  H68  1  0.42800700  0.07622100  0.49674000  1
  H  H69  1  0.57199300  0.92377900  0.50326000  1
  H  H70  1  0.68811300  0.50176700  0.59148800  1
  H  H71  1  0.31188700  0.49823300  0.40851200  1
  H  H72  1  0.83553200  0.24208300  0.48037600  1
  H  H73  1  0.16446800  0.75791700  0.51962400  1
  H  H74  1  0.91200700  0.32986000  0.46085900  1
  H  H75  1  0.08799300  0.67014000  0.53914100  1
  H  H76  1  0.91318500  0.22950000  0.54857500  1
  H  H77  1  0.08681500  0.77050000  0.45142500  1
  H  H78  1  0.65611200  0.32602400  0.50049800  1
  H  H79  1  0.34388800  0.67397600  0.49950200  1
  H  H80  1  0.59876300  0.37455200  0.58504700  1
  H  H81  1  0.40123700  0.62544800  0.41495300  1
  H  H82  1  0.60284700  0.47352500  0.49632900  1
  H  H83  1  0.39715300  0.52647500  0.50367100  1
  C  C0  1  0.02383600  0.25687300  0.96077400  1
  C  C1  1  0.97616400  0.74312700  0.03922600  1
  C  C2  1  0.00290500  0.20321100  0.09626800  1
  C  C3  1  0.99709500  0.79678900  0.90373200  1
  C  C4  1  0.09720000  0.33868200  0.02079600  1
  C  C5  1  0.90280000  0.66131800  0.97920400  1
  C  C6  1  0.76160500  0.07696300  0.94123800  1
  C  C7  1  0.23839500  0.92303700  0.05876200  1
  C  C8  1  0.67750200  0.25101600  0.98427600  1
  C  C9  1  0.32249800  0.74898400  0.01572400  1
  C  C10  1  0.56401700  0.13876100  0.99180900  1
  C  C11  1  0.43598400  0.86123900  0.00819100  1
  C  C12  1  0.96699800  0.06012200  0.71365500  1
  C  C13  1  0.03300200  0.93987800  0.28634500  1
  C  C14  1  0.13369800  0.99652300  0.62362900  1
  C  C15  1  0.86630200  0.00347700  0.37637100  1
  C  C16  1  0.00144200  0.89405700  0.67158700  1
  C  C17  1  0.99855800  0.10594300  0.32841300  1
  C  C18  1  0.76142900  0.44509800  0.78074600  1
  C  C19  1  0.23857100  0.55490200  0.21925400  1
  C  C20  1  0.79250300  0.52891700  0.86308100  1
  C  C21  1  0.20749700  0.47108200  0.13691900  1
  C  C22  1  0.59950200  0.60166500  0.82441700  1
  C  C23  1  0.40049800  0.39833500  0.17558300  1
  C  C24  1  0.22394200  0.24599100  0.53177700  1
  C  C25  1  0.77605800  0.75400900  0.46822300  1
  C  C26  1  0.25096400  0.29176200  0.39523000  1
  C  C27  1  0.74903600  0.70823800  0.60477000  1
  C  C28  1  0.41412400  0.16486000  0.46957600  1
  C  C29  1  0.58587600  0.83514000  0.53042400  1
  C  C30  1  0.77004900  0.43990700  0.57041800  1
  C  C31  1  0.22995100  0.56009300  0.42958200  1
  C  C32  1  0.86135100  0.28892300  0.50456800  1
  C  C33  1  0.13864900  0.71107700  0.49543200  1
  C  C34  1  0.64753100  0.38832300  0.52931100  1
  C  C35  1  0.35246900  0.61167700  0.47068900  1
  I  I0  1  0.69055300  0.04412100  0.58789400  1
  I  I1  1  0.30944700  0.95587900  0.41210600  1
  I  I2  1  0.68058500  0.89473900  0.82781200  1
  I  I3  1  0.31941500  0.10526100  0.17218800  1
  I  I4  1  0.39801500  0.96971400  0.71164400  1
  I  I5  1  0.60198500  0.03028600  0.28835600  1
  I  I6  1  0.60769800  0.26601000  0.76015900  1
  I  I7  1  0.39230200  0.73399000  0.23984100  1
  I  I8  1  0.37050300  0.32945500  0.62725400  1
  I  I9  1  0.62949700  0.67054500  0.37274600  1
  I  I10  1  0.32709100  0.19498500  0.86047700  1
  I  I11  1  0.67290900  0.80501500  0.13952300  1
  I  I12  1  0.39649200  0.63032700  0.67316700  1
  I  I13  1  0.60350800  0.36967300  0.32683300  1
  I  I14  1  0.32117600  0.48694300  0.90988700  1
  I  I15  1  0.67882400  0.51305700  0.09011300  1
  I  I16  1  0.08315500  0.53251400  0.72903300  1
  I  I17  1  0.91684500  0.46748600  0.27096700  1
  N  N0  1  0.67107400  0.15290000  0.97206200  1
  N  N1  1  0.32892600  0.84710000  0.02793800  1
  N  N2  1  0.03944000  0.26710800  0.02436300  1
  N  N3  1  0.96056000  0.73289200  0.97563700  1
  N  N4  1  0.03146600  0.98648800  0.67035400  1
  N  N5  1  0.96853400  0.01351200  0.32964600  1
  N  N6  1  0.71866000  0.52328800  0.82124600  1
  N  N7  1  0.28134000  0.47671200  0.17875400  1
  N  N8  1  0.29375600  0.23568100  0.46719200  1
  N  N9  1  0.70624400  0.76431900  0.53280800  1
  N  N10  1  0.76010300  0.37374800  0.53596600  1
  N  N11  1  0.23989700  0.62625100  0.46403400  1
  O  O0  1  0.85769100  0.08057600  0.92249400  1
  O  O1  1  0.14230900  0.91942400  0.07750600  1
  O  O2  1  0.98103400  0.19278300  0.95756100  1
  O  O3  1  0.01896600  0.80721700  0.04243900  1
  O  O4  1  0.98665900  0.14036900  0.71789700  1
  O  O5  1  0.01334200  0.85963100  0.28210300  1
  O  O6  1  0.86178100  0.37382300  0.77741900  1
  O  O7  1  0.13821900  0.62617700  0.22258100  1
  O  O8  1  0.12000500  0.30624600  0.53776600  1
  O  O9  1  0.87999500  0.69375400  0.46223400  1
  O  O10  1  0.86228900  0.43461800  0.57902800  1
  O  O11  1  0.13771100  0.56538200  0.42097200  1
  O  O12  1  0.14319900  0.04654700  0.85875500  1
  O  O13  1  0.85680100  0.95345300  0.14124500  1
  O  O14  1  0.17018100  0.11977000  0.80679400  1
  O  O15  1  0.82981900  0.88023000  0.19320600  1
  O  O16  1  0.06024200  0.47404100  0.65770700  1
  O  O17  1  0.93975800  0.52595900  0.34229300  1
loop_
_geom_bond_atom_site_label_1
_geom_bond_atom_site_label_2
_geom_bond_distance
_geom_bond_site_symmetry_2
Na0 O10 2.372620 1_455
Na0 O11 2.372620 1_555
Na0 O8 2.375194 1_555
Na0 O9 2.375194 1_455
Na1 O16 2.356415 1_555
Na1 O10 2.368395 1_455
Na1 O8 2.496293 1_555
Na1 O6 2.515617 1_455
Na1 O4 2.568322 1_455
Na2 O17 2.356415 1_555
Na2 O11 2.368395 1_655
Na2 O9 2.496293 1_555
Na2 O7 2.515617 1_655
Na2 O5 2.568327 1_655
Na3 O6 2.257319 1_555
Na3 O0 2.299687 1_555
Na3 O4 2.420670 1_555
Na3 O2 2.463752 1_555
Na3 O12 2.545442 1_655
Na3 O14 2.687545 1_655
Na4 O7 2.257319 1_555
Na4 O1 2.299687 1_555
Na4 O5 2.420672 1_555
Na4 O3 2.463752 1_555
Na4 O13 2.545442 1_455
Na4 O15 2.687545 1_455
Na5 O0 2.365022 1_454
Na5 O1 2.365022 1_545
Na5 O2 2.393318 1_454
Na5 O3 2.393318 1_545
Na5 O12 2.931702 1_554
Na5 O13 2.931702 1_445
Bi0 I0 2.956741 1_555
Bi0 I4 2.984701 1_545
Bi0 I2 3.010000 1_545
Bi0 I8 3.236268 1_555
Bi0 I6 3.286844 1_555
Bi0 I10 3.335200 1_555
Bi1 I1 2.956741 1_555
Bi1 I5 2.984701 1_565
Bi1 I3 3.010000 1_565
Bi1 I9 3.236268 1_555
Bi1 I7 3.286844 1_555
Bi1 I11 3.335200 1_555
Bi2 I12 2.957457 1_555
Bi2 I14 3.035117 1_555
Bi2 I6 3.133939 1_555
Bi2 I8 3.138793 1_555
Bi2 I10 3.236155 1_555
Bi2 I16 3.390564 1_555
Bi3 I13 2.957457 1_555
Bi3 I15 3.035117 1_555
Bi3 I7 3.133939 1_555
Bi3 I9 3.138793 1_555
Bi3 I11 3.236155 1_555
Bi3 I17 3.390564 1_555
C0 H0 1.106886 1_555
C0 O2 1.259354 1_455
C0 N2 1.333913 1_556
C1 H1 1.106886 1_555
C1 O3 1.259354 1_655
C1 N3 1.333913 1_554
C2 H2 1.093737 1_555
C2 H6 1.099803 1_555
C2 H4 1.100256 1_455
C2 N2 1.461538 1_555
C3 H3 1.093737 1_555
C3 H7 1.099803 1_555
C3 H5 1.100256 1_655
C3 N3 1.461538 1_555
C4 H8 1.093970 1_555
C4 H12 1.096762 1_554
C4 H10 1.099065 1_554
C4 N2 1.466414 1_555
C5 H9 1.093970 1_555
C5 H13 1.096762 1_556
C5 H11 1.099065 1_556
C5 N3 1.466414 1_555
C6 H14 1.105416 1_555
C6 O0 1.264373 1_555
C6 N0 1.329302 1_555
C7 H15 1.105416 1_555
C7 O1 1.264373 1_555
C7 N1 1.329302 1_555
C8 H16 1.094457 1_556
C8 H18 1.098011 1_556
C8 H20 1.099782 1_555
C8 N0 1.461472 1_555
C9 H17 1.094457 1_554
C9 H19 1.098011 1_554
C9 H21 1.099782 1_555
C9 N1 1.461472 1_555
C10 H22 1.093750 1_556
C10 H26 1.097188 1_556
C10 H24 1.097814 1_555
C10 N0 1.470508 1_555
C11 H23 1.093747 1_554
C11 H27 1.097186 1_554
C11 H25 1.097814 1_555
C11 N1 1.470521 1_555
C12 H28 1.109379 1_555
C12 O4 1.257602 1_555
C12 N4 1.338272 1_645
C13 H29 1.109379 1_555
C13 O5 1.257594 1_555
C13 N5 1.338272 1_465
C14 H30 1.094625 1_555
C14 H32 1.098812 1_565
C14 H34 1.099027 1_555
C14 N4 1.463761 1_555
C15 H31 1.094625 1_555
C15 H33 1.098812 1_545
C15 H35 1.099027 1_555
C15 N5 1.463761 1_555
C16 H36 1.094579 1_555
C16 H38 1.097845 1_555
C16 H40 1.099737 1_455
C16 N4 1.469734 1_555
C17 H37 1.094579 1_555
C17 H39 1.097845 1_555
C17 H41 1.099737 1_655
C17 N5 1.469734 1_555
C18 H42 1.105622 1_555
C18 O6 1.258087 1_555
C18 N6 1.334082 1_555
C19 H43 1.105622 1_555
C19 O7 1.258087 1_555
C19 N7 1.334082 1_555
C20 H44 1.093602 1_555
C20 H46 1.099496 1_555
C20 H48 1.099579 1_555
C20 N6 1.460783 1_555
C21 H45 1.093591 1_555
C21 H47 1.099504 1_555
C21 H49 1.099574 1_555
C21 N7 1.460790 1_555
C22 H50 1.094418 1_555
C22 H52 1.097026 1_555
C22 H54 1.099490 1_555
C22 N6 1.470380 1_555
C23 H51 1.094418 1_555
C23 H53 1.097026 1_555
C23 H55 1.099490 1_555
C23 N7 1.470380 1_555
C24 H56 1.105232 1_555
C24 O8 1.258495 1_555
C24 N8 1.337164 1_555
C25 H57 1.105232 1_555
C25 O9 1.258495 1_555
C25 N9 1.337164 1_555
C26 H58 1.094992 1_555
C26 H62 1.098901 1_555
C26 H60 1.099115 1_555
C26 N8 1.461304 1_555
C27 H59 1.094992 1_555
C27 H63 1.098901 1_555
C27 H61 1.099115 1_555
C27 N9 1.461304 1_555
C28 H64 1.094443 1_555
C28 H68 1.097156 1_555
C28 H66 1.098722 1_555
C28 N8 1.469363 1_555
C29 H65 1.094443 1_555
C29 H69 1.097156 1_555
C29 H67 1.098722 1_555
C29 N9 1.469363 1_555
C30 H70 1.108704 1_555
C30 O10 1.258599 1_555
C30 N10 1.330152 1_555
C31 H71 1.108704 1_555
C31 O11 1.258599 1_555
C31 N11 1.330140 1_555
C32 H72 1.093761 1_555
C32 H76 1.099261 1_555
C32 H74 1.100185 1_555
C32 N10 1.461012 1_555
C33 H73 1.093761 1_555
C33 H77 1.099261 1_555
C33 H75 1.100185 1_555
C33 N11 1.461018 1_555
C34 H78 1.093075 1_555
C34 H80 1.097070 1_555
C34 H82 1.098470 1_555
C34 N10 1.468313 1_555
C35 H79 1.093075 1_555
C35 H81 1.097070 1_555
C35 H83 1.098470 1_555
C35 N11 1.468318 1_555
I16 O16 1.913156 1_555
I17 O17 1.913156 1_555
O12 O14 1.267300 1_555
O13 O15 1.267300 1_555
