# generated using pymatgen
data_CaAg4(PO3)4
_symmetry_space_group_name_H-M   'P 1'
_cell_length_a   14.01764749
_cell_length_b   4.29171888
_cell_length_c   5.82953687
_cell_angle_alpha   92.85328346
_cell_angle_beta   105.02438160
_cell_angle_gamma   89.97979595
_symmetry_Int_Tables_number   1
_chemical_formula_structural   CaAg4(PO3)4
_chemical_formula_sum   'Ca1 Ag4 P4 O12'
_cell_volume   338.26663582
_cell_formula_units_Z   1
loop_
 _symmetry_equiv_pos_site_id
 _symmetry_equiv_pos_as_xyz
  1  'x, y, z'
loop_
 _atom_site_type_symbol
 _atom_site_label
 _atom_site_symmetry_multiplicity
 _atom_site_fract_x
 _atom_site_fract_y
 _atom_site_fract_z
 _atom_site_occupancy
  Ca  Ca0  1  0.16510200  0.88624400  0.69684600  1
  Ag  Ag0  1  0.96487100  0.29325800  0.59929400  1
  Ag  Ag1  1  0.47371100  0.69543500  0.75532800  1
  Ag  Ag2  1  0.61131500  0.47577900  0.29386400  1
  Ag  Ag3  1  0.96641600  0.77738500  0.32018700  1
  P  P0  1  0.22804600  0.31740000  0.24216400  1
  P  P1  1  0.35867800  0.83461600  0.15178100  1
  P  P2  1  0.65010400  0.15459300  0.84549600  1
  P  P3  1  0.78392400  0.63775100  0.77581400  1
  O  O0  1  0.15028600  0.14352100  0.05360000  1
  O  O1  1  0.20903900  0.43669200  0.47405500  1
  O  O2  1  0.26391200  0.59217600  0.10259700  1
  O  O3  1  0.32588000  0.10379600  0.32055700  1
  O  O4  1  0.34694600  0.94657000  0.90281200  1
  O  O5  1  0.45115300  0.69804600  0.29339300  1
  O  O6  1  0.56489700  0.29102400  0.66189900  1
  O  O7  1  0.62564400  0.02048500  0.05889100  1
  O  O8  1  0.69527900  0.89171500  0.70056400  1
  O  O9  1  0.73799600  0.40842800  0.93964500  1
  O  O10  1  0.78499900  0.46774600  0.54512800  1
  O  O11  1  0.87513400  0.78845100  0.93275200  1
loop_
_geom_bond_atom_site_label_1
_geom_bond_atom_site_label_2
_geom_bond_distance
_geom_bond_site_symmetry_2
Ca0 O0 2.362765 1_566
Ca0 O1 2.439863 1_555
Ca0 O4 2.527634 1_555
Ca0 O2 2.775512 1_556
Ca0 O1 2.892768 1_565
Ag0 O10 2.574352 1_555
Ag1 O6 2.282127 1_555
Ag1 O4 2.399346 1_555
Ag1 O5 2.629292 1_555
Ag1 O7 2.723198 1_566
Ag2 O7 2.368680 1_555
Ag2 O5 2.438432 1_555
Ag2 O10 2.496043 1_555
Ag2 O6 2.559032 1_555
Ag3 O11 2.291932 1_554
O0 P0 1.500342 1_555
O1 P0 1.509385 1_555
O2 P0 1.616601 1_555
O2 P1 1.644158 1_555
O3 P1 1.623262 1_545
O3 P0 1.626613 1_555
O4 P1 1.519872 1_556
O5 P1 1.482635 1_555
O6 P2 1.521206 1_555
O7 P2 1.512912 1_554
O8 P2 1.603014 1_565
O8 P3 1.639660 1_555
O9 P2 1.611446 1_555
O9 P3 1.645619 1_555
O10 P3 1.501281 1_555
O11 P3 1.491715 1_555
