# generated using pymatgen
data_KO2
_symmetry_space_group_name_H-M   'P 1'
_cell_length_a   5.57197600
_cell_length_b   4.64903800
_cell_length_c   8.08928580
_cell_angle_alpha   79.49557158
_cell_angle_beta   90.00000000
_cell_angle_gamma   90.00000000
_symmetry_Int_Tables_number   1
_chemical_formula_structural   KO2
_chemical_formula_sum   'K4 O8'
_cell_volume   206.03566935
_cell_formula_units_Z   4
loop_
 _symmetry_equiv_pos_site_id
 _symmetry_equiv_pos_as_xyz
  1  'x, y, z'
loop_
 _atom_site_type_symbol
 _atom_site_label
 _atom_site_symmetry_multiplicity
 _atom_site_fract_x
 _atom_site_fract_y
 _atom_site_fract_z
 _atom_site_occupancy
  K  K0  1  0.75898300  0.75026400  0.57360200  1
  K  K1  1  0.25898300  0.24973600  0.92639800  1
  K  K2  1  0.24101700  0.24973600  0.42639800  1
  K  K3  1  0.74101700  0.75026400  0.07360200  1
  O  O0  1  0.26422300  0.65478900  0.62229400  1
  O  O1  1  0.76422300  0.34521100  0.87770600  1
  O  O2  1  0.73577700  0.34521100  0.37770600  1
  O  O3  1  0.23577700  0.65478900  0.12229400  1
  O  O4  1  0.79002900  0.17821300  0.75838200  1
  O  O5  1  0.29002900  0.82178700  0.74161800  1
  O  O6  1  0.20997100  0.82178700  0.24161800  1
  O  O7  1  0.70997100  0.17821300  0.25838200  1
loop_
_geom_bond_atom_site_label_1
_geom_bond_atom_site_label_2
_geom_bond_distance
_geom_bond_site_symmetry_2
K0 O2 2.676195 1_555
K0 O4 2.703113 1_565
K0 O4 2.808483 1_555
K0 O0 2.808614 1_555
K0 O1 2.812362 1_555
K0 O0 2.865952 1_655
K0 O2 2.929176 1_565
K0 O7 2.947052 1_565
K0 O5 2.991714 1_555
K1 O3 2.676195 1_556
K1 O5 2.703113 1_545
K1 O5 2.808483 1_555
K1 O1 2.808614 1_455
K1 O0 2.812362 1_555
K1 O1 2.865952 1_555
K1 O3 2.929176 1_546
K1 O6 2.947052 1_546
K1 O4 2.991714 1_455
K2 O0 2.676195 1_555
K2 O6 2.703113 1_545
K2 O6 2.808483 1_555
K2 O2 2.808614 1_555
K2 O3 2.812362 1_555
K2 O2 2.865952 1_455
K2 O0 2.929176 1_545
K2 O5 2.947052 1_545
K2 O7 2.991714 1_555
K3 O1 2.676195 1_554
K3 O7 2.703113 1_565
K3 O7 2.808483 1_555
K3 O3 2.808614 1_655
K3 O2 2.812362 1_555
K3 O3 2.865952 1_555
K3 O1 2.929176 1_564
K3 O4 2.947052 1_564
K3 O6 2.991714 1_655
O0 O5 1.352179 1_555
O1 O4 1.352179 1_555
O2 O7 1.352179 1_555
O3 O6 1.352179 1_555
