# generated using pymatgen
data_Li5Mn2CoO8
_symmetry_space_group_name_H-M   'P 1'
_cell_length_a   5.11995018
_cell_length_b   5.72306274
_cell_length_c   5.85798634
_cell_angle_alpha   60.75966087
_cell_angle_beta   71.53370944
_cell_angle_gamma   90.00052539
_symmetry_Int_Tables_number   1
_chemical_formula_structural   Li5Mn2CoO8
_chemical_formula_sum   'Li5 Mn2 Co1 O8'
_cell_volume   139.56085154
_cell_formula_units_Z   1
loop_
 _symmetry_equiv_pos_site_id
 _symmetry_equiv_pos_as_xyz
  1  'x, y, z'
loop_
 _atom_site_type_symbol
 _atom_site_label
 _atom_site_symmetry_multiplicity
 _atom_site_fract_x
 _atom_site_fract_y
 _atom_site_fract_z
 _atom_site_occupancy
  Li  Li0  1  0.49742500  0.25298900  0.99402300  1
  Li  Li1  1  0.49999800  0.25701900  0.50000100  1
  Li  Li2  1  0.50000200  0.74298100  0.49999900  1
  Li  Li3  1  0.50257500  0.74701100  0.00597700  1
  Li  Li4  1  0.00000000  0.50000000  0.50000000  1
  Mn  Mn0  1  0.00000100  0.00000100  0.00000200  1
  Mn  Mn1  1  0.00000200  0.49999900  0.99999700  1
  Co  Co0  1  0.00000000  0.00000000  0.50000000  1
  O  O0  1  0.23048500  0.36376300  0.77246900  1
  O  O1  1  0.21214400  0.36182200  0.24652300  1
  O  O2  1  0.21214200  0.89165500  0.24652100  1
  O  O3  1  0.23934100  0.85747700  0.78504800  1
  O  O4  1  0.76065900  0.14252300  0.21495200  1
  O  O5  1  0.78785700  0.10834500  0.75347900  1
  O  O6  1  0.78785600  0.63817800  0.75347700  1
  O  O7  1  0.76951500  0.63623700  0.22753100  1
loop_
_geom_bond_atom_site_label_1
_geom_bond_atom_site_label_2
_geom_bond_distance
_geom_bond_site_symmetry_2
Li0 O4 2.048585 1_556
Li0 O1 2.059288 1_556
Li0 O2 2.059298 1_546
Li0 O0 2.067404 1_555
Li0 O5 2.166614 1_555
Li0 O6 2.166615 1_555
Li1 O0 2.093382 1_555
Li1 O7 2.093417 1_555
Li1 O3 2.157755 1_545
Li1 O4 2.157770 1_555
Li1 O1 2.291930 1_555
Li1 O5 2.291954 1_555
Li2 O7 2.093382 1_555
Li2 O0 2.093417 1_555
Li2 O4 2.157755 1_565
Li2 O3 2.157770 1_555
Li2 O6 2.291930 1_555
Li2 O2 2.291958 1_555
Li3 O3 2.048585 1_554
Li3 O6 2.059288 1_554
Li3 O5 2.059295 1_564
Li3 O7 2.067404 1_555
Li3 O1 2.166615 1_555
Li3 O2 2.166617 1_555
Li4 O6 2.033574 1_455
Li4 O1 2.033574 1_555
Li4 O2 2.033578 1_555
Li4 O5 2.033580 1_455
Li4 O0 2.127326 1_555
Li4 O7 2.127326 1_455
Mn0 O2 1.941263 1_545
Mn0 O5 1.941294 1_454
Mn0 O4 1.943808 1_455
Mn0 O3 1.943827 1_544
Mn0 O0 1.948288 1_554
Mn0 O7 1.948301 1_445
Mn1 O6 1.941291 1_455
Mn1 O1 1.941300 1_556
Mn1 O4 1.943827 1_456
Mn1 O3 1.943829 1_555
Mn1 O0 1.948292 1_555
Mn1 O7 1.948333 1_456
Co0 O2 1.909681 1_545
Co0 O6 1.909681 1_445
Co0 O1 1.909681 1_555
Co0 O5 1.909682 1_455
Co0 O3 2.218304 1_545
Co0 O4 2.218304 1_455
