# generated using pymatgen
data_Cr4CuNiSe8
_symmetry_space_group_name_H-M   'P 1'
_cell_length_a   7.30674367
_cell_length_b   7.30674367
_cell_length_c   7.30674367
_cell_angle_alpha   60.00000000
_cell_angle_beta   60.00000000
_cell_angle_gamma   60.00000000
_symmetry_Int_Tables_number   1
_chemical_formula_structural   Cr4CuNiSe8
_chemical_formula_sum   'Cr4 Cu1 Ni1 Se8'
_cell_volume   275.83960283
_cell_formula_units_Z   1
loop_
 _symmetry_equiv_pos_site_id
 _symmetry_equiv_pos_as_xyz
  1  'x, y, z'
loop_
 _atom_site_type_symbol
 _atom_site_label
 _atom_site_symmetry_multiplicity
 _atom_site_fract_x
 _atom_site_fract_y
 _atom_site_fract_z
 _atom_site_occupancy
  Cr  Cr0  1  0.12884600  0.62371800  0.62371800  1
  Cr  Cr1  1  0.62371800  0.12884600  0.62371800  1
  Cr  Cr2  1  0.62371800  0.62371800  0.12884600  1
  Cr  Cr3  1  0.62371800  0.62371800  0.62371800  1
  Cu  Cu0  1  0.00000000  0.00000000  0.00000000  1
  Ni  Ni0  1  0.25000000  0.25000000  0.25000000  1
  Se  Se0  1  0.39917500  0.86694200  0.86694200  1
  Se  Se1  1  0.86694200  0.39917500  0.86694200  1
  Se  Se2  1  0.86694200  0.86694200  0.39917500  1
  Se  Se3  1  0.86694200  0.86694200  0.86694200  1
  Se  Se4  1  0.86139500  0.37953500  0.37953500  1
  Se  Se5  1  0.37953500  0.86139500  0.37953500  1
  Se  Se6  1  0.37953500  0.37953500  0.86139500  1
  Se  Se7  1  0.37953500  0.37953500  0.37953500  1
loop_
_geom_bond_atom_site_label_1
_geom_bond_atom_site_label_2
_geom_bond_distance
_geom_bond_site_symmetry_2
Cr0 Se2 2.517004 1_455
Cr0 Se1 2.517004 1_455
Cr0 Se3 2.517009 1_455
Cr0 Se6 2.523663 1_555
Cr0 Se5 2.523663 1_555
Cr0 Se7 2.523663 1_555
Cr1 Se2 2.517004 1_545
Cr1 Se0 2.517004 1_545
Cr1 Se3 2.517009 1_545
Cr1 Se6 2.523663 1_555
Cr1 Se4 2.523663 1_555
Cr1 Se7 2.523663 1_555
Cr2 Se1 2.517004 1_554
Cr2 Se0 2.517004 1_554
Cr2 Se3 2.517009 1_554
Cr2 Se5 2.523663 1_555
Cr2 Se4 2.523663 1_555
Cr2 Se7 2.523663 1_555
Cr3 Se2 2.517009 1_555
Cr3 Se0 2.517009 1_555
Cr3 Se1 2.517009 1_555
Cr3 Se4 2.523663 1_555
Cr3 Se5 2.523663 1_555
Cr3 Se6 2.523663 1_555
Cu0 Se3 2.381445 1_444
Cu0 Se0 2.381451 1_544
Cu0 Se1 2.381451 1_454
Cu0 Se2 2.381451 1_445
Ni0 Se7 2.318391 1_555
Ni0 Se4 2.318391 1_455
Ni0 Se5 2.318391 1_545
Ni0 Se6 2.318391 1_554
