# generated using pymatgen
data_SmErFe17
_symmetry_space_group_name_H-M   'P 1'
_cell_length_a   6.41787436
_cell_length_b   6.41787436
_cell_length_c   6.41787443
_cell_angle_alpha   82.95581465
_cell_angle_beta   82.95581465
_cell_angle_gamma   82.95580306
_symmetry_Int_Tables_number   1
_chemical_formula_structural   SmErFe17
_chemical_formula_sum   'Sm1 Er1 Fe17'
_cell_volume   258.81278970
_cell_formula_units_Z   1
loop_
 _symmetry_equiv_pos_site_id
 _symmetry_equiv_pos_as_xyz
  1  'x, y, z'
loop_
 _atom_site_type_symbol
 _atom_site_label
 _atom_site_symmetry_multiplicity
 _atom_site_fract_x
 _atom_site_fract_y
 _atom_site_fract_z
 _atom_site_occupancy
  Sm  Sm0  1  0.34206400  0.34206400  0.34206400  1
  Er  Er0  1  0.65840100  0.65840100  0.65840100  1
  Fe  Fe0  1  0.34418900  0.34418900  0.84441700  1
  Fe  Fe1  1  0.34418900  0.84441700  0.34418900  1
  Fe  Fe2  1  0.84441700  0.34418900  0.34418900  1
  Fe  Fe3  1  0.65653800  0.65653800  0.15506000  1
  Fe  Fe4  1  0.65653800  0.15506000  0.65653800  1
  Fe  Fe5  1  0.15506000  0.65653800  0.65653800  1
  Fe  Fe6  1  0.99951600  0.99951600  0.50024700  1
  Fe  Fe7  1  0.99951600  0.50024700  0.99951600  1
  Fe  Fe8  1  0.50024700  0.99951600  0.99951600  1
  Fe  Fe9  1  0.29339200  0.70730900  0.99921900  1
  Fe  Fe10  1  0.70730900  0.99921900  0.29339200  1
  Fe  Fe11  1  0.99921900  0.29339200  0.70730900  1
  Fe  Fe12  1  0.29339200  0.99921900  0.70730900  1
  Fe  Fe13  1  0.99921900  0.70730900  0.29339200  1
  Fe  Fe14  1  0.70730900  0.29339200  0.99921900  1
  Fe  Fe15  1  0.90318400  0.90318400  0.90318400  1
  Fe  Fe16  1  0.09630100  0.09630100  0.09630100  1
loop_
_geom_bond_atom_site_label_1
_geom_bond_atom_site_label_2
_geom_bond_distance
_geom_bond_site_symmetry_2
Er0 Fe12 3.016936 1_555
Er0 Fe11 3.016936 1_555
Er0 Fe9 3.016936 1_555
Er0 Fe14 3.016936 1_555
Er0 Fe13 3.016936 1_555
Er0 Fe10 3.016936 1_555
Er0 Fe15 3.036441 1_555
Er0 Fe1 3.061833 1_555
Er0 Fe2 3.061833 1_555
Er0 Fe0 3.061833 1_555
Er0 Fe4 3.184612 1_565
Er0 Fe5 3.184612 1_655
Er0 Fe3 3.184612 1_556
Er0 Fe5 3.233360 1_555
Er0 Fe4 3.233360 1_555
Er0 Fe3 3.233360 1_555
Er0 Fe7 3.271272 1_555
Er0 Fe8 3.271272 1_555
Er0 Fe6 3.271272 1_555
Fe0 Fe8 2.459322 1_545
Fe0 Fe7 2.459322 1_455
Fe0 Fe4 2.472864 1_555
Fe0 Fe5 2.472864 1_555
Fe0 Fe12 2.550976 1_545
Fe0 Fe11 2.550976 1_455
Fe0 Fe9 2.612748 1_555
Fe0 Fe14 2.612748 1_555
Fe0 Fe16 2.652261 1_556
Fe0 Sm0 3.190555 1_556
Fe0 Sm0 3.227446 1_555
Fe1 Fe6 2.459322 1_455
Fe1 Fe8 2.459322 1_554
Fe1 Fe3 2.472864 1_555
Fe1 Fe5 2.472865 1_555
Fe1 Fe9 2.550976 1_554
Fe1 Fe13 2.550976 1_455
Fe1 Fe12 2.612748 1_555
Fe1 Fe10 2.612748 1_555
Fe1 Fe16 2.652261 1_565
Fe1 Sm0 3.190555 1_565
Fe1 Sm0 3.227446 1_555
Fe2 Fe6 2.459322 1_545
Fe2 Fe7 2.459322 1_554
Fe2 Fe3 2.472864 1_555
Fe2 Fe4 2.472865 1_555
Fe2 Sm0 3.190555 1_655
Fe2 Sm0 3.227446 1_555
Fe3 Fe7 2.452141 1_554
Fe3 Fe8 2.452141 1_554
Fe3 Fe9 2.616077 1_554
Fe3 Sm0 3.065611 1_555
Fe4 Fe6 2.452141 1_545
Fe4 Fe8 2.452141 1_545
Fe4 Sm0 3.065611 1_555
Fe5 Fe6 2.452141 1_455
Fe5 Fe7 2.452141 1_455
Fe5 Fe9 2.541026 1_555
Fe5 Sm0 3.065611 1_555
Fe6 Sm0 3.284421 1_665
Fe7 Fe9 2.436479 1_655
Fe7 Sm0 3.284421 1_656
Fe8 Fe9 2.427243 1_555
Fe8 Sm0 3.284421 1_566
Fe9 Sm0 3.026182 1_556
Fe10 Fe6 2.427243 1_555
Fe10 Fe8 2.436479 1_554
Fe10 Fe13 2.481678 1_555
Fe10 Fe14 2.500917 1_564
Fe10 Fe3 2.541026 1_555
Fe10 Fe2 2.550976 1_565
Fe10 Fe4 2.616077 1_565
Fe10 Fe16 2.763042 1_665
Fe10 Fe15 2.765523 1_554
Fe10 Sm0 3.026182 1_565
Fe11 Fe7 2.427243 1_555
Fe11 Fe6 2.436479 1_545
Fe11 Fe14 2.481678 1_555
Fe11 Fe12 2.500916 1_645
Fe11 Fe4 2.541027 1_555
Fe11 Fe2 2.612748 1_555
Fe11 Fe5 2.616077 1_655
Fe11 Fe16 2.763042 1_656
Fe11 Fe15 2.765523 1_545
Fe11 Sm0 3.026182 1_655
Fe12 Fe8 2.427243 1_555
Fe12 Fe6 2.436479 1_455
Fe12 Fe9 2.481678 1_555
Fe12 Fe5 2.541027 1_555
Fe12 Fe4 2.616077 1_565
Fe12 Fe16 2.763042 1_566
Fe12 Fe15 2.765523 1_455
Fe12 Sm0 3.026182 1_565
Fe13 Fe6 2.427243 1_555
Fe13 Fe7 2.436479 1_554
Fe13 Fe9 2.500917 1_654
Fe13 Fe3 2.541026 1_555
Fe13 Fe2 2.612748 1_555
Fe13 Fe5 2.616077 1_655
Fe13 Fe16 2.763042 1_665
Fe13 Fe15 2.765523 1_554
Fe13 Sm0 3.026182 1_655
Fe14 Fe7 2.427243 1_555
Fe14 Fe8 2.436479 1_545
Fe14 Fe4 2.541026 1_555
Fe14 Fe2 2.550976 1_556
Fe14 Fe3 2.616077 1_556
Fe14 Fe16 2.763041 1_656
Fe14 Fe15 2.765523 1_545
Fe14 Sm0 3.026182 1_556
Fe15 Fe16 2.395543 1_666
Fe15 Fe7 2.600256 1_555
Fe15 Fe8 2.600256 1_555
Fe15 Fe6 2.600256 1_555
Fe15 Fe4 2.642703 1_565
Fe15 Fe5 2.642703 1_655
Fe15 Fe3 2.642703 1_556
Fe15 Fe9 2.765523 1_655
Fe16 Fe7 2.607162 1_454
Fe16 Fe8 2.607162 1_544
Fe16 Fe6 2.607162 1_445
Fe16 Fe2 2.652261 1_455
Fe16 Fe9 2.763041 1_544
Fe16 Sm0 3.048597 1_555
