# generated using pymatgen
data_Ca3Si3(SbO6)2
_symmetry_space_group_name_H-M   'P 1'
_cell_length_a   11.03219370
_cell_length_b   11.03219370
_cell_length_c   11.03219370
_cell_angle_alpha   109.47122063
_cell_angle_beta   109.47122063
_cell_angle_gamma   109.47122063
_symmetry_Int_Tables_number   1
_chemical_formula_structural   Ca3Si3(SbO6)2
_chemical_formula_sum   'Ca12 Si12 Sb8 O48'
_cell_volume   1033.62675920
_cell_formula_units_Z   4
loop_
 _symmetry_equiv_pos_site_id
 _symmetry_equiv_pos_as_xyz
  1  'x, y, z'
loop_
 _atom_site_type_symbol
 _atom_site_label
 _atom_site_symmetry_multiplicity
 _atom_site_fract_x
 _atom_site_fract_y
 _atom_site_fract_z
 _atom_site_occupancy
  Ca  Ca0  1  0.25000000  0.37500000  0.12500000  1
  Ca  Ca1  1  0.75000000  0.12500000  0.37500000  1
  Ca  Ca2  1  0.37500000  0.12500000  0.25000000  1
  Ca  Ca3  1  0.12500000  0.37500000  0.75000000  1
  Ca  Ca4  1  0.25000000  0.87500000  0.62500000  1
  Ca  Ca5  1  0.12500000  0.25000000  0.37500000  1
  Ca  Ca6  1  0.62500000  0.25000000  0.87500000  1
  Ca  Ca7  1  0.75000000  0.62500000  0.87500000  1
  Ca  Ca8  1  0.87500000  0.75000000  0.62500000  1
  Ca  Ca9  1  0.87500000  0.62500000  0.25000000  1
  Ca  Ca10  1  0.62500000  0.87500000  0.75000000  1
  Ca  Ca11  1  0.37500000  0.75000000  0.12500000  1
  Si  Si0  1  0.12500000  0.75000000  0.87500000  1
  Si  Si1  1  0.87500000  0.25000000  0.12500000  1
  Si  Si2  1  0.75000000  0.37500000  0.62500000  1
  Si  Si3  1  0.12500000  0.87500000  0.25000000  1
  Si  Si4  1  0.25000000  0.12500000  0.87500000  1
  Si  Si5  1  0.37500000  0.62500000  0.75000000  1
  Si  Si6  1  0.37500000  0.25000000  0.62500000  1
  Si  Si7  1  0.87500000  0.12500000  0.75000000  1
  Si  Si8  1  0.62500000  0.37500000  0.25000000  1
  Si  Si9  1  0.75000000  0.87500000  0.12500000  1
  Si  Si10  1  0.25000000  0.62500000  0.37500000  1
  Si  Si11  1  0.62500000  0.75000000  0.37500000  1
  Sb  Sb0  1  0.50000000  0.00000000  0.00000000  1
  Sb  Sb1  1  0.50000000  0.50000000  0.00000000  1
  Sb  Sb2  1  0.00000000  0.50000000  0.50000000  1
  Sb  Sb3  1  0.00000000  0.00000000  0.50000000  1
  Sb  Sb4  1  0.50000000  0.50000000  0.50000000  1
  Sb  Sb5  1  0.00000000  0.50000000  0.00000000  1
  Sb  Sb6  1  0.50000000  0.00000000  0.50000000  1
  Sb  Sb7  1  0.00000000  0.00000000  0.00000000  1
  O  O0  1  0.59657300  0.88951300  0.37498900  1
  O  O1  1  0.37498900  0.59657300  0.88951300  1
  O  O2  1  0.27841600  0.29293900  0.90342700  1
  O  O3  1  0.48547600  0.61048700  0.20706100  1
  O  O4  1  0.29293900  0.88951300  0.01452400  1
  O  O5  1  0.12501100  0.01452400  0.22158400  1
  O  O6  1  0.37498900  0.27841600  0.48547600  1
  O  O7  1  0.88951300  0.37498900  0.59657300  1
  O  O8  1  0.20706100  0.22158400  0.59657300  1
  O  O9  1  0.48547600  0.37498900  0.27841600  1
  O  O10  1  0.88951300  0.01452400  0.29293900  1
  O  O11  1  0.61048700  0.90342700  0.12501100  1
  O  O12  1  0.90342700  0.12501100  0.61048700  1
  O  O13  1  0.27841600  0.48547600  0.37498900  1
  O  O14  1  0.59657300  0.20706100  0.22158400  1
  O  O15  1  0.22158400  0.59657300  0.20706100  1
  O  O16  1  0.01452400  0.29293900  0.88951300  1
  O  O17  1  0.90342700  0.27841600  0.29293900  1
  O  O18  1  0.01452400  0.22158400  0.12501100  1
  O  O19  1  0.79293900  0.77841600  0.40342700  1
  O  O20  1  0.20706100  0.48547600  0.61048700  1
  O  O21  1  0.61048700  0.20706100  0.48547600  1
  O  O22  1  0.22158400  0.12501100  0.01452400  1
  O  O23  1  0.12501100  0.61048700  0.90342700  1
  O  O24  1  0.40342700  0.11048700  0.62501100  1
  O  O25  1  0.62501100  0.40342700  0.11048700  1
  O  O26  1  0.72158400  0.70706100  0.09657300  1
  O  O27  1  0.51452400  0.38951300  0.79293900  1
  O  O28  1  0.70706100  0.11048700  0.98547600  1
  O  O29  1  0.87498900  0.98547600  0.77841600  1
  O  O30  1  0.62501100  0.72158400  0.51452400  1
  O  O31  1  0.11048700  0.62501100  0.40342700  1
  O  O32  1  0.87498900  0.38951300  0.09657300  1
  O  O33  1  0.77841600  0.87498900  0.98547600  1
  O  O34  1  0.38951300  0.79293900  0.51452400  1
  O  O35  1  0.70706100  0.09657300  0.72158400  1
  O  O36  1  0.79293900  0.51452400  0.38951300  1
  O  O37  1  0.98547600  0.77841600  0.87498900  1
  O  O38  1  0.09657300  0.72158400  0.70706100  1
  O  O39  1  0.98547600  0.70706100  0.11048700  1
  O  O40  1  0.77841600  0.40342700  0.79293900  1
  O  O41  1  0.40342700  0.79293900  0.77841600  1
  O  O42  1  0.72158400  0.51452400  0.62501100  1
  O  O43  1  0.09657300  0.87498900  0.38951300  1
  O  O44  1  0.38951300  0.09657300  0.87498900  1
  O  O45  1  0.11048700  0.98547600  0.70706100  1
  O  O46  1  0.51452400  0.62501100  0.72158400  1
  O  O47  1  0.29293900  0.90342700  0.27841600  1
loop_
_geom_bond_atom_site_label_1
_geom_bond_atom_site_label_2
_geom_bond_distance
_geom_bond_site_symmetry_2
Ca0 O22 2.473437 1_555
Ca0 O13 2.473437 1_555
Ca0 O15 2.473438 1_555
Ca0 O2 2.473438 1_554
Ca0 O16 2.585026 1_554
Ca0 O3 2.585026 1_555
Ca0 O18 2.585029 1_555
Ca0 O9 2.585029 1_555
Ca1 O11 2.473437 1_545
Ca1 O7 2.473437 1_555
Ca1 O10 2.473441 1_555
Ca1 O21 2.473441 1_555
Ca1 O12 2.585029 1_555
Ca1 O0 2.585029 1_545
Ca1 O17 2.585038 1_555
Ca1 O14 2.585038 1_555
Ca2 O9 2.473437 1_555
Ca2 O5 2.473437 1_555
Ca2 O47 2.473438 1_545
Ca2 O14 2.473438 1_555
Ca2 O21 2.585026 1_555
Ca2 O4 2.585026 1_545
Ca2 O22 2.585029 1_555
Ca2 O6 2.585029 1_555
Ca3 O12 2.473437 1_455
Ca3 O1 2.473437 1_555
Ca3 O16 2.473441 1_555
Ca3 O20 2.473441 1_555
Ca3 O23 2.585029 1_555
Ca3 O7 2.585029 1_455
Ca3 O2 2.585038 1_555
Ca3 O8 2.585038 1_555
Ca4 O44 2.473437 1_565
Ca4 O31 2.473437 1_555
Ca4 O34 2.473441 1_555
Ca4 O45 2.473441 1_555
Ca4 O43 2.585029 1_555
Ca4 O24 2.585029 1_565
Ca4 O38 2.585038 1_555
Ca4 O41 2.585038 1_555
Ca5 O18 2.473437 1_555
Ca5 O6 2.473437 1_555
Ca5 O17 2.473438 1_455
Ca5 O8 2.473438 1_555
Ca5 O20 2.585026 1_555
Ca5 O10 2.585026 1_455
Ca5 O5 2.585029 1_555
Ca5 O13 2.585029 1_555
Ca6 O24 2.473437 1_555
Ca6 O32 2.473437 1_556
Ca6 O27 2.473441 1_555
Ca6 O28 2.473441 1_555
Ca6 O25 2.585029 1_556
Ca6 O44 2.585029 1_555
Ca6 O35 2.585038 1_555
Ca6 O40 2.585038 1_555
Ca7 O33 2.473437 1_555
Ca7 O42 2.473437 1_555
Ca7 O40 2.473438 1_555
Ca7 O26 2.473438 1_556
Ca7 O27 2.585026 1_555
Ca7 O39 2.585026 1_556
Ca7 O37 2.585029 1_555
Ca7 O46 2.585029 1_555
Ca8 O30 2.473437 1_555
Ca8 O37 2.473437 1_555
Ca8 O38 2.473438 1_655
Ca8 O19 2.473438 1_555
Ca8 O45 2.585026 1_655
Ca8 O36 2.585026 1_555
Ca8 O29 2.585029 1_555
Ca8 O42 2.585029 1_555
Ca9 O43 2.473437 1_655
Ca9 O25 2.473437 1_555
Ca9 O39 2.473441 1_555
Ca9 O36 2.473441 1_555
Ca9 O31 2.585029 1_655
Ca9 O32 2.585029 1_555
Ca9 O26 2.585038 1_555
Ca9 O19 2.585038 1_555
Ca10 O29 2.473437 1_555
Ca10 O46 2.473437 1_555
Ca10 O35 2.473438 1_565
Ca10 O41 2.473438 1_555
Ca10 O34 2.585026 1_555
Ca10 O28 2.585026 1_565
Ca10 O30 2.585029 1_555
Ca10 O33 2.585029 1_555
Ca11 O0 2.473437 1_555
Ca11 O23 2.473437 1_554
Ca11 O3 2.473441 1_555
Ca11 O4 2.473441 1_555
Ca11 O1 2.585029 1_554
Ca11 O11 2.585029 1_555
Ca11 O47 2.585038 1_555
Ca11 O15 2.585038 1_555
O0 Si11 1.670084 1_555
O0 Sb6 2.290748 1_565
O1 Si5 1.670084 1_555
O1 Sb1 2.290748 1_556
O2 Si4 1.670073 1_555
O2 Sb1 2.290753 1_556
O3 Si11 1.670079 1_555
O3 Sb1 2.290757 1_555
O4 Si0 1.670079 1_554
O4 Sb0 2.290757 1_565
O5 Si3 1.670084 1_545
O5 Sb7 2.290748 1_555
O6 Si6 1.670084 1_555
O6 Sb4 2.290748 1_555
O7 Si2 1.670084 1_555
O7 Sb2 2.290748 1_655
O8 Si6 1.670073 1_555
O8 Sb3 2.290753 1_555
O9 Si8 1.670084 1_555
O9 Sb4 2.290748 1_555
O10 Si9 1.670079 1_545
O10 Sb3 2.290757 1_655
O11 Si9 1.670084 1_555
O11 Sb0 2.290748 1_565
O12 Si7 1.670084 1_555
O12 Sb3 2.290748 1_655
O13 Si10 1.670084 1_555
O13 Sb4 2.290748 1_555
O14 Si8 1.670073 1_555
O14 Sb0 2.290753 1_555
O15 Si10 1.670073 1_555
O15 Sb5 2.290753 1_555
O16 Si7 1.670079 1_455
O16 Sb5 2.290757 1_556
O17 Si1 1.670073 1_555
O17 Sb2 2.290753 1_655
O18 Si1 1.670084 1_455
O18 Sb7 2.290748 1_555
O19 Si11 1.670073 1_555
O19 Sb3 2.290753 1_665
O20 Si5 1.670079 1_555
O20 Sb2 2.290757 1_555
O21 Si2 1.670079 1_555
O21 Sb6 2.290757 1_555
O22 Si4 1.670084 1_554
O22 Sb7 2.290748 1_555
O23 Si0 1.670084 1_555
O23 Sb5 2.290748 1_556
O24 Si6 1.670084 1_555
O24 Sb6 2.290748 1_555
O25 Si8 1.670084 1_555
O25 Sb1 2.290748 1_555
O26 Si9 1.670073 1_555
O26 Sb1 2.290753 1_555
O27 Si6 1.670079 1_555
O27 Sb1 2.290757 1_556
O28 Si1 1.670079 1_556
O28 Sb0 2.290757 1_556
O29 Si7 1.670084 1_565
O29 Sb7 2.290748 1_666
O30 Si11 1.670084 1_555
O30 Sb4 2.290748 1_555
O31 Si10 1.670084 1_555
O31 Sb2 2.290748 1_555
O32 Si1 1.670084 1_555
O32 Sb5 2.290748 1_655
O33 Si9 1.670084 1_556
O33 Sb7 2.290748 1_666
O34 Si10 1.670079 1_555
O34 Sb6 2.290757 1_565
O35 Si7 1.670073 1_555
O35 Sb6 2.290753 1_555
O36 Si8 1.670079 1_555
O36 Sb2 2.290757 1_655
O37 Si0 1.670084 1_655
O37 Sb7 2.290748 1_666
O38 Si0 1.670073 1_555
O38 Sb2 2.290753 1_555
O39 Si3 1.670079 1_655
O39 Sb5 2.290757 1_655
O40 Si2 1.670073 1_555
O40 Sb5 2.290753 1_656
O41 Si5 1.670073 1_555
O41 Sb0 2.290753 1_566
O42 Si2 1.670084 1_555
O42 Sb4 2.290748 1_555
O43 Si3 1.670084 1_555
O43 Sb3 2.290748 1_565
O44 Si4 1.670084 1_555
O44 Sb0 2.290748 1_556
O45 Si4 1.670079 1_565
O45 Sb3 2.290757 1_565
O46 Si5 1.670084 1_555
O46 Sb4 2.290748 1_555
O47 Si3 1.670073 1_555
O47 Sb6 2.290753 1_565
