# generated using pymatgen
data_NdInPd
_symmetry_space_group_name_H-M   'P 1'
_cell_length_a   8.14627248
_cell_length_b   8.06115995
_cell_length_c   3.84178907
_cell_angle_alpha   88.70288996
_cell_angle_beta   91.18236757
_cell_angle_gamma   119.63183942
_symmetry_Int_Tables_number   1
_chemical_formula_structural   NdInPd
_chemical_formula_sum   'Nd3 In3 Pd3'
_cell_volume   219.22138288
_cell_formula_units_Z   3
loop_
 _symmetry_equiv_pos_site_id
 _symmetry_equiv_pos_as_xyz
  1  'x, y, z'
loop_
 _atom_site_type_symbol
 _atom_site_label
 _atom_site_symmetry_multiplicity
 _atom_site_fract_x
 _atom_site_fract_y
 _atom_site_fract_z
 _atom_site_occupancy
  Nd  Nd0  1  0.00072300  0.71938400  0.50411100  1
  Nd  Nd1  1  0.28071500  0.28108000  0.50057100  1
  Nd  Nd2  1  0.71885000  0.99934400  0.49864600  1
  In  In0  1  0.61970600  0.61697700  0.99995800  1
  In  In1  1  0.99858300  0.38061000  0.99961200  1
  In  In2  1  0.38104600  0.99858400  0.00186600  1
  Pd  Pd0  1  0.99992500  0.00019200  0.00125400  1
  Pd  Pd1  1  0.66625200  0.33505800  0.48799900  1
  Pd  Pd2  1  0.33420100  0.66877100  0.50598000  1
loop_
_geom_bond_atom_site_label_1
_geom_bond_atom_site_label_2
_geom_bond_distance
_geom_bond_site_symmetry_2
Nd0 Pd2 2.939647 1_555
Nd0 Pd0 2.944872 1_465
Nd0 Pd1 2.946273 1_455
Nd0 Pd0 2.997113 1_466
Nd1 Pd2 2.934867 1_555
Nd1 Pd1 2.951195 1_555
Nd1 Pd0 2.986956 1_456
Nd1 Pd0 2.988798 1_455
Nd2 Pd1 2.941076 1_565
Nd2 Pd2 2.943436 1_555
Nd2 Pd0 2.962081 1_566
Nd2 Pd0 3.009780 1_565
In0 Pd1 3.074696 1_556
In0 Pd0 3.110481 1_566
In0 Pd2 3.150774 1_555
In0 Pd1 3.203461 1_555
In0 Pd2 3.247539 1_556
In0 Nd2 3.346039 1_555
In0 Nd1 3.353502 1_556
In0 Nd1 3.355742 1_555
In0 Nd0 3.370077 1_656
In0 Nd2 3.400781 1_556
In0 Nd0 3.403433 1_655
In1 Pd0 3.071894 1_556
In1 Pd1 3.187062 1_555
In1 Pd1 3.190600 1_556
In1 Pd2 3.194017 1_655
In1 Pd2 3.218737 1_656
In1 Nd0 3.286464 1_655
In1 Nd1 3.346792 1_656
In1 Nd2 3.361907 1_546
In1 Nd0 3.377259 1_656
In1 Nd2 3.391785 1_545
In1 Nd1 3.417112 1_655
In2 Pd0 3.111097 1_465
In2 Pd2 3.123956 1_555
In2 Pd2 3.168531 1_554
In2 Pd1 3.172017 1_565
In2 Pd1 3.219880 1_564
In2 Nd2 3.313949 1_555
In2 Nd1 3.337636 1_564
In2 Nd0 3.372873 1_554
In2 Nd2 3.393014 1_554
In2 Nd0 3.397395 1_555
In2 Nd1 3.409877 1_565
