# generated using pymatgen
data_Ba4Bi(IrO4)3
_symmetry_space_group_name_H-M   'P 1'
_cell_length_a   5.99421426
_cell_length_b   5.99421426
_cell_length_c   30.16640013
_cell_angle_alpha   86.54219265
_cell_angle_beta   86.54219265
_cell_angle_gamma   59.90962283
_symmetry_Int_Tables_number   1
_chemical_formula_structural   Ba4Bi(IrO4)3
_chemical_formula_sum   'Ba12 Bi3 Ir9 O36'
_cell_volume   935.55125198
_cell_formula_units_Z   3
loop_
 _symmetry_equiv_pos_site_id
 _symmetry_equiv_pos_as_xyz
  1  'x, y, z'
loop_
 _atom_site_type_symbol
 _atom_site_label
 _atom_site_symmetry_multiplicity
 _atom_site_fract_x
 _atom_site_fract_y
 _atom_site_fract_z
 _atom_site_occupancy
  Ba  Ba0  1  0.33182500  0.33182500  0.46072400  1
  Ba  Ba1  1  0.66817500  0.66817500  0.53927600  1
  Ba  Ba2  1  0.34548000  0.34548000  0.61980100  1
  Ba  Ba3  1  0.65452000  0.65452000  0.38019900  1
  Ba  Ba4  1  0.99597700  0.99597700  0.71703400  1
  Ba  Ba5  1  0.00402300  0.00402300  0.28296600  1
  Ba  Ba6  1  0.32637100  0.32637100  0.20307400  1
  Ba  Ba7  1  0.67362900  0.67362900  0.79692600  1
  Ba  Ba8  1  0.00547700  0.00547700  0.87177200  1
  Ba  Ba9  1  0.99452300  0.99452300  0.12822800  1
  Ba  Ba10  1  0.32165500  0.32165500  0.04947800  1
  Ba  Ba11  1  0.67834500  0.67834500  0.95052200  1
  Bi  Bi0  1  0.32878900  0.32878900  0.33216000  1
  Bi  Bi1  1  0.67121100  0.67121100  0.66784000  1
  Bi  Bi2  1  0.00000000  0.00000000  0.00000000  1
  Ir  Ir0  1  0.00000000  0.00000000  0.50000000  1
  Ir  Ir1  1  0.01800600  0.01800600  0.58568000  1
  Ir  Ir2  1  0.98199400  0.98199400  0.41432000  1
  Ir  Ir3  1  0.32251600  0.32251600  0.74903100  1
  Ir  Ir4  1  0.67748400  0.67748400  0.25096900  1
  Ir  Ir5  1  0.33704100  0.33704100  0.83385100  1
  Ir  Ir6  1  0.66295900  0.66295900  0.16614900  1
  Ir  Ir7  1  0.35156500  0.35156500  0.91885500  1
  Ir  Ir8  1  0.64843500  0.64843500  0.08114500  1
  O  O0  1  0.16113700  0.16113700  0.53464500  1
  O  O1  1  0.83886300  0.83886300  0.46535500  1
  O  O2  1  0.11877600  0.11877600  0.36507000  1
  O  O3  1  0.88122400  0.88122400  0.63493000  1
  O  O4  1  0.46202400  0.46202400  0.70099600  1
  O  O5  1  0.53797600  0.53797600  0.29900400  1
  O  O6  1  0.82322000  0.82322000  0.20104600  1
  O  O7  1  0.17678000  0.17678000  0.79895400  1
  O  O8  1  0.49765400  0.49765400  0.86865100  1
  O  O9  1  0.50234600  0.50234600  0.13134900  1
  O  O10  1  0.78801600  0.78801600  0.03289200  1
  O  O11  1  0.21198400  0.21198400  0.96710800  1
  O  O12  1  0.70029100  0.15885600  0.54607300  1
  O  O13  1  0.15885600  0.70029100  0.54607300  1
  O  O14  1  0.29970900  0.84114400  0.45392700  1
  O  O15  1  0.84114400  0.29970900  0.45392700  1
  O  O16  1  0.64918100  0.12541400  0.38331700  1
  O  O17  1  0.12541400  0.64918100  0.38331700  1
  O  O18  1  0.35081900  0.87458600  0.61668300  1
  O  O19  1  0.87458600  0.35081900  0.61668300  1
  O  O20  1  0.53157100  0.01169100  0.28123800  1
  O  O21  1  0.01169100  0.53157100  0.28123800  1
  O  O22  1  0.46842900  0.98830900  0.71876200  1
  O  O23  1  0.98830900  0.46842900  0.71876200  1
  O  O24  1  0.35940900  0.82256900  0.21111200  1
  O  O25  1  0.82256900  0.35940900  0.21111200  1
  O  O26  1  0.64059100  0.17743100  0.78888800  1
  O  O27  1  0.17743100  0.64059100  0.78888800  1
  O  O28  1  0.50413700  0.96700900  0.12101600  1
  O  O29  1  0.96700900  0.50413700  0.12101600  1
  O  O30  1  0.49586300  0.03299100  0.87898400  1
  O  O31  1  0.03299100  0.49586300  0.87898400  1
  O  O32  1  0.31451600  0.79288900  0.05118800  1
  O  O33  1  0.79288900  0.31451600  0.05118800  1
  O  O34  1  0.68548400  0.20711100  0.94881200  1
  O  O35  1  0.20711100  0.68548400  0.94881200  1
loop_
_geom_bond_atom_site_label_1
_geom_bond_atom_site_label_2
_geom_bond_distance
_geom_bond_site_symmetry_2
Ba0 O0 2.750540 1_555
Ba0 O16 2.838102 1_555
Ba0 O17 2.838102 1_555
Ba0 O15 2.956286 1_555
Ba0 O14 2.956286 1_555
Ba0 O1 2.997399 1_545
Ba0 O1 2.997399 1_455
Ba0 O15 3.061913 1_455
Ba0 O14 3.061913 1_545
Ba0 O13 3.263409 1_555
Ba0 O12 3.263409 1_555
Ba1 O1 2.750540 1_555
Ba1 O19 2.838102 1_555
Ba1 O18 2.838102 1_555
Ba1 O12 2.956286 1_555
Ba1 O13 2.956286 1_555
Ba1 O0 2.997399 1_565
Ba1 O0 2.997399 1_655
Ba1 O12 3.061913 1_565
Ba1 O13 3.061913 1_655
Ba1 O15 3.263409 1_555
Ba1 O14 3.263409 1_555
Ba2 O4 2.806705 1_555
Ba2 O18 2.813938 1_545
Ba2 O19 2.813938 1_455
Ba2 O13 2.839937 1_555
Ba2 O12 2.839937 1_555
Ba2 O3 3.054152 1_455
Ba2 O3 3.054152 1_545
Ba2 O18 3.183424 1_555
Ba2 O19 3.183424 1_555
Ba2 O0 3.309102 1_555
Ba2 O23 3.457038 1_455
Ba2 O22 3.457038 1_545
Ba3 O5 2.806705 1_555
Ba3 O16 2.813938 1_565
Ba3 O17 2.813938 1_655
Ba3 O15 2.839937 1_555
Ba3 O14 2.839937 1_555
Ba3 O2 3.054152 1_655
Ba3 O2 3.054152 1_565
Ba3 O16 3.183424 1_555
Ba3 O17 3.183424 1_555
Ba3 O1 3.309102 1_555
Ba3 O21 3.457038 1_655
Ba3 O20 3.457038 1_565
Ba4 O27 2.797047 1_655
Ba4 O26 2.797047 1_565
Ba4 O23 2.812815 1_565
Ba4 O22 2.812815 1_655
Ba4 O3 2.822443 1_555
Ba4 O4 3.056194 1_565
Ba4 O4 3.056194 1_655
Ba4 O22 3.182788 1_555
Ba4 O23 3.182788 1_555
Ba4 O7 3.206246 1_665
Ba4 O18 3.486371 1_655
Ba4 O19 3.486371 1_565
Ba5 O25 2.797047 1_455
Ba5 O24 2.797047 1_545
Ba5 O21 2.812815 1_545
Ba5 O20 2.812815 1_455
Ba5 O2 2.822443 1_555
Ba5 O5 3.056194 1_455
Ba5 O5 3.056194 1_545
Ba5 O20 3.182788 1_555
Ba5 O21 3.182788 1_555
Ba5 O6 3.206246 1_445
Ba5 O16 3.486371 1_455
Ba5 O17 3.486371 1_545
Ba6 O9 2.733489 1_555
Ba6 O21 2.849142 1_555
Ba6 O20 2.849142 1_555
Ba6 O25 2.921570 1_455
Ba6 O24 2.921570 1_545
Ba6 O6 2.993863 1_455
Ba6 O6 2.993863 1_545
Ba6 O24 3.102902 1_555
Ba6 O25 3.102902 1_555
Ba6 O28 3.150645 1_545
Ba6 O29 3.150645 1_455
Ba7 O8 2.733489 1_555
Ba7 O23 2.849142 1_555
Ba7 O22 2.849142 1_555
Ba7 O26 2.921570 1_565
Ba7 O27 2.921570 1_655
Ba7 O7 2.993863 1_655
Ba7 O7 2.993863 1_565
Ba7 O27 3.102902 1_555
Ba7 O26 3.102902 1_555
Ba7 O31 3.150645 1_655
Ba7 O30 3.150645 1_565
Ba8 O7 2.728943 1_555
Ba8 O35 2.831516 1_545
Ba8 O34 2.831516 1_455
Ba8 O30 2.970678 1_455
Ba8 O31 2.970678 1_545
Ba8 O8 2.995772 1_455
Ba8 O8 2.995772 1_545
Ba8 O31 3.046745 1_555
Ba8 O30 3.046745 1_555
Ba8 O26 3.191560 1_455
Ba8 O27 3.191560 1_545
Ba9 O6 2.728943 1_555
Ba9 O33 2.831516 1_565
Ba9 O32 2.831516 1_655
Ba9 O28 2.970678 1_655
Ba9 O29 2.970678 1_565
Ba9 O9 2.995772 1_565
Ba9 O9 2.995772 1_655
Ba9 O29 3.046745 1_555
Ba9 O28 3.046745 1_555
Ba9 O25 3.191560 1_565
Ba9 O24 3.191560 1_655
Ba10 O28 2.787913 1_545
Ba10 O29 2.787913 1_455
Ba10 O11 2.804643 1_554
Ba10 O33 2.807027 1_555
Ba10 O32 2.807027 1_555
Ba10 O10 3.058576 1_545
Ba10 O10 3.058576 1_455
Ba10 O32 3.188490 1_545
Ba10 O33 3.188490 1_455
Ba10 O9 3.204303 1_555
Ba11 O30 2.787913 1_565
Ba11 O31 2.787913 1_655
Ba11 O10 2.804643 1_556
Ba11 O34 2.807027 1_555
Ba11 O35 2.807027 1_555
Ba11 O11 3.058576 1_565
Ba11 O11 3.058576 1_655
Ba11 O34 3.188490 1_565
Ba11 O35 3.188490 1_655
Ba11 O8 3.204303 1_555
Bi0 O21 2.293538 1_555
Bi0 O20 2.293538 1_555
Bi0 O16 2.310615 1_555
Bi0 O17 2.310615 1_555
Bi0 O5 2.327875 1_555
Bi0 O2 2.332944 1_555
Bi1 O22 2.293538 1_555
Bi1 O23 2.293538 1_555
Bi1 O19 2.310615 1_555
Bi1 O18 2.310615 1_555
Bi1 O4 2.327875 1_555
Bi1 O3 2.332944 1_555
Bi2 O32 2.291932 1_545
Bi2 O33 2.291932 1_455
Bi2 O35 2.291932 1_544
Bi2 O34 2.291932 1_454
Bi2 O10 2.351303 1_445
Bi2 O11 2.351303 1_554
Ir0 O1 2.034006 1_445
Ir0 O0 2.034006 1_555
Ir0 O14 2.051585 1_545
Ir0 O15 2.051585 1_455
Ir0 O13 2.051585 1_545
Ir0 O12 2.051585 1_455
Ir1 O3 1.982917 1_445
Ir1 O19 2.000486 1_455
Ir1 O18 2.000486 1_545
Ir1 O0 2.064416 1_555
Ir1 O13 2.075526 1_545
Ir1 O12 2.075526 1_455
Ir2 O2 1.982917 1_665
Ir2 O16 2.000486 1_565
Ir2 O17 2.000486 1_655
Ir2 O1 2.064416 1_555
Ir2 O14 2.075526 1_655
Ir2 O15 2.075526 1_565
Ir3 O4 1.976662 1_555
Ir3 O22 1.994835 1_545
Ir3 O23 1.994835 1_455
Ir3 O7 2.059637 1_555
Ir3 O27 2.079629 1_555
Ir3 O26 2.079629 1_555
Ir4 O5 1.976662 1_555
Ir4 O20 1.994835 1_565
Ir4 O21 1.994835 1_655
Ir4 O6 2.059637 1_555
Ir4 O25 2.079629 1_555
Ir4 O24 2.079629 1_555
Ir5 O7 2.030564 1_555
Ir5 O8 2.032013 1_555
Ir5 O26 2.044280 1_555
Ir5 O27 2.044280 1_555
Ir5 O31 2.049116 1_555
Ir5 O30 2.049116 1_555
Ir6 O6 2.030564 1_555
Ir6 O9 2.032013 1_555
Ir6 O25 2.044280 1_555
Ir6 O24 2.044280 1_555
Ir6 O29 2.049116 1_555
Ir6 O28 2.049116 1_555
Ir7 O11 1.981669 1_555
Ir7 O35 1.989643 1_555
Ir7 O34 1.989643 1_555
Ir7 O8 2.067913 1_555
Ir7 O30 2.082474 1_555
Ir7 O31 2.082474 1_555
Ir8 O10 1.981669 1_555
Ir8 O33 1.989643 1_555
Ir8 O32 1.989643 1_555
Ir8 O9 2.067913 1_555
Ir8 O28 2.082474 1_555
Ir8 O29 2.082474 1_555
