# generated using pymatgen
data_NaGd3GeS7
_symmetry_space_group_name_H-M   'P 1'
_cell_length_a   10.02606389
_cell_length_b   10.02606389
_cell_length_c   5.89474800
_cell_angle_alpha   90.00000000
_cell_angle_beta   90.00000000
_cell_angle_gamma   119.99999929
_symmetry_Int_Tables_number   1
_chemical_formula_structural   NaGd3GeS7
_chemical_formula_sum   'Na2 Gd6 Ge2 S14'
_cell_volume   513.16474755
_cell_formula_units_Z   2
loop_
 _symmetry_equiv_pos_site_id
 _symmetry_equiv_pos_as_xyz
  1  'x, y, z'
loop_
 _atom_site_type_symbol
 _atom_site_label
 _atom_site_symmetry_multiplicity
 _atom_site_fract_x
 _atom_site_fract_y
 _atom_site_fract_z
 _atom_site_occupancy
  Na  Na0  1  0.00000000  0.00000000  0.46661700  1
  Na  Na1  1  0.00000000  0.00000000  0.96661700  1
  Gd  Gd0  1  0.77359300  0.13592300  0.75465500  1
  Gd  Gd1  1  0.36233000  0.22640700  0.75465500  1
  Gd  Gd2  1  0.86407700  0.63767000  0.75465500  1
  Gd  Gd3  1  0.22640700  0.86407700  0.25465500  1
  Gd  Gd4  1  0.63767000  0.77359300  0.25465500  1
  Gd  Gd5  1  0.13592300  0.36233000  0.25465500  1
  Ge  Ge0  1  0.66666700  0.33333300  0.33403100  1
  Ge  Ge1  1  0.33333300  0.66666700  0.83403100  1
  S  S0  1  0.66666700  0.33333300  0.95824400  1
  S  S1  1  0.33333300  0.66666700  0.45824400  1
  S  S2  1  0.73805700  0.83919000  0.71124400  1
  S  S3  1  0.10113200  0.26194300  0.71124400  1
  S  S4  1  0.16081000  0.89886800  0.71124400  1
  S  S5  1  0.26194300  0.16081000  0.21124400  1
  S  S6  1  0.89886800  0.73805700  0.21124400  1
  S  S7  1  0.83919000  0.10113200  0.21124400  1
  S  S8  1  0.57988800  0.47946400  0.49454700  1
  S  S9  1  0.89957600  0.42011200  0.49454700  1
  S  S10  1  0.52053600  0.10042400  0.49454700  1
  S  S11  1  0.42011200  0.52053600  0.99454700  1
  S  S12  1  0.10042400  0.57988800  0.99454700  1
  S  S13  1  0.47946400  0.89957600  0.99454700  1
loop_
_geom_bond_atom_site_label_1
_geom_bond_atom_site_label_2
_geom_bond_distance
_geom_bond_site_symmetry_2
Na0 S4 2.709573 1_545
Na0 S2 2.709580 1_445
Na0 S3 2.709581 1_555
Na0 S7 2.743809 1_455
Na0 S5 2.743816 1_555
Na0 S6 2.743817 1_445
Na1 S7 2.709573 1_456
Na1 S5 2.709580 1_556
Na1 S6 2.709581 1_446
Na1 S4 2.743809 1_545
Na1 S2 2.743816 1_445
Na1 S3 2.743817 1_555
Gd0 S2 2.825501 1_545
Gd0 S10 2.830510 1_555
Gd0 S7 2.833315 1_556
Gd0 S3 2.880427 1_655
Gd0 S9 2.909619 1_555
Gd0 S0 2.937481 1_555
Gd0 S13 3.053398 1_545
Gd0 S7 3.323337 1_555
Gd1 S3 2.825511 1_555
Gd1 S8 2.830511 1_555
Gd1 S5 2.833313 1_556
Gd1 S4 2.880429 1_545
Gd1 S10 2.909619 1_555
Gd1 S0 2.937490 1_555
Gd1 S11 3.053398 1_555
Gd1 S5 3.323335 1_555
Gd2 S4 2.825505 1_655
Gd2 S9 2.830510 1_555
Gd2 S6 2.833312 1_556
Gd2 S2 2.880437 1_555
Gd2 S8 2.909619 1_555
Gd2 S0 2.937488 1_555
Gd2 S12 3.053398 1_655
Gd2 S6 3.323335 1_555
Gd3 S5 2.825501 1_565
Gd3 S13 2.830510 1_554
Gd3 S4 2.833315 1_555
Gd3 S6 2.880427 1_455
Gd3 S12 2.909619 1_554
Gd3 S1 2.937481 1_555
Gd3 S10 3.053398 1_565
Gd3 S4 3.323337 1_554
Gd4 S6 2.825511 1_555
Gd4 S11 2.830511 1_554
Gd4 S2 2.833313 1_555
Gd4 S7 2.880429 1_565
Gd4 S13 2.909619 1_554
Gd4 S1 2.937490 1_555
Gd4 S8 3.053398 1_555
Gd4 S2 3.323335 1_554
Gd5 S7 2.825505 1_455
Gd5 S12 2.830510 1_554
Gd5 S3 2.833312 1_555
Gd5 S5 2.880437 1_555
Gd5 S11 2.909619 1_554
Gd5 S1 2.937488 1_555
Gd5 S9 3.053398 1_455
Gd5 S3 3.323335 1_554
Ge0 S0 2.215170 1_554
Ge0 S9 2.252454 1_555
Ge0 S10 2.252456 1_555
Ge0 S8 2.252463 1_555
Ge1 S1 2.215170 1_555
Ge1 S12 2.252454 1_555
Ge1 S13 2.252456 1_555
Ge1 S11 2.252463 1_555
