# generated using pymatgen
data_BaSrMg14O16
_symmetry_space_group_name_H-M   'P 1'
_cell_length_a   8.77635488
_cell_length_b   9.13253997
_cell_length_c   4.57608128
_cell_angle_alpha   90.00000000
_cell_angle_beta   90.00000000
_cell_angle_gamma   90.00000000
_symmetry_Int_Tables_number   1
_chemical_formula_structural   BaSrMg14O16
_chemical_formula_sum   'Ba1 Sr1 Mg14 O16'
_cell_volume   366.77479871
_cell_formula_units_Z   1
loop_
 _symmetry_equiv_pos_site_id
 _symmetry_equiv_pos_as_xyz
  1  'x, y, z'
loop_
 _atom_site_type_symbol
 _atom_site_label
 _atom_site_symmetry_multiplicity
 _atom_site_fract_x
 _atom_site_fract_y
 _atom_site_fract_z
 _atom_site_occupancy
  Ba  Ba0  1  -0.00000000  0.50000000  0.00000000  1
  Sr  Sr0  1  -0.00000000  -0.00000000  0.00000000  1
  Mg  Mg0  1  0.50000000  -0.00000000  0.00000000  1
  Mg  Mg1  1  0.50000000  0.50000000  0.00000000  1
  Mg  Mg2  1  -0.00000000  0.24450271  0.50000000  1
  Mg  Mg3  1  -0.00000000  0.75549729  0.50000000  1
  Mg  Mg4  1  0.50000000  0.24939444  0.50000000  1
  Mg  Mg5  1  0.50000000  0.75060556  0.50000000  1
  Mg  Mg6  1  0.26138977  -0.00000000  0.50000000  1
  Mg  Mg7  1  0.26474421  0.50000000  0.50000000  1
  Mg  Mg8  1  0.73861023  -0.00000000  0.50000000  1
  Mg  Mg9  1  0.73525579  0.50000000  0.50000000  1
  Mg  Mg10  1  0.26303639  0.24691605  -0.00000000  1
  Mg  Mg11  1  0.26303639  0.75308395  -0.00000000  1
  Mg  Mg12  1  0.73696361  0.24691605  0.00000000  1
  Mg  Mg13  1  0.73696361  0.75308395  0.00000000  1
  O  O0  1  0.27404971  -0.00000000  -0.00000000  1
  O  O1  1  0.28222834  0.50000000  -0.00000000  1
  O  O2  1  0.72595029  -0.00000000  0.00000000  1
  O  O3  1  0.71777166  0.50000000  0.00000000  1
  O  O4  1  0.25174346  0.24969954  0.50000000  1
  O  O5  1  0.25174346  0.75030046  0.50000000  1
  O  O6  1  0.74825654  0.24969954  0.50000000  1
  O  O7  1  0.74825654  0.75030046  0.50000000  1
  O  O8  1  -0.00000000  -0.00000000  0.50000000  1
  O  O9  1  -0.00000000  0.50000000  0.50000000  1
  O  O10  1  0.50000000  -0.00000000  0.50000000  1
  O  O11  1  0.50000000  0.50000000  0.50000000  1
  O  O12  1  -0.00000000  0.24146101  -0.00000000  1
  O  O13  1  -0.00000000  0.75853899  0.00000000  1
  O  O14  1  0.50000000  0.24668705  -0.00000000  1
  O  O15  1  0.50000000  0.75331295  0.00000000  1
loop_
_geom_bond_atom_site_label_1
_geom_bond_atom_site_label_2
_geom_bond_distance
_geom_bond_site_symmetry_2
Ba0 O9 2.288041 1_555
Ba0 O9 2.288041 1_554
Ba0 O13 2.361118 1_555
Ba0 O12 2.361118 1_555
Ba0 O3 2.476936 1_455
Ba0 O1 2.476936 1_555
Mg0 O2 1.983020 1_555
Mg0 O0 1.983020 1_555
Mg0 O15 2.252879 1_545
Mg0 O14 2.252879 1_555
Mg0 O10 2.288041 1_555
Mg0 O10 2.288041 1_554
Mg1 O1 1.911241 1_555
Mg1 O3 1.911241 1_555
Mg1 O11 2.288041 1_554
Mg1 O11 2.288041 1_555
Mg1 O15 2.313391 1_555
Mg1 O14 2.313391 1_555
Mg2 O4 2.209900 1_555
Mg2 O6 2.209900 1_455
Mg2 O8 2.232931 1_555
Mg2 O12 2.288209 1_555
Mg2 O12 2.288209 1_556
Mg2 O9 2.333339 1_555
Mg3 O7 2.209900 1_455
Mg3 O5 2.209900 1_555
Mg3 O8 2.232931 1_565
Mg3 O13 2.288209 1_556
Mg3 O13 2.288209 1_555
Mg3 O9 2.333339 1_555
Mg4 O4 2.178789 1_555
Mg4 O6 2.178789 1_555
Mg4 O10 2.277605 1_555
Mg4 O14 2.288174 1_556
Mg4 O14 2.288174 1_555
Mg4 O11 2.288665 1_555
Mg5 O7 2.178789 1_555
Mg5 O5 2.178789 1_555
Mg5 O10 2.277605 1_565
Mg5 O15 2.288174 1_555
Mg5 O15 2.288174 1_556
Mg5 O11 2.288665 1_555
Mg6 O10 2.094128 1_555
Mg6 O5 2.281962 1_545
Mg6 O4 2.281962 1_555
Mg6 O0 2.290737 1_555
Mg6 O0 2.290737 1_556
Mg6 O8 2.294049 1_555
Mg7 O11 2.064688 1_555
Mg7 O4 2.288725 1_555
Mg7 O5 2.288725 1_555
Mg7 O1 2.293180 1_556
Mg7 O1 2.293180 1_555
Mg7 O9 2.323489 1_555
Mg8 O10 2.094128 1_555
Mg8 O7 2.281962 1_545
Mg8 O6 2.281962 1_555
Mg8 O2 2.290737 1_555
Mg8 O2 2.290737 1_556
Mg8 O8 2.294049 1_655
Mg9 O11 2.064688 1_555
Mg9 O6 2.288725 1_555
Mg9 O7 2.288725 1_555
Mg9 O3 2.293180 1_556
Mg9 O3 2.293180 1_555
Mg9 O9 2.323489 1_655
Mg10 O14 2.079678 1_555
Mg10 O0 2.257041 1_555
Mg10 O4 2.290327 1_554
Mg10 O4 2.290327 1_555
Mg10 O12 2.309038 1_555
Mg10 O1 2.317429 1_555
Mg11 O15 2.079678 1_555
Mg11 O0 2.257041 1_565
Mg11 O5 2.290327 1_555
Mg11 O5 2.290327 1_554
Mg11 O13 2.309038 1_555
Mg11 O1 2.317429 1_555
Mg12 O14 2.079678 1_555
Mg12 O2 2.257041 1_555
Mg12 O6 2.290327 1_555
Mg12 O6 2.290327 1_554
Mg12 O12 2.309038 1_655
Mg12 O3 2.317429 1_555
Mg13 O15 2.079678 1_555
Mg13 O2 2.257041 1_565
Mg13 O7 2.290327 1_555
Mg13 O7 2.290327 1_554
Mg13 O13 2.309038 1_655
Mg13 O3 2.317429 1_555
O0 Sr0 2.405158 1_555
O2 Sr0 2.405158 1_655
O8 Sr0 2.288041 1_555
O8 Sr0 2.288041 1_556
O12 Sr0 2.205152 1_555
O13 Sr0 2.205152 1_565
