# generated using pymatgen
data_Na3Ca4TiSi4(O8F)2
_symmetry_space_group_name_H-M   'P 1'
_cell_length_a   5.68992900
_cell_length_b   7.45843400
_cell_length_c   18.81919740
_cell_angle_alpha   89.97792405
_cell_angle_beta   90.00000000
_cell_angle_gamma   90.00000000
_symmetry_Int_Tables_number   1
_chemical_formula_structural   Na3Ca4TiSi4(O8F)2
_chemical_formula_sum   'Na6 Ca8 Ti2 Si8 O32 F4'
_cell_volume   798.64828541
_cell_formula_units_Z   2
loop_
 _symmetry_equiv_pos_site_id
 _symmetry_equiv_pos_as_xyz
  1  'x, y, z'
loop_
 _atom_site_type_symbol
 _atom_site_label
 _atom_site_symmetry_multiplicity
 _atom_site_fract_x
 _atom_site_fract_y
 _atom_site_fract_z
 _atom_site_occupancy
  Na  Na0  1  0.34884500  0.62310200  0.24929800  1
  Na  Na1  1  0.84884500  0.37689800  0.75070200  1
  Na  Na2  1  0.84760000  0.85876000  0.24595600  1
  Na  Na3  1  0.34760000  0.14124000  0.75404400  1
  Na  Na4  1  0.34070700  0.61230000  0.75291200  1
  Na  Na5  1  0.84070700  0.38770000  0.24708800  1
  Ca  Ca0  1  0.18290700  0.87702600  0.55218000  1
  Ca  Ca1  1  0.68290700  0.12297400  0.44782000  1
  Ca  Ca2  1  0.00044900  0.62791400  0.06172800  1
  Ca  Ca3  1  0.50044900  0.37208600  0.93827200  1
  Ca  Ca4  1  0.19919500  0.37391300  0.56554900  1
  Ca  Ca5  1  0.69919500  0.62608700  0.43445100  1
  Ca  Ca6  1  0.50048200  0.87607700  0.93999900  1
  Ca  Ca7  1  0.00048200  0.12392300  0.06000100  1
  Ti  Ti0  1  0.31086200  0.12310300  0.23648600  1
  Ti  Ti1  1  0.81086200  0.87689700  0.76351400  1
  Si  Si0  1  0.49516000  0.40870700  0.10857800  1
  Si  Si1  1  0.99516000  0.59129300  0.89142200  1
  Si  Si2  1  0.19984300  0.84046300  0.38777600  1
  Si  Si3  1  0.69984300  0.15953700  0.61222400  1
  Si  Si4  1  0.20220200  0.40770200  0.39133400  1
  Si  Si5  1  0.70220200  0.59229800  0.60866600  1
  Si  Si6  1  0.49582300  0.84076600  0.11036100  1
  Si  Si7  1  0.99582300  0.15923400  0.88963900  1
  O  O0  1  0.48820000  0.93578400  0.18881600  1
  O  O1  1  0.98820000  0.06421600  0.81118400  1
  O  O2  1  0.73907600  0.88180600  0.06795700  1
  O  O3  1  0.23907600  0.11819400  0.93204300  1
  O  O4  1  0.73754700  0.36910600  0.06538900  1
  O  O5  1  0.23754700  0.63089400  0.93461100  1
  O  O6  1  0.48545200  0.31018200  0.18627600  1
  O  O7  1  0.98545200  0.68981800  0.81372400  1
  O  O8  1  0.07746700  0.86052600  0.67953100  1
  O  O9  1  0.57746700  0.13947400  0.32046900  1
  O  O10  1  0.22221300  0.93703900  0.30953800  1
  O  O11  1  0.72221300  0.06296100  0.69046200  1
  O  O12  1  0.49259800  0.62416400  0.13028000  1
  O  O13  1  0.99259800  0.37583600  0.86972000  1
  O  O14  1  0.24276000  0.30877200  0.31329000  1
  O  O15  1  0.74276000  0.69122800  0.68671000  1
  O  O16  1  0.44623400  0.64105800  0.57579300  1
  O  O17  1  0.94623400  0.35894200  0.42420700  1
  O  O18  1  0.04523500  0.12793400  0.19076000  1
  O  O19  1  0.54523500  0.87206600  0.80924000  1
  O  O20  1  0.26988100  0.37016400  0.05727500  1
  O  O21  1  0.76988100  0.62983600  0.94272500  1
  O  O22  1  0.95341600  0.88594800  0.42797900  1
  O  O23  1  0.45341600  0.11405200  0.57202100  1
  O  O24  1  0.41375300  0.37753600  0.44818200  1
  O  O25  1  0.91375300  0.62246400  0.55181800  1
  O  O26  1  0.41985500  0.87524800  0.44110000  1
  O  O27  1  0.91985500  0.12475200  0.55890000  1
  O  O28  1  0.19712200  0.62274200  0.36772000  1
  O  O29  1  0.69712200  0.37725800  0.63228000  1
  O  O30  1  0.27062200  0.88173200  0.05977400  1
  O  O31  1  0.77062200  0.11826800  0.94022600  1
  F  F0  1  0.68902200  0.62606900  0.31381600  1
  F  F1  1  0.18902200  0.37393100  0.68618400  1
  F  F2  1  0.00647200  0.62148400  0.18354100  1
  F  F3  1  0.50647200  0.37851600  0.81645900  1
loop_
_geom_bond_atom_site_label_1
_geom_bond_atom_site_label_2
_geom_bond_distance
_geom_bond_site_symmetry_2
Na0 O12 2.384510 1_555
Na0 O28 2.389972 1_555
Na0 O10 2.699802 1_555
Na0 O14 2.703464 1_555
Na0 O0 2.713117 1_555
Na0 O6 2.731302 1_555
Na1 O13 2.384510 1_555
Na1 O29 2.389972 1_555
Na1 O11 2.699802 1_555
Na1 O15 2.703464 1_555
Na1 O1 2.713117 1_555
Na1 O7 2.731302 1_555
Na2 O0 2.380703 1_555
Na2 O10 2.513275 1_655
Na2 O18 2.524376 1_665
Na2 O9 2.952058 1_565
Na3 O1 2.380703 1_455
Na3 O11 2.513275 1_555
Na3 O19 2.524376 1_545
Na3 O8 2.952058 1_545
Na4 O7 2.393840 1_455
Na4 O19 2.496658 1_555
Na4 O15 2.670491 1_555
Na4 O8 2.752483 1_555
Na5 O6 2.393840 1_555
Na5 O18 2.496658 1_655
Na5 O14 2.670491 1_655
Na5 O9 2.752483 1_555
Ca0 O16 2.353559 1_555
Ca0 O23 2.373660 1_565
Ca0 O27 2.381224 1_465
Ca0 O25 2.439315 1_455
Ca0 O8 2.473611 1_555
Ca0 O26 2.487531 1_555
Ca0 O22 2.678181 1_455
Ca1 O17 2.353559 1_555
Ca1 O22 2.373660 1_545
Ca1 O26 2.381224 1_545
Ca1 O24 2.439315 1_555
Ca1 O9 2.473611 1_555
Ca1 O27 2.487531 1_555
Ca1 O23 2.678181 1_555
Ca2 F2 2.293162 1_555
Ca2 O2 2.410709 1_455
Ca2 O30 2.438904 1_555
Ca2 O4 2.443033 1_455
Ca2 O20 2.460295 1_555
Ca2 O21 2.595544 1_454
Ca2 O5 2.746499 1_554
Ca3 F3 2.293162 1_555
Ca3 O3 2.410709 1_555
Ca3 O31 2.438904 1_555
Ca3 O5 2.443033 1_555
Ca3 O21 2.460295 1_555
Ca3 O20 2.595544 1_556
Ca3 O4 2.746499 1_556
Ca4 F1 2.270992 1_555
Ca4 O23 2.421459 1_555
Ca4 O16 2.446070 1_555
Ca4 O27 2.448586 1_455
Ca4 O25 2.478070 1_455
Ca4 O24 2.523821 1_555
Ca5 F0 2.270992 1_555
Ca5 O22 2.421459 1_555
Ca5 O17 2.446070 1_555
Ca5 O26 2.448586 1_555
Ca5 O24 2.478070 1_555
Ca5 O25 2.523821 1_555
Ca6 O3 2.344243 1_565
Ca6 O5 2.364902 1_555
Ca6 O31 2.371832 1_565
Ca6 O21 2.392743 1_555
Ca6 O19 2.474112 1_555
Ca6 O30 2.606386 1_556
Ca6 O2 2.764728 1_556
Ca7 O2 2.344243 1_445
Ca7 O4 2.364902 1_455
Ca7 O30 2.371832 1_545
Ca7 O20 2.392743 1_555
Ca7 O18 2.474112 1_555
Ca7 O31 2.606386 1_454
Ca7 O3 2.764728 1_554
O0 Si6 1.638553 1_555
O0 Ti0 1.943153 1_565
O1 Si7 1.638553 1_555
O1 Ti1 1.943153 1_545
O2 Si6 1.626664 1_555
O3 Si7 1.626664 1_455
O4 Si0 1.627923 1_555
O5 Si1 1.627923 1_455
O6 Si0 1.637158 1_555
O6 Ti0 1.955915 1_555
O7 Si1 1.637158 1_555
O7 Ti1 1.955915 1_555
O8 Ti1 2.194127 1_455
O9 Ti0 2.194127 1_555
O10 Si2 1.643812 1_555
O10 Ti0 2.017130 1_565
O11 Si3 1.643812 1_555
O11 Ti1 2.017130 1_545
O12 Si0 1.658276 1_555
O12 Si6 1.658393 1_555
O13 Si1 1.658276 1_555
O13 Si7 1.658393 1_555
O14 Si4 1.660026 1_555
O14 Ti0 2.039244 1_555
O15 Si5 1.660026 1_555
O15 Ti1 2.039244 1_555
O16 Si5 1.623583 1_555
O17 Si4 1.623583 1_655
O18 Ti0 1.739571 1_555
O19 Ti1 1.739571 1_555
O20 Si0 1.630360 1_555
O21 Si1 1.630360 1_555
O22 Si2 1.629031 1_655
O23 Si3 1.629031 1_555
O24 Si4 1.626007 1_555
O25 Si5 1.626007 1_555
O26 Si2 1.625327 1_555
O27 Si3 1.625327 1_555
O28 Si4 1.664376 1_555
O28 Si2 1.667359 1_555
O29 Si5 1.664376 1_555
O29 Si3 1.667359 1_555
O30 Si6 1.625232 1_555
O31 Si7 1.625232 1_555
F0 Na0 2.284998 1_555
F0 Na2 2.335667 1_555
F0 Na5 2.341871 1_555
F1 Na1 2.284998 1_455
F1 Na3 2.335667 1_555
F1 Na4 2.341871 1_555
F2 Na0 2.307933 1_555
F2 Na2 2.308747 1_455
F2 Na5 2.314854 1_455
F3 Na1 2.307933 1_555
F3 Na3 2.308747 1_555
F3 Na4 2.314854 1_555
