# generated using pymatgen
data_BaCa(FeO2)4
_symmetry_space_group_name_H-M   'P 1'
_cell_length_a   5.52018213
_cell_length_b   5.52018213
_cell_length_c   7.83717000
_cell_angle_alpha   90.00000000
_cell_angle_beta   90.00000000
_cell_angle_gamma   120.00000160
_symmetry_Int_Tables_number   1
_chemical_formula_structural   BaCa(FeO2)4
_chemical_formula_sum   'Ba1 Ca1 Fe4 O8'
_cell_volume   206.82198707
_cell_formula_units_Z   1
loop_
 _symmetry_equiv_pos_site_id
 _symmetry_equiv_pos_as_xyz
  1  'x, y, z'
loop_
 _atom_site_type_symbol
 _atom_site_label
 _atom_site_symmetry_multiplicity
 _atom_site_fract_x
 _atom_site_fract_y
 _atom_site_fract_z
 _atom_site_occupancy
  Ba  Ba0  1  0.00000000  0.00000000  0.00000000  1
  Ca  Ca0  1  0.00000000  0.00000000  0.50000000  1
  Fe  Fe0  1  0.33333300  0.66666700  0.75949200  1
  Fe  Fe1  1  0.66666700  0.33333300  0.75949200  1
  Fe  Fe2  1  0.33333300  0.66666700  0.24050800  1
  Fe  Fe3  1  0.66666700  0.33333300  0.24050800  1
  O  O0  1  0.33056600  0.33056600  0.69566400  1
  O  O1  1  0.66943400  0.00000000  0.69566400  1
  O  O2  1  0.00000000  0.66943400  0.69566400  1
  O  O3  1  0.66943400  0.66943400  0.30433600  1
  O  O4  1  0.00000000  0.33056600  0.30433600  1
  O  O5  1  0.33056600  0.00000000  0.30433600  1
  O  O6  1  0.33333300  0.66666700  0.00000000  1
  O  O7  1  0.66666700  0.33333300  0.00000000  1
loop_
_geom_bond_atom_site_label_1
_geom_bond_atom_site_label_2
_geom_bond_distance
_geom_bond_site_symmetry_2
Ba0 O0 3.003115 1_554
Ba0 O3 3.003115 1_445
Ba0 O4 3.003115 1_555
Ba0 O5 3.003115 1_555
Ba0 O1 3.003115 1_454
Ba0 O2 3.003115 1_544
Ba0 O6 3.187075 1_545
Ba0 O7 3.187075 1_455
Ba0 O6 3.187080 1_555
Ba0 O6 3.187080 1_445
Ba0 O7 3.187080 1_555
Ba0 O7 3.187080 1_445
Ca0 O0 2.383551 1_555
Ca0 O3 2.383551 1_445
Ca0 O4 2.383551 1_555
Ca0 O5 2.383551 1_555
Ca0 O2 2.383551 1_545
Ca0 O1 2.383551 1_455
Fe0 O6 1.884902 1_556
Fe0 O2 1.914259 1_555
Fe0 O1 1.914261 1_565
Fe0 O0 1.914264 1_555
Fe1 O7 1.884902 1_556
Fe1 O1 1.914259 1_555
Fe1 O2 1.914261 1_655
Fe1 O0 1.914264 1_555
Fe2 O6 1.884902 1_555
Fe2 O5 1.914259 1_565
Fe2 O4 1.914261 1_555
Fe2 O3 1.914264 1_555
Fe3 O7 1.884902 1_555
Fe3 O4 1.914259 1_655
Fe3 O5 1.914261 1_555
Fe3 O3 1.914264 1_555
