# generated using pymatgen
data_La7ZnNi2
_symmetry_space_group_name_H-M   'P 1'
_cell_length_a   7.62639200
_cell_length_b   24.80356800
_cell_length_c   24.80356800
_cell_angle_alpha   90.00000000
_cell_angle_beta   90.00000000
_cell_angle_gamma   90.00000000
_symmetry_Int_Tables_number   1
_chemical_formula_structural   La7ZnNi2
_chemical_formula_sum   'La112 Zn16 Ni32'
_cell_volume   4691.88589671
_cell_formula_units_Z   16
loop_
 _symmetry_equiv_pos_site_id
 _symmetry_equiv_pos_as_xyz
  1  'x, y, z'
loop_
 _atom_site_type_symbol
 _atom_site_label
 _atom_site_symmetry_multiplicity
 _atom_site_fract_x
 _atom_site_fract_y
 _atom_site_fract_z
 _atom_site_occupancy
  La  La0_0  1  0.25000000  0.00000000  0.25000000  1
  La  La0_1  1  0.25000000  0.00000000  0.75000000  1
  La  La0_2  1  0.25000000  0.50000000  0.25000000  1
  La  La0_3  1  0.25000000  0.50000000  0.75000000  1
  La  La0_4  1  0.75000000  0.00000000  0.25000000  1
  La  La0_5  1  0.75000000  0.00000000  0.75000000  1
  La  La0_6  1  0.75000000  0.50000000  0.25000000  1
  La  La0_7  1  0.75000000  0.50000000  0.75000000  1
  La  La1_0  1  0.25000000  0.25000000  0.00000000  1
  La  La1_1  1  0.25000000  0.25000000  0.50000000  1
  La  La1_2  1  0.25000000  0.75000000  0.00000000  1
  La  La1_3  1  0.25000000  0.75000000  0.50000000  1
  La  La1_4  1  0.75000000  0.25000000  0.00000000  1
  La  La1_5  1  0.75000000  0.25000000  0.50000000  1
  La  La1_6  1  0.75000000  0.75000000  0.00000000  1
  La  La1_7  1  0.75000000  0.75000000  0.50000000  1
  La  La2_0  1  0.00000000  0.16142300  0.41142300  1
  La  La2_1  1  0.00000000  0.16142300  0.91142300  1
  La  La2_2  1  0.00000000  0.66142300  0.41142300  1
  La  La2_3  1  0.00000000  0.66142300  0.91142300  1
  La  La2_4  1  0.50000000  0.16142300  0.41142300  1
  La  La2_5  1  0.50000000  0.16142300  0.91142300  1
  La  La2_6  1  0.50000000  0.66142300  0.41142300  1
  La  La2_7  1  0.50000000  0.66142300  0.91142300  1
  La  La3_0  1  0.00000000  0.33857700  0.08857700  1
  La  La3_1  1  0.00000000  0.33857700  0.58857700  1
  La  La3_2  1  0.00000000  0.83857700  0.08857700  1
  La  La3_3  1  0.00000000  0.83857700  0.58857700  1
  La  La3_4  1  0.50000000  0.33857700  0.08857700  1
  La  La3_5  1  0.50000000  0.33857700  0.58857700  1
  La  La3_6  1  0.50000000  0.83857700  0.08857700  1
  La  La3_7  1  0.50000000  0.83857700  0.58857700  1
  La  La4_0  1  0.00000000  0.08857700  0.16142300  1
  La  La4_1  1  0.00000000  0.08857700  0.66142300  1
  La  La4_2  1  0.00000000  0.58857700  0.16142300  1
  La  La4_3  1  0.00000000  0.58857700  0.66142300  1
  La  La4_4  1  0.50000000  0.08857700  0.16142300  1
  La  La4_5  1  0.50000000  0.08857700  0.66142300  1
  La  La4_6  1  0.50000000  0.58857700  0.16142300  1
  La  La4_7  1  0.50000000  0.58857700  0.66142300  1
  La  La5_0  1  0.00000000  0.41142300  0.33857700  1
  La  La5_1  1  0.00000000  0.41142300  0.83857700  1
  La  La5_2  1  0.00000000  0.91142300  0.33857700  1
  La  La5_3  1  0.00000000  0.91142300  0.83857700  1
  La  La5_4  1  0.50000000  0.41142300  0.33857700  1
  La  La5_5  1  0.50000000  0.41142300  0.83857700  1
  La  La5_6  1  0.50000000  0.91142300  0.33857700  1
  La  La5_7  1  0.50000000  0.91142300  0.83857700  1
  La  La6_0  1  0.25000000  0.27893400  0.35274050  1
  La  La6_1  1  0.25000000  0.27893400  0.85274050  1
  La  La6_2  1  0.25000000  0.77893400  0.35274050  1
  La  La6_3  1  0.25000000  0.77893400  0.85274050  1
  La  La6_4  1  0.75000000  0.27893400  0.35274050  1
  La  La6_5  1  0.75000000  0.27893400  0.85274050  1
  La  La6_6  1  0.75000000  0.77893400  0.35274050  1
  La  La6_7  1  0.75000000  0.77893400  0.85274050  1
  La  La7_0  1  0.25000000  0.22106600  0.14725950  1
  La  La7_1  1  0.25000000  0.22106600  0.64725950  1
  La  La7_2  1  0.25000000  0.72106600  0.14725950  1
  La  La7_3  1  0.25000000  0.72106600  0.64725950  1
  La  La7_4  1  0.75000000  0.22106600  0.14725950  1
  La  La7_5  1  0.75000000  0.22106600  0.64725950  1
  La  La7_6  1  0.75000000  0.72106600  0.14725950  1
  La  La7_7  1  0.75000000  0.72106600  0.64725950  1
  La  La8_0  1  0.25000000  0.47106600  0.10274050  1
  La  La8_1  1  0.25000000  0.47106600  0.60274050  1
  La  La8_2  1  0.25000000  0.97106600  0.10274050  1
  La  La8_3  1  0.25000000  0.97106600  0.60274050  1
  La  La8_4  1  0.75000000  0.47106600  0.10274050  1
  La  La8_5  1  0.75000000  0.47106600  0.60274050  1
  La  La8_6  1  0.75000000  0.97106600  0.10274050  1
  La  La8_7  1  0.75000000  0.97106600  0.60274050  1
  La  La9_0  1  0.25000000  0.02893400  0.39725950  1
  La  La9_1  1  0.25000000  0.02893400  0.89725950  1
  La  La9_2  1  0.25000000  0.52893400  0.39725950  1
  La  La9_3  1  0.25000000  0.52893400  0.89725950  1
  La  La9_4  1  0.75000000  0.02893400  0.39725950  1
  La  La9_5  1  0.75000000  0.02893400  0.89725950  1
  La  La9_6  1  0.75000000  0.52893400  0.39725950  1
  La  La9_7  1  0.75000000  0.52893400  0.89725950  1
  La  La10_0  1  0.25000000  0.35274050  0.22106600  1
  La  La10_1  1  0.25000000  0.35274050  0.72106600  1
  La  La10_2  1  0.25000000  0.85274050  0.22106600  1
  La  La10_3  1  0.25000000  0.85274050  0.72106600  1
  La  La10_4  1  0.75000000  0.35274050  0.22106600  1
  La  La10_5  1  0.75000000  0.35274050  0.72106600  1
  La  La10_6  1  0.75000000  0.85274050  0.22106600  1
  La  La10_7  1  0.75000000  0.85274050  0.72106600  1
  La  La11_0  1  0.25000000  0.14725950  0.27893400  1
  La  La11_1  1  0.25000000  0.14725950  0.77893400  1
  La  La11_2  1  0.25000000  0.64725950  0.27893400  1
  La  La11_3  1  0.25000000  0.64725950  0.77893400  1
  La  La11_4  1  0.75000000  0.14725950  0.27893400  1
  La  La11_5  1  0.75000000  0.14725950  0.77893400  1
  La  La11_6  1  0.75000000  0.64725950  0.27893400  1
  La  La11_7  1  0.75000000  0.64725950  0.77893400  1
  La  La12_0  1  0.25000000  0.10274050  0.02893400  1
  La  La12_1  1  0.25000000  0.10274050  0.52893400  1
  La  La12_2  1  0.25000000  0.60274050  0.02893400  1
  La  La12_3  1  0.25000000  0.60274050  0.52893400  1
  La  La12_4  1  0.75000000  0.10274050  0.02893400  1
  La  La12_5  1  0.75000000  0.10274050  0.52893400  1
  La  La12_6  1  0.75000000  0.60274050  0.02893400  1
  La  La12_7  1  0.75000000  0.60274050  0.52893400  1
  La  La13_0  1  0.25000000  0.39725950  0.47106600  1
  La  La13_1  1  0.25000000  0.39725950  0.97106600  1
  La  La13_2  1  0.25000000  0.89725950  0.47106600  1
  La  La13_3  1  0.25000000  0.89725950  0.97106600  1
  La  La13_4  1  0.75000000  0.39725950  0.47106600  1
  La  La13_5  1  0.75000000  0.39725950  0.97106600  1
  La  La13_6  1  0.75000000  0.89725950  0.47106600  1
  La  La13_7  1  0.75000000  0.89725950  0.97106600  1
  Zn  Zn0_0  1  0.00000000  0.25000000  0.25000000  1
  Zn  Zn0_1  1  0.00000000  0.25000000  0.75000000  1
  Zn  Zn0_2  1  0.00000000  0.75000000  0.25000000  1
  Zn  Zn0_3  1  0.00000000  0.75000000  0.75000000  1
  Zn  Zn0_4  1  0.50000000  0.25000000  0.25000000  1
  Zn  Zn0_5  1  0.50000000  0.25000000  0.75000000  1
  Zn  Zn0_6  1  0.50000000  0.75000000  0.25000000  1
  Zn  Zn0_7  1  0.50000000  0.75000000  0.75000000  1
  Zn  Zn1_0  1  0.00000000  0.00000000  0.00000000  1
  Zn  Zn1_1  1  0.00000000  0.00000000  0.50000000  1
  Zn  Zn1_2  1  0.00000000  0.50000000  0.00000000  1
  Zn  Zn1_3  1  0.00000000  0.50000000  0.50000000  1
  Zn  Zn1_4  1  0.50000000  0.00000000  0.00000000  1
  Zn  Zn1_5  1  0.50000000  0.00000000  0.50000000  1
  Zn  Zn1_6  1  0.50000000  0.50000000  0.00000000  1
  Zn  Zn1_7  1  0.50000000  0.50000000  0.50000000  1
  Ni  Ni0_0  1  0.00000000  0.06452200  0.31452200  1
  Ni  Ni0_1  1  0.00000000  0.06452200  0.81452200  1
  Ni  Ni0_2  1  0.00000000  0.56452200  0.31452200  1
  Ni  Ni0_3  1  0.00000000  0.56452200  0.81452200  1
  Ni  Ni0_4  1  0.50000000  0.06452200  0.31452200  1
  Ni  Ni0_5  1  0.50000000  0.06452200  0.81452200  1
  Ni  Ni0_6  1  0.50000000  0.56452200  0.31452200  1
  Ni  Ni0_7  1  0.50000000  0.56452200  0.81452200  1
  Ni  Ni1_0  1  0.00000000  0.43547800  0.18547800  1
  Ni  Ni1_1  1  0.00000000  0.43547800  0.68547800  1
  Ni  Ni1_2  1  0.00000000  0.93547800  0.18547800  1
  Ni  Ni1_3  1  0.00000000  0.93547800  0.68547800  1
  Ni  Ni1_4  1  0.50000000  0.43547800  0.18547800  1
  Ni  Ni1_5  1  0.50000000  0.43547800  0.68547800  1
  Ni  Ni1_6  1  0.50000000  0.93547800  0.18547800  1
  Ni  Ni1_7  1  0.50000000  0.93547800  0.68547800  1
  Ni  Ni2_0  1  0.00000000  0.18547800  0.06452200  1
  Ni  Ni2_1  1  0.00000000  0.18547800  0.56452200  1
  Ni  Ni2_2  1  0.00000000  0.68547800  0.06452200  1
  Ni  Ni2_3  1  0.00000000  0.68547800  0.56452200  1
  Ni  Ni2_4  1  0.50000000  0.18547800  0.06452200  1
  Ni  Ni2_5  1  0.50000000  0.18547800  0.56452200  1
  Ni  Ni2_6  1  0.50000000  0.68547800  0.06452200  1
  Ni  Ni2_7  1  0.50000000  0.68547800  0.56452200  1
  Ni  Ni3_0  1  0.00000000  0.31452200  0.43547800  1
  Ni  Ni3_1  1  0.00000000  0.31452200  0.93547800  1
  Ni  Ni3_2  1  0.00000000  0.81452200  0.43547800  1
  Ni  Ni3_3  1  0.00000000  0.81452200  0.93547800  1
  Ni  Ni3_4  1  0.50000000  0.31452200  0.43547800  1
  Ni  Ni3_5  1  0.50000000  0.31452200  0.93547800  1
  Ni  Ni3_6  1  0.50000000  0.81452200  0.43547800  1
  Ni  Ni3_7  1  0.50000000  0.81452200  0.93547800  1
loop_
_geom_bond_atom_site_label_1
_geom_bond_atom_site_label_2
_geom_bond_distance
_geom_bond_site_symmetry_2
La0_0 Ni0_4 2.959311 1_555
La0_0 Ni0_0 2.959311 1_555
La0_0 Ni1_6 2.959311 1_545
La0_0 Ni1_2 2.959311 1_545
La0_0 La5_2 3.645402 1_545
La0_0 La5_6 3.645402 1_545
La0_0 La4_0 3.645402 1_555
La0_0 La4_4 3.645402 1_555
La0_1 Ni0_1 2.959311 1_555
La0_1 Ni0_5 2.959311 1_555
La0_1 Ni1_7 2.959311 1_545
La0_1 Ni1_3 2.959311 1_545
La0_1 La5_3 3.645402 1_545
La0_1 La5_7 3.645402 1_545
La0_1 La4_1 3.645402 1_555
La0_1 La4_5 3.645402 1_555
La0_2 Ni0_2 2.959311 1_555
La0_2 Ni0_6 2.959311 1_555
La0_2 Ni1_4 2.959311 1_555
La0_2 Ni1_0 2.959311 1_555
La0_2 La5_0 3.645402 1_555
La0_2 La5_4 3.645402 1_555
La0_2 La4_2 3.645402 1_555
La0_2 La4_6 3.645402 1_555
La0_3 Ni0_3 2.959311 1_555
La0_3 Ni0_7 2.959311 1_555
La0_3 Ni1_5 2.959311 1_555
La0_3 Ni1_1 2.959311 1_555
La0_3 La5_1 3.645402 1_555
La0_3 La5_5 3.645402 1_555
La0_3 La4_7 3.645402 1_555
La0_3 La4_3 3.645402 1_555
La0_4 Ni0_4 2.959311 1_555
La0_4 Ni0_0 2.959311 1_655
La0_4 Ni1_2 2.959311 1_645
La0_4 Ni1_6 2.959311 1_545
La0_4 La5_2 3.645402 1_645
La0_4 La5_6 3.645402 1_545
La0_4 La4_0 3.645402 1_655
La0_4 La4_4 3.645402 1_555
La0_5 Ni0_1 2.959311 1_655
La0_5 Ni0_5 2.959311 1_555
La0_5 Ni1_3 2.959311 1_645
La0_5 Ni1_7 2.959311 1_545
La0_5 La5_3 3.645402 1_645
La0_5 La5_7 3.645402 1_545
La0_5 La4_5 3.645402 1_555
La0_5 La4_1 3.645402 1_655
La0_6 Ni0_2 2.959311 1_655
La0_6 Ni0_6 2.959311 1_555
La0_6 Ni1_0 2.959311 1_655
La0_6 Ni1_4 2.959311 1_555
La0_6 La5_0 3.645402 1_655
La0_6 La5_4 3.645402 1_555
La0_6 La4_2 3.645402 1_655
La0_6 La4_6 3.645402 1_555
La0_7 Ni0_7 2.959311 1_555
La0_7 Ni0_3 2.959311 1_655
La0_7 Ni1_1 2.959311 1_655
La0_7 Ni1_5 2.959311 1_555
La0_7 La5_1 3.645402 1_655
La0_7 La5_5 3.645402 1_555
La0_7 La4_7 3.645402 1_555
La0_7 La4_3 3.645402 1_655
La1_0 Ni3_1 2.959311 1_554
La1_0 Ni3_5 2.959311 1_554
La1_0 Ni2_4 2.959311 1_555
La1_0 Ni2_0 2.959311 1_555
La1_0 La3_4 3.645402 1_555
La1_0 La3_0 3.645402 1_555
La1_0 La2_5 3.645402 1_554
La1_0 La2_1 3.645402 1_554
La1_1 Ni3_0 2.959311 1_555
La1_1 Ni3_4 2.959311 1_555
La1_1 Ni2_1 2.959311 1_555
La1_1 Ni2_5 2.959311 1_555
La1_1 La3_1 3.645402 1_555
La1_1 La3_5 3.645402 1_555
La1_1 La2_0 3.645402 1_555
La1_1 La2_4 3.645402 1_555
La1_2 Ni3_7 2.959311 1_554
La1_2 Ni3_3 2.959311 1_554
La1_2 Ni2_6 2.959311 1_555
La1_2 Ni2_2 2.959311 1_555
La1_2 La3_2 3.645402 1_555
La1_2 La3_6 3.645402 1_555
La1_2 La2_7 3.645402 1_554
La1_2 La2_3 3.645402 1_554
La1_3 Ni3_6 2.959311 1_555
La1_3 Ni3_2 2.959311 1_555
La1_3 Ni2_3 2.959311 1_555
La1_3 Ni2_7 2.959311 1_555
La1_3 La3_7 3.645402 1_555
La1_3 La3_3 3.645402 1_555
La1_3 La2_2 3.645402 1_555
La1_3 La2_6 3.645402 1_555
La1_4 Ni3_1 2.959311 1_654
La1_4 Ni3_5 2.959311 1_554
La1_4 Ni2_4 2.959311 1_555
La1_4 Ni2_0 2.959311 1_655
La1_4 La3_4 3.645402 1_555
La1_4 La3_0 3.645402 1_655
La1_4 La2_1 3.645402 1_654
La1_4 La2_5 3.645402 1_554
La1_5 Ni3_0 2.959311 1_655
La1_5 Ni3_4 2.959311 1_555
La1_5 Ni2_1 2.959311 1_655
La1_5 Ni2_5 2.959311 1_555
La1_5 La3_5 3.645402 1_555
La1_5 La3_1 3.645402 1_655
La1_5 La2_0 3.645402 1_655
La1_5 La2_4 3.645402 1_555
La1_6 Ni3_3 2.959311 1_654
La1_6 Ni3_7 2.959311 1_554
La1_6 Ni2_6 2.959311 1_555
La1_6 Ni2_2 2.959311 1_655
La1_6 La3_6 3.645402 1_555
La1_6 La3_2 3.645402 1_655
La1_6 La2_3 3.645402 1_654
La1_6 La2_7 3.645402 1_554
La1_7 Ni3_6 2.959311 1_555
La1_7 Ni3_2 2.959311 1_655
La1_7 Ni2_3 2.959311 1_655
La1_7 Ni2_7 2.959311 1_555
La1_7 La3_3 3.645402 1_655
La1_7 La3_7 3.645402 1_555
La1_7 La2_2 3.645402 1_655
La1_7 La2_6 3.645402 1_555
La2_0 Ni0_0 3.399049 1_555
La2_0 La6_0 3.774802 1_555
La2_0 La6_4 3.774802 1_455
La2_0 La2_4 3.813196 1_555
La2_0 La2_4 3.813196 1_455
La2_0 La9_0 3.815448 1_555
La2_0 La9_4 3.815448 1_455
La2_0 Ni3_0 3.843989 1_555
La2_0 Ni2_1 3.843989 1_555
La2_1 Ni0_1 3.399049 1_555
La2_1 La6_1 3.774802 1_555
La2_1 La6_5 3.774802 1_455
La2_1 La2_5 3.813196 1_555
La2_1 La2_5 3.813196 1_455
La2_1 La9_5 3.815448 1_455
La2_1 La9_1 3.815448 1_555
La2_1 Ni3_1 3.843989 1_555
La2_1 Ni2_0 3.843989 1_556
La2_2 Ni0_2 3.399049 1_555
La2_2 La6_2 3.774802 1_555
La2_2 La6_6 3.774802 1_455
La2_2 La2_6 3.813196 1_555
La2_2 La2_6 3.813196 1_455
La2_2 La9_2 3.815448 1_555
La2_2 La9_6 3.815448 1_455
La2_2 Ni3_2 3.843989 1_555
La2_2 Ni2_3 3.843989 1_555
La2_3 Ni0_3 3.399049 1_555
La2_3 La6_3 3.774802 1_555
La2_3 La6_7 3.774802 1_455
La2_3 La2_7 3.813196 1_555
La2_3 La2_7 3.813196 1_455
La2_3 La9_3 3.815448 1_555
La2_3 La9_7 3.815448 1_455
La2_3 Ni3_3 3.843989 1_555
La2_3 Ni2_2 3.843989 1_556
La2_4 Ni0_4 3.399049 1_555
La2_4 La6_0 3.774802 1_555
La2_4 La6_4 3.774802 1_555
La2_4 La9_0 3.815448 1_555
La2_4 La9_4 3.815448 1_555
La2_4 Ni3_4 3.843989 1_555
La2_4 Ni2_5 3.843989 1_555
La2_5 Ni0_5 3.399049 1_555
La2_5 La6_1 3.774802 1_555
La2_5 La6_5 3.774802 1_555
La2_5 La9_1 3.815448 1_555
La2_5 La9_5 3.815448 1_555
La2_5 Ni3_5 3.843989 1_555
La2_5 Ni2_4 3.843989 1_556
La2_6 Ni0_6 3.399049 1_555
La2_6 La6_2 3.774802 1_555
La2_6 La6_6 3.774802 1_555
La2_6 La9_2 3.815448 1_555
La2_6 La9_6 3.815448 1_555
La2_6 Ni3_6 3.843989 1_555
La2_6 Ni2_7 3.843989 1_555
La2_7 Ni0_7 3.399049 1_555
La2_7 La6_3 3.774802 1_555
La2_7 La6_7 3.774802 1_555
La2_7 La9_3 3.815448 1_555
La2_7 La9_7 3.815448 1_555
La2_7 Ni3_7 3.843989 1_555
La2_7 Ni2_6 3.843989 1_556
La3_0 Ni1_0 3.399049 1_555
La3_0 La7_0 3.774802 1_555
La3_0 La7_4 3.774802 1_455
La3_0 La3_4 3.813196 1_555
La3_0 La3_4 3.813196 1_455
La3_0 La8_0 3.815448 1_555
La3_0 La8_4 3.815448 1_455
La3_0 Ni2_0 3.843989 1_555
La3_0 Ni3_1 3.843989 1_554
La3_1 Ni1_1 3.399049 1_555
La3_1 La7_1 3.774802 1_555
La3_1 La7_5 3.774802 1_455
La3_1 La3_5 3.813196 1_555
La3_1 La3_5 3.813196 1_455
La3_1 La8_1 3.815448 1_555
La3_1 La8_5 3.815448 1_455
La3_1 Ni2_1 3.843989 1_555
La3_1 Ni3_0 3.843989 1_555
La3_2 Ni1_2 3.399049 1_555
La3_2 La7_2 3.774802 1_555
La3_2 La7_6 3.774802 1_455
La3_2 La3_6 3.813196 1_555
La3_2 La3_6 3.813196 1_455
La3_2 La8_2 3.815448 1_555
La3_2 La8_6 3.815448 1_455
La3_2 Ni2_2 3.843989 1_555
La3_2 Ni3_3 3.843989 1_554
La3_3 Ni1_3 3.399049 1_555
La3_3 La7_3 3.774802 1_555
La3_3 La7_7 3.774802 1_455
La3_3 La3_7 3.813196 1_555
La3_3 La3_7 3.813196 1_455
La3_3 La8_3 3.815448 1_555
La3_3 La8_7 3.815448 1_455
La3_3 Ni2_3 3.843989 1_555
La3_3 Ni3_2 3.843989 1_555
La3_4 Ni1_4 3.399049 1_555
La3_4 La7_0 3.774802 1_555
La3_4 La7_4 3.774802 1_555
La3_4 La8_0 3.815448 1_555
La3_4 La8_4 3.815448 1_555
La3_4 Ni2_4 3.843989 1_555
La3_4 Ni3_5 3.843989 1_554
La3_5 Ni1_5 3.399049 1_555
La3_5 La7_1 3.774802 1_555
La3_5 La7_5 3.774802 1_555
La3_5 La8_1 3.815448 1_555
La3_5 La8_5 3.815448 1_555
La3_5 Ni2_5 3.843989 1_555
La3_5 Ni3_4 3.843989 1_555
La3_6 Ni1_6 3.399049 1_555
La3_6 La7_2 3.774802 1_555
La3_6 La7_6 3.774802 1_555
La3_6 La8_2 3.815448 1_555
La3_6 La8_6 3.815448 1_555
La3_6 Ni2_6 3.843989 1_555
La3_6 Ni3_7 3.843989 1_554
La3_7 Ni1_7 3.399049 1_555
La3_7 La7_3 3.774802 1_555
La3_7 La7_7 3.774802 1_555
La3_7 La8_3 3.815448 1_555
La3_7 La8_7 3.815448 1_555
La3_7 Ni2_7 3.843989 1_555
La3_7 Ni3_6 3.843989 1_555
La4_0 Ni2_0 3.399049 1_555
La4_0 La8_2 3.774802 1_545
La4_0 La8_6 3.774802 1_445
La4_0 La4_4 3.813196 1_555
La4_0 La4_4 3.813196 1_455
La4_0 La7_0 3.815448 1_555
La4_0 La7_4 3.815448 1_455
La4_0 Ni1_2 3.843989 1_545
La4_0 Ni0_0 3.843989 1_555
La4_1 Ni2_1 3.399049 1_555
La4_1 La8_3 3.774802 1_545
La4_1 La8_7 3.774802 1_445
La4_1 La4_5 3.813196 1_555
La4_1 La4_5 3.813196 1_455
La4_1 La7_5 3.815448 1_455
La4_1 La7_1 3.815448 1_555
La4_1 Ni1_3 3.843989 1_545
La4_1 Ni0_1 3.843989 1_555
La4_2 Ni2_2 3.399049 1_555
La4_2 La8_0 3.774802 1_555
La4_2 La8_4 3.774802 1_455
La4_2 La4_6 3.813196 1_555
La4_2 La4_6 3.813196 1_455
La4_2 La7_2 3.815448 1_555
La4_2 La7_6 3.815448 1_455
La4_2 Ni1_0 3.843989 1_555
La4_2 Ni0_2 3.843989 1_555
La4_3 Ni2_3 3.399049 1_555
La4_3 La8_1 3.774802 1_555
La4_3 La8_5 3.774802 1_455
La4_3 La4_7 3.813196 1_555
La4_3 La4_7 3.813196 1_455
La4_3 La7_3 3.815448 1_555
La4_3 La7_7 3.815448 1_455
La4_3 Ni1_1 3.843989 1_555
La4_3 Ni0_3 3.843989 1_555
La4_4 Ni2_4 3.399049 1_555
La4_4 La8_2 3.774802 1_545
La4_4 La8_6 3.774802 1_545
La4_4 La7_0 3.815448 1_555
La4_4 La7_4 3.815448 1_555
La4_4 Ni1_6 3.843989 1_545
La4_4 Ni0_4 3.843989 1_555
La4_5 Ni2_5 3.399049 1_555
La4_5 La8_3 3.774802 1_545
La4_5 La8_7 3.774802 1_545
La4_5 La7_1 3.815448 1_555
La4_5 La7_5 3.815448 1_555
La4_5 Ni1_7 3.843989 1_545
La4_5 Ni0_5 3.843989 1_555
La4_6 Ni2_6 3.399049 1_555
La4_6 La8_0 3.774802 1_555
La4_6 La8_4 3.774802 1_555
La4_6 La7_2 3.815448 1_555
La4_6 La7_6 3.815448 1_555
La4_6 Ni1_4 3.843989 1_555
La4_6 Ni0_6 3.843989 1_555
La4_7 Ni2_7 3.399049 1_555
La4_7 La8_1 3.774802 1_555
La4_7 La8_5 3.774802 1_555
La4_7 La7_3 3.815448 1_555
La4_7 La7_7 3.815448 1_555
La4_7 Ni1_5 3.843989 1_555
La4_7 Ni0_7 3.843989 1_555
La5_0 Ni3_0 3.399049 1_555
La5_0 La9_2 3.774802 1_555
La5_0 La9_6 3.774802 1_455
La5_0 La5_4 3.813196 1_555
La5_0 La5_4 3.813196 1_455
La5_0 La6_4 3.815448 1_455
La5_0 La6_0 3.815448 1_555
La5_0 Ni1_0 3.843989 1_555
La5_0 Ni0_2 3.843989 1_555
La5_1 Ni3_1 3.399049 1_555
La5_1 La9_3 3.774802 1_555
La5_1 La9_7 3.774802 1_455
La5_1 La5_5 3.813196 1_555
La5_1 La5_5 3.813196 1_455
La5_1 La6_5 3.815448 1_455
La5_1 La6_1 3.815448 1_555
La5_1 Ni1_1 3.843989 1_555
La5_1 Ni0_3 3.843989 1_555
La5_2 Ni3_2 3.399049 1_555
La5_2 La9_0 3.774802 1_565
La5_2 La9_4 3.774802 1_465
La5_2 La5_6 3.813196 1_555
La5_2 La5_6 3.813196 1_455
La5_2 La6_2 3.815448 1_555
La5_2 La6_6 3.815448 1_455
La5_2 Ni1_2 3.843989 1_555
La5_2 Ni0_0 3.843989 1_565
La5_3 Ni3_3 3.399049 1_555
La5_3 La9_1 3.774802 1_565
La5_3 La9_5 3.774802 1_465
La5_3 La5_7 3.813196 1_555
La5_3 La5_7 3.813196 1_455
La5_3 La6_3 3.815448 1_555
La5_3 La6_7 3.815448 1_455
La5_3 Ni1_3 3.843989 1_555
La5_3 Ni0_1 3.843989 1_565
La5_4 Ni3_4 3.399049 1_555
La5_4 La9_2 3.774802 1_555
La5_4 La9_6 3.774802 1_555
La5_4 La6_0 3.815448 1_555
La5_4 La6_4 3.815448 1_555
La5_4 Ni1_4 3.843989 1_555
La5_4 Ni0_6 3.843989 1_555
La5_5 Ni3_5 3.399049 1_555
La5_5 La9_3 3.774802 1_555
La5_5 La9_7 3.774802 1_555
La5_5 La6_1 3.815448 1_555
La5_5 La6_5 3.815448 1_555
La5_5 Ni1_5 3.843989 1_555
La5_5 Ni0_7 3.843989 1_555
La5_6 Ni3_6 3.399049 1_555
La5_6 La9_0 3.774802 1_565
La5_6 La9_4 3.774802 1_565
La5_6 La6_2 3.815448 1_555
La5_6 La6_6 3.815448 1_555
La5_6 Ni1_6 3.843989 1_555
La5_6 Ni0_4 3.843989 1_565
La5_7 Ni3_7 3.399049 1_555
La5_7 La9_1 3.774802 1_565
La5_7 La9_5 3.774802 1_565
La5_7 La6_3 3.815448 1_555
La5_7 La6_7 3.815448 1_555
La5_7 Ni1_7 3.843989 1_555
La5_7 Ni0_5 3.843989 1_565
La6_0 Ni3_0 2.936964 1_555
La6_0 Ni3_4 2.936964 1_555
La6_0 Zn0_0 3.262538 1_555
La6_0 Zn0_4 3.262538 1_555
La6_1 Ni3_1 2.936964 1_555
La6_1 Ni3_5 2.936964 1_555
La6_1 Zn0_5 3.262538 1_555
La6_1 Zn0_1 3.262538 1_555
La6_2 Ni3_2 2.936964 1_555
La6_2 Ni3_6 2.936964 1_555
La6_2 Zn0_6 3.262538 1_555
La6_2 Zn0_2 3.262538 1_555
La6_3 Ni3_7 2.936964 1_555
La6_3 Ni3_3 2.936964 1_555
La6_3 Zn0_7 3.262538 1_555
La6_3 Zn0_3 3.262538 1_555
La6_4 Ni3_0 2.936964 1_655
La6_4 Ni3_4 2.936964 1_555
La6_4 Zn0_0 3.262538 1_655
La6_4 Zn0_4 3.262538 1_555
La6_5 Ni3_1 2.936964 1_655
La6_5 Ni3_5 2.936964 1_555
La6_5 Zn0_1 3.262538 1_655
La6_5 Zn0_5 3.262538 1_555
La6_6 Ni3_2 2.936964 1_655
La6_6 Ni3_6 2.936964 1_555
La6_6 Zn0_2 3.262538 1_655
La6_6 Zn0_6 3.262538 1_555
La6_7 Ni3_3 2.936964 1_655
La6_7 Ni3_7 2.936964 1_555
La6_7 Zn0_3 3.262538 1_655
La6_7 Zn0_7 3.262538 1_555
La7_0 Ni2_0 2.936964 1_555
La7_0 Ni2_4 2.936964 1_555
La7_0 Zn0_0 3.262538 1_555
La7_0 Zn0_4 3.262538 1_555
La7_1 Ni2_1 2.936964 1_555
La7_1 Ni2_5 2.936964 1_555
La7_1 Zn0_5 3.262538 1_555
La7_1 Zn0_1 3.262538 1_555
La7_2 Ni2_2 2.936964 1_555
La7_2 Ni2_6 2.936964 1_555
La7_2 Zn0_2 3.262538 1_555
La7_2 Zn0_6 3.262538 1_555
La7_3 Ni2_3 2.936964 1_555
La7_3 Ni2_7 2.936964 1_555
La7_3 Zn0_7 3.262538 1_555
La7_3 Zn0_3 3.262538 1_555
La7_4 Ni2_0 2.936964 1_655
La7_4 Ni2_4 2.936964 1_555
La7_4 Zn0_0 3.262538 1_655
La7_4 Zn0_4 3.262538 1_555
La7_5 Ni2_1 2.936964 1_655
La7_5 Ni2_5 2.936964 1_555
La7_5 Zn0_1 3.262538 1_655
La7_5 Zn0_5 3.262538 1_555
La7_6 Ni2_2 2.936964 1_655
La7_6 Ni2_6 2.936964 1_555
La7_6 Zn0_2 3.262538 1_655
La7_6 Zn0_6 3.262538 1_555
La7_7 Ni2_7 2.936964 1_555
La7_7 Ni2_3 2.936964 1_655
La7_7 Zn0_3 3.262538 1_655
La7_7 Zn0_7 3.262538 1_555
La8_0 Ni1_0 2.936964 1_555
La8_0 Ni1_4 2.936964 1_555
La8_0 Zn1_6 3.262538 1_555
La8_0 Zn1_2 3.262538 1_555
La8_1 Ni1_1 2.936964 1_555
La8_1 Ni1_5 2.936964 1_555
La8_1 Zn1_3 3.262538 1_555
La8_1 Zn1_7 3.262538 1_555
La8_2 Ni1_6 2.936964 1_555
La8_2 Ni1_2 2.936964 1_555
La8_2 Zn1_0 3.262538 1_565
La8_2 Zn1_4 3.262538 1_565
La8_3 Ni1_3 2.936964 1_555
La8_3 Ni1_7 2.936964 1_555
La8_3 Zn1_1 3.262538 1_565
La8_3 Zn1_5 3.262538 1_565
La8_4 Ni1_0 2.936964 1_655
La8_4 Ni1_4 2.936964 1_555
La8_4 Zn1_2 3.262538 1_655
La8_4 Zn1_6 3.262538 1_555
La8_5 Ni1_1 2.936964 1_655
La8_5 Ni1_5 2.936964 1_555
La8_5 Zn1_3 3.262538 1_655
La8_5 Zn1_7 3.262538 1_555
La8_6 Ni1_2 2.936964 1_655
La8_6 Ni1_6 2.936964 1_555
La8_6 Zn1_0 3.262538 1_665
La8_6 Zn1_4 3.262538 1_565
La8_7 Ni1_3 2.936964 1_655
La8_7 Ni1_7 2.936964 1_555
La8_7 Zn1_1 3.262538 1_665
La8_7 Zn1_5 3.262538 1_565
La9_0 Ni0_0 2.936964 1_555
La9_0 Ni0_4 2.936964 1_555
La9_0 Zn1_1 3.262538 1_555
La9_0 Zn1_5 3.262538 1_555
La9_1 Ni0_1 2.936964 1_555
La9_1 Ni0_5 2.936964 1_555
La9_1 Zn1_0 3.262538 1_556
La9_1 Zn1_4 3.262538 1_556
La9_2 Ni0_2 2.936964 1_555
La9_2 Ni0_6 2.936964 1_555
La9_2 Zn1_7 3.262538 1_555
La9_2 Zn1_3 3.262538 1_555
La9_3 Ni0_7 2.936964 1_555
La9_3 Ni0_3 2.936964 1_555
La9_3 Zn1_2 3.262538 1_556
La9_3 Zn1_6 3.262538 1_556
La9_4 Ni0_4 2.936964 1_555
La9_4 Ni0_0 2.936964 1_655
La9_4 Zn1_1 3.262538 1_655
La9_4 Zn1_5 3.262538 1_555
La9_5 Ni0_1 2.936964 1_655
La9_5 Ni0_5 2.936964 1_555
La9_5 Zn1_0 3.262538 1_656
La9_5 Zn1_4 3.262538 1_556
La9_6 Ni0_2 2.936964 1_655
La9_6 Ni0_6 2.936964 1_555
La9_6 Zn1_3 3.262538 1_655
La9_6 Zn1_7 3.262538 1_555
La9_7 Ni0_3 2.936964 1_655
La9_7 Ni0_7 2.936964 1_555
La9_7 Zn1_2 3.262538 1_656
La9_7 Zn1_6 3.262538 1_556
La10_0 Ni1_0 2.936964 1_555
La10_0 Ni1_4 2.936964 1_555
La10_0 Zn0_0 3.262538 1_555
La10_0 Zn0_4 3.262538 1_555
La10_0 La5_0 3.774802 1_555
La10_0 La5_4 3.774802 1_555
La10_0 La3_0 3.815448 1_555
La10_0 La3_4 3.815448 1_555
La10_1 Ni1_5 2.936964 1_555
La10_1 Ni1_1 2.936964 1_555
La10_1 Zn0_5 3.262538 1_555
La10_1 Zn0_1 3.262538 1_555
La10_1 La5_5 3.774802 1_555
La10_1 La5_1 3.774802 1_555
La10_1 La3_1 3.815448 1_555
La10_1 La3_5 3.815448 1_555
La10_2 Ni1_2 2.936964 1_555
La10_2 Ni1_6 2.936964 1_555
La10_2 Zn0_2 3.262538 1_555
La10_2 Zn0_6 3.262538 1_555
La10_2 La5_6 3.774802 1_555
La10_2 La5_2 3.774802 1_555
La10_2 La3_2 3.815448 1_555
La10_2 La3_6 3.815448 1_555
La10_3 Ni1_3 2.936964 1_555
La10_3 Ni1_7 2.936964 1_555
La10_3 Zn0_3 3.262538 1_555
La10_3 Zn0_7 3.262538 1_555
La10_3 La5_3 3.774802 1_555
La10_3 La5_7 3.774802 1_555
La10_3 La3_3 3.815448 1_555
La10_3 La3_7 3.815448 1_555
La10_4 Ni1_0 2.936964 1_655
La10_4 Ni1_4 2.936964 1_555
La10_4 Zn0_4 3.262538 1_555
La10_4 Zn0_0 3.262538 1_655
La10_4 La5_0 3.774802 1_655
La10_4 La5_4 3.774802 1_555
La10_4 La3_0 3.815448 1_655
La10_4 La3_4 3.815448 1_555
La10_5 Ni1_1 2.936964 1_655
La10_5 Ni1_5 2.936964 1_555
La10_5 Zn0_1 3.262538 1_655
La10_5 Zn0_5 3.262538 1_555
La10_5 La5_1 3.774802 1_655
La10_5 La5_5 3.774802 1_555
La10_5 La3_1 3.815448 1_655
La10_5 La3_5 3.815448 1_555
La10_6 Ni1_2 2.936964 1_655
La10_6 Ni1_6 2.936964 1_555
La10_6 Zn0_6 3.262538 1_555
La10_6 Zn0_2 3.262538 1_655
La10_6 La5_2 3.774802 1_655
La10_6 La5_6 3.774802 1_555
La10_6 La3_6 3.815448 1_555
La10_6 La3_2 3.815448 1_655
La10_7 Ni1_7 2.936964 1_555
La10_7 Ni1_3 2.936964 1_655
La10_7 Zn0_3 3.262538 1_655
La10_7 Zn0_7 3.262538 1_555
La10_7 La5_3 3.774802 1_655
La10_7 La5_7 3.774802 1_555
La10_7 La3_3 3.815448 1_655
La10_7 La3_7 3.815448 1_555
La11_0 Ni0_0 2.936964 1_555
La11_0 Ni0_4 2.936964 1_555
La11_0 Zn0_4 3.262538 1_555
La11_0 Zn0_0 3.262538 1_555
La11_0 La4_4 3.774802 1_555
La11_0 La4_0 3.774802 1_555
La11_0 La2_4 3.815448 1_555
La11_0 La2_0 3.815448 1_555
La11_1 Ni0_5 2.936964 1_555
La11_1 Ni0_1 2.936964 1_555
La11_1 Zn0_1 3.262538 1_555
La11_1 Zn0_5 3.262538 1_555
La11_1 La4_5 3.774802 1_555
La11_1 La4_1 3.774802 1_555
La11_1 La2_1 3.815448 1_555
La11_1 La2_5 3.815448 1_555
La11_2 Ni0_2 2.936964 1_555
La11_2 Ni0_6 2.936964 1_555
La11_2 Zn0_2 3.262538 1_555
La11_2 Zn0_6 3.262538 1_555
La11_2 La4_2 3.774802 1_555
La11_2 La4_6 3.774802 1_555
La11_2 La2_2 3.815448 1_555
La11_2 La2_6 3.815448 1_555
La11_3 Ni0_3 2.936964 1_555
La11_3 Ni0_7 2.936964 1_555
La11_3 Zn0_7 3.262538 1_555
La11_3 Zn0_3 3.262538 1_555
La11_3 La4_3 3.774802 1_555
La11_3 La4_7 3.774802 1_555
La11_3 La2_3 3.815448 1_555
La11_3 La2_7 3.815448 1_555
La11_4 Ni0_0 2.936964 1_655
La11_4 Ni0_4 2.936964 1_555
La11_4 Zn0_0 3.262538 1_655
La11_4 Zn0_4 3.262538 1_555
La11_4 La4_0 3.774802 1_655
La11_4 La4_4 3.774802 1_555
La11_4 La2_0 3.815448 1_655
La11_4 La2_4 3.815448 1_555
La11_5 Ni0_1 2.936964 1_655
La11_5 Ni0_5 2.936964 1_555
La11_5 Zn0_1 3.262538 1_655
La11_5 Zn0_5 3.262538 1_555
La11_5 La4_5 3.774802 1_555
La11_5 La4_1 3.774802 1_655
La11_5 La2_1 3.815448 1_655
La11_5 La2_5 3.815448 1_555
La11_6 Ni0_2 2.936964 1_655
La11_6 Ni0_6 2.936964 1_555
La11_6 Zn0_2 3.262538 1_655
La11_6 Zn0_6 3.262538 1_555
La11_6 La4_2 3.774802 1_655
La11_6 La4_6 3.774802 1_555
La11_6 La2_2 3.815448 1_655
La11_6 La2_6 3.815448 1_555
La11_7 Ni0_3 2.936964 1_655
La11_7 Ni0_7 2.936964 1_555
La11_7 Zn0_3 3.262538 1_655
La11_7 Zn0_7 3.262538 1_555
La11_7 La4_3 3.774802 1_655
La11_7 La4_7 3.774802 1_555
La11_7 La2_3 3.815448 1_655
La11_7 La2_7 3.815448 1_555
La12_0 Ni2_0 2.936964 1_555
La12_0 Ni2_4 2.936964 1_555
La12_0 Zn1_4 3.262538 1_555
La12_0 Zn1_0 3.262538 1_555
La12_0 La2_5 3.774802 1_554
La12_0 La2_1 3.774802 1_554
La12_0 La4_4 3.815448 1_555
La12_0 La4_0 3.815448 1_555
La12_1 Ni2_1 2.936964 1_555
La12_1 Ni2_5 2.936964 1_555
La12_1 Zn1_5 3.262538 1_555
La12_1 Zn1_1 3.262538 1_555
La12_1 La2_4 3.774802 1_555
La12_1 La2_0 3.774802 1_555
La12_1 La4_1 3.815448 1_555
La12_1 La4_5 3.815448 1_555
La12_2 Ni2_6 2.936964 1_555
La12_2 Ni2_2 2.936964 1_555
La12_2 Zn1_6 3.262538 1_555
La12_2 Zn1_2 3.262538 1_555
La12_2 La2_3 3.774802 1_554
La12_2 La2_7 3.774802 1_554
La12_2 La4_2 3.815448 1_555
La12_2 La4_6 3.815448 1_555
La12_3 Ni2_3 2.936964 1_555
La12_3 Ni2_7 2.936964 1_555
La12_3 Zn1_7 3.262538 1_555
La12_3 Zn1_3 3.262538 1_555
La12_3 La2_2 3.774802 1_555
La12_3 La2_6 3.774802 1_555
La12_3 La4_3 3.815448 1_555
La12_3 La4_7 3.815448 1_555
La12_4 Ni2_0 2.936964 1_655
La12_4 Ni2_4 2.936964 1_555
La12_4 Zn1_0 3.262538 1_655
La12_4 Zn1_4 3.262538 1_555
La12_4 La2_5 3.774802 1_554
La12_4 La2_1 3.774802 1_654
La12_4 La4_0 3.815448 1_655
La12_4 La4_4 3.815448 1_555
La12_5 Ni2_1 2.936964 1_655
La12_5 Ni2_5 2.936964 1_555
La12_5 Zn1_1 3.262538 1_655
La12_5 Zn1_5 3.262538 1_555
La12_5 La2_0 3.774802 1_655
La12_5 La2_4 3.774802 1_555
La12_5 La4_1 3.815448 1_655
La12_5 La4_5 3.815448 1_555
La12_6 Ni2_6 2.936964 1_555
La12_6 Ni2_2 2.936964 1_655
La12_6 Zn1_2 3.262538 1_655
La12_6 Zn1_6 3.262538 1_555
La12_6 La2_3 3.774802 1_654
La12_6 La2_7 3.774802 1_554
La12_6 La4_2 3.815448 1_655
La12_6 La4_6 3.815448 1_555
La12_7 Ni2_3 2.936964 1_655
La12_7 Ni2_7 2.936964 1_555
La12_7 Zn1_3 3.262538 1_655
La12_7 Zn1_7 3.262538 1_555
La12_7 La2_6 3.774802 1_555
La12_7 La2_2 3.774802 1_655
La12_7 La4_7 3.815448 1_555
La12_7 La4_3 3.815448 1_655
La13_0 Ni3_4 2.936964 1_555
La13_0 Ni3_0 2.936964 1_555
La13_0 Zn1_3 3.262538 1_555
La13_0 Zn1_7 3.262538 1_555
La13_0 La3_1 3.774802 1_555
La13_0 La3_5 3.774802 1_555
La13_0 La5_0 3.815448 1_555
La13_0 La5_4 3.815448 1_555
La13_1 Ni3_5 2.936964 1_555
La13_1 Ni3_1 2.936964 1_555
La13_1 Zn1_2 3.262538 1_556
La13_1 Zn1_6 3.262538 1_556
La13_1 La3_4 3.774802 1_556
La13_1 La3_0 3.774802 1_556
La13_1 La5_1 3.815448 1_555
La13_1 La5_5 3.815448 1_555
La13_2 Ni3_2 2.936964 1_555
La13_2 Ni3_6 2.936964 1_555
La13_2 Zn1_1 3.262538 1_565
La13_2 Zn1_5 3.262538 1_565
La13_2 La3_3 3.774802 1_555
La13_2 La3_7 3.774802 1_555
La13_2 La5_2 3.815448 1_555
La13_2 La5_6 3.815448 1_555
La13_3 Ni3_7 2.936964 1_555
La13_3 Ni3_3 2.936964 1_555
La13_3 Zn1_4 3.262538 1_566
La13_3 Zn1_0 3.262538 1_566
La13_3 La3_6 3.774802 1_556
La13_3 La3_2 3.774802 1_556
La13_3 La5_3 3.815448 1_555
La13_3 La5_7 3.815448 1_555
La13_4 Ni3_4 2.936964 1_555
La13_4 Ni3_0 2.936964 1_655
La13_4 Zn1_3 3.262538 1_655
La13_4 Zn1_7 3.262538 1_555
La13_4 La3_1 3.774802 1_655
La13_4 La3_5 3.774802 1_555
La13_4 La5_0 3.815448 1_655
La13_4 La5_4 3.815448 1_555
La13_5 Ni3_1 2.936964 1_655
La13_5 Ni3_5 2.936964 1_555
La13_5 Zn1_2 3.262538 1_656
La13_5 Zn1_6 3.262538 1_556
La13_5 La3_0 3.774802 1_656
La13_5 La3_4 3.774802 1_556
La13_5 La5_1 3.815448 1_655
La13_5 La5_5 3.815448 1_555
La13_6 Ni3_2 2.936964 1_655
La13_6 Ni3_6 2.936964 1_555
La13_6 Zn1_1 3.262538 1_665
La13_6 Zn1_5 3.262538 1_565
La13_6 La3_3 3.774802 1_655
La13_6 La3_7 3.774802 1_555
La13_6 La5_2 3.815448 1_655
La13_6 La5_6 3.815448 1_555
La13_7 Ni3_3 2.936964 1_655
La13_7 Ni3_7 2.936964 1_555
La13_7 Zn1_0 3.262538 1_666
La13_7 Zn1_4 3.262538 1_566
La13_7 La3_6 3.774802 1_556
La13_7 La3_2 3.774802 1_656
La13_7 La5_3 3.815448 1_655
La13_7 La5_7 3.815448 1_555
