# generated using pymatgen
data_MgCrP2O7
_symmetry_space_group_name_H-M   'P 1'
_cell_length_a   8.43961600
_cell_length_b   7.07073600
_cell_length_c   9.39055099
_cell_angle_alpha   69.83281086
_cell_angle_beta   90.00000000
_cell_angle_gamma   90.00000000
_symmetry_Int_Tables_number   1
_chemical_formula_structural   MgCrP2O7
_chemical_formula_sum   'Mg4 Cr4 P8 O28'
_cell_volume   526.01830319
_cell_formula_units_Z   4
loop_
 _symmetry_equiv_pos_site_id
 _symmetry_equiv_pos_as_xyz
  1  'x, y, z'
loop_
 _atom_site_type_symbol
 _atom_site_label
 _atom_site_symmetry_multiplicity
 _atom_site_fract_x
 _atom_site_fract_y
 _atom_site_fract_z
 _atom_site_occupancy
  Mg  Mg0  1  0.93717500  0.30869300  0.81511300  1
  Mg  Mg1  1  0.43717500  0.69130700  0.68488700  1
  Mg  Mg2  1  0.56282500  0.30869300  0.31511300  1
  Mg  Mg3  1  0.06282500  0.69130700  0.18488700  1
  Cr  Cr0  1  0.06788500  0.76148500  0.60991600  1
  Cr  Cr1  1  0.93211500  0.23851500  0.39008400  1
  Cr  Cr2  1  0.56788500  0.23851500  0.89008400  1
  Cr  Cr3  1  0.43211500  0.76148500  0.10991600  1
  P  P0  1  0.73741700  0.93010700  0.24842100  1
  P  P1  1  0.22815900  0.46266300  0.97194100  1
  P  P2  1  0.76258300  0.93010700  0.74842100  1
  P  P3  1  0.27184100  0.46266300  0.47194100  1
  P  P4  1  0.23741700  0.06989300  0.25157900  1
  P  P5  1  0.72815900  0.53733700  0.52805900  1
  P  P6  1  0.77184100  0.53733700  0.02805900  1
  P  P7  1  0.26258300  0.06989300  0.75157900  1
  O  O0  1  0.18795400  0.24995900  0.09711000  1
  O  O1  1  0.60580400  0.87837400  0.69458900  1
  O  O2  1  0.89419600  0.87837400  0.19458900  1
  O  O3  1  0.38904600  0.45592600  0.89434500  1
  O  O4  1  0.81204600  0.75004100  0.90289000  1
  O  O5  1  0.10154100  0.04879700  0.36398600  1
  O  O6  1  0.61095400  0.54407400  0.10565500  1
  O  O7  1  0.09088000  0.49919100  0.86121500  1
  O  O8  1  0.26311100  0.61817800  0.55395900  1
  O  O9  1  0.89845900  0.95120300  0.63601400  1
  O  O10  1  0.39845900  0.04879700  0.86398600  1
  O  O11  1  0.75804100  0.11650100  0.79855400  1
  O  O12  1  0.25804100  0.88349900  0.70144600  1
  O  O13  1  0.31204600  0.24995900  0.59711000  1
  O  O14  1  0.60154100  0.95120300  0.13601400  1
  O  O15  1  0.10580400  0.12162600  0.80541100  1
  O  O16  1  0.24195900  0.88349900  0.20144600  1
  O  O17  1  0.90912000  0.50080900  0.13878500  1
  O  O18  1  0.23688900  0.61817800  0.05395900  1
  O  O19  1  0.76311100  0.38182200  0.94604100  1
  O  O20  1  0.88904600  0.54407400  0.60565500  1
  O  O21  1  0.40912000  0.49919100  0.36121500  1
  O  O22  1  0.59088000  0.50080900  0.63878500  1
  O  O23  1  0.39419600  0.12162600  0.30541100  1
  O  O24  1  0.74195900  0.11650100  0.29855400  1
  O  O25  1  0.11095400  0.45592600  0.39434500  1
  O  O26  1  0.73688900  0.38182200  0.44604100  1
  O  O27  1  0.68795400  0.75004100  0.40289000  1
loop_
_geom_bond_atom_site_label_1
_geom_bond_atom_site_label_2
_geom_bond_distance
_geom_bond_site_symmetry_2
Mg0 O15 1.966298 1_655
Mg0 O7 2.021525 1_655
Mg0 O11 2.074176 1_555
Mg0 O19 2.091750 1_555
Mg0 O20 2.132259 1_555
Mg1 O1 1.966298 1_555
Mg1 O22 2.021525 1_555
Mg1 O12 2.074176 1_555
Mg1 O8 2.091750 1_555
Mg1 O3 2.132259 1_555
Mg2 O23 1.966298 1_555
Mg2 O21 2.021525 1_555
Mg2 O24 2.074176 1_555
Mg2 O26 2.091750 1_555
Mg2 O6 2.132259 1_555
Mg3 O2 1.966298 1_455
Mg3 O17 2.021525 1_455
Mg3 O16 2.074176 1_555
Mg3 O18 2.091750 1_555
Mg3 O25 2.132259 1_555
Cr0 O9 2.032439 1_455
Cr0 O8 2.093965 1_555
Cr0 O12 2.137731 1_555
Cr0 O20 2.164545 1_455
Cr0 O7 2.455265 1_555
Cr0 O5 2.511206 1_565
Cr1 O5 2.032439 1_655
Cr1 O26 2.093965 1_555
Cr1 O24 2.137731 1_555
Cr1 O25 2.164545 1_655
Cr1 O17 2.455265 1_555
Cr1 O9 2.511206 1_545
Cr2 O10 2.032439 1_555
Cr2 O19 2.093965 1_555
Cr2 O11 2.137731 1_555
Cr2 O3 2.164545 1_555
Cr2 O22 2.455265 1_555
Cr2 O14 2.511206 1_546
Cr3 O14 2.032439 1_555
Cr3 O18 2.093965 1_555
Cr3 O16 2.137731 1_555
Cr3 O6 2.164545 1_555
Cr3 O21 2.455265 1_555
Cr3 O10 2.511206 1_564
O0 P1 1.593653 1_554
O0 P4 1.620481 1_555
O1 P2 1.505850 1_555
O2 P0 1.505850 1_555
O3 P1 1.549467 1_555
O4 P6 1.593653 1_556
O4 P2 1.620481 1_555
O5 P4 1.530658 1_555
O6 P6 1.549467 1_555
O7 P1 1.518218 1_555
O8 P3 1.546519 1_555
O9 P2 1.530658 1_555
O10 P7 1.530658 1_555
O11 P2 1.545280 1_545
O12 P7 1.545280 1_565
O13 P3 1.593653 1_555
O13 P7 1.620481 1_555
O14 P0 1.530658 1_555
O15 P7 1.505850 1_555
O16 P4 1.545280 1_565
O17 P6 1.518218 1_555
O18 P1 1.546519 1_554
O19 P6 1.546519 1_556
O20 P5 1.549467 1_555
O21 P3 1.518218 1_555
O22 P5 1.518218 1_555
O23 P4 1.505850 1_555
O24 P0 1.545280 1_545
O25 P3 1.549467 1_555
O26 P5 1.546519 1_555
O27 P5 1.593653 1_555
O27 P0 1.620481 1_555
