# generated using pymatgen
data_Cs2Pr10Co2I17
_symmetry_space_group_name_H-M   'P 1'
_cell_length_a   11.73117829
_cell_length_b   11.73117829
_cell_length_c   10.00613617
_cell_angle_alpha   86.89754476
_cell_angle_beta   86.89754476
_cell_angle_gamma   108.42210781
_symmetry_Int_Tables_number   1
_chemical_formula_structural   Cs2Pr10Co2I17
_chemical_formula_sum   'Cs2 Pr10 Co2 I17'
_cell_volume   1300.87479966
_cell_formula_units_Z   1
loop_
 _symmetry_equiv_pos_site_id
 _symmetry_equiv_pos_as_xyz
  1  'x, y, z'
loop_
 _atom_site_type_symbol
 _atom_site_label
 _atom_site_symmetry_multiplicity
 _atom_site_fract_x
 _atom_site_fract_y
 _atom_site_fract_z
 _atom_site_occupancy
  Cs  Cs0  1  0.67410700  0.32589300  0.00000000  1
  Cs  Cs1  1  0.32589300  0.67410700  0.00000000  1
  Pr  Pr0  1  0.70859100  0.00704200  0.42783700  1
  Pr  Pr1  1  0.29140900  0.99295800  0.57216300  1
  Pr  Pr2  1  0.99295800  0.29140900  0.57216300  1
  Pr  Pr3  1  0.00704200  0.70859100  0.42783700  1
  Pr  Pr4  1  0.67504200  0.67504200  0.55535500  1
  Pr  Pr5  1  0.32495800  0.32495800  0.44464500  1
  Pr  Pr6  1  0.93743900  0.93743900  0.67646100  1
  Pr  Pr7  1  0.06256100  0.06256100  0.32353900  1
  Pr  Pr8  1  0.79566400  0.79566400  0.18766700  1
  Pr  Pr9  1  0.20433600  0.20433600  0.81233300  1
  Co  Co0  1  0.85911100  0.85911100  0.43063600  1
  Co  Co1  1  0.14088900  0.14088900  0.56936400  1
  I  I0  1  0.61547500  0.94925200  0.13833400  1
  I  I1  1  0.38452500  0.05074800  0.86166600  1
  I  I2  1  0.05074800  0.38452500  0.86166600  1
  I  I3  1  0.94925200  0.61547500  0.13833400  1
  I  I4  1  0.52764300  0.18974400  0.42050300  1
  I  I5  1  0.47235700  0.81025600  0.57949700  1
  I  I6  1  0.81025600  0.47235700  0.57949700  1
  I  I7  1  0.18974400  0.52764300  0.42050300  1
  I  I8  1  0.56255400  0.56255400  0.28226400  1
  I  I9  1  0.43744600  0.43744600  0.71773600  1
  I  I10  1  0.24673400  0.90019700  0.27411800  1
  I  I11  1  0.75326600  0.09980200  0.72588200  1
  I  I12  1  0.09980300  0.75326600  0.72588200  1
  I  I13  1  0.90019700  0.24673400  0.27411800  1
  I  I14  1  0.28818300  0.28818300  0.13068400  1
  I  I15  1  0.71181700  0.71181700  0.86931600  1
  I  I16  1  0.00000000  0.00000000  0.00000000  1
loop_
_geom_bond_atom_site_label_1
_geom_bond_atom_site_label_2
_geom_bond_distance
_geom_bond_site_symmetry_2
Cs0 I13 4.181961 1_555
Cs0 I11 4.181969 1_554
Cs0 I3 4.235248 1_555
Cs0 I1 4.235248 1_554
Cs0 I0 4.384728 1_545
Cs0 I2 4.384728 1_654
Cs0 I6 4.467969 1_554
Cs0 I4 4.467969 1_555
Cs0 I8 4.488044 1_555
Cs0 I9 4.488044 1_554
Cs0 I14 4.520309 1_555
Cs0 I15 4.520309 1_554
Cs1 I12 4.181961 1_554
Cs1 I10 4.181961 1_555
Cs1 I2 4.235248 1_554
Cs1 I0 4.235248 1_555
Cs1 I1 4.384728 1_564
Cs1 I3 4.384728 1_455
Cs1 I5 4.467969 1_554
Cs1 I7 4.467969 1_555
Cs1 I8 4.488044 1_555
Cs1 I9 4.488044 1_554
Cs1 I14 4.520309 1_555
Cs1 I15 4.520309 1_554
Co0 Pr8 2.657109 1_555
Co0 Pr4 2.711558 1_555
Co0 Pr6 2.773941 1_555
Co0 Pr0 2.840287 1_565
Co0 Pr3 2.840287 1_655
Co0 Pr7 2.896059 1_665
Co1 Pr9 2.657109 1_555
Co1 Pr5 2.711558 1_555
Co1 Pr7 2.773941 1_555
Co1 Pr1 2.840287 1_545
Co1 Pr2 2.840287 1_455
Co1 Pr6 2.896059 1_445
I0 Pr0 3.182984 1_565
I0 Pr8 3.222136 1_555
I1 Pr1 3.182984 1_545
I1 Pr9 3.222136 1_555
I2 Pr2 3.182984 1_455
I2 Pr9 3.222136 1_555
I3 Pr3 3.182984 1_655
I3 Pr8 3.222136 1_555
I4 Pr1 3.230234 1_545
I4 Pr5 3.254403 1_555
I4 Pr0 3.461290 1_555
I5 Pr0 3.230234 1_565
I5 Pr4 3.254403 1_555
I5 Pr1 3.461290 1_555
I6 Pr3 3.230234 1_655
I6 Pr4 3.254403 1_555
I6 Pr2 3.461290 1_555
I7 Pr2 3.230234 1_455
I7 Pr5 3.254403 1_555
I7 Pr3 3.461290 1_555
I8 Pr8 3.250496 1_555
I8 Pr4 3.260343 1_555
I8 Pr5 3.505316 1_555
I9 Pr9 3.250496 1_555
I9 Pr5 3.260343 1_555
I9 Pr4 3.505316 1_555
I10 Pr3 3.238490 1_555
I10 Pr1 3.242351 1_555
I10 Pr7 3.335841 1_565
I11 Pr2 3.238495 1_555
I11 Pr0 3.242347 1_555
I11 Pr6 3.335832 1_545
I12 Pr1 3.238490 1_555
I12 Pr3 3.242351 1_555
I12 Pr6 3.335841 1_455
I13 Pr0 3.238490 1_555
I13 Pr2 3.242351 1_555
I13 Pr7 3.335841 1_655
I14 Pr5 3.227578 1_555
I14 Pr9 3.485545 1_554
I14 Pr7 3.493079 1_555
I15 Pr4 3.227578 1_555
I15 Pr8 3.485545 1_556
I15 Pr6 3.493079 1_555
I16 Pr8 3.226798 1_445
I16 Pr9 3.226798 1_554
I16 Pr7 3.425170 1_555
I16 Pr6 3.425170 1_444
