# generated using pymatgen
data_La3Yb
_symmetry_space_group_name_H-M   'P 1'
_cell_length_a   7.53449270
_cell_length_b   7.53449270
_cell_length_c   5.89668130
_cell_angle_alpha   90.00000000
_cell_angle_beta   90.00000000
_cell_angle_gamma   119.99999557
_symmetry_Int_Tables_number   1
_chemical_formula_structural   La3Yb
_chemical_formula_sum   'La6 Yb2'
_cell_volume   289.89874766
_cell_formula_units_Z   2
loop_
 _symmetry_equiv_pos_site_id
 _symmetry_equiv_pos_as_xyz
  1  'x, y, z'
loop_
 _atom_site_type_symbol
 _atom_site_label
 _atom_site_symmetry_multiplicity
 _atom_site_fract_x
 _atom_site_fract_y
 _atom_site_fract_z
 _atom_site_occupancy
  La  La0  1  0.17099138  0.34198177  0.25000000  1
  La  La1  1  0.65801823  0.82900862  0.25000000  1
  La  La2  1  0.17099138  0.82900862  0.25000000  1
  La  La3  1  0.82900862  0.65801823  0.75000000  1
  La  La4  1  0.34198177  0.17099138  0.75000000  1
  La  La5  1  0.82900862  0.17099138  0.75000000  1
  Yb  Yb0  1  0.33333300  0.66666700  0.75000000  1
  Yb  Yb1  1  0.66666700  0.33333300  0.25000000  1
loop_
_geom_bond_atom_site_label_1
_geom_bond_atom_site_label_2
_geom_bond_distance
_geom_bond_site_symmetry_2
La0 Yb0 3.630584 1_555
La0 Yb0 3.630584 1_554
La0 La2 3.669500 1_555
La0 La1 3.669500 1_555
La0 La4 3.697575 1_555
La0 La4 3.697575 1_554
La0 La5 3.697583 1_454
La0 La5 3.697583 1_455
La0 Yb1 3.767669 1_555
La0 Yb1 3.767669 1_455
La0 La2 3.864992 1_545
La0 La1 3.864993 1_445
La1 Yb0 3.630584 1_555
La1 Yb0 3.630584 1_554
La1 La2 3.669500 1_555
La1 La3 3.697575 1_554
La1 La3 3.697575 1_555
La1 La5 3.697583 1_565
La1 La5 3.697583 1_564
La1 Yb1 3.767669 1_555
La1 Yb1 3.767669 1_565
La1 La2 3.864992 1_655
La2 Yb0 3.630577 1_555
La2 Yb0 3.630577 1_554
La2 La4 3.697583 1_565
La2 La4 3.697583 1_564
La2 La3 3.697583 1_455
La2 La3 3.697583 1_454
La2 Yb1 3.767669 1_455
La2 Yb1 3.767669 1_565
La3 Yb1 3.630584 1_555
La3 Yb1 3.630584 1_556
La3 La5 3.669500 1_555
La3 La4 3.669500 1_555
La3 Yb0 3.767669 1_555
La3 Yb0 3.767669 1_655
La3 La5 3.864992 1_565
La3 La4 3.864993 1_665
La4 Yb1 3.630584 1_555
La4 Yb1 3.630584 1_556
La4 La5 3.669500 1_555
La4 Yb0 3.767669 1_555
La4 Yb0 3.767669 1_545
La4 La5 3.864992 1_455
La5 Yb1 3.630577 1_555
La5 Yb1 3.630577 1_556
La5 Yb0 3.767669 1_655
La5 Yb0 3.767669 1_545
