# generated using pymatgen
data_Ba2EuSbO6
_symmetry_space_group_name_H-M   'P 1'
_cell_length_a   8.62313236
_cell_length_b   8.62313236
_cell_length_c   8.62313236
_cell_angle_alpha   90.00000000
_cell_angle_beta   90.00000000
_cell_angle_gamma   90.00000000
_symmetry_Int_Tables_number   1
_chemical_formula_structural   Ba2EuSbO6
_chemical_formula_sum   'Ba8 Eu4 Sb4 O24'
_cell_volume   641.20242615
_cell_formula_units_Z   4
loop_
 _symmetry_equiv_pos_site_id
 _symmetry_equiv_pos_as_xyz
  1  'x, y, z'
loop_
 _atom_site_type_symbol
 _atom_site_label
 _atom_site_symmetry_multiplicity
 _atom_site_fract_x
 _atom_site_fract_y
 _atom_site_fract_z
 _atom_site_occupancy
  Ba  Ba0  1  0.50000000  0.50000000  0.50000000  1
  Ba  Ba1  1  0.00000000  -0.00000000  -0.00000000  1
  Ba  Ba2  1  0.00000000  -0.00000000  0.50000000  1
  Ba  Ba3  1  0.00000000  0.50000000  -0.00000000  1
  Ba  Ba4  1  0.50000000  -0.00000000  -0.00000000  1
  Ba  Ba5  1  0.50000000  0.50000000  -0.00000000  1
  Ba  Ba6  1  0.50000000  -0.00000000  0.50000000  1
  Ba  Ba7  1  0.00000000  0.50000000  0.50000000  1
  Eu  Eu0  1  0.75000000  0.75000000  0.75000000  1
  Eu  Eu1  1  0.75000000  0.25000000  0.25000000  1
  Eu  Eu2  1  0.25000000  0.75000000  0.25000000  1
  Eu  Eu3  1  0.25000000  0.25000000  0.75000000  1
  Sb  Sb0  1  0.25000000  0.25000000  0.25000000  1
  Sb  Sb1  1  0.25000000  0.75000000  0.75000000  1
  Sb  Sb2  1  0.75000000  0.25000000  0.75000000  1
  Sb  Sb3  1  0.75000000  0.75000000  0.25000000  1
  O  O0  1  0.23901850  0.26154032  0.48376157  1
  O  O1  1  0.23901850  0.73845968  0.51623843  1
  O  O2  1  0.76098150  0.26154032  0.51623843  1
  O  O3  1  0.76098150  0.73845968  0.48376157  1
  O  O4  1  0.26154032  0.48376157  0.23901850  1
  O  O5  1  0.73845968  0.51623843  0.23901850  1
  O  O6  1  0.26154032  0.51623843  0.76098150  1
  O  O7  1  0.73845968  0.48376157  0.76098150  1
  O  O8  1  0.48376157  0.23901850  0.26154032  1
  O  O9  1  0.51623843  0.23901850  0.73845968  1
  O  O10  1  0.51623843  0.76098150  0.26154032  1
  O  O11  1  0.48376157  0.76098150  0.73845968  1
  O  O12  1  0.26098150  0.23845968  0.01623843  1
  O  O13  1  0.26098150  0.76154032  0.98376157  1
  O  O14  1  0.73901850  0.23845968  0.98376157  1
  O  O15  1  0.73901850  0.76154032  0.01623843  1
  O  O16  1  0.23845968  0.01623843  0.26098150  1
  O  O17  1  0.76154032  0.98376157  0.26098150  1
  O  O18  1  0.23845968  0.98376157  0.73901850  1
  O  O19  1  0.76154032  0.01623843  0.73901850  1
  O  O20  1  0.01623843  0.26098150  0.23845968  1
  O  O21  1  0.98376157  0.26098150  0.76154032  1
  O  O22  1  0.98376157  0.73901850  0.23845968  1
  O  O23  1  0.01623843  0.73901850  0.76154032  1
loop_
_geom_bond_atom_site_label_1
_geom_bond_atom_site_label_2
_geom_bond_distance
_geom_bond_site_symmetry_2
Ba0 O6 3.051639 1_555
Ba0 O8 3.051639 1_555
Ba0 O7 3.051639 1_555
Ba0 O9 3.051639 1_555
Ba0 O10 3.051639 1_555
Ba0 O3 3.051639 1_555
Ba0 O4 3.051639 1_555
Ba0 O11 3.051639 1_555
Ba0 O1 3.051639 1_555
Ba0 O5 3.051639 1_555
Ba0 O2 3.051639 1_555
Ba0 O0 3.051639 1_555
Ba1 O17 3.051639 1_445
Ba1 O23 3.051639 1_544
Ba1 O19 3.051639 1_454
Ba1 O21 3.051639 1_454
Ba1 O15 3.051639 1_445
Ba1 O16 3.051639 1_555
Ba1 O18 3.051639 1_544
Ba1 O20 3.051639 1_555
Ba1 O22 3.051639 1_445
Ba1 O13 3.051639 1_544
Ba1 O14 3.051639 1_454
Ba1 O12 3.051639 1_555
Ba2 O17 2.914779 1_445
Ba2 O19 2.914779 1_455
Ba2 O18 2.914779 1_545
Ba2 O16 2.914779 1_555
Ba2 O0 3.058440 1_555
Ba2 O2 3.058440 1_455
Ba2 O3 3.058440 1_445
Ba2 O1 3.058440 1_545
Ba2 O20 3.189141 1_555
Ba2 O22 3.189141 1_445
Ba2 O21 3.189141 1_455
Ba2 O23 3.189141 1_545
Ba3 O21 2.914779 1_454
Ba3 O23 2.914779 1_554
Ba3 O20 2.914779 1_555
Ba3 O22 2.914779 1_455
Ba3 O6 3.058440 1_554
Ba3 O7 3.058440 1_454
Ba3 O4 3.058440 1_555
Ba3 O5 3.058440 1_455
Ba3 O12 3.189141 1_555
Ba3 O15 3.189141 1_455
Ba3 O14 3.189141 1_454
Ba3 O13 3.189141 1_554
Ba4 O13 2.914779 1_544
Ba4 O15 2.914779 1_545
Ba4 O12 2.914779 1_555
Ba4 O14 2.914779 1_554
Ba4 O8 3.058440 1_555
Ba4 O10 3.058440 1_545
Ba4 O9 3.058440 1_554
Ba4 O11 3.058440 1_544
Ba4 O16 3.189141 1_555
Ba4 O18 3.189141 1_544
Ba4 O19 3.189141 1_554
Ba4 O17 3.189141 1_545
Ba5 O5 2.914779 1_555
Ba5 O7 2.914779 1_554
Ba5 O4 2.914779 1_555
Ba5 O6 2.914779 1_554
Ba5 O12 3.058440 1_555
Ba5 O14 3.058440 1_554
Ba5 O15 3.058440 1_555
Ba5 O13 3.058440 1_554
Ba5 O11 3.189141 1_554
Ba5 O9 3.189141 1_554
Ba5 O8 3.189141 1_555
Ba5 O10 3.189141 1_555
Ba6 O9 2.914779 1_555
Ba6 O11 2.914779 1_545
Ba6 O8 2.914779 1_555
Ba6 O10 2.914779 1_545
Ba6 O17 3.058440 1_545
Ba6 O16 3.058440 1_555
Ba6 O18 3.058440 1_545
Ba6 O19 3.058440 1_555
Ba6 O0 3.189141 1_555
Ba6 O2 3.189141 1_555
Ba6 O3 3.189141 1_545
Ba6 O1 3.189141 1_545
Ba7 O3 2.914779 1_455
Ba7 O1 2.914779 1_555
Ba7 O0 2.914779 1_555
Ba7 O2 2.914779 1_455
Ba7 O22 3.058440 1_455
Ba7 O20 3.058440 1_555
Ba7 O23 3.058440 1_555
Ba7 O21 3.058440 1_455
Ba7 O6 3.189141 1_555
Ba7 O4 3.189141 1_555
Ba7 O7 3.189141 1_455
Ba7 O5 3.189141 1_455
Eu0 O15 2.299915 1_556
Eu0 O7 2.299915 1_555
Eu0 O3 2.299915 1_555
Eu0 O19 2.299915 1_565
Eu0 O23 2.299915 1_655
Eu0 O11 2.299915 1_555
Eu1 O8 2.299915 1_555
Eu1 O5 2.299915 1_555
Eu1 O20 2.299915 1_655
Eu1 O17 2.299915 1_545
Eu1 O2 2.299915 1_555
Eu1 O14 2.299915 1_554
Eu2 O1 2.299915 1_555
Eu2 O16 2.299915 1_565
Eu2 O22 2.299915 1_455
Eu2 O13 2.299915 1_554
Eu2 O10 2.299915 1_555
Eu2 O4 2.299915 1_555
Eu3 O21 2.299915 1_455
Eu3 O6 2.299915 1_555
Eu3 O18 2.299915 1_545
Eu3 O12 2.299915 1_556
Eu3 O9 2.299915 1_555
Eu3 O0 2.299915 1_555
O0 Sb0 2.020432 1_555
O1 Sb1 2.020432 1_555
O2 Sb2 2.020432 1_555
O3 Sb3 2.020432 1_555
O4 Sb0 2.020432 1_555
O5 Sb3 2.020432 1_555
O6 Sb1 2.020432 1_555
O7 Sb2 2.020432 1_555
O8 Sb0 2.020432 1_555
O9 Sb2 2.020432 1_555
O10 Sb3 2.020432 1_555
O11 Sb1 2.020432 1_555
O12 Sb0 2.020432 1_555
O13 Sb1 2.020432 1_555
O14 Sb2 2.020432 1_555
O15 Sb3 2.020432 1_555
O16 Sb0 2.020432 1_555
O17 Sb3 2.020432 1_555
O18 Sb1 2.020432 1_555
O19 Sb2 2.020432 1_555
O20 Sb0 2.020432 1_555
O21 Sb2 2.020432 1_555
O22 Sb3 2.020432 1_555
O23 Sb1 2.020432 1_555
