# generated using pymatgen
data_CsSrCl3
_symmetry_space_group_name_H-M   'P 1'
_cell_length_a   5.67282446
_cell_length_b   5.67282446
_cell_length_c   5.67282446
_cell_angle_alpha   90.00000000
_cell_angle_beta   90.00000000
_cell_angle_gamma   90.00000000
_symmetry_Int_Tables_number   1
_chemical_formula_structural   CsSrCl3
_chemical_formula_sum   'Cs1 Sr1 Cl3'
_cell_volume   182.55680857
_cell_formula_units_Z   1
loop_
 _symmetry_equiv_pos_site_id
 _symmetry_equiv_pos_as_xyz
  1  'x, y, z'
loop_
 _atom_site_type_symbol
 _atom_site_label
 _atom_site_symmetry_multiplicity
 _atom_site_fract_x
 _atom_site_fract_y
 _atom_site_fract_z
 _atom_site_occupancy
  Cs  Cs0  1  0.50000000  0.50000000  0.50000000  1
  Sr  Sr0  1  0.00000000  0.00000000  0.00000000  1
  Cl  Cl0  1  0.50000000  -0.00000000  -0.00000000  1
  Cl  Cl1  1  -0.00000000  0.50000000  -0.00000000  1
  Cl  Cl2  1  0.00000000  -0.00000000  0.50000000  1
loop_
_geom_bond_atom_site_label_1
_geom_bond_atom_site_label_2
_geom_bond_distance
_geom_bond_site_symmetry_2
Cl0 Sr0 2.836412 1_655
Cl0 Sr0 2.836412 1_555
Cl0 Cs0 4.011293 1_555
Cl0 Cs0 4.011293 1_545
Cl0 Cs0 4.011293 1_554
Cl0 Cs0 4.011293 1_544
Cl1 Sr0 2.836412 1_565
Cl1 Sr0 2.836412 1_555
Cl1 Cs0 4.011293 1_555
Cl1 Cs0 4.011293 1_554
Cl1 Cs0 4.011293 1_455
Cl1 Cs0 4.011293 1_454
Cl2 Sr0 2.836412 1_555
Cl2 Sr0 2.836412 1_556
Cl2 Cs0 4.011293 1_555
Cl2 Cs0 4.011293 1_445
Cl2 Cs0 4.011293 1_545
Cl2 Cs0 4.011293 1_455
