# generated using pymatgen
data_GdGeRh
_symmetry_space_group_name_H-M   'P 1'
_cell_length_a   4.35392841
_cell_length_b   7.02985588
_cell_length_c   7.48449263
_cell_angle_alpha   90.00136192
_cell_angle_beta   90.00000000
_cell_angle_gamma   90.00000000
_symmetry_Int_Tables_number   1
_chemical_formula_structural   GdGeRh
_chemical_formula_sum   'Gd4 Ge4 Rh4'
_cell_volume   229.08152756
_cell_formula_units_Z   4
loop_
 _symmetry_equiv_pos_site_id
 _symmetry_equiv_pos_as_xyz
  1  'x, y, z'
loop_
 _atom_site_type_symbol
 _atom_site_label
 _atom_site_symmetry_multiplicity
 _atom_site_fract_x
 _atom_site_fract_y
 _atom_site_fract_z
 _atom_site_occupancy
  Gd  Gd0  1  0.25000000  0.49598461  0.69370324  1
  Gd  Gd1  1  0.25000000  0.99600419  0.80628629  1
  Gd  Gd2  1  0.75000000  0.50401828  0.30629578  1
  Gd  Gd3  1  0.75000000  0.00399295  0.19371379  1
  Ge  Ge0  1  0.25000000  0.79398360  0.39717194  1
  Ge  Ge1  1  0.25000000  0.29399477  0.10283408  1
  Ge  Ge2  1  0.75000000  0.20601681  0.60282766  1
  Ge  Ge3  1  0.75000000  0.70600463  0.89716710  1
  Rh  Rh0  1  0.25000000  0.15427330  0.43009647  1
  Rh  Rh1  1  0.25000000  0.65427719  0.06991689  1
  Rh  Rh2  1  0.75000000  0.84572269  0.56990344  1
  Rh  Rh3  1  0.75000000  0.34572698  0.93008331  1
loop_
_geom_bond_atom_site_label_1
_geom_bond_atom_site_label_2
_geom_bond_distance
_geom_bond_site_symmetry_2
Gd0 Rh3 2.997503 1_555
Gd0 Rh3 2.997503 1_455
Gd0 Rh1 3.027651 1_556
Gd0 Ge3 3.039383 1_555
Gd0 Ge3 3.039383 1_455
Gd0 Ge0 3.051960 1_555
Gd0 Ge2 3.058909 1_455
Gd0 Ge2 3.058909 1_555
Gd0 Rh0 3.108510 1_555
Gd0 Rh2 3.412123 1_455
Gd0 Rh2 3.412123 1_555
Gd1 Rh2 2.997545 1_455
Gd1 Rh2 2.997545 1_555
Gd1 Rh0 3.027473 1_565
Gd1 Ge2 3.039373 1_565
Gd1 Ge2 3.039373 1_465
Gd1 Ge1 3.051937 1_566
Gd1 Ge3 3.059088 1_455
Gd1 Ge3 3.059088 1_555
Gd1 Rh1 3.108781 1_556
Gd1 Rh3 3.412008 1_565
Gd1 Rh3 3.412008 1_465
Gd2 Rh1 2.997501 1_655
Gd2 Rh1 2.997501 1_555
Gd2 Rh3 3.027639 1_554
Gd2 Ge1 3.039386 1_555
Gd2 Ge1 3.039386 1_655
Gd2 Ge2 3.051975 1_555
Gd2 Ge0 3.058899 1_555
Gd2 Ge0 3.058899 1_655
Gd2 Rh2 3.108476 1_555
Gd2 Rh0 3.412160 1_655
Gd2 Rh0 3.412160 1_555
Gd3 Rh0 2.997541 1_655
Gd3 Rh0 2.997541 1_555
Gd3 Rh2 3.027475 1_545
Gd3 Ge0 3.039360 1_645
Gd3 Ge0 3.039360 1_545
Gd3 Ge3 3.051920 1_544
Gd3 Ge1 3.059097 1_555
Gd3 Ge1 3.059097 1_655
Gd3 Rh3 3.108818 1_554
Gd3 Rh1 3.411972 1_545
Gd3 Rh1 3.411972 1_645
Ge0 Rh0 2.544738 1_565
Ge0 Rh2 2.557888 1_455
Ge0 Rh2 2.557888 1_555
Ge0 Rh1 2.638881 1_555
Ge1 Rh1 2.544694 1_555
Ge1 Rh3 2.557963 1_454
Ge1 Rh3 2.557963 1_554
Ge1 Rh0 2.639015 1_555
Ge2 Rh2 2.544769 1_545
Ge2 Rh0 2.557892 1_655
Ge2 Rh0 2.557892 1_555
Ge2 Rh3 2.638895 1_555
Ge3 Rh3 2.544660 1_555
Ge3 Rh1 2.557955 1_556
Ge3 Rh1 2.557955 1_656
Ge3 Rh2 2.639015 1_555
