# generated using pymatgen
data_Pr2(ZnGe2)3
_symmetry_space_group_name_H-M   'P 1'
_cell_length_a   12.82144709
_cell_length_b   12.82144709
_cell_length_c   5.98998300
_cell_angle_alpha   90.00000000
_cell_angle_beta   90.00000000
_cell_angle_gamma   152.94100911
_symmetry_Int_Tables_number   1
_chemical_formula_structural   Pr2(ZnGe2)3
_chemical_formula_sum   'Pr4 Zn6 Ge12'
_cell_volume   447.94314612
_cell_formula_units_Z   2
loop_
 _symmetry_equiv_pos_site_id
 _symmetry_equiv_pos_as_xyz
  1  'x, y, z'
loop_
 _atom_site_type_symbol
 _atom_site_label
 _atom_site_symmetry_multiplicity
 _atom_site_fract_x
 _atom_site_fract_y
 _atom_site_fract_z
 _atom_site_occupancy
  Pr  Pr0  1  0.39375200  0.60624800  0.75000000  1
  Pr  Pr1  1  0.60624800  0.39375200  0.25000000  1
  Pr  Pr2  1  0.89422100  0.10577900  0.25000000  1
  Pr  Pr3  1  0.10577900  0.89422100  0.75000000  1
  Zn  Zn0  1  0.73494600  0.73494600  0.00000000  1
  Zn  Zn1  1  0.84005100  0.15994900  0.75000000  1
  Zn  Zn2  1  0.73494600  0.73494600  0.50000000  1
  Zn  Zn3  1  0.26505400  0.26505400  0.00000000  1
  Zn  Zn4  1  0.15994900  0.84005100  0.25000000  1
  Zn  Zn5  1  0.26505400  0.26505400  0.50000000  1
  Ge  Ge0  1  0.08300300  0.48520000  0.03400500  1
  Ge  Ge1  1  0.91699700  0.51480000  0.53400500  1
  Ge  Ge2  1  0.51480000  0.91699700  0.03400500  1
  Ge  Ge3  1  0.48520000  0.08300300  0.53400500  1
  Ge  Ge4  1  0.91699700  0.51480000  0.96599500  1
  Ge  Ge5  1  0.08300300  0.48520000  0.46599500  1
  Ge  Ge6  1  0.48520000  0.08300300  0.96599500  1
  Ge  Ge7  1  0.05804400  0.94195600  0.25000000  1
  Ge  Ge8  1  0.56914400  0.43085600  0.75000000  1
  Ge  Ge9  1  0.43085600  0.56914400  0.25000000  1
  Ge  Ge10  1  0.94195600  0.05804400  0.75000000  1
  Ge  Ge11  1  0.51480000  0.91699700  0.46599500  1
loop_
_geom_bond_atom_site_label_1
_geom_bond_atom_site_label_2
_geom_bond_distance
_geom_bond_site_symmetry_2
Pr0 Zn1 3.284757 1_565
Pr0 Zn1 3.284757 1_455
Pr0 Zn5 3.353464 1_555
Pr0 Zn2 3.353464 1_555
Pr0 Zn0 3.353464 1_556
Pr0 Zn3 3.353464 1_556
Pr1 Zn4 3.284757 1_655
Pr1 Zn4 3.284757 1_545
Pr1 Zn3 3.353464 1_555
Pr1 Zn0 3.353464 1_555
Pr1 Zn5 3.353464 1_555
Pr1 Zn2 3.353464 1_555
Pr2 Zn1 3.285407 1_554
Pr2 Zn1 3.285407 1_555
Pr2 Zn2 3.424279 1_545
Pr2 Zn0 3.424279 1_545
Pr2 Zn5 3.424279 1_655
Pr2 Zn3 3.424279 1_655
Pr3 Zn4 3.285407 1_555
Pr3 Zn4 3.285407 1_556
Pr3 Zn2 3.424279 1_455
Pr3 Zn0 3.424279 1_456
Pr3 Zn3 3.424279 1_566
Pr3 Zn5 3.424279 1_565
Ge0 Ge4 2.505781 1_454
Ge0 Ge5 2.587613 1_555
Ge0 Ge2 2.590372 1_555
Ge0 Zn1 2.617498 1_454
Ge0 Pr0 3.188034 1_554
Ge0 Pr2 3.197838 1_455
Ge1 Ge5 2.505781 1_655
Ge1 Ge4 2.587613 1_555
Ge1 Ge3 2.590372 1_555
Ge1 Zn4 2.617498 1_655
Ge1 Pr1 3.188034 1_555
Ge1 Pr3 3.197838 1_655
Ge2 Ge6 2.505781 1_564
Ge2 Zn1 2.617498 1_564
Ge2 Pr0 3.188034 1_554
Ge2 Pr2 3.197838 1_565
Ge3 Ge6 2.587613 1_555
Ge3 Zn4 2.617498 1_545
Ge3 Pr1 3.188034 1_555
Ge3 Pr3 3.197838 1_545
Ge4 Ge6 2.590372 1_555
Ge4 Zn4 2.617498 1_656
Ge4 Pr1 3.188034 1_556
Ge4 Pr3 3.197838 1_655
Ge5 Zn1 2.617498 1_455
Ge5 Pr0 3.188034 1_555
Ge5 Pr2 3.197838 1_455
Ge6 Zn4 2.617498 1_546
Ge6 Pr1 3.188034 1_556
Ge6 Pr3 3.197838 1_545
Ge7 Zn4 2.540624 1_555
Ge7 Zn2 2.620106 1_455
Ge7 Zn0 2.620106 1_455
Ge7 Zn3 2.620106 1_565
Ge7 Zn5 2.620106 1_565
Ge7 Pr3 3.222778 1_554
Ge7 Pr3 3.222778 1_555
Ge7 Pr1 3.231322 1_455
Ge7 Pr1 3.231322 1_565
Ge8 Zn5 2.683413 1_555
Ge8 Zn3 2.683413 1_556
Ge8 Zn2 2.683413 1_555
Ge8 Zn0 2.683413 1_556
Ge8 Pr1 3.134596 1_556
Ge8 Pr1 3.134596 1_555
Ge8 Pr3 3.135502 1_545
Ge8 Pr3 3.135502 1_655
Ge9 Zn3 2.683413 1_555
Ge9 Zn5 2.683413 1_555
Ge9 Zn0 2.683413 1_555
Ge9 Zn2 2.683413 1_555
Ge9 Pr0 3.134596 1_555
Ge9 Pr0 3.134596 1_554
Ge9 Pr2 3.135502 1_455
Ge9 Pr2 3.135502 1_565
Ge10 Zn1 2.540624 1_555
Ge10 Zn0 2.620106 1_546
Ge10 Zn2 2.620106 1_545
Ge10 Zn5 2.620106 1_655
Ge10 Zn3 2.620106 1_656
Ge10 Pr2 3.222778 1_555
Ge10 Pr2 3.222778 1_556
Ge10 Pr0 3.231322 1_545
Ge10 Pr0 3.231322 1_655
Ge11 Ge3 2.505781 1_565
Ge11 Ge2 2.587613 1_555
Ge11 Ge5 2.590372 1_555
Ge11 Zn1 2.617498 1_565
Ge11 Pr0 3.188034 1_555
Ge11 Pr2 3.197838 1_565
