# generated using pymatgen
data_Li7Mn2(CoO4)3
_symmetry_space_group_name_H-M   'P 1'
_cell_length_a   2.91008489
_cell_length_b   12.11638376
_cell_length_c   12.69868142
_cell_angle_alpha   107.21966251
_cell_angle_beta   89.85074943
_cell_angle_gamma   85.19302567
_symmetry_Int_Tables_number   1
_chemical_formula_structural   Li7Mn2(CoO4)3
_chemical_formula_sum   'Li14 Mn4 Co6 O24'
_cell_volume   426.00102615
_cell_formula_units_Z   2
loop_
 _symmetry_equiv_pos_site_id
 _symmetry_equiv_pos_as_xyz
  1  'x, y, z'
loop_
 _atom_site_type_symbol
 _atom_site_label
 _atom_site_symmetry_multiplicity
 _atom_site_fract_x
 _atom_site_fract_y
 _atom_site_fract_z
 _atom_site_occupancy
  Li  Li0  1  0.58383400  0.83296600  0.08324900  1
  Li  Li1  1  0.08514200  0.83448800  0.58293400  1
  Li  Li2  1  0.87334500  0.25061100  0.12880700  1
  Li  Li3  1  0.37446100  0.25259300  0.62687600  1
  Li  Li4  1  0.28986700  0.41582500  0.03836200  1
  Li  Li5  1  0.79148000  0.41457400  0.53758900  1
  Li  Li6  1  0.19563700  0.59089900  0.46222100  1
  Li  Li7  1  0.69392800  0.59164500  0.96252300  1
  Li  Li8  1  0.47464700  0.07503800  0.20659200  1
  Li  Li9  1  0.97322100  0.07556200  0.70458500  1
  Li  Li10  1  0.63084000  0.74880300  0.38334200  1
  Li  Li11  1  0.13044200  0.74918800  0.88369600  1
  Li  Li12  1  0.03570900  0.91763600  0.28250100  1
  Li  Li13  1  0.53645000  0.91755600  0.78282500  1
  Mn  Mn0  1  0.01073300  0.99601000  0.00545100  1
  Mn  Mn1  1  0.51857500  0.99597200  0.50101100  1
  Mn  Mn2  1  0.15741100  0.67041800  0.16214500  1
  Mn  Mn3  1  0.65636400  0.67121500  0.66155500  1
  Co  Co0  1  0.83299600  0.33329300  0.83310000  1
  Co  Co1  1  0.73092200  0.50004700  0.25322400  1
  Co  Co2  1  0.93411100  0.16517900  0.41518800  1
  Co  Co3  1  0.32546600  0.33258100  0.33593300  1
  Co  Co4  1  0.23371100  0.50145300  0.75278200  1
  Co  Co5  1  0.43264900  0.16556700  0.91385800  1
  O  O0  1  0.46640000  0.11226900  0.05464000  1
  O  O1  1  0.97095700  0.11404700  0.54768600  1
  O  O2  1  0.70007700  0.55384300  0.11326100  1
  O  O3  1  0.19912400  0.55536600  0.61291800  1
  O  O4  1  0.73186700  0.44903400  0.38936900  1
  O  O5  1  0.24457500  0.44826900  0.88892400  1
  O  O6  1  0.92024900  0.21518800  0.28369600  1
  O  O7  1  0.42216900  0.21803300  0.77691600  1
  O  O8  1  0.33178000  0.28574900  0.47210700  1
  O  O9  1  0.84979600  0.28436900  0.97097500  1
  O  O10  1  0.31330000  0.37935300  0.19709900  1
  O  O11  1  0.81538300  0.38258800  0.69591400  1
  O  O12  1  0.16377200  0.61871100  0.30208500  1
  O  O13  1  0.66309900  0.61955700  0.80291400  1
  O  O14  1  0.52475700  0.04682900  0.36351500  1
  O  O15  1  0.00342800  0.04756400  0.86370400  1
  O  O16  1  0.61715800  0.77570900  0.22347600  1
  O  O17  1  0.11631400  0.77660900  0.72338700  1
  O  O18  1  0.05818200  0.89035000  0.44200200  1
  O  O19  1  0.55022100  0.89102400  0.94328000  1
  O  O20  1  0.02107500  0.96312300  0.13625000  1
  O  O21  1  0.51994700  0.96629700  0.63459500  1
  O  O22  1  0.14692400  0.70312700  0.03059400  1
  O  O23  1  0.64750900  0.70387300  0.53034400  1
loop_
_geom_bond_atom_site_label_1
_geom_bond_atom_site_label_2
_geom_bond_distance
_geom_bond_site_symmetry_2
Li0 O22 2.062866 1_555
Li0 O20 2.066731 1_655
Li0 O16 2.093471 1_555
Li0 O19 2.096021 1_554
Li0 O22 2.132268 1_655
Li0 O20 2.134239 1_555
Li1 O23 2.070979 1_455
Li1 O21 2.074766 1_555
Li1 O18 2.091923 1_555
Li1 O17 2.100448 1_555
Li1 O23 2.136185 1_555
Li1 O21 2.149420 1_455
Li2 O10 2.089035 1_655
Li2 O0 2.122011 1_555
Li2 O6 2.136090 1_555
Li2 O10 2.146420 1_555
Li2 O9 2.161121 1_554
Li2 O0 2.290680 1_655
Li3 O7 2.070951 1_555
Li3 O11 2.103056 1_555
Li3 O8 2.121283 1_555
Li3 O1 2.131916 1_455
Li3 O11 2.154522 1_455
Li3 O1 2.312024 1_555
Li4 O5 2.051178 1_554
Li4 O9 2.109462 1_454
Li4 O2 2.127193 1_555
Li4 O9 2.162186 1_554
Li4 O10 2.187751 1_555
Li4 O2 2.283792 1_455
Li5 O4 2.049867 1_555
Li5 O8 2.100814 1_655
Li5 O8 2.122438 1_555
Li5 O3 2.147389 1_655
Li5 O11 2.157491 1_555
Li5 O3 2.308468 1_555
Li6 O23 1.989411 1_555
Li6 O23 2.022913 1_455
Li6 O3 2.081994 1_555
Li6 O12 2.158427 1_555
Li6 O4 2.201579 1_555
Li6 O4 2.255147 1_455
Li7 O22 1.980560 1_656
Li7 O22 2.011673 1_556
Li7 O2 2.095725 1_556
Li7 O13 2.152241 1_555
Li7 O5 2.241315 1_655
Li7 O5 2.242124 1_555
Li8 O20 1.991943 1_545
Li8 O20 2.019727 1_645
Li8 O0 2.107412 1_555
Li8 O14 2.122596 1_555
Li8 O6 2.216991 1_555
Li8 O6 2.234578 1_455
Li9 O21 1.970962 1_545
Li9 O21 2.004227 1_645
Li9 O15 2.146487 1_655
Li9 O1 2.176419 1_555
Li9 O7 2.230670 1_655
Li9 O7 2.232647 1_555
Li10 O23 2.093114 1_555
Li10 O12 2.138568 1_655
Li10 O16 2.149234 1_555
Li10 O18 2.156078 1_655
Li10 O12 2.190917 1_555
Li10 O18 2.243108 1_555
Li11 O22 2.099022 1_556
Li11 O13 2.133481 1_555
Li11 O19 2.145915 1_555
Li11 O17 2.157498 1_555
Li11 O13 2.186373 1_455
Li11 O19 2.261421 1_455
Li12 O20 2.087401 1_555
Li12 O14 2.089996 1_465
Li12 O16 2.143643 1_455
Li12 O18 2.146991 1_555
Li12 O14 2.227475 1_565
Li12 O16 2.263768 1_555
Li13 O21 2.132629 1_555
Li13 O15 2.136944 1_565
Li13 O17 2.138356 1_555
Li13 O19 2.154696 1_555
Li13 O15 2.188853 1_665
Li13 O17 2.254080 1_655
Mn0 O20 1.818966 1_555
Mn0 O19 1.932349 1_454
Mn0 O19 1.941753 1_554
Mn0 O0 1.982222 1_565
Mn0 O0 1.995891 1_465
Mn0 O15 2.072273 1_564
Mn1 O21 1.835151 1_555
Mn1 O18 1.928501 1_555
Mn1 O18 1.937632 1_655
Mn1 O1 1.987160 1_565
Mn1 O1 2.012107 1_465
Mn1 O14 2.016758 1_565
Mn2 O22 1.827257 1_555
Mn2 O16 1.930621 1_555
Mn2 O16 1.942948 1_455
Mn2 O2 1.987934 1_455
Mn2 O2 1.994045 1_555
Mn2 O12 2.051381 1_555
Mn3 O23 1.822734 1_555
Mn3 O17 1.933153 1_655
Mn3 O17 1.944399 1_555
Mn3 O3 1.981486 1_555
Mn3 O3 1.989108 1_655
Mn3 O13 2.068280 1_555
Co0 O5 1.891338 1_655
Co0 O7 1.892881 1_555
Co0 O11 2.001400 1_555
Co0 O9 2.007303 1_555
Co0 O5 2.093936 1_555
Co0 O7 2.097951 1_655
Co1 O10 1.951609 1_555
Co1 O12 1.954041 1_655
Co1 O4 2.000859 1_555
Co1 O12 2.060330 1_555
Co1 O2 2.066111 1_555
Co1 O10 2.116598 1_655
Co2 O14 1.907670 1_555
Co2 O8 1.912677 1_655
Co2 O6 1.937064 1_555
Co2 O1 1.957875 1_555
Co2 O14 2.113092 1_655
Co2 O8 2.160572 1_555
Co3 O4 1.888652 1_555
Co3 O6 1.892164 1_455
Co3 O8 1.972798 1_555
Co3 O10 2.004774 1_555
Co3 O4 2.110414 1_455
Co3 O6 2.117040 1_555
Co4 O11 1.939161 1_455
Co4 O13 1.943930 1_555
Co4 O5 2.015328 1_555
Co4 O13 2.065732 1_455
Co4 O3 2.065953 1_555
Co4 O11 2.104819 1_555
Co5 O9 1.936756 1_555
Co5 O15 1.942770 1_555
Co5 O7 2.020061 1_555
Co5 O15 2.065469 1_655
Co5 O0 2.072809 1_556
Co5 O9 2.107431 1_455
