# generated using pymatgen
data_CoSiO4
_symmetry_space_group_name_H-M   'P 1'
_cell_length_a   9.84900727
_cell_length_b   9.84900727
_cell_length_c   9.84900727
_cell_angle_alpha   109.47122063
_cell_angle_beta   109.47122063
_cell_angle_gamma   109.47122063
_symmetry_Int_Tables_number   1
_chemical_formula_structural   CoSiO4
_chemical_formula_sum   'Co12 Si12 O48'
_cell_volume   735.45394798
_cell_formula_units_Z   12
loop_
 _symmetry_equiv_pos_site_id
 _symmetry_equiv_pos_as_xyz
  1  'x, y, z'
loop_
 _atom_site_type_symbol
 _atom_site_label
 _atom_site_symmetry_multiplicity
 _atom_site_fract_x
 _atom_site_fract_y
 _atom_site_fract_z
 _atom_site_occupancy
  Co  Co0  1  0.87500000  0.75000000  0.62500000  1
  Co  Co1  1  0.87500000  0.62500000  0.25000000  1
  Co  Co2  1  0.62500000  0.87500000  0.75000000  1
  Co  Co3  1  0.25000000  0.87500000  0.62500000  1
  Co  Co4  1  0.75000000  0.62500000  0.87500000  1
  Co  Co5  1  0.62500000  0.25000000  0.87500000  1
  Co  Co6  1  0.12500000  0.25000000  0.37500000  1
  Co  Co7  1  0.12500000  0.37500000  0.75000000  1
  Co  Co8  1  0.37500000  0.12500000  0.25000000  1
  Co  Co9  1  0.75000000  0.12500000  0.37500000  1
  Co  Co10  1  0.25000000  0.37500000  0.12500000  1
  Co  Co11  1  0.37500000  0.75000000  0.12500000  1
  Si  Si0  1  0.12500000  0.75000000  0.87500000  1
  Si  Si1  1  0.75000000  0.87500000  0.12500000  1
  Si  Si2  1  0.25000000  0.62500000  0.37500000  1
  Si  Si3  1  0.62500000  0.75000000  0.37500000  1
  Si  Si4  1  0.87500000  0.12500000  0.75000000  1
  Si  Si5  1  0.37500000  0.25000000  0.62500000  1
  Si  Si6  1  0.37500000  0.62500000  0.75000000  1
  Si  Si7  1  0.25000000  0.12500000  0.87500000  1
  Si  Si8  1  0.62500000  0.37500000  0.25000000  1
  Si  Si9  1  0.12500000  0.87500000  0.25000000  1
  Si  Si10  1  0.75000000  0.37500000  0.62500000  1
  Si  Si11  1  0.87500000  0.25000000  0.12500000  1
  O  O0  1  0.59617700  0.90329300  0.36810100  1
  O  O1  1  0.36810100  0.59617700  0.90329300  1
  O  O2  1  0.27192400  0.30711600  0.90382300  1
  O  O3  1  0.46480800  0.59670700  0.19288400  1
  O  O4  1  0.30711600  0.90329300  0.03519200  1
  O  O5  1  0.13189900  0.03519200  0.22807600  1
  O  O6  1  0.36810100  0.27192400  0.46480800  1
  O  O7  1  0.90329300  0.36810100  0.59617700  1
  O  O8  1  0.19288400  0.22807600  0.59617700  1
  O  O9  1  0.46480800  0.36810100  0.27192400  1
  O  O10  1  0.90329300  0.03519200  0.30711600  1
  O  O11  1  0.59670700  0.90382300  0.13189900  1
  O  O12  1  0.90382300  0.13189900  0.59670700  1
  O  O13  1  0.27192400  0.46480800  0.36810100  1
  O  O14  1  0.59617700  0.19288400  0.22807600  1
  O  O15  1  0.22807600  0.59617700  0.19288400  1
  O  O16  1  0.03519200  0.30711600  0.90329300  1
  O  O17  1  0.90382300  0.27192400  0.30711600  1
  O  O18  1  0.03519200  0.22807600  0.13189900  1
  O  O19  1  0.80711600  0.77192400  0.40382300  1
  O  O20  1  0.30711600  0.90382300  0.27192400  1
  O  O21  1  0.59670700  0.19288400  0.46480800  1
  O  O22  1  0.22807600  0.13189900  0.03519200  1
  O  O23  1  0.13189900  0.59670700  0.90382300  1
  O  O24  1  0.40382300  0.09670700  0.63189900  1
  O  O25  1  0.63189900  0.40382300  0.09670700  1
  O  O26  1  0.72807600  0.69288400  0.09617700  1
  O  O27  1  0.53519200  0.40329300  0.80711600  1
  O  O28  1  0.69288400  0.09670700  0.96480800  1
  O  O29  1  0.86810100  0.96480800  0.77192400  1
  O  O30  1  0.63189900  0.72807600  0.53519200  1
  O  O31  1  0.09670700  0.63189900  0.40382300  1
  O  O32  1  0.86810100  0.40329300  0.09617700  1
  O  O33  1  0.77192400  0.86810100  0.96480800  1
  O  O34  1  0.40329300  0.80711600  0.53519200  1
  O  O35  1  0.69288400  0.09617700  0.72807600  1
  O  O36  1  0.80711600  0.53519200  0.40329300  1
  O  O37  1  0.96480800  0.77192400  0.86810100  1
  O  O38  1  0.09617700  0.72807600  0.69288400  1
  O  O39  1  0.96480800  0.69288400  0.09670700  1
  O  O40  1  0.77192400  0.40382300  0.80711600  1
  O  O41  1  0.40382300  0.80711600  0.77192400  1
  O  O42  1  0.72807600  0.53519200  0.63189900  1
  O  O43  1  0.09617700  0.86810100  0.40329300  1
  O  O44  1  0.40329300  0.09617700  0.86810100  1
  O  O45  1  0.09670700  0.96480800  0.69288400  1
  O  O46  1  0.53519200  0.63189900  0.72807600  1
  O  O47  1  0.19288400  0.46480800  0.59670700  1
loop_
_geom_bond_atom_site_label_1
_geom_bond_atom_site_label_2
_geom_bond_distance
_geom_bond_site_symmetry_2
Co0 O19 2.162827 1_555
Co0 O38 2.162827 1_655
Co0 O30 2.162827 1_555
Co0 O37 2.162827 1_555
Co0 O29 2.166785 1_555
Co0 O42 2.166785 1_555
Co0 O45 2.166785 1_655
Co0 O36 2.166785 1_555
Co1 O36 2.162827 1_555
Co1 O39 2.162827 1_555
Co1 O43 2.162827 1_655
Co1 O25 2.162827 1_555
Co1 O26 2.166785 1_555
Co1 O19 2.166785 1_555
Co1 O31 2.166785 1_655
Co1 O32 2.166785 1_555
Co2 O41 2.162827 1_555
Co2 O35 2.162827 1_565
Co2 O46 2.162827 1_555
Co2 O29 2.162827 1_555
Co2 O33 2.166785 1_555
Co2 O30 2.166785 1_555
Co2 O28 2.166785 1_565
Co2 O34 2.166785 1_555
Co3 O34 2.162827 1_555
Co3 O45 2.162827 1_555
Co3 O31 2.162827 1_555
Co3 O44 2.162827 1_565
Co3 O38 2.166785 1_555
Co3 O41 2.166785 1_555
Co3 O24 2.166785 1_565
Co3 O43 2.166785 1_555
Co4 O40 2.162827 1_555
Co4 O26 2.162827 1_556
Co4 O42 2.162827 1_555
Co4 O33 2.162827 1_555
Co4 O37 2.166785 1_555
Co4 O46 2.166785 1_555
Co4 O39 2.166785 1_556
Co4 O27 2.166785 1_555
Co5 O27 2.162827 1_555
Co5 O28 2.162827 1_555
Co5 O32 2.162827 1_556
Co5 O24 2.162827 1_555
Co5 O35 2.166785 1_555
Co5 O40 2.166785 1_555
Co5 O25 2.166785 1_556
Co5 O44 2.166785 1_555
Co6 O6 2.162827 1_555
Co6 O8 2.162827 1_555
Co6 O18 2.162827 1_555
Co6 O17 2.162827 1_455
Co6 O47 2.166785 1_555
Co6 O5 2.166785 1_555
Co6 O10 2.166785 1_455
Co6 O13 2.166785 1_555
Co7 O1 2.162827 1_555
Co7 O47 2.162827 1_555
Co7 O16 2.162827 1_555
Co7 O12 2.162827 1_455
Co7 O7 2.166785 1_455
Co7 O2 2.166785 1_555
Co7 O23 2.166785 1_555
Co7 O8 2.166785 1_555
Co8 O9 2.162827 1_555
Co8 O14 2.162827 1_555
Co8 O5 2.162827 1_555
Co8 O20 2.162827 1_545
Co8 O4 2.166785 1_545
Co8 O22 2.166785 1_555
Co8 O21 2.166785 1_555
Co8 O6 2.166785 1_555
Co9 O7 2.162827 1_555
Co9 O21 2.162827 1_555
Co9 O10 2.162827 1_555
Co9 O11 2.162827 1_545
Co9 O17 2.166785 1_555
Co9 O0 2.166785 1_545
Co9 O12 2.166785 1_555
Co9 O14 2.166785 1_555
Co10 O13 2.162827 1_555
Co10 O15 2.162827 1_555
Co10 O22 2.162827 1_555
Co10 O2 2.162827 1_554
Co10 O16 2.166785 1_554
Co10 O3 2.166785 1_555
Co10 O18 2.166785 1_555
Co10 O9 2.166785 1_555
Co11 O0 2.162827 1_555
Co11 O4 2.162827 1_555
Co11 O3 2.162827 1_555
Co11 O23 2.162827 1_554
Co11 O20 2.166785 1_555
Co11 O1 2.166785 1_554
Co11 O11 2.166785 1_555
Co11 O15 2.166785 1_555
O0 Si3 1.644966 1_555
O1 Si6 1.644966 1_555
O2 Si7 1.644966 1_555
O3 Si3 1.644966 1_555
O4 Si0 1.644966 1_554
O5 Si9 1.644966 1_545
O6 Si5 1.644966 1_555
O7 Si10 1.644966 1_555
O8 Si5 1.644966 1_555
O9 Si8 1.644966 1_555
O10 Si1 1.644966 1_545
O11 Si1 1.644966 1_555
O12 Si4 1.644966 1_555
O13 Si2 1.644966 1_555
O14 Si8 1.644966 1_555
O15 Si2 1.644966 1_555
O16 Si4 1.644966 1_455
O17 Si11 1.644966 1_555
O18 Si11 1.644966 1_455
O19 Si3 1.644966 1_555
O20 Si9 1.644966 1_555
O21 Si10 1.644966 1_555
O22 Si7 1.644966 1_554
O23 Si0 1.644966 1_555
O24 Si5 1.644966 1_555
O25 Si8 1.644966 1_555
O26 Si1 1.644966 1_555
O27 Si5 1.644966 1_555
O28 Si11 1.644966 1_556
O29 Si4 1.644966 1_565
O30 Si3 1.644966 1_555
O31 Si2 1.644966 1_555
O32 Si11 1.644966 1_555
O33 Si1 1.644966 1_556
O34 Si2 1.644966 1_555
O35 Si4 1.644966 1_555
O36 Si8 1.644966 1_555
O37 Si0 1.644966 1_655
O38 Si0 1.644966 1_555
O39 Si9 1.644966 1_655
O40 Si10 1.644966 1_555
O41 Si6 1.644966 1_555
O42 Si10 1.644966 1_555
O43 Si9 1.644966 1_555
O44 Si7 1.644966 1_555
O45 Si7 1.644966 1_565
O46 Si6 1.644966 1_555
O47 Si6 1.644966 1_555
