# generated using pymatgen
data_Ba10Br4N5Cl
_symmetry_space_group_name_H-M   'P 1'
_cell_length_a   4.17551966
_cell_length_b   4.17551900
_cell_length_c   39.70955560
_cell_angle_alpha   86.98624141
_cell_angle_beta   89.99999991
_cell_angle_gamma   120.00000270
_symmetry_Int_Tables_number   1
_chemical_formula_structural   Ba10Br4N5Cl
_chemical_formula_sum   'Ba10 Br4 N5 Cl1'
_cell_volume   598.47338876
_cell_formula_units_Z   1
loop_
 _symmetry_equiv_pos_site_id
 _symmetry_equiv_pos_as_xyz
  1  'x, y, z'
loop_
 _atom_site_type_symbol
 _atom_site_label
 _atom_site_symmetry_multiplicity
 _atom_site_fract_x
 _atom_site_fract_y
 _atom_site_fract_z
 _atom_site_occupancy
  Ba  Ba0  1  0.35369000  0.70738000  0.93893100  1
  Ba  Ba1  1  0.15428200  0.30856400  0.53715400  1
  Ba  Ba2  1  0.75428000  0.50856000  0.73716000  1
  Ba  Ba3  1  0.95457000  0.90914000  0.13628900  1
  Ba  Ba4  1  0.55428200  0.10856400  0.33715300  1
  Ba  Ba5  1  0.04543000  0.09086000  0.86371100  1
  Ba  Ba6  1  0.84571800  0.69143600  0.46284600  1
  Ba  Ba7  1  0.44571800  0.89143600  0.66284700  1
  Ba  Ba8  1  0.64631000  0.29262000  0.06106900  1
  Ba  Ba9  1  0.24572000  0.49144000  0.26284000  1
  Br  Br0  1  0.60002700  0.20005400  0.19992000  1
  Br  Br1  1  0.20000300  0.40000500  0.39999200  1
  Br  Br2  1  0.79999700  0.59999500  0.60000800  1
  Br  Br3  1  0.39997300  0.79994600  0.80008000  1
  N  N0  1  0.69960200  0.39920300  0.90119500  1
  N  N1  1  0.50000000  0.00000000  0.50000000  1
  N  N2  1  0.10000100  0.20000100  0.69999800  1
  N  N3  1  0.30039800  0.60079700  0.09880500  1
  N  N4  1  0.89999900  0.79999900  0.30000200  1
  Cl  Cl0  1  0.00000000  0.00000000  0.00000000  1
loop_
_geom_bond_atom_site_label_1
_geom_bond_atom_site_label_2
_geom_bond_distance
_geom_bond_site_symmetry_2
Ba0 N0 2.837041 1_565
Ba0 N0 2.837044 1_455
Ba0 N0 2.837047 1_555
Ba0 Cl0 3.416242 1_566
Ba0 Cl0 3.416242 1_666
Ba0 Cl0 3.416244 1_556
Ba1 N1 2.824950 1_565
Ba1 N1 2.824950 1_555
Ba1 N1 2.824950 1_455
Ba1 Br2 3.466731 1_445
Ba1 Br2 3.466732 1_555
Ba1 Br2 3.466734 1_455
Ba2 N2 2.825114 1_665
Ba2 N2 2.825115 1_555
Ba2 N2 2.825118 1_655
Ba2 Br3 3.468612 1_555
Ba2 Br3 3.468612 1_655
Ba2 Br3 3.468614 1_545
Ba3 N3 2.831788 1_655
Ba3 N3 2.831791 1_555
Ba3 N3 2.831794 1_665
Ba3 Br0 3.488926 1_555
Ba3 Br0 3.488932 1_565
Ba3 Br0 3.488932 1_665
Ba4 N4 2.824885 1_545
Ba4 N4 2.824888 1_445
Ba4 N4 2.824891 1_555
Ba4 Br1 3.466304 1_545
Ba4 Br1 3.466304 1_555
Ba4 Br1 3.466307 1_655
Ba5 N0 2.831788 1_455
Ba5 N0 2.831791 1_555
Ba5 N0 2.831794 1_445
Ba5 Br3 3.488926 1_555
Ba5 Br3 3.488932 1_545
Ba5 Br3 3.488932 1_445
Ba6 N1 2.824950 1_555
Ba6 N1 2.824950 1_565
Ba6 N1 2.824950 1_665
Ba6 Br1 3.466731 1_665
Ba6 Br1 3.466732 1_555
Ba6 Br1 3.466734 1_655
Ba7 N2 2.824885 1_565
Ba7 N2 2.824888 1_665
Ba7 N2 2.824891 1_555
Ba7 Br2 3.466304 1_565
Ba7 Br2 3.466304 1_555
Ba7 Br2 3.466307 1_455
Ba8 N3 2.837041 1_545
Ba8 N3 2.837044 1_655
Ba8 N3 2.837047 1_555
Ba8 Cl0 3.416242 1_655
Ba8 Cl0 3.416242 1_555
Ba8 Cl0 3.416244 1_665
Ba9 N4 2.825114 1_445
Ba9 N4 2.825115 1_555
Ba9 N4 2.825118 1_455
Ba9 Br0 3.468612 1_555
Ba9 Br0 3.468612 1_455
Ba9 Br0 3.468614 1_565
