# generated using pymatgen
data_Ta3S2
_symmetry_space_group_name_H-M   'P 1'
_cell_length_a   5.65016478
_cell_length_b   7.50008503
_cell_length_c   9.11618445
_cell_angle_alpha   90.00000000
_cell_angle_beta   108.05260657
_cell_angle_gamma   90.00000000
_symmetry_Int_Tables_number   1
_chemical_formula_structural   Ta3S2
_chemical_formula_sum   'Ta12 S8'
_cell_volume   367.29664865
_cell_formula_units_Z   4
loop_
 _symmetry_equiv_pos_site_id
 _symmetry_equiv_pos_as_xyz
  1  'x, y, z'
loop_
 _atom_site_type_symbol
 _atom_site_label
 _atom_site_symmetry_multiplicity
 _atom_site_fract_x
 _atom_site_fract_y
 _atom_site_fract_z
 _atom_site_occupancy
  Ta  Ta0  1  0.72809506  0.65784574  0.49998952  1
  Ta  Ta1  1  0.22809506  0.34215426  0.49998952  1
  Ta  Ta2  1  0.99569597  0.99438740  0.49999424  1
  Ta  Ta3  1  0.49569597  0.00561260  0.49999424  1
  Ta  Ta4  1  0.16781564  0.71971559  0.33394073  1
  Ta  Ta5  1  0.83408693  0.28030426  0.66606739  1
  Ta  Ta6  1  0.66781564  0.28028441  0.33394073  1
  Ta  Ta7  1  0.33408693  0.71969574  0.66606739  1
  Ta  Ta8  1  0.10228094  0.10449246  0.21668313  1
  Ta  Ta9  1  0.88562477  0.89550889  0.78334774  1
  Ta  Ta10  1  0.60228094  0.89550754  0.21668313  1
  Ta  Ta11  1  0.38562477  0.10449111  0.78334774  1
  S  S0  1  0.90946331  0.82836526  0.08251690  1
  S  S1  1  0.82697971  0.17165273  0.91743138  1
  S  S2  1  0.40946331  0.17163474  0.08251690  1
  S  S3  1  0.32697971  0.82834727  0.91743138  1
  S  S4  1  0.48732025  0.58468721  0.23427376  1
  S  S5  1  0.25324042  0.41533163  0.76575520  1
  S  S6  1  0.98732025  0.41531279  0.23427376  1
  S  S7  1  0.75324042  0.58466837  0.76575520  1
loop_
_geom_bond_atom_site_label_1
_geom_bond_atom_site_label_2
_geom_bond_distance
_geom_bond_site_symmetry_2
Ta0 Ta3 2.920168 1_565
Ta0 Ta2 2.942296 1_555
Ta1 Ta2 2.920168 1_445
Ta1 Ta3 2.942296 1_555
Ta2 Ta3 2.826337 1_665
Ta2 Ta3 2.826337 1_565
Ta2 Ta4 2.897161 1_655
Ta2 Ta7 2.897948 1_655
Ta2 Ta5 2.929350 1_565
Ta2 Ta6 2.929722 1_565
Ta2 Ta9 2.933401 1_555
Ta2 Ta8 2.946018 1_665
Ta3 Ta6 2.897161 1_555
Ta3 Ta5 2.897948 1_555
Ta3 Ta7 2.929350 1_545
Ta3 Ta4 2.929722 1_545
Ta3 Ta8 2.933146 1_555
Ta3 Ta9 2.946371 1_545
Ta10 Ta2 2.933146 1_555
Ta10 Ta3 2.946018 1_565
Ta11 Ta3 2.933401 1_555
Ta11 Ta2 2.946371 1_445
S0 Ta4 2.444301 1_655
S0 Ta10 2.465283 1_555
S0 Ta8 2.479100 1_665
S0 Ta9 2.735348 1_554
S1 Ta5 2.444091 1_555
S1 Ta11 2.465221 1_555
S1 Ta9 2.478786 1_545
S1 Ta8 2.735956 1_656
S2 Ta6 2.444301 1_555
S2 Ta8 2.465283 1_555
S2 Ta10 2.479100 1_545
S2 Ta11 2.735348 1_554
S3 Ta7 2.444091 1_555
S3 Ta9 2.465221 1_455
S3 Ta11 2.478786 1_565
S3 Ta10 2.735956 1_556
S4 Ta10 2.438561 1_555
S4 Ta0 2.444792 1_555
S4 Ta4 2.475207 1_555
S4 Ta6 2.550213 1_555
S5 Ta11 2.438435 1_555
S5 Ta1 2.444970 1_555
S5 Ta5 2.475143 1_455
S5 Ta7 2.550058 1_555
S6 Ta8 2.438561 1_655
S6 Ta1 2.444792 1_655
S6 Ta6 2.475207 1_555
S6 Ta4 2.550213 1_655
S7 Ta9 2.438435 1_555
S7 Ta0 2.444970 1_555
S7 Ta7 2.475143 1_555
S7 Ta5 2.550058 1_555
