# generated using pymatgen
data_DyMg149
_symmetry_space_group_name_H-M   'P 1'
_cell_length_a   16.01173744
_cell_length_b   16.01174304
_cell_length_c   15.64141407
_cell_angle_alpha   90.00000000
_cell_angle_beta   90.00000000
_cell_angle_gamma   120.00001158
_symmetry_Int_Tables_number   1
_chemical_formula_structural   DyMg149
_chemical_formula_sum   'Dy1 Mg149'
_cell_volume   3472.83112990
_cell_formula_units_Z   1
loop_
 _symmetry_equiv_pos_site_id
 _symmetry_equiv_pos_as_xyz
  1  'x, y, z'
loop_
 _atom_site_type_symbol
 _atom_site_label
 _atom_site_symmetry_multiplicity
 _atom_site_fract_x
 _atom_site_fract_y
 _atom_site_fract_z
 _atom_site_occupancy
  Dy  Dy0  1  -0.00000000  -0.00000000  -0.00000000  1
  Mg  Mg0  1  0.60007194  0.20014388  -0.00000000  1
  Mg  Mg1  1  0.79937626  0.20062374  -0.00000000  1
  Mg  Mg2  1  0.40124748  0.20062374  -0.00000000  1
  Mg  Mg3  1  0.00282224  0.20487204  -0.00000000  1
  Mg  Mg4  1  0.20204980  0.20487204  -0.00000000  1
  Mg  Mg5  1  0.00015015  0.40022882  -0.00000000  1
  Mg  Mg6  1  0.40007867  0.40022882  -0.00000000  1
  Mg  Mg7  1  0.79985612  0.39992806  -0.00000000  1
  Mg  Mg8  1  0.60007194  0.39992806  -0.00000000  1
  Mg  Mg9  1  0.20156965  0.40313930  -0.00000000  1
  Mg  Mg10  1  0.79937626  0.59875252  -0.00000000  1
  Mg  Mg11  1  0.20050195  0.60025097  -0.00000000  1
  Mg  Mg12  1  0.39974903  0.60025097  -0.00000000  1
  Mg  Mg13  1  0.00015015  0.59992133  -0.00000000  1
  Mg  Mg14  1  0.59977018  0.59992133  -0.00000000  1
  Mg  Mg15  1  0.20156965  0.79843035  -0.00000000  1
  Mg  Mg16  1  0.59686070  0.79843035  -0.00000000  1
  Mg  Mg17  1  0.00282224  0.79795020  -0.00000000  1
  Mg  Mg18  1  0.79512796  0.79795020  -0.00000000  1
  Mg  Mg19  1  0.39974903  0.79949805  -0.00000000  1
  Mg  Mg20  1  0.79512796  0.99717776  -0.00000000  1
  Mg  Mg21  1  0.20204980  0.99717776  -0.00000000  1
  Mg  Mg22  1  0.40007867  0.99984885  -0.00000000  1
  Mg  Mg23  1  0.59977018  0.99984985  -0.00000000  1
  Mg  Mg24  1  0.26403557  0.13201829  0.16470269  1
  Mg  Mg25  1  0.86798171  0.13201829  0.16470269  1
  Mg  Mg26  1  0.86798171  0.73596443  0.16470269  1
  Mg  Mg27  1  0.66666600  0.33333300  0.16606477  1
  Mg  Mg28  1  0.46566410  0.13301219  0.16652497  1
  Mg  Mg29  1  0.66734708  0.13301219  0.16652497  1
  Mg  Mg30  1  0.46566410  0.33265292  0.16652497  1
  Mg  Mg31  1  0.86698781  0.33265292  0.16652497  1
  Mg  Mg32  1  0.66734708  0.53433490  0.16652497  1
  Mg  Mg33  1  0.86698781  0.53433490  0.16652497  1
  Mg  Mg34  1  0.06674004  0.53336952  0.16725694  1
  Mg  Mg35  1  0.46662948  0.53337052  0.16725694  1
  Mg  Mg36  1  0.46662948  0.93325996  0.16725694  1
  Mg  Mg37  1  0.26713333  0.53426466  0.16731466  1
  Mg  Mg38  1  0.46573434  0.73286767  0.16731466  1
  Mg  Mg39  1  0.26713333  0.73286767  0.16731466  1
  Mg  Mg40  1  0.26751810  0.33554650  0.16766830  1
  Mg  Mg41  1  0.06802840  0.33554650  0.16766830  1
  Mg  Mg42  1  0.06802840  0.73248190  0.16766830  1
  Mg  Mg43  1  0.66445350  0.73248190  0.16766830  1
  Mg  Mg44  1  0.26751810  0.93197060  0.16766830  1
  Mg  Mg45  1  0.66445350  0.93197160  0.16766830  1
  Mg  Mg46  1  0.06797324  0.13594648  0.16962303  1
  Mg  Mg47  1  0.86405352  0.93202676  0.16962303  1
  Mg  Mg48  1  0.06797324  0.93202676  0.16962303  1
  Mg  Mg49  1  0.39967362  0.19983631  0.33279970  1
  Mg  Mg50  1  0.80016369  0.19983731  0.33279970  1
  Mg  Mg51  1  0.80016369  0.60032638  0.33279970  1
  Mg  Mg52  1  0.59996694  0.19993387  0.33272886  1
  Mg  Mg53  1  0.59996694  0.40003306  0.33272886  1
  Mg  Mg54  1  0.80006613  0.40003306  0.33272886  1
  Mg  Mg55  1  0.20059361  0.00002072  0.33348134  1
  Mg  Mg56  1  0.79942710  0.00002072  0.33348134  1
  Mg  Mg57  1  0.99997828  0.20057290  0.33348134  1
  Mg  Mg58  1  0.20059361  0.20057290  0.33348134  1
  Mg  Mg59  1  0.99997828  0.79940539  0.33348134  1
  Mg  Mg60  1  0.79942710  0.79940539  0.33348134  1
  Mg  Mg61  1  0.40045331  0.00017693  0.33375096  1
  Mg  Mg62  1  0.59972462  0.00017693  0.33375096  1
  Mg  Mg63  1  0.99982207  0.40027638  0.33375096  1
  Mg  Mg64  1  0.40045331  0.40027638  0.33375096  1
  Mg  Mg65  1  0.99982207  0.59954669  0.33375096  1
  Mg  Mg66  1  0.59972462  0.59954669  0.33375096  1
  Mg  Mg67  1  0.40010350  0.59989550  0.33362076  1
  Mg  Mg68  1  0.19979201  0.59989550  0.33362076  1
  Mg  Mg69  1  0.40010350  0.80020799  0.33362076  1
  Mg  Mg70  1  0.20019035  0.40038070  0.33413538  1
  Mg  Mg71  1  0.20019035  0.79980865  0.33413538  1
  Mg  Mg72  1  0.59961930  0.79980965  0.33413538  1
  Mg  Mg73  1  -0.00000000  -0.00000000  0.33477093  1
  Mg  Mg74  1  0.26716516  0.13358308  0.50000000  1
  Mg  Mg75  1  0.86641692  0.13358308  0.50000000  1
  Mg  Mg76  1  0.06679638  0.13359175  0.50000000  1
  Mg  Mg77  1  0.46699172  0.13412977  0.50000000  1
  Mg  Mg78  1  0.66713905  0.13413077  0.50000000  1
  Mg  Mg79  1  0.46699172  0.33286095  0.50000000  1
  Mg  Mg80  1  0.86587023  0.33286095  0.50000000  1
  Mg  Mg81  1  0.66666600  0.33333300  0.50000000  1
  Mg  Mg82  1  0.06685662  0.33357560  0.50000000  1
  Mg  Mg83  1  0.26671898  0.33357560  0.50000000  1
  Mg  Mg84  1  0.66713905  0.53300828  0.50000000  1
  Mg  Mg85  1  0.86587023  0.53300828  0.50000000  1
  Mg  Mg86  1  0.06601803  0.53300902  0.50000000  1
  Mg  Mg87  1  0.46699098  0.53300902  0.50000000  1
  Mg  Mg88  1  0.26676892  0.53353684  0.50000000  1
  Mg  Mg89  1  0.86641692  0.73283484  0.50000000  1
  Mg  Mg90  1  0.06685662  0.73328102  0.50000000  1
  Mg  Mg91  1  0.66642440  0.73328102  0.50000000  1
  Mg  Mg92  1  0.46646316  0.73323108  0.50000000  1
  Mg  Mg93  1  0.26676892  0.73323108  0.50000000  1
  Mg  Mg94  1  0.06679638  0.93320362  0.50000000  1
  Mg  Mg95  1  0.86640825  0.93320362  0.50000000  1
  Mg  Mg96  1  0.26671898  0.93314338  0.50000000  1
  Mg  Mg97  1  0.66642440  0.93314338  0.50000000  1
  Mg  Mg98  1  0.46699098  0.93398297  0.50000000  1
  Mg  Mg99  1  -0.00000000  -0.00000000  0.66522907  1
  Mg  Mg100  1  0.20019035  0.40038070  0.66586462  1
  Mg  Mg101  1  0.20019035  0.79980865  0.66586462  1
  Mg  Mg102  1  0.59961930  0.79980965  0.66586462  1
  Mg  Mg103  1  0.40010350  0.59989550  0.66637924  1
  Mg  Mg104  1  0.19979201  0.59989550  0.66637924  1
  Mg  Mg105  1  0.40010350  0.80020799  0.66637924  1
  Mg  Mg106  1  0.40045331  0.00017693  0.66624904  1
  Mg  Mg107  1  0.59972462  0.00017693  0.66624904  1
  Mg  Mg108  1  0.99982207  0.40027638  0.66624904  1
  Mg  Mg109  1  0.40045331  0.40027638  0.66624904  1
  Mg  Mg110  1  0.99982207  0.59954669  0.66624904  1
  Mg  Mg111  1  0.59972462  0.59954669  0.66624904  1
  Mg  Mg112  1  0.20059361  0.00002072  0.66651866  1
  Mg  Mg113  1  0.79942710  0.00002072  0.66651866  1
  Mg  Mg114  1  0.99997828  0.20057290  0.66651866  1
  Mg  Mg115  1  0.20059361  0.20057290  0.66651866  1
  Mg  Mg116  1  0.99997828  0.79940539  0.66651866  1
  Mg  Mg117  1  0.79942710  0.79940539  0.66651866  1
  Mg  Mg118  1  0.59996694  0.19993387  0.66727114  1
  Mg  Mg119  1  0.59996694  0.40003306  0.66727114  1
  Mg  Mg120  1  0.80006613  0.40003306  0.66727114  1
  Mg  Mg121  1  0.39967362  0.19983631  0.66720030  1
  Mg  Mg122  1  0.80016369  0.19983731  0.66720030  1
  Mg  Mg123  1  0.80016369  0.60032638  0.66720030  1
  Mg  Mg124  1  0.06797324  0.13594648  0.83037697  1
  Mg  Mg125  1  0.86405352  0.93202676  0.83037697  1
  Mg  Mg126  1  0.06797324  0.93202676  0.83037697  1
  Mg  Mg127  1  0.26751810  0.33554650  0.83233170  1
  Mg  Mg128  1  0.06802840  0.33554650  0.83233170  1
  Mg  Mg129  1  0.06802840  0.73248190  0.83233170  1
  Mg  Mg130  1  0.66445350  0.73248190  0.83233170  1
  Mg  Mg131  1  0.26751810  0.93197060  0.83233170  1
  Mg  Mg132  1  0.66445350  0.93197160  0.83233170  1
  Mg  Mg133  1  0.26713333  0.53426466  0.83268534  1
  Mg  Mg134  1  0.46573434  0.73286767  0.83268534  1
  Mg  Mg135  1  0.26713333  0.73286767  0.83268534  1
  Mg  Mg136  1  0.06674004  0.53336952  0.83274306  1
  Mg  Mg137  1  0.46662948  0.53337052  0.83274306  1
  Mg  Mg138  1  0.46662948  0.93325996  0.83274306  1
  Mg  Mg139  1  0.46566410  0.13301219  0.83347503  1
  Mg  Mg140  1  0.66734708  0.13301219  0.83347503  1
  Mg  Mg141  1  0.46566410  0.33265292  0.83347503  1
  Mg  Mg142  1  0.86698781  0.33265292  0.83347503  1
  Mg  Mg143  1  0.66734708  0.53433490  0.83347503  1
  Mg  Mg144  1  0.86698781  0.53433490  0.83347503  1
  Mg  Mg145  1  0.66666600  0.33333300  0.83393423  1
  Mg  Mg146  1  0.26403557  0.13201829  0.83529731  1
  Mg  Mg147  1  0.86798171  0.13201829  0.83529731  1
  Mg  Mg148  1  0.86798171  0.73596443  0.83529731  1
loop_
_geom_bond_atom_site_label_1
_geom_bond_atom_site_label_2
_geom_bond_distance
_geom_bond_site_symmetry_2
Dy0 Mg125 3.254661 1_444
Dy0 Mg47 3.254661 1_445
Dy0 Mg46 3.254661 1_555
Dy0 Mg124 3.254661 1_554
Dy0 Mg48 3.254661 1_545
Dy0 Mg126 3.254661 1_544
Dy0 Mg18 3.257998 1_445
Dy0 Mg20 3.257998 1_445
Dy0 Mg21 3.257998 1_545
Dy0 Mg4 3.257998 1_555
Dy0 Mg17 3.257999 1_545
Dy0 Mg3 3.257999 1_555
Mg0 Mg27 3.187146 1_555
Mg0 Mg145 3.187158 1_554
Mg0 Mg1 3.187374 1_555
Mg0 Mg2 3.187374 1_555
Mg0 Mg7 3.198892 1_555
Mg0 Mg8 3.198893 1_555
Mg0 Mg140 3.202811 1_554
Mg0 Mg29 3.202811 1_555
Mg0 Mg28 3.202819 1_555
Mg0 Mg139 3.202819 1_554
Mg0 Mg23 3.204643 1_545
Mg0 Mg22 3.204658 1_545
Mg1 Mg140 3.183841 1_554
Mg1 Mg29 3.183841 1_555
Mg1 Mg31 3.183841 1_555
Mg1 Mg142 3.183841 1_554
Mg1 Mg7 3.187375 1_555
Mg1 Mg25 3.202620 1_555
Mg1 Mg147 3.202620 1_554
Mg1 Mg5 3.205422 1_655
Mg1 Mg23 3.205430 1_545
Mg1 Mg3 3.224050 1_655
Mg1 Mg20 3.224052 1_545
Mg2 Mg28 3.183833 1_555
Mg2 Mg30 3.183841 1_555
Mg2 Mg8 3.187374 1_555
Mg2 Mg24 3.202628 1_555
Mg2 Mg6 3.205424 1_555
Mg2 Mg22 3.205440 1_545
Mg2 Mg21 3.224051 1_545
Mg2 Mg4 3.224051 1_555
Mg3 Mg5 3.149613 1_555
Mg3 Mg9 3.178454 1_555
Mg3 Mg41 3.187671 1_555
Mg3 Mg4 3.189979 1_555
Mg3 Mg46 3.239853 1_555
Mg4 Mg6 3.149612 1_555
Mg4 Mg9 3.178455 1_555
Mg4 Mg40 3.187671 1_555
Mg4 Mg46 3.239852 1_555
Mg5 Mg9 3.202030 1_555
Mg5 Mg7 3.204650 1_455
Mg6 Mg9 3.202030 1_555
Mg6 Mg8 3.204650 1_555
Mg7 Mg8 3.198892 1_555
Mg10 Mg143 3.183841 1_554
Mg10 Mg32 3.183841 1_555
Mg10 Mg144 3.183841 1_554
Mg10 Mg33 3.183841 1_555
Mg10 Mg8 3.187374 1_555
Mg10 Mg7 3.187375 1_555
Mg10 Mg148 3.202629 1_554
Mg10 Mg26 3.202629 1_555
Mg10 Mg13 3.205422 1_655
Mg10 Mg14 3.205438 1_555
Mg10 Mg17 3.224050 1_655
Mg10 Mg18 3.224052 1_555
Mg11 Mg9 3.164684 1_555
Mg11 Mg15 3.164684 1_555
Mg11 Mg19 3.190292 1_555
Mg11 Mg12 3.190292 1_555
Mg11 Mg135 3.198533 1_554
Mg11 Mg39 3.198533 1_555
Mg11 Mg133 3.198541 1_554
Mg11 Mg37 3.198541 1_555
Mg11 Mg5 3.205345 1_555
Mg11 Mg13 3.205345 1_555
Mg11 Mg34 3.206948 1_555
Mg11 Mg136 3.206948 1_554
Mg12 Mg9 3.164683 1_555
Mg12 Mg16 3.164683 1_555
Mg12 Mg19 3.190293 1_555
Mg12 Mg133 3.198524 1_554
Mg12 Mg37 3.198524 1_555
Mg12 Mg134 3.198533 1_554
Mg12 Mg38 3.198533 1_555
Mg12 Mg14 3.205328 1_555
Mg12 Mg6 3.205346 1_555
Mg12 Mg35 3.206940 1_555
Mg12 Mg137 3.206940 1_554
Mg13 Mg17 3.149613 1_555
Mg13 Mg33 3.192839 1_455
Mg13 Mg144 3.192839 1_454
Mg13 Mg5 3.197425 1_555
Mg13 Mg34 3.201982 1_555
Mg13 Mg136 3.201982 1_554
Mg13 Mg15 3.202030 1_555
Mg13 Mg42 3.202711 1_555
Mg13 Mg7 3.204650 1_455
Mg14 Mg18 3.149620 1_555
Mg14 Mg143 3.192848 1_554
Mg14 Mg32 3.192848 1_555
Mg14 Mg6 3.197416 1_555
Mg14 Mg35 3.201974 1_555
Mg14 Mg16 3.202023 1_555
Mg14 Mg43 3.202711 1_555
Mg14 Mg8 3.204659 1_555
Mg15 Mg19 3.164683 1_555
Mg15 Mg17 3.178454 1_555
Mg15 Mg21 3.178455 1_555
Mg15 Mg39 3.186692 1_555
Mg15 Mg22 3.202021 1_555
Mg15 Mg44 3.210453 1_555
Mg15 Mg42 3.210460 1_555
Mg16 Mg19 3.164683 1_555
Mg16 Mg18 3.178454 1_555
Mg16 Mg20 3.178454 1_555
Mg16 Mg38 3.186692 1_555
Mg16 Mg23 3.202039 1_555
Mg16 Mg43 3.210461 1_555
Mg16 Mg45 3.210461 1_555
Mg17 Mg26 3.184392 1_455
Mg17 Mg42 3.187671 1_555
Mg17 Mg21 3.189979 1_555
Mg17 Mg48 3.239853 1_555
Mg17 Mg18 3.325546 1_455
Mg18 Mg26 3.184384 1_555
Mg18 Mg43 3.187670 1_555
Mg18 Mg20 3.189980 1_555
Mg18 Mg47 3.239853 1_555
Mg19 Mg39 3.198524 1_555
Mg19 Mg38 3.198525 1_555
Mg19 Mg22 3.205330 1_555
Mg19 Mg23 3.205337 1_555
Mg19 Mg36 3.206948 1_555
Mg20 Mg23 3.149628 1_555
Mg20 Mg25 3.184392 1_565
Mg20 Mg45 3.187670 1_555
Mg20 Mg47 3.239853 1_555
Mg20 Mg3 3.325546 1_665
Mg21 Mg22 3.149620 1_555
Mg21 Mg24 3.184392 1_565
Mg21 Mg44 3.187679 1_555
Mg21 Mg48 3.239852 1_555
Mg21 Mg4 3.325547 1_565
Mg22 Mg28 3.192848 1_565
Mg22 Mg23 3.197400 1_555
Mg22 Mg36 3.201966 1_555
Mg22 Mg44 3.202711 1_555
Mg23 Mg29 3.192840 1_565
Mg23 Mg36 3.201974 1_555
Mg23 Mg45 3.202719 1_555
Mg24 Mg46 3.172149 1_555
Mg24 Mg48 3.172157 1_545
Mg24 Mg4 3.184384 1_555
Mg24 Mg58 3.212645 1_555
Mg24 Mg55 3.212653 1_555
Mg24 Mg30 3.220622 1_555
Mg24 Mg28 3.220622 1_555
Mg24 Mg40 3.231655 1_555
Mg24 Mg44 3.231687 1_545
Mg24 Mg49 3.232743 1_555
Mg25 Mg46 3.172165 1_655
Mg25 Mg47 3.172166 1_545
Mg25 Mg3 3.184391 1_655
Mg25 Mg57 3.212644 1_555
Mg25 Mg56 3.212653 1_555
Mg25 Mg29 3.220622 1_555
Mg25 Mg31 3.220623 1_555
Mg25 Mg45 3.231661 1_545
Mg25 Mg41 3.231661 1_655
Mg25 Mg50 3.232735 1_555
Mg26 Mg47 3.172150 1_555
Mg26 Mg48 3.172157 1_655
Mg26 Mg60 3.212637 1_555
Mg26 Mg59 3.212645 1_555
Mg26 Mg32 3.220630 1_555
Mg26 Mg33 3.220639 1_555
Mg26 Mg43 3.231653 1_555
Mg26 Mg42 3.231670 1_655
Mg26 Mg51 3.232743 1_555
Mg27 Mg8 3.187146 1_555
Mg27 Mg7 3.187153 1_555
Mg27 Mg53 3.196474 1_555
Mg27 Mg52 3.196474 1_555
Mg27 Mg54 3.196482 1_555
Mg27 Mg28 3.212959 1_555
Mg27 Mg29 3.212960 1_555
Mg27 Mg32 3.212960 1_555
Mg27 Mg31 3.212967 1_555
Mg27 Mg33 3.212967 1_555
Mg27 Mg30 3.212967 1_555
Mg28 Mg49 3.186826 1_555
Mg28 Mg44 3.196146 1_545
Mg28 Mg30 3.196596 1_555
Mg28 Mg52 3.197890 1_555
Mg28 Mg61 3.199196 1_555
Mg28 Mg36 3.206158 1_545
Mg28 Mg29 3.229295 1_555
Mg29 Mg50 3.186841 1_555
Mg29 Mg45 3.196147 1_545
Mg29 Mg31 3.196595 1_555
Mg29 Mg52 3.197882 1_555
Mg29 Mg62 3.199196 1_555
Mg29 Mg36 3.206157 1_545
Mg30 Mg49 3.186842 1_555
Mg30 Mg6 3.192832 1_555
Mg30 Mg40 3.196129 1_555
Mg30 Mg53 3.197890 1_555
Mg30 Mg64 3.199188 1_555
Mg30 Mg8 3.202819 1_555
Mg30 Mg35 3.206158 1_555
Mg30 Mg32 3.229287 1_555
Mg31 Mg50 3.186834 1_555
Mg31 Mg5 3.192839 1_655
Mg31 Mg41 3.196145 1_655
Mg31 Mg54 3.197882 1_555
Mg31 Mg63 3.199188 1_555
Mg31 Mg7 3.202811 1_555
Mg31 Mg34 3.206149 1_655
Mg31 Mg33 3.229280 1_555
Mg32 Mg51 3.186841 1_555
Mg32 Mg43 3.196146 1_555
Mg32 Mg33 3.196595 1_555
Mg32 Mg53 3.197882 1_555
Mg32 Mg66 3.199188 1_555
Mg32 Mg8 3.202811 1_555
Mg32 Mg35 3.206165 1_555
Mg33 Mg51 3.186834 1_555
Mg33 Mg42 3.196145 1_655
Mg33 Mg54 3.197882 1_555
Mg33 Mg65 3.199188 1_555
Mg33 Mg7 3.202811 1_555
Mg33 Mg34 3.206157 1_655
Mg34 Mg41 3.177863 1_555
Mg34 Mg42 3.177879 1_555
Mg34 Mg68 3.189858 1_555
Mg34 Mg63 3.191856 1_455
Mg34 Mg65 3.191872 1_455
Mg34 Mg39 3.201503 1_555
Mg34 Mg37 3.201503 1_555
Mg34 Mg5 3.201974 1_555
Mg35 Mg40 3.177869 1_555
Mg35 Mg43 3.177869 1_555
Mg35 Mg67 3.189850 1_555
Mg35 Mg64 3.191864 1_555
Mg35 Mg66 3.191871 1_555
Mg35 Mg37 3.201462 1_555
Mg35 Mg38 3.201488 1_555
Mg35 Mg6 3.201982 1_555
Mg36 Mg44 3.177853 1_555
Mg36 Mg45 3.177877 1_555
Mg36 Mg69 3.189859 1_555
Mg36 Mg61 3.191856 1_565
Mg36 Mg62 3.191871 1_565
Mg36 Mg39 3.201479 1_555
Mg36 Mg38 3.201488 1_555
Mg37 Mg38 3.179963 1_555
Mg37 Mg39 3.179980 1_555
Mg37 Mg40 3.184914 1_555
Mg37 Mg41 3.184929 1_555
Mg37 Mg9 3.186684 1_555
Mg37 Mg67 3.188495 1_555
Mg37 Mg68 3.188511 1_555
Mg37 Mg70 3.202366 1_555
Mg38 Mg39 3.179947 1_555
Mg38 Mg45 3.184929 1_555
Mg38 Mg43 3.184937 1_555
Mg38 Mg69 3.188503 1_555
Mg38 Mg67 3.188512 1_555
Mg38 Mg72 3.202373 1_555
Mg39 Mg44 3.184914 1_555
Mg39 Mg42 3.184937 1_555
Mg39 Mg69 3.188495 1_555
Mg39 Mg68 3.188511 1_555
Mg39 Mg71 3.202366 1_555
Mg40 Mg70 3.184120 1_555
Mg40 Mg64 3.185456 1_555
Mg40 Mg41 3.194177 1_555
Mg40 Mg46 3.195648 1_555
Mg40 Mg58 3.198367 1_555
Mg40 Mg6 3.202711 1_555
Mg40 Mg9 3.210461 1_555
Mg41 Mg70 3.184119 1_555
Mg41 Mg63 3.185464 1_455
Mg41 Mg46 3.195649 1_555
Mg41 Mg57 3.198367 1_455
Mg41 Mg5 3.202711 1_555
Mg41 Mg9 3.210460 1_555
Mg42 Mg71 3.184119 1_555
Mg42 Mg65 3.185457 1_455
Mg42 Mg44 3.194169 1_555
Mg42 Mg48 3.195649 1_555
Mg42 Mg59 3.198367 1_455
Mg43 Mg72 3.184120 1_555
Mg43 Mg66 3.185457 1_555
Mg43 Mg45 3.194178 1_555
Mg43 Mg47 3.195648 1_555
Mg43 Mg60 3.198367 1_555
Mg44 Mg71 3.184120 1_555
Mg44 Mg61 3.185456 1_565
Mg44 Mg48 3.195656 1_555
Mg44 Mg55 3.198375 1_565
Mg45 Mg72 3.184120 1_555
Mg45 Mg62 3.185448 1_565
Mg45 Mg47 3.195648 1_555
Mg45 Mg56 3.198367 1_565
Mg46 Mg58 3.154593 1_555
Mg46 Mg57 3.154601 1_455
Mg46 Mg73 3.197858 1_555
Mg46 Mg47 3.265109 1_445
Mg46 Mg48 3.265110 1_545
Mg47 Mg56 3.154593 1_565
Mg47 Mg60 3.154601 1_555
Mg47 Mg73 3.197857 1_665
Mg47 Mg48 3.265109 1_655
Mg48 Mg55 3.154593 1_565
Mg48 Mg59 3.154601 1_455
Mg48 Mg73 3.197858 1_565
Mg49 Mg55 3.193540 1_555
Mg49 Mg58 3.193548 1_555
Mg49 Mg74 3.196202 1_555
Mg49 Mg77 3.200348 1_555
Mg49 Mg79 3.200348 1_555
Mg49 Mg61 3.203190 1_555
Mg49 Mg64 3.203206 1_555
Mg49 Mg52 3.206263 1_555
Mg49 Mg53 3.206271 1_555
Mg50 Mg57 3.193524 1_555
Mg50 Mg56 3.193549 1_555
Mg50 Mg75 3.196194 1_555
Mg50 Mg80 3.200340 1_555
Mg50 Mg78 3.200348 1_555
Mg50 Mg63 3.203181 1_555
Mg50 Mg62 3.203196 1_555
Mg50 Mg54 3.206264 1_555
Mg50 Mg52 3.206271 1_555
Mg51 Mg59 3.193524 1_555
Mg51 Mg60 3.193533 1_555
Mg51 Mg89 3.196202 1_555
Mg51 Mg84 3.200348 1_555
Mg51 Mg85 3.200348 1_555
Mg51 Mg65 3.203172 1_555
Mg51 Mg66 3.203188 1_555
Mg51 Mg54 3.206265 1_555
Mg51 Mg53 3.206271 1_555
Mg52 Mg61 3.196550 1_555
Mg52 Mg62 3.196559 1_555
Mg52 Mg77 3.200851 1_555
Mg52 Mg78 3.200852 1_555
Mg52 Mg54 3.203936 1_555
Mg52 Mg53 3.203937 1_555
Mg52 Mg81 3.204223 1_555
Mg53 Mg66 3.196543 1_555
Mg53 Mg64 3.196550 1_555
Mg53 Mg79 3.200851 1_555
Mg53 Mg84 3.200852 1_555
Mg53 Mg54 3.203936 1_555
Mg53 Mg81 3.204223 1_555
Mg54 Mg63 3.196533 1_555
Mg54 Mg65 3.196542 1_555
Mg54 Mg85 3.200852 1_555
Mg54 Mg80 3.200860 1_555
Mg54 Mg81 3.204230 1_555
Mg55 Mg96 3.191445 1_545
Mg55 Mg74 3.195932 1_555
Mg55 Mg94 3.197819 1_545
Mg55 Mg61 3.198854 1_555
Mg55 Mg71 3.202537 1_545
Mg55 Mg58 3.211190 1_555
Mg55 Mg73 3.211750 1_555
Mg55 Mg59 3.212200 1_445
Mg56 Mg97 3.191445 1_545
Mg56 Mg75 3.195932 1_555
Mg56 Mg95 3.197828 1_545
Mg56 Mg62 3.198838 1_555
Mg56 Mg72 3.202520 1_545
Mg56 Mg57 3.211181 1_555
Mg56 Mg73 3.211750 1_655
Mg56 Mg60 3.212201 1_545
Mg57 Mg82 3.191445 1_655
Mg57 Mg75 3.195924 1_555
Mg57 Mg76 3.197836 1_655
Mg57 Mg63 3.198855 1_555
Mg57 Mg70 3.202528 1_655
Mg57 Mg73 3.211759 1_655
Mg57 Mg58 3.212200 1_655
Mg58 Mg83 3.191445 1_555
Mg58 Mg74 3.195925 1_555
Mg58 Mg76 3.197819 1_555
Mg58 Mg64 3.198854 1_555
Mg58 Mg70 3.202521 1_555
Mg58 Mg73 3.211750 1_555
Mg59 Mg90 3.191446 1_655
Mg59 Mg89 3.195924 1_555
Mg59 Mg94 3.197827 1_655
Mg59 Mg65 3.198839 1_555
Mg59 Mg71 3.202536 1_655
Mg59 Mg60 3.211173 1_555
Mg59 Mg73 3.211759 1_665
Mg60 Mg91 3.191445 1_555
Mg60 Mg89 3.195917 1_555
Mg60 Mg95 3.197828 1_555
Mg60 Mg66 3.198838 1_555
Mg60 Mg72 3.202528 1_555
Mg60 Mg73 3.211758 1_665
Mg61 Mg98 3.185827 1_545
Mg61 Mg62 3.190680 1_555
Mg61 Mg96 3.193879 1_545
Mg61 Mg77 3.195647 1_555
Mg61 Mg69 3.199055 1_545
Mg61 Mg71 3.207407 1_545
Mg62 Mg98 3.185843 1_545
Mg62 Mg97 3.193872 1_545
Mg62 Mg78 3.195655 1_555
Mg62 Mg69 3.199070 1_545
Mg62 Mg72 3.207392 1_545
Mg63 Mg86 3.185835 1_655
Mg63 Mg65 3.190665 1_555
Mg63 Mg82 3.193888 1_655
Mg63 Mg80 3.195638 1_555
Mg63 Mg68 3.199062 1_655
Mg63 Mg70 3.207415 1_655
Mg64 Mg87 3.185835 1_555
Mg64 Mg66 3.190672 1_555
Mg64 Mg83 3.193879 1_555
Mg64 Mg79 3.195655 1_555
Mg64 Mg67 3.199055 1_555
Mg64 Mg70 3.207399 1_555
Mg65 Mg86 3.185843 1_655
Mg65 Mg90 3.193880 1_655
Mg65 Mg85 3.195638 1_555
Mg65 Mg68 3.199078 1_655
Mg65 Mg71 3.207399 1_655
Mg66 Mg87 3.185843 1_555
Mg66 Mg91 3.193880 1_555
Mg66 Mg84 3.195647 1_555
Mg66 Mg67 3.199078 1_555
Mg66 Mg72 3.207408 1_555
Mg67 Mg88 3.192327 1_555
Mg67 Mg92 3.192335 1_555
Mg67 Mg87 3.195856 1_555
Mg67 Mg70 3.197783 1_555
Mg67 Mg72 3.197799 1_555
Mg67 Mg68 3.207335 1_555
Mg67 Mg69 3.207352 1_555
Mg68 Mg88 3.192335 1_555
Mg68 Mg93 3.192335 1_555
Mg68 Mg86 3.195856 1_555
Mg68 Mg70 3.197784 1_555
Mg68 Mg71 3.197784 1_555
Mg68 Mg69 3.207343 1_555
Mg69 Mg93 3.192327 1_555
Mg69 Mg92 3.192343 1_555
Mg69 Mg98 3.195864 1_555
Mg69 Mg71 3.197775 1_555
Mg69 Mg72 3.197799 1_555
Mg70 Mg88 3.184330 1_555
Mg70 Mg82 3.185758 1_555
Mg70 Mg83 3.185759 1_555
Mg71 Mg93 3.184330 1_555
Mg71 Mg90 3.185758 1_555
Mg71 Mg96 3.185767 1_555
Mg72 Mg92 3.184329 1_555
Mg72 Mg97 3.185759 1_555
Mg72 Mg91 3.185759 1_555
Mg73 Mg95 3.179750 1_445
Mg73 Mg76 3.179751 1_555
Mg73 Mg94 3.179759 1_545
Mg74 Mg79 3.195187 1_555
Mg74 Mg77 3.195203 1_555
Mg74 Mg83 3.205807 1_555
Mg74 Mg96 3.205823 1_545
Mg74 Mg76 3.208322 1_555
Mg74 Mg94 3.208338 1_545
Mg75 Mg80 3.195172 1_555
Mg75 Mg78 3.195179 1_555
Mg75 Mg82 3.205814 1_655
Mg75 Mg97 3.205814 1_545
Mg75 Mg76 3.208354 1_655
Mg75 Mg95 3.208355 1_545
Mg76 Mg99 3.179751 1_555
Mg76 Mg83 3.201599 1_555
Mg76 Mg82 3.201608 1_555
Mg76 Mg95 3.208562 1_445
Mg76 Mg94 3.208563 1_545
Mg77 Mg79 3.182033 1_555
Mg77 Mg81 3.193368 1_555
Mg77 Mg98 3.204693 1_545
Mg77 Mg78 3.204698 1_555
Mg77 Mg96 3.212443 1_545
Mg78 Mg80 3.182023 1_555
Mg78 Mg81 3.193369 1_555
Mg78 Mg98 3.204716 1_545
Mg78 Mg97 3.212452 1_545
Mg79 Mg81 3.193360 1_555
Mg79 Mg84 3.204706 1_555
Mg79 Mg87 3.204725 1_555
Mg79 Mg83 3.212451 1_555
Mg80 Mg81 3.193392 1_555
Mg80 Mg85 3.204708 1_555
Mg80 Mg86 3.204716 1_655
Mg80 Mg82 3.212435 1_655
Mg81 Mg84 3.193369 1_555
Mg81 Mg85 3.193384 1_555
Mg82 Mg86 3.200011 1_555
Mg82 Mg83 3.200144 1_555
Mg82 Mg88 3.201335 1_555
Mg83 Mg87 3.200010 1_555
Mg83 Mg88 3.201328 1_555
Mg84 Mg85 3.182031 1_555
Mg84 Mg89 3.195187 1_555
Mg84 Mg87 3.204724 1_555
Mg84 Mg91 3.212452 1_555
Mg85 Mg89 3.195204 1_555
Mg85 Mg86 3.204708 1_655
Mg85 Mg90 3.212443 1_655
Mg86 Mg90 3.200011 1_555
Mg86 Mg93 3.210145 1_555
Mg86 Mg88 3.210153 1_555
Mg87 Mg91 3.200010 1_555
Mg87 Mg88 3.210137 1_555
Mg87 Mg92 3.210138 1_555
Mg88 Mg92 3.197452 1_555
Mg88 Mg93 3.197453 1_555
Mg89 Mg91 3.205806 1_555
Mg89 Mg90 3.205822 1_655
Mg89 Mg95 3.208323 1_555
Mg89 Mg94 3.208338 1_655
Mg90 Mg96 3.200144 1_555
Mg90 Mg93 3.201343 1_555
Mg90 Mg94 3.201592 1_555
Mg91 Mg97 3.200145 1_555
Mg91 Mg92 3.201327 1_555
Mg91 Mg95 3.201599 1_555
Mg92 Mg93 3.197452 1_555
Mg92 Mg97 3.201335 1_555
Mg92 Mg98 3.210170 1_555
Mg93 Mg96 3.201344 1_555
Mg93 Mg98 3.210153 1_555
Mg94 Mg99 3.179759 1_565
Mg94 Mg96 3.201591 1_555
Mg94 Mg95 3.208562 1_455
Mg95 Mg99 3.179750 1_665
Mg95 Mg97 3.201607 1_555
Mg96 Mg98 3.200002 1_555
Mg97 Mg98 3.200018 1_555
Mg100 Mg128 3.184119 1_555
Mg100 Mg127 3.184120 1_555
Mg100 Mg88 3.184330 1_555
Mg100 Mg82 3.185758 1_555
Mg100 Mg83 3.185759 1_555
Mg100 Mg103 3.197783 1_555
Mg100 Mg104 3.197784 1_555
Mg100 Mg133 3.202366 1_555
Mg100 Mg115 3.202521 1_555
Mg100 Mg114 3.202528 1_455
Mg100 Mg109 3.207399 1_555
Mg100 Mg108 3.207415 1_455
Mg101 Mg129 3.184119 1_555
Mg101 Mg131 3.184120 1_555
Mg101 Mg93 3.184330 1_555
Mg101 Mg90 3.185758 1_555
Mg101 Mg96 3.185767 1_555
Mg101 Mg105 3.197775 1_555
Mg101 Mg104 3.197784 1_555
Mg101 Mg135 3.202366 1_555
Mg101 Mg116 3.202536 1_455
Mg101 Mg112 3.202537 1_565
Mg101 Mg110 3.207399 1_455
Mg101 Mg106 3.207407 1_565
Mg102 Mg132 3.184120 1_555
Mg102 Mg130 3.184120 1_555
Mg102 Mg92 3.184329 1_555
Mg102 Mg97 3.185759 1_555
Mg102 Mg91 3.185759 1_555
Mg102 Mg105 3.197799 1_555
Mg102 Mg103 3.197799 1_555
Mg102 Mg134 3.202373 1_555
Mg102 Mg113 3.202520 1_565
Mg102 Mg117 3.202528 1_555
Mg102 Mg107 3.207392 1_565
Mg102 Mg111 3.207408 1_555
Mg103 Mg133 3.188495 1_555
Mg103 Mg134 3.188512 1_555
Mg103 Mg137 3.189850 1_555
Mg103 Mg88 3.192327 1_555
Mg103 Mg92 3.192335 1_555
Mg103 Mg87 3.195856 1_555
Mg103 Mg109 3.199055 1_555
Mg103 Mg111 3.199078 1_555
Mg103 Mg104 3.207335 1_555
Mg103 Mg105 3.207352 1_555
Mg104 Mg133 3.188511 1_555
Mg104 Mg135 3.188511 1_555
Mg104 Mg136 3.189858 1_555
Mg104 Mg88 3.192335 1_555
Mg104 Mg93 3.192335 1_555
Mg104 Mg86 3.195856 1_555
Mg104 Mg108 3.199062 1_455
Mg104 Mg110 3.199078 1_455
Mg104 Mg105 3.207343 1_555
Mg105 Mg135 3.188495 1_555
Mg105 Mg134 3.188503 1_555
Mg105 Mg138 3.189859 1_555
Mg105 Mg93 3.192327 1_555
Mg105 Mg92 3.192343 1_555
Mg105 Mg98 3.195864 1_555
Mg105 Mg106 3.199055 1_565
Mg105 Mg107 3.199070 1_565
Mg106 Mg131 3.185456 1_545
Mg106 Mg98 3.185827 1_545
Mg106 Mg107 3.190680 1_555
Mg106 Mg138 3.191856 1_545
Mg106 Mg96 3.193879 1_545
Mg106 Mg77 3.195647 1_555
Mg106 Mg118 3.196550 1_555
Mg106 Mg112 3.198854 1_555
Mg106 Mg139 3.199196 1_555
Mg106 Mg121 3.203190 1_555
Mg107 Mg132 3.185448 1_545
Mg107 Mg98 3.185843 1_545
Mg107 Mg138 3.191871 1_545
Mg107 Mg97 3.193872 1_545
Mg107 Mg78 3.195655 1_555
Mg107 Mg118 3.196559 1_555
Mg107 Mg113 3.198838 1_555
Mg107 Mg140 3.199196 1_555
Mg107 Mg122 3.203196 1_555
Mg108 Mg128 3.185464 1_655
Mg108 Mg86 3.185835 1_655
Mg108 Mg110 3.190665 1_555
Mg108 Mg136 3.191856 1_655
Mg108 Mg82 3.193888 1_655
Mg108 Mg80 3.195638 1_555
Mg108 Mg120 3.196533 1_555
Mg108 Mg114 3.198855 1_555
Mg108 Mg142 3.199188 1_555
Mg108 Mg122 3.203181 1_555
Mg109 Mg127 3.185456 1_555
Mg109 Mg87 3.185835 1_555
Mg109 Mg111 3.190672 1_555
Mg109 Mg137 3.191864 1_555
Mg109 Mg83 3.193879 1_555
Mg109 Mg79 3.195655 1_555
Mg109 Mg119 3.196550 1_555
Mg109 Mg115 3.198854 1_555
Mg109 Mg141 3.199188 1_555
Mg109 Mg121 3.203206 1_555
Mg110 Mg129 3.185457 1_655
Mg110 Mg86 3.185843 1_655
Mg110 Mg136 3.191872 1_655
Mg110 Mg90 3.193880 1_655
Mg110 Mg85 3.195638 1_555
Mg110 Mg120 3.196542 1_555
Mg110 Mg116 3.198839 1_555
Mg110 Mg144 3.199188 1_555
Mg110 Mg123 3.203172 1_555
Mg111 Mg130 3.185457 1_555
Mg111 Mg87 3.185843 1_555
Mg111 Mg137 3.191871 1_555
Mg111 Mg91 3.193880 1_555
Mg111 Mg84 3.195647 1_555
Mg111 Mg119 3.196543 1_555
Mg111 Mg117 3.198838 1_555
Mg111 Mg143 3.199188 1_555
Mg111 Mg123 3.203188 1_555
Mg112 Mg126 3.154593 1_545
Mg112 Mg96 3.191445 1_545
Mg112 Mg121 3.193540 1_555
Mg112 Mg74 3.195932 1_555
Mg112 Mg94 3.197819 1_545
Mg112 Mg131 3.198375 1_545
Mg112 Mg115 3.211190 1_555
Mg112 Mg99 3.211750 1_555
Mg112 Mg116 3.212200 1_445
Mg112 Mg146 3.212653 1_555
Mg113 Mg125 3.154593 1_545
Mg113 Mg97 3.191445 1_545
Mg113 Mg122 3.193549 1_555
Mg113 Mg75 3.195932 1_555
Mg113 Mg95 3.197828 1_545
Mg113 Mg132 3.198367 1_545
Mg113 Mg114 3.211181 1_555
Mg113 Mg99 3.211750 1_655
Mg113 Mg117 3.212201 1_545
Mg113 Mg147 3.212653 1_555
Mg114 Mg124 3.154601 1_655
Mg114 Mg82 3.191445 1_655
Mg114 Mg122 3.193524 1_555
Mg114 Mg75 3.195924 1_555
Mg114 Mg76 3.197836 1_655
Mg114 Mg128 3.198367 1_655
Mg114 Mg99 3.211759 1_655
Mg114 Mg115 3.212200 1_655
Mg114 Mg147 3.212644 1_555
Mg115 Mg124 3.154593 1_555
Mg115 Mg83 3.191445 1_555
Mg115 Mg121 3.193548 1_555
Mg115 Mg74 3.195925 1_555
Mg115 Mg76 3.197819 1_555
Mg115 Mg127 3.198367 1_555
Mg115 Mg99 3.211750 1_555
Mg115 Mg146 3.212645 1_555
Mg116 Mg126 3.154601 1_655
Mg116 Mg90 3.191446 1_655
Mg116 Mg123 3.193524 1_555
Mg116 Mg89 3.195924 1_555
Mg116 Mg94 3.197827 1_655
Mg116 Mg129 3.198367 1_655
Mg116 Mg117 3.211173 1_555
Mg116 Mg99 3.211759 1_665
Mg116 Mg148 3.212645 1_555
Mg117 Mg125 3.154601 1_555
Mg117 Mg91 3.191445 1_555
Mg117 Mg123 3.193533 1_555
Mg117 Mg89 3.195917 1_555
Mg117 Mg95 3.197828 1_555
Mg117 Mg130 3.198367 1_555
Mg117 Mg99 3.211758 1_665
Mg117 Mg148 3.212637 1_555
Mg118 Mg145 3.196462 1_555
Mg118 Mg140 3.197882 1_555
Mg118 Mg139 3.197890 1_555
Mg118 Mg77 3.200851 1_555
Mg118 Mg78 3.200852 1_555
Mg118 Mg120 3.203936 1_555
Mg118 Mg119 3.203937 1_555
Mg118 Mg81 3.204223 1_555
Mg118 Mg121 3.206263 1_555
Mg118 Mg122 3.206271 1_555
Mg119 Mg145 3.196462 1_555
Mg119 Mg143 3.197882 1_555
Mg119 Mg141 3.197890 1_555
Mg119 Mg79 3.200851 1_555
Mg119 Mg84 3.200852 1_555
Mg119 Mg120 3.203936 1_555
Mg119 Mg81 3.204223 1_555
Mg119 Mg121 3.206271 1_555
Mg119 Mg123 3.206271 1_555
Mg120 Mg145 3.196469 1_555
Mg120 Mg142 3.197882 1_555
Mg120 Mg144 3.197882 1_555
Mg120 Mg85 3.200852 1_555
Mg120 Mg80 3.200860 1_555
Mg120 Mg81 3.204230 1_555
Mg120 Mg122 3.206264 1_555
Mg120 Mg123 3.206265 1_555
Mg121 Mg139 3.186826 1_555
Mg121 Mg141 3.186842 1_555
Mg121 Mg74 3.196202 1_555
Mg121 Mg77 3.200348 1_555
Mg121 Mg79 3.200348 1_555
Mg121 Mg146 3.232743 1_555
Mg122 Mg142 3.186834 1_555
Mg122 Mg140 3.186841 1_555
Mg122 Mg75 3.196194 1_555
Mg122 Mg80 3.200340 1_555
Mg122 Mg78 3.200348 1_555
Mg122 Mg147 3.232735 1_555
Mg123 Mg144 3.186834 1_555
Mg123 Mg143 3.186841 1_555
Mg123 Mg89 3.196202 1_555
Mg123 Mg84 3.200348 1_555
Mg123 Mg85 3.200348 1_555
Mg123 Mg148 3.232743 1_555
Mg124 Mg146 3.172149 1_555
Mg124 Mg147 3.172165 1_455
Mg124 Mg127 3.195648 1_555
Mg124 Mg128 3.195649 1_555
Mg124 Mg99 3.197858 1_555
Mg124 Mg4 3.239852 1_556
Mg124 Mg3 3.239853 1_556
Mg124 Mg125 3.265109 1_445
Mg124 Mg126 3.265110 1_545
Mg125 Mg148 3.172150 1_555
Mg125 Mg147 3.172166 1_565
Mg125 Mg130 3.195648 1_555
Mg125 Mg132 3.195648 1_555
Mg125 Mg99 3.197857 1_665
Mg125 Mg18 3.239853 1_556
Mg125 Mg20 3.239853 1_556
Mg125 Mg126 3.265109 1_655
Mg126 Mg148 3.172157 1_455
Mg126 Mg146 3.172157 1_565
Mg126 Mg129 3.195649 1_555
Mg126 Mg131 3.195656 1_555
Mg126 Mg99 3.197858 1_565
Mg126 Mg21 3.239852 1_556
Mg126 Mg17 3.239853 1_556
Mg127 Mg137 3.177869 1_555
Mg127 Mg133 3.184914 1_555
Mg127 Mg4 3.187671 1_556
Mg127 Mg128 3.194177 1_555
Mg127 Mg141 3.196129 1_555
Mg127 Mg6 3.202711 1_556
Mg127 Mg9 3.210461 1_556
Mg127 Mg146 3.231655 1_555
Mg128 Mg136 3.177863 1_555
Mg128 Mg133 3.184929 1_555
Mg128 Mg3 3.187671 1_556
Mg128 Mg142 3.196145 1_455
Mg128 Mg5 3.202711 1_556
Mg128 Mg9 3.210460 1_556
Mg128 Mg147 3.231661 1_455
Mg129 Mg136 3.177879 1_555
Mg129 Mg135 3.184937 1_555
Mg129 Mg17 3.187671 1_556
Mg129 Mg131 3.194169 1_555
Mg129 Mg144 3.196145 1_455
Mg129 Mg13 3.202711 1_556
Mg129 Mg15 3.210460 1_556
Mg129 Mg148 3.231670 1_455
Mg130 Mg137 3.177869 1_555
Mg130 Mg134 3.184937 1_555
Mg130 Mg18 3.187670 1_556
Mg130 Mg132 3.194178 1_555
Mg130 Mg143 3.196146 1_555
Mg130 Mg14 3.202711 1_556
Mg130 Mg16 3.210461 1_556
Mg130 Mg148 3.231653 1_555
Mg131 Mg138 3.177853 1_555
Mg131 Mg135 3.184914 1_555
Mg131 Mg21 3.187679 1_556
Mg131 Mg139 3.196146 1_565
Mg131 Mg22 3.202711 1_556
Mg131 Mg15 3.210453 1_556
Mg131 Mg146 3.231687 1_565
Mg132 Mg138 3.177877 1_555
Mg132 Mg134 3.184929 1_555
Mg132 Mg20 3.187670 1_556
Mg132 Mg140 3.196147 1_565
Mg132 Mg23 3.202719 1_556
Mg132 Mg16 3.210461 1_556
Mg132 Mg147 3.231661 1_565
Mg133 Mg134 3.179963 1_555
Mg133 Mg135 3.179980 1_555
Mg133 Mg9 3.186684 1_556
Mg133 Mg137 3.201462 1_555
Mg133 Mg136 3.201503 1_555
Mg134 Mg135 3.179947 1_555
Mg134 Mg16 3.186692 1_556
Mg134 Mg19 3.198525 1_556
Mg134 Mg137 3.201488 1_555
Mg134 Mg138 3.201488 1_555
Mg135 Mg15 3.186692 1_556
Mg135 Mg19 3.198524 1_556
Mg135 Mg138 3.201479 1_555
Mg135 Mg136 3.201503 1_555
Mg136 Mg5 3.201974 1_556
Mg136 Mg142 3.206149 1_455
Mg136 Mg144 3.206157 1_455
Mg137 Mg14 3.201974 1_556
Mg137 Mg6 3.201982 1_556
Mg137 Mg141 3.206158 1_555
Mg137 Mg143 3.206165 1_555
Mg138 Mg22 3.201966 1_556
Mg138 Mg23 3.201974 1_556
Mg138 Mg140 3.206157 1_565
Mg138 Mg139 3.206158 1_565
Mg138 Mg19 3.206948 1_556
Mg139 Mg2 3.183833 1_556
Mg139 Mg22 3.192848 1_546
Mg139 Mg141 3.196596 1_555
Mg139 Mg145 3.212959 1_555
Mg139 Mg146 3.220622 1_555
Mg139 Mg140 3.229295 1_555
Mg140 Mg23 3.192840 1_546
Mg140 Mg142 3.196595 1_555
Mg140 Mg145 3.212960 1_555
Mg140 Mg147 3.220622 1_555
Mg141 Mg2 3.183841 1_556
Mg141 Mg6 3.192832 1_556
Mg141 Mg8 3.202819 1_556
Mg141 Mg145 3.212967 1_555
Mg141 Mg146 3.220622 1_555
Mg141 Mg143 3.229287 1_555
Mg142 Mg5 3.192839 1_656
Mg142 Mg7 3.202811 1_556
Mg142 Mg145 3.212967 1_555
Mg142 Mg147 3.220623 1_555
Mg142 Mg144 3.229280 1_555
Mg143 Mg144 3.196595 1_555
Mg143 Mg8 3.202811 1_556
Mg143 Mg145 3.212960 1_555
Mg143 Mg148 3.220630 1_555
Mg144 Mg7 3.202811 1_556
Mg144 Mg145 3.212967 1_555
Mg144 Mg148 3.220639 1_555
Mg145 Mg8 3.187158 1_556
Mg145 Mg7 3.187166 1_556
Mg146 Mg4 3.184384 1_556
Mg146 Mg21 3.184392 1_546
Mg146 Mg2 3.202628 1_556
Mg147 Mg3 3.184391 1_656
Mg147 Mg20 3.184392 1_546
Mg148 Mg18 3.184384 1_556
Mg148 Mg17 3.184392 1_656
