# generated using pymatgen
data_Ba10MgAs6(ClO12)2
_symmetry_space_group_name_H-M   'P 1'
_cell_length_a   10.83531712
_cell_length_b   11.57876468
_cell_length_c   7.84001616
_cell_angle_alpha   90.00000000
_cell_angle_beta   90.00000000
_cell_angle_gamma   122.08602591
_symmetry_Int_Tables_number   1
_chemical_formula_structural   Ba10MgAs6(ClO12)2
_chemical_formula_sum   'Ba10 Mg1 As6 Cl2 O24'
_cell_volume   833.36097462
_cell_formula_units_Z   1
loop_
 _symmetry_equiv_pos_site_id
 _symmetry_equiv_pos_as_xyz
  1  'x, y, z'
loop_
 _atom_site_type_symbol
 _atom_site_label
 _atom_site_symmetry_multiplicity
 _atom_site_fract_x
 _atom_site_fract_y
 _atom_site_fract_z
 _atom_site_occupancy
  Ba  Ba0  1  0.65484920  0.33075496  0.49716718  1
  Ba  Ba1  1  0.37339637  0.67638831  0.49951524  1
  Ba  Ba2  1  0.01089467  0.28459324  0.25000000  1
  Ba  Ba3  1  0.37339637  0.67638831  0.00048476  1
  Ba  Ba4  1  0.74592838  0.72975589  0.25000000  1
  Ba  Ba5  1  0.24613102  0.99180555  0.25000000  1
  Ba  Ba6  1  0.76790862  0.10204464  0.75000000  1
  Ba  Ba7  1  0.02924622  0.73668142  0.75000000  1
  Ba  Ba8  1  0.65484920  0.33075496  0.00283282  1
  Ba  Ba9  1  0.25352223  0.26175862  0.75000000  1
  Mg  Mg0  1  0.76948161  0.82824746  0.75000000  1
  As  As0  1  0.98164530  0.59956244  0.25000000  1
  As  As1  1  0.59003884  0.57562486  0.75000000  1
  As  As2  1  0.39488598  0.96591942  0.75000000  1
  As  As3  1  0.38978114  0.35672956  0.25000000  1
  As  As4  1  0.04560279  0.42452029  0.75000000  1
  As  As5  1  0.62997337  0.05097643  0.25000000  1
  Cl  Cl0  1  0.96987127  0.98214783  0.96379595  1
  Cl  Cl1  1  0.96987127  0.98214783  0.53620405  1
  O  O0  1  0.63995704  0.72552811  0.94167054  1
  O  O1  1  0.32725990  0.46656978  0.25000000  1
  O  O2  1  0.33154989  0.24757602  0.42287818  1
  O  O3  1  0.40503322  0.52948095  0.75000000  1
  O  O4  1  0.07751776  0.35402202  0.57594722  1
  O  O5  1  0.54272835  0.39636621  0.75000000  1
  O  O6  1  0.86437296  0.37894610  0.75000000  1
  O  O7  1  0.15816753  0.59988043  0.75000000  1
  O  O8  1  0.57950077  0.45165732  0.25000000  1
  O  O9  1  0.74334099  0.12081836  0.07554090  1
  O  O10  1  0.07751776  0.35402202  0.92405278  1
  O  O11  1  0.87762120  0.42266935  0.25000000  1
  O  O12  1  0.48384334  0.87766625  0.75000000  1
  O  O13  1  0.92976039  0.65521204  0.07405029  1
  O  O14  1  0.92976039  0.65521204  0.42594971  1
  O  O15  1  0.53449662  0.13518838  0.75000000  1
  O  O16  1  0.33154989  0.24757602  0.07712182  1
  O  O17  1  0.74334099  0.12081836  0.42445910  1
  O  O18  1  0.16443656  0.65850790  0.25000000  1
  O  O19  1  0.28223607  0.91977336  0.92570730  1
  O  O20  1  0.52781113  0.87667701  0.25000000  1
  O  O21  1  0.28223607  0.91977336  0.57429270  1
  O  O22  1  0.63995704  0.72552811  0.55832946  1
  O  O23  1  0.52473029  0.12372847  0.25000000  1
loop_
_geom_bond_atom_site_label_1
_geom_bond_atom_site_label_2
_geom_bond_distance
_geom_bond_site_symmetry_2
Ba0 O5 2.638695 1_555
Ba0 O8 2.755999 1_555
Ba0 O15 2.760468 1_555
Ba0 O23 2.810423 1_555
Ba0 O11 2.825771 1_555
Ba0 O6 2.837036 1_555
Ba0 O17 3.103107 1_555
Ba0 O2 3.154976 1_555
Ba0 O14 3.377813 1_555
Ba1 O22 2.670688 1_555
Ba1 O3 2.736226 1_555
Ba1 O12 2.785161 1_555
Ba1 O20 2.807507 1_555
Ba1 O7 2.808036 1_555
Ba1 O18 2.915125 1_555
Ba1 O1 2.947637 1_555
Ba2 O4 2.661029 1_555
Ba2 O10 2.661029 1_554
Ba2 O11 2.663462 1_455
Ba2 O17 2.833853 1_455
Ba2 O9 2.833853 1_455
Ba2 O1 2.918374 1_555
Ba3 O0 2.670688 1_554
Ba3 O3 2.736226 1_554
Ba3 O12 2.785161 1_554
Ba3 O20 2.807507 1_555
Ba3 O7 2.808036 1_554
Ba3 O18 2.915125 1_555
Ba3 O1 2.947637 1_555
Ba4 O0 2.665426 1_554
Ba4 O22 2.665426 1_555
Ba4 O8 2.729761 1_555
Ba4 O13 2.905501 1_555
Ba4 O14 2.905501 1_555
Ba5 O23 2.558737 1_565
Ba5 O21 2.767565 1_555
Ba5 O19 2.767565 1_554
Ba5 O16 2.924411 1_565
Ba5 O2 2.924411 1_565
Ba6 O17 2.587189 1_555
Ba6 O9 2.587189 1_556
Ba6 O15 2.752219 1_555
Ba6 O12 2.779931 1_545
Ba6 O6 2.794966 1_555
Ba7 O7 2.609801 1_555
Ba7 O13 2.725067 1_456
Ba7 O14 2.725067 1_455
Ba7 O21 2.780718 1_555
Ba7 O19 2.780718 1_555
Ba8 O5 2.638695 1_554
Ba8 O8 2.755999 1_555
Ba8 O15 2.760468 1_554
Ba8 O23 2.810423 1_555
Ba8 O11 2.825771 1_555
Ba8 O6 2.837036 1_554
Ba8 O9 3.103107 1_555
Ba8 O16 3.154976 1_555
Ba8 O13 3.377813 1_555
Ba9 O3 2.626394 1_555
Ba9 O5 2.657095 1_555
Ba9 O16 2.732515 1_556
Ba9 O2 2.732515 1_555
Ba9 O4 2.967259 1_555
Ba9 O10 2.967259 1_555
Ba9 Cl0 3.488000 1_445
Ba9 Cl1 3.488000 1_445
Mg0 O0 1.966979 1_555
Mg0 O22 1.966979 1_555
As0 O18 1.718280 1_655
As0 O11 1.735785 1_555
As0 O14 1.737520 1_555
As0 O13 1.737520 1_555
As1 O3 1.779330 1_555
As1 O5 1.854858 1_555
As1 O0 2.136803 1_555
As1 O22 2.136803 1_555
As2 O15 1.726227 1_565
As2 O21 1.726302 1_555
As2 O19 1.726302 1_555
As2 O12 1.737720 1_555
As3 O2 1.727799 1_555
As3 O16 1.727799 1_555
As3 O1 1.729669 1_555
As3 O8 1.741686 1_555
As4 O4 1.716933 1_555
As4 O10 1.716933 1_555
As4 O7 1.726083 1_555
As4 O6 1.741736 1_455
As5 O20 1.710256 1_545
As5 O17 1.725778 1_555
As5 O9 1.725778 1_555
As5 O23 1.740835 1_555
Cl0 Mg0 2.566884 1_555
Cl1 Mg0 2.566884 1_555
