# generated using pymatgen
data_KMg14CrO16
_symmetry_space_group_name_H-M   'P 1'
_cell_length_a   8.62965800
_cell_length_b   8.62965800
_cell_length_c   4.34943600
_cell_angle_alpha   90.00000000
_cell_angle_beta   90.00000000
_cell_angle_gamma   90.00000000
_symmetry_Int_Tables_number   1
_chemical_formula_structural   KMg14CrO16
_chemical_formula_sum   'K1 Mg14 Cr1 O16'
_cell_volume   323.90683616
_cell_formula_units_Z   1
loop_
 _symmetry_equiv_pos_site_id
 _symmetry_equiv_pos_as_xyz
  1  'x, y, z'
loop_
 _atom_site_type_symbol
 _atom_site_label
 _atom_site_symmetry_multiplicity
 _atom_site_fract_x
 _atom_site_fract_y
 _atom_site_fract_z
 _atom_site_occupancy
  K  K0  1  0.00000000  0.00000000  0.00000000  1
  Mg  Mg0  1  0.50000000  0.00000000  0.00000000  1
  Mg  Mg1  1  0.00000000  0.50000000  0.00000000  1
  Mg  Mg2  1  0.25198000  0.00000000  0.50000000  1
  Mg  Mg3  1  0.74802000  0.00000000  0.50000000  1
  Mg  Mg4  1  0.24624400  0.50000000  0.50000000  1
  Mg  Mg5  1  0.75375600  0.50000000  0.50000000  1
  Mg  Mg6  1  0.00000000  0.25198000  0.50000000  1
  Mg  Mg7  1  0.50000000  0.24624400  0.50000000  1
  Mg  Mg8  1  0.00000000  0.74802000  0.50000000  1
  Mg  Mg9  1  0.50000000  0.75375600  0.50000000  1
  Mg  Mg10  1  0.24767300  0.24767300  0.00000000  1
  Mg  Mg11  1  0.75232700  0.24767300  0.00000000  1
  Mg  Mg12  1  0.24767300  0.75232700  0.00000000  1
  Mg  Mg13  1  0.75232700  0.75232700  0.00000000  1
  Cr  Cr0  1  0.50000000  0.50000000  0.00000000  1
  O  O0  1  0.00000000  0.27627600  0.00000000  1
  O  O1  1  0.50000000  0.26204800  0.00000000  1
  O  O2  1  0.00000000  0.72372400  0.00000000  1
  O  O3  1  0.50000000  0.73795200  0.00000000  1
  O  O4  1  0.25135100  0.25135100  0.50000000  1
  O  O5  1  0.74864900  0.25135100  0.50000000  1
  O  O6  1  0.25135100  0.74864900  0.50000000  1
  O  O7  1  0.74864900  0.74864900  0.50000000  1
  O  O8  1  0.00000000  0.00000000  0.50000000  1
  O  O9  1  0.50000000  0.00000000  0.50000000  1
  O  O10  1  0.00000000  0.50000000  0.50000000  1
  O  O11  1  0.50000000  0.50000000  0.50000000  1
  O  O12  1  0.27627600  0.00000000  0.00000000  1
  O  O13  1  0.72372400  0.00000000  0.00000000  1
  O  O14  1  0.26204800  0.50000000  0.00000000  1
  O  O15  1  0.73795200  0.50000000  0.00000000  1
loop_
_geom_bond_atom_site_label_1
_geom_bond_atom_site_label_2
_geom_bond_distance
_geom_bond_site_symmetry_2
K0 O8 2.174718 1_554
K0 O8 2.174718 1_555
K0 O13 2.384167 1_455
K0 O2 2.384167 1_545
K0 O12 2.384167 1_555
K0 O0 2.384167 1_555
Mg0 O12 1.930662 1_555
Mg0 O13 1.930662 1_555
Mg0 O9 2.174718 1_554
Mg0 O9 2.174718 1_555
Mg0 O3 2.261385 1_545
Mg0 O1 2.261385 1_555
Mg1 O0 1.930662 1_555
Mg1 O2 1.930662 1_555
Mg1 O10 2.174718 1_555
Mg1 O10 2.174718 1_554
Mg1 O15 2.261385 1_455
Mg1 O14 2.261385 1_555
Mg2 O9 2.140328 1_555
Mg2 O4 2.169080 1_555
Mg2 O6 2.169080 1_545
Mg2 O8 2.174501 1_555
Mg2 O12 2.184802 1_556
Mg2 O12 2.184802 1_555
Mg3 O9 2.140328 1_555
Mg3 O5 2.169080 1_555
Mg3 O7 2.169080 1_545
Mg3 O8 2.174501 1_655
Mg3 O13 2.184802 1_555
Mg3 O13 2.184802 1_556
Mg4 O10 2.125002 1_555
Mg4 O4 2.146208 1_555
Mg4 O6 2.146208 1_555
Mg4 O14 2.178990 1_556
Mg4 O14 2.178990 1_555
Mg4 O11 2.189827 1_555
Mg5 O10 2.125002 1_655
Mg5 O5 2.146208 1_555
Mg5 O7 2.146208 1_555
Mg5 O15 2.178990 1_555
Mg5 O15 2.178990 1_556
Mg5 O11 2.189827 1_555
Mg6 O10 2.140328 1_555
Mg6 O4 2.169080 1_555
Mg6 O5 2.169080 1_455
Mg6 O8 2.174501 1_555
Mg6 O0 2.184802 1_556
Mg6 O0 2.184802 1_555
Mg7 O9 2.125002 1_555
Mg7 O4 2.146208 1_555
Mg7 O5 2.146208 1_555
Mg7 O1 2.178990 1_556
Mg7 O1 2.178990 1_555
Mg7 O11 2.189827 1_555
Mg8 O10 2.140328 1_555
Mg8 O6 2.169080 1_555
Mg8 O7 2.169080 1_455
Mg8 O8 2.174501 1_565
Mg8 O2 2.184802 1_556
Mg8 O2 2.184802 1_555
Mg9 O9 2.125002 1_565
Mg9 O6 2.146208 1_555
Mg9 O7 2.146208 1_555
Mg9 O3 2.178990 1_555
Mg9 O3 2.178990 1_556
Mg9 O11 2.189827 1_555
Mg10 O12 2.151539 1_555
Mg10 O0 2.151539 1_555
Mg10 O4 2.175181 1_554
Mg10 O4 2.175181 1_555
Mg10 O1 2.181026 1_555
Mg10 O14 2.181026 1_555
Mg11 O0 2.151539 1_655
Mg11 O13 2.151539 1_555
Mg11 O5 2.175181 1_554
Mg11 O5 2.175181 1_555
Mg11 O1 2.181026 1_555
Mg11 O15 2.181026 1_555
Mg12 O12 2.151539 1_565
Mg12 O2 2.151539 1_555
Mg12 O6 2.175181 1_554
Mg12 O6 2.175181 1_555
Mg12 O14 2.181026 1_555
Mg12 O3 2.181026 1_555
Mg13 O13 2.151539 1_565
Mg13 O2 2.151539 1_655
Mg13 O7 2.175181 1_555
Mg13 O7 2.175181 1_554
Mg13 O15 2.181026 1_555
Mg13 O3 2.181026 1_555
Cr0 O1 2.053444 1_555
Cr0 O14 2.053444 1_555
Cr0 O15 2.053444 1_555
Cr0 O3 2.053444 1_555
Cr0 O11 2.174718 1_554
Cr0 O11 2.174718 1_555
