# generated using pymatgen
data_Sr2FeSnO6
_symmetry_space_group_name_H-M   'P 1'
_cell_length_a   4.03330000
_cell_length_b   4.03330000
_cell_length_c   7.99544800
_cell_angle_alpha   90.00000000
_cell_angle_beta   90.00000000
_cell_angle_gamma   90.00000000
_symmetry_Int_Tables_number   1
_chemical_formula_structural   Sr2FeSnO6
_chemical_formula_sum   'Sr2 Fe1 Sn1 O6'
_cell_volume   130.06602142
_cell_formula_units_Z   1
loop_
 _symmetry_equiv_pos_site_id
 _symmetry_equiv_pos_as_xyz
  1  'x, y, z'
loop_
 _atom_site_type_symbol
 _atom_site_label
 _atom_site_symmetry_multiplicity
 _atom_site_fract_x
 _atom_site_fract_y
 _atom_site_fract_z
 _atom_site_occupancy
  Sr  Sr0  1  0.00000000  0.00000000  0.73459500  1
  Sr  Sr1  1  0.00000000  0.00000000  0.26540500  1
  Fe  Fe0  1  0.50000000  0.50000000  0.50000000  1
  Sn  Sn0  1  0.50000000  0.50000000  0.00000000  1
  O  O0  1  0.50000000  0.50000000  0.73985800  1
  O  O1  1  0.50000000  0.50000000  0.26014200  1
  O  O2  1  0.50000000  0.00000000  0.00000000  1
  O  O3  1  0.50000000  0.00000000  0.50000000  1
  O  O4  1  0.00000000  0.50000000  0.00000000  1
  O  O5  1  0.00000000  0.50000000  0.50000000  1
loop_
_geom_bond_atom_site_label_1
_geom_bond_atom_site_label_2
_geom_bond_distance
_geom_bond_site_symmetry_2
Fe0 O0 1.917772 1_555
Fe0 O1 1.917772 1_555
Fe0 O5 2.016650 1_555
Fe0 O5 2.016650 1_655
Fe0 O3 2.016650 1_555
Fe0 O3 2.016650 1_565
O0 Sn0 2.079952 1_556
O0 Sr0 2.852284 1_555
O0 Sr0 2.852284 1_565
O0 Sr0 2.852284 1_665
O0 Sr0 2.852284 1_655
O1 Sn0 2.079952 1_555
O1 Sr1 2.852284 1_665
O1 Sr1 2.852284 1_555
O1 Sr1 2.852284 1_655
O1 Sr1 2.852284 1_565
O2 Sn0 2.016650 1_545
O2 Sn0 2.016650 1_555
O2 Sr0 2.927439 1_654
O2 Sr1 2.927439 1_655
O2 Sr0 2.927439 1_554
O2 Sr1 2.927439 1_555
O3 Sr1 2.754106 1_555
O3 Sr0 2.754106 1_555
O3 Sr1 2.754106 1_655
O3 Sr0 2.754106 1_655
O4 Sn0 2.016650 1_555
O4 Sn0 2.016650 1_455
O4 Sr1 2.927439 1_565
O4 Sr0 2.927439 1_564
O4 Sr0 2.927439 1_554
O4 Sr1 2.927439 1_555
O5 Sr1 2.754106 1_555
O5 Sr0 2.754106 1_565
O5 Sr0 2.754106 1_555
O5 Sr1 2.754106 1_565
