# generated using pymatgen
data_YbPrO3
_symmetry_space_group_name_H-M   'P 1'
_cell_length_a   5.81704500
_cell_length_b   6.10031400
_cell_length_c   8.55177100
_cell_angle_alpha   90.00000000
_cell_angle_beta   90.00000000
_cell_angle_gamma   90.00000000
_symmetry_Int_Tables_number   1
_chemical_formula_structural   YbPrO3
_chemical_formula_sum   'Yb4 Pr4 O12'
_cell_volume   303.46644435
_cell_formula_units_Z   4
loop_
 _symmetry_equiv_pos_site_id
 _symmetry_equiv_pos_as_xyz
  1  'x, y, z'
loop_
 _atom_site_type_symbol
 _atom_site_label
 _atom_site_symmetry_multiplicity
 _atom_site_fract_x
 _atom_site_fract_y
 _atom_site_fract_z
 _atom_site_occupancy
  Yb  Yb0  1  0.00000000  0.00000000  0.00000000  1
  Yb  Yb1  1  0.50000000  0.50000000  0.00000000  1
  Yb  Yb2  1  0.00000000  0.00000000  0.50000000  1
  Yb  Yb3  1  0.50000000  0.50000000  0.50000000  1
  Pr  Pr0  1  0.02686100  0.43402500  0.25000000  1
  Pr  Pr1  1  0.97313900  0.56597500  0.75000000  1
  Pr  Pr2  1  0.52686100  0.06597500  0.75000000  1
  Pr  Pr3  1  0.47313900  0.93402500  0.25000000  1
  O  O0  1  0.30481200  0.19484200  0.07709400  1
  O  O1  1  0.69518800  0.80515800  0.92290600  1
  O  O2  1  0.80481200  0.30515800  0.92290600  1
  O  O3  1  0.69518800  0.80515800  0.57709400  1
  O  O4  1  0.19518800  0.69484200  0.07709400  1
  O  O5  1  0.30481200  0.19484200  0.42290600  1
  O  O6  1  0.19518800  0.69484200  0.42290600  1
  O  O7  1  0.80481200  0.30515800  0.57709400  1
  O  O8  1  0.64461500  0.56777900  0.25000000  1
  O  O9  1  0.35538500  0.43222100  0.75000000  1
  O  O10  1  0.14461500  0.93222100  0.75000000  1
  O  O11  1  0.85538500  0.06777900  0.25000000  1
loop_
_geom_bond_atom_site_label_1
_geom_bond_atom_site_label_2
_geom_bond_distance
_geom_bond_site_symmetry_2
O0 Yb0 2.234128 1_555
O0 Yb1 2.277990 1_555
O0 Pr3 2.382576 1_545
O0 Pr0 2.632409 1_555
O1 Yb0 2.234128 1_666
O1 Yb1 2.277990 1_556
O1 Pr2 2.382576 1_565
O1 Pr1 2.632409 1_555
O2 Yb1 2.234128 1_556
O2 Yb0 2.277990 1_656
O2 Pr1 2.382576 1_555
O2 Pr2 2.632409 1_555
O3 Yb2 2.234128 1_665
O3 Yb3 2.277990 1_555
O3 Pr2 2.382576 1_565
O3 Pr1 2.632409 1_555
O4 Yb1 2.234128 1_555
O4 Yb0 2.277990 1_565
O4 Pr0 2.382576 1_555
O4 Pr3 2.632409 1_555
O5 Yb2 2.234128 1_555
O5 Yb3 2.277990 1_555
O5 Pr3 2.382576 1_545
O5 Pr0 2.632409 1_555
O6 Yb3 2.234128 1_555
O6 Yb2 2.277990 1_565
O6 Pr0 2.382576 1_555
O6 Pr3 2.632409 1_555
O7 Yb3 2.234128 1_555
O7 Yb2 2.277990 1_655
O7 Pr1 2.382576 1_555
O7 Pr2 2.632409 1_555
O8 Yb3 2.334402 1_555
O8 Yb1 2.334402 1_555
O8 Pr0 2.368523 1_655
O8 Pr3 2.446772 1_555
O9 Yb3 2.334402 1_555
O9 Yb1 2.334402 1_556
O9 Pr1 2.368523 1_455
O9 Pr2 2.446772 1_555
O10 Yb0 2.334402 1_566
O10 Yb2 2.334402 1_565
O10 Pr2 2.368523 1_565
O10 Pr1 2.446772 1_455
O11 Yb0 2.334402 1_655
O11 Yb2 2.334402 1_655
O11 Pr3 2.368523 1_545
O11 Pr0 2.446772 1_655
