# generated using pymatgen
data_Mg2Bi
_symmetry_space_group_name_H-M   'P 1'
_cell_length_a   5.78731095
_cell_length_b   5.78731095
_cell_length_c   5.42315800
_cell_angle_alpha   90.00000000
_cell_angle_beta   90.00000000
_cell_angle_gamma   119.99998800
_symmetry_Int_Tables_number   1
_chemical_formula_structural   Mg2Bi
_chemical_formula_sum   'Mg4 Bi2'
_cell_volume   157.30284475
_cell_formula_units_Z   2
loop_
 _symmetry_equiv_pos_site_id
 _symmetry_equiv_pos_as_xyz
  1  'x, y, z'
loop_
 _atom_site_type_symbol
 _atom_site_label
 _atom_site_symmetry_multiplicity
 _atom_site_fract_x
 _atom_site_fract_y
 _atom_site_fract_z
 _atom_site_occupancy
  Mg  Mg0  1  0.66983200  0.00000000  0.00000000  1
  Mg  Mg1  1  0.00000000  0.66983200  0.00000000  1
  Mg  Mg2  1  0.33016800  0.33016800  0.00000000  1
  Mg  Mg3  1  0.00000000  0.00000000  0.50000000  1
  Bi  Bi0  1  0.33333300  0.66666700  0.50000000  1
  Bi  Bi1  1  0.66666700  0.33333300  0.50000000  1
loop_
_geom_bond_atom_site_label_1
_geom_bond_atom_site_label_2
_geom_bond_distance
_geom_bond_site_symmetry_2
Mg0 Mg1 3.309576 1_645
Mg0 Mg2 3.309577 1_655
Mg0 Mg3 3.317192 1_654
Mg0 Mg3 3.317192 1_655
Mg0 Mg2 3.357282 1_555
Mg0 Mg1 3.357283 1_545
Mg0 Mg1 3.357283 1_655
Mg0 Mg2 3.357283 1_545
Mg1 Mg2 3.309577 1_565
Mg1 Mg3 3.317192 1_564
Mg1 Mg3 3.317192 1_565
Mg1 Mg2 3.357282 1_555
Mg1 Mg2 3.357283 1_455
Mg2 Mg3 3.317192 1_554
Mg2 Mg3 3.317192 1_555
Bi0 Mg1 3.333131 1_556
Bi0 Mg1 3.333131 1_555
Bi0 Mg0 3.333133 1_565
Bi0 Mg0 3.333133 1_566
Bi0 Mg2 3.333135 1_556
Bi0 Mg2 3.333135 1_555
Bi0 Mg3 3.341302 1_565
Bi0 Bi1 3.341303 1_455
Bi0 Bi1 3.341303 1_565
Bi0 Mg3 3.341308 1_665
Bi0 Mg3 3.341308 1_555
Bi0 Bi1 3.341312 1_555
Bi1 Mg0 3.333131 1_555
Bi1 Mg0 3.333131 1_556
Bi1 Mg1 3.333133 1_656
Bi1 Mg1 3.333133 1_655
Bi1 Mg2 3.333135 1_555
Bi1 Mg2 3.333135 1_556
Bi1 Mg3 3.341302 1_655
Bi1 Mg3 3.341308 1_665
Bi1 Mg3 3.341308 1_555
