# generated using pymatgen
data_KFe
_symmetry_space_group_name_H-M   'P 1'
_cell_length_a   11.97078016
_cell_length_b   11.97078016
_cell_length_c   8.83054962
_cell_angle_alpha   80.81323271
_cell_angle_beta   80.81323271
_cell_angle_gamma   114.49583950
_symmetry_Int_Tables_number   1
_chemical_formula_structural   KFe
_chemical_formula_sum   'K16 Fe16'
_cell_volume   1100.23295980
_cell_formula_units_Z   16
loop_
 _symmetry_equiv_pos_site_id
 _symmetry_equiv_pos_as_xyz
  1  'x, y, z'
loop_
 _atom_site_type_symbol
 _atom_site_label
 _atom_site_symmetry_multiplicity
 _atom_site_fract_x
 _atom_site_fract_y
 _atom_site_fract_z
 _atom_site_occupancy
  K  K0_0  1  0.08178550  0.41821450  0.12500000  1
  K  K0_1  1  0.08178550  0.41821450  0.62500000  1
  K  K0_2  1  0.08178550  0.91821450  0.12500000  1
  K  K0_3  1  0.08178550  0.91821450  0.62500000  1
  K  K0_4  1  0.58178550  0.41821450  0.12500000  1
  K  K0_5  1  0.58178550  0.41821450  0.62500000  1
  K  K0_6  1  0.58178550  0.91821450  0.12500000  1
  K  K0_7  1  0.58178550  0.91821450  0.62500000  1
  K  K1_0  1  0.41821450  0.08178550  0.37500000  1
  K  K1_1  1  0.41821450  0.08178550  0.87500000  1
  K  K1_2  1  0.41821450  0.58178550  0.37500000  1
  K  K1_3  1  0.41821450  0.58178550  0.87500000  1
  K  K1_4  1  0.91821450  0.08178550  0.37500000  1
  K  K1_5  1  0.91821450  0.08178550  0.87500000  1
  K  K1_6  1  0.91821450  0.58178550  0.37500000  1
  K  K1_7  1  0.91821450  0.58178550  0.87500000  1
  Fe  Fe0_0  1  0.26156050  0.23843950  0.12500000  1
  Fe  Fe0_1  1  0.26156050  0.23843950  0.62500000  1
  Fe  Fe0_2  1  0.26156050  0.73843950  0.12500000  1
  Fe  Fe0_3  1  0.26156050  0.73843950  0.62500000  1
  Fe  Fe0_4  1  0.76156050  0.23843950  0.12500000  1
  Fe  Fe0_5  1  0.76156050  0.23843950  0.62500000  1
  Fe  Fe0_6  1  0.76156050  0.73843950  0.12500000  1
  Fe  Fe0_7  1  0.76156050  0.73843950  0.62500000  1
  Fe  Fe1_0  1  0.23843950  0.26156050  0.37500000  1
  Fe  Fe1_1  1  0.23843950  0.26156050  0.87500000  1
  Fe  Fe1_2  1  0.23843950  0.76156050  0.37500000  1
  Fe  Fe1_3  1  0.23843950  0.76156050  0.87500000  1
  Fe  Fe1_4  1  0.73843950  0.26156050  0.37500000  1
  Fe  Fe1_5  1  0.73843950  0.26156050  0.87500000  1
  Fe  Fe1_6  1  0.73843950  0.76156050  0.37500000  1
  Fe  Fe1_7  1  0.73843950  0.76156050  0.87500000  1
loop_
_geom_bond_atom_site_label_1
_geom_bond_atom_site_label_2
_geom_bond_distance
_geom_bond_site_symmetry_2
K0_0 K1_4 3.764107 1_455
K0_0 K1_3 3.764107 1_554
K0_0 K1_6 3.964992 1_455
K0_0 K1_7 3.964992 1_454
K0_0 K0_1 4.415275 1_554
K0_0 K0_1 4.415275 1_555
K0_1 K1_5 3.764107 1_455
K0_1 K1_2 3.764107 1_555
K0_1 K1_6 3.964992 1_455
K0_1 K1_7 3.964992 1_455
K0_2 K1_1 3.764107 1_564
K0_2 K1_6 3.764107 1_455
K0_2 K1_5 3.964992 1_464
K0_2 K1_4 3.964992 1_465
K0_2 K0_3 4.415275 1_555
K0_2 K0_3 4.415275 1_554
K0_3 K1_7 3.764107 1_455
K0_3 K1_0 3.764107 1_565
K0_3 K1_5 3.964992 1_465
K0_3 K1_4 3.964992 1_465
K0_4 K1_0 3.764107 1_555
K0_4 K1_7 3.764107 1_554
K0_4 K1_3 3.964992 1_554
K0_4 K1_2 3.964992 1_555
K0_4 K0_5 4.415275 1_554
K0_4 K0_5 4.415275 1_555
K0_5 K1_6 3.764107 1_555
K0_5 K1_1 3.764107 1_555
K0_5 K1_3 3.964992 1_555
K0_5 K1_2 3.964992 1_555
K0_6 K1_2 3.764107 1_555
K0_6 K1_5 3.764107 1_564
K0_6 K1_1 3.964992 1_564
K0_6 K1_0 3.964992 1_565
K0_6 K0_7 4.415275 1_555
K0_6 K0_7 4.415275 1_554
K0_7 K1_3 3.764107 1_555
K0_7 K1_4 3.764107 1_565
K0_7 K1_0 3.964992 1_565
K0_7 K1_1 3.964992 1_565
K1_0 K1_1 4.415275 1_554
K1_0 K1_1 4.415275 1_555
K1_2 K1_3 4.415275 1_555
K1_2 K1_3 4.415275 1_554
K1_4 K1_5 4.415275 1_554
K1_4 K1_5 4.415275 1_555
K1_6 K1_7 4.415275 1_554
K1_6 K1_7 4.415275 1_555
Fe0_0 Fe1_1 2.256191 1_554
Fe0_0 Fe1_0 2.256191 1_555
Fe0_0 K0_2 3.533393 1_545
Fe0_0 K0_4 3.533393 1_555
Fe0_0 K0_0 3.619826 1_555
Fe0_0 K1_3 3.830491 1_554
Fe0_0 K1_4 3.830491 1_455
Fe0_0 K1_1 3.850082 1_554
Fe0_0 K1_0 3.850082 1_555
Fe0_1 Fe1_0 2.256191 1_555
Fe0_1 Fe1_1 2.256191 1_555
Fe0_1 K0_3 3.533393 1_545
Fe0_1 K0_5 3.533393 1_555
Fe0_1 K0_1 3.619826 1_555
Fe0_1 K1_5 3.830491 1_455
Fe0_1 K1_2 3.830491 1_555
Fe0_1 K1_0 3.850082 1_555
Fe0_1 K1_1 3.850082 1_555
Fe0_2 Fe1_2 2.256191 1_555
Fe0_2 Fe1_3 2.256191 1_554
Fe0_2 K0_6 3.533393 1_555
Fe0_2 K0_0 3.533393 1_555
Fe0_2 K0_2 3.619826 1_555
Fe0_2 K1_6 3.830491 1_455
Fe0_2 K1_1 3.830491 1_564
Fe0_2 K1_3 3.850082 1_554
Fe0_2 K1_2 3.850082 1_555
Fe0_3 Fe1_3 2.256191 1_555
Fe0_3 Fe1_2 2.256191 1_555
Fe0_3 K0_7 3.533393 1_555
Fe0_3 K0_1 3.533393 1_555
Fe0_3 K0_3 3.619826 1_555
Fe0_3 K1_0 3.830491 1_565
Fe0_3 K1_7 3.830491 1_455
Fe0_3 K1_2 3.850082 1_555
Fe0_3 K1_3 3.850082 1_555
Fe0_4 Fe1_5 2.256191 1_554
Fe0_4 Fe1_4 2.256191 1_555
Fe0_4 K0_0 3.533393 1_655
Fe0_4 K0_6 3.533393 1_545
Fe0_4 K0_4 3.619826 1_555
Fe0_4 K1_0 3.830491 1_555
Fe0_4 K1_7 3.830491 1_554
Fe0_4 K1_5 3.850082 1_554
Fe0_4 K1_4 3.850082 1_555
Fe0_5 Fe1_5 2.256191 1_555
Fe0_5 Fe1_4 2.256191 1_555
Fe0_5 K0_1 3.533393 1_655
Fe0_5 K0_7 3.533393 1_545
Fe0_5 K0_5 3.619826 1_555
Fe0_5 K1_6 3.830491 1_555
Fe0_5 K1_1 3.830491 1_555
Fe0_5 K1_4 3.850082 1_555
Fe0_5 K1_5 3.850082 1_555
Fe0_6 Fe1_7 2.256191 1_554
Fe0_6 Fe1_6 2.256191 1_555
Fe0_6 K0_4 3.533393 1_555
Fe0_6 K0_2 3.533393 1_655
Fe0_6 K0_6 3.619826 1_555
Fe0_6 K1_5 3.830491 1_564
Fe0_6 K1_2 3.830491 1_555
Fe0_6 K1_7 3.850082 1_554
Fe0_6 K1_6 3.850082 1_555
Fe0_7 Fe1_6 2.256191 1_555
Fe0_7 Fe1_7 2.256191 1_555
Fe0_7 K0_5 3.533393 1_555
Fe0_7 K0_3 3.533393 1_655
Fe0_7 K0_7 3.619826 1_555
Fe0_7 K1_3 3.830491 1_555
Fe0_7 K1_4 3.830491 1_565
Fe0_7 K1_7 3.850082 1_555
Fe0_7 K1_6 3.850082 1_555
Fe1_0 K1_4 3.533393 1_455
Fe1_0 K1_2 3.533393 1_555
Fe1_0 K1_0 3.619826 1_555
Fe1_0 K0_4 3.830491 1_555
Fe1_0 K0_3 3.830491 1_545
Fe1_0 K0_1 3.850082 1_555
Fe1_0 K0_0 3.850082 1_555
Fe1_1 K1_3 3.533393 1_555
Fe1_1 K1_5 3.533393 1_455
Fe1_1 K1_1 3.619826 1_555
Fe1_1 K0_2 3.830491 1_546
Fe1_1 K0_5 3.830491 1_555
Fe1_1 K0_1 3.850082 1_555
Fe1_1 K0_0 3.850082 1_556
Fe1_2 K1_6 3.533393 1_455
Fe1_2 K1_0 3.533393 1_565
Fe1_2 K1_2 3.619826 1_555
Fe1_2 K0_6 3.830491 1_555
Fe1_2 K0_1 3.830491 1_555
Fe1_2 K0_3 3.850082 1_555
Fe1_2 K0_2 3.850082 1_555
Fe1_3 K1_7 3.533393 1_455
Fe1_3 K1_1 3.533393 1_565
Fe1_3 K1_3 3.619826 1_555
Fe1_3 K0_7 3.830491 1_555
Fe1_3 K0_0 3.830491 1_556
Fe1_3 K0_3 3.850082 1_555
Fe1_3 K0_2 3.850082 1_556
Fe1_4 K1_6 3.533393 1_555
Fe1_4 K1_0 3.533393 1_555
Fe1_4 K1_4 3.619826 1_555
Fe1_4 K0_0 3.830491 1_655
Fe1_4 K0_7 3.830491 1_545
Fe1_4 K0_5 3.850082 1_555
Fe1_4 K0_4 3.850082 1_555
Fe1_5 K1_1 3.533393 1_555
Fe1_5 K1_7 3.533393 1_555
Fe1_5 K1_5 3.619826 1_555
Fe1_5 K0_1 3.830491 1_655
Fe1_5 K0_6 3.830491 1_546
Fe1_5 K0_5 3.850082 1_555
Fe1_5 K0_4 3.850082 1_556
Fe1_6 K1_2 3.533393 1_555
Fe1_6 K1_4 3.533393 1_565
Fe1_6 K1_6 3.619826 1_555
Fe1_6 K0_5 3.830491 1_555
Fe1_6 K0_2 3.830491 1_655
Fe1_6 K0_7 3.850082 1_555
Fe1_6 K0_6 3.850082 1_555
Fe1_7 K1_5 3.533393 1_565
Fe1_7 K1_3 3.533393 1_555
Fe1_7 K1_7 3.619826 1_555
Fe1_7 K0_3 3.830491 1_655
Fe1_7 K0_4 3.830491 1_556
Fe1_7 K0_7 3.850082 1_555
Fe1_7 K0_6 3.850082 1_556
