# generated using pymatgen
data_K6ReN4
_symmetry_space_group_name_H-M   'P 1'
_cell_length_a   8.49160900
_cell_length_b   8.49160900
_cell_length_c   6.96842100
_cell_angle_alpha   90.00000000
_cell_angle_beta   90.00000000
_cell_angle_gamma   90.00000000
_symmetry_Int_Tables_number   1
_chemical_formula_structural   K6ReN4
_chemical_formula_sum   'K12 Re2 N8'
_cell_volume   502.47488354
_cell_formula_units_Z   2
loop_
 _symmetry_equiv_pos_site_id
 _symmetry_equiv_pos_as_xyz
  1  'x, y, z'
loop_
 _atom_site_type_symbol
 _atom_site_label
 _atom_site_symmetry_multiplicity
 _atom_site_fract_x
 _atom_site_fract_y
 _atom_site_fract_z
 _atom_site_occupancy
  K  K0  1  0.00000000  0.50000000  0.73968900  1
  K  K1  1  0.50000000  0.00000000  0.76031100  1
  K  K2  1  0.50000000  0.00000000  0.26031100  1
  K  K3  1  0.00000000  0.50000000  0.23968900  1
  K  K4  1  0.21036800  0.21036800  0.50000000  1
  K  K5  1  0.78963200  0.78963200  0.50000000  1
  K  K6  1  0.71036800  0.71036800  0.00000000  1
  K  K7  1  0.28963200  0.28963200  0.00000000  1
  K  K8  1  0.78963200  0.21036800  0.50000000  1
  K  K9  1  0.21036800  0.78963200  0.50000000  1
  K  K10  1  0.28963200  0.71036800  0.00000000  1
  K  K11  1  0.71036800  0.28963200  0.00000000  1
  Re  Re0  1  0.50000000  0.50000000  0.50000000  1
  Re  Re1  1  0.00000000  0.00000000  0.00000000  1
  N  N0  1  0.31756700  0.50000000  0.35027400  1
  N  N1  1  0.68243300  0.50000000  0.35027400  1
  N  N2  1  0.81756700  0.00000000  0.14972600  1
  N  N3  1  0.18243300  0.00000000  0.14972600  1
  N  N4  1  0.50000000  0.31756700  0.64972600  1
  N  N5  1  0.50000000  0.68243300  0.64972600  1
  N  N6  1  0.00000000  0.81756700  0.85027400  1
  N  N7  1  0.00000000  0.18243300  0.85027400  1
loop_
_geom_bond_atom_site_label_1
_geom_bond_atom_site_label_2
_geom_bond_distance
_geom_bond_site_symmetry_2
K0 N7 2.804599 1_555
K0 N6 2.804599 1_555
K1 N4 2.804599 1_555
K1 N5 2.804599 1_545
K2 N3 2.804599 1_555
K2 N2 2.804599 1_555
K3 N0 2.804599 1_555
K3 N1 2.804599 1_455
K4 N4 2.822423 1_555
K4 N0 2.822423 1_555
K4 N3 3.033998 1_555
K4 N7 3.033998 1_555
K5 N5 2.822423 1_555
K5 N1 2.822423 1_555
K5 N6 3.033998 1_655
K5 N2 3.033998 1_565
K6 N2 2.822423 1_565
K6 N6 2.822423 1_654
K6 N1 3.033998 1_555
K6 N5 3.033998 1_554
K7 N7 2.822423 1_554
K7 N3 2.822423 1_555
K7 N0 3.033998 1_555
K7 N4 3.033998 1_554
K8 N4 2.822423 1_555
K8 N1 2.822423 1_555
K8 N7 3.033998 1_655
K8 N2 3.033998 1_555
K9 N5 2.822423 1_555
K9 N0 2.822423 1_555
K9 N3 3.033998 1_565
K9 N6 3.033998 1_555
K10 N3 2.822423 1_565
K10 N6 2.822423 1_554
K10 N5 3.033998 1_554
K10 N0 3.033998 1_555
K11 N7 2.822423 1_654
K11 N2 2.822423 1_555
K11 N1 3.033998 1_555
K11 N4 3.033998 1_554
N0 Re0 1.867740 1_555
N1 Re0 1.867740 1_555
N2 Re1 1.867740 1_655
N3 Re1 1.867740 1_555
N4 Re0 1.867740 1_555
N5 Re0 1.867740 1_555
N6 Re1 1.867740 1_566
N7 Re1 1.867740 1_556
