# generated using pymatgen
data_Na4Al3Si3NO14
_symmetry_space_group_name_H-M   'P 1'
_cell_length_a   9.01846200
_cell_length_b   8.90228000
_cell_length_c   9.09320227
_cell_angle_alpha   89.70901475
_cell_angle_beta   90.00000000
_cell_angle_gamma   90.00000000
_symmetry_Int_Tables_number   1
_chemical_formula_structural   Na4Al3Si3NO14
_chemical_formula_sum   'Na8 Al6 Si6 N2 O28'
_cell_volume   730.03718253
_cell_formula_units_Z   2
loop_
 _symmetry_equiv_pos_site_id
 _symmetry_equiv_pos_as_xyz
  1  'x, y, z'
loop_
 _atom_site_type_symbol
 _atom_site_label
 _atom_site_symmetry_multiplicity
 _atom_site_fract_x
 _atom_site_fract_y
 _atom_site_fract_z
 _atom_site_occupancy
  Na  Na0  1  0.82037800  0.18001600  0.18970200  1
  Na  Na1  1  0.82037800  0.81998400  0.81029800  1
  Na  Na2  1  0.68817800  0.32495600  0.68566800  1
  Na  Na3  1  0.68817800  0.67504400  0.31433200  1
  Na  Na4  1  0.32041100  0.32014900  0.31084200  1
  Na  Na5  1  0.32041100  0.67985100  0.68915800  1
  Na  Na6  1  0.18749400  0.17515100  0.81496600  1
  Na  Na7  1  0.18749400  0.82484900  0.18503400  1
  Al  Al0  1  0.00151800  0.50044500  0.24915400  1
  Al  Al1  1  0.00151800  0.49955500  0.75084600  1
  Al  Al2  1  0.75016400  0.00000000  0.50000000  1
  Al  Al3  1  0.50147100  0.75069700  0.00061800  1
  Al  Al4  1  0.50147100  0.24930300  0.99938200  1
  Al  Al5  1  0.25330800  0.00000000  0.50000000  1
  Si  Si0  1  0.00176700  0.25069700  0.50142300  1
  Si  Si1  1  0.00176700  0.74930300  0.49857700  1
  Si  Si2  1  0.75286500  0.50000000  0.00000000  1
  Si  Si3  1  0.50196000  0.00135400  0.74924200  1
  Si  Si4  1  0.50196000  0.99864600  0.25075800  1
  Si  Si5  1  0.24979900  0.50000000  0.00000000  1
  N  N0  1  0.96513900  0.00000000  0.00000000  1
  N  N1  1  0.46513200  0.50000000  0.50000000  1
  O  O0  1  0.94195400  0.34792700  0.64262400  1
  O  O1  1  0.94195400  0.65207300  0.35737600  1
  O  O2  1  0.86059900  0.15184300  0.44255200  1
  O  O3  1  0.86059900  0.84815700  0.55744800  1
  O  O4  1  0.85292600  0.43950600  0.13901700  1
  O  O5  1  0.85292600  0.56049400  0.86098300  1
  O  O6  1  0.65302900  0.35879900  0.94094800  1
  O  O7  1  0.65302900  0.64120100  0.05905200  1
  O  O8  1  0.64165800  0.06179300  0.64921200  1
  O  O9  1  0.64165800  0.93820700  0.35078800  1
  O  O10  1  0.56162700  0.13757200  0.14792600  1
  O  O11  1  0.56162700  0.86242800  0.85207400  1
  O  O12  1  0.54059600  0.45224800  0.39119500  1
  O  O13  1  0.54059600  0.54775200  0.60880500  1
  O  O14  1  0.44184400  0.14320700  0.84719400  1
  O  O15  1  0.44184400  0.85679300  0.15280600  1
  O  O16  1  0.36343700  0.05996000  0.35077100  1
  O  O17  1  0.36343700  0.94004000  0.64922900  1
  O  O18  1  0.34962900  0.35777800  0.05796700  1
  O  O19  1  0.34962900  0.64222200  0.94203300  1
  O  O20  1  0.15047000  0.56111100  0.13870700  1
  O  O21  1  0.15047000  0.43888900  0.86129300  1
  O  O22  1  0.14319900  0.15082000  0.55962500  1
  O  O23  1  0.14319900  0.84918000  0.44037500  1
  O  O24  1  0.06150800  0.35278200  0.36308300  1
  O  O25  1  0.06150800  0.64721800  0.63691700  1
  O  O26  1  0.04014100  0.95140100  0.89177300  1
  O  O27  1  0.04014100  0.04859900  0.10822700  1
loop_
_geom_bond_atom_site_label_1
_geom_bond_atom_site_label_2
_geom_bond_distance
_geom_bond_site_symmetry_2
Na0 O2 2.339875 1_555
Na0 O4 2.371520 1_555
Na0 O10 2.394562 1_555
Na0 O27 2.419588 1_655
Na1 O3 2.339875 1_555
Na1 O5 2.371520 1_555
Na1 O11 2.394562 1_555
Na1 O26 2.419588 1_655
Na2 O0 2.330711 1_555
Na2 O6 2.363651 1_555
Na2 O8 2.404636 1_555
Na2 O13 2.485906 1_555
Na3 O1 2.330711 1_555
Na3 O7 2.363651 1_555
Na3 O9 2.404636 1_555
Na3 O12 2.485906 1_555
Na4 O18 2.336935 1_555
Na4 O16 2.374655 1_555
Na4 O24 2.400677 1_555
Na4 O12 2.422531 1_555
Na5 O19 2.336935 1_555
Na5 O17 2.374655 1_555
Na5 O25 2.400677 1_555
Na5 O13 2.422531 1_555
Na6 O14 2.329728 1_555
Na6 O22 2.366996 1_555
Na6 O21 2.410703 1_555
Na6 O26 2.491433 1_545
Na7 O15 2.329728 1_555
Na7 O23 2.366996 1_555
Na7 O20 2.410703 1_555
Na7 O27 2.491433 1_565
Al0 O24 1.755030 1_555
Al0 O1 1.758558 1_455
Al0 O4 1.760287 1_455
Al0 O20 1.760488 1_555
Al1 O25 1.755030 1_555
Al1 O0 1.758558 1_455
Al1 O5 1.760287 1_455
Al1 O21 1.760488 1_555
Al2 O2 1.756378 1_555
Al2 O3 1.756378 1_545
Al2 O9 1.763154 1_545
Al2 O8 1.763154 1_555
Al3 O11 1.759126 1_554
Al3 O7 1.759385 1_555
Al3 O19 1.759760 1_554
Al3 O15 1.763415 1_555
Al4 O10 1.759126 1_556
Al4 O6 1.759385 1_555
Al4 O18 1.759760 1_556
Al4 O14 1.763415 1_555
Al5 O23 1.757873 1_545
Al5 O22 1.757873 1_555
Al5 O17 1.762205 1_545
Al5 O16 1.762205 1_555
N0 O26 1.271824 1_644
N0 O27 1.271824 1_655
N1 O12 1.275556 1_555
N1 O13 1.275556 1_555
O0 Si0 1.643183 1_655
O1 Si1 1.643183 1_655
O2 Si0 1.639096 1_655
O3 Si1 1.639096 1_655
O4 Si2 1.641766 1_555
O5 Si2 1.641766 1_556
O6 Si2 1.638881 1_556
O7 Si2 1.638881 1_555
O8 Si3 1.642903 1_555
O9 Si4 1.642903 1_555
O10 Si4 1.637602 1_545
O11 Si3 1.637602 1_565
O14 Si3 1.641158 1_555
O15 Si4 1.641158 1_555
O16 Si4 1.640341 1_545
O17 Si3 1.640341 1_565
O18 Si5 1.638485 1_555
O19 Si5 1.638485 1_556
O20 Si5 1.642023 1_555
O21 Si5 1.642023 1_556
O22 Si0 1.640967 1_555
O23 Si1 1.640967 1_555
O24 Si0 1.639210 1_555
O25 Si1 1.639210 1_555
