# generated using pymatgen
data_PbWO2
_symmetry_space_group_name_H-M   'P 1'
_cell_length_a   6.77102500
_cell_length_b   6.77102500
_cell_length_c   7.98265854
_cell_angle_alpha   115.09424471
_cell_angle_beta   115.09424471
_cell_angle_gamma   90.00000000
_symmetry_Int_Tables_number   1
_chemical_formula_structural   PbWO2
_chemical_formula_sum   'Pb4 W4 O8'
_cell_volume   292.84373696
_cell_formula_units_Z   4
loop_
 _symmetry_equiv_pos_site_id
 _symmetry_equiv_pos_as_xyz
  1  'x, y, z'
loop_
 _atom_site_type_symbol
 _atom_site_label
 _atom_site_symmetry_multiplicity
 _atom_site_fract_x
 _atom_site_fract_y
 _atom_site_fract_z
 _atom_site_occupancy
  Pb  Pb0  1  0.62500000  0.87500000  0.25000000  1
  Pb  Pb1  1  0.62500000  0.37500000  0.25000000  1
  Pb  Pb2  1  0.62500000  0.37500000  0.75000000  1
  Pb  Pb3  1  0.12500000  0.37500000  0.75000000  1
  W  W0  1  0.12500000  0.37500000  0.25000000  1
  W  W1  1  0.12500000  0.87500000  0.25000000  1
  W  W2  1  0.12500000  0.87500000  0.75000000  1
  W  W3  1  0.62500000  0.87500000  0.75000000  1
  O  O0  1  0.31652900  0.12034000  0.26465600  1
  O  O1  1  0.94812700  0.14431600  0.26465600  1
  O  O2  1  0.39431600  0.06652900  0.76465600  1
  O  O3  1  0.93347100  0.62966000  0.23534400  1
  O  O4  1  0.37034000  0.69812700  0.76465600  1
  O  O5  1  0.30187300  0.60568400  0.23534400  1
  O  O6  1  0.85568400  0.68347100  0.73534400  1
  O  O7  1  0.87966000  0.05187300  0.73534400  1
loop_
_geom_bond_atom_site_label_1
_geom_bond_atom_site_label_2
_geom_bond_distance
_geom_bond_site_symmetry_2
O0 W1 2.039988 1_545
O0 W0 2.170521 1_555
O0 Pb0 2.679221 1_545
O0 Pb1 2.779898 1_555
O1 W0 2.039988 1_655
O1 W1 2.170521 1_645
O1 Pb1 2.679221 1_555
O1 Pb0 2.779898 1_545
O2 W3 2.039988 1_545
O2 W2 2.170521 1_545
O2 Pb2 2.679221 1_555
O2 Pb3 2.779898 1_555
O3 W1 2.039988 1_655
O3 W0 2.170521 1_655
O3 Pb0 2.679221 1_555
O3 Pb1 2.779898 1_555
O4 W2 2.039988 1_555
O4 W3 2.170521 1_555
O4 Pb3 2.679221 1_555
O4 Pb2 2.779898 1_555
O5 W0 2.039988 1_555
O5 W1 2.170521 1_555
O5 Pb1 2.679221 1_555
O5 Pb0 2.779898 1_555
O6 W3 2.039988 1_555
O6 W2 2.170521 1_655
O6 Pb2 2.679221 1_555
O6 Pb3 2.779898 1_655
O7 W2 2.039988 1_645
O7 W3 2.170521 1_545
O7 Pb3 2.679221 1_655
O7 Pb2 2.779898 1_555
