# generated using pymatgen
data_K2SrCl4
_symmetry_space_group_name_H-M   'P 1'
_cell_length_a   8.05476797
_cell_length_b   8.05476797
_cell_length_c   7.90442181
_cell_angle_alpha   70.58698106
_cell_angle_beta   70.58698106
_cell_angle_gamma   107.48883310
_symmetry_Int_Tables_number   1
_chemical_formula_structural   K2SrCl4
_chemical_formula_sum   'K4 Sr2 Cl8'
_cell_volume   404.56724908
_cell_formula_units_Z   2
loop_
 _symmetry_equiv_pos_site_id
 _symmetry_equiv_pos_as_xyz
  1  'x, y, z'
loop_
 _atom_site_type_symbol
 _atom_site_label
 _atom_site_symmetry_multiplicity
 _atom_site_fract_x
 _atom_site_fract_y
 _atom_site_fract_z
 _atom_site_occupancy
  K  K0  1  0.35289900  0.75358700  0.39077800  1
  K  K1  1  0.24968000  0.13692800  0.61732400  1
  K  K2  1  0.75358700  0.35289900  0.89077800  1
  K  K3  1  0.13692800  0.24968000  0.11732400  1
  Sr  Sr0  1  0.61887600  0.85915500  0.75758900  1
  Sr  Sr1  1  0.85915500  0.61887600  0.25758900  1
  Cl  Cl0  1  0.51910800  0.51272700  0.13330700  1
  Cl  Cl1  1  0.99603100  0.37280200  0.48481100  1
  Cl  Cl2  1  0.85315500  0.97799300  0.99591700  1
  Cl  Cl3  1  0.37280200  0.99603100  0.98481100  1
  Cl  Cl4  1  0.51272700  0.51910800  0.63330700  1
  Cl  Cl5  1  0.97799300  0.85315500  0.49591700  1
  Cl  Cl6  1  0.63721600  0.13124300  0.38457400  1
  Cl  Cl7  1  0.13124300  0.63721600  0.88457400  1
loop_
_geom_bond_atom_site_label_1
_geom_bond_atom_site_label_2
_geom_bond_distance
_geom_bond_site_symmetry_2
Cl0 Sr0 2.967990 1_554
Cl0 K2 3.097521 1_554
Cl0 Sr1 3.183973 1_555
Cl0 K3 3.240033 1_555
Cl0 K1 3.368028 1_555
Cl0 K0 3.474570 1_555
Cl1 Sr1 2.938233 1_555
Cl1 K2 3.072573 1_555
Cl1 K0 3.160334 1_655
Cl1 K3 3.333046 1_655
Cl1 K1 3.363586 1_655
Cl1 Sr0 3.627199 1_545
Cl2 Sr1 2.970004 1_556
Cl2 K1 3.072051 1_665
Cl2 Sr0 3.240728 1_555
Cl2 K2 3.268541 1_565
Cl2 K3 3.283627 1_666
Cl2 K0 3.571708 1_556
Cl3 Sr0 2.938233 1_555
Cl3 K0 3.072573 1_556
Cl3 K2 3.160334 1_565
Cl3 K1 3.333046 1_565
Cl3 K3 3.363586 1_566
Cl3 Sr1 3.627199 1_456
Cl4 Sr1 2.967990 1_555
Cl4 K0 3.097521 1_555
Cl4 Sr0 3.183973 1_555
Cl4 K1 3.240033 1_555
Cl4 K3 3.368028 1_556
Cl4 K2 3.474570 1_555
Cl5 Sr0 2.970004 1_555
Cl5 K3 3.072051 1_665
Cl5 Sr1 3.240728 1_555
Cl5 K0 3.268541 1_655
Cl5 K1 3.283627 1_665
Cl5 K2 3.571708 1_555
Cl6 Sr0 2.956138 1_545
Cl6 K1 3.074899 1_555
Cl6 K0 3.184254 1_545
Cl6 K2 3.351212 1_554
Cl6 Sr1 3.405414 1_555
Cl6 K3 3.503418 1_655
Cl7 Sr1 2.956138 1_456
Cl7 K3 3.074899 1_556
Cl7 K2 3.184254 1_455
Cl7 K0 3.351212 1_555
Cl7 Sr0 3.405414 1_555
Cl7 K1 3.503418 1_565
