# generated using pymatgen
data_CaY2BeO5
_symmetry_space_group_name_H-M   'P 1'
_cell_length_a   6.37040400
_cell_length_b   6.97974000
_cell_length_c   9.28382400
_cell_angle_alpha   90.00000000
_cell_angle_beta   90.00000000
_cell_angle_gamma   90.00000000
_symmetry_Int_Tables_number   1
_chemical_formula_structural   CaY2BeO5
_chemical_formula_sum   'Ca4 Y8 Be4 O20'
_cell_volume   412.79375578
_cell_formula_units_Z   4
loop_
 _symmetry_equiv_pos_site_id
 _symmetry_equiv_pos_as_xyz
  1  'x, y, z'
loop_
 _atom_site_type_symbol
 _atom_site_label
 _atom_site_symmetry_multiplicity
 _atom_site_fract_x
 _atom_site_fract_y
 _atom_site_fract_z
 _atom_site_occupancy
  Ca  Ca0  1  0.58182200  0.98213100  0.67593800  1
  Ca  Ca1  1  0.41817800  0.48213100  0.32406200  1
  Ca  Ca2  1  0.08182200  0.48213100  0.82406200  1
  Ca  Ca3  1  0.91817800  0.98213100  0.17593800  1
  Y  Y0  1  0.09584900  0.74587100  0.52133900  1
  Y  Y1  1  0.40415100  0.74587100  0.02133900  1
  Y  Y2  1  0.90415100  0.24587100  0.47866100  1
  Y  Y3  1  0.59584900  0.24587100  0.97866100  1
  Y  Y4  1  0.92755300  0.52694800  0.17398000  1
  Y  Y5  1  0.07244700  0.02694800  0.82602000  1
  Y  Y6  1  0.42755300  0.02694800  0.32602000  1
  Y  Y7  1  0.57244700  0.52694800  0.67398000  1
  Be  Be0  1  0.69368700  0.74818300  0.39689500  1
  Be  Be1  1  0.80631300  0.74818300  0.89689500  1
  Be  Be2  1  0.30631300  0.24818300  0.60310500  1
  Be  Be3  1  0.19368700  0.24818300  0.10310500  1
  O  O0  1  0.02187700  0.75028600  0.99082800  1
  O  O1  1  0.47812300  0.75028600  0.49082800  1
  O  O2  1  0.97812300  0.25028600  0.00917200  1
  O  O3  1  0.52187700  0.25028600  0.50917200  1
  O  O4  1  0.63752100  0.74897500  0.21959900  1
  O  O5  1  0.86247900  0.74897500  0.71959900  1
  O  O6  1  0.36247900  0.24897500  0.78040100  1
  O  O7  1  0.13752100  0.24897500  0.28040100  1
  O  O8  1  0.31858300  0.05296600  0.07303800  1
  O  O9  1  0.19158900  0.44625300  0.57196400  1
  O  O10  1  0.68141700  0.55296600  0.92696200  1
  O  O11  1  0.80841100  0.94625300  0.42803600  1
  O  O12  1  0.69158900  0.94625300  0.92803600  1
  O  O13  1  0.81858300  0.55296600  0.42696200  1
  O  O14  1  0.30841100  0.44625300  0.07196400  1
  O  O15  1  0.18141700  0.05296600  0.57303800  1
  O  O16  1  0.16407700  0.74838800  0.27786200  1
  O  O17  1  0.33592300  0.74838800  0.77786200  1
  O  O18  1  0.83592300  0.24838800  0.72213800  1
  O  O19  1  0.66407700  0.24838800  0.22213800  1
loop_
_geom_bond_atom_site_label_1
_geom_bond_atom_site_label_2
_geom_bond_distance
_geom_bond_site_symmetry_2
Ca0 O1 2.451197 1_555
Ca0 O5 2.451369 1_555
Ca0 O17 2.451715 1_555
Ca0 O12 2.455464 1_555
Ca0 O3 2.458844 1_565
Ca0 O18 2.501581 1_565
Ca0 O6 2.522283 1_565
Ca0 O11 2.728205 1_555
Ca0 O15 2.768272 1_565
Ca1 O3 2.451197 1_555
Ca1 O7 2.451369 1_555
Ca1 O19 2.451715 1_555
Ca1 O14 2.455464 1_555
Ca1 O1 2.458844 1_555
Ca1 O16 2.501581 1_555
Ca1 O4 2.522283 1_555
Ca1 O9 2.728205 1_555
Ca1 O13 2.768272 1_555
Ca2 O2 2.451197 1_456
Ca2 O6 2.451369 1_555
Ca2 O18 2.451715 1_455
Ca2 O9 2.455464 1_555
Ca2 O0 2.458844 1_555
Ca2 O17 2.501581 1_555
Ca2 O5 2.522283 1_455
Ca2 O14 2.728205 1_556
Ca2 O10 2.768272 1_455
Ca3 O0 2.451197 1_654
Ca3 O4 2.451369 1_555
Ca3 O16 2.451715 1_655
Ca3 O11 2.455464 1_555
Ca3 O2 2.458844 1_565
Ca3 O19 2.501581 1_565
Ca3 O7 2.522283 1_665
Ca3 O12 2.728205 1_554
Ca3 O8 2.768272 1_665
Be0 O11 1.590267 1_555
Be0 O13 1.602354 1_555
Be0 O1 1.626794 1_555
Be0 O4 1.684434 1_555
Be1 O12 1.590267 1_555
Be1 O10 1.602354 1_555
Be1 O0 1.626794 1_655
Be1 O5 1.684434 1_555
Be2 O9 1.590267 1_555
Be2 O15 1.602354 1_555
Be2 O3 1.626794 1_555
Be2 O6 1.684434 1_555
Be3 O14 1.590267 1_555
Be3 O8 1.602354 1_555
Be3 O2 1.626794 1_455
Be3 O7 1.684434 1_555
O0 Y4 2.383745 1_456
O0 Y1 2.451852 1_556
O0 Y5 2.484694 1_565
O1 Y7 2.383745 1_555
O1 Y0 2.451852 1_555
O1 Y6 2.484694 1_565
O2 Y5 2.383745 1_654
O2 Y3 2.451852 1_554
O2 Y4 2.484694 1_555
O3 Y6 2.383745 1_555
O3 Y2 2.451852 1_555
O3 Y7 2.484694 1_555
O4 Y1 2.366111 1_555
O4 Y4 2.448390 1_555
O4 Y6 2.555298 1_565
O5 Y0 2.366111 1_655
O5 Y7 2.448390 1_555
O5 Y5 2.555298 1_665
O6 Y3 2.366111 1_555
O6 Y5 2.448390 1_555
O6 Y7 2.555298 1_555
O7 Y2 2.366111 1_455
O7 Y6 2.448390 1_555
O7 Y4 2.555298 1_455
O8 Y1 2.263151 1_545
O8 Y3 2.387542 1_554
O8 Y6 2.455805 1_555
O8 Y5 2.783999 1_554
O9 Y0 2.228503 1_555
O9 Y2 2.461575 1_455
O9 Y7 2.664726 1_555
O10 Y3 2.263151 1_555
O10 Y1 2.387542 1_556
O10 Y7 2.455805 1_555
O10 Y4 2.783999 1_556
O11 Y2 2.228503 1_565
O11 Y0 2.461575 1_655
O11 Y6 2.664726 1_565
O12 Y3 2.228503 1_565
O12 Y1 2.461575 1_556
O12 Y5 2.664726 1_665
O13 Y2 2.263151 1_555
O13 Y0 2.387542 1_655
O13 Y4 2.455805 1_555
O13 Y7 2.783999 1_555
O14 Y1 2.228503 1_555
O14 Y3 2.461575 1_554
O14 Y4 2.664726 1_455
O15 Y0 2.263151 1_545
O15 Y2 2.387542 1_455
O15 Y5 2.455805 1_555
O15 Y6 2.783999 1_555
O16 Y0 2.301873 1_555
O16 Y4 2.364165 1_455
O16 Y6 2.607161 1_565
O16 Y1 2.830351 1_555
O17 Y1 2.301873 1_556
O17 Y7 2.364165 1_555
O17 Y5 2.607161 1_565
O17 Y0 2.830351 1_555
O18 Y2 2.301873 1_555
O18 Y5 2.364165 1_655
O18 Y7 2.607161 1_555
O18 Y3 2.830351 1_555
O19 Y3 2.301873 1_554
O19 Y6 2.364165 1_555
O19 Y4 2.607161 1_555
O19 Y2 2.830351 1_555
