# generated using pymatgen
data_MgSi
_symmetry_space_group_name_H-M   'P 1'
_cell_length_a   4.79323500
_cell_length_b   5.23305051
_cell_length_c   10.20680928
_cell_angle_alpha   75.52737692
_cell_angle_beta   78.12024887
_cell_angle_gamma   76.42759186
_symmetry_Int_Tables_number   1
_chemical_formula_structural   MgSi
_chemical_formula_sum   'Mg6 Si6'
_cell_volume   238.00740536
_cell_formula_units_Z   6
loop_
 _symmetry_equiv_pos_site_id
 _symmetry_equiv_pos_as_xyz
  1  'x, y, z'
loop_
 _atom_site_type_symbol
 _atom_site_label
 _atom_site_symmetry_multiplicity
 _atom_site_fract_x
 _atom_site_fract_y
 _atom_site_fract_z
 _atom_site_occupancy
  Mg  Mg0  1  0.54906100  0.11178700  0.89284300  1
  Mg  Mg1  1  0.72491500  0.77837700  0.24807300  1
  Mg  Mg2  1  0.01731800  0.10942900  0.39999800  1
  Mg  Mg3  1  0.56301200  0.57829900  0.57787200  1
  Mg  Mg4  1  0.06124800  0.29393600  0.09307500  1
  Mg  Mg5  1  0.12720300  0.20266000  0.68499800  1
  Si  Si0  1  0.94094500  0.65323700  0.81830600  1
  Si  Si1  1  0.19754500  0.57508300  0.40702500  1
  Si  Si2  1  0.52368300  0.53351600  0.99880900  1
  Si  Si3  1  0.08269300  0.85129300  0.98657800  1
  Si  Si4  1  0.69140900  0.99466300  0.64717100  1
  Si  Si5  1  0.52101700  0.31777000  0.24513400  1
loop_
_geom_bond_atom_site_label_1
_geom_bond_atom_site_label_2
_geom_bond_distance
_geom_bond_site_symmetry_2
Mg0 Si4 2.645073 1_545
Mg0 Si2 2.658581 1_555
Mg0 Si3 2.769200 1_545
Mg0 Si3 2.834643 1_645
Mg0 Si0 2.841458 1_545
Mg0 Si2 2.970634 1_545
Mg1 Si5 2.756540 1_565
Mg1 Si5 2.814228 1_555
Mg1 Si3 2.850234 1_654
Mg1 Si1 2.900940 1_655
Mg1 Si1 2.977368 1_555
Mg2 Si4 2.688157 1_445
Mg2 Si1 2.713298 1_545
Mg2 Si1 2.791101 1_555
Mg2 Si5 2.884283 1_555
Mg2 Si5 2.969131 1_455
Mg3 Si4 2.684285 1_555
Mg3 Si1 2.719562 1_555
Mg3 Si4 2.902482 1_545
Mg3 Si1 3.177839 1_655
Mg4 Si2 2.689616 1_554
Mg4 Si5 2.723997 1_455
Mg4 Si3 2.767396 1_544
Mg4 Si2 2.835208 1_454
Mg4 Si3 2.865163 1_554
Mg4 Si5 2.985801 1_555
Mg4 Si0 3.042098 1_454
Mg5 Si4 2.654436 1_545
Mg5 Si4 2.703033 1_445
Mg5 Si0 2.885053 1_455
Mg5 Si1 3.018685 1_555
Mg5 Si0 3.108727 1_445
Mg5 Si3 3.160105 1_545
Si0 Si4 2.443614 1_555
Si0 Si3 2.487251 1_655
Si0 Si2 2.506198 1_555
Si1 Si5 2.454577 1_555
Si2 Si3 2.367291 1_555
Si2 Si5 2.484095 1_556
