# generated using pymatgen
data_Ni2C5(Cl2O)2
_symmetry_space_group_name_H-M   'P 1'
_cell_length_a   7.46017500
_cell_length_b   10.85421393
_cell_length_c   14.51240304
_cell_angle_alpha   91.05248493
_cell_angle_beta   90.37138833
_cell_angle_gamma   103.58948159
_symmetry_Int_Tables_number   1
_chemical_formula_structural   Ni2C5(Cl2O)2
_chemical_formula_sum   'Ni8 C20 Cl16 O8'
_cell_volume   1141.97016771
_cell_formula_units_Z   4
loop_
 _symmetry_equiv_pos_site_id
 _symmetry_equiv_pos_as_xyz
  1  'x, y, z'
loop_
 _atom_site_type_symbol
 _atom_site_label
 _atom_site_symmetry_multiplicity
 _atom_site_fract_x
 _atom_site_fract_y
 _atom_site_fract_z
 _atom_site_occupancy
  Ni  Ni0  1  0.91047400  0.81596300  0.91186100  1
  Ni  Ni1  1  0.76029900  0.58532100  0.45530700  1
  Ni  Ni2  1  0.21262300  0.88456300  0.00043900  1
  Ni  Ni3  1  0.08952600  0.18403700  0.08813900  1
  Ni  Ni4  1  0.23970100  0.41467900  0.54469300  1
  Ni  Ni5  1  0.91063000  0.28785400  0.51505100  1
  Ni  Ni6  1  0.78737700  0.11543700  0.99956100  1
  Ni  Ni7  1  0.08937000  0.71214600  0.48494900  1
  C  C0  1  0.80890900  0.14369300  0.15957100  1
  C  C1  1  0.86518000  0.24375100  0.09589300  1
  C  C2  1  0.36957400  0.40502000  0.64816700  1
  C  C3  1  0.75063000  0.66482800  0.92066000  1
  C  C4  1  0.63042600  0.59498000  0.35183300  1
  C  C5  1  0.09736300  0.37544300  0.42901100  1
  C  C6  1  0.26523400  0.78287100  0.08798900  1
  C  C7  1  0.24937000  0.33517200  0.07934000  1
  C  C8  1  0.14105700  0.23429500  0.52471300  1
  C  C9  1  0.22193400  0.81280800  0.40062400  1
  C  C10  1  0.77806600  0.18719200  0.59937600  1
  C  C11  1  0.73476600  0.21712900  0.91201100  1
  C  C12  1  0.86913500  0.04686900  0.11216500  1
  C  C13  1  0.19109100  0.85630700  0.84042900  1
  C  C14  1  0.85894300  0.76570500  0.47528700  1
  C  C15  1  0.90263700  0.62455700  0.57098900  1
  C  C16  1  0.13086500  0.95313100  0.88783500  1
  C  C17  1  0.84371000  0.73854700  0.57112000  1
  C  C18  1  0.13482000  0.75624900  0.90410700  1
  C  C19  1  0.15629000  0.26145300  0.42888000  1
  Cl  Cl0  1  0.17704300  0.60804300  0.88959000  1
  Cl  Cl1  1  0.70132900  0.14400000  0.26370100  1
  Cl  Cl2  1  0.84226900  0.89613300  0.15141400  1
  Cl  Cl3  1  0.80293100  0.89499800  0.42653900  1
  Cl  Cl4  1  0.91628200  0.53876200  0.66727100  1
  Cl  Cl5  1  0.08371800  0.46123800  0.33272900  1
  Cl  Cl6  1  0.29867100  0.85600000  0.73629900  1
  Cl  Cl7  1  0.30051600  0.06665400  0.08324600  1
  Cl  Cl8  1  0.69948400  0.93334600  0.91675400  1
  Cl  Cl9  1  0.15773100  0.10386700  0.84858600  1
  Cl  Cl10  1  0.67886300  0.37308000  0.46790400  1
  Cl  Cl11  1  0.19706900  0.10500200  0.57346100  1
  Cl  Cl12  1  0.32113700  0.62692000  0.53209600  1
  Cl  Cl13  1  0.82295700  0.39195700  0.11041000  1
  Cl  Cl14  1  0.22684800  0.17894400  0.33945400  1
  Cl  Cl15  1  0.77315200  0.82105600  0.66054600  1
  O  O0  1  0.30879500  0.87499800  0.34627300  1
  O  O1  1  0.54536800  0.60387800  0.28703900  1
  O  O2  1  0.35123400  0.43247000  0.07655400  1
  O  O3  1  0.71055900  0.28497100  0.85594200  1
  O  O4  1  0.28944100  0.71502900  0.14405800  1
  O  O5  1  0.69120500  0.12500200  0.65372700  1
  O  O6  1  0.45463200  0.39612200  0.71296100  1
  O  O7  1  0.64876600  0.56753000  0.92344600  1
loop_
_geom_bond_atom_site_label_1
_geom_bond_atom_site_label_2
_geom_bond_distance
_geom_bond_site_symmetry_2
C0 C12 1.406773 1_555
C0 C1 1.427369 1_555
C0 Cl1 1.715975 1_555
C1 Cl13 1.719860 1_555
C1 Ni3 1.934794 1_655
C1 Ni6 1.941426 1_554
C2 O6 1.149163 1_555
C2 Ni4 1.799816 1_555
C3 O7 1.148598 1_555
C3 Ni0 1.794370 1_555
C4 O1 1.149163 1_555
C4 Ni1 1.799816 1_555
C5 Cl5 1.708938 1_555
C5 Ni5 1.961473 1_455
C5 Ni4 1.966085 1_555
C6 O4 1.148719 1_555
C6 Ni2 1.798709 1_555
C7 O2 1.148598 1_555
C7 Ni3 1.794370 1_555
C8 Cl11 1.718361 1_555
C8 Ni4 1.938657 1_555
C8 Ni5 1.944776 1_455
C9 O0 1.148190 1_555
C9 Ni7 1.796228 1_555
C10 O5 1.148190 1_555
C10 Ni5 1.796228 1_555
C11 O3 1.148719 1_555
C11 Ni6 1.798709 1_555
C12 Cl2 1.709713 1_545
C12 Ni6 1.959965 1_554
C12 Ni3 1.979309 1_655
C13 C16 1.406773 1_555
C13 C18 1.427369 1_555
C13 Cl6 1.715975 1_555
C14 C17 1.426678 1_555
C14 Cl3 1.718361 1_555
C14 Ni1 1.938657 1_555
C14 Ni7 1.944776 1_655
C15 C17 1.406990 1_555
C15 Cl4 1.708938 1_555
C15 Ni7 1.961473 1_655
C15 Ni1 1.966085 1_555
C16 Cl9 1.709713 1_565
C16 Ni2 1.959965 1_556
C16 Ni0 1.979309 1_455
C17 Cl15 1.717862 1_555
C18 Cl0 1.719860 1_555
C18 Ni0 1.934794 1_455
C18 Ni2 1.941426 1_556
C19 C5 1.406990 1_555
C19 C8 1.426678 1_555
C19 Cl14 1.717862 1_555
Cl7 Ni3 2.246434 1_555
Cl7 Ni2 2.252551 1_545
Cl8 Ni0 2.246434 1_555
Cl8 Ni6 2.252551 1_565
Cl10 Ni1 2.251400 1_555
Cl10 Ni5 2.252321 1_555
Cl12 Ni4 2.251400 1_555
Cl12 Ni7 2.252321 1_555
