# generated using pymatgen
data_YGe2Pt
_symmetry_space_group_name_H-M   'P 1'
_cell_length_a   4.36751600
_cell_length_b   8.80042800
_cell_length_c   9.56144274
_cell_angle_alpha   117.40027071
_cell_angle_beta   103.20242650
_cell_angle_gamma   90.00000000
_symmetry_Int_Tables_number   1
_chemical_formula_structural   YGe2Pt
_chemical_formula_sum   'Y4 Ge8 Pt4'
_cell_volume   315.29362727
_cell_formula_units_Z   4
loop_
 _symmetry_equiv_pos_site_id
 _symmetry_equiv_pos_as_xyz
  1  'x, y, z'
loop_
 _atom_site_type_symbol
 _atom_site_label
 _atom_site_symmetry_multiplicity
 _atom_site_fract_x
 _atom_site_fract_y
 _atom_site_fract_z
 _atom_site_occupancy
  Y  Y0  1  0.00000000  0.26216300  0.00000000  1
  Y  Y1  1  0.00000000  0.73783700  0.00000000  1
  Y  Y2  1  0.79727800  0.29727800  0.59455600  1
  Y  Y3  1  0.20272200  0.70272200  0.40544400  1
  Ge  Ge0  1  0.42599700  0.92599700  0.85199400  1
  Ge  Ge1  1  0.57400300  0.07400300  0.14800600  1
  Ge  Ge2  1  0.42582100  0.42582100  0.85164200  1
  Ge  Ge3  1  0.57417900  0.57417900  0.14835800  1
  Ge  Ge4  1  0.19907500  0.04866400  0.39815000  1
  Ge  Ge5  1  0.80092500  0.95133600  0.60185000  1
  Ge  Ge6  1  0.19907500  0.34948600  0.39815000  1
  Ge  Ge7  1  0.80092500  0.65051400  0.60185000  1
  Pt  Pt0  1  0.35168900  0.10155900  0.70337800  1
  Pt  Pt1  1  0.64831100  0.89844100  0.29662200  1
  Pt  Pt2  1  0.35168900  0.60181900  0.70337800  1
  Pt  Pt3  1  0.64831100  0.39818100  0.29662200  1
loop_
_geom_bond_atom_site_label_1
_geom_bond_atom_site_label_2
_geom_bond_distance
_geom_bond_site_symmetry_2
Ge0 Ge1 2.428210 1_566
Ge0 Pt0 2.514292 1_565
Ge0 Pt2 2.514292 1_555
Ge0 Y0 3.400849 1_566
Ge0 Y0 3.400849 1_666
Ge0 Y1 3.400849 1_556
Ge0 Y1 3.400849 1_656
Ge1 Pt3 2.514292 1_555
Ge1 Pt1 2.514292 1_545
Ge1 Y0 3.400849 1_555
Ge1 Y1 3.400849 1_545
Ge1 Y1 3.400849 1_645
Ge1 Y0 3.400849 1_655
Ge2 Ge3 2.433985 1_556
Ge2 Pt0 2.514896 1_555
Ge2 Pt2 2.514896 1_555
Ge2 Y2 3.035827 1_555
Ge2 Y2 3.035827 1_455
Ge2 Y1 3.260491 1_656
Ge2 Y1 3.260491 1_556
Ge2 Y0 3.260491 1_556
Ge2 Y0 3.260491 1_656
Ge3 Pt1 2.514896 1_555
Ge3 Pt3 2.514896 1_555
Ge3 Y3 3.035827 1_655
Ge3 Y3 3.035827 1_555
Ge3 Y0 3.260491 1_655
Ge3 Y1 3.260491 1_555
Ge3 Y1 3.260491 1_655
Ge3 Y0 3.260491 1_555
Ge4 Pt1 2.495705 1_545
Ge4 Pt1 2.495705 1_445
Ge4 Ge6 2.647362 1_555
Ge4 Pt0 2.653147 1_555
Ge4 Y2 3.019385 1_555
Ge4 Y2 3.019385 1_455
Ge4 Y3 3.077115 1_545
Ge4 Y1 3.410913 1_545
Ge5 Pt0 2.495705 1_665
Ge5 Pt0 2.495705 1_565
Ge5 Ge7 2.647362 1_555
Ge5 Pt1 2.653147 1_555
Ge5 Y3 3.019385 1_655
Ge5 Y3 3.019385 1_555
Ge5 Y2 3.077115 1_565
Ge5 Y0 3.410913 1_666
Ge6 Pt3 2.495705 1_555
Ge6 Pt3 2.495705 1_455
Ge6 Pt2 2.653147 1_555
Ge6 Y2 3.019385 1_555
Ge6 Y2 3.019385 1_455
Ge6 Y3 3.077115 1_555
Ge6 Y0 3.410913 1_555
Ge7 Pt2 2.495705 1_555
Ge7 Pt2 2.495705 1_655
Ge7 Pt3 2.653147 1_555
Ge7 Y3 3.019385 1_655
Ge7 Y3 3.019385 1_555
Ge7 Y2 3.077115 1_555
Ge7 Y1 3.410913 1_656
Pt0 Y2 3.226635 1_555
Pt0 Y2 3.226635 1_455
Pt0 Y0 3.271243 1_656
Pt0 Y0 3.271243 1_556
Pt0 Y3 3.287622 1_545
Pt1 Y3 3.226635 1_655
Pt1 Y3 3.226635 1_555
Pt1 Y1 3.271243 1_555
Pt1 Y1 3.271243 1_655
Pt1 Y2 3.287622 1_565
Pt2 Y2 3.226635 1_555
Pt2 Y2 3.226635 1_455
Pt2 Y1 3.271243 1_556
Pt2 Y1 3.271243 1_656
Pt2 Y3 3.287622 1_555
Pt3 Y3 3.226635 1_655
Pt3 Y3 3.226635 1_555
Pt3 Y0 3.271243 1_655
Pt3 Y0 3.271243 1_555
Pt3 Y2 3.287622 1_555
