# generated using pymatgen
data_Pr3Co13B2
_symmetry_space_group_name_H-M   'P 1'
_cell_length_a   5.11586434
_cell_length_b   5.11586434
_cell_length_c   10.83332800
_cell_angle_alpha   90.00000000
_cell_angle_beta   90.00000000
_cell_angle_gamma   119.99997852
_symmetry_Int_Tables_number   1
_chemical_formula_structural   Pr3Co13B2
_chemical_formula_sum   'Pr3 Co13 B2'
_cell_volume   245.54475234
_cell_formula_units_Z   1
loop_
 _symmetry_equiv_pos_site_id
 _symmetry_equiv_pos_as_xyz
  1  'x, y, z'
loop_
 _atom_site_type_symbol
 _atom_site_label
 _atom_site_symmetry_multiplicity
 _atom_site_fract_x
 _atom_site_fract_y
 _atom_site_fract_z
 _atom_site_occupancy
  Pr  Pr0  1  0.00000000  0.00000000  0.67714600  1
  Pr  Pr1  1  0.00000000  0.00000000  0.32285400  1
  Pr  Pr2  1  0.00000000  0.00000000  0.00000000  1
  Co  Co0  1  0.50000000  0.50000000  0.50000000  1
  Co  Co1  1  0.00000000  0.50000000  0.50000000  1
  Co  Co2  1  0.50000000  0.00000000  0.50000000  1
  Co  Co3  1  0.66666700  0.33333300  0.68179800  1
  Co  Co4  1  0.33333300  0.66666700  0.31820200  1
  Co  Co5  1  0.33333300  0.66666700  0.68179800  1
  Co  Co6  1  0.66666700  0.33333300  0.31820200  1
  Co  Co7  1  0.50000000  0.50000000  0.86556200  1
  Co  Co8  1  0.50000000  0.50000000  0.13443800  1
  Co  Co9  1  0.00000000  0.50000000  0.86556200  1
  Co  Co10  1  0.00000000  0.50000000  0.13443800  1
  Co  Co11  1  0.50000000  0.00000000  0.86556200  1
  Co  Co12  1  0.50000000  0.00000000  0.13443800  1
  B  B0  1  0.66666700  0.33333300  0.00000000  1
  B  B1  1  0.33333300  0.66666700  0.00000000  1
loop_
_geom_bond_atom_site_label_1
_geom_bond_atom_site_label_2
_geom_bond_distance
_geom_bond_site_symmetry_2
Co0 Co3 2.461677 1_555
Co0 Co4 2.461677 1_555
Co0 Co6 2.461677 1_555
Co0 Co5 2.461677 1_555
Co0 Co2 2.557932 1_555
Co0 Co1 2.557932 1_655
Co0 Co2 2.557932 1_565
Co0 Co1 2.557932 1_555
Co0 Pr0 3.197795 1_555
Co0 Pr0 3.197795 1_665
Co0 Pr1 3.197795 1_555
Co0 Pr1 3.197795 1_665
Co1 Co4 2.461675 1_555
Co1 Co3 2.461675 1_455
Co1 Co6 2.461675 1_455
Co1 Co5 2.461675 1_555
Co1 Co2 2.557933 1_565
Co1 Co2 2.557933 1_455
Co1 Pr0 3.197794 1_555
Co1 Pr0 3.197794 1_565
Co1 Pr1 3.197794 1_565
Co1 Pr1 3.197794 1_555
Co2 Co3 2.461675 1_555
Co2 Co4 2.461675 1_545
Co2 Co5 2.461675 1_545
Co2 Co6 2.461675 1_555
Co2 Pr0 3.197794 1_555
Co2 Pr0 3.197794 1_655
Co2 Pr1 3.197794 1_655
Co2 Pr1 3.197794 1_555
Co3 Co9 2.478748 1_655
Co3 Co7 2.478750 1_555
Co3 Pr0 2.954072 1_655
Co3 Pr0 2.954078 1_555
Co3 Pr0 2.954078 1_665
Co4 Co8 2.478750 1_555
Co4 Pr1 2.954072 1_565
Co4 Pr1 2.954078 1_665
Co4 Pr1 2.954078 1_555
Co5 Co9 2.478748 1_555
Co5 Co7 2.478750 1_555
Co5 Pr0 2.954072 1_565
Co5 Pr0 2.954078 1_665
Co5 Pr0 2.954078 1_555
Co6 Co8 2.478750 1_555
Co6 Pr1 2.954072 1_655
Co6 Pr1 2.954078 1_555
Co6 Pr1 2.954078 1_665
Co7 Pr2 2.943494 1_666
Co7 Pr2 2.943494 1_556
Co7 Pr0 3.272523 1_555
Co7 Pr0 3.272523 1_665
Co8 Pr2 2.943494 1_665
Co8 Pr2 2.943494 1_555
Co8 Pr1 3.272523 1_555
Co8 Pr1 3.272523 1_665
Co9 Pr2 2.943493 1_556
Co9 Pr2 2.943493 1_566
Co9 Pr0 3.272522 1_565
Co9 Pr0 3.272522 1_555
Co10 Co6 2.478748 1_455
Co10 Co4 2.478748 1_555
Co10 Pr2 2.943493 1_555
Co10 Pr2 2.943493 1_565
Co10 Pr1 3.272522 1_555
Co10 Pr1 3.272522 1_565
Co11 Co3 2.478748 1_555
Co11 Co5 2.478748 1_545
Co11 Pr2 2.943493 1_556
Co11 Pr2 2.943493 1_656
Co11 Pr0 3.272522 1_555
Co11 Pr0 3.272522 1_655
Co12 Co6 2.478748 1_555
Co12 Co4 2.478748 1_545
Co12 Pr2 2.943493 1_555
Co12 Pr2 2.943493 1_655
Co12 Pr1 3.272522 1_555
Co12 Pr1 3.272522 1_655
B0 Co10 2.074159 1_655
B0 Co12 2.074159 1_555
B0 Co11 2.074159 1_554
B0 Co9 2.074159 1_654
B0 Co8 2.074162 1_555
B0 Co7 2.074162 1_554
B0 Pr2 2.953642 1_655
B0 Pr2 2.953648 1_665
B0 Pr2 2.953648 1_555
B1 Co12 2.074159 1_565
B1 Co10 2.074159 1_555
B1 Co11 2.074159 1_564
B1 Co9 2.074159 1_554
B1 Co8 2.074162 1_555
B1 Co7 2.074162 1_554
B1 Pr2 2.953642 1_565
B1 Pr2 2.953648 1_665
B1 Pr2 2.953648 1_555
