# generated using pymatgen
data_Ag3SbO4
_symmetry_space_group_name_H-M   'P 1'
_cell_length_a   7.15319961
_cell_length_b   7.15319961
_cell_length_c   8.71594938
_cell_angle_alpha   90.00000000
_cell_angle_beta   90.00000000
_cell_angle_gamma   90.00000000
_symmetry_Int_Tables_number   1
_chemical_formula_structural   Ag3SbO4
_chemical_formula_sum   'Ag12 Sb4 O16'
_cell_volume   445.98000464
_cell_formula_units_Z   4
loop_
 _symmetry_equiv_pos_site_id
 _symmetry_equiv_pos_as_xyz
  1  'x, y, z'
loop_
 _atom_site_type_symbol
 _atom_site_label
 _atom_site_symmetry_multiplicity
 _atom_site_fract_x
 _atom_site_fract_y
 _atom_site_fract_z
 _atom_site_occupancy
  Ag  Ag0  1  0.73772073  -0.00000000  0.75000000  1
  Ag  Ag1  1  0.26227927  -0.00000000  0.25000000  1
  Ag  Ag2  1  -0.00000000  0.26227927  0.50000000  1
  Ag  Ag3  1  -0.00000000  0.73772073  -0.00000000  1
  Ag  Ag4  1  0.18035353  -0.00000000  0.75000000  1
  Ag  Ag5  1  0.81964647  -0.00000000  0.25000000  1
  Ag  Ag6  1  -0.00000000  0.81964647  0.50000000  1
  Ag  Ag7  1  -0.00000000  0.18035353  -0.00000000  1
  Ag  Ag8  1  0.79877045  0.50000000  0.75000000  1
  Ag  Ag9  1  0.20122955  0.50000000  0.25000000  1
  Ag  Ag10  1  0.50000000  0.20122955  0.50000000  1
  Ag  Ag11  1  0.50000000  0.79877045  -0.00000000  1
  Sb  Sb0  1  0.27871831  0.50000000  0.75000000  1
  Sb  Sb1  1  0.72128169  0.50000000  0.25000000  1
  Sb  Sb2  1  0.50000000  0.72128169  0.50000000  1
  Sb  Sb3  1  0.50000000  0.27871831  -0.00000000  1
  O  O0  1  0.48372354  0.69573895  0.73039015  1
  O  O1  1  0.51627646  0.30426105  0.23039015  1
  O  O2  1  0.69573895  0.51627646  0.48039015  1
  O  O3  1  0.30426105  0.48372354  0.98039015  1
  O  O4  1  0.48372354  0.30426105  0.76960985  1
  O  O5  1  0.51627646  0.69573895  0.26960985  1
  O  O6  1  0.30426105  0.51627646  0.51960985  1
  O  O7  1  0.69573895  0.48372354  0.01960985  1
  O  O8  1  0.08643882  0.30431035  0.73381241  1
  O  O9  1  0.91356118  0.69568965  0.23381241  1
  O  O10  1  0.30431035  0.91356118  0.48381241  1
  O  O11  1  0.69568965  0.08643882  0.98381241  1
  O  O12  1  0.08643882  0.69568965  0.76618759  1
  O  O13  1  0.91356118  0.30431035  0.26618759  1
  O  O14  1  0.69568965  0.91356118  0.51618759  1
  O  O15  1  0.30431035  0.08643882  0.01618759  1
loop_
_geom_bond_atom_site_label_1
_geom_bond_atom_site_label_2
_geom_bond_distance
_geom_bond_site_symmetry_2
Ag0 O14 2.150751 1_545
Ag0 O11 2.150751 1_555
Ag1 O10 2.150751 1_545
Ag1 O15 2.150751 1_555
Ag2 O8 2.150751 1_555
Ag2 O13 2.150751 1_455
Ag3 O12 2.150751 1_554
Ag3 O9 2.150751 1_455
Ag4 O12 2.282463 1_545
Ag4 O8 2.282463 1_555
Ag4 O15 2.559548 1_556
Ag4 O10 2.559548 1_545
Ag5 O13 2.282463 1_555
Ag5 O9 2.282463 1_545
Ag5 O14 2.559548 1_545
Ag5 O11 2.559548 1_554
Ag6 O14 2.282463 1_455
Ag6 O10 2.282463 1_555
Ag6 O9 2.559548 1_455
Ag6 O12 2.559548 1_555
Ag7 O11 2.282463 1_454
Ag7 O15 2.282463 1_555
Ag7 O13 2.559548 1_455
Ag7 O8 2.559548 1_554
Ag8 O7 2.465520 1_556
Ag8 O2 2.465520 1_555
Ag8 O8 2.492729 1_655
Ag8 O12 2.492729 1_655
Ag8 O0 2.658636 1_555
Ag8 O4 2.658636 1_555
Ag9 O6 2.465520 1_555
Ag9 O3 2.465520 1_554
Ag9 O13 2.492729 1_455
Ag9 O9 2.492729 1_455
Ag9 O5 2.658636 1_555
Ag9 O1 2.658636 1_555
Ag10 O4 2.465520 1_555
Ag10 O1 2.465520 1_555
Ag10 O10 2.492729 1_545
Ag10 O14 2.492729 1_545
Ag10 O2 2.658636 1_555
Ag10 O6 2.658636 1_555
Ag11 O5 2.465520 1_555
Ag11 O0 2.465520 1_554
Ag11 O15 2.492729 1_565
Ag11 O11 2.492729 1_564
Ag11 O3 2.658636 1_554
Ag11 O7 2.658636 1_555
O0 Sb2 2.019723 1_555
O0 Sb0 2.034728 1_555
O1 Sb3 2.019723 1_555
O1 Sb1 2.034728 1_555
O2 Sb1 2.019723 1_555
O2 Sb2 2.034728 1_555
O3 Sb0 2.019723 1_555
O3 Sb3 2.034728 1_556
O4 Sb3 2.019723 1_556
O4 Sb0 2.034728 1_555
O5 Sb2 2.019723 1_555
O5 Sb1 2.034728 1_555
O6 Sb0 2.019723 1_555
O6 Sb2 2.034728 1_555
O7 Sb1 2.019723 1_555
O7 Sb3 2.034728 1_555
O8 Sb0 1.967518 1_555
O9 Sb1 1.967518 1_555
O10 Sb2 1.967518 1_555
O11 Sb3 1.967518 1_556
O12 Sb0 1.967518 1_555
O13 Sb1 1.967518 1_555
O14 Sb2 1.967518 1_555
O15 Sb3 1.967518 1_555
