# generated using pymatgen
data_PdRuBr4N5Cl
_symmetry_space_group_name_H-M   'P 1'
_cell_length_a   9.11495852
_cell_length_b   14.17056296
_cell_length_c   11.36078811
_cell_angle_alpha   90.00000000
_cell_angle_beta   90.00000000
_cell_angle_gamma   90.00000000
_symmetry_Int_Tables_number   1
_chemical_formula_structural   PdRuBr4N5Cl
_chemical_formula_sum   'Pd4 Ru4 Br16 N20 Cl4'
_cell_volume   1467.40589864
_cell_formula_units_Z   4
loop_
 _symmetry_equiv_pos_site_id
 _symmetry_equiv_pos_as_xyz
  1  'x, y, z'
loop_
 _atom_site_type_symbol
 _atom_site_label
 _atom_site_symmetry_multiplicity
 _atom_site_fract_x
 _atom_site_fract_y
 _atom_site_fract_z
 _atom_site_occupancy
  Pd  Pd0  1  0.75000000  0.85769057  0.32051443  1
  Pd  Pd1  1  0.25000000  0.14230943  0.67948557  1
  Pd  Pd2  1  0.25000000  0.64230943  0.82051443  1
  Pd  Pd3  1  0.75000000  0.35769057  0.17948557  1
  Ru  Ru0  1  0.75000000  0.96243837  0.67235582  1
  Ru  Ru1  1  0.25000000  0.03756163  0.32764418  1
  Ru  Ru2  1  0.25000000  0.53756163  0.17235582  1
  Ru  Ru3  1  0.75000000  0.46243837  0.82764418  1
  Br  Br0  1  0.75000000  0.00468079  0.46192729  1
  Br  Br1  1  0.25000000  0.99531921  0.53807271  1
  Br  Br2  1  0.25000000  0.49531921  0.96192729  1
  Br  Br3  1  0.75000000  0.50468079  0.03807271  1
  Br  Br4  1  0.97481273  0.63640830  0.79438254  1
  Br  Br5  1  0.02518727  0.36359170  0.20561746  1
  Br  Br6  1  0.02518727  0.86359170  0.29438254  1
  Br  Br7  1  0.47481273  0.36359170  0.20561746  1
  Br  Br8  1  0.97481273  0.13640830  0.70561746  1
  Br  Br9  1  0.52518727  0.63640830  0.79438254  1
  Br  Br10  1  0.52518727  0.13640830  0.70561746  1
  Br  Br11  1  0.47481273  0.86359170  0.29438254  1
  Br  Br12  1  0.75000000  0.68725572  0.28612283  1
  Br  Br13  1  0.25000000  0.31274428  0.71387717  1
  Br  Br14  1  0.25000000  0.81274428  0.78612283  1
  Br  Br15  1  0.75000000  0.18725572  0.21387717  1
  N  N0  1  0.81110412  0.82185899  0.99194742  1
  N  N1  1  0.18889588  0.17814101  0.00805258  1
  N  N2  1  0.18889588  0.67814101  0.49194742  1
  N  N3  1  0.31110412  0.17814101  0.00805258  1
  N  N4  1  0.81110412  0.32185899  0.50805258  1
  N  N5  1  0.68889588  0.82185899  0.99194742  1
  N  N6  1  0.68889588  0.32185899  0.50805258  1
  N  N7  1  0.31110412  0.67814101  0.49194742  1
  N  N8  1  0.92555392  0.01049961  0.72764728  1
  N  N9  1  0.07444608  0.98950039  0.27235272  1
  N  N10  1  0.07444608  0.48950039  0.22764728  1
  N  N11  1  0.42555392  0.98950039  0.27235272  1
  N  N12  1  0.92555392  0.51049961  0.77235272  1
  N  N13  1  0.57444608  0.01049961  0.72764728  1
  N  N14  1  0.57444608  0.51049961  0.77235272  1
  N  N15  1  0.42555392  0.48950039  0.22764728  1
  N  N16  1  0.75000000  0.84737206  0.70078129  1
  N  N17  1  0.25000000  0.15262794  0.29921871  1
  N  N18  1  0.25000000  0.65262794  0.20078129  1
  N  N19  1  0.75000000  0.34737206  0.79921871  1
  Cl  Cl0  1  0.75000000  0.56212516  0.42779165  1
  Cl  Cl1  1  0.25000000  0.43787484  0.57220835  1
  Cl  Cl2  1  0.25000000  0.93787484  0.92779165  1
  Cl  Cl3  1  0.75000000  0.06212516  0.07220835  1
loop_
_geom_bond_atom_site_label_1
_geom_bond_atom_site_label_2
_geom_bond_distance
_geom_bond_site_symmetry_2
Br0 Ru0 2.464437 1_545
Br0 Pd0 2.630524 1_545
Br1 Ru1 2.464437 1_565
Br1 Pd1 2.630524 1_565
Br2 Ru2 2.464437 1_556
Br2 Pd2 2.630524 1_555
Br3 Ru3 2.464437 1_554
Br3 Pd3 2.630524 1_555
Br4 N12 1.856769 1_555
Br4 Pd2 2.527212 1_655
Br5 N10 1.856769 1_555
Br5 Pd3 2.527212 1_455
Br6 N9 1.856769 1_555
Br6 Pd0 2.527212 1_455
Br7 N15 1.856769 1_555
Br7 Pd3 2.527212 1_555
Br8 N8 1.856769 1_555
Br8 Pd1 2.527212 1_655
Br9 N14 1.856769 1_555
Br9 Pd2 2.527212 1_555
Br10 N13 1.856769 1_555
Br10 Pd1 2.527212 1_555
Br11 N11 1.856769 1_555
Br11 Pd0 2.527212 1_555
Br12 Cl0 2.394687 1_555
Br12 Pd0 2.446558 1_555
Br13 Cl1 2.394687 1_555
Br13 Pd1 2.446558 1_555
Br14 Cl2 2.394687 1_555
Br14 Pd2 2.446558 1_555
Br15 Cl3 2.394687 1_555
Br15 Pd3 2.446558 1_555
N0 N5 1.113923 1_555
N1 N3 1.113923 1_555
N2 N7 1.113923 1_555
N4 N6 1.113923 1_555
N8 Ru0 1.849040 1_545
N9 Ru1 1.849040 1_565
N10 Ru2 1.849040 1_555
N11 Ru1 1.849040 1_565
N12 Ru3 1.849040 1_555
N13 Ru0 1.849040 1_545
N14 Ru3 1.849040 1_555
N15 Ru2 1.849040 1_555
N16 Ru0 1.662226 1_555
N17 Ru1 1.662226 1_555
N18 Ru2 1.662226 1_555
N19 Ru3 1.662226 1_555
