# generated using pymatgen
data_SmPt2
_symmetry_space_group_name_H-M   'P 1'
_cell_length_a   5.45355394
_cell_length_b   5.45355431
_cell_length_c   5.45355292
_cell_angle_alpha   59.99999592
_cell_angle_beta   59.99999372
_cell_angle_gamma   59.99999087
_symmetry_Int_Tables_number   1
_chemical_formula_structural   SmPt2
_chemical_formula_sum   'Sm2 Pt4'
_cell_volume   114.68951746
_cell_formula_units_Z   2
loop_
 _symmetry_equiv_pos_site_id
 _symmetry_equiv_pos_as_xyz
  1  'x, y, z'
loop_
 _atom_site_type_symbol
 _atom_site_label
 _atom_site_symmetry_multiplicity
 _atom_site_fract_x
 _atom_site_fract_y
 _atom_site_fract_z
 _atom_site_occupancy
  Sm  Sm0  1  0.12500000  0.12500000  0.12500000  1
  Sm  Sm1  1  0.87500000  0.87500000  0.87500000  1
  Pt  Pt0  1  0.00000000  0.50000000  0.50000000  1
  Pt  Pt1  1  0.50000000  0.00000000  0.50000000  1
  Pt  Pt2  1  0.50000000  0.50000000  -0.00000000  1
  Pt  Pt3  1  0.50000000  0.50000000  0.50000000  1
loop_
_geom_bond_atom_site_label_1
_geom_bond_atom_site_label_2
_geom_bond_distance
_geom_bond_site_symmetry_2
Sm0 Sm1 3.339605 1_445
Sm0 Sm1 3.339606 1_544
Sm0 Sm1 3.339606 1_454
Sm0 Sm1 3.339606 1_444
Pt0 Pt2 2.726776 1_555
Pt0 Pt2 2.726776 1_456
Pt0 Pt1 2.726777 1_465
Pt0 Pt1 2.726777 1_555
Pt0 Pt3 2.726777 1_455
Pt0 Pt3 2.726777 1_555
Pt0 Sm1 3.197429 1_454
Pt0 Sm0 3.197429 1_556
Pt0 Sm1 3.197429 1_455
Pt0 Sm0 3.197429 1_555
Pt0 Sm1 3.197430 1_445
Pt0 Sm0 3.197430 1_565
Pt1 Pt2 2.726777 1_546
Pt1 Pt2 2.726777 1_555
Pt1 Pt3 2.726777 1_555
Pt1 Pt3 2.726777 1_545
Pt1 Sm0 3.197429 1_556
Pt1 Sm1 3.197429 1_544
Pt1 Sm1 3.197429 1_545
Pt1 Sm0 3.197429 1_555
Pt1 Sm0 3.197429 1_655
Pt1 Sm1 3.197429 1_445
Pt2 Pt3 2.726776 1_554
Pt2 Pt3 2.726776 1_555
Pt2 Sm1 3.197429 1_454
Pt2 Sm0 3.197429 1_655
Pt2 Sm0 3.197429 1_565
Pt2 Sm1 3.197429 1_544
Pt2 Sm1 3.197430 1_554
Pt2 Sm0 3.197430 1_555
Pt3 Sm1 3.197429 1_455
Pt3 Sm0 3.197429 1_655
Pt3 Sm1 3.197429 1_545
Pt3 Sm0 3.197429 1_565
Pt3 Sm0 3.197429 1_556
Pt3 Sm1 3.197429 1_554
