# generated using pymatgen
data_Al21Pd8
_symmetry_space_group_name_H-M   'P 1'
_cell_length_a   10.61451132
_cell_length_b   10.61451055
_cell_length_c   10.61450987
_cell_angle_alpha   104.65483045
_cell_angle_beta   104.65482838
_cell_angle_gamma   119.60444813
_symmetry_Int_Tables_number   1
_chemical_formula_structural   Al21Pd8
_chemical_formula_sum   'Al42 Pd16'
_cell_volume   898.68914426
_cell_formula_units_Z   2
loop_
 _symmetry_equiv_pos_site_id
 _symmetry_equiv_pos_as_xyz
  1  'x, y, z'
loop_
 _atom_site_type_symbol
 _atom_site_label
 _atom_site_symmetry_multiplicity
 _atom_site_fract_x
 _atom_site_fract_y
 _atom_site_fract_z
 _atom_site_occupancy
  Al  Al0  1  0.12500000  0.37500000  0.75000000  1
  Al  Al1  1  0.87500000  0.62500000  0.25000000  1
  Al  Al2  1  0.61404374  0.72081078  0.78495112  1
  Al  Al3  1  0.22081078  0.93585966  0.10676603  1
  Al  Al4  1  0.32909263  0.11404374  0.39323397  1
  Al  Al5  1  0.43585966  0.82909263  0.71504888  1
  Al  Al6  1  0.38595626  0.27918922  0.21504888  1
  Al  Al7  1  0.77918922  0.06414034  0.89323397  1
  Al  Al8  1  0.67090737  0.88595626  0.60676603  1
  Al  Al9  1  0.56414034  0.17090737  0.28495112  1
  Al  Al10  1  0.65949938  0.07515947  0.08824427  1
  Al  Al11  1  0.57515947  0.98691420  0.41565909  1
  Al  Al12  1  0.07125511  0.15949938  0.08434091  1
  Al  Al13  1  0.48691420  0.57125511  0.41175573  1
  Al  Al14  1  0.34050062  0.92484053  0.91175573  1
  Al  Al15  1  0.42484053  0.01308580  0.58434091  1
  Al  Al16  1  0.92874489  0.84050062  0.91565909  1
  Al  Al17  1  0.51308580  0.42874489  0.58824427  1
  Al  Al18  1  0.93796732  0.18043202  0.32128281  1
  Al  Al19  1  0.68043202  0.85914921  0.24246270  1
  Al  Al20  1  0.11668551  0.43796732  0.25753730  1
  Al  Al21  1  0.35914921  0.61668551  0.17871719  1
  Al  Al22  1  0.06203268  0.81956798  0.67871719  1
  Al  Al23  1  0.31956798  0.14085079  0.75753730  1
  Al  Al24  1  0.88331449  0.56203268  0.74246270  1
  Al  Al25  1  0.64085079  0.38331449  0.82128281  1
  Al  Al26  1  0.15350964  0.17677799  0.54084059  1
  Al  Al27  1  0.67677799  0.63593840  0.02326935  1
  Al  Al28  1  0.11266905  0.65350964  0.47673065  1
  Al  Al29  1  0.13593840  0.61266905  0.95915941  1
  Al  Al30  1  0.84649036  0.82322201  0.45915941  1
  Al  Al31  1  0.32322201  0.36406160  0.97673065  1
  Al  Al32  1  0.88733095  0.34649036  0.52326935  1
  Al  Al33  1  0.86406160  0.38733095  0.04084059  1
  Al  Al34  1  0.28169035  0.50927469  0.58513989  1
  Al  Al35  1  0.00927469  0.92413380  0.22758234  1
  Al  Al36  1  0.19655046  0.78169035  0.27241766  1
  Al  Al37  1  0.42413380  0.69655046  0.91486011  1
  Al  Al38  1  0.71830965  0.49072531  0.41486011  1
  Al  Al39  1  0.99072531  0.07586620  0.77241766  1
  Al  Al40  1  0.80344954  0.21830965  0.72758234  1
  Al  Al41  1  0.57586620  0.30344954  0.08513989  1
  Pd  Pd0  1  0.84966152  0.37611063  0.28705083  1
  Pd  Pd1  1  0.87611063  0.08906080  0.52645111  1
  Pd  Pd2  1  0.06260869  0.34966152  0.97354889  1
  Pd  Pd3  1  0.58906080  0.56260869  0.21294917  1
  Pd  Pd4  1  0.15033848  0.62388937  0.71294917  1
  Pd  Pd5  1  0.12388937  0.91093920  0.47354889  1
  Pd  Pd6  1  0.93739131  0.65033848  0.02645111  1
  Pd  Pd7  1  0.41093920  0.43739131  0.78705083  1
  Pd  Pd8  1  0.20636795  0.06982396  0.93694930  1
  Pd  Pd9  1  0.56982396  0.13287566  0.86345601  1
  Pd  Pd10  1  0.76941765  0.70636795  0.63654399  1
  Pd  Pd11  1  0.63287566  0.26941765  0.56305070  1
  Pd  Pd12  1  0.79363205  0.93017604  0.06305070  1
  Pd  Pd13  1  0.43017604  0.86712434  0.13654399  1
  Pd  Pd14  1  0.23058235  0.29363205  0.36345601  1
  Pd  Pd15  1  0.36712434  0.73058235  0.43694930  1
loop_
_geom_bond_atom_site_label_1
_geom_bond_atom_site_label_2
_geom_bond_distance
_geom_bond_site_symmetry_2
Al0 Pd7 2.661471 1_555
Al0 Pd2 2.661477 1_555
Al0 Pd1 2.661477 1_455
Al0 Pd4 2.661489 1_555
Al0 Al29 2.837759 1_555
Al0 Al32 2.837760 1_455
Al0 Al31 2.837765 1_555
Al0 Al26 2.837766 1_555
Al0 Al40 2.872675 1_455
Al0 Al37 2.872679 1_555
Al0 Al34 2.872683 1_555
Al0 Al39 2.872684 1_455
Al1 Pd3 2.661471 1_555
Al1 Pd6 2.661477 1_555
Al1 Pd5 2.661477 1_655
Al1 Pd0 2.661489 1_555
Al1 Al33 2.837759 1_555
Al1 Al28 2.837760 1_655
Al1 Al27 2.837765 1_555
Al1 Al30 2.837766 1_555
Al1 Al36 2.872675 1_655
Al1 Al41 2.872679 1_555
Al1 Al38 2.872683 1_555
Al1 Al35 2.872684 1_655
Al2 Pd10 2.582063 1_555
Al2 Pd12 2.633258 1_556
Al2 Al37 2.665418 1_555
Al2 Al5 2.705167 1_555
Al2 Pd7 2.710865 1_555
Al2 Al34 2.821939 1_555
Al2 Al7 2.867765 1_565
Al2 Al8 2.867775 1_555
Al2 Al27 2.923612 1_556
Al3 Pd8 2.582062 1_564
Al3 Pd13 2.633266 1_555
Al3 Al36 2.665436 1_555
Al3 Al4 2.705185 1_565
Al3 Pd6 2.710876 1_455
Al3 Al35 2.821929 1_555
Al3 Al6 2.867765 1_565
Al3 Al9 2.867767 1_565
Al4 Pd11 2.582079 1_555
Al4 Pd14 2.633253 1_555
Al4 Pd5 2.710860 1_545
Al4 Al9 2.867773 1_555
Al4 Al6 2.867775 1_555
Al5 Pd9 2.582080 1_565
Al5 Pd15 2.633256 1_555
Al5 Pd4 2.710878 1_555
Al5 Al7 2.867767 1_565
Al5 Al8 2.867773 1_555
Al6 Pd14 2.582063 1_555
Al6 Pd8 2.633258 1_554
Al6 Al9 2.705167 1_555
Al6 Pd3 2.710865 1_555
Al7 Pd12 2.582062 1_546
Al7 Pd9 2.633266 1_555
Al7 Al8 2.705185 1_545
Al7 Pd2 2.710876 1_655
Al8 Pd15 2.582079 1_555
Al8 Pd10 2.633253 1_555
Al8 Pd1 2.710860 1_565
Al9 Pd13 2.582080 1_545
Al9 Pd11 2.633256 1_555
Al9 Pd0 2.710878 1_555
Al10 Pd12 2.572178 1_545
Al10 Pd0 2.606728 1_555
Al10 Pd13 2.637736 1_545
Al10 Pd9 2.672270 1_554
Al10 Al7 2.695795 1_554
Al10 Al9 2.725614 1_555
Al10 Al14 2.731384 1_544
Al10 Al18 2.782561 1_555
Al10 Al41 2.968490 1_555
Al10 Al37 3.128950 1_544
Al11 Pd13 2.572169 1_555
Al11 Pd1 2.606722 1_565
Al11 Pd15 2.637727 1_555
Al11 Pd11 2.672261 1_565
Al11 Al9 2.695806 1_565
Al11 Al8 2.725605 1_555
Al11 Al15 2.731404 1_565
Al11 Al19 2.782562 1_555
Al11 Al40 2.968491 1_565
Al11 Al36 3.128951 1_555
Al12 Pd14 2.572170 1_555
Al12 Pd2 2.606754 1_554
Al12 Pd12 2.637727 1_445
Al12 Pd8 2.672270 1_554
Al12 Al6 2.695804 1_555
Al12 Al7 2.725614 1_454
Al12 Al16 2.731388 1_444
Al12 Al20 2.782559 1_555
Al12 Al39 2.968488 1_454
Al12 Al35 3.128935 1_545
Al13 Pd15 2.572188 1_555
Al13 Pd3 2.606742 1_555
Al13 Pd14 2.637722 1_555
Al13 Pd10 2.672264 1_555
Al13 Al8 2.695800 1_555
Al13 Al6 2.725618 1_555
Al13 Al17 2.731387 1_555
Al13 Al21 2.782564 1_555
Al13 Al38 2.968508 1_555
Al13 Al34 3.128942 1_555
Al14 Pd8 2.572178 1_565
Al14 Pd4 2.606728 1_555
Al14 Pd9 2.637736 1_565
Al14 Pd13 2.672270 1_556
Al14 Al3 2.695795 1_556
Al14 Al5 2.725614 1_555
Al14 Al22 2.782561 1_555
Al14 Al37 2.968490 1_555
Al14 Al41 3.128950 1_566
Al15 Pd9 2.572169 1_555
Al15 Pd5 2.606722 1_545
Al15 Pd11 2.637727 1_555
Al15 Pd15 2.672261 1_545
Al15 Al5 2.695806 1_545
Al15 Al4 2.725605 1_555
Al15 Al23 2.782562 1_555
Al15 Al36 2.968491 1_545
Al15 Al40 3.128951 1_555
Al16 Pd10 2.572170 1_555
Al16 Pd6 2.606754 1_556
Al16 Pd8 2.637727 1_665
Al16 Pd12 2.672270 1_556
Al16 Al2 2.695804 1_555
Al16 Al3 2.725614 1_656
Al16 Al24 2.782559 1_555
Al16 Al35 2.968488 1_656
Al16 Al39 3.128935 1_565
Al17 Pd11 2.572188 1_555
Al17 Pd7 2.606742 1_555
Al17 Pd10 2.637722 1_555
Al17 Pd14 2.672264 1_555
Al17 Al4 2.695800 1_555
Al17 Al2 2.725618 1_555
Al17 Al25 2.782564 1_555
Al17 Al34 2.968508 1_555
Al17 Al38 3.128942 1_555
Al18 Pd14 2.574526 1_655
Al18 Pd12 2.662065 1_545
Al18 Pd1 2.697670 1_555
Al18 Pd0 2.730885 1_555
Al18 Al32 2.756695 1_555
Al18 Al20 2.826820 1_655
Al18 Al19 2.826826 1_545
Al18 Al26 2.846512 1_655
Al18 Al35 3.163758 1_645
Al19 Pd12 2.574496 1_555
Al19 Pd13 2.662055 1_555
Al19 Pd3 2.697683 1_555
Al19 Pd1 2.730916 1_565
Al19 Al30 2.756703 1_555
Al19 Al21 2.826835 1_555
Al19 Al27 2.846486 1_555
Al19 Al37 3.163732 1_554
Al20 Pd15 2.574513 1_555
Al20 Pd14 2.662055 1_555
Al20 Pd0 2.697656 1_455
Al20 Pd2 2.730918 1_554
Al20 Al33 2.756714 1_455
Al20 Al21 2.826842 1_555
Al20 Al28 2.846498 1_555
Al20 Al34 3.163724 1_555
Al21 Pd13 2.574496 1_555
Al21 Pd15 2.662069 1_555
Al21 Pd2 2.697672 1_554
Al21 Pd3 2.730917 1_555
Al21 Al31 2.756708 1_554
Al21 Al29 2.846499 1_554
Al21 Al36 3.163744 1_555
Al22 Pd10 2.574526 1_455
Al22 Pd8 2.662065 1_565
Al22 Pd5 2.697670 1_555
Al22 Pd4 2.730885 1_555
Al22 Al28 2.756695 1_555
Al22 Al24 2.826820 1_455
Al22 Al23 2.826826 1_565
Al22 Al30 2.846512 1_455
Al22 Al39 3.163758 1_465
Al23 Pd8 2.574496 1_555
Al23 Pd9 2.662055 1_555
Al23 Pd7 2.697683 1_555
Al23 Pd5 2.730916 1_545
Al23 Al26 2.756703 1_555
Al23 Al25 2.826835 1_555
Al23 Al31 2.846486 1_555
Al23 Al41 3.163732 1_556
Al24 Pd11 2.574513 1_555
Al24 Pd10 2.662055 1_555
Al24 Pd4 2.697656 1_655
Al24 Pd6 2.730918 1_556
Al24 Al29 2.756714 1_655
Al24 Al25 2.826842 1_555
Al24 Al32 2.846498 1_555
Al24 Al38 3.163724 1_555
Al25 Pd9 2.574496 1_555
Al25 Pd11 2.662069 1_555
Al25 Pd6 2.697672 1_556
Al25 Pd7 2.730917 1_555
Al25 Al27 2.756708 1_556
Al25 Al33 2.846499 1_556
Al25 Al40 3.163744 1_555
Al26 Pd1 2.559662 1_455
Al26 Pd5 2.561505 1_545
Al26 Pd14 2.590634 1_555
Al26 Pd7 2.684972 1_555
Al26 Al4 2.923603 1_555
Al26 Al34 2.936052 1_555
Al26 Al35 3.073673 1_545
Al27 Pd3 2.559648 1_555
Al27 Pd7 2.561505 1_554
Al27 Pd12 2.590624 1_555
Al27 Pd6 2.684992 1_555
Al27 Al35 2.936041 1_655
Al27 Al37 3.073658 1_554
Al28 Pd0 2.559650 1_455
Al28 Pd4 2.561505 1_555
Al28 Pd15 2.590615 1_555
Al28 Pd5 2.684961 1_555
Al28 Al5 2.923614 1_555
Al28 Al36 2.936022 1_555
Al28 Al34 3.073658 1_555
Al29 Pd2 2.559636 1_555
Al29 Pd6 2.561494 1_456
Al29 Pd13 2.590623 1_556
Al29 Pd4 2.684965 1_555
Al29 Al3 2.923612 1_556
Al29 Al37 2.936033 1_555
Al29 Al36 3.073676 1_556
Al30 Pd5 2.559662 1_655
Al30 Pd1 2.561505 1_565
Al30 Pd10 2.590634 1_555
Al30 Pd3 2.684972 1_555
Al30 Al8 2.923603 1_555
Al30 Al38 2.936052 1_555
Al30 Al39 3.073673 1_565
Al31 Pd7 2.559648 1_555
Al31 Pd3 2.561505 1_556
Al31 Pd8 2.590624 1_555
Al31 Pd2 2.684992 1_555
Al31 Al6 2.923612 1_556
Al31 Al39 2.936041 1_455
Al31 Al41 3.073658 1_556
Al32 Pd4 2.559650 1_655
Al32 Pd0 2.561505 1_555
Al32 Pd11 2.590615 1_555
Al32 Pd1 2.684961 1_555
Al32 Al9 2.923614 1_555
Al32 Al40 2.936022 1_555
Al32 Al38 3.073658 1_555
Al33 Pd6 2.559636 1_555
Al33 Pd2 2.561494 1_654
Al33 Pd9 2.590623 1_554
Al33 Pd0 2.684965 1_555
Al33 Al7 2.923612 1_554
Al33 Al41 2.936033 1_555
Al33 Al40 3.073676 1_554
Al34 Pd14 2.544099 1_555
Al34 Pd4 2.657487 1_555
Al34 Al5 2.665409 1_555
Al34 Pd7 2.726076 1_555
Al34 Pd15 3.049825 1_555
Al34 Al37 3.052707 1_555
Al35 Pd12 2.544091 1_455
Al35 Pd5 2.657487 1_555
Al35 Al4 2.665414 1_565
Al35 Pd6 2.726079 1_455
Al35 Pd14 3.049825 1_565
Al35 Al36 3.052702 1_555
Al36 Pd15 2.544067 1_555
Al36 Pd6 2.657476 1_455
Al36 Pd5 2.726061 1_555
Al36 Al4 2.821938 1_565
Al36 Pd13 3.049834 1_555
Al37 Pd13 2.544083 1_556
Al37 Pd7 2.657468 1_555
Al37 Pd4 2.726089 1_555
Al37 Al5 2.821938 1_555
Al37 Pd12 3.049826 1_556
Al38 Pd10 2.544099 1_555
Al38 Pd0 2.657487 1_555
Al38 Al9 2.665409 1_555
Al38 Pd3 2.726076 1_555
Al38 Al6 2.821939 1_555
Al38 Pd11 3.049825 1_555
Al38 Al41 3.052707 1_555
Al39 Pd8 2.544091 1_655
Al39 Pd1 2.657487 1_555
Al39 Al8 2.665414 1_545
Al39 Pd2 2.726079 1_655
Al39 Al7 2.821929 1_555
Al39 Pd10 3.049825 1_545
Al39 Al40 3.052702 1_555
Al40 Pd11 2.544067 1_555
Al40 Pd2 2.657476 1_655
Al40 Al7 2.665436 1_555
Al40 Pd1 2.726061 1_555
Al40 Al8 2.821938 1_545
Al40 Pd9 3.049834 1_555
Al41 Pd9 2.544083 1_554
Al41 Pd3 2.657468 1_555
Al41 Al6 2.665418 1_555
Al41 Pd0 2.726089 1_555
Al41 Al9 2.821938 1_555
Al41 Pd8 3.049826 1_554
