# generated using pymatgen
data_Li3TaN2
_symmetry_space_group_name_H-M   'P 1'
_cell_length_a   8.59123944
_cell_length_b   9.92030953
_cell_length_c   9.92030937
_cell_angle_alpha   90.00000257
_cell_angle_beta   125.26439213
_cell_angle_gamma   54.73560852
_symmetry_Int_Tables_number   1
_chemical_formula_structural   Li3TaN2
_chemical_formula_sum   'Li24 Ta8 N16'
_cell_volume   488.14136195
_cell_formula_units_Z   8
loop_
 _symmetry_equiv_pos_site_id
 _symmetry_equiv_pos_as_xyz
  1  'x, y, z'
loop_
 _atom_site_type_symbol
 _atom_site_label
 _atom_site_symmetry_multiplicity
 _atom_site_fract_x
 _atom_site_fract_y
 _atom_site_fract_z
 _atom_site_occupancy
  Li  Li0  1  0.20951720  0.06100741  0.99642134  1
  Li  Li1  1  0.79048280  0.77052461  0.50357866  1
  Li  Li2  1  0.79048280  0.43899259  0.78690414  1
  Li  Li3  1  0.20951720  0.72947539  0.71309586  1
  Li  Li4  1  0.21667352  0.78690414  0.27410327  1
  Li  Li5  1  0.78332648  0.71309586  0.05742975  1
  Li  Li6  1  0.21667352  0.99642134  0.44257025  1
  Li  Li7  1  0.78332648  0.50357866  0.22589673  1
  Li  Li8  1  0.66846699  0.05742975  0.72947539  1
  Li  Li9  1  0.66846699  0.27410327  0.43899259  1
  Li  Li10  1  0.33153301  0.22589673  0.77052461  1
  Li  Li11  1  0.33153301  0.44257025  0.06100741  1
  Li  Li12  1  0.79048280  0.93899259  0.00357866  1
  Li  Li13  1  0.20951720  0.22947539  0.49642134  1
  Li  Li14  1  0.20951720  0.56100741  0.21309586  1
  Li  Li15  1  0.79048280  0.27052461  0.28690414  1
  Li  Li16  1  0.78332648  0.21309586  0.72589673  1
  Li  Li17  1  0.21667352  0.28690414  0.94257025  1
  Li  Li18  1  0.78332648  0.00357866  0.55742975  1
  Li  Li19  1  0.21667352  0.49642134  0.77410327  1
  Li  Li20  1  0.33153301  0.94257025  0.27052461  1
  Li  Li21  1  0.33153301  0.72589673  0.56100741  1
  Li  Li22  1  0.66846699  0.77410327  0.22947539  1
  Li  Li23  1  0.66846699  0.55742975  0.93899259  1
  Ta  Ta0  1  0.23593519  0.00000000  0.73593519  1
  Ta  Ta1  1  0.76406481  0.73593519  0.76406481  1
  Ta  Ta2  1  0.76406481  0.50000000  0.50000000  1
  Ta  Ta3  1  0.23593519  0.76406481  1.00000000  1
  Ta  Ta4  1  0.76406481  1.00000000  0.26406481  1
  Ta  Ta5  1  0.23593519  0.26406481  0.23593519  1
  Ta  Ta6  1  0.23593519  0.50000000  0.50000000  1
  Ta  Ta7  1  0.76406481  0.23593519  0.00000000  1
  N  N0  1  0.00000000  0.00000000  0.50000000  1
  N  N1  1  0.00000000  0.50000000  0.00000000  1
  N  N2  1  0.00000000  0.50000000  0.50000000  1
  N  N3  1  0.00000000  0.00000000  -0.00000000  1
  N  N4  1  0.50000000  0.98184483  0.75000000  1
  N  N5  1  0.50000000  0.51815517  0.25000000  1
  N  N6  1  -0.00000000  0.25000000  0.73184483  1
  N  N7  1  0.00000000  0.75000000  0.76815517  1
  N  N8  1  0.53631033  0.73184483  0.51815517  1
  N  N9  1  0.46368967  0.76815517  0.98184483  1
  N  N10  1  0.50000000  0.01815517  0.25000000  1
  N  N11  1  0.50000000  0.48184483  0.75000000  1
  N  N12  1  0.00000000  0.75000000  0.26815517  1
  N  N13  1  -0.00000000  0.25000000  0.23184483  1
  N  N14  1  0.46368967  0.26815517  0.48184483  1
  N  N15  1  0.53631033  0.23184483  0.01815517  1
loop_
_geom_bond_atom_site_label_1
_geom_bond_atom_site_label_2
_geom_bond_distance
_geom_bond_site_symmetry_2
Li0 N10 2.064654 1_556
Li0 N6 2.071694 1_555
Li0 N3 2.222452 1_556
Li0 N9 2.503726 1_545
Li1 N10 2.064654 1_565
Li1 N7 2.071694 1_655
Li1 N2 2.222453 1_655
Li1 N8 2.503726 1_555
Li2 N11 2.064654 1_555
Li2 N6 2.071694 1_655
Li2 N1 2.222452 1_656
Li2 N8 2.503726 1_555
Li3 N11 2.064654 1_555
Li3 N7 2.071694 1_555
Li3 N0 2.222453 1_565
Li3 N9 2.503726 1_555
Li4 N12 2.064645 1_555
Li4 N8 2.071698 1_555
Li4 N3 2.222456 1_565
Li4 N5 2.503729 1_555
Li5 N12 2.064645 1_655
Li5 N9 2.071698 1_554
Li5 N1 2.222456 1_655
Li5 N4 2.503730 1_554
Li6 N13 2.064652 1_565
Li6 N8 2.071694 1_555
Li6 N0 2.222451 1_565
Li6 N4 2.503734 1_555
Li7 N13 2.064652 1_655
Li7 N9 2.071694 1_554
Li7 N2 2.222451 1_655
Li7 N5 2.503734 1_555
Li8 N14 2.064652 1_555
Li8 N4 2.071694 1_545
Li8 N3 2.222451 1_656
Li8 N7 2.503734 1_645
Li9 N14 2.064645 1_555
Li9 N5 2.071699 1_555
Li9 N0 2.222456 1_655
Li9 N6 2.503729 1_655
Li10 N15 2.064652 1_556
Li10 N4 2.071694 1_545
Li10 N2 2.222452 1_555
Li10 N6 2.503734 1_555
Li11 N15 2.064645 1_555
Li11 N5 2.071699 1_555
Li11 N1 2.222456 1_555
Li11 N7 2.503730 1_554
Li12 N4 2.064654 1_554
Li12 N12 2.071694 1_655
Li12 N3 2.222452 1_665
Li12 N15 2.503726 1_565
Li13 N4 2.064654 1_545
Li13 N13 2.071694 1_555
Li13 N2 2.222453 1_555
Li13 N14 2.503726 1_555
Li14 N5 2.064654 1_555
Li14 N12 2.071694 1_555
Li14 N1 2.222452 1_555
Li14 N14 2.503726 1_555
Li15 N5 2.064654 1_555
Li15 N13 2.071694 1_655
Li15 N0 2.222453 1_655
Li15 N15 2.503726 1_555
Li16 N6 2.064645 1_655
Li16 N14 2.071698 1_555
Li16 N3 2.222456 1_656
Li16 N11 2.503729 1_555
Li17 N6 2.064645 1_555
Li17 N15 2.071698 1_556
Li17 N1 2.222456 1_556
Li17 N10 2.503730 1_556
Li18 N7 2.064652 1_645
Li18 N14 2.071694 1_555
Li18 N0 2.222451 1_655
Li18 N10 2.503734 1_555
Li19 N7 2.064652 1_555
Li19 N15 2.071694 1_556
Li19 N2 2.222451 1_555
Li19 N11 2.503734 1_555
Li20 N8 2.064652 1_555
Li20 N10 2.071694 1_565
Li20 N3 2.222451 1_565
Li20 N13 2.503734 1_565
Li21 N8 2.064645 1_555
Li21 N11 2.071699 1_555
Li21 N0 2.222456 1_565
Li21 N12 2.503729 1_555
Li22 N9 2.064652 1_554
Li22 N10 2.071694 1_565
Li22 N2 2.222452 1_655
Li22 N12 2.503734 1_655
Li23 N9 2.064645 1_555
Li23 N11 2.071699 1_555
Li23 N1 2.222456 1_656
Li23 N13 2.503730 1_656
N0 Ta0 2.026976 1_555
N0 Ta4 2.026976 1_445
N1 Ta1 2.026976 1_454
N1 Ta5 2.026976 1_555
N2 Ta2 2.026976 1_455
N2 Ta6 2.026976 1_555
N3 Ta3 2.026976 1_544
N3 Ta7 2.026976 1_455
N4 Ta0 2.088382 1_565
N4 Ta1 2.088383 1_555
N5 Ta2 2.088382 1_555
N5 Ta3 2.088383 1_554
N6 Ta0 2.088383 1_555
N6 Ta2 2.088383 1_455
N7 Ta3 2.088382 1_555
N7 Ta1 2.088383 1_455
N8 Ta1 2.088383 1_555
N8 Ta2 2.088383 1_555
N9 Ta3 2.088383 1_555
N9 Ta0 2.088383 1_565
N10 Ta4 2.088382 1_545
N10 Ta5 2.088383 1_555
N11 Ta6 2.088382 1_555
N11 Ta7 2.088383 1_556
N12 Ta4 2.088383 1_455
N12 Ta6 2.088383 1_555
N13 Ta7 2.088382 1_455
N13 Ta5 2.088383 1_555
N14 Ta5 2.088383 1_555
N14 Ta6 2.088383 1_555
N15 Ta7 2.088383 1_555
N15 Ta4 2.088383 1_545
