# generated using pymatgen
data_LiYb4Ti2O10
_symmetry_space_group_name_H-M   'P 1'
_cell_length_a   5.24738800
_cell_length_b   6.44871358
_cell_length_c   7.85366019
_cell_angle_alpha   65.30740654
_cell_angle_beta   90.00000000
_cell_angle_gamma   65.99254129
_symmetry_Int_Tables_number   1
_chemical_formula_structural   LiYb4Ti2O10
_chemical_formula_sum   'Li1 Yb4 Ti2 O10'
_cell_volume   215.89626948
_cell_formula_units_Z   1
loop_
 _symmetry_equiv_pos_site_id
 _symmetry_equiv_pos_as_xyz
  1  'x, y, z'
loop_
 _atom_site_type_symbol
 _atom_site_label
 _atom_site_symmetry_multiplicity
 _atom_site_fract_x
 _atom_site_fract_y
 _atom_site_fract_z
 _atom_site_occupancy
  Li  Li0  1  0.80828600  0.00000000  0.75000000  1
  Yb  Yb0  1  0.58670900  0.66231300  0.80422500  1
  Yb  Yb1  1  0.61665300  0.70716900  0.27138700  1
  Yb  Yb2  1  0.24902300  0.33768700  0.69577500  1
  Yb  Yb3  1  0.32382400  0.29283100  0.22861300  1
  Ti  Ti0  1  0.99177200  0.98496600  0.47270000  1
  Ti  Ti1  1  0.97673800  0.01503400  0.02730000  1
  O  O0  1  0.84690900  0.75195100  0.01369500  1
  O  O1  1  0.36787000  0.84012700  0.46940900  1
  O  O2  1  0.94136300  0.72257800  0.65607800  1
  O  O3  1  0.66394100  0.27742200  0.84392200  1
  O  O4  1  0.31680700  0.68053900  0.07524600  1
  O  O5  1  0.99734600  0.31946100  0.42475400  1
  O  O6  1  0.59886000  0.24804900  0.48630600  1
  O  O7  1  0.16638200  0.00000000  0.75000000  1
  O  O8  1  0.20799600  0.15987300  0.03059100  1
  O  O9  1  0.81452100  0.00000000  0.25000000  1
loop_
_geom_bond_atom_site_label_1
_geom_bond_atom_site_label_2
_geom_bond_distance
_geom_bond_site_symmetry_2
Li0 O7 1.879069 1_655
Li0 O6 1.963953 1_555
Li0 O0 1.963959 1_546
Li0 O3 2.078053 1_555
Li0 O2 2.078053 1_545
O0 Ti1 2.108494 1_565
O0 Yb1 2.331251 1_555
O0 Yb0 2.518233 1_554
O0 Yb3 2.770069 1_655
O1 Ti0 1.813321 1_455
O1 Yb1 2.249735 1_555
O1 Yb0 2.440756 1_555
O1 Yb3 2.643994 1_565
O2 Ti0 1.826300 1_555
O2 Yb2 2.226431 1_655
O2 Yb0 2.275704 1_555
O3 Ti1 1.826300 1_556
O3 Yb0 2.226429 1_555
O3 Yb2 2.275700 1_555
O4 Ti1 2.041635 1_465
O4 Yb3 2.261025 1_555
O4 Yb1 2.306274 1_555
O4 Yb0 2.573669 1_554
O5 Ti0 2.041635 1_545
O5 Yb1 2.261030 1_555
O5 Yb3 2.306281 1_655
O5 Yb2 2.573672 1_655
O6 Ti0 2.108496 1_545
O6 Yb3 2.331251 1_555
O6 Yb2 2.518223 1_555
O6 Yb1 2.770065 1_555
O7 Yb0 2.259454 1_545
O7 Yb2 2.259457 1_555
O7 Ti1 2.416712 1_456
O7 Ti0 2.416712 1_445
O8 Ti1 1.813317 1_455
O8 Yb3 2.249741 1_555
O8 Yb2 2.440759 1_554
O8 Yb1 2.643992 1_545
O9 Ti0 1.928337 1_545
O9 Ti1 1.928337 1_555
O9 Yb3 2.450028 1_555
O9 Yb1 2.450036 1_545
