# generated using pymatgen
data_Ba20Ru11PtO48
_symmetry_space_group_name_H-M   'P 1'
_cell_length_a   5.98756800
_cell_length_b   11.02429100
_cell_length_c   20.12045361
_cell_angle_alpha   89.69685892
_cell_angle_beta   90.00000000
_cell_angle_gamma   90.00000000
_symmetry_Int_Tables_number   1
_chemical_formula_structural   Ba20Ru11PtO48
_chemical_formula_sum   'Ba20 Ru11 Pt1 O48'
_cell_volume   1328.10623682
_cell_formula_units_Z   1
loop_
 _symmetry_equiv_pos_site_id
 _symmetry_equiv_pos_as_xyz
  1  'x, y, z'
loop_
 _atom_site_type_symbol
 _atom_site_label
 _atom_site_symmetry_multiplicity
 _atom_site_fract_x
 _atom_site_fract_y
 _atom_site_fract_z
 _atom_site_occupancy
  Ba  Ba0  1  0.00000000  0.88725900  0.96966700  1
  Ba  Ba1  1  0.00000000  0.38726000  0.53048200  1
  Ba  Ba2  1  0.50000000  0.11300500  0.03060800  1
  Ba  Ba3  1  0.50000000  0.61326300  0.46962400  1
  Ba  Ba4  1  0.00000000  0.69784700  0.75482200  1
  Ba  Ba5  1  0.00000000  0.19762900  0.74439700  1
  Ba  Ba6  1  0.50000000  0.30107800  0.24512700  1
  Ba  Ba7  1  0.50000000  0.80227300  0.25488600  1
  Ba  Ba8  1  0.00000000  0.04801000  0.17546800  1
  Ba  Ba9  1  0.00000000  0.54988700  0.32561700  1
  Ba  Ba10  1  0.50000000  0.95183400  0.82384500  1
  Ba  Ba11  1  0.50000000  0.45212300  0.67571600  1
  Ba  Ba12  1  0.00000000  0.68601300  0.13037100  1
  Ba  Ba13  1  0.00000000  0.18519400  0.37060000  1
  Ba  Ba14  1  0.50000000  0.31452400  0.86924500  1
  Ba  Ba15  1  0.50000000  0.81401100  0.63025600  1
  Ba  Ba16  1  0.00000000  0.52586400  0.92632700  1
  Ba  Ba17  1  0.00000000  0.02600300  0.57381000  1
  Ba  Ba18  1  0.50000000  0.47271000  0.07367300  1
  Ba  Ba19  1  0.50000000  0.97308900  0.42601600  1
  Ru  Ru0  1  0.00000000  0.38351100  0.17875400  1
  Ru  Ru1  1  0.00000000  0.87807600  0.32698200  1
  Ru  Ru2  1  0.50000000  0.62144300  0.82726500  1
  Ru  Ru3  1  0.50000000  0.12177300  0.67308400  1
  Ru  Ru4  1  0.00000000  0.19279200  0.92792700  1
  Ru  Ru5  1  0.00000000  0.69526600  0.56891000  1
  Ru  Ru6  1  0.50000000  0.80502600  0.06875200  1
  Ru  Ru7  1  0.50000000  0.30500400  0.43097600  1
  Ru  Ru8  1  0.00000000  0.78554700  0.44234000  1
  Ru  Ru9  1  0.50000000  0.71470200  0.94210300  1
  Ru  Ru10  1  0.50000000  0.21436000  0.55771700  1
  Pt  Pt0  1  0.00000000  0.28339900  0.05525600  1
  O  O0  1  0.22827900  0.30664800  0.98119700  1
  O  O1  1  0.77386800  0.80720400  0.51618700  1
  O  O2  1  0.72458200  0.69257100  0.01605800  1
  O  O3  1  0.27434600  0.19286000  0.48402400  1
  O  O4  1  0.27541800  0.69257100  0.01605800  1
  O  O5  1  0.72565400  0.19286000  0.48402400  1
  O  O6  1  0.77172100  0.30664800  0.98119700  1
  O  O7  1  0.22613200  0.80720400  0.51618700  1
  O  O8  1  0.00000000  0.10827700  0.02263100  1
  O  O9  1  0.00000000  0.61214400  0.47543600  1
  O  O10  1  0.50000000  0.88849100  0.97533800  1
  O  O11  1  0.50000000  0.38761400  0.52444300  1
  O  O12  1  0.23285900  0.26322300  0.13037400  1
  O  O13  1  0.76195800  0.76035200  0.37045000  1
  O  O14  1  0.73655900  0.73997400  0.87058900  1
  O  O15  1  0.26219100  0.23971100  0.62931700  1
  O  O16  1  0.26344100  0.73997400  0.87058900  1
  O  O17  1  0.73780900  0.23971100  0.62931700  1
  O  O18  1  0.76714100  0.26322300  0.13037400  1
  O  O19  1  0.23804200  0.76035200  0.37045000  1
  O  O20  1  0.00000000  0.30946600  0.85838800  1
  O  O21  1  0.00000000  0.80858400  0.64005900  1
  O  O22  1  0.50000000  0.69106600  0.14017400  1
  O  O23  1  0.50000000  0.19150700  0.35994900  1
  O  O24  1  0.76579100  0.09345500  0.89585600  1
  O  O25  1  0.23240400  0.59493300  0.60318300  1
  O  O26  1  0.26754700  0.90446800  0.10316000  1
  O  O27  1  0.73236400  0.40507000  0.39677000  1
  O  O28  1  0.73245300  0.90446800  0.10316000  1
  O  O29  1  0.26763600  0.40507000  0.39677000  1
  O  O30  1  0.23420900  0.09345500  0.89585600  1
  O  O31  1  0.76759600  0.59493300  0.60318300  1
  O  O32  1  0.00000000  0.46041600  0.08328500  1
  O  O33  1  0.00000000  0.96295100  0.41939100  1
  O  O34  1  0.50000000  0.53619100  0.91947300  1
  O  O35  1  0.50000000  0.03688700  0.58061100  1
  O  O36  1  0.00000000  0.27903300  0.25443100  1
  O  O37  1  0.00000000  0.78091400  0.24762000  1
  O  O38  1  0.50000000  0.71950200  0.74768000  1
  O  O39  1  0.50000000  0.21908400  0.75227600  1
  O  O40  1  0.76775800  0.48715200  0.20851900  1
  O  O41  1  0.22760700  0.98373000  0.29317800  1
  O  O42  1  0.27284900  0.51642100  0.79339100  1
  O  O43  1  0.72767600  0.01627700  0.70684400  1
  O  O44  1  0.72715100  0.51642100  0.79339100  1
  O  O45  1  0.27232400  0.01627700  0.70684400  1
  O  O46  1  0.23224200  0.48715200  0.20851900  1
  O  O47  1  0.77239300  0.98373000  0.29317800  1
loop_
_geom_bond_atom_site_label_1
_geom_bond_atom_site_label_2
_geom_bond_distance
_geom_bond_site_symmetry_2
Ba0 O8 2.664576 1_566
Ba0 O4 2.859392 1_556
Ba0 O2 2.859392 1_456
Ba0 O10 2.995991 1_455
Ba0 O10 2.995991 1_555
Ba0 O14 3.022054 1_455
Ba0 O16 3.022054 1_555
Ba0 O24 3.050192 1_465
Ba0 O30 3.050192 1_565
Ba0 O26 3.133994 1_556
Ba0 O28 3.133994 1_456
Ba1 O9 2.709978 1_555
Ba1 O3 2.861169 1_555
Ba1 O5 2.861169 1_455
Ba1 O11 2.996250 1_555
Ba1 O11 2.996250 1_455
Ba1 O15 3.005124 1_555
Ba1 O17 3.005124 1_455
Ba1 O25 3.058283 1_555
Ba1 O31 3.058283 1_455
Ba1 O27 3.136701 1_455
Ba1 O29 3.136701 1_555
Ba2 O10 2.718815 1_544
Ba2 O6 2.858348 1_554
Ba2 O0 2.858348 1_554
Ba2 O8 2.998551 1_555
Ba2 O8 2.998551 1_655
Ba2 O26 3.052524 1_545
Ba2 O28 3.052524 1_545
Ba2 O18 3.060319 1_555
Ba2 O12 3.060319 1_555
Ba2 O30 3.152192 1_554
Ba2 O24 3.152192 1_554
Ba3 O11 2.715841 1_555
Ba3 O7 2.856428 1_555
Ba3 O1 2.856428 1_555
Ba3 O9 2.996090 1_555
Ba3 O9 2.996090 1_655
Ba3 O13 3.006174 1_555
Ba3 O19 3.006174 1_555
Ba3 O29 3.063966 1_555
Ba3 O27 3.063966 1_555
Ba3 O31 3.134278 1_555
Ba3 O25 3.134278 1_555
Ba4 O21 2.606220 1_555
Ba4 O44 2.693538 1_455
Ba4 O42 2.693538 1_555
Ba4 O16 2.853208 1_555
Ba4 O14 2.853208 1_455
Ba4 O38 3.006663 1_455
Ba4 O38 3.006663 1_555
Ba5 O20 2.609674 1_555
Ba5 O43 2.691230 1_455
Ba5 O45 2.691230 1_555
Ba5 O15 2.833684 1_555
Ba5 O17 2.833684 1_455
Ba5 O39 3.007360 1_555
Ba5 O39 3.007360 1_455
Ba6 O23 2.601336 1_555
Ba6 O40 2.702745 1_555
Ba6 O46 2.702745 1_555
Ba6 O18 2.841439 1_555
Ba6 O12 2.841439 1_555
Ba6 O36 3.009380 1_555
Ba6 O36 3.009380 1_655
Ba7 O22 2.619178 1_555
Ba7 O47 2.696611 1_555
Ba7 O41 2.696611 1_555
Ba7 O13 2.840587 1_555
Ba7 O19 2.840587 1_555
Ba7 O37 3.006647 1_655
Ba7 O37 3.006647 1_555
Ba8 O28 2.685408 1_445
Ba8 O26 2.685408 1_545
Ba8 O41 2.819732 1_545
Ba8 O47 2.819732 1_445
Ba8 O12 2.893698 1_555
Ba8 O18 2.893698 1_455
Ba8 O36 3.008909 1_555
Ba8 O8 3.142667 1_555
Ba8 O37 3.276069 1_545
Ba9 O27 2.672485 1_455
Ba9 O29 2.672485 1_555
Ba9 O46 2.824938 1_555
Ba9 O40 2.824938 1_455
Ba9 O19 2.872416 1_555
Ba9 O13 2.872416 1_455
Ba9 O37 2.984504 1_555
Ba9 O9 3.095112 1_555
Ba9 O36 3.318548 1_555
Ba10 O24 2.663360 1_565
Ba10 O30 2.663360 1_565
Ba10 O43 2.808426 1_565
Ba10 O45 2.808426 1_565
Ba10 O16 2.884891 1_555
Ba10 O14 2.884891 1_555
Ba10 O38 2.991696 1_555
Ba10 O10 3.123472 1_555
Ba10 O39 3.272468 1_565
Ba11 O31 2.674210 1_555
Ba11 O25 2.674210 1_555
Ba11 O44 2.824167 1_555
Ba11 O42 2.824167 1_555
Ba11 O17 2.899256 1_555
Ba11 O15 2.899256 1_555
Ba11 O39 2.988519 1_555
Ba11 O11 3.129322 1_555
Ba11 O38 3.290963 1_555
Ba12 O37 2.585740 1_555
Ba12 O32 2.666062 1_555
Ba12 O4 2.830739 1_555
Ba12 O2 2.830739 1_455
Ba12 O28 2.941433 1_455
Ba12 O26 2.941433 1_555
Ba12 O22 3.000811 1_455
Ba12 O22 3.000811 1_555
Ba12 O46 3.029148 1_555
Ba12 O40 3.029148 1_455
Ba13 O36 2.551065 1_555
Ba13 O33 2.634602 1_545
Ba13 O3 2.813486 1_555
Ba13 O5 2.813486 1_455
Ba13 O27 2.955401 1_455
Ba13 O29 2.955401 1_555
Ba13 O23 3.002225 1_455
Ba13 O23 3.002225 1_555
Ba13 O41 3.041929 1_545
Ba13 O47 3.041929 1_445
Ba14 O39 2.583033 1_555
Ba14 O34 2.649385 1_555
Ba14 O6 2.779622 1_555
Ba14 O0 2.779622 1_555
Ba14 O24 2.957221 1_555
Ba14 O30 2.957221 1_555
Ba14 O20 3.002283 1_555
Ba14 O20 3.002283 1_655
Ba14 O44 3.016169 1_555
Ba14 O42 3.016169 1_555
Ba15 O38 2.577109 1_555
Ba15 O35 2.647430 1_565
Ba15 O1 2.822053 1_555
Ba15 O7 2.822053 1_555
Ba15 O31 2.951430 1_555
Ba15 O25 2.951430 1_555
Ba15 O21 3.000850 1_655
Ba15 O21 3.000850 1_555
Ba15 O43 3.039994 1_565
Ba15 O45 3.039994 1_565
Ba16 O20 2.755785 1_555
Ba16 O0 2.983168 1_555
Ba16 O6 2.983168 1_455
Ba16 O34 2.999092 1_455
Ba16 O34 2.999092 1_555
Ba16 O16 3.047840 1_555
Ba16 O14 3.047840 1_455
Ba16 O4 3.064599 1_556
Ba16 O2 3.064599 1_456
Ba16 O44 3.136393 1_455
Ba16 O42 3.136393 1_555
Ba16 O32 3.235716 1_556
Ba17 O21 2.736432 1_545
Ba17 O35 2.999340 1_455
Ba17 O35 2.999340 1_555
Ba17 O1 3.004216 1_445
Ba17 O7 3.004216 1_545
Ba17 O15 3.048003 1_555
Ba17 O17 3.048003 1_455
Ba17 O3 3.051302 1_555
Ba17 O5 3.051302 1_455
Ba17 O43 3.135590 1_455
Ba17 O45 3.135590 1_555
Ba17 O33 3.187373 1_545
Ba18 O22 2.760275 1_555
Ba18 O2 2.999531 1_555
Ba18 O4 2.999531 1_555
Ba18 O32 3.003038 1_655
Ba18 O32 3.003038 1_555
Ba18 O18 3.027487 1_555
Ba18 O12 3.027487 1_555
Ba18 O6 3.081652 1_554
Ba18 O0 3.081652 1_554
Ba18 O40 3.156182 1_555
Ba18 O46 3.156182 1_555
Ba18 O34 3.176910 1_554
Ba19 O23 2.744296 1_565
Ba19 O33 2.998860 1_655
Ba19 O33 2.998860 1_555
Ba19 O3 3.014586 1_565
Ba19 O5 3.014586 1_565
Ba19 O13 3.039437 1_555
Ba19 O19 3.039437 1_555
Ba19 O1 3.047924 1_555
Ba19 O7 3.047924 1_555
Ba19 O47 3.132756 1_555
Ba19 O41 3.132756 1_555
Ba19 O35 3.192673 1_565
O0 Pt0 2.037226 1_556
O0 Ru4 2.146334 1_555
O1 Ru8 2.025272 1_655
O1 Ru5 2.113665 1_655
O2 Ru9 2.019423 1_554
O2 Ru6 2.117346 1_555
O3 Ru10 2.020873 1_555
O3 Ru7 2.116424 1_555
O4 Ru9 2.019423 1_554
O4 Ru6 2.117346 1_555
O5 Ru10 2.020873 1_555
O5 Ru7 2.116424 1_555
O6 Pt0 2.037226 1_656
O6 Ru4 2.146334 1_655
O7 Ru8 2.025272 1_555
O7 Ru5 2.113665 1_555
O8 Pt0 2.042428 1_555
O8 Ru4 2.116647 1_554
O9 Ru8 2.020977 1_555
O9 Ru5 2.096458 1_555
O10 Ru9 2.032583 1_555
O10 Ru6 2.088301 1_556
O11 Ru10 2.020592 1_555
O11 Ru7 2.093843 1_555
O12 Pt0 2.067421 1_555
O12 Ru0 2.159559 1_555
O13 Ru8 2.050635 1_655
O13 Ru1 2.113933 1_655
O14 Ru9 2.037160 1_555
O14 Ru2 2.117937 1_555
O15 Ru10 2.045789 1_555
O15 Ru3 2.116913 1_555
O16 Ru9 2.037160 1_555
O16 Ru2 2.117937 1_555
O17 Ru10 2.045789 1_555
O17 Ru3 2.116913 1_555
O18 Pt0 2.067421 1_655
O18 Ru0 2.159559 1_655
O19 Ru8 2.050635 1_555
O19 Ru1 2.113933 1_555
O20 Ru4 1.895529 1_555
O21 Ru5 1.904964 1_555
O22 Ru6 1.903772 1_555
O23 Ru7 1.904415 1_555
O24 Ru4 1.894656 1_655
O25 Ru5 1.904544 1_555
O26 Ru6 1.904292 1_555
O27 Ru7 1.902182 1_555
O28 Ru6 1.904292 1_555
O29 Ru7 1.902182 1_555
O30 Ru4 1.894656 1_555
O31 Ru5 1.904544 1_655
O32 Pt0 2.034206 1_555
O32 Ru0 2.095555 1_555
O33 Ru8 2.007143 1_555
O33 Ru1 2.085895 1_555
O34 Ru9 2.022291 1_555
O34 Ru2 2.075300 1_555
O35 Ru10 2.007635 1_555
O35 Ru3 2.087100 1_555
O36 Ru0 1.904352 1_555
O37 Ru1 1.927489 1_555
O38 Ru2 1.927285 1_555
O39 Ru3 1.925568 1_555
O40 Ru0 1.898694 1_655
O41 Ru1 1.915241 1_555
O42 Ru2 1.913944 1_555
O43 Ru3 1.914168 1_555
O44 Ru2 1.913944 1_555
O45 Ru3 1.914168 1_555
O46 Ru0 1.898694 1_555
O47 Ru1 1.915241 1_655
