# generated using pymatgen
data_TlC
_symmetry_space_group_name_H-M   'P 1'
_cell_length_a   3.73208604
_cell_length_b   3.73208604
_cell_length_c   6.30348100
_cell_angle_alpha   90.00000000
_cell_angle_beta   90.00000000
_cell_angle_gamma   119.99549788
_symmetry_Int_Tables_number   1
_chemical_formula_structural   TlC
_chemical_formula_sum   'Tl2 C2'
_cell_volume   76.03859339
_cell_formula_units_Z   2
loop_
 _symmetry_equiv_pos_site_id
 _symmetry_equiv_pos_as_xyz
  1  'x, y, z'
loop_
 _atom_site_type_symbol
 _atom_site_label
 _atom_site_symmetry_multiplicity
 _atom_site_fract_x
 _atom_site_fract_y
 _atom_site_fract_z
 _atom_site_occupancy
  Tl  Tl0  1  0.00000100  0.99999900  0.36818400  1
  Tl  Tl1  1  0.33333400  0.66666600  0.86818400  1
  C  C0  1  0.99999900  0.00000100  0.00681600  1
  C  C1  1  0.33333600  0.66666400  0.50681600  1
loop_
_geom_bond_atom_site_label_1
_geom_bond_atom_site_label_2
_geom_bond_distance
_geom_bond_site_symmetry_2
C0 Tl0 2.277876 1_645
C0 Tl1 2.325144 1_644
C0 Tl1 2.325265 1_654
C0 Tl1 2.325265 1_544
C1 Tl1 2.277876 1_555
C1 Tl0 2.325144 1_555
C1 Tl0 2.325265 1_545
C1 Tl0 2.325265 1_655
