# generated using pymatgen
data_HfB4Ir3
_symmetry_space_group_name_H-M   'P 1'
_cell_length_a   7.60016138
_cell_length_b   7.60016125
_cell_length_c   3.50286183
_cell_angle_alpha   90.00000000
_cell_angle_beta   90.00000000
_cell_angle_gamma   119.99999681
_symmetry_Int_Tables_number   1
_chemical_formula_structural   HfB4Ir3
_chemical_formula_sum   'Hf2 B8 Ir6'
_cell_volume   175.22629309
_cell_formula_units_Z   2
loop_
 _symmetry_equiv_pos_site_id
 _symmetry_equiv_pos_as_xyz
  1  'x, y, z'
loop_
 _atom_site_type_symbol
 _atom_site_label
 _atom_site_symmetry_multiplicity
 _atom_site_fract_x
 _atom_site_fract_y
 _atom_site_fract_z
 _atom_site_occupancy
  Hf  Hf0  1  0.33333300  0.66666700  0.75000000  1
  Hf  Hf1  1  0.66666700  0.33333300  0.25000000  1
  B  B0  1  0.00000000  0.00000000  0.50000000  1
  B  B1  1  0.00000000  0.00000000  0.00000000  1
  B  B2  1  0.60199572  0.55125321  0.75000000  1
  B  B3  1  0.05074251  0.60199572  0.25000000  1
  B  B4  1  0.39800428  0.44874679  0.25000000  1
  B  B5  1  0.44874679  0.05074251  0.75000000  1
  B  B6  1  0.94925749  0.39800428  0.75000000  1
  B  B7  1  0.55125321  0.94925749  0.25000000  1
  Ir  Ir0  1  0.66653450  0.74349078  0.25000000  1
  Ir  Ir1  1  0.25650922  0.92304473  0.25000000  1
  Ir  Ir2  1  0.92304473  0.66653450  0.75000000  1
  Ir  Ir3  1  0.33346550  0.25650922  0.75000000  1
  Ir  Ir4  1  0.74349078  0.07695527  0.75000000  1
  Ir  Ir5  1  0.07695527  0.33346550  0.25000000  1
loop_
_geom_bond_atom_site_label_1
_geom_bond_atom_site_label_2
_geom_bond_distance
_geom_bond_site_symmetry_2
B0 B1 1.751431 1_555
B0 B1 1.751431 1_556
B0 Ir1 2.459627 1_545
B0 Ir4 2.459627 1_455
B0 Ir3 2.459632 1_555
B0 Ir0 2.459632 1_445
B0 Ir5 2.459634 1_555
B0 Ir2 2.459634 1_445
B1 Ir1 2.459627 1_545
B1 Ir4 2.459627 1_454
B1 Ir3 2.459632 1_554
B1 Ir0 2.459632 1_445
B1 Ir5 2.459634 1_555
B1 Ir2 2.459634 1_444
B2 Ir2 2.140917 1_555
B2 Ir3 2.147430 1_555
B2 Ir0 2.173957 1_555
B2 Ir0 2.173957 1_556
B2 B4 2.206866 1_555
B2 B4 2.206866 1_556
B2 Hf0 2.594177 1_555
B2 Hf1 2.620352 1_555
B2 Hf1 2.620352 1_556
B3 Ir1 2.140916 1_555
B3 Ir5 2.147426 1_555
B3 Ir2 2.173952 1_454
B3 Ir2 2.173952 1_455
B3 B6 2.206866 1_455
B3 B6 2.206866 1_454
B3 Hf1 2.594171 1_455
B3 Hf0 2.620347 1_555
B3 Hf0 2.620347 1_554
B4 Ir5 2.140917 1_555
B4 Ir0 2.147430 1_555
B4 Ir3 2.173957 1_555
B4 Ir3 2.173957 1_554
B4 Hf1 2.594177 1_555
B4 Hf0 2.620352 1_554
B4 Hf0 2.620352 1_555
B5 Ir3 2.140910 1_555
B5 Ir4 2.147433 1_555
B5 Ir1 2.173956 1_546
B5 Ir1 2.173956 1_545
B5 B7 2.206866 1_545
B5 B7 2.206866 1_546
B5 Hf0 2.594169 1_545
B5 Hf1 2.620348 1_555
B5 Hf1 2.620348 1_556
B6 Ir4 2.140916 1_555
B6 Ir2 2.147426 1_555
B6 Ir5 2.173952 1_655
B6 Ir5 2.173952 1_656
B6 Hf0 2.594171 1_655
B6 Hf1 2.620347 1_555
B6 Hf1 2.620347 1_556
B7 Ir0 2.140910 1_555
B7 Ir1 2.147433 1_555
B7 Ir4 2.173956 1_565
B7 Ir4 2.173956 1_564
B7 Hf1 2.594169 1_565
B7 Hf0 2.620348 1_555
B7 Hf0 2.620348 1_554
