# generated using pymatgen
data_Sr(Ni2Sn)2
_symmetry_space_group_name_H-M   'P 1'
_cell_length_a   6.75690346
_cell_length_b   6.75690270
_cell_length_c   6.75690171
_cell_angle_alpha   109.08724694
_cell_angle_beta   109.08725025
_cell_angle_gamma   110.24191856
_symmetry_Int_Tables_number   1
_chemical_formula_structural   Sr(Ni2Sn)2
_chemical_formula_sum   'Sr2 Ni8 Sn4'
_cell_volume   237.44448775
_cell_formula_units_Z   2
loop_
 _symmetry_equiv_pos_site_id
 _symmetry_equiv_pos_as_xyz
  1  'x, y, z'
loop_
 _atom_site_type_symbol
 _atom_site_label
 _atom_site_symmetry_multiplicity
 _atom_site_fract_x
 _atom_site_fract_y
 _atom_site_fract_z
 _atom_site_occupancy
  Sr  Sr0  1  0.75000000  0.75000000  -0.00000000  1
  Sr  Sr1  1  0.25000000  0.25000000  -0.00000000  1
  Ni  Ni0  1  0.52751887  0.29540978  0.50000000  1
  Ni  Ni1  1  0.02751887  0.52751887  0.23210910  1
  Ni  Ni2  1  0.29540978  0.79540978  0.76789090  1
  Ni  Ni3  1  0.79540978  0.02751887  0.50000000  1
  Ni  Ni4  1  0.20459022  0.97248113  0.50000000  1
  Ni  Ni5  1  0.97248113  0.47248113  0.76789090  1
  Ni  Ni6  1  0.47248113  0.70459022  0.50000000  1
  Ni  Ni7  1  0.70459022  0.20459022  0.23210910  1
  Sn  Sn0  1  0.83880405  0.66119595  0.50000000  1
  Sn  Sn1  1  0.66119595  0.16119595  0.82239190  1
  Sn  Sn2  1  0.33880405  0.83880405  0.17760810  1
  Sn  Sn3  1  0.16119595  0.33880405  0.50000000  1
loop_
_geom_bond_atom_site_label_1
_geom_bond_atom_site_label_2
_geom_bond_distance
_geom_bond_site_symmetry_2
Ni0 Ni4 2.495532 1_545
Ni0 Ni7 2.506507 1_555
Ni0 Ni5 2.506508 1_555
Ni0 Sn3 2.591299 1_555
Ni0 Sn0 2.633526 1_555
Ni0 Sn1 2.637335 1_555
Ni0 Sn2 2.637335 1_545
Ni0 Sr1 3.131286 1_555
Ni0 Sr0 3.131286 1_556
Ni1 Ni7 2.495532 1_455
Ni1 Ni4 2.506507 1_555
Ni1 Ni6 2.506508 1_555
Ni1 Sn1 2.591299 1_454
Ni1 Sn2 2.633526 1_555
Ni1 Sn3 2.637335 1_555
Ni1 Sn0 2.637335 1_455
Ni1 Sr0 3.131286 1_455
Ni1 Sr1 3.131286 1_555
Ni2 Ni5 2.495532 1_455
Ni2 Ni4 2.506507 1_555
Ni2 Ni6 2.506507 1_555
Ni2 Sn2 2.591299 1_556
Ni2 Sn1 2.633526 1_565
Ni2 Sn3 2.637335 1_555
Ni2 Sn0 2.637335 1_455
Ni2 Sr1 3.131286 1_566
Ni2 Sr0 3.131286 1_556
Ni3 Ni6 2.495532 1_545
Ni3 Ni7 2.506507 1_555
Ni3 Ni5 2.506507 1_555
Ni3 Sn0 2.591299 1_545
Ni3 Sn3 2.633526 1_655
Ni3 Sn1 2.637335 1_555
Ni3 Sn2 2.637335 1_545
Ni3 Sr0 3.131286 1_545
Ni3 Sr1 3.131286 1_656
Ni4 Sn3 2.591299 1_565
Ni4 Sn0 2.633526 1_455
Ni4 Sn2 2.637335 1_555
Ni4 Sn1 2.637335 1_565
Ni4 Sr1 3.131286 1_566
Ni4 Sr0 3.131286 1_455
Ni5 Sn2 2.591299 1_656
Ni5 Sn1 2.633526 1_555
Ni5 Sn0 2.637335 1_555
Ni5 Sn3 2.637335 1_655
Ni5 Sr1 3.131286 1_656
Ni5 Sr0 3.131286 1_556
Ni6 Sn0 2.591299 1_555
Ni6 Sn3 2.633526 1_555
Ni6 Sn2 2.637335 1_555
Ni6 Sn1 2.637335 1_565
Ni6 Sr0 3.131286 1_556
Ni6 Sr1 3.131286 1_555
Ni7 Sn1 2.591299 1_554
Ni7 Sn2 2.633526 1_545
Ni7 Sn0 2.637335 1_555
Ni7 Sn3 2.637335 1_655
Ni7 Sr0 3.131286 1_545
Ni7 Sr1 3.131286 1_555
Sn0 Sr0 3.518973 1_555
Sn0 Sr0 3.518973 1_556
Sn0 Sr1 3.518973 1_666
Sn0 Sr1 3.518974 1_555
Sn1 Sr0 3.518973 1_546
Sn1 Sr0 3.518973 1_556
Sn1 Sr1 3.518973 1_556
Sn1 Sr1 3.518974 1_656
Sn2 Sr1 3.518973 1_565
Sn2 Sr1 3.518973 1_555
Sn2 Sr0 3.518973 1_555
Sn2 Sr0 3.518974 1_455
Sn3 Sr1 3.518973 1_556
Sn3 Sr1 3.518973 1_555
Sn3 Sr0 3.518973 1_445
Sn3 Sr0 3.518974 1_556
