# generated using pymatgen
data_Zn3P4H24C6(NO6)2
_symmetry_space_group_name_H-M   'P 1'
_cell_length_a   8.69881500
_cell_length_b   9.39920953
_cell_length_c   16.47242107
_cell_angle_alpha   79.81237788
_cell_angle_beta   74.68997477
_cell_angle_gamma   62.43582122
_symmetry_Int_Tables_number   1
_chemical_formula_structural   Zn3P4H24C6(NO6)2
_chemical_formula_sum   'Zn6 P8 H48 C12 N4 O24'
_cell_volume   1149.21506598
_cell_formula_units_Z   2
loop_
 _symmetry_equiv_pos_site_id
 _symmetry_equiv_pos_as_xyz
  1  'x, y, z'
loop_
 _atom_site_type_symbol
 _atom_site_label
 _atom_site_symmetry_multiplicity
 _atom_site_fract_x
 _atom_site_fract_y
 _atom_site_fract_z
 _atom_site_occupancy
  Zn  Zn0  1  0.65814600  0.75000000  0.25000000  1
  Zn  Zn1  1  0.34185400  0.25000000  0.75000000  1
  Zn  Zn2  1  0.48693400  0.74804500  0.52074400  1
  Zn  Zn3  1  0.75572300  0.75195500  0.97925600  1
  Zn  Zn4  1  0.51306600  0.25195500  0.47925600  1
  Zn  Zn5  1  0.24427700  0.24804500  0.02074400  1
  P  P0  1  0.41317200  0.60738300  0.37807000  1
  P  P1  1  0.39862500  0.89261700  0.12193000  1
  P  P2  1  0.58682800  0.39261700  0.62193000  1
  P  P3  1  0.60137500  0.10738300  0.87807000  1
  P  P4  1  0.73630300  0.90012200  0.39532300  1
  P  P5  1  0.03174900  0.59987800  0.10467700  1
  P  P6  1  0.26369700  0.09987800  0.60467700  1
  P  P7  1  0.96825100  0.40012200  0.89532300  1
  H  H0  1  0.92386700  0.82472900  0.37402100  1
  H  H1  1  0.12261800  0.67527100  0.12597900  1
  H  H2  1  0.07613300  0.17527100  0.62597900  1
  H  H3  1  0.87738200  0.32472900  0.87402100  1
  H  H4  1  0.27237500  0.69030300  0.33472000  1
  H  H5  1  0.29739800  0.80969700  0.16528000  1
  H  H6  1  0.72762500  0.30969700  0.66528000  1
  H  H7  1  0.70260200  0.19030300  0.83472000  1
  H  H8  1  0.78782600  0.76520400  0.56796600  1
  H  H9  1  0.12099600  0.73479600  0.93203400  1
  H  H10  1  0.21217400  0.23479600  0.43203400  1
  H  H11  1  0.87900400  0.26520400  0.06796600  1
  H  H12  1  0.81616500  0.71872400  0.74893000  1
  H  H13  1  0.28382000  0.78127600  0.75107000  1
  H  H14  1  0.18383500  0.28127600  0.25107000  1
  H  H15  1  0.71618000  0.21872400  0.24893000  1
  H  H16  1  0.62763600  0.86367900  0.70703800  1
  H  H17  1  0.19835300  0.63632100  0.79296200  1
  H  H18  1  0.37236400  0.13632100  0.29296200  1
  H  H19  1  0.80164700  0.36367900  0.20703800  1
  H  H20  1  0.69502800  0.65268800  0.70369600  1
  H  H21  1  0.05141200  0.84731200  0.79630400  1
  H  H22  1  0.30497200  0.34731200  0.29630400  1
  H  H23  1  0.94858800  0.15268800  0.20369600  1
  H  H24  1  0.10405800  0.56076100  0.64277100  1
  H  H25  1  0.30758900  0.93923900  0.85722900  1
  H  H26  1  0.89594200  0.43923900  0.35722900  1
  H  H27  1  0.69241100  0.06076100  0.14277100  1
  H  H28  1  0.96409500  0.48837200  0.61869000  1
  H  H29  1  0.07115700  0.01162800  0.88131000  1
  H  H30  1  0.03590500  0.51162800  0.38131000  1
  H  H31  1  0.92884300  0.98837200  0.11869000  1
  H  H32  1  0.08384300  0.57382200  0.53617000  1
  H  H33  1  0.19383400  0.92617800  0.96383000  1
  H  H34  1  0.91615700  0.42617800  0.46383000  1
  H  H35  1  0.80616600  0.07382200  0.03617000  1
  H  H36  1  0.00850800  0.86313100  0.54146100  1
  H  H37  1  0.41310000  0.63686900  0.95853900  1
  H  H38  1  0.99149200  0.13686900  0.45853900  1
  H  H39  1  0.58690000  0.36313100  0.04146100  1
  H  H40  1  0.80641800  0.98745200  0.60958300  1
  H  H41  1  0.40345300  0.51254800  0.89041700  1
  H  H42  1  0.19358200  0.01254800  0.39041700  1
  H  H43  1  0.59654700  0.48745200  0.10958300  1
  H  H44  1  0.99671800  0.84717500  0.65205100  1
  H  H45  1  0.49594300  0.65282500  0.84794900  1
  H  H46  1  0.00328200  0.15282500  0.34794900  1
  H  H47  1  0.50405700  0.34717500  0.15205100  1
  C  C0  1  0.74095500  0.74467200  0.69994400  1
  C  C1  1  0.18557100  0.75532800  0.80005600  1
  C  C2  1  0.25904500  0.25532800  0.30005600  1
  C  C3  1  0.81442900  0.24467200  0.19994400  1
  C  C4  1  0.01371000  0.57970800  0.60228900  1
  C  C5  1  0.19570600  0.92029200  0.89771100  1
  C  C6  1  0.98629000  0.42029200  0.39771100  1
  C  C7  1  0.80429400  0.07970800  0.10228900  1
  C  C8  1  0.92136900  0.86943800  0.60371600  1
  C  C9  1  0.39452300  0.63056200  0.89628400  1
  C  C10  1  0.07863100  0.13056200  0.39628400  1
  C  C11  1  0.60547700  0.36943800  0.10371600  1
  N  N0  1  0.85951100  0.74166900  0.61523200  1
  N  N1  1  0.21641100  0.75833100  0.88476800  1
  N  N2  1  0.14048900  0.25833100  0.38476800  1
  N  N3  1  0.78358900  0.24166900  0.11523200  1
  O  O0  1  0.69374800  0.80037600  0.47656000  1
  O  O1  1  0.97068400  0.69962400  0.02344000  1
  O  O2  1  0.30625200  0.19962400  0.52344000  1
  O  O3  1  0.02931600  0.30037600  0.97656000  1
  O  O4  1  0.66685800  0.89053400  0.32117500  1
  O  O5  1  0.87856700  0.60946600  0.17882500  1
  O  O6  1  0.33314200  0.10946600  0.67882500  1
  O  O7  1  0.12143300  0.39053400  0.82117500  1
  O  O8  1  0.36047600  0.71822800  0.44929200  1
  O  O9  1  0.52799500  0.78177200  0.05070800  1
  O  O10  1  0.63952400  0.28177200  0.55070800  1
  O  O11  1  0.47200500  0.21822800  0.94929200  1
  O  O12  1  0.58778700  0.58709600  0.31613400  1
  O  O13  1  0.49101700  0.91290400  0.18386600  1
  O  O14  1  0.41221300  0.41290400  0.68386600  1
  O  O15  1  0.50898300  0.08709600  0.81613400  1
  O  O16  1  0.59211300  0.55464800  0.59308400  1
  O  O17  1  0.73984500  0.94535200  0.90691600  1
  O  O18  1  0.40788700  0.44535200  0.40691600  1
  O  O19  1  0.26015500  0.05464800  0.09308400  1
  O  O20  1  0.31422600  0.92622300  0.59091200  1
  O  O21  1  0.83136000  0.57377700  0.90908800  1
  O  O22  1  0.68577400  0.07377700  0.40908800  1
  O  O23  1  0.16864000  0.42622300  0.09091200  1
loop_
_geom_bond_atom_site_label_1
_geom_bond_atom_site_label_2
_geom_bond_distance
_geom_bond_site_symmetry_2
H0 P4 1.415253 1_555
H1 P5 1.415253 1_555
H2 P6 1.415253 1_555
H3 P7 1.415253 1_555
H4 P0 1.413842 1_555
H5 P1 1.413842 1_555
H6 P2 1.413842 1_555
H7 P3 1.413842 1_555
H8 N0 1.054407 1_555
H9 N1 1.054401 1_555
H10 N2 1.054407 1_555
H11 N3 1.054401 1_555
C0 H20 1.094828 1_555
C0 H12 1.095500 1_555
C0 H16 1.096126 1_555
C0 N0 1.496188 1_555
C1 H21 1.094828 1_555
C1 H13 1.095506 1_555
C1 H17 1.096127 1_555
C1 N1 1.496185 1_555
C2 H22 1.094828 1_555
C2 H14 1.095500 1_555
C2 H18 1.096126 1_555
C2 N2 1.496188 1_555
C3 H23 1.094828 1_555
C3 H15 1.095506 1_555
C3 H19 1.096127 1_555
C3 N3 1.496185 1_555
C4 H28 1.093410 1_455
C4 H24 1.095114 1_555
C4 H32 1.095750 1_555
C4 N0 1.495356 1_455
C5 H29 1.093404 1_565
C5 H25 1.095114 1_555
C5 H33 1.095750 1_555
C5 N1 1.495356 1_555
C6 H30 1.093410 1_655
C6 H26 1.095114 1_555
C6 H34 1.095750 1_555
C6 N2 1.495356 1_655
C7 H31 1.093404 1_545
C7 H27 1.095114 1_555
C7 H35 1.095750 1_555
C7 N3 1.495356 1_555
C8 H44 1.094093 1_555
C8 H36 1.095053 1_655
C8 H40 1.095443 1_555
C8 N0 1.493760 1_555
C9 H45 1.094087 1_555
C9 H37 1.095053 1_555
C9 H41 1.095443 1_555
C9 N1 1.493766 1_555
C10 H46 1.094093 1_555
C10 H38 1.095053 1_455
C10 H42 1.095443 1_555
C10 N2 1.493760 1_555
C11 H47 1.094087 1_555
C11 H39 1.095053 1_555
C11 H43 1.095443 1_555
C11 N3 1.493766 1_555
O0 P4 1.556439 1_555
O0 Zn2 2.002260 1_555
O1 P5 1.556441 1_655
O1 Zn3 2.002260 1_554
O2 P6 1.556439 1_555
O2 Zn4 2.002260 1_555
O3 P7 1.556441 1_455
O3 Zn5 2.002260 1_556
O4 P4 1.530952 1_555
O4 Zn0 1.952567 1_555
O5 P5 1.530958 1_655
O5 Zn0 1.952567 1_555
O6 P6 1.530952 1_555
O6 Zn1 1.952567 1_555
O7 P7 1.530958 1_455
O7 Zn1 1.952567 1_555
O8 P0 1.542199 1_555
O8 Zn2 1.938981 1_555
O9 P1 1.542197 1_555
O9 Zn3 1.938988 1_554
O10 P2 1.542199 1_555
O10 Zn4 1.938981 1_555
O11 P3 1.542197 1_555
O11 Zn5 1.938988 1_556
O12 P0 1.538452 1_555
O12 Zn0 1.957290 1_555
O13 P1 1.538452 1_555
O13 Zn0 1.957290 1_555
O14 P2 1.538452 1_555
O14 Zn1 1.957290 1_555
O15 P3 1.538452 1_555
O15 Zn1 1.957290 1_555
O16 P2 1.531204 1_555
O16 Zn2 1.957461 1_555
O17 P3 1.531203 1_565
O17 Zn3 1.957461 1_555
O18 P0 1.531204 1_555
O18 Zn4 1.957461 1_555
O19 P1 1.531203 1_545
O19 Zn5 1.957461 1_555
O20 P6 1.524162 1_565
O20 Zn2 1.958812 1_555
O21 P7 1.524162 1_555
O21 Zn3 1.958814 1_555
O22 P4 1.524162 1_545
O22 Zn4 1.958812 1_555
O23 P5 1.524162 1_555
O23 Zn5 1.958814 1_555
