# generated using pymatgen
data_Sm3VGeO9
_symmetry_space_group_name_H-M   'P 1'
_cell_length_a   7.04894650
_cell_length_b   9.33381300
_cell_length_c   12.45844700
_cell_angle_alpha   90.00000000
_cell_angle_beta   90.00000000
_cell_angle_gamma   107.79571606
_symmetry_Int_Tables_number   1
_chemical_formula_structural   Sm3VGeO9
_chemical_formula_sum   'Sm12 V4 Ge4 O36'
_cell_volume   780.46532937
_cell_formula_units_Z   4
loop_
 _symmetry_equiv_pos_site_id
 _symmetry_equiv_pos_as_xyz
  1  'x, y, z'
loop_
 _atom_site_type_symbol
 _atom_site_label
 _atom_site_symmetry_multiplicity
 _atom_site_fract_x
 _atom_site_fract_y
 _atom_site_fract_z
 _atom_site_occupancy
  Sm  Sm0  1  0.67129200  0.62008300  0.36834200  1
  Sm  Sm1  1  0.32870800  0.37991700  0.63165800  1
  Sm  Sm2  1  0.82870800  0.87991700  0.86834200  1
  Sm  Sm3  1  0.17129200  0.12008300  0.13165800  1
  Sm  Sm4  1  0.24077300  0.84175000  0.36373400  1
  Sm  Sm5  1  0.75922700  0.15825000  0.63626600  1
  Sm  Sm6  1  0.25922700  0.65825000  0.86373400  1
  Sm  Sm7  1  0.74077300  0.34175000  0.13626600  1
  Sm  Sm8  1  0.50399400  0.87300500  0.10607800  1
  Sm  Sm9  1  0.49600600  0.12699500  0.89392200  1
  Sm  Sm10  1  0.99600600  0.62699500  0.60607800  1
  Sm  Sm11  1  0.00399400  0.37300500  0.39392200  1
  V  V0  1  0.19779000  0.98018500  0.66240400  1
  V  V1  1  0.80221000  0.01981500  0.33759600  1
  V  V2  1  0.30221000  0.51981500  0.16240400  1
  V  V3  1  0.69779000  0.48018500  0.83759600  1
  Ge  Ge0  1  0.94695800  0.75604100  0.10035000  1
  Ge  Ge1  1  0.05304200  0.24395900  0.89965000  1
  Ge  Ge2  1  0.55304200  0.74395900  0.60035000  1
  Ge  Ge3  1  0.44695800  0.25604100  0.39965000  1
  O  O0  1  0.89654100  0.86776300  0.34097000  1
  O  O1  1  0.10345900  0.13223700  0.65903000  1
  O  O2  1  0.60345900  0.63223700  0.84097000  1
  O  O3  1  0.39654100  0.36776300  0.15903000  1
  O  O4  1  0.65882100  0.59195900  0.57504200  1
  O  O5  1  0.34117900  0.40804100  0.42495800  1
  O  O6  1  0.84117900  0.90804100  0.07504200  1
  O  O7  1  0.15882100  0.09195900  0.92495800  1
  O  O8  1  0.17026600  0.88049800  0.54217600  1
  O  O9  1  0.82973400  0.11950200  0.45782400  1
  O  O10  1  0.32973400  0.61950200  0.04217600  1
  O  O11  1  0.67026600  0.38049800  0.95782400  1
  O  O12  1  0.78304000  0.60855400  0.17248900  1
  O  O13  1  0.21696000  0.39144600  0.82751100  1
  O  O14  1  0.71696000  0.89144600  0.67248900  1
  O  O15  1  0.28304000  0.10855400  0.32751100  1
  O  O16  1  0.07458900  0.83438100  0.75072100  1
  O  O17  1  0.92541100  0.16561900  0.24927900  1
  O  O18  1  0.42541100  0.66561900  0.25072100  1
  O  O19  1  0.57458900  0.33438100  0.74927900  1
  O  O20  1  0.99705700  0.61517000  0.41975200  1
  O  O21  1  0.00294300  0.38483000  0.58024800  1
  O  O22  1  0.50294300  0.88483000  0.91975200  1
  O  O23  1  0.49705700  0.11517000  0.08024800  1
  O  O24  1  0.17351300  0.85913100  0.16904800  1
  O  O25  1  0.82648700  0.14086900  0.83095200  1
  O  O26  1  0.32648700  0.64086900  0.66904800  1
  O  O27  1  0.67351300  0.35913100  0.33095200  1
  O  O28  1  0.56408300  0.96378100  0.28761000  1
  O  O29  1  0.43591700  0.03621900  0.71239000  1
  O  O30  1  0.93591700  0.53621900  0.78761000  1
  O  O31  1  0.06408300  0.46378100  0.21239000  1
  O  O32  1  0.49941100  0.77732900  0.46544400  1
  O  O33  1  0.50058900  0.22267100  0.53455600  1
  O  O34  1  0.00058900  0.72267100  0.96544400  1
  O  O35  1  0.99941100  0.27732900  0.03455600  1
loop_
_geom_bond_atom_site_label_1
_geom_bond_atom_site_label_2
_geom_bond_distance
_geom_bond_site_symmetry_2
Ge0 O12 1.750889 1_555
Ge0 O34 1.771079 1_654
Ge0 O24 1.808160 1_655
Ge0 O6 1.820663 1_555
Ge1 O13 1.750889 1_555
Ge1 O35 1.771079 1_456
Ge1 O25 1.808160 1_455
Ge1 O7 1.820663 1_555
Ge2 O14 1.750889 1_555
Ge2 O32 1.771079 1_555
Ge2 O26 1.808160 1_555
Ge2 O4 1.820663 1_555
Ge3 O15 1.750889 1_555
Ge3 O33 1.771079 1_555
Ge3 O27 1.808160 1_555
Ge3 O5 1.820663 1_555
O0 V1 1.742106 1_565
O0 Sm0 2.395425 1_555
O0 Sm4 2.527305 1_655
O1 V0 1.742106 1_545
O1 Sm1 2.395425 1_555
O1 Sm5 2.527305 1_455
O2 V3 1.742106 1_555
O2 Sm2 2.395425 1_555
O2 Sm6 2.527305 1_555
O3 V2 1.742106 1_555
O3 Sm3 2.395425 1_555
O3 Sm7 2.527305 1_555
O4 Sm10 2.330348 1_555
O4 Sm0 2.587274 1_555
O4 Sm1 2.648440 1_555
O5 Sm11 2.330348 1_555
O5 Sm1 2.587274 1_555
O5 Sm0 2.648440 1_555
O6 Sm8 2.330348 1_555
O6 Sm2 2.587274 1_554
O6 Sm3 2.648440 1_665
O7 Sm9 2.330348 1_555
O7 Sm3 2.587274 1_556
O7 Sm2 2.648440 1_445
O8 V0 1.742590 1_555
O8 Sm4 2.330215 1_555
O8 Sm10 2.442283 1_455
O9 V1 1.742590 1_555
O9 Sm5 2.330215 1_555
O9 Sm11 2.442283 1_655
O10 V2 1.742590 1_555
O10 Sm6 2.330215 1_554
O10 Sm8 2.442283 1_555
O11 V3 1.742590 1_555
O11 Sm7 2.330215 1_556
O11 Sm9 2.442283 1_555
O12 Sm7 2.457741 1_555
O12 Sm0 2.576352 1_555
O13 Sm6 2.457741 1_555
O13 Sm1 2.576352 1_555
O14 Sm5 2.457741 1_565
O14 Sm2 2.576352 1_555
O15 Sm4 2.457741 1_545
O15 Sm3 2.576352 1_555
O16 V0 1.759115 1_555
O16 Sm2 2.404628 1_455
O16 Sm10 2.577921 1_455
O16 Sm6 2.772504 1_555
O17 V1 1.759115 1_555
O17 Sm3 2.404628 1_655
O17 Sm11 2.577921 1_655
O17 Sm7 2.772504 1_555
O18 V2 1.759115 1_555
O18 Sm0 2.404628 1_555
O18 Sm8 2.577921 1_555
O18 Sm4 2.772504 1_555
O19 V3 1.759115 1_555
O19 Sm1 2.404628 1_555
O19 Sm9 2.577921 1_555
O19 Sm5 2.772504 1_555
O20 Sm11 2.298383 1_655
O20 Sm10 2.324074 1_555
O20 Sm4 2.385416 1_655
O20 Sm0 2.397851 1_555
O21 Sm10 2.298383 1_455
O21 Sm11 2.324074 1_555
O21 Sm5 2.385416 1_455
O21 Sm1 2.397851 1_555
O22 Sm9 2.298383 1_565
O22 Sm8 2.324074 1_556
O22 Sm6 2.385416 1_555
O22 Sm2 2.397851 1_555
O23 Sm8 2.298383 1_545
O23 Sm9 2.324074 1_554
O23 Sm7 2.385416 1_555
O23 Sm3 2.397851 1_555
O24 Sm8 2.423757 1_555
O24 Sm3 2.484566 1_565
O24 Sm4 2.486181 1_555
O25 Sm9 2.423757 1_555
O25 Sm2 2.484566 1_545
O25 Sm5 2.486181 1_555
O26 Sm10 2.423757 1_455
O26 Sm1 2.484566 1_555
O26 Sm6 2.486181 1_555
O27 Sm11 2.423757 1_655
O27 Sm0 2.484566 1_555
O27 Sm7 2.486181 1_555
O28 V1 1.715300 1_565
O28 Sm8 2.406824 1_555
O28 Sm4 2.409134 1_555
O29 V0 1.715300 1_545
O29 Sm9 2.406824 1_555
O29 Sm5 2.409134 1_555
O30 V3 1.715300 1_555
O30 Sm10 2.406824 1_555
O30 Sm6 2.409134 1_655
O31 V2 1.715300 1_555
O31 Sm11 2.406824 1_555
O31 Sm7 2.409134 1_455
O32 Sm4 2.441532 1_555
O32 Sm0 2.484452 1_555
O33 Sm5 2.441532 1_555
O33 Sm1 2.484452 1_555
O34 Sm6 2.441532 1_555
O34 Sm2 2.484452 1_455
O35 Sm7 2.441532 1_555
O35 Sm3 2.484452 1_655
