# generated using pymatgen
data_La4SiI5
_symmetry_space_group_name_H-M   'P 1'
_cell_length_a   10.19694100
_cell_length_b   10.19694100
_cell_length_c   9.19568916
_cell_angle_alpha   77.47335468
_cell_angle_beta   77.47335468
_cell_angle_gamma   25.01615073
_symmetry_Int_Tables_number   1
_chemical_formula_structural   La4SiI5
_chemical_formula_sum   'La4 Si1 I5'
_cell_volume   394.22420490
_cell_formula_units_Z   1
loop_
 _symmetry_equiv_pos_site_id
 _symmetry_equiv_pos_as_xyz
  1  'x, y, z'
loop_
 _atom_site_type_symbol
 _atom_site_label
 _atom_site_symmetry_multiplicity
 _atom_site_fract_x
 _atom_site_fract_y
 _atom_site_fract_z
 _atom_site_occupancy
  La  La0  1  0.85129961  0.85129961  0.07602709  1
  La  La1  1  0.14870039  0.14870039  0.92397291  1
  La  La2  1  0.50041858  0.50041858  0.21714173  1
  La  La3  1  0.49958142  0.49958142  0.78285827  1
  Si  Si0  1  0.00000000  0.00000000  0.00000000  1
  I  I0  1  0.67169465  0.67169465  0.17631027  1
  I  I1  1  0.32830535  0.32830535  0.82368973  1
  I  I2  1  0.66752521  0.66752521  0.65872091  1
  I  I3  1  0.33247479  0.33247479  0.34127909  1
  I  I4  1  0.00000000  0.00000000  0.50000000  1
loop_
_geom_bond_atom_site_label_1
_geom_bond_atom_site_label_2
_geom_bond_distance
_geom_bond_site_symmetry_2
La0 Si0 2.886909 1_665
La1 Si0 2.886909 1_556
La2 Si0 2.978538 1_655
La2 Si0 2.978538 1_565
La3 Si0 2.978538 1_656
La3 Si0 2.978538 1_566
I0 La1 3.308033 1_564
I0 La1 3.308033 1_654
I0 La2 3.346745 1_555
I0 La0 3.488879 1_555
I1 La0 3.308033 1_456
I1 La0 3.308033 1_546
I1 La3 3.346745 1_555
I1 La1 3.488879 1_555
I2 La1 3.249766 1_565
I2 La1 3.249766 1_655
I2 La3 3.284455 1_555
I3 La0 3.249766 1_545
I3 La0 3.249766 1_455
I3 La2 3.284455 1_555
I4 La3 3.410745 1_545
I4 La2 3.410745 1_545
I4 La3 3.410745 1_455
I4 La2 3.410745 1_455
