# generated using pymatgen
data_Mg14VFeO16
_symmetry_space_group_name_H-M   'P 1'
_cell_length_a   8.45449716
_cell_length_b   8.41060106
_cell_length_c   4.23576405
_cell_angle_alpha   90.00000000
_cell_angle_beta   90.00000000
_cell_angle_gamma   90.00000000
_symmetry_Int_Tables_number   1
_chemical_formula_structural   Mg14VFeO16
_chemical_formula_sum   'Mg14 V1 Fe1 O16'
_cell_volume   301.19418037
_cell_formula_units_Z   1
loop_
 _symmetry_equiv_pos_site_id
 _symmetry_equiv_pos_as_xyz
  1  'x, y, z'
loop_
 _atom_site_type_symbol
 _atom_site_label
 _atom_site_symmetry_multiplicity
 _atom_site_fract_x
 _atom_site_fract_y
 _atom_site_fract_z
 _atom_site_occupancy
  Mg  Mg0  1  0.50000000  0.00000000  -0.00000000  1
  Mg  Mg1  1  0.50000000  0.50000000  -0.00000000  1
  Mg  Mg2  1  0.00000000  0.24776661  0.50000000  1
  Mg  Mg3  1  0.00000000  0.75223339  0.50000000  1
  Mg  Mg4  1  0.50000000  0.24987648  0.50000000  1
  Mg  Mg5  1  0.50000000  0.75012352  0.50000000  1
  Mg  Mg6  1  0.24985566  0.00000000  0.50000000  1
  Mg  Mg7  1  0.25024901  0.50000000  0.50000000  1
  Mg  Mg8  1  0.75014434  0.00000000  0.50000000  1
  Mg  Mg9  1  0.74975099  0.50000000  0.50000000  1
  Mg  Mg10  1  0.25261635  0.24860681  -0.00000000  1
  Mg  Mg11  1  0.25261635  0.75139319  -0.00000000  1
  Mg  Mg12  1  0.74738365  0.24860681  0.00000000  1
  Mg  Mg13  1  0.74738365  0.75139319  0.00000000  1
  V  V0  1  0.00000000  0.50000000  -0.00000000  1
  Fe  Fe0  1  0.00000000  0.00000000  -0.00000000  1
  O  O0  1  0.25799585  0.00000000  -0.00000000  1
  O  O1  1  0.25444845  0.50000000  0.00000000  1
  O  O2  1  0.74200415  0.00000000  0.00000000  1
  O  O3  1  0.74555155  0.50000000  -0.00000000  1
  O  O4  1  0.24918870  0.25014460  0.50000000  1
  O  O5  1  0.24918870  0.74985540  0.50000000  1
  O  O6  1  0.75081130  0.25014460  0.50000000  1
  O  O7  1  0.75081130  0.74985540  0.50000000  1
  O  O8  1  0.00000000  0.00000000  0.50000000  1
  O  O9  1  0.00000000  0.50000000  0.50000000  1
  O  O10  1  0.50000000  0.00000000  0.50000000  1
  O  O11  1  0.50000000  0.50000000  0.50000000  1
  O  O12  1  0.00000000  0.24525484  0.00000000  1
  O  O13  1  0.00000000  0.75474516  -0.00000000  1
  O  O14  1  0.50000000  0.25092717  0.00000000  1
  O  O15  1  0.50000000  0.74907283  -0.00000000  1
loop_
_geom_bond_atom_site_label_1
_geom_bond_atom_site_label_2
_geom_bond_distance
_geom_bond_site_symmetry_2
Mg0 O0 2.046023 1_555
Mg0 O2 2.046023 1_555
Mg0 O15 2.110448 1_545
Mg0 O14 2.110448 1_555
Mg0 O10 2.117882 1_555
Mg0 O10 2.117882 1_554
Mg1 O1 2.076015 1_555
Mg1 O3 2.076015 1_555
Mg1 O14 2.094852 1_555
Mg1 O15 2.094852 1_555
Mg1 O11 2.117882 1_554
Mg1 O11 2.117882 1_555
Mg2 O8 2.083866 1_555
Mg2 O4 2.106860 1_555
Mg2 O6 2.106860 1_455
Mg2 O12 2.117987 1_556
Mg2 O12 2.117987 1_555
Mg2 O9 2.121434 1_555
Mg3 O8 2.083866 1_565
Mg3 O5 2.106860 1_555
Mg3 O7 2.106860 1_455
Mg3 O13 2.117987 1_555
Mg3 O13 2.117987 1_556
Mg3 O9 2.121434 1_555
Mg4 O10 2.101611 1_555
Mg4 O11 2.103689 1_555
Mg4 O14 2.117900 1_556
Mg4 O14 2.117900 1_555
Mg4 O6 2.120485 1_555
Mg4 O4 2.120485 1_555
Mg5 O10 2.101611 1_565
Mg5 O11 2.103689 1_555
Mg5 O15 2.117900 1_556
Mg5 O15 2.117900 1_555
Mg5 O7 2.120485 1_555
Mg5 O5 2.120485 1_555
Mg6 O4 2.103874 1_555
Mg6 O5 2.103874 1_545
Mg6 O8 2.112404 1_555
Mg6 O10 2.114845 1_555
Mg6 O0 2.119000 1_555
Mg6 O0 2.119000 1_556
Mg7 O5 2.101453 1_555
Mg7 O4 2.101453 1_555
Mg7 O11 2.111519 1_555
Mg7 O9 2.115730 1_555
Mg7 O1 2.118180 1_556
Mg7 O1 2.118180 1_555
Mg8 O6 2.103874 1_555
Mg8 O7 2.103874 1_545
Mg8 O8 2.112404 1_655
Mg8 O10 2.114845 1_555
Mg8 O2 2.119000 1_556
Mg8 O2 2.119000 1_555
Mg9 O7 2.101453 1_555
Mg9 O6 2.101453 1_555
Mg9 O11 2.111519 1_555
Mg9 O9 2.115730 1_655
Mg9 O3 2.118180 1_556
Mg9 O3 2.118180 1_555
Mg10 O0 2.091427 1_555
Mg10 O14 2.091595 1_555
Mg10 O1 2.114425 1_555
Mg10 O4 2.118120 1_554
Mg10 O4 2.118120 1_555
Mg10 O12 2.135930 1_555
Mg11 O0 2.091427 1_565
Mg11 O15 2.091595 1_555
Mg11 O1 2.114425 1_555
Mg11 O5 2.118120 1_555
Mg11 O5 2.118120 1_554
Mg11 O13 2.135930 1_555
Mg12 O2 2.091427 1_555
Mg12 O14 2.091595 1_555
Mg12 O3 2.114425 1_555
Mg12 O6 2.118120 1_555
Mg12 O6 2.118120 1_554
Mg12 O12 2.135930 1_655
Mg13 O2 2.091427 1_565
Mg13 O15 2.091595 1_555
Mg13 O3 2.114425 1_555
Mg13 O7 2.118120 1_555
Mg13 O7 2.118120 1_554
Mg13 O13 2.135930 1_655
Fe0 O13 2.062741 1_545
Fe0 O12 2.062741 1_555
Fe0 O8 2.117882 1_554
Fe0 O8 2.117882 1_555
Fe0 O2 2.181225 1_455
Fe0 O0 2.181225 1_555
O1 V0 2.151234 1_555
O3 V0 2.151234 1_655
O9 V0 2.117882 1_556
O9 V0 2.117882 1_555
O12 V0 2.142560 1_555
O13 V0 2.142560 1_555
