# generated using pymatgen
data_Li2InCuF6
_symmetry_space_group_name_H-M   'P 1'
_cell_length_a   5.97245863
_cell_length_b   5.97245863
_cell_length_c   5.97245863
_cell_angle_alpha   60.00000000
_cell_angle_beta   60.00000000
_cell_angle_gamma   60.00000000
_symmetry_Int_Tables_number   1
_chemical_formula_structural   Li2InCuF6
_chemical_formula_sum   'Li2 In1 Cu1 F6'
_cell_volume   150.64143823
_cell_formula_units_Z   1
loop_
 _symmetry_equiv_pos_site_id
 _symmetry_equiv_pos_as_xyz
  1  'x, y, z'
loop_
 _atom_site_type_symbol
 _atom_site_label
 _atom_site_symmetry_multiplicity
 _atom_site_fract_x
 _atom_site_fract_y
 _atom_site_fract_z
 _atom_site_occupancy
  Li  Li0  1  0.75000000  0.75000000  0.75000000  1
  Li  Li1  1  0.25000000  0.25000000  0.25000000  1
  In  In0  1  0.00000000  0.00000000  0.00000000  1
  Cu  Cu0  1  0.50000000  0.50000000  0.50000000  1
  F  F0  1  0.74982800  0.25017200  0.25017200  1
  F  F1  1  0.25017200  0.25017200  0.74982800  1
  F  F2  1  0.25017200  0.74982800  0.74982800  1
  F  F3  1  0.25017200  0.74982800  0.25017200  1
  F  F4  1  0.74982800  0.25017200  0.74982800  1
  F  F5  1  0.74982800  0.74982800  0.25017200  1
loop_
_geom_bond_atom_site_label_1
_geom_bond_atom_site_label_2
_geom_bond_distance
_geom_bond_site_symmetry_2
Cu0 F2 2.110130 1_555
Cu0 F4 2.110130 1_555
Cu0 F5 2.110130 1_555
Cu0 F0 2.110130 1_555
Cu0 F1 2.110130 1_555
Cu0 F3 2.110130 1_555
F0 In0 2.113036 1_655
F1 In0 2.113036 1_556
F2 In0 2.113036 1_566
F3 In0 2.113036 1_565
F4 In0 2.113036 1_656
F5 In0 2.113036 1_665
