# generated using pymatgen
data_CaSnS3
_symmetry_space_group_name_H-M   'P 1'
_cell_length_a   5.36415800
_cell_length_b   6.70065700
_cell_length_c   14.31541100
_cell_angle_alpha   90.00000000
_cell_angle_beta   90.00000000
_cell_angle_gamma   90.00000000
_symmetry_Int_Tables_number   1
_chemical_formula_structural   CaSnS3
_chemical_formula_sum   'Ca4 Sn4 S12'
_cell_volume   514.54429825
_cell_formula_units_Z   4
loop_
 _symmetry_equiv_pos_site_id
 _symmetry_equiv_pos_as_xyz
  1  'x, y, z'
loop_
 _atom_site_type_symbol
 _atom_site_label
 _atom_site_symmetry_multiplicity
 _atom_site_fract_x
 _atom_site_fract_y
 _atom_site_fract_z
 _atom_site_occupancy
  Ca  Ca0  1  0.22342600  0.34162700  0.87604400  1
  Ca  Ca1  1  0.27657400  0.65837300  0.37604400  1
  Ca  Ca2  1  0.72342600  0.15837300  0.12395600  1
  Ca  Ca3  1  0.77657400  0.84162700  0.62395600  1
  Sn  Sn0  1  0.71255400  0.82497100  0.90664800  1
  Sn  Sn1  1  0.78744600  0.17502900  0.40664800  1
  Sn  Sn2  1  0.21255400  0.67502900  0.09335200  1
  Sn  Sn3  1  0.28744600  0.32497200  0.59335200  1
  S  S0  1  0.23818200  0.77291500  0.92613500  1
  S  S1  1  0.26181800  0.22708500  0.42613500  1
  S  S2  1  0.73818200  0.72708500  0.07386500  1
  S  S3  1  0.76181800  0.27291500  0.57386500  1
  S  S4  1  0.75142900  0.58859800  0.78440200  1
  S  S5  1  0.74857100  0.41140200  0.28440200  1
  S  S6  1  0.25142900  0.91140200  0.21559800  1
  S  S7  1  0.24857100  0.08859800  0.71559800  1
  S  S8  1  0.73019700  0.17908400  0.91660800  1
  S  S9  1  0.76980300  0.82091600  0.41660800  1
  S  S10  1  0.23019700  0.32091600  0.08339200  1
  S  S11  1  0.26980300  0.67908400  0.58339200  1
loop_
_geom_bond_atom_site_label_1
_geom_bond_atom_site_label_2
_geom_bond_distance
_geom_bond_site_symmetry_2
Ca0 S7 2.858024 1_555
Ca0 S8 2.919499 1_455
Ca0 S10 2.971736 1_556
Ca0 S0 2.978600 1_555
Ca0 S8 2.985487 1_555
Ca0 S4 3.296968 1_455
Ca1 S6 2.858024 1_555
Ca1 S9 2.919499 1_555
Ca1 S11 2.971736 1_555
Ca1 S1 2.978600 1_555
Ca1 S9 2.985487 1_455
Ca1 S5 3.296968 1_555
Ca2 S5 2.858024 1_555
Ca2 S10 2.919499 1_555
Ca2 S8 2.971736 1_554
Ca2 S2 2.978600 1_545
Ca2 S10 2.985487 1_655
Ca2 S6 3.296968 1_545
Ca3 S4 2.858024 1_555
Ca3 S11 2.919499 1_655
Ca3 S9 2.971736 1_555
Ca3 S3 2.978600 1_565
Ca3 S11 2.985487 1_555
Ca3 S7 3.296968 1_665
S0 Sn2 2.485817 1_556
S0 Sn0 2.583507 1_555
S0 Sn0 2.854708 1_455
S1 Sn3 2.485819 1_555
S1 Sn1 2.583507 1_455
S1 Sn1 2.854708 1_555
S2 Sn0 2.485817 1_554
S2 Sn2 2.583507 1_655
S2 Sn2 2.854708 1_555
S3 Sn1 2.485817 1_555
S3 Sn3 2.583508 1_555
S3 Sn3 2.854709 1_655
S4 Sn0 2.369512 1_555
S5 Sn1 2.369512 1_555
S6 Sn2 2.369512 1_555
S7 Sn3 2.369516 1_555
S8 Sn0 2.378953 1_545
S9 Sn1 2.378953 1_565
S10 Sn2 2.378953 1_555
S11 Sn3 2.378946 1_555
