# generated using pymatgen
data_Ta6V3Ni3C2
_symmetry_space_group_name_H-M   'P 1'
_cell_length_a   8.15060744
_cell_length_b   8.15060744
_cell_length_c   8.15060744
_cell_angle_alpha   120.16150924
_cell_angle_beta   119.94587938
_cell_angle_gamma   89.90712546
_symmetry_Int_Tables_number   1
_chemical_formula_structural   Ta6V3Ni3C2
_chemical_formula_sum   'Ta12 V6 Ni6 C4'
_cell_volume   382.56019187
_cell_formula_units_Z   2
loop_
 _symmetry_equiv_pos_site_id
 _symmetry_equiv_pos_as_xyz
  1  'x, y, z'
loop_
 _atom_site_type_symbol
 _atom_site_label
 _atom_site_symmetry_multiplicity
 _atom_site_fract_x
 _atom_site_fract_y
 _atom_site_fract_z
 _atom_site_occupancy
  Ta  Ta0  1  0.06772300  0.06772300  0.00000000  1
  Ta  Ta1  1  0.68877200  0.68877200  0.00000000  1
  Ta  Ta2  1  0.68509800  0.06410900  0.00140100  1
  Ta  Ta3  1  0.06270800  0.68369800  0.99859900  1
  Ta  Ta4  1  0.06270800  0.06410900  0.37901100  1
  Ta  Ta5  1  0.68509800  0.68369800  0.62098900  1
  Ta  Ta6  1  0.43933300  0.93933300  0.50000000  1
  Ta  Ta7  1  0.81553500  0.31553500  0.50000000  1
  Ta  Ta8  1  0.81286700  0.93465300  0.49934300  1
  Ta  Ta9  1  0.43531000  0.31352400  0.50065700  1
  Ta  Ta10  1  0.43531000  0.93465300  0.12178600  1
  Ta  Ta11  1  0.81286700  0.31352400  0.87821400  1
  V  V0  1  0.25650900  0.50568500  0.75082400  1
  V  V1  1  0.75486200  0.50568500  0.24917600  1
  V  V2  1  0.24968800  0.50812600  0.25843900  1
  V  V3  1  0.24968800  0.99124900  0.74156100  1
  V  V4  1  0.45601000  0.29425300  0.16175800  1
  V  V5  1  0.13249500  0.29425300  0.83824200  1
  Ni  Ni0  1  0.45397400  0.29876700  0.84479300  1
  Ni  Ni1  1  0.45397400  0.60918100  0.15520700  1
  Ni  Ni2  1  0.04558400  0.70227500  0.34330800  1
  Ni  Ni3  1  0.35896700  0.70227500  0.65669200  1
  Ni  Ni4  1  0.04480400  0.70431000  0.65950600  1
  Ni  Ni5  1  0.04480400  0.38529800  0.34049400  1
  C  C0  1  0.74832900  0.99926600  0.74906300  1
  C  C1  1  0.25020300  0.99926600  0.25093700  1
  C  C2  1  0.74838900  0.99882900  0.25044000  1
  C  C3  1  0.74838900  0.49795000  0.74956000  1
loop_
_geom_bond_atom_site_label_1
_geom_bond_atom_site_label_2
_geom_bond_distance
_geom_bond_site_symmetry_2
Ta0 V4 2.927486 1_555
Ta0 V5 2.927493 1_554
Ta0 V2 2.970157 1_555
Ta0 V3 2.970164 1_544
Ta2 V3 2.944773 1_544
Ta2 V4 2.945309 1_555
Ta3 V2 2.944787 1_556
Ta3 V5 2.945309 1_555
Ta4 V3 2.944773 1_545
Ta4 V5 2.945302 1_555
Ta5 V2 2.944773 1_555
Ta5 V4 2.945305 1_555
Ta6 V3 2.940033 1_555
Ta6 V2 2.940040 1_555
Ta7 V5 2.770034 1_655
Ta7 V4 2.770039 1_555
Ta8 V5 2.777103 1_665
Ta8 V3 2.976447 1_655
Ta9 V4 2.777098 1_555
Ta9 V2 2.976440 1_555
Ta10 V4 2.777103 1_565
Ta10 V3 2.976447 1_554
Ta11 V5 2.777103 1_655
Ta11 V2 2.976447 1_656
V0 V5 2.541191 1_555
V1 V4 2.541204 1_555
V2 V4 2.533922 1_555
V2 V5 2.533933 1_554
V3 V5 2.533933 1_565
V3 V4 2.533933 1_566
V4 V5 2.639005 1_554
Ni0 V0 2.465727 1_555
Ni0 V1 2.465729 1_556
Ni0 V3 2.501662 1_545
Ni0 Ni1 2.523884 1_556
Ni0 V5 2.593949 1_555
Ni0 V4 2.593953 1_556
Ni0 Ta11 2.796093 1_555
Ni0 Ta9 2.796093 1_555
Ni0 Ta6 2.808492 1_545
Ni0 Ta2 2.979433 1_556
Ni0 Ta4 2.979433 1_555
Ni0 Ta1 2.988180 1_556
Ni1 V0 2.465727 1_554
Ni1 V1 2.465733 1_555
Ni1 V2 2.501666 1_555
Ni1 V5 2.593949 1_554
Ni1 V4 2.593949 1_555
Ni1 Ta10 2.796093 1_555
Ni1 Ta8 2.796093 1_555
Ni1 Ta6 2.808492 1_555
Ni1 Ta5 2.979430 1_555
Ni1 Ta3 2.979437 1_554
Ni1 Ta1 2.988180 1_555
Ni2 V1 2.394336 1_455
Ni2 V2 2.406331 1_555
Ni2 V3 2.406333 1_555
Ni2 Ni3 2.556355 1_555
Ni2 Ni5 2.572098 1_555
Ni2 Ni4 2.572102 1_555
Ni2 Ta1 2.804791 1_455
Ni2 Ta3 2.810717 1_554
Ni2 Ta4 2.810718 1_565
Ni2 Ta11 2.962881 1_454
Ni2 Ta8 2.962888 1_455
Ni2 Ta6 3.018665 1_555
Ni3 V0 2.394336 1_555
Ni3 V2 2.406333 1_555
Ni3 V3 2.406333 1_555
Ni3 Ni5 2.572098 1_555
Ni3 Ni4 2.572098 1_555
Ni3 Ta1 2.804786 1_556
Ni3 Ta5 2.810718 1_555
Ni3 Ta2 2.810718 1_566
Ni3 Ta10 2.962881 1_556
Ni3 Ta9 2.962881 1_555
Ni3 Ta6 3.018672 1_555
Ni4 V3 2.455906 1_555
Ni4 V1 2.464114 1_455
Ni4 V0 2.464117 1_555
Ni4 Ni5 2.593792 1_555
Ni4 Ta0 2.781052 1_566
Ni4 Ta3 2.784248 1_555
Ni4 Ta5 2.784252 1_455
Ni4 Ta7 2.945709 1_455
Ni4 Ta8 2.964818 1_455
Ni4 Ta10 2.964818 1_556
Ni5 V2 2.455902 1_555
Ni5 V1 2.464110 1_455
Ni5 V0 2.464117 1_555
Ni5 Ta0 2.781052 1_555
Ni5 Ta4 2.784252 1_555
Ni5 Ta2 2.784252 1_455
Ni5 Ta7 2.945709 1_455
Ni5 Ta9 2.964818 1_555
Ni5 Ta11 2.964818 1_454
C0 Ta6 2.146095 1_555
C0 Ta8 2.165099 1_555
C0 Ta11 2.165099 1_565
C0 Ta5 2.177154 1_555
C0 Ta2 2.177162 1_566
C0 Ta0 2.194018 1_666
C1 Ta6 2.146095 1_555
C1 Ta10 2.165099 1_555
C1 Ta9 2.165099 1_565
C1 Ta3 2.177156 1_554
C1 Ta4 2.177162 1_565
C1 Ta0 2.194018 1_565
C2 Ta1 2.149260 1_555
C2 Ta10 2.160207 1_555
C2 Ta8 2.160207 1_555
C2 Ta2 2.169879 1_565
C2 Ta4 2.169879 1_665
C2 Ta7 2.171921 1_565
C3 Ta1 2.149258 1_556
C3 Ta9 2.160209 1_555
C3 Ta11 2.160215 1_555
C3 Ta3 2.169879 1_655
C3 Ta5 2.169879 1_555
C3 Ta7 2.171923 1_555
