# generated using pymatgen
data_YCoGe
_symmetry_space_group_name_H-M   'P 1'
_cell_length_a   4.23887183
_cell_length_b   6.99330539
_cell_length_c   7.21873127
_cell_angle_alpha   89.99932999
_cell_angle_beta   90.00000000
_cell_angle_gamma   90.00000000
_symmetry_Int_Tables_number   1
_chemical_formula_structural   YCoGe
_chemical_formula_sum   'Y4 Co4 Ge4'
_cell_volume   213.99008617
_cell_formula_units_Z   4
loop_
 _symmetry_equiv_pos_site_id
 _symmetry_equiv_pos_as_xyz
  1  'x, y, z'
loop_
 _atom_site_type_symbol
 _atom_site_label
 _atom_site_symmetry_multiplicity
 _atom_site_fract_x
 _atom_site_fract_y
 _atom_site_fract_z
 _atom_site_occupancy
  Y  Y0  1  0.25000000  0.01310787  0.79752898  1
  Y  Y1  1  0.25000000  0.51309416  0.70251325  1
  Y  Y2  1  0.75000000  0.98693928  0.20245313  1
  Y  Y3  1  0.75000000  0.48697850  0.29749686  1
  Co  Co0  1  0.25000000  0.83980554  0.43291676  1
  Co  Co1  1  0.25000000  0.33983974  0.06706600  1
  Co  Co2  1  0.75000000  0.16012926  0.56705199  1
  Co  Co3  1  0.75000000  0.66012410  0.93297974  1
  Ge  Ge0  1  0.25000000  0.20218090  0.40119792  1
  Ge  Ge1  1  0.25000000  0.70213636  0.09859218  1
  Ge  Ge2  1  0.75000000  0.79778036  0.59865052  1
  Ge  Ge3  1  0.75000000  0.29788295  0.90155167  1
loop_
_geom_bond_atom_site_label_1
_geom_bond_atom_site_label_2
_geom_bond_distance
_geom_bond_site_symmetry_2
Co0 Ge2 2.451473 1_455
Co0 Ge2 2.451473 1_555
Co0 Ge0 2.544522 1_565
Co0 Ge1 2.598358 1_555
Co0 Y2 2.884174 1_455
Co0 Y2 2.884174 1_555
Co0 Y0 2.897677 1_565
Co0 Y1 3.001275 1_555
Co1 Ge3 2.450646 1_454
Co1 Ge3 2.450646 1_554
Co1 Ge1 2.543854 1_555
Co1 Ge0 2.597018 1_555
Co1 Y3 2.884064 1_455
Co1 Y3 2.884064 1_555
Co1 Y1 2.897122 1_554
Co1 Y0 3.001140 1_554
Co2 Ge0 2.451919 1_655
Co2 Ge0 2.451919 1_555
Co2 Ge2 2.544259 1_545
Co2 Ge3 2.599751 1_555
Co2 Y0 2.883949 1_655
Co2 Y0 2.883949 1_555
Co2 Y2 2.897261 1_545
Co2 Y3 3.001815 1_555
Co3 Ge1 2.451038 1_556
Co3 Ge1 2.451038 1_656
Co3 Ge3 2.543404 1_555
Co3 Ge2 2.598334 1_555
Co3 Y1 2.883940 1_555
Co3 Y1 2.883940 1_655
Co3 Y3 2.896570 1_556
Co3 Y2 3.001286 1_556
Ge0 Y2 2.969202 1_545
Ge0 Y2 2.969202 1_445
Ge0 Y3 3.003188 1_455
Ge0 Y3 3.003188 1_555
Ge0 Y1 3.075526 1_555
Ge0 Y0 3.151763 1_555
Ge1 Y3 2.969446 1_555
Ge1 Y3 2.969446 1_455
Ge1 Y2 3.003512 1_455
Ge1 Y2 3.003512 1_555
Ge1 Y0 3.074492 1_564
Ge1 Y1 3.150048 1_554
Ge2 Y0 2.969973 1_565
Ge2 Y0 2.969973 1_665
Ge2 Y1 3.002962 1_555
Ge2 Y1 3.002962 1_655
Ge2 Y3 3.074150 1_555
Ge2 Y2 3.151139 1_555
Ge3 Y1 2.970102 1_555
Ge3 Y1 2.970102 1_655
Ge3 Y0 3.003675 1_555
Ge3 Y0 3.003675 1_655
Ge3 Y2 3.073529 1_546
Ge3 Y3 3.149329 1_556
