# generated using pymatgen
data_NaCuF3
_symmetry_space_group_name_H-M   'P 1'
_cell_length_a   5.33820605
_cell_length_b   5.52609622
_cell_length_c   7.84460444
_cell_angle_alpha   89.35495005
_cell_angle_beta   87.58387967
_cell_angle_gamma   86.70598610
_symmetry_Int_Tables_number   1
_chemical_formula_structural   NaCuF3
_chemical_formula_sum   'Na4 Cu4 F12'
_cell_volume   230.81466908
_cell_formula_units_Z   4
loop_
 _symmetry_equiv_pos_site_id
 _symmetry_equiv_pos_as_xyz
  1  'x, y, z'
loop_
 _atom_site_type_symbol
 _atom_site_label
 _atom_site_symmetry_multiplicity
 _atom_site_fract_x
 _atom_site_fract_y
 _atom_site_fract_z
 _atom_site_occupancy
  Na  Na0  1  0.48720704  0.43944613  0.23962232  1
  Na  Na1  1  0.51279296  0.56055387  0.76037768  1
  Na  Na2  1  0.02654153  0.93600364  0.25972852  1
  Na  Na3  1  0.97345847  0.06399636  0.74027148  1
  Cu  Cu0  1  0.50000000  -0.00000000  -0.00000000  1
  Cu  Cu1  1  0.00000000  0.50000000  -0.00000000  1
  Cu  Cu2  1  0.50000000  -0.00000000  0.50000000  1
  Cu  Cu3  1  0.00000000  0.50000000  0.50000000  1
  F  F0  1  0.11289113  0.45234003  0.77223538  1
  F  F1  1  0.88710887  0.54765997  0.22776462  1
  F  F2  1  0.38648952  0.95744506  0.72853772  1
  F  F3  1  0.61351048  0.04255494  0.27146228  1
  F  F4  1  0.19256703  0.19644966  0.44961968  1
  F  F5  1  0.80743297  0.80355034  0.55038032  1
  F  F6  1  0.71821014  0.32265833  0.56301050  1
  F  F7  1  0.28178986  0.67734167  0.43698950  1
  F  F8  1  0.32289454  0.72224723  0.05504422  1
  F  F9  1  0.67710546  0.27775277  0.94495578  1
  F  F10  1  0.79746426  0.79457476  0.93119602  1
  F  F11  1  0.20253574  0.20542524  0.06880398  1
loop_
_geom_bond_atom_site_label_1
_geom_bond_atom_site_label_2
_geom_bond_distance
_geom_bond_site_symmetry_2
Cu0 F8 1.885095 1_545
Cu0 F9 1.885095 1_554
Cu0 F10 1.958541 1_544
Cu0 F11 1.958541 1_555
Cu0 F2 2.256933 1_544
Cu0 F3 2.256933 1_555
Cu1 F1 1.877895 1_455
Cu1 F0 1.877895 1_554
Cu1 F11 1.984267 1_555
Cu1 F10 1.984267 1_454
Cu1 F9 2.232457 1_454
Cu1 F8 2.232457 1_555
Cu2 F3 1.884635 1_555
Cu2 F2 1.884635 1_545
Cu2 F5 1.966811 1_545
Cu2 F4 1.966811 1_555
Cu2 F7 2.255551 1_545
Cu2 F6 2.255551 1_555
Cu3 F6 1.887678 1_455
Cu3 F7 1.887678 1_555
Cu3 F4 1.951729 1_555
Cu3 F5 1.951729 1_455
Cu3 F0 2.251852 1_555
Cu3 F1 2.251852 1_455
F0 Na1 2.247701 1_555
F0 Na3 2.331035 1_455
F1 Na0 2.247701 1_555
F1 Na2 2.331035 1_655
F2 Na3 2.247539 1_465
F2 Na1 2.271406 1_555
F3 Na2 2.247539 1_645
F3 Na0 2.271406 1_555
F4 Na2 2.319930 1_545
F4 Na3 2.634085 1_455
F4 Na0 2.639171 1_555
F5 Na3 2.319930 1_565
F5 Na2 2.634085 1_655
F5 Na1 2.639171 1_555
F6 Na1 2.250523 1_555
F6 Na3 2.392599 1_555
F7 Na0 2.250523 1_555
F7 Na2 2.392599 1_555
F8 Na0 2.281842 1_555
F8 Na2 2.467789 1_555
F8 Na1 2.629467 1_554
F9 Na1 2.281842 1_555
F9 Na3 2.467789 1_555
F9 Na0 2.629467 1_556
F10 Na3 2.309634 1_565
F10 Na1 2.492763 1_555
F11 Na2 2.309634 1_545
F11 Na0 2.492763 1_555
