# generated using pymatgen
data_Sr2FeO3F
_symmetry_space_group_name_H-M   'P 1'
_cell_length_a   5.55762030
_cell_length_b   5.55762454
_cell_length_c   13.61231839
_cell_angle_alpha   78.21957858
_cell_angle_beta   78.21959074
_cell_angle_gamma   89.99807548
_symmetry_Int_Tables_number   1
_chemical_formula_structural   Sr2FeO3F
_chemical_formula_sum   'Sr8 Fe4 O12 F4'
_cell_volume   402.54027723
_cell_formula_units_Z   4
loop_
 _symmetry_equiv_pos_site_id
 _symmetry_equiv_pos_as_xyz
  1  'x, y, z'
loop_
 _atom_site_type_symbol
 _atom_site_label
 _atom_site_symmetry_multiplicity
 _atom_site_fract_x
 _atom_site_fract_y
 _atom_site_fract_z
 _atom_site_occupancy
  Sr  Sr0  1  0.18262400  0.18262200  0.63476500  1
  Sr  Sr1  1  0.68262500  0.68262200  0.63476500  1
  Sr  Sr2  1  0.43262200  0.93262400  0.13477200  1
  Sr  Sr3  1  0.93262200  0.43262400  0.13477200  1
  Sr  Sr4  1  0.06828900  0.56828900  0.86341200  1
  Sr  Sr5  1  0.56828900  0.06828900  0.86341300  1
  Sr  Sr6  1  0.31829100  0.31829000  0.36340700  1
  Sr  Sr7  1  0.81829100  0.81829000  0.36340700  1
  Fe  Fe0  1  0.00923700  0.00923100  0.98152000  1
  Fe  Fe1  1  0.25923000  0.75923700  0.48152000  1
  Fe  Fe2  1  0.50925500  0.50924300  0.98148800  1
  Fe  Fe3  1  0.75924400  0.25925600  0.48148700  1
  O  O0  1  0.08423600  0.08423800  0.83150000  1
  O  O1  1  0.58423600  0.58423800  0.83149900  1
  O  O2  1  0.33424800  0.83424600  0.33150600  1
  O  O3  1  0.83424900  0.33424600  0.33150400  1
  O  O4  1  0.99711300  0.99710500  0.50577000  1
  O  O5  1  0.49711200  0.49710800  0.50577000  1
  O  O6  1  0.24711900  0.74712700  0.00577200  1
  O  O7  1  0.74712200  0.24712600  0.00577200  1
  O  O8  1  0.49710600  0.99710900  0.50576900  1
  O  O9  1  0.99710800  0.49711200  0.50577000  1
  O  O10  1  0.74712600  0.74712200  0.00577200  1
  O  O11  1  0.24712300  0.24712000  0.00577100  1
  F  F0  1  0.16138000  0.66137800  0.67727700  1
  F  F1  1  0.66138000  0.16137800  0.67727800  1
  F  F2  1  0.41136000  0.41136100  0.17727200  1
  F  F3  1  0.91136000  0.91136200  0.17727100  1
loop_
_geom_bond_atom_site_label_1
_geom_bond_atom_site_label_2
_geom_bond_distance
_geom_bond_site_symmetry_2
Fe0 O0 1.955152 1_555
Fe0 O10 1.990076 1_446
Fe0 O6 1.990087 1_546
Fe0 O7 1.990181 1_456
Fe0 O11 1.990313 1_556
Fe1 O2 1.955073 1_555
Fe1 O4 1.990079 1_455
Fe1 O5 1.990180 1_555
Fe1 O9 1.990184 1_455
Fe1 O8 1.990196 1_555
Fe2 O1 1.954748 1_555
Fe2 O7 1.990146 1_556
Fe2 O11 1.990156 1_556
Fe2 O6 1.990286 1_556
Fe2 O10 1.990412 1_556
Fe3 O3 1.954669 1_555
Fe3 O5 1.990144 1_555
Fe3 O8 1.990274 1_545
Fe3 O4 1.990284 1_545
Fe3 O9 1.990290 1_555
O0 Sr0 2.563970 1_555
O0 Sr5 2.809704 1_455
O0 Sr4 2.809718 1_545
O0 Sr4 2.809808 1_555
O0 Sr5 2.809821 1_555
O1 Sr1 2.563957 1_555
O1 Sr4 2.809704 1_555
O1 Sr5 2.809716 1_555
O1 Sr5 2.809817 1_565
O1 Sr4 2.809821 1_655
O2 Sr2 2.563957 1_555
O2 Sr7 2.809710 1_555
O2 Sr6 2.809718 1_565
O2 Sr6 2.809765 1_555
O2 Sr7 2.809769 1_455
O3 Sr3 2.563931 1_555
O3 Sr6 2.809714 1_655
O3 Sr7 2.809727 1_555
O3 Sr7 2.809764 1_545
O3 Sr6 2.809773 1_555
O4 Sr1 2.585874 1_555
O4 Sr0 2.586071 1_665
O4 Sr6 2.702448 1_665
O4 Sr7 2.702509 1_555
O5 Sr0 2.585883 1_555
O5 Sr1 2.586068 1_555
O5 Sr7 2.702443 1_555
O5 Sr6 2.702514 1_555
O6 Sr3 2.585988 1_455
O6 Sr2 2.586045 1_555
O6 Sr5 2.702335 1_564
O6 Sr4 2.702562 1_554
O7 Sr2 2.585994 1_545
O7 Sr3 2.586039 1_555
O7 Sr4 2.702336 1_654
O7 Sr5 2.702556 1_554
O8 Sr0 2.585917 1_565
O8 Sr1 2.585950 1_555
O8 Sr6 2.702410 1_565
O8 Sr7 2.702433 1_555
O9 Sr1 2.585903 1_555
O9 Sr0 2.585942 1_655
O9 Sr7 2.702416 1_555
O9 Sr6 2.702445 1_655
O10 Sr3 2.585948 1_555
O10 Sr2 2.585984 1_555
O10 Sr4 2.702392 1_654
O10 Sr5 2.702406 1_564
O11 Sr2 2.585960 1_545
O11 Sr3 2.585989 1_455
O11 Sr5 2.702377 1_554
O11 Sr4 2.702403 1_554
F0 Sr4 2.425824 1_555
F0 Fe1 2.551224 1_555
F0 Sr0 2.833433 1_565
F0 Sr1 2.833436 1_555
F0 Sr1 2.833573 1_455
F0 Sr0 2.833581 1_555
F1 Sr5 2.425824 1_555
F1 Fe3 2.551667 1_555
F1 Sr0 2.833430 1_655
F1 Sr1 2.833433 1_555
F1 Sr0 2.833584 1_555
F1 Sr1 2.833586 1_545
F2 Sr6 2.425824 1_555
F2 Fe2 2.551576 1_554
F2 Sr2 2.833414 1_545
F2 Sr3 2.833417 1_455
F2 Sr3 2.833531 1_555
F2 Sr2 2.833538 1_555
F3 Sr7 2.425837 1_555
F3 Fe0 2.551146 1_664
F3 Sr2 2.833412 1_555
F3 Sr3 2.833414 1_555
F3 Sr2 2.833531 1_655
F3 Sr3 2.833533 1_565
