# generated using pymatgen
data_LaMnO3
_symmetry_space_group_name_H-M   'P 1'
_cell_length_a   5.87143000
_cell_length_b   7.77742005
_cell_length_c   5.58599615
_cell_angle_alpha   90.10098825
_cell_angle_beta   89.99992001
_cell_angle_gamma   89.99984830
_symmetry_Int_Tables_number   1
_chemical_formula_structural   LaMnO3
_chemical_formula_sum   'La4 Mn4 O12'
_cell_volume   255.08175725
_cell_formula_units_Z   4
loop_
 _symmetry_equiv_pos_site_id
 _symmetry_equiv_pos_as_xyz
  1  'x, y, z'
loop_
 _atom_site_type_symbol
 _atom_site_label
 _atom_site_symmetry_multiplicity
 _atom_site_fract_x
 _atom_site_fract_y
 _atom_site_fract_z
 _atom_site_occupancy
  La  La0  1  0.05761200  0.25022400  0.98884600  1
  La  La1  1  0.94240700  0.74975500  0.01117600  1
  La  La2  1  0.55761900  0.24977400  0.51114800  1
  La  La3  1  0.44242100  0.75021500  0.48882600  1
  Mn  Mn0  1  0.99996300  0.99997100  0.49996500  1
  Mn  Mn1  1  0.00000700  0.50002400  0.50006700  1
  Mn  Mn2  1  0.49998000  0.50005500  0.99995800  1
  Mn  Mn3  1  0.49995600  0.99997800  0.00005100  1
  O  O0  1  0.47898600  0.24869500  0.08678100  1
  O  O1  1  0.52102100  0.75130100  0.91318700  1
  O  O2  1  0.97898500  0.25131000  0.41321700  1
  O  O3  1  0.02102200  0.74870200  0.58681300  1
  O  O4  1  0.31003700  0.04412300  0.71902000  1
  O  O5  1  0.68886000  0.54425000  0.27963600  1
  O  O6  1  0.69001000  0.95582800  0.28104100  1
  O  O7  1  0.31109700  0.45579600  0.72030800  1
  O  O8  1  0.80999600  0.45588000  0.78103500  1
  O  O9  1  0.18890200  0.95574900  0.22028900  1
  O  O10  1  0.18997500  0.54417400  0.21901900  1
  O  O11  1  0.81114400  0.04419800  0.77961700  1
loop_
_geom_bond_atom_site_label_1
_geom_bond_atom_site_label_2
_geom_bond_distance
_geom_bond_site_symmetry_2
La0 O2 2.415069 1_456
La0 O11 2.453789 1_455
La0 O8 2.454810 1_455
La0 O0 2.533863 1_556
La0 O4 2.651276 1_555
La0 O7 2.651403 1_555
La0 O10 2.733744 1_556
La0 O9 2.742510 1_546
La1 O3 2.415011 1_654
La1 O9 2.453412 1_655
La1 O10 2.454347 1_655
La1 O1 2.533997 1_554
La1 O5 2.651046 1_555
La1 O6 2.651176 1_555
La1 O8 2.733253 1_554
La1 O11 2.742564 1_564
La2 O0 2.415055 1_555
La2 O7 2.453766 1_555
La2 O4 2.454831 1_555
La2 O2 2.533811 1_555
La2 O11 2.651333 1_555
La2 O8 2.651342 1_555
La2 O6 2.733587 1_545
La2 O5 2.742621 1_555
La3 O1 2.414985 1_555
La3 O5 2.453269 1_555
La3 O6 2.454432 1_555
La3 O3 2.534067 1_555
La3 O10 2.651010 1_555
La3 O9 2.651331 1_555
La3 O4 2.733556 1_565
La3 O7 2.742308 1_555
Mn0 O11 1.945703 1_565
Mn0 O9 1.946205 1_655
Mn0 O3 2.018162 1_655
Mn0 O2 2.018525 1_565
Mn0 O6 2.218968 1_555
Mn0 O4 2.219965 1_665
Mn1 O8 1.956451 1_455
Mn1 O10 1.956674 1_555
Mn1 O3 1.996838 1_555
Mn1 O2 1.997252 1_455
Mn1 O7 2.229267 1_555
Mn1 O5 2.230125 1_455
Mn2 O7 1.945955 1_555
Mn2 O5 1.945983 1_556
Mn2 O1 2.017878 1_555
Mn2 O0 2.018791 1_556
Mn2 O8 2.219302 1_555
Mn2 O10 2.219607 1_556
Mn3 O4 1.956428 1_564
Mn3 O6 1.956703 1_555
Mn3 O1 1.997007 1_554
Mn3 O0 1.997093 1_565
Mn3 O9 2.229084 1_555
Mn3 O11 2.230322 1_564
