# generated using pymatgen
data_ZnCrP2O7
_symmetry_space_group_name_H-M   'P 1'
_cell_length_a   5.51663029
_cell_length_b   6.52370041
_cell_length_c   7.59406696
_cell_angle_alpha   80.85104610
_cell_angle_beta   87.60686794
_cell_angle_gamma   71.77137704
_symmetry_Int_Tables_number   1
_chemical_formula_structural   ZnCrP2O7
_chemical_formula_sum   'Zn2 Cr2 P4 O14'
_cell_volume   256.27462920
_cell_formula_units_Z   2
loop_
 _symmetry_equiv_pos_site_id
 _symmetry_equiv_pos_as_xyz
  1  'x, y, z'
loop_
 _atom_site_type_symbol
 _atom_site_label
 _atom_site_symmetry_multiplicity
 _atom_site_fract_x
 _atom_site_fract_y
 _atom_site_fract_z
 _atom_site_occupancy
  Zn  Zn0  1  0.32848400  0.65655900  0.64433900  1
  Zn  Zn1  1  0.67168300  0.34327600  0.35567200  1
  Cr  Cr0  1  0.71820000  0.84479600  0.82274600  1
  Cr  Cr1  1  0.28191400  0.15616200  0.17652700  1
  P  P0  1  0.18708700  0.68247800  0.09678500  1
  P  P1  1  0.81284700  0.31755200  0.90337300  1
  P  P2  1  0.21764200  0.20246000  0.61350100  1
  P  P3  1  0.78229600  0.79731700  0.38654100  1
  O  O0  1  0.09284700  0.69315900  0.90645100  1
  O  O1  1  0.90745600  0.30694300  0.09361000  1
  O  O2  1  0.30499600  0.85794200  0.11523100  1
  O  O3  1  0.69444800  0.14230900  0.88503400  1
  O  O4  1  0.36149300  0.45082000  0.17096500  1
  O  O5  1  0.63881600  0.54914400  0.82896100  1
  O  O6  1  0.61220000  0.64892800  0.43285100  1
  O  O7  1  0.38752600  0.35101400  0.56712500  1
  O  O8  1  0.03307300  0.21973900  0.46432700  1
  O  O9  1  0.96669600  0.78001200  0.53588400  1
  O  O10  1  0.07181200  0.28503000  0.78875200  1
  O  O11  1  0.92820900  0.71455600  0.21139000  1
  O  O12  1  0.62188800  0.03774500  0.32425200  1
  O  O13  1  0.37839200  0.96205600  0.67568000  1
loop_
_geom_bond_atom_site_label_1
_geom_bond_atom_site_label_2
_geom_bond_distance
_geom_bond_site_symmetry_2
Cr0 O3 2.033623 1_565
Cr0 O0 2.070003 1_655
Cr0 O13 2.086290 1_555
Cr0 O5 2.100436 1_555
Cr0 O9 2.546456 1_555
Cr1 O2 2.036149 1_545
Cr1 O1 2.066831 1_455
Cr1 O12 2.089621 1_555
Cr1 O4 2.095276 1_555
Cr1 O8 2.552397 1_555
O0 P0 1.540263 1_556
O0 Zn0 2.334471 1_555
O1 P1 1.540405 1_554
O1 Zn1 2.334407 1_555
O2 P0 1.509111 1_555
O3 P1 1.509433 1_555
O4 P0 1.546553 1_555
O4 Zn1 2.127054 1_555
O5 P1 1.545971 1_555
O5 Zn0 2.127234 1_555
O6 P3 1.540707 1_555
O6 Zn1 2.091265 1_555
O6 Zn0 2.190515 1_555
O7 P2 1.540671 1_555
O7 Zn0 2.091089 1_555
O7 Zn1 2.191915 1_555
O8 P2 1.522061 1_555
O8 Zn1 2.055657 1_455
O9 P3 1.522364 1_555
O9 Zn0 2.056965 1_655
O10 P2 1.604998 1_555
O10 P1 1.615200 1_455
O11 P3 1.604897 1_555
O11 P0 1.614917 1_655
O12 P3 1.548430 1_545
O12 Zn1 2.145802 1_555
O13 P2 1.548672 1_565
O13 Zn0 2.145689 1_555
