# generated using pymatgen
data_Pr(IO3)3
_symmetry_space_group_name_H-M   'P 1'
_cell_length_a   6.96806500
_cell_length_b   6.65504700
_cell_length_c   8.27471200
_cell_angle_alpha   90.00000000
_cell_angle_beta   90.00000000
_cell_angle_gamma   90.00000000
_symmetry_Int_Tables_number   1
_chemical_formula_structural   Pr(IO3)3
_chemical_formula_sum   'Pr2 I6 O18'
_cell_volume   383.72156525
_cell_formula_units_Z   2
loop_
 _symmetry_equiv_pos_site_id
 _symmetry_equiv_pos_as_xyz
  1  'x, y, z'
loop_
 _atom_site_type_symbol
 _atom_site_label
 _atom_site_symmetry_multiplicity
 _atom_site_fract_x
 _atom_site_fract_y
 _atom_site_fract_z
 _atom_site_occupancy
  Pr  Pr0  1  0.75000000  0.61483500  0.75000000  1
  Pr  Pr1  1  0.25000000  0.38516500  0.25000000  1
  I  I0  1  0.25000000  0.85971100  0.54458500  1
  I  I1  1  0.25000000  0.85971100  0.95541500  1
  I  I2  1  0.75000000  0.14028900  0.45541500  1
  I  I3  1  0.75000000  0.14028900  0.04458500  1
  I  I4  1  0.25000000  0.39583800  0.75000000  1
  I  I5  1  0.75000000  0.60416200  0.25000000  1
  O  O0  1  0.75000000  0.86888100  0.51488600  1
  O  O1  1  0.75000000  0.86888100  0.98511400  1
  O  O2  1  0.25000000  0.13111900  0.48511400  1
  O  O3  1  0.25000000  0.13111900  0.01488600  1
  O  O4  1  0.42772400  0.90477300  0.75000000  1
  O  O5  1  0.07227600  0.90477300  0.75000000  1
  O  O6  1  0.57227600  0.09522700  0.25000000  1
  O  O7  1  0.92772400  0.09522700  0.25000000  1
  O  O8  1  0.07102700  0.52948500  0.89272800  1
  O  O9  1  0.07102700  0.52948500  0.60727200  1
  O  O10  1  0.42897300  0.52948500  0.89272800  1
  O  O11  1  0.42897300  0.52948500  0.60727200  1
  O  O12  1  0.92897300  0.47051500  0.10727200  1
  O  O13  1  0.92897300  0.47051500  0.39272800  1
  O  O14  1  0.57102700  0.47051500  0.10727200  1
  O  O15  1  0.57102700  0.47051500  0.39272800  1
  O  O16  1  0.75000000  0.26045500  0.75000000  1
  O  O17  1  0.25000000  0.73954500  0.25000000  1
loop_
_geom_bond_atom_site_label_1
_geom_bond_atom_site_label_2
_geom_bond_distance
_geom_bond_site_symmetry_2
I0 O2 1.872070 1_565
I0 O4 2.124312 1_555
I0 O5 2.124312 1_555
I0 O17 2.565436 1_555
I0 O11 2.579548 1_555
I0 O9 2.579548 1_555
I1 O3 1.872070 1_566
I1 O4 2.124312 1_555
I1 O5 2.124312 1_555
I1 O17 2.565436 1_556
I1 O10 2.579548 1_555
I1 O8 2.579548 1_555
I2 O0 1.872070 1_545
I2 O6 2.124312 1_555
I2 O7 2.124312 1_555
I2 O16 2.565436 1_555
I2 O13 2.579548 1_555
I2 O15 2.579548 1_555
I3 O1 1.872070 1_544
I3 O6 2.124312 1_555
I3 O7 2.124312 1_555
I3 O16 2.565436 1_554
I3 O12 2.579548 1_555
I3 O14 2.579548 1_555
I4 O10 1.934210 1_555
I4 O8 1.934210 1_555
I4 O11 1.934210 1_555
I4 O9 1.934210 1_555
I5 O13 1.934210 1_555
I5 O15 1.934210 1_555
I5 O12 1.934210 1_555
I5 O14 1.934210 1_555
O0 Pr0 2.577479 1_555
O1 Pr0 2.577479 1_555
O2 Pr1 2.577479 1_555
O3 Pr1 2.577479 1_555
O4 Pr0 2.960754 1_555
O5 Pr0 2.960754 1_455
O6 Pr1 2.960754 1_555
O7 Pr1 2.960754 1_655
O8 Pr0 2.592559 1_455
O9 Pr0 2.592559 1_455
O10 Pr0 2.592559 1_555
O11 Pr0 2.592559 1_555
O12 Pr1 2.592559 1_655
O13 Pr1 2.592559 1_655
O14 Pr1 2.592559 1_555
O15 Pr1 2.592559 1_555
O16 Pr0 2.358416 1_555
O17 Pr1 2.358416 1_555
