# generated using pymatgen
data_Y2VFeO6
_symmetry_space_group_name_H-M   'P 1'
_cell_length_a   5.35288785
_cell_length_b   5.65183547
_cell_length_c   7.73417295
_cell_angle_alpha   90.00567675
_cell_angle_beta   89.91785045
_cell_angle_gamma   90.04667391
_symmetry_Int_Tables_number   1
_chemical_formula_structural   Y2VFeO6
_chemical_formula_sum   'Y4 V2 Fe2 O12'
_cell_volume   233.98657616
_cell_formula_units_Z   2
loop_
 _symmetry_equiv_pos_site_id
 _symmetry_equiv_pos_as_xyz
  1  'x, y, z'
loop_
 _atom_site_type_symbol
 _atom_site_label
 _atom_site_symmetry_multiplicity
 _atom_site_fract_x
 _atom_site_fract_y
 _atom_site_fract_z
 _atom_site_occupancy
  Y  Y0  1  0.48033000  0.56880200  0.25018600  1
  Y  Y1  1  0.01975800  0.06931200  0.25010800  1
  Y  Y2  1  0.51966900  0.43119600  0.74981500  1
  Y  Y3  1  0.98024200  0.93068800  0.74989200  1
  V  V0  1  0.50000100  0.00000300  0.00000100  1
  V  V1  1  0.99999700  0.50000200  0.49999900  1
  Fe  Fe0  1  0.00000500  0.49999700  0.99999700  1
  Fe  Fe1  1  0.49999700  0.99999600  0.50000600  1
  O  O0  1  0.69077400  0.69741900  0.94167900  1
  O  O1  1  0.80894700  0.19664200  0.55845000  1
  O  O2  1  0.30922800  0.30258300  0.05832100  1
  O  O3  1  0.19105300  0.80336000  0.44154700  1
  O  O4  1  0.31194600  0.30245300  0.44038100  1
  O  O5  1  0.18924800  0.80313400  0.05938900  1
  O  O6  1  0.68805200  0.69754600  0.55962000  1
  O  O7  1  0.81075100  0.19686800  0.94061000  1
  O  O8  1  0.88411200  0.45797000  0.24934000  1
  O  O9  1  0.61557700  0.95830200  0.25041700  1
  O  O10  1  0.11589000  0.54202900  0.75066000  1
  O  O11  1  0.38442200  0.04169800  0.74958000  1
loop_
_geom_bond_atom_site_label_1
_geom_bond_atom_site_label_2
_geom_bond_distance
_geom_bond_site_symmetry_2
Fe0 O10 2.038734 1_555
Fe0 O8 2.038788 1_456
Fe0 O7 2.042247 1_455
Fe0 O5 2.042264 1_556
Fe0 O2 2.047788 1_556
Fe0 O0 2.047838 1_455
Fe1 O6 2.037702 1_555
Fe1 O4 2.037744 1_565
Fe1 O11 2.039822 1_565
Fe1 O9 2.039935 1_555
Fe1 O3 2.042901 1_555
Fe1 O1 2.042932 1_565
O0 V0 2.042618 1_566
O0 Y2 2.303486 1_555
O0 Y3 2.515905 1_555
O0 Y0 2.735306 1_556
O1 V1 2.045933 1_555
O1 Y3 2.301963 1_545
O1 Y2 2.518348 1_555
O1 Y1 2.733438 1_655
O2 V0 2.042596 1_555
O2 Y0 2.303470 1_555
O2 Y1 2.515918 1_555
O2 Y2 2.735287 1_554
O3 V1 2.045941 1_455
O3 Y1 2.301941 1_565
O3 Y0 2.518338 1_555
O3 Y3 2.733455 1_455
O4 V1 2.061132 1_455
O4 Y0 2.288405 1_555
O4 Y1 2.520118 1_555
O4 Y2 2.738478 1_555
O5 V0 2.052045 1_565
O5 Y1 2.293481 1_565
O5 Y0 2.523831 1_555
O5 Y3 2.740538 1_454
O6 V1 2.061105 1_555
O6 Y2 2.288406 1_555
O6 Y3 2.520123 1_555
O6 Y0 2.738478 1_555
O7 V0 2.052025 1_556
O7 Y3 2.293485 1_545
O7 Y2 2.523810 1_555
O7 Y1 2.740550 1_656
O8 V1 2.050042 1_555
O8 Y0 2.250831 1_555
O8 Y1 2.314099 1_655
O9 V0 2.047706 1_565
O9 Y1 2.252179 1_665
O9 Y0 2.316819 1_555
O10 V1 2.050066 1_455
O10 Y2 2.250817 1_555
O10 Y3 2.314108 1_455
O11 V0 2.047744 1_556
O11 Y3 2.252174 1_445
O11 Y2 2.316808 1_555
