# generated using pymatgen
data_SrMnP2O7
_symmetry_space_group_name_H-M   'P 1'
_cell_length_a   8.52476800
_cell_length_b   5.45037200
_cell_length_c   14.00350789
_cell_angle_alpha   67.20841735
_cell_angle_beta   90.00000000
_cell_angle_gamma   90.00000000
_symmetry_Int_Tables_number   1
_chemical_formula_structural   SrMnP2O7
_chemical_formula_sum   'Sr4 Mn4 P8 O28'
_cell_volume   599.84469773
_cell_formula_units_Z   4
loop_
 _symmetry_equiv_pos_site_id
 _symmetry_equiv_pos_as_xyz
  1  'x, y, z'
loop_
 _atom_site_type_symbol
 _atom_site_label
 _atom_site_symmetry_multiplicity
 _atom_site_fract_x
 _atom_site_fract_y
 _atom_site_fract_z
 _atom_site_occupancy
  Sr  Sr0  1  0.32989900  0.43661400  0.77600800  1
  Sr  Sr1  1  0.67010100  0.56338600  0.22399200  1
  Sr  Sr2  1  0.82989900  0.56338600  0.72399200  1
  Sr  Sr3  1  0.17010100  0.43661400  0.27600800  1
  Mn  Mn0  1  0.64567400  0.92659400  0.89600200  1
  Mn  Mn1  1  0.35432600  0.07340600  0.10399800  1
  Mn  Mn2  1  0.14567400  0.07340600  0.60399800  1
  Mn  Mn3  1  0.85432600  0.92659400  0.39600200  1
  P  P0  1  0.29611800  0.70490500  0.97982300  1
  P  P1  1  0.70388200  0.29509500  0.02017700  1
  P  P2  1  0.79611800  0.29509500  0.52017700  1
  P  P3  1  0.20388200  0.70490500  0.47982300  1
  P  P4  1  0.03346200  0.90913200  0.83813500  1
  P  P5  1  0.96653800  0.09086800  0.16186500  1
  P  P6  1  0.53346200  0.09086800  0.66186500  1
  P  P7  1  0.46653800  0.90913200  0.33813500  1
  O  O0  1  0.11795600  0.78985000  0.76824500  1
  O  O1  1  0.88204400  0.21015000  0.23175500  1
  O  O2  1  0.61795600  0.21015000  0.73175500  1
  O  O3  1  0.38204400  0.78985000  0.26824500  1
  O  O4  1  0.36231600  0.18204400  0.64906600  1
  O  O5  1  0.63768400  0.81795600  0.35093400  1
  O  O6  1  0.86231600  0.81795600  0.85093400  1
  O  O7  1  0.13768400  0.18204400  0.14906600  1
  O  O8  1  0.33269300  0.44171200  0.96835700  1
  O  O9  1  0.66730700  0.55828800  0.03164300  1
  O  O10  1  0.83269300  0.55828800  0.53164300  1
  O  O11  1  0.16730700  0.44171200  0.46835700  1
  O  O12  1  0.18590700  0.69514700  0.59052300  1
  O  O13  1  0.81409300  0.30485300  0.40947700  1
  O  O14  1  0.68590700  0.30485300  0.90947700  1
  O  O15  1  0.31409300  0.69514700  0.09052300  1
  O  O16  1  0.11178900  0.77508100  0.95278500  1
  O  O17  1  0.88821100  0.22491900  0.04721500  1
  O  O18  1  0.61178900  0.22491900  0.54721500  1
  O  O19  1  0.38821100  0.77508100  0.45278500  1
  O  O20  1  0.05312000  0.21044100  0.79963800  1
  O  O21  1  0.94688000  0.78955900  0.20036200  1
  O  O22  1  0.55312000  0.78955900  0.70036200  1
  O  O23  1  0.44688000  0.21044100  0.29963800  1
  O  O24  1  0.39125400  0.93788400  0.90205600  1
  O  O25  1  0.60874600  0.06211600  0.09794400  1
  O  O26  1  0.89125400  0.06211600  0.59794400  1
  O  O27  1  0.10874600  0.93788400  0.40205600  1
loop_
_geom_bond_atom_site_label_1
_geom_bond_atom_site_label_2
_geom_bond_distance
_geom_bond_site_symmetry_2
Mn0 O6 2.109308 1_555
Mn0 O14 2.169114 1_565
Mn0 O9 2.171971 1_556
Mn0 O24 2.172330 1_555
Mn0 O2 2.231703 1_565
Mn1 O7 2.109308 1_555
Mn1 O15 2.169114 1_545
Mn1 O8 2.171971 1_554
Mn1 O25 2.172330 1_555
Mn1 O3 2.231703 1_545
Mn2 O4 2.109308 1_555
Mn2 O12 2.169114 1_545
Mn2 O11 2.171971 1_555
Mn2 O26 2.172330 1_455
Mn2 O0 2.231703 1_545
Mn3 O5 2.109308 1_555
Mn3 O13 2.169114 1_565
Mn3 O10 2.171971 1_555
Mn3 O27 2.172330 1_655
Mn3 O1 2.231703 1_565
O0 P4 1.546714 1_555
O0 Sr0 2.611651 1_555
O0 Sr2 2.920656 1_455
O1 P5 1.546714 1_555
O1 Sr1 2.611651 1_555
O1 Sr3 2.920656 1_655
O2 P6 1.546714 1_555
O2 Sr2 2.611651 1_555
O2 Sr0 2.920656 1_555
O3 P7 1.546714 1_555
O3 Sr3 2.611651 1_555
O3 Sr1 2.920656 1_555
O4 P6 1.529278 1_555
O4 Sr0 2.659404 1_555
O5 P7 1.529278 1_555
O5 Sr1 2.659404 1_555
O6 P4 1.529278 1_655
O6 Sr2 2.659404 1_555
O7 P5 1.529278 1_455
O7 Sr3 2.659404 1_555
O8 P0 1.535980 1_555
O8 Sr0 2.704551 1_555
O9 P1 1.535980 1_555
O9 Sr1 2.704551 1_555
O10 P2 1.535980 1_555
O10 Sr2 2.704551 1_555
O11 P3 1.535980 1_555
O11 Sr3 2.704551 1_555
O12 P3 1.538024 1_555
O12 Sr0 2.720910 1_555
O13 P2 1.538024 1_555
O13 Sr1 2.720910 1_555
O14 P1 1.538024 1_556
O14 Sr2 2.720910 1_555
O15 P0 1.538024 1_554
O15 Sr3 2.720910 1_555
O16 P0 1.626847 1_555
O16 P4 1.627418 1_555
O17 P1 1.626847 1_555
O17 P5 1.627418 1_555
O18 P2 1.626847 1_555
O18 P6 1.627418 1_555
O19 P3 1.626847 1_555
O19 P7 1.627418 1_555
O20 P4 1.526356 1_545
O20 Sr2 2.620106 1_455
O20 Sr0 2.623015 1_555
O21 P5 1.526356 1_565
O21 Sr3 2.620106 1_655
O21 Sr1 2.623015 1_555
O22 P6 1.526356 1_565
O22 Sr0 2.620106 1_555
O22 Sr2 2.623015 1_555
O23 P7 1.526356 1_545
O23 Sr1 2.620106 1_555
O23 Sr3 2.623015 1_555
O24 P0 1.544266 1_555
O24 Sr0 2.657220 1_565
O25 P1 1.544266 1_555
O25 Sr1 2.657220 1_545
O26 P2 1.544266 1_555
O26 Sr2 2.657220 1_545
O27 P3 1.544266 1_555
O27 Sr3 2.657220 1_565
