# generated using pymatgen
data_LaMgCu
_symmetry_space_group_name_H-M   'P 1'
_cell_length_a   7.83663112
_cell_length_b   7.83663112
_cell_length_c   4.02466964
_cell_angle_alpha   90.00000000
_cell_angle_beta   90.00000000
_cell_angle_gamma   119.99998696
_symmetry_Int_Tables_number   1
_chemical_formula_structural   LaMgCu
_chemical_formula_sum   'La3 Mg3 Cu3'
_cell_volume   214.05221923
_cell_formula_units_Z   3
loop_
 _symmetry_equiv_pos_site_id
 _symmetry_equiv_pos_as_xyz
  1  'x, y, z'
loop_
 _atom_site_type_symbol
 _atom_site_label
 _atom_site_symmetry_multiplicity
 _atom_site_fract_x
 _atom_site_fract_y
 _atom_site_fract_z
 _atom_site_occupancy
  La  La0  1  0.57840934  -0.00000000  -0.00000000  1
  La  La1  1  -0.00000000  0.57840934  0.00000000  1
  La  La2  1  0.42159066  0.42159066  -0.00000000  1
  Mg  Mg0  1  0.23269245  -0.00000000  0.50000000  1
  Mg  Mg1  1  -0.00000000  0.23269245  0.50000000  1
  Mg  Mg2  1  0.76730755  0.76730755  0.50000000  1
  Cu  Cu0  1  0.33333300  0.66666700  0.50000000  1
  Cu  Cu1  1  0.66666700  0.33333300  0.50000000  1
  Cu  Cu2  1  -0.00000000  -0.00000000  -0.00000000  1
loop_
_geom_bond_atom_site_label_1
_geom_bond_atom_site_label_2
_geom_bond_distance
_geom_bond_site_symmetry_2
La0 Mg0 3.374842 1_555
La0 Mg0 3.374842 1_554
La0 Mg2 3.502215 1_545
La0 Mg2 3.502215 1_544
La0 Mg1 3.502215 1_655
La0 Mg1 3.502215 1_654
La1 Mg1 3.374842 1_555
La1 Mg1 3.374842 1_554
La1 Mg2 3.502215 1_455
La1 Mg2 3.502215 1_454
La1 Mg0 3.502215 1_564
La1 Mg0 3.502215 1_565
La2 Mg2 3.374842 1_555
La2 Mg2 3.374842 1_554
La2 Mg1 3.502215 1_555
La2 Mg1 3.502215 1_554
La2 Mg0 3.502215 1_554
La2 Mg0 3.502215 1_555
Cu0 Mg0 3.083156 1_565
Cu0 Mg1 3.083162 1_555
Cu0 Mg2 3.083164 1_555
Cu0 La1 3.089462 1_556
Cu0 La1 3.089462 1_555
Cu0 La0 3.089464 1_566
Cu0 La0 3.089464 1_565
Cu0 La2 3.089468 1_555
Cu0 La2 3.089468 1_556
Cu1 Mg1 3.083156 1_655
Cu1 Mg0 3.083162 1_555
Cu1 Mg2 3.083164 1_555
Cu1 La0 3.089462 1_555
Cu1 La0 3.089462 1_556
Cu1 La1 3.089464 1_655
Cu1 La1 3.089464 1_656
Cu1 La2 3.089468 1_555
Cu1 La2 3.089468 1_556
Cu2 Mg1 2.715646 1_555
Cu2 Mg0 2.715646 1_554
Cu2 Mg1 2.715646 1_554
Cu2 Mg0 2.715646 1_555
Cu2 Mg2 2.715646 1_445
Cu2 Mg2 2.715646 1_444
Cu2 La0 3.303850 1_455
Cu2 La1 3.303850 1_545
Cu2 La2 3.303851 1_555
