# generated using pymatgen
data_ZrCrCuS4
_symmetry_space_group_name_H-M   'P 1'
_cell_length_a   11.41140000
_cell_length_b   3.56445600
_cell_length_c   12.72961800
_cell_angle_alpha   90.00000000
_cell_angle_beta   90.00000000
_cell_angle_gamma   90.00000000
_symmetry_Int_Tables_number   1
_chemical_formula_structural   ZrCrCuS4
_chemical_formula_sum   'Zr4 Cr4 Cu4 S16'
_cell_volume   517.78272660
_cell_formula_units_Z   4
loop_
 _symmetry_equiv_pos_site_id
 _symmetry_equiv_pos_as_xyz
  1  'x, y, z'
loop_
 _atom_site_type_symbol
 _atom_site_label
 _atom_site_symmetry_multiplicity
 _atom_site_fract_x
 _atom_site_fract_y
 _atom_site_fract_z
 _atom_site_occupancy
  Zr  Zr0  1  0.93811400  0.75000000  0.88843300  1
  Zr  Zr1  1  0.56188600  0.25000000  0.38843300  1
  Zr  Zr2  1  0.10792500  0.25000000  0.57634400  1
  Zr  Zr3  1  0.39207500  0.75000000  0.07634400  1
  Cr  Cr0  1  0.04049500  0.25000000  0.11835200  1
  Cr  Cr1  1  0.45950500  0.75000000  0.61835200  1
  Cr  Cr2  1  0.92739500  0.75000000  0.40704300  1
  Cr  Cr3  1  0.57260500  0.25000000  0.90704300  1
  Cu  Cu0  1  0.26617600  0.25000000  0.35957800  1
  Cu  Cu1  1  0.71194300  0.75000000  0.68815100  1
  Cu  Cu2  1  0.23382400  0.75000000  0.85957800  1
  Cu  Cu3  1  0.78805700  0.25000000  0.18815100  1
  S  S0  1  0.08488200  0.75000000  0.71898300  1
  S  S1  1  0.95325200  0.25000000  0.28880000  1
  S  S2  1  0.41511800  0.25000000  0.21898300  1
  S  S3  1  0.54674800  0.75000000  0.78880000  1
  S  S4  1  0.09025000  0.25000000  0.93761300  1
  S  S5  1  0.89011600  0.75000000  0.07897500  1
  S  S6  1  0.40975000  0.75000000  0.43761300  1
  S  S7  1  0.60988400  0.25000000  0.57897500  1
  S  S8  1  0.13637100  0.75000000  0.42924200  1
  S  S9  1  0.89376400  0.25000000  0.53288800  1
  S  S10  1  0.36362900  0.25000000  0.92924200  1
  S  S11  1  0.60623600  0.75000000  0.03288800  1
  S  S12  1  0.17255700  0.75000000  0.14960400  1
  S  S13  1  0.79232900  0.25000000  0.82599400  1
  S  S14  1  0.32744300  0.25000000  0.64960400  1
  S  S15  1  0.70767100  0.75000000  0.32599400  1
loop_
_geom_bond_atom_site_label_1
_geom_bond_atom_site_label_2
_geom_bond_distance
_geom_bond_site_symmetry_2
Cr0 S12 2.367633 1_555
Cr0 S12 2.367633 1_545
Cr0 S4 2.369761 1_554
Cr0 S1 2.387239 1_455
Cr0 S5 2.524355 1_445
Cr0 S5 2.524355 1_455
Cr1 S14 2.367633 1_555
Cr1 S14 2.367633 1_565
Cr1 S6 2.369761 1_555
Cr1 S3 2.387239 1_555
Cr1 S7 2.524355 1_555
Cr1 S7 2.524355 1_565
Cr2 S1 2.351381 1_565
Cr2 S1 2.351381 1_555
Cr2 S8 2.401393 1_655
Cr2 S9 2.426910 1_555
Cr2 S9 2.426910 1_565
Cr2 S15 2.711328 1_555
Cr3 S3 2.351381 1_545
Cr3 S3 2.351381 1_555
Cr3 S10 2.401393 1_555
Cr3 S11 2.426910 1_556
Cr3 S11 2.426910 1_546
Cr3 S13 2.711328 1_555
Cu0 S2 2.468170 1_555
Cu0 S8 2.481303 1_555
Cu0 S8 2.481303 1_545
Cu0 S6 2.616750 1_545
Cu0 S6 2.616750 1_555
Cu1 S3 2.279289 1_555
Cu1 S7 2.542473 1_565
Cu1 S7 2.542473 1_555
Cu1 S13 2.663971 1_555
Cu1 S13 2.663971 1_565
Cu2 S0 2.468170 1_555
Cu2 S10 2.481303 1_565
Cu2 S10 2.481303 1_555
Cu2 S4 2.616750 1_555
Cu2 S4 2.616750 1_565
Cu3 S1 2.279289 1_555
Cu3 S5 2.542473 1_545
Cu3 S5 2.542473 1_555
Cu3 S15 2.663971 1_555
Cu3 S15 2.663971 1_545
S0 Zr2 2.557810 1_565
S0 Zr2 2.557810 1_555
S0 Zr0 2.730905 1_455
S2 Zr3 2.557810 1_545
S2 Zr3 2.557810 1_555
S2 Zr1 2.730905 1_555
S4 Zr0 2.565591 1_455
S4 Zr0 2.565591 1_445
S5 Zr0 2.486601 1_554
S6 Zr1 2.565591 1_565
S6 Zr1 2.565591 1_555
S7 Zr1 2.486601 1_555
S8 Zr2 2.605410 1_565
S8 Zr2 2.605410 1_555
S9 Zr2 2.505702 1_655
S10 Zr3 2.605410 1_556
S10 Zr3 2.605410 1_546
S11 Zr3 2.505702 1_555
S12 Zr3 2.672967 1_555
S13 Zr0 2.564310 1_545
S13 Zr0 2.564310 1_555
S14 Zr2 2.672967 1_555
S15 Zr1 2.564310 1_565
S15 Zr1 2.564310 1_555
