# generated using pymatgen
data_NdAsO2
_symmetry_space_group_name_H-M   'P 1'
_cell_length_a   7.60696415
_cell_length_b   7.60696415
_cell_length_c   7.60696415
_cell_angle_alpha   128.49397060
_cell_angle_beta   128.49397060
_cell_angle_gamma   75.82617055
_symmetry_Int_Tables_number   1
_chemical_formula_structural   NdAsO2
_chemical_formula_sum   'Nd4 As4 O8'
_cell_volume   262.24367240
_cell_formula_units_Z   4
loop_
 _symmetry_equiv_pos_site_id
 _symmetry_equiv_pos_as_xyz
  1  'x, y, z'
loop_
 _atom_site_type_symbol
 _atom_site_label
 _atom_site_symmetry_multiplicity
 _atom_site_fract_x
 _atom_site_fract_y
 _atom_site_fract_z
 _atom_site_occupancy
  Nd  Nd0  1  0.87500000  0.62500000  0.25000000  1
  Nd  Nd1  1  0.37500000  0.62500000  0.75000000  1
  Nd  Nd2  1  0.37500000  0.62500000  0.25000000  1
  Nd  Nd3  1  0.37500000  0.12500000  0.75000000  1
  As  As0  1  0.37500000  0.12500000  0.25000000  1
  As  As1  1  0.87500000  0.12500000  0.75000000  1
  As  As2  1  0.87500000  0.12500000  0.25000000  1
  As  As3  1  0.87500000  0.62500000  0.75000000  1
  O  O0  1  0.17187800  0.41620400  0.24432700  1
  O  O1  1  0.17187800  0.92755100  0.75567300  1
  O  O2  1  0.16620400  0.42187800  0.74432700  1
  O  O3  1  0.57812200  0.83379600  0.25567300  1
  O  O4  1  0.67755100  0.42187800  0.25567300  1
  O  O5  1  0.57812200  0.32244900  0.74432700  1
  O  O6  1  0.58379600  0.82812200  0.75567300  1
  O  O7  1  0.07244900  0.82812200  0.24432700  1
loop_
_geom_bond_atom_site_label_1
_geom_bond_atom_site_label_2
_geom_bond_distance
_geom_bond_site_symmetry_2
Nd0 O1 2.429820 1_655
Nd0 O5 2.429820 1_554
Nd0 O3 2.429824 1_555
Nd0 O0 2.429824 1_655
Nd0 O4 2.438348 1_555
Nd0 O7 2.438348 1_655
Nd1 O3 2.429819 1_556
Nd1 O0 2.429819 1_555
Nd1 O1 2.429820 1_555
Nd1 O5 2.429820 1_555
Nd1 O2 2.438354 1_555
Nd1 O6 2.438354 1_555
Nd2 O2 2.429819 1_554
Nd2 O6 2.429819 1_555
Nd2 O7 2.429820 1_555
Nd2 O4 2.429820 1_555
Nd2 O0 2.438354 1_555
Nd2 O3 2.438354 1_555
Nd3 O4 2.429820 1_556
Nd3 O7 2.429820 1_545
Nd3 O6 2.429824 1_545
Nd3 O2 2.429824 1_555
Nd3 O1 2.438348 1_545
Nd3 O5 2.438348 1_555
As0 O3 2.378257 1_545
As0 O0 2.378257 1_555
As0 O5 2.378263 1_555
As0 O1 2.378263 1_544
As1 O0 2.378262 1_656
As1 O3 2.378262 1_545
As1 O1 2.378263 1_645
As1 O5 2.378263 1_555
As2 O6 2.378262 1_544
As2 O2 2.378262 1_655
As2 O4 2.378263 1_555
As2 O7 2.378263 1_645
As3 O2 2.378257 1_655
As3 O6 2.378257 1_555
As3 O7 2.378263 1_656
As3 O4 2.378263 1_555
