# generated using pymatgen
data_Li6MnV3(PO4)6
_symmetry_space_group_name_H-M   'P 1'
_cell_length_a   8.64378500
_cell_length_b   8.64378500
_cell_length_c   12.70958752
_cell_angle_alpha   74.00261231
_cell_angle_beta   74.00261231
_cell_angle_gamma   94.70648134
_symmetry_Int_Tables_number   1
_chemical_formula_structural   Li6MnV3(PO4)6
_chemical_formula_sum   'Li12 Mn2 V6 P12 O48'
_cell_volume   864.55070866
_cell_formula_units_Z   2
loop_
 _symmetry_equiv_pos_site_id
 _symmetry_equiv_pos_as_xyz
  1  'x, y, z'
loop_
 _atom_site_type_symbol
 _atom_site_label
 _atom_site_symmetry_multiplicity
 _atom_site_fract_x
 _atom_site_fract_y
 _atom_site_fract_z
 _atom_site_occupancy
  Li  Li0  1  0.00125200  0.99874800  0.50000000  1
  Li  Li1  1  0.99582900  0.00417100  0.00000000  1
  Li  Li2  1  0.71261300  0.29050500  0.24870100  1
  Li  Li3  1  0.49989900  0.50038800  0.37308700  1
  Li  Li4  1  0.70949500  0.28738700  0.75129900  1
  Li  Li5  1  0.49917000  0.49907900  0.12455800  1
  Li  Li6  1  0.28696500  0.71303500  0.50000000  1
  Li  Li7  1  0.50092100  0.50083000  0.87544200  1
  Li  Li8  1  0.49961200  0.50010100  0.62691300  1
  Li  Li9  1  0.28798600  0.71201400  0.00000000  1
  Li  Li10  1  0.00720900  0.00040300  0.24992800  1
  Li  Li11  1  0.99959700  0.99279100  0.75007200  1
  Mn  Mn0  1  0.62576300  0.94312100  0.69046700  1
  Mn  Mn1  1  0.05687900  0.37423700  0.30953300  1
  V  V0  1  0.94250500  0.62194800  0.44522400  1
  V  V1  1  0.94366100  0.62085300  0.94596200  1
  V  V2  1  0.61970900  0.94229300  0.19425200  1
  V  V3  1  0.37805200  0.05749500  0.55477600  1
  V  V4  1  0.37914700  0.05633900  0.05403800  1
  V  V5  1  0.05770700  0.38029100  0.80574800  1
  P  P0  1  0.71299600  0.28700400  0.50000000  1
  P  P1  1  0.86120200  0.66574300  0.19292600  1
  P  P2  1  0.66195900  0.86275000  0.44420700  1
  P  P3  1  0.71243300  0.28756700  0.00000000  1
  P  P4  1  0.86927700  0.66217200  0.69256500  1
  P  P5  1  0.66080600  0.86230700  0.94108500  1
  P  P6  1  0.33782800  0.13072300  0.30743500  1
  P  P7  1  0.13725000  0.33804100  0.55579300  1
  P  P8  1  0.28438500  0.71114000  0.25003900  1
  P  P9  1  0.33425700  0.13879800  0.80707400  1
  P  P10  1  0.13769300  0.33919400  0.05891500  1
  P  P11  1  0.28886000  0.71561500  0.74996100  1
  O  O0  1  0.99293000  0.65622300  0.57895900  1
  O  O1  1  0.94454500  0.61437900  0.28909900  1
  O  O2  1  0.73661700  0.17097500  0.61042500  1
  O  O3  1  0.98792000  0.66123800  0.08008100  1
  O  O4  1  0.82902500  0.26338300  0.38957500  1
  O  O5  1  0.84421500  0.84372300  0.43191000  1
  O  O6  1  0.73619000  0.46052000  0.51204500  1
  O  O7  1  0.84038600  0.84952200  0.17297700  1
  O  O8  1  0.95336400  0.59851900  0.78865700  1
  O  O9  1  0.73840500  0.17305200  0.10904900  1
  O  O10  1  0.82694800  0.26159500  0.89095100  1
  O  O11  1  0.84367800  0.84282800  0.92710300  1
  O  O12  1  0.70368600  0.54551500  0.22667300  1
  O  O13  1  0.60000400  0.95157600  0.53877400  1
  O  O14  1  0.66235500  0.98693200  0.32942400  1
  O  O15  1  0.53948000  0.26381000  0.48795500  1
  O  O16  1  0.73595800  0.46327200  0.00921000  1
  O  O17  1  0.54464500  0.70384100  0.47832600  1
  O  O18  1  0.85826700  0.84621400  0.67636300  1
  O  O19  1  0.70740300  0.54874900  0.72627000  1
  O  O20  1  0.60131800  0.95162000  0.03465800  1
  O  O21  1  0.45125100  0.29259700  0.27373000  1
  O  O22  1  0.66259000  0.98643000  0.82474500  1
  O  O23  1  0.53672800  0.26404200  0.99079000  1
  O  O24  1  0.46168200  0.73302200  0.25694800  1
  O  O25  1  0.34377700  0.00707000  0.42104100  1
  O  O26  1  0.54303100  0.70356500  0.97600400  1
  O  O27  1  0.40148100  0.04663600  0.21134300  1
  O  O28  1  0.29615900  0.45535500  0.52167400  1
  O  O29  1  0.15627700  0.15578500  0.56809000  1
  O  O30  1  0.45448500  0.29631400  0.77332700  1
  O  O31  1  0.25787400  0.53517700  0.24079100  1
  O  O32  1  0.46482300  0.74212600  0.75920900  1
  O  O33  1  0.33876200  0.01208000  0.91991900  1
  O  O34  1  0.38562100  0.05545500  0.71090100  1
  O  O35  1  0.29643500  0.45696900  0.02399600  1
  O  O36  1  0.15378600  0.14173300  0.32363700  1
  O  O37  1  0.17372400  0.73934900  0.35932100  1
  O  O38  1  0.25899100  0.82644900  0.14104500  1
  O  O39  1  0.04842400  0.39999600  0.46122600  1
  O  O40  1  0.15717200  0.15632200  0.07289700  1
  O  O41  1  0.26697800  0.53831800  0.74305200  1
  O  O42  1  0.15047800  0.15961400  0.82702300  1
  O  O43  1  0.17355100  0.74100900  0.85895500  1
  O  O44  1  0.01357000  0.33741000  0.17525500  1
  O  O45  1  0.26065100  0.82627600  0.64067900  1
  O  O46  1  0.04838000  0.39868200  0.96534200  1
  O  O47  1  0.01306800  0.33764500  0.67057600  1
loop_
_geom_bond_atom_site_label_1
_geom_bond_atom_site_label_2
_geom_bond_distance
_geom_bond_site_symmetry_2
Li0 O36 2.206100 1_565
Li0 O18 2.206100 1_455
Li0 O5 2.318446 1_455
Li0 O29 2.318446 1_565
Li1 O7 2.209693 1_545
Li1 O42 2.209693 1_654
Li1 O11 2.369767 1_544
Li1 O40 2.369767 1_655
Li2 O12 2.154700 1_555
Li2 O21 2.195238 1_555
Li2 O9 2.245664 1_555
Li2 O4 2.252460 1_555
Li2 O44 2.466357 1_655
Li2 O14 2.492026 1_545
Li3 O12 2.097197 1_555
Li3 O28 2.113882 1_555
Li3 O24 2.252368 1_555
Li3 O15 2.274808 1_555
Li3 O21 2.533045 1_555
Li3 O17 2.549773 1_555
Li4 O30 2.154700 1_555
Li4 O19 2.195238 1_555
Li4 O10 2.245664 1_555
Li4 O2 2.252460 1_555
Li4 O22 2.466357 1_545
Li4 O47 2.492026 1_655
Li5 O26 2.118665 1_554
Li5 O21 2.128909 1_555
Li5 O16 2.265914 1_555
Li5 O31 2.300532 1_555
Li5 O35 2.494633 1_555
Li5 O12 2.530982 1_555
Li6 O28 2.178561 1_555
Li6 O17 2.178561 1_555
Li6 O45 2.232423 1_555
Li6 O37 2.232423 1_555
Li6 O25 2.413620 1_565
Li6 O0 2.413620 1_455
Li7 O35 2.118665 1_556
Li7 O19 2.128909 1_555
Li7 O23 2.265914 1_555
Li7 O32 2.300532 1_555
Li7 O26 2.494633 1_555
Li7 O30 2.530982 1_555
Li8 O30 2.097197 1_555
Li8 O17 2.113882 1_555
Li8 O41 2.252368 1_555
Li8 O6 2.274808 1_555
Li8 O19 2.533045 1_555
Li8 O28 2.549773 1_555
Li9 O26 2.150934 1_554
Li9 O35 2.150934 1_555
Li9 O38 2.241681 1_555
Li9 O43 2.241681 1_554
Li9 O3 2.463283 1_455
Li9 O33 2.463283 1_564
Li10 O40 2.234600 1_555
Li10 O36 2.237463 1_555
Li10 O5 2.309311 1_445
Li10 O7 2.430737 1_445
Li11 O11 2.234600 1_555
Li11 O18 2.237463 1_555
Li11 O29 2.309311 1_665
Li11 O42 2.430737 1_665
Mn0 O22 1.945775 1_555
Mn0 O32 1.952894 1_555
Mn0 O2 1.969956 1_565
Mn0 O13 1.983316 1_555
Mn0 O18 2.221077 1_555
Mn0 O34 2.343408 1_565
Mn1 O44 1.945775 1_555
Mn1 O31 1.952894 1_555
Mn1 O4 1.969956 1_455
Mn1 O39 1.983316 1_555
Mn1 O36 2.221077 1_555
Mn1 O1 2.343408 1_455
O0 P4 1.558577 1_555
O0 V0 1.957422 1_555
O1 P1 1.564888 1_555
O1 V0 1.998608 1_555
O2 P0 1.559794 1_555
O3 P1 1.558886 1_555
O3 V1 1.959430 1_554
O4 P0 1.559794 1_555
O5 P2 1.566613 1_555
O5 V0 2.143119 1_555
O6 P0 1.551535 1_555
O6 V0 1.988027 1_555
O7 P1 1.571683 1_555
O7 V2 2.107339 1_555
O8 P4 1.583375 1_555
O8 V1 2.040686 1_555
O8 V5 2.140130 1_655
O9 P3 1.550126 1_555
O9 V2 2.016207 1_545
O10 P3 1.550126 1_556
O10 V5 2.016207 1_655
O11 P5 1.569681 1_555
O11 V1 2.149088 1_555
O12 P1 1.522488 1_555
O13 P2 1.594434 1_555
O13 V3 2.176247 1_565
O14 P2 1.553692 1_555
O14 V2 1.981744 1_555
O15 P0 1.551535 1_555
O15 V3 1.988027 1_555
O16 P3 1.556310 1_555
O16 V1 1.981024 1_554
O17 P2 1.517819 1_555
O18 P4 1.561171 1_555
O19 P4 1.521675 1_555
O20 P5 1.583950 1_554
O20 V2 2.058098 1_555
O20 V4 2.171487 1_565
O21 P6 1.521675 1_555
O22 P5 1.564608 1_555
O23 P3 1.556310 1_556
O23 V4 1.981024 1_556
O24 P8 1.558158 1_555
O24 V2 1.993234 1_555
O25 P6 1.558577 1_555
O25 V3 1.957422 1_555
O26 P5 1.517290 1_555
O27 P6 1.583375 1_555
O27 V4 2.040686 1_555
O27 V2 2.140130 1_545
O28 P7 1.517819 1_555
O29 P7 1.566613 1_555
O29 V3 2.143119 1_555
O30 P9 1.522488 1_555
O31 P8 1.560742 1_555
O32 P11 1.560742 1_555
O33 P9 1.558886 1_555
O33 V4 1.959430 1_556
O34 P9 1.564888 1_555
O34 V3 1.998608 1_555
O35 P10 1.517290 1_555
O36 P6 1.561171 1_555
O37 P8 1.547963 1_555
O37 V0 2.017425 1_455
O38 P8 1.550176 1_555
O38 V4 2.016750 1_565
O39 P7 1.594434 1_555
O39 V0 2.176247 1_455
O40 P10 1.569681 1_555
O40 V4 2.149088 1_555
O41 P11 1.558158 1_555
O41 V5 1.993234 1_555
O42 P9 1.571683 1_555
O42 V5 2.107339 1_555
O43 P11 1.550176 1_555
O43 V1 2.016750 1_455
O44 P10 1.564608 1_555
O45 P11 1.547963 1_555
O45 V3 2.017425 1_565
O46 P10 1.583950 1_556
O46 V5 2.058098 1_555
O46 V1 2.171487 1_455
O47 P7 1.553692 1_555
O47 V5 1.981744 1_555
