# generated using pymatgen
data_Li2CeSm(MoO4)4
_symmetry_space_group_name_H-M   'P 1'
_cell_length_a   5.30772300
_cell_length_b   5.30772300
_cell_length_c   11.42542900
_cell_angle_alpha   90.00000000
_cell_angle_beta   90.00000000
_cell_angle_gamma   90.00000000
_symmetry_Int_Tables_number   1
_chemical_formula_structural   Li2CeSm(MoO4)4
_chemical_formula_sum   'Li2 Ce1 Sm1 Mo4 O16'
_cell_volume   321.87631111
_cell_formula_units_Z   1
loop_
 _symmetry_equiv_pos_site_id
 _symmetry_equiv_pos_as_xyz
  1  'x, y, z'
loop_
 _atom_site_type_symbol
 _atom_site_label
 _atom_site_symmetry_multiplicity
 _atom_site_fract_x
 _atom_site_fract_y
 _atom_site_fract_z
 _atom_site_occupancy
  Li  Li0  1  0.00000000  0.50000000  0.75032700  1
  Li  Li1  1  0.50000000  0.00000000  0.24967300  1
  Ce  Ce0  1  0.00000000  0.00000000  0.50000000  1
  Sm  Sm0  1  0.50000000  0.50000000  0.00000000  1
  Mo  Mo0  1  0.50000000  0.00000000  0.75409300  1
  Mo  Mo1  1  0.00000000  0.50000000  0.24590700  1
  Mo  Mo2  1  0.00000000  0.00000000  0.00000000  1
  Mo  Mo3  1  0.50000000  0.50000000  0.50000000  1
  O  O0  1  0.35239500  0.24761900  0.83902700  1
  O  O1  1  0.85695600  0.74120700  0.33510400  1
  O  O2  1  0.64760500  0.75238100  0.83902700  1
  O  O3  1  0.14304400  0.25879300  0.33510400  1
  O  O4  1  0.74863200  0.64611700  0.58413300  1
  O  O5  1  0.24346200  0.15483500  0.08413800  1
  O  O6  1  0.25136800  0.35388300  0.58413300  1
  O  O7  1  0.75653800  0.84516500  0.08413800  1
  O  O8  1  0.15483500  0.75653800  0.91586200  1
  O  O9  1  0.64611700  0.25136800  0.41586700  1
  O  O10  1  0.84516500  0.24346200  0.91586200  1
  O  O11  1  0.35388300  0.74863200  0.41586700  1
  O  O12  1  0.75238100  0.35239500  0.16097300  1
  O  O13  1  0.25879300  0.85695600  0.66489600  1
  O  O14  1  0.24761900  0.64760500  0.16097300  1
  O  O15  1  0.74120700  0.14304400  0.66489600  1
loop_
_geom_bond_atom_site_label_1
_geom_bond_atom_site_label_2
_geom_bond_distance
_geom_bond_site_symmetry_2
Li0 O4 2.446861 1_455
Li0 O6 2.446861 1_555
Li0 O8 2.471130 1_555
Li0 O10 2.471130 1_455
Li0 O0 2.513951 1_555
Li0 O2 2.513951 1_455
Li0 O13 2.535572 1_555
Li0 O15 2.535572 1_455
Li1 O9 2.446861 1_555
Li1 O11 2.446861 1_545
Li1 O7 2.471130 1_545
Li1 O5 2.471130 1_555
Li1 O12 2.513951 1_555
Li1 O14 2.513951 1_545
Li1 O1 2.535572 1_545
Li1 O3 2.535572 1_555
Ce0 O15 2.452082 1_455
Ce0 O13 2.452082 1_545
Ce0 O3 2.452082 1_555
Ce0 O1 2.452082 1_445
Ce0 O11 2.496425 1_545
Ce0 O6 2.496425 1_555
Ce0 O4 2.496425 1_445
Ce0 O9 2.496425 1_455
Mo0 O15 1.803913 1_555
Mo0 O13 1.803913 1_545
Mo0 O0 1.811862 1_555
Mo0 O2 1.811862 1_545
Mo1 O3 1.803913 1_555
Mo1 O1 1.803913 1_455
Mo1 O14 1.811862 1_555
Mo1 O12 1.811862 1_455
Mo2 O5 1.808139 1_555
Mo2 O10 1.808139 1_454
Mo2 O7 1.808139 1_445
Mo2 O8 1.808139 1_544
Mo3 O4 1.807489 1_555
Mo3 O9 1.807489 1_555
Mo3 O6 1.807489 1_555
Mo3 O11 1.807489 1_555
O0 Sm0 2.406415 1_556
O2 Sm0 2.406415 1_556
O5 Sm0 2.476800 1_555
O7 Sm0 2.476800 1_555
O8 Sm0 2.476800 1_556
O10 Sm0 2.476800 1_556
O12 Sm0 2.406415 1_555
O14 Sm0 2.406415 1_555
