# generated using pymatgen
data_PmRh3
_symmetry_space_group_name_H-M   'P 1'
_cell_length_a   5.88318617
_cell_length_b   5.88318617
_cell_length_c   4.59005572
_cell_angle_alpha   90.00000000
_cell_angle_beta   90.00000000
_cell_angle_gamma   120.00000307
_symmetry_Int_Tables_number   1
_chemical_formula_structural   PmRh3
_chemical_formula_sum   'Pm2 Rh6'
_cell_volume   137.58584629
_cell_formula_units_Z   2
loop_
 _symmetry_equiv_pos_site_id
 _symmetry_equiv_pos_as_xyz
  1  'x, y, z'
loop_
 _atom_site_type_symbol
 _atom_site_label
 _atom_site_symmetry_multiplicity
 _atom_site_fract_x
 _atom_site_fract_y
 _atom_site_fract_z
 _atom_site_occupancy
  Pm  Pm0  1  0.33333300  0.66666700  0.75000000  1
  Pm  Pm1  1  0.66666700  0.33333300  0.25000000  1
  Rh  Rh0  1  0.15330982  0.30661964  0.25000000  1
  Rh  Rh1  1  0.69338036  0.84669018  0.25000000  1
  Rh  Rh2  1  0.15330982  0.84669018  0.25000000  1
  Rh  Rh3  1  0.84669018  0.69338036  0.75000000  1
  Rh  Rh4  1  0.30661964  0.15330982  0.75000000  1
  Rh  Rh5  1  0.84669018  0.15330982  0.75000000  1
loop_
_geom_bond_atom_site_label_1
_geom_bond_atom_site_label_2
_geom_bond_distance
_geom_bond_site_symmetry_2
Pm0 Rh2 2.938077 1_555
Pm0 Rh2 2.938077 1_556
Pm0 Rh0 2.938080 1_555
Pm0 Rh0 2.938080 1_556
Pm0 Rh1 2.938080 1_555
Pm0 Rh1 2.938080 1_556
Pm0 Rh3 2.944737 1_455
Pm0 Rh4 2.944737 1_565
Pm0 Rh5 2.944740 1_565
Pm0 Rh5 2.944740 1_455
Pm0 Rh3 2.944743 1_555
Pm0 Rh4 2.944743 1_555
Pm1 Rh5 2.938077 1_555
Pm1 Rh5 2.938077 1_554
Pm1 Rh3 2.938080 1_554
Pm1 Rh3 2.938080 1_555
Pm1 Rh4 2.938080 1_554
Pm1 Rh4 2.938080 1_555
Pm1 Rh0 2.944737 1_655
Pm1 Rh1 2.944737 1_545
Pm1 Rh2 2.944740 1_655
Pm1 Rh2 2.944740 1_545
Pm1 Rh1 2.944743 1_555
Pm1 Rh0 2.944743 1_555
