# generated using pymatgen
data_Ba3ZnB5PO14
_symmetry_space_group_name_H-M   'P 1'
_cell_length_a   7.18345300
_cell_length_b   8.32283300
_cell_length_c   10.49121600
_cell_angle_alpha   90.00000000
_cell_angle_beta   90.00000000
_cell_angle_gamma   90.00000000
_symmetry_Int_Tables_number   1
_chemical_formula_structural   Ba3ZnB5PO14
_chemical_formula_sum   'Ba6 Zn2 B10 P2 O28'
_cell_volume   627.23497047
_cell_formula_units_Z   2
loop_
 _symmetry_equiv_pos_site_id
 _symmetry_equiv_pos_as_xyz
  1  'x, y, z'
loop_
 _atom_site_type_symbol
 _atom_site_label
 _atom_site_symmetry_multiplicity
 _atom_site_fract_x
 _atom_site_fract_y
 _atom_site_fract_z
 _atom_site_occupancy
  Ba  Ba0  1  0.56326500  0.43866300  0.73038400  1
  Ba  Ba1  1  0.56326500  0.43866300  0.26961600  1
  Ba  Ba2  1  0.43673500  0.93866300  0.76961600  1
  Ba  Ba3  1  0.43673500  0.93866300  0.23038400  1
  Ba  Ba4  1  0.97295900  0.22534600  0.50000000  1
  Ba  Ba5  1  0.02704100  0.72534600  0.00000000  1
  Zn  Zn0  1  0.24054700  0.33170500  0.00000000  1
  Zn  Zn1  1  0.75945300  0.83170500  0.50000000  1
  B  B0  1  0.05210600  0.42507900  0.76334300  1
  B  B1  1  0.05210600  0.42507900  0.23665700  1
  B  B2  1  0.94789400  0.92507900  0.73665700  1
  B  B3  1  0.94789400  0.92507900  0.26334300  1
  B  B4  1  0.89849100  0.17460700  0.87748800  1
  B  B5  1  0.89849100  0.17460700  0.12251200  1
  B  B6  1  0.10150900  0.67460700  0.62251200  1
  B  B7  1  0.10150900  0.67460700  0.37748800  1
  B  B8  1  0.59441500  0.16097700  0.00000000  1
  B  B9  1  0.40558500  0.66097700  0.50000000  1
  P  P0  1  0.43540100  0.16106700  0.50000000  1
  P  P1  1  0.56459900  0.66106700  0.00000000  1
  O  O0  1  0.32075000  0.20077900  0.62277300  1
  O  O1  1  0.32075000  0.20077900  0.37722700  1
  O  O2  1  0.67925000  0.70077900  0.87722700  1
  O  O3  1  0.67925000  0.70077900  0.12277300  1
  O  O4  1  0.97109000  0.23161300  0.00000000  1
  O  O5  1  0.02891000  0.73161300  0.50000000  1
  O  O6  1  0.31016800  0.65895100  0.61542400  1
  O  O7  1  0.31016800  0.65895100  0.38457600  1
  O  O8  1  0.68983200  0.15895100  0.88457600  1
  O  O9  1  0.68983200  0.15895100  0.11542400  1
  O  O10  1  0.61144800  0.27026000  0.50000000  1
  O  O11  1  0.38855200  0.77026000  0.00000000  1
  O  O12  1  0.40545700  0.14326700  0.00000000  1
  O  O13  1  0.59454300  0.64326700  0.50000000  1
  O  O14  1  0.48005500  0.97900600  0.50000000  1
  O  O15  1  0.51994500  0.47900600  0.00000000  1
  O  O16  1  0.18892000  0.46250800  0.84667200  1
  O  O17  1  0.18892000  0.46250800  0.15332800  1
  O  O18  1  0.81108000  0.96250800  0.65332800  1
  O  O19  1  0.81108000  0.96250800  0.34667200  1
  O  O20  1  0.92961500  0.29449500  0.77339400  1
  O  O21  1  0.92961500  0.29449500  0.22660600  1
  O  O22  1  0.07038500  0.79449500  0.72660600  1
  O  O23  1  0.07038500  0.79449500  0.27339400  1
  O  O24  1  0.01396900  0.51766300  0.65522200  1
  O  O25  1  0.01396900  0.51766300  0.34477800  1
  O  O26  1  0.98603100  0.01766300  0.84477800  1
  O  O27  1  0.98603100  0.01766300  0.15522200  1
loop_
_geom_bond_atom_site_label_1
_geom_bond_atom_site_label_2
_geom_bond_distance
_geom_bond_site_symmetry_2
Ba0 O2 2.797616 1_555
Ba0 O10 2.815348 1_555
Ba0 O6 2.849835 1_555
Ba0 O15 2.865406 1_556
Ba0 O0 2.868684 1_555
Ba0 O20 2.927278 1_555
Ba0 O16 2.959560 1_555
Ba0 O13 2.965169 1_555
Ba0 O8 2.977082 1_555
Ba1 O3 2.797616 1_555
Ba1 O10 2.815348 1_555
Ba1 O7 2.849835 1_555
Ba1 O15 2.865406 1_555
Ba1 O1 2.868684 1_555
Ba1 O21 2.927278 1_555
Ba1 O17 2.959560 1_555
Ba1 O13 2.965169 1_555
Ba1 O9 2.977082 1_555
Ba2 O0 2.797616 1_565
Ba2 O11 2.815348 1_556
Ba2 O8 2.849835 1_565
Ba2 O14 2.865406 1_555
Ba2 O2 2.868684 1_555
Ba2 O22 2.927278 1_555
Ba2 O18 2.959560 1_555
Ba2 O12 2.965169 1_566
Ba2 O6 2.977082 1_555
Ba3 O1 2.797616 1_565
Ba3 O11 2.815348 1_555
Ba3 O9 2.849835 1_565
Ba3 O14 2.865406 1_555
Ba3 O3 2.868684 1_555
Ba3 O23 2.927278 1_555
Ba3 O19 2.959560 1_555
Ba3 O12 2.965169 1_565
Ba3 O7 2.977082 1_555
Ba4 O10 2.623664 1_555
Ba4 O0 2.818254 1_655
Ba4 O1 2.818254 1_655
Ba4 O20 2.941928 1_555
Ba4 O21 2.941928 1_555
Ba4 O25 2.942401 1_655
Ba4 O24 2.942401 1_655
Ba4 O18 2.953847 1_545
Ba4 O19 2.953847 1_545
Ba5 O11 2.623664 1_555
Ba5 O2 2.818254 1_454
Ba5 O3 2.818254 1_455
Ba5 O23 2.941928 1_555
Ba5 O22 2.941928 1_554
Ba5 O27 2.942401 1_465
Ba5 O26 2.942401 1_464
Ba5 O16 2.953847 1_554
Ba5 O17 2.953847 1_555
B0 O16 1.351738 1_555
B0 O24 1.398392 1_555
B0 O20 1.402339 1_455
B1 O17 1.351738 1_555
B1 O25 1.398392 1_555
B1 O21 1.402339 1_455
B2 O18 1.351738 1_555
B2 O26 1.398392 1_565
B2 O22 1.402339 1_655
B3 O19 1.351738 1_555
B3 O27 1.398392 1_565
B3 O23 1.402339 1_655
B4 O4 1.465972 1_556
B4 O26 1.489769 1_555
B4 O20 1.496072 1_555
B4 O8 1.506382 1_555
B5 O4 1.465972 1_555
B5 O27 1.489769 1_555
B5 O21 1.496072 1_555
B5 O9 1.506382 1_555
B6 O5 1.465972 1_555
B6 O24 1.489769 1_555
B6 O22 1.496072 1_555
B6 O6 1.506382 1_555
B7 O5 1.465972 1_555
B7 O25 1.489769 1_555
B7 O23 1.496072 1_555
B7 O7 1.506382 1_555
B8 O12 1.365350 1_555
B8 O9 1.391568 1_555
B8 O8 1.391568 1_554
B9 O13 1.365350 1_555
B9 O6 1.391568 1_555
B9 O7 1.391568 1_555
O0 P0 1.564156 1_555
O1 P0 1.564156 1_555
O2 P1 1.564156 1_556
O3 P1 1.564156 1_555
O4 Zn0 2.107283 1_655
O5 Zn1 2.107283 1_455
O10 P0 1.557301 1_555
O11 P1 1.557301 1_555
O12 Zn0 1.965456 1_555
O13 Zn1 1.965456 1_555
O14 P0 1.548844 1_565
O14 Zn1 2.351851 1_555
O15 P1 1.548844 1_555
O15 Zn0 2.351851 1_555
O16 Zn0 1.977444 1_556
O17 Zn0 1.977444 1_555
O18 Zn1 1.977444 1_555
O19 Zn1 1.977444 1_555
