# generated using pymatgen
data_Zr2InAu2
_symmetry_space_group_name_H-M   'P 1'
_cell_length_a   7.57703162
_cell_length_b   7.57703162
_cell_length_c   7.09117306
_cell_angle_alpha   90.00000000
_cell_angle_beta   90.00000000
_cell_angle_gamma   90.00000000
_symmetry_Int_Tables_number   1
_chemical_formula_structural   Zr2InAu2
_chemical_formula_sum   'Zr8 In4 Au8'
_cell_volume   407.11423096
_cell_formula_units_Z   4
loop_
 _symmetry_equiv_pos_site_id
 _symmetry_equiv_pos_as_xyz
  1  'x, y, z'
loop_
 _atom_site_type_symbol
 _atom_site_label
 _atom_site_symmetry_multiplicity
 _atom_site_fract_x
 _atom_site_fract_y
 _atom_site_fract_z
 _atom_site_occupancy
  Zr  Zr0  1  0.14753168  0.14753168  0.00000000  1
  Zr  Zr1  1  0.85246832  0.85246832  0.00000000  1
  Zr  Zr2  1  0.64753168  0.35246832  0.50000000  1
  Zr  Zr3  1  0.35246832  0.64753168  0.50000000  1
  Zr  Zr4  1  0.69601152  0.30398848  0.00000000  1
  Zr  Zr5  1  0.30398848  0.69601152  0.00000000  1
  Zr  Zr6  1  0.80398848  0.80398848  0.50000000  1
  Zr  Zr7  1  0.19601152  0.19601152  0.50000000  1
  In  In0  1  0.50000000  -0.00000000  0.25000000  1
  In  In1  1  0.50000000  -0.00000000  0.75000000  1
  In  In2  1  0.00000000  0.50000000  0.25000000  1
  In  In3  1  0.00000000  0.50000000  0.75000000  1
  Au  Au0  1  0.37067143  0.37067143  0.20496867  1
  Au  Au1  1  0.62932857  0.62932857  0.79503133  1
  Au  Au2  1  0.62932857  0.62932857  0.20496867  1
  Au  Au3  1  0.87067143  0.12932857  0.70496867  1
  Au  Au4  1  0.87067143  0.12932857  0.29503133  1
  Au  Au5  1  0.37067143  0.37067143  0.79503133  1
  Au  Au6  1  0.12932857  0.87067143  0.29503133  1
  Au  Au7  1  0.12932857  0.87067143  0.70496867  1
loop_
_geom_bond_atom_site_label_1
_geom_bond_atom_site_label_2
_geom_bond_distance
_geom_bond_site_symmetry_2
In0 Zr5 3.264032 1_545
In0 Zr6 3.264032 1_545
In0 Zr7 3.264032 1_555
In0 Zr4 3.264032 1_555
In0 Zr3 3.394825 1_545
In0 Zr0 3.394825 1_555
In0 Zr1 3.394825 1_545
In0 Zr2 3.394825 1_555
In1 Zr6 3.264032 1_545
In1 Zr5 3.264032 1_546
In1 Zr7 3.264032 1_555
In1 Zr4 3.264032 1_556
In1 Zr3 3.394825 1_545
In1 Zr0 3.394825 1_556
In1 Zr1 3.394825 1_546
In1 Zr2 3.394825 1_555
In2 Zr4 3.264032 1_455
In2 Zr6 3.264032 1_455
In2 Zr7 3.264032 1_555
In2 Zr5 3.264032 1_555
In2 Zr2 3.394825 1_455
In2 Zr0 3.394825 1_555
In2 Zr1 3.394825 1_455
In2 Zr3 3.394825 1_555
In3 Zr4 3.264032 1_456
In3 Zr7 3.264032 1_555
In3 Zr5 3.264032 1_556
In3 Zr6 3.264032 1_455
In3 Zr2 3.394825 1_455
In3 Zr1 3.394825 1_456
In3 Zr0 3.394825 1_556
In3 Zr3 3.394825 1_555
Au0 Zr0 2.798170 1_555
Au0 Zr7 2.807090 1_555
Au0 Zr4 2.905965 1_555
Au0 Zr5 2.905965 1_555
Au0 Zr2 2.965916 1_555
Au0 Zr3 2.965916 1_555
Au0 In2 2.991722 1_555
Au0 In0 2.991722 1_555
Au1 Zr1 2.798170 1_556
Au1 Zr6 2.807090 1_555
Au1 Zr4 2.905965 1_556
Au1 Zr5 2.905965 1_556
Au1 Zr2 2.965916 1_555
Au1 Zr3 2.965916 1_555
Au1 In1 2.991722 1_565
Au1 In3 2.991722 1_655
Au2 Zr1 2.798170 1_555
Au2 Zr6 2.807090 1_555
Au2 Zr4 2.905965 1_555
Au2 Zr5 2.905965 1_555
Au2 Zr2 2.965916 1_555
Au2 Zr3 2.965916 1_555
Au2 In2 2.991722 1_655
Au2 In0 2.991722 1_565
Au3 Zr2 2.798170 1_555
Au3 Zr4 2.807090 1_556
Au3 Zr7 2.905965 1_655
Au3 Zr6 2.905965 1_545
Au3 Zr1 2.965916 1_546
Au3 Zr0 2.965916 1_656
Au3 In3 2.991722 1_655
Au3 In1 2.991722 1_555
Au4 Zr2 2.798170 1_555
Au4 Zr4 2.807090 1_555
Au4 Zr7 2.905965 1_655
Au4 Zr6 2.905965 1_545
Au4 Zr1 2.965916 1_545
Au4 Zr0 2.965916 1_655
Au4 In2 2.991722 1_655
Au4 In0 2.991722 1_555
Au5 Zr0 2.798170 1_556
Au5 Zr7 2.807090 1_555
Au5 Zr4 2.905965 1_556
Au5 Zr5 2.905965 1_556
Au5 Zr2 2.965916 1_555
Au5 Zr3 2.965916 1_555
Au5 In1 2.991722 1_555
Au5 In3 2.991722 1_555
Au6 Zr3 2.798170 1_555
Au6 Zr5 2.807090 1_555
Au6 Zr7 2.905965 1_565
Au6 Zr6 2.905965 1_455
Au6 Zr1 2.965916 1_455
Au6 Zr0 2.965916 1_565
Au6 In0 2.991722 1_565
Au6 In2 2.991722 1_555
Au7 Zr3 2.798170 1_555
Au7 Zr5 2.807090 1_556
Au7 Zr7 2.905965 1_565
Au7 Zr6 2.905965 1_455
Au7 Zr1 2.965916 1_456
Au7 Zr0 2.965916 1_566
Au7 In1 2.991722 1_565
Au7 In3 2.991722 1_555
