# generated using pymatgen
data_SiP2O7
_symmetry_space_group_name_H-M   'P 1'
_cell_length_a   7.73366700
_cell_length_b   7.73366700
_cell_length_c   7.73366700
_cell_angle_alpha   90.00000000
_cell_angle_beta   90.00000000
_cell_angle_gamma   90.00000000
_symmetry_Int_Tables_number   1
_chemical_formula_structural   SiP2O7
_chemical_formula_sum   'Si4 P8 O28'
_cell_volume   462.54757054
_cell_formula_units_Z   4
loop_
 _symmetry_equiv_pos_site_id
 _symmetry_equiv_pos_as_xyz
  1  'x, y, z'
loop_
 _atom_site_type_symbol
 _atom_site_label
 _atom_site_symmetry_multiplicity
 _atom_site_fract_x
 _atom_site_fract_y
 _atom_site_fract_z
 _atom_site_occupancy
  Si  Si0  1  0.00000000  0.00000000  0.00000000  1
  Si  Si1  1  0.50000000  0.00000000  0.50000000  1
  Si  Si2  1  0.50000000  0.50000000  0.00000000  1
  Si  Si3  1  0.00000000  0.50000000  0.50000000  1
  P  P0  1  0.61900600  0.88099400  0.11900600  1
  P  P1  1  0.88099400  0.11900600  0.61900600  1
  P  P2  1  0.11900600  0.61900600  0.88099400  1
  P  P3  1  0.38099400  0.38099400  0.38099400  1
  P  P4  1  0.61900600  0.61900600  0.61900600  1
  P  P5  1  0.88099400  0.38099400  0.11900600  1
  P  P6  1  0.11900600  0.88099400  0.38099400  1
  P  P7  1  0.38099400  0.11900600  0.88099400  1
  O  O0  1  0.93910000  0.19524400  0.10123300  1
  O  O1  1  0.43910000  0.30475600  0.89876700  1
  O  O2  1  0.06090000  0.69524400  0.39876700  1
  O  O3  1  0.30475600  0.89876700  0.43910000  1
  O  O4  1  0.39876700  0.06090000  0.69524400  1
  O  O5  1  0.89876700  0.43910000  0.30475600  1
  O  O6  1  0.19524400  0.10123300  0.93910000  1
  O  O7  1  0.10123300  0.93910000  0.19524400  1
  O  O8  1  0.69524400  0.39876700  0.06090000  1
  O  O9  1  0.80475600  0.60123300  0.56090000  1
  O  O10  1  0.60123300  0.56090000  0.80475600  1
  O  O11  1  0.56090000  0.80475600  0.60123300  1
  O  O12  1  0.50000000  0.50000000  0.50000000  1
  O  O13  1  0.00000000  0.50000000  0.00000000  1
  O  O14  1  0.00000000  0.00000000  0.50000000  1
  O  O15  1  0.50000000  0.00000000  0.00000000  1
  O  O16  1  0.43910000  0.19524400  0.39876700  1
  O  O17  1  0.39876700  0.43910000  0.19524400  1
  O  O18  1  0.19524400  0.39876700  0.43910000  1
  O  O19  1  0.30475600  0.60123300  0.93910000  1
  O  O20  1  0.89876700  0.06090000  0.80475600  1
  O  O21  1  0.80475600  0.89876700  0.06090000  1
  O  O22  1  0.10123300  0.56090000  0.69524400  1
  O  O23  1  0.60123300  0.93910000  0.30475600  1
  O  O24  1  0.69524400  0.10123300  0.56090000  1
  O  O25  1  0.93910000  0.30475600  0.60123300  1
  O  O26  1  0.56090000  0.69524400  0.10123300  1
  O  O27  1  0.06090000  0.80475600  0.89876700  1
loop_
_geom_bond_atom_site_label_1
_geom_bond_atom_site_label_2
_geom_bond_distance
_geom_bond_site_symmetry_2
O0 P5 1.511437 1_555
O0 Si0 1.764855 1_655
O1 P7 1.511437 1_555
O1 Si2 1.764855 1_556
O2 P6 1.511437 1_555
O2 Si3 1.764855 1_555
O3 P6 1.511437 1_555
O3 Si1 1.764855 1_565
O4 P7 1.511437 1_555
O4 Si1 1.764855 1_555
O5 P5 1.511437 1_555
O5 Si3 1.764855 1_655
O6 P7 1.511437 1_555
O6 Si0 1.764855 1_556
O7 P6 1.511437 1_555
O7 Si0 1.764855 1_565
O8 P5 1.511437 1_555
O8 Si2 1.764855 1_555
O9 P4 1.511437 1_555
O9 Si3 1.764855 1_655
O10 P4 1.511437 1_555
O10 Si2 1.764855 1_556
O11 P4 1.511437 1_555
O11 Si1 1.764855 1_565
O12 P4 1.594098 1_555
O12 P3 1.594098 1_555
O13 P2 1.594098 1_554
O13 P5 1.594098 1_455
O14 P1 1.594098 1_455
O14 P6 1.594098 1_545
O15 P0 1.594098 1_545
O15 P7 1.594098 1_554
O16 P3 1.511437 1_555
O16 Si1 1.764855 1_555
O17 P3 1.511437 1_555
O17 Si2 1.764855 1_555
O18 P3 1.511437 1_555
O18 Si3 1.764855 1_555
O19 P2 1.511437 1_555
O19 Si2 1.764855 1_556
O20 P1 1.511437 1_555
O20 Si0 1.764855 1_656
O21 P0 1.511437 1_555
O21 Si0 1.764855 1_665
O22 P2 1.511437 1_555
O22 Si3 1.764855 1_555
O23 P0 1.511437 1_555
O23 Si1 1.764855 1_565
O24 P1 1.511437 1_555
O24 Si1 1.764855 1_555
O25 P1 1.511437 1_555
O25 Si3 1.764855 1_655
O26 P0 1.511437 1_555
O26 Si2 1.764855 1_555
O27 P2 1.511437 1_555
O27 Si0 1.764855 1_566
