# generated using pymatgen
data_Co2PO5
_symmetry_space_group_name_H-M   'P 1'
_cell_length_a   5.25927203
_cell_length_b   5.26217622
_cell_length_c   6.95048599
_cell_angle_alpha   112.62194894
_cell_angle_beta   114.13546189
_cell_angle_gamma   87.19285561
_symmetry_Int_Tables_number   1
_chemical_formula_structural   Co2PO5
_chemical_formula_sum   'Co4 P2 O10'
_cell_volume   160.69018032
_cell_formula_units_Z   2
loop_
 _symmetry_equiv_pos_site_id
 _symmetry_equiv_pos_as_xyz
  1  'x, y, z'
loop_
 _atom_site_type_symbol
 _atom_site_label
 _atom_site_symmetry_multiplicity
 _atom_site_fract_x
 _atom_site_fract_y
 _atom_site_fract_z
 _atom_site_occupancy
  Co  Co0  1  -0.00001133  -0.00000986  0.49999175  1
  Co  Co1  1  0.49999524  -0.00000076  0.49999197  1
  Co  Co2  1  0.00001329  -0.00000970  0.00000051  1
  Co  Co3  1  -0.00000142  0.50000564  0.00000678  1
  P  P0  1  0.64435911  0.39311762  0.24978019  1
  P  P1  1  0.35564345  0.60688277  0.75022489  1
  O  O0  1  0.12675467  0.87533077  0.24980192  1
  O  O1  1  0.87324454  0.12467539  0.75019967  1
  O  O2  1  0.83807064  0.32326973  0.12505566  1
  O  O3  1  0.28290382  0.77425153  0.60288358  1
  O  O4  1  0.29857660  0.28956952  0.62008540  1
  O  O5  1  0.33071323  0.31983597  0.09756297  1
  O  O6  1  0.16189774  0.67674569  0.87495512  1
  O  O7  1  0.71709679  0.22576771  0.39711297  1
  O  O8  1  0.70143666  0.71040344  0.37989954  1
  O  O9  1  0.66930598  0.68016454  0.90244610  1
loop_
_geom_bond_atom_site_label_1
_geom_bond_atom_site_label_2
_geom_bond_distance
_geom_bond_site_symmetry_2
Co0 O8 1.915285 1_445
Co0 O4 1.915386 1_555
Co0 O3 1.935618 1_545
Co0 O7 1.935667 1_455
Co0 O0 1.981522 1_545
Co0 O1 1.981552 1_455
Co1 O4 1.930619 1_555
Co1 O8 1.930779 1_545
Co1 O0 1.940246 1_545
Co1 O1 1.940322 1_555
Co1 O3 2.163402 1_545
Co1 O7 2.163450 1_555
Co2 O6 1.923420 1_544
Co2 O2 1.923745 1_455
Co2 O0 1.943210 1_545
Co2 O1 1.943290 1_454
Co2 O9 2.182123 1_444
Co2 O5 2.182151 1_555
Co3 O6 1.910521 1_554
Co3 O2 1.910589 1_455
Co3 O9 1.937004 1_454
Co3 O5 1.937116 1_555
Co3 O0 1.975856 1_555
Co3 O1 1.975904 1_454
O2 P0 1.537848 1_555
O3 P1 1.520284 1_555
O4 P1 1.536722 1_555
O5 P0 1.519963 1_555
O6 P1 1.538035 1_555
O7 P0 1.520156 1_555
O8 P0 1.536584 1_555
O9 P1 1.520038 1_555
