# generated using pymatgen
data_K5(TmI4)3
_symmetry_space_group_name_H-M   'P 1'
_cell_length_a   14.71333175
_cell_length_b   14.71333175
_cell_length_c   4.52392200
_cell_angle_alpha   90.00000000
_cell_angle_beta   90.00000000
_cell_angle_gamma   119.99999889
_symmetry_Int_Tables_number   1
_chemical_formula_structural   K5(TmI4)3
_chemical_formula_sum   'K5 Tm3 I12'
_cell_volume   848.14049583
_cell_formula_units_Z   1
loop_
 _symmetry_equiv_pos_site_id
 _symmetry_equiv_pos_as_xyz
  1  'x, y, z'
loop_
 _atom_site_type_symbol
 _atom_site_label
 _atom_site_symmetry_multiplicity
 _atom_site_fract_x
 _atom_site_fract_y
 _atom_site_fract_z
 _atom_site_occupancy
  K  K0  1  0.33333300  0.66666700  0.00000000  1
  K  K1  1  0.66666700  0.33333300  0.00000000  1
  K  K2  1  0.71569700  0.00000000  0.00000000  1
  K  K3  1  0.00000000  0.71569700  0.00000000  1
  K  K4  1  0.28430300  0.28430300  0.00000000  1
  Tm  Tm0  1  0.32226200  0.00000000  0.50000000  1
  Tm  Tm1  1  0.00000000  0.32226200  0.50000000  1
  Tm  Tm2  1  0.67773800  0.67773800  0.50000000  1
  I  I0  1  0.17961600  0.00000000  0.00000000  1
  I  I1  1  0.00000000  0.17961600  0.00000000  1
  I  I2  1  0.82038400  0.82038400  0.00000000  1
  I  I3  1  0.46152300  0.00000000  0.00000000  1
  I  I4  1  0.00000000  0.46152300  0.00000000  1
  I  I5  1  0.53847700  0.53847700  0.00000000  1
  I  I6  1  0.23929500  0.44321500  0.50000000  1
  I  I7  1  0.55678500  0.79608000  0.50000000  1
  I  I8  1  0.44321500  0.23929500  0.50000000  1
  I  I9  1  0.20392000  0.76070500  0.50000000  1
  I  I10  1  0.79608000  0.55678500  0.50000000  1
  I  I11  1  0.76070500  0.20392000  0.50000000  1
loop_
_geom_bond_atom_site_label_1
_geom_bond_atom_site_label_2
_geom_bond_distance
_geom_bond_site_symmetry_2
I0 Tm0 3.085680 1_554
I0 Tm0 3.085680 1_555
I0 K4 3.664321 1_555
I0 K3 3.664321 1_545
I1 Tm1 3.085680 1_555
I1 Tm1 3.085680 1_554
I1 K4 3.664321 1_555
I1 K2 3.664321 1_455
I2 Tm2 3.085680 1_555
I2 Tm2 3.085680 1_554
I2 K3 3.664321 1_655
I2 K2 3.664321 1_565
I3 Tm0 3.052022 1_554
I3 Tm0 3.052022 1_555
I3 K2 3.739746 1_555
I4 Tm1 3.052022 1_555
I4 Tm1 3.052022 1_554
I4 K3 3.739746 1_555
I5 Tm2 3.052022 1_554
I5 Tm2 3.052022 1_555
I5 K4 3.739746 1_555
I6 Tm1 3.049186 1_555
I6 K4 3.545444 1_555
I6 K4 3.545444 1_556
I6 K0 3.645688 1_555
I6 K0 3.645688 1_556
I7 Tm2 3.049186 1_555
I7 K2 3.545444 1_565
I7 K2 3.545444 1_566
I7 K0 3.645687 1_555
I7 K0 3.645687 1_556
I8 Tm0 3.049186 1_555
I8 K4 3.545444 1_555
I8 K4 3.545444 1_556
I8 K1 3.645688 1_556
I8 K1 3.645688 1_555
I9 Tm0 3.049186 1_565
I9 K3 3.545444 1_556
I9 K3 3.545444 1_555
I9 K0 3.645678 1_555
I9 K0 3.645678 1_556
I10 Tm2 3.049186 1_555
I10 K3 3.545444 1_656
I10 K3 3.545444 1_655
I10 K1 3.645687 1_556
I10 K1 3.645687 1_555
I11 Tm1 3.049186 1_655
I11 K2 3.545444 1_555
I11 K2 3.545444 1_556
I11 K1 3.645678 1_555
I11 K1 3.645678 1_556
