# generated using pymatgen
data_HoMoO5
_symmetry_space_group_name_H-M   'P 1'
_cell_length_a   12.45555200
_cell_length_b   5.33913700
_cell_length_c   6.89531482
_cell_angle_alpha   64.37033929
_cell_angle_beta   90.00000000
_cell_angle_gamma   90.00000000
_symmetry_Int_Tables_number   1
_chemical_formula_structural   HoMoO5
_chemical_formula_sum   'Ho4 Mo4 O20'
_cell_volume   413.43405698
_cell_formula_units_Z   4
loop_
 _symmetry_equiv_pos_site_id
 _symmetry_equiv_pos_as_xyz
  1  'x, y, z'
loop_
 _atom_site_type_symbol
 _atom_site_label
 _atom_site_symmetry_multiplicity
 _atom_site_fract_x
 _atom_site_fract_y
 _atom_site_fract_z
 _atom_site_occupancy
  Ho  Ho0  1  0.05339300  0.64384400  0.71146400  1
  Ho  Ho1  1  0.94660700  0.35615600  0.28853600  1
  Ho  Ho2  1  0.55339300  0.35615600  0.78853600  1
  Ho  Ho3  1  0.44660700  0.64384400  0.21146400  1
  Mo  Mo0  1  0.36040500  0.91185100  0.64315600  1
  Mo  Mo1  1  0.63959500  0.08814900  0.35684400  1
  Mo  Mo2  1  0.86040500  0.08814900  0.85684400  1
  Mo  Mo3  1  0.13959500  0.91185100  0.14315600  1
  O  O0  1  0.41855600  0.49367400  0.95368100  1
  O  O1  1  0.58144400  0.50632600  0.04631900  1
  O  O2  1  0.91855600  0.50632600  0.54631900  1
  O  O3  1  0.08144400  0.49367400  0.45368100  1
  O  O4  1  0.92743500  0.98901000  0.65759300  1
  O  O5  1  0.07256500  0.01099000  0.34240700  1
  O  O6  1  0.42743500  0.01099000  0.84240700  1
  O  O7  1  0.57256500  0.98901000  0.15759300  1
  O  O8  1  0.43694300  0.70456500  0.53321100  1
  O  O9  1  0.56305700  0.29543500  0.46678900  1
  O  O10  1  0.93694300  0.29543500  0.96678900  1
  O  O11  1  0.06305700  0.70456500  0.03321100  1
  O  O12  1  0.22639000  0.79468500  0.71063500  1
  O  O13  1  0.77361000  0.20531500  0.28936500  1
  O  O14  1  0.72639000  0.20531500  0.78936500  1
  O  O15  1  0.27361000  0.79468500  0.21063500  1
  O  O16  1  0.65329500  0.76234800  0.58221300  1
  O  O17  1  0.34670500  0.23765200  0.41778700  1
  O  O18  1  0.15329500  0.23765200  0.91778700  1
  O  O19  1  0.84670500  0.76234800  0.08221300  1
loop_
_geom_bond_atom_site_label_1
_geom_bond_atom_site_label_2
_geom_bond_distance
_geom_bond_site_symmetry_2
Ho0 O3 2.270974 1_555
Ho0 O12 2.299501 1_555
Ho0 O2 2.319419 1_455
Ho0 O4 2.324517 1_455
Ho0 O18 2.367807 1_555
Ho0 O11 2.379867 1_556
Ho0 O10 2.414640 1_455
Ho0 O5 2.461696 1_565
Ho1 O2 2.270974 1_555
Ho1 O13 2.299501 1_555
Ho1 O3 2.319419 1_655
Ho1 O5 2.324517 1_655
Ho1 O19 2.367807 1_555
Ho1 O10 2.379867 1_554
Ho1 O11 2.414640 1_655
Ho1 O4 2.461696 1_545
Ho2 O1 2.270974 1_556
Ho2 O14 2.299501 1_555
Ho2 O0 2.319419 1_555
Ho2 O6 2.324517 1_555
Ho2 O16 2.367807 1_555
Ho2 O9 2.379867 1_555
Ho2 O8 2.414640 1_555
Ho2 O7 2.461696 1_546
Ho3 O0 2.270974 1_554
Ho3 O15 2.299501 1_555
Ho3 O1 2.319419 1_555
Ho3 O7 2.324517 1_555
Ho3 O17 2.367807 1_555
Ho3 O8 2.379867 1_555
Ho3 O9 2.414640 1_555
Ho3 O6 2.461696 1_564
Mo0 O17 1.769557 1_565
Mo0 O12 1.772668 1_555
Mo0 O8 1.853169 1_555
Mo0 O6 1.869212 1_565
Mo0 O0 2.440997 1_555
Mo1 O16 1.769557 1_545
Mo1 O13 1.772668 1_555
Mo1 O9 1.853169 1_555
Mo1 O7 1.869212 1_545
Mo1 O1 2.440997 1_555
Mo2 O19 1.769557 1_546
Mo2 O14 1.772668 1_555
Mo2 O10 1.853169 1_555
Mo2 O4 1.869212 1_545
Mo2 O2 2.440997 1_555
Mo3 O18 1.769557 1_564
Mo3 O15 1.772668 1_555
Mo3 O11 1.853169 1_555
Mo3 O5 1.869212 1_565
Mo3 O3 2.440997 1_555
