# generated using pymatgen
data_Sm6Al43V4
_symmetry_space_group_name_H-M   'P 1'
_cell_length_a   11.05007291
_cell_length_b   11.05007291
_cell_length_c   17.76720997
_cell_angle_alpha   90.00000000
_cell_angle_beta   90.00000000
_cell_angle_gamma   119.99999817
_symmetry_Int_Tables_number   1
_chemical_formula_structural   Sm6Al43V4
_chemical_formula_sum   'Sm12 Al86 V8'
_cell_volume   1878.79831500
_cell_formula_units_Z   2
loop_
 _symmetry_equiv_pos_site_id
 _symmetry_equiv_pos_as_xyz
  1  'x, y, z'
loop_
 _atom_site_type_symbol
 _atom_site_label
 _atom_site_symmetry_multiplicity
 _atom_site_fract_x
 _atom_site_fract_y
 _atom_site_fract_z
 _atom_site_occupancy
  Sm  Sm0  1  0.47081795  0.47081795  0.90436679  1
  Sm  Sm1  1  0.52918205  0.52918205  0.09563321  1
  Sm  Sm2  1  0.00000000  0.52918205  0.90436679  1
  Sm  Sm3  1  0.52918205  0.52918205  0.40436679  1
  Sm  Sm4  1  0.00000000  0.52918205  0.59563321  1
  Sm  Sm5  1  1.00000000  0.47081795  0.09563321  1
  Sm  Sm6  1  0.47081795  0.47081795  0.59563321  1
  Sm  Sm7  1  1.00000000  0.47081795  0.40436679  1
  Sm  Sm8  1  0.52918205  0.00000000  0.90436679  1
  Sm  Sm9  1  0.47081795  1.00000000  0.09563321  1
  Sm  Sm10  1  0.47081795  1.00000000  0.40436679  1
  Sm  Sm11  1  0.52918205  0.00000000  0.59563321  1
  Al  Al0  1  0.85405790  0.45167012  0.75000000  1
  Al  Al1  1  0.14594210  0.54832988  0.25000000  1
  Al  Al2  1  0.59761222  0.14594210  0.75000000  1
  Al  Al3  1  0.40238778  0.54832988  0.75000000  1
  Al  Al4  1  0.40238778  0.85405790  0.25000000  1
  Al  Al5  1  0.59761222  0.45167012  0.25000000  1
  Al  Al6  1  0.54832988  0.40238778  0.75000000  1
  Al  Al7  1  0.45167012  0.85405790  0.75000000  1
  Al  Al8  1  0.45167012  0.59761222  0.25000000  1
  Al  Al9  1  0.54832988  0.14594210  0.25000000  1
  Al  Al10  1  0.14594210  0.59761222  0.75000000  1
  Al  Al11  1  0.85405790  0.40238778  0.25000000  1
  Al  Al12  1  0.84459928  0.84459928  0.38419516  1
  Al  Al13  1  0.15540072  0.15540072  0.61580484  1
  Al  Al14  1  0.00000000  0.15540072  0.38419516  1
  Al  Al15  1  0.15540072  0.15540072  0.88419516  1
  Al  Al16  1  0.00000000  0.15540072  0.11580484  1
  Al  Al17  1  1.00000000  0.84459928  0.61580484  1
  Al  Al18  1  0.84459928  0.84459928  0.11580484  1
  Al  Al19  1  1.00000000  0.84459928  0.88419516  1
  Al  Al20  1  0.15540072  0.00000000  0.38419516  1
  Al  Al21  1  0.84459928  1.00000000  0.61580484  1
  Al  Al22  1  0.84459928  1.00000000  0.88419516  1
  Al  Al23  1  0.15540072  0.00000000  0.11580484  1
  Al  Al24  1  0.75294446  0.24705554  -0.00000000  1
  Al  Al25  1  0.24705554  0.75294446  -0.00000000  1
  Al  Al26  1  0.49411108  0.24705554  -0.00000000  1
  Al  Al27  1  0.24705554  0.75294446  0.50000000  1
  Al  Al28  1  0.50588892  0.75294446  0.50000000  1
  Al  Al29  1  0.50588892  0.75294446  -0.00000000  1
  Al  Al30  1  0.75294446  0.24705554  0.50000000  1
  Al  Al31  1  0.49411108  0.24705554  0.50000000  1
  Al  Al32  1  0.75294446  0.50588892  -0.00000000  1
  Al  Al33  1  0.24705554  0.49411108  -0.00000000  1
  Al  Al34  1  0.24705554  0.49411108  0.50000000  1
  Al  Al35  1  0.75294446  0.50588892  0.50000000  1
  Al  Al36  1  0.85519243  0.85519243  0.75000000  1
  Al  Al37  1  0.14480757  0.14480757  0.25000000  1
  Al  Al38  1  0.00000000  0.14480757  0.75000000  1
  Al  Al39  1  1.00000000  0.85519243  0.25000000  1
  Al  Al40  1  0.14480757  0.00000000  0.75000000  1
  Al  Al41  1  0.85519243  1.00000000  0.25000000  1
  Al  Al42  1  0.66666700  0.33333300  0.87209501  1
  Al  Al43  1  0.33333300  0.66666700  0.12790499  1
  Al  Al44  1  0.33333300  0.66666700  0.37209501  1
  Al  Al45  1  0.33333300  0.66666700  0.62790499  1
  Al  Al46  1  0.66666700  0.33333300  0.62790499  1
  Al  Al47  1  0.66666700  0.33333300  0.37209501  1
  Al  Al48  1  0.66666700  0.33333300  0.12790499  1
  Al  Al49  1  0.33333300  0.66666700  0.87209501  1
  Al  Al50  1  0.74888542  0.74888542  0.97028036  1
  Al  Al51  1  0.25111458  0.25111458  0.02971964  1
  Al  Al52  1  0.00000000  0.25111458  0.97028036  1
  Al  Al53  1  0.25111458  0.25111458  0.47028036  1
  Al  Al54  1  0.00000000  0.25111458  0.52971964  1
  Al  Al55  1  1.00000000  0.74888542  0.02971964  1
  Al  Al56  1  0.74888542  0.74888542  0.52971964  1
  Al  Al57  1  1.00000000  0.74888542  0.47028036  1
  Al  Al58  1  0.25111458  0.00000000  0.97028036  1
  Al  Al59  1  0.74888542  1.00000000  0.02971964  1
  Al  Al60  1  0.74888542  1.00000000  0.47028036  1
  Al  Al61  1  0.25111458  0.00000000  0.52971964  1
  Al  Al62  1  0.84245877  0.23367510  0.83345774  1
  Al  Al63  1  0.15754123  0.76632490  0.16654226  1
  Al  Al64  1  0.39121633  0.15754123  0.83345774  1
  Al  Al65  1  0.15754123  0.76632490  0.33345774  1
  Al  Al66  1  0.60878367  0.76632490  0.66654226  1
  Al  Al67  1  0.60878367  0.84245877  0.16654226  1
  Al  Al68  1  0.84245877  0.23367510  0.66654226  1
  Al  Al69  1  0.39121633  0.23367510  0.33345774  1
  Al  Al70  1  0.76632490  0.60878367  0.83345774  1
  Al  Al71  1  0.60878367  0.84245877  0.33345774  1
  Al  Al72  1  0.23367510  0.84245877  0.66654226  1
  Al  Al73  1  0.23367510  0.39121633  0.16654226  1
  Al  Al74  1  0.39121633  0.15754123  0.66654226  1
  Al  Al75  1  0.76632490  0.15754123  0.33345774  1
  Al  Al76  1  0.39121633  0.23367510  0.16654226  1
  Al  Al77  1  0.60878367  0.76632490  0.83345774  1
  Al  Al78  1  0.23367510  0.39121633  0.33345774  1
  Al  Al79  1  0.76632490  0.15754123  0.16654226  1
  Al  Al80  1  0.76632490  0.60878367  0.66654226  1
  Al  Al81  1  0.23367510  0.84245877  0.83345774  1
  Al  Al82  1  0.15754123  0.39121633  0.66654226  1
  Al  Al83  1  0.84245877  0.60878367  0.33345774  1
  Al  Al84  1  0.84245877  0.60878367  0.16654226  1
  Al  Al85  1  0.15754123  0.39121633  0.83345774  1
  V  V0  1  0.00000000  0.00000000  -0.00000000  1
  V  V1  1  0.00000000  0.00000000  0.50000000  1
  V  V2  1  0.26813620  0.26813620  0.75000000  1
  V  V3  1  0.73186380  0.73186380  0.25000000  1
  V  V4  1  1.00000000  0.73186380  0.75000000  1
  V  V5  1  0.00000000  0.26813620  0.25000000  1
  V  V6  1  0.73186380  1.00000000  0.75000000  1
  V  V7  1  0.26813620  0.00000000  0.25000000  1
loop_
_geom_bond_atom_site_label_1
_geom_bond_atom_site_label_2
_geom_bond_distance
_geom_bond_site_symmetry_2
Sm0 Sm1 3.458927 1_556
Sm0 V2 3.540939 1_555
Sm1 V3 3.540939 1_555
Sm2 Sm5 3.458927 1_456
Sm2 V4 3.540939 1_455
Sm3 Sm6 3.458927 1_555
Sm3 V3 3.540939 1_555
Sm4 Sm7 3.458927 1_455
Sm4 V4 3.540939 1_455
Sm5 V5 3.540939 1_655
Sm6 V2 3.540939 1_555
Sm7 V5 3.540939 1_655
Sm8 Sm9 3.458927 1_546
Sm8 V6 3.540939 1_545
Sm9 V7 3.540939 1_565
Sm10 Sm11 3.458927 1_565
Sm10 V7 3.540939 1_565
Sm11 V6 3.540939 1_545
Al0 V4 2.682132 1_555
Al0 Al68 2.776512 1_555
Al0 Al62 2.776512 1_555
Al0 Al10 2.793228 1_655
Al0 Al80 2.799243 1_555
Al0 Al70 2.799243 1_555
Al0 Al42 2.827675 1_555
Al0 Al46 2.827675 1_555
Al0 Sm4 3.078193 1_655
Al0 Sm2 3.078193 1_655
Al1 V5 2.682132 1_555
Al1 Al63 2.776512 1_555
Al1 Al65 2.776512 1_555
Al1 Al11 2.793228 1_455
Al1 Al73 2.799243 1_555
Al1 Al78 2.799243 1_555
Al1 Al44 2.827675 1_555
Al1 Al43 2.827675 1_555
Al1 Sm5 3.078193 1_455
Al1 Sm7 3.078193 1_455
Al2 V6 2.682132 1_545
Al2 Al74 2.776512 1_555
Al2 Al64 2.776512 1_555
Al2 Al7 2.793228 1_545
Al2 Al68 2.799243 1_555
Al2 Al62 2.799243 1_555
Al2 Al42 2.827674 1_555
Al2 Al46 2.827674 1_555
Al2 Sm11 3.078193 1_555
Al2 Sm8 3.078193 1_555
Al3 V2 2.682132 1_555
Al3 Al66 2.776512 1_555
Al3 Al77 2.776512 1_555
Al3 Al6 2.793228 1_555
Al3 Al82 2.799243 1_555
Al3 Al85 2.799243 1_555
Al3 Al45 2.827681 1_555
Al3 Al49 2.827681 1_555
Al3 Sm6 3.078193 1_555
Al3 Sm0 3.078193 1_555
Al4 V7 2.682132 1_565
Al4 Al67 2.776512 1_555
Al4 Al71 2.776512 1_555
Al4 Al9 2.793228 1_565
Al4 Al65 2.799243 1_555
Al4 Al63 2.799243 1_555
Al4 Al44 2.827674 1_555
Al4 Al43 2.827674 1_555
Al4 Sm9 3.078193 1_555
Al4 Sm10 3.078193 1_555
Al5 V3 2.682132 1_555
Al5 Al69 2.776512 1_555
Al5 Al76 2.776512 1_555
Al5 Al8 2.793228 1_555
Al5 Al83 2.799243 1_555
Al5 Al84 2.799243 1_555
Al5 Sm1 3.078193 1_555
Al5 Sm3 3.078193 1_555
Al6 V2 2.682132 1_555
Al6 Al80 2.776512 1_555
Al6 Al70 2.776512 1_555
Al6 Al74 2.799243 1_555
Al6 Al64 2.799243 1_555
Al6 Sm6 3.078193 1_555
Al6 Sm0 3.078193 1_555
Al7 V6 2.682132 1_555
Al7 Al72 2.776512 1_555
Al7 Al81 2.776512 1_555
Al7 Al77 2.799243 1_555
Al7 Sm8 3.078193 1_565
Al7 Sm11 3.078193 1_565
Al8 V3 2.682132 1_555
Al8 Sm1 3.078193 1_555
Al8 Sm3 3.078193 1_555
Al9 V7 2.682132 1_555
Al9 Sm9 3.078193 1_545
Al9 Sm10 3.078193 1_545
Al10 V4 2.682132 1_455
Al10 Al82 2.776512 1_555
Al10 Al85 2.776512 1_555
Al10 Al72 2.799243 1_555
Al10 Al81 2.799243 1_555
Al10 Al49 2.827674 1_555
Al10 Al45 2.827674 1_555
Al10 Sm2 3.078193 1_555
Al10 Sm4 3.078193 1_555
Al11 V5 2.682132 1_655
Al11 Al84 2.776512 1_555
Al11 Al83 2.776512 1_555
Al11 Al75 2.799243 1_555
Al11 Al79 2.799243 1_555
Al11 Al47 2.827674 1_555
Al11 Al48 2.827674 1_555
Al11 Sm5 3.078193 1_555
Al11 Sm7 3.078193 1_555
Al12 V1 2.679956 1_665
Al12 V3 2.690096 1_555
Al12 Al83 2.746206 1_555
Al12 Al71 2.746206 1_555
Al12 Al56 2.793520 1_555
Al12 Al60 2.867557 1_555
Al12 Al57 2.867557 1_555
Al12 Al41 2.906234 1_555
Al12 Al39 2.906234 1_555
Al12 Al20 2.974259 1_665
Al12 Al14 2.974259 1_665
Al12 Sm3 3.503761 1_555
Al13 V1 2.679956 1_555
Al13 V2 2.690096 1_555
Al13 Al82 2.746206 1_555
Al13 Al74 2.746206 1_555
Al13 Al53 2.793520 1_555
Al13 Al61 2.867557 1_555
Al13 Al54 2.867557 1_555
Al13 Al40 2.906234 1_555
Al13 Al38 2.906234 1_555
Al13 Al17 2.974259 1_445
Al13 Al21 2.974259 1_445
Al13 Sm6 3.503761 1_555
Al14 V1 2.679956 1_555
Al14 V5 2.690096 1_555
Al14 Al75 2.746206 1_455
Al14 Al78 2.746206 1_555
Al14 Al54 2.793520 1_555
Al14 Al53 2.867557 1_555
Al14 Al60 2.867557 1_445
Al14 Al37 2.906234 1_555
Al14 Al41 2.906234 1_445
Al14 Al20 2.974259 1_555
Al14 Sm7 3.503761 1_455
Al15 V0 2.679956 1_556
Al15 V2 2.690096 1_555
Al15 Al85 2.746206 1_555
Al15 Al64 2.746206 1_555
Al15 Al51 2.793520 1_556
Al15 Al52 2.867557 1_555
Al15 Al58 2.867557 1_555
Al15 Al38 2.906234 1_555
Al15 Al40 2.906234 1_555
Al15 Al22 2.974259 1_445
Al15 Al19 2.974259 1_445
Al15 Sm0 3.503761 1_555
Al16 V0 2.679956 1_555
Al16 V5 2.690096 1_555
Al16 Al79 2.746206 1_455
Al16 Al73 2.746206 1_555
Al16 Al52 2.793520 1_554
Al16 Al51 2.867557 1_555
Al16 Al59 2.867557 1_445
Al16 Al37 2.906234 1_555
Al16 Al41 2.906234 1_445
Al16 Al23 2.974259 1_555
Al16 Al18 2.974259 1_445
Al16 Sm5 3.503761 1_455
Al17 V1 2.679956 1_665
Al17 V4 2.690096 1_555
Al17 Al72 2.746206 1_655
Al17 Al80 2.746206 1_555
Al17 Al57 2.793520 1_555
Al17 Al56 2.867557 1_555
Al17 Al61 2.867557 1_665
Al17 Al36 2.906234 1_555
Al17 Al40 2.906234 1_665
Al17 Al21 2.974259 1_555
Al17 Sm4 3.503761 1_655
Al18 V0 2.679956 1_665
Al18 V3 2.690096 1_555
Al18 Al84 2.746206 1_555
Al18 Al67 2.746206 1_555
Al18 Al50 2.793520 1_554
Al18 Al55 2.867557 1_555
Al18 Al59 2.867557 1_555
Al18 Al39 2.906234 1_555
Al18 Al41 2.906234 1_555
Al18 Al23 2.974259 1_665
Al18 Sm1 3.503761 1_555
Al19 V0 2.679956 1_666
Al19 V4 2.690096 1_555
Al19 Al81 2.746206 1_655
Al19 Al70 2.746206 1_555
Al19 Al55 2.793520 1_556
Al19 Al50 2.867557 1_555
Al19 Al58 2.867557 1_665
Al19 Al36 2.906234 1_555
Al19 Al40 2.906234 1_665
Al19 Al22 2.974259 1_555
Al19 Sm2 3.503761 1_655
Al20 V1 2.679956 1_555
Al20 V7 2.690096 1_555
Al20 Al65 2.746206 1_545
Al20 Al69 2.746206 1_555
Al20 Al61 2.793520 1_555
Al20 Al53 2.867557 1_555
Al20 Al57 2.867557 1_445
Al20 Al37 2.906234 1_555
Al20 Al39 2.906234 1_445
Al20 Sm10 3.503761 1_545
Al21 V1 2.679956 1_665
Al21 V6 2.690096 1_555
Al21 Al68 2.746206 1_565
Al21 Al66 2.746206 1_555
Al21 Al60 2.793520 1_555
Al21 Al56 2.867557 1_555
Al21 Al54 2.867557 1_665
Al21 Al36 2.906234 1_555
Al21 Al38 2.906234 1_665
Al21 Sm11 3.503761 1_565
Al22 V0 2.679956 1_666
Al22 V6 2.690096 1_555
Al22 Al62 2.746206 1_565
Al22 Al77 2.746206 1_555
Al22 Al59 2.793520 1_556
Al22 Al50 2.867557 1_555
Al22 Al52 2.867557 1_665
Al22 Al36 2.906234 1_555
Al22 Al38 2.906234 1_665
Al22 Sm8 3.503761 1_565
Al23 V0 2.679956 1_555
Al23 V7 2.690096 1_555
Al23 Al63 2.746206 1_545
Al23 Al76 2.746206 1_555
Al23 Al58 2.793520 1_554
Al23 Al51 2.867557 1_555
Al23 Al55 2.867557 1_445
Al23 Al37 2.906234 1_555
Al23 Al39 2.906234 1_445
Al23 Sm9 3.503761 1_545
Al24 Al52 2.758838 1_654
Al24 Al59 2.758838 1_545
Al24 Al42 2.809106 1_554
Al24 Al48 2.809106 1_555
Al24 Al26 2.860128 1_555
Al24 Al32 2.860128 1_555
Al24 Sm5 3.115034 1_555
Al24 Sm8 3.115034 1_554
Al24 Al62 3.146766 1_554
Al24 Al79 3.146766 1_555
Al24 Sm2 3.398237 1_654
Al24 Sm9 3.398237 1_545
Al25 Al58 2.758838 1_564
Al25 Al55 2.758838 1_455
Al25 Al49 2.809106 1_554
Al25 Al43 2.809106 1_555
Al25 Al29 2.860128 1_555
Al25 Al33 2.860128 1_555
Al25 Sm9 3.115034 1_555
Al25 Sm2 3.115034 1_554
Al25 Al81 3.146766 1_554
Al25 Al63 3.146766 1_555
Al25 Sm8 3.398237 1_564
Al25 Sm5 3.398237 1_455
Al26 Al51 2.758838 1_555
Al26 Al58 2.758838 1_554
Al26 Al42 2.809112 1_554
Al26 Al48 2.809112 1_555
Al26 Al32 2.860128 1_555
Al26 Sm0 3.115034 1_554
Al26 Sm9 3.115034 1_545
Al26 Al76 3.146766 1_555
Al26 Al64 3.146766 1_554
Al26 Sm8 3.398237 1_554
Al26 Sm1 3.398237 1_555
Al27 Al61 2.758838 1_565
Al27 Al57 2.758838 1_455
Al27 Al45 2.809106 1_555
Al27 Al44 2.809106 1_555
Al27 Al34 2.860128 1_555
Al27 Al28 2.860128 1_555
Al27 Sm10 3.115034 1_555
Al27 Sm4 3.115034 1_555
Al27 Al65 3.146766 1_555
Al27 Al72 3.146766 1_555
Al27 Sm11 3.398237 1_565
Al27 Sm7 3.398237 1_455
Al28 Al56 2.758838 1_555
Al28 Al60 2.758838 1_555
Al28 Al45 2.809112 1_555
Al28 Al44 2.809112 1_555
Al28 Al34 2.860128 1_555
Al28 Sm3 3.115034 1_555
Al28 Sm11 3.115034 1_565
Al28 Al66 3.146766 1_555
Al28 Al71 3.146766 1_555
Al28 Sm10 3.398237 1_555
Al28 Sm6 3.398237 1_555
Al29 Al50 2.758838 1_554
Al29 Al59 2.758838 1_555
Al29 Al49 2.809112 1_554
Al29 Al43 2.809112 1_555
Al29 Al33 2.860128 1_555
Al29 Sm1 3.115034 1_555
Al29 Sm8 3.115034 1_564
Al29 Al77 3.146766 1_554
Al29 Al67 3.146766 1_555
Al29 Sm9 3.398237 1_555
Al29 Sm0 3.398237 1_554
Al30 Al54 2.758838 1_655
Al30 Al60 2.758838 1_545
Al30 Al46 2.809106 1_555
Al30 Al47 2.809106 1_555
Al30 Al31 2.860128 1_555
Al30 Al35 2.860128 1_555
Al30 Sm7 3.115034 1_555
Al30 Sm11 3.115034 1_555
Al30 Al75 3.146766 1_555
Al30 Al68 3.146766 1_555
Al30 Sm4 3.398237 1_655
Al30 Sm10 3.398237 1_545
Al31 Al53 2.758838 1_555
Al31 Al61 2.758838 1_555
Al31 Al47 2.809112 1_555
Al31 Al46 2.809112 1_555
Al31 Al35 2.860128 1_555
Al31 Sm6 3.115034 1_555
Al31 Sm10 3.115034 1_545
Al31 Al69 3.146766 1_555
Al31 Al74 3.146766 1_555
Al31 Sm11 3.398237 1_555
Al31 Sm3 3.398237 1_555
Al32 Al50 2.758838 1_554
Al32 Al55 2.758838 1_555
Al32 Al42 2.809112 1_554
Al32 Al48 2.809112 1_555
Al32 Sm1 3.115034 1_555
Al32 Sm2 3.115034 1_654
Al32 Al70 3.146766 1_554
Al32 Al84 3.146766 1_555
Al32 Sm5 3.398237 1_555
Al32 Sm0 3.398237 1_554
Al33 Al51 2.758838 1_555
Al33 Al52 2.758838 1_554
Al33 Al49 2.809112 1_554
Al33 Al43 2.809112 1_555
Al33 Sm0 3.115034 1_554
Al33 Sm5 3.115034 1_455
Al33 Al73 3.146766 1_555
Al33 Al85 3.146766 1_554
Al33 Sm2 3.398237 1_554
Al33 Sm1 3.398237 1_555
Al34 Al53 2.758838 1_555
Al34 Al54 2.758838 1_555
Al34 Al45 2.809112 1_555
Al34 Al44 2.809112 1_555
Al34 Sm6 3.115034 1_555
Al34 Sm7 3.115034 1_455
Al34 Al78 3.146766 1_555
Al34 Al82 3.146766 1_555
Al34 Sm4 3.398237 1_555
Al34 Sm3 3.398237 1_555
Al35 Al56 2.758838 1_555
Al35 Al57 2.758838 1_555
Al35 Al47 2.809112 1_555
Al35 Al46 2.809112 1_555
Al35 Sm3 3.115034 1_555
Al35 Sm4 3.115034 1_655
Al35 Al80 3.146766 1_555
Al35 Al83 3.146766 1_555
Al35 Sm7 3.398237 1_555
Al35 Sm6 3.398237 1_555
Al36 V6 2.568711 1_555
Al36 V4 2.568711 1_555
Al36 Al40 2.771514 1_665
Al36 Al38 2.771514 1_665
Al36 Al66 2.811239 1_555
Al36 Al80 2.811239 1_555
Al36 Al70 2.811239 1_555
Al36 Al77 2.811239 1_555
Al37 V5 2.568711 1_555
Al37 V7 2.568711 1_555
Al37 Al39 2.771514 1_445
Al37 Al41 2.771514 1_445
Al37 Al78 2.811239 1_555
Al37 Al69 2.811239 1_555
Al37 Al76 2.811239 1_555
Al37 Al73 2.811239 1_555
Al38 V2 2.568711 1_555
Al38 V6 2.568711 1_445
Al38 Al40 2.771514 1_555
Al38 Al68 2.811239 1_455
Al38 Al62 2.811239 1_455
Al38 Al82 2.811239 1_555
Al38 Al85 2.811239 1_555
Al39 V3 2.568711 1_555
Al39 V7 2.568711 1_665
Al39 Al41 2.771514 1_555
Al39 Al63 2.811239 1_655
Al39 Al65 2.811239 1_655
Al39 Al83 2.811239 1_555
Al39 Al84 2.811239 1_555
Al40 V2 2.568711 1_555
Al40 V4 2.568711 1_445
Al40 Al72 2.811239 1_545
Al40 Al81 2.811239 1_545
Al40 Al74 2.811239 1_555
Al40 Al64 2.811239 1_555
Al41 V3 2.568711 1_555
Al41 V5 2.568711 1_665
Al41 Al79 2.811239 1_565
Al41 Al75 2.811239 1_565
Al41 Al67 2.811239 1_555
Al41 Al71 2.811239 1_555
Al42 Al62 2.756166 1_555
Al42 Al64 2.756174 1_555
Al42 Al70 2.756176 1_555
Al42 Al6 2.827681 1_555
Al42 Sm8 3.257003 1_555
Al42 Sm2 3.257004 1_655
Al42 Sm0 3.257012 1_555
Al43 Al63 2.756166 1_555
Al43 Al67 2.756174 1_555
Al43 Al73 2.756176 1_555
Al43 Al8 2.827681 1_555
Al43 Sm9 3.257003 1_555
Al43 Sm5 3.257004 1_455
Al43 Sm1 3.257012 1_555
Al44 Al65 2.756166 1_555
Al44 Al71 2.756174 1_555
Al44 Al78 2.756176 1_555
Al44 Al8 2.827681 1_555
Al44 Sm10 3.257003 1_555
Al44 Sm7 3.257004 1_455
Al44 Sm3 3.257012 1_555
Al45 Al72 2.756166 1_555
Al45 Al82 2.756174 1_555
Al45 Al66 2.756176 1_555
Al45 Al7 2.827675 1_555
Al45 Sm4 3.257003 1_555
Al45 Sm11 3.257004 1_565
Al45 Sm6 3.257012 1_555
Al46 Al68 2.756166 1_555
Al46 Al74 2.756174 1_555
Al46 Al80 2.756176 1_555
Al46 Al6 2.827681 1_555
Al46 Sm11 3.257003 1_555
Al46 Sm4 3.257004 1_655
Al46 Sm6 3.257012 1_555
Al47 Al75 2.756166 1_555
Al47 Al83 2.756174 1_555
Al47 Al69 2.756176 1_555
Al47 Al9 2.827675 1_555
Al47 Al5 2.827681 1_555
Al47 Sm7 3.257003 1_555
Al47 Sm10 3.257004 1_545
Al47 Sm3 3.257012 1_555
Al48 Al79 2.756166 1_555
Al48 Al84 2.756174 1_555
Al48 Al76 2.756176 1_555
Al48 Al9 2.827675 1_555
Al48 Al5 2.827681 1_555
Al48 Sm5 3.257003 1_555
Al48 Sm9 3.257004 1_545
Al48 Sm1 3.257012 1_555
Al49 Al81 2.756166 1_555
Al49 Al85 2.756174 1_555
Al49 Al77 2.756176 1_555
Al49 Al7 2.827675 1_555
Al49 Sm2 3.257003 1_555
Al49 Sm8 3.257004 1_565
Al49 Sm0 3.257012 1_555
Al50 V0 2.824629 1_666
Al50 Al70 2.939684 1_555
Al50 Al77 2.939684 1_555
Al50 Al55 2.969005 1_556
Al50 Al59 2.969005 1_556
Al50 Sm0 3.288275 1_555
Al50 Sm1 3.294572 1_556
Al51 V0 2.824629 1_555
Al51 Al76 2.939684 1_555
Al51 Al73 2.939684 1_555
Al51 Al52 2.969005 1_554
Al51 Al58 2.969005 1_554
Al51 Sm1 3.288275 1_555
Al51 Sm0 3.294572 1_554
Al52 V0 2.824629 1_556
Al52 Al62 2.939684 1_455
Al52 Al85 2.939684 1_555
Al52 Al59 2.969005 1_446
Al52 Sm2 3.288275 1_555
Al52 Sm5 3.294571 1_456
Al53 V1 2.824629 1_555
Al53 Al78 2.939684 1_555
Al53 Al69 2.939684 1_555
Al53 Al61 2.969005 1_555
Al53 Al54 2.969005 1_555
Al53 Sm3 3.288275 1_555
Al53 Sm6 3.294572 1_555
Al54 V1 2.824629 1_555
Al54 Al68 2.939684 1_455
Al54 Al82 2.939684 1_555
Al54 Al60 2.969005 1_445
Al54 Sm4 3.288275 1_555
Al54 Sm7 3.294571 1_455
Al55 V0 2.824629 1_665
Al55 Al63 2.939684 1_655
Al55 Al84 2.939684 1_555
Al55 Al58 2.969005 1_664
Al55 Sm5 3.288275 1_555
Al55 Sm2 3.294571 1_654
Al56 V1 2.824629 1_665
Al56 Al80 2.939684 1_555
Al56 Al66 2.939684 1_555
Al56 Al60 2.969005 1_555
Al56 Al57 2.969005 1_555
Al56 Sm6 3.288275 1_555
Al56 Sm3 3.294572 1_555
Al57 V1 2.824629 1_665
Al57 Al65 2.939684 1_655
Al57 Al83 2.939684 1_555
Al57 Al61 2.969005 1_665
Al57 Sm7 3.288275 1_555
Al57 Sm4 3.294571 1_655
Al58 V0 2.824629 1_556
Al58 Al81 2.939684 1_545
Al58 Al64 2.939684 1_555
Al58 Sm8 3.288275 1_555
Al58 Sm9 3.294571 1_546
Al59 V0 2.824629 1_665
Al59 Al79 2.939684 1_565
Al59 Al67 2.939684 1_555
Al59 Sm9 3.288275 1_555
Al59 Sm8 3.294571 1_564
Al60 V1 2.824629 1_665
Al60 Al75 2.939684 1_565
Al60 Al71 2.939684 1_555
Al60 Sm10 3.288275 1_555
Al60 Sm11 3.294571 1_565
Al61 V1 2.824629 1_555
Al61 Al72 2.939684 1_545
Al61 Al74 2.939684 1_555
Al61 Sm11 3.288275 1_555
Al61 Sm10 3.294571 1_545
Al62 V6 2.684031 1_545
Al62 Al68 2.965622 1_555
Al62 Al85 3.015227 1_655
Al62 Sm2 3.097730 1_655
Al62 Sm8 3.361483 1_555
Al63 V7 2.684031 1_565
Al63 Al65 2.965622 1_555
Al63 Al84 3.015227 1_455
Al63 Sm5 3.097730 1_455
Al63 Sm9 3.361483 1_555
Al64 V2 2.684031 1_555
Al64 Al74 2.965622 1_555
Al64 Al81 3.015227 1_545
Al64 Sm8 3.097730 1_555
Al64 Sm0 3.361483 1_555
Al65 V7 2.684031 1_565
Al65 Al83 3.015227 1_455
Al65 Sm7 3.097730 1_455
Al65 Sm10 3.361483 1_555
Al66 V6 2.684031 1_555
Al66 Al7 2.799243 1_555
Al66 Al77 2.965622 1_555
Al66 Al80 3.015227 1_555
Al66 Sm6 3.097730 1_555
Al66 Sm11 3.361483 1_565
Al67 V3 2.684031 1_555
Al67 Al8 2.799243 1_555
Al67 Al71 2.965622 1_555
Al67 Al79 3.015227 1_565
Al67 Sm9 3.097730 1_555
Al67 Sm1 3.361483 1_555
Al68 V6 2.684031 1_545
Al68 Al82 3.015227 1_655
Al68 Sm4 3.097730 1_655
Al68 Sm11 3.361483 1_555
Al69 V7 2.684031 1_555
Al69 Al9 2.799243 1_555
Al69 Al76 2.965622 1_555
Al69 Al78 3.015227 1_555
Al69 Sm3 3.097730 1_555
Al69 Sm10 3.361483 1_545
Al70 V4 2.684031 1_555
Al70 Al80 2.965622 1_555
Al70 Al77 3.015227 1_555
Al70 Sm0 3.097730 1_555
Al70 Sm2 3.361483 1_655
Al71 V3 2.684031 1_555
Al71 Al8 2.799243 1_555
Al71 Al75 3.015227 1_565
Al71 Sm10 3.097730 1_555
Al71 Sm3 3.361483 1_555
Al72 V4 2.684031 1_455
Al72 Al81 2.965622 1_555
Al72 Al74 3.015227 1_565
Al72 Sm11 3.097730 1_565
Al72 Sm4 3.361483 1_555
Al73 V5 2.684031 1_555
Al73 Al8 2.776512 1_555
Al73 Al78 2.965622 1_555
Al73 Al76 3.015227 1_555
Al73 Sm1 3.097730 1_555
Al73 Sm5 3.361483 1_455
Al74 V2 2.684031 1_555
Al74 Sm11 3.097730 1_555
Al74 Sm6 3.361483 1_555
Al75 V5 2.684031 1_655
Al75 Al9 2.776512 1_555
Al75 Al79 2.965622 1_555
Al75 Sm10 3.097730 1_545
Al75 Sm7 3.361483 1_555
Al76 V7 2.684031 1_555
Al76 Al9 2.799243 1_555
Al76 Sm1 3.097730 1_555
Al76 Sm9 3.361483 1_545
Al77 V6 2.684031 1_555
Al77 Sm0 3.097730 1_555
Al77 Sm8 3.361483 1_565
Al78 V5 2.684031 1_555
Al78 Al8 2.776512 1_555
Al78 Sm3 3.097730 1_555
Al78 Sm7 3.361483 1_455
Al79 V5 2.684031 1_655
Al79 Al9 2.776512 1_555
Al79 Sm9 3.097730 1_545
Al79 Sm5 3.361483 1_555
Al80 V4 2.684031 1_555
Al80 Sm6 3.097730 1_555
Al80 Sm4 3.361483 1_655
Al81 V4 2.684031 1_455
Al81 Sm8 3.097730 1_565
Al81 Sm2 3.361483 1_555
Al82 V2 2.684031 1_555
Al82 Al85 2.965622 1_555
Al82 Sm4 3.097730 1_555
Al82 Sm6 3.361483 1_555
Al83 V3 2.684031 1_555
Al83 Al84 2.965622 1_555
Al83 Sm7 3.097730 1_555
Al83 Sm3 3.361483 1_555
Al84 V3 2.684031 1_555
Al84 Sm5 3.097730 1_555
Al84 Sm1 3.361483 1_555
Al85 V2 2.684031 1_555
Al85 Sm2 3.097730 1_555
Al85 Sm0 3.361483 1_555
