# generated using pymatgen
data_Ho(Ni2P)2
_symmetry_space_group_name_H-M   'P 1'
_cell_length_a   7.04717882
_cell_length_b   7.04717941
_cell_length_c   3.55441484
_cell_angle_alpha   90.00000000
_cell_angle_beta   90.00000000
_cell_angle_gamma   89.99991748
_symmetry_Int_Tables_number   1
_chemical_formula_structural   Ho(Ni2P)2
_chemical_formula_sum   'Ho2 Ni8 P4'
_cell_volume   176.52195687
_cell_formula_units_Z   2
loop_
 _symmetry_equiv_pos_site_id
 _symmetry_equiv_pos_as_xyz
  1  'x, y, z'
loop_
 _atom_site_type_symbol
 _atom_site_label
 _atom_site_symmetry_multiplicity
 _atom_site_fract_x
 _atom_site_fract_y
 _atom_site_fract_z
 _atom_site_occupancy
  Ho  Ho0  1  0.50000515  0.50000177  0.00000000  1
  Ho  Ho1  1  0.99999492  -0.00000004  0.50000000  1
  Ni  Ni0  1  0.58409214  0.16395341  0.50000000  1
  Ni  Ni1  1  0.41591707  0.83604965  0.50000000  1
  Ni  Ni2  1  0.08398898  0.33625582  0.00000000  1
  Ni  Ni3  1  0.91599806  0.66374557  -0.00000000  1
  Ni  Ni4  1  0.16373881  0.58399202  0.50000000  1
  Ni  Ni5  1  0.83626249  0.41600749  0.50000000  1
  Ni  Ni6  1  0.33604174  0.08408904  0.00000000  1
  Ni  Ni7  1  0.66396141  0.91590604  -0.00000000  1
  P  P0  1  0.72052666  0.72043519  0.50000000  1
  P  P1  1  0.27947324  0.27956424  0.50000000  1
  P  P2  1  0.22043169  0.77947637  0.00000000  1
  P  P3  1  0.77956665  0.22052243  0.00000000  1
loop_
_geom_bond_atom_site_label_1
_geom_bond_atom_site_label_2
_geom_bond_distance
_geom_bond_site_symmetry_2
Ho0 P3 2.785759 1_555
Ho0 P2 2.785795 1_555
Ho0 P0 2.826078 1_555
Ho0 P0 2.826078 1_554
Ho0 P1 2.826134 1_554
Ho0 P1 2.826134 1_555
Ho1 P0 2.785724 1_545
Ho1 P1 2.785772 1_655
Ho1 P3 2.826059 1_555
Ho1 P3 2.826059 1_556
Ho1 P2 2.826096 1_645
Ho1 P2 2.826096 1_646
Ni0 P3 2.283641 1_555
Ni0 P3 2.283641 1_556
Ni0 P1 2.296109 1_555
Ni1 P2 2.283693 1_556
Ni1 P2 2.283693 1_555
Ni1 P0 2.296057 1_555
Ni2 P1 2.283833 1_555
Ni2 P1 2.283833 1_554
Ni2 P3 2.295123 1_455
Ni3 P0 2.283776 1_555
Ni3 P0 2.283776 1_554
Ni3 P2 2.295191 1_655
Ni4 P2 2.283836 1_556
Ni4 P2 2.283836 1_555
Ni4 P1 2.295160 1_555
Ni5 P3 2.283843 1_555
Ni5 P3 2.283843 1_556
Ni5 P0 2.295163 1_555
Ni6 P1 2.283643 1_555
Ni6 P1 2.283643 1_554
Ni6 P2 2.296069 1_545
Ni7 P0 2.283621 1_555
Ni7 P0 2.283621 1_554
Ni7 P3 2.296081 1_565
