# generated using pymatgen
data_RbTa(CuSe2)2
_symmetry_space_group_name_H-M   'P 1'
_cell_length_a   10.25263169
_cell_length_b   10.25263169
_cell_length_c   7.86322100
_cell_angle_alpha   90.00000000
_cell_angle_beta   90.00000000
_cell_angle_gamma   147.42863826
_symmetry_Int_Tables_number   1
_chemical_formula_structural   RbTa(CuSe2)2
_chemical_formula_sum   'Rb2 Ta2 Cu4 Se8'
_cell_volume   444.97500463
_cell_formula_units_Z   2
loop_
 _symmetry_equiv_pos_site_id
 _symmetry_equiv_pos_as_xyz
  1  'x, y, z'
loop_
 _atom_site_type_symbol
 _atom_site_label
 _atom_site_symmetry_multiplicity
 _atom_site_fract_x
 _atom_site_fract_y
 _atom_site_fract_z
 _atom_site_occupancy
  Rb  Rb0  1  0.48563000  0.11794600  0.75000000  1
  Rb  Rb1  1  0.11794600  0.48563000  0.25000000  1
  Ta  Ta0  1  0.43859600  0.65065100  0.75000000  1
  Ta  Ta1  1  0.65065100  0.43859600  0.25000000  1
  Cu  Cu0  1  0.55899200  0.55899200  0.50000000  1
  Cu  Cu1  1  0.55899200  0.55899200  0.00000000  1
  Cu  Cu2  1  0.14833100  0.93983500  0.25000000  1
  Cu  Cu3  1  0.93983500  0.14833100  0.75000000  1
  Se  Se0  1  0.09033600  0.50101800  0.75000000  1
  Se  Se1  1  0.30224700  0.29617500  0.25000000  1
  Se  Se2  1  0.89594700  0.68643900  0.99722900  1
  Se  Se3  1  0.68643900  0.89594700  0.00277100  1
  Se  Se4  1  0.89594700  0.68643900  0.50277100  1
  Se  Se5  1  0.68643900  0.89594700  0.49722900  1
  Se  Se6  1  0.29617500  0.30224700  0.75000000  1
  Se  Se7  1  0.50101800  0.09033600  0.25000000  1
loop_
_geom_bond_atom_site_label_1
_geom_bond_atom_site_label_2
_geom_bond_distance
_geom_bond_site_symmetry_2
Rb0 Se0 3.580906 1_655
Rb0 Se0 3.636896 1_545
Rb0 Se6 3.678256 1_555
Rb0 Se2 3.757927 1_555
Rb0 Se4 3.757927 1_555
Rb0 Se4 3.850022 1_445
Rb0 Se2 3.850022 1_445
Rb0 Se7 3.954473 1_556
Rb0 Se7 3.954473 1_555
Rb1 Se7 3.580906 1_565
Rb1 Se7 3.636896 1_455
Rb1 Se1 3.678256 1_555
Rb1 Se5 3.757927 1_555
Rb1 Se3 3.757927 1_555
Rb1 Se3 3.850022 1_445
Rb1 Se5 3.850022 1_445
Rb1 Se0 3.954473 1_555
Rb1 Se0 3.954473 1_554
Cu0 Se5 2.456493 1_555
Cu0 Se4 2.456493 1_555
Cu0 Se6 2.469696 1_555
Cu0 Se1 2.469696 1_555
Cu1 Se3 2.456493 1_555
Cu1 Se2 2.456493 1_554
Cu1 Se6 2.469696 1_554
Cu1 Se1 2.469696 1_555
Cu2 Se7 2.460114 1_565
Cu2 Se4 2.462774 1_455
Cu2 Se2 2.462774 1_454
Cu2 Se1 2.474005 1_565
Cu3 Se0 2.460114 1_655
Cu3 Se5 2.462774 1_545
Cu3 Se3 2.462774 1_546
Cu3 Se6 2.474005 1_655
Se0 Ta0 2.422847 1_555
Se1 Ta1 2.469955 1_555
Se2 Ta1 2.441598 1_556
Se3 Ta0 2.441598 1_554
Se4 Ta1 2.441598 1_555
Se5 Ta0 2.441598 1_555
Se6 Ta0 2.469955 1_555
Se7 Ta1 2.422847 1_555
