# generated using pymatgen
data_Ba8SrCa3(WO6)4
_symmetry_space_group_name_H-M   'P 1'
_cell_length_a   6.03843000
_cell_length_b   10.51053530
_cell_length_c   10.51126392
_cell_angle_alpha   99.92085130
_cell_angle_beta   106.44914157
_cell_angle_gamma   89.53489242
_symmetry_Int_Tables_number   1
_chemical_formula_structural   Ba8SrCa3(WO6)4
_chemical_formula_sum   'Ba8 Sr1 Ca3 W4 O24'
_cell_volume   629.66395740
_cell_formula_units_Z   1
loop_
 _symmetry_equiv_pos_site_id
 _symmetry_equiv_pos_as_xyz
  1  'x, y, z'
loop_
 _atom_site_type_symbol
 _atom_site_label
 _atom_site_symmetry_multiplicity
 _atom_site_fract_x
 _atom_site_fract_y
 _atom_site_fract_z
 _atom_site_occupancy
  Ba  Ba0  1  0.43999300  0.80813300  0.87213900  1
  Ba  Ba1  1  0.19168900  0.06164300  0.37676100  1
  Ba  Ba2  1  0.94003000  0.31351000  0.87316200  1
  Ba  Ba3  1  0.69003100  0.56140800  0.37435100  1
  Ba  Ba4  1  0.30996900  0.43859200  0.62564900  1
  Ba  Ba5  1  0.05997000  0.68649000  0.12683800  1
  Ba  Ba6  1  0.80831100  0.93835700  0.62323900  1
  Ba  Ba7  1  0.56000700  0.19186700  0.12786100  1
  Sr  Sr0  1  0.00000000  0.00000000  0.00000000  1
  Ca  Ca0  1  0.74963300  0.24959100  0.49913100  1
  Ca  Ca1  1  0.50000000  0.50000000  0.00000000  1
  Ca  Ca2  1  0.25036700  0.75040900  0.50086900  1
  W  W0  1  0.87402400  0.62268100  0.74828300  1
  W  W1  1  0.62665800  0.87351600  0.25299700  1
  W  W2  1  0.37334200  0.12648400  0.74700300  1
  W  W3  1  0.12597600  0.37731900  0.25171700  1
  O  O0  1  0.92139100  0.30986800  0.34291800  1
  O  O1  1  0.66981800  0.55694500  0.84162800  1
  O  O2  1  0.42076800  0.80751800  0.34451600  1
  O  O3  1  0.16798200  0.06103500  0.83613900  1
  O  O4  1  0.19027900  0.53706100  0.38615800  1
  O  O5  1  0.93755400  0.77913800  0.88411800  1
  O  O6  1  0.69061100  0.03432000  0.38788900  1
  O  O7  1  0.43981200  0.28592100  0.88404000  1
  O  O8  1  0.86041400  0.45545900  0.13878300  1
  O  O9  1  0.61047100  0.70263700  0.63724700  1
  O  O10  1  0.37034000  0.95473500  0.14202800  1
  O  O11  1  0.10957300  0.20568500  0.63469200  1
  O  O12  1  0.33018200  0.44305500  0.15837200  1
  O  O13  1  0.07860900  0.69013200  0.65708200  1
  O  O14  1  0.83201800  0.93896500  0.16386100  1
  O  O15  1  0.57923200  0.19248200  0.65548400  1
  O  O16  1  0.06244600  0.22086200  0.11588200  1
  O  O17  1  0.80972100  0.46293900  0.61384200  1
  O  O18  1  0.56018800  0.71407900  0.11596000  1
  O  O19  1  0.30938900  0.96568000  0.61211100  1
  O  O20  1  0.38952900  0.29736300  0.36275300  1
  O  O21  1  0.13958600  0.54454100  0.86121700  1
  O  O22  1  0.89042700  0.79431500  0.36530800  1
  O  O23  1  0.62966000  0.04526500  0.85797200  1
loop_
_geom_bond_atom_site_label_1
_geom_bond_atom_site_label_2
_geom_bond_distance
_geom_bond_site_symmetry_2
Ba0 O13 2.773877 1_555
Ba0 O23 2.795830 1_565
Ba0 O18 2.807173 1_556
Ba0 O9 2.977036 1_555
Ba0 O1 2.983261 1_555
Ba0 O5 2.986601 1_555
Ba0 O5 3.091621 1_455
Ba0 O10 3.123781 1_556
Ba0 O3 3.135356 1_565
Ba0 O21 3.291415 1_555
Ba0 O19 3.339471 1_555
Ba0 O14 3.374364 1_556
Ba1 O19 2.737640 1_545
Ba1 O14 2.772392 1_445
Ba1 O20 2.803648 1_555
Ba1 O6 2.995080 1_555
Ba1 O10 3.007744 1_545
Ba1 O2 3.009338 1_545
Ba1 O11 3.036979 1_555
Ba1 O6 3.078519 1_455
Ba1 O0 3.085312 1_455
Ba1 O15 3.275973 1_555
Ba1 O22 3.325801 1_445
Ba1 O16 3.358145 1_555
Ba2 O21 2.757261 1_655
Ba2 O16 2.789282 1_656
Ba2 O15 2.796237 1_555
Ba2 O3 2.996028 1_655
Ba2 O7 3.001111 1_655
Ba2 O11 3.011853 1_655
Ba2 O1 3.039232 1_555
Ba2 O7 3.072785 1_555
Ba2 O8 3.092826 1_556
Ba2 O17 3.279659 1_555
Ba2 O12 3.322258 1_656
Ba2 O23 3.353824 1_555
Ba3 O22 2.767549 1_555
Ba3 O12 2.774883 1_555
Ba3 O17 2.790303 1_555
Ba3 O8 2.983919 1_555
Ba3 O0 2.991848 1_555
Ba3 O4 2.998612 1_655
Ba3 O2 3.058712 1_555
Ba3 O9 3.065497 1_555
Ba3 O4 3.069705 1_555
Ba3 O18 3.292677 1_555
Ba3 O20 3.293847 1_555
Ba3 O13 3.299244 1_655
Ba4 O11 2.767549 1_555
Ba4 O1 2.774883 1_555
Ba4 O4 2.790303 1_555
Ba4 O21 2.983919 1_555
Ba4 O13 2.991848 1_555
Ba4 O17 2.998612 1_455
Ba4 O15 3.058712 1_555
Ba4 O20 3.065497 1_555
Ba4 O17 3.069705 1_555
Ba4 O7 3.292677 1_555
Ba4 O9 3.293847 1_555
Ba4 O0 3.299244 1_455
Ba5 O8 2.757261 1_455
Ba5 O5 2.789282 1_454
Ba5 O2 2.796237 1_555
Ba5 O14 2.996028 1_455
Ba5 O18 3.001111 1_455
Ba5 O22 3.011853 1_455
Ba5 O12 3.039232 1_555
Ba5 O18 3.072785 1_555
Ba5 O21 3.092826 1_554
Ba5 O4 3.279659 1_555
Ba5 O1 3.322258 1_454
Ba5 O10 3.353824 1_555
Ba6 O6 2.737640 1_565
Ba6 O3 2.772392 1_665
Ba6 O9 2.803648 1_555
Ba6 O19 2.995080 1_555
Ba6 O23 3.007744 1_565
Ba6 O15 3.009338 1_565
Ba6 O22 3.036979 1_555
Ba6 O19 3.078519 1_655
Ba6 O13 3.085312 1_655
Ba6 O2 3.275973 1_555
Ba6 O11 3.325801 1_665
Ba6 O5 3.358145 1_555
Ba7 O0 2.773877 1_555
Ba7 O10 2.795830 1_545
Ba7 O7 2.807173 1_554
Ba7 O20 2.977036 1_555
Ba7 O12 2.983261 1_555
Ba7 O16 2.986601 1_555
Ba7 O16 3.091621 1_655
Ba7 O23 3.123781 1_554
Ba7 O14 3.135356 1_545
Ba7 O8 3.291415 1_555
Ba7 O6 3.339471 1_555
Ba7 O3 3.374364 1_554
Ca0 O11 2.328884 1_655
Ca0 O15 2.329735 1_555
Ca0 O17 2.334021 1_555
Ca0 O6 2.340757 1_555
Ca0 O20 2.345277 1_555
Ca0 O0 2.346653 1_555
Ca1 O7 2.344786 1_554
Ca1 O18 2.344786 1_555
Ca1 O12 2.345412 1_555
Ca1 O1 2.345412 1_554
Ca1 O21 2.346156 1_554
Ca1 O8 2.346156 1_555
Ca2 O22 2.328884 1_455
Ca2 O2 2.329735 1_555
Ca2 O4 2.334021 1_555
Ca2 O19 2.340757 1_555
Ca2 O9 2.345277 1_555
Ca2 O13 2.346653 1_555
O0 W3 1.966424 1_655
O1 W0 1.973113 1_555
O2 W1 1.968127 1_555
O3 W2 1.944917 1_555
O3 Sr0 2.405780 1_556
O4 W3 1.961883 1_555
O5 W0 1.944474 1_555
O5 Sr0 2.407165 1_666
O6 W1 1.972523 1_545
O7 W2 1.973802 1_555
O8 W3 1.972727 1_655
O9 W0 1.966081 1_555
O10 W1 1.945267 1_555
O10 Sr0 2.406815 1_565
O11 W2 1.968682 1_555
O12 W3 1.973113 1_555
O13 W0 1.966424 1_455
O14 W1 1.944917 1_555
O14 Sr0 2.405780 1_665
O15 W2 1.968127 1_555
O16 W3 1.944474 1_555
O16 Sr0 2.407165 1_555
O17 W0 1.961883 1_555
O18 W1 1.973802 1_555
O19 W2 1.972523 1_565
O20 W3 1.966081 1_555
O21 W0 1.972727 1_455
O22 W1 1.968682 1_555
O23 W2 1.945267 1_555
O23 Sr0 2.406815 1_656
