# generated using pymatgen
data_Ba4MnGa2(S3F2)2
_symmetry_space_group_name_H-M   'P 1'
_cell_length_a   9.99511830
_cell_length_b   9.99511830
_cell_length_c   12.97184700
_cell_angle_alpha   90.00000000
_cell_angle_beta   90.00000000
_cell_angle_gamma   143.68779296
_symmetry_Int_Tables_number   1
_chemical_formula_structural   Ba4MnGa2(S3F2)2
_chemical_formula_sum   'Ba8 Mn2 Ga4 S12 F8'
_cell_volume   767.42333919
_cell_formula_units_Z   2
loop_
 _symmetry_equiv_pos_site_id
 _symmetry_equiv_pos_as_xyz
  1  'x, y, z'
loop_
 _atom_site_type_symbol
 _atom_site_label
 _atom_site_symmetry_multiplicity
 _atom_site_fract_x
 _atom_site_fract_y
 _atom_site_fract_z
 _atom_site_occupancy
  Ba  Ba0  1  0.06383200  0.40726800  0.37457700  1
  Ba  Ba1  1  0.59273200  0.93616800  0.62542300  1
  Ba  Ba2  1  0.09273200  0.43616800  0.87457700  1
  Ba  Ba3  1  0.56383200  0.90726800  0.12542300  1
  Ba  Ba4  1  0.93616800  0.59273200  0.62542300  1
  Ba  Ba5  1  0.40726800  0.06383200  0.37457700  1
  Ba  Ba6  1  0.90726800  0.56383200  0.12542300  1
  Ba  Ba7  1  0.43616800  0.09273200  0.87457700  1
  Mn  Mn0  1  0.50000000  0.50000000  0.50000000  1
  Mn  Mn1  1  0.00000000  0.00000000  0.00000000  1
  Ga  Ga0  1  0.85626200  0.85626200  0.32595600  1
  Ga  Ga1  1  0.14373800  0.14373800  0.67404400  1
  Ga  Ga2  1  0.64373800  0.64373800  0.82595600  1
  Ga  Ga3  1  0.35626200  0.35626200  0.17404400  1
  S  S0  1  0.23027500  0.23027500  0.34313100  1
  S  S1  1  0.76972500  0.76972500  0.65686900  1
  S  S2  1  0.26972500  0.26972500  0.84313100  1
  S  S3  1  0.73027500  0.73027500  0.15686900  1
  S  S4  1  0.82533200  0.62479600  0.39572200  1
  S  S5  1  0.37520400  0.17466800  0.60427800  1
  S  S6  1  0.87520400  0.67466800  0.89572200  1
  S  S7  1  0.32533200  0.12479600  0.10427800  1
  S  S8  1  0.17466800  0.37520400  0.60427800  1
  S  S9  1  0.62479600  0.82533200  0.39572200  1
  S  S10  1  0.12479600  0.32533200  0.10427800  1
  S  S11  1  0.67466800  0.87520400  0.89572200  1
  F  F0  1  0.74758800  0.25241200  0.50000000  1
  F  F1  1  0.24758800  0.75241200  0.00000000  1
  F  F2  1  0.25241200  0.74758800  0.50000000  1
  F  F3  1  0.75241200  0.24758800  0.00000000  1
  F  F4  1  0.23437200  0.73437200  0.25000000  1
  F  F5  1  0.26562800  0.76562800  0.75000000  1
  F  F6  1  0.76562800  0.26562800  0.75000000  1
  F  F7  1  0.73437200  0.23437200  0.25000000  1
loop_
_geom_bond_atom_site_label_1
_geom_bond_atom_site_label_2
_geom_bond_distance
_geom_bond_site_symmetry_2
Ba0 F0 2.673817 1_455
Ba0 F4 2.687898 1_555
Ba0 F7 2.696387 1_455
Ba0 F2 2.727174 1_555
Ba0 S8 3.283359 1_555
Ba0 S0 3.287346 1_555
Ba0 S9 3.348881 1_555
Ba0 S9 3.468249 1_445
Ba0 S10 3.760347 1_555
Ba1 F0 2.673817 1_565
Ba1 F5 2.687898 1_555
Ba1 F6 2.696387 1_565
Ba1 F2 2.727174 1_555
Ba1 S9 3.283359 1_555
Ba1 S1 3.287346 1_555
Ba1 S8 3.348881 1_555
Ba1 S8 3.468249 1_665
Ba1 S11 3.760347 1_555
Ba2 F1 2.673817 1_556
Ba2 F6 2.687898 1_455
Ba2 F5 2.696387 1_555
Ba2 F3 2.727174 1_456
Ba2 S10 3.283359 1_556
Ba2 S2 3.287346 1_555
Ba2 S11 3.348881 1_445
Ba2 S11 3.468249 1_555
Ba2 S8 3.760347 1_555
Ba3 F1 2.673817 1_555
Ba3 F7 2.687898 1_565
Ba3 F4 2.696387 1_555
Ba3 F3 2.727174 1_565
Ba3 S11 3.283359 1_554
Ba3 S3 3.287346 1_555
Ba3 S10 3.348881 1_665
Ba3 S10 3.468249 1_555
Ba3 S9 3.760347 1_555
Ba4 F2 2.673817 1_655
Ba4 F6 2.687898 1_555
Ba4 F5 2.696387 1_655
Ba4 F0 2.727174 1_555
Ba4 S4 3.283359 1_555
Ba4 S1 3.287346 1_555
Ba4 S5 3.348881 1_555
Ba4 S5 3.468249 1_665
Ba4 S6 3.760347 1_555
Ba5 F2 2.673817 1_545
Ba5 F7 2.687898 1_555
Ba5 F4 2.696387 1_545
Ba5 F0 2.727174 1_555
Ba5 S5 3.283359 1_555
Ba5 S0 3.287346 1_555
Ba5 S4 3.348881 1_555
Ba5 S4 3.468249 1_445
Ba5 S7 3.760347 1_555
Ba6 F3 2.673817 1_555
Ba6 F4 2.687898 1_655
Ba6 F7 2.696387 1_555
Ba6 F1 2.727174 1_655
Ba6 S6 3.283359 1_554
Ba6 S3 3.287346 1_555
Ba6 S7 3.348881 1_665
Ba6 S7 3.468249 1_555
Ba6 S4 3.760347 1_555
Ba7 F3 2.673817 1_556
Ba7 F5 2.687898 1_545
Ba7 F6 2.696387 1_555
Ba7 F1 2.727174 1_546
Ba7 S7 3.283359 1_556
Ba7 S2 3.287346 1_555
Ba7 S6 3.348881 1_445
Ba7 S6 3.468249 1_555
Ba7 S5 3.760347 1_555
Mn0 S1 2.638867 1_555
Mn0 S0 2.638867 1_555
Mn0 S5 2.724451 1_555
Mn0 S8 2.724451 1_555
Mn0 S4 2.724451 1_555
Mn0 S9 2.724451 1_555
Mn1 S3 2.638867 1_445
Mn1 S2 2.638867 1_554
Mn1 S10 2.724451 1_555
Mn1 S7 2.724451 1_555
Mn1 S6 2.724451 1_444
Mn1 S11 2.724451 1_444
Ga0 S9 2.261492 1_555
Ga0 S4 2.261492 1_555
Ga0 S3 2.329541 1_555
Ga0 S0 2.340392 1_665
Ga1 S5 2.261492 1_555
Ga1 S8 2.261492 1_555
Ga1 S2 2.329541 1_555
Ga1 S1 2.340392 1_445
Ga2 S6 2.261492 1_555
Ga2 S11 2.261492 1_555
Ga2 S1 2.329541 1_555
Ga2 S2 2.340392 1_555
Ga3 S7 2.261492 1_555
Ga3 S10 2.261492 1_555
Ga3 S0 2.329541 1_555
Ga3 S3 2.340392 1_555
