# generated using pymatgen
data_NaTi2SiH4O9
_symmetry_space_group_name_H-M   'P 1'
_cell_length_a   7.96596100
_cell_length_b   7.96596100
_cell_length_c   12.32802100
_cell_angle_alpha   90.00000000
_cell_angle_beta   90.00000000
_cell_angle_gamma   90.00000000
_symmetry_Int_Tables_number   1
_chemical_formula_structural   NaTi2SiH4O9
_chemical_formula_sum   'Na4 Ti8 Si4 H16 O36'
_cell_volume   782.29349180
_cell_formula_units_Z   4
loop_
 _symmetry_equiv_pos_site_id
 _symmetry_equiv_pos_as_xyz
  1  'x, y, z'
loop_
 _atom_site_type_symbol
 _atom_site_label
 _atom_site_symmetry_multiplicity
 _atom_site_fract_x
 _atom_site_fract_y
 _atom_site_fract_z
 _atom_site_occupancy
  Na  Na0  1  0.50000000  0.00000000  0.00000000  1
  Na  Na1  1  0.50000000  0.00000000  0.50000000  1
  Na  Na2  1  0.00000000  0.50000000  0.00000000  1
  Na  Na3  1  0.00000000  0.50000000  0.50000000  1
  Ti  Ti0  1  0.85312000  0.14688000  0.35039800  1
  Ti  Ti1  1  0.14688000  0.85312000  0.35039800  1
  Ti  Ti2  1  0.85312000  0.85312000  0.85039800  1
  Ti  Ti3  1  0.14688000  0.14688000  0.85039800  1
  Ti  Ti4  1  0.85312000  0.14688000  0.64960200  1
  Ti  Ti5  1  0.14688000  0.85312000  0.64960200  1
  Ti  Ti6  1  0.85312000  0.85312000  0.14960200  1
  Ti  Ti7  1  0.14688000  0.14688000  0.14960200  1
  Si  Si0  1  0.50000000  0.00000000  0.25000000  1
  Si  Si1  1  0.50000000  0.00000000  0.75000000  1
  Si  Si2  1  0.00000000  0.50000000  0.25000000  1
  Si  Si3  1  0.00000000  0.50000000  0.75000000  1
  H  H0  1  0.78849400  0.21150600  0.06333500  1
  H  H1  1  0.21150600  0.78849400  0.06333500  1
  H  H2  1  0.78849400  0.78849400  0.56333500  1
  H  H3  1  0.21150600  0.21150600  0.56333500  1
  H  H4  1  0.78849400  0.21150600  0.93666500  1
  H  H5  1  0.21150600  0.78849400  0.93666500  1
  H  H6  1  0.78849400  0.78849400  0.43666500  1
  H  H7  1  0.21150600  0.21150600  0.43666500  1
  H  H8  1  0.40149400  0.59850600  0.53017600  1
  H  H9  1  0.59850600  0.40149400  0.53017600  1
  H  H10  1  0.40149400  0.40149400  0.03017600  1
  H  H11  1  0.59850600  0.59850600  0.03017600  1
  H  H12  1  0.40149400  0.59850600  0.46982400  1
  H  H13  1  0.59850600  0.40149400  0.46982400  1
  H  H14  1  0.40149400  0.40149400  0.96982400  1
  H  H15  1  0.59850600  0.59850600  0.96982400  1
  O  O0  1  0.62067100  0.11342900  0.32956700  1
  O  O1  1  0.37932900  0.88657100  0.32956700  1
  O  O2  1  0.62067100  0.88657100  0.82956700  1
  O  O3  1  0.37932900  0.11342900  0.82956700  1
  O  O4  1  0.62067100  0.11342900  0.67043300  1
  O  O5  1  0.37932900  0.88657100  0.67043300  1
  O  O6  1  0.62067100  0.88657100  0.17043300  1
  O  O7  1  0.37932900  0.11342900  0.17043300  1
  O  O8  1  0.11342900  0.62067100  0.32956700  1
  O  O9  1  0.88657100  0.37932900  0.32956700  1
  O  O10  1  0.88657100  0.62067100  0.82956700  1
  O  O11  1  0.11342900  0.37932900  0.82956700  1
  O  O12  1  0.11342900  0.62067100  0.67043300  1
  O  O13  1  0.88657100  0.37932900  0.67043300  1
  O  O14  1  0.88657100  0.62067100  0.17043300  1
  O  O15  1  0.11342900  0.37932900  0.17043300  1
  O  O16  1  0.89615200  0.10384800  0.17314800  1
  O  O17  1  0.10384800  0.89615200  0.17314800  1
  O  O18  1  0.89615200  0.89615200  0.67314800  1
  O  O19  1  0.10384800  0.10384800  0.67314800  1
  O  O20  1  0.89615200  0.10384800  0.82685200  1
  O  O21  1  0.10384800  0.89615200  0.82685200  1
  O  O22  1  0.89615200  0.89615200  0.32685200  1
  O  O23  1  0.10384800  0.10384800  0.32685200  1
  O  O24  1  0.85952100  0.14047900  0.50000000  1
  O  O25  1  0.14047900  0.85952100  0.50000000  1
  O  O26  1  0.85952100  0.85952100  0.00000000  1
  O  O27  1  0.14047900  0.14047900  0.00000000  1
  O  O28  1  0.73462600  0.26537400  0.00000000  1
  O  O29  1  0.26537400  0.73462600  0.00000000  1
  O  O30  1  0.73462600  0.73462600  0.50000000  1
  O  O31  1  0.26537400  0.26537400  0.50000000  1
  O  O32  1  0.50000000  0.50000000  0.29982600  1
  O  O33  1  0.50000000  0.50000000  0.79982600  1
  O  O34  1  0.50000000  0.50000000  0.70017400  1
  O  O35  1  0.50000000  0.50000000  0.20017400  1
loop_
_geom_bond_atom_site_label_1
_geom_bond_atom_site_label_2
_geom_bond_distance
_geom_bond_site_symmetry_2
Na0 O6 2.480945 1_545
Na0 O7 2.480945 1_555
Na0 O2 2.480945 1_544
Na0 O3 2.480945 1_554
Na1 O4 2.480945 1_555
Na1 O0 2.480945 1_555
Na1 O5 2.480945 1_545
Na1 O1 2.480945 1_545
Na2 O14 2.480945 1_455
Na2 O15 2.480945 1_555
Na2 O10 2.480945 1_454
Na2 O11 2.480945 1_554
Na3 O8 2.480945 1_555
Na3 O12 2.480945 1_555
Na3 O13 2.480945 1_455
Na3 O9 2.480945 1_455
H0 O28 0.988895 1_555
H1 O29 0.988895 1_555
H2 O30 0.988895 1_555
H3 O31 0.988895 1_555
H4 O28 0.988895 1_556
H5 O29 0.988895 1_556
H6 O30 0.988895 1_555
H7 O31 0.988895 1_555
H10 H14 0.744021 1_554
H11 H15 0.744021 1_554
H12 H8 0.744021 1_555
H13 H9 0.744021 1_555
O0 Si0 1.643969 1_555
O0 Ti0 1.888299 1_555
O1 Si0 1.643969 1_565
O1 Ti1 1.888299 1_555
O2 Si1 1.643969 1_565
O2 Ti2 1.888299 1_555
O3 Si1 1.643969 1_555
O3 Ti3 1.888299 1_555
O4 Si1 1.643969 1_555
O4 Ti4 1.888299 1_555
O5 Si1 1.643969 1_565
O5 Ti5 1.888299 1_555
O6 Si0 1.643969 1_565
O6 Ti6 1.888299 1_555
O7 Si0 1.643969 1_555
O7 Ti7 1.888299 1_555
O8 Si2 1.643969 1_555
O8 Ti1 1.888299 1_555
O9 Si2 1.643969 1_655
O9 Ti0 1.888299 1_555
O10 Si3 1.643969 1_655
O10 Ti2 1.888299 1_555
O11 Si3 1.643969 1_555
O11 Ti3 1.888299 1_555
O12 Si3 1.643969 1_555
O12 Ti5 1.888299 1_555
O13 Si3 1.643969 1_655
O13 Ti4 1.888299 1_555
O14 Si2 1.643969 1_655
O14 Ti6 1.888299 1_555
O15 Si2 1.643969 1_555
O15 Ti7 1.888299 1_555
O16 Ti6 2.047176 1_545
O16 Ti7 2.047176 1_655
O16 Ti0 2.238271 1_555
O17 Ti6 2.047176 1_455
O17 Ti7 2.047176 1_565
O17 Ti1 2.238271 1_555
O18 Ti4 2.047176 1_565
O18 Ti5 2.047176 1_655
O18 Ti2 2.238271 1_555
O19 Ti5 2.047176 1_545
O19 Ti4 2.047176 1_455
O19 Ti3 2.238271 1_555
O20 Ti2 2.047176 1_545
O20 Ti3 2.047176 1_655
O20 Ti4 2.238271 1_555
O21 Ti2 2.047176 1_455
O21 Ti3 2.047176 1_565
O21 Ti5 2.238271 1_555
O22 Ti0 2.047176 1_565
O22 Ti1 2.047176 1_655
O22 Ti6 2.238271 1_555
O23 Ti0 2.047176 1_455
O23 Ti1 2.047176 1_545
O23 Ti7 2.238271 1_555
O24 Ti4 1.845706 1_555
O24 Ti0 1.845706 1_555
O25 Ti1 1.845706 1_555
O25 Ti5 1.845706 1_555
O26 Ti6 1.845706 1_555
O26 Ti2 1.845706 1_554
O27 Ti7 1.845706 1_555
O27 Ti3 1.845706 1_554
O32 O35 1.228512 1_555
O33 O34 1.228512 1_555
