# generated using pymatgen
data_Ca4YB3O10
_symmetry_space_group_name_H-M   'P 1'
_cell_length_a   9.02682915
_cell_length_b   9.02682915
_cell_length_c   3.56470286
_cell_angle_alpha   84.96786757
_cell_angle_beta   84.96786757
_cell_angle_gamma   126.40994859
_symmetry_Int_Tables_number   1
_chemical_formula_structural   Ca4YB3O10
_chemical_formula_sum   'Ca4 Y1 B3 O10'
_cell_volume   229.29575730
_cell_formula_units_Z   1
loop_
 _symmetry_equiv_pos_site_id
 _symmetry_equiv_pos_as_xyz
  1  'x, y, z'
loop_
 _atom_site_type_symbol
 _atom_site_label
 _atom_site_symmetry_multiplicity
 _atom_site_fract_x
 _atom_site_fract_y
 _atom_site_fract_z
 _atom_site_occupancy
  Ca  Ca0  1  0.32649300  0.55181900  0.27747200  1
  Ca  Ca1  1  0.55181900  0.32649300  0.27747200  1
  Ca  Ca2  1  0.87902900  0.24291600  0.94887200  1
  Ca  Ca3  1  0.24291600  0.87902900  0.94887200  1
  Y  Y0  1  0.79889100  0.79889100  0.60543900  1
  B  B0  1  0.17147600  0.17147600  0.90471000  1
  B  B1  1  0.94162800  0.55319700  0.52343600  1
  B  B2  1  0.55319700  0.94162800  0.52343600  1
  O  O0  1  0.02623900  0.74196600  0.52604400  1
  O  O1  1  0.74196600  0.02623900  0.52604400  1
  O  O2  1  0.62803700  0.62803700  0.18442900  1
  O  O3  1  0.18367600  0.33273100  0.85687900  1
  O  O4  1  0.33273100  0.18367600  0.85687900  1
  O  O5  1  0.99743100  0.99743100  0.99962000  1
  O  O6  1  0.03467500  0.49673600  0.32900000  1
  O  O7  1  0.49673600  0.03467500  0.32900000  1
  O  O8  1  0.76154000  0.41802000  0.72074800  1
  O  O9  1  0.41802000  0.76154000  0.72074800  1
loop_
_geom_bond_atom_site_label_1
_geom_bond_atom_site_label_2
_geom_bond_distance
_geom_bond_site_symmetry_2
Ca0 O9 2.324106 1_554
Ca0 O6 2.358848 1_555
Ca0 O2 2.360295 1_555
Ca0 O3 2.372502 1_555
Ca0 O3 2.377737 1_554
Ca0 O9 2.379160 1_555
Ca1 O8 2.324106 1_554
Ca1 O7 2.358848 1_555
Ca1 O2 2.360295 1_555
Ca1 O4 2.372502 1_555
Ca1 O4 2.377737 1_554
Ca1 O8 2.379160 1_555
Ca2 O3 2.340032 1_655
Ca2 O1 2.358848 1_556
Ca2 O1 2.366377 1_555
Ca2 O6 2.473232 1_656
Ca2 O8 2.490038 1_555
Ca2 O6 2.617616 1_655
Ca3 O4 2.340032 1_565
Ca3 O0 2.358848 1_556
Ca3 O0 2.366377 1_555
Ca3 O7 2.473232 1_566
Ca3 O9 2.490038 1_555
Ca3 O7 2.617616 1_565
B0 O4 1.386687 1_555
B0 O3 1.386687 1_555
B0 O5 1.390823 1_445
B1 O6 1.383344 1_655
B1 O8 1.385773 1_555
B1 O0 1.395007 1_655
B2 O7 1.383344 1_565
B2 O9 1.385773 1_555
B2 O1 1.395007 1_565
O0 Y0 2.394010 1_455
O1 Y0 2.394010 1_545
O2 Y0 2.235608 1_555
O2 Y0 2.253107 1_554
O5 Y0 2.338566 1_555
O5 Y0 2.432428 1_556
