# generated using pymatgen
data_Sr5Cr3O12F
_symmetry_space_group_name_H-M   'P 1'
_cell_length_a   9.92480816
_cell_length_b   9.92485853
_cell_length_c   7.44691790
_cell_angle_alpha   90.00000000
_cell_angle_beta   90.00000000
_cell_angle_gamma   120.00133994
_symmetry_Int_Tables_number   1
_chemical_formula_structural   Sr5Cr3O12F
_chemical_formula_sum   'Sr10 Cr6 O24 F2'
_cell_volume   635.25454283
_cell_formula_units_Z   2
loop_
 _symmetry_equiv_pos_site_id
 _symmetry_equiv_pos_as_xyz
  1  'x, y, z'
loop_
 _atom_site_type_symbol
 _atom_site_label
 _atom_site_symmetry_multiplicity
 _atom_site_fract_x
 _atom_site_fract_y
 _atom_site_fract_z
 _atom_site_occupancy
  Sr  Sr0  1  0.75972182  0.74997761  0.25000000  1
  Sr  Sr1  1  0.99024527  0.24027146  0.25000000  1
  Sr  Sr2  1  0.75001659  0.99015983  0.75000000  1
  Sr  Sr3  1  0.00983509  0.75983171  0.75000000  1
  Sr  Sr4  1  0.24015021  0.24998880  0.75000000  1
  Sr  Sr5  1  0.25001769  0.00974782  0.25000000  1
  Sr  Sr6  1  0.33333421  0.66667356  0.50072584  1
  Sr  Sr7  1  0.66666949  0.33333489  0.00077529  1
  Sr  Sr8  1  0.66666949  0.33333489  0.49922471  1
  Sr  Sr9  1  0.33333421  0.66667356  -0.00072584  1
  Cr  Cr0  1  0.60029552  0.96930839  0.25000000  1
  Cr  Cr1  1  0.03072266  0.63102121  0.25000000  1
  Cr  Cr2  1  0.63103102  0.60018877  0.75000000  1
  Cr  Cr3  1  0.39982200  0.03084357  0.75000000  1
  Cr  Cr4  1  0.96915368  0.36896746  0.75000000  1
  Cr  Cr5  1  0.36896871  0.39970275  0.25000000  1
  O  O0  1  0.52226214  0.68917427  0.75000000  1
  O  O1  1  0.59791970  0.12909820  0.75000000  1
  O  O2  1  0.25337694  0.34438133  0.43421842  1
  O  O3  1  0.90885516  0.25335439  0.93421340  1
  O  O4  1  0.34451691  0.09115929  0.93425200  1
  O  O5  1  0.65562932  0.90902436  0.43422958  1
  O  O6  1  0.09099626  0.74662507  0.43424704  1
  O  O7  1  0.74665108  0.65547651  0.93424837  1
  O  O8  1  0.74665108  0.65547651  0.56575163  1
  O  O9  1  0.09099626  0.74662507  0.06575296  1
  O  O10  1  0.65562932  0.90902436  0.06577042  1
  O  O11  1  0.34451691  0.09115929  0.56574800  1
  O  O12  1  0.87091207  0.46877698  0.75000000  1
  O  O13  1  0.25337694  0.34438133  0.06578158  1
  O  O14  1  0.53120619  0.40209520  0.75000000  1
  O  O15  1  0.12923325  0.53138438  0.25000000  1
  O  O16  1  0.47801228  0.31103920  0.25000000  1
  O  O17  1  0.16689057  0.47771235  0.75000000  1
  O  O18  1  0.31080919  0.83307635  0.75000000  1
  O  O19  1  0.68899763  0.16704028  0.25000000  1
  O  O20  1  0.83298106  0.52195982  0.25000000  1
  O  O21  1  0.90885516  0.25335439  0.56578660  1
  O  O22  1  0.46858251  0.59781878  0.25000000  1
  O  O23  1  0.40215079  0.87078272  0.25000000  1
  F  F0  1  0.00000203  -0.00000503  0.25000000  1
  F  F1  1  -0.00000042  -0.00001864  0.75000000  1
loop_
_geom_bond_atom_site_label_1
_geom_bond_atom_site_label_2
_geom_bond_distance
_geom_bond_site_symmetry_2
Cr0 O5 1.694222 1_555
Cr0 O10 1.694222 1_555
Cr0 O19 1.702512 1_565
Cr0 O23 1.703067 1_555
Cr1 O9 1.694246 1_555
Cr1 O6 1.694246 1_555
Cr1 O20 1.702598 1_455
Cr1 O15 1.703129 1_555
Cr2 O8 1.694341 1_555
Cr2 O7 1.694341 1_555
Cr2 O0 1.702574 1_555
Cr2 O14 1.702644 1_555
Cr3 O11 1.694377 1_555
Cr3 O4 1.694377 1_555
Cr3 O18 1.702645 1_545
Cr3 O1 1.702672 1_555
Cr4 O3 1.694092 1_555
Cr4 O21 1.694092 1_555
Cr4 O12 1.702310 1_555
Cr4 O17 1.702375 1_655
Cr5 O13 1.694011 1_555
Cr5 O2 1.694011 1_555
Cr5 O16 1.702341 1_555
Cr5 O22 1.702829 1_555
O0 Sr9 2.567676 1_556
O0 Sr6 2.567676 1_555
O0 Sr2 2.698223 1_555
O1 Sr2 2.502363 1_545
O1 Sr8 2.584338 1_555
O1 Sr7 2.584338 1_556
O2 Sr4 2.510363 1_555
O2 Sr1 2.659175 1_455
O2 Sr6 2.927162 1_555
O3 Sr1 2.510868 1_556
O3 Sr2 2.659397 1_545
O3 Sr7 2.925988 1_556
O4 Sr5 2.510676 1_556
O4 Sr4 2.659588 1_555
O4 Sr7 2.925754 1_556
O5 Sr2 2.510227 1_555
O5 Sr0 2.659335 1_555
O5 Sr6 2.927163 1_555
O6 Sr3 2.510105 1_555
O6 Sr5 2.659223 1_565
O6 Sr6 2.927134 1_555
O7 Sr0 2.510737 1_556
O7 Sr3 2.659451 1_655
O7 Sr7 2.925690 1_556
O8 Sr0 2.510737 1_555
O8 Sr3 2.659451 1_655
O8 Sr8 2.925690 1_555
O9 Sr3 2.510105 1_554
O9 Sr5 2.659223 1_565
O9 Sr9 2.927134 1_555
O10 Sr2 2.510227 1_554
O10 Sr0 2.659335 1_555
O10 Sr9 2.927163 1_555
O11 Sr5 2.510676 1_555
O11 Sr4 2.659588 1_555
O11 Sr8 2.925754 1_555
O12 Sr3 2.502494 1_655
O12 Sr8 2.584295 1_555
O12 Sr7 2.584295 1_556
O13 Sr4 2.510363 1_554
O13 Sr1 2.659175 1_455
O13 Sr9 2.927162 1_555
O14 Sr4 2.502482 1_555
O14 Sr8 2.584253 1_555
O14 Sr7 2.584253 1_556
O15 Sr1 2.502985 1_455
O15 Sr9 2.583098 1_555
O15 Sr6 2.583098 1_555
O16 Sr7 2.566131 1_555
O16 Sr8 2.566131 1_555
O16 Sr5 2.700989 1_555
O17 Sr9 2.567839 1_556
O17 Sr6 2.567839 1_555
O17 Sr4 2.698183 1_555
O18 Sr9 2.567620 1_556
O18 Sr6 2.567620 1_555
O18 Sr3 2.698097 1_555
O19 Sr7 2.565819 1_555
O19 Sr8 2.565819 1_555
O19 Sr1 2.700775 1_555
O20 Sr7 2.565845 1_555
O20 Sr8 2.565845 1_555
O20 Sr0 2.701020 1_555
O21 Sr1 2.510868 1_555
O21 Sr2 2.659397 1_545
O21 Sr8 2.925988 1_555
O22 Sr0 2.503201 1_555
O22 Sr9 2.583087 1_555
O22 Sr6 2.583087 1_555
O23 Sr5 2.502905 1_565
O23 Sr6 2.583161 1_555
O23 Sr9 2.583161 1_555
F0 Sr5 2.434401 1_555
F0 Sr0 2.434451 1_445
F0 Sr1 2.434574 1_455
F1 Sr3 2.433730 1_545
F1 Sr2 2.433757 1_445
F1 Sr4 2.433795 1_555
