# generated using pymatgen
data_CeHfO14
_symmetry_space_group_name_H-M   'P 1'
_cell_length_a   7.53298815
_cell_length_b   7.53298815
_cell_length_c   7.53298815
_cell_angle_alpha   60.00000000
_cell_angle_beta   60.00000000
_cell_angle_gamma   60.00000000
_symmetry_Int_Tables_number   1
_chemical_formula_structural   CeHfO14
_chemical_formula_sum   'Ce2 Hf2 O28'
_cell_volume   302.26429845
_cell_formula_units_Z   2
loop_
 _symmetry_equiv_pos_site_id
 _symmetry_equiv_pos_as_xyz
  1  'x, y, z'
loop_
 _atom_site_type_symbol
 _atom_site_label
 _atom_site_symmetry_multiplicity
 _atom_site_fract_x
 _atom_site_fract_y
 _atom_site_fract_z
 _atom_site_occupancy
  Ce  Ce0  1  0.00000000  0.00000000  0.00000000  1
  Ce  Ce1  1  0.75000000  0.75000000  0.75000000  1
  Hf  Hf0  1  0.50000000  0.50000000  0.50000000  1
  Hf  Hf1  1  0.25000000  0.25000000  0.25000000  1
  O  O0  1  0.87500000  0.87500000  0.87500000  1
  O  O1  1  0.37500000  0.87500000  0.87500000  1
  O  O2  1  0.87500000  0.37500000  0.87500000  1
  O  O3  1  0.87500000  0.87500000  0.37500000  1
  O  O4  1  0.51748300  0.51748300  0.17909000  1
  O  O5  1  0.78594400  0.17909000  0.51748300  1
  O  O6  1  0.17909000  0.78594400  0.51748300  1
  O  O7  1  0.51748300  0.17909000  0.51748300  1
  O  O8  1  0.96405600  0.23251700  0.57091000  1
  O  O9  1  0.23251700  0.23251700  0.57091000  1
  O  O10  1  0.51748300  0.51748300  0.78594400  1
  O  O11  1  0.17909000  0.51748300  0.78594400  1
  O  O12  1  0.23251700  0.57091000  0.23251700  1
  O  O13  1  0.96405600  0.57091000  0.23251700  1
  O  O14  1  0.78594400  0.51748300  0.17909000  1
  O  O15  1  0.23251700  0.96405600  0.23251700  1
  O  O16  1  0.57091000  0.96405600  0.23251700  1
  O  O17  1  0.51748300  0.78594400  0.51748300  1
  O  O18  1  0.57091000  0.23251700  0.96405600  1
  O  O19  1  0.23251700  0.23251700  0.96405600  1
  O  O20  1  0.17909000  0.51748300  0.51748300  1
  O  O21  1  0.51748300  0.17909000  0.78594400  1
  O  O22  1  0.78594400  0.51748300  0.51748300  1
  O  O23  1  0.51748300  0.78594400  0.17909000  1
  O  O24  1  0.23251700  0.57091000  0.96405600  1
  O  O25  1  0.57091000  0.23251700  0.23251700  1
  O  O26  1  0.23251700  0.96405600  0.57091000  1
  O  O27  1  0.96405600  0.23251700  0.23251700  1
loop_
_geom_bond_atom_site_label_1
_geom_bond_atom_site_label_2
_geom_bond_distance
_geom_bond_site_symmetry_2
Ce0 O1 2.306497 1_544
Ce0 O2 2.306497 1_454
Ce0 O0 2.306497 1_444
Ce0 O3 2.306497 1_445
Ce0 O15 2.885924 1_545
Ce0 O27 2.885924 1_455
Ce0 O12 2.885924 1_545
Ce0 O16 2.885924 1_445
Ce0 O13 2.885924 1_445
Ce0 O26 2.885924 1_544
Ce0 O25 2.885924 1_455
Ce0 O24 2.885924 1_544
Ce0 O19 2.885924 1_554
Ce0 O18 2.885924 1_454
Ce0 O9 2.885924 1_554
Ce0 O8 2.885924 1_454
Ce1 O3 2.306497 1_555
Ce1 O0 2.306497 1_555
Ce1 O2 2.306497 1_555
Ce1 O1 2.306497 1_555
Ce1 O21 2.885924 1_565
Ce1 O10 2.885924 1_555
Ce1 O23 2.885924 1_556
Ce1 O7 2.885924 1_565
Ce1 O4 2.885924 1_556
Ce1 O6 2.885924 1_655
Ce1 O17 2.885924 1_555
Ce1 O14 2.885924 1_556
Ce1 O11 2.885924 1_655
Ce1 O5 2.885924 1_565
Ce1 O20 2.885924 1_655
Ce1 O22 2.885924 1_555
Hf0 O23 2.293288 1_555
Hf0 O7 2.293288 1_555
Hf0 O10 2.293288 1_555
Hf0 O4 2.293288 1_555
Hf0 O11 2.293288 1_555
Hf0 O20 2.293288 1_555
Hf0 O5 2.293288 1_555
Hf0 O17 2.293288 1_555
Hf0 O21 2.293288 1_555
Hf0 O14 2.293288 1_555
Hf0 O22 2.293288 1_555
Hf0 O6 2.293288 1_555
Hf1 O24 2.293288 1_554
Hf1 O18 2.293288 1_554
Hf1 O19 2.293288 1_554
Hf1 O15 2.293288 1_545
Hf1 O27 2.293288 1_455
Hf1 O8 2.293288 1_455
Hf1 O26 2.293288 1_545
Hf1 O16 2.293288 1_545
Hf1 O13 2.293288 1_455
Hf1 O25 2.293288 1_555
Hf1 O12 2.293288 1_555
Hf1 O9 2.293288 1_555
O5 O8 1.834699 1_555
O5 O7 2.022314 1_555
O7 O9 1.834699 1_555
O8 O9 2.022314 1_655
O10 O18 1.834699 1_555
O10 O24 1.834699 1_555
O10 O17 2.022314 1_555
O10 O22 2.022314 1_555
O11 O19 1.834699 1_555
O11 O24 1.834699 1_555
O11 O20 2.022314 1_555
O11 O6 2.022314 1_555
O12 O4 1.834699 1_555
O12 O20 1.834699 1_555
O12 O24 2.022314 1_554
O12 O13 2.022314 1_455
O13 O22 1.834699 1_555
O13 O14 1.834699 1_555
O13 O24 2.022314 1_654
O14 O27 1.834699 1_555
O14 O4 2.022314 1_555
O14 O23 2.022314 1_555
O15 O23 1.834699 1_555
O15 O6 1.834699 1_555
O15 O27 2.022314 1_465
O15 O19 2.022314 1_564
O16 O23 1.834699 1_555
O16 O17 1.834699 1_555
O16 O18 2.022314 1_564
O16 O25 2.022314 1_565
O17 O26 1.834699 1_555
O17 O22 2.022314 1_555
O18 O21 1.834699 1_555
O18 O25 2.022314 1_556
O19 O21 1.834699 1_555
O19 O27 2.022314 1_456
O20 O9 1.834699 1_555
O20 O6 2.022314 1_555
O21 O5 2.022314 1_555
O21 O7 2.022314 1_555
O22 O8 1.834699 1_555
O23 O4 2.022314 1_555
O25 O4 1.834699 1_555
O25 O7 1.834699 1_555
O26 O6 1.834699 1_555
O26 O8 2.022314 1_465
O26 O9 2.022314 1_565
O27 O5 1.834699 1_555
