# generated using pymatgen
data_PrGe2
_symmetry_space_group_name_H-M   'P 1'
_cell_length_a   8.58078040
_cell_length_b   8.58078040
_cell_length_c   8.58078040
_cell_angle_alpha   152.05168727
_cell_angle_beta   151.20463688
_cell_angle_gamma   40.56079597
_symmetry_Int_Tables_number   1
_chemical_formula_structural   PrGe2
_chemical_formula_sum   'Pr2 Ge4'
_cell_volume   142.33939582
_cell_formula_units_Z   2
loop_
 _symmetry_equiv_pos_site_id
 _symmetry_equiv_pos_as_xyz
  1  'x, y, z'
loop_
 _atom_site_type_symbol
 _atom_site_label
 _atom_site_symmetry_multiplicity
 _atom_site_fract_x
 _atom_site_fract_y
 _atom_site_fract_z
 _atom_site_occupancy
  Pr  Pr0  1  0.62283500  0.37283500  0.25000000  1
  Pr  Pr1  1  0.37716500  0.62716500  0.75000000  1
  Ge  Ge0  1  0.04726500  0.79726500  0.25000000  1
  Ge  Ge1  1  0.95273500  0.20273500  0.75000000  1
  Ge  Ge2  1  0.20815100  0.95815100  0.25000000  1
  Ge  Ge3  1  0.79184900  0.04184900  0.75000000  1
loop_
_geom_bond_atom_site_label_1
_geom_bond_atom_site_label_2
_geom_bond_distance
_geom_bond_site_symmetry_2
Ge0 Ge1 2.570857 1_465
Ge0 Ge1 2.570857 1_454
Ge0 Ge2 2.589890 1_555
Ge0 Pr0 3.213392 1_465
Ge0 Pr0 3.213392 1_454
Ge0 Pr0 3.213392 1_566
Ge0 Pr0 3.213392 1_555
Ge0 Pr1 3.471331 1_454
Ge0 Pr1 3.471331 1_555
Ge1 Ge3 2.589890 1_555
Ge1 Pr1 3.213392 1_555
Ge1 Pr1 3.213392 1_544
Ge1 Pr1 3.213392 1_656
Ge1 Pr1 3.213392 1_645
Ge1 Pr0 3.471331 1_555
Ge1 Pr0 3.471331 1_656
Ge2 Ge3 2.523421 1_565
Ge2 Ge3 2.523421 1_464
Ge2 Pr0 3.276006 1_465
Ge2 Pr0 3.276006 1_454
Ge2 Pr0 3.276006 1_555
Ge2 Pr0 3.276006 1_566
Ge2 Pr1 3.419953 1_554
Ge2 Pr1 3.419953 1_565
Ge3 Pr1 3.276006 1_555
Ge3 Pr1 3.276006 1_656
Ge3 Pr1 3.276006 1_544
Ge3 Pr1 3.276006 1_645
Ge3 Pr0 3.419953 1_556
Ge3 Pr0 3.419953 1_545
