# generated using pymatgen
data_Dy2Nb3Ge4
_symmetry_space_group_name_H-M   'P 1'
_cell_length_a   6.99182849
_cell_length_b   7.17969607
_cell_length_c   13.54260847
_cell_angle_alpha   90.00000000
_cell_angle_beta   90.00000000
_cell_angle_gamma   90.00000000
_symmetry_Int_Tables_number   1
_chemical_formula_structural   Dy2Nb3Ge4
_chemical_formula_sum   'Dy8 Nb12 Ge16'
_cell_volume   679.82815894
_cell_formula_units_Z   4
loop_
 _symmetry_equiv_pos_site_id
 _symmetry_equiv_pos_as_xyz
  1  'x, y, z'
loop_
 _atom_site_type_symbol
 _atom_site_label
 _atom_site_symmetry_multiplicity
 _atom_site_fract_x
 _atom_site_fract_y
 _atom_site_fract_z
 _atom_site_occupancy
  Dy  Dy0  1  0.49755893  0.32570325  0.09551968  1
  Dy  Dy1  1  0.99755893  0.17429675  0.40448032  1
  Dy  Dy2  1  0.50244107  0.67429675  0.59551968  1
  Dy  Dy3  1  0.00244107  0.82570325  0.90448032  1
  Dy  Dy4  1  0.50244107  0.67429675  0.90448032  1
  Dy  Dy5  1  0.00244107  0.82570325  0.59551968  1
  Dy  Dy6  1  0.49755893  0.32570325  0.40448032  1
  Dy  Dy7  1  0.99755893  0.17429675  0.09551968  1
  Nb  Nb0  1  0.66430350  0.01308063  0.75000000  1
  Nb  Nb1  1  0.16430350  0.48691937  0.75000000  1
  Nb  Nb2  1  0.33569650  0.98691937  0.25000000  1
  Nb  Nb3  1  0.83569650  0.51308063  0.25000000  1
  Nb  Nb4  1  0.84013490  0.32795071  0.62664624  1
  Nb  Nb5  1  0.34013490  0.17204929  0.87335376  1
  Nb  Nb6  1  0.15986510  0.67204929  0.12664624  1
  Nb  Nb7  1  0.65986510  0.82795071  0.37335376  1
  Nb  Nb8  1  0.15986510  0.67204929  0.37335376  1
  Nb  Nb9  1  0.65986510  0.82795071  0.12664624  1
  Nb  Nb10  1  0.84013490  0.32795071  0.87335376  1
  Nb  Nb11  1  0.34013490  0.17204929  0.62664624  1
  Ge  Ge0  1  0.80425631  0.63639713  0.75000000  1
  Ge  Ge1  1  0.30425631  0.86360287  0.75000000  1
  Ge  Ge2  1  0.19574369  0.36360287  0.25000000  1
  Ge  Ge3  1  0.69574369  0.13639713  0.25000000  1
  Ge  Ge4  1  0.53999995  0.37949259  0.75000000  1
  Ge  Ge5  1  0.03999995  0.12050741  0.75000000  1
  Ge  Ge6  1  0.46000005  0.62050741  0.25000000  1
  Ge  Ge7  1  0.96000005  0.87949259  0.25000000  1
  Ge  Ge8  1  0.67409579  0.03850968  0.54134865  1
  Ge  Ge9  1  0.17409579  0.46149032  0.95865135  1
  Ge  Ge10  1  0.32590421  0.96149032  0.04134865  1
  Ge  Ge11  1  0.82590421  0.53850968  0.45865135  1
  Ge  Ge12  1  0.32590421  0.96149032  0.45865135  1
  Ge  Ge13  1  0.82590421  0.53850968  0.04134865  1
  Ge  Ge14  1  0.67409579  0.03850968  0.95865135  1
  Ge  Ge15  1  0.17409579  0.46149032  0.54134865  1
loop_
_geom_bond_atom_site_label_1
_geom_bond_atom_site_label_2
_geom_bond_distance
_geom_bond_site_symmetry_2
Dy0 Ge13 2.853598 1_555
Dy0 Ge3 2.853796 1_555
Dy0 Ge10 2.969264 1_545
Dy0 Ge2 2.983940 1_555
Dy0 Ge6 2.987594 1_555
Dy0 Ge14 3.034944 1_554
Dy0 Ge9 3.082360 1_554
Dy1 Ge12 2.853598 1_645
Dy1 Ge2 2.853796 1_655
Dy1 Ge11 2.969264 1_555
Dy1 Ge3 2.983940 1_555
Dy1 Ge7 2.987594 1_545
Dy1 Ge15 3.034944 1_655
Dy1 Ge8 3.082360 1_555
Dy2 Ge15 2.853598 1_555
Dy2 Ge1 2.853796 1_555
Dy2 Ge8 2.969264 1_565
Dy2 Ge0 2.983940 1_555
Dy2 Ge4 2.987594 1_555
Dy2 Ge12 3.034944 1_555
Dy2 Ge11 3.082360 1_555
Dy3 Ge14 2.853598 1_465
Dy3 Ge0 2.853796 1_455
Dy3 Ge9 2.969264 1_555
Dy3 Ge1 2.983940 1_555
Dy3 Ge5 2.987594 1_565
Dy3 Ge13 3.034944 1_456
Dy3 Ge10 3.082360 1_556
Dy4 Ge9 2.853598 1_555
Dy4 Ge1 2.853796 1_555
Dy4 Ge14 2.969264 1_565
Dy4 Ge0 2.983940 1_555
Dy4 Ge4 2.987594 1_555
Dy4 Ge10 3.034944 1_556
Dy4 Ge13 3.082360 1_556
Dy5 Ge8 2.853598 1_465
Dy5 Ge0 2.853796 1_455
Dy5 Ge15 2.969264 1_555
Dy5 Ge1 2.983940 1_555
Dy5 Ge5 2.987594 1_565
Dy5 Ge11 3.034944 1_455
Dy5 Ge12 3.082360 1_555
Dy6 Ge11 2.853598 1_555
Dy6 Ge3 2.853796 1_555
Dy6 Ge12 2.969264 1_545
Dy6 Ge2 2.983940 1_555
Dy6 Ge6 2.987594 1_555
Dy6 Ge8 3.034944 1_555
Dy6 Ge15 3.082360 1_555
Dy7 Ge10 2.853598 1_645
Dy7 Ge2 2.853796 1_655
Dy7 Ge13 2.969264 1_555
Dy7 Ge3 2.983940 1_555
Dy7 Ge7 2.987594 1_545
Dy7 Ge9 3.034944 1_654
Dy7 Ge14 3.082360 1_554
Ge0 Ge4 2.610732 1_555
Ge0 Nb1 2.736606 1_655
Ge0 Nb4 2.785291 1_555
Ge0 Nb10 2.785291 1_555
Ge0 Nb0 2.876054 1_565
Ge1 Ge5 2.610732 1_565
Ge1 Nb0 2.736606 1_565
Ge1 Nb11 2.785291 1_565
Ge1 Nb5 2.785291 1_565
Ge1 Nb1 2.876054 1_555
Ge2 Ge6 2.610732 1_555
Ge2 Nb3 2.736606 1_455
Ge2 Nb8 2.785291 1_555
Ge2 Nb6 2.785291 1_555
Ge2 Nb2 2.876054 1_545
Ge3 Ge7 2.610732 1_545
Ge3 Nb2 2.736606 1_545
Ge3 Nb7 2.785291 1_545
Ge3 Nb9 2.785291 1_545
Ge3 Nb3 2.876054 1_555
Ge4 Nb11 2.638507 1_555
Ge4 Nb5 2.638507 1_555
Ge4 Nb10 2.707635 1_555
Ge4 Nb4 2.707635 1_555
Ge4 Nb1 2.737699 1_555
Ge4 Nb0 2.770573 1_555
Ge5 Nb4 2.638507 1_455
Ge5 Nb10 2.638507 1_455
Ge5 Nb11 2.707635 1_555
Ge5 Nb5 2.707635 1_555
Ge5 Nb0 2.737699 1_455
Ge5 Nb1 2.770573 1_555
Ge6 Nb9 2.638507 1_555
Ge6 Nb7 2.638507 1_555
Ge6 Nb8 2.707635 1_555
Ge6 Nb6 2.707635 1_555
Ge6 Nb3 2.737699 1_555
Ge6 Nb2 2.770573 1_555
Ge7 Nb6 2.638507 1_655
Ge7 Nb8 2.638507 1_655
Ge7 Nb7 2.707635 1_555
Ge7 Nb9 2.707635 1_555
Ge7 Nb2 2.737699 1_655
Ge7 Nb3 2.770573 1_555
Ge8 Nb4 2.645864 1_555
Ge8 Nb7 2.733371 1_545
Ge8 Nb11 2.775939 1_555
Ge8 Nb0 2.832403 1_555
Ge9 Nb5 2.645864 1_555
Ge9 Nb6 2.733371 1_556
Ge9 Nb10 2.775939 1_455
Ge9 Nb1 2.832403 1_555
Ge10 Nb6 2.645864 1_555
Ge10 Nb5 2.733371 1_564
Ge10 Ge14 2.736204 1_564
Ge10 Nb9 2.775939 1_555
Ge10 Nb2 2.832403 1_555
Ge11 Nb7 2.645864 1_555
Ge11 Nb4 2.733371 1_555
Ge11 Ge15 2.736204 1_655
Ge11 Nb8 2.775939 1_655
Ge11 Nb3 2.832403 1_555
Ge12 Nb8 2.645864 1_555
Ge12 Nb11 2.733371 1_565
Ge12 Ge8 2.736204 1_565
Ge12 Nb7 2.775939 1_555
Ge12 Nb2 2.832403 1_555
Ge13 Nb9 2.645864 1_555
Ge13 Nb10 2.733371 1_554
Ge13 Ge9 2.736204 1_654
Ge13 Nb6 2.775939 1_655
Ge13 Nb3 2.832403 1_555
Ge14 Nb10 2.645864 1_555
Ge14 Nb9 2.733371 1_546
Ge14 Nb5 2.775939 1_555
Ge14 Nb0 2.832403 1_555
Ge15 Nb11 2.645864 1_555
Ge15 Nb8 2.733371 1_555
Ge15 Nb4 2.775939 1_455
Ge15 Nb1 2.832403 1_555
