# generated using pymatgen
data_CeCu2Si
_symmetry_space_group_name_H-M   'P 1'
_cell_length_a   8.92632383
_cell_length_b   8.92632383
_cell_length_c   4.07833800
_cell_angle_alpha   90.00000000
_cell_angle_beta   90.00000000
_cell_angle_gamma   154.23043242
_symmetry_Int_Tables_number   1
_chemical_formula_structural   CeCu2Si
_chemical_formula_sum   'Ce2 Cu4 Si2'
_cell_volume   141.27682198
_cell_formula_units_Z   2
loop_
 _symmetry_equiv_pos_site_id
 _symmetry_equiv_pos_as_xyz
  1  'x, y, z'
loop_
 _atom_site_type_symbol
 _atom_site_label
 _atom_site_symmetry_multiplicity
 _atom_site_fract_x
 _atom_site_fract_y
 _atom_site_fract_z
 _atom_site_occupancy
  Ce  Ce0  1  0.61013700  0.38986300  0.25000000  1
  Ce  Ce1  1  0.38986300  0.61013700  0.75000000  1
  Cu  Cu0  1  0.96243400  0.03756600  0.25000000  1
  Cu  Cu1  1  0.03756600  0.96243400  0.75000000  1
  Cu  Cu2  1  0.24929700  0.75070300  0.25000000  1
  Cu  Cu3  1  0.75070300  0.24929700  0.75000000  1
  Si  Si0  1  0.82591600  0.17408400  0.25000000  1
  Si  Si1  1  0.17408400  0.82591600  0.75000000  1
loop_
_geom_bond_atom_site_label_1
_geom_bond_atom_site_label_2
_geom_bond_distance
_geom_bond_site_symmetry_2
Ce0 Si1 3.059210 1_544
Ce0 Si1 3.059210 1_654
Ce0 Si1 3.059210 1_655
Ce0 Si1 3.059210 1_545
Ce0 Cu1 3.116944 1_655
Ce0 Cu1 3.116944 1_654
Ce0 Cu1 3.116944 1_545
Ce0 Cu1 3.116944 1_544
Ce0 Cu2 3.134847 1_655
Ce0 Cu2 3.134847 1_545
Ce0 Cu3 3.184735 1_555
Ce0 Cu3 3.184735 1_554
Ce0 Cu0 3.251076 1_565
Ce0 Cu0 3.251076 1_455
Ce1 Si0 3.059210 1_566
Ce1 Si0 3.059210 1_565
Ce1 Si0 3.059210 1_456
Ce1 Si0 3.059210 1_455
Ce1 Cu0 3.116944 1_565
Ce1 Cu0 3.116944 1_566
Ce1 Cu0 3.116944 1_456
Ce1 Cu0 3.116944 1_455
Ce1 Cu3 3.134847 1_565
Ce1 Cu3 3.134847 1_455
Ce1 Cu2 3.184735 1_555
Ce1 Cu2 3.184735 1_556
Ce1 Cu1 3.251076 1_655
Ce1 Cu1 3.251076 1_545
Cu0 Si0 2.375840 1_555
Cu0 Cu1 2.422364 1_645
Cu0 Cu1 2.422364 1_644
Cu1 Si1 2.375840 1_555
Cu2 Si0 2.395838 1_455
Cu2 Si0 2.395838 1_565
Cu2 Si1 2.423126 1_555
Cu2 Si1 2.423126 1_554
Cu2 Cu3 2.849714 1_565
Cu2 Cu3 2.849714 1_564
Cu2 Cu3 2.849714 1_455
Cu2 Cu3 2.849714 1_454
Cu3 Si1 2.395838 1_545
Cu3 Si1 2.395838 1_655
Cu3 Si0 2.423126 1_556
Cu3 Si0 2.423126 1_555
