# generated using pymatgen
data_MgFe3Ni2Sb(PO4)6
_symmetry_space_group_name_H-M   'P 1'
_cell_length_a   8.90467205
_cell_length_b   8.90467523
_cell_length_c   8.90467211
_cell_angle_alpha   58.29144343
_cell_angle_beta   58.29145882
_cell_angle_gamma   58.29145144
_symmetry_Int_Tables_number   1
_chemical_formula_structural   MgFe3Ni2Sb(PO4)6
_chemical_formula_sum   'Mg1 Fe3 Ni2 Sb1 P6 O24'
_cell_volume   479.73745093
_cell_formula_units_Z   1
loop_
 _symmetry_equiv_pos_site_id
 _symmetry_equiv_pos_as_xyz
  1  'x, y, z'
loop_
 _atom_site_type_symbol
 _atom_site_label
 _atom_site_symmetry_multiplicity
 _atom_site_fract_x
 _atom_site_fract_y
 _atom_site_fract_z
 _atom_site_occupancy
  Mg  Mg0  1  0.61932900  0.61932900  0.61932900  1
  Fe  Fe0  1  0.14730000  0.14730000  0.14729900  1
  Fe  Fe1  1  0.34444500  0.34444500  0.34444500  1
  Fe  Fe2  1  0.74560300  0.74560400  0.74560300  1
  Ni  Ni0  1  0.01306900  0.01307300  0.01307300  1
  Ni  Ni1  1  0.48529800  0.48529600  0.48529700  1
  Sb  Sb0  1  0.87887100  0.87887100  0.87887100  1
  P  P0  1  0.04729900  0.74085800  0.43563100  1
  P  P1  1  0.43563200  0.04729900  0.74085800  1
  P  P2  1  0.74085800  0.43563200  0.04729900  1
  P  P3  1  0.25421100  0.52829400  0.95495600  1
  P  P4  1  0.52829400  0.95495600  0.25421100  1
  P  P5  1  0.95495700  0.25421100  0.52829400  1
  O  O0  1  0.08385200  0.35967300  0.45395900  1
  O  O1  1  0.35967300  0.45395800  0.08385200  1
  O  O2  1  0.06212700  0.91222700  0.25188800  1
  O  O3  1  0.45395900  0.08385200  0.35967300  1
  O  O4  1  0.99759900  0.78197400  0.60909700  1
  O  O5  1  0.23978900  0.58056500  0.41378100  1
  O  O6  1  0.25188800  0.06212700  0.91222700  1
  O  O7  1  0.41378100  0.23978900  0.58056600  1
  O  O8  1  0.14144100  0.40695900  0.02238900  1
  O  O9  1  0.58056600  0.41378000  0.23979000  1
  O  O10  1  0.11034200  0.73619000  0.96564200  1
  O  O11  1  0.40695900  0.02238800  0.14144100  1
  O  O12  1  0.60909800  0.99759900  0.78197400  1
  O  O13  1  0.91222700  0.25188900  0.06212700  1
  O  O14  1  0.38460800  0.54959000  0.74781200  1
  O  O15  1  0.78197300  0.60909800  0.99759900  1
  O  O16  1  0.54959000  0.74781200  0.38460800  1
  O  O17  1  0.73619000  0.96564200  0.11034200  1
  O  O18  1  0.74781200  0.38460800  0.54958900  1
  O  O19  1  0.02238900  0.14144100  0.40695900  1
  O  O20  1  0.49511600  0.86921000  0.69931600  1
  O  O21  1  0.96564200  0.11034200  0.73619000  1
  O  O22  1  0.69931600  0.49511700  0.86921000  1
  O  O23  1  0.86921000  0.69931700  0.49511700  1
loop_
_geom_bond_atom_site_label_1
_geom_bond_atom_site_label_2
_geom_bond_distance
_geom_bond_site_symmetry_2
Mg0 O16 2.041326 1_555
Mg0 O14 2.041326 1_555
Mg0 O18 2.041332 1_555
Mg0 O20 2.220930 1_555
Mg0 O22 2.220931 1_555
Mg0 O23 2.220936 1_555
Fe0 O8 1.953662 1_555
Fe0 O11 1.953663 1_555
Fe0 O19 1.953669 1_555
Fe0 O13 2.168250 1_455
Fe0 O6 2.168251 1_554
Fe0 O2 2.168257 1_545
Fe1 O0 1.945132 1_555
Fe1 O1 1.945133 1_555
Fe1 O3 1.945133 1_555
Fe1 O5 2.090577 1_555
Fe1 O9 2.090582 1_555
Fe1 O7 2.090584 1_555
Fe2 O12 2.024983 1_555
Fe2 O15 2.024985 1_555
Fe2 O4 2.024985 1_555
Fe2 O23 2.065250 1_555
Fe2 O22 2.065258 1_555
Fe2 O20 2.065259 1_555
Ni0 O13 2.018977 1_455
Ni0 O2 2.018979 1_545
Ni0 O6 2.018994 1_554
Ni0 O17 2.339364 1_445
Ni0 O21 2.339379 1_454
Ni0 O10 2.339389 1_544
Ni1 O9 2.202398 1_555
Ni1 O7 2.202401 1_555
Ni1 O5 2.202411 1_555
Ni1 O18 2.293479 1_555
Ni1 O14 2.293493 1_555
Ni1 O16 2.293494 1_555
O0 P5 1.522634 1_455
O1 P3 1.522638 1_554
O2 P0 1.543770 1_555
O3 P4 1.522642 1_545
O4 P0 1.556096 1_655
O4 Sb0 2.486606 1_555
O5 P0 1.543611 1_555
O6 P1 1.543775 1_555
O7 P1 1.543607 1_555
O8 P3 1.536548 1_554
O9 P2 1.543613 1_555
O10 P3 1.625228 1_555
O10 Sb0 2.085431 1_455
O11 P4 1.536551 1_545
O12 P1 1.556095 1_565
O12 Sb0 2.486597 1_555
O13 P2 1.543770 1_555
O14 P3 1.548840 1_555
O15 P2 1.556090 1_556
O15 Sb0 2.486603 1_555
O16 P4 1.548840 1_555
O17 P4 1.625228 1_555
O17 Sb0 2.085431 1_554
O18 P5 1.548848 1_555
O19 P5 1.536551 1_455
O20 P1 1.568419 1_565
O21 P5 1.625225 1_555
O21 Sb0 2.085431 1_545
O22 P2 1.568416 1_556
O23 P0 1.568408 1_655
