# generated using pymatgen
data_MgFeSiO4
_symmetry_space_group_name_H-M   'P 1'
_cell_length_a   4.80995625
_cell_length_b   5.96953027
_cell_length_c   10.32344557
_cell_angle_alpha   90.00000000
_cell_angle_beta   90.00000000
_cell_angle_gamma   90.00000000
_symmetry_Int_Tables_number   1
_chemical_formula_structural   MgFeSiO4
_chemical_formula_sum   'Mg4 Fe4 Si4 O16'
_cell_volume   296.41894501
_cell_formula_units_Z   4
loop_
 _symmetry_equiv_pos_site_id
 _symmetry_equiv_pos_as_xyz
  1  'x, y, z'
loop_
 _atom_site_type_symbol
 _atom_site_label
 _atom_site_symmetry_multiplicity
 _atom_site_fract_x
 _atom_site_fract_y
 _atom_site_fract_z
 _atom_site_occupancy
  Mg  Mg0  1  0.49435670  0.75000000  0.22232316  1
  Mg  Mg1  1  0.00564330  0.75000000  0.72232316  1
  Mg  Mg2  1  0.50564330  0.25000000  0.77767684  1
  Mg  Mg3  1  0.99435670  0.25000000  0.27767684  1
  Fe  Fe0  1  0.50000000  -0.00000000  0.50000000  1
  Fe  Fe1  1  0.00000000  0.50000000  -0.00000000  1
  Fe  Fe2  1  0.50000000  0.50000000  0.50000000  1
  Fe  Fe3  1  0.00000000  -0.00000000  -0.00000000  1
  Si  Si0  1  0.93082443  0.75000000  0.40179111  1
  Si  Si1  1  0.56917557  0.75000000  0.90179111  1
  Si  Si2  1  0.06917557  0.25000000  0.59820889  1
  Si  Si3  1  0.43082443  0.25000000  0.09820889  1
  O  O0  1  0.27012150  0.75000000  0.40285296  1
  O  O1  1  0.22987850  0.75000000  0.90285296  1
  O  O2  1  0.72987850  0.25000000  0.59714704  1
  O  O3  1  0.77012150  0.25000000  0.09714704  1
  O  O4  1  0.70165599  0.75000000  0.04963320  1
  O  O5  1  0.79834401  0.75000000  0.54963320  1
  O  O6  1  0.29834401  0.25000000  0.95036680  1
  O  O7  1  0.20165599  0.25000000  0.45036680  1
  O  O8  1  0.78478133  0.96628409  0.33257225  1
  O  O9  1  0.71521867  0.53371591  0.83257225  1
  O  O10  1  0.21521867  0.46628409  0.66742775  1
  O  O11  1  0.28478133  0.03371591  0.16742775  1
  O  O12  1  0.21521867  0.03371591  0.66742775  1
  O  O13  1  0.28478133  0.46628409  0.16742775  1
  O  O14  1  0.78478133  0.53371591  0.33257225  1
  O  O15  1  0.71521867  0.96628409  0.83257225  1
loop_
_geom_bond_atom_site_label_1
_geom_bond_atom_site_label_2
_geom_bond_distance
_geom_bond_site_symmetry_2
Mg0 O4 2.042652 1_555
Mg0 O11 2.050798 1_565
Mg0 O13 2.050798 1_555
Mg0 O0 2.153284 1_555
Mg0 O14 2.216704 1_555
Mg0 O8 2.216704 1_555
Mg1 O5 2.042652 1_455
Mg1 O12 2.050798 1_565
Mg1 O10 2.050798 1_555
Mg1 O1 2.153284 1_555
Mg1 O15 2.216704 1_455
Mg1 O9 2.216704 1_455
Mg2 O6 2.042652 1_555
Mg2 O15 2.050798 1_545
Mg2 O9 2.050798 1_555
Mg2 O2 2.153284 1_555
Mg2 O10 2.216704 1_555
Mg2 O12 2.216704 1_555
Mg3 O7 2.042652 1_655
Mg3 O8 2.050798 1_545
Mg3 O14 2.050798 1_555
Mg3 O3 2.153284 1_555
Mg3 O13 2.216704 1_655
Mg3 O11 2.216704 1_655
Fe0 O2 2.110825 1_555
Fe0 O0 2.110825 1_545
Fe0 O5 2.132846 1_545
Fe0 O7 2.132846 1_555
Fe0 O12 2.214565 1_555
Fe0 O8 2.214565 1_545
Fe1 O1 2.110825 1_554
Fe1 O3 2.110825 1_455
Fe1 O4 2.132846 1_455
Fe1 O6 2.132846 1_554
Fe1 O9 2.214565 1_454
Fe1 O13 2.214565 1_555
Fe2 O2 2.110825 1_555
Fe2 O0 2.110825 1_555
Fe2 O5 2.132846 1_555
Fe2 O7 2.132846 1_555
Fe2 O14 2.214565 1_555
Fe2 O10 2.214565 1_555
Fe3 O1 2.110825 1_544
Fe3 O3 2.110825 1_455
Fe3 O4 2.132846 1_445
Fe3 O6 2.132846 1_554
Fe3 O15 2.214565 1_444
Fe3 O11 2.214565 1_555
O0 Si0 1.632041 1_455
O1 Si1 1.632041 1_555
O2 Si2 1.632041 1_655
O3 Si3 1.632041 1_555
O4 Si1 1.653924 1_554
O5 Si0 1.653924 1_555
O6 Si3 1.653924 1_556
O7 Si2 1.653924 1_555
O8 Si0 1.634334 1_555
O9 Si1 1.634334 1_555
O10 Si2 1.634334 1_555
O11 Si3 1.634334 1_555
O12 Si2 1.634334 1_555
O13 Si3 1.634334 1_555
O14 Si0 1.634334 1_555
O15 Si1 1.634334 1_555
