# generated using pymatgen
data_Np(CrSi)2
_symmetry_space_group_name_H-M   'P 1'
_cell_length_a   5.76279988
_cell_length_b   5.76279988
_cell_length_c   5.76279988
_cell_angle_alpha   140.27657056
_cell_angle_beta   140.27657056
_cell_angle_gamma   57.43360558
_symmetry_Int_Tables_number   1
_chemical_formula_structural   Np(CrSi)2
_chemical_formula_sum   'Np1 Cr2 Si2'
_cell_volume   77.49697356
_cell_formula_units_Z   1
loop_
 _symmetry_equiv_pos_site_id
 _symmetry_equiv_pos_as_xyz
  1  'x, y, z'
loop_
 _atom_site_type_symbol
 _atom_site_label
 _atom_site_symmetry_multiplicity
 _atom_site_fract_x
 _atom_site_fract_y
 _atom_site_fract_z
 _atom_site_occupancy
  Np  Np0  1  0.00000000  0.00000000  0.00000000  1
  Cr  Cr0  1  0.25000000  0.75000000  0.50000000  1
  Cr  Cr1  1  0.75000000  0.25000000  0.50000000  1
  Si  Si0  1  0.61566200  0.61566200  0.00000000  1
  Si  Si1  1  0.38433800  0.38433800  0.00000000  1
loop_
_geom_bond_atom_site_label_1
_geom_bond_atom_site_label_2
_geom_bond_distance
_geom_bond_site_symmetry_2
Np0 Si0 3.005613 1_545
Np0 Si0 3.005613 1_556
Np0 Si0 3.005613 1_444
Np0 Si0 3.005613 1_455
Np0 Si1 3.005613 1_556
Np0 Si1 3.005613 1_444
Np0 Si1 3.005613 1_455
Np0 Si1 3.005613 1_545
Cr0 Si1 2.382710 1_566
Cr0 Si1 2.382710 1_555
Cr0 Si0 2.382710 1_455
Cr0 Si0 2.382710 1_556
Cr0 Np0 3.196746 1_566
Cr0 Np0 3.196746 1_666
Cr0 Np0 3.196746 1_565
Cr0 Np0 3.196746 1_555
Cr1 Si1 2.382710 1_656
Cr1 Si1 2.382710 1_555
Cr1 Si0 2.382710 1_545
Cr1 Si0 2.382710 1_556
Cr1 Np0 3.196746 1_666
Cr1 Np0 3.196746 1_655
Cr1 Np0 3.196746 1_656
Cr1 Np0 3.196746 1_555
Si0 Si1 2.338226 1_555
