# generated using pymatgen
data_Ti6Al16Co7
_symmetry_space_group_name_H-M   'P 1'
_cell_length_a   8.32318280
_cell_length_b   8.32318280
_cell_length_c   8.32318280
_cell_angle_alpha   60.00000000
_cell_angle_beta   60.00000000
_cell_angle_gamma   60.00000000
_symmetry_Int_Tables_number   1
_chemical_formula_structural   Ti6Al16Co7
_chemical_formula_sum   'Ti6 Al16 Co7'
_cell_volume   407.71181928
_cell_formula_units_Z   1
loop_
 _symmetry_equiv_pos_site_id
 _symmetry_equiv_pos_as_xyz
  1  'x, y, z'
loop_
 _atom_site_type_symbol
 _atom_site_label
 _atom_site_symmetry_multiplicity
 _atom_site_fract_x
 _atom_site_fract_y
 _atom_site_fract_z
 _atom_site_occupancy
  Ti  Ti0  1  0.69058200  0.30941800  0.30941800  1
  Ti  Ti1  1  0.69058200  0.30941800  0.69058200  1
  Ti  Ti2  1  0.69058200  0.69058200  0.30941800  1
  Ti  Ti3  1  0.30941800  0.69058200  0.69058200  1
  Ti  Ti4  1  0.30941800  0.69058200  0.30941800  1
  Ti  Ti5  1  0.30941800  0.30941800  0.69058200  1
  Al  Al0  1  0.64364500  0.11878500  0.11878500  1
  Al  Al1  1  0.11878500  0.64364500  0.11878500  1
  Al  Al2  1  0.11878500  0.11878500  0.64364500  1
  Al  Al3  1  0.11878500  0.11878500  0.11878500  1
  Al  Al4  1  0.35635500  0.88121500  0.88121500  1
  Al  Al5  1  0.88121500  0.35635500  0.88121500  1
  Al  Al6  1  0.88121500  0.88121500  0.35635500  1
  Al  Al7  1  0.88121500  0.88121500  0.88121500  1
  Al  Al8  1  0.98124900  0.33958400  0.33958400  1
  Al  Al9  1  0.33958400  0.98124900  0.33958400  1
  Al  Al10  1  0.33958400  0.33958400  0.98124900  1
  Al  Al11  1  0.33958400  0.33958400  0.33958400  1
  Al  Al12  1  0.01875100  0.66041600  0.66041600  1
  Al  Al13  1  0.66041600  0.01875100  0.66041600  1
  Al  Al14  1  0.66041600  0.66041600  0.01875100  1
  Al  Al15  1  0.66041600  0.66041600  0.66041600  1
  Co  Co0  1  0.00000000  0.00000000  0.00000000  1
  Co  Co1  1  0.50000000  0.00000000  0.00000000  1
  Co  Co2  1  0.50000000  0.00000000  0.50000000  1
  Co  Co3  1  0.50000000  0.50000000  0.00000000  1
  Co  Co4  1  0.00000000  0.50000000  0.50000000  1
  Co  Co5  1  0.00000000  0.50000000  0.00000000  1
  Co  Co6  1  0.00000000  0.00000000  0.50000000  1
loop_
_geom_bond_atom_site_label_1
_geom_bond_atom_site_label_2
_geom_bond_distance
_geom_bond_site_symmetry_2
Ti0 Ti1 3.172498 1_555
Ti0 Ti2 3.172498 1_555
Ti0 Ti5 3.172498 1_555
Ti0 Ti4 3.172498 1_555
Ti1 Ti2 3.172498 1_555
Ti1 Ti5 3.172498 1_555
Ti1 Ti3 3.172498 1_555
Ti2 Ti3 3.172498 1_555
Ti2 Ti4 3.172498 1_555
Ti3 Ti5 3.172498 1_555
Ti3 Ti4 3.172498 1_555
Ti4 Ti5 3.172498 1_555
Al0 Co0 2.421735 1_655
Al0 Co3 2.593433 1_555
Al0 Co2 2.593433 1_555
Al0 Co1 2.593433 1_555
Al0 Ti2 2.990808 1_545
Al0 Ti1 2.990808 1_554
Al0 Ti0 2.990808 1_555
Al1 Co0 2.421735 1_565
Al1 Co3 2.593433 1_555
Al1 Co4 2.593433 1_555
Al1 Co5 2.593433 1_555
Al1 Ti2 2.990808 1_455
Al1 Ti3 2.990808 1_554
Al1 Ti4 2.990808 1_555
Al2 Co0 2.421735 1_556
Al2 Co2 2.593433 1_555
Al2 Co4 2.593433 1_555
Al2 Co6 2.593433 1_555
Al2 Ti3 2.990808 1_545
Al2 Ti1 2.990808 1_455
Al2 Ti5 2.990808 1_555
Al3 Co0 2.421735 1_555
Al3 Co6 2.593433 1_555
Al3 Co1 2.593433 1_555
Al3 Co5 2.593433 1_555
Al3 Ti5 2.990808 1_554
Al3 Ti4 2.990808 1_545
Al3 Ti0 2.990808 1_455
Al4 Co0 2.421735 1_566
Al4 Co3 2.593433 1_556
Al4 Co2 2.593433 1_565
Al4 Co1 2.593433 1_566
Al4 Ti3 2.990808 1_555
Al4 Ti5 2.990808 1_565
Al4 Ti4 2.990808 1_556
Al5 Co0 2.421735 1_656
Al5 Co3 2.593433 1_556
Al5 Co4 2.593433 1_655
Al5 Co5 2.593433 1_656
Al5 Ti1 2.990808 1_555
Al5 Ti5 2.990808 1_655
Al5 Ti0 2.990808 1_556
Al6 Co0 2.421735 1_665
Al6 Co4 2.593433 1_655
Al6 Co2 2.593433 1_565
Al6 Co6 2.593433 1_665
Al6 Ti2 2.990808 1_555
Al6 Ti0 2.990808 1_565
Al6 Ti4 2.990808 1_655
Al7 Co0 2.421735 1_666
Al7 Co1 2.593433 1_566
Al7 Co6 2.593433 1_665
Al7 Co5 2.593433 1_656
Al7 Ti3 2.990808 1_655
Al7 Ti1 2.990808 1_565
Al7 Ti2 2.990808 1_556
Al8 Co4 2.406068 1_655
Al8 Co5 2.406075 1_655
Al8 Co6 2.406075 1_655
Al8 Ti1 2.693851 1_555
Al8 Ti2 2.693851 1_555
Al8 Ti0 2.693856 1_555
Al9 Co2 2.406068 1_565
Al9 Co1 2.406075 1_565
Al9 Co6 2.406075 1_565
Al9 Ti3 2.693851 1_555
Al9 Ti2 2.693851 1_555
Al9 Ti4 2.693856 1_555
Al10 Co3 2.406068 1_556
Al10 Co1 2.406075 1_556
Al10 Co5 2.406075 1_556
Al10 Ti3 2.693851 1_555
Al10 Ti1 2.693851 1_555
Al10 Ti5 2.693856 1_555
Al11 Co4 2.406073 1_555
Al11 Co2 2.406073 1_555
Al11 Co3 2.406073 1_555
Al11 Ti4 2.693847 1_555
Al11 Ti5 2.693847 1_555
Al11 Ti0 2.693847 1_555
Al12 Co4 2.406068 1_555
Al12 Co6 2.406075 1_565
Al12 Co5 2.406075 1_556
Al12 Ti4 2.693851 1_555
Al12 Ti5 2.693851 1_555
Al12 Ti3 2.693856 1_555
Al13 Co2 2.406068 1_555
Al13 Co6 2.406075 1_655
Al13 Co1 2.406075 1_556
Al13 Ti0 2.693851 1_555
Al13 Ti5 2.693851 1_555
Al13 Ti1 2.693856 1_555
Al14 Co3 2.406068 1_555
Al14 Co5 2.406075 1_655
Al14 Co1 2.406075 1_565
Al14 Ti0 2.693851 1_555
Al14 Ti4 2.693851 1_555
Al14 Ti2 2.693856 1_555
Al15 Co4 2.406073 1_655
Al15 Co2 2.406073 1_565
Al15 Co3 2.406073 1_556
Al15 Ti2 2.693847 1_555
Al15 Ti3 2.693847 1_555
Al15 Ti1 2.693847 1_555
Co1 Ti5 3.024661 1_554
Co1 Ti4 3.024661 1_545
Co1 Ti1 3.024661 1_554
Co1 Ti2 3.024661 1_545
Co2 Ti2 3.024661 1_545
Co2 Ti3 3.024661 1_545
Co2 Ti5 3.024661 1_555
Co2 Ti0 3.024661 1_555
Co3 Ti3 3.024661 1_554
Co3 Ti1 3.024661 1_554
Co3 Ti4 3.024661 1_555
Co3 Ti0 3.024661 1_555
Co4 Ti2 3.024661 1_455
Co4 Ti1 3.024661 1_455
Co4 Ti4 3.024661 1_555
Co4 Ti5 3.024661 1_555
Co5 Ti5 3.024661 1_554
Co5 Ti0 3.024661 1_455
Co5 Ti3 3.024661 1_554
Co5 Ti2 3.024661 1_455
Co6 Ti4 3.024661 1_545
Co6 Ti0 3.024661 1_455
Co6 Ti3 3.024661 1_545
Co6 Ti1 3.024661 1_455
