# generated using pymatgen
data_NaLaZrFeO6
_symmetry_space_group_name_H-M   'P 1'
_cell_length_a   5.66484464
_cell_length_b   5.66484464
_cell_length_c   5.66484464
_cell_angle_alpha   60.00000000
_cell_angle_beta   60.00000000
_cell_angle_gamma   60.00000000
_symmetry_Int_Tables_number   1
_chemical_formula_structural   NaLaZrFeO6
_chemical_formula_sum   'Na1 La1 Zr1 Fe1 O6'
_cell_volume   128.54317228
_cell_formula_units_Z   1
loop_
 _symmetry_equiv_pos_site_id
 _symmetry_equiv_pos_as_xyz
  1  'x, y, z'
loop_
 _atom_site_type_symbol
 _atom_site_label
 _atom_site_symmetry_multiplicity
 _atom_site_fract_x
 _atom_site_fract_y
 _atom_site_fract_z
 _atom_site_occupancy
  Na  Na0  1  0.25000000  0.25000000  0.25000000  1
  La  La0  1  0.75000000  0.75000000  0.75000000  1
  Zr  Zr0  1  0.50000000  0.50000000  0.50000000  1
  Fe  Fe0  1  0.00000000  0.00000000  0.00000000  1
  O  O0  1  0.75799992  0.24200008  0.24200008  1
  O  O1  1  0.24200008  0.75799992  0.75799992  1
  O  O2  1  0.75799992  0.24200008  0.75799992  1
  O  O3  1  0.24200008  0.75799992  0.24200008  1
  O  O4  1  0.75799992  0.75799992  0.24200008  1
  O  O5  1  0.24200008  0.24200008  0.75799992  1
loop_
_geom_bond_atom_site_label_1
_geom_bond_atom_site_label_2
_geom_bond_distance
_geom_bond_site_symmetry_2
Na0 O4 2.833147 1_545
Na0 O4 2.833147 1_455
Na0 O5 2.833147 1_555
Na0 O5 2.833147 1_554
Na0 O1 2.833147 1_554
Na0 O3 2.833147 1_545
Na0 O2 2.833147 1_455
Na0 O1 2.833147 1_545
Na0 O0 2.833147 1_455
Na0 O2 2.833147 1_554
Na0 O3 2.833147 1_555
Na0 O0 2.833147 1_555
La0 O5 2.833147 1_565
La0 O5 2.833147 1_655
La0 O4 2.833147 1_555
La0 O4 2.833147 1_556
La0 O1 2.833147 1_555
La0 O3 2.833147 1_655
La0 O0 2.833147 1_565
La0 O1 2.833147 1_655
La0 O2 2.833147 1_555
La0 O2 2.833147 1_565
La0 O0 2.833147 1_556
La0 O3 2.833147 1_556
Fe0 O2 1.938735 1_454
Fe0 O4 1.938735 1_445
Fe0 O1 1.938735 1_544
Fe0 O3 1.938735 1_545
Fe0 O5 1.938735 1_554
Fe0 O0 1.938735 1_455
O0 Zr0 2.066915 1_555
O1 Zr0 2.066915 1_555
O2 Zr0 2.066915 1_555
O3 Zr0 2.066915 1_555
O4 Zr0 2.066915 1_555
O5 Zr0 2.066915 1_555
