# generated using pymatgen
data_Ba4Ti5PbO15
_symmetry_space_group_name_H-M   'P 1'
_cell_length_a   4.02218200
_cell_length_b   4.02218200
_cell_length_c   20.10278700
_cell_angle_alpha   90.00000000
_cell_angle_beta   90.00000000
_cell_angle_gamma   90.00000000
_symmetry_Int_Tables_number   1
_chemical_formula_structural   Ba4Ti5PbO15
_chemical_formula_sum   'Ba4 Ti5 Pb1 O15'
_cell_volume   325.22184357
_cell_formula_units_Z   1
loop_
 _symmetry_equiv_pos_site_id
 _symmetry_equiv_pos_as_xyz
  1  'x, y, z'
loop_
 _atom_site_type_symbol
 _atom_site_label
 _atom_site_symmetry_multiplicity
 _atom_site_fract_x
 _atom_site_fract_y
 _atom_site_fract_z
 _atom_site_occupancy
  Ba  Ba0  1  0.00000000  0.00000000  0.19940700  1
  Ba  Ba1  1  0.00000000  0.00000000  0.39996500  1
  Ba  Ba2  1  0.00000000  0.00000000  0.60003500  1
  Ba  Ba3  1  0.00000000  0.00000000  0.80059300  1
  Ti  Ti0  1  0.50000000  0.50000000  0.09854000  1
  Ti  Ti1  1  0.50000000  0.50000000  0.29965200  1
  Ti  Ti2  1  0.50000000  0.50000000  0.50000000  1
  Ti  Ti3  1  0.50000000  0.50000000  0.70034800  1
  Ti  Ti4  1  0.50000000  0.50000000  0.90146000  1
  Pb  Pb0  1  0.00000000  0.00000000  0.00000000  1
  O  O0  1  0.00000000  0.50000000  0.09878300  1
  O  O1  1  0.00000000  0.50000000  0.29997500  1
  O  O2  1  0.00000000  0.50000000  0.50000000  1
  O  O3  1  0.00000000  0.50000000  0.70002500  1
  O  O4  1  0.00000000  0.50000000  0.90121700  1
  O  O5  1  0.50000000  0.00000000  0.09878300  1
  O  O6  1  0.50000000  0.00000000  0.29997500  1
  O  O7  1  0.50000000  0.00000000  0.50000000  1
  O  O8  1  0.50000000  0.00000000  0.70002500  1
  O  O9  1  0.50000000  0.00000000  0.90121700  1
  O  O10  1  0.50000000  0.50000000  0.00000000  1
  O  O11  1  0.50000000  0.50000000  0.19958500  1
  O  O12  1  0.50000000  0.50000000  0.40000900  1
  O  O13  1  0.50000000  0.50000000  0.59999100  1
  O  O14  1  0.50000000  0.50000000  0.80041500  1
loop_
_geom_bond_atom_site_label_1
_geom_bond_atom_site_label_2
_geom_bond_distance
_geom_bond_site_symmetry_2
Ba0 O11 2.844114 1_455
Ba0 O11 2.844114 1_555
Ba0 O11 2.844114 1_445
Ba0 O11 2.844114 1_545
Ba0 O6 2.851622 1_455
Ba0 O1 2.851622 1_545
Ba0 O6 2.851622 1_555
Ba0 O1 2.851622 1_555
Ba0 O0 2.852420 1_555
Ba0 O5 2.852420 1_555
Ba0 O0 2.852420 1_545
Ba0 O5 2.852420 1_455
Ba1 O1 2.843396 1_555
Ba1 O6 2.843396 1_455
Ba1 O1 2.843396 1_545
Ba1 O6 2.843396 1_555
Ba1 O7 2.844035 1_455
Ba1 O2 2.844035 1_545
Ba1 O2 2.844035 1_555
Ba1 O7 2.844035 1_555
Ba1 O12 2.844112 1_455
Ba1 O12 2.844112 1_555
Ba1 O12 2.844112 1_445
Ba1 O12 2.844112 1_545
Ba2 O3 2.843396 1_555
Ba2 O8 2.843396 1_555
Ba2 O8 2.843396 1_455
Ba2 O3 2.843396 1_545
Ba2 O7 2.844035 1_555
Ba2 O2 2.844035 1_555
Ba2 O7 2.844035 1_455
Ba2 O2 2.844035 1_545
Ba2 O13 2.844112 1_445
Ba2 O13 2.844112 1_555
Ba2 O13 2.844112 1_545
Ba2 O13 2.844112 1_455
Ba3 O14 2.844114 1_555
Ba3 O14 2.844114 1_445
Ba3 O14 2.844114 1_545
Ba3 O14 2.844114 1_455
Ba3 O8 2.851622 1_455
Ba3 O3 2.851622 1_555
Ba3 O8 2.851622 1_555
Ba3 O3 2.851622 1_545
Ba3 O9 2.852420 1_455
Ba3 O4 2.852420 1_545
Ba3 O9 2.852420 1_555
Ba3 O4 2.852420 1_555
O0 Ti0 2.011097 1_455
O0 Ti0 2.011097 1_555
O0 Pb0 2.826295 1_565
O0 Pb0 2.826295 1_555
O1 Ti1 2.011101 1_455
O1 Ti1 2.011101 1_555
O2 Ti2 2.011091 1_555
O2 Ti2 2.011091 1_455
O3 Ti3 2.011101 1_555
O3 Ti3 2.011101 1_455
O4 Ti4 2.011097 1_455
O4 Ti4 2.011097 1_555
O4 Pb0 2.826295 1_556
O4 Pb0 2.826295 1_566
O5 Ti0 2.011097 1_555
O5 Ti0 2.011097 1_545
O5 Pb0 2.826295 1_555
O5 Pb0 2.826295 1_655
O6 Ti1 2.011101 1_555
O6 Ti1 2.011101 1_545
O7 Ti2 2.011091 1_555
O7 Ti2 2.011091 1_545
O8 Ti3 2.011101 1_555
O8 Ti3 2.011101 1_545
O9 Ti4 2.011097 1_555
O9 Ti4 2.011097 1_545
O9 Pb0 2.826295 1_556
O9 Pb0 2.826295 1_656
O10 Ti4 1.980929 1_554
O10 Ti0 1.980929 1_555
O10 Pb0 2.844112 1_565
O10 Pb0 2.844112 1_665
O10 Pb0 2.844112 1_655
O10 Pb0 2.844112 1_555
O11 Ti1 2.011626 1_555
O11 Ti0 2.031286 1_555
O12 Ti2 2.010098 1_555
O12 Ti1 2.017455 1_555
O13 Ti2 2.010098 1_555
O13 Ti3 2.017455 1_555
O14 Ti3 2.011626 1_555
O14 Ti4 2.031286 1_555
