# generated using pymatgen
data_Ca7MgMn8O24
_symmetry_space_group_name_H-M   'P 1'
_cell_length_a   7.58026200
_cell_length_b   7.58026200
_cell_length_c   7.58026200
_cell_angle_alpha   90.00000000
_cell_angle_beta   90.00000000
_cell_angle_gamma   90.00000000
_symmetry_Int_Tables_number   1
_chemical_formula_structural   Ca7MgMn8O24
_chemical_formula_sum   'Ca7 Mg1 Mn8 O24'
_cell_volume   435.56467429
_cell_formula_units_Z   1
loop_
 _symmetry_equiv_pos_site_id
 _symmetry_equiv_pos_as_xyz
  1  'x, y, z'
loop_
 _atom_site_type_symbol
 _atom_site_label
 _atom_site_symmetry_multiplicity
 _atom_site_fract_x
 _atom_site_fract_y
 _atom_site_fract_z
 _atom_site_occupancy
  Ca  Ca0  1  0.50000000  0.00000000  0.50000000  1
  Ca  Ca1  1  0.50000000  0.00000000  0.00000000  1
  Ca  Ca2  1  0.50000000  0.50000000  0.00000000  1
  Ca  Ca3  1  0.00000000  0.00000000  0.50000000  1
  Ca  Ca4  1  0.00000000  0.00000000  0.00000000  1
  Ca  Ca5  1  0.00000000  0.50000000  0.50000000  1
  Ca  Ca6  1  0.00000000  0.50000000  0.00000000  1
  Mg  Mg0  1  0.50000000  0.50000000  0.50000000  1
  Mn  Mn0  1  0.25050000  0.74950000  0.25050000  1
  Mn  Mn1  1  0.25050000  0.74950000  0.74950000  1
  Mn  Mn2  1  0.25050000  0.25050000  0.25050000  1
  Mn  Mn3  1  0.25050000  0.25050000  0.74950000  1
  Mn  Mn4  1  0.74950000  0.74950000  0.25050000  1
  Mn  Mn5  1  0.74950000  0.74950000  0.74950000  1
  Mn  Mn6  1  0.74950000  0.25050000  0.25050000  1
  Mn  Mn7  1  0.74950000  0.25050000  0.74950000  1
  O  O0  1  0.50000000  0.74754400  0.25245600  1
  O  O1  1  0.50000000  0.74754400  0.74754400  1
  O  O2  1  0.50000000  0.25245600  0.25245600  1
  O  O3  1  0.50000000  0.25245600  0.74754400  1
  O  O4  1  0.00000000  0.74968000  0.25032000  1
  O  O5  1  0.00000000  0.74968000  0.74968000  1
  O  O6  1  0.00000000  0.25032000  0.25032000  1
  O  O7  1  0.00000000  0.25032000  0.74968000  1
  O  O8  1  0.25032000  0.00000000  0.25032000  1
  O  O9  1  0.25032000  0.00000000  0.74968000  1
  O  O10  1  0.25245600  0.50000000  0.25245600  1
  O  O11  1  0.25245600  0.50000000  0.74754400  1
  O  O12  1  0.74968000  0.00000000  0.25032000  1
  O  O13  1  0.74968000  0.00000000  0.74968000  1
  O  O14  1  0.74754400  0.50000000  0.25245600  1
  O  O15  1  0.74754400  0.50000000  0.74754400  1
  O  O16  1  0.25245600  0.74754400  0.50000000  1
  O  O17  1  0.25032000  0.74968000  0.00000000  1
  O  O18  1  0.25245600  0.25245600  0.50000000  1
  O  O19  1  0.25032000  0.25032000  0.00000000  1
  O  O20  1  0.74754400  0.74754400  0.50000000  1
  O  O21  1  0.74968000  0.74968000  0.00000000  1
  O  O22  1  0.74754400  0.25245600  0.50000000  1
  O  O23  1  0.74968000  0.25032000  0.00000000  1
loop_
_geom_bond_atom_site_label_1
_geom_bond_atom_site_label_2
_geom_bond_distance
_geom_bond_site_symmetry_2
Ca0 O12 2.676597 1_555
Ca0 O9 2.676597 1_555
Ca0 O8 2.676597 1_555
Ca0 O13 2.676597 1_555
Ca0 O16 2.680157 1_545
Ca0 O0 2.680157 1_545
Ca0 O20 2.680157 1_545
Ca0 O18 2.680157 1_555
Ca0 O22 2.680157 1_555
Ca0 O1 2.680157 1_545
Ca0 O3 2.680157 1_555
Ca0 O2 2.680157 1_555
Ca1 O17 2.680030 1_545
Ca1 O9 2.680030 1_554
Ca1 O23 2.680030 1_555
Ca1 O12 2.680030 1_555
Ca1 O8 2.680030 1_555
Ca1 O21 2.680030 1_545
Ca1 O13 2.680030 1_554
Ca1 O19 2.680030 1_555
Ca1 O3 2.706356 1_554
Ca1 O1 2.706356 1_544
Ca1 O2 2.706356 1_555
Ca1 O0 2.706356 1_545
Ca2 O19 2.676597 1_555
Ca2 O17 2.676597 1_555
Ca2 O23 2.676597 1_555
Ca2 O21 2.676597 1_555
Ca2 O11 2.680157 1_554
Ca2 O15 2.680157 1_554
Ca2 O14 2.680157 1_555
Ca2 O3 2.680157 1_554
Ca2 O10 2.680157 1_555
Ca2 O0 2.680157 1_555
Ca2 O1 2.680157 1_554
Ca2 O2 2.680157 1_555
Ca3 O4 2.680030 1_545
Ca3 O12 2.680030 1_455
Ca3 O6 2.680030 1_555
Ca3 O8 2.680030 1_555
Ca3 O7 2.680030 1_555
Ca3 O5 2.680030 1_545
Ca3 O9 2.680030 1_555
Ca3 O13 2.680030 1_455
Ca3 O22 2.706356 1_455
Ca3 O20 2.706356 1_445
Ca3 O16 2.706356 1_545
Ca3 O18 2.706356 1_555
Ca4 O12 2.683458 1_455
Ca4 O9 2.683458 1_554
Ca4 O17 2.683458 1_545
Ca4 O23 2.683458 1_455
Ca4 O21 2.683458 1_445
Ca4 O13 2.683458 1_454
Ca4 O4 2.683458 1_545
Ca4 O7 2.683458 1_554
Ca4 O5 2.683458 1_544
Ca4 O19 2.683458 1_555
Ca4 O6 2.683458 1_555
Ca4 O8 2.683458 1_555
Ca5 O7 2.676597 1_555
Ca5 O4 2.676597 1_555
Ca5 O6 2.676597 1_555
Ca5 O5 2.676597 1_555
Ca5 O11 2.680157 1_555
Ca5 O15 2.680157 1_455
Ca5 O18 2.680157 1_555
Ca5 O22 2.680157 1_455
Ca5 O10 2.680157 1_555
Ca5 O16 2.680157 1_555
Ca5 O14 2.680157 1_455
Ca5 O20 2.680157 1_455
Ca6 O7 2.680030 1_554
Ca6 O23 2.680030 1_455
Ca6 O4 2.680030 1_555
Ca6 O5 2.680030 1_554
Ca6 O17 2.680030 1_555
Ca6 O21 2.680030 1_455
Ca6 O6 2.680030 1_555
Ca6 O19 2.680030 1_555
Ca6 O10 2.706356 1_555
Ca6 O14 2.706356 1_455
Ca6 O11 2.706356 1_554
Ca6 O15 2.706356 1_454
Mg0 O10 2.653699 1_555
Mg0 O22 2.653699 1_555
Mg0 O2 2.653699 1_555
Mg0 O0 2.653699 1_555
Mg0 O3 2.653699 1_555
Mg0 O20 2.653699 1_555
Mg0 O11 2.653699 1_555
Mg0 O1 2.653699 1_555
Mg0 O14 2.653699 1_555
Mg0 O18 2.653699 1_555
Mg0 O15 2.653699 1_555
Mg0 O16 2.653699 1_555
Mn0 O16 1.891392 1_555
Mn0 O0 1.891392 1_555
Mn0 O10 1.891392 1_555
Mn0 O8 1.898857 1_565
Mn0 O4 1.898857 1_555
Mn0 O17 1.898857 1_555
Mn1 O1 1.891392 1_555
Mn1 O11 1.891392 1_555
Mn1 O16 1.891392 1_555
Mn1 O9 1.898857 1_565
Mn1 O17 1.898857 1_556
Mn1 O5 1.898857 1_555
Mn2 O18 1.891392 1_555
Mn2 O10 1.891392 1_555
Mn2 O2 1.891392 1_555
Mn2 O6 1.898857 1_555
Mn2 O8 1.898857 1_555
Mn2 O19 1.898857 1_555
Mn3 O11 1.891392 1_555
Mn3 O3 1.891392 1_555
Mn3 O18 1.891392 1_555
Mn3 O19 1.898857 1_556
Mn3 O7 1.898857 1_555
Mn3 O9 1.898857 1_555
Mn4 O20 1.891392 1_555
Mn4 O14 1.891392 1_555
Mn4 O0 1.891392 1_555
Mn4 O4 1.898857 1_655
Mn4 O12 1.898857 1_565
Mn4 O21 1.898857 1_555
Mn5 O15 1.891392 1_555
Mn5 O20 1.891392 1_555
Mn5 O1 1.891392 1_555
Mn5 O21 1.898857 1_556
Mn5 O5 1.898857 1_655
Mn5 O13 1.898857 1_565
Mn6 O14 1.891392 1_555
Mn6 O22 1.891392 1_555
Mn6 O2 1.891392 1_555
Mn6 O6 1.898857 1_655
Mn6 O23 1.898857 1_555
Mn6 O12 1.898857 1_555
Mn7 O15 1.891392 1_555
Mn7 O22 1.891392 1_555
Mn7 O3 1.891392 1_555
Mn7 O23 1.898857 1_556
Mn7 O7 1.898857 1_655
Mn7 O13 1.898857 1_555
