# generated using pymatgen
data_Li3Fe3(PO4)4
_symmetry_space_group_name_H-M   'P 1'
_cell_length_a   7.67569522
_cell_length_b   8.02296625
_cell_length_c   10.05780345
_cell_angle_alpha   90.48638233
_cell_angle_beta   94.87393640
_cell_angle_gamma   89.72380465
_symmetry_Int_Tables_number   1
_chemical_formula_structural   Li3Fe3(PO4)4
_chemical_formula_sum   'Li6 Fe6 P8 O32'
_cell_volume   617.11097974
_cell_formula_units_Z   2
loop_
 _symmetry_equiv_pos_site_id
 _symmetry_equiv_pos_as_xyz
  1  'x, y, z'
loop_
 _atom_site_type_symbol
 _atom_site_label
 _atom_site_symmetry_multiplicity
 _atom_site_fract_x
 _atom_site_fract_y
 _atom_site_fract_z
 _atom_site_occupancy
  Li  Li0  1  0.11236487  0.35849970  0.79515073  1
  Li  Li1  1  0.90560689  0.63358428  0.20756261  1
  Li  Li2  1  0.59243127  0.13386863  0.54235924  1
  Li  Li3  1  0.40637501  0.86409220  0.45509632  1
  Li  Li4  1  0.39171441  0.85934494  0.95477099  1
  Li  Li5  1  0.09433578  0.36254118  0.29623138  1
  Fe  Fe0  1  0.89884086  0.64062949  0.70301657  1
  Fe  Fe1  1  0.60414815  0.14418391  0.05354856  1
  Fe  Fe2  1  0.49143780  0.50808211  0.00183001  1
  Fe  Fe3  1  0.47863291  0.49149630  0.49759975  1
  Fe  Fe4  1  0.01849908  0.99008179  0.25216950  1
  Fe  Fe5  1  0.01197613  0.01461827  0.74629119  1
  P  P0  1  0.20391235  0.19845914  0.02085444  1
  P  P1  1  0.30132200  0.69558475  0.73102178  1
  P  P2  1  0.29805178  0.68554275  0.23295267  1
  P  P3  1  0.69735484  0.30508456  0.76522095  1
  P  P4  1  0.69724940  0.31335758  0.27295438  1
  P  P5  1  0.79608438  0.80539344  0.98794864  1
  P  P6  1  0.19932369  0.18819579  0.51406175  1
  P  P7  1  0.80619090  0.81569197  0.47714812  1
  O  O0  1  0.24160670  0.87159609  0.77414864  1
  O  O1  1  0.87447568  0.79884145  0.84834811  1
  O  O2  1  0.84780592  0.42966230  0.28090699  1
  O  O3  1  0.90221779  0.80752315  0.34891806  1
  O  O4  1  0.94687165  0.85740451  0.60018572  1
  O  O5  1  0.94506690  0.85774317  0.09122331  1
  O  O6  1  0.06252390  0.14297795  0.90890593  1
  O  O7  1  0.05188923  0.12939157  0.40507898  1
  O  O8  1  0.10946265  0.20119850  0.64705213  1
  O  O9  1  0.14104014  0.57620047  0.72071540  1
  O  O10  1  0.11678203  0.18871964  0.15343139  1
  O  O11  1  0.14659994  0.56805195  0.22082734  1
  O  O12  1  0.39112334  0.69250797  0.09958669  1
  O  O13  1  0.26309919  0.37462166  0.97902333  1
  O  O14  1  0.24946495  0.36632700  0.47107776  1
  O  O15  1  0.24667240  0.86767066  0.27276753  1
  O  O16  1  0.72570243  0.63340303  0.02639871  1
  O  O17  1  0.38546012  0.69125877  0.59661448  1
  O  O18  1  0.43971684  0.63847301  0.84258200  1
  O  O19  1  0.36426794  0.07846608  0.02743734  1
  O  O20  1  0.85048896  0.43125667  0.77966338  1
  O  O21  1  0.44736590  0.63264634  0.34191389  1
  O  O22  1  0.55267610  0.36190327  0.65997966  1
  O  O23  1  0.61546857  0.30471179  0.90473676  1
  O  O24  1  0.55479316  0.34930109  0.14900002  1
  O  O25  1  0.64544639  0.93586898  0.97361147  1
  O  O26  1  0.60094429  0.30486324  0.40003991  1
  O  O27  1  0.65152611  0.93011242  0.46667298  1
  O  O28  1  0.76343358  0.13157370  0.72672454  1
  O  O29  1  0.75764877  0.63529884  0.52797784  1
  O  O30  1  0.74983850  0.13188381  0.21866346  1
  O  O31  1  0.35266143  0.07020912  0.52799568  1
loop_
_geom_bond_atom_site_label_1
_geom_bond_atom_site_label_2
_geom_bond_distance
_geom_bond_site_symmetry_2
Li0 O9 1.927037 1_555
Li0 O8 1.942849 1_555
Li0 O20 2.083854 1_455
Li0 O13 2.099824 1_555
Li0 O6 2.135321 1_555
Li1 O2 1.871044 1_555
Li1 O11 1.914635 1_655
Li1 O3 1.985363 1_555
Li1 O5 2.190075 1_555
Li1 O16 2.190746 1_555
Li2 O27 1.867610 1_545
Li2 O31 1.905630 1_555
Li2 O26 1.996346 1_555
Li2 O28 2.179079 1_555
Li2 O22 2.204302 1_555
Li3 O31 1.861829 1_565
Li3 O27 1.950964 1_555
Li3 O17 2.012207 1_555
Li3 O15 2.117774 1_555
Li3 O21 2.205046 1_555
Li4 O19 1.915696 1_566
Li4 O12 1.986814 1_556
Li4 O25 2.037820 1_555
Li4 O0 2.069713 1_555
Li4 O18 2.139987 1_555
Li5 O11 1.879885 1_555
Li5 O2 1.958706 1_455
Li5 O10 2.010733 1_555
Li5 O14 2.038366 1_555
Li5 O7 2.214697 1_555
Fe0 O20 1.905344 1_555
Fe0 O9 1.921200 1_655
Fe0 O1 1.948192 1_555
Fe0 O29 1.987630 1_555
Fe0 O4 2.081310 1_555
Fe1 O25 1.885611 1_544
Fe1 O19 1.913634 1_555
Fe1 O30 1.924662 1_555
Fe1 O24 1.949949 1_555
Fe1 O23 1.990562 1_554
Fe2 O18 1.932295 1_554
Fe2 O12 1.960075 1_555
Fe2 O24 1.988474 1_555
Fe2 O13 2.053420 1_554
Fe2 O16 2.059857 1_555
Fe2 O23 2.153640 1_554
Fe3 O21 1.937927 1_555
Fe3 O22 1.984117 1_555
Fe3 O14 2.026461 1_555
Fe3 O17 2.038309 1_555
Fe3 O26 2.050444 1_555
Fe3 O29 2.432632 1_555
Fe4 O7 1.893866 1_565
Fe4 O5 1.971535 1_455
Fe4 O15 2.000005 1_555
Fe4 O3 2.018199 1_455
Fe4 O10 2.064186 1_565
Fe4 O30 2.350778 1_465
Fe5 O6 1.937399 1_555
Fe5 O4 1.962118 1_445
Fe5 O8 1.989986 1_555
Fe5 O0 2.098543 1_545
Fe5 O28 2.116774 1_455
Fe5 O1 2.323006 1_445
O0 P1 1.552258 1_555
O1 P5 1.574244 1_555
O2 P4 1.485255 1_555
O3 P7 1.539664 1_555
O4 P7 1.605856 1_555
O5 P5 1.535710 1_554
O6 P0 1.559550 1_556
O7 P6 1.578074 1_555
O8 P6 1.558683 1_555
O9 P1 1.558761 1_555
O10 P0 1.544420 1_555
O11 P2 1.496442 1_555
O12 P2 1.573924 1_555
O13 P0 1.558754 1_556
O14 P6 1.556129 1_555
O15 P2 1.569191 1_555
O16 P5 1.548290 1_554
O17 P1 1.546966 1_555
O18 P1 1.548831 1_555
O19 P0 1.556263 1_555
O20 P3 1.551564 1_555
O21 P2 1.576205 1_555
O22 P3 1.537861 1_555
O23 P3 1.585578 1_555
O24 P4 1.613844 1_555
O25 P5 1.554369 1_555
O26 P4 1.532121 1_555
O27 P7 1.494335 1_555
O28 P3 1.537024 1_555
O29 P7 1.595293 1_555
O30 P4 1.612207 1_555
O31 P6 1.504808 1_555
