# generated using pymatgen
data_In(CoN)2
_symmetry_space_group_name_H-M   'P 1'
_cell_length_a   6.30205665
_cell_length_b   6.32218231
_cell_length_c   16.63366579
_cell_angle_alpha   89.99999839
_cell_angle_beta   68.65228526
_cell_angle_gamma   120.10571005
_symmetry_Int_Tables_number   1
_chemical_formula_structural   In(CoN)2
_chemical_formula_sum   'In8 Co16 N16'
_cell_volume   520.10022638
_cell_formula_units_Z   8
loop_
 _symmetry_equiv_pos_site_id
 _symmetry_equiv_pos_as_xyz
  1  'x, y, z'
loop_
 _atom_site_type_symbol
 _atom_site_label
 _atom_site_symmetry_multiplicity
 _atom_site_fract_x
 _atom_site_fract_y
 _atom_site_fract_z
 _atom_site_occupancy
  In  In0_0  1  0.00000000  0.00000000  0.25000000  1
  In  In0_1  1  0.00000000  0.00000000  0.75000000  1
  In  In0_2  1  0.00000000  0.50000000  0.25000000  1
  In  In0_3  1  0.00000000  0.50000000  0.75000000  1
  In  In0_4  1  0.50000000  0.00000000  0.25000000  1
  In  In0_5  1  0.50000000  0.00000000  0.75000000  1
  In  In0_6  1  0.50000000  0.50000000  0.25000000  1
  In  In0_7  1  0.50000000  0.50000000  0.75000000  1
  Co  Co0_0  1  0.26455600  0.13227850  0.05405250  1
  Co  Co0_1  1  0.26455600  0.13227850  0.55405250  1
  Co  Co0_2  1  0.26455600  0.63227850  0.05405250  1
  Co  Co0_3  1  0.26455600  0.63227850  0.55405250  1
  Co  Co0_4  1  0.76455600  0.13227850  0.05405250  1
  Co  Co0_5  1  0.76455600  0.13227850  0.55405250  1
  Co  Co0_6  1  0.76455600  0.63227850  0.05405250  1
  Co  Co0_7  1  0.76455600  0.63227850  0.55405250  1
  Co  Co1_0  1  0.23544400  0.36772150  0.44594750  1
  Co  Co1_1  1  0.23544400  0.36772150  0.94594750  1
  Co  Co1_2  1  0.23544400  0.86772150  0.44594750  1
  Co  Co1_3  1  0.23544400  0.86772150  0.94594750  1
  Co  Co1_4  1  0.73544400  0.36772150  0.44594750  1
  Co  Co1_5  1  0.73544400  0.36772150  0.94594750  1
  Co  Co1_6  1  0.73544400  0.86772150  0.44594750  1
  Co  Co1_7  1  0.73544400  0.86772150  0.94594750  1
  N  N0_0  1  0.43239100  0.21619550  0.42249650  1
  N  N0_1  1  0.43239100  0.21619550  0.92249650  1
  N  N0_2  1  0.43239100  0.71619550  0.42249650  1
  N  N0_3  1  0.43239100  0.71619550  0.92249650  1
  N  N0_4  1  0.93239100  0.21619550  0.42249650  1
  N  N0_5  1  0.93239100  0.21619550  0.92249650  1
  N  N0_6  1  0.93239100  0.71619550  0.42249650  1
  N  N0_7  1  0.93239100  0.71619550  0.92249650  1
  N  N1_0  1  0.06760900  0.28380450  0.07750350  1
  N  N1_1  1  0.06760900  0.28380450  0.57750350  1
  N  N1_2  1  0.06760900  0.78380450  0.07750350  1
  N  N1_3  1  0.06760900  0.78380450  0.57750350  1
  N  N1_4  1  0.56760900  0.28380450  0.07750350  1
  N  N1_5  1  0.56760900  0.28380450  0.57750350  1
  N  N1_6  1  0.56760900  0.78380450  0.07750350  1
  N  N1_7  1  0.56760900  0.78380450  0.57750350  1
loop_
_geom_bond_atom_site_label_1
_geom_bond_atom_site_label_2
_geom_bond_distance
_geom_bond_site_symmetry_2
In0_0 In0_6 3.151028 1_555
In0_0 In0_6 3.151028 1_445
In0_0 In0_4 3.151028 1_455
In0_0 In0_4 3.151028 1_555
In0_0 In0_2 3.161091 1_555
In0_0 In0_2 3.161091 1_545
In0_1 In0_7 3.151028 1_445
In0_1 In0_7 3.151028 1_555
In0_1 In0_5 3.151028 1_455
In0_1 In0_5 3.151028 1_555
In0_1 In0_3 3.161091 1_555
In0_1 In0_3 3.161091 1_545
In0_2 In0_4 3.151028 1_455
In0_2 In0_4 3.151028 1_565
In0_2 In0_6 3.151028 1_455
In0_2 In0_6 3.151028 1_555
In0_3 In0_5 3.151028 1_455
In0_3 In0_5 3.151028 1_565
In0_3 In0_7 3.151028 1_555
In0_3 In0_7 3.151028 1_455
In0_4 In0_6 3.161091 1_545
In0_4 In0_6 3.161091 1_555
In0_5 In0_7 3.161091 1_555
In0_5 In0_7 3.161091 1_545
Co0_0 N1_4 1.850509 1_555
Co0_0 N1_0 1.857606 1_555
Co0_0 N1_2 1.857611 1_545
Co0_0 N0_1 1.985104 1_554
Co0_0 In0_0 2.957570 1_555
Co0_1 N1_5 1.850509 1_555
Co0_1 N1_1 1.857606 1_555
Co0_1 N1_3 1.857611 1_545
Co0_1 N0_0 1.985104 1_555
Co0_1 In0_1 2.957570 1_555
Co0_2 N1_6 1.850509 1_555
Co0_2 N1_2 1.857606 1_555
Co0_2 N1_0 1.857611 1_555
Co0_2 N0_3 1.985104 1_554
Co0_2 In0_2 2.957570 1_555
Co0_3 N1_7 1.850509 1_555
Co0_3 N1_3 1.857606 1_555
Co0_3 N1_1 1.857611 1_555
Co0_3 N0_2 1.985104 1_555
Co0_3 In0_3 2.957570 1_555
Co0_4 N1_0 1.850509 1_655
Co0_4 N1_4 1.857606 1_555
Co0_4 N1_6 1.857611 1_545
Co0_4 N0_5 1.985104 1_554
Co0_4 In0_4 2.957570 1_555
Co0_5 N1_1 1.850509 1_655
Co0_5 N1_5 1.857606 1_555
Co0_5 N1_7 1.857611 1_545
Co0_5 N0_4 1.985104 1_555
Co0_5 In0_5 2.957570 1_555
Co0_6 N1_2 1.850509 1_655
Co0_6 N1_6 1.857606 1_555
Co0_6 N1_4 1.857611 1_555
Co0_6 N0_7 1.985104 1_554
Co0_6 In0_6 2.957570 1_555
Co0_7 N1_3 1.850509 1_655
Co0_7 N1_7 1.857606 1_555
Co0_7 N1_5 1.857611 1_555
Co0_7 N0_6 1.985104 1_555
Co0_7 In0_7 2.957570 1_555
Co1_0 N0_4 1.850509 1_455
Co1_0 N0_0 1.857606 1_555
Co1_0 N0_2 1.857611 1_555
Co1_0 N1_1 1.985104 1_555
Co1_0 In0_6 2.957570 1_555
Co1_1 N0_5 1.850509 1_455
Co1_1 N0_1 1.857606 1_555
Co1_1 N0_3 1.857611 1_555
Co1_1 N1_0 1.985104 1_556
Co1_1 In0_7 2.957570 1_555
Co1_2 N0_6 1.850509 1_455
Co1_2 N0_2 1.857606 1_555
Co1_2 N0_0 1.857611 1_565
Co1_2 N1_3 1.985104 1_555
Co1_2 In0_4 2.957570 1_565
Co1_3 N0_7 1.850509 1_455
Co1_3 N0_3 1.857606 1_555
Co1_3 N0_1 1.857611 1_565
Co1_3 N1_2 1.985104 1_556
Co1_3 In0_5 2.957570 1_565
Co1_4 N0_0 1.850509 1_555
Co1_4 N0_4 1.857606 1_555
Co1_4 N0_6 1.857611 1_555
Co1_4 N1_5 1.985104 1_555
Co1_4 In0_2 2.957570 1_655
Co1_5 N0_1 1.850509 1_555
Co1_5 N0_5 1.857606 1_555
Co1_5 N0_7 1.857611 1_555
Co1_5 N1_4 1.985104 1_556
Co1_5 In0_3 2.957570 1_655
Co1_6 N0_2 1.850509 1_555
Co1_6 N0_6 1.857606 1_555
Co1_6 N0_4 1.857611 1_565
Co1_6 N1_7 1.985104 1_555
Co1_6 In0_0 2.957570 1_665
Co1_7 N0_3 1.850509 1_555
Co1_7 N0_7 1.857606 1_555
Co1_7 N0_5 1.857611 1_565
Co1_7 N1_6 1.985104 1_556
Co1_7 In0_1 2.957570 1_665
