# generated using pymatgen
data_TlAg(PO3)2
_symmetry_space_group_name_H-M   'P 1'
_cell_length_a   6.28180312
_cell_length_b   7.62185103
_cell_length_c   13.54398400
_cell_angle_alpha   90.00000000
_cell_angle_beta   90.00000000
_cell_angle_gamma   95.21159759
_symmetry_Int_Tables_number   1
_chemical_formula_structural   TlAg(PO3)2
_chemical_formula_sum   'Tl4 Ag4 P8 O24'
_cell_volume   645.79120981
_cell_formula_units_Z   4
loop_
 _symmetry_equiv_pos_site_id
 _symmetry_equiv_pos_as_xyz
  1  'x, y, z'
loop_
 _atom_site_type_symbol
 _atom_site_label
 _atom_site_symmetry_multiplicity
 _atom_site_fract_x
 _atom_site_fract_y
 _atom_site_fract_z
 _atom_site_occupancy
  Tl  Tl0  1  0.29931800  0.73201600  0.66873400  1
  Tl  Tl1  1  0.70068200  0.26798400  0.33126600  1
  Tl  Tl2  1  0.70068200  0.76798400  0.16873400  1
  Tl  Tl3  1  0.29931800  0.23201600  0.83126600  1
  Ag  Ag0  1  0.81519300  0.69581600  0.47202000  1
  Ag  Ag1  1  0.18480700  0.30418400  0.52798000  1
  Ag  Ag2  1  0.18480700  0.80418400  0.97202000  1
  Ag  Ag3  1  0.81519300  0.19581600  0.02798000  1
  P  P0  1  0.68909800  0.84807300  0.86672800  1
  P  P1  1  0.31090200  0.15192700  0.13327200  1
  P  P2  1  0.31090200  0.65192700  0.36672800  1
  P  P3  1  0.68909800  0.34807300  0.63327200  1
  P  P4  1  0.84608800  0.99441800  0.67343600  1
  P  P5  1  0.15391200  0.00558200  0.32656400  1
  P  P6  1  0.15391200  0.50558200  0.17343600  1
  P  P7  1  0.84608800  0.49441800  0.82656400  1
  O  O0  1  0.93221000  0.93184100  0.35390000  1
  O  O1  1  0.06779000  0.06815900  0.64610000  1
  O  O2  1  0.06779000  0.56815900  0.85390000  1
  O  O3  1  0.93221000  0.43184100  0.14610000  1
  O  O4  1  0.46620500  0.90149100  0.84995500  1
  O  O5  1  0.53379500  0.09850900  0.15004500  1
  O  O6  1  0.53379500  0.59850900  0.34995500  1
  O  O7  1  0.46620500  0.40149100  0.65004500  1
  O  O8  1  0.73784000  0.83491500  0.62240900  1
  O  O9  1  0.26216000  0.16508500  0.37759100  1
  O  O10  1  0.26216000  0.66508500  0.12240900  1
  O  O11  1  0.73784000  0.33491500  0.87759100  1
  O  O12  1  0.85710300  0.95357900  0.79164100  1
  O  O13  1  0.14289700  0.04642100  0.20835900  1
  O  O14  1  0.14289700  0.54642100  0.29164100  1
  O  O15  1  0.85710300  0.45357900  0.70835900  1
  O  O16  1  0.79037200  0.86723600  0.96730600  1
  O  O17  1  0.20962800  0.13276400  0.03269400  1
  O  O18  1  0.20962800  0.63276400  0.46730600  1
  O  O19  1  0.79037200  0.36723600  0.53269400  1
  O  O20  1  0.67951200  0.64583500  0.82863100  1
  O  O21  1  0.32048800  0.35416500  0.17136900  1
  O  O22  1  0.32048800  0.85416500  0.32863100  1
  O  O23  1  0.67951200  0.14583500  0.67136900  1
loop_
_geom_bond_atom_site_label_1
_geom_bond_atom_site_label_2
_geom_bond_distance
_geom_bond_site_symmetry_2
Ag0 O8 2.366967 1_555
Ag0 O0 2.468953 1_555
Ag0 O6 2.483914 1_555
Ag0 O18 2.567228 1_655
Ag0 O19 2.626906 1_555
Ag1 O9 2.366967 1_555
Ag1 O1 2.468953 1_555
Ag1 O7 2.483914 1_555
Ag1 O19 2.567228 1_455
Ag1 O18 2.626906 1_555
Ag2 O10 2.366967 1_556
Ag2 O2 2.468953 1_555
Ag2 O4 2.483914 1_555
Ag2 O16 2.567228 1_455
Ag2 O17 2.626906 1_566
Ag3 O11 2.366967 1_554
Ag3 O3 2.468953 1_555
Ag3 O5 2.483914 1_555
Ag3 O17 2.567228 1_655
Ag3 O16 2.626906 1_544
O0 P5 1.500116 1_665
O1 P4 1.500116 1_445
O2 P7 1.500116 1_455
O3 P6 1.500116 1_655
O4 P0 1.510435 1_555
O4 Tl3 2.826541 1_565
O4 Tl0 2.923337 1_555
O5 P1 1.510435 1_555
O5 Tl2 2.826541 1_545
O5 Tl1 2.923337 1_555
O6 P2 1.510435 1_555
O6 Tl1 2.826541 1_555
O6 Tl2 2.923337 1_555
O7 P3 1.510435 1_555
O7 Tl0 2.826541 1_555
O7 Tl3 2.923337 1_555
O8 P4 1.505917 1_555
O8 Tl0 2.864383 1_555
O9 P5 1.505917 1_555
O9 Tl1 2.864383 1_555
O10 P6 1.505917 1_555
O10 Tl2 2.864383 1_555
O11 P7 1.505917 1_555
O11 Tl3 2.864383 1_555
O12 P0 1.624973 1_555
O12 P4 1.633610 1_555
O13 P1 1.624973 1_555
O13 P5 1.633610 1_555
O14 P2 1.624973 1_555
O14 P6 1.633610 1_555
O15 P3 1.624973 1_555
O15 P7 1.633610 1_555
O16 P0 1.504940 1_555
O16 Tl2 2.873153 1_556
O17 P1 1.504940 1_555
O17 Tl3 2.873153 1_554
O18 P2 1.504940 1_555
O18 Tl0 2.873153 1_555
O19 P3 1.504940 1_555
O19 Tl1 2.873153 1_555
O20 P0 1.621420 1_555
O20 P7 1.626965 1_555
O21 P1 1.621420 1_555
O21 P6 1.626965 1_555
O22 P2 1.621420 1_555
O22 P5 1.626965 1_565
O23 P3 1.621420 1_555
O23 P4 1.626965 1_545
