# generated using pymatgen
data_TmScSi
_symmetry_space_group_name_H-M   'P 1'
_cell_length_a   6.08404403
_cell_length_b   8.52994791
_cell_length_c   9.04207236
_cell_angle_alpha   122.01737023
_cell_angle_beta   89.99923390
_cell_angle_gamma   90.01033481
_symmetry_Int_Tables_number   1
_chemical_formula_structural   TmScSi
_chemical_formula_sum   'Tm6 Sc6 Si6'
_cell_volume   397.87337628
_cell_formula_units_Z   6
loop_
 _symmetry_equiv_pos_site_id
 _symmetry_equiv_pos_as_xyz
  1  'x, y, z'
loop_
 _atom_site_type_symbol
 _atom_site_label
 _atom_site_symmetry_multiplicity
 _atom_site_fract_x
 _atom_site_fract_y
 _atom_site_fract_z
 _atom_site_occupancy
  Tm  Tm0  1  0.75011400  0.26835700  0.97381200  1
  Tm  Tm1  1  0.74992800  0.73162200  0.70515300  1
  Tm  Tm2  1  0.74998900  0.00025900  0.30858800  1
  Tm  Tm3  1  0.24991000  0.74723200  0.00041600  1
  Tm  Tm4  1  0.25006600  0.25297500  0.25326700  1
  Tm  Tm5  1  0.25001000  0.99995500  0.75480600  1
  Sc  Sc0  1  0.49808800  0.31197200  0.65781500  1
  Sc  Sc1  1  0.49801300  0.68785000  0.34611500  1
  Sc  Sc2  1  0.00194800  0.68786200  0.34606100  1
  Sc  Sc3  1  0.00195900  0.31200300  0.65785600  1
  Sc  Sc4  1  0.74983900  0.63837100  0.99488400  1
  Sc  Sc5  1  0.75009000  0.36164500  0.35635000  1
  Si  Si0  1  0.55626700  0.99996500  0.02436100  1
  Si  Si1  1  0.94371400  0.99998000  0.02437300  1
  Si  Si2  1  0.75001600  0.00002600  0.61724300  1
  Si  Si3  1  0.25013300  0.40665100  0.98781200  1
  Si  Si4  1  0.24992100  0.59347200  0.58102000  1
  Si  Si5  1  0.24999500  0.99980300  0.41006500  1
loop_
_geom_bond_atom_site_label_1
_geom_bond_atom_site_label_2
_geom_bond_distance
_geom_bond_site_symmetry_2
Sc0 Si5 2.839128 1_545
Sc0 Si2 2.920712 1_555
Sc0 Si3 3.045736 1_555
Sc0 Si4 3.208866 1_555
Sc0 Tm2 3.238570 1_555
Sc1 Si5 2.839333 1_555
Sc1 Si2 2.920290 1_565
Sc1 Si4 3.041460 1_555
Sc1 Si3 3.206689 1_554
Sc1 Tm2 3.244069 1_565
Sc2 Si5 2.838697 1_555
Sc2 Si2 2.920660 1_465
Sc2 Si4 3.041748 1_555
Sc2 Si3 3.207651 1_554
Sc2 Tm2 3.244125 1_465
Sc3 Si5 2.839668 1_545
Sc3 Si2 2.920352 1_455
Sc3 Si3 3.046048 1_555
Sc3 Si4 3.207863 1_555
Sc3 Tm2 3.238635 1_455
Sc4 Tm2 2.879285 1_566
Sc4 Tm0 3.059452 1_555
Sc4 Tm1 3.115363 1_555
Sc4 Tm3 3.172979 1_556
Sc4 Tm3 3.173487 1_656
Sc4 Si0 3.178208 1_556
Sc4 Si1 3.178553 1_556
Sc5 Tm2 2.877035 1_555
Sc5 Tm1 3.058209 1_555
Sc5 Tm0 3.111095 1_554
Sc5 Tm4 3.172652 1_555
Sc5 Tm4 3.172669 1_655
Sc5 Si1 3.177634 1_545
Sc5 Si0 3.177807 1_545
Si0 Si1 2.357245 1_555
Si0 Tm3 2.769849 1_555
Si0 Tm4 2.770748 1_565
Si0 Tm0 2.819505 1_564
Si0 Tm1 2.820256 1_554
Si0 Tm2 2.826179 1_565
Si0 Tm5 3.067951 1_554
Si1 Tm3 2.769768 1_655
Si1 Tm4 2.770794 1_665
Si1 Tm0 2.819177 1_564
Si1 Tm1 2.820360 1_554
Si1 Tm2 2.826121 1_565
Si1 Tm5 3.068088 1_654
Si2 Tm2 2.791935 1_555
Si2 Tm1 2.793428 1_545
Si2 Tm0 2.794440 1_555
Si2 Tm5 3.286602 1_645
Si2 Tm5 3.286638 1_545
Si3 Tm3 2.846357 1_556
Si3 Tm5 2.953552 1_545
Si3 Tm0 3.240764 1_455
Si3 Tm0 3.240943 1_555
Si3 Tm4 3.288748 1_556
Si4 Tm4 2.844550 1_555
Si4 Tm5 2.951951 1_555
Si4 Tm1 3.240206 1_555
Si4 Tm1 3.240497 1_455
Si4 Tm3 3.290463 1_556
Si5 Tm5 3.116486 1_555
Si5 Tm3 3.146418 1_555
Si5 Tm4 3.149646 1_565
Si5 Tm2 3.177942 1_565
Si5 Tm2 3.178037 1_465
