# generated using pymatgen
data_KLaMg14O16
_symmetry_space_group_name_H-M   'P 1'
_cell_length_a   8.74854606
_cell_length_b   8.98323477
_cell_length_c   4.48635205
_cell_angle_alpha   90.00000000
_cell_angle_beta   90.00000000
_cell_angle_gamma   90.00000000
_symmetry_Int_Tables_number   1
_chemical_formula_structural   KLaMg14O16
_chemical_formula_sum   'K1 La1 Mg14 O16'
_cell_volume   352.58349848
_cell_formula_units_Z   1
loop_
 _symmetry_equiv_pos_site_id
 _symmetry_equiv_pos_as_xyz
  1  'x, y, z'
loop_
 _atom_site_type_symbol
 _atom_site_label
 _atom_site_symmetry_multiplicity
 _atom_site_fract_x
 _atom_site_fract_y
 _atom_site_fract_z
 _atom_site_occupancy
  K  K0  1  -0.00000000  -0.00000000  0.00000000  1
  La  La0  1  -0.00000000  0.50000000  0.00000000  1
  Mg  Mg0  1  0.50000000  -0.00000000  0.00000000  1
  Mg  Mg1  1  0.50000000  0.50000000  0.00000000  1
  Mg  Mg2  1  -0.00000000  0.23017139  0.50000000  1
  Mg  Mg3  1  -0.00000000  0.76982861  0.50000000  1
  Mg  Mg4  1  0.50000000  0.24578500  0.50000000  1
  Mg  Mg5  1  0.50000000  0.75421500  0.50000000  1
  Mg  Mg6  1  0.25473779  -0.00000000  0.50000000  1
  Mg  Mg7  1  0.26691550  0.50000000  0.50000000  1
  Mg  Mg8  1  0.74526221  -0.00000000  0.50000000  1
  Mg  Mg9  1  0.73308450  0.50000000  0.50000000  1
  Mg  Mg10  1  0.26061100  0.23857262  0.00000000  1
  Mg  Mg11  1  0.26061100  0.76142738  0.00000000  1
  Mg  Mg12  1  0.73938900  0.23857262  -0.00000000  1
  Mg  Mg13  1  0.73938900  0.76142738  -0.00000000  1
  O  O0  1  0.27679183  -0.00000000  -0.00000000  1
  O  O1  1  0.27201632  0.50000000  -0.00000000  1
  O  O2  1  0.72320817  -0.00000000  0.00000000  1
  O  O3  1  0.72798368  0.50000000  0.00000000  1
  O  O4  1  0.25078067  0.25031642  0.50000000  1
  O  O5  1  0.25078067  0.74968358  0.50000000  1
  O  O6  1  0.74921933  0.25031642  0.50000000  1
  O  O7  1  0.74921933  0.74968358  0.50000000  1
  O  O8  1  -0.00000000  -0.00000000  0.50000000  1
  O  O9  1  -0.00000000  0.50000000  0.50000000  1
  O  O10  1  0.50000000  -0.00000000  0.50000000  1
  O  O11  1  0.50000000  0.50000000  0.50000000  1
  O  O12  1  -0.00000000  0.25311433  0.00000000  1
  O  O13  1  -0.00000000  0.74688567  0.00000000  1
  O  O14  1  0.50000000  0.25168232  0.00000000  1
  O  O15  1  0.50000000  0.74831768  0.00000000  1
loop_
_geom_bond_atom_site_label_1
_geom_bond_atom_site_label_2
_geom_bond_distance
_geom_bond_site_symmetry_2
K0 O8 2.243176 1_554
K0 O8 2.243176 1_555
K0 O13 2.273785 1_545
K0 O12 2.273785 1_555
K0 O2 2.421526 1_455
K0 O0 2.421526 1_555
La0 O12 2.217832 1_555
La0 O13 2.217832 1_555
La0 O9 2.243176 1_554
La0 O9 2.243176 1_555
La0 O3 2.379747 1_455
La0 O1 2.379747 1_555
Mg0 O0 1.952747 1_555
Mg0 O2 1.952747 1_555
Mg0 O10 2.243176 1_555
Mg0 O10 2.243176 1_554
Mg0 O15 2.260921 1_545
Mg0 O14 2.260921 1_555
Mg1 O3 1.994526 1_555
Mg1 O1 1.994526 1_555
Mg1 O14 2.230696 1_555
Mg1 O15 2.230696 1_555
Mg1 O11 2.243176 1_554
Mg1 O11 2.243176 1_555
Mg2 O8 2.067684 1_555
Mg2 O4 2.201417 1_555
Mg2 O6 2.201417 1_455
Mg2 O12 2.252624 1_556
Mg2 O12 2.252624 1_555
Mg2 O9 2.423934 1_555
Mg3 O8 2.067684 1_565
Mg3 O5 2.201417 1_555
Mg3 O7 2.201417 1_455
Mg3 O13 2.252624 1_556
Mg3 O13 2.252624 1_555
Mg3 O9 2.423934 1_555
Mg4 O6 2.180687 1_555
Mg4 O4 2.180687 1_555
Mg4 O10 2.207944 1_555
Mg4 O14 2.243802 1_555
Mg4 O14 2.243802 1_556
Mg4 O11 2.283673 1_555
Mg5 O7 2.180687 1_555
Mg5 O5 2.180687 1_555
Mg5 O10 2.207944 1_565
Mg5 O15 2.243802 1_556
Mg5 O15 2.243802 1_555
Mg5 O11 2.283673 1_555
Mg6 O10 2.145688 1_555
Mg6 O8 2.228585 1_555
Mg6 O4 2.248918 1_555
Mg6 O5 2.248918 1_545
Mg6 O0 2.251458 1_555
Mg6 O0 2.251458 1_556
Mg7 O11 2.039150 1_555
Mg7 O1 2.243620 1_556
Mg7 O1 2.243620 1_555
Mg7 O5 2.247404 1_555
Mg7 O4 2.247404 1_555
Mg7 O9 2.335123 1_555
Mg8 O10 2.145688 1_555
Mg8 O8 2.228585 1_655
Mg8 O6 2.248918 1_555
Mg8 O7 2.248918 1_545
Mg8 O2 2.251458 1_555
Mg8 O2 2.251458 1_556
Mg9 O11 2.039150 1_555
Mg9 O3 2.243620 1_556
Mg9 O3 2.243620 1_555
Mg9 O7 2.247404 1_555
Mg9 O6 2.247404 1_555
Mg9 O9 2.335123 1_655
Mg10 O14 2.097614 1_555
Mg10 O0 2.147824 1_555
Mg10 O4 2.247302 1_554
Mg10 O4 2.247302 1_555
Mg10 O12 2.283707 1_555
Mg10 O1 2.350582 1_555
Mg11 O15 2.097614 1_555
Mg11 O0 2.147824 1_565
Mg11 O5 2.247302 1_554
Mg11 O5 2.247302 1_555
Mg11 O13 2.283707 1_555
Mg11 O1 2.350582 1_555
Mg12 O14 2.097614 1_555
Mg12 O2 2.147824 1_555
Mg12 O6 2.247302 1_555
Mg12 O6 2.247302 1_554
Mg12 O12 2.283707 1_655
Mg12 O3 2.350582 1_555
Mg13 O15 2.097614 1_555
Mg13 O2 2.147824 1_565
Mg13 O7 2.247302 1_555
Mg13 O7 2.247302 1_554
Mg13 O13 2.283707 1_655
Mg13 O3 2.350582 1_555
