# generated using pymatgen
data_RbLiMg14
_symmetry_space_group_name_H-M   'P 1'
_cell_length_a   6.63036457
_cell_length_b   6.63036400
_cell_length_c   10.46700823
_cell_angle_alpha   90.00000000
_cell_angle_beta   90.00000000
_cell_angle_gamma   120.00000291
_symmetry_Int_Tables_number   1
_chemical_formula_structural   RbLiMg14
_chemical_formula_sum   'Rb1 Li1 Mg14'
_cell_volume   398.49966857
_cell_formula_units_Z   1
loop_
 _symmetry_equiv_pos_site_id
 _symmetry_equiv_pos_as_xyz
  1  'x, y, z'
loop_
 _atom_site_type_symbol
 _atom_site_label
 _atom_site_symmetry_multiplicity
 _atom_site_fract_x
 _atom_site_fract_y
 _atom_site_fract_z
 _atom_site_occupancy
  Rb  Rb0  1  0.16666700  0.33333300  0.62500000  1
  Li  Li0  1  0.16666700  0.33333300  0.12500000  1
  Mg  Mg0  1  0.16559227  0.83279563  0.12500000  1
  Mg  Mg1  1  0.17255172  0.83627536  0.62500000  1
  Mg  Mg2  1  0.66720437  0.33440773  0.12500000  1
  Mg  Mg3  1  0.66372464  0.32744828  0.62500000  1
  Mg  Mg4  1  0.66720437  0.83279563  0.12500000  1
  Mg  Mg5  1  0.66372464  0.83627536  0.62500000  1
  Mg  Mg6  1  0.33848811  0.16151189  0.35955962  1
  Mg  Mg7  1  0.33848811  0.16151189  0.89044038  1
  Mg  Mg8  1  0.33848811  0.67697721  0.35955962  1
  Mg  Mg9  1  0.33848811  0.67697721  0.89044038  1
  Mg  Mg10  1  0.82302279  0.16151189  0.35955962  1
  Mg  Mg11  1  0.82302279  0.16151189  0.89044038  1
  Mg  Mg12  1  0.83333300  0.66666700  0.37929548  1
  Mg  Mg13  1  0.83333300  0.66666700  0.87070452  1
loop_
_geom_bond_atom_site_label_1
_geom_bond_atom_site_label_2
_geom_bond_distance
_geom_bond_site_symmetry_2
Li0 Mg7 3.149806 1_554
Li0 Mg6 3.149806 1_555
Li0 Mg9 3.149813 1_554
Li0 Mg8 3.149813 1_555
Li0 Mg11 3.149813 1_454
Li0 Mg10 3.149813 1_455
Li0 Mg0 3.315188 1_555
Li0 Mg4 3.315188 1_445
Li0 Mg4 3.315188 1_555
Li0 Mg0 3.315188 1_545
Li0 Mg2 3.315188 1_455
Li0 Mg2 3.315188 1_555
Mg0 Mg9 3.097346 1_554
Mg0 Mg8 3.097346 1_555
Mg0 Mg7 3.097353 1_564
Mg0 Mg6 3.097353 1_565
Mg0 Mg12 3.274847 1_455
Mg0 Mg13 3.274847 1_454
Mg0 Mg2 3.304493 1_455
Mg0 Mg4 3.304493 1_455
Mg0 Mg2 3.325871 1_565
Mg0 Mg4 3.325871 1_555
Mg1 Mg13 3.226158 1_455
Mg1 Mg12 3.226158 1_455
Mg1 Mg3 3.256655 1_565
Mg1 Mg5 3.256656 1_555
Mg1 Rb0 3.315354 1_555
Mg1 Rb0 3.315354 1_565
Mg1 Mg8 3.347750 1_555
Mg1 Mg9 3.347750 1_555
Mg1 Mg6 3.347756 1_565
Mg1 Mg7 3.347756 1_565
Mg1 Mg3 3.373709 1_455
Mg1 Mg5 3.373709 1_455
Mg2 Mg7 3.097353 1_554
Mg2 Mg6 3.097353 1_555
Mg2 Mg4 3.304493 1_555
Mg2 Mg4 3.325871 1_545
Mg3 Mg5 3.256655 1_545
Mg3 Rb0 3.315354 1_655
Mg3 Rb0 3.315354 1_555
Mg3 Mg6 3.347756 1_555
Mg3 Mg7 3.347756 1_555
Mg3 Mg5 3.373709 1_555
Mg4 Mg8 3.097354 1_555
Mg4 Mg9 3.097354 1_554
Mg5 Rb0 3.315354 1_555
Mg5 Rb0 3.315354 1_665
Mg5 Mg8 3.347756 1_555
Mg5 Mg9 3.347756 1_555
Mg6 Mg8 3.212641 1_545
Mg6 Rb0 3.407771 1_555
Mg6 Mg8 3.417723 1_555
Mg7 Mg9 3.212641 1_545
Mg7 Rb0 3.407771 1_555
Mg7 Mg9 3.417723 1_555
Mg8 Rb0 3.407777 1_555
Mg9 Rb0 3.407777 1_555
Mg10 Mg2 3.097346 1_555
Mg10 Mg4 3.097353 1_545
Mg10 Mg8 3.212641 1_545
Mg10 Mg6 3.212642 1_555
Mg10 Mg12 3.322139 1_545
Mg10 Mg12 3.322139 1_555
Mg10 Mg3 3.347750 1_555
Mg10 Mg5 3.347756 1_545
Mg10 Rb0 3.407777 1_655
Mg10 Mg8 3.417723 1_655
Mg10 Mg6 3.417723 1_655
Mg11 Mg2 3.097346 1_556
Mg11 Mg4 3.097353 1_546
Mg11 Mg9 3.212641 1_545
Mg11 Mg7 3.212642 1_555
Mg11 Mg13 3.322139 1_545
Mg11 Mg13 3.322139 1_555
Mg11 Mg3 3.347750 1_555
Mg11 Mg5 3.347756 1_545
Mg11 Rb0 3.407777 1_655
Mg11 Mg9 3.417723 1_655
Mg11 Mg7 3.417723 1_655
Mg12 Mg5 3.226151 1_555
Mg12 Mg3 3.226158 1_555
Mg12 Mg4 3.274840 1_555
Mg12 Mg2 3.274847 1_555
Mg12 Mg6 3.322139 1_555
Mg12 Mg6 3.322139 1_665
Mg12 Mg8 3.322140 1_555
Mg12 Mg8 3.322140 1_655
Mg13 Mg5 3.226151 1_555
Mg13 Mg3 3.226158 1_555
Mg13 Mg4 3.274840 1_556
Mg13 Mg2 3.274847 1_556
Mg13 Mg7 3.322139 1_555
Mg13 Mg7 3.322139 1_665
Mg13 Mg9 3.322140 1_555
Mg13 Mg9 3.322140 1_655
