# generated using pymatgen
data_La(Mo3S4)2
_symmetry_space_group_name_H-M   'P 1'
_cell_length_a   6.55786638
_cell_length_b   6.55793335
_cell_length_c   6.55795722
_cell_angle_alpha   89.01793443
_cell_angle_beta   89.01728609
_cell_angle_gamma   89.01681672
_symmetry_Int_Tables_number   1
_chemical_formula_structural   La(Mo3S4)2
_chemical_formula_sum   'La1 Mo6 S8'
_cell_volume   281.90881229
_cell_formula_units_Z   1
loop_
 _symmetry_equiv_pos_site_id
 _symmetry_equiv_pos_as_xyz
  1  'x, y, z'
loop_
 _atom_site_type_symbol
 _atom_site_label
 _atom_site_symmetry_multiplicity
 _atom_site_fract_x
 _atom_site_fract_y
 _atom_site_fract_z
 _atom_site_occupancy
  La  La0  1  -0.00000000  -0.00000000  0.00000000  1
  Mo  Mo0  1  0.43727431  0.58025749  0.76935680  1
  Mo  Mo1  1  0.76940966  0.43728432  0.58025944  1
  Mo  Mo2  1  0.58025907  0.76936547  0.43728578  1
  Mo  Mo3  1  0.56272569  0.41974251  0.23064320  1
  Mo  Mo4  1  0.23059034  0.56271568  0.41974056  1
  Mo  Mo5  1  0.41974093  0.23063453  0.56271422  1
  S  S0  1  0.75523448  0.75521463  0.75521270  1
  S  S1  1  0.24476552  0.24478537  0.24478730  1
  S  S2  1  0.25396251  0.87451306  0.62317690  1
  S  S3  1  0.62321039  0.25399195  0.87450495  1
  S  S4  1  0.87454259  0.62318351  0.25400461  1
  S  S5  1  0.74603749  0.12548694  0.37682310  1
  S  S6  1  0.37678961  0.74600805  0.12549505  1
  S  S7  1  0.12545741  0.37681649  0.74599539  1
loop_
_geom_bond_atom_site_label_1
_geom_bond_atom_site_label_2
_geom_bond_distance
_geom_bond_site_symmetry_2
La0 S1 2.827644 1_555
La0 S0 2.827644 1_444
La0 S6 3.072261 1_545
La0 S3 3.072261 1_454
La0 S5 3.072334 1_455
La0 S2 3.072334 1_544
La0 S4 3.072425 1_445
La0 S7 3.072425 1_554
Mo0 S0 2.396803 1_555
Mo0 S2 2.446304 1_555
Mo0 S7 2.469056 1_555
Mo0 S3 2.535553 1_555
Mo0 S6 2.614202 1_556
Mo1 S0 2.396621 1_555
Mo1 S3 2.446260 1_555
Mo1 S5 2.468938 1_555
Mo1 S4 2.535380 1_555
Mo1 S7 2.613599 1_655
Mo2 S0 2.396682 1_555
Mo2 S4 2.446333 1_555
Mo2 S6 2.469021 1_555
Mo2 S2 2.535564 1_555
Mo2 S5 2.614176 1_565
Mo3 S1 2.396803 1_555
Mo3 S5 2.446304 1_555
Mo3 S4 2.469056 1_555
Mo3 S6 2.535553 1_555
Mo3 S3 2.614202 1_554
Mo4 S1 2.396621 1_555
Mo4 S6 2.446260 1_555
Mo4 S2 2.468938 1_555
Mo4 S7 2.535380 1_555
Mo4 S4 2.613599 1_455
Mo5 S1 2.396682 1_555
Mo5 S7 2.446333 1_555
Mo5 S3 2.469021 1_555
Mo5 S5 2.535564 1_555
Mo5 S2 2.614176 1_545
