# generated using pymatgen
data_NaMg6W
_symmetry_space_group_name_H-M   'P 1'
_cell_length_a   4.42487800
_cell_length_b   8.72900200
_cell_length_c   8.77538000
_cell_angle_alpha   90.00000000
_cell_angle_beta   90.00000000
_cell_angle_gamma   90.00000000
_symmetry_Int_Tables_number   1
_chemical_formula_structural   NaMg6W
_chemical_formula_sum   'Na2 Mg12 W2'
_cell_volume   338.94702461
_cell_formula_units_Z   2
loop_
 _symmetry_equiv_pos_site_id
 _symmetry_equiv_pos_as_xyz
  1  'x, y, z'
loop_
 _atom_site_type_symbol
 _atom_site_label
 _atom_site_symmetry_multiplicity
 _atom_site_fract_x
 _atom_site_fract_y
 _atom_site_fract_z
 _atom_site_occupancy
  Na  Na0  1  0.50000000  0.50000000  0.37077900  1
  Na  Na1  1  0.50000000  0.00000000  0.87077900  1
  Mg  Mg0  1  0.50000000  0.75349400  0.12602300  1
  Mg  Mg1  1  0.50000000  0.24650600  0.12602300  1
  Mg  Mg2  1  0.00000000  0.72840000  0.87551000  1
  Mg  Mg3  1  0.00000000  0.27160000  0.87551000  1
  Mg  Mg4  1  0.00000000  0.50000000  0.10662000  1
  Mg  Mg5  1  0.00000000  0.50000000  0.64285700  1
  Mg  Mg6  1  0.50000000  0.25349400  0.62602300  1
  Mg  Mg7  1  0.50000000  0.74650600  0.62602300  1
  Mg  Mg8  1  0.00000000  0.22840000  0.37551000  1
  Mg  Mg9  1  0.00000000  0.77160000  0.37551000  1
  Mg  Mg10  1  0.00000000  0.00000000  0.60662000  1
  Mg  Mg11  1  0.00000000  0.00000000  0.14285700  1
  W  W0  1  0.50000000  0.50000000  0.87668200  1
  W  W1  1  0.50000000  0.00000000  0.37668200  1
loop_
_geom_bond_atom_site_label_1
_geom_bond_atom_site_label_2
_geom_bond_distance
_geom_bond_site_symmetry_2
Mg0 W1 3.077076 1_565
Mg0 Na0 3.083735 1_555
Mg0 Mg11 3.089780 1_565
Mg0 Mg11 3.089780 1_665
Mg0 Na1 3.105965 1_564
Mg0 W0 3.111893 1_554
Mg0 Mg9 3.116583 1_555
Mg0 Mg9 3.116583 1_655
Mg0 Mg2 3.126595 1_554
Mg0 Mg2 3.126595 1_654
Mg0 Mg4 3.133710 1_655
Mg0 Mg4 3.133710 1_555
Mg1 W1 3.077076 1_555
Mg1 Na0 3.083735 1_555
Mg1 Mg11 3.089780 1_555
Mg1 Mg11 3.089780 1_655
Mg1 Na1 3.105965 1_554
Mg1 W0 3.111893 1_554
Mg1 Mg8 3.116583 1_555
Mg1 Mg8 3.116583 1_655
Mg1 Mg3 3.126595 1_554
Mg1 Mg3 3.126595 1_654
Mg1 Mg4 3.133710 1_655
Mg1 Mg4 3.133710 1_555
Mg2 Mg4 2.843933 1_556
Mg2 Mg5 2.853605 1_555
Mg2 W0 2.978229 1_455
Mg2 W0 2.978229 1_555
Mg2 Mg7 3.116583 1_455
Mg2 Mg7 3.116583 1_555
Mg2 Na1 3.243037 1_565
Mg2 Na1 3.243037 1_465
Mg3 Mg4 2.843933 1_556
Mg3 Mg5 2.853605 1_555
Mg3 W0 2.978229 1_555
Mg3 W0 2.978229 1_455
Mg3 Mg6 3.116583 1_455
Mg3 Mg6 3.116583 1_555
Mg3 Na1 3.243037 1_455
Mg3 Na1 3.243037 1_555
Mg4 W0 2.994391 1_454
Mg4 W0 2.994391 1_554
Mg4 Na0 3.204443 1_555
Mg4 Na0 3.204443 1_455
Mg4 Mg9 3.344914 1_555
Mg4 Mg8 3.344914 1_555
Mg5 W0 3.017481 1_455
Mg5 W0 3.017481 1_555
Mg5 Mg7 3.089780 1_455
Mg5 Mg7 3.089780 1_555
Mg5 Mg6 3.089780 1_555
Mg5 Mg6 3.089780 1_455
Mg5 Na0 3.255067 1_455
Mg5 Na0 3.255067 1_555
Mg5 Mg9 3.335375 1_555
Mg5 Mg8 3.335375 1_555
Mg6 W0 3.077076 1_555
Mg6 Na1 3.083735 1_555
Mg6 Na0 3.105965 1_555
Mg6 W1 3.111893 1_555
Mg6 Mg8 3.126595 1_555
Mg6 Mg8 3.126595 1_655
Mg7 W0 3.077076 1_555
Mg7 Na1 3.083735 1_565
Mg7 Na0 3.105965 1_555
Mg7 W1 3.111893 1_565
Mg7 Mg9 3.126595 1_555
Mg7 Mg9 3.126595 1_655
Mg8 W1 2.978229 1_455
Mg8 W1 2.978229 1_555
Mg8 Na0 3.243037 1_455
Mg8 Na0 3.243037 1_555
Mg9 W1 2.978229 1_565
Mg9 W1 2.978229 1_465
Mg9 Na0 3.243037 1_455
Mg9 Na0 3.243037 1_555
Mg10 Mg8 2.843933 1_555
Mg10 Mg9 2.843933 1_545
Mg10 W1 2.994391 1_555
Mg10 W1 2.994391 1_455
Mg10 Mg7 3.133710 1_545
Mg10 Mg7 3.133710 1_445
Mg10 Mg6 3.133710 1_455
Mg10 Mg6 3.133710 1_555
Mg10 Na1 3.204443 1_555
Mg10 Na1 3.204443 1_455
Mg10 Mg2 3.344914 1_545
Mg10 Mg3 3.344914 1_555
Mg11 Mg8 2.853605 1_555
Mg11 Mg9 2.853605 1_545
Mg11 W1 3.017481 1_455
Mg11 W1 3.017481 1_555
Mg11 Na1 3.255067 1_454
Mg11 Na1 3.255067 1_554
Mg11 Mg2 3.335375 1_544
Mg11 Mg3 3.335375 1_554
