# generated using pymatgen
data_La(Al4Fe)2
_symmetry_space_group_name_H-M   'P 1'
_cell_length_a   4.05385100
_cell_length_b   12.61911500
_cell_length_c   14.41448100
_cell_angle_alpha   90.00000000
_cell_angle_beta   90.00000000
_cell_angle_gamma   90.00000000
_symmetry_Int_Tables_number   1
_chemical_formula_structural   La(Al4Fe)2
_chemical_formula_sum   'La4 Al32 Fe8'
_cell_volume   737.38736246
_cell_formula_units_Z   4
loop_
 _symmetry_equiv_pos_site_id
 _symmetry_equiv_pos_as_xyz
  1  'x, y, z'
loop_
 _atom_site_type_symbol
 _atom_site_label
 _atom_site_symmetry_multiplicity
 _atom_site_fract_x
 _atom_site_fract_y
 _atom_site_fract_z
 _atom_site_occupancy
  La  La0  1  0.00000000  0.83992800  0.18095800  1
  La  La1  1  0.00000000  0.16007200  0.81904200  1
  La  La2  1  0.00000000  0.33992800  0.31904200  1
  La  La3  1  0.00000000  0.66007200  0.68095800  1
  Al  Al0  1  0.50000000  0.50000000  0.00000000  1
  Al  Al1  1  0.50000000  0.00000000  0.50000000  1
  Al  Al2  1  0.50000000  0.83218700  0.00633800  1
  Al  Al3  1  0.50000000  0.16781300  0.99366200  1
  Al  Al4  1  0.50000000  0.33218700  0.49366200  1
  Al  Al5  1  0.50000000  0.66781300  0.50633800  1
  Al  Al6  1  0.00000000  0.50000000  0.50000000  1
  Al  Al7  1  0.00000000  0.00000000  0.00000000  1
  Al  Al8  1  0.50000000  0.52691900  0.36804600  1
  Al  Al9  1  0.50000000  0.47308100  0.63195400  1
  Al  Al10  1  0.50000000  0.02691900  0.13195400  1
  Al  Al11  1  0.50000000  0.97308100  0.86804600  1
  Al  Al12  1  0.50000000  0.65769600  0.12000700  1
  Al  Al13  1  0.50000000  0.34230400  0.87999300  1
  Al  Al14  1  0.50000000  0.15769600  0.37999300  1
  Al  Al15  1  0.50000000  0.84230400  0.62000700  1
  Al  Al16  1  0.00000000  0.59373900  0.24614200  1
  Al  Al17  1  0.00000000  0.40626100  0.75385800  1
  Al  Al18  1  0.00000000  0.09373900  0.25385800  1
  Al  Al19  1  0.00000000  0.90626100  0.74614200  1
  Al  Al20  1  0.50000000  0.73359700  0.32891600  1
  Al  Al21  1  0.50000000  0.26640300  0.67108400  1
  Al  Al22  1  0.50000000  0.23359700  0.17108500  1
  Al  Al23  1  0.50000000  0.76640300  0.82891600  1
  Al  Al24  1  0.50000000  0.95233700  0.32170400  1
  Al  Al25  1  0.50000000  0.04766200  0.67829600  1
  Al  Al26  1  0.50000000  0.45233800  0.17829600  1
  Al  Al27  1  0.50000000  0.54766300  0.82170400  1
  Al  Al28  1  0.00000000  0.83522300  0.45373300  1
  Al  Al29  1  0.00000000  0.16477700  0.54626700  1
  Al  Al30  1  0.00000000  0.33522300  0.04626700  1
  Al  Al31  1  0.00000000  0.66477700  0.95373300  1
  Fe  Fe0  1  0.00000000  0.64926000  0.40201400  1
  Fe  Fe1  1  0.00000000  0.35074000  0.59798600  1
  Fe  Fe2  1  0.00000000  0.14926000  0.09798600  1
  Fe  Fe3  1  0.00000000  0.85074000  0.90201400  1
  Fe  Fe4  1  0.00000000  0.53361600  0.09005400  1
  Fe  Fe5  1  0.00000000  0.46638400  0.90994600  1
  Fe  Fe6  1  0.00000000  0.03361600  0.40994600  1
  Fe  Fe7  1  0.00000000  0.96638400  0.59005400  1
loop_
_geom_bond_atom_site_label_1
_geom_bond_atom_site_label_2
_geom_bond_distance
_geom_bond_site_symmetry_2
Al0 Fe4 2.444052 1_555
Al0 Fe4 2.444052 1_655
Al0 Fe5 2.444052 1_654
Al0 Fe5 2.444052 1_554
Al0 Al12 2.636736 1_555
Al0 Al13 2.636736 1_554
Al0 Al26 2.639483 1_555
Al0 Al27 2.639486 1_554
Al0 Al30 2.979405 1_555
Al0 Al30 2.979405 1_655
Al0 Al31 2.979405 1_554
Al0 Al31 2.979405 1_654
Al1 Fe6 2.444052 1_555
Al1 Fe6 2.444052 1_655
Al1 Fe7 2.444052 1_645
Al1 Fe7 2.444052 1_545
Al1 Al15 2.636736 1_545
Al1 Al14 2.636736 1_555
Al1 Al25 2.639483 1_555
Al1 Al24 2.639486 1_545
Al1 Al29 2.979405 1_555
Al1 Al29 2.979405 1_655
Al1 Al28 2.979405 1_545
Al1 Al28 2.979405 1_645
Al2 Fe3 2.534676 1_654
Al2 Fe3 2.534676 1_554
Al2 Al23 2.688802 1_554
Al2 Al7 2.932784 1_565
Al2 Al7 2.932784 1_665
Al2 Al31 3.024292 1_554
Al2 Al31 3.024292 1_654
Al2 La0 3.233194 1_555
Al2 La0 3.233194 1_655
Al3 Fe2 2.534676 1_556
Al3 Fe2 2.534676 1_656
Al3 Al7 2.932784 1_656
Al3 Al7 2.932784 1_556
Al3 Al30 3.024292 1_556
Al3 Al30 3.024292 1_656
Al3 La1 3.233194 1_555
Al3 La1 3.233194 1_655
Al4 Fe1 2.534676 1_655
Al4 Fe1 2.534676 1_555
Al4 Al9 2.671106 1_555
Al4 Al6 2.932784 1_555
Al4 Al6 2.932784 1_655
Al4 Al8 3.052400 1_555
Al4 La2 3.233194 1_555
Al4 La2 3.233194 1_655
Al5 Fe0 2.534676 1_655
Al5 Fe0 2.534676 1_555
Al5 Al8 2.671106 1_555
Al5 Al6 2.932784 1_655
Al5 Al6 2.932784 1_555
Al5 Al9 3.052400 1_555
Al5 La3 3.233194 1_555
Al5 La3 3.233194 1_655
Al6 Fe1 2.354274 1_555
Al6 Fe0 2.354274 1_555
Al6 Al8 2.800287 1_455
Al6 Al9 2.800287 1_555
Al6 Al9 2.800287 1_455
Al6 Al8 2.800287 1_555
Al6 La2 3.299106 1_555
Al6 La3 3.299106 1_555
Al7 Fe2 2.354274 1_555
Al7 Fe3 2.354274 1_544
Al7 La0 3.299106 1_545
Al7 La1 3.299106 1_554
Al8 Fe0 2.594531 1_655
Al8 Fe0 2.594531 1_555
Al8 La2 3.189887 1_555
Al8 La2 3.189887 1_655
Al9 Fe1 2.594531 1_655
Al9 Fe1 2.594531 1_555
Al9 La3 3.189887 1_655
Al9 La3 3.189887 1_555
Al10 Fe2 2.594531 1_555
Al10 Fe2 2.594531 1_655
Al10 Al22 2.668390 1_555
Al10 Al3 2.671106 1_554
Al10 Al7 2.800287 1_555
Al10 Al7 2.800287 1_655
Al10 Al18 2.811960 1_555
Al10 Al18 2.811960 1_655
Al10 Al24 2.892544 1_545
Al10 Al2 3.052400 1_545
Al10 La0 3.189887 1_645
Al10 La0 3.189887 1_545
Al11 Fe3 2.594531 1_555
Al11 Fe3 2.594531 1_655
Al11 Al23 2.668387 1_555
Al11 Al2 2.671106 1_556
Al11 Al7 2.800287 1_666
Al11 Al7 2.800287 1_566
Al11 Al19 2.811960 1_555
Al11 Al19 2.811960 1_655
Al11 Al25 2.892540 1_565
Al11 Al3 3.052400 1_565
Al11 La1 3.189887 1_565
Al11 La1 3.189887 1_665
Al12 Fe4 2.597404 1_555
Al12 Fe4 2.597404 1_655
Al12 Al26 2.724241 1_555
Al12 Al2 2.744645 1_555
Al12 Al16 2.839991 1_555
Al12 Al16 2.839991 1_655
Al12 Al20 3.159969 1_555
Al12 La0 3.188811 1_555
Al12 La0 3.188811 1_655
Al13 Fe5 2.597404 1_555
Al13 Fe5 2.597404 1_655
Al13 Al27 2.724253 1_555
Al13 Al3 2.744645 1_555
Al13 Al17 2.839991 1_555
Al13 Al17 2.839991 1_655
Al13 Al21 3.159969 1_555
Al13 La1 3.188811 1_555
Al13 La1 3.188811 1_655
Al14 Fe6 2.597404 1_555
Al14 Fe6 2.597404 1_655
Al14 Al24 2.724253 1_545
Al14 Al4 2.744645 1_555
Al14 Al18 2.839991 1_555
Al14 Al18 2.839991 1_655
Al14 Al22 3.159955 1_555
Al14 La2 3.188811 1_555
Al14 La2 3.188811 1_655
Al15 Fe7 2.597404 1_655
Al15 Fe7 2.597404 1_555
Al15 Al25 2.724241 1_565
Al15 Al5 2.744645 1_555
Al15 Al19 2.839991 1_555
Al15 Al19 2.839991 1_655
Al15 Al23 3.159969 1_555
Al15 La3 3.188811 1_555
Al15 La3 3.188811 1_655
Al16 Fe0 2.353519 1_555
Al16 Fe4 2.374405 1_555
Al16 Al8 2.811960 1_555
Al16 Al8 2.811960 1_455
Al16 Al26 2.872067 1_455
Al16 Al26 2.872067 1_555
Al16 Al20 2.940550 1_455
Al16 Al20 2.940550 1_555
Al16 La0 3.245665 1_555
Al16 La2 3.370844 1_555
Al17 Fe1 2.353519 1_555
Al17 Fe5 2.374405 1_555
Al17 Al9 2.811960 1_455
Al17 Al9 2.811960 1_555
Al17 Al27 2.872074 1_555
Al17 Al27 2.872074 1_455
Al17 Al21 2.940550 1_555
Al17 Al21 2.940550 1_455
Al17 La1 3.245665 1_555
Al17 La3 3.370844 1_555
Al18 Fe2 2.353519 1_555
Al18 Fe6 2.374405 1_555
Al18 Al24 2.872074 1_545
Al18 Al24 2.872074 1_445
Al18 Al22 2.940545 1_555
Al18 Al22 2.940545 1_455
Al18 La2 3.245665 1_555
Al18 La0 3.370844 1_545
Al19 Fe3 2.353519 1_555
Al19 Fe7 2.374405 1_555
Al19 Al25 2.872067 1_565
Al19 Al25 2.872067 1_465
Al19 Al23 2.940550 1_555
Al19 Al23 2.940550 1_455
Al19 La3 3.245665 1_555
Al19 La1 3.370844 1_565
Al20 Fe0 2.520177 1_555
Al20 Fe0 2.520177 1_655
Al20 Al8 2.668387 1_555
Al20 Al5 2.688802 1_555
Al20 Al24 2.762262 1_555
Al20 Al28 2.998345 1_555
Al20 Al28 2.998345 1_655
Al20 La0 3.233795 1_655
Al20 La0 3.233795 1_555
Al21 Fe1 2.520177 1_555
Al21 Fe1 2.520177 1_655
Al21 Al9 2.668387 1_555
Al21 Al4 2.688802 1_555
Al21 Al25 2.762275 1_555
Al21 Al29 2.998345 1_655
Al21 Al29 2.998345 1_555
Al21 La1 3.233795 1_555
Al21 La1 3.233795 1_655
Al22 Fe2 2.520183 1_555
Al22 Fe2 2.520183 1_655
Al22 Al3 2.688816 1_554
Al22 Al26 2.762274 1_555
Al22 Al30 2.998354 1_655
Al22 Al30 2.998354 1_555
Al22 La2 3.233786 1_655
Al22 La2 3.233786 1_555
Al23 Fe3 2.520177 1_655
Al23 Fe3 2.520177 1_555
Al23 Al27 2.762262 1_555
Al23 Al31 2.998345 1_655
Al23 Al31 2.998345 1_555
Al23 La3 3.233795 1_555
Al23 La3 3.233795 1_655
Al24 Fe6 2.603519 1_565
Al24 Fe6 2.603519 1_665
Al24 La0 3.199457 1_555
Al24 La0 3.199457 1_655
Al25 Fe7 2.603514 1_545
Al25 Fe7 2.603514 1_645
Al25 La1 3.199463 1_555
Al25 La1 3.199463 1_655
Al26 Fe4 2.603514 1_555
Al26 Fe4 2.603514 1_655
Al26 Al8 2.892540 1_555
Al26 La2 3.199463 1_655
Al26 La2 3.199463 1_555
Al27 Fe5 2.603519 1_655
Al27 Fe5 2.603519 1_555
Al27 Al9 2.892544 1_555
Al27 La3 3.199457 1_555
Al27 La3 3.199457 1_655
Al28 Fe0 2.462259 1_555
Al28 Fe7 2.569180 1_555
Al28 Fe6 2.581880 1_565
Al28 Al5 3.024292 1_555
Al28 Al5 3.024292 1_455
Al29 Fe1 2.462259 1_555
Al29 Fe6 2.569180 1_555
Al29 Fe7 2.581880 1_545
Al29 Al4 3.024292 1_555
Al29 Al4 3.024292 1_455
Al30 Fe2 2.462259 1_555
Al30 Fe5 2.569180 1_554
Al30 Fe4 2.581880 1_555
Al31 Fe3 2.462259 1_555
Al31 Fe4 2.569180 1_556
Al31 Fe5 2.581880 1_555
Fe4 Fe5 2.731275 1_554
Fe6 Fe7 2.731275 1_545
