# generated using pymatgen
data_ZnS
_symmetry_space_group_name_H-M   'P 1'
_cell_length_a   3.87561248
_cell_length_b   3.87561248
_cell_length_c   56.54906175
_cell_angle_alpha   88.03622171
_cell_angle_beta   88.03622171
_cell_angle_gamma   59.99999183
_symmetry_Int_Tables_number   1
_chemical_formula_structural   ZnS
_chemical_formula_sum   'Zn18 S18'
_cell_volume   735.01539749
_cell_formula_units_Z   18
loop_
 _symmetry_equiv_pos_site_id
 _symmetry_equiv_pos_as_xyz
  1  'x, y, z'
loop_
 _atom_site_type_symbol
 _atom_site_label
 _atom_site_symmetry_multiplicity
 _atom_site_fract_x
 _atom_site_fract_y
 _atom_site_fract_z
 _atom_site_occupancy
  Zn  Zn0  1  0.99999400  0.99999400  0.00001900  1
  Zn  Zn1  1  0.94443600  0.94443600  0.16669100  1
  Zn  Zn2  1  0.88887800  0.88887800  0.33336600  1
  Zn  Zn3  1  0.81480400  0.81480400  0.55558700  1
  Zn  Zn4  1  0.74073600  0.74073600  0.77779300  1
  Zn  Zn5  1  0.68518600  0.68518600  0.94444300  1
  Zn  Zn6  1  0.62962600  0.62962600  0.11112300  1
  Zn  Zn7  1  0.57406400  0.57406400  0.27780800  1
  Zn  Zn8  1  0.51851400  0.51851400  0.44445800  1
  Zn  Zn9  1  0.46295200  0.46295200  0.61114400  1
  Zn  Zn10  1  0.42591800  0.42591800  0.72224700  1
  Zn  Zn11  1  0.38887700  0.38887700  0.83336800  1
  Zn  Zn12  1  0.31480800  0.31480800  0.05557700  1
  Zn  Zn13  1  0.25925300  0.25925300  0.22224200  1
  Zn  Zn14  1  0.20369200  0.20369200  0.38892500  1
  Zn  Zn15  1  0.16666000  0.16666000  0.50001900  1
  Zn  Zn16  1  0.11110100  0.11110100  0.66669600  1
  Zn  Zn17  1  0.03703200  0.03703200  0.88890300  1
  S  S0  1  0.98612200  0.98612200  0.04163300  1
  S  S1  1  0.93056600  0.93056600  0.20830200  1
  S  S2  1  0.87501300  0.87501300  0.37496100  1
  S  S3  1  0.80093900  0.80093900  0.59718300  1
  S  S4  1  0.72685700  0.72685700  0.81942900  1
  S  S5  1  0.67130500  0.67130500  0.98608500  1
  S  S6  1  0.61575300  0.61575300  0.15274200  1
  S  S7  1  0.56019800  0.56019800  0.31940500  1
  S  S8  1  0.50463700  0.50463700  0.48608900  1
  S  S9  1  0.44910100  0.44910100  0.65269800  1
  S  S10  1  0.41206700  0.41206700  0.76380000  1
  S  S11  1  0.37501200  0.37501200  0.87496400  1
  S  S12  1  0.30093500  0.30093500  0.09719500  1
  S  S13  1  0.24538500  0.24538500  0.26384500  1
  S  S14  1  0.18984000  0.18984000  0.43048100  1
  S  S15  1  0.15279400  0.15279400  0.54161900  1
  S  S16  1  0.09723000  0.09723000  0.70831000  1
  S  S17  1  0.02317700  0.02317700  0.93046800  1
loop_
_geom_bond_atom_site_label_1
_geom_bond_atom_site_label_2
_geom_bond_distance
_geom_bond_site_symmetry_2
S0 Zn0 2.351390 1_555
S0 Zn12 2.372250 1_565
S0 Zn12 2.372250 1_655
S0 Zn12 2.372257 1_665
S1 Zn1 2.351220 1_555
S1 Zn13 2.372176 1_655
S1 Zn13 2.372176 1_565
S1 Zn13 2.372179 1_665
S2 Zn2 2.350316 1_555
S2 Zn14 2.372627 1_565
S2 Zn14 2.372627 1_655
S2 Zn14 2.372630 1_665
S3 Zn3 2.350373 1_555
S3 Zn9 2.372571 1_655
S3 Zn9 2.372571 1_565
S3 Zn9 2.372572 1_555
S4 Zn4 2.352633 1_555
S4 Zn11 2.372157 1_655
S4 Zn11 2.372157 1_565
S4 Zn11 2.372161 1_555
S5 Zn5 2.352972 1_555
S5 Zn0 2.372064 1_456
S5 Zn0 2.372064 1_546
S5 Zn0 2.372067 1_556
S6 Zn6 2.351672 1_555
S6 Zn1 2.372342 1_555
S6 Zn1 2.372348 1_455
S6 Zn1 2.372348 1_545
S7 Zn7 2.350429 1_555
S7 Zn2 2.372570 1_455
S7 Zn2 2.372570 1_545
S7 Zn2 2.372574 1_555
S8 Zn8 2.352350 1_555
S8 Zn15 2.371988 1_565
S8 Zn15 2.371988 1_655
S8 Zn15 2.371992 1_555
S9 Zn9 2.347999 1_555
S9 Zn16 2.373265 1_655
S9 Zn16 2.373265 1_565
S9 Zn16 2.373272 1_555
S10 Zn10 2.347943 1_555
S10 Zn4 2.373173 1_545
S10 Zn4 2.373173 1_455
S10 Zn4 2.373173 1_555
S11 Zn11 2.350373 1_555
S11 Zn17 2.372157 1_655
S11 Zn17 2.372157 1_565
S11 Zn17 2.372161 1_555
S12 Zn12 2.351616 1_555
S12 Zn6 2.371951 1_455
S12 Zn6 2.371951 1_545
S12 Zn6 2.371954 1_555
S13 Zn13 2.350768 1_555
S13 Zn7 2.372609 1_545
S13 Zn7 2.372609 1_455
S13 Zn7 2.372609 1_555
S14 Zn14 2.348112 1_555
S14 Zn8 2.372870 1_555
S14 Zn8 2.372873 1_455
S14 Zn8 2.372873 1_545
S15 Zn15 2.350599 1_555
S15 Zn3 2.372701 1_455
S15 Zn3 2.372701 1_545
S15 Zn3 2.372707 1_445
S16 Zn16 2.351390 1_555
S16 Zn10 2.372120 1_545
S16 Zn10 2.372120 1_455
S16 Zn10 2.372123 1_555
S17 Zn17 2.348621 1_555
S17 Zn5 2.372831 1_445
S17 Zn5 2.372837 1_545
S17 Zn5 2.372837 1_455
