# generated using pymatgen
data_Sr4LiTb2(RuO6)2
_symmetry_space_group_name_H-M   'P 1'
_cell_length_a   5.74732126
_cell_length_b   6.05654502
_cell_length_c   8.31545835
_cell_angle_alpha   88.40839539
_cell_angle_beta   91.27742040
_cell_angle_gamma   90.84325669
_symmetry_Int_Tables_number   1
_chemical_formula_structural   Sr4LiTb2(RuO6)2
_chemical_formula_sum   'Sr4 Li1 Tb2 Ru2 O12'
_cell_volume   289.23967583
_cell_formula_units_Z   1
loop_
 _symmetry_equiv_pos_site_id
 _symmetry_equiv_pos_as_xyz
  1  'x, y, z'
loop_
 _atom_site_type_symbol
 _atom_site_label
 _atom_site_symmetry_multiplicity
 _atom_site_fract_x
 _atom_site_fract_y
 _atom_site_fract_z
 _atom_site_occupancy
  Sr  Sr0  1  0.98281700  0.44695800  0.74277200  1
  Sr  Sr1  1  0.51164700  0.94137900  0.75304900  1
  Sr  Sr2  1  0.46311000  0.09631500  0.28181800  1
  Sr  Sr3  1  0.04153700  0.55240300  0.24797000  1
  Li  Li0  1  0.64815300  0.78777700  0.14352900  1
  Tb  Tb0  1  0.50207100  0.46255000  0.98417800  1
  Tb  Tb1  1  0.99011500  0.00063800  0.50227000  1
  Ru  Ru0  1  0.01177000  0.99067400  0.99999200  1
  Ru  Ru1  1  0.49784100  0.51184300  0.49988500  1
  O  O0  1  0.72875300  0.17939600  0.95589300  1
  O  O1  1  0.76905400  0.70380800  0.54813700  1
  O  O2  1  0.30473600  0.80704700  0.04854100  1
  O  O3  1  0.21719900  0.30920600  0.46016800  1
  O  O4  1  0.81450400  0.70916400  0.96004900  1
  O  O5  1  0.68966600  0.23396800  0.54031900  1
  O  O6  1  0.19212600  0.26546700  0.05107400  1
  O  O7  1  0.30206200  0.78254400  0.45972300  1
  O  O8  1  0.41585500  0.51770800  0.73127000  1
  O  O9  1  0.08260700  0.02096900  0.76825100  1
  O  O10  1  0.57987900  0.50268100  0.25898600  1
  O  O11  1  0.90033200  0.95875500  0.23400200  1
loop_
_geom_bond_atom_site_label_1
_geom_bond_atom_site_label_2
_geom_bond_distance
_geom_bond_site_symmetry_2
Li0 O4 1.894038 1_554
Li0 O11 1.920791 1_555
Li0 O10 1.990469 1_555
Li0 O2 2.113117 1_555
O0 Ru0 2.022762 1_645
O0 Tb0 2.189858 1_555
O0 Sr1 2.543311 1_545
O0 Sr0 2.790172 1_555
O1 Ru1 1.971577 1_555
O1 Tb1 2.215379 1_565
O1 Sr0 2.525183 1_555
O1 Sr1 2.733786 1_555
O1 Sr3 3.141214 1_655
O2 Ru0 2.057862 1_554
O2 Tb0 2.466741 1_554
O2 Sr3 2.705182 1_555
O2 Sr2 2.779183 1_565
O2 Sr1 2.846828 1_554
O3 Ru1 2.038962 1_555
O3 Tb1 2.287089 1_455
O3 Sr2 2.472409 1_555
O3 Sr3 2.474329 1_555
O3 Sr0 2.883782 1_455
O4 Ru0 2.064082 1_655
O4 Tb0 2.327236 1_555
O4 Sr0 2.646623 1_555
O4 Sr1 2.788302 1_555
O4 Sr3 2.847293 1_656
O5 Ru1 2.041452 1_555
O5 Tb1 2.280339 1_555
O5 Sr2 2.637022 1_555
O5 Sr1 2.677580 1_545
O5 Sr0 2.695748 1_555
O6 Ru0 1.998409 1_544
O6 Tb0 2.202760 1_554
O6 Sr3 2.591399 1_555
O6 Sr2 2.638418 1_555
O6 Sr0 2.995443 1_454
O7 Ru1 2.018106 1_555
O7 Tb1 2.282155 1_465
O7 Sr2 2.551420 1_565
O7 Sr3 2.691220 1_555
O7 Sr1 2.879413 1_555
O8 Ru1 1.992500 1_555
O8 Tb0 2.167791 1_555
O8 Sr0 2.522672 1_455
O8 Sr1 2.626776 1_555
O9 Ru0 1.981416 1_545
O9 Tb1 2.269444 1_455
O9 Sr1 2.526051 1_545
O9 Sr0 2.652942 1_455
O10 Ru1 2.070555 1_555
O10 Tb0 2.337322 1_554
O10 Sr2 2.544586 1_555
O10 Sr3 2.669241 1_655
O10 Sr3 3.112125 1_555
O11 Ru0 2.065219 1_654
O11 Tb1 2.298524 1_565
O11 Sr3 2.601494 1_655
O11 Sr2 2.700228 1_565
