# generated using pymatgen
data_CsGd2Ag3Se5
_symmetry_space_group_name_H-M   'P 1'
_cell_length_a   8.04691305
_cell_length_b   8.04691305
_cell_length_c   17.68202431
_cell_angle_alpha   89.99922133
_cell_angle_beta   90.00077867
_cell_angle_gamma   148.83628461
_symmetry_Int_Tables_number   1
_chemical_formula_structural   CsGd2Ag3Se5
_chemical_formula_sum   'Cs2 Gd4 Ag6 Se10'
_cell_volume   592.50026299
_cell_formula_units_Z   2
loop_
 _symmetry_equiv_pos_site_id
 _symmetry_equiv_pos_as_xyz
  1  'x, y, z'
loop_
 _atom_site_type_symbol
 _atom_site_label
 _atom_site_symmetry_multiplicity
 _atom_site_fract_x
 _atom_site_fract_y
 _atom_site_fract_z
 _atom_site_occupancy
  Cs  Cs0  1  0.56228855  0.43771145  0.24999281  1
  Cs  Cs1  1  0.43771646  0.56228354  0.75000387  1
  Gd  Gd0  1  0.69287693  0.30712307  0.90470735  1
  Gd  Gd1  1  0.30711463  0.69288537  0.09530116  1
  Gd  Gd2  1  0.69288050  0.30711950  0.59529165  1
  Gd  Gd3  1  0.30711264  0.69288736  0.40468905  1
  Ag  Ag0  1  0.84478961  0.15521039  0.24999125  1
  Ag  Ag1  1  0.15520785  0.84479215  0.75000666  1
  Ag  Ag2  1  0.91773073  0.08226927  0.96007671  1
  Ag  Ag3  1  0.08227207  0.91772793  0.03987724  1
  Ag  Ag4  1  0.91773405  0.08226595  0.53991870  1
  Ag  Ag5  1  0.08226851  0.91773149  0.46011545  1
  Se  Se0  1  0.93178579  0.06821421  0.38369890  1
  Se  Se1  1  0.06820916  0.93179084  0.61635257  1
  Se  Se2  1  0.93178088  0.06821912  0.11629077  1
  Se  Se3  1  0.06819815  0.93180185  0.88365504  1
  Se  Se4  1  0.24927899  0.75072101  0.24999353  1
  Se  Se5  1  0.75076518  0.24923482  0.75000317  1
  Se  Se6  1  0.68016612  0.31983388  0.43105294  1
  Se  Se7  1  0.31984077  0.68015923  0.56897461  1
  Se  Se8  1  0.68014623  0.31985377  0.06898687  1
  Se  Se9  1  0.31983619  0.68016381  0.93101970  1
loop_
_geom_bond_atom_site_label_1
_geom_bond_atom_site_label_2
_geom_bond_distance
_geom_bond_site_symmetry_2
Cs0 Se4 3.615958 1_545
Cs0 Se4 3.615958 1_655
Cs0 Se8 3.685360 1_555
Cs0 Se6 3.686300 1_555
Cs0 Se2 3.788713 1_455
Cs0 Se2 3.788713 1_565
Cs0 Se0 3.788753 1_455
Cs0 Se0 3.788753 1_565
Cs1 Se5 3.615471 1_455
Cs1 Se5 3.615471 1_565
Cs1 Se9 3.685686 1_555
Cs1 Se7 3.685812 1_555
Cs1 Se3 3.787937 1_655
Cs1 Se3 3.787937 1_545
Cs1 Se1 3.788065 1_545
Cs1 Se1 3.788065 1_655
Gd0 Se5 2.878936 1_555
Gd0 Se8 2.911494 1_556
Gd0 Se3 2.923437 1_655
Gd0 Se3 2.923437 1_545
Gd0 Se9 2.960115 1_655
Gd0 Se9 2.960115 1_545
Gd1 Se4 2.878483 1_555
Gd1 Se9 2.911518 1_554
Gd1 Se2 2.923167 1_565
Gd1 Se2 2.923167 1_455
Gd1 Se8 2.960215 1_565
Gd1 Se8 2.960215 1_455
Gd2 Se5 2.879018 1_555
Gd2 Se6 2.910751 1_555
Gd2 Se1 2.923387 1_545
Gd2 Se1 2.923387 1_655
Gd2 Se7 2.960147 1_655
Gd2 Se7 2.960147 1_545
Gd3 Se4 2.878502 1_555
Gd3 Se7 2.911592 1_555
Gd3 Se0 2.923246 1_565
Gd3 Se0 2.923246 1_455
Gd3 Se6 2.960136 1_565
Gd3 Se6 2.960136 1_455
Ag0 Se4 2.620011 1_655
Ag0 Se4 2.620011 1_545
Ag0 Se2 2.721704 1_555
Ag0 Se0 2.721819 1_555
Ag1 Se5 2.620421 1_565
Ag1 Se5 2.620421 1_455
Ag1 Se1 2.721015 1_555
Ag1 Se3 2.721045 1_555
Ag2 Se9 2.690579 1_655
Ag2 Se9 2.690579 1_545
Ag2 Se3 2.695753 1_645
Ag2 Se2 2.770752 1_556
Ag3 Se8 2.690579 1_455
Ag3 Se8 2.690579 1_565
Ag3 Se2 2.695999 1_465
Ag3 Se3 2.770925 1_554
Ag4 Se7 2.690573 1_545
Ag4 Se7 2.690573 1_655
Ag4 Se1 2.695931 1_645
Ag4 Se0 2.770861 1_555
Ag5 Se6 2.690633 1_455
Ag5 Se6 2.690633 1_565
Ag5 Se0 2.695880 1_465
Ag5 Se1 2.771176 1_555
