# generated using pymatgen
data_Ba2AlW2F11
_symmetry_space_group_name_H-M   'P 1'
_cell_length_a   7.72032339
_cell_length_b   7.72032339
_cell_length_c   15.17427400
_cell_angle_alpha   90.00000000
_cell_angle_beta   90.00000000
_cell_angle_gamma   119.99999473
_symmetry_Int_Tables_number   1
_chemical_formula_structural   Ba2AlW2F11
_chemical_formula_sum   'Ba6 Al3 W6 F33'
_cell_volume   783.26651572
_cell_formula_units_Z   3
loop_
 _symmetry_equiv_pos_site_id
 _symmetry_equiv_pos_as_xyz
  1  'x, y, z'
loop_
 _atom_site_type_symbol
 _atom_site_label
 _atom_site_symmetry_multiplicity
 _atom_site_fract_x
 _atom_site_fract_y
 _atom_site_fract_z
 _atom_site_occupancy
  Ba  Ba0  1  0.84939400  0.84787000  0.65191700  1
  Ba  Ba1  1  0.50407200  0.13669000  0.79027700  1
  Ba  Ba2  1  0.99847500  0.15060600  0.98525100  1
  Ba  Ba3  1  0.86331000  0.36738200  0.45694400  1
  Ba  Ba4  1  0.63261800  0.49592800  0.12361000  1
  Ba  Ba5  1  0.15213000  0.00152500  0.31858400  1
  Al  Al0  1  0.51664200  0.68303200  0.87191900  1
  Al  Al1  1  0.16639000  0.48335800  0.20525200  1
  Al  Al2  1  0.31696800  0.83361000  0.53858500  1
  W  W0  1  0.96834500  0.66039600  0.89285700  1
  W  W1  1  0.09448800  0.42072500  0.72838400  1
  W  W2  1  0.57927500  0.67376200  0.39505100  1
  W  W3  1  0.69205100  0.03165500  0.22619100  1
  W  W4  1  0.32623800  0.90551200  0.06171700  1
  W  W5  1  0.33960400  0.30794900  0.55952400  1
  F  F0  1  0.01027000  0.76023400  0.03039600  1
  F  F1  1  0.81088800  0.34326800  0.91836600  1
  F  F2  1  0.74996400  0.98973000  0.36372900  1
  F  F3  1  0.48094500  0.07220300  0.48488000  1
  F  F4  1  0.84439500  0.87144900  0.19558000  1
  F  F5  1  0.16960000  0.26646500  0.15562500  1
  F  F6  1  0.92779700  0.40874100  0.15154600  1
  F  F7  1  0.73353500  0.90313600  0.82229200  1
  F  F8  1  0.02705400  0.15560500  0.52891300  1
  F  F9  1  0.64291500  0.04832700  0.08642100  1
  F  F10  1  0.59125900  0.51905500  0.81821300  1
  F  F11  1  0.23976600  0.25003600  0.69706300  1
  F  F12  1  0.66072500  0.71758700  0.97281800  1
  F  F13  1  0.37462600  0.18767500  0.01874000  1
  F  F14  1  0.05686200  0.33927500  0.30615100  1
  F  F15  1  0.65673200  0.46762000  0.58503200  1
  F  F16  1  0.44004800  0.86067000  0.91136400  1
  F  F17  1  0.40541200  0.35708500  0.41975400  1
  F  F18  1  0.32848700  0.70639600  0.43320300  1
  F  F19  1  0.28241300  0.94313800  0.63948500  1
  F  F20  1  0.37790900  0.67151300  0.76653700  1
  F  F21  1  0.81232500  0.18695200  0.68540700  1
  F  F22  1  0.81304800  0.62537400  0.35207300  1
  F  F23  1  0.42062100  0.55995200  0.24469800  1
  F  F24  1  0.95167300  0.59458800  0.75308800  1
  F  F25  1  0.12855100  0.97294600  0.86224700  1
  F  F26  1  0.53238000  0.18911200  0.25169900  1
  F  F27  1  0.29442700  0.47176900  0.91522200  1
  F  F28  1  0.17734200  0.70557300  0.24855600  1
  F  F29  1  0.29360400  0.62209100  0.09987000  1
  F  F30  1  0.09686400  0.83040000  0.48895800  1
  F  F31  1  0.13933000  0.57937900  0.57803100  1
  F  F32  1  0.52823100  0.82265800  0.58188900  1
loop_
_geom_bond_atom_site_label_1
_geom_bond_atom_site_label_2
_geom_bond_distance
_geom_bond_site_symmetry_2
Ba0 F32 2.613861 1_555
Ba0 F15 2.737520 1_555
Ba0 F8 2.784047 1_665
Ba0 F21 2.818214 1_565
Ba0 F7 2.836835 1_555
Ba0 F24 2.889300 1_555
Ba0 F19 3.048557 1_655
Ba0 F11 3.136079 1_665
Ba0 F30 3.168712 1_655
Ba1 F16 2.666099 1_545
Ba1 F10 2.712924 1_555
Ba1 F21 2.724508 1_555
Ba1 F25 2.744234 1_545
Ba1 F19 2.799982 1_545
Ba1 F1 2.855596 1_555
Ba1 F11 2.952250 1_555
Ba1 F7 3.133656 1_545
Ba1 F20 3.236979 1_545
Ba2 F27 2.613871 1_655
Ba2 F1 2.737513 1_555
Ba2 F25 2.784052 1_645
Ba2 F13 2.818212 1_656
Ba2 F5 2.836821 1_656
Ba2 F9 2.889286 1_556
Ba2 F12 3.048556 1_545
Ba2 F0 3.136079 1_646
Ba2 F7 3.168712 1_545
Ba3 F31 2.666101 1_655
Ba3 F3 2.712927 1_555
Ba3 F22 2.724523 1_555
Ba3 F8 2.744228 1_655
Ba3 F14 2.799994 1_655
Ba3 F15 2.855586 1_555
Ba3 F2 2.952257 1_545
Ba3 F30 3.133660 1_655
Ba3 F18 3.236980 1_655
Ba4 F23 2.666115 1_555
Ba4 F6 2.712932 1_555
Ba4 F13 2.724510 1_555
Ba4 F4 2.744234 1_555
Ba4 F12 2.799981 1_554
Ba4 F26 2.855596 1_555
Ba4 F0 2.952250 1_655
Ba4 F5 3.133663 1_555
Ba4 F29 3.236978 1_555
Ba5 F28 2.613868 1_545
Ba5 F26 2.737520 1_555
Ba5 F4 2.784047 1_445
Ba5 F22 2.818212 1_445
Ba5 F30 2.836821 1_545
Ba5 F17 2.889287 1_555
Ba5 F14 3.048550 1_555
Ba5 F2 3.136072 1_445
Ba5 F5 3.168712 1_555
Al0 F27 1.799180 1_555
Al0 F10 1.824257 1_555
Al0 F12 1.831925 1_555
Al0 F16 1.843827 1_555
Al0 F7 1.847461 1_555
Al0 F20 1.901826 1_555
Al1 F28 1.799185 1_555
Al1 F6 1.824251 1_455
Al1 F14 1.831925 1_555
Al1 F23 1.843825 1_555
Al1 F5 1.847457 1_555
Al1 F29 1.901826 1_555
Al2 F32 1.799185 1_555
Al2 F3 1.824246 1_565
Al2 F19 1.831938 1_555
Al2 F31 1.843827 1_555
Al2 F30 1.847464 1_555
Al2 F18 1.901826 1_555
F0 W4 2.167584 1_555
F0 W0 2.192073 1_454
F1 W0 2.155376 1_555
F2 W2 2.167587 1_555
F2 W3 2.192058 1_565
F4 W3 2.140925 1_565
F8 W5 2.140925 1_555
F9 W4 2.153567 1_545
F9 W3 2.169689 1_555
F11 W1 2.167577 1_555
F11 W5 2.192073 1_555
F13 W4 2.120483 1_545
F15 W5 2.155374 1_555
F16 W4 2.530077 1_556
F17 W2 2.153565 1_555
F17 W5 2.169689 1_555
F18 W2 2.152946 1_555
F20 W1 2.152945 1_555
F21 W1 2.120477 1_655
F22 W2 2.120473 1_555
F23 W2 2.530082 1_555
F24 W1 2.153574 1_655
F24 W0 2.169674 1_555
F25 W0 2.140922 1_455
F26 W3 2.155373 1_555
F29 W4 2.152942 1_555
F31 W1 2.530084 1_555
