# generated using pymatgen
data_Ti(Si3Mo)2
_symmetry_space_group_name_H-M   'P 1'
_cell_length_a   4.68105426
_cell_length_b   4.68105426
_cell_length_c   6.48705400
_cell_angle_alpha   90.00000000
_cell_angle_beta   90.00000000
_cell_angle_gamma   119.56276906
_symmetry_Int_Tables_number   1
_chemical_formula_structural   Ti(Si3Mo)2
_chemical_formula_sum   'Ti1 Si6 Mo2'
_cell_volume   123.64088695
_cell_formula_units_Z   1
loop_
 _symmetry_equiv_pos_site_id
 _symmetry_equiv_pos_as_xyz
  1  'x, y, z'
loop_
 _atom_site_type_symbol
 _atom_site_label
 _atom_site_symmetry_multiplicity
 _atom_site_fract_x
 _atom_site_fract_y
 _atom_site_fract_z
 _atom_site_occupancy
  Ti  Ti0  1  0.50000000  0.50000000  0.50000000  1
  Si  Si0  1  0.15774200  0.84225800  0.50000000  1
  Si  Si1  1  0.15997300  0.32458300  0.16882600  1
  Si  Si2  1  0.67541700  0.84002700  0.83117400  1
  Si  Si3  1  0.84225800  0.15774200  0.50000000  1
  Si  Si4  1  0.84002700  0.67541700  0.16882600  1
  Si  Si5  1  0.32458300  0.15997300  0.83117400  1
  Mo  Mo0  1  0.50000000  0.00000000  0.16810500  1
  Mo  Mo1  1  0.00000000  0.50000000  0.83189500  1
loop_
_geom_bond_atom_site_label_1
_geom_bond_atom_site_label_2
_geom_bond_distance
_geom_bond_site_symmetry_2
Si0 Si4 2.508202 1_455
Si0 Si5 2.508202 1_565
Si0 Si3 2.552235 1_465
Si0 Ti0 2.679386 1_565
Si0 Ti0 2.679386 1_455
Si0 Ti0 2.768834 1_555
Si0 Si3 2.789056 1_565
Si0 Si3 2.789056 1_455
Si1 Si3 2.508202 1_455
Si1 Ti0 2.556057 1_555
Si1 Si5 2.563411 1_554
Si1 Si4 2.643180 1_445
Si1 Si4 2.714249 1_455
Si1 Si4 2.769872 1_555
Si2 Si3 2.508202 1_565
Si2 Ti0 2.556057 1_555
Si2 Si4 2.563411 1_556
Si2 Si5 2.643180 1_665
Si2 Si5 2.714249 1_565
Si2 Si5 2.769872 1_555
Si3 Ti0 2.679386 1_545
Si3 Ti0 2.679386 1_655
Si3 Ti0 2.768834 1_555
Si4 Ti0 2.556057 1_555
Si5 Ti0 2.556057 1_555
Mo0 Si3 2.565191 1_555
Mo0 Si0 2.565191 1_545
Mo0 Si5 2.572747 1_554
Mo0 Si2 2.572747 1_544
Mo0 Si1 2.687190 1_655
Mo0 Si4 2.687190 1_445
Mo0 Si4 2.688566 1_545
Mo0 Si1 2.688566 1_555
Mo0 Si4 2.750252 1_555
Mo0 Si1 2.750252 1_545
Mo1 Si3 2.565191 1_455
Mo1 Si0 2.565191 1_555
Mo1 Si1 2.572747 1_556
Mo1 Si4 2.572747 1_456
Mo1 Si2 2.687190 1_445
Mo1 Si5 2.687190 1_565
Mo1 Si2 2.688566 1_455
Mo1 Si5 2.688566 1_555
Mo1 Si5 2.750252 1_455
Mo1 Si2 2.750252 1_555
