# generated using pymatgen
data_Mg16TiAl12
_symmetry_space_group_name_H-M   'P 1'
_cell_length_a   9.12587520
_cell_length_b   9.12587520
_cell_length_c   9.12587494
_cell_angle_alpha   110.13510678
_cell_angle_beta   110.13510678
_cell_angle_gamma   110.13511497
_symmetry_Int_Tables_number   1
_chemical_formula_structural   Mg16TiAl12
_chemical_formula_sum   'Mg16 Ti1 Al12'
_cell_volume   570.22809308
_cell_formula_units_Z   1
loop_
 _symmetry_equiv_pos_site_id
 _symmetry_equiv_pos_as_xyz
  1  'x, y, z'
loop_
 _atom_site_type_symbol
 _atom_site_label
 _atom_site_symmetry_multiplicity
 _atom_site_fract_x
 _atom_site_fract_y
 _atom_site_fract_z
 _atom_site_occupancy
  Mg  Mg0  1  0.65633800  0.99602900  0.99602900  1
  Mg  Mg1  1  0.28023500  0.59940100  0.59940100  1
  Mg  Mg2  1  0.72079800  0.31555600  0.31555600  1
  Mg  Mg3  1  0.00535000  0.00535000  0.00535000  1
  Mg  Mg4  1  0.00109500  0.68770600  0.39583700  1
  Mg  Mg5  1  0.39583700  0.00109500  0.68770600  1
  Mg  Mg6  1  0.59940100  0.59940100  0.28023500  1
  Mg  Mg7  1  0.99602900  0.99602900  0.65633800  1
  Mg  Mg8  1  0.68770600  0.39583700  0.00109500  1
  Mg  Mg9  1  0.31555600  0.72079800  0.31555600  1
  Mg  Mg10  1  0.31555600  0.31555600  0.72079800  1
  Mg  Mg11  1  0.68770600  0.00109500  0.39583700  1
  Mg  Mg12  1  0.99602900  0.65633800  0.99602900  1
  Mg  Mg13  1  0.59940100  0.28023500  0.59940100  1
  Mg  Mg14  1  0.39583700  0.68770600  0.00109500  1
  Mg  Mg15  1  0.00109500  0.39583700  0.68770600  1
  Ti  Ti0  1  0.36136500  0.36136500  0.36136500  1
  Al  Al0  1  0.17738400  0.80965100  0.80965100  1
  Al  Al1  1  0.80772900  0.62569100  0.62569100  1
  Al  Al2  1  0.00870100  0.36654200  0.18919500  1
  Al  Al3  1  0.36654200  0.18919500  0.00870100  1
  Al  Al4  1  0.62569100  0.80772900  0.62569100  1
  Al  Al5  1  0.18919500  0.36654200  0.00870100  1
  Al  Al6  1  0.80965100  0.17738400  0.80965100  1
  Al  Al7  1  0.80965100  0.80965100  0.17738400  1
  Al  Al8  1  0.18919500  0.00870100  0.36654200  1
  Al  Al9  1  0.62569100  0.62569100  0.80772900  1
  Al  Al10  1  0.36654200  0.00870100  0.18919500  1
  Al  Al11  1  0.00870100  0.18919500  0.36654200  1
loop_
_geom_bond_atom_site_label_1
_geom_bond_atom_site_label_2
_geom_bond_distance
_geom_bond_site_symmetry_2
Mg0 Mg14 3.021706 1_556
Mg0 Mg5 3.021707 1_565
Mg0 Mg2 3.022561 1_566
Mg0 Mg3 3.127446 1_666
Mg1 Ti0 2.991925 1_555
Mg1 Mg15 3.126602 1_555
Mg1 Mg4 3.126602 1_555
Mg1 Mg5 3.149422 1_565
Mg1 Mg14 3.149422 1_556
Mg2 Mg4 3.103194 1_655
Mg2 Mg8 3.141093 1_555
Mg2 Ti0 3.588407 1_555
Mg3 Mg7 3.127446 1_444
Mg3 Ti0 3.140894 1_555
Mg4 Mg7 3.021707 1_455
Mg4 Mg5 3.050804 1_565
Mg4 Mg8 3.050804 1_455
Mg4 Mg9 3.141093 1_555
Mg4 Mg6 3.149422 1_455
Mg5 Mg8 3.050804 1_556
Mg5 Mg9 3.103194 1_545
Mg6 Ti0 2.991925 1_555
Mg6 Mg8 3.126602 1_555
Mg9 Ti0 3.588407 1_555
Mg10 Mg7 3.022560 1_445
Mg10 Mg8 3.103194 1_556
Mg10 Mg14 3.103194 1_556
Mg10 Mg15 3.141093 1_555
Mg10 Mg5 3.141093 1_555
Mg10 Ti0 3.588407 1_555
Mg11 Mg7 3.021707 1_545
Mg11 Mg15 3.050804 1_655
Mg11 Mg14 3.050804 1_545
Mg11 Mg9 3.103194 1_545
Mg11 Mg13 3.126602 1_555
Mg11 Mg2 3.141093 1_555
Mg11 Mg6 3.149422 1_545
Mg12 Mg8 3.021706 1_556
Mg12 Mg15 3.021707 1_655
Mg12 Mg9 3.022561 1_656
Mg12 Mg3 3.127446 1_666
Mg13 Ti0 2.991925 1_555
Mg13 Mg5 3.126602 1_555
Mg13 Mg15 3.149422 1_655
Mg13 Mg8 3.149422 1_556
Mg14 Mg15 3.050804 1_554
Mg14 Mg6 3.126602 1_555
Mg14 Mg9 3.141093 1_555
Mg15 Mg2 3.103194 1_455
Al0 Al1 2.697840 1_455
Al0 Al3 2.769406 1_566
Al0 Al10 2.769406 1_566
Al0 Mg1 2.861659 1_555
Al0 Mg5 2.955196 1_565
Al0 Mg14 2.955197 1_556
Al0 Mg12 3.093822 1_455
Al0 Mg7 3.093822 1_455
Al0 Mg15 3.127174 1_555
Al0 Mg4 3.127174 1_555
Al0 Mg3 3.241704 1_566
Al1 Al9 2.723888 1_555
Al1 Al4 2.723888 1_555
Al1 Mg2 2.836108 1_555
Al1 Mg13 2.941028 1_555
Al1 Mg6 2.941028 1_555
Al1 Mg7 3.077858 1_555
Al1 Mg12 3.077858 1_555
Al1 Mg3 3.223764 1_666
Al1 Mg4 3.242277 1_655
Al1 Mg15 3.242277 1_655
Al1 Ti0 3.270273 1_555
Al2 Al5 2.700784 1_555
Al2 Al6 2.769406 1_454
Al2 Mg4 2.928510 1_555
Al2 Mg9 2.932663 1_555
Al2 Mg8 2.998738 1_455
Al2 Mg1 3.030061 1_555
Al2 Mg0 3.064104 1_444
Al2 Ti0 3.082725 1_555
Al2 Mg3 3.125472 1_555
Al2 Mg2 3.172218 1_455
Al3 Al5 2.653695 1_555
Al3 Mg8 2.928509 1_555
Al3 Mg2 2.932663 1_555
Al3 Mg5 2.998737 1_554
Al3 Mg6 3.030061 1_555
Al3 Mg7 3.064104 1_444
Al3 Ti0 3.082725 1_555
Al3 Mg3 3.125472 1_555
Al3 Mg10 3.172218 1_554
Al4 Al6 2.697840 1_565
Al4 Al9 2.723888 1_555
Al4 Mg9 2.836108 1_555
Al4 Mg1 2.941028 1_555
Al4 Mg6 2.941028 1_555
Al4 Mg7 3.077858 1_555
Al4 Mg0 3.077858 1_555
Al4 Mg3 3.223764 1_666
Al4 Mg11 3.242277 1_565
Al4 Mg5 3.242277 1_565
Al4 Ti0 3.270273 1_555
Al5 Al6 2.769406 1_454
Al5 Mg14 2.928509 1_555
Al5 Mg9 2.932663 1_555
Al5 Mg15 2.998737 1_554
Al5 Mg6 3.030061 1_555
Al5 Mg7 3.064104 1_444
Al5 Ti0 3.082725 1_555
Al5 Mg3 3.125472 1_555
Al5 Mg10 3.172218 1_554
Al6 Mg13 2.861659 1_555
Al6 Mg15 2.955196 1_655
Al6 Mg8 2.955197 1_556
Al6 Mg0 3.093822 1_545
Al6 Mg7 3.093822 1_545
Al6 Mg5 3.127174 1_555
Al6 Mg11 3.127174 1_555
Al6 Mg3 3.241704 1_656
Al7 Al9 2.697840 1_554
Al7 Al8 2.769406 1_665
Al7 Mg6 2.861658 1_555
Al7 Mg11 2.955197 1_565
Al7 Mg4 2.955197 1_655
Al7 Mg12 3.093822 1_554
Al7 Mg0 3.093822 1_554
Al7 Mg14 3.127174 1_555
Al7 Mg8 3.127174 1_555
Al7 Mg3 3.241704 1_665
Al8 Mg5 2.928510 1_555
Al8 Mg10 2.932663 1_555
Al8 Mg4 2.998737 1_545
Al8 Mg13 3.030061 1_555
Al8 Mg12 3.064104 1_444
Al8 Ti0 3.082725 1_555
Al8 Mg3 3.125472 1_555
Al8 Mg9 3.172219 1_545
Al9 Mg10 2.836107 1_555
Al9 Mg13 2.941028 1_555
Al9 Mg1 2.941028 1_555
Al9 Mg12 3.077858 1_555
Al9 Mg0 3.077858 1_555
Al9 Mg3 3.223764 1_666
Al9 Mg8 3.242277 1_556
Al9 Mg14 3.242277 1_556
Al9 Ti0 3.270273 1_555
Al10 Al8 2.653695 1_555
Al10 Al3 2.700784 1_555
Al10 Mg11 2.928510 1_555
Al10 Mg2 2.932663 1_555
Al10 Mg14 2.998738 1_545
Al10 Mg13 3.030061 1_555
Al10 Mg12 3.064104 1_444
Al10 Ti0 3.082725 1_555
Al10 Mg3 3.125472 1_555
Al10 Mg9 3.172218 1_545
Al11 Al2 2.653695 1_555
Al11 Al8 2.700784 1_555
Al11 Al7 2.769406 1_445
Al11 Mg15 2.928510 1_555
Al11 Mg10 2.932663 1_555
Al11 Mg11 2.998737 1_455
Al11 Mg1 3.030061 1_555
Al11 Mg0 3.064104 1_444
Al11 Ti0 3.082725 1_555
Al11 Mg3 3.125472 1_555
Al11 Mg2 3.172219 1_455
