# generated using pymatgen
data_ZnCd3S4
_symmetry_space_group_name_H-M   'P 1'
_cell_length_a   5.75954623
_cell_length_b   5.75954623
_cell_length_c   5.75954623
_cell_angle_alpha   90.00000000
_cell_angle_beta   90.00000000
_cell_angle_gamma   90.00000000
_symmetry_Int_Tables_number   1
_chemical_formula_structural   ZnCd3S4
_chemical_formula_sum   'Zn1 Cd3 S4'
_cell_volume   191.05781456
_cell_formula_units_Z   1
loop_
 _symmetry_equiv_pos_site_id
 _symmetry_equiv_pos_as_xyz
  1  'x, y, z'
loop_
 _atom_site_type_symbol
 _atom_site_label
 _atom_site_symmetry_multiplicity
 _atom_site_fract_x
 _atom_site_fract_y
 _atom_site_fract_z
 _atom_site_occupancy
  Zn  Zn0  1  0.00000000  -0.00000000  -0.00000000  1
  Cd  Cd0  1  0.00000000  0.50000000  0.50000000  1
  Cd  Cd1  1  0.50000000  0.50000000  -0.00000000  1
  Cd  Cd2  1  0.50000000  0.00000000  0.50000000  1
  S  S0  1  0.76360863  0.76360863  0.23639137  1
  S  S1  1  0.76360863  0.23639137  0.76360863  1
  S  S2  1  0.23639137  0.76360863  0.76360863  1
  S  S3  1  0.23639137  0.23639137  0.23639137  1
loop_
_geom_bond_atom_site_label_1
_geom_bond_atom_site_label_2
_geom_bond_distance
_geom_bond_site_symmetry_2
Cd0 S1 2.542433 1_455
Cd0 S2 2.542433 1_555
Cd0 S0 2.542433 1_455
Cd0 S3 2.542433 1_555
Cd1 S2 2.542433 1_554
Cd1 S3 2.542433 1_555
Cd1 S1 2.542433 1_554
Cd1 S0 2.542433 1_555
Cd2 S0 2.542433 1_545
Cd2 S3 2.542433 1_555
Cd2 S2 2.542433 1_545
Cd2 S1 2.542433 1_555
S0 Zn0 2.358199 1_665
S1 Zn0 2.358199 1_656
S2 Zn0 2.358199 1_566
S3 Zn0 2.358199 1_555
