# generated using pymatgen
data_TeMo2Se2S
_symmetry_space_group_name_H-M   'P 1'
_cell_length_a   3.34471151
_cell_length_b   3.34471151
_cell_length_c   38.04456800
_cell_angle_alpha   90.00000000
_cell_angle_beta   90.00000000
_cell_angle_gamma   119.99999040
_symmetry_Int_Tables_number   1
_chemical_formula_structural   TeMo2Se2S
_chemical_formula_sum   'Te2 Mo4 Se4 S2'
_cell_volume   368.58754968
_cell_formula_units_Z   2
loop_
 _symmetry_equiv_pos_site_id
 _symmetry_equiv_pos_as_xyz
  1  'x, y, z'
loop_
 _atom_site_type_symbol
 _atom_site_label
 _atom_site_symmetry_multiplicity
 _atom_site_fract_x
 _atom_site_fract_y
 _atom_site_fract_z
 _atom_site_occupancy
  Te  Te0  1  0.33333300  0.66666700  0.33158100  1
  Te  Te1  1  0.33333300  0.66666700  0.23191800  1
  Mo  Mo0  1  0.33333300  0.66666700  0.09392800  1
  Mo  Mo1  1  0.33333300  0.66666700  0.46971100  1
  Mo  Mo2  1  0.66666700  0.33333300  0.28179100  1
  Mo  Mo3  1  0.66666700  0.33333300  0.65752800  1
  Se  Se0  1  0.33333300  0.66666700  0.70133100  1
  Se  Se1  1  0.66666700  0.33333300  0.42589700  1
  Se  Se2  1  0.66666700  0.33333300  0.51346300  1
  Se  Se3  1  0.33333300  0.66666700  0.61374200  1
  S  S0  1  0.66666700  0.33333300  0.05400200  1
  S  S1  1  0.66666700  0.33333300  0.13385600  1
loop_
_geom_bond_atom_site_label_1
_geom_bond_atom_site_label_2
_geom_bond_distance
_geom_bond_site_symmetry_2
Mo0 S0 2.456886 1_455
Mo0 S0 2.456886 1_565
Mo0 S0 2.456890 1_555
Mo0 S1 2.456933 1_455
Mo0 S1 2.456933 1_565
Mo0 S1 2.456937 1_555
Mo1 Se2 2.549445 1_565
Mo1 Se2 2.549445 1_455
Mo1 Se2 2.549450 1_555
Mo1 Se1 2.550986 1_455
Mo1 Se1 2.550986 1_565
Mo1 Se1 2.550990 1_555
Mo2 Te0 2.705026 1_545
Mo2 Te0 2.705026 1_655
Mo2 Te0 2.705030 1_555
Mo2 Te1 2.707238 1_545
Mo2 Te1 2.707238 1_655
Mo2 Te1 2.707242 1_555
Mo3 Se3 2.550290 1_545
Mo3 Se3 2.550290 1_655
Mo3 Se3 2.550294 1_555
Mo3 Se0 2.550713 1_545
Mo3 Se0 2.550713 1_655
Mo3 Se0 2.550717 1_555
