# generated using pymatgen
data_Pu2B6Os
_symmetry_space_group_name_H-M   'P 1'
_cell_length_a   3.58801081
_cell_length_b   9.44088483
_cell_length_c   11.54492818
_cell_angle_alpha   90.00000000
_cell_angle_beta   90.00000000
_cell_angle_gamma   90.00000000
_symmetry_Int_Tables_number   1
_chemical_formula_structural   Pu2B6Os
_chemical_formula_sum   'Pu8 B24 Os4'
_cell_volume   391.07286053
_cell_formula_units_Z   4
loop_
 _symmetry_equiv_pos_site_id
 _symmetry_equiv_pos_as_xyz
  1  'x, y, z'
loop_
 _atom_site_type_symbol
 _atom_site_label
 _atom_site_symmetry_multiplicity
 _atom_site_fract_x
 _atom_site_fract_y
 _atom_site_fract_z
 _atom_site_occupancy
  Pu  Pu0  1  -0.00000000  0.33687856  0.40734908  1
  Pu  Pu1  1  0.00000000  0.66312144  0.59265092  1
  Pu  Pu2  1  -0.00000000  0.83687856  0.09265092  1
  Pu  Pu3  1  -0.00000000  0.16312144  0.90734908  1
  Pu  Pu4  1  0.00000000  0.95367656  0.38926096  1
  Pu  Pu5  1  0.00000000  0.04632344  0.61073904  1
  Pu  Pu6  1  -0.00000000  0.45367656  0.11073904  1
  Pu  Pu7  1  -0.00000000  0.54632344  0.88926096  1
  B  B0  1  0.50000000  0.55272131  0.43075414  1
  B  B1  1  0.50000000  0.44727869  0.56924586  1
  B  B2  1  0.50000000  0.05272131  0.06924586  1
  B  B3  1  0.50000000  0.94727869  0.93075414  1
  B  B4  1  0.50000000  0.74276450  0.42315692  1
  B  B5  1  0.50000000  0.25723550  0.57684308  1
  B  B6  1  0.50000000  0.24276450  0.07684308  1
  B  B7  1  0.50000000  0.75723550  0.92315692  1
  B  B8  1  0.50000000  0.79979864  0.27401666  1
  B  B9  1  0.50000000  0.20020136  0.72598334  1
  B  B10  1  0.50000000  0.29979864  0.22598334  1
  B  B11  1  0.50000000  0.70020136  0.77401666  1
  B  B12  1  0.50000000  0.64469102  0.18959422  1
  B  B13  1  0.50000000  0.35530898  0.81040578  1
  B  B14  1  0.50000000  0.14469102  0.31040578  1
  B  B15  1  0.50000000  0.85530898  0.68959422  1
  B  B16  1  0.50000000  0.99021913  0.21716505  1
  B  B17  1  0.50000000  0.00978087  0.78283495  1
  B  B18  1  0.50000000  0.49021913  0.28283495  1
  B  B19  1  0.50000000  0.50978087  0.71716505  1
  B  B20  1  0.50000000  0.64540816  0.04084646  1
  B  B21  1  0.50000000  0.35459184  0.95915354  1
  B  B22  1  0.50000000  0.14540816  0.45915354  1
  B  B23  1  0.50000000  0.85459184  0.54084646  1
  Os  Os0  1  0.00000000  0.64521389  0.32094288  1
  Os  Os1  1  -0.00000000  0.35478611  0.67905712  1
  Os  Os2  1  0.00000000  0.14521389  0.17905712  1
  Os  Os3  1  -0.00000000  0.85478611  0.82094288  1
loop_
_geom_bond_atom_site_label_1
_geom_bond_atom_site_label_2
_geom_bond_distance
_geom_bond_site_symmetry_2
Pu4 Pu5 2.702412 1_565
Pu6 Pu7 2.702412 1_554
B0 B4 1.796318 1_555
B0 B18 1.806789 1_555
B0 B1 1.883447 1_555
B0 Os0 2.363933 1_555
B0 Os0 2.363933 1_655
B0 Pu0 2.728347 1_655
B0 Pu0 2.728347 1_555
B0 Pu1 2.792540 1_555
B0 Pu1 2.792540 1_655
B1 B5 1.796318 1_555
B1 B19 1.806789 1_555
B1 Os1 2.363933 1_655
B1 Os1 2.363933 1_555
B1 Pu1 2.728347 1_555
B1 Pu1 2.728347 1_655
B1 Pu0 2.792540 1_655
B1 Pu0 2.792540 1_555
B2 B6 1.796318 1_555
B2 B3 1.883447 1_544
B2 Os2 2.363933 1_655
B2 Os2 2.363933 1_555
B2 Pu2 2.728347 1_545
B2 Pu2 2.728347 1_645
B2 Pu3 2.792540 1_554
B2 Pu3 2.792540 1_654
B3 B7 1.796318 1_555
B3 Os3 2.363933 1_555
B3 Os3 2.363933 1_655
B3 Pu3 2.728347 1_565
B3 Pu3 2.728347 1_665
B3 Pu2 2.792540 1_556
B3 Pu2 2.792540 1_656
B4 B8 1.804044 1_555
B4 Os0 2.336484 1_655
B4 Os0 2.336484 1_555
B4 Pu4 2.708589 1_655
B4 Pu4 2.708589 1_555
B4 Pu1 2.759141 1_555
B4 Pu1 2.759141 1_655
B5 B9 1.804044 1_555
B5 Os1 2.336484 1_655
B5 Os1 2.336484 1_555
B5 Pu5 2.708589 1_555
B5 Pu5 2.708589 1_655
B5 Pu0 2.759141 1_555
B5 Pu0 2.759141 1_655
B6 Os2 2.336484 1_655
B6 Os2 2.336484 1_555
B6 Pu6 2.708589 1_655
B6 Pu6 2.708589 1_555
B6 Pu3 2.759141 1_554
B6 Pu3 2.759141 1_654
B7 Os3 2.336484 1_655
B7 Os3 2.336484 1_555
B7 Pu7 2.708589 1_655
B7 Pu7 2.708589 1_555
B7 Pu2 2.759141 1_556
B7 Pu2 2.759141 1_656
B8 Os0 2.375259 1_555
B8 Os0 2.375259 1_655
B8 Pu4 2.664417 1_555
B8 Pu4 2.664417 1_655
B8 Pu2 2.779430 1_555
B8 Pu2 2.779430 1_655
B9 Os1 2.375259 1_655
B9 Os1 2.375259 1_555
B9 Pu5 2.664417 1_555
B9 Pu5 2.664417 1_655
B9 Pu3 2.779430 1_555
B9 Pu3 2.779430 1_655
B10 B14 1.759055 1_555
B10 B6 1.804044 1_555
B10 B18 1.913806 1_555
B10 Os2 2.375259 1_655
B10 Os2 2.375259 1_555
B10 Pu6 2.664417 1_555
B10 Pu6 2.664417 1_655
B10 Pu0 2.779430 1_555
B10 Pu0 2.779430 1_655
B11 B15 1.759055 1_555
B11 B7 1.804044 1_555
B11 B19 1.913806 1_555
B11 Os3 2.375259 1_555
B11 Os3 2.375259 1_655
B11 Pu7 2.664417 1_555
B11 Pu7 2.664417 1_655
B11 Pu1 2.779430 1_655
B11 Pu1 2.779430 1_555
B12 B20 1.717296 1_555
B12 B8 1.759055 1_555
B12 B18 1.812608 1_555
B12 Os0 2.349038 1_555
B12 Os0 2.349038 1_655
B12 Pu6 2.701721 1_555
B12 Pu6 2.701721 1_655
B12 Pu2 2.786251 1_555
B12 Pu2 2.786251 1_655
B13 B21 1.717296 1_555
B13 B9 1.759055 1_555
B13 B19 1.812608 1_555
B13 Os1 2.349038 1_555
B13 Os1 2.349038 1_655
B13 Pu7 2.701721 1_555
B13 Pu7 2.701721 1_655
B13 Pu3 2.786251 1_555
B13 Pu3 2.786251 1_655
B14 B22 1.717296 1_555
B14 B16 1.812608 1_545
B14 Os2 2.349038 1_655
B14 Os2 2.349038 1_555
B14 Pu4 2.701721 1_645
B14 Pu4 2.701721 1_545
B14 Pu0 2.786251 1_555
B14 Pu0 2.786251 1_655
B15 B23 1.717296 1_555
B15 B17 1.812608 1_565
B15 Os3 2.349038 1_655
B15 Os3 2.349038 1_555
B15 Pu5 2.701721 1_565
B15 Pu5 2.701721 1_665
B15 Pu1 2.786251 1_555
B15 Pu1 2.786251 1_655
B16 B2 1.806789 1_565
B16 B8 1.913806 1_555
B16 Os2 2.356528 1_665
B16 Os2 2.356528 1_565
B16 Pu4 2.699072 1_555
B16 Pu4 2.699072 1_655
B16 Pu2 2.716732 1_555
B16 Pu2 2.716732 1_655
B17 B3 1.806789 1_545
B17 B9 1.913806 1_555
B17 Os3 2.356528 1_645
B17 Os3 2.356528 1_545
B17 Pu5 2.699072 1_555
B17 Pu5 2.699072 1_655
B17 Pu3 2.716732 1_655
B17 Pu3 2.716732 1_555
B18 Os0 2.356528 1_555
B18 Os0 2.356528 1_655
B18 Pu6 2.699072 1_655
B18 Pu6 2.699072 1_555
B18 Pu0 2.716732 1_655
B18 Pu0 2.716732 1_555
B19 Os1 2.356528 1_555
B19 Os1 2.356528 1_655
B19 Pu7 2.699072 1_655
B19 Pu7 2.699072 1_555
B19 Pu1 2.716732 1_555
B19 Pu1 2.716732 1_655
B20 B7 1.720674 1_554
B20 Pu2 2.616057 1_655
B20 Pu2 2.616057 1_555
B20 Pu6 2.673214 1_555
B20 Pu6 2.673214 1_655
B20 Pu7 2.675102 1_554
B20 Pu7 2.675102 1_654
B21 B6 1.720674 1_556
B21 Pu3 2.616057 1_655
B21 Pu3 2.616057 1_555
B21 Pu7 2.673214 1_555
B21 Pu7 2.673214 1_655
B21 Pu6 2.675102 1_556
B21 Pu6 2.675102 1_656
B22 B5 1.720674 1_555
B22 Pu0 2.616057 1_655
B22 Pu0 2.616057 1_555
B22 Pu4 2.673214 1_545
B22 Pu4 2.673214 1_645
B22 Pu5 2.675102 1_555
B22 Pu5 2.675102 1_655
B23 B4 1.720674 1_555
B23 Pu1 2.616057 1_655
B23 Pu1 2.616057 1_555
B23 Pu5 2.673214 1_665
B23 Pu5 2.673214 1_565
B23 Pu4 2.675102 1_655
B23 Pu4 2.675102 1_555
Os0 Pu4 3.017080 1_555
Os0 Pu6 3.026414 1_555
Os1 Pu5 3.017080 1_555
Os1 Pu7 3.026414 1_555
Os2 Pu6 3.017080 1_555
Os2 Pu4 3.026414 1_545
Os3 Pu7 3.017080 1_555
Os3 Pu5 3.026414 1_565
