# generated using pymatgen
data_Mg6ZnCu
_symmetry_space_group_name_H-M   'P 1'
_cell_length_a   4.83797400
_cell_length_b   6.25705100
_cell_length_c   10.34411200
_cell_angle_alpha   90.00000000
_cell_angle_beta   90.00000000
_cell_angle_gamma   90.00000000
_symmetry_Int_Tables_number   1
_chemical_formula_structural   Mg6ZnCu
_chemical_formula_sum   'Mg12 Zn2 Cu2'
_cell_volume   313.13126977
_cell_formula_units_Z   2
loop_
 _symmetry_equiv_pos_site_id
 _symmetry_equiv_pos_as_xyz
  1  'x, y, z'
loop_
 _atom_site_type_symbol
 _atom_site_label
 _atom_site_symmetry_multiplicity
 _atom_site_fract_x
 _atom_site_fract_y
 _atom_site_fract_z
 _atom_site_occupancy
  Mg  Mg0  1  0.50000000  0.25026600  0.58510600  1
  Mg  Mg1  1  0.50000000  0.74973400  0.58510600  1
  Mg  Mg2  1  0.00000000  0.24630500  0.41186600  1
  Mg  Mg3  1  0.00000000  0.75369500  0.41186600  1
  Mg  Mg4  1  0.00000000  0.00000000  0.66923700  1
  Mg  Mg5  1  0.00000000  0.00000000  0.17152300  1
  Mg  Mg6  1  0.50000000  0.75026600  0.08510600  1
  Mg  Mg7  1  0.50000000  0.24973400  0.08510600  1
  Mg  Mg8  1  0.00000000  0.74630500  0.91186600  1
  Mg  Mg9  1  0.00000000  0.25369500  0.91186600  1
  Mg  Mg10  1  0.00000000  0.50000000  0.16923700  1
  Mg  Mg11  1  0.00000000  0.50000000  0.67152300  1
  Zn  Zn0  1  0.50000000  0.00000000  0.83253200  1
  Zn  Zn1  1  0.50000000  0.50000000  0.33253200  1
  Cu  Cu0  1  0.50000000  0.00000000  0.33276800  1
  Cu  Cu1  1  0.50000000  0.50000000  0.83276800  1
loop_
_geom_bond_atom_site_label_1
_geom_bond_atom_site_label_2
_geom_bond_distance
_geom_bond_site_symmetry_2
Mg0 Zn0 3.000445 1_555
Mg0 Mg4 3.010146 1_655
Mg0 Mg4 3.010146 1_555
Mg0 Mg2 3.010553 1_555
Mg0 Mg2 3.010553 1_655
Mg0 Mg11 3.015341 1_555
Mg0 Mg11 3.015341 1_655
Mg0 Zn1 3.044285 1_555
Mg0 Mg1 3.125197 1_555
Mg0 Mg1 3.131854 1_545
Mg1 Zn0 3.000445 1_565
Mg1 Mg4 3.010146 1_665
Mg1 Mg4 3.010146 1_565
Mg1 Mg3 3.010553 1_555
Mg1 Mg3 3.010553 1_655
Mg1 Mg11 3.015341 1_555
Mg1 Mg11 3.015341 1_655
Mg1 Zn1 3.044285 1_555
Mg2 Mg5 2.925062 1_555
Mg2 Zn1 3.007446 1_455
Mg2 Zn1 3.007446 1_555
Mg2 Mg4 3.076171 1_555
Mg2 Mg3 3.082286 1_545
Mg2 Mg3 3.174765 1_555
Mg3 Mg5 2.925062 1_565
Mg3 Zn1 3.007446 1_455
Mg3 Zn1 3.007446 1_555
Mg3 Mg4 3.076171 1_565
Mg4 Zn0 2.950373 1_555
Mg4 Zn0 2.950373 1_455
Mg4 Mg8 2.969644 1_545
Mg4 Mg9 2.969644 1_555
Mg5 Mg7 3.015341 1_455
Mg5 Mg7 3.015341 1_555
Mg5 Mg6 3.015341 1_445
Mg5 Mg6 3.015341 1_545
Mg5 Mg8 3.119929 1_544
Mg5 Mg9 3.119929 1_554
Mg6 Zn1 3.000445 1_555
Mg6 Mg8 3.010553 1_654
Mg6 Mg8 3.010553 1_554
Mg6 Zn0 3.044285 1_564
Mg6 Mg7 3.125197 1_565
Mg6 Mg7 3.131854 1_555
Mg7 Zn1 3.000445 1_555
Mg7 Mg9 3.010553 1_654
Mg7 Mg9 3.010553 1_554
Mg7 Zn0 3.044285 1_554
Mg8 Zn0 3.007446 1_565
Mg8 Zn0 3.007446 1_465
Mg8 Mg9 3.082286 1_555
Mg8 Mg9 3.174765 1_565
Mg9 Zn0 3.007446 1_455
Mg9 Zn0 3.007446 1_555
Mg10 Zn1 2.950373 1_555
Mg10 Zn1 2.950373 1_455
Mg10 Mg3 2.969644 1_555
Mg10 Mg2 2.969644 1_555
Mg10 Mg6 3.010146 1_555
Mg10 Mg6 3.010146 1_455
Mg10 Mg7 3.010146 1_455
Mg10 Mg7 3.010146 1_555
Mg10 Mg8 3.076171 1_554
Mg10 Mg9 3.076171 1_554
Mg10 Mg5 3.128615 1_555
Mg10 Mg5 3.128615 1_565
Mg11 Mg8 2.925062 1_555
Mg11 Mg9 2.925062 1_555
Mg11 Mg3 3.119929 1_555
Mg11 Mg2 3.119929 1_555
Mg11 Mg4 3.128615 1_555
Mg11 Mg4 3.128615 1_565
Cu0 Mg5 2.938283 1_655
Cu0 Mg5 2.938283 1_555
Cu0 Mg2 2.982628 1_655
Cu0 Mg2 2.982628 1_555
Cu0 Mg3 2.982628 1_645
Cu0 Mg3 2.982628 1_545
Cu0 Mg7 3.000792 1_555
Cu0 Mg6 3.000792 1_545
Cu0 Mg0 3.043902 1_555
Cu0 Mg1 3.043902 1_545
Cu0 Zn1 3.128526 1_555
Cu0 Zn1 3.128526 1_545
Cu1 Mg11 2.938283 1_555
Cu1 Mg11 2.938283 1_655
Cu1 Mg8 2.982628 1_555
Cu1 Mg9 2.982628 1_655
Cu1 Mg9 2.982628 1_555
Cu1 Mg8 2.982628 1_655
Cu1 Mg0 3.000792 1_555
Cu1 Mg1 3.000792 1_555
Cu1 Mg6 3.043902 1_556
Cu1 Mg7 3.043902 1_556
Cu1 Zn0 3.128526 1_555
Cu1 Zn0 3.128526 1_565
