# generated using pymatgen
data_V3C4NO7
_symmetry_space_group_name_H-M   'P 1'
_cell_length_a   6.58626000
_cell_length_b   8.52641800
_cell_length_c   19.99777806
_cell_angle_alpha   66.00311149
_cell_angle_beta   90.00000000
_cell_angle_gamma   90.00000000
_symmetry_Int_Tables_number   1
_chemical_formula_structural   V3C4NO7
_chemical_formula_sum   'V12 C16 N4 O28'
_cell_volume   1025.95401953
_cell_formula_units_Z   4
loop_
 _symmetry_equiv_pos_site_id
 _symmetry_equiv_pos_as_xyz
  1  'x, y, z'
loop_
 _atom_site_type_symbol
 _atom_site_label
 _atom_site_symmetry_multiplicity
 _atom_site_fract_x
 _atom_site_fract_y
 _atom_site_fract_z
 _atom_site_occupancy
  V  V0  1  0.38259600  0.95693500  0.78906800  1
  V  V1  1  0.11740400  0.95693500  0.28906800  1
  V  V2  1  0.61740400  0.04306500  0.21093200  1
  V  V3  1  0.88259600  0.04306500  0.71093200  1
  V  V4  1  0.17878000  0.77630500  0.70635600  1
  V  V5  1  0.32122000  0.77630500  0.20635600  1
  V  V6  1  0.82122000  0.22369500  0.29364400  1
  V  V7  1  0.67878000  0.22369500  0.79364400  1
  V  V8  1  0.68002800  0.64273800  0.77459900  1
  V  V9  1  0.81997200  0.64273800  0.27459900  1
  V  V10  1  0.31997200  0.35726200  0.22540100  1
  V  V11  1  0.18002800  0.35726200  0.72540100  1
  C  C0  1  0.32787400  0.18395900  0.51937700  1
  C  C1  1  0.17212600  0.18395900  0.01937700  1
  C  C2  1  0.67212600  0.81604100  0.48062300  1
  C  C3  1  0.82787400  0.81604100  0.98062300  1
  C  C4  1  0.13562400  0.28096900  0.49419100  1
  C  C5  1  0.36437600  0.28096900  0.99419100  1
  C  C6  1  0.86437600  0.71903100  0.50580900  1
  C  C7  1  0.63562400  0.71903100  0.00580900  1
  C  C8  1  0.19724500  0.38081600  0.41710500  1
  C  C9  1  0.30275500  0.38081600  0.91710500  1
  C  C10  1  0.80275500  0.61918400  0.58289500  1
  C  C11  1  0.69724500  0.61918400  0.08289500  1
  C  C12  1  0.31941300  0.21770500  0.44045800  1
  C  C13  1  0.18058700  0.21770500  0.94045800  1
  C  C14  1  0.68058700  0.78229500  0.55954200  1
  C  C15  1  0.81941300  0.78229500  0.05954200  1
  N  N0  1  0.36904700  0.37418900  0.46988600  1
  N  N1  1  0.13095300  0.37418900  0.96988600  1
  N  N2  1  0.63095300  0.62581100  0.53011400  1
  N  N3  1  0.86904700  0.62581100  0.03011400  1
  O  O0  1  0.28017700  0.85770000  0.86869100  1
  O  O1  1  0.21982300  0.85770000  0.36869100  1
  O  O2  1  0.71982300  0.14230000  0.13130900  1
  O  O3  1  0.78017700  0.14230000  0.63130900  1
  O  O4  1  0.20707700  0.82370400  0.62073300  1
  O  O5  1  0.29292300  0.82370400  0.12073300  1
  O  O6  1  0.79292300  0.17629600  0.37926700  1
  O  O7  1  0.70707700  0.17629600  0.87926700  1
  O  O8  1  0.71980100  0.57550900  0.86116000  1
  O  O9  1  0.78019900  0.57550900  0.36116000  1
  O  O10  1  0.28019900  0.42449100  0.13884000  1
  O  O11  1  0.21980100  0.42449100  0.63884000  1
  O  O12  1  0.16357700  0.53587000  0.74885800  1
  O  O13  1  0.33642300  0.53587000  0.24885800  1
  O  O14  1  0.83642300  0.46413000  0.25114200  1
  O  O15  1  0.66357700  0.46413000  0.75114200  1
  O  O16  1  0.67624200  0.00672100  0.78701000  1
  O  O17  1  0.82375800  0.00672100  0.28701000  1
  O  O18  1  0.32375800  0.99327900  0.21299000  1
  O  O19  1  0.17624200  0.99327900  0.71299000  1
  O  O20  1  0.44325600  0.76752600  0.75237200  1
  O  O21  1  0.05674400  0.76752600  0.25237200  1
  O  O22  1  0.55674400  0.23247400  0.24762800  1
  O  O23  1  0.94325600  0.23247400  0.74762800  1
  O  O24  1  0.39024600  0.21122400  0.77340700  1
  O  O25  1  0.10975400  0.21122400  0.27340700  1
  O  O26  1  0.60975400  0.78877600  0.22659300  1
  O  O27  1  0.89024600  0.78877600  0.72659300  1
loop_
_geom_bond_atom_site_label_1
_geom_bond_atom_site_label_2
_geom_bond_distance
_geom_bond_site_symmetry_2
C0 C4 1.484008 1_555
C0 C12 1.485689 1_555
C0 N0 1.542135 1_555
C1 C5 1.484008 1_554
C1 C13 1.485689 1_554
C1 N1 1.542135 1_554
C2 C6 1.484008 1_555
C2 N2 1.542135 1_555
C3 C7 1.484008 1_556
C3 N3 1.542135 1_556
C4 C8 1.482703 1_555
C4 N0 1.708018 1_555
C5 C9 1.482703 1_555
C5 N1 1.708018 1_555
C6 N2 1.708018 1_555
C7 N3 1.708018 1_555
C8 N0 1.532689 1_555
C9 N1 1.532689 1_555
C10 C6 1.482703 1_555
C10 C14 1.507129 1_555
C10 N2 1.532689 1_555
C11 C7 1.482703 1_555
C11 C15 1.507129 1_555
C11 N3 1.532689 1_555
C12 C8 1.507129 1_555
C12 N0 1.694718 1_555
C13 C9 1.507129 1_555
C13 N1 1.694718 1_555
C14 C2 1.485689 1_555
C14 N2 1.694718 1_555
C15 C3 1.485689 1_554
C15 N3 1.694718 1_555
O0 V0 1.615699 1_555
O1 V1 1.615699 1_555
O2 V2 1.615699 1_555
O3 V3 1.615699 1_555
O4 V4 1.602210 1_555
O5 V5 1.602210 1_555
O6 V6 1.602210 1_555
O7 V7 1.602210 1_555
O8 V8 1.608285 1_555
O9 V9 1.608285 1_555
O10 V10 1.608285 1_555
O11 V11 1.608285 1_555
O12 V11 1.769750 1_555
O12 V4 1.875603 1_555
O13 V10 1.769750 1_555
O13 V5 1.875603 1_555
O14 V9 1.769750 1_555
O14 V6 1.875603 1_555
O15 V8 1.769750 1_555
O15 V7 1.875603 1_555
O16 V7 1.907891 1_555
O16 V3 1.968336 1_555
O16 V0 1.976904 1_545
O17 V6 1.907891 1_555
O17 V2 1.968336 1_555
O17 V1 1.976904 1_645
O18 V5 1.907891 1_555
O18 V1 1.968336 1_555
O18 V2 1.976904 1_565
O19 V4 1.907891 1_555
O19 V0 1.968336 1_555
O19 V3 1.976904 1_465
O20 V8 1.837619 1_555
O20 V4 1.957197 1_555
O20 V0 2.066460 1_555
O21 V9 1.837619 1_455
O21 V5 1.957197 1_555
O21 V1 2.066460 1_555
O22 V10 1.837619 1_555
O22 V6 1.957197 1_555
O22 V2 2.066460 1_555
O23 V11 1.837619 1_655
O23 V7 1.957197 1_555
O23 V3 2.066460 1_555
O24 V11 1.848454 1_555
O24 V7 1.954854 1_555
O24 V0 2.061381 1_545
O25 V10 1.848454 1_555
O25 V6 1.954854 1_455
O25 V1 2.061381 1_545
O26 V9 1.848454 1_555
O26 V5 1.954854 1_555
O26 V2 2.061381 1_565
O27 V8 1.848454 1_555
O27 V4 1.954854 1_655
O27 V3 2.061381 1_565
