# generated using pymatgen
data_Mg3Ni2(GeO4)3
_symmetry_space_group_name_H-M   'P 1'
_cell_length_a   10.35979772
_cell_length_b   10.35979772
_cell_length_c   10.35979772
_cell_angle_alpha   109.47122063
_cell_angle_beta   109.47122063
_cell_angle_gamma   109.47122063
_symmetry_Int_Tables_number   1
_chemical_formula_structural   Mg3Ni2(GeO4)3
_chemical_formula_sum   'Mg12 Ni8 Ge12 O48'
_cell_volume   855.91755868
_cell_formula_units_Z   4
loop_
 _symmetry_equiv_pos_site_id
 _symmetry_equiv_pos_as_xyz
  1  'x, y, z'
loop_
 _atom_site_type_symbol
 _atom_site_label
 _atom_site_symmetry_multiplicity
 _atom_site_fract_x
 _atom_site_fract_y
 _atom_site_fract_z
 _atom_site_occupancy
  Mg  Mg0  1  0.25000000  0.87500000  0.62500000  1
  Mg  Mg1  1  0.75000000  0.62500000  0.87500000  1
  Mg  Mg2  1  0.62500000  0.87500000  0.75000000  1
  Mg  Mg3  1  0.87500000  0.62500000  0.25000000  1
  Mg  Mg4  1  0.62500000  0.25000000  0.87500000  1
  Mg  Mg5  1  0.87500000  0.75000000  0.62500000  1
  Mg  Mg6  1  0.75000000  0.12500000  0.37500000  1
  Mg  Mg7  1  0.25000000  0.37500000  0.12500000  1
  Mg  Mg8  1  0.37500000  0.12500000  0.25000000  1
  Mg  Mg9  1  0.12500000  0.37500000  0.75000000  1
  Mg  Mg10  1  0.37500000  0.75000000  0.12500000  1
  Mg  Mg11  1  0.12500000  0.25000000  0.37500000  1
  Ni  Ni0  1  0.50000000  0.50000000  0.50000000  1
  Ni  Ni1  1  0.50000000  0.00000000  0.50000000  1
  Ni  Ni2  1  0.00000000  0.50000000  0.50000000  1
  Ni  Ni3  1  0.50000000  0.50000000  0.00000000  1
  Ni  Ni4  1  0.00000000  0.00000000  0.50000000  1
  Ni  Ni5  1  0.00000000  0.50000000  0.00000000  1
  Ni  Ni6  1  0.50000000  0.00000000  0.00000000  1
  Ni  Ni7  1  0.00000000  0.00000000  0.00000000  1
  Ge  Ge0  1  0.12500000  0.75000000  0.87500000  1
  Ge  Ge1  1  0.87500000  0.25000000  0.12500000  1
  Ge  Ge2  1  0.62500000  0.37500000  0.25000000  1
  Ge  Ge3  1  0.75000000  0.87500000  0.12500000  1
  Ge  Ge4  1  0.87500000  0.12500000  0.75000000  1
  Ge  Ge5  1  0.25000000  0.62500000  0.37500000  1
  Ge  Ge6  1  0.75000000  0.37500000  0.62500000  1
  Ge  Ge7  1  0.25000000  0.12500000  0.87500000  1
  Ge  Ge8  1  0.12500000  0.87500000  0.25000000  1
  Ge  Ge9  1  0.37500000  0.62500000  0.75000000  1
  Ge  Ge10  1  0.62500000  0.75000000  0.37500000  1
  Ge  Ge11  1  0.37500000  0.25000000  0.62500000  1
  O  O0  1  0.41779300  0.81985600  0.78930300  1
  O  O1  1  0.87151000  0.40206400  0.08220700  1
  O  O2  1  0.09793600  0.96944600  0.68014400  1
  O  O3  1  0.53055400  0.62849000  0.71069700  1
  O  O4  1  0.68014400  0.08220700  0.71069700  1
  O  O5  1  0.62849000  0.71069700  0.53055400  1
  O  O6  1  0.62849000  0.41779300  0.09793600  1
  O  O7  1  0.71069700  0.53055400  0.62849000  1
  O  O8  1  0.81985600  0.53055400  0.40206400  1
  O  O9  1  0.96944600  0.78930300  0.87151000  1
  O  O10  1  0.78930300  0.87151000  0.96944600  1
  O  O11  1  0.71069700  0.68014400  0.08220700  1
  O  O12  1  0.41779300  0.09793600  0.62849000  1
  O  O13  1  0.40206400  0.81985600  0.53055400  1
  O  O14  1  0.08220700  0.71069700  0.68014400  1
  O  O15  1  0.09793600  0.62849000  0.41779300  1
  O  O16  1  0.53055400  0.40206400  0.81985600  1
  O  O17  1  0.08220700  0.87151000  0.40206400  1
  O  O18  1  0.96944600  0.68014400  0.09793600  1
  O  O19  1  0.18014400  0.46944600  0.59793600  1
  O  O20  1  0.68014400  0.09793600  0.96944600  1
  O  O21  1  0.78930300  0.41779300  0.81985600  1
  O  O22  1  0.40206400  0.08220700  0.87151000  1
  O  O23  1  0.87151000  0.96944600  0.78930300  1
  O  O24  1  0.58220700  0.18014400  0.21069700  1
  O  O25  1  0.12849000  0.59793600  0.91779300  1
  O  O26  1  0.90206400  0.03055400  0.31985600  1
  O  O27  1  0.46944600  0.37151000  0.28930300  1
  O  O28  1  0.31985600  0.91779300  0.28930300  1
  O  O29  1  0.37151000  0.28930300  0.46944600  1
  O  O30  1  0.37151000  0.58220700  0.90206400  1
  O  O31  1  0.28930300  0.46944600  0.37151000  1
  O  O32  1  0.12849000  0.03055400  0.21069700  1
  O  O33  1  0.59793600  0.91779300  0.12849000  1
  O  O34  1  0.21069700  0.58220700  0.18014400  1
  O  O35  1  0.18014400  0.21069700  0.58220700  1
  O  O36  1  0.31985600  0.90206400  0.03055400  1
  O  O37  1  0.03055400  0.31985600  0.90206400  1
  O  O38  1  0.91779300  0.12849000  0.59793600  1
  O  O39  1  0.46944600  0.59793600  0.18014400  1
  O  O40  1  0.90206400  0.37151000  0.58220700  1
  O  O41  1  0.91779300  0.28930300  0.31985600  1
  O  O42  1  0.59793600  0.18014400  0.46944600  1
  O  O43  1  0.58220700  0.90206400  0.37151000  1
  O  O44  1  0.28930300  0.31985600  0.91779300  1
  O  O45  1  0.21069700  0.12849000  0.03055400  1
  O  O46  1  0.03055400  0.21069700  0.12849000  1
  O  O47  1  0.81985600  0.78930300  0.41779300  1
loop_
_geom_bond_atom_site_label_1
_geom_bond_atom_site_label_2
_geom_bond_distance
_geom_bond_site_symmetry_2
Mg0 O22 2.240615 1_565
Mg0 O15 2.240615 1_555
Mg0 O2 2.240619 1_555
Mg0 O13 2.240619 1_555
Mg0 O12 2.362851 1_565
Mg0 O17 2.362851 1_555
Mg0 O14 2.362858 1_555
Mg0 O0 2.362858 1_555
Mg1 O11 2.240615 1_556
Mg1 O21 2.240615 1_555
Mg1 O7 2.240615 1_555
Mg1 O10 2.240615 1_555
Mg1 O18 2.362847 1_556
Mg1 O16 2.362847 1_555
Mg1 O9 2.362851 1_555
Mg1 O3 2.362851 1_555
Mg2 O4 2.240615 1_565
Mg2 O0 2.240615 1_555
Mg2 O3 2.240615 1_555
Mg2 O23 2.240615 1_555
Mg2 O20 2.362847 1_565
Mg2 O13 2.362847 1_555
Mg2 O10 2.362851 1_555
Mg2 O5 2.362851 1_555
Mg3 O17 2.240615 1_655
Mg3 O6 2.240615 1_555
Mg3 O18 2.240619 1_555
Mg3 O8 2.240619 1_555
Mg3 O15 2.362851 1_655
Mg3 O1 2.362851 1_555
Mg3 O11 2.362858 1_555
Mg3 O47 2.362858 1_555
Mg4 O1 2.240615 1_556
Mg4 O12 2.240615 1_555
Mg4 O20 2.240619 1_555
Mg4 O16 2.240619 1_555
Mg4 O6 2.362851 1_556
Mg4 O22 2.362851 1_555
Mg4 O4 2.362858 1_555
Mg4 O21 2.362858 1_555
Mg5 O14 2.240615 1_655
Mg5 O47 2.240615 1_555
Mg5 O5 2.240615 1_555
Mg5 O9 2.240615 1_555
Mg5 O2 2.362847 1_655
Mg5 O8 2.362847 1_555
Mg5 O23 2.362851 1_555
Mg5 O7 2.362851 1_555
Mg6 O40 2.240615 1_555
Mg6 O33 2.240615 1_545
Mg6 O42 2.240619 1_555
Mg6 O26 2.240619 1_555
Mg6 O38 2.362851 1_555
Mg6 O43 2.362851 1_545
Mg6 O41 2.362858 1_555
Mg6 O24 2.362858 1_555
Mg7 O34 2.240615 1_555
Mg7 O44 2.240615 1_554
Mg7 O45 2.240615 1_555
Mg7 O31 2.240615 1_555
Mg7 O39 2.362847 1_555
Mg7 O37 2.362847 1_554
Mg7 O27 2.362851 1_555
Mg7 O46 2.362851 1_555
Mg8 O24 2.240615 1_555
Mg8 O28 2.240615 1_545
Mg8 O32 2.240615 1_555
Mg8 O27 2.240615 1_555
Mg8 O42 2.362847 1_555
Mg8 O36 2.362847 1_545
Mg8 O29 2.362851 1_555
Mg8 O45 2.362851 1_555
Mg9 O30 2.240615 1_555
Mg9 O38 2.240615 1_455
Mg9 O19 2.240619 1_555
Mg9 O37 2.240619 1_555
Mg9 O25 2.362851 1_555
Mg9 O40 2.362851 1_455
Mg9 O44 2.362858 1_555
Mg9 O35 2.362858 1_555
Mg10 O43 2.240615 1_555
Mg10 O25 2.240615 1_554
Mg10 O39 2.240619 1_555
Mg10 O36 2.240619 1_555
Mg10 O33 2.362851 1_555
Mg10 O30 2.362851 1_554
Mg10 O28 2.362858 1_555
Mg10 O34 2.362858 1_555
Mg11 O35 2.240615 1_555
Mg11 O41 2.240615 1_455
Mg11 O46 2.240615 1_555
Mg11 O29 2.240615 1_555
Mg11 O19 2.362847 1_555
Mg11 O26 2.362847 1_455
Mg11 O31 2.362851 1_555
Mg11 O32 2.362851 1_555
Ni0 O31 1.989489 1_555
Ni0 O29 1.989489 1_555
Ni0 O27 1.989489 1_555
Ni0 O7 1.989489 1_555
Ni0 O5 1.989489 1_555
Ni0 O3 1.989489 1_555
Ni1 O43 1.989489 1_545
Ni1 O12 1.989489 1_555
Ni1 O4 1.989494 1_555
Ni1 O28 1.989494 1_545
Ni1 O42 1.989498 1_555
Ni1 O13 1.989498 1_545
Ni2 O40 1.989489 1_455
Ni2 O15 1.989489 1_555
Ni2 O41 1.989494 1_455
Ni2 O14 1.989494 1_555
Ni2 O19 1.989498 1_555
Ni2 O8 1.989498 1_455
Ni3 O30 1.989489 1_554
Ni3 O6 1.989489 1_555
Ni3 O11 1.989494 1_555
Ni3 O44 1.989494 1_554
Ni3 O39 1.989498 1_555
Ni3 O16 1.989498 1_554
Ni4 O17 1.989489 1_545
Ni4 O38 1.989489 1_455
Ni4 O47 1.989494 1_445
Ni4 O35 1.989494 1_555
Ni4 O26 1.989498 1_455
Ni4 O2 1.989498 1_545
Ni5 O1 1.989489 1_455
Ni5 O25 1.989489 1_554
Ni5 O21 1.989494 1_454
Ni5 O34 1.989494 1_555
Ni5 O37 1.989498 1_554
Ni5 O18 1.989498 1_455
Ni6 O22 1.989489 1_554
Ni6 O33 1.989489 1_545
Ni6 O0 1.989494 1_544
Ni6 O24 1.989494 1_555
Ni6 O36 1.989498 1_545
Ni6 O20 1.989498 1_554
Ni7 O10 1.989489 1_444
Ni7 O9 1.989489 1_444
Ni7 O23 1.989489 1_444
Ni7 O46 1.989489 1_555
Ni7 O32 1.989489 1_555
Ni7 O45 1.989489 1_555
Ge0 O14 1.781131 1_555
Ge0 O36 1.781136 1_556
Ge0 O25 1.781141 1_555
Ge0 O9 1.781141 1_455
Ge1 O41 1.781131 1_555
Ge1 O20 1.781136 1_554
Ge1 O46 1.781141 1_655
Ge1 O1 1.781141 1_555
Ge2 O24 1.781131 1_555
Ge2 O8 1.781136 1_555
Ge2 O6 1.781141 1_555
Ge2 O27 1.781141 1_555
Ge3 O11 1.781131 1_555
Ge3 O26 1.781136 1_565
Ge3 O33 1.781141 1_555
Ge3 O10 1.781141 1_554
Ge4 O4 1.781131 1_555
Ge4 O37 1.781136 1_655
Ge4 O38 1.781141 1_555
Ge4 O23 1.781141 1_545
Ge5 O34 1.781131 1_555
Ge5 O13 1.781136 1_555
Ge5 O15 1.781141 1_555
Ge5 O31 1.781141 1_555
Ge6 O21 1.781131 1_555
Ge6 O42 1.781136 1_555
Ge6 O7 1.781141 1_555
Ge6 O40 1.781141 1_555
Ge7 O44 1.781131 1_555
Ge7 O2 1.781136 1_545
Ge7 O45 1.781141 1_556
Ge7 O22 1.781141 1_555
Ge8 O28 1.781131 1_555
Ge8 O18 1.781136 1_455
Ge8 O32 1.781141 1_565
Ge8 O17 1.781141 1_555
Ge9 O0 1.781131 1_555
Ge9 O19 1.781136 1_555
Ge9 O3 1.781141 1_555
Ge9 O30 1.781141 1_555
Ge10 O47 1.781131 1_555
Ge10 O39 1.781136 1_555
Ge10 O5 1.781141 1_555
Ge10 O43 1.781141 1_555
Ge11 O35 1.781131 1_555
Ge11 O16 1.781136 1_555
Ge11 O12 1.781141 1_555
Ge11 O29 1.781141 1_555
