# generated using pymatgen
data_YbBr2
_symmetry_space_group_name_H-M   'P 1'
_cell_length_a   7.05121700
_cell_length_b   7.28631800
_cell_length_c   13.80922500
_cell_angle_alpha   90.00000000
_cell_angle_beta   90.00000000
_cell_angle_gamma   90.00000000
_symmetry_Int_Tables_number   1
_chemical_formula_structural   YbBr2
_chemical_formula_sum   'Yb8 Br16'
_cell_volume   709.48220562
_cell_formula_units_Z   8
loop_
 _symmetry_equiv_pos_site_id
 _symmetry_equiv_pos_as_xyz
  1  'x, y, z'
loop_
 _atom_site_type_symbol
 _atom_site_label
 _atom_site_symmetry_multiplicity
 _atom_site_fract_x
 _atom_site_fract_y
 _atom_site_fract_z
 _atom_site_occupancy
  Yb  Yb0  1  0.77403400  0.54778400  0.61177900  1
  Yb  Yb1  1  0.22596600  0.95221600  0.11177900  1
  Yb  Yb2  1  0.72596600  0.04778400  0.38822100  1
  Yb  Yb3  1  0.27403400  0.45221600  0.88822100  1
  Yb  Yb4  1  0.22596600  0.45221600  0.38822100  1
  Yb  Yb5  1  0.77403400  0.04778400  0.88822100  1
  Yb  Yb6  1  0.27403400  0.95221600  0.61177900  1
  Yb  Yb7  1  0.72596600  0.54778400  0.11177900  1
  Br  Br0  1  0.65020500  0.88424600  0.70663800  1
  Br  Br1  1  0.34979500  0.61575400  0.20663800  1
  Br  Br2  1  0.84979500  0.38424600  0.29336200  1
  Br  Br3  1  0.15020500  0.11575400  0.79336200  1
  Br  Br4  1  0.34979500  0.11575400  0.29336200  1
  Br  Br5  1  0.65020500  0.38424600  0.79336200  1
  Br  Br6  1  0.15020500  0.61575400  0.70663800  1
  Br  Br7  1  0.84979500  0.88424600  0.20663800  1
  Br  Br8  1  0.50130600  0.73641900  0.47079400  1
  Br  Br9  1  0.49869400  0.76358100  0.97079400  1
  Br  Br10  1  0.99869400  0.23641900  0.52920600  1
  Br  Br11  1  0.00130600  0.26358100  0.02920600  1
  Br  Br12  1  0.49869400  0.26358100  0.52920600  1
  Br  Br13  1  0.50130600  0.23641900  0.02920600  1
  Br  Br14  1  0.00130600  0.76358100  0.47079400  1
  Br  Br15  1  0.99869400  0.73641900  0.97079400  1
loop_
_geom_bond_atom_site_label_1
_geom_bond_atom_site_label_2
_geom_bond_distance
_geom_bond_site_symmetry_2
Br0 Yb5 2.910314 1_565
Br0 Yb0 2.913501 1_555
Br0 Yb6 2.999458 1_555
Br1 Yb4 2.910314 1_555
Br1 Yb1 2.913501 1_555
Br1 Yb7 2.999458 1_555
Br2 Yb7 2.910314 1_555
Br2 Yb2 2.913501 1_555
Br2 Yb4 2.999458 1_655
Br3 Yb6 2.910314 1_545
Br3 Yb3 2.913501 1_555
Br3 Yb5 2.999458 1_455
Br4 Yb1 2.910314 1_545
Br4 Yb4 2.913501 1_555
Br4 Yb2 2.999458 1_555
Br5 Yb0 2.910314 1_555
Br5 Yb5 2.913501 1_555
Br5 Yb3 2.999458 1_555
Br6 Yb3 2.910314 1_555
Br6 Yb6 2.913501 1_555
Br6 Yb0 2.999458 1_455
Br7 Yb2 2.910314 1_565
Br7 Yb7 2.913501 1_555
Br7 Yb1 2.999458 1_655
Br8 Yb6 2.971679 1_555
Br8 Yb2 2.992773 1_565
Br8 Yb4 3.059044 1_555
Br8 Yb0 3.062302 1_555
Br9 Yb7 2.971679 1_556
Br9 Yb3 2.992773 1_555
Br9 Yb5 3.059044 1_565
Br9 Yb1 3.062302 1_556
Br10 Yb4 2.971679 1_655
Br10 Yb0 2.992773 1_555
Br10 Yb6 3.059044 1_645
Br10 Yb2 3.062302 1_555
Br11 Yb5 2.971679 1_454
Br11 Yb1 2.992773 1_545
Br11 Yb7 3.059044 1_455
Br11 Yb3 3.062302 1_554
Br12 Yb2 2.971679 1_555
Br12 Yb6 2.992773 1_545
Br12 Yb0 3.059044 1_555
Br12 Yb4 3.062302 1_555
Br13 Yb3 2.971679 1_554
Br13 Yb7 2.992773 1_555
Br13 Yb1 3.059044 1_545
Br13 Yb5 3.062302 1_554
Br14 Yb0 2.971679 1_455
Br14 Yb4 2.992773 1_555
Br14 Yb2 3.059044 1_465
Br14 Yb6 3.062302 1_555
Br15 Yb1 2.971679 1_656
Br15 Yb5 2.992773 1_565
Br15 Yb3 3.059044 1_655
Br15 Yb7 3.062302 1_556
