# generated using pymatgen
data_Li(Fe2O3)4
_symmetry_space_group_name_H-M   'P 1'
_cell_length_a   5.26103839
_cell_length_b   5.35928257
_cell_length_c   7.66615366
_cell_angle_alpha   89.22831049
_cell_angle_beta   88.25970750
_cell_angle_gamma   89.42025015
_symmetry_Int_Tables_number   1
_chemical_formula_structural   Li(Fe2O3)4
_chemical_formula_sum   'Li1 Fe8 O12'
_cell_volume   216.02071367
_cell_formula_units_Z   1
loop_
 _symmetry_equiv_pos_site_id
 _symmetry_equiv_pos_as_xyz
  1  'x, y, z'
loop_
 _atom_site_type_symbol
 _atom_site_label
 _atom_site_symmetry_multiplicity
 _atom_site_fract_x
 _atom_site_fract_y
 _atom_site_fract_z
 _atom_site_occupancy
  Li  Li0  1  0.60641400  0.38572400  0.69556500  1
  Fe  Fe0  1  0.25401200  0.53262200  0.10536000  1
  Fe  Fe1  1  0.25378800  0.02884800  0.38455000  1
  Fe  Fe2  1  0.20557800  0.47579500  0.59479600  1
  Fe  Fe3  1  0.25831400  0.97248600  0.88632200  1
  Fe  Fe4  1  0.77143200  0.49247800  0.92894200  1
  Fe  Fe5  1  0.75062900  0.95603800  0.60675900  1
  Fe  Fe6  1  0.73591700  0.53642800  0.37442100  1
  Fe  Fe7  1  0.75890900  0.03583200  0.11055900  1
  O  O0  1  0.38674300  0.59458900  0.84187400  1
  O  O1  1  0.10241500  0.10361200  0.64979100  1
  O  O2  1  0.09748900  0.39991500  0.34570000  1
  O  O3  1  0.41098700  0.89250800  0.15552400  1
  O  O4  1  0.59834600  0.39083300  0.16353500  1
  O  O5  1  0.89458700  0.89840300  0.34877000  1
  O  O6  1  0.87426400  0.60564500  0.65201900  1
  O  O7  1  0.61320300  0.09154900  0.84042700  1
  O  O8  1  0.98032900  0.77134500  0.01130700  1
  O  O9  1  0.54221900  0.24390300  0.49379000  1
  O  O10  1  0.06078900  0.24924200  0.00866400  1
  O  O11  1  0.44363500  0.74220300  0.49775500  1
loop_
_geom_bond_atom_site_label_1
_geom_bond_atom_site_label_2
_geom_bond_distance
_geom_bond_site_symmetry_2
Li0 O9 1.775684 1_555
Li0 O6 1.865685 1_555
Li0 O7 1.916829 1_555
Li0 O0 1.943083 1_555
Fe0 O10 1.999179 1_555
Fe0 O4 2.017459 1_555
Fe0 O8 2.056895 1_455
Fe0 O2 2.112600 1_555
Fe0 O0 2.139851 1_554
Fe0 O3 2.149750 1_555
Fe1 O11 2.023951 1_545
Fe1 O5 2.049044 1_445
Fe1 O3 2.057830 1_545
Fe1 O9 2.114449 1_555
Fe1 O2 2.164588 1_555
Fe1 O1 2.201482 1_555
Fe2 O6 1.911072 1_455
Fe2 O11 2.027678 1_555
Fe2 O2 2.055944 1_555
Fe2 O1 2.106238 1_555
Fe2 O0 2.248539 1_555
Fe2 O9 2.275716 1_555
Fe2 Li0 2.311966 1_555
Fe3 O7 1.998779 1_565
Fe3 O10 2.026464 1_566
Fe3 O8 2.034190 1_456
Fe3 O1 2.121060 1_565
Fe3 O0 2.156668 1_555
Fe3 O3 2.271080 1_556
Fe4 O8 1.985182 1_556
Fe4 O4 2.060213 1_556
Fe4 O10 2.094077 1_656
Fe4 Li0 2.100928 1_555
Fe4 O0 2.211520 1_555
Fe4 O6 2.251570 1_555
Fe4 O7 2.424889 1_555
Fe5 O6 2.010286 1_555
Fe5 O7 2.050559 1_565
Fe5 O1 2.057518 1_665
Fe5 O9 2.078404 1_565
Fe5 O5 2.121646 1_555
Fe5 O11 2.182983 1_555
Fe6 O4 1.965408 1_555
Fe6 O2 2.037892 1_655
Fe6 O9 2.066563 1_555
Fe6 O11 2.092881 1_555
Fe6 O5 2.123993 1_555
Fe6 O6 2.305868 1_555
Fe7 O8 1.971529 1_545
Fe7 O3 2.010546 1_545
Fe7 O10 2.092371 1_655
Fe7 O5 2.102179 1_545
Fe7 O4 2.113209 1_555
Fe7 O7 2.245091 1_554
