# generated using pymatgen
data_SmTiCo11
_symmetry_space_group_name_H-M   'P 1'
_cell_length_a   4.68032600
_cell_length_b   6.35838432
_cell_length_c   6.35838432
_cell_angle_alpha   97.44447430
_cell_angle_beta   111.59501486
_cell_angle_gamma   68.40498514
_symmetry_Int_Tables_number   1
_chemical_formula_structural   SmTiCo11
_chemical_formula_sum   'Sm1 Ti1 Co11'
_cell_volume   163.58617822
_cell_formula_units_Z   1
loop_
 _symmetry_equiv_pos_site_id
 _symmetry_equiv_pos_as_xyz
  1  'x, y, z'
loop_
 _atom_site_type_symbol
 _atom_site_label
 _atom_site_symmetry_multiplicity
 _atom_site_fract_x
 _atom_site_fract_y
 _atom_site_fract_z
 _atom_site_occupancy
  Sm  Sm0  1  0.00701200  0.99298800  0.00701200  1
  Ti  Ti0  1  0.63064100  0.36935900  0.63064100  1
  Co  Co0  1  0.72996300  0.77003700  0.22996300  1
  Co  Co1  1  0.27694600  0.22305400  0.77694600  1
  Co  Co2  1  0.49851500  0.77855600  0.77558500  1
  Co  Co3  1  0.49851500  0.22441500  0.22144400  1
  Co  Co4  1  0.49963300  0.99465700  0.49837600  1
  Co  Co5  1  0.00408600  0.99465700  0.49837600  1
  Co  Co6  1  0.49963300  0.50162400  0.00534300  1
  Co  Co7  1  0.00408600  0.50162400  0.00534300  1
  Co  Co8  1  0.35437800  0.64562200  0.35437800  1
  Co  Co9  1  0.99829700  0.36146100  0.35805400  1
  Co  Co10  1  0.99829700  0.64194600  0.63853900  1
loop_
_geom_bond_atom_site_label_1
_geom_bond_atom_site_label_2
_geom_bond_distance
_geom_bond_site_symmetry_2
Sm0 Ti0 3.136077 1_464
Co0 Co4 2.388304 1_555
Co0 Co6 2.388304 1_555
Co0 Co5 2.388304 1_655
Co0 Co7 2.388304 1_655
Co0 Co10 2.526530 1_555
Co0 Co9 2.526530 1_555
Co0 Co8 2.559504 1_655
Co0 Co8 2.559504 1_555
Co0 Co3 2.686448 1_565
Co0 Co2 2.686448 1_554
Co0 Sm0 2.987889 1_555
Co0 Sm0 2.987889 1_655
Co1 Co4 2.431215 1_545
Co1 Co5 2.431215 1_545
Co1 Co7 2.431215 1_556
Co1 Co6 2.431215 1_556
Co1 Co9 2.602906 1_455
Co1 Co10 2.602906 1_455
Co1 Co3 2.627975 1_556
Co1 Co2 2.627975 1_545
Co1 Ti0 2.638655 1_455
Co1 Ti0 2.638655 1_555
Co1 Sm0 3.025106 1_546
Co1 Sm0 3.025106 1_646
Co2 Co4 2.373707 1_555
Co2 Co5 2.373709 1_555
Co2 Co7 2.426716 1_656
Co2 Co6 2.426718 1_556
Co2 Ti0 2.571987 1_555
Co2 Co8 2.616386 1_555
Co2 Sm0 2.996525 1_656
Co2 Sm0 2.996529 1_556
Co3 Co6 2.373707 1_555
Co3 Co7 2.373709 1_555
Co3 Co5 2.426716 1_645
Co3 Co4 2.426718 1_545
Co3 Ti0 2.571987 1_555
Co3 Co9 2.606539 1_555
Co3 Co9 2.606539 1_455
Co3 Co8 2.616386 1_555
Co3 Sm0 2.996525 1_645
Co3 Sm0 2.996529 1_545
Co4 Co5 2.319322 1_555
Co4 Co5 2.361004 1_655
Co4 Co8 2.520246 1_555
Co4 Co9 2.590605 1_465
Co4 Ti0 2.633642 1_565
Co4 Sm0 3.127975 1_555
Co4 Sm0 3.230466 1_656
Co5 Co8 2.520246 1_555
Co5 Co9 2.590607 1_465
Co5 Ti0 2.633642 1_465
Co5 Sm0 3.127975 1_555
Co5 Sm0 3.230466 1_556
Co6 Co7 2.319322 1_555
Co6 Co7 2.361004 1_655
Co6 Co8 2.520246 1_555
Co6 Co9 2.530811 1_555
Co6 Ti0 2.633642 1_554
Co6 Sm0 3.127975 1_555
Co6 Sm0 3.230466 1_645
Co7 Co8 2.520246 1_555
Co7 Co9 2.530809 1_455
Co7 Ti0 2.633642 1_454
Co7 Sm0 3.127975 1_555
Co7 Sm0 3.230466 1_545
Co8 Ti0 2.301937 1_555
Co8 Co9 2.880741 1_455
Co8 Co9 2.880745 1_555
Co8 Sm0 2.894396 1_555
Co9 Ti0 2.841948 1_655
Co9 Ti0 2.841952 1_555
Co9 Sm0 3.019016 1_645
Co10 Co9 2.353095 1_555
Co10 Co5 2.530809 1_655
Co10 Co4 2.530811 1_555
Co10 Co6 2.590605 1_656
Co10 Co7 2.590607 1_656
Co10 Co2 2.606539 1_655
Co10 Co2 2.606539 1_555
Co10 Ti0 2.841948 1_655
Co10 Ti0 2.841952 1_555
Co10 Co8 2.880741 1_655
Co10 Co8 2.880745 1_555
Co10 Sm0 3.019016 1_656
