# generated using pymatgen
data_Yb2MgS4
_symmetry_space_group_name_H-M   'P 1'
_cell_length_a   13.71192600
_cell_length_b   7.96566400
_cell_length_c   11.24067500
_cell_angle_alpha   90.00000000
_cell_angle_beta   90.00000000
_cell_angle_gamma   90.00000000
_symmetry_Int_Tables_number   1
_chemical_formula_structural   Yb2MgS4
_chemical_formula_sum   'Yb16 Mg8 S32'
_cell_volume   1227.75817787
_cell_formula_units_Z   8
loop_
 _symmetry_equiv_pos_site_id
 _symmetry_equiv_pos_as_xyz
  1  'x, y, z'
loop_
 _atom_site_type_symbol
 _atom_site_label
 _atom_site_symmetry_multiplicity
 _atom_site_fract_x
 _atom_site_fract_y
 _atom_site_fract_z
 _atom_site_occupancy
  Yb  Yb0  1  0.11823100  0.88077300  0.68976300  1
  Yb  Yb1  1  0.88176900  0.11922700  0.18976300  1
  Yb  Yb2  1  0.38176900  0.88077300  0.18976300  1
  Yb  Yb3  1  0.61823100  0.11922700  0.68976300  1
  Yb  Yb4  1  0.12798500  0.37643400  0.31881800  1
  Yb  Yb5  1  0.87201500  0.62356600  0.81881800  1
  Yb  Yb6  1  0.37201500  0.37643400  0.81881800  1
  Yb  Yb7  1  0.62798500  0.62356600  0.31881800  1
  Yb  Yb8  1  0.13930100  0.62813300  0.99685500  1
  Yb  Yb9  1  0.86069900  0.37186700  0.49685500  1
  Yb  Yb10  1  0.36069900  0.62813300  0.49685500  1
  Yb  Yb11  1  0.63930100  0.37186700  0.99685500  1
  Yb  Yb12  1  0.14165800  0.11675100  0.00317500  1
  Yb  Yb13  1  0.85834200  0.88324900  0.50317500  1
  Yb  Yb14  1  0.35834200  0.11675100  0.50317500  1
  Yb  Yb15  1  0.64165800  0.88324900  0.00317500  1
  Mg  Mg0  1  0.12924600  0.36696800  0.69181600  1
  Mg  Mg1  1  0.87075400  0.63303200  0.19181600  1
  Mg  Mg2  1  0.37075400  0.36696800  0.19181600  1
  Mg  Mg3  1  0.62924600  0.63303200  0.69181600  1
  Mg  Mg4  1  0.13304700  0.89172400  0.32030400  1
  Mg  Mg5  1  0.86695300  0.10827600  0.82030400  1
  Mg  Mg6  1  0.36695300  0.89172400  0.82030400  1
  Mg  Mg7  1  0.63304700  0.10827600  0.32030400  1
  S  S0  1  0.00206500  0.88965800  0.89416800  1
  S  S1  1  0.99793500  0.11034200  0.39416800  1
  S  S2  1  0.49793500  0.88965800  0.39416800  1
  S  S3  1  0.50206500  0.11034200  0.89416800  1
  S  S4  1  0.00659900  0.38137500  0.09721200  1
  S  S5  1  0.99340100  0.61862500  0.59721200  1
  S  S6  1  0.49340100  0.38137500  0.59721200  1
  S  S7  1  0.50659900  0.61862500  0.09721200  1
  S  S8  1  0.00366700  0.36161800  0.90564900  1
  S  S9  1  0.99633300  0.63838200  0.40564900  1
  S  S10  1  0.49633300  0.36161800  0.40564900  1
  S  S11  1  0.50366700  0.63838200  0.90564900  1
  S  S12  1  0.01600800  0.86162400  0.14262700  1
  S  S13  1  0.98399200  0.13837600  0.64262700  1
  S  S14  1  0.48399200  0.86162400  0.64262700  1
  S  S15  1  0.51600800  0.13837600  0.14262700  1
  S  S16  1  0.22783700  0.86937200  0.49810500  1
  S  S17  1  0.77216300  0.13062800  0.99810500  1
  S  S18  1  0.27216300  0.86937200  0.99810500  1
  S  S19  1  0.72783700  0.13062800  0.49810500  1
  S  S20  1  0.23068700  0.37541600  0.51759500  1
  S  S21  1  0.76931300  0.62458400  0.01759500  1
  S  S22  1  0.26931300  0.37541600  0.01759500  1
  S  S23  1  0.73068700  0.62458400  0.51759500  1
  S  S24  1  0.24501600  0.12787600  0.75904300  1
  S  S25  1  0.75498400  0.87212400  0.25904300  1
  S  S26  1  0.25498400  0.12787600  0.25904300  1
  S  S27  1  0.74501600  0.87212400  0.75904300  1
  S  S28  1  0.23720900  0.61986800  0.76187200  1
  S  S29  1  0.76279100  0.38013200  0.26187200  1
  S  S30  1  0.26279100  0.61986800  0.26187200  1
  S  S31  1  0.73720900  0.38013200  0.76187200  1
loop_
_geom_bond_atom_site_label_1
_geom_bond_atom_site_label_2
_geom_bond_distance
_geom_bond_site_symmetry_2
Mg0 S20 2.403010 1_555
Mg0 S24 2.591949 1_555
Mg0 S28 2.621054 1_555
Mg0 S13 2.754680 1_455
Mg0 S5 2.935808 1_455
Mg0 S8 2.957073 1_555
Mg1 S21 2.403010 1_555
Mg1 S25 2.591949 1_555
Mg1 S29 2.621054 1_555
Mg1 S12 2.754680 1_655
Mg1 S4 2.935808 1_655
Mg1 S9 2.957073 1_555
Mg2 S22 2.403010 1_555
Mg2 S26 2.591949 1_555
Mg2 S30 2.621054 1_555
Mg2 S15 2.754680 1_555
Mg2 S7 2.935808 1_555
Mg2 S10 2.957073 1_555
Mg3 S23 2.403010 1_555
Mg3 S27 2.591949 1_555
Mg3 S31 2.621054 1_555
Mg3 S14 2.754680 1_555
Mg3 S6 2.935808 1_555
Mg3 S11 2.957073 1_555
Mg4 S16 2.390706 1_555
Mg4 S12 2.573288 1_555
Mg4 S26 2.609274 1_565
Mg4 S1 2.674746 1_465
Mg4 S30 2.878513 1_555
Mg4 S9 2.916671 1_455
Mg5 S17 2.390706 1_555
Mg5 S13 2.573288 1_555
Mg5 S27 2.609274 1_545
Mg5 S0 2.674746 1_645
Mg5 S31 2.878513 1_555
Mg5 S8 2.916671 1_655
Mg6 S18 2.390706 1_555
Mg6 S14 2.573288 1_555
Mg6 S24 2.609274 1_565
Mg6 S3 2.674746 1_565
Mg6 S28 2.878513 1_555
Mg6 S11 2.916671 1_555
Mg7 S19 2.390706 1_555
Mg7 S15 2.573288 1_555
Mg7 S25 2.609274 1_545
Mg7 S2 2.674746 1_545
Mg7 S29 2.878513 1_555
Mg7 S10 2.916671 1_555
S0 Yb0 2.796678 1_555
S0 Yb5 2.896552 1_455
S0 Yb12 2.904723 1_566
S0 Yb8 3.035326 1_555
S1 Yb1 2.796678 1_555
S1 Yb4 2.896552 1_655
S1 Yb13 2.904723 1_545
S1 Yb9 3.035326 1_555
S2 Yb2 2.796678 1_555
S2 Yb7 2.896552 1_555
S2 Yb14 2.904723 1_565
S2 Yb10 3.035326 1_555
S3 Yb3 2.796678 1_555
S3 Yb6 2.896552 1_555
S3 Yb15 2.904723 1_546
S3 Yb11 3.035326 1_555
S4 S8 2.159415 1_554
S4 Yb1 2.893542 1_455
S4 Yb8 2.906382 1_554
S4 Yb4 2.996161 1_555
S4 Yb12 2.998367 1_555
S5 S9 2.159415 1_555
S5 Yb0 2.893542 1_655
S5 Yb9 2.906382 1_555
S5 Yb5 2.996161 1_555
S5 Yb13 2.998367 1_555
S6 Yb3 2.893542 1_555
S6 Yb10 2.906382 1_555
S6 Yb6 2.996161 1_555
S6 Yb14 2.998367 1_555
S7 Yb2 2.893542 1_555
S7 Yb11 2.906382 1_554
S7 Yb7 2.996161 1_555
S7 Yb15 2.998367 1_555
S8 Yb5 2.926647 1_455
S8 Yb12 2.930268 1_556
S8 Yb8 3.002821 1_555
S9 Yb4 2.926647 1_655
S9 Yb13 2.930268 1_555
S9 Yb9 3.002821 1_555
S10 S6 2.159415 1_555
S10 Yb7 2.926647 1_555
S10 Yb14 2.930268 1_555
S10 Yb10 3.002821 1_555
S11 S7 2.159415 1_556
S11 Yb6 2.926647 1_555
S11 Yb15 2.930268 1_556
S11 Yb11 3.002821 1_555
S12 Yb1 2.807033 1_465
S12 Yb8 3.000379 1_554
S12 Yb12 3.091217 1_565
S13 Yb0 2.807033 1_645
S13 Yb9 3.000379 1_555
S13 Yb13 3.091217 1_545
S14 Yb3 2.807033 1_565
S14 Yb10 3.000379 1_555
S14 Yb14 3.091217 1_565
S15 Yb2 2.807033 1_545
S15 Yb11 3.000379 1_554
S15 Yb15 3.091217 1_545
S16 Yb0 2.628360 1_555
S16 Yb10 2.647978 1_555
S16 Yb14 2.662422 1_565
S17 Yb1 2.628360 1_556
S17 Yb11 2.647978 1_555
S17 Yb15 2.662422 1_546
S18 Yb2 2.628360 1_556
S18 Yb8 2.647978 1_555
S18 Yb12 2.662422 1_566
S19 Yb3 2.628360 1_555
S19 Yb9 2.647978 1_555
S19 Yb13 2.662422 1_545
S20 Yb4 2.641155 1_555
S20 Yb10 2.699042 1_555
S20 Yb14 2.708425 1_555
S21 Yb5 2.641155 1_554
S21 Yb11 2.699042 1_554
S21 Yb15 2.708425 1_555
S22 Yb6 2.641155 1_554
S22 Yb8 2.699042 1_554
S22 Yb12 2.708425 1_555
S23 Yb7 2.641155 1_555
S23 Yb9 2.699042 1_555
S23 Yb13 2.708425 1_555
S24 Yb6 2.721041 1_555
S24 Yb0 2.739176 1_545
S24 Yb12 3.089837 1_556
S24 Yb14 3.270265 1_555
S25 Yb7 2.721041 1_555
S25 Yb1 2.739176 1_565
S25 Yb13 3.089837 1_555
S25 Yb15 3.270265 1_555
S26 Yb4 2.721041 1_555
S26 Yb2 2.739176 1_545
S26 Yb14 3.089837 1_555
S26 Yb12 3.270265 1_555
S27 Yb5 2.721041 1_555
S27 Yb3 2.739176 1_565
S27 Yb15 3.089837 1_556
S27 Yb13 3.270265 1_555
S28 Yb6 2.754391 1_555
S28 Yb0 2.763652 1_555
S28 Yb8 2.963694 1_555
S28 Yb10 3.427217 1_555
S29 Yb7 2.754391 1_555
S29 Yb1 2.763652 1_555
S29 Yb9 2.963694 1_555
S29 Yb11 3.427217 1_554
S30 Yb4 2.754391 1_555
S30 Yb2 2.763652 1_555
S30 Yb10 2.963694 1_555
S30 Yb8 3.427217 1_554
S31 Yb5 2.754391 1_555
S31 Yb3 2.763652 1_555
S31 Yb11 2.963694 1_555
S31 Yb9 3.427217 1_555
