# generated using pymatgen
data_CdC2S2(N2Cl)2
_symmetry_space_group_name_H-M   'P 1'
_cell_length_a   5.56856600
_cell_length_b   15.65603900
_cell_length_c   5.83084000
_cell_angle_alpha   90.00000000
_cell_angle_beta   90.00000000
_cell_angle_gamma   90.00000000
_symmetry_Int_Tables_number   1
_chemical_formula_structural   CdC2S2(N2Cl)2
_chemical_formula_sum   'Cd2 C4 S4 N8 Cl4'
_cell_volume   508.34246474
_cell_formula_units_Z   2
loop_
 _symmetry_equiv_pos_site_id
 _symmetry_equiv_pos_as_xyz
  1  'x, y, z'
loop_
 _atom_site_type_symbol
 _atom_site_label
 _atom_site_symmetry_multiplicity
 _atom_site_fract_x
 _atom_site_fract_y
 _atom_site_fract_z
 _atom_site_occupancy
  Cd  Cd0  1  0.57820200  0.00000000  0.04423600  1
  Cd  Cd1  1  0.42179800  0.50000000  0.54423600  1
  C  C0  1  0.72800300  0.71623700  0.93038200  1
  C  C1  1  0.27199700  0.78376300  0.43038200  1
  C  C2  1  0.27199700  0.21623700  0.43038200  1
  C  C3  1  0.72800300  0.28376300  0.93038200  1
  S  S0  1  0.78439500  0.87436200  0.81600900  1
  S  S1  1  0.21560500  0.62563800  0.31600900  1
  S  S2  1  0.21560500  0.37436200  0.31600900  1
  S  S3  1  0.78439500  0.12563800  0.81600900  1
  N  N0  1  0.76102600  0.64166300  0.92963600  1
  N  N1  1  0.23897400  0.85833700  0.42963600  1
  N  N2  1  0.23897400  0.14166300  0.42963600  1
  N  N3  1  0.76102600  0.35833700  0.92963600  1
  N  N4  1  0.67071300  0.79714900  0.95835100  1
  N  N5  1  0.32928700  0.70285100  0.45835100  1
  N  N6  1  0.32928700  0.29714900  0.45835100  1
  N  N7  1  0.67071300  0.20285100  0.95835100  1
  Cl  Cl0  1  0.13973500  0.00000000  0.92875400  1
  Cl  Cl1  1  0.86026500  0.50000000  0.42875400  1
  Cl  Cl2  1  0.69717400  0.00000000  0.44935300  1
  Cl  Cl3  1  0.30282600  0.50000000  0.94935300  1
loop_
_geom_bond_atom_site_label_1
_geom_bond_atom_site_label_2
_geom_bond_distance
_geom_bond_site_symmetry_2
Cd0 Cl2 2.453318 1_555
Cd0 Cl0 2.532781 1_554
Cd0 S3 2.637865 1_554
Cd0 S0 2.637865 1_544
Cd1 Cl3 2.453318 1_555
Cd1 Cl1 2.532781 1_555
Cd1 S2 2.637865 1_555
Cd1 S1 2.637865 1_555
C0 N0 1.181934 1_555
C0 N4 1.316456 1_555
C1 N1 1.181934 1_555
C1 N5 1.316456 1_555
C2 N2 1.181934 1_555
C2 N6 1.316456 1_555
C3 N3 1.181934 1_555
C3 N7 1.316456 1_555
N4 S0 1.597160 1_555
N5 S1 1.597160 1_555
N6 S2 1.597160 1_555
N7 S3 1.597160 1_555
