# generated using pymatgen
data_Sb4O9
_symmetry_space_group_name_H-M   'P 1'
_cell_length_a   3.88778600
_cell_length_b   9.90848400
_cell_length_c   10.03966664
_cell_angle_alpha   89.65344964
_cell_angle_beta   90.00000000
_cell_angle_gamma   90.00000000
_symmetry_Int_Tables_number   1
_chemical_formula_structural   Sb4O9
_chemical_formula_sum   'Sb8 O18'
_cell_volume   386.74162047
_cell_formula_units_Z   2
loop_
 _symmetry_equiv_pos_site_id
 _symmetry_equiv_pos_as_xyz
  1  'x, y, z'
loop_
 _atom_site_type_symbol
 _atom_site_label
 _atom_site_symmetry_multiplicity
 _atom_site_fract_x
 _atom_site_fract_y
 _atom_site_fract_z
 _atom_site_occupancy
  Sb  Sb0  1  0.50000000  0.47207700  0.83806200  1
  Sb  Sb1  1  0.50000000  0.16022700  0.98942100  1
  Sb  Sb2  1  0.50000000  0.66498000  0.47326900  1
  Sb  Sb3  1  0.50000000  0.96377500  0.34286100  1
  Sb  Sb4  1  0.50000000  0.03622500  0.65713900  1
  Sb  Sb5  1  0.50000000  0.83977300  0.01057900  1
  Sb  Sb6  1  0.50000000  0.52792300  0.16193800  1
  Sb  Sb7  1  0.50000000  0.33502000  0.52673100  1
  O  O0  1  0.50000000  0.24400000  0.71195400  1
  O  O1  1  0.50000000  0.75600000  0.28804600  1
  O  O2  1  0.00000000  0.32760900  0.50491300  1
  O  O3  1  0.00000000  0.53464600  0.18045200  1
  O  O4  1  0.00000000  0.98997100  0.32781300  1
  O  O5  1  0.00000000  0.17596100  0.97025100  1
  O  O6  1  0.00000000  0.67239100  0.49508700  1
  O  O7  1  0.00000000  0.46535400  0.81954800  1
  O  O8  1  0.00000000  0.01002900  0.67218700  1
  O  O9  1  0.00000000  0.82403900  0.02974900  1
  O  O10  1  0.50000000  0.98083700  0.86353700  1
  O  O11  1  0.50000000  0.87332900  0.53066400  1
  O  O12  1  0.50000000  0.62960900  0.96954100  1
  O  O13  1  0.50000000  0.52248300  0.62957100  1
  O  O14  1  0.50000000  0.47751700  0.37042900  1
  O  O15  1  0.50000000  0.12667100  0.46933600  1
  O  O16  1  0.50000000  0.37039100  0.03045900  1
  O  O17  1  0.50000000  0.01916300  0.13646300  1
loop_
_geom_bond_atom_site_label_1
_geom_bond_atom_site_label_2
_geom_bond_distance
_geom_bond_site_symmetry_2
O0 Sb7 2.061822 1_555
O0 Sb4 2.134234 1_555
O0 Sb0 2.597058 1_555
O1 Sb2 2.061822 1_555
O1 Sb3 2.134234 1_555
O1 Sb6 2.597058 1_555
O2 Sb7 1.957623 1_555
O2 Sb7 1.957623 1_455
O3 Sb6 1.953934 1_455
O3 Sb6 1.953934 1_555
O4 Sb3 1.966836 1_455
O4 Sb3 1.966836 1_555
O5 Sb1 1.959516 1_555
O5 Sb1 1.959516 1_455
O6 Sb2 1.957623 1_455
O6 Sb2 1.957623 1_555
O7 Sb0 1.953934 1_555
O7 Sb0 1.953934 1_455
O8 Sb4 1.966836 1_555
O8 Sb4 1.966836 1_455
O9 Sb5 1.959516 1_555
O9 Sb5 1.959516 1_455
O10 Sb5 2.026823 1_556
O10 Sb4 2.140400 1_565
O10 Sb1 2.187212 1_565
O11 Sb4 2.059676 1_565
O11 Sb3 2.082723 1_555
O11 Sb2 2.146688 1_555
O12 Sb0 2.050307 1_555
O12 Sb5 2.125217 1_556
O12 Sb6 2.173179 1_556
O13 Sb2 2.104565 1_555
O13 Sb7 2.130592 1_555
O13 Sb0 2.149001 1_555
O14 Sb7 2.104565 1_555
O14 Sb2 2.130592 1_555
O14 Sb6 2.149001 1_555
O15 Sb3 2.059676 1_545
O15 Sb4 2.082723 1_555
O15 Sb7 2.146688 1_555
O16 Sb6 2.050307 1_555
O16 Sb1 2.125217 1_554
O16 Sb0 2.173179 1_554
O17 Sb1 2.026823 1_554
O17 Sb3 2.140400 1_545
O17 Sb5 2.187212 1_545
