# generated using pymatgen
data_U3TiS6
_symmetry_space_group_name_H-M   'P 1'
_cell_length_a   3.70045400
_cell_length_b   10.32417100
_cell_length_c   10.49471300
_cell_angle_alpha   90.00000000
_cell_angle_beta   90.00000000
_cell_angle_gamma   90.00000000
_symmetry_Int_Tables_number   1
_chemical_formula_structural   U3TiS6
_chemical_formula_sum   'U6 Ti2 S12'
_cell_volume   400.94127349
_cell_formula_units_Z   2
loop_
 _symmetry_equiv_pos_site_id
 _symmetry_equiv_pos_as_xyz
  1  'x, y, z'
loop_
 _atom_site_type_symbol
 _atom_site_label
 _atom_site_symmetry_multiplicity
 _atom_site_fract_x
 _atom_site_fract_y
 _atom_site_fract_z
 _atom_site_occupancy
  U  U0  1  0.00000000  0.31598600  0.25753400  1
  U  U1  1  0.00000000  0.81598600  0.74246600  1
  U  U2  1  0.00000000  0.48384200  0.92596200  1
  U  U3  1  0.00000000  0.98384200  0.07403800  1
  U  U4  1  0.50000000  0.51554300  0.56247200  1
  U  U5  1  0.50000000  0.01554300  0.43752800  1
  Ti  Ti0  1  0.50000000  0.67369700  0.21872700  1
  Ti  Ti1  1  0.50000000  0.17369700  0.78127300  1
  S  S0  1  0.00000000  0.71879200  0.05531000  1
  S  S1  1  0.00000000  0.21879200  0.94469000  1
  S  S2  1  0.50000000  0.28102900  0.44763100  1
  S  S3  1  0.50000000  0.78102900  0.55236900  1
  S  S4  1  0.50000000  0.62795700  0.80533000  1
  S  S5  1  0.50000000  0.12795700  0.19467000  1
  S  S6  1  0.00000000  0.36905500  0.69286700  1
  S  S7  1  0.00000000  0.86905500  0.30713300  1
  S  S8  1  0.00000000  0.56301900  0.36747100  1
  S  S9  1  0.00000000  0.06301900  0.63252900  1
  S  S10  1  0.50000000  0.45108200  0.11692300  1
  S  S11  1  0.50000000  0.95108200  0.88307700  1
loop_
_geom_bond_atom_site_label_1
_geom_bond_atom_site_label_2
_geom_bond_distance
_geom_bond_site_symmetry_2
S0 Ti0 2.565418 1_455
S0 Ti0 2.565418 1_555
S0 U3 2.743471 1_555
S0 U2 2.779671 1_554
S1 Ti1 2.565418 1_555
S1 Ti1 2.565418 1_455
S1 U2 2.743471 1_555
S1 U3 2.779671 1_546
S2 U4 2.704550 1_555
S2 U5 2.742973 1_555
S2 U0 2.744753 1_655
S2 U0 2.744753 1_555
S3 U5 2.704550 1_565
S3 U4 2.742973 1_555
S3 U1 2.744753 1_655
S3 U1 2.744753 1_555
S4 U2 2.690696 1_555
S4 U2 2.690696 1_655
S4 U1 2.761707 1_555
S4 U1 2.761707 1_655
S4 U4 2.800526 1_555
S5 U3 2.690696 1_545
S5 U3 2.690696 1_645
S5 U0 2.761707 1_555
S5 U0 2.761707 1_655
S5 U5 2.800526 1_555
S6 U2 2.718203 1_555
S6 U4 2.753774 1_555
S6 U4 2.753774 1_455
S6 Ti1 2.889994 1_455
S6 Ti1 2.889994 1_555
S7 U3 2.718203 1_555
S7 U5 2.753774 1_565
S7 U5 2.753774 1_465
S7 Ti0 2.889994 1_555
S7 Ti0 2.889994 1_455
S8 Ti0 2.676903 1_555
S8 Ti0 2.676903 1_455
S8 U0 2.799241 1_555
S8 U4 2.802082 1_555
S8 U4 2.802082 1_455
S9 Ti1 2.676903 1_455
S9 Ti1 2.676903 1_555
S9 U1 2.799241 1_545
S9 U5 2.802082 1_455
S9 U5 2.802082 1_555
S10 Ti0 2.534510 1_555
S10 U0 2.747051 1_555
S10 U0 2.747051 1_655
S10 U2 2.748467 1_654
S10 U2 2.748467 1_554
S11 Ti1 2.534510 1_565
S11 U1 2.747051 1_655
S11 U1 2.747051 1_555
S11 U3 2.748467 1_656
S11 U3 2.748467 1_556
