# generated using pymatgen
data_Hf2TcPd
_symmetry_space_group_name_H-M   'P 1'
_cell_length_a   10.73424105
_cell_length_b   10.73424105
_cell_length_c   10.73424105
_cell_angle_alpha   126.79600014
_cell_angle_beta   118.05309535
_cell_angle_gamma   86.02867126
_symmetry_Int_Tables_number   1
_chemical_formula_structural   Hf2TcPd
_chemical_formula_sum   'Hf2 Tc1 Pd1'
_cell_volume   833.64101139
_cell_formula_units_Z   1
loop_
 _symmetry_equiv_pos_site_id
 _symmetry_equiv_pos_as_xyz
  1  'x, y, z'
loop_
 _atom_site_type_symbol
 _atom_site_label
 _atom_site_symmetry_multiplicity
 _atom_site_fract_x
 _atom_site_fract_y
 _atom_site_fract_z
 _atom_site_occupancy
  Hf  Hf0  1  0.00000000  0.23498200  0.23498200  1
  Hf  Hf1  1  0.00000000  0.76501800  0.76501800  1
  Tc  Tc0  1  0.00000000  0.00000000  0.00000000  1
  Pd  Pd0  1  0.00000000  0.50000000  0.50000000  1
loop_
_geom_bond_atom_site_label_1
_geom_bond_atom_site_label_2
_geom_bond_distance
_geom_bond_site_symmetry_2
Hf0 Tc0 2.258971 1_555
Hf0 Pd0 2.547718 1_555
Hf1 Tc0 2.258971 1_566
Hf1 Pd0 2.547718 1_555
