# generated using pymatgen
data_Al11NO17
_symmetry_space_group_name_H-M   'P 1'
_cell_length_a   5.65487936
_cell_length_b   5.65487936
_cell_length_c   23.02154200
_cell_angle_alpha   90.00000000
_cell_angle_beta   90.00000000
_cell_angle_gamma   119.99999255
_symmetry_Int_Tables_number   1
_chemical_formula_structural   Al11NO17
_chemical_formula_sum   'Al22 N2 O34'
_cell_volume   637.54634872
_cell_formula_units_Z   2
loop_
 _symmetry_equiv_pos_site_id
 _symmetry_equiv_pos_as_xyz
  1  'x, y, z'
loop_
 _atom_site_type_symbol
 _atom_site_label
 _atom_site_symmetry_multiplicity
 _atom_site_fract_x
 _atom_site_fract_y
 _atom_site_fract_z
 _atom_site_occupancy
  Al  Al0  1  0.16733600  0.33467100  0.60619600  1
  Al  Al1  1  0.83266400  0.66532900  0.39380400  1
  Al  Al2  1  0.66532900  0.83266400  0.60619600  1
  Al  Al3  1  0.83266400  0.66532900  0.10619600  1
  Al  Al4  1  0.33467100  0.16733600  0.39380400  1
  Al  Al5  1  0.16733600  0.33467100  0.89380400  1
  Al  Al6  1  0.16733600  0.83266400  0.60619600  1
  Al  Al7  1  0.33467100  0.16733600  0.10619600  1
  Al  Al8  1  0.83266400  0.16733600  0.39380400  1
  Al  Al9  1  0.66532900  0.83266400  0.89380400  1
  Al  Al10  1  0.83266400  0.16733600  0.10619600  1
  Al  Al11  1  0.16733600  0.83266400  0.89380400  1
  Al  Al12  1  0.33333300  0.66666700  0.17471400  1
  Al  Al13  1  0.66666700  0.33333300  0.82528600  1
  Al  Al14  1  0.66666700  0.33333300  0.67471400  1
  Al  Al15  1  0.33333300  0.66666700  0.32528600  1
  Al  Al16  1  0.33333300  0.66666700  0.02458700  1
  Al  Al17  1  0.66666700  0.33333300  0.97541300  1
  Al  Al18  1  0.66666700  0.33333300  0.52458700  1
  Al  Al19  1  0.33333300  0.66666700  0.47541300  1
  Al  Al20  1  0.00000000  0.00000000  0.00000000  1
  Al  Al21  1  0.00000000  0.00000000  0.50000000  1
  N  N0  1  0.33333300  0.66666700  0.75000000  1
  N  N1  1  0.66666700  0.33333300  0.25000000  1
  O  O0  1  0.50013700  0.00027500  0.14353800  1
  O  O1  1  0.49986300  0.99972500  0.85646200  1
  O  O2  1  0.99972500  0.49986300  0.14353800  1
  O  O3  1  0.49986300  0.99972500  0.64353800  1
  O  O4  1  0.00027500  0.50013700  0.85646200  1
  O  O5  1  0.50013700  0.00027500  0.35646200  1
  O  O6  1  0.50013700  0.49986300  0.14353800  1
  O  O7  1  0.00027500  0.50013700  0.64353800  1
  O  O8  1  0.49986300  0.50013700  0.85646200  1
  O  O9  1  0.99972500  0.49986300  0.35646200  1
  O  O10  1  0.49986300  0.50013700  0.64353800  1
  O  O11  1  0.50013700  0.49986300  0.35646200  1
  O  O12  1  0.15715100  0.31430300  0.04913000  1
  O  O13  1  0.84284900  0.68569700  0.95087000  1
  O  O14  1  0.68569700  0.84284900  0.04913000  1
  O  O15  1  0.84284900  0.68569700  0.54913000  1
  O  O16  1  0.31430300  0.15715100  0.95087000  1
  O  O17  1  0.15715100  0.31430300  0.45087000  1
  O  O18  1  0.15715100  0.84284900  0.04913000  1
  O  O19  1  0.31430300  0.15715100  0.54913000  1
  O  O20  1  0.84284900  0.15715100  0.95087000  1
  O  O21  1  0.68569700  0.84284900  0.45087000  1
  O  O22  1  0.84284900  0.15715100  0.54913000  1
  O  O23  1  0.15715100  0.84284900  0.45087000  1
  O  O24  1  0.33333300  0.66666700  0.55530100  1
  O  O25  1  0.66666700  0.33333300  0.44469900  1
  O  O26  1  0.66666700  0.33333300  0.05530100  1
  O  O27  1  0.33333300  0.66666700  0.94469900  1
  O  O28  1  0.33333300  0.66666700  0.25000000  1
  O  O29  1  0.66666700  0.33333300  0.75000000  1
  O  O30  1  0.00000000  0.00000000  0.13995100  1
  O  O31  1  0.00000000  0.00000000  0.86004900  1
  O  O32  1  0.00000000  0.00000000  0.63995100  1
  O  O33  1  0.00000000  0.00000000  0.36004900  1
loop_
_geom_bond_atom_site_label_1
_geom_bond_atom_site_label_2
_geom_bond_distance
_geom_bond_site_symmetry_2
Al0 O32 1.813866 1_555
Al0 O7 1.841462 1_555
Al0 O10 1.841462 1_555
Al0 O24 2.004072 1_555
Al0 O19 2.063646 1_555
Al0 O22 2.063646 1_455
Al1 O33 1.813866 1_665
Al1 O9 1.841462 1_555
Al1 O11 1.841462 1_555
Al1 O25 2.004072 1_555
Al1 O21 2.063646 1_555
Al1 O23 2.063646 1_655
Al2 O32 1.813866 1_665
Al2 O3 1.841462 1_555
Al2 O10 1.841462 1_555
Al2 O24 2.004072 1_555
Al2 O15 2.063646 1_555
Al2 O22 2.063646 1_565
Al3 O30 1.813866 1_665
Al3 O2 1.841462 1_555
Al3 O6 1.841462 1_555
Al3 O26 2.004072 1_555
Al3 O14 2.063646 1_555
Al3 O18 2.063646 1_655
Al4 O33 1.813866 1_555
Al4 O5 1.841462 1_555
Al4 O11 1.841462 1_555
Al4 O25 2.004072 1_555
Al4 O17 2.063646 1_555
Al4 O23 2.063646 1_545
Al5 O31 1.813866 1_555
Al5 O4 1.841462 1_555
Al5 O8 1.841462 1_555
Al5 O27 2.004072 1_555
Al5 O16 2.063646 1_555
Al5 O20 2.063646 1_455
Al6 O32 1.813870 1_565
Al6 O7 1.841462 1_555
Al6 O3 1.841462 1_555
Al6 O24 2.004064 1_555
Al6 O19 2.063646 1_565
Al6 O15 2.063646 1_455
Al7 O30 1.813866 1_555
Al7 O0 1.841462 1_555
Al7 O6 1.841462 1_555
Al7 O26 2.004072 1_555
Al7 O12 2.063646 1_555
Al7 O18 2.063646 1_545
Al8 O33 1.813870 1_655
Al8 O5 1.841462 1_555
Al8 O9 1.841462 1_555
Al8 O25 2.004064 1_555
Al8 O17 2.063646 1_655
Al8 O21 2.063646 1_545
Al9 O31 1.813866 1_665
Al9 O1 1.841462 1_555
Al9 O8 1.841462 1_555
Al9 O27 2.004072 1_555
Al9 O13 2.063646 1_555
Al9 O20 2.063646 1_565
Al10 O30 1.813870 1_655
Al10 O0 1.841462 1_555
Al10 O2 1.841462 1_555
Al10 O26 2.004064 1_555
Al10 O12 2.063646 1_655
Al10 O14 2.063646 1_545
Al11 O31 1.813870 1_565
Al11 O4 1.841462 1_555
Al11 O1 1.841462 1_555
Al11 O27 2.004064 1_555
Al11 O13 2.063646 1_455
Al11 O16 2.063646 1_565
Al12 O28 1.733200 1_555
Al12 O6 1.784466 1_555
Al12 O2 1.784466 1_455
Al12 O0 1.784466 1_565
Al13 O29 1.733200 1_555
Al13 O8 1.784466 1_555
Al13 O1 1.784466 1_545
Al13 O4 1.784466 1_655
Al14 O29 1.733200 1_555
Al14 O10 1.784466 1_555
Al14 O3 1.784466 1_545
Al14 O7 1.784466 1_655
Al15 O28 1.733200 1_555
Al15 O11 1.784466 1_555
Al15 O9 1.784466 1_455
Al15 O5 1.784466 1_565
Al16 O18 1.815768 1_555
Al16 O12 1.815768 1_555
Al16 O14 1.815768 1_555
Al16 O27 1.839145 1_554
Al17 O20 1.815768 1_555
Al17 O13 1.815768 1_555
Al17 O16 1.815768 1_555
Al17 O26 1.839145 1_556
Al18 O22 1.815768 1_555
Al18 O15 1.815768 1_555
Al18 O19 1.815768 1_555
Al18 O25 1.839145 1_555
Al19 O23 1.815768 1_555
Al19 O21 1.815768 1_555
Al19 O17 1.815768 1_555
Al19 O24 1.839145 1_555
Al20 O18 1.910098 1_545
Al20 O20 1.910098 1_454
Al20 O12 1.910102 1_555
Al20 O14 1.910102 1_445
Al20 O13 1.910102 1_444
Al20 O16 1.910102 1_554
Al21 O22 1.910098 1_455
Al21 O23 1.910098 1_545
Al21 O15 1.910102 1_445
Al21 O21 1.910102 1_445
Al21 O17 1.910102 1_555
Al21 O19 1.910102 1_555
