# generated using pymatgen
data_U6Ta4Al43
_symmetry_space_group_name_H-M   'P 1'
_cell_length_a   11.13942162
_cell_length_b   11.13942162
_cell_length_c   17.55578800
_cell_angle_alpha   90.00000000
_cell_angle_beta   90.00000000
_cell_angle_gamma   119.99999776
_symmetry_Int_Tables_number   1
_chemical_formula_structural   U6Ta4Al43
_chemical_formula_sum   'U12 Ta8 Al86'
_cell_volume   1886.58446323
_cell_formula_units_Z   2
loop_
 _symmetry_equiv_pos_site_id
 _symmetry_equiv_pos_as_xyz
  1  'x, y, z'
loop_
 _atom_site_type_symbol
 _atom_site_label
 _atom_site_symmetry_multiplicity
 _atom_site_fract_x
 _atom_site_fract_y
 _atom_site_fract_z
 _atom_site_occupancy
  U  U0  1  0.52679300  0.00000000  0.59048000  1
  U  U1  1  0.47320700  0.00000000  0.40952000  1
  U  U2  1  0.00000000  0.52679300  0.59048000  1
  U  U3  1  0.47320700  0.00000000  0.09048000  1
  U  U4  1  0.00000000  0.52679300  0.90952000  1
  U  U5  1  0.00000000  0.47320700  0.40952000  1
  U  U6  1  0.52679300  0.00000000  0.90952000  1
  U  U7  1  0.00000000  0.47320700  0.09048000  1
  U  U8  1  0.47320700  0.47320700  0.59048000  1
  U  U9  1  0.52679300  0.52679300  0.40952000  1
  U  U10  1  0.52679300  0.52679300  0.09048000  1
  U  U11  1  0.47320700  0.47320700  0.90952000  1
  Ta  Ta0  1  0.00000000  0.00000000  0.50000000  1
  Ta  Ta1  1  0.00000000  0.00000000  0.00000000  1
  Ta  Ta2  1  0.72430700  0.00000000  0.75000000  1
  Ta  Ta3  1  0.27569300  0.00000000  0.25000000  1
  Ta  Ta4  1  0.00000000  0.72430700  0.75000000  1
  Ta  Ta5  1  0.00000000  0.27569300  0.25000000  1
  Ta  Ta6  1  0.27569300  0.27569300  0.75000000  1
  Ta  Ta7  1  0.72430700  0.72430700  0.25000000  1
  Al  Al0  1  0.14842800  0.59298700  0.75000000  1
  Al  Al1  1  0.85157200  0.40701300  0.25000000  1
  Al  Al2  1  0.40701300  0.55544100  0.75000000  1
  Al  Al3  1  0.59298700  0.14842800  0.75000000  1
  Al  Al4  1  0.59298700  0.44455900  0.25000000  1
  Al  Al5  1  0.40701300  0.85157200  0.25000000  1
  Al  Al6  1  0.44455900  0.85157200  0.75000000  1
  Al  Al7  1  0.55544100  0.40701300  0.75000000  1
  Al  Al8  1  0.55544100  0.14842800  0.25000000  1
  Al  Al9  1  0.44455900  0.59298700  0.25000000  1
  Al  Al10  1  0.85157200  0.44455900  0.75000000  1
  Al  Al11  1  0.14842800  0.55544100  0.25000000  1
  Al  Al12  1  0.16074000  0.00000000  0.11490600  1
  Al  Al13  1  0.83926000  0.00000000  0.88509400  1
  Al  Al14  1  0.00000000  0.16074000  0.11490600  1
  Al  Al15  1  0.83926000  0.00000000  0.61490600  1
  Al  Al16  1  0.00000000  0.16074000  0.38509400  1
  Al  Al17  1  0.00000000  0.83926000  0.88509400  1
  Al  Al18  1  0.16074000  0.00000000  0.38509400  1
  Al  Al19  1  0.00000000  0.83926000  0.61490600  1
  Al  Al20  1  0.83926000  0.83926000  0.11490600  1
  Al  Al21  1  0.16074000  0.16074000  0.88509400  1
  Al  Al22  1  0.16074000  0.16074000  0.61490600  1
  Al  Al23  1  0.83926000  0.83926000  0.38509400  1
  Al  Al24  1  0.24705600  0.49411100  0.50000000  1
  Al  Al25  1  0.75294400  0.50588900  0.50000000  1
  Al  Al26  1  0.50588900  0.75294400  0.50000000  1
  Al  Al27  1  0.75294400  0.50588900  0.00000000  1
  Al  Al28  1  0.49411100  0.24705600  0.00000000  1
  Al  Al29  1  0.49411100  0.24705600  0.50000000  1
  Al  Al30  1  0.24705600  0.49411100  0.00000000  1
  Al  Al31  1  0.50588900  0.75294400  0.00000000  1
  Al  Al32  1  0.24705600  0.75294400  0.50000000  1
  Al  Al33  1  0.75294400  0.24705600  0.50000000  1
  Al  Al34  1  0.75294400  0.24705600  0.00000000  1
  Al  Al35  1  0.24705600  0.75294400  0.00000000  1
  Al  Al36  1  0.14633800  0.00000000  0.75000000  1
  Al  Al37  1  0.85366200  0.00000000  0.25000000  1
  Al  Al38  1  0.00000000  0.14633800  0.75000000  1
  Al  Al39  1  0.00000000  0.85366200  0.25000000  1
  Al  Al40  1  0.85366200  0.85366200  0.75000000  1
  Al  Al41  1  0.14633800  0.14633800  0.25000000  1
  Al  Al42  1  0.33333300  0.66666700  0.62678200  1
  Al  Al43  1  0.66666700  0.33333300  0.37321800  1
  Al  Al44  1  0.66666700  0.33333300  0.12678200  1
  Al  Al45  1  0.66666700  0.33333300  0.87321800  1
  Al  Al46  1  0.33333300  0.66666700  0.87321800  1
  Al  Al47  1  0.33333300  0.66666700  0.12678200  1
  Al  Al48  1  0.33333300  0.66666700  0.37321800  1
  Al  Al49  1  0.66666700  0.33333300  0.62678200  1
  Al  Al50  1  0.25696000  0.00000000  0.52949000  1
  Al  Al51  1  0.74304000  0.00000000  0.47051000  1
  Al  Al52  1  0.00000000  0.25696000  0.52949000  1
  Al  Al53  1  0.74304000  0.00000000  0.02949000  1
  Al  Al54  1  0.00000000  0.25696000  0.97051000  1
  Al  Al55  1  0.00000000  0.74304000  0.47051000  1
  Al  Al56  1  0.25696000  0.00000000  0.97051000  1
  Al  Al57  1  0.00000000  0.74304000  0.02949000  1
  Al  Al58  1  0.74304000  0.74304000  0.52949000  1
  Al  Al59  1  0.25696000  0.25696000  0.47051000  1
  Al  Al60  1  0.25696000  0.25696000  0.02949000  1
  Al  Al61  1  0.74304000  0.74304000  0.97051000  1
  Al  Al62  1  0.15748400  0.39536200  0.66308100  1
  Al  Al63  1  0.84251600  0.60463800  0.33691900  1
  Al  Al64  1  0.60463800  0.76212200  0.66308100  1
  Al  Al65  1  0.84251600  0.60463800  0.16308100  1
  Al  Al66  1  0.39536200  0.15748400  0.83691900  1
  Al  Al67  1  0.39536200  0.23787800  0.33691900  1
  Al  Al68  1  0.15748400  0.39536200  0.83691900  1
  Al  Al69  1  0.60463800  0.84251600  0.16308100  1
  Al  Al70  1  0.23787800  0.84251600  0.66308100  1
  Al  Al71  1  0.39536200  0.23787800  0.16308100  1
  Al  Al72  1  0.76212200  0.60463800  0.83691900  1
  Al  Al73  1  0.76212200  0.15748400  0.33691900  1
  Al  Al74  1  0.60463800  0.76212200  0.83691900  1
  Al  Al75  1  0.23787800  0.39536200  0.16308100  1
  Al  Al76  1  0.60463800  0.84251600  0.33691900  1
  Al  Al77  1  0.39536200  0.15748400  0.66308100  1
  Al  Al78  1  0.76212200  0.15748400  0.16308100  1
  Al  Al79  1  0.23787800  0.39536200  0.33691900  1
  Al  Al80  1  0.23787800  0.84251600  0.83691900  1
  Al  Al81  1  0.76212200  0.60463800  0.66308100  1
  Al  Al82  1  0.84251600  0.23787800  0.83691900  1
  Al  Al83  1  0.15748400  0.76212200  0.16308100  1
  Al  Al84  1  0.15748400  0.76212200  0.33691900  1
  Al  Al85  1  0.84251600  0.23787800  0.66308100  1
loop_
_geom_bond_atom_site_label_1
_geom_bond_atom_site_label_2
_geom_bond_distance
_geom_bond_site_symmetry_2
U0 U1 3.232487 1_555
U2 U5 3.232487 1_555
U3 U6 3.232487 1_554
U4 U7 3.232487 1_556
U8 U9 3.232487 1_555
U10 U11 3.232487 1_554
Ta2 U0 3.561410 1_555
Ta2 U6 3.561410 1_555
Ta3 U3 3.561410 1_555
Ta3 U1 3.561410 1_555
Ta4 U2 3.561410 1_555
Ta4 U4 3.561410 1_555
Ta5 U5 3.561410 1_555
Ta5 U7 3.561410 1_555
Ta6 U8 3.561410 1_555
Ta6 U11 3.561410 1_555
Ta7 U10 3.561410 1_555
Ta7 U9 3.561410 1_555
Al0 Ta4 2.700417 1_555
Al0 Al62 2.721582 1_555
Al0 Al68 2.721582 1_555
Al0 Al42 2.811583 1_555
Al0 Al46 2.811583 1_555
Al0 Al10 2.863776 1_455
Al0 Al70 2.877132 1_555
Al0 Al80 2.877132 1_555
Al0 U4 3.146598 1_555
Al0 U2 3.146598 1_555
Al1 Ta5 2.700417 1_655
Al1 Al65 2.721582 1_555
Al1 Al63 2.721582 1_555
Al1 Al43 2.811583 1_555
Al1 Al44 2.811583 1_555
Al1 Al11 2.863776 1_655
Al1 Al78 2.877132 1_555
Al1 Al73 2.877132 1_555
Al1 U7 3.146598 1_655
Al1 U5 3.146598 1_655
Al2 Ta6 2.700417 1_555
Al2 Al74 2.721582 1_555
Al2 Al64 2.721582 1_555
Al2 Al46 2.811589 1_555
Al2 Al42 2.811589 1_555
Al2 Al7 2.863776 1_555
Al2 Al68 2.877132 1_555
Al2 Al62 2.877132 1_555
Al2 U11 3.146598 1_555
Al2 U8 3.146598 1_555
Al3 Ta2 2.700417 1_555
Al3 Al66 2.721582 1_555
Al3 Al77 2.721582 1_555
Al3 Al49 2.811583 1_555
Al3 Al45 2.811583 1_555
Al3 Al6 2.863776 1_545
Al3 Al85 2.877132 1_555
Al3 Al82 2.877132 1_555
Al3 U0 3.146598 1_555
Al3 U6 3.146598 1_555
Al4 Ta7 2.700417 1_555
Al4 Al67 2.721582 1_555
Al4 Al71 2.721582 1_555
Al4 Al43 2.811589 1_555
Al4 Al44 2.811589 1_555
Al4 Al9 2.863776 1_555
Al4 Al65 2.877132 1_555
Al4 Al63 2.877132 1_555
Al4 U9 3.146598 1_555
Al4 U10 3.146598 1_555
Al5 Ta3 2.700417 1_565
Al5 Al69 2.721582 1_555
Al5 Al76 2.721582 1_555
Al5 Al8 2.863776 1_565
Al5 Al83 2.877132 1_555
Al5 Al84 2.877132 1_555
Al5 U1 3.146598 1_565
Al5 U3 3.146598 1_565
Al6 Ta2 2.700417 1_565
Al6 Al70 2.721582 1_555
Al6 Al80 2.721582 1_555
Al6 Al74 2.877132 1_555
Al6 Al64 2.877132 1_555
Al6 U0 3.146598 1_565
Al6 U6 3.146598 1_565
Al7 Ta6 2.700417 1_555
Al7 Al72 2.721582 1_555
Al7 Al81 2.721582 1_555
Al7 Al77 2.877132 1_555
Al7 U8 3.146598 1_555
Al7 U11 3.146598 1_555
Al8 Ta3 2.700417 1_555
Al8 U1 3.146598 1_555
Al8 U3 3.146598 1_555
Al9 Ta7 2.700417 1_555
Al9 U9 3.146598 1_555
Al9 U10 3.146598 1_555
Al10 Ta4 2.700417 1_655
Al10 Al85 2.721582 1_555
Al10 Al82 2.721582 1_555
Al10 Al49 2.811583 1_555
Al10 Al45 2.811583 1_555
Al10 Al72 2.877132 1_555
Al10 Al81 2.877132 1_555
Al10 U2 3.146598 1_655
Al10 U4 3.146598 1_655
Al11 Ta5 2.700417 1_555
Al11 Al84 2.721582 1_555
Al11 Al83 2.721582 1_555
Al11 Al48 2.811583 1_555
Al11 Al47 2.811583 1_555
Al11 Al75 2.877132 1_555
Al11 Al79 2.877132 1_555
Al11 U7 3.146598 1_555
Al11 U5 3.146598 1_555
Al12 Ta3 2.695288 1_555
Al12 Ta1 2.697301 1_555
Al12 Al56 2.752269 1_554
Al12 Al83 2.764428 1_545
Al12 Al71 2.764428 1_555
Al12 Al60 2.919369 1_555
Al12 Al57 2.919369 1_545
Al12 Al41 2.927358 1_555
Al12 Al39 2.927358 1_545
Al12 Al14 3.101325 1_555
Al12 Al20 3.101325 1_445
Al12 U3 3.507017 1_555
Al13 Ta2 2.695288 1_555
Al13 Ta1 2.697301 1_656
Al13 Al53 2.752269 1_556
Al13 Al82 2.764428 1_555
Al13 Al74 2.764428 1_545
Al13 Al61 2.919369 1_545
Al13 Al54 2.919369 1_655
Al13 Al40 2.927358 1_545
Al13 Al38 2.927358 1_655
Al13 Al17 3.101325 1_645
Al13 Al21 3.101325 1_655
Al13 U6 3.507017 1_555
Al14 Ta5 2.695288 1_555
Al14 Ta1 2.697301 1_555
Al14 Al54 2.752269 1_554
Al14 Al78 2.764428 1_455
Al14 Al75 2.764428 1_555
Al14 Al60 2.919369 1_555
Al14 Al53 2.919369 1_455
Al14 Al41 2.927358 1_555
Al14 Al37 2.927358 1_455
Al14 Al20 3.101325 1_445
Al14 U7 3.507017 1_555
Al15 Ta2 2.695288 1_555
Al15 Ta0 2.697301 1_655
Al15 Al51 2.752269 1_555
Al15 Al85 2.764428 1_555
Al15 Al64 2.764428 1_545
Al15 Al58 2.919369 1_545
Al15 Al52 2.919369 1_655
Al15 Al40 2.927358 1_545
Al15 Al38 2.927358 1_655
Al15 Al19 3.101325 1_645
Al15 Al22 3.101325 1_655
Al15 U0 3.507017 1_555
Al16 Ta5 2.695288 1_555
Al16 Ta0 2.697301 1_555
Al16 Al52 2.752269 1_555
Al16 Al73 2.764428 1_455
Al16 Al79 2.764428 1_555
Al16 Al59 2.919369 1_555
Al16 Al51 2.919369 1_455
Al16 Al41 2.927358 1_555
Al16 Al37 2.927358 1_455
Al16 Al18 3.101325 1_555
Al16 Al23 3.101325 1_445
Al16 U5 3.507017 1_555
Al17 Ta4 2.695288 1_555
Al17 Ta1 2.697301 1_566
Al17 Al57 2.752269 1_556
Al17 Al80 2.764428 1_555
Al17 Al72 2.764428 1_455
Al17 Al61 2.919369 1_455
Al17 Al56 2.919369 1_565
Al17 Al40 2.927358 1_455
Al17 Al36 2.927358 1_565
Al17 Al21 3.101325 1_565
Al17 U4 3.507017 1_555
Al18 Ta3 2.695288 1_555
Al18 Ta0 2.697301 1_555
Al18 Al50 2.752269 1_555
Al18 Al84 2.764428 1_545
Al18 Al67 2.764428 1_555
Al18 Al59 2.919369 1_555
Al18 Al55 2.919369 1_545
Al18 Al41 2.927358 1_555
Al18 Al39 2.927358 1_545
Al18 Al23 3.101325 1_445
Al18 U1 3.507017 1_555
Al19 Ta4 2.695288 1_555
Al19 Ta0 2.697301 1_565
Al19 Al55 2.752269 1_555
Al19 Al70 2.764428 1_555
Al19 Al81 2.764428 1_455
Al19 Al58 2.919369 1_455
Al19 Al50 2.919369 1_565
Al19 Al40 2.927358 1_455
Al19 Al36 2.927358 1_565
Al19 Al22 3.101325 1_565
Al19 U2 3.507017 1_555
Al20 Ta7 2.695288 1_555
Al20 Ta1 2.697301 1_665
Al20 Al61 2.752269 1_554
Al20 Al69 2.764428 1_555
Al20 Al65 2.764428 1_555
Al20 Al53 2.919369 1_565
Al20 Al57 2.919369 1_655
Al20 Al39 2.927358 1_655
Al20 Al37 2.927358 1_565
Al20 U10 3.507017 1_555
Al21 Ta6 2.695288 1_555
Al21 Ta1 2.697301 1_556
Al21 Al60 2.752269 1_556
Al21 Al66 2.764428 1_555
Al21 Al68 2.764428 1_555
Al21 Al56 2.919369 1_555
Al21 Al54 2.919369 1_555
Al21 Al38 2.927358 1_555
Al21 Al36 2.927358 1_555
Al21 U11 3.507017 1_555
Al22 Ta6 2.695288 1_555
Al22 Ta0 2.697301 1_555
Al22 Al59 2.752269 1_555
Al22 Al62 2.764428 1_555
Al22 Al77 2.764428 1_555
Al22 Al52 2.919369 1_555
Al22 Al50 2.919369 1_555
Al22 Al38 2.927358 1_555
Al22 Al36 2.927358 1_555
Al22 U8 3.507017 1_555
Al23 Ta7 2.695288 1_555
Al23 Ta0 2.697301 1_665
Al23 Al58 2.752269 1_555
Al23 Al63 2.764428 1_555
Al23 Al76 2.764428 1_555
Al23 Al51 2.919369 1_565
Al23 Al55 2.919369 1_655
Al23 Al39 2.927358 1_655
Al23 Al37 2.927358 1_565
Al23 U9 3.507017 1_555
Al24 Al59 2.747793 1_555
Al24 Al52 2.747799 1_555
Al24 Al42 2.779400 1_555
Al24 Al48 2.779400 1_555
Al24 Al32 2.883250 1_555
Al24 Al26 2.883250 1_555
Al24 Al79 3.050387 1_555
Al24 Al62 3.050389 1_555
Al24 U8 3.083882 1_555
Al24 U5 3.083892 1_555
Al24 U9 3.351327 1_555
Al24 U2 3.351336 1_555
Al25 Al58 2.747793 1_555
Al25 Al55 2.747799 1_655
Al25 Al49 2.779400 1_555
Al25 Al43 2.779400 1_555
Al25 Al33 2.883250 1_555
Al25 Al29 2.883250 1_555
Al25 Al81 3.050387 1_555
Al25 Al63 3.050389 1_555
Al25 U9 3.083882 1_555
Al25 U2 3.083892 1_655
Al25 U8 3.351327 1_555
Al25 U5 3.351336 1_655
Al26 Al58 2.747793 1_555
Al26 Al51 2.747799 1_565
Al26 Al42 2.779400 1_555
Al26 Al48 2.779400 1_555
Al26 Al32 2.883250 1_555
Al26 Al64 3.050387 1_555
Al26 Al76 3.050389 1_555
Al26 U9 3.083882 1_555
Al26 U0 3.083892 1_565
Al26 U8 3.351327 1_555
Al26 U1 3.351336 1_565
Al27 Al61 2.747793 1_554
Al27 Al57 2.747799 1_655
Al27 Al45 2.779400 1_554
Al27 Al44 2.779400 1_555
Al27 Al34 2.883250 1_555
Al27 Al28 2.883250 1_555
Al27 Al72 3.050387 1_554
Al27 Al65 3.050389 1_555
Al27 U10 3.083882 1_555
Al27 U4 3.083892 1_654
Al27 U11 3.351327 1_554
Al27 U7 3.351336 1_655
Al28 Al60 2.747793 1_555
Al28 Al56 2.747799 1_554
Al28 Al45 2.779400 1_554
Al28 Al44 2.779400 1_555
Al28 Al34 2.883250 1_555
Al28 Al71 3.050387 1_555
Al28 Al66 3.050389 1_554
Al28 U11 3.083882 1_554
Al28 U3 3.083892 1_555
Al28 U10 3.351327 1_555
Al28 U6 3.351336 1_554
Al29 Al59 2.747793 1_555
Al29 Al50 2.747799 1_555
Al29 Al49 2.779400 1_555
Al29 Al43 2.779400 1_555
Al29 Al33 2.883250 1_555
Al29 Al67 3.050387 1_555
Al29 Al77 3.050389 1_555
Al29 U8 3.083882 1_555
Al29 U1 3.083892 1_555
Al29 U9 3.351327 1_555
Al29 U0 3.351336 1_555
Al30 Al60 2.747793 1_555
Al30 Al54 2.747799 1_554
Al30 Al46 2.779400 1_554
Al30 Al47 2.779400 1_555
Al30 Al35 2.883250 1_555
Al30 Al31 2.883250 1_555
Al30 Al75 3.050387 1_555
Al30 Al68 3.050389 1_554
Al30 U11 3.083882 1_554
Al30 U7 3.083892 1_555
Al30 U10 3.351327 1_555
Al30 U4 3.351336 1_554
Al31 Al61 2.747793 1_554
Al31 Al53 2.747799 1_565
Al31 Al46 2.779400 1_554
Al31 Al47 2.779400 1_555
Al31 Al35 2.883250 1_555
Al31 Al74 3.050387 1_554
Al31 Al69 3.050389 1_555
Al31 U10 3.083882 1_555
Al31 U6 3.083892 1_564
Al31 U11 3.351327 1_554
Al31 U3 3.351336 1_565
Al32 Al55 2.747804 1_555
Al32 Al50 2.747804 1_565
Al32 Al42 2.779388 1_555
Al32 Al48 2.779388 1_555
Al32 Al84 3.050391 1_555
Al32 Al70 3.050391 1_555
Al32 U2 3.083888 1_555
Al32 U1 3.083888 1_565
Al32 U5 3.351331 1_555
Al32 U0 3.351331 1_565
Al33 Al52 2.747804 1_655
Al33 Al51 2.747804 1_555
Al33 Al49 2.779388 1_555
Al33 Al43 2.779388 1_555
Al33 Al73 3.050391 1_555
Al33 Al85 3.050391 1_555
Al33 U0 3.083888 1_555
Al33 U5 3.083888 1_655
Al33 U2 3.351331 1_655
Al33 U1 3.351331 1_555
Al34 Al54 2.747804 1_654
Al34 Al53 2.747804 1_555
Al34 Al45 2.779388 1_554
Al34 Al44 2.779388 1_555
Al34 Al78 3.050391 1_555
Al34 Al82 3.050391 1_554
Al34 U6 3.083888 1_554
Al34 U7 3.083888 1_655
Al34 U4 3.351331 1_654
Al34 U3 3.351331 1_555
Al35 Al56 2.747804 1_564
Al35 Al57 2.747804 1_555
Al35 Al46 2.779388 1_554
Al35 Al47 2.779388 1_555
Al35 Al83 3.050391 1_555
Al35 Al80 3.050391 1_554
Al35 U4 3.083888 1_554
Al35 U3 3.083888 1_565
Al35 U6 3.351331 1_564
Al35 U7 3.351331 1_555
Al36 Ta6 2.661298 1_555
Al36 Ta4 2.661298 1_545
Al36 Al38 2.823452 1_555
Al36 Al40 2.823452 1_445
Al36 Al70 2.869600 1_545
Al36 Al80 2.869600 1_545
Al36 Al66 2.869600 1_555
Al36 Al77 2.869600 1_555
Al37 Ta7 2.661298 1_545
Al37 Ta5 2.661298 1_655
Al37 Al39 2.823452 1_645
Al37 Al41 2.823452 1_655
Al37 Al78 2.869600 1_555
Al37 Al73 2.869600 1_555
Al37 Al76 2.869600 1_545
Al37 Al69 2.869600 1_545
Al38 Ta6 2.661298 1_555
Al38 Ta2 2.661298 1_455
Al38 Al40 2.823452 1_445
Al38 Al82 2.869600 1_455
Al38 Al85 2.869600 1_455
Al38 Al62 2.869600 1_555
Al38 Al68 2.869600 1_555
Al39 Ta7 2.661298 1_455
Al39 Ta3 2.661298 1_565
Al39 Al41 2.823452 1_565
Al39 Al83 2.869600 1_555
Al39 Al84 2.869600 1_555
Al39 Al65 2.869600 1_455
Al39 Al63 2.869600 1_455
Al40 Ta4 2.661298 1_655
Al40 Ta2 2.661298 1_565
Al40 Al64 2.869600 1_555
Al40 Al81 2.869600 1_555
Al40 Al72 2.869600 1_555
Al40 Al74 2.869600 1_555
Al41 Ta3 2.661298 1_555
Al41 Ta5 2.661298 1_555
Al41 Al71 2.869600 1_555
Al41 Al75 2.869600 1_555
Al41 Al79 2.869600 1_555
Al41 Al67 2.869600 1_555
Al42 Al70 2.730701 1_555
Al42 Al62 2.730709 1_555
Al42 Al64 2.730711 1_555
Al42 Al6 2.811583 1_555
Al42 U2 3.291774 1_555
Al42 U0 3.291775 1_565
Al42 U8 3.291784 1_555
Al43 Al73 2.730701 1_555
Al43 Al63 2.730709 1_555
Al43 Al67 2.730711 1_555
Al43 Al8 2.811583 1_555
Al43 U5 3.291774 1_655
Al43 U1 3.291775 1_555
Al43 U9 3.291784 1_555
Al44 Al78 2.730701 1_555
Al44 Al65 2.730709 1_555
Al44 Al71 2.730711 1_555
Al44 Al8 2.811583 1_555
Al44 U7 3.291774 1_655
Al44 U3 3.291775 1_555
Al44 U10 3.291784 1_555
Al45 Al82 2.730701 1_555
Al45 Al66 2.730709 1_555
Al45 Al72 2.730711 1_555
Al45 Al7 2.811589 1_555
Al45 U6 3.291774 1_555
Al45 U4 3.291775 1_655
Al45 U11 3.291784 1_555
Al46 Al80 2.730701 1_555
Al46 Al68 2.730709 1_555
Al46 Al74 2.730711 1_555
Al46 Al6 2.811583 1_555
Al46 U4 3.291774 1_555
Al46 U6 3.291775 1_565
Al46 U11 3.291784 1_555
Al47 Al83 2.730701 1_555
Al47 Al69 2.730709 1_555
Al47 Al75 2.730711 1_555
Al47 Al5 2.811583 1_555
Al47 Al9 2.811589 1_555
Al47 U3 3.291774 1_565
Al47 U7 3.291775 1_555
Al47 U10 3.291784 1_555
Al48 Al84 2.730701 1_555
Al48 Al76 2.730709 1_555
Al48 Al79 2.730711 1_555
Al48 Al5 2.811583 1_555
Al48 Al9 2.811589 1_555
Al48 U1 3.291774 1_565
Al48 U5 3.291775 1_555
Al48 U9 3.291784 1_555
Al49 Al85 2.730701 1_555
Al49 Al77 2.730709 1_555
Al49 Al81 2.730711 1_555
Al49 Al7 2.811589 1_555
Al49 U0 3.291774 1_555
Al49 U2 3.291775 1_655
Al49 U8 3.291784 1_555
Al50 Al70 2.872316 1_545
Al50 Al77 2.872316 1_555
Al50 Ta0 2.908829 1_555
Al50 Al59 3.043910 1_555
Al50 Al55 3.043910 1_545
Al50 U0 3.190798 1_555
Al50 U1 3.199778 1_555
Al51 Al73 2.872316 1_555
Al51 Al76 2.872316 1_545
Al51 Ta0 2.908829 1_655
Al51 Al58 3.043910 1_545
Al51 Al52 3.043910 1_655
Al51 U1 3.190798 1_555
Al51 U0 3.199778 1_555
Al52 Al85 2.872316 1_455
Al52 Al62 2.872316 1_555
Al52 Ta0 2.908829 1_555
Al52 Al59 3.043910 1_555
Al52 U2 3.190798 1_555
Al52 U5 3.199778 1_555
Al53 Al78 2.872316 1_555
Al53 Al69 2.872316 1_545
Al53 Ta1 2.908829 1_655
Al53 Al61 3.043910 1_544
Al53 Al54 3.043910 1_654
Al53 U3 3.190798 1_555
Al53 U6 3.199778 1_554
Al54 Al82 2.872316 1_455
Al54 Al68 2.872316 1_555
Al54 Ta1 2.908829 1_556
Al54 Al60 3.043910 1_556
Al54 U4 3.190798 1_555
Al54 U7 3.199778 1_556
Al55 Al84 2.872316 1_555
Al55 Al63 2.872316 1_455
Al55 Ta0 2.908829 1_565
Al55 Al58 3.043910 1_455
Al55 U5 3.190798 1_555
Al55 U2 3.199778 1_555
Al56 Al80 2.872316 1_545
Al56 Al66 2.872316 1_555
Al56 Ta1 2.908829 1_556
Al56 Al60 3.043910 1_556
Al56 Al57 3.043910 1_546
Al56 U6 3.190798 1_555
Al56 U3 3.199778 1_556
Al57 Al83 2.872316 1_555
Al57 Al65 2.872316 1_455
Al57 Ta1 2.908829 1_565
Al57 Al61 3.043910 1_454
Al57 U7 3.190798 1_555
Al57 U4 3.199778 1_554
Al58 Al81 2.872316 1_555
Al58 Al64 2.872316 1_555
Al58 Ta0 2.908829 1_665
Al58 U8 3.190798 1_555
Al58 U9 3.199778 1_555
Al59 Al79 2.872316 1_555
Al59 Al67 2.872316 1_555
Al59 Ta0 2.908829 1_555
Al59 U9 3.190798 1_555
Al59 U8 3.199778 1_555
Al60 Al75 2.872316 1_555
Al60 Al71 2.872316 1_555
Al60 Ta1 2.908829 1_555
Al60 U10 3.190798 1_555
Al60 U11 3.199778 1_554
Al61 Al72 2.872316 1_555
Al61 Al74 2.872316 1_555
Al61 Ta1 2.908829 1_666
Al61 U11 3.190798 1_555
Al61 U10 3.199778 1_556
Al62 Ta6 2.755849 1_555
Al62 Al85 3.038503 1_455
Al62 Al68 3.051863 1_555
Al62 U2 3.068207 1_555
Al62 U8 3.419916 1_555
Al63 Ta7 2.755849 1_555
Al63 Al84 3.038503 1_655
Al63 Al65 3.051863 1_555
Al63 U5 3.068207 1_655
Al63 U9 3.419916 1_555
Al64 Ta2 2.755849 1_565
Al64 Al81 3.038503 1_555
Al64 Al74 3.051863 1_555
Al64 U8 3.068207 1_555
Al64 U0 3.419916 1_565
Al65 Ta7 2.755849 1_555
Al65 Al83 3.038503 1_655
Al65 U7 3.068207 1_655
Al65 U10 3.419916 1_555
Al66 Ta6 2.755849 1_555
Al66 Al7 2.877132 1_555
Al66 Al80 3.038503 1_545
Al66 Al77 3.051863 1_555
Al66 U6 3.068207 1_555
Al66 U11 3.419916 1_555
Al67 Ta3 2.755849 1_555
Al67 Al8 2.877132 1_555
Al67 Al79 3.038503 1_555
Al67 Al71 3.051863 1_555
Al67 U9 3.068207 1_555
Al67 U1 3.419916 1_555
Al68 Ta6 2.755849 1_555
Al68 Al82 3.038503 1_455
Al68 U4 3.068207 1_555
Al68 U11 3.419916 1_555
Al69 Ta7 2.755849 1_555
Al69 Al9 2.877132 1_555
Al69 Al78 3.038503 1_565
Al69 Al76 3.051863 1_555
Al69 U3 3.068207 1_565
Al69 U10 3.419916 1_555
Al70 Ta4 2.755849 1_555
Al70 Al77 3.038503 1_565
Al70 Al80 3.051863 1_555
Al70 U0 3.068207 1_565
Al70 U2 3.419916 1_555
Al71 Ta3 2.755849 1_555
Al71 Al8 2.877132 1_555
Al71 Al75 3.038503 1_555
Al71 U10 3.068207 1_555
Al71 U3 3.419916 1_555
Al72 Ta4 2.755849 1_655
Al72 Al74 3.038503 1_555
Al72 Al81 3.051863 1_555
Al72 U11 3.068207 1_555
Al72 U4 3.419916 1_655
Al73 Al8 2.721582 1_555
Al73 Ta5 2.755849 1_655
Al73 Al76 3.038503 1_545
Al73 Al78 3.051863 1_555
Al73 U1 3.068207 1_555
Al73 U5 3.419916 1_655
Al74 Ta2 2.755849 1_565
Al74 U11 3.068207 1_555
Al74 U6 3.419916 1_565
Al75 Al9 2.721582 1_555
Al75 Ta5 2.755849 1_555
Al75 Al79 3.051863 1_555
Al75 U10 3.068207 1_555
Al75 U7 3.419916 1_555
Al76 Ta7 2.755849 1_555
Al76 Al9 2.877132 1_555
Al76 U1 3.068207 1_565
Al76 U9 3.419916 1_555
Al77 Ta6 2.755849 1_555
Al77 U0 3.068207 1_555
Al77 U8 3.419916 1_555
Al78 Al8 2.721582 1_555
Al78 Ta5 2.755849 1_655
Al78 U3 3.068207 1_555
Al78 U7 3.419916 1_655
Al79 Al9 2.721582 1_555
Al79 Ta5 2.755849 1_555
Al79 U9 3.068207 1_555
Al79 U5 3.419916 1_555
Al80 Ta4 2.755849 1_555
Al80 U6 3.068207 1_565
Al80 U4 3.419916 1_555
Al81 Ta4 2.755849 1_655
Al81 U8 3.068207 1_555
Al81 U2 3.419916 1_655
Al82 Ta2 2.755849 1_555
Al82 Al85 3.051863 1_555
Al82 U4 3.068207 1_655
Al82 U6 3.419916 1_555
Al83 Ta3 2.755849 1_565
Al83 Al84 3.051863 1_555
Al83 U7 3.068207 1_555
Al83 U3 3.419916 1_565
Al84 Ta3 2.755849 1_565
Al84 U5 3.068207 1_555
Al84 U1 3.419916 1_565
Al85 Ta2 2.755849 1_555
Al85 U2 3.068207 1_655
Al85 U0 3.419916 1_555
