# generated using pymatgen
data_CaFe2(AsO5)2
_symmetry_space_group_name_H-M   'P 1'
_cell_length_a   7.63424500
_cell_length_b   9.07516548
_cell_length_c   11.99909500
_cell_angle_alpha   90.00000000
_cell_angle_beta   90.00000000
_cell_angle_gamma   114.87322815
_symmetry_Int_Tables_number   1
_chemical_formula_structural   CaFe2(AsO5)2
_chemical_formula_sum   'Ca4 Fe8 As8 O40'
_cell_volume   754.20887314
_cell_formula_units_Z   4
loop_
 _symmetry_equiv_pos_site_id
 _symmetry_equiv_pos_as_xyz
  1  'x, y, z'
loop_
 _atom_site_type_symbol
 _atom_site_label
 _atom_site_symmetry_multiplicity
 _atom_site_fract_x
 _atom_site_fract_y
 _atom_site_fract_z
 _atom_site_occupancy
  Ca  Ca0  1  0.00000000  0.00000000  0.25000000  1
  Ca  Ca1  1  0.00000000  0.00000000  0.75000000  1
  Ca  Ca2  1  0.50000000  0.50000000  0.50000000  1
  Ca  Ca3  1  0.00000000  0.50000000  0.00000000  1
  Fe  Fe0  1  0.24491300  0.75713100  0.36906800  1
  Fe  Fe1  1  0.75508700  0.24286900  0.36906800  1
  Fe  Fe2  1  0.48778200  0.24286900  0.13093200  1
  Fe  Fe3  1  0.51221800  0.75713100  0.13093200  1
  Fe  Fe4  1  0.75508700  0.24286900  0.63093200  1
  Fe  Fe5  1  0.24491300  0.75713100  0.63093200  1
  Fe  Fe6  1  0.51221800  0.75713100  0.86906800  1
  Fe  Fe7  1  0.48778200  0.24286900  0.86906800  1
  As  As0  1  0.30062900  0.08919700  0.50000000  1
  As  As1  1  0.69937100  0.91080300  0.50000000  1
  As  As2  1  0.21143200  0.91080300  0.00000000  1
  As  As3  1  0.78856800  0.08919700  0.00000000  1
  As  As4  1  0.21312300  0.42624600  0.25000000  1
  As  As5  1  0.78687700  0.57375400  0.25000000  1
  As  As6  1  0.78687700  0.57375400  0.75000000  1
  As  As7  1  0.21312300  0.42624600  0.75000000  1
  O  O0  1  0.78912100  0.03360200  0.38455000  1
  O  O1  1  0.21087900  0.96639800  0.38455000  1
  O  O2  1  0.75551900  0.96639800  0.11545000  1
  O  O3  1  0.24448100  0.03360200  0.11545000  1
  O  O4  1  0.21087900  0.96639800  0.61545000  1
  O  O5  1  0.78912100  0.03360200  0.61545000  1
  O  O6  1  0.24448100  0.03360200  0.88455000  1
  O  O7  1  0.75551900  0.96639800  0.88455000  1
  O  O8  1  0.55426200  0.16852100  0.50000000  1
  O  O9  1  0.44573800  0.83147900  0.50000000  1
  O  O10  1  0.38574100  0.83147900  0.00000000  1
  O  O11  1  0.61425900  0.16852100  0.00000000  1
  O  O12  1  0.23884800  0.24544600  0.50000000  1
  O  O13  1  0.76115200  0.75455400  0.50000000  1
  O  O14  1  0.99340200  0.75455400  0.00000000  1
  O  O15  1  0.00659800  0.24544600  0.00000000  1
  O  O16  1  0.97256700  0.29823900  0.25838300  1
  O  O17  1  0.02743300  0.70176100  0.25838300  1
  O  O18  1  0.67432700  0.70176100  0.24161700  1
  O  O19  1  0.32567300  0.29823900  0.24161700  1
  O  O20  1  0.02743300  0.70176100  0.74161700  1
  O  O21  1  0.97256700  0.29823900  0.74161700  1
  O  O22  1  0.32567300  0.29823900  0.75838300  1
  O  O23  1  0.67432700  0.70176100  0.75838300  1
  O  O24  1  0.29481200  0.55266200  0.36404400  1
  O  O25  1  0.70518800  0.44733800  0.36404400  1
  O  O26  1  0.74215000  0.44733800  0.13595600  1
  O  O27  1  0.25785000  0.55266200  0.13595600  1
  O  O28  1  0.70518800  0.44733800  0.63595600  1
  O  O29  1  0.29481200  0.55266200  0.63595600  1
  O  O30  1  0.25785000  0.55266200  0.86404400  1
  O  O31  1  0.74215000  0.44733800  0.86404400  1
  O  O32  1  0.91419300  0.33274000  0.50000000  1
  O  O33  1  0.08580700  0.66726000  0.50000000  1
  O  O34  1  0.58145300  0.66726000  0.00000000  1
  O  O35  1  0.41854700  0.33274000  0.00000000  1
  O  O36  1  0.42451800  0.84903600  0.25000000  1
  O  O37  1  0.57548200  0.15096400  0.25000000  1
  O  O38  1  0.57548200  0.15096400  0.75000000  1
  O  O39  1  0.42451800  0.84903600  0.75000000  1
loop_
_geom_bond_atom_site_label_1
_geom_bond_atom_site_label_2
_geom_bond_distance
_geom_bond_site_symmetry_2
Ca0 O3 2.388367 1_555
Ca0 O2 2.388367 1_445
Ca0 O1 2.388367 1_545
Ca0 O0 2.388367 1_455
Ca0 O16 2.802914 1_455
Ca0 O17 2.802914 1_545
Ca0 O19 2.802918 1_555
Ca0 O18 2.802918 1_445
Ca1 O7 2.388367 1_445
Ca1 O6 2.388367 1_555
Ca1 O5 2.388367 1_455
Ca1 O4 2.388367 1_545
Ca1 O21 2.802914 1_455
Ca1 O20 2.802914 1_545
Ca1 O22 2.802918 1_555
Ca1 O23 2.802918 1_445
Ca2 O12 2.331754 1_555
Ca2 O13 2.331754 1_555
Ca2 O29 2.444024 1_555
Ca2 O28 2.444024 1_555
Ca2 O24 2.444024 1_555
Ca2 O25 2.444024 1_555
Ca3 O14 2.331754 1_455
Ca3 O15 2.331754 1_555
Ca3 O27 2.444024 1_555
Ca3 O31 2.444024 1_454
Ca3 O26 2.444024 1_455
Ca3 O30 2.444024 1_554
Fe0 O36 1.911771 1_555
Fe0 O33 1.943053 1_555
Fe0 O17 2.017712 1_555
Fe0 O1 2.030718 1_555
Fe0 O24 2.046119 1_555
Fe0 O9 2.098532 1_555
Fe1 O37 1.911771 1_555
Fe1 O32 1.943053 1_555
Fe1 O16 2.017712 1_555
Fe1 O0 2.030718 1_555
Fe1 O25 2.046119 1_555
Fe1 O8 2.098532 1_555
Fe2 O37 1.911771 1_555
Fe2 O35 1.943053 1_555
Fe2 O19 2.017706 1_555
Fe2 O3 2.030718 1_555
Fe2 O26 2.046118 1_555
Fe2 O11 2.098532 1_555
Fe3 O36 1.911771 1_555
Fe3 O34 1.943053 1_555
Fe3 O18 2.017706 1_555
Fe3 O2 2.030718 1_555
Fe3 O27 2.046118 1_555
Fe3 O10 2.098532 1_555
Fe4 O38 1.911771 1_555
Fe4 O32 1.943053 1_555
Fe4 O21 2.017712 1_555
Fe4 O5 2.030718 1_555
Fe4 O28 2.046119 1_555
Fe4 O8 2.098532 1_555
Fe5 O39 1.911771 1_555
Fe5 O33 1.943053 1_555
Fe5 O20 2.017712 1_555
Fe5 O4 2.030718 1_555
Fe5 O29 2.046119 1_555
Fe5 O9 2.098532 1_555
Fe6 O39 1.911771 1_555
Fe6 O34 1.943053 1_556
Fe6 O23 2.017706 1_555
Fe6 O7 2.030718 1_555
Fe6 O30 2.046118 1_555
Fe6 O10 2.098532 1_556
Fe7 O38 1.911771 1_555
Fe7 O35 1.943053 1_556
Fe7 O22 2.017706 1_555
Fe7 O6 2.030718 1_555
Fe7 O31 2.046118 1_555
Fe7 O11 2.098532 1_556
As0 O12 1.672048 1_555
As0 O1 1.728614 1_545
As0 O4 1.728614 1_545
As0 O8 1.759230 1_555
As1 O13 1.672048 1_555
As1 O0 1.728614 1_565
As1 O5 1.728614 1_565
As1 O9 1.759230 1_555
As2 O14 1.672048 1_455
As2 O3 1.728614 1_565
As2 O6 1.728614 1_564
As2 O10 1.759230 1_555
As3 O15 1.672048 1_655
As3 O2 1.728614 1_545
As3 O7 1.728614 1_544
As3 O11 1.759230 1_555
As4 O16 1.713933 1_455
As4 O19 1.713939 1_555
As4 O24 1.725055 1_555
As4 O27 1.725055 1_555
As5 O17 1.713933 1_655
As5 O18 1.713939 1_555
As5 O25 1.725055 1_555
As5 O26 1.725055 1_555
As6 O20 1.713933 1_655
As6 O23 1.713939 1_555
As6 O28 1.725055 1_555
As6 O31 1.725055 1_555
As7 O21 1.713933 1_455
As7 O22 1.713939 1_555
As7 O29 1.725055 1_555
As7 O30 1.725055 1_555
