# generated using pymatgen
data_Li(FeO2)2
_symmetry_space_group_name_H-M   'P 1'
_cell_length_a   5.01223300
_cell_length_b   5.76404182
_cell_length_c   5.84685457
_cell_angle_alpha   119.19165317
_cell_angle_beta   90.23349141
_cell_angle_gamma   90.03048662
_symmetry_Int_Tables_number   1
_chemical_formula_structural   Li(FeO2)2
_chemical_formula_sum   'Li2 Fe4 O8'
_cell_volume   147.46402412
_cell_formula_units_Z   2
loop_
 _symmetry_equiv_pos_site_id
 _symmetry_equiv_pos_as_xyz
  1  'x, y, z'
loop_
 _atom_site_type_symbol
 _atom_site_label
 _atom_site_symmetry_multiplicity
 _atom_site_fract_x
 _atom_site_fract_y
 _atom_site_fract_z
 _atom_site_occupancy
  Li  Li0  1  0.48643300  0.49733300  0.53095500  1
  Li  Li1  1  0.01100400  0.50389600  0.22246500  1
  Fe  Fe0  1  0.50341200  0.96441200  0.22982800  1
  Fe  Fe1  1  0.49714300  0.01856800  0.76027000  1
  Fe  Fe2  1  0.00156300  0.97374600  0.98296200  1
  Fe  Fe3  1  0.99471700  0.05017000  0.52314300  1
  O  O0  1  0.17752600  0.19308600  0.31799600  1
  O  O1  1  0.16660900  0.20974000  0.87418300  1
  O  O2  1  0.33945900  0.80087900  0.42457600  1
  O  O3  1  0.32866500  0.78324700  0.86656500  1
  O  O4  1  0.67696500  0.18947400  0.09629700  1
  O  O5  1  0.64955400  0.22512800  0.61635400  1
  O  O6  1  0.84544600  0.78900800  0.15212800  1
  O  O7  1  0.82127200  0.80131800  0.65214600  1
loop_
_geom_bond_atom_site_label_1
_geom_bond_atom_site_label_2
_geom_bond_distance
_geom_bond_site_symmetry_2
Li0 O3 2.012782 1_555
Li0 O5 2.035140 1_555
Li0 O0 2.207819 1_555
Li0 O2 2.247223 1_555
Li0 O7 2.272656 1_555
Li0 O4 2.478314 1_555
Li1 O6 2.053390 1_455
Li1 O1 2.067900 1_554
Li1 O2 2.246098 1_555
Li1 O0 2.278613 1_555
Li1 O4 2.305330 1_455
Li1 O7 2.444355 1_455
Fe0 O6 1.930736 1_555
Fe0 O2 1.978424 1_555
Fe0 O0 2.004368 1_565
Fe0 O4 2.010339 1_565
Fe0 O3 2.046731 1_554
Fe0 O5 2.138869 1_565
Fe1 O2 1.906679 1_545
Fe1 O5 1.921131 1_555
Fe1 O1 1.922904 1_555
Fe1 O4 1.933782 1_556
Fe1 O3 1.940241 1_545
Fe1 O7 1.960976 1_545
Fe2 O3 1.907595 1_555
Fe2 O7 1.911865 1_455
Fe2 O6 1.938369 1_456
Fe2 O0 1.944851 1_566
Fe2 O1 1.945826 1_565
Fe2 O4 1.959461 1_466
Fe3 O5 1.944343 1_555
Fe3 O0 1.982143 1_655
Fe3 O1 1.985999 1_655
Fe3 O6 2.081290 1_545
Fe3 O7 2.107496 1_545
Fe3 O2 2.141397 1_645
