# generated using pymatgen
data_PuB4Mo
_symmetry_space_group_name_H-M   'P 1'
_cell_length_a   3.63096700
_cell_length_b   6.01321400
_cell_length_c   11.68605300
_cell_angle_alpha   90.00000000
_cell_angle_beta   90.00000000
_cell_angle_gamma   90.00000000
_symmetry_Int_Tables_number   1
_chemical_formula_structural   PuB4Mo
_chemical_formula_sum   'Pu4 B16 Mo4'
_cell_volume   255.15072894
_cell_formula_units_Z   4
loop_
 _symmetry_equiv_pos_site_id
 _symmetry_equiv_pos_as_xyz
  1  'x, y, z'
loop_
 _atom_site_type_symbol
 _atom_site_label
 _atom_site_symmetry_multiplicity
 _atom_site_fract_x
 _atom_site_fract_y
 _atom_site_fract_z
 _atom_site_occupancy
  Pu  Pu0  1  0.00000000  0.62524300  0.34936500  1
  Pu  Pu1  1  0.00000000  0.37475700  0.65063500  1
  Pu  Pu2  1  0.00000000  0.12524300  0.15063500  1
  Pu  Pu3  1  0.00000000  0.87475700  0.84936500  1
  B  B0  1  0.50000000  0.78571700  0.18706400  1
  B  B1  1  0.50000000  0.21428300  0.81293600  1
  B  B2  1  0.50000000  0.28571700  0.31293600  1
  B  B3  1  0.50000000  0.71428300  0.68706400  1
  B  B4  1  0.50000000  0.86670200  0.03296400  1
  B  B5  1  0.50000000  0.13329800  0.96703600  1
  B  B6  1  0.50000000  0.36670200  0.46703600  1
  B  B7  1  0.50000000  0.63329800  0.53296400  1
  B  B8  1  0.50000000  0.88390100  0.45305400  1
  B  B9  1  0.50000000  0.11609900  0.54694600  1
  B  B10  1  0.50000000  0.38390100  0.04694600  1
  B  B11  1  0.50000000  0.61609900  0.95305400  1
  B  B12  1  0.50000000  0.97253200  0.30757700  1
  B  B13  1  0.50000000  0.02746800  0.69242300  1
  B  B14  1  0.50000000  0.47253200  0.19242300  1
  B  B15  1  0.50000000  0.52746800  0.80757700  1
  Mo  Mo0  1  0.00000000  0.63111300  0.08553000  1
  Mo  Mo1  1  0.00000000  0.36888700  0.91447000  1
  Mo  Mo2  1  0.00000000  0.13111300  0.41447000  1
  Mo  Mo3  1  0.00000000  0.86888700  0.58553000  1
loop_
_geom_bond_atom_site_label_1
_geom_bond_atom_site_label_2
_geom_bond_distance
_geom_bond_site_symmetry_2
B0 B12 1.801473 1_555
B0 B4 1.865504 1_555
B0 B14 1.884289 1_555
B0 Mo0 2.359686 1_555
B0 Mo0 2.359686 1_655
B0 Pu2 2.765052 1_565
B0 Pu2 2.765052 1_665
B0 Pu0 2.797222 1_555
B0 Pu0 2.797222 1_655
B1 B13 1.801473 1_555
B1 B5 1.865504 1_555
B1 B15 1.884289 1_555
B1 Mo1 2.359686 1_655
B1 Mo1 2.359686 1_555
B1 Pu3 2.765052 1_645
B1 Pu3 2.765052 1_545
B1 Pu1 2.797222 1_555
B1 Pu1 2.797222 1_655
B2 B6 1.865504 1_555
B2 Mo2 2.359686 1_655
B2 Mo2 2.359686 1_555
B2 Pu0 2.765052 1_655
B2 Pu0 2.765052 1_555
B2 Pu2 2.797222 1_555
B2 Pu2 2.797222 1_655
B3 B7 1.865504 1_555
B3 Mo3 2.359686 1_655
B3 Mo3 2.359686 1_555
B3 Pu1 2.765052 1_555
B3 Pu1 2.765052 1_655
B3 Pu3 2.797222 1_555
B3 Pu3 2.797222 1_655
B4 B5 1.778623 1_564
B4 Mo0 2.383321 1_655
B4 Mo0 2.383321 1_555
B4 Pu2 2.757514 1_565
B4 Pu2 2.757514 1_665
B4 Pu3 2.810996 1_554
B4 Pu3 2.810996 1_654
B5 Mo1 2.383321 1_555
B5 Mo1 2.383321 1_655
B5 Pu3 2.757514 1_645
B5 Pu3 2.757514 1_545
B5 Pu2 2.810996 1_656
B5 Pu2 2.810996 1_556
B6 B9 1.772817 1_555
B6 B7 1.778623 1_555
B6 Mo2 2.383321 1_555
B6 Mo2 2.383321 1_655
B6 Pu0 2.757514 1_655
B6 Pu0 2.757514 1_555
B6 Pu1 2.810996 1_555
B6 Pu1 2.810996 1_655
B7 B8 1.772817 1_555
B7 Mo3 2.383321 1_655
B7 Mo3 2.383321 1_555
B7 Pu1 2.757514 1_555
B7 Pu1 2.757514 1_655
B7 Pu0 2.810996 1_655
B7 Pu0 2.810996 1_555
B8 B9 1.775792 1_565
B8 Mo3 2.387637 1_655
B8 Mo3 2.387637 1_555
B8 Mo2 2.389369 1_665
B8 Mo2 2.389369 1_565
B8 Pu0 2.680186 1_555
B8 Pu0 2.680186 1_655
B9 Mo2 2.387637 1_655
B9 Mo2 2.387637 1_555
B9 Mo3 2.389369 1_645
B9 Mo3 2.389369 1_545
B9 Pu1 2.680186 1_555
B9 Pu1 2.680186 1_655
B10 B5 1.772817 1_554
B10 B11 1.775792 1_554
B10 B14 1.781634 1_555
B10 Mo1 2.387637 1_654
B10 Mo1 2.387637 1_554
B10 Mo0 2.389369 1_655
B10 Mo0 2.389369 1_555
B10 Pu2 2.680186 1_555
B10 Pu2 2.680186 1_655
B11 B4 1.772817 1_556
B11 B15 1.781634 1_555
B11 Mo0 2.387637 1_656
B11 Mo0 2.387637 1_556
B11 Mo1 2.389369 1_655
B11 Mo1 2.389369 1_555
B11 Pu3 2.680186 1_555
B11 Pu3 2.680186 1_655
B12 B8 1.781634 1_555
B12 B2 1.884289 1_565
B12 Mo2 2.401186 1_665
B12 Mo2 2.401186 1_565
B12 Pu2 2.739142 1_665
B12 Pu2 2.739142 1_565
B12 Pu0 2.809901 1_655
B12 Pu0 2.809901 1_555
B13 B9 1.781634 1_555
B13 B3 1.884289 1_545
B13 Mo3 2.401186 1_545
B13 Mo3 2.401186 1_645
B13 Pu3 2.739142 1_545
B13 Pu3 2.739142 1_645
B13 Pu1 2.809901 1_555
B13 Pu1 2.809901 1_655
B14 B2 1.801473 1_555
B14 Mo0 2.401186 1_555
B14 Mo0 2.401186 1_655
B14 Pu0 2.739142 1_555
B14 Pu0 2.739142 1_655
B14 Pu2 2.809901 1_555
B14 Pu2 2.809901 1_655
B15 B3 1.801473 1_555
B15 Mo1 2.401186 1_555
B15 Mo1 2.401186 1_655
B15 Pu1 2.739142 1_555
B15 Pu1 2.739142 1_655
B15 Pu3 2.809901 1_555
B15 Pu3 2.809901 1_655
Mo0 Mo1 2.546062 1_554
Mo0 Pu2 3.067169 1_565
Mo0 Pu0 3.083392 1_555
Mo0 Pu3 3.124607 1_554
Mo0 Pu2 3.135607 1_555
Mo1 Pu3 3.067169 1_545
Mo1 Pu1 3.083392 1_555
Mo1 Pu2 3.124607 1_556
Mo1 Pu3 3.135607 1_555
Mo2 Mo3 2.546062 1_545
Mo2 Pu0 3.067169 1_555
Mo2 Pu2 3.083392 1_555
Mo2 Pu1 3.124607 1_555
Mo2 Pu0 3.135607 1_545
Mo3 Pu1 3.067169 1_555
Mo3 Pu3 3.083392 1_555
Mo3 Pu0 3.124607 1_555
Mo3 Pu1 3.135607 1_565
