# generated using pymatgen
data_Li4MnCo2O7
_symmetry_space_group_name_H-M   'P 1'
_cell_length_a   5.13233503
_cell_length_b   5.13233503
_cell_length_c   17.95276985
_cell_angle_alpha   83.62864609
_cell_angle_beta   83.62864609
_cell_angle_gamma   32.59724149
_symmetry_Int_Tables_number   1
_chemical_formula_structural   Li4MnCo2O7
_chemical_formula_sum   'Li8 Mn2 Co4 O14'
_cell_volume   253.05241073
_cell_formula_units_Z   2
loop_
 _symmetry_equiv_pos_site_id
 _symmetry_equiv_pos_as_xyz
  1  'x, y, z'
loop_
 _atom_site_type_symbol
 _atom_site_label
 _atom_site_symmetry_multiplicity
 _atom_site_fract_x
 _atom_site_fract_y
 _atom_site_fract_z
 _atom_site_occupancy
  Li  Li0  1  0.35337900  0.35337900  0.29204600  1
  Li  Li1  1  0.79419300  0.79419300  0.43735500  1
  Li  Li2  1  0.20580700  0.20580700  0.56264500  1
  Li  Li3  1  0.64662100  0.64662100  0.70795400  1
  Li  Li4  1  0.06826900  0.06826900  0.85951700  1
  Li  Li5  1  0.50000000  0.50000000  0.00000000  1
  Li  Li6  1  0.93173100  0.93173100  0.14048300  1
  Li  Li7  1  0.50000000  0.50000000  0.50000000  1
  Mn  Mn0  1  0.63996200  0.63996200  0.21463100  1
  Mn  Mn1  1  0.36003800  0.36003800  0.78536900  1
  Co  Co0  1  0.07482700  0.07482700  0.37021200  1
  Co  Co1  1  0.92517300  0.92517300  0.62978800  1
  Co  Co2  1  0.78360100  0.78360100  0.93060600  1
  Co  Co3  1  0.21639900  0.21639900  0.06939400  1
  O  O0  1  0.26853900  0.26853900  0.18138300  1
  O  O1  1  0.69781100  0.69781100  0.31245000  1
  O  O2  1  0.14523400  0.14523400  0.45711500  1
  O  O3  1  0.55861400  0.55861400  0.61254100  1
  O  O4  1  0.98586400  0.98586400  0.75729000  1
  O  O5  1  0.41779900  0.41779900  0.88770100  1
  O  O6  1  0.85194500  0.85194500  0.03473200  1
  O  O7  1  0.44138600  0.44138600  0.38745900  1
  O  O8  1  0.85476600  0.85476600  0.54288500  1
  O  O9  1  0.30218900  0.30218900  0.68755000  1
  O  O10  1  0.73146100  0.73146100  0.81861700  1
  O  O11  1  0.14805500  0.14805500  0.96526800  1
  O  O12  1  0.58220100  0.58220100  0.11229900  1
  O  O13  1  0.01413600  0.01413600  0.24271000  1
loop_
_geom_bond_atom_site_label_1
_geom_bond_atom_site_label_2
_geom_bond_distance
_geom_bond_site_symmetry_2
Li0 O7 2.007323 1_555
Li0 O1 2.104304 1_545
Li0 O1 2.104304 1_455
Li0 O0 2.242689 1_555
Li0 O13 2.245702 1_565
Li0 O13 2.245702 1_655
Li1 O8 2.051079 1_555
Li1 O2 2.057630 1_565
Li1 O2 2.057630 1_655
Li1 O7 2.163248 1_655
Li1 O7 2.163248 1_565
Li1 O1 2.534240 1_555
Li2 O2 2.051079 1_555
Li2 O8 2.057630 1_455
Li2 O8 2.057630 1_545
Li2 O3 2.163248 1_545
Li2 O3 2.163248 1_455
Li2 O9 2.534240 1_555
Li3 O3 2.007323 1_555
Li3 O9 2.104304 1_655
Li3 O9 2.104304 1_565
Li3 O10 2.242689 1_555
Li3 O4 2.245702 1_545
Li3 O4 2.245702 1_455
Li4 O5 2.086831 1_455
Li4 O5 2.086831 1_545
Li4 O4 2.090894 1_445
Li4 O11 2.137142 1_555
Li4 O10 2.219412 1_455
Li4 O10 2.219412 1_545
Li5 O6 2.093036 1_455
Li5 O6 2.093036 1_545
Li5 O11 2.093036 1_564
Li5 O11 2.093036 1_654
Li5 O12 2.257872 1_555
Li5 O5 2.257872 1_554
Li6 O12 2.086831 1_655
Li6 O12 2.086831 1_565
Li6 O13 2.090894 1_665
Li6 O6 2.137142 1_555
Li6 O0 2.219412 1_655
Li6 O0 2.219412 1_565
Li7 O2 2.111877 1_655
Li7 O2 2.111877 1_565
Li7 O8 2.111877 1_545
Li7 O8 2.111877 1_455
Li7 O3 2.164573 1_555
Li7 O7 2.164573 1_555
Mn0 O1 1.907940 1_555
Mn0 O13 1.928987 1_565
Mn0 O13 1.928987 1_655
Mn0 O0 1.964879 1_655
Mn0 O0 1.964879 1_565
Mn0 O12 1.985116 1_555
Mn1 O9 1.907940 1_555
Mn1 O4 1.928987 1_455
Mn1 O4 1.928987 1_545
Mn1 O10 1.964879 1_455
Mn1 O10 1.964879 1_545
Mn1 O5 1.985116 1_555
Co0 O2 1.779180 1_555
Co0 O7 1.950579 1_455
Co0 O7 1.950579 1_545
Co0 O1 2.080275 1_545
Co0 O1 2.080275 1_455
Co0 O13 2.431791 1_555
Co1 O8 1.779180 1_555
Co1 O3 1.950579 1_655
Co1 O3 1.950579 1_565
Co1 O9 2.080275 1_655
Co1 O9 2.080275 1_565
Co1 O4 2.431791 1_555
Co2 O11 2.013218 1_655
Co2 O11 2.013218 1_565
Co2 O5 2.044626 1_655
Co2 O5 2.044626 1_565
Co2 O6 2.058861 1_556
Co2 O10 2.131867 1_555
Co3 O6 2.013218 1_455
Co3 O6 2.013218 1_545
Co3 O12 2.044626 1_455
Co3 O12 2.044626 1_545
Co3 O11 2.058861 1_554
Co3 O0 2.131867 1_555
