# generated using pymatgen
data_Li5Mn2CoO8
_symmetry_space_group_name_H-M   'P 1'
_cell_length_a   2.89160423
_cell_length_b   19.18358103
_cell_length_c   5.07506928
_cell_angle_alpha   94.20955587
_cell_angle_beta   89.87568777
_cell_angle_gamma   89.41545515
_symmetry_Int_Tables_number   1
_chemical_formula_structural   Li5Mn2CoO8
_chemical_formula_sum   'Li10 Mn4 Co2 O16'
_cell_volume   280.74552607
_cell_formula_units_Z   2
loop_
 _symmetry_equiv_pos_site_id
 _symmetry_equiv_pos_as_xyz
  1  'x, y, z'
loop_
 _atom_site_type_symbol
 _atom_site_label
 _atom_site_symmetry_multiplicity
 _atom_site_fract_x
 _atom_site_fract_y
 _atom_site_fract_z
 _atom_site_occupancy
  Li  Li0  1  0.99743400  0.12506700  0.37177700  1
  Li  Li1  1  0.00260200  0.62491900  0.87837200  1
  Li  Li2  1  0.00006500  0.37497900  0.12504700  1
  Li  Li3  1  0.00001300  0.87502000  0.62513200  1
  Li  Li4  1  0.49183200  0.12645300  0.87208400  1
  Li  Li5  1  0.50814700  0.62355600  0.37793100  1
  Li  Li6  1  0.49030500  0.24601800  0.23798700  1
  Li  Li7  1  0.50356900  0.74377800  0.74693100  1
  Li  Li8  1  0.49633400  0.00624000  0.50301000  1
  Li  Li9  1  0.50973600  0.50398000  0.01212700  1
  Mn  Mn0  1  0.01909100  0.50259800  0.49933200  1
  Mn  Mn1  1  0.98093700  0.24731400  0.75068900  1
  Mn  Mn2  1  0.99379000  0.00385500  0.97771600  1
  Mn  Mn3  1  0.00621300  0.74618300  0.27202500  1
  Co  Co0  1  0.50001100  0.37497900  0.62503900  1
  Co  Co1  1  0.49997800  0.87503400  0.12505400  1
  O  O0  1  0.48974400  0.05435300  0.16042900  1
  O  O1  1  0.51504500  0.55441000  0.67383300  1
  O  O2  1  0.48491300  0.19554400  0.57619900  1
  O  O3  1  0.51027700  0.69568100  0.08941700  1
  O  O4  1  0.99090000  0.19515200  0.03640200  1
  O  O5  1  0.00792000  0.69159400  0.54966700  1
  O  O6  1  0.99204000  0.05843800  0.70018700  1
  O  O7  1  0.00911400  0.55482500  0.21367200  1
  O  O8  1  0.47936700  0.30973600  0.90140100  1
  O  O9  1  0.50346800  0.80621800  0.43012100  1
  O  O10  1  0.52063200  0.44022100  0.34861300  1
  O  O11  1  0.49654000  0.94381300  0.81978500  1
  O  O12  1  0.05130700  0.43460600  0.78968800  1
  O  O13  1  0.99572800  0.93332500  0.26966500  1
  O  O14  1  0.94872300  0.31535200  0.46033500  1
  O  O15  1  0.00422600  0.81675900  0.98033200  1
loop_
_geom_bond_atom_site_label_1
_geom_bond_atom_site_label_2
_geom_bond_distance
_geom_bond_site_symmetry_2
Li0 O6 2.173694 1_555
Li0 O2 2.174970 1_655
Li0 O0 2.181193 1_655
Li0 O2 2.201612 1_555
Li0 O0 2.231523 1_555
Li0 O4 2.245115 1_555
Li1 O5 2.175472 1_555
Li1 O1 2.175739 1_455
Li1 O3 2.181071 1_456
Li1 O1 2.202065 1_555
Li1 O3 2.231356 1_556
Li1 O7 2.244922 1_556
Li2 O14 2.124629 1_455
Li2 O12 2.124911 1_554
Li2 O8 2.127168 1_554
Li2 O10 2.127203 1_455
Li2 O10 2.226435 1_555
Li2 O8 2.226894 1_454
Li3 O11 2.144795 1_455
Li3 O9 2.145612 1_555
Li3 O11 2.152284 1_555
Li3 O9 2.153176 1_455
Li3 O15 2.189635 1_555
Li3 O13 2.191284 1_455
Li4 O2 2.074564 1_555
Li4 O4 2.079634 1_456
Li4 O6 2.084342 1_555
Li4 O0 2.086105 1_556
Li4 O4 2.097025 1_556
Li4 O6 2.104503 1_455
Li5 O1 2.075360 1_555
Li5 O7 2.079965 1_655
Li5 O5 2.084337 1_555
Li5 O3 2.087093 1_555
Li5 O7 2.097221 1_555
Li5 O5 2.104426 1_655
Li6 O4 1.977962 1_555
Li6 O4 1.993187 1_455
Li6 O2 2.031792 1_555
Li6 O14 2.149813 1_555
Li6 O8 2.172334 1_554
Li6 O14 2.285700 1_455
Li7 O5 1.986681 1_555
Li7 O5 1.986967 1_655
Li7 O3 2.026834 1_556
Li7 O9 2.074281 1_555
Li7 O15 2.270666 1_555
Li7 O15 2.294423 1_655
Li8 O6 1.986722 1_555
Li8 O6 1.986765 1_455
Li8 O0 2.027420 1_555
Li8 O11 2.073976 1_545
Li8 O13 2.269900 1_545
Li8 O13 2.293462 1_445
Li9 O7 1.977741 1_555
Li9 O7 1.992848 1_655
Li9 O1 2.031701 1_554
Li9 O12 2.150504 1_554
Li9 O10 2.172401 1_555
Li9 O12 2.286300 1_654
Mn0 O7 1.821875 1_555
Mn0 O1 1.931874 1_455
Mn0 O1 1.932416 1_555
Mn0 O10 1.986359 1_555
Mn0 O10 2.000013 1_455
Mn0 O12 2.040018 1_555
Mn1 O4 1.821341 1_556
Mn1 O2 1.931318 1_655
Mn1 O2 1.932150 1_555
Mn1 O8 1.986897 1_555
Mn1 O8 2.000439 1_655
Mn1 O14 2.040620 1_555
Mn2 O6 1.815679 1_555
Mn2 O0 1.938054 1_556
Mn2 O0 1.938346 1_656
Mn2 O11 1.976804 1_645
Mn2 O11 1.984889 1_545
Mn2 O13 2.078509 1_546
Mn3 O5 1.816221 1_555
Mn3 O3 1.937893 1_555
Mn3 O3 1.938107 1_455
Mn3 O9 1.977023 1_455
Mn3 O9 1.985128 1_555
Mn3 O15 2.078142 1_554
Co0 O12 1.874775 1_555
Co0 O14 1.874902 1_555
Co0 O8 1.948356 1_555
Co0 O10 1.948589 1_555
Co0 O12 2.109636 1_655
Co0 O14 2.109718 1_455
Co1 O13 1.938221 1_455
Co1 O15 1.938239 1_654
Co1 O13 1.939281 1_555
Co1 O15 1.939305 1_554
Co1 O9 2.107073 1_555
Co1 O11 2.107391 1_554
