# generated using pymatgen
data_Mg3Ga
_symmetry_space_group_name_H-M   'P 1'
_cell_length_a   6.10735260
_cell_length_b   6.10735260
_cell_length_c   4.91633686
_cell_angle_alpha   90.00000000
_cell_angle_beta   90.00000000
_cell_angle_gamma   120.00000285
_symmetry_Int_Tables_number   1
_chemical_formula_structural   Mg3Ga
_chemical_formula_sum   'Mg6 Ga2'
_cell_volume   158.81014431
_cell_formula_units_Z   2
loop_
 _symmetry_equiv_pos_site_id
 _symmetry_equiv_pos_as_xyz
  1  'x, y, z'
loop_
 _atom_site_type_symbol
 _atom_site_label
 _atom_site_symmetry_multiplicity
 _atom_site_fract_x
 _atom_site_fract_y
 _atom_site_fract_z
 _atom_site_occupancy
  Mg  Mg0  1  0.66062792  0.83031446  0.75000000  1
  Mg  Mg1  1  0.16968554  0.33937208  0.75000000  1
  Mg  Mg2  1  0.16968554  0.83031446  0.75000000  1
  Mg  Mg3  1  0.83031446  0.66062792  0.25000000  1
  Mg  Mg4  1  0.83031446  0.16968554  0.25000000  1
  Mg  Mg5  1  0.33937208  0.16968554  0.25000000  1
  Ga  Ga0  1  0.66666700  0.33333300  0.75000000  1
  Ga  Ga1  1  0.33333300  0.66666700  0.25000000  1
loop_
_geom_bond_atom_site_label_1
_geom_bond_atom_site_label_2
_geom_bond_distance
_geom_bond_site_symmetry_2
Mg0 Mg1 2.998358 1_555
Mg0 Mg2 2.998358 1_555
Mg0 Mg4 3.043769 1_566
Mg0 Mg4 3.043769 1_565
Mg0 Mg3 3.043775 1_556
Mg0 Mg3 3.043775 1_555
Mg0 Mg1 3.108994 1_665
Mg0 Mg2 3.108994 1_655
Mg1 Mg2 2.998358 1_555
Mg1 Mg4 3.043769 1_455
Mg1 Mg4 3.043769 1_456
Mg1 Mg5 3.043775 1_556
Mg1 Mg5 3.043775 1_555
Mg1 Mg2 3.108994 1_545
Mg2 Mg5 3.043769 1_565
Mg2 Mg5 3.043769 1_566
Mg2 Mg3 3.043769 1_455
Mg2 Mg3 3.043769 1_456
Mg3 Mg5 2.998358 1_555
Mg3 Mg4 2.998358 1_555
Mg3 Mg5 3.108994 1_665
Mg3 Mg4 3.108994 1_565
Mg4 Mg5 2.998358 1_555
Mg4 Mg5 3.108994 1_655
Ga0 Mg5 3.006544 1_556
Ga0 Mg3 3.006544 1_556
Ga0 Mg5 3.006544 1_555
Ga0 Mg3 3.006544 1_555
Ga0 Mg4 3.006544 1_555
Ga0 Mg4 3.006544 1_556
Ga0 Mg1 3.053837 1_655
Ga0 Mg0 3.053837 1_545
Ga0 Mg2 3.053843 1_655
Ga0 Mg2 3.053843 1_545
Ga0 Mg1 3.053849 1_555
Ga0 Mg0 3.053849 1_555
Ga1 Mg0 3.006544 1_554
Ga1 Mg0 3.006544 1_555
Ga1 Mg1 3.006544 1_554
Ga1 Mg1 3.006544 1_555
Ga1 Mg2 3.006544 1_555
Ga1 Mg2 3.006544 1_554
Ga1 Mg5 3.053837 1_565
Ga1 Mg3 3.053837 1_455
Ga1 Mg4 3.053843 1_565
Ga1 Mg4 3.053843 1_455
Ga1 Mg3 3.053849 1_555
Ga1 Mg5 3.053849 1_555
