# generated using pymatgen
data_RbEr(MoO4)2
_symmetry_space_group_name_H-M   'P 1'
_cell_length_a   5.12775200
_cell_length_b   8.15291500
_cell_length_c   19.03669300
_cell_angle_alpha   90.00000000
_cell_angle_beta   90.00000000
_cell_angle_gamma   90.00000000
_symmetry_Int_Tables_number   1
_chemical_formula_structural   RbEr(MoO4)2
_chemical_formula_sum   'Rb4 Er4 Mo8 O32'
_cell_volume   795.85038993
_cell_formula_units_Z   4
loop_
 _symmetry_equiv_pos_site_id
 _symmetry_equiv_pos_as_xyz
  1  'x, y, z'
loop_
 _atom_site_type_symbol
 _atom_site_label
 _atom_site_symmetry_multiplicity
 _atom_site_fract_x
 _atom_site_fract_y
 _atom_site_fract_z
 _atom_site_occupancy
  Rb  Rb0  1  0.00000000  0.75000000  0.77102300  1
  Rb  Rb1  1  0.00000000  0.25000000  0.22897700  1
  Rb  Rb2  1  0.50000000  0.25000000  0.72897700  1
  Rb  Rb3  1  0.50000000  0.75000000  0.27102300  1
  Er  Er0  1  0.00000000  0.75000000  0.00639400  1
  Er  Er1  1  0.00000000  0.25000000  0.99360600  1
  Er  Er2  1  0.50000000  0.25000000  0.49360600  1
  Er  Er3  1  0.50000000  0.75000000  0.50639400  1
  Mo  Mo0  1  0.02399500  0.51556000  0.40227500  1
  Mo  Mo1  1  0.97600500  0.48444000  0.59772500  1
  Mo  Mo2  1  0.47600500  0.01556000  0.09772500  1
  Mo  Mo3  1  0.97600500  0.98444000  0.40227500  1
  Mo  Mo4  1  0.52399500  0.98444000  0.90227500  1
  Mo  Mo5  1  0.02399500  0.01556000  0.59772500  1
  Mo  Mo6  1  0.52399500  0.48444000  0.09772500  1
  Mo  Mo7  1  0.47600500  0.51556000  0.90227500  1
  O  O0  1  0.09271300  0.97485100  0.31590900  1
  O  O1  1  0.90728700  0.02514900  0.68409100  1
  O  O2  1  0.40728700  0.47485100  0.18409100  1
  O  O3  1  0.90728700  0.52514900  0.31590900  1
  O  O4  1  0.59271300  0.52514900  0.81590900  1
  O  O5  1  0.09271300  0.47485100  0.68409100  1
  O  O6  1  0.59271300  0.02514900  0.18409100  1
  O  O7  1  0.40728700  0.97485100  0.81590900  1
  O  O8  1  0.26539900  0.83879800  0.09522700  1
  O  O9  1  0.73460100  0.16120200  0.90477300  1
  O  O10  1  0.23460100  0.33879800  0.40477300  1
  O  O11  1  0.73460100  0.66120200  0.09522700  1
  O  O12  1  0.76539900  0.66120200  0.59522700  1
  O  O13  1  0.26539900  0.33879800  0.90477300  1
  O  O14  1  0.76539900  0.16120200  0.40477300  1
  O  O15  1  0.23460100  0.83879800  0.59522700  1
  O  O16  1  0.24607400  0.50606300  0.03516600  1
  O  O17  1  0.75392600  0.49393700  0.96483400  1
  O  O18  1  0.25392600  0.00606300  0.46483400  1
  O  O19  1  0.75392600  0.99393700  0.03516600  1
  O  O20  1  0.74607400  0.99393700  0.53516600  1
  O  O21  1  0.24607400  0.00606300  0.96483400  1
  O  O22  1  0.74607400  0.49393700  0.46483400  1
  O  O23  1  0.25392600  0.50606300  0.53516600  1
  O  O24  1  0.24351100  0.68945000  0.41272100  1
  O  O25  1  0.75648900  0.31055000  0.58727900  1
  O  O26  1  0.25648900  0.18945000  0.08727900  1
  O  O27  1  0.75648900  0.81055000  0.41272100  1
  O  O28  1  0.74351100  0.81055000  0.91272100  1
  O  O29  1  0.24351100  0.18945000  0.58727900  1
  O  O30  1  0.74351100  0.31055000  0.08727900  1
  O  O31  1  0.25648900  0.68945000  0.91272100  1
loop_
_geom_bond_atom_site_label_1
_geom_bond_atom_site_label_2
_geom_bond_distance
_geom_bond_site_symmetry_2
Er0 O28 2.270104 1_454
Er0 O31 2.270104 1_554
Er0 O8 2.288219 1_555
Er0 O11 2.288219 1_455
Er0 O19 2.418155 1_455
Er0 O16 2.418155 1_555
Er0 O17 2.564453 1_454
Er0 O21 2.564453 1_564
Er1 O30 2.270104 1_456
Er1 O26 2.270104 1_556
Er1 O9 2.288219 1_455
Er1 O13 2.288219 1_555
Er1 O17 2.418155 1_455
Er1 O21 2.418155 1_555
Er1 O19 2.564453 1_446
Er1 O16 2.564453 1_556
Er2 O25 2.270104 1_555
Er2 O29 2.270104 1_555
Er2 O14 2.288219 1_555
Er2 O10 2.288219 1_555
Er2 O18 2.418155 1_555
Er2 O22 2.418155 1_555
Er2 O20 2.564453 1_545
Er2 O23 2.564453 1_555
Er3 O27 2.270104 1_555
Er3 O24 2.270104 1_555
Er3 O15 2.288219 1_555
Er3 O12 2.288219 1_555
Er3 O20 2.418155 1_555
Er3 O23 2.418155 1_555
Er3 O18 2.564453 1_565
Er3 O22 2.564453 1_555
Mo0 O3 1.751398 1_455
Mo0 O10 1.801490 1_555
Mo0 O24 1.821119 1_555
Mo0 O22 1.865556 1_455
Mo1 O5 1.751398 1_655
Mo1 O12 1.801490 1_555
Mo1 O25 1.821119 1_555
Mo1 O23 1.865556 1_655
Mo2 O6 1.751398 1_555
Mo2 O8 1.801490 1_545
Mo2 O26 1.821119 1_555
Mo2 O19 1.865556 1_545
Mo3 O0 1.751398 1_655
Mo3 O14 1.801490 1_565
Mo3 O27 1.821119 1_555
Mo3 O18 1.865556 1_665
Mo4 O7 1.751398 1_555
Mo4 O9 1.801490 1_565
Mo4 O28 1.821119 1_555
Mo4 O21 1.865556 1_565
Mo5 O1 1.751398 1_455
Mo5 O15 1.801490 1_545
Mo5 O29 1.821119 1_555
Mo5 O20 1.865556 1_445
Mo6 O2 1.751398 1_555
Mo6 O11 1.801490 1_555
Mo6 O30 1.821119 1_555
Mo6 O16 1.865556 1_555
Mo7 O4 1.751398 1_555
Mo7 O13 1.801490 1_555
Mo7 O31 1.821119 1_555
Mo7 O17 1.865556 1_555
O0 Rb1 2.827887 1_565
O0 Rb3 2.907305 1_555
O1 Rb0 2.827887 1_645
O1 Rb2 2.907305 1_555
O2 Rb3 2.827887 1_555
O2 Rb1 2.907305 1_555
O3 Rb1 2.827887 1_655
O3 Rb3 2.907305 1_555
O4 Rb2 2.827887 1_555
O4 Rb0 2.907305 1_655
O5 Rb0 2.827887 1_555
O5 Rb2 2.907305 1_555
O6 Rb3 2.827887 1_545
O6 Rb1 2.907305 1_655
O7 Rb2 2.827887 1_565
O7 Rb0 2.907305 1_555
O24 Rb3 3.041345 1_555
O25 Rb2 3.041345 1_555
O26 Rb1 3.041345 1_555
O27 Rb3 3.041345 1_555
O28 Rb0 3.041345 1_655
O29 Rb2 3.041345 1_555
O30 Rb1 3.041345 1_655
O31 Rb0 3.041345 1_555
