# generated using pymatgen
data_Ca3(ReN2)2
_symmetry_space_group_name_H-M   'P 1'
_cell_length_a   5.80672000
_cell_length_b   9.97353000
_cell_length_c   9.28516300
_cell_angle_alpha   90.00000000
_cell_angle_beta   90.00000000
_cell_angle_gamma   90.00000000
_symmetry_Int_Tables_number   1
_chemical_formula_structural   Ca3(ReN2)2
_chemical_formula_sum   'Ca12 Re8 N16'
_cell_volume   537.73625139
_cell_formula_units_Z   4
loop_
 _symmetry_equiv_pos_site_id
 _symmetry_equiv_pos_as_xyz
  1  'x, y, z'
loop_
 _atom_site_type_symbol
 _atom_site_label
 _atom_site_symmetry_multiplicity
 _atom_site_fract_x
 _atom_site_fract_y
 _atom_site_fract_z
 _atom_site_occupancy
  Ca  Ca0  1  0.62204100  0.15962000  0.41736700  1
  Ca  Ca1  1  0.87795900  0.84038000  0.41736700  1
  Ca  Ca2  1  0.62204100  0.34038000  0.08263300  1
  Ca  Ca3  1  0.87795900  0.65962000  0.08263300  1
  Ca  Ca4  1  0.37795900  0.84038000  0.58263300  1
  Ca  Ca5  1  0.12204100  0.15962000  0.58263300  1
  Ca  Ca6  1  0.37795900  0.65962000  0.91736700  1
  Ca  Ca7  1  0.12204100  0.34038000  0.91736700  1
  Ca  Ca8  1  0.75000000  0.50000000  0.40260800  1
  Ca  Ca9  1  0.75000000  0.00000000  0.09739200  1
  Ca  Ca10  1  0.25000000  0.50000000  0.59739200  1
  Ca  Ca11  1  0.25000000  0.00000000  0.90260800  1
  Re  Re0  1  0.75000000  0.50000000  0.73571700  1
  Re  Re1  1  0.75000000  0.00000000  0.76428300  1
  Re  Re2  1  0.25000000  0.50000000  0.26428300  1
  Re  Re3  1  0.25000000  0.00000000  0.23571700  1
  Re  Re4  1  0.62121200  0.25000000  0.75000000  1
  Re  Re5  1  0.87878800  0.75000000  0.75000000  1
  Re  Re6  1  0.37878800  0.75000000  0.25000000  1
  Re  Re7  1  0.12121200  0.25000000  0.25000000  1
  N  N0  1  0.89002600  0.35067400  0.63057400  1
  N  N1  1  0.60997400  0.64932600  0.63057400  1
  N  N2  1  0.89002600  0.14932600  0.86942600  1
  N  N3  1  0.60997400  0.85067400  0.86942600  1
  N  N4  1  0.10997400  0.64932600  0.36942600  1
  N  N5  1  0.39002600  0.35067400  0.36942600  1
  N  N6  1  0.10997400  0.85067400  0.13057400  1
  N  N7  1  0.39002600  0.14932600  0.13057400  1
  N  N8  1  0.49449000  0.41914800  0.84601600  1
  N  N9  1  0.00551000  0.58085200  0.84601600  1
  N  N10  1  0.49449000  0.08085200  0.65398400  1
  N  N11  1  0.00551000  0.91914800  0.65398400  1
  N  N12  1  0.50551000  0.58085200  0.15398400  1
  N  N13  1  0.99449000  0.41914800  0.15398400  1
  N  N14  1  0.50551000  0.91914800  0.34601600  1
  N  N15  1  0.99449000  0.08085200  0.34601600  1
loop_
_geom_bond_atom_site_label_1
_geom_bond_atom_site_label_2
_geom_bond_distance
_geom_bond_site_symmetry_2
Ca0 N5 2.375729 1_555
Ca0 N15 2.394447 1_555
Ca0 N10 2.447990 1_555
Ca0 N14 2.578544 1_545
Ca1 N4 2.375729 1_655
Ca1 N14 2.394447 1_555
Ca1 N11 2.447990 1_655
Ca1 N15 2.578544 1_565
Ca2 N7 2.375729 1_555
Ca2 N13 2.394447 1_555
Ca2 N8 2.447990 1_554
Ca2 N12 2.578544 1_555
Ca3 N6 2.375729 1_655
Ca3 N12 2.394447 1_555
Ca3 N9 2.447990 1_654
Ca3 N13 2.578544 1_555
Ca4 N1 2.375729 1_555
Ca4 N11 2.394447 1_555
Ca4 N14 2.447990 1_555
Ca4 N10 2.578544 1_565
Ca5 N0 2.375729 1_455
Ca5 N10 2.394447 1_555
Ca5 N15 2.447990 1_455
Ca5 N11 2.578544 1_545
Ca6 N3 2.375729 1_555
Ca6 N9 2.394447 1_555
Ca6 N12 2.447990 1_556
Ca6 N8 2.578544 1_555
Ca7 N2 2.375729 1_455
Ca7 N8 2.394447 1_555
Ca7 N13 2.447990 1_456
Ca7 N9 2.578544 1_555
Ca8 N4 2.584992 1_655
Ca8 N5 2.584992 1_555
Ca8 N1 2.712855 1_555
Ca8 N0 2.712855 1_555
Ca8 N13 2.827542 1_555
Ca8 N12 2.827542 1_555
Ca9 N7 2.584992 1_555
Ca9 N6 2.584992 1_645
Ca9 N2 2.712855 1_554
Ca9 N3 2.712855 1_544
Ca9 N15 2.827542 1_555
Ca9 N14 2.827542 1_545
Ca10 N0 2.584992 1_455
Ca10 N1 2.584992 1_555
Ca10 N4 2.712855 1_555
Ca10 N5 2.712855 1_555
Ca10 N8 2.827542 1_555
Ca10 N9 2.827542 1_555
Ca11 N2 2.584992 1_455
Ca11 N3 2.584992 1_545
Ca11 N7 2.712855 1_556
Ca11 N6 2.712855 1_546
Ca11 N10 2.827542 1_555
Ca11 N11 2.827542 1_545
N0 Re0 1.957615 1_555
N0 Re4 2.162013 1_555
N1 Re0 1.957615 1_555
N1 Re5 2.162013 1_555
N2 Re1 1.957615 1_555
N2 Re4 2.162013 1_555
N3 Re1 1.957615 1_565
N3 Re5 2.162013 1_555
N4 Re2 1.957615 1_555
N4 Re6 2.162013 1_555
N5 Re2 1.957615 1_555
N5 Re7 2.162013 1_555
N6 Re3 1.957615 1_565
N6 Re6 2.162013 1_555
N7 Re3 1.957615 1_555
N7 Re7 2.162013 1_555
N8 Re0 1.974946 1_555
N8 Re4 2.045056 1_555
N9 Re0 1.974946 1_455
N9 Re5 2.045056 1_455
N10 Re1 1.974946 1_555
N10 Re4 2.045056 1_555
N11 Re1 1.974946 1_465
N11 Re5 2.045056 1_455
N12 Re2 1.974946 1_555
N12 Re6 2.045056 1_555
N13 Re2 1.974946 1_655
N13 Re7 2.045056 1_655
N14 Re3 1.974946 1_565
N14 Re6 2.045056 1_555
N15 Re3 1.974946 1_655
N15 Re7 2.045056 1_655
