# generated using pymatgen
data_NdNi2
_symmetry_space_group_name_H-M   'P 1'
_cell_length_a   5.12653095
_cell_length_b   5.12653016
_cell_length_c   5.12653092
_cell_angle_alpha   59.99999507
_cell_angle_beta   60.00000017
_cell_angle_gamma   59.99999125
_symmetry_Int_Tables_number   1
_chemical_formula_structural   NdNi2
_chemical_formula_sum   'Nd2 Ni4'
_cell_volume   95.26988448
_cell_formula_units_Z   2
loop_
 _symmetry_equiv_pos_site_id
 _symmetry_equiv_pos_as_xyz
  1  'x, y, z'
loop_
 _atom_site_type_symbol
 _atom_site_label
 _atom_site_symmetry_multiplicity
 _atom_site_fract_x
 _atom_site_fract_y
 _atom_site_fract_z
 _atom_site_occupancy
  Nd  Nd0  1  0.12500000  0.12500000  0.12500000  1
  Nd  Nd1  1  0.87500000  0.87500000  0.87500000  1
  Ni  Ni0  1  0.50000000  -0.00000000  0.50000000  1
  Ni  Ni1  1  0.00000000  0.50000000  0.50000000  1
  Ni  Ni2  1  0.50000000  0.50000000  0.50000000  1
  Ni  Ni3  1  0.50000000  0.50000000  0.00000000  1
loop_
_geom_bond_atom_site_label_1
_geom_bond_atom_site_label_2
_geom_bond_distance
_geom_bond_site_symmetry_2
Nd0 Ni2 3.005695 1_545
Nd0 Ni3 3.005695 1_545
Nd0 Ni1 3.005695 1_545
Nd0 Ni3 3.005695 1_455
Nd0 Ni2 3.005695 1_455
Nd0 Ni1 3.005695 1_555
Nd0 Ni1 3.005695 1_554
Nd0 Ni3 3.005695 1_555
Nd0 Ni2 3.005695 1_554
Nd0 Ni0 3.005695 1_554
Nd0 Ni0 3.005695 1_555
Nd0 Ni0 3.005695 1_455
Nd1 Ni2 3.005695 1_565
Nd1 Ni3 3.005695 1_566
Nd1 Ni1 3.005695 1_665
Nd1 Ni2 3.005695 1_655
Nd1 Ni3 3.005695 1_656
Nd1 Ni1 3.005695 1_656
Nd1 Ni1 3.005695 1_655
Nd1 Ni3 3.005695 1_556
Nd1 Ni2 3.005695 1_556
Nd1 Ni0 3.005695 1_566
Nd1 Ni0 3.005695 1_565
Nd1 Ni0 3.005695 1_665
Ni0 Ni1 2.563265 1_645
Ni0 Ni1 2.563265 1_555
Ni0 Ni3 2.563265 1_546
Ni0 Ni2 2.563265 1_545
Ni0 Ni3 2.563265 1_555
Ni0 Ni2 2.563265 1_555
Ni1 Ni2 2.563265 1_555
Ni1 Ni3 2.563265 1_555
Ni1 Ni3 2.563265 1_456
Ni1 Ni2 2.563265 1_455
Ni2 Ni3 2.563265 1_555
Ni2 Ni3 2.563265 1_556
