# generated using pymatgen
data_CeAlAu
_symmetry_space_group_name_H-M   'P 1'
_cell_length_a   4.59351148
_cell_length_b   7.57406123
_cell_length_c   7.72478342
_cell_angle_alpha   89.98864079
_cell_angle_beta   90.00000659
_cell_angle_gamma   89.99999818
_symmetry_Int_Tables_number   1
_chemical_formula_structural   CeAlAu
_chemical_formula_sum   'Ce4 Al4 Au4'
_cell_volume   268.75708431
_cell_formula_units_Z   4
loop_
 _symmetry_equiv_pos_site_id
 _symmetry_equiv_pos_as_xyz
  1  'x, y, z'
loop_
 _atom_site_type_symbol
 _atom_site_label
 _atom_site_symmetry_multiplicity
 _atom_site_fract_x
 _atom_site_fract_y
 _atom_site_fract_z
 _atom_site_occupancy
  Ce  Ce0  1  0.74999958  0.49013025  0.19450926  1
  Ce  Ce1  1  0.75000010  0.99013570  0.30535433  1
  Ce  Ce2  1  0.25000010  0.50982317  0.80550419  1
  Ce  Ce3  1  0.25000003  0.00989221  0.69457813  1
  Al  Al0  1  0.75000005  0.32881461  0.58134983  1
  Al  Al1  1  0.75000033  0.82868969  0.91861543  1
  Al  Al2  1  0.24999985  0.67118499  0.41865106  1
  Al  Al3  1  0.24999986  0.17132256  0.08138405  1
  Au  Au0  1  0.75000009  0.20203330  0.90846127  1
  Au  Au1  1  0.75000004  0.70179451  0.59155928  1
  Au  Au2  1  0.24999996  0.79800980  0.09164290  1
  Au  Au3  1  0.25000000  0.29816920  0.40839028  1
loop_
_geom_bond_atom_site_label_1
_geom_bond_atom_site_label_2
_geom_bond_distance
_geom_bond_site_symmetry_2
Al0 Au3 2.667242 1_655
Al0 Au3 2.667242 1_555
Al0 Au0 2.702992 1_555
Al0 Au1 2.826089 1_555
Al0 Ce2 3.186508 1_555
Al0 Ce2 3.186508 1_655
Al0 Ce0 3.228170 1_555
Al0 Ce1 3.335826 1_545
Al0 Ce3 3.445883 1_655
Al0 Ce3 3.445883 1_555
Al1 Au2 2.667480 1_656
Al1 Au2 2.667483 1_556
Al1 Au1 2.703255 1_555
Al1 Au0 2.828800 1_565
Al1 Ce3 3.186352 1_665
Al1 Ce3 3.186354 1_565
Al1 Ce1 3.228265 1_556
Al1 Ce0 3.333978 1_556
Al1 Ce2 3.445599 1_655
Al1 Ce2 3.445601 1_555
Al2 Au1 2.667019 1_455
Al2 Au1 2.667021 1_555
Al2 Au2 2.702363 1_555
Al2 Au3 2.826372 1_555
Al2 Ce0 3.186605 1_555
Al2 Ce0 3.186606 1_455
Al2 Ce2 3.228392 1_555
Al2 Ce3 3.335653 1_565
Al2 Ce1 3.446166 1_455
Al2 Ce1 3.446168 1_555
Al3 Au0 2.667096 1_454
Al3 Au0 2.667098 1_554
Al3 Au3 2.702764 1_555
Al3 Au2 2.828588 1_545
Al3 Ce1 3.186020 1_445
Al3 Ce1 3.186022 1_545
Al3 Ce3 3.228699 1_554
Al3 Ce2 3.333567 1_554
Al3 Ce0 3.445314 1_555
Al3 Ce0 3.445316 1_455
Au0 Ce0 3.105786 1_556
Au0 Ce3 3.181772 1_655
Au0 Ce3 3.181772 1_555
Au0 Ce2 3.367710 1_555
Au0 Ce2 3.367710 1_655
Au0 Ce1 3.460297 1_546
Au1 Ce1 3.107333 1_555
Au1 Ce2 3.181132 1_555
Au1 Ce2 3.181132 1_655
Au1 Ce3 3.369655 1_665
Au1 Ce3 3.369655 1_565
Au1 Ce0 3.461116 1_555
Au2 Ce2 3.106762 1_554
Au2 Ce1 3.181030 1_455
Au2 Ce1 3.181031 1_555
Au2 Ce0 3.368014 1_555
Au2 Ce0 3.368016 1_455
Au2 Ce3 3.461419 1_564
Au3 Ce3 3.106897 1_555
Au3 Ce0 3.180839 1_555
Au3 Ce0 3.180842 1_455
Au3 Ce1 3.369350 1_445
Au3 Ce1 3.369350 1_545
Au3 Ce2 3.461517 1_555
