# generated using pymatgen
data_CsTlCuF6
_symmetry_space_group_name_H-M   'P 1'
_cell_length_a   7.79825439
_cell_length_b   7.79825439
_cell_length_c   7.79825439
_cell_angle_alpha   121.83775167
_cell_angle_beta   117.81272108
_cell_angle_gamma   90.33812181
_symmetry_Int_Tables_number   1
_chemical_formula_structural   CsTlCuF6
_chemical_formula_sum   'Cs2 Tl2 Cu2 F12'
_cell_volume   335.69824065
_cell_formula_units_Z   2
loop_
 _symmetry_equiv_pos_site_id
 _symmetry_equiv_pos_as_xyz
  1  'x, y, z'
loop_
 _atom_site_type_symbol
 _atom_site_label
 _atom_site_symmetry_multiplicity
 _atom_site_fract_x
 _atom_site_fract_y
 _atom_site_fract_z
 _atom_site_occupancy
  Cs  Cs0  1  0.36129000  0.61129000  0.75000000  1
  Cs  Cs1  1  0.63871000  0.38871000  0.25000000  1
  Tl  Tl0  1  0.00000000  0.00000000  0.00000000  1
  Tl  Tl1  1  0.50000000  0.00000000  0.50000000  1
  Cu  Cu0  1  0.00000000  0.00000000  0.50000000  1
  Cu  Cu1  1  0.00000000  0.50000000  0.00000000  1
  F  F0  1  0.34597800  0.09597800  0.25000000  1
  F  F1  1  0.95402400  0.70402400  0.25000000  1
  F  F2  1  0.31197800  0.66157100  0.21824000  1
  F  F3  1  0.94333100  0.09373800  0.28176000  1
  F  F4  1  0.31197800  0.09373800  0.65040600  1
  F  F5  1  0.94333100  0.66157100  0.84959400  1
  F  F6  1  0.65402200  0.90402200  0.75000000  1
  F  F7  1  0.04597600  0.29597600  0.75000000  1
  F  F8  1  0.68802200  0.33842900  0.78176000  1
  F  F9  1  0.05666900  0.90626200  0.71824000  1
  F  F10  1  0.68802200  0.90626200  0.34959400  1
  F  F11  1  0.05666900  0.33842900  0.15040600  1
loop_
_geom_bond_atom_site_label_1
_geom_bond_atom_site_label_2
_geom_bond_distance
_geom_bond_site_symmetry_2
Cs0 F6 3.218825 1_555
Cs0 F8 3.333490 1_555
Cs0 F9 3.333490 1_555
Cs0 F10 3.333495 1_556
Cs0 F11 3.333496 1_555
Cs0 F7 3.467132 1_555
Cs1 F0 3.218825 1_555
Cs1 F2 3.333490 1_555
Cs1 F3 3.333490 1_555
Cs1 F4 3.333495 1_554
Cs1 F5 3.333496 1_555
Cs1 F1 3.467132 1_555
Cu0 F1 1.961430 1_445
Cu0 F7 1.961430 1_555
Cu0 F3 2.059269 1_455
Cu0 F9 2.059269 1_545
Cu0 F4 2.059270 1_555
Cu0 F10 2.059270 1_445
Cu1 F7 1.961430 1_554
Cu1 F1 1.961430 1_455
Cu1 F11 2.059263 1_555
Cu1 F5 2.059263 1_454
Cu1 F2 2.059269 1_555
Cu1 F8 2.059269 1_454
F0 Tl0 2.273455 1_555
F0 Tl1 2.273455 1_555
F2 Tl1 2.184686 1_565
F3 Tl0 2.184686 1_655
F4 Tl1 2.184681 1_555
F5 Tl0 2.184688 1_666
F6 Tl0 2.273455 1_666
F6 Tl1 2.273455 1_565
F8 Tl1 2.184686 1_555
F9 Tl0 2.184686 1_566
F10 Tl1 2.184681 1_565
F11 Tl0 2.184688 1_555
