# generated using pymatgen
data_SrNiF4
_symmetry_space_group_name_H-M   'P 1'
_cell_length_a   7.53530679
_cell_length_b   7.53530679
_cell_length_c   5.64857900
_cell_angle_alpha   90.00000000
_cell_angle_beta   90.00000000
_cell_angle_gamma   149.04634927
_symmetry_Int_Tables_number   1
_chemical_formula_structural   SrNiF4
_chemical_formula_sum   'Sr2 Ni2 F8'
_cell_volume   164.96628237
_cell_formula_units_Z   2
loop_
 _symmetry_equiv_pos_site_id
 _symmetry_equiv_pos_as_xyz
  1  'x, y, z'
loop_
 _atom_site_type_symbol
 _atom_site_label
 _atom_site_symmetry_multiplicity
 _atom_site_fract_x
 _atom_site_fract_y
 _atom_site_fract_z
 _atom_site_occupancy
  Sr  Sr0  1  0.65582400  0.34417600  0.12552600  1
  Sr  Sr1  1  0.34417600  0.65582400  0.62552600  1
  Ni  Ni0  1  0.91326700  0.08673300  0.17922600  1
  Ni  Ni1  1  0.08673300  0.91326700  0.67922600  1
  F  F0  1  0.83745500  0.16254500  0.88844600  1
  F  F1  1  0.16254500  0.83745500  0.38844600  1
  F  F2  1  0.96505700  0.03494300  0.51720100  1
  F  F3  1  0.03494300  0.96505700  0.01720100  1
  F  F4  1  0.41538000  0.58462000  0.19850600  1
  F  F5  1  0.58462000  0.41538000  0.69850600  1
  F  F6  1  0.79620600  0.20379400  0.37499500  1
  F  F7  1  0.20379400  0.79620600  0.87499500  1
loop_
_geom_bond_atom_site_label_1
_geom_bond_atom_site_label_2
_geom_bond_distance
_geom_bond_site_symmetry_2
F0 Ni0 1.977426 1_556
F0 Sr1 2.501676 1_655
F0 Sr1 2.501676 1_545
F0 Sr0 2.958476 1_556
F1 Ni1 1.977426 1_555
F1 Sr0 2.501676 1_455
F1 Sr0 2.501676 1_565
F1 Sr1 2.958476 1_555
F2 Ni1 1.990161 1_645
F2 Ni0 2.051924 1_555
F2 Sr1 2.738633 1_545
F2 Sr1 2.738633 1_655
F3 Ni0 1.990161 1_465
F3 Ni1 2.051924 1_554
F3 Sr0 2.738633 1_455
F3 Sr0 2.738633 1_565
F4 Ni0 2.013967 1_565
F4 Ni0 2.013967 1_455
F4 Sr1 2.624411 1_555
F5 Ni1 2.013967 1_655
F5 Ni1 2.013967 1_545
F5 Sr0 2.624411 1_556
F6 Ni0 2.028187 1_555
F6 Sr0 2.478490 1_555
F6 Sr1 2.555644 1_655
F6 Sr1 2.555644 1_545
F7 Ni1 2.028187 1_555
F7 Sr1 2.478490 1_555
F7 Sr0 2.555644 1_456
F7 Sr0 2.555644 1_566
