# generated using pymatgen
data_PH6C(NF2)3
_symmetry_space_group_name_H-M   'P 1'
_cell_length_a   7.83162264
_cell_length_b   7.83162261
_cell_length_c   7.83162242
_cell_angle_alpha   64.18847295
_cell_angle_beta   64.18847470
_cell_angle_gamma   64.18846850
_symmetry_Int_Tables_number   1
_chemical_formula_structural   PH6C(NF2)3
_chemical_formula_sum   'P2 H12 C2 N6 F12'
_cell_volume   370.93962519
_cell_formula_units_Z   2
loop_
 _symmetry_equiv_pos_site_id
 _symmetry_equiv_pos_as_xyz
  1  'x, y, z'
loop_
 _atom_site_type_symbol
 _atom_site_label
 _atom_site_symmetry_multiplicity
 _atom_site_fract_x
 _atom_site_fract_y
 _atom_site_fract_z
 _atom_site_occupancy
  P  P0  1  0.00000000  0.00000000  0.00000000  1
  P  P1  1  0.50000000  0.50000000  0.50000000  1
  H  H0  1  0.49731100  0.98743100  0.77793600  1
  H  H1  1  0.49731100  0.77793600  0.98743100  1
  H  H2  1  0.77793600  0.49731100  0.98743100  1
  H  H3  1  0.98743100  0.49731100  0.77793600  1
  H  H4  1  0.98743100  0.77793600  0.49731100  1
  H  H5  1  0.77793600  0.98743100  0.49731100  1
  H  H6  1  0.50268900  0.01256900  0.22206400  1
  H  H7  1  0.50268900  0.22206400  0.01256900  1
  H  H8  1  0.22206400  0.50268900  0.01256900  1
  H  H9  1  0.01256900  0.50268900  0.22206400  1
  H  H10  1  0.01256900  0.22206400  0.50268900  1
  H  H11  1  0.22206400  0.01256900  0.50268900  1
  C  C0  1  0.75151700  0.75151700  0.75151700  1
  C  C1  1  0.24848300  0.24848300  0.24848300  1
  N  N0  1  0.56598300  0.84354300  0.84354300  1
  N  N1  1  0.84354300  0.56598300  0.84354300  1
  N  N2  1  0.84354300  0.84354300  0.56598300  1
  N  N3  1  0.43401700  0.15645700  0.15645700  1
  N  N4  1  0.15645700  0.43401700  0.15645700  1
  N  N5  1  0.15645700  0.15645700  0.43401700  1
  F  F0  1  0.13465100  0.85586300  0.85586300  1
  F  F1  1  0.85586300  0.13465100  0.85586300  1
  F  F2  1  0.85586300  0.85586300  0.13465100  1
  F  F3  1  0.86534900  0.14413700  0.14413700  1
  F  F4  1  0.14413700  0.86534900  0.14413700  1
  F  F5  1  0.14413700  0.14413700  0.86534900  1
  F  F6  1  0.73696000  0.45816400  0.45816400  1
  F  F7  1  0.45816400  0.73696000  0.45816400  1
  F  F8  1  0.45816400  0.45816400  0.73696000  1
  F  F9  1  0.26304000  0.54183600  0.54183600  1
  F  F10  1  0.54183600  0.26304000  0.54183600  1
  F  F11  1  0.54183600  0.54183600  0.26304000  1
loop_
_geom_bond_atom_site_label_1
_geom_bond_atom_site_label_2
_geom_bond_distance
_geom_bond_site_symmetry_2
H0 N0 1.015757 1_555
H1 N0 1.015757 1_555
H2 N1 1.015757 1_555
H3 N1 1.015757 1_555
H4 N2 1.015757 1_555
H5 N2 1.015757 1_555
H6 N3 1.015757 1_555
H7 N3 1.015757 1_555
H8 N4 1.015757 1_555
H9 N4 1.015757 1_555
H10 N5 1.015757 1_555
H11 N5 1.015757 1_555
C0 N1 1.333641 1_555
C0 N0 1.333641 1_555
C0 N2 1.333641 1_555
C1 N4 1.333641 1_555
C1 N3 1.333641 1_555
C1 N5 1.333641 1_555
F0 P0 1.642241 1_566
F1 P0 1.642241 1_656
F2 P0 1.642241 1_665
F3 P0 1.642241 1_655
F4 P0 1.642241 1_565
F5 P0 1.642241 1_556
F6 P1 1.641074 1_555
F7 P1 1.641074 1_555
F8 P1 1.641074 1_555
F9 P1 1.641074 1_555
F10 P1 1.641074 1_555
F11 P1 1.641074 1_555
