# generated using pymatgen
data_Mg13(NbH16)2
_symmetry_space_group_name_H-M   'P 1'
_cell_length_a   6.71452800
_cell_length_b   6.71452800
_cell_length_c   9.45081300
_cell_angle_alpha   90.00000000
_cell_angle_beta   90.00000000
_cell_angle_gamma   90.00000000
_symmetry_Int_Tables_number   1
_chemical_formula_structural   Mg13(NbH16)2
_chemical_formula_sum   'Mg13 Nb2 H32'
_cell_volume   426.08882920
_cell_formula_units_Z   1
loop_
 _symmetry_equiv_pos_site_id
 _symmetry_equiv_pos_as_xyz
  1  'x, y, z'
loop_
 _atom_site_type_symbol
 _atom_site_label
 _atom_site_symmetry_multiplicity
 _atom_site_fract_x
 _atom_site_fract_y
 _atom_site_fract_z
 _atom_site_occupancy
  Mg  Mg0  1  0.00000000  0.50000000  0.50000000  1
  Mg  Mg1  1  0.50000000  0.00000000  0.00000000  1
  Mg  Mg2  1  0.74456300  0.25543700  0.24369200  1
  Mg  Mg3  1  0.25543700  0.74456300  0.75630800  1
  Mg  Mg4  1  0.74456300  0.74456300  0.24369200  1
  Mg  Mg5  1  0.25543700  0.25543700  0.75630800  1
  Mg  Mg6  1  0.50000000  0.00000000  0.50000000  1
  Mg  Mg7  1  0.00000000  0.50000000  0.00000000  1
  Mg  Mg8  1  0.25543700  0.74456300  0.24369200  1
  Mg  Mg9  1  0.74456300  0.25543700  0.75630800  1
  Mg  Mg10  1  0.74456300  0.74456300  0.75630800  1
  Mg  Mg11  1  0.25543700  0.25543700  0.24369200  1
  Mg  Mg12  1  0.00000000  0.00000000  0.50000000  1
  Nb  Nb0  1  0.00000000  0.00000000  0.00000000  1
  Nb  Nb1  1  0.50000000  0.50000000  0.50000000  1
  H  H0  1  0.74245200  0.00000000  0.63044300  1
  H  H1  1  0.22029200  0.50000000  0.13696700  1
  H  H2  1  0.00000000  0.25754800  0.36955700  1
  H  H3  1  0.50000000  0.77970800  0.86303300  1
  H  H4  1  0.00000000  0.74245200  0.36955700  1
  H  H5  1  0.50000000  0.22029200  0.86303300  1
  H  H6  1  0.25754800  0.00000000  0.63044300  1
  H  H7  1  0.77970800  0.50000000  0.13696700  1
  H  H8  1  0.25754800  0.00000000  0.36955700  1
  H  H9  1  0.77970800  0.50000000  0.86303300  1
  H  H10  1  0.00000000  0.74245200  0.63044300  1
  H  H11  1  0.50000000  0.22029200  0.13696700  1
  H  H12  1  0.00000000  0.25754800  0.63044300  1
  H  H13  1  0.50000000  0.77970800  0.13696700  1
  H  H14  1  0.74245200  0.00000000  0.36955700  1
  H  H15  1  0.22029200  0.50000000  0.86303300  1
  H  H16  1  0.23313800  0.00000000  0.88119900  1
  H  H17  1  0.73787900  0.50000000  0.38270700  1
  H  H18  1  0.50000000  0.26212100  0.61729300  1
  H  H19  1  0.00000000  0.76686200  0.11880100  1
  H  H20  1  0.50000000  0.73787900  0.61729300  1
  H  H21  1  0.00000000  0.23313800  0.11880100  1
  H  H22  1  0.76686200  0.00000000  0.88119900  1
  H  H23  1  0.26212100  0.50000000  0.38270700  1
  H  H24  1  0.76686200  0.00000000  0.11880100  1
  H  H25  1  0.26212100  0.50000000  0.61729300  1
  H  H26  1  0.50000000  0.73787900  0.38270700  1
  H  H27  1  0.00000000  0.23313800  0.88119900  1
  H  H28  1  0.50000000  0.26212100  0.38270700  1
  H  H29  1  0.00000000  0.76686200  0.88119900  1
  H  H30  1  0.23313800  0.00000000  0.11880100  1
  H  H31  1  0.73787900  0.50000000  0.61729300  1
loop_
_geom_bond_atom_site_label_1
_geom_bond_atom_site_label_2
_geom_bond_distance
_geom_bond_site_symmetry_2
H0 Mg6 2.042058 1_555
H0 Mg9 2.087313 1_555
H0 Mg10 2.087313 1_545
H0 Mg12 2.123747 1_655
H1 Mg8 1.941549 1_555
H1 Mg11 1.941549 1_555
H1 Mg7 1.965580 1_555
H2 Mg0 2.042058 1_555
H2 Mg11 2.087313 1_555
H2 Mg2 2.087313 1_455
H2 Mg12 2.123747 1_555
H3 Mg10 1.941549 1_555
H3 Mg3 1.941549 1_555
H3 Mg1 1.965580 1_566
H4 Mg0 2.042058 1_555
H4 Mg8 2.087313 1_555
H4 Mg4 2.087313 1_455
H4 Mg12 2.123747 1_565
H5 Mg9 1.941549 1_555
H5 Mg5 1.941549 1_555
H5 Mg1 1.965580 1_556
H6 Mg6 2.042058 1_555
H6 Mg5 2.087313 1_555
H6 Mg3 2.087313 1_545
H6 Mg12 2.123747 1_555
H7 Mg4 1.941549 1_555
H7 Mg2 1.941549 1_555
H7 Mg7 1.965580 1_655
H8 Mg6 2.042058 1_555
H8 Mg11 2.087313 1_555
H8 Mg8 2.087313 1_545
H8 Mg12 2.123747 1_555
H9 Mg10 1.941549 1_555
H9 Mg9 1.941549 1_555
H9 Mg7 1.965580 1_656
H10 Mg0 2.042058 1_555
H10 Mg3 2.087313 1_555
H10 Mg10 2.087313 1_455
H10 Mg12 2.123747 1_565
H11 Mg2 1.941549 1_555
H11 Mg11 1.941549 1_555
H11 Mg1 1.965580 1_555
H12 Mg0 2.042058 1_555
H12 Mg5 2.087313 1_555
H12 Mg9 2.087313 1_455
H12 Mg12 2.123747 1_555
H13 Mg4 1.941549 1_555
H13 Mg8 1.941549 1_555
H13 Mg1 1.965580 1_565
H14 Mg6 2.042058 1_555
H14 Mg2 2.087313 1_555
H14 Mg4 2.087313 1_545
H14 Mg12 2.123747 1_655
H15 Mg3 1.941549 1_555
H15 Mg5 1.941549 1_555
H15 Mg7 1.965580 1_556
H16 Nb0 1.926426 1_556
H16 Mg5 2.087410 1_555
H16 Mg3 2.087410 1_545
H16 Mg1 2.114554 1_556
H17 Nb1 1.944221 1_555
H17 Mg0 2.080017 1_655
H17 Mg4 2.103490 1_555
H17 Mg2 2.103490 1_555
H18 Nb1 1.944221 1_555
H18 Mg6 2.080017 1_555
H18 Mg9 2.103490 1_555
H18 Mg5 2.103490 1_555
H19 Nb0 1.926426 1_565
H19 Mg8 2.087410 1_555
H19 Mg4 2.087410 1_455
H19 Mg7 2.114554 1_555
H20 Nb1 1.944221 1_555
H20 Mg6 2.080017 1_565
H20 Mg10 2.103490 1_555
H20 Mg3 2.103490 1_555
H21 Nb0 1.926426 1_555
H21 Mg11 2.087410 1_555
H21 Mg2 2.087410 1_455
H21 Mg7 2.114554 1_555
H22 Nb0 1.926426 1_656
H22 Mg9 2.087410 1_555
H22 Mg10 2.087410 1_545
H22 Mg1 2.114554 1_556
H23 Nb1 1.944221 1_555
H23 Mg0 2.080017 1_555
H23 Mg8 2.103490 1_555
H23 Mg11 2.103490 1_555
H24 Nb0 1.926426 1_655
H24 Mg2 2.087410 1_555
H24 Mg4 2.087410 1_545
H24 Mg1 2.114554 1_555
H25 Nb1 1.944221 1_555
H25 Mg0 2.080017 1_555
H25 Mg3 2.103490 1_555
H25 Mg5 2.103490 1_555
H26 Nb1 1.944221 1_555
H26 Mg6 2.080017 1_565
H26 Mg4 2.103490 1_555
H26 Mg8 2.103490 1_555
H27 Nb0 1.926426 1_556
H27 Mg5 2.087410 1_555
H27 Mg9 2.087410 1_455
H27 Mg7 2.114554 1_556
H28 Nb1 1.944221 1_555
H28 Mg6 2.080017 1_555
H28 Mg2 2.103490 1_555
H28 Mg11 2.103490 1_555
H29 Nb0 1.926426 1_566
H29 Mg3 2.087410 1_555
H29 Mg10 2.087410 1_455
H29 Mg7 2.114554 1_556
H30 Nb0 1.926426 1_555
H30 Mg11 2.087410 1_555
H30 Mg8 2.087410 1_545
H30 Mg1 2.114554 1_555
H31 Nb1 1.944221 1_555
H31 Mg0 2.080017 1_655
H31 Mg10 2.103490 1_555
H31 Mg9 2.103490 1_555
