# generated using pymatgen
data_Gd3BeCrS7
_symmetry_space_group_name_H-M   'P 1'
_cell_length_a   9.73157684
_cell_length_b   9.73157684
_cell_length_c   5.93550500
_cell_angle_alpha   90.00000000
_cell_angle_beta   90.00000000
_cell_angle_gamma   120.00000568
_symmetry_Int_Tables_number   1
_chemical_formula_structural   Gd3BeCrS7
_chemical_formula_sum   'Gd6 Be2 Cr2 S14'
_cell_volume   486.80464546
_cell_formula_units_Z   2
loop_
 _symmetry_equiv_pos_site_id
 _symmetry_equiv_pos_as_xyz
  1  'x, y, z'
loop_
 _atom_site_type_symbol
 _atom_site_label
 _atom_site_symmetry_multiplicity
 _atom_site_fract_x
 _atom_site_fract_y
 _atom_site_fract_z
 _atom_site_occupancy
  Gd  Gd0  1  0.60986300  0.86112700  0.25301900  1
  Gd  Gd1  1  0.13887300  0.74873600  0.25301900  1
  Gd  Gd2  1  0.25126400  0.39013700  0.25301900  1
  Gd  Gd3  1  0.39013700  0.13887300  0.75301900  1
  Gd  Gd4  1  0.86112700  0.25126400  0.75301900  1
  Gd  Gd5  1  0.74873600  0.60986300  0.75301900  1
  Be  Be0  1  0.33333300  0.66666700  0.83724300  1
  Be  Be1  1  0.66666700  0.33333300  0.33724300  1
  Cr  Cr0  1  0.00000000  0.00000000  0.48161700  1
  Cr  Cr1  1  0.00000000  0.00000000  0.98161700  1
  S  S0  1  0.77569500  0.92091500  0.72699100  1
  S  S1  1  0.07908500  0.85478000  0.72699100  1
  S  S2  1  0.14522000  0.22430500  0.72699100  1
  S  S3  1  0.22430500  0.07908500  0.22699100  1
  S  S4  1  0.92091500  0.14522000  0.22699100  1
  S  S5  1  0.85478000  0.77569500  0.22699100  1
  S  S6  1  0.48267600  0.58911600  0.97475200  1
  S  S7  1  0.41088400  0.89356000  0.97475200  1
  S  S8  1  0.10644000  0.51732400  0.97475200  1
  S  S9  1  0.51732400  0.41088400  0.47475200  1
  S  S10  1  0.58911600  0.10644000  0.47475200  1
  S  S11  1  0.89356000  0.48267600  0.47475200  1
  S  S12  1  0.33333300  0.66666700  0.48483000  1
  S  S13  1  0.66666700  0.33333300  0.98483000  1
loop_
_geom_bond_atom_site_label_1
_geom_bond_atom_site_label_2
_geom_bond_distance
_geom_bond_site_symmetry_2
Gd0 S7 2.681104 1_554
Gd0 S12 2.761089 1_555
Gd0 S10 2.820282 1_565
Gd0 S6 2.826777 1_554
Gd0 S5 2.894367 1_555
Gd0 S4 2.908854 1_565
Gd0 S0 3.149347 1_555
Gd0 S0 3.428167 1_554
Gd1 S8 2.681104 1_554
Gd1 S12 2.761083 1_555
Gd1 S11 2.820281 1_455
Gd1 S7 2.826777 1_554
Gd1 S3 2.894367 1_565
Gd1 S5 2.908854 1_455
Gd1 S1 3.149347 1_555
Gd1 S1 3.428167 1_554
Gd2 S6 2.681104 1_554
Gd2 S12 2.761091 1_555
Gd2 S9 2.820281 1_555
Gd2 S8 2.826777 1_554
Gd2 S4 2.894367 1_455
Gd2 S3 2.908854 1_555
Gd2 S2 3.149347 1_555
Gd2 S2 3.428167 1_554
Gd3 S10 2.681104 1_555
Gd3 S13 2.761089 1_555
Gd3 S7 2.820282 1_545
Gd3 S9 2.826777 1_555
Gd3 S2 2.894367 1_555
Gd3 S1 2.908854 1_545
Gd3 S3 3.149347 1_556
Gd3 S3 3.428167 1_555
Gd4 S11 2.681104 1_555
Gd4 S13 2.761083 1_555
Gd4 S8 2.820281 1_655
Gd4 S10 2.826777 1_555
Gd4 S0 2.894367 1_545
Gd4 S2 2.908854 1_655
Gd4 S4 3.149347 1_556
Gd4 S4 3.428167 1_555
Gd5 S9 2.681104 1_555
Gd5 S13 2.761091 1_555
Gd5 S6 2.820281 1_555
Gd5 S11 2.826777 1_555
Gd5 S1 2.894367 1_655
Gd5 S0 2.908854 1_555
Gd5 S5 3.149347 1_556
Gd5 S5 3.428167 1_555
Be0 S12 2.091749 1_555
Be0 S7 2.108250 1_555
Be0 S8 2.108252 1_555
Be0 S6 2.108259 1_555
Be1 S13 2.091749 1_554
Be1 S10 2.108250 1_555
Be1 S11 2.108252 1_555
Be1 S9 2.108259 1_555
Cr0 S2 2.407967 1_555
Cr0 S0 2.407967 1_445
Cr0 S1 2.407967 1_545
Cr0 S5 2.441574 1_445
Cr0 S3 2.441574 1_555
Cr0 S4 2.441574 1_455
Cr1 S5 2.407967 1_446
Cr1 S3 2.407967 1_556
Cr1 S4 2.407967 1_456
Cr1 S2 2.441574 1_555
Cr1 S0 2.441574 1_445
Cr1 S1 2.441574 1_545
