# generated using pymatgen
data_LaBiS2O
_symmetry_space_group_name_H-M   'P 1'
_cell_length_a   4.05549700
_cell_length_b   4.05549700
_cell_length_c   14.17326500
_cell_angle_alpha   90.00000000
_cell_angle_beta   90.00000000
_cell_angle_gamma   90.00000000
_symmetry_Int_Tables_number   1
_chemical_formula_structural   LaBiS2O
_chemical_formula_sum   'La2 Bi2 S4 O2'
_cell_volume   233.10848198
_cell_formula_units_Z   2
loop_
 _symmetry_equiv_pos_site_id
 _symmetry_equiv_pos_as_xyz
  1  'x, y, z'
loop_
 _atom_site_type_symbol
 _atom_site_label
 _atom_site_symmetry_multiplicity
 _atom_site_fract_x
 _atom_site_fract_y
 _atom_site_fract_z
 _atom_site_occupancy
  La  La0  1  0.50000000  0.00000000  0.58774200  1
  La  La1  1  0.00000000  0.50000000  0.41225800  1
  Bi  Bi0  1  0.00000000  0.50000000  0.86777500  1
  Bi  Bi1  1  0.50000000  0.00000000  0.13222500  1
  S  S0  1  0.50000000  0.00000000  0.89002000  1
  S  S1  1  0.00000000  0.50000000  0.10998000  1
  S  S2  1  0.00000000  0.50000000  0.69020100  1
  S  S3  1  0.50000000  0.00000000  0.30979900  1
  O  O0  1  0.00000000  0.00000000  0.50000000  1
  O  O1  1  0.50000000  0.50000000  0.50000000  1
loop_
_geom_bond_atom_site_label_1
_geom_bond_atom_site_label_2
_geom_bond_distance
_geom_bond_site_symmetry_2
La0 O1 2.378714 1_545
La0 O0 2.378714 1_555
La0 O0 2.378714 1_655
La0 O1 2.378714 1_555
La0 S2 3.214397 1_645
La0 S2 3.214397 1_555
La0 S2 3.214397 1_545
La0 S2 3.214397 1_655
La1 O0 2.378714 1_555
La1 O1 2.378714 1_455
La1 O1 2.378714 1_555
La1 O0 2.378714 1_565
La1 S3 3.214397 1_555
La1 S3 3.214397 1_565
La1 S3 3.214397 1_465
La1 S3 3.214397 1_455
Bi0 S2 2.516803 1_555
Bi0 S0 2.884949 1_565
Bi0 S0 2.884949 1_465
Bi0 S0 2.884949 1_455
Bi0 S0 2.884949 1_555
Bi1 S3 2.516803 1_555
Bi1 S1 2.884949 1_645
Bi1 S1 2.884949 1_555
Bi1 S1 2.884949 1_655
Bi1 S1 2.884949 1_545
