# generated using pymatgen
data_NdNi5
_symmetry_space_group_name_H-M   'P 1'
_cell_length_a   4.91059224
_cell_length_b   4.91062570
_cell_length_c   3.92809240
_cell_angle_alpha   90.00000000
_cell_angle_beta   90.00000000
_cell_angle_gamma   119.99924096
_symmetry_Int_Tables_number   1
_chemical_formula_structural   NdNi5
_chemical_formula_sum   'Nd1 Ni5'
_cell_volume   82.03257682
_cell_formula_units_Z   1
loop_
 _symmetry_equiv_pos_site_id
 _symmetry_equiv_pos_as_xyz
  1  'x, y, z'
loop_
 _atom_site_type_symbol
 _atom_site_label
 _atom_site_symmetry_multiplicity
 _atom_site_fract_x
 _atom_site_fract_y
 _atom_site_fract_z
 _atom_site_occupancy
  Nd  Nd0  1  0.00000000  0.00000000  -0.00000000  1
  Ni  Ni0  1  0.00000000  0.50000000  0.50000000  1
  Ni  Ni1  1  0.33330978  0.66666997  0.00000000  1
  Ni  Ni2  1  0.66669022  0.33333003  -0.00000000  1
  Ni  Ni3  1  0.50000000  0.00000000  0.50000000  1
  Ni  Ni4  1  0.50000000  0.50000000  0.50000000  1
loop_
_geom_bond_atom_site_label_1
_geom_bond_atom_site_label_2
_geom_bond_distance
_geom_bond_site_symmetry_2
Nd0 Ni2 2.835016 1_455
Nd0 Ni1 2.835016 1_545
Nd0 Ni2 2.835187 1_445
Nd0 Ni1 2.835187 1_555
Nd0 Ni1 2.835254 1_445
Nd0 Ni2 2.835254 1_555
Nd0 Ni3 3.144194 1_555
Nd0 Ni3 3.144194 1_554
Nd0 Ni3 3.144194 1_455
Nd0 Ni3 3.144194 1_454
Nd0 Ni0 3.144207 1_554
Nd0 Ni0 3.144207 1_545
Nd0 Ni0 3.144207 1_544
Nd0 Ni0 3.144207 1_555
Nd0 Ni4 3.144223 1_554
Nd0 Ni4 3.144223 1_444
Nd0 Ni4 3.144223 1_445
Nd0 Ni4 3.144223 1_555
Ni0 Ni2 2.422131 1_455
Ni0 Ni2 2.422131 1_456
Ni0 Ni1 2.422131 1_555
Ni0 Ni1 2.422131 1_556
Ni0 Ni4 2.455296 1_455
Ni0 Ni4 2.455296 1_555
Ni0 Ni3 2.455333 1_565
Ni0 Ni3 2.455333 1_455
Ni1 Ni3 2.422187 1_565
Ni1 Ni3 2.422187 1_564
Ni1 Ni4 2.422249 1_554
Ni1 Ni4 2.422249 1_555
Ni2 Ni3 2.422187 1_555
Ni2 Ni3 2.422187 1_554
Ni2 Ni4 2.422249 1_554
Ni2 Ni4 2.422249 1_555
Ni3 Ni4 2.455313 1_555
Ni3 Ni4 2.455313 1_545
