# generated using pymatgen
data_U2CoSi2(H7O9)2
_symmetry_space_group_name_H-M   'P 1'
_cell_length_a   7.08175900
_cell_length_b   9.55110435
_cell_length_c   12.83381400
_cell_angle_alpha   90.00000000
_cell_angle_beta   90.00000000
_cell_angle_gamma   111.76063294
_symmetry_Int_Tables_number   1
_chemical_formula_structural   U2CoSi2(H7O9)2
_chemical_formula_sum   'U4 Co2 Si4 H28 O36'
_cell_volume   806.20406606
_cell_formula_units_Z   2
loop_
 _symmetry_equiv_pos_site_id
 _symmetry_equiv_pos_as_xyz
  1  'x, y, z'
loop_
 _atom_site_type_symbol
 _atom_site_label
 _atom_site_symmetry_multiplicity
 _atom_site_fract_x
 _atom_site_fract_y
 _atom_site_fract_z
 _atom_site_occupancy
  U  U0  1  0.29190400  0.58380800  0.18037500  1
  U  U1  1  0.70809600  0.41619200  0.81962500  1
  U  U2  1  0.20809600  0.41619200  0.68037500  1
  U  U3  1  0.79190400  0.58380800  0.31962500  1
  Co  Co0  1  0.00000000  0.00000000  0.00000000  1
  Co  Co1  1  0.50000000  0.00000000  0.50000000  1
  Si  Si0  1  0.29901600  0.59803100  0.42985300  1
  Si  Si1  1  0.70098400  0.40196900  0.57014700  1
  Si  Si2  1  0.20098400  0.40196900  0.92985300  1
  Si  Si3  1  0.79901600  0.59803100  0.07014700  1
  H  H0  1  0.13768900  0.27537800  0.07969700  1
  H  H1  1  0.86231100  0.72462200  0.92030300  1
  H  H2  1  0.36231100  0.72462200  0.57969700  1
  H  H3  1  0.63768900  0.27537800  0.42030300  1
  H  H4  1  0.11907900  0.23815800  0.32210300  1
  H  H5  1  0.88092100  0.76184200  0.67789700  1
  H  H6  1  0.38092100  0.76184200  0.82210300  1
  H  H7  1  0.61907900  0.23815800  0.17789700  1
  H  H8  1  0.69394200  0.90090300  0.13972600  1
  H  H9  1  0.30605800  0.09909700  0.86027400  1
  H  H10  1  0.80605800  0.09909700  0.63972600  1
  H  H11  1  0.70696100  0.90090300  0.36027400  1
  H  H12  1  0.19394200  0.90090300  0.36027400  1
  H  H13  1  0.29303900  0.09909700  0.63972600  1
  H  H14  1  0.79303900  0.09909700  0.86027400  1
  H  H15  1  0.20696100  0.90090300  0.13972600  1
  H  H16  1  0.13874400  0.27748800  0.44112500  1
  H  H17  1  0.86125600  0.72251200  0.55887500  1
  H  H18  1  0.36125600  0.72251200  0.94112500  1
  H  H19  1  0.63874400  0.27748800  0.05887500  1
  H  H20  1  0.34937800  0.06550900  0.10764800  1
  H  H21  1  0.65062200  0.93449100  0.89235200  1
  H  H22  1  0.15062200  0.93449100  0.60764800  1
  H  H23  1  0.21613100  0.06550900  0.39235200  1
  H  H24  1  0.84937800  0.06550900  0.39235200  1
  H  H25  1  0.78386900  0.93449100  0.60764800  1
  H  H26  1  0.28386900  0.93449100  0.89235200  1
  H  H27  1  0.71613100  0.06550900  0.10764800  1
  O  O0  1  0.12369400  0.24738800  0.00467800  1
  O  O1  1  0.87630600  0.75261200  0.99532200  1
  O  O2  1  0.37630600  0.75261200  0.50467800  1
  O  O3  1  0.62369400  0.24738800  0.49532200  1
  O  O4  1  0.20328600  0.99646800  0.11462200  1
  O  O5  1  0.79671400  0.00353200  0.88537800  1
  O  O6  1  0.29671400  0.00353200  0.61462200  1
  O  O7  1  0.29318200  0.99646800  0.38537800  1
  O  O8  1  0.70328600  0.99646800  0.38537800  1
  O  O9  1  0.70681800  0.00353200  0.61462200  1
  O  O10  1  0.20681800  0.00353200  0.88537800  1
  O  O11  1  0.79318200  0.99646800  0.11462200  1
  O  O12  1  0.62454400  0.60085200  0.15363100  1
  O  O13  1  0.37545600  0.39914800  0.84636900  1
  O  O14  1  0.87545600  0.39914800  0.65363100  1
  O  O15  1  0.47630800  0.60085200  0.34636900  1
  O  O16  1  0.12454400  0.60085200  0.34636900  1
  O  O17  1  0.52369200  0.39914800  0.65363100  1
  O  O18  1  0.02369200  0.39914800  0.84636900  1
  O  O19  1  0.97630800  0.60085200  0.15363100  1
  O  O20  1  0.27406800  0.54813600  0.00700200  1
  O  O21  1  0.72593200  0.45186400  0.99299800  1
  O  O22  1  0.22593200  0.45186400  0.50700200  1
  O  O23  1  0.77406800  0.54813600  0.49299800  1
  O  O24  1  0.39492000  0.78984100  0.16555500  1
  O  O25  1  0.60508000  0.21015900  0.83444500  1
  O  O26  1  0.10508000  0.21015900  0.66555500  1
  O  O27  1  0.89492000  0.78984100  0.33444500  1
  O  O28  1  0.18761500  0.37523000  0.19700900  1
  O  O29  1  0.81238500  0.62477000  0.80299100  1
  O  O30  1  0.31238500  0.62477000  0.69700900  1
  O  O31  1  0.68761500  0.37523000  0.30299100  1
  O  O32  1  0.09528000  0.19056100  0.39136000  1
  O  O33  1  0.90472000  0.80943900  0.60864000  1
  O  O34  1  0.40472000  0.80943900  0.89136000  1
  O  O35  1  0.59528000  0.19056100  0.10864000  1
loop_
_geom_bond_atom_site_label_1
_geom_bond_atom_site_label_2
_geom_bond_distance
_geom_bond_site_symmetry_2
Co0 O5 2.067271 1_454
Co0 O4 2.067271 1_545
Co0 O11 2.067271 1_445
Co0 O10 2.067271 1_554
Co0 O0 2.195276 1_555
Co0 O1 2.195276 1_444
Co1 O8 2.067271 1_545
Co1 O6 2.067271 1_555
Co1 O9 2.067271 1_555
Co1 O7 2.067271 1_545
Co1 O3 2.195276 1_555
Co1 O2 2.195276 1_545
H0 O0 0.994279 1_555
H1 O1 0.994279 1_555
H2 O2 0.994279 1_555
H3 O3 0.994279 1_555
H4 O32 0.984013 1_555
H5 O33 0.984013 1_555
H6 O34 0.984013 1_555
H7 O35 0.984013 1_555
H8 O11 0.977346 1_555
H9 O10 0.977346 1_555
H10 O9 0.977346 1_555
H11 O8 0.977346 1_555
H12 O7 0.977346 1_555
H13 O6 0.977346 1_555
H14 O5 0.977346 1_555
H15 O4 0.977346 1_555
H16 O32 1.001239 1_555
H16 O22 1.762779 1_555
H17 O33 1.001239 1_555
H17 O23 1.762779 1_555
H18 O34 1.001239 1_555
H18 O20 1.762779 1_556
H19 O35 1.001239 1_555
H19 O21 1.762779 1_554
H20 O4 1.003680 1_545
H21 O5 1.003680 1_565
H22 O6 1.003680 1_565
H23 O7 1.003680 1_545
H24 O8 1.003680 1_545
H25 O9 1.003680 1_565
H26 O10 1.003680 1_565
H27 O11 1.003680 1_545
O0 Si2 1.674030 1_554
O1 Si3 1.674030 1_556
O2 Si0 1.674030 1_555
O3 Si1 1.674030 1_555
O12 Si3 1.643160 1_555
O12 U0 2.325765 1_555
O12 U3 2.472366 1_555
O13 Si2 1.643160 1_555
O13 U1 2.325765 1_555
O13 U2 2.472366 1_555
O14 Si1 1.643160 1_555
O14 U2 2.325765 1_655
O14 U1 2.472366 1_555
O15 Si0 1.643155 1_555
O15 U3 2.325765 1_555
O15 U0 2.472366 1_555
O16 Si0 1.643160 1_555
O16 U3 2.325765 1_455
O16 U0 2.472366 1_555
O17 Si1 1.643155 1_555
O17 U2 2.325765 1_555
O17 U1 2.472366 1_555
O18 Si2 1.643155 1_555
O18 U1 2.325765 1_455
O18 U2 2.472366 1_555
O19 Si3 1.643155 1_555
O19 U0 2.325765 1_655
O19 U3 2.472366 1_555
O20 Si2 1.631390 1_554
O20 U0 2.247424 1_555
O21 Si3 1.631390 1_556
O21 U1 2.247424 1_555
O22 Si0 1.631390 1_555
O22 U2 2.247424 1_555
O23 Si1 1.631390 1_555
O23 U3 2.247424 1_555
O24 U0 1.837486 1_555
O25 U1 1.837486 1_555
O26 U2 1.837486 1_555
O27 U3 1.837486 1_555
O28 U0 1.862466 1_555
O29 U1 1.862466 1_555
O30 U2 1.862466 1_555
O31 U3 1.862466 1_555
