# generated using pymatgen
data_AlV9Au2
_symmetry_space_group_name_H-M   'P 1'
_cell_length_a   4.82866381
_cell_length_b   4.85004066
_cell_length_c   14.52490771
_cell_angle_alpha   90.00000000
_cell_angle_beta   90.00000000
_cell_angle_gamma   90.00000000
_symmetry_Int_Tables_number   1
_chemical_formula_structural   AlV9Au2
_chemical_formula_sum   'Al2 V18 Au4'
_cell_volume   340.16194831
_cell_formula_units_Z   2
loop_
 _symmetry_equiv_pos_site_id
 _symmetry_equiv_pos_as_xyz
  1  'x, y, z'
loop_
 _atom_site_type_symbol
 _atom_site_label
 _atom_site_symmetry_multiplicity
 _atom_site_fract_x
 _atom_site_fract_y
 _atom_site_fract_z
 _atom_site_occupancy
  Al  Al0  1  0.50000000  0.50000000  0.83390580  1
  Al  Al1  1  0.50000000  0.50000000  0.16609420  1
  V  V0  1  0.00000000  0.50000000  0.91725693  1
  V  V1  1  0.00000000  0.50000000  0.25048649  1
  V  V2  1  0.00000000  0.50000000  0.58130757  1
  V  V3  1  0.50000000  0.24950827  0.67099807  1
  V  V4  1  0.50000000  0.25009815  0.00000000  1
  V  V5  1  0.50000000  0.24950827  0.32900193  1
  V  V6  1  0.74426795  -0.00000000  0.83387348  1
  V  V7  1  0.74426795  -0.00000000  0.16612652  1
  V  V8  1  0.74974851  -0.00000000  0.50000000  1
  V  V9  1  0.00000000  0.50000000  0.74951351  1
  V  V10  1  0.00000000  0.50000000  0.08274307  1
  V  V11  1  0.00000000  0.50000000  0.41869243  1
  V  V12  1  0.50000000  0.75049173  0.67099807  1
  V  V13  1  0.50000000  0.74990185  0.00000000  1
  V  V14  1  0.50000000  0.75049173  0.32900193  1
  V  V15  1  0.25573205  -0.00000000  0.83387348  1
  V  V16  1  0.25573205  -0.00000000  0.16612652  1
  V  V17  1  0.25025149  -0.00000000  0.50000000  1
  Au  Au0  1  0.50000000  0.50000000  0.50000000  1
  Au  Au1  1  0.00000000  -0.00000000  0.66593034  1
  Au  Au2  1  0.00000000  -0.00000000  0.00000000  1
  Au  Au3  1  0.00000000  -0.00000000  0.33406966  1
loop_
_geom_bond_atom_site_label_1
_geom_bond_atom_site_label_2
_geom_bond_distance
_geom_bond_site_symmetry_2
Al0 V3 2.659881 1_555
Al0 V12 2.659881 1_555
Al0 V15 2.696649 1_565
Al0 V6 2.696649 1_565
Al0 V6 2.696649 1_555
Al0 V15 2.696649 1_555
Al0 V13 2.699851 1_556
Al0 V4 2.699851 1_556
Al0 V0 2.700873 1_555
Al0 V0 2.700873 1_655
Al0 V9 2.707685 1_555
Al0 V9 2.707685 1_655
Al1 V5 2.659881 1_555
Al1 V14 2.659881 1_555
Al1 V16 2.696649 1_565
Al1 V7 2.696649 1_555
Al1 V16 2.696649 1_555
Al1 V7 2.696649 1_565
Al1 V4 2.699851 1_555
Al1 V13 2.699851 1_555
Al1 V10 2.700873 1_655
Al1 V10 2.700873 1_555
Al1 V1 2.707685 1_655
Al1 V1 2.707685 1_555
V0 V10 2.403671 1_556
V0 V9 2.436458 1_555
V0 V6 2.978660 1_465
V0 V6 2.978660 1_455
V0 V15 2.978660 1_555
V0 V15 2.978660 1_565
V1 V10 2.436458 1_555
V1 V11 2.443176 1_555
V1 V5 2.933521 1_455
V1 V14 2.933521 1_455
V1 V14 2.933521 1_555
V1 V5 2.933521 1_555
V1 V7 2.984455 1_455
V1 V7 2.984455 1_465
V1 V16 2.984455 1_565
V1 V16 2.984455 1_555
V2 V9 2.443176 1_555
V3 V6 2.907296 1_555
V3 V9 2.933521 1_555
V3 V9 2.933521 1_655
V4 V7 2.947026 1_555
V4 V6 2.947026 1_554
V5 V7 2.907296 1_555
V6 V9 2.984455 1_655
V6 V9 2.984455 1_645
V10 V7 2.978660 1_455
V10 V7 2.978660 1_465
V10 V16 2.978660 1_565
V10 V16 2.978660 1_555
V11 V2 2.361970 1_555
V12 V3 2.420251 1_565
V12 V3 2.429790 1_555
V12 V15 2.907296 1_565
V12 V6 2.907296 1_565
V12 V9 2.933521 1_555
V12 V9 2.933521 1_655
V13 V4 2.424068 1_555
V13 V4 2.425972 1_565
V13 V7 2.947026 1_565
V13 V16 2.947026 1_565
V13 V15 2.947026 1_564
V13 V6 2.947026 1_564
V14 V5 2.420251 1_565
V14 V5 2.429790 1_555
V14 V16 2.907296 1_565
V14 V7 2.907296 1_565
V15 V6 2.358976 1_555
V15 V6 2.469688 1_455
V15 V3 2.907296 1_555
V15 V4 2.947026 1_556
V15 V9 2.984455 1_545
V15 V9 2.984455 1_555
V16 V7 2.358976 1_555
V16 V7 2.469688 1_455
V16 V5 2.907296 1_555
V16 V4 2.947026 1_555
V17 V8 2.411903 1_555
V17 V8 2.416761 1_455
Au0 V11 2.687699 1_655
Au0 V11 2.687699 1_555
Au0 V2 2.687699 1_555
Au0 V2 2.687699 1_655
Au0 V17 2.708328 1_555
Au0 V17 2.708328 1_565
Au0 V8 2.708328 1_565
Au0 V8 2.708328 1_555
Au0 V5 2.764940 1_555
Au0 V14 2.764940 1_555
Au0 V3 2.764940 1_555
Au0 V12 2.764940 1_555
Au1 V8 2.696085 1_455
Au1 V17 2.696085 1_555
Au1 V12 2.701633 1_445
Au1 V12 2.701633 1_545
Au1 V3 2.701633 1_455
Au1 V3 2.701633 1_555
Au1 V9 2.711939 1_555
Au1 V9 2.711939 1_545
Au1 V2 2.718732 1_545
Au1 V2 2.718732 1_555
Au1 V6 2.734101 1_455
Au1 V15 2.734101 1_555
Au2 V4 2.701913 1_455
Au2 V13 2.701913 1_545
Au2 V13 2.701913 1_445
Au2 V4 2.701913 1_555
Au2 V0 2.706498 1_554
Au2 V10 2.706498 1_545
Au2 V10 2.706498 1_555
Au2 V0 2.706498 1_544
Au2 V6 2.710586 1_454
Au2 V15 2.710586 1_554
Au2 V16 2.710586 1_555
Au2 V7 2.710586 1_455
Au3 V8 2.696085 1_455
Au3 V17 2.696085 1_555
Au3 V14 2.701633 1_445
Au3 V5 2.701633 1_555
Au3 V14 2.701633 1_545
Au3 V5 2.701633 1_455
Au3 V1 2.711939 1_545
Au3 V1 2.711939 1_555
Au3 V11 2.718732 1_545
Au3 V11 2.718732 1_555
Au3 V7 2.734101 1_455
Au3 V16 2.734101 1_555
