# generated using pymatgen
data_CsMg6V
_symmetry_space_group_name_H-M   'P 1'
_cell_length_a   6.50331756
_cell_length_b   6.50331756
_cell_length_c   5.30285100
_cell_angle_alpha   90.00000000
_cell_angle_beta   90.00000000
_cell_angle_gamma   105.94525590
_symmetry_Int_Tables_number   1
_chemical_formula_structural   CsMg6V
_chemical_formula_sum   'Cs1 Mg6 V1'
_cell_volume   215.64518022
_cell_formula_units_Z   1
loop_
 _symmetry_equiv_pos_site_id
 _symmetry_equiv_pos_as_xyz
  1  'x, y, z'
loop_
 _atom_site_type_symbol
 _atom_site_label
 _atom_site_symmetry_multiplicity
 _atom_site_fract_x
 _atom_site_fract_y
 _atom_site_fract_z
 _atom_site_occupancy
  Cs  Cs0  1  0.35691700  0.64308300  0.50000000  1
  Mg  Mg0  1  0.35838200  0.14876400  0.50000000  1
  Mg  Mg1  1  0.85123600  0.64161800  0.50000000  1
  Mg  Mg2  1  0.09985000  0.30897300  0.00000000  1
  Mg  Mg3  1  0.69102700  0.90015000  0.00000000  1
  Mg  Mg4  1  0.64889800  0.35110200  0.00000000  1
  Mg  Mg5  1  0.13506700  0.86493300  0.00000000  1
  V  V0  1  0.85862800  0.14137200  0.50000000  1
loop_
_geom_bond_atom_site_label_1
_geom_bond_atom_site_label_2
_geom_bond_distance
_geom_bond_site_symmetry_2
Cs0 Mg1 3.217344 1_555
Cs0 Mg0 3.217344 1_555
Cs0 Mg0 3.286000 1_565
Cs0 Mg1 3.286000 1_455
Cs0 Mg5 3.512387 1_556
Cs0 Mg5 3.512387 1_555
Cs0 Mg2 3.542635 1_555
Cs0 Mg2 3.542635 1_556
Cs0 Mg3 3.542635 1_556
Cs0 Mg3 3.542635 1_555
Cs0 V0 3.916315 1_565
Cs0 V0 3.916315 1_455
Cs0 Mg4 4.027697 1_556
Cs0 Mg4 4.027697 1_555
Mg0 V0 3.237183 1_455
Mg0 V0 3.266792 1_555
Mg0 Mg4 3.311365 1_556
Mg0 Mg4 3.311365 1_555
Mg0 Mg5 3.327681 1_545
Mg0 Mg5 3.327681 1_546
Mg1 V0 3.237183 1_565
Mg1 V0 3.266792 1_555
Mg1 Mg4 3.311365 1_555
Mg1 Mg4 3.311365 1_556
Mg1 Mg5 3.327681 1_656
Mg1 Mg5 3.327681 1_655
Mg2 Mg5 2.958857 1_545
Mg2 Mg4 3.019465 1_455
Mg2 V0 3.120827 1_454
Mg2 V0 3.120827 1_455
Mg2 Mg4 3.505280 1_555
Mg3 Mg5 2.958857 1_655
Mg3 Mg4 3.019465 1_565
Mg3 V0 3.120827 1_564
Mg3 V0 3.120827 1_565
Mg3 Mg4 3.505280 1_555
Mg4 V0 3.431161 1_555
Mg4 V0 3.431161 1_554
