# generated using pymatgen
data_Nb2(CoO3)3
_symmetry_space_group_name_H-M   'P 1'
_cell_length_a   5.12713958
_cell_length_b   5.12713958
_cell_length_c   14.32945700
_cell_angle_alpha   90.00000000
_cell_angle_beta   90.00000000
_cell_angle_gamma   119.99999454
_symmetry_Int_Tables_number   1
_chemical_formula_structural   Nb2(CoO3)3
_chemical_formula_sum   'Nb4 Co6 O18'
_cell_volume   326.22006511
_cell_formula_units_Z   2
loop_
 _symmetry_equiv_pos_site_id
 _symmetry_equiv_pos_as_xyz
  1  'x, y, z'
loop_
 _atom_site_type_symbol
 _atom_site_label
 _atom_site_symmetry_multiplicity
 _atom_site_fract_x
 _atom_site_fract_y
 _atom_site_fract_z
 _atom_site_occupancy
  Nb  Nb0  1  0.00000000  0.00000000  0.85741700  1
  Nb  Nb1  1  0.00000000  0.00000000  0.14385100  1
  Nb  Nb2  1  0.00000000  0.00000000  0.64385100  1
  Nb  Nb3  1  0.00000000  0.00000000  0.35741700  1
  Co  Co0  1  0.66666700  0.33333300  0.67763600  1
  Co  Co1  1  0.66666700  0.33333300  0.98340400  1
  Co  Co2  1  0.66666700  0.33333300  0.48340400  1
  Co  Co3  1  0.33333300  0.66666700  0.50408600  1
  Co  Co4  1  0.33333300  0.66666700  0.00408600  1
  Co  Co5  1  0.66666700  0.33333300  0.17763600  1
  O  O0  1  0.36782000  0.33823100  0.08883800  1
  O  O1  1  0.67559400  0.68587300  0.92394700  1
  O  O2  1  0.92785400  0.24687100  0.24384600  1
  O  O3  1  0.31901800  0.07214600  0.24384600  1
  O  O4  1  0.97041100  0.63218000  0.08883800  1
  O  O5  1  0.66176900  0.63218000  0.58883800  1
  O  O6  1  0.75312900  0.07214600  0.74384600  1
  O  O7  1  0.01028000  0.32440600  0.92394700  1
  O  O8  1  0.01028000  0.68587300  0.42394700  1
  O  O9  1  0.36782000  0.02958900  0.58883800  1
  O  O10  1  0.31901800  0.24687100  0.74384600  1
  O  O11  1  0.97041100  0.33823100  0.58883800  1
  O  O12  1  0.75312900  0.68098200  0.24384600  1
  O  O13  1  0.31412700  0.98972000  0.92394700  1
  O  O14  1  0.66176900  0.02958900  0.08883800  1
  O  O15  1  0.67559400  0.98972000  0.42394700  1
  O  O16  1  0.31412700  0.32440600  0.42394700  1
  O  O17  1  0.92785400  0.68098200  0.74384600  1
loop_
_geom_bond_atom_site_label_1
_geom_bond_atom_site_label_2
_geom_bond_distance
_geom_bond_site_symmetry_2
Nb0 O7 1.894848 1_555
Nb0 O1 1.894850 1_445
Nb0 O13 1.894853 1_545
Nb0 O6 2.203542 1_455
Nb0 O10 2.203545 1_555
Nb0 O17 2.203546 1_445
Nb1 O14 1.978592 1_455
Nb1 O4 1.978592 1_445
Nb1 O0 1.978593 1_555
Nb1 O2 2.064040 1_455
Nb1 O12 2.064042 1_445
Nb1 O3 2.064043 1_555
Nb2 O11 1.978592 1_455
Nb2 O9 1.978592 1_555
Nb2 O5 1.978593 1_445
Nb2 O6 2.064040 1_455
Nb2 O10 2.064042 1_555
Nb2 O17 2.064043 1_445
Nb3 O15 1.894848 1_445
Nb3 O16 1.894850 1_555
Nb3 O8 1.894853 1_545
Nb3 O2 2.203542 1_455
Nb3 O12 2.203545 1_445
Nb3 O3 2.203546 1_555
Co0 O6 1.866440 1_555
Co0 O10 1.866440 1_555
Co0 O17 1.866440 1_555
Co0 O11 2.001473 1_555
Co0 O9 2.001475 1_555
Co0 O5 2.001477 1_555
Co1 O7 1.977974 1_655
Co1 O1 1.977974 1_555
Co1 O13 1.977974 1_545
Co1 O14 2.160874 1_556
Co1 O4 2.160876 1_556
Co1 O0 2.160877 1_556
Co2 O15 1.977974 1_545
Co2 O16 1.977974 1_555
Co2 O8 1.977974 1_655
Co2 O11 2.160874 1_555
Co2 O9 2.160876 1_555
Co2 O5 2.160877 1_555
Co3 O8 2.057901 1_555
Co3 O15 2.057906 1_555
Co3 O16 2.057910 1_555
Co3 O9 2.153958 1_565
Co3 O11 2.153960 1_455
Co3 O5 2.153962 1_555
Co4 O13 2.057901 1_554
Co4 O7 2.057906 1_554
Co4 O1 2.057910 1_554
Co4 O4 2.153958 1_455
Co4 O14 2.153960 1_565
Co4 O0 2.153962 1_555
Co5 O2 1.866440 1_555
Co5 O12 1.866440 1_555
Co5 O3 1.866440 1_555
Co5 O14 2.001473 1_555
Co5 O4 2.001475 1_555
Co5 O0 2.001477 1_555
