# generated using pymatgen
data_Dy5Tl3
_symmetry_space_group_name_H-M   'P 1'
_cell_length_a   8.04871300
_cell_length_b   8.04871300
_cell_length_c   9.20095936
_cell_angle_alpha   115.93712058
_cell_angle_beta   115.93712058
_cell_angle_gamma   90.00000000
_symmetry_Int_Tables_number   1
_chemical_formula_structural   Dy5Tl3
_chemical_formula_sum   'Dy10 Tl6'
_cell_volume   468.34474406
_cell_formula_units_Z   2
loop_
 _symmetry_equiv_pos_site_id
 _symmetry_equiv_pos_as_xyz
  1  'x, y, z'
loop_
 _atom_site_type_symbol
 _atom_site_label
 _atom_site_symmetry_multiplicity
 _atom_site_fract_x
 _atom_site_fract_y
 _atom_site_fract_z
 _atom_site_occupancy
  Dy  Dy0  1  0.50000000  0.50000000  0.00000000  1
  Dy  Dy1  1  0.00000000  0.00000000  0.00000000  1
  Dy  Dy2  1  0.98924900  0.81272700  0.30197500  1
  Dy  Dy3  1  0.31272700  0.48924900  0.30197500  1
  Dy  Dy4  1  0.81272700  0.31272700  0.30197500  1
  Dy  Dy5  1  0.48924900  0.98924900  0.30197500  1
  Dy  Dy6  1  0.01075100  0.18727300  0.69802500  1
  Dy  Dy7  1  0.68727300  0.51075100  0.69802500  1
  Dy  Dy8  1  0.18727300  0.68727300  0.69802500  1
  Dy  Dy9  1  0.51075100  0.01075100  0.69802500  1
  Tl  Tl0  1  0.75000000  0.75000000  0.50000000  1
  Tl  Tl1  1  0.25000000  0.25000000  0.50000000  1
  Tl  Tl2  1  0.63428800  0.86571200  0.00000000  1
  Tl  Tl3  1  0.36571200  0.13428800  0.00000000  1
  Tl  Tl4  1  0.86571200  0.36571200  0.00000000  1
  Tl  Tl5  1  0.13428800  0.63428800  0.00000000  1
loop_
_geom_bond_atom_site_label_1
_geom_bond_atom_site_label_2
_geom_bond_distance
_geom_bond_site_symmetry_2
Dy0 Tl2 3.135679 1_555
Dy0 Tl4 3.135679 1_555
Dy0 Tl5 3.135679 1_555
Dy0 Tl3 3.135679 1_555
Dy0 Tl1 3.614788 1_554
Dy0 Tl0 3.614788 1_555
Dy1 Tl3 3.135679 1_555
Dy1 Tl5 3.135679 1_545
Dy1 Tl4 3.135679 1_455
Dy1 Tl2 3.135679 1_445
Dy1 Tl0 3.614788 1_444
Dy1 Tl1 3.614788 1_555
Dy2 Tl2 3.186948 1_555
Dy2 Tl5 3.239121 1_655
Dy2 Tl4 3.239126 1_555
Dy2 Tl1 3.340146 1_665
Dy2 Tl0 3.340156 1_555
Dy3 Tl3 3.186948 1_555
Dy3 Tl5 3.239121 1_555
Dy3 Tl4 3.239126 1_455
Dy3 Tl0 3.340146 1_555
Dy3 Tl1 3.340156 1_555
Dy4 Tl4 3.186944 1_555
Dy4 Tl3 3.239127 1_555
Dy4 Tl2 3.239127 1_545
Dy4 Tl0 3.340149 1_555
Dy4 Tl1 3.340149 1_655
Dy5 Tl5 3.186952 1_555
Dy5 Tl2 3.239120 1_555
Dy5 Tl3 3.239120 1_565
Dy5 Tl0 3.340152 1_555
Dy5 Tl1 3.340152 1_565
Dy6 Tl3 3.186948 1_556
Dy6 Tl4 3.239121 1_456
Dy6 Tl5 3.239126 1_556
Dy6 Tl0 3.340146 1_445
Dy6 Tl1 3.340156 1_555
Dy7 Tl2 3.186948 1_556
Dy7 Tl4 3.239121 1_556
Dy7 Tl5 3.239126 1_656
Dy7 Tl1 3.340146 1_555
Dy7 Tl0 3.340156 1_555
Dy8 Tl5 3.186944 1_556
Dy8 Tl2 3.239127 1_556
Dy8 Tl3 3.239127 1_566
Dy8 Tl0 3.340149 1_455
Dy8 Tl1 3.340149 1_555
Dy9 Tl4 3.186952 1_556
Dy9 Tl3 3.239120 1_556
Dy9 Tl2 3.239120 1_546
Dy9 Tl1 3.340152 1_555
Dy9 Tl0 3.340152 1_545
Tl2 Tl3 3.057093 1_565
Tl4 Tl5 3.057093 1_655
