# generated using pymatgen
data_La8Hf4MgO20
_symmetry_space_group_name_H-M   'P 1'
_cell_length_a   11.36160535
_cell_length_b   12.04473530
_cell_length_c   3.94912645
_cell_angle_alpha   90.00000000
_cell_angle_beta   90.00000000
_cell_angle_gamma   90.06573950
_symmetry_Int_Tables_number   1
_chemical_formula_structural   La8Hf4MgO20
_chemical_formula_sum   'La8 Hf4 Mg1 O20'
_cell_volume   540.42784074
_cell_formula_units_Z   1
loop_
 _symmetry_equiv_pos_site_id
 _symmetry_equiv_pos_as_xyz
  1  'x, y, z'
loop_
 _atom_site_type_symbol
 _atom_site_label
 _atom_site_symmetry_multiplicity
 _atom_site_fract_x
 _atom_site_fract_y
 _atom_site_fract_z
 _atom_site_occupancy
  La  La0  1  0.10696350  0.70255904  0.25000000  1
  La  La1  1  0.14129762  0.06660940  0.25000000  1
  La  La2  1  0.36097643  0.55604977  0.75000000  1
  La  La3  1  0.39429441  0.22002024  0.75000000  1
  La  La4  1  0.58397594  0.77420041  0.25000000  1
  La  La5  1  0.63187284  0.44054840  0.25000000  1
  La  La6  1  0.87777161  0.97924289  0.75000000  1
  La  La7  1  0.88759227  0.28178299  0.75000000  1
  Hf  Hf0  1  0.17692092  0.37691583  0.25000000  1
  Hf  Hf1  1  0.31372738  0.87617033  0.75000000  1
  Hf  Hf2  1  0.68091169  0.12000604  0.25000000  1
  Hf  Hf3  1  0.83489469  0.61394611  0.75000000  1
  Mg  Mg0  1  0.83891971  0.79859794  0.25000000  1
  O  O0  1  0.02911181  0.11293418  0.75000000  1
  O  O1  1  0.01042567  0.33888131  0.25000000  1
  O  O2  1  0.23225855  0.72683137  0.75000000  1
  O  O3  1  0.23256422  0.53831154  0.25000000  1
  O  O4  1  0.23566206  0.38128580  0.75000000  1
  O  O5  1  0.25953056  0.88141165  0.25000000  1
  O  O6  1  0.28052251  0.04164121  0.75000000  1
  O  O7  1  0.26585783  0.23085723  0.25000000  1
  O  O8  1  0.48103554  0.82957048  0.75000000  1
  O  O9  1  0.48709931  0.60788531  0.25000000  1
  O  O10  1  0.50297611  0.40094238  0.75000000  1
  O  O11  1  0.51285400  0.15927168  0.25000000  1
  O  O12  1  0.77765662  0.77938227  0.75000000  1
  O  O13  1  0.72529406  0.94865135  0.25000000  1
  O  O14  1  0.73022963  0.12240081  0.75000000  1
  O  O15  1  0.74725039  0.62726570  0.25000000  1
  O  O16  1  0.77096968  0.45818657  0.75000000  1
  O  O17  1  0.75011810  0.27710465  0.25000000  1
  O  O18  1  0.00608920  0.61276419  0.75000000  1
  O  O19  1  0.98356514  0.89554895  0.25000000  1
loop_
_geom_bond_atom_site_label_1
_geom_bond_atom_site_label_2
_geom_bond_distance
_geom_bond_site_symmetry_2
La0 O3 2.440619 1_555
La0 O2 2.451514 1_555
La0 O2 2.451514 1_554
La0 O18 2.525737 1_555
La0 O18 2.525737 1_554
La0 O19 2.715962 1_455
La0 O5 2.763485 1_555
La1 O0 2.415884 1_554
La1 O0 2.415884 1_555
La1 O7 2.431077 1_555
La1 O6 2.548055 1_555
La1 O6 2.548055 1_554
La1 O5 2.605227 1_545
La1 O19 2.729155 1_445
La2 O3 2.464228 1_555
La2 O3 2.464228 1_556
La2 O10 2.469832 1_555
La2 O9 2.517940 1_556
La2 O9 2.517940 1_555
La2 O2 2.525266 1_555
La2 O4 2.539924 1_555
La3 O7 2.458815 1_556
La3 O7 2.458815 1_555
La3 O11 2.500206 1_556
La3 O11 2.500206 1_555
La3 O10 2.503455 1_555
La3 O6 2.506132 1_555
La3 O4 2.651284 1_555
La4 O9 2.284583 1_555
La4 O8 2.390263 1_554
La4 O8 2.390263 1_555
La4 O15 2.565334 1_555
La4 O13 2.642975 1_555
La4 O12 2.957158 1_554
La4 O12 2.957158 1_555
La5 O17 2.384633 1_555
La5 O10 2.503907 1_554
La5 O10 2.503907 1_555
La5 O16 2.537875 1_555
La5 O16 2.537875 1_554
La5 O15 2.601817 1_555
La5 O9 2.602984 1_555
La6 O0 2.354401 1_665
La6 O14 2.406215 1_565
La6 O19 2.522430 1_555
La6 O19 2.522430 1_556
La6 O13 2.652240 1_556
La6 O13 2.652240 1_555
La6 O12 2.661294 1_555
La7 O16 2.505321 1_555
La7 O1 2.513430 1_656
La7 O1 2.513430 1_655
La7 O17 2.518232 1_555
La7 O17 2.518232 1_556
La7 O0 2.594014 1_655
La7 O14 2.621830 1_555
Hf0 O1 1.945825 1_555
Hf0 O7 2.029787 1_555
Hf0 O3 2.043494 1_555
Hf0 O4 2.084947 1_554
Hf0 O4 2.084947 1_555
Hf1 O8 1.982641 1_555
Hf1 O2 2.021989 1_555
Hf1 O6 2.028869 1_565
Hf1 O5 2.069333 1_555
Hf1 O5 2.069333 1_556
Hf2 O11 1.967632 1_555
Hf2 O17 2.048246 1_555
Hf2 O14 2.052722 1_554
Hf2 O14 2.052722 1_555
Hf2 O13 2.125191 1_545
Hf3 O18 1.945113 1_655
Hf3 O16 2.010984 1_555
Hf3 O12 2.096778 1_555
Hf3 O15 2.217337 1_556
Hf3 O15 2.217337 1_555
Mg0 O19 2.014947 1_555
Mg0 O12 2.106319 1_555
Mg0 O12 2.106319 1_554
Mg0 O13 2.222270 1_555
Mg0 O15 2.310513 1_555
