# generated using pymatgen
data_PPd4
_symmetry_space_group_name_H-M   'P 1'
_cell_length_a   7.57092504
_cell_length_b   5.15823872
_cell_length_c   5.71577206
_cell_angle_alpha   89.95734263
_cell_angle_beta   90.00000000
_cell_angle_gamma   90.00000000
_symmetry_Int_Tables_number   1
_chemical_formula_structural   PPd4
_chemical_formula_sum   'P3 Pd12'
_cell_volume   223.21591936
_cell_formula_units_Z   3
loop_
 _symmetry_equiv_pos_site_id
 _symmetry_equiv_pos_as_xyz
  1  'x, y, z'
loop_
 _atom_site_type_symbol
 _atom_site_label
 _atom_site_symmetry_multiplicity
 _atom_site_fract_x
 _atom_site_fract_y
 _atom_site_fract_z
 _atom_site_occupancy
  P  P0  1  0.50000000  0.54548034  0.87957795  1
  P  P1  1  -0.00000000  0.04421871  0.60833956  1
  P  P2  1  -0.00000000  0.45915430  0.11592799  1
  Pd  Pd0  1  0.50000000  0.35085627  0.52141188  1
  Pd  Pd1  1  0.50000000  0.13412657  0.03645777  1
  Pd  Pd2  1  -0.00000000  0.62635774  0.48498049  1
  Pd  Pd3  1  -0.00000000  0.87353882  0.98177958  1
  Pd  Pd4  1  0.31635931  0.83111763  0.67152678  1
  Pd  Pd5  1  0.68578641  0.67304026  0.18151110  1
  Pd  Pd6  1  0.80795242  0.17124044  0.31808527  1
  Pd  Pd7  1  0.18985998  0.32753679  0.82194025  1
  Pd  Pd8  1  0.19204758  0.17124044  0.31808527  1
  Pd  Pd9  1  0.81014002  0.32753679  0.82194025  1
  Pd  Pd10  1  0.68364069  0.83111763  0.67152678  1
  Pd  Pd11  1  0.31421359  0.67304026  0.18151110  1
loop_
_geom_bond_atom_site_label_1
_geom_bond_atom_site_label_2
_geom_bond_distance
_geom_bond_site_symmetry_2
P0 Pd0 2.280772 1_555
P0 Pd1 2.302936 1_556
P0 Pd5 2.321941 1_556
P0 Pd11 2.321941 1_556
P0 Pd4 2.348490 1_555
P0 Pd10 2.348490 1_555
P0 Pd9 2.624166 1_555
P0 Pd7 2.624166 1_555
P1 Pd2 2.268321 1_545
P1 Pd6 2.300892 1_455
P1 Pd8 2.300892 1_555
P1 Pd3 2.308333 1_545
P1 Pd7 2.386452 1_555
P1 Pd9 2.386452 1_455
P1 Pd10 2.659851 1_445
P1 Pd4 2.659851 1_545
P2 Pd3 2.270323 1_554
P2 Pd2 2.279523 1_555
P2 Pd7 2.313530 1_554
P2 Pd9 2.313530 1_454
P2 Pd6 2.377446 1_455
P2 Pd8 2.377446 1_555
P2 Pd5 2.649048 1_455
P2 Pd11 2.649048 1_555
Pd0 Pd10 2.968066 1_555
Pd0 Pd4 2.968066 1_555
Pd0 Pd4 3.138983 1_545
Pd0 Pd10 3.138983 1_545
Pd1 Pd10 2.954935 1_544
Pd1 Pd4 2.954935 1_544
Pd2 Pd4 2.826800 1_555
Pd3 Pd4 2.988283 1_555
Pd4 Pd8 2.835438 1_565
Pd4 Pd7 2.866453 1_565
Pd4 Pd7 2.898363 1_555
Pd10 Pd4 2.780660 1_555
Pd10 Pd2 2.826800 1_655
Pd10 Pd6 2.835438 1_565
Pd10 Pd9 2.866453 1_565
Pd10 Pd9 2.898363 1_555
Pd10 Pd5 2.917726 1_555
Pd10 Pd3 2.988283 1_655
Pd10 Pd5 3.026311 1_556
Pd11 Pd4 2.917726 1_555
Pd11 Pd4 3.026311 1_554
