# generated using pymatgen
data_Na4Al3Si3NO15
_symmetry_space_group_name_H-M   'P 1'
_cell_length_a   9.13354700
_cell_length_b   9.23132267
_cell_length_c   9.23683492
_cell_angle_alpha   90.17942146
_cell_angle_beta   90.03324790
_cell_angle_gamma   90.24247673
_symmetry_Int_Tables_number   1
_chemical_formula_structural   Na4Al3Si3NO15
_chemical_formula_sum   'Na8 Al6 Si6 N2 O30'
_cell_volume   778.79021468
_cell_formula_units_Z   2
loop_
 _symmetry_equiv_pos_site_id
 _symmetry_equiv_pos_as_xyz
  1  'x, y, z'
loop_
 _atom_site_type_symbol
 _atom_site_label
 _atom_site_symmetry_multiplicity
 _atom_site_fract_x
 _atom_site_fract_y
 _atom_site_fract_z
 _atom_site_occupancy
  Na  Na0  1  0.21361800  0.78970400  0.20811100  1
  Na  Na1  1  0.78898300  0.20778500  0.20788500  1
  Na  Na2  1  0.22253000  0.21993200  0.21898900  1
  Na  Na3  1  0.77863900  0.78147900  0.21646800  1
  Na  Na4  1  0.20582900  0.79840600  0.79611600  1
  Na  Na5  1  0.79338600  0.20558100  0.79002500  1
  Na  Na6  1  0.20820300  0.18596800  0.79204200  1
  Na  Na7  1  0.79150500  0.82037900  0.79430000  1
  Al  Al0  1  0.24669600  0.49596100  0.00484500  1
  Al  Al1  1  0.75054000  0.50181100  0.00266500  1
  Al  Al2  1  0.50004600  0.00076800  0.25082200  1
  Al  Al3  1  0.99929600  0.74852700  0.49656000  1
  Al  Al4  1  0.99946100  0.25347000  0.49965200  1
  Al  Al5  1  0.49822400  0.99877300  0.74980200  1
  Si  Si0  1  0.50307900  0.24900300  0.99960300  1
  Si  Si1  1  0.49571500  0.74981200  0.00081400  1
  Si  Si2  1  0.99925300  0.49936000  0.25110600  1
  Si  Si3  1  0.75118200  0.00216200  0.49952100  1
  Si  Si4  1  0.24727300  0.99869900  0.49846300  1
  Si  Si5  1  0.99945200  0.50404000  0.75049400  1
  N  N0  1  0.00370600  0.99766200  0.01134800  1
  N  N1  1  0.49924400  0.49970900  0.50091400  1
  O  O0  1  0.36000800  0.34772900  0.03865500  1
  O  O1  1  0.64059200  0.65221700  0.03790400  1
  O  O2  1  0.14525100  0.54431200  0.15841900  1
  O  O3  1  0.85690900  0.45325100  0.15250400  1
  O  O4  1  0.53918700  0.15209700  0.14337800  1
  O  O5  1  0.46179900  0.84774400  0.14480300  1
  O  O6  1  0.34510200  0.03975100  0.35556800  1
  O  O7  1  0.65617700  0.96249100  0.35410200  1
  O  O8  1  0.04208100  0.35699000  0.34697300  1
  O  O9  1  0.95318800  0.64188100  0.34605700  1
  O  O10  1  0.15455300  0.85305100  0.45556700  1
  O  O11  1  0.84263000  0.14971000  0.46190500  1
  O  O12  1  0.14698800  0.13927300  0.53938100  1
  O  O13  1  0.85234000  0.86237900  0.53877400  1
  O  O14  1  0.03586900  0.64630500  0.65157500  1
  O  O15  1  0.96436500  0.35815800  0.65469900  1
  O  O16  1  0.65541100  0.03341900  0.64645100  1
  O  O17  1  0.34135400  0.96387200  0.64565600  1
  O  O18  1  0.46247100  0.15174600  0.85700700  1
  O  O19  1  0.53452600  0.84684300  0.85792400  1
  O  O20  1  0.17933700  0.47214100  0.81025500  1
  O  O21  1  0.81629800  0.53221400  0.81018200  1
  O  O22  1  0.08094700  0.37855200  0.91238100  1
  O  O23  1  0.92495600  0.62162000  0.90664600  1
  O  O24  1  0.12871900  0.99552900  0.93596800  1
  O  O25  1  0.88269000  0.01453700  0.93098300  1
  O  O26  1  0.99298700  0.87449600  0.10193300  1
  O  O27  1  0.00924700  0.09995200  0.12563000  1
  O  O28  1  0.34626700  0.65689100  0.96749600  1
  O  O29  1  0.65188900  0.34185400  0.96307500  1
loop_
_geom_bond_atom_site_label_1
_geom_bond_atom_site_label_2
_geom_bond_distance
_geom_bond_site_symmetry_2
Na0 O26 2.377230 1_455
Na0 O2 2.390257 1_555
Na0 O5 2.400104 1_555
Na0 O10 2.419338 1_555
Na0 O28 2.812343 1_554
Na1 O27 2.372647 1_655
Na1 O3 2.403530 1_555
Na1 O4 2.410648 1_555
Na1 O11 2.457963 1_555
Na2 O6 2.374596 1_555
Na2 O8 2.392744 1_555
Na2 O27 2.395617 1_555
Na2 O0 2.396929 1_555
Na3 O9 2.379064 1_555
Na3 O7 2.379836 1_555
Na3 O26 2.383953 1_555
Na3 O1 2.388842 1_555
Na4 O24 2.339499 1_555
Na4 O17 2.407516 1_555
Na4 O28 2.425409 1_555
Na4 O14 2.476112 1_555
Na5 O25 2.344375 1_555
Na5 O29 2.410662 1_555
Na5 O16 2.416725 1_555
Na5 O15 2.445344 1_555
Na6 O24 2.321621 1_545
Na6 O22 2.398685 1_555
Na6 O18 2.420550 1_555
Na6 O12 2.436211 1_555
Na6 O20 2.660798 1_555
Na6 O17 2.741610 1_545
Na7 O25 2.339234 1_565
Na7 O19 2.433028 1_555
Na7 O23 2.440993 1_555
Na7 O13 2.456680 1_555
Na7 O21 2.675195 1_555
Na7 O16 2.704318 1_565
Al0 O0 1.747963 1_555
Al0 O2 1.752436 1_555
Al0 O28 1.773479 1_554
Al0 O20 1.911173 1_554
Al0 O22 2.043230 1_554
Al1 O1 1.746863 1_555
Al1 O3 1.751110 1_555
Al1 O29 1.763789 1_554
Al1 O21 1.898284 1_554
Al1 O23 2.130839 1_554
Al2 O5 1.750218 1_545
Al2 O4 1.751893 1_555
Al2 O6 1.752734 1_555
Al2 O7 1.753080 1_545
Al3 O14 1.750089 1_655
Al3 O9 1.751107 1_555
Al3 O13 1.751631 1_555
Al3 O10 1.754019 1_655
Al4 O8 1.749156 1_655
Al4 O12 1.753699 1_655
Al4 O11 1.754018 1_555
Al4 O15 1.755625 1_555
Al5 O16 1.753396 1_565
Al5 O17 1.753458 1_555
Al5 O18 1.754101 1_565
Al5 O19 1.756906 1_555
N0 O24 1.337888 1_554
N0 O25 1.340982 1_464
N0 O27 1.414850 1_565
N0 O26 1.416873 1_455
O0 Si0 1.636113 1_554
O1 Si1 1.640583 1_555
O2 Si2 1.637742 1_455
O3 Si2 1.640874 1_555
O4 Si0 1.637713 1_554
O5 Si1 1.636300 1_555
O6 Si4 1.638831 1_545
O7 Si3 1.638343 1_565
O8 Si2 1.635746 1_455
O9 Si2 1.635565 1_555
O10 Si4 1.633570 1_555
O11 Si3 1.633170 1_555
O12 Si4 1.634993 1_545
O13 Si3 1.631817 1_565
O14 Si5 1.635356 1_455
O15 Si5 1.639439 1_555
O16 Si3 1.640541 1_555
O17 Si4 1.641332 1_555
O18 Si0 1.633304 1_555
O19 Si1 1.635618 1_556
O20 O22 1.563123 1_555
O20 Si5 1.759230 1_455
O21 O23 1.564435 1_555
O21 Si5 1.781537 1_555
O22 Si5 2.036866 1_455
O23 Si5 1.928485 1_555
O28 Si1 1.637575 1_556
O29 Si0 1.639614 1_555
