# generated using pymatgen
data_PrMg(MoO3)2
_symmetry_space_group_name_H-M   'P 1'
_cell_length_a   5.69176200
_cell_length_b   5.47867600
_cell_length_c   9.74372192
_cell_angle_alpha   56.05600940
_cell_angle_beta   90.00000000
_cell_angle_gamma   90.00000000
_symmetry_Int_Tables_number   1
_chemical_formula_structural   PrMg(MoO3)2
_chemical_formula_sum   'Pr2 Mg2 Mo4 O12'
_cell_volume   252.06207138
_cell_formula_units_Z   2
loop_
 _symmetry_equiv_pos_site_id
 _symmetry_equiv_pos_as_xyz
  1  'x, y, z'
loop_
 _atom_site_type_symbol
 _atom_site_label
 _atom_site_symmetry_multiplicity
 _atom_site_fract_x
 _atom_site_fract_y
 _atom_site_fract_z
 _atom_site_occupancy
  Pr  Pr0  1  0.19474000  0.74082600  0.25063100  1
  Pr  Pr1  1  0.80526000  0.74082600  0.75063100  1
  Mg  Mg0  1  0.70178100  0.26528900  0.25032300  1
  Mg  Mg1  1  0.29821900  0.26528900  0.75032300  1
  Mo  Mo0  1  0.74692300  0.00083200  0.00044600  1
  Mo  Mo1  1  0.74342100  0.50168900  0.50026900  1
  Mo  Mo2  1  0.25307700  0.00083200  0.50044600  1
  Mo  Mo3  1  0.25657900  0.50168900  0.00026900  1
  O  O0  1  0.66907400  0.14320300  0.74844400  1
  O  O1  1  0.45505100  0.71831100  0.06879900  1
  O  O2  1  0.46069800  0.37259600  0.43190000  1
  O  O3  1  0.93108900  0.25951500  0.42981000  1
  O  O4  1  0.94263200  0.60524000  0.06595200  1
  O  O5  1  0.20243000  0.89252700  0.75339300  1
  O  O6  1  0.33092600  0.14320300  0.24844400  1
  O  O7  1  0.53930200  0.37259600  0.93190000  1
  O  O8  1  0.54494900  0.71831100  0.56879900  1
  O  O9  1  0.06891100  0.25951500  0.92981000  1
  O  O10  1  0.05736800  0.60524000  0.56595200  1
  O  O11  1  0.79757000  0.89252700  0.25339300  1
loop_
_geom_bond_atom_site_label_1
_geom_bond_atom_site_label_2
_geom_bond_distance
_geom_bond_site_symmetry_2
Mg0 O11 2.097779 1_545
Mg0 O3 2.168232 1_555
Mg0 O4 2.199734 1_555
Mg0 O6 2.217420 1_555
Mg0 O1 2.521539 1_555
Mg0 O2 2.553489 1_555
Mg1 O5 2.097779 1_545
Mg1 O9 2.168232 1_555
Mg1 O10 2.199734 1_555
Mg1 O0 2.217420 1_555
Mg1 O8 2.521539 1_555
Mg1 O7 2.553489 1_555
Mo0 O1 2.109013 1_545
Mo0 O7 2.114670 1_554
Mo0 O0 2.166802 1_554
Mo0 O9 2.179830 1_654
Mo0 O4 2.191037 1_545
Mo0 O11 2.208271 1_545
Mo1 O8 2.003871 1_555
Mo1 O2 2.014860 1_555
Mo1 O10 2.080861 1_655
Mo1 O3 2.095214 1_555
Mo1 O0 2.140106 1_555
Mo1 O11 2.171217 1_555
Mo2 O8 2.109013 1_545
Mo2 O2 2.114670 1_555
Mo2 O6 2.166802 1_555
Mo2 O3 2.179830 1_455
Mo2 O10 2.191037 1_545
Mo2 O5 2.208271 1_545
Mo3 O1 2.003871 1_555
Mo3 O7 2.014860 1_554
Mo3 O4 2.080861 1_455
Mo3 O9 2.095214 1_554
Mo3 O6 2.140106 1_555
Mo3 O5 2.171217 1_554
O0 Pr1 2.325644 1_545
O1 Pr0 2.365057 1_555
O2 Pr0 2.345582 1_555
O3 Pr0 2.666861 1_655
O3 Pr1 2.905117 1_545
O4 Pr0 2.709554 1_655
O4 Pr1 2.837962 1_554
O5 Pr1 2.413869 1_455
O6 Pr0 2.325644 1_545
O7 Pr1 2.345582 1_555
O8 Pr1 2.365057 1_555
O9 Pr1 2.666861 1_455
O9 Pr0 2.905117 1_546
O10 Pr1 2.709554 1_455
O10 Pr0 2.837962 1_555
O11 Pr0 2.413869 1_655
