# generated using pymatgen
data_Rb2CdSi5O12
_symmetry_space_group_name_H-M   'P 1'
_cell_length_a   13.62208400
_cell_length_b   13.89255900
_cell_length_c   14.12549600
_cell_angle_alpha   90.00000000
_cell_angle_beta   90.00000000
_cell_angle_gamma   90.00000000
_symmetry_Int_Tables_number   1
_chemical_formula_structural   Rb2CdSi5O12
_chemical_formula_sum   'Rb16 Cd8 Si40 O96'
_cell_volume   2673.18804595
_cell_formula_units_Z   8
loop_
 _symmetry_equiv_pos_site_id
 _symmetry_equiv_pos_as_xyz
  1  'x, y, z'
loop_
 _atom_site_type_symbol
 _atom_site_label
 _atom_site_symmetry_multiplicity
 _atom_site_fract_x
 _atom_site_fract_y
 _atom_site_fract_z
 _atom_site_occupancy
  Rb  Rb0  1  0.12494000  0.12787800  0.14519100  1
  Rb  Rb1  1  0.62494000  0.37212200  0.85480900  1
  Rb  Rb2  1  0.87506000  0.62787800  0.35480900  1
  Rb  Rb3  1  0.37506000  0.87212200  0.64519100  1
  Rb  Rb4  1  0.87506000  0.87212200  0.85480900  1
  Rb  Rb5  1  0.37506000  0.62787800  0.14519100  1
  Rb  Rb6  1  0.12494000  0.37212200  0.64519100  1
  Rb  Rb7  1  0.62494000  0.12787800  0.35480900  1
  Rb  Rb8  1  0.86620100  0.37747900  0.12143000  1
  Rb  Rb9  1  0.36620100  0.12252100  0.87857000  1
  Rb  Rb10  1  0.13379900  0.87747900  0.37857000  1
  Rb  Rb11  1  0.63379900  0.62252100  0.62143000  1
  Rb  Rb12  1  0.13379900  0.62252100  0.87857000  1
  Rb  Rb13  1  0.63379900  0.87747900  0.12143000  1
  Rb  Rb14  1  0.86620100  0.12252100  0.62143000  1
  Rb  Rb15  1  0.36620100  0.37747900  0.37857000  1
  Cd  Cd0  1  0.38706700  0.83794800  0.93929700  1
  Cd  Cd1  1  0.88706700  0.66205200  0.06070300  1
  Cd  Cd2  1  0.61293300  0.33794800  0.56070300  1
  Cd  Cd3  1  0.11293300  0.16205200  0.43929700  1
  Cd  Cd4  1  0.61293300  0.16205200  0.06070300  1
  Cd  Cd5  1  0.11293300  0.33794800  0.93929700  1
  Cd  Cd6  1  0.38706700  0.66205200  0.43929700  1
  Cd  Cd7  1  0.88706700  0.83794800  0.56070300  1
  Si  Si0  1  0.34252500  0.91310000  0.16038500  1
  Si  Si1  1  0.84252500  0.58690000  0.83961500  1
  Si  Si2  1  0.65747500  0.41310000  0.33961500  1
  Si  Si3  1  0.15747500  0.08690000  0.66038500  1
  Si  Si4  1  0.65747500  0.08690000  0.83961500  1
  Si  Si5  1  0.15747500  0.41310000  0.16038500  1
  Si  Si6  1  0.34252500  0.58690000  0.66038500  1
  Si  Si7  1  0.84252500  0.91310000  0.33961500  1
  Si  Si8  1  0.40210800  0.37186600  0.68994700  1
  Si  Si9  1  0.90210800  0.12813400  0.31005300  1
  Si  Si10  1  0.59789200  0.87186600  0.81005300  1
  Si  Si11  1  0.09789200  0.62813400  0.18994700  1
  Si  Si12  1  0.59789200  0.62813400  0.31005300  1
  Si  Si13  1  0.09789200  0.87186600  0.68994700  1
  Si  Si14  1  0.40210800  0.12813400  0.18994700  1
  Si  Si15  1  0.90210800  0.37186600  0.81005300  1
  Si  Si16  1  0.15798900  0.59416700  0.39394500  1
  Si  Si17  1  0.65798900  0.90583300  0.60605500  1
  Si  Si18  1  0.84201100  0.09416700  0.10605500  1
  Si  Si19  1  0.34201100  0.40583300  0.89394500  1
  Si  Si20  1  0.84201100  0.40583300  0.60605500  1
  Si  Si21  1  0.34201100  0.09416700  0.39394500  1
  Si  Si22  1  0.15798900  0.90583300  0.89394500  1
  Si  Si23  1  0.65798900  0.59416700  0.10605500  1
  Si  Si24  1  0.08041400  0.11274800  0.86963700  1
  Si  Si25  1  0.58041400  0.38725200  0.13036300  1
  Si  Si26  1  0.91958600  0.61274800  0.63036300  1
  Si  Si27  1  0.41958600  0.88725200  0.36963700  1
  Si  Si28  1  0.91958600  0.88725200  0.13036300  1
  Si  Si29  1  0.41958600  0.61274800  0.86963700  1
  Si  Si30  1  0.08041400  0.38725200  0.36963700  1
  Si  Si31  1  0.58041400  0.11274800  0.63036300  1
  Si  Si32  1  0.63500000  0.67579000  0.90299600  1
  Si  Si33  1  0.13500000  0.82421000  0.09700400  1
  Si  Si34  1  0.36500000  0.17579000  0.59700400  1
  Si  Si35  1  0.86500000  0.32421000  0.40299600  1
  Si  Si36  1  0.36500000  0.32421000  0.09700400  1
  Si  Si37  1  0.86500000  0.17579000  0.90299600  1
  Si  Si38  1  0.63500000  0.82421000  0.40299600  1
  Si  Si39  1  0.13500000  0.67579000  0.59700400  1
  O  O0  1  0.37295500  0.15932700  0.29997100  1
  O  O1  1  0.87295500  0.34067300  0.70002900  1
  O  O2  1  0.62704500  0.65932700  0.20002900  1
  O  O3  1  0.12704500  0.84067300  0.79997100  1
  O  O4  1  0.62704500  0.84067300  0.70002900  1
  O  O5  1  0.12704500  0.65932700  0.29997100  1
  O  O6  1  0.37295500  0.34067300  0.79997100  1
  O  O7  1  0.87295500  0.15932700  0.20002900  1
  O  O8  1  0.62848600  0.18013400  0.55106000  1
  O  O9  1  0.12848600  0.31986600  0.44894000  1
  O  O10  1  0.37151400  0.68013400  0.94894000  1
  O  O11  1  0.87151400  0.81986600  0.05106000  1
  O  O12  1  0.37151400  0.81986600  0.44894000  1
  O  O13  1  0.87151400  0.68013400  0.55106000  1
  O  O14  1  0.62848600  0.31986600  0.05106000  1
  O  O15  1  0.12848600  0.18013400  0.94894000  1
  O  O16  1  0.72663600  0.88548900  0.36175100  1
  O  O17  1  0.22663600  0.61451100  0.63824900  1
  O  O18  1  0.27336400  0.38548900  0.13824900  1
  O  O19  1  0.77336400  0.11451100  0.86175100  1
  O  O20  1  0.27336400  0.11451100  0.63824900  1
  O  O21  1  0.77336400  0.38548900  0.36175100  1
  O  O22  1  0.72663600  0.61451100  0.86175100  1
  O  O23  1  0.22663600  0.88548900  0.13824900  1
  O  O24  1  0.42032200  0.63262100  0.58860700  1
  O  O25  1  0.92032200  0.86737900  0.41139300  1
  O  O26  1  0.57967800  0.13262100  0.91139300  1
  O  O27  1  0.07967800  0.36737900  0.08860700  1
  O  O28  1  0.57967800  0.36737900  0.41139300  1
  O  O29  1  0.07967800  0.13262100  0.58860700  1
  O  O30  1  0.42032200  0.86737900  0.08860700  1
  O  O31  1  0.92032200  0.63262100  0.91139300  1
  O  O32  1  0.16178300  0.96846500  0.66278600  1
  O  O33  1  0.66178300  0.53153500  0.33721400  1
  O  O34  1  0.83821700  0.46846500  0.83721400  1
  O  O35  1  0.33821700  0.03153500  0.16278600  1
  O  O36  1  0.83821700  0.03153500  0.33721400  1
  O  O37  1  0.33821700  0.46846500  0.66278600  1
  O  O38  1  0.16178300  0.53153500  0.16278600  1
  O  O39  1  0.22970700  0.43792100  0.89640800  1
  O  O40  1  0.66178300  0.96846500  0.83721400  1
  O  O41  1  0.98221100  0.61763800  0.17740600  1
  O  O42  1  0.51778900  0.38236200  0.67740600  1
  O  O43  1  0.01778900  0.11763800  0.32259400  1
  O  O44  1  0.51778900  0.11763800  0.17740600  1
  O  O45  1  0.01778900  0.38236200  0.82259400  1
  O  O46  1  0.48221100  0.61763800  0.32259400  1
  O  O47  1  0.98221100  0.88236200  0.67740600  1
  O  O48  1  0.86140700  0.62661000  0.73134300  1
  O  O49  1  0.36140700  0.87339000  0.26865700  1
  O  O50  1  0.13859300  0.12661000  0.76865700  1
  O  O51  1  0.63859300  0.37339000  0.23134300  1
  O  O52  1  0.13859300  0.37339000  0.26865700  1
  O  O53  1  0.63859300  0.12661000  0.73134300  1
  O  O54  1  0.86140700  0.87339000  0.23134300  1
  O  O55  1  0.36140700  0.62661000  0.76865700  1
  O  O56  1  0.14987400  0.70994700  0.12029300  1
  O  O57  1  0.64987400  0.79005300  0.87970700  1
  O  O58  1  0.85012600  0.20994700  0.37970700  1
  O  O59  1  0.35012600  0.29005300  0.62029300  1
  O  O60  1  0.85012600  0.29005300  0.87970700  1
  O  O61  1  0.35012600  0.20994700  0.12029300  1
  O  O62  1  0.14987400  0.79005300  0.62029300  1
  O  O63  1  0.64987400  0.70994700  0.37970700  1
  O  O64  1  0.46235400  0.36512800  0.15107400  1
  O  O65  1  0.96235400  0.13487200  0.84892600  1
  O  O66  1  0.53764600  0.86512800  0.34892600  1
  O  O67  1  0.03764600  0.63487200  0.65107400  1
  O  O68  1  0.53764600  0.63487200  0.84892600  1
  O  O69  1  0.03764600  0.86512800  0.15107400  1
  O  O70  1  0.46235400  0.13487200  0.65107400  1
  O  O71  1  0.96235400  0.36512800  0.34892600  1
  O  O72  1  0.08108400  0.50251300  0.39876600  1
  O  O73  1  0.58108400  0.99748700  0.60123400  1
  O  O74  1  0.91891600  0.00251300  0.10123400  1
  O  O75  1  0.41891600  0.49748700  0.89876600  1
  O  O76  1  0.91891600  0.49748700  0.60123400  1
  O  O77  1  0.41891600  0.00251300  0.39876600  1
  O  O78  1  0.08108400  0.99748700  0.89876600  1
  O  O79  1  0.58108400  0.50251300  0.10123400  1
  O  O80  1  0.37336000  0.16731000  0.48208300  1
  O  O81  1  0.87336000  0.33269000  0.51791700  1
  O  O82  1  0.62664000  0.66731000  0.01791700  1
  O  O83  1  0.12664000  0.83269000  0.98208300  1
  O  O84  1  0.62664000  0.83269000  0.51791700  1
  O  O85  1  0.12664000  0.66731000  0.48208300  1
  O  O86  1  0.37336000  0.33269000  0.98208300  1
  O  O87  1  0.87336000  0.16731000  0.01791700  1
  O  O88  1  0.72970700  0.43792100  0.60359200  1
  O  O89  1  0.22970700  0.06207900  0.39640800  1
  O  O90  1  0.27029300  0.93792100  0.89640800  1
  O  O91  1  0.77029300  0.56207900  0.10359200  1
  O  O92  1  0.27029300  0.56207900  0.39640800  1
  O  O93  1  0.77029300  0.93792100  0.60359200  1
  O  O94  1  0.72970700  0.06207900  0.10359200  1
  O  O95  1  0.48221100  0.88236200  0.82259400  1
loop_
_geom_bond_atom_site_label_1
_geom_bond_atom_site_label_2
_geom_bond_distance
_geom_bond_site_symmetry_2
Cd0 O95 2.185864 1_555
Cd0 O30 2.195586 1_556
Cd0 O90 2.196898 1_555
Cd0 O10 2.206861 1_555
Cd1 O41 2.185864 1_555
Cd1 O31 2.195586 1_554
Cd1 O91 2.196898 1_555
Cd1 O11 2.206861 1_555
Cd2 O42 2.185864 1_555
Cd2 O28 2.195586 1_555
Cd2 O88 2.196898 1_555
Cd2 O8 2.206861 1_555
Cd3 O43 2.185864 1_555
Cd3 O29 2.195586 1_555
Cd3 O89 2.196898 1_555
Cd3 O9 2.206861 1_555
Cd4 O44 2.185864 1_555
Cd4 O26 2.195586 1_554
Cd4 O94 2.196898 1_555
Cd4 O14 2.206861 1_555
Cd5 O45 2.185864 1_555
Cd5 O27 2.195586 1_556
Cd5 O39 2.196898 1_555
Cd5 O15 2.206861 1_555
Cd6 O46 2.185864 1_555
Cd6 O24 2.195586 1_555
Cd6 O92 2.196898 1_555
Cd6 O12 2.206861 1_555
Cd7 O47 2.185864 1_555
Cd7 O25 2.195586 1_555
Cd7 O93 2.196898 1_555
Cd7 O13 2.206861 1_555
O0 Si21 1.661086 1_555
O0 Si14 1.661584 1_555
O0 Rb15 3.228962 1_555
O1 Si20 1.661086 1_555
O1 Si15 1.661584 1_555
O1 Rb14 3.228962 1_555
O2 Si23 1.661086 1_555
O2 Si12 1.661584 1_555
O2 Rb13 3.228962 1_555
O3 Si22 1.661086 1_555
O3 Si13 1.661584 1_555
O3 Rb12 3.228962 1_555
O4 Si17 1.661086 1_555
O4 Si10 1.661584 1_555
O4 Rb11 3.228962 1_555
O5 Si16 1.661086 1_555
O5 Si11 1.661584 1_555
O5 Rb10 3.228962 1_555
O6 Si19 1.661086 1_555
O6 Si8 1.661584 1_555
O6 Rb9 3.228962 1_555
O7 Si18 1.661086 1_555
O7 Si9 1.661584 1_555
O7 Rb8 3.228962 1_555
O8 Si31 1.600017 1_555
O8 Rb7 2.866032 1_555
O8 Rb14 3.480582 1_555
O9 Si30 1.600017 1_555
O9 Rb6 2.866032 1_555
O9 Rb15 3.480582 1_555
O10 Si29 1.600017 1_555
O10 Rb5 2.866032 1_556
O10 Rb12 3.480582 1_555
O11 Si28 1.600017 1_555
O11 Rb4 2.866032 1_554
O11 Rb13 3.480582 1_555
O12 Si27 1.600017 1_555
O12 Rb3 2.866032 1_555
O12 Rb10 3.480582 1_555
O13 Si26 1.600017 1_555
O13 Rb2 2.866032 1_555
O13 Rb11 3.480582 1_555
O14 Si25 1.600017 1_555
O14 Rb1 2.866032 1_554
O14 Rb8 3.480582 1_555
O15 Si24 1.600017 1_555
O15 Rb0 2.866032 1_556
O15 Rb9 3.480582 1_555
O16 Si38 1.619372 1_555
O16 Si7 1.654401 1_555
O17 Si39 1.619372 1_555
O17 Si6 1.654401 1_555
O18 Si36 1.619372 1_555
O18 Si5 1.654401 1_555
O19 Si37 1.619372 1_555
O19 Si4 1.654401 1_555
O20 Si34 1.619372 1_555
O20 Si3 1.654401 1_555
O21 Si35 1.619372 1_555
O21 Si2 1.654401 1_555
O22 Si32 1.619372 1_555
O22 Si1 1.654401 1_555
O23 Si33 1.619372 1_555
O23 Si0 1.654401 1_555
O24 Si6 1.598291 1_555
O24 Rb11 2.948071 1_555
O25 Si7 1.598291 1_555
O25 Rb10 2.948071 1_655
O26 Si4 1.598291 1_555
O26 Rb9 2.948071 1_555
O27 Si5 1.598291 1_555
O27 Rb8 2.948071 1_455
O28 Si2 1.598291 1_555
O28 Rb15 2.948071 1_555
O29 Si3 1.598291 1_555
O29 Rb14 2.948071 1_455
O30 Si0 1.598291 1_555
O30 Rb13 2.948071 1_555
O31 Si1 1.598291 1_555
O31 Rb12 2.948071 1_655
O32 Si13 1.644887 1_555
O32 Si3 1.646761 1_565
O33 Si12 1.644887 1_555
O33 Si2 1.646761 1_555
O34 Si15 1.644887 1_555
O34 Si1 1.646761 1_555
O35 Si14 1.644887 1_555
O35 Si0 1.646761 1_545
O36 Si9 1.644887 1_555
O36 Si7 1.646761 1_545
O37 Si8 1.644887 1_555
O37 Si6 1.646761 1_555
O38 Si11 1.644887 1_555
O38 Si5 1.646761 1_555
O39 Si19 1.593821 1_555
O39 Rb12 2.889177 1_555
O40 Si10 1.644887 1_555
O40 Si4 1.646761 1_565
O41 Si11 1.592432 1_655
O41 Rb2 2.903496 1_555
O42 Si8 1.592432 1_555
O42 Rb1 2.903496 1_555
O43 Si9 1.592432 1_455
O43 Rb0 2.903496 1_555
O44 Si14 1.592432 1_555
O44 Rb7 2.903496 1_555
O45 Si15 1.592432 1_455
O45 Rb6 2.903496 1_555
O46 Si12 1.592432 1_555
O46 Rb5 2.903496 1_555
O47 Si13 1.592432 1_655
O47 Rb4 2.903496 1_555
O48 Si26 1.643097 1_555
O48 Si1 1.646072 1_555
O48 Rb11 3.467966 1_555
O49 Si27 1.643097 1_555
O49 Si0 1.646072 1_555
O49 Rb10 3.467966 1_555
O50 Si24 1.643097 1_555
O50 Si3 1.646072 1_555
O50 Rb9 3.467966 1_555
O51 Si25 1.643097 1_555
O51 Si2 1.646072 1_555
O51 Rb8 3.467966 1_555
O52 Si30 1.643097 1_555
O52 Si5 1.646072 1_555
O52 Rb15 3.467966 1_555
O53 Si31 1.643097 1_555
O53 Si4 1.646072 1_555
O53 Rb14 3.467966 1_555
O54 Si28 1.643097 1_555
O54 Si7 1.646072 1_555
O54 Rb13 3.467966 1_555
O55 Si29 1.643097 1_555
O55 Si6 1.646072 1_555
O55 Rb12 3.467966 1_555
O56 Si33 1.633747 1_555
O56 Si11 1.661718 1_555
O57 Si32 1.633747 1_555
O57 Si10 1.661718 1_555
O58 Si35 1.633747 1_555
O58 Si9 1.661718 1_555
O59 Si34 1.633747 1_555
O59 Si8 1.661718 1_555
O60 Si37 1.633747 1_555
O60 Si15 1.661718 1_555
O61 Si36 1.633747 1_555
O61 Si14 1.661718 1_555
O62 Si39 1.633747 1_555
O62 Si13 1.661718 1_555
O63 Si38 1.633747 1_555
O63 Si12 1.661718 1_555
O64 Si36 1.632541 1_555
O64 Si25 1.663262 1_555
O64 Rb15 3.474417 1_555
O65 Si37 1.632541 1_555
O65 Si24 1.663262 1_655
O65 Rb14 3.474417 1_555
O66 Si38 1.632541 1_555
O66 Si27 1.663262 1_555
O66 Rb13 3.474417 1_555
O67 Si39 1.632541 1_555
O67 Si26 1.663262 1_455
O67 Rb12 3.474417 1_555
O68 Si32 1.632541 1_555
O68 Si29 1.663262 1_555
O68 Rb11 3.474417 1_555
O69 Si33 1.632541 1_555
O69 Si28 1.663262 1_455
O69 Rb10 3.474417 1_555
O70 Si34 1.632541 1_555
O70 Si31 1.663262 1_555
O70 Rb9 3.474417 1_555
O71 Si35 1.632541 1_555
O71 Si30 1.663262 1_655
O71 Rb8 3.474417 1_555
O72 Si16 1.650282 1_555
O72 Si30 1.653315 1_555
O73 Si17 1.650282 1_555
O73 Si31 1.653315 1_565
O74 Si18 1.650282 1_555
O74 Si28 1.653315 1_545
O75 Si19 1.650282 1_555
O75 Si29 1.653315 1_555
O76 Si20 1.650282 1_555
O76 Si26 1.653315 1_555
O77 Si21 1.650282 1_555
O77 Si27 1.653315 1_545
O78 Si22 1.650282 1_555
O78 Si24 1.653315 1_565
O79 Si23 1.650282 1_555
O79 Si25 1.653315 1_555
O80 Si34 1.631565 1_555
O80 Si21 1.662804 1_555
O80 Rb15 3.266895 1_555
O81 Si35 1.631565 1_555
O81 Si20 1.662804 1_555
O81 Rb14 3.266895 1_555
O82 Si32 1.631565 1_554
O82 Si23 1.662804 1_555
O82 Rb13 3.266895 1_555
O83 Si33 1.631565 1_556
O83 Si22 1.662804 1_555
O83 Rb12 3.266895 1_555
O84 Si38 1.631565 1_555
O84 Si17 1.662804 1_555
O84 Rb11 3.266895 1_555
O85 Si39 1.631565 1_555
O85 Si16 1.662804 1_555
O85 Rb10 3.266895 1_555
O86 Si36 1.631565 1_556
O86 Si19 1.662804 1_555
O86 Rb9 3.266895 1_555
O87 Si37 1.631565 1_554
O87 Si18 1.662804 1_555
O87 Rb8 3.266895 1_555
O88 Si20 1.593821 1_555
O88 Rb11 2.889177 1_555
O89 Si21 1.593821 1_555
O89 Rb10 2.889177 1_545
O90 Si22 1.593821 1_555
O90 Rb9 2.889177 1_565
O91 Si23 1.593821 1_555
O91 Rb8 2.889177 1_555
O92 Si16 1.593821 1_555
O92 Rb15 2.889177 1_555
O93 Si17 1.593821 1_555
O93 Rb14 2.889177 1_565
O94 Si18 1.593821 1_555
O94 Rb13 2.889177 1_545
O95 Si10 1.592432 1_555
O95 Rb3 2.903496 1_555
