# generated using pymatgen
data_Ba2Y2FeCo2CuO10
_symmetry_space_group_name_H-M   'P 1'
_cell_length_a   8.63678960
_cell_length_b   8.63678960
_cell_length_c   8.63678960
_cell_angle_alpha   142.65082781
_cell_angle_beta   142.65082781
_cell_angle_gamma   53.84964520
_symmetry_Int_Tables_number   1
_chemical_formula_structural   Ba2Y2FeCo2CuO10
_chemical_formula_sum   'Ba2 Y2 Fe1 Co2 Cu1 O10'
_cell_volume   235.56509682
_cell_formula_units_Z   1
loop_
 _symmetry_equiv_pos_site_id
 _symmetry_equiv_pos_as_xyz
  1  'x, y, z'
loop_
 _atom_site_type_symbol
 _atom_site_label
 _atom_site_symmetry_multiplicity
 _atom_site_fract_x
 _atom_site_fract_y
 _atom_site_fract_z
 _atom_site_occupancy
  Ba  Ba0  1  0.00302100  0.50302100  0.50000000  1
  Ba  Ba1  1  0.50302100  0.00302100  0.50000000  1
  Y  Y0  1  0.25038400  0.75038400  0.50000000  1
  Y  Y1  1  0.75038400  0.25038400  0.50000000  1
  Fe  Fe0  1  0.37336100  0.37336100  0.00000000  1
  Co  Co0  1  0.13251300  0.13251300  0.00000000  1
  Co  Co1  1  0.63558300  0.63558300  0.00000000  1
  Cu  Cu0  1  0.86443000  0.86443000  0.00000000  1
  O  O0  1  0.49630400  0.49630400  0.00000000  1
  O  O1  1  0.00058400  0.00058400  0.00000000  1
  O  O2  1  0.58797900  0.58797900  0.49334100  1
  O  O3  1  0.09463700  0.09463700  0.50665900  1
  O  O4  1  0.58797900  0.09463700  0.00000000  1
  O  O5  1  0.09463700  0.58797900  0.00000000  1
  O  O6  1  0.40741800  0.40741800  0.50224500  1
  O  O7  1  0.90517300  0.90517300  0.49775500  1
  O  O8  1  0.40741800  0.90517300  0.00000000  1
  O  O9  1  0.90517300  0.40741800  0.00000000  1
loop_
_geom_bond_atom_site_label_1
_geom_bond_atom_site_label_2
_geom_bond_distance
_geom_bond_site_symmetry_2
Ba0 O1 2.765693 1_555
Ba0 O1 2.765693 1_566
Ba0 O0 2.767372 1_556
Ba0 O0 2.767372 1_455
Ba0 O9 3.065346 1_455
Ba0 O8 3.065346 1_556
Ba0 O7 3.065346 1_455
Ba0 O6 3.065346 1_555
Ba0 O2 3.166604 1_455
Ba0 O4 3.166610 1_455
Ba0 O5 3.166610 1_556
Ba0 O3 3.166616 1_555
Ba1 O1 2.765693 1_555
Ba1 O1 2.765693 1_656
Ba1 O0 2.767372 1_556
Ba1 O0 2.767372 1_545
Ba1 O8 3.065346 1_545
Ba1 O9 3.065346 1_556
Ba1 O7 3.065346 1_545
Ba1 O6 3.065346 1_555
Ba1 O2 3.166604 1_545
Ba1 O5 3.166610 1_545
Ba1 O4 3.166610 1_556
Ba1 O3 3.166616 1_555
Fe0 O0 1.893463 1_555
Fe0 O2 1.991566 1_555
Fe0 O3 1.991570 1_554
Fe0 O5 1.991572 1_555
Fe0 O4 1.991572 1_555
Co0 O6 1.998099 1_555
Co0 O8 1.998099 1_545
Co0 O9 1.998099 1_455
Co0 O7 1.998099 1_444
Co0 O1 2.031858 1_555
Co1 O9 1.972643 1_555
Co1 O8 1.972643 1_555
Co1 O7 1.972643 1_555
Co1 O6 1.972643 1_554
Co1 O0 2.145056 1_555
Cu0 O5 2.013243 1_655
Cu0 O4 2.013243 1_565
Cu0 O2 2.013246 1_554
Cu0 O3 2.013249 1_665
Cu0 O1 2.096928 1_665
O2 Y1 2.405298 1_555
O2 Y0 2.405298 1_555
O3 Y1 2.405289 1_455
O3 Y0 2.405289 1_545
O4 Y0 2.405294 1_544
O4 Y1 2.405294 1_555
O5 Y0 2.405294 1_555
O5 Y1 2.405294 1_454
O6 Y0 2.433867 1_555
O6 Y1 2.433867 1_555
O7 Y1 2.433867 1_565
O7 Y0 2.433867 1_655
O8 Y1 2.433867 1_565
O8 Y0 2.433867 1_554
O9 Y0 2.433867 1_655
O9 Y1 2.433867 1_554
