# generated using pymatgen
data_Mg(AgO2)2
_symmetry_space_group_name_H-M   'P 1'
_cell_length_a   3.29190897
_cell_length_b   8.07848583
_cell_length_c   7.71122958
_cell_angle_alpha   81.11066198
_cell_angle_beta   77.39682286
_cell_angle_gamma   96.77629943
_symmetry_Int_Tables_number   1
_chemical_formula_structural   Mg(AgO2)2
_chemical_formula_sum   'Mg2 Ag4 O8'
_cell_volume   195.26166935
_cell_formula_units_Z   2
loop_
 _symmetry_equiv_pos_site_id
 _symmetry_equiv_pos_as_xyz
  1  'x, y, z'
loop_
 _atom_site_type_symbol
 _atom_site_label
 _atom_site_symmetry_multiplicity
 _atom_site_fract_x
 _atom_site_fract_y
 _atom_site_fract_z
 _atom_site_occupancy
  Mg  Mg0  1  0.30066300  0.18191900  0.20657800  1
  Mg  Mg1  1  0.70154300  0.79615000  0.82650600  1
  Ag  Ag0  1  0.66606500  0.16460900  0.55964200  1
  Ag  Ag1  1  0.07183500  0.52098800  0.20180200  1
  Ag  Ag2  1  0.93051500  0.45712100  0.83124200  1
  Ag  Ag3  1  0.33641900  0.81353900  0.47344200  1
  O  O0  1  0.84343100  0.63974000  0.63188400  1
  O  O1  1  0.57795500  0.25652300  0.78609000  1
  O  O2  1  0.42444500  0.72159800  0.24695600  1
  O  O3  1  0.15893400  0.33837600  0.40116200  1
  O  O4  1  0.30427900  0.93354500  0.70064300  1
  O  O5  1  0.89093600  0.31472400  0.08516100  1
  O  O6  1  0.69801800  0.04456100  0.33238800  1
  O  O7  1  0.11127200  0.66340500  0.94794600  1
loop_
_geom_bond_atom_site_label_1
_geom_bond_atom_site_label_2
_geom_bond_distance
_geom_bond_site_symmetry_2
Mg0 O5 2.051108 1_555
Mg0 O6 2.101446 1_455
Mg0 O5 2.104519 1_455
Mg0 O6 2.108822 1_555
Mg0 O3 2.118121 1_555
Mg1 O7 2.050967 1_555
Mg1 O4 2.101855 1_655
Mg1 O7 2.104364 1_655
Mg1 O4 2.108956 1_555
Mg1 O0 2.118135 1_555
Ag0 O1 1.978680 1_555
Ag0 O3 2.040476 1_655
Ag0 O4 2.089976 1_545
Ag0 O6 2.119290 1_555
Ag0 O3 2.676605 1_555
Ag1 O2 2.000468 1_555
Ag1 O3 2.052586 1_555
Ag1 O7 2.080940 1_554
Ag1 O5 2.098322 1_455
Ag2 O1 2.000301 1_555
Ag2 O0 2.052591 1_555
Ag2 O5 2.081187 1_556
Ag2 O7 2.098621 1_655
Ag3 O2 1.979062 1_555
Ag3 O0 2.040741 1_455
Ag3 O6 2.089613 1_565
Ag3 O4 2.118679 1_555
Ag3 O0 2.676283 1_555
