# generated using pymatgen
data_YbAu
_symmetry_space_group_name_H-M   'P 1'
_cell_length_a   4.64448400
_cell_length_b   5.86377600
_cell_length_c   7.23175900
_cell_angle_alpha   90.00000000
_cell_angle_beta   90.00000000
_cell_angle_gamma   90.00000000
_symmetry_Int_Tables_number   1
_chemical_formula_structural   YbAu
_chemical_formula_sum   'Yb4 Au4'
_cell_volume   196.95127084
_cell_formula_units_Z   4
loop_
 _symmetry_equiv_pos_site_id
 _symmetry_equiv_pos_as_xyz
  1  'x, y, z'
loop_
 _atom_site_type_symbol
 _atom_site_label
 _atom_site_symmetry_multiplicity
 _atom_site_fract_x
 _atom_site_fract_y
 _atom_site_fract_z
 _atom_site_occupancy
  Yb  Yb0  1  0.25000000  0.36119500  0.68004900  1
  Yb  Yb1  1  0.25000000  0.13880500  0.18004900  1
  Yb  Yb2  1  0.75000000  0.63880500  0.31995100  1
  Yb  Yb3  1  0.75000000  0.86119500  0.81995100  1
  Au  Au0  1  0.25000000  0.85187800  0.54498700  1
  Au  Au1  1  0.25000000  0.64812200  0.04498700  1
  Au  Au2  1  0.75000000  0.14812200  0.45501300  1
  Au  Au3  1  0.75000000  0.35187800  0.95501300  1
loop_
_geom_bond_atom_site_label_1
_geom_bond_atom_site_label_2
_geom_bond_distance
_geom_bond_site_symmetry_2
Au0 Yb0 3.038521 1_555
Au0 Yb3 3.057747 1_555
Au0 Yb3 3.057747 1_455
Au0 Yb2 3.098756 1_455
Au0 Yb2 3.098756 1_555
Au0 Yb1 3.129825 1_565
Au0 Yb0 3.142184 1_565
Au1 Yb1 3.038521 1_565
Au1 Yb2 3.057747 1_455
Au1 Yb2 3.057747 1_555
Au1 Yb3 3.098756 1_454
Au1 Yb3 3.098756 1_554
Au1 Yb0 3.129825 1_554
Au1 Yb1 3.142184 1_555
Au2 Yb2 3.038521 1_555
Au2 Yb1 3.057747 1_655
Au2 Yb1 3.057747 1_555
Au2 Yb0 3.098756 1_555
Au2 Yb0 3.098756 1_655
Au2 Yb3 3.129825 1_545
Au2 Yb2 3.142184 1_545
Au3 Yb3 3.038521 1_545
Au3 Yb0 3.057747 1_555
Au3 Yb0 3.057747 1_655
Au3 Yb1 3.098756 1_556
Au3 Yb1 3.098756 1_656
Au3 Yb2 3.129825 1_556
Au3 Yb3 3.142184 1_555
