# generated using pymatgen
data_FeSi2
_symmetry_space_group_name_H-M   'P 1'
_cell_length_a   6.23647349
_cell_length_b   6.23647375
_cell_length_c   7.75003100
_cell_angle_alpha   89.99970729
_cell_angle_beta   89.99970036
_cell_angle_gamma   103.78382127
_symmetry_Int_Tables_number   1
_chemical_formula_structural   FeSi2
_chemical_formula_sum   'Fe8 Si16'
_cell_volume   292.74602506
_cell_formula_units_Z   8
loop_
 _symmetry_equiv_pos_site_id
 _symmetry_equiv_pos_as_xyz
  1  'x, y, z'
loop_
 _atom_site_type_symbol
 _atom_site_label
 _atom_site_symmetry_multiplicity
 _atom_site_fract_x
 _atom_site_fract_y
 _atom_site_fract_z
 _atom_site_occupancy
  Fe  Fe0  1  0.19320295  0.19320309  0.81220737  1
  Fe  Fe1  1  0.30679151  0.30679152  0.31217883  1
  Fe  Fe2  1  0.69320851  0.69320860  0.68782127  1
  Fe  Fe3  1  0.80679659  0.80679660  0.18779234  1
  Fe  Fe4  1  0.71702238  0.28297756  0.50000042  1
  Fe  Fe5  1  0.78298415  0.21701556  -0.00000026  1
  Fe  Fe6  1  0.28297751  0.71702245  0.50000036  1
  Fe  Fe7  1  0.21701550  0.78298417  -0.00000022  1
  Si  Si0  1  0.67103569  0.41770269  0.22705789  1
  Si  Si1  1  0.82896867  0.08229610  0.72709265  1
  Si  Si2  1  0.91770379  0.17103121  0.27290746  1
  Si  Si3  1  0.58229769  0.32896458  0.77294206  1
  Si  Si4  1  0.32896447  0.58229763  0.77294212  1
  Si  Si5  1  0.17103122  0.91770384  0.27290752  1
  Si  Si6  1  0.08229601  0.82896878  0.72709268  1
  Si  Si7  1  0.41770271  0.67103576  0.22705771  1
  Si  Si8  1  0.40155617  0.14524061  0.04936191  1
  Si  Si9  1  0.09844845  0.35474651  0.54936948  1
  Si  Si10  1  0.64525348  0.90155140  0.45063041  1
  Si  Si11  1  0.85475924  0.59844400  0.95063758  1
  Si  Si12  1  0.59844396  0.85475923  0.95063766  1
  Si  Si13  1  0.90155131  0.64525345  0.45063037  1
  Si  Si14  1  0.35474635  0.09844840  0.54936946  1
  Si  Si15  1  0.14524069  0.40155624  0.04936193  1
loop_
_geom_bond_atom_site_label_1
_geom_bond_atom_site_label_2
_geom_bond_distance
_geom_bond_site_symmetry_2
Fe0 Si1 2.307543 1_455
Fe0 Si6 2.307543 1_545
Fe0 Si15 2.311101 1_556
Fe0 Si8 2.311101 1_556
Fe0 Si4 2.391383 1_555
Fe0 Si3 2.391384 1_555
Fe0 Si9 2.407746 1_555
Fe0 Si14 2.407746 1_555
Fe1 Si0 2.307606 1_555
Fe1 Si7 2.307607 1_555
Fe1 Si9 2.311266 1_555
Fe1 Si14 2.311266 1_555
Fe1 Si5 2.391352 1_545
Fe1 Si2 2.391353 1_455
Fe1 Si15 2.407656 1_555
Fe1 Si8 2.407656 1_555
Fe2 Si3 2.307604 1_555
Fe2 Si4 2.307605 1_555
Fe2 Si10 2.311266 1_555
Fe2 Si13 2.311267 1_555
Fe2 Si6 2.391351 1_655
Fe2 Si1 2.391351 1_565
Fe2 Si12 2.407652 1_555
Fe2 Si11 2.407652 1_555
Fe3 Si2 2.307545 1_565
Fe3 Si5 2.307546 1_655
Fe3 Si12 2.311100 1_554
Fe3 Si11 2.311101 1_554
Fe3 Si7 2.391379 1_555
Fe3 Si0 2.391379 1_555
Fe3 Si13 2.407747 1_555
Fe3 Si10 2.407747 1_555
Fe4 Si14 2.310047 1_555
Fe4 Si13 2.310048 1_555
Fe4 Si3 2.318951 1_555
Fe4 Si0 2.318958 1_555
Fe4 Si9 2.344751 1_655
Fe4 Si10 2.344753 1_545
Fe4 Si1 2.359584 1_555
Fe4 Si2 2.359588 1_555
Fe5 Si12 2.309957 1_544
Fe5 Si15 2.309959 1_655
Fe5 Si1 2.318696 1_554
Fe5 Si2 2.318701 1_555
Fe5 Si8 2.344747 1_555
Fe5 Si11 2.344750 1_554
Fe5 Si3 2.359414 1_554
Fe5 Si0 2.359418 1_555
Fe6 Si9 2.310047 1_555
Fe6 Si10 2.310048 1_555
Fe6 Si4 2.318952 1_555
Fe6 Si7 2.318959 1_555
Fe6 Si14 2.344750 1_565
Fe6 Si13 2.344753 1_455
Fe6 Si6 2.359584 1_555
Fe6 Si5 2.359587 1_555
Fe7 Si11 2.309957 1_454
Fe7 Si8 2.309958 1_565
Fe7 Si6 2.318696 1_554
Fe7 Si5 2.318701 1_555
Fe7 Si15 2.344747 1_555
Fe7 Si12 2.344750 1_554
Fe7 Si4 2.359414 1_554
Fe7 Si7 2.359417 1_555
Si0 Si2 2.446833 1_555
Si0 Si13 2.471986 1_555
Si0 Si7 2.486289 1_555
Si0 Si8 2.499503 1_555
Si0 Si11 2.560704 1_554
Si1 Si3 2.446832 1_555
Si1 Si12 2.471803 1_545
Si1 Si6 2.486234 1_645
Si1 Si9 2.499563 1_655
Si1 Si10 2.560984 1_545
Si2 Si5 2.486234 1_645
Si2 Si9 2.560983 1_655
Si3 Si4 2.486291 1_555
Si3 Si8 2.560702 1_556
Si4 Si6 2.446833 1_555
Si4 Si9 2.471989 1_555
Si5 Si7 2.446833 1_555
Si5 Si8 2.471807 1_565
Si10 Si7 2.471987 1_555
Si10 Si2 2.499562 1_565
Si10 Si13 2.515388 1_555
Si10 Si14 2.536915 1_565
Si11 Si6 2.471803 1_655
Si11 Si3 2.499499 1_555
Si11 Si12 2.515558 1_555
Si11 Si15 2.536712 1_656
Si12 Si4 2.499499 1_555
Si12 Si8 2.536711 1_566
Si12 Si7 2.560702 1_556
Si13 Si5 2.499562 1_655
Si13 Si9 2.536915 1_655
Si13 Si6 2.560985 1_655
Si14 Si3 2.471990 1_555
Si14 Si6 2.499562 1_545
Si14 Si9 2.515389 1_555
Si14 Si5 2.560982 1_545
Si15 Si2 2.471807 1_455
Si15 Si7 2.499502 1_555
Si15 Si8 2.515561 1_555
Si15 Si4 2.560701 1_554
