# generated using pymatgen
data_Ce2Fe17H3
_symmetry_space_group_name_H-M   'P 1'
_cell_length_a   6.43642970
_cell_length_b   6.43642970
_cell_length_c   6.43642926
_cell_angle_alpha   83.88173704
_cell_angle_beta   83.88173704
_cell_angle_gamma   83.88172833
_symmetry_Int_Tables_number   1
_chemical_formula_structural   Ce2Fe17H3
_chemical_formula_sum   'Ce2 Fe17 H3'
_cell_volume   262.39142354
_cell_formula_units_Z   1
loop_
 _symmetry_equiv_pos_site_id
 _symmetry_equiv_pos_as_xyz
  1  'x, y, z'
loop_
 _atom_site_type_symbol
 _atom_site_label
 _atom_site_symmetry_multiplicity
 _atom_site_fract_x
 _atom_site_fract_y
 _atom_site_fract_z
 _atom_site_occupancy
  Ce  Ce0  1  0.65887500  0.65887500  0.65887500  1
  Ce  Ce1  1  0.34112500  0.34112500  0.34112500  1
  Fe  Fe0  1  0.00000000  0.00000000  0.50000000  1
  Fe  Fe1  1  0.50000000  0.00000000  0.00000000  1
  Fe  Fe2  1  0.00000000  0.50000000  0.00000000  1
  Fe  Fe3  1  0.71662200  0.28337800  0.00000000  1
  Fe  Fe4  1  0.00000000  0.71662200  0.28337800  1
  Fe  Fe5  1  0.28337800  0.00000000  0.71662200  1
  Fe  Fe6  1  0.00000000  0.28337800  0.71662200  1
  Fe  Fe7  1  0.71662200  0.00000000  0.28337800  1
  Fe  Fe8  1  0.28337800  0.71662200  0.00000000  1
  Fe  Fe9  1  0.34342200  0.34342200  0.84694100  1
  Fe  Fe10  1  0.84694100  0.34342200  0.34342200  1
  Fe  Fe11  1  0.34342200  0.84694100  0.34342200  1
  Fe  Fe12  1  0.65657800  0.65657800  0.15305900  1
  Fe  Fe13  1  0.15305900  0.65657800  0.65657800  1
  Fe  Fe14  1  0.65657800  0.15305900  0.65657800  1
  Fe  Fe15  1  0.90413900  0.90413900  0.90413900  1
  Fe  Fe16  1  0.09586100  0.09586100  0.09586100  1
  H  H0  1  0.50000000  0.50000000  0.00000000  1
  H  H1  1  0.00000000  0.50000000  0.50000000  1
  H  H2  1  0.50000000  0.00000000  0.50000000  1
loop_
_geom_bond_atom_site_label_1
_geom_bond_atom_site_label_2
_geom_bond_distance
_geom_bond_site_symmetry_2
Ce0 H2 2.485530 1_565
Ce0 H1 2.485530 1_655
Ce0 H0 2.485530 1_556
Ce0 Fe15 3.011611 1_555
Ce0 Fe2 3.279887 1_656
Ce0 Fe1 3.279887 1_566
Ce0 Fe0 3.279887 1_665
Ce1 H1 2.485530 1_555
Ce1 H2 2.485530 1_555
Ce1 H0 2.485530 1_555
Ce1 Fe16 3.011611 1_555
Ce1 Fe2 3.279887 1_555
Ce1 Fe1 3.279887 1_555
Ce1 Fe0 3.279887 1_555
Fe0 Fe6 2.410985 1_555
Fe0 Fe4 2.410985 1_545
Fe0 Fe7 2.410985 1_455
Fe0 Fe5 2.410985 1_555
Fe0 Fe13 2.478854 1_545
Fe0 Fe10 2.478854 1_455
Fe0 Fe14 2.478854 1_455
Fe0 Fe11 2.478854 1_545
Fe0 Fe15 2.631465 1_445
Fe0 Fe16 2.631465 1_555
Fe1 Fe7 2.410985 1_555
Fe1 Fe5 2.410985 1_554
Fe1 Fe3 2.410985 1_555
Fe1 Fe8 2.410985 1_545
Fe1 Fe9 2.478854 1_554
Fe1 Fe12 2.478854 1_545
Fe1 Fe11 2.478854 1_545
Fe1 Fe14 2.478854 1_554
Fe1 Fe15 2.631465 1_544
Fe1 Fe16 2.631465 1_555
Fe2 Fe4 2.410985 1_555
Fe2 Fe6 2.410985 1_554
Fe2 Fe8 2.410985 1_555
Fe2 Fe3 2.410985 1_455
Fe2 Fe9 2.478854 1_554
Fe3 H0 1.863761 1_555
Fe4 H1 1.863761 1_555
Fe5 H2 1.863761 1_555
Fe6 H1 1.863761 1_555
Fe7 H2 1.863761 1_555
Fe8 H0 1.863761 1_555
Fe9 H0 1.908307 1_556
Fe10 H1 1.908307 1_655
Fe10 Fe2 2.478854 1_655
Fe10 Fe16 2.664143 1_655
Fe11 H2 1.908307 1_565
Fe11 Fe16 2.664143 1_565
Fe12 H0 1.908307 1_555
Fe12 Fe2 2.478854 1_655
Fe12 Fe15 2.664143 1_554
Fe13 H1 1.908307 1_555
Fe13 Fe2 2.478854 1_556
Fe13 Fe15 2.664143 1_455
Fe14 H2 1.908307 1_555
Fe14 Fe15 2.664143 1_545
Fe15 Fe16 2.354166 1_666
Fe15 Fe2 2.631465 1_656
Fe15 Fe4 2.707382 1_656
Fe15 Fe7 2.707382 1_566
Fe15 Fe8 2.707382 1_656
Fe15 Fe3 2.707382 1_566
Fe15 Fe6 2.707382 1_665
Fe15 Fe5 2.707382 1_665
Fe16 Fe2 2.631465 1_555
Fe16 Fe9 2.664143 1_554
Fe16 Fe6 2.707382 1_554
Fe16 Fe5 2.707382 1_554
Fe16 Fe3 2.707382 1_455
Fe16 Fe8 2.707382 1_545
Fe16 Fe7 2.707382 1_455
Fe16 Fe4 2.707382 1_545
