# generated using pymatgen
data_SrMg
_symmetry_space_group_name_H-M   'P 1'
_cell_length_a   15.03861321
_cell_length_b   15.03861321
_cell_length_c   15.89738650
_cell_angle_alpha   77.36283840
_cell_angle_beta   77.36283840
_cell_angle_gamma   30.84736315
_symmetry_Int_Tables_number   1
_chemical_formula_structural   SrMg
_chemical_formula_sum   'Sr24 Mg24'
_cell_volume   1795.42210201
_cell_formula_units_Z   24
loop_
 _symmetry_equiv_pos_site_id
 _symmetry_equiv_pos_as_xyz
  1  'x, y, z'
loop_
 _atom_site_type_symbol
 _atom_site_label
 _atom_site_symmetry_multiplicity
 _atom_site_fract_x
 _atom_site_fract_y
 _atom_site_fract_z
 _atom_site_occupancy
  Sr  Sr0_0  1  0.30243300  0.30243300  0.12930000  1
  Sr  Sr0_1  1  0.30243300  0.30243300  0.62930000  1
  Sr  Sr0_2  1  0.30243300  0.80243300  0.12930000  1
  Sr  Sr0_3  1  0.30243300  0.80243300  0.62930000  1
  Sr  Sr0_4  1  0.80243300  0.30243300  0.12930000  1
  Sr  Sr0_5  1  0.80243300  0.30243300  0.62930000  1
  Sr  Sr0_6  1  0.80243300  0.80243300  0.12930000  1
  Sr  Sr0_7  1  0.80243300  0.80243300  0.62930000  1
  Sr  Sr1_0  1  0.16337150  0.16337150  0.19252900  1
  Sr  Sr1_1  1  0.16337150  0.16337150  0.69252900  1
  Sr  Sr1_2  1  0.16337150  0.66337150  0.19252900  1
  Sr  Sr1_3  1  0.16337150  0.66337150  0.69252900  1
  Sr  Sr1_4  1  0.66337150  0.16337150  0.19252900  1
  Sr  Sr1_5  1  0.66337150  0.16337150  0.69252900  1
  Sr  Sr1_6  1  0.66337150  0.66337150  0.19252900  1
  Sr  Sr1_7  1  0.66337150  0.66337150  0.69252900  1
  Sr  Sr2_0  1  0.14884350  0.14884350  0.44317150  1
  Sr  Sr2_1  1  0.14884350  0.14884350  0.94317150  1
  Sr  Sr2_2  1  0.14884350  0.64884350  0.44317150  1
  Sr  Sr2_3  1  0.14884350  0.64884350  0.94317150  1
  Sr  Sr2_4  1  0.64884350  0.14884350  0.44317150  1
  Sr  Sr2_5  1  0.64884350  0.14884350  0.94317150  1
  Sr  Sr2_6  1  0.64884350  0.64884350  0.44317150  1
  Sr  Sr2_7  1  0.64884350  0.64884350  0.94317150  1
  Mg  Mg0_0  1  0.49757150  0.49757150  0.49517450  1
  Mg  Mg0_1  1  0.49757150  0.49757150  0.99517450  1
  Mg  Mg0_2  1  0.49757150  0.99757150  0.49517450  1
  Mg  Mg0_3  1  0.49757150  0.99757150  0.99517450  1
  Mg  Mg0_4  1  0.99757150  0.49757150  0.49517450  1
  Mg  Mg0_5  1  0.99757150  0.49757150  0.99517450  1
  Mg  Mg0_6  1  0.99757150  0.99757150  0.49517450  1
  Mg  Mg0_7  1  0.99757150  0.99757150  0.99517450  1
  Mg  Mg1_0  1  0.48927300  0.48927300  0.30248050  1
  Mg  Mg1_1  1  0.48927300  0.48927300  0.80248050  1
  Mg  Mg1_2  1  0.48927300  0.98927300  0.30248050  1
  Mg  Mg1_3  1  0.48927300  0.98927300  0.80248050  1
  Mg  Mg1_4  1  0.98927300  0.48927300  0.30248050  1
  Mg  Mg1_5  1  0.98927300  0.48927300  0.80248050  1
  Mg  Mg1_6  1  0.98927300  0.98927300  0.30248050  1
  Mg  Mg1_7  1  0.98927300  0.98927300  0.80248050  1
  Mg  Mg2_0  1  0.31517400  0.31517400  0.35401100  1
  Mg  Mg2_1  1  0.31517400  0.31517400  0.85401100  1
  Mg  Mg2_2  1  0.31517400  0.81517400  0.35401100  1
  Mg  Mg2_3  1  0.31517400  0.81517400  0.85401100  1
  Mg  Mg2_4  1  0.81517400  0.31517400  0.35401100  1
  Mg  Mg2_5  1  0.81517400  0.31517400  0.85401100  1
  Mg  Mg2_6  1  0.81517400  0.81517400  0.35401100  1
  Mg  Mg2_7  1  0.81517400  0.81517400  0.85401100  1
loop_
_geom_bond_atom_site_label_1
_geom_bond_atom_site_label_2
_geom_bond_distance
_geom_bond_site_symmetry_2
Sr0_0 Sr1_0 3.927777 1_555
Sr0_0 Sr1_2 4.101623 1_555
Sr0_0 Sr1_4 4.101623 1_555
Sr0_1 Sr1_1 3.927777 1_555
Sr0_1 Sr1_3 4.101623 1_555
Sr0_1 Sr1_5 4.101623 1_555
Sr0_2 Sr1_2 3.927777 1_555
Sr0_2 Sr1_0 4.101623 1_565
Sr0_2 Sr1_6 4.101623 1_555
Sr0_3 Sr1_3 3.927777 1_555
Sr0_3 Sr1_7 4.101623 1_555
Sr0_3 Sr1_1 4.101623 1_565
Sr0_4 Sr1_4 3.927777 1_555
Sr0_4 Sr1_6 4.101623 1_555
Sr0_4 Sr1_0 4.101623 1_655
Sr0_5 Sr1_5 3.927777 1_555
Sr0_5 Sr1_7 4.101623 1_555
Sr0_5 Sr1_1 4.101623 1_655
Sr0_6 Sr1_6 3.927777 1_555
Sr0_6 Sr1_2 4.101623 1_655
Sr0_6 Sr1_4 4.101623 1_565
Sr0_7 Sr1_7 3.927777 1_555
Sr0_7 Sr1_3 4.101623 1_655
Sr0_7 Sr1_5 4.101623 1_565
Sr1_0 Sr2_0 3.910541 1_555
Sr1_0 Sr1_6 3.999588 1_545
Sr1_0 Sr1_6 3.999588 1_455
Sr1_0 Sr2_1 4.080404 1_554
Sr1_1 Sr2_1 3.910541 1_555
Sr1_1 Sr1_7 3.999588 1_455
Sr1_1 Sr1_7 3.999588 1_545
Sr1_1 Sr2_0 4.080404 1_555
Sr1_2 Sr2_2 3.910541 1_555
Sr1_2 Sr1_4 3.999588 1_555
Sr1_2 Sr1_4 3.999588 1_465
Sr1_2 Sr2_3 4.080404 1_554
Sr1_3 Sr2_3 3.910541 1_555
Sr1_3 Sr1_5 3.999588 1_555
Sr1_3 Sr1_5 3.999588 1_465
Sr1_3 Sr2_2 4.080404 1_555
Sr1_4 Sr2_4 3.910541 1_555
Sr1_4 Sr2_5 4.080404 1_554
Sr1_5 Sr2_5 3.910541 1_555
Sr1_5 Sr2_4 4.080404 1_555
Sr1_6 Sr2_6 3.910541 1_555
Sr1_6 Sr2_7 4.080404 1_554
Sr1_7 Sr2_7 3.910541 1_555
Sr1_7 Sr2_6 4.080404 1_555
Mg0_0 Mg1_0 3.126730 1_555
Mg0_0 Mg2_2 3.298579 1_555
Mg0_0 Mg2_4 3.298579 1_555
Mg0_0 Sr0_3 3.551803 1_555
Mg0_0 Sr0_5 3.551803 1_555
Mg0_0 Sr2_4 3.735077 1_555
Mg0_0 Sr2_2 3.735077 1_555
Mg0_0 Sr1_5 4.040535 1_555
Mg0_0 Sr1_3 4.040535 1_555
Mg0_1 Mg1_1 3.126730 1_555
Mg0_1 Mg2_3 3.298579 1_555
Mg0_1 Mg2_5 3.298579 1_555
Mg0_1 Sr0_4 3.551803 1_556
Mg0_1 Sr0_2 3.551803 1_556
Mg0_1 Sr2_5 3.735077 1_555
Mg0_1 Sr2_3 3.735077 1_555
Mg0_1 Sr1_4 4.040535 1_556
Mg0_1 Sr1_2 4.040535 1_556
Mg0_2 Mg1_2 3.126730 1_555
Mg0_2 Mg2_6 3.298579 1_555
Mg0_2 Mg2_0 3.298579 1_565
Mg0_2 Sr0_7 3.551803 1_555
Mg0_2 Sr0_1 3.551803 1_565
Mg0_2 Sr2_6 3.735077 1_555
Mg0_2 Sr2_0 3.735077 1_565
Mg0_2 Sr1_1 4.040535 1_565
Mg0_2 Sr1_7 4.040535 1_555
Mg0_3 Mg1_3 3.126730 1_555
Mg0_3 Mg2_1 3.298579 1_565
Mg0_3 Mg2_7 3.298579 1_555
Mg0_3 Sr0_0 3.551803 1_566
Mg0_3 Sr0_6 3.551803 1_556
Mg0_3 Sr2_1 3.735077 1_565
Mg0_3 Sr2_7 3.735077 1_555
Mg0_3 Sr1_6 4.040535 1_556
Mg0_3 Sr1_0 4.040535 1_566
Mg0_4 Mg1_4 3.126730 1_555
Mg0_4 Mg2_6 3.298579 1_555
Mg0_4 Mg2_0 3.298579 1_655
Mg0_4 Sr0_7 3.551803 1_555
Mg0_4 Sr0_1 3.551803 1_655
Mg0_4 Sr2_6 3.735077 1_555
Mg0_4 Sr2_0 3.735077 1_655
Mg0_4 Sr1_1 4.040535 1_655
Mg0_4 Sr1_7 4.040535 1_555
Mg0_5 Mg1_5 3.126730 1_555
Mg0_5 Mg2_1 3.298579 1_655
Mg0_5 Mg2_7 3.298579 1_555
Mg0_5 Sr0_0 3.551803 1_656
Mg0_5 Sr0_6 3.551803 1_556
Mg0_5 Sr2_1 3.735077 1_655
Mg0_5 Sr2_7 3.735077 1_555
Mg0_5 Sr1_6 4.040535 1_556
Mg0_5 Sr1_0 4.040535 1_656
Mg0_6 Mg1_6 3.126730 1_555
Mg0_6 Mg2_2 3.298579 1_655
Mg0_6 Mg2_4 3.298579 1_565
Mg0_6 Sr0_3 3.551803 1_655
Mg0_6 Sr0_5 3.551803 1_565
Mg0_6 Sr2_4 3.735077 1_565
Mg0_6 Sr2_2 3.735077 1_655
Mg0_6 Sr1_5 4.040535 1_565
Mg0_6 Sr1_3 4.040535 1_655
Mg0_7 Mg1_7 3.126730 1_555
Mg0_7 Mg2_3 3.298579 1_655
Mg0_7 Mg2_5 3.298579 1_565
Mg0_7 Sr0_2 3.551803 1_656
Mg0_7 Sr0_4 3.551803 1_566
Mg0_7 Sr2_5 3.735077 1_565
Mg0_7 Sr2_3 3.735077 1_655
Mg0_7 Sr1_4 4.040535 1_566
Mg0_7 Sr1_2 4.040535 1_656
Mg1_0 Mg2_2 3.214268 1_555
Mg1_0 Mg2_4 3.214268 1_555
Mg1_0 Sr0_2 3.555831 1_555
Mg1_0 Sr0_4 3.555831 1_555
Mg1_0 Sr2_4 3.635149 1_555
Mg1_0 Sr2_2 3.635149 1_555
Mg1_0 Sr1_4 3.693712 1_555
Mg1_0 Sr1_2 3.693712 1_555
Mg1_1 Mg2_3 3.214268 1_555
Mg1_1 Mg2_5 3.214268 1_555
Mg1_1 Sr0_3 3.555831 1_555
Mg1_1 Sr0_5 3.555831 1_555
Mg1_1 Sr2_5 3.635149 1_555
Mg1_1 Sr2_3 3.635149 1_555
Mg1_1 Sr1_5 3.693712 1_555
Mg1_1 Sr1_3 3.693712 1_555
Mg1_2 Mg2_6 3.214268 1_555
Mg1_2 Mg2_0 3.214268 1_565
Mg1_2 Sr0_0 3.555831 1_565
Mg1_2 Sr0_6 3.555831 1_555
Mg1_2 Sr2_6 3.635149 1_555
Mg1_2 Sr2_0 3.635149 1_565
Mg1_2 Sr1_6 3.693712 1_555
Mg1_2 Sr1_0 3.693712 1_565
Mg1_3 Mg2_1 3.214268 1_565
Mg1_3 Mg2_7 3.214268 1_555
Mg1_3 Sr0_7 3.555831 1_555
Mg1_3 Sr0_1 3.555831 1_565
Mg1_3 Sr2_1 3.635149 1_565
Mg1_3 Sr2_7 3.635149 1_555
Mg1_3 Sr1_1 3.693712 1_565
Mg1_3 Sr1_7 3.693712 1_555
Mg1_4 Mg2_6 3.214268 1_555
Mg1_4 Mg2_0 3.214268 1_655
Mg1_4 Sr0_0 3.555831 1_655
Mg1_4 Sr0_6 3.555831 1_555
Mg1_4 Sr2_6 3.635149 1_555
Mg1_4 Sr2_0 3.635149 1_655
Mg1_4 Sr1_6 3.693712 1_555
Mg1_4 Sr1_0 3.693712 1_655
Mg1_5 Mg2_1 3.214268 1_655
Mg1_5 Mg2_7 3.214268 1_555
Mg1_5 Sr0_7 3.555831 1_555
Mg1_5 Sr0_1 3.555831 1_655
Mg1_5 Sr2_1 3.635149 1_655
Mg1_5 Sr2_7 3.635149 1_555
Mg1_5 Sr1_1 3.693712 1_655
Mg1_5 Sr1_7 3.693712 1_555
Mg1_6 Mg2_2 3.214268 1_655
Mg1_6 Mg2_4 3.214268 1_565
Mg1_6 Sr0_4 3.555831 1_565
Mg1_6 Sr0_2 3.555831 1_655
Mg1_6 Sr2_4 3.635149 1_565
Mg1_6 Sr2_2 3.635149 1_655
Mg1_6 Sr1_4 3.693712 1_565
Mg1_6 Sr1_2 3.693712 1_655
Mg1_7 Mg2_3 3.214268 1_655
Mg1_7 Mg2_5 3.214268 1_565
Mg1_7 Sr0_3 3.555831 1_655
Mg1_7 Sr0_5 3.555831 1_565
Mg1_7 Sr2_5 3.635149 1_565
Mg1_7 Sr2_3 3.635149 1_655
Mg1_7 Sr1_5 3.693712 1_565
Mg1_7 Sr1_3 3.693712 1_655
Mg2_0 Sr2_2 3.667978 1_555
Mg2_0 Sr2_4 3.667978 1_555
Mg2_0 Sr0_0 3.673814 1_555
Mg2_0 Sr1_2 3.921485 1_555
Mg2_0 Sr1_4 3.921485 1_555
Mg2_1 Sr2_3 3.667978 1_555
Mg2_1 Sr2_5 3.667978 1_555
Mg2_1 Sr0_1 3.673814 1_555
Mg2_1 Sr1_3 3.921485 1_555
Mg2_1 Sr1_5 3.921485 1_555
Mg2_2 Sr2_0 3.667978 1_565
Mg2_2 Sr2_6 3.667978 1_555
Mg2_2 Sr0_2 3.673814 1_555
Mg2_2 Sr1_6 3.921485 1_555
Mg2_2 Sr1_0 3.921485 1_565
Mg2_3 Sr2_7 3.667978 1_555
Mg2_3 Sr2_1 3.667978 1_565
Mg2_3 Sr0_3 3.673814 1_555
Mg2_3 Sr1_7 3.921485 1_555
Mg2_3 Sr1_1 3.921485 1_565
Mg2_4 Sr2_0 3.667978 1_655
Mg2_4 Sr2_6 3.667978 1_555
Mg2_4 Sr0_4 3.673814 1_555
Mg2_4 Sr1_6 3.921485 1_555
Mg2_4 Sr1_0 3.921485 1_655
Mg2_5 Sr2_7 3.667978 1_555
Mg2_5 Sr2_1 3.667978 1_655
Mg2_5 Sr0_5 3.673814 1_555
Mg2_5 Sr1_7 3.921485 1_555
Mg2_5 Sr1_1 3.921485 1_655
Mg2_6 Sr2_2 3.667978 1_655
Mg2_6 Sr2_4 3.667978 1_565
Mg2_6 Sr0_6 3.673814 1_555
Mg2_6 Sr1_2 3.921485 1_655
Mg2_6 Sr1_4 3.921485 1_565
Mg2_7 Sr2_5 3.667978 1_565
Mg2_7 Sr2_3 3.667978 1_655
Mg2_7 Sr0_7 3.673814 1_555
Mg2_7 Sr1_5 3.921485 1_565
Mg2_7 Sr1_3 3.921485 1_655
