# generated using pymatgen
data_Zr3(UGe2)2
_symmetry_space_group_name_H-M   'P 1'
_cell_length_a   7.43211700
_cell_length_b   7.23268000
_cell_length_c   7.41370706
_cell_angle_alpha   70.51925142
_cell_angle_beta   90.00000000
_cell_angle_gamma   90.00000000
_symmetry_Int_Tables_number   1
_chemical_formula_structural   Zr3(UGe2)2
_chemical_formula_sum   'Zr6 U4 Ge8'
_cell_volume   375.70364500
_cell_formula_units_Z   2
loop_
 _symmetry_equiv_pos_site_id
 _symmetry_equiv_pos_as_xyz
  1  'x, y, z'
loop_
 _atom_site_type_symbol
 _atom_site_label
 _atom_site_symmetry_multiplicity
 _atom_site_fract_x
 _atom_site_fract_y
 _atom_site_fract_z
 _atom_site_occupancy
  Zr  Zr0  1  0.67089100  0.74953500  0.25202800  1
  Zr  Zr1  1  0.32910900  0.25046500  0.74797200  1
  Zr  Zr2  1  0.17089100  0.75046500  0.74797200  1
  Zr  Zr3  1  0.82910900  0.24953500  0.25202800  1
  Zr  Zr4  1  0.00000000  0.00000000  0.00000000  1
  Zr  Zr5  1  0.50000000  0.50000000  0.00000000  1
  U  U0  1  0.66909000  0.93822400  0.68305100  1
  U  U1  1  0.33091000  0.06177600  0.31694900  1
  U  U2  1  0.16909000  0.56177600  0.31694900  1
  U  U3  1  0.83091000  0.43822400  0.68305100  1
  Ge  Ge0  1  0.96278400  0.85583500  0.41529900  1
  Ge  Ge1  1  0.03721600  0.14416500  0.58470100  1
  Ge  Ge2  1  0.46278400  0.64416500  0.58470100  1
  Ge  Ge3  1  0.53721600  0.35583500  0.41529900  1
  Ge  Ge4  1  0.86610800  0.63630700  0.98950300  1
  Ge  Ge5  1  0.13389200  0.36369300  0.01049700  1
  Ge  Ge6  1  0.36610800  0.86369300  0.01049700  1
  Ge  Ge7  1  0.63389200  0.13630700  0.98950300  1
loop_
_geom_bond_atom_site_label_1
_geom_bond_atom_site_label_2
_geom_bond_distance
_geom_bond_site_symmetry_2
Ge0 Zr0 2.717207 1_555
Ge0 Zr2 2.793238 1_655
Ge0 Ge1 2.824718 1_665
Ge0 Zr3 2.874295 1_565
Ge0 U2 2.905232 1_655
Ge0 Zr4 2.915841 1_665
Ge0 U1 3.084047 1_665
Ge0 U0 3.138292 1_555
Ge0 U3 3.166237 1_555
Ge1 Zr1 2.717207 1_555
Ge1 Zr3 2.793238 1_455
Ge1 Zr2 2.874295 1_545
Ge1 U3 2.905232 1_455
Ge1 Zr4 2.915841 1_556
Ge1 U0 3.084047 1_445
Ge1 U1 3.138292 1_555
Ge1 U2 3.166237 1_555
Ge2 Zr2 2.717207 1_555
Ge2 Zr0 2.793238 1_555
Ge2 Ge3 2.824718 1_555
Ge2 Zr1 2.874295 1_555
Ge2 U0 2.905232 1_555
Ge2 Zr5 2.915841 1_556
Ge2 U3 3.084047 1_555
Ge2 U2 3.138292 1_555
Ge2 U1 3.166237 1_565
Ge3 Zr3 2.717207 1_555
Ge3 Zr1 2.793238 1_555
Ge3 Zr0 2.874295 1_555
Ge3 U1 2.905232 1_555
Ge3 Zr5 2.915841 1_555
Ge3 U2 3.084047 1_555
Ge3 U3 3.138292 1_555
Ge3 U0 3.166237 1_545
Ge4 Zr0 2.761670 1_556
Ge4 Ge5 2.769144 1_656
Ge4 Zr2 2.834265 1_655
Ge4 Zr4 2.837643 1_666
Ge4 Zr3 2.838605 1_556
Ge4 Zr5 2.886247 1_556
Ge4 U0 2.960608 1_555
Ge4 U3 3.074687 1_555
Ge4 U2 3.222041 1_656
Ge5 Zr1 2.761670 1_554
Ge5 Zr3 2.834265 1_455
Ge5 Zr4 2.837643 1_555
Ge5 Zr2 2.838605 1_554
Ge5 Zr5 2.886247 1_555
Ge5 U1 2.960608 1_555
Ge5 U2 3.074687 1_555
Ge5 U3 3.222041 1_454
Ge6 Zr2 2.761670 1_554
Ge6 Ge7 2.769144 1_564
Ge6 Zr0 2.834265 1_555
Ge6 Zr5 2.837643 1_555
Ge6 Zr1 2.838605 1_564
Ge6 Zr4 2.886247 1_565
Ge6 U2 2.960608 1_555
Ge6 U1 3.074687 1_565
Ge6 U0 3.222041 1_554
Ge7 Zr3 2.761670 1_556
Ge7 Zr1 2.834265 1_555
Ge7 Zr5 2.837643 1_556
Ge7 Zr0 2.838605 1_546
Ge7 Zr4 2.886247 1_656
Ge7 U3 2.960608 1_555
Ge7 U0 3.074687 1_545
Ge7 U1 3.222041 1_556
