# generated using pymatgen
data_HfZn22
_symmetry_space_group_name_H-M   'P 1'
_cell_length_a   9.83604209
_cell_length_b   9.83604209
_cell_length_c   9.83604209
_cell_angle_alpha   60.00000000
_cell_angle_beta   60.00000000
_cell_angle_gamma   60.00000000
_symmetry_Int_Tables_number   1
_chemical_formula_structural   HfZn22
_chemical_formula_sum   'Hf2 Zn44'
_cell_volume   672.89319654
_cell_formula_units_Z   2
loop_
 _symmetry_equiv_pos_site_id
 _symmetry_equiv_pos_as_xyz
  1  'x, y, z'
loop_
 _atom_site_type_symbol
 _atom_site_label
 _atom_site_symmetry_multiplicity
 _atom_site_fract_x
 _atom_site_fract_y
 _atom_site_fract_z
 _atom_site_occupancy
  Hf  Hf0  1  0.50000000  0.50000000  0.50000000  1
  Hf  Hf1  1  0.75000000  0.75000000  0.75000000  1
  Zn  Zn0  1  0.86015177  0.86015177  0.13984823  1
  Zn  Zn1  1  0.13984823  0.13984823  0.86015177  1
  Zn  Zn2  1  0.86015177  0.13984823  0.86015177  1
  Zn  Zn3  1  0.13984823  0.86015177  0.13984823  1
  Zn  Zn4  1  0.13984823  0.86015177  0.86015177  1
  Zn  Zn5  1  0.86015177  0.13984823  0.13984823  1
  Zn  Zn6  1  0.38984823  0.38984823  0.11015177  1
  Zn  Zn7  1  0.11015177  0.11015177  0.38984823  1
  Zn  Zn8  1  0.38984823  0.11015177  0.38984823  1
  Zn  Zn9  1  0.11015177  0.38984823  0.11015177  1
  Zn  Zn10  1  0.11015177  0.38984823  0.38984823  1
  Zn  Zn11  1  0.38984823  0.11015177  0.11015177  1
  Zn  Zn12  1  0.56735552  0.30633662  0.30633662  1
  Zn  Zn13  1  0.30633662  0.56735552  0.81997024  1
  Zn  Zn14  1  0.30633662  0.81997024  0.56735552  1
  Zn  Zn15  1  0.81997024  0.30633662  0.30633662  1
  Zn  Zn16  1  0.30633662  0.30633662  0.56735552  1
  Zn  Zn17  1  0.56735552  0.81997024  0.30633662  1
  Zn  Zn18  1  0.81997024  0.56735552  0.30633662  1
  Zn  Zn19  1  0.30633662  0.30633662  0.81997024  1
  Zn  Zn20  1  0.30633662  0.56735552  0.30633662  1
  Zn  Zn21  1  0.81997024  0.30633662  0.56735552  1
  Zn  Zn22  1  0.56735552  0.30633662  0.81997024  1
  Zn  Zn23  1  0.30633662  0.81997024  0.30633662  1
  Zn  Zn24  1  0.68264448  0.94366338  0.94366338  1
  Zn  Zn25  1  0.94366338  0.68264448  0.43002976  1
  Zn  Zn26  1  0.94366338  0.43002976  0.68264448  1
  Zn  Zn27  1  0.43002976  0.94366338  0.94366338  1
  Zn  Zn28  1  0.94366338  0.94366338  0.68264448  1
  Zn  Zn29  1  0.68264448  0.43002976  0.94366338  1
  Zn  Zn30  1  0.43002976  0.68264448  0.94366338  1
  Zn  Zn31  1  0.94366338  0.94366338  0.43002976  1
  Zn  Zn32  1  0.94366338  0.68264448  0.94366338  1
  Zn  Zn33  1  0.43002976  0.94366338  0.68264448  1
  Zn  Zn34  1  0.68264448  0.94366338  0.43002976  1
  Zn  Zn35  1  0.94366338  0.43002976  0.94366338  1
  Zn  Zn36  1  0.12500000  0.62500000  0.62500000  1
  Zn  Zn37  1  0.62500000  0.12500000  0.62500000  1
  Zn  Zn38  1  0.62500000  0.62500000  0.12500000  1
  Zn  Zn39  1  0.62500000  0.62500000  0.62500000  1
  Zn  Zn40  1  0.62500000  0.12500000  0.12500000  1
  Zn  Zn41  1  0.12500000  0.62500000  0.12500000  1
  Zn  Zn42  1  0.12500000  0.12500000  0.62500000  1
  Zn  Zn43  1  0.12500000  0.12500000  0.12500000  1
loop_
_geom_bond_atom_site_label_1
_geom_bond_atom_site_label_2
_geom_bond_distance
_geom_bond_site_symmetry_2
Hf0 Zn22 2.966577 1_555
Hf0 Zn13 2.966577 1_555
Hf0 Zn17 2.966577 1_555
Hf0 Zn21 2.966577 1_555
Hf0 Zn18 2.966577 1_555
Hf0 Zn14 2.966577 1_555
Hf0 Zn15 2.966581 1_555
Hf0 Zn23 2.966581 1_555
Hf0 Zn19 2.966581 1_555
Hf0 Zn20 2.966585 1_555
Hf0 Zn12 2.966585 1_555
Hf0 Zn16 2.966585 1_555
Hf0 Zn39 3.011661 1_555
Hf0 Zn37 3.011661 1_555
Hf0 Zn38 3.011661 1_555
Hf0 Zn36 3.011661 1_555
Hf1 Zn25 2.966577 1_555
Hf1 Zn29 2.966577 1_555
Hf1 Zn26 2.966577 1_555
Hf1 Zn33 2.966577 1_555
Hf1 Zn30 2.966577 1_555
Hf1 Zn34 2.966577 1_555
Hf1 Zn31 2.966581 1_555
Hf1 Zn35 2.966581 1_555
Hf1 Zn27 2.966581 1_555
Hf1 Zn32 2.966585 1_555
Hf1 Zn28 2.966585 1_555
Hf1 Zn24 2.966585 1_555
Hf1 Zn38 3.011661 1_556
Hf1 Zn39 3.011661 1_555
Hf1 Zn37 3.011661 1_565
Hf1 Zn36 3.011661 1_655
Zn0 Zn40 2.467669 1_565
Zn0 Zn41 2.467669 1_655
Zn0 Zn17 2.628095 1_555
Zn0 Zn18 2.628095 1_555
Zn0 Zn4 2.751106 1_654
Zn0 Zn5 2.751106 1_565
Zn0 Zn2 2.751106 1_564
Zn0 Zn3 2.751106 1_655
Zn0 Zn24 2.792260 1_554
Zn0 Zn32 2.792260 1_554
Zn0 Zn25 2.792269 1_555
Zn0 Zn34 2.792269 1_555
Zn1 Zn42 2.467669 1_555
Zn1 Zn43 2.467669 1_556
Zn1 Zn19 2.628086 1_555
Zn1 Zn16 2.628091 1_555
Zn1 Zn4 2.751106 1_545
Zn1 Zn2 2.751106 1_455
Zn1 Zn3 2.751106 1_546
Zn1 Zn5 2.751106 1_456
Zn1 Zn33 2.792264 1_545
Zn1 Zn26 2.792264 1_455
Zn1 Zn35 2.792269 1_455
Zn1 Zn27 2.792269 1_545
Zn2 Zn42 2.467669 1_655
Zn2 Zn40 2.467669 1_556
Zn2 Zn22 2.628095 1_555
Zn2 Zn21 2.628095 1_555
Zn2 Zn5 2.751106 1_556
Zn2 Zn4 2.751106 1_645
Zn2 Zn24 2.792260 1_545
Zn2 Zn28 2.792260 1_545
Zn2 Zn29 2.792269 1_555
Zn2 Zn26 2.792269 1_555
Zn3 Zn41 2.467669 1_555
Zn3 Zn43 2.467669 1_565
Zn3 Zn4 2.751106 1_554
Zn3 Zn5 2.751106 1_465
Zn3 Zn30 2.792264 1_554
Zn3 Zn31 2.792269 1_455
Zn4 Zn42 2.467669 1_565
Zn4 Zn41 2.467669 1_556
Zn6 Zn9 2.751106 1_555
Zn6 Zn8 2.751106 1_555
Zn7 Zn9 2.751106 1_555
Zn7 Zn8 2.751106 1_555
Zn10 Zn42 2.467669 1_555
Zn10 Zn41 2.467669 1_555
Zn10 Zn25 2.628095 1_455
Zn10 Zn26 2.628095 1_455
Zn10 Zn7 2.751106 1_555
Zn10 Zn9 2.751106 1_555
Zn10 Zn6 2.751106 1_555
Zn10 Zn8 2.751106 1_555
Zn10 Zn16 2.792260 1_555
Zn10 Zn20 2.792260 1_555
Zn10 Zn18 2.792269 1_455
Zn10 Zn21 2.792269 1_455
Zn11 Zn40 2.467669 1_555
Zn11 Zn43 2.467669 1_555
Zn11 Zn27 2.628086 1_544
Zn11 Zn24 2.628091 1_544
Zn11 Zn7 2.751106 1_555
Zn11 Zn9 2.751106 1_555
Zn11 Zn6 2.751106 1_555
Zn11 Zn8 2.751106 1_555
Zn11 Zn17 2.792264 1_545
Zn11 Zn22 2.792264 1_554
Zn11 Zn23 2.792269 1_545
Zn11 Zn19 2.792269 1_554
Zn12 Zn15 2.484729 1_555
Zn12 Zn20 2.567393 1_555
Zn12 Zn16 2.567393 1_555
Zn12 Zn5 2.628091 1_555
Zn12 Zn8 2.792260 1_555
Zn12 Zn6 2.792260 1_555
Zn12 Zn40 2.800521 1_555
Zn12 Zn29 2.913054 1_554
Zn12 Zn34 2.913054 1_545
Zn12 Zn37 2.915901 1_555
Zn12 Zn38 2.915901 1_555
Zn13 Zn14 2.484729 1_555
Zn13 Zn19 2.567393 1_555
Zn13 Zn22 2.567393 1_555
Zn13 Zn4 2.628095 1_555
Zn13 Zn9 2.792264 1_556
Zn13 Zn6 2.792269 1_556
Zn13 Zn41 2.800530 1_556
Zn13 Zn32 2.913054 1_455
Zn13 Zn30 2.913070 1_555
Zn13 Zn36 2.915893 1_555
Zn13 Zn39 2.915901 1_555
Zn14 Zn23 2.567393 1_555
Zn14 Zn17 2.567393 1_555
Zn14 Zn4 2.628095 1_555
Zn14 Zn7 2.792264 1_565
Zn14 Zn8 2.792269 1_565
Zn14 Zn42 2.800530 1_565
Zn14 Zn28 2.913054 1_455
Zn14 Zn33 2.913070 1_555
Zn14 Zn36 2.915893 1_555
Zn14 Zn39 2.915901 1_555
Zn15 Zn21 2.567393 1_555
Zn15 Zn18 2.567393 1_555
Zn15 Zn5 2.628086 1_555
Zn15 Zn9 2.792269 1_655
Zn15 Zn7 2.792269 1_655
Zn15 Zn43 2.800526 1_655
Zn15 Zn31 2.913054 1_545
Zn15 Zn35 2.913054 1_554
Zn15 Zn38 2.915897 1_555
Zn15 Zn37 2.915897 1_555
Zn16 Zn19 2.484729 1_555
Zn16 Zn20 2.567393 1_555
Zn16 Zn8 2.792260 1_555
Zn16 Zn42 2.800521 1_555
Zn16 Zn26 2.913054 1_455
Zn16 Zn33 2.913054 1_545
Zn16 Zn37 2.915901 1_555
Zn16 Zn36 2.915901 1_555
Zn17 Zn18 2.484729 1_555
Zn17 Zn23 2.567393 1_555
Zn17 Zn8 2.792269 1_565
Zn17 Zn40 2.800530 1_565
Zn17 Zn24 2.913054 1_554
Zn17 Zn34 2.913070 1_555
Zn17 Zn38 2.915893 1_555
Zn17 Zn39 2.915901 1_555
Zn18 Zn21 2.567393 1_555
Zn18 Zn9 2.792264 1_655
Zn18 Zn41 2.800530 1_655
Zn18 Zn32 2.913054 1_554
Zn18 Zn25 2.913070 1_555
Zn18 Zn38 2.915893 1_555
Zn18 Zn39 2.915901 1_555
Zn19 Zn22 2.567393 1_555
Zn19 Zn9 2.792269 1_556
Zn19 Zn43 2.800526 1_556
Zn19 Zn27 2.913054 1_545
Zn19 Zn35 2.913054 1_455
Zn19 Zn36 2.915897 1_555
Zn19 Zn37 2.915897 1_555
Zn20 Zn23 2.484729 1_555
Zn20 Zn3 2.628091 1_555
Zn20 Zn6 2.792260 1_555
Zn20 Zn41 2.800521 1_555
Zn20 Zn30 2.913054 1_554
Zn20 Zn25 2.913054 1_455
Zn20 Zn38 2.915901 1_555
Zn20 Zn36 2.915901 1_555
Zn21 Zn22 2.484729 1_555
Zn21 Zn7 2.792264 1_655
Zn21 Zn42 2.800530 1_655
Zn21 Zn28 2.913054 1_545
Zn21 Zn26 2.913070 1_555
Zn21 Zn37 2.915893 1_555
Zn21 Zn39 2.915901 1_555
Zn22 Zn6 2.792269 1_556
Zn22 Zn40 2.800530 1_556
Zn22 Zn24 2.913054 1_545
Zn22 Zn29 2.913070 1_555
Zn22 Zn37 2.915893 1_555
Zn22 Zn39 2.915901 1_555
Zn23 Zn3 2.628086 1_555
Zn23 Zn7 2.792269 1_565
Zn23 Zn43 2.800526 1_565
Zn23 Zn27 2.913054 1_554
Zn23 Zn31 2.913054 1_455
Zn23 Zn36 2.915897 1_555
Zn23 Zn38 2.915897 1_555
Zn24 Zn27 2.484729 1_555
Zn24 Zn28 2.567393 1_555
Zn24 Zn32 2.567393 1_555
Zn24 Zn40 2.800521 1_566
Zn24 Zn38 2.915901 1_556
Zn24 Zn37 2.915901 1_565
Zn25 Zn26 2.484729 1_555
Zn25 Zn34 2.567393 1_555
Zn25 Zn31 2.567393 1_555
Zn25 Zn3 2.792264 1_655
Zn25 Zn41 2.800530 1_655
Zn25 Zn36 2.915893 1_655
Zn25 Zn39 2.915901 1_555
Zn26 Zn35 2.567393 1_555
Zn26 Zn29 2.567393 1_555
Zn26 Zn42 2.800530 1_655
Zn26 Zn36 2.915893 1_655
Zn26 Zn39 2.915901 1_555
Zn27 Zn30 2.567393 1_555
Zn27 Zn33 2.567393 1_555
Zn27 Zn3 2.792269 1_556
Zn27 Zn43 2.800526 1_566
Zn27 Zn37 2.915897 1_565
Zn27 Zn38 2.915897 1_556
Zn28 Zn31 2.484729 1_555
Zn28 Zn32 2.567393 1_555
Zn28 Zn7 2.628091 1_665
Zn28 Zn4 2.792260 1_655
Zn28 Zn42 2.800521 1_665
Zn28 Zn37 2.915901 1_565
Zn28 Zn36 2.915901 1_655
Zn29 Zn30 2.484729 1_555
Zn29 Zn35 2.567393 1_555
Zn29 Zn6 2.628095 1_556
Zn29 Zn5 2.792264 1_556
Zn29 Zn40 2.800530 1_556
Zn29 Zn38 2.915893 1_556
Zn29 Zn39 2.915901 1_555
Zn30 Zn33 2.567393 1_555
Zn30 Zn6 2.628095 1_556
Zn30 Zn4 2.792269 1_555
Zn30 Zn41 2.800530 1_556
Zn30 Zn38 2.915893 1_556
Zn30 Zn39 2.915901 1_555
Zn31 Zn34 2.567393 1_555
Zn31 Zn7 2.628086 1_665
Zn31 Zn5 2.792269 1_565
Zn31 Zn43 2.800526 1_665
Zn31 Zn37 2.915897 1_565
Zn31 Zn36 2.915897 1_655
Zn32 Zn35 2.484729 1_555
Zn32 Zn9 2.628091 1_656
Zn32 Zn4 2.792260 1_655
Zn32 Zn41 2.800521 1_656
Zn32 Zn38 2.915901 1_556
Zn32 Zn36 2.915901 1_655
Zn33 Zn34 2.484729 1_555
Zn33 Zn8 2.628095 1_565
Zn33 Zn4 2.792269 1_555
Zn33 Zn42 2.800530 1_565
Zn33 Zn37 2.915893 1_565
Zn33 Zn39 2.915901 1_555
Zn34 Zn8 2.628095 1_565
Zn34 Zn5 2.792264 1_565
Zn34 Zn40 2.800530 1_565
Zn34 Zn37 2.915893 1_565
Zn34 Zn39 2.915901 1_555
Zn35 Zn9 2.628086 1_656
Zn35 Zn5 2.792269 1_556
Zn35 Zn43 2.800526 1_656
Zn35 Zn38 2.915897 1_556
Zn35 Zn36 2.915897 1_655
Zn40 Zn8 2.467669 1_555
Zn40 Zn5 2.467669 1_555
Zn40 Zn6 2.467669 1_555
Zn41 Zn9 2.467669 1_555
Zn41 Zn6 2.467669 1_555
Zn42 Zn8 2.467669 1_555
Zn42 Zn7 2.467669 1_555
Zn43 Zn7 2.467669 1_555
Zn43 Zn9 2.467669 1_555
Zn43 Zn5 2.467669 1_455
