# generated using pymatgen
data_RePtN5Cl8O
_symmetry_space_group_name_H-M   'P 1'
_cell_length_a   8.16398700
_cell_length_b   8.56190000
_cell_length_c   25.49276900
_cell_angle_alpha   90.00000000
_cell_angle_beta   90.00000000
_cell_angle_gamma   90.00000000
_symmetry_Int_Tables_number   1
_chemical_formula_structural   RePtN5Cl8O
_chemical_formula_sum   'Re4 Pt4 N20 Cl32 O4'
_cell_volume   1781.92518612
_cell_formula_units_Z   4
loop_
 _symmetry_equiv_pos_site_id
 _symmetry_equiv_pos_as_xyz
  1  'x, y, z'
loop_
 _atom_site_type_symbol
 _atom_site_label
 _atom_site_symmetry_multiplicity
 _atom_site_fract_x
 _atom_site_fract_y
 _atom_site_fract_z
 _atom_site_occupancy
  Re  Re0  1  0.25000000  0.76205900  0.08009000  1
  Re  Re1  1  0.25000000  0.73794100  0.58009000  1
  Re  Re2  1  0.75000000  0.23794100  0.91991000  1
  Re  Re3  1  0.75000000  0.26205900  0.41991000  1
  Pt  Pt0  1  0.25000000  0.81960000  0.84105400  1
  Pt  Pt1  1  0.25000000  0.68040000  0.34105400  1
  Pt  Pt2  1  0.75000000  0.18040000  0.15894600  1
  Pt  Pt3  1  0.75000000  0.31960000  0.65894600  1
  N  N0  1  0.25000000  0.99102900  0.88602900  1
  N  N1  1  0.25000000  0.50897100  0.38602900  1
  N  N2  1  0.75000000  0.00897100  0.11397100  1
  N  N3  1  0.75000000  0.49102900  0.61397100  1
  N  N4  1  0.09367100  0.95555700  0.78492900  1
  N  N5  1  0.40632900  0.54444300  0.28492900  1
  N  N6  1  0.59367100  0.04444300  0.21507100  1
  N  N7  1  0.90632900  0.45555700  0.71507100  1
  N  N8  1  0.90632900  0.04444300  0.21507100  1
  N  N9  1  0.59367100  0.45555700  0.71507100  1
  N  N10  1  0.40632900  0.95555700  0.78492900  1
  N  N11  1  0.09367100  0.54444300  0.28492900  1
  N  N12  1  0.11729900  0.66728300  0.88299500  1
  N  N13  1  0.38270100  0.83271700  0.38299500  1
  N  N14  1  0.61729900  0.33271700  0.11700500  1
  N  N15  1  0.88270100  0.16728300  0.61700500  1
  N  N16  1  0.88270100  0.33271700  0.11700500  1
  N  N17  1  0.61729900  0.16728300  0.61700500  1
  N  N18  1  0.38270100  0.66728300  0.88299500  1
  N  N19  1  0.11729900  0.83271700  0.38299500  1
  Cl  Cl0  1  0.25000000  0.49980300  0.06144700  1
  Cl  Cl1  1  0.25000000  0.00019700  0.56144700  1
  Cl  Cl2  1  0.75000000  0.50019700  0.93855300  1
  Cl  Cl3  1  0.75000000  0.99980300  0.43855300  1
  Cl  Cl4  1  0.05120200  0.72243300  0.14249300  1
  Cl  Cl5  1  0.44879800  0.77756700  0.64249300  1
  Cl  Cl6  1  0.55120200  0.27756700  0.85750700  1
  Cl  Cl7  1  0.94879800  0.22243300  0.35750700  1
  Cl  Cl8  1  0.94879800  0.27756700  0.85750700  1
  Cl  Cl9  1  0.55120200  0.22243300  0.35750700  1
  Cl  Cl10  1  0.44879800  0.72243300  0.14249300  1
  Cl  Cl11  1  0.05120200  0.77756700  0.64249300  1
  Cl  Cl12  1  0.05125600  0.80181900  0.01767300  1
  Cl  Cl13  1  0.44874400  0.69818100  0.51767300  1
  Cl  Cl14  1  0.55125600  0.19818100  0.98232700  1
  Cl  Cl15  1  0.94874400  0.30181900  0.48232700  1
  Cl  Cl16  1  0.94874400  0.19818100  0.98232700  1
  Cl  Cl17  1  0.55125600  0.30181900  0.48232700  1
  Cl  Cl18  1  0.44874400  0.80181900  0.01767300  1
  Cl  Cl19  1  0.05125600  0.69818100  0.51767300  1
  Cl  Cl20  1  0.25000000  0.02463600  0.09953300  1
  Cl  Cl21  1  0.25000000  0.47536400  0.59953300  1
  Cl  Cl22  1  0.75000000  0.97536400  0.90046700  1
  Cl  Cl23  1  0.75000000  0.52463600  0.40046700  1
  Cl  Cl24  1  0.25000000  0.63113700  0.77107000  1
  Cl  Cl25  1  0.25000000  0.86886300  0.27107000  1
  Cl  Cl26  1  0.75000000  0.36886300  0.22893000  1
  Cl  Cl27  1  0.75000000  0.13113700  0.72893000  1
  Cl  Cl28  1  0.75000000  0.98379200  0.24198900  1
  Cl  Cl29  1  0.75000000  0.51620800  0.74198900  1
  Cl  Cl30  1  0.25000000  0.01620800  0.75801100  1
  Cl  Cl31  1  0.25000000  0.48379200  0.25801100  1
  O  O0  1  0.25000000  0.59126400  0.90151400  1
  O  O1  1  0.25000000  0.90873600  0.40151400  1
  O  O2  1  0.75000000  0.40873600  0.09848600  1
  O  O3  1  0.75000000  0.09126400  0.59848600  1
loop_
_geom_bond_atom_site_label_1
_geom_bond_atom_site_label_2
_geom_bond_distance
_geom_bond_site_symmetry_2
N0 Pt0 1.862488 1_555
N1 Pt1 1.862488 1_555
N2 Pt2 1.862488 1_555
N3 Pt3 1.862488 1_555
N4 Pt0 2.242991 1_555
N5 Pt1 2.242991 1_555
N6 Pt2 2.242991 1_555
N7 Pt3 2.242991 1_555
N8 Pt2 2.242991 1_555
N9 Pt3 2.242991 1_555
N10 Pt0 2.242991 1_555
N11 Pt1 2.242991 1_555
N12 O0 1.349146 1_555
N12 Pt0 2.004395 1_555
N13 O1 1.349146 1_555
N13 Pt1 2.004395 1_555
N14 O2 1.349146 1_555
N14 Pt2 2.004395 1_555
N15 O3 1.349146 1_555
N15 Pt3 2.004395 1_555
N16 O2 1.349146 1_555
N16 Pt2 2.004395 1_555
N17 O3 1.349146 1_555
N17 Pt3 2.004395 1_555
N18 O0 1.349146 1_555
N18 Pt0 2.004395 1_555
N19 O1 1.349146 1_555
N19 Pt1 2.004395 1_555
Cl0 Re0 2.295155 1_555
Cl1 Re1 2.295155 1_545
Cl2 Re2 2.295155 1_555
Cl3 Re3 2.295155 1_565
Cl4 Re0 2.297805 1_555
Cl5 Re1 2.297805 1_555
Cl6 Re2 2.297805 1_555
Cl7 Re3 2.297805 1_555
Cl8 Re2 2.297805 1_555
Cl9 Re3 2.297805 1_555
Cl10 Re0 2.297805 1_555
Cl11 Re1 2.297805 1_555
Cl12 Re0 2.297911 1_555
Cl13 Re1 2.297911 1_555
Cl14 Re2 2.297911 1_555
Cl15 Re3 2.297911 1_555
Cl16 Re2 2.297911 1_555
Cl17 Re3 2.297911 1_555
Cl18 Re0 2.297911 1_555
Cl19 Re1 2.297911 1_555
Cl20 Re0 2.302149 1_545
Cl21 Re1 2.302149 1_555
Cl22 Re2 2.302149 1_565
Cl23 Re3 2.302149 1_555
Cl24 Pt0 2.405550 1_555
Cl25 Pt1 2.405550 1_555
Cl26 Pt2 2.405550 1_555
Cl27 Pt3 2.405550 1_555
Cl28 N8 1.539289 1_565
Cl28 N6 1.539289 1_565
Cl29 N7 1.539289 1_555
Cl29 N9 1.539289 1_555
Cl30 N10 1.539289 1_545
Cl30 N4 1.539289 1_545
Cl31 N5 1.539289 1_555
Cl31 N11 1.539289 1_555
