# generated using pymatgen
data_LaSmCo2O5
_symmetry_space_group_name_H-M   'P 1'
_cell_length_a   10.83864724
_cell_length_b   11.55099621
_cell_length_c   17.41990923
_cell_angle_alpha   109.39895954
_cell_angle_beta   108.12266068
_cell_angle_gamma   90.02367556
_symmetry_Int_Tables_number   1
_chemical_formula_structural   LaSmCo2O5
_chemical_formula_sum   'La16 Sm16 Co32 O80'
_cell_volume   1941.92981622
_cell_formula_units_Z   16
loop_
 _symmetry_equiv_pos_site_id
 _symmetry_equiv_pos_as_xyz
  1  'x, y, z'
loop_
 _atom_site_type_symbol
 _atom_site_label
 _atom_site_symmetry_multiplicity
 _atom_site_fract_x
 _atom_site_fract_y
 _atom_site_fract_z
 _atom_site_occupancy
  La  La0  1  0.30699900  0.06519500  0.60938500  1
  La  La1  1  0.30878600  0.56816900  0.61220000  1
  La  La2  1  0.80564300  0.06587700  0.61012900  1
  La  La3  1  0.80610900  0.56776600  0.61258900  1
  La  La4  1  0.19535500  0.43328800  0.38737300  1
  La  La5  1  0.19398600  0.43701500  0.89106200  1
  La  La6  1  0.69421800  0.43320500  0.38758400  1
  La  La7  1  0.69094900  0.93146500  0.38619400  1
  La  La8  1  0.05682600  0.29380200  0.61042400  1
  La  La9  1  0.05492200  0.79558400  0.61170900  1
  La  La10  1  0.55783400  0.29555700  0.61233900  1
  La  La11  1  0.44354700  0.20376200  0.38662800  1
  La  La12  1  0.44701300  0.20593600  0.89009900  1
  La  La13  1  0.94505900  0.20413500  0.38637900  1
  La  La14  1  0.94403500  0.20521000  0.89011600  1
  La  La15  1  0.94510600  0.70603800  0.38738100  1
  Sm  Sm0  1  0.30103300  0.06809300  0.10795600  1
  Sm  Sm1  1  0.30237500  0.56874500  0.11177400  1
  Sm  Sm2  1  0.80036200  0.06585500  0.10683300  1
  Sm  Sm3  1  0.80146900  0.56834100  0.10858700  1
  Sm  Sm4  1  0.19535600  0.92994100  0.38852500  1
  Sm  Sm5  1  0.19357600  0.93196400  0.89289600  1
  Sm  Sm6  1  0.69518100  0.43548700  0.89222700  1
  Sm  Sm7  1  0.69255000  0.93024900  0.89059400  1
  Sm  Sm8  1  0.05161500  0.29101000  0.10918100  1
  Sm  Sm9  1  0.04955300  0.79201100  0.10969500  1
  Sm  Sm10  1  0.55152100  0.29144700  0.10880700  1
  Sm  Sm11  1  0.55134400  0.79047700  0.10790400  1
  Sm  Sm12  1  0.55401900  0.79117300  0.60895500  1
  Sm  Sm13  1  0.44367900  0.70933000  0.39077900  1
  Sm  Sm14  1  0.44577500  0.71029000  0.89328500  1
  Sm  Sm15  1  0.94155400  0.71116200  0.89405100  1
  Co  Co0  1  0.00483400  0.99954300  0.00147300  1
  Co  Co1  1  0.00448100  0.99932900  0.49795500  1
  Co  Co2  1  0.00573700  0.50167900  0.00222200  1
  Co  Co3  1  0.00498600  0.49974600  0.49961600  1
  Co  Co4  1  0.50606200  0.99962000  0.00131500  1
  Co  Co5  1  0.50462100  0.99913300  0.49947600  1
  Co  Co6  1  0.50642100  0.50130800  0.00184400  1
  Co  Co7  1  0.50442700  0.50000400  0.49872600  1
  Co  Co8  1  0.25630700  0.25185400  0.00216100  1
  Co  Co9  1  0.25489800  0.24842200  0.49839400  1
  Co  Co10  1  0.25563200  0.75160800  0.00219600  1
  Co  Co11  1  0.25510400  0.74943900  0.49934400  1
  Co  Co12  1  0.75612700  0.25099900  0.00168700  1
  Co  Co13  1  0.75437900  0.25002300  0.49928400  1
  Co  Co14  1  0.75418400  0.74948700  0.00070600  1
  Co  Co15  1  0.75383200  0.74941800  0.49907700  1
  Co  Co16  1  0.10502200  0.08966200  0.24668700  1
  Co  Co17  1  0.10966100  0.09258500  0.75258900  1
  Co  Co18  1  0.10687200  0.59353400  0.24667800  1
  Co  Co19  1  0.10865100  0.59792000  0.75336600  1
  Co  Co20  1  0.60443200  0.09066200  0.24551700  1
  Co  Co21  1  0.60875000  0.09162900  0.75166800  1
  Co  Co22  1  0.60264300  0.59226400  0.24646100  1
  Co  Co23  1  0.60889800  0.59775500  0.75337900  1
  Co  Co24  1  0.35523000  0.40709500  0.24694100  1
  Co  Co25  1  0.36109300  0.40973800  0.75260300  1
  Co  Co26  1  0.35321400  0.90343600  0.24714100  1
  Co  Co27  1  0.36026200  0.90493300  0.75270300  1
  Co  Co28  1  0.85491400  0.40481800  0.24551600  1
  Co  Co29  1  0.85714400  0.41050900  0.75348400  1
  Co  Co30  1  0.85668500  0.90443300  0.24607400  1
  Co  Co31  1  0.85555700  0.90465000  0.75257200  1
  O  O0  1  0.11896100  0.11464000  0.47869300  1
  O  O1  1  0.11949600  0.11804000  0.98345000  1
  O  O2  1  0.11901600  0.61882900  0.48213800  1
  O  O3  1  0.11457900  0.62282400  0.98204800  1
  O  O4  1  0.61790700  0.11823700  0.48186200  1
  O  O5  1  0.61945500  0.11711200  0.98247500  1
  O  O6  1  0.61474400  0.62131700  0.48079400  1
  O  O7  1  0.61873800  0.62049800  0.97937800  1
  O  O8  1  0.13866500  0.38402600  0.02549500  1
  O  O9  1  0.13667900  0.38078500  0.51730700  1
  O  O10  1  0.13591600  0.88193200  0.02136700  1
  O  O11  1  0.13656400  0.88085400  0.51519900  1
  O  O12  1  0.63830900  0.38342500  0.02281000  1
  O  O13  1  0.63681100  0.38268400  0.51807700  1
  O  O14  1  0.63757300  0.87698200  0.01971600  1
  O  O15  1  0.63361500  0.87828400  0.51903600  1
  O  O16  1  0.36406000  0.10745700  0.47778700  1
  O  O17  1  0.36535700  0.10934500  0.98167700  1
  O  O18  1  0.37079400  0.61629100  0.48082800  1
  O  O19  1  0.37101400  0.61593800  0.98294000  1
  O  O20  1  0.86817300  0.11309000  0.48136600  1
  O  O21  1  0.86439900  0.10780000  0.98069400  1
  O  O22  1  0.86820200  0.61341100  0.48198200  1
  O  O23  1  0.86412200  0.61317500  0.98054200  1
  O  O24  1  0.38879900  0.39241800  0.02513400  1
  O  O25  1  0.38651000  0.38668700  0.51779600  1
  O  O26  1  0.38693300  0.88960500  0.02089400  1
  O  O27  1  0.38776700  0.88285900  0.51620100  1
  O  O28  1  0.88627500  0.39155000  0.02223900  1
  O  O29  1  0.88648900  0.38645900  0.51774600  1
  O  O30  1  0.88408300  0.88607400  0.02017600  1
  O  O31  1  0.88580700  0.88568400  0.51634300  1
  O  O32  1  0.10217200  0.11587000  0.14170600  1
  O  O33  1  0.09152700  0.11039300  0.64229200  1
  O  O34  1  0.10183600  0.61785400  0.14089000  1
  O  O35  1  0.09079800  0.61401700  0.64250500  1
  O  O36  1  0.60170800  0.11582200  0.14047800  1
  O  O37  1  0.59031300  0.11223900  0.64214500  1
  O  O38  1  0.60114600  0.61710900  0.14112600  1
  O  O39  1  0.58947300  0.61460900  0.64206900  1
  O  O40  1  0.44688800  0.38740200  0.35694500  1
  O  O41  1  0.45944600  0.38820700  0.86027000  1
  O  O42  1  0.44808000  0.88607600  0.35784200  1
  O  O43  1  0.46212800  0.88488500  0.86021100  1
  O  O44  1  0.94704500  0.38853900  0.35663900  1
  O  O45  1  0.95141600  0.38753500  0.86116300  1
  O  O46  1  0.95629000  0.88796900  0.35600500  1
  O  O47  1  0.96019500  0.88560500  0.85998700  1
  O  O48  1  0.35299900  0.27552100  0.14214000  1
  O  O49  1  0.34148300  0.28064500  0.64185600  1
  O  O50  1  0.35146400  0.77478200  0.14155000  1
  O  O51  1  0.34880100  0.78126000  0.64184200  1
  O  O52  1  0.85201200  0.27376400  0.14041400  1
  O  O53  1  0.83930400  0.28200300  0.64315000  1
  O  O54  1  0.85365800  0.77423700  0.14212600  1
  O  O55  1  0.83951300  0.77987000  0.64150500  1
  O  O56  1  0.19693900  0.22023800  0.35659500  1
  O  O57  1  0.20160100  0.22486400  0.86031200  1
  O  O58  1  0.20511600  0.72037800  0.35676400  1
  O  O59  1  0.21216000  0.72507700  0.86034600  1
  O  O60  1  0.69628300  0.21864100  0.35674700  1
  O  O61  1  0.70045600  0.22527400  0.85961600  1
  O  O62  1  0.69759100  0.71922200  0.35698800  1
  O  O63  1  0.71162800  0.72583000  0.85812700  1
  O  O64  1  0.41453000  0.06618600  0.24371500  1
  O  O65  1  0.42011500  0.06805900  0.75073700  1
  O  O66  1  0.41473500  0.57438900  0.24977100  1
  O  O67  1  0.42197400  0.57624300  0.75636800  1
  O  O68  1  0.91447300  0.06793300  0.24293700  1
  O  O69  1  0.92000500  0.06689900  0.75050800  1
  O  O70  1  0.91669100  0.56836100  0.24420600  1
  O  O71  1  0.92230000  0.57582900  0.75728500  1
  O  O72  1  0.16474900  0.42668800  0.24373800  1
  O  O73  1  0.17173300  0.43309500  0.75099000  1
  O  O74  1  0.16486500  0.92509800  0.24903800  1
  O  O75  1  0.17368200  0.93055900  0.75675300  1
  O  O76  1  0.66460100  0.42673900  0.24379700  1
  O  O77  1  0.66942300  0.43358900  0.75579800  1
  O  O78  1  0.66617700  0.92563300  0.24406500  1
  O  O79  1  0.66626600  0.92583500  0.75125700  1
loop_
_geom_bond_atom_site_label_1
_geom_bond_atom_site_label_2
_geom_bond_distance
_geom_bond_site_symmetry_2
La0 O49 2.363405 1_555
La0 O65 2.373844 1_555
La0 O11 2.535525 1_545
La0 O27 2.540018 1_545
La0 O33 2.586586 1_555
La0 O16 2.738828 1_555
La0 O0 2.764278 1_555
La0 O37 2.958522 1_555
La1 O51 2.351338 1_555
La1 O67 2.397595 1_555
La1 O25 2.526223 1_555
La1 O9 2.568806 1_555
La1 O35 2.594753 1_555
La1 O2 2.772892 1_555
La1 O18 2.792740 1_555
La1 O39 2.939789 1_555
La2 O53 2.368778 1_555
La2 O69 2.368888 1_555
La2 O31 2.526260 1_545
La2 O15 2.561613 1_545
La2 O37 2.580164 1_555
La2 O20 2.746996 1_555
La2 O4 2.751191 1_555
La2 O33 2.984443 1_655
La3 O55 2.335248 1_555
La3 O71 2.411893 1_555
La3 O13 2.535234 1_555
La3 O29 2.544226 1_555
La3 O39 2.576121 1_555
La3 O22 2.767022 1_555
La3 O6 2.817385 1_555
La3 O35 2.981865 1_655
La4 O56 2.339499 1_555
La4 O72 2.394433 1_555
La4 O2 2.550283 1_555
La4 O18 2.553305 1_555
La4 O44 2.591482 1_455
La4 O25 2.762086 1_555
La4 O9 2.775329 1_555
La4 O40 2.950937 1_555
La5 O57 2.335519 1_555
La5 O73 2.361039 1_555
La5 O19 2.530518 1_555
La5 O3 2.539640 1_555
La5 O45 2.541534 1_455
La5 O24 2.812601 1_556
La5 O8 2.836131 1_556
La5 O41 3.105571 1_555
La6 O60 2.356860 1_555
La6 O76 2.399570 1_555
La6 O22 2.527222 1_555
La6 O6 2.574451 1_555
La6 O40 2.583062 1_555
La6 O29 2.765910 1_555
La6 O13 2.766921 1_555
La6 O44 2.966718 1_555
La7 O62 2.338551 1_555
La7 O78 2.383741 1_555
La7 O42 2.542879 1_555
La7 O4 2.547995 1_565
La7 O20 2.558269 1_565
La7 O31 2.774678 1_555
La7 O15 2.820844 1_555
La7 O46 3.092987 1_555
La8 O33 2.364308 1_555
La8 O73 2.370604 1_555
La8 O9 2.518943 1_555
La8 O29 2.540800 1_455
La8 O53 2.605676 1_455
La8 O20 2.758952 1_455
La8 O0 2.794655 1_555
La8 O49 2.974337 1_555
La9 O35 2.335782 1_555
La9 O75 2.414514 1_555
La9 O31 2.541361 1_455
La9 O55 2.563103 1_455
La9 O11 2.569891 1_555
La9 O22 2.760977 1_455
La9 O2 2.767861 1_555
La9 O51 3.076803 1_555
La10 O37 2.344056 1_555
La10 O77 2.391946 1_555
La10 O13 2.532460 1_555
La10 O25 2.553292 1_555
La10 O49 2.569329 1_555
La10 O4 2.759430 1_555
La10 O16 2.859445 1_555
La10 O53 2.942322 1_555
La11 O40 2.347013 1_555
La11 O64 2.388824 1_555
La11 O4 2.537598 1_555
La11 O16 2.554441 1_555
La11 O56 2.578939 1_555
La11 O25 2.782156 1_555
La11 O13 2.787703 1_555
La11 O60 2.958112 1_555
La12 O41 2.343285 1_555
La12 O65 2.346479 1_555
La12 O5 2.522448 1_555
La12 O57 2.570896 1_555
La12 O17 2.575449 1_555
La12 O12 2.777180 1_556
La12 O24 2.851295 1_556
La12 O61 2.977163 1_555
La13 O44 2.354978 1_555
La13 O68 2.387803 1_555
La13 O0 2.535277 1_655
La13 O20 2.559573 1_555
La13 O60 2.599429 1_555
La13 O9 2.763529 1_655
La13 O29 2.788992 1_555
La13 O56 2.949874 1_655
La14 O45 2.329534 1_555
La14 O69 2.357813 1_555
La14 O1 2.537620 1_655
La14 O61 2.552575 1_555
La14 O21 2.554706 1_555
La14 O28 2.815792 1_556
La14 O8 2.818449 1_656
La14 O57 3.015616 1_655
La15 O46 2.352377 1_555
La15 O70 2.394026 1_555
La15 O2 2.542240 1_655
La15 O22 2.565212 1_555
La15 O62 2.582793 1_555
La15 O11 2.734382 1_655
La15 O31 2.751093 1_555
La15 O58 3.040930 1_655
Co0 O21 1.992755 1_464
Co0 O10 1.998064 1_555
Co0 O1 2.010813 1_564
Co0 O30 2.021002 1_455
Co0 O32 2.258561 1_565
Co0 O47 2.267964 1_454
Co1 O0 1.995203 1_565
Co1 O20 1.995293 1_465
Co1 O31 2.003632 1_455
Co1 O11 2.004916 1_555
Co1 O46 2.263840 1_455
Co1 O33 2.288743 1_565
Co2 O28 1.997630 1_455
Co2 O3 2.014097 1_554
Co2 O8 2.022695 1_555
Co2 O23 2.030115 1_454
Co2 O34 2.236295 1_555
Co2 O45 2.251711 1_454
Co3 O29 1.996787 1_455
Co3 O22 2.000589 1_455
Co3 O2 2.005790 1_555
Co3 O9 2.007447 1_555
Co3 O44 2.269088 1_455
Co3 O35 2.275795 1_555
Co4 O26 1.989705 1_555
Co4 O5 2.001374 1_564
Co4 O17 2.003561 1_564
Co4 O14 2.039685 1_555
Co4 O36 2.242101 1_565
Co4 O43 2.265472 1_554
Co5 O27 1.995235 1_555
Co5 O16 1.996730 1_565
Co5 O4 2.001986 1_565
Co5 O15 2.010140 1_555
Co5 O42 2.255366 1_555
Co5 O37 2.269854 1_565
Co6 O19 2.001546 1_554
Co6 O24 2.007818 1_555
Co6 O12 2.009511 1_555
Co6 O7 2.045369 1_554
Co6 O38 2.241299 1_555
Co6 O41 2.264106 1_554
Co7 O18 1.999554 1_555
Co7 O25 2.002166 1_555
Co7 O6 2.003146 1_555
Co7 O13 2.003271 1_555
Co7 O40 2.255613 1_555
Co7 O39 2.282213 1_555
Co8 O8 2.008412 1_555
Co8 O1 2.014192 1_554
Co8 O24 2.016811 1_555
Co8 O17 2.026783 1_554
Co8 O48 2.255243 1_555
Co8 O57 2.265221 1_554
Co9 O0 2.001965 1_555
Co9 O9 2.004394 1_555
Co9 O25 2.009839 1_555
Co9 O16 2.014348 1_555
Co9 O56 2.258858 1_555
Co9 O49 2.277609 1_555
Co10 O3 1.997717 1_554
Co10 O10 1.999641 1_555
Co10 O26 2.009250 1_555
Co10 O19 2.011404 1_554
Co10 O50 2.245652 1_555
Co10 O59 2.279115 1_554
Co11 O27 1.990908 1_555
Co11 O2 1.991064 1_555
Co11 O18 1.991343 1_555
Co11 O11 1.993775 1_555
Co11 O51 2.270153 1_555
Co11 O58 2.276838 1_555
Co12 O12 2.006480 1_555
Co12 O5 2.010968 1_554
Co12 O28 2.012867 1_555
Co12 O21 2.028217 1_554
Co12 O52 2.237064 1_555
Co12 O61 2.271489 1_554
Co13 O13 2.001748 1_555
Co13 O4 2.002324 1_555
Co13 O29 2.003098 1_555
Co13 O20 2.008381 1_555
Co13 O60 2.263262 1_555
Co13 O53 2.283437 1_555
Co14 O7 1.950466 1_554
Co14 O14 1.952921 1_555
Co14 O23 1.979129 1_554
Co14 O30 1.982957 1_555
Co14 O54 2.278739 1_555
Co14 O63 2.300566 1_554
Co15 O6 1.987454 1_555
Co15 O15 1.993497 1_555
Co15 O22 2.003472 1_555
Co15 O31 2.007511 1_555
Co15 O62 2.259963 1_555
Co15 O55 2.264624 1_555
Co16 O32 1.941542 1_555
Co16 O56 1.956257 1_555
Co16 O74 2.017902 1_545
Co16 O68 2.058507 1_455
Co17 O57 1.944161 1_555
Co17 O33 1.949417 1_555
Co17 O75 2.012323 1_545
Co17 O69 2.064192 1_455
Co18 O34 1.938866 1_555
Co18 O58 1.954485 1_555
Co18 O72 2.016383 1_555
Co18 O70 2.066724 1_455
Co19 O59 1.941292 1_555
Co19 O35 1.951305 1_555
Co19 O73 2.015027 1_555
Co19 O71 2.060646 1_455
Co20 O36 1.937277 1_555
Co20 O60 1.956219 1_555
Co20 O78 2.015404 1_545
Co20 O64 2.066607 1_555
Co21 O37 1.949666 1_555
Co21 O61 1.953138 1_555
Co21 O79 2.012680 1_545
Co21 O65 2.056828 1_555
Co22 O38 1.944446 1_555
Co22 O62 1.951198 1_555
Co22 O76 2.017496 1_555
Co22 O66 2.067509 1_555
Co23 O63 1.923383 1_555
Co23 O39 1.959289 1_555
Co23 O77 2.016164 1_555
Co23 O67 2.059842 1_555
Co24 O48 1.942340 1_555
Co24 O40 1.953505 1_555
Co24 O66 2.017057 1_555
Co24 O72 2.062484 1_555
Co25 O41 1.944786 1_555
Co25 O49 1.955557 1_555
Co25 O67 2.006748 1_555
Co25 O73 2.062903 1_555
Co26 O50 1.937678 1_555
Co26 O42 1.959516 1_555
Co26 O64 2.019287 1_565
Co26 O74 2.065940 1_555
Co27 O43 1.944714 1_555
Co27 O51 1.950294 1_555
Co27 O65 2.007028 1_565
Co27 O75 2.063388 1_555
Co28 O52 1.941051 1_555
Co28 O44 1.954246 1_555
Co28 O70 2.013602 1_555
Co28 O76 2.070491 1_555
Co29 O45 1.942031 1_555
Co29 O53 1.951469 1_555
Co29 O71 2.008861 1_555
Co29 O77 2.063201 1_555
Co30 O54 1.922409 1_555
Co30 O46 1.955711 1_555
Co30 O68 2.012692 1_565
Co30 O78 2.070253 1_555
Co31 O55 1.946550 1_555
Co31 O47 1.946624 1_555
Co31 O69 2.015175 1_565
Co31 O79 2.060245 1_555
O0 Sm4 2.507768 1_545
O1 Sm5 2.507963 1_545
O1 Sm0 2.661906 1_556
O1 Sm8 2.725262 1_556
O3 Sm15 2.481974 1_455
O3 Sm9 2.711039 1_556
O3 Sm1 2.778003 1_556
O5 Sm7 2.518671 1_545
O5 Sm2 2.664319 1_556
O5 Sm10 2.739665 1_556
O6 Sm13 2.486349 1_555
O6 Sm12 2.696736 1_555
O7 Sm14 2.474923 1_555
O7 Sm6 2.487385 1_555
O7 Sm3 2.735003 1_556
O7 Sm11 2.738570 1_556
O8 Sm8 2.462741 1_555
O8 Sm1 2.483454 1_555
O10 Sm0 2.502967 1_565
O10 Sm9 2.505873 1_555
O10 Sm15 2.726080 1_454
O10 Sm5 2.731657 1_554
O11 Sm4 2.702306 1_555
O12 Sm3 2.480981 1_555
O12 Sm10 2.488154 1_555
O12 Sm6 2.774309 1_554
O14 Sm11 2.478718 1_555
O14 Sm2 2.511487 1_565
O14 Sm14 2.685324 1_554
O14 Sm7 2.746966 1_554
O15 Sm12 2.469262 1_555
O15 Sm13 2.697652 1_555
O16 Sm4 2.464940 1_545
O17 Sm5 2.481337 1_545
O17 Sm0 2.683695 1_556
O17 Sm10 2.742715 1_556
O18 Sm13 2.475832 1_555
O18 Sm12 2.692636 1_555
O19 Sm14 2.490144 1_555
O19 Sm11 2.656694 1_556
O19 Sm1 2.781809 1_556
O21 Sm7 2.485713 1_545
O21 Sm2 2.683367 1_556
O21 Sm8 2.762290 1_656
O23 Sm6 2.465602 1_555
O23 Sm15 2.484783 1_555
O23 Sm3 2.722860 1_556
O23 Sm9 2.732148 1_656
O24 Sm10 2.475307 1_555
O24 Sm1 2.478454 1_555
O26 Sm0 2.494097 1_565
O26 Sm11 2.501646 1_555
O26 Sm5 2.724271 1_554
O26 Sm14 2.731817 1_554
O27 Sm12 2.511248 1_555
O27 Sm13 2.659710 1_555
O27 Sm4 2.740535 1_555
O28 Sm3 2.469585 1_555
O28 Sm8 2.517065 1_655
O28 Sm6 2.742803 1_554
O30 Sm2 2.487157 1_565
O30 Sm9 2.493210 1_655
O30 Sm15 2.683451 1_554
O30 Sm7 2.741569 1_554
O32 Sm8 2.298516 1_555
O32 Sm0 2.422741 1_555
O34 Sm9 2.280101 1_555
O34 Sm1 2.408146 1_555
O34 Sm3 3.144439 1_455
O36 Sm10 2.296380 1_555
O36 Sm2 2.423637 1_555
O36 Sm0 3.144497 1_555
O38 Sm11 2.283203 1_555
O38 Sm3 2.430513 1_555
O39 Sm12 2.298737 1_555
O41 Sm6 2.459362 1_555
O42 Sm13 2.301012 1_555
O42 Sm4 2.962703 1_555
O43 Sm14 2.294716 1_555
O43 Sm7 2.405076 1_555
O43 Sm5 3.149437 1_555
O45 Sm6 3.008286 1_555
O46 Sm4 2.484629 1_655
O47 Sm15 2.306869 1_555
O47 Sm5 2.430385 1_655
O47 Sm7 3.121901 1_555
O48 Sm0 2.292400 1_555
O48 Sm10 2.418420 1_555
O48 Sm8 3.151866 1_555
O50 Sm1 2.285485 1_555
O50 Sm11 2.435158 1_555
O50 Sm9 3.162243 1_555
O51 Sm12 2.474844 1_555
O52 Sm2 2.298912 1_555
O52 Sm8 2.412472 1_655
O52 Sm10 3.148341 1_555
O54 Sm3 2.277696 1_555
O54 Sm9 2.385867 1_655
O54 Sm11 3.160185 1_555
O55 Sm12 2.978534 1_555
O58 Sm4 2.307348 1_555
O58 Sm13 2.480039 1_555
O59 Sm5 2.290046 1_555
O59 Sm14 2.435448 1_555
O59 Sm15 3.179101 1_455
O61 Sm6 2.307812 1_555
O62 Sm13 2.997600 1_555
O63 Sm7 2.263654 1_555
O63 Sm15 2.394037 1_555
O63 Sm14 3.143366 1_555
O64 Sm0 2.308974 1_555
O66 Sm1 2.310988 1_555
O66 Sm13 2.353391 1_555
O67 Sm14 2.305714 1_555
O68 Sm2 2.299882 1_555
O70 Sm3 2.303279 1_555
O71 Sm15 2.319423 1_555
O72 Sm8 2.285619 1_555
O74 Sm4 2.329517 1_555
O74 Sm9 2.334438 1_555
O75 Sm5 2.308146 1_555
O76 Sm10 2.288734 1_555
O77 Sm6 2.297646 1_555
O78 Sm11 2.305291 1_555
O79 Sm7 2.337274 1_555
O79 Sm12 2.367574 1_555
