# generated using pymatgen
data_UAlAu
_symmetry_space_group_name_H-M   'P 1'
_cell_length_a   5.67561050
_cell_length_b   5.67561050
_cell_length_c   5.67561050
_cell_angle_alpha   129.32117912
_cell_angle_beta   120.28409887
_cell_angle_gamma   82.07047970
_symmetry_Int_Tables_number   1
_chemical_formula_structural   UAlAu
_chemical_formula_sum   'U2 Al2 Au2'
_cell_volume   117.53523552
_cell_formula_units_Z   2
loop_
 _symmetry_equiv_pos_site_id
 _symmetry_equiv_pos_as_xyz
  1  'x, y, z'
loop_
 _atom_site_type_symbol
 _atom_site_label
 _atom_site_symmetry_multiplicity
 _atom_site_fract_x
 _atom_site_fract_y
 _atom_site_fract_z
 _atom_site_occupancy
  U  U0  1  0.24533507  0.50000000  0.74533507  1
  U  U1  1  0.75466493  0.50000000  0.25466493  1
  Al  Al0  1  0.33485761  0.83485761  0.50000000  1
  Al  Al1  1  0.66514239  0.16514239  0.50000000  1
  Au  Au0  1  0.17444128  0.17444128  -0.00000000  1
  Au  Au1  1  0.82555872  0.82555872  0.00000000  1
loop_
_geom_bond_atom_site_label_1
_geom_bond_atom_site_label_2
_geom_bond_distance
_geom_bond_site_symmetry_2
U0 U1 2.772885 1_455
U0 U1 2.878336 1_556
Al0 Au0 2.790493 1_555
Al0 Au0 2.790493 1_566
Al0 Au1 2.826732 1_455
Al0 Au1 2.826732 1_556
Al0 Al1 2.827995 1_565
Al0 U0 3.157666 1_554
Al0 U1 3.157666 1_555
Al0 U0 3.157666 1_565
Al0 U1 3.157666 1_566
Al0 U0 3.184771 1_555
Al0 U1 3.184771 1_455
Al1 Au1 2.790493 1_545
Al1 Au1 2.790493 1_556
Al1 Au0 2.826732 1_656
Al1 Au0 2.826732 1_555
Al1 U0 3.157666 1_544
Al1 U0 3.157666 1_555
Al1 U1 3.157666 1_545
Al1 U1 3.157666 1_556
Al1 U1 3.184771 1_555
Al1 U0 3.184771 1_655
Au0 Au1 2.987235 1_445
Au0 U1 3.137120 1_555
Au0 U0 3.137120 1_554
Au0 U0 3.170706 1_544
Au0 U0 3.170706 1_555
Au0 U1 3.170706 1_455
Au0 U1 3.170706 1_444
Au1 U0 3.137120 1_554
Au1 U1 3.137120 1_555
Au1 U0 3.170706 1_665
Au1 U1 3.170706 1_565
Au1 U1 3.170706 1_554
Au1 U0 3.170706 1_654
