# generated using pymatgen
data_Co(HO)2
_symmetry_space_group_name_H-M   'P 1'
_cell_length_a   5.57369383
_cell_length_b   6.39999867
_cell_length_c   6.47702074
_cell_angle_alpha   111.98212035
_cell_angle_beta   121.05766696
_cell_angle_gamma   91.25934106
_symmetry_Int_Tables_number   1
_chemical_formula_structural   Co(HO)2
_chemical_formula_sum   'Co4 H8 O8'
_cell_volume   176.68017215
_cell_formula_units_Z   4
loop_
 _symmetry_equiv_pos_site_id
 _symmetry_equiv_pos_as_xyz
  1  'x, y, z'
loop_
 _atom_site_type_symbol
 _atom_site_label
 _atom_site_symmetry_multiplicity
 _atom_site_fract_x
 _atom_site_fract_y
 _atom_site_fract_z
 _atom_site_occupancy
  Co  Co0  1  0.03291600  0.97683400  0.97630500  1
  Co  Co1  1  0.53417700  0.72894500  0.97634000  1
  Co  Co2  1  0.03265100  0.47660100  0.97597000  1
  Co  Co3  1  0.53443900  0.22914500  0.97640800  1
  H  H0  1  0.95453000  0.55458000  0.57064400  1
  H  H1  1  0.45583900  0.30646700  0.57009300  1
  H  H2  1  0.95467000  0.05441100  0.57072000  1
  H  H3  1  0.45588100  0.80654000  0.57009100  1
  H  H4  1  0.61663900  0.64757400  0.38179800  1
  H  H5  1  0.11565600  0.39763200  0.38228800  1
  H  H6  1  0.61690500  0.14767700  0.38199300  1
  H  H7  1  0.11597600  0.89756800  0.38244700  1
  O  O0  1  0.07516400  0.64103600  0.76652300  1
  O  O1  1  0.57497000  0.39274500  0.76598300  1
  O  O2  1  0.07523000  0.14109200  0.76657100  1
  O  O3  1  0.57491600  0.89277700  0.76598700  1
  O  O4  1  0.49245000  0.56374900  0.18581000  1
  O  O5  1  0.99284300  0.31269100  0.18633700  1
  O  O6  1  0.49281500  0.06398400  0.18597800  1
  O  O7  1  0.99262900  0.81250300  0.18650300  1
loop_
_geom_bond_atom_site_label_1
_geom_bond_atom_site_label_2
_geom_bond_distance
_geom_bond_site_symmetry_2
Co0 O7 2.094540 1_456
Co0 O2 2.096407 1_565
Co0 O3 2.112962 1_455
Co0 O6 2.122342 1_566
Co0 O5 2.160168 1_466
Co0 O0 2.164859 1_555
Co1 O3 2.094155 1_555
Co1 O4 2.097916 1_556
Co1 O7 2.115273 1_556
Co1 O0 2.117952 1_555
Co1 O6 2.158634 1_566
Co1 O1 2.164303 1_555
Co2 O5 2.092365 1_456
Co2 O0 2.096069 1_555
Co2 O1 2.111591 1_455
Co2 O4 2.121768 1_556
Co2 O7 2.161269 1_456
Co2 O2 2.163518 1_555
Co3 O1 2.092968 1_555
Co3 O6 2.098078 1_556
Co3 O5 2.115155 1_556
Co3 O2 2.118892 1_555
Co3 O4 2.157627 1_556
Co3 O3 2.164456 1_545
H0 O0 0.972526 1_655
H1 O1 0.972491 1_555
H2 O2 0.972485 1_655
H3 O3 0.972505 1_555
H4 O4 0.972411 1_555
H5 O5 0.972431 1_455
H6 O6 0.972485 1_555
H7 O7 0.972500 1_455
