# generated using pymatgen
data_Na2U2O7
_symmetry_space_group_name_H-M   'P 1'
_cell_length_a   7.48687964
_cell_length_b   7.48687964
_cell_length_c   6.88284423
_cell_angle_alpha   71.76208861
_cell_angle_beta   71.76208861
_cell_angle_gamma   62.66758642
_symmetry_Int_Tables_number   1
_chemical_formula_structural   Na2U2O7
_chemical_formula_sum   'Na4 U4 O14'
_cell_volume   318.89928805
_cell_formula_units_Z   2
loop_
 _symmetry_equiv_pos_site_id
 _symmetry_equiv_pos_as_xyz
  1  'x, y, z'
loop_
 _atom_site_type_symbol
 _atom_site_label
 _atom_site_symmetry_multiplicity
 _atom_site_fract_x
 _atom_site_fract_y
 _atom_site_fract_z
 _atom_site_occupancy
  Na  Na0  1  -0.00000000  -0.00000000  0.00000000  1
  Na  Na1  1  0.50000000  0.50000000  0.00000000  1
  Na  Na2  1  0.74752016  0.25247984  0.50000000  1
  Na  Na3  1  0.25247984  0.74752016  0.50000000  1
  U  U0  1  -0.00000000  0.50000000  0.00000000  1
  U  U1  1  0.50000000  -0.00000000  0.00000000  1
  U  U2  1  0.24091779  0.24091779  0.54213121  1
  U  U3  1  0.75908221  0.75908221  0.45786879  1
  O  O0  1  0.21245921  0.21245921  0.89711835  1
  O  O1  1  0.78754079  0.78754079  0.10288165  1
  O  O2  1  0.96192652  0.55326297  0.68056987  1
  O  O3  1  0.55326297  0.96192652  0.68056987  1
  O  O4  1  0.03807348  0.44673703  0.31943013  1
  O  O5  1  0.44673703  0.03807348  0.31943013  1
  O  O6  1  0.19397421  0.61715871  0.89103149  1
  O  O7  1  0.61715871  0.19397421  0.89103149  1
  O  O8  1  0.80602579  0.38284129  0.10896851  1
  O  O9  1  0.38284129  0.80602579  0.10896851  1
  O  O10  1  0.91549682  0.91549682  0.36724450  1
  O  O11  1  0.08450318  0.08450318  0.63275550  1
  O  O12  1  0.39595507  0.39595507  0.44609844  1
  O  O13  1  0.60404493  0.60404493  0.55390156  1
loop_
_geom_bond_atom_site_label_1
_geom_bond_atom_site_label_2
_geom_bond_distance
_geom_bond_site_symmetry_2
Na0 O11 2.356981 1_554
Na0 O10 2.356981 1_445
Na0 O1 2.544649 1_445
Na0 O0 2.544649 1_554
Na0 O7 2.780013 1_454
Na0 O6 2.780013 1_544
Na0 O9 2.780013 1_545
Na0 O8 2.780013 1_455
Na1 O6 2.323727 1_554
Na1 O7 2.323727 1_554
Na1 O8 2.323727 1_555
Na1 O9 2.323727 1_555
Na1 O13 2.864294 1_554
Na1 O12 2.864294 1_555
Na2 O12 2.446420 1_555
Na2 O13 2.446420 1_555
Na2 O8 2.529547 1_555
Na2 O7 2.529547 1_555
Na2 O10 2.567447 1_545
Na2 O11 2.567447 1_655
Na2 O3 2.910947 1_545
Na2 O4 2.910947 1_655
Na3 O12 2.446420 1_555
Na3 O13 2.446420 1_555
Na3 O9 2.529547 1_555
Na3 O6 2.529547 1_555
Na3 O11 2.567447 1_565
Na3 O10 2.567447 1_455
Na3 O2 2.910947 1_455
Na3 O5 2.910947 1_565
O0 U0 2.184185 1_556
O0 U1 2.184185 1_556
O0 U2 2.334652 1_555
O1 U0 2.184185 1_655
O1 U1 2.184185 1_565
O1 U3 2.334652 1_555
O2 U0 2.193896 1_656
O2 U3 2.204546 1_555
O2 U2 2.530385 1_655
O3 U1 2.193896 1_566
O3 U3 2.204546 1_555
O3 U2 2.530385 1_565
O4 U0 2.193896 1_555
O4 U2 2.204546 1_555
O4 U3 2.530385 1_455
O5 U1 2.193896 1_555
O5 U2 2.204546 1_555
O5 U3 2.530385 1_545
O6 U0 1.875424 1_556
O7 U1 1.875424 1_556
O8 U0 1.875424 1_655
O9 U1 1.875424 1_565
O10 U3 1.864602 1_555
O11 U2 1.864602 1_555
O12 U2 1.846173 1_555
O13 U3 1.846173 1_555
