# generated using pymatgen
data_Yb3(P3Pd10)2
_symmetry_space_group_name_H-M   'P 1'
_cell_length_a   8.66566714
_cell_length_b   8.66566714
_cell_length_c   8.66566714
_cell_angle_alpha   60.00000000
_cell_angle_beta   60.00000000
_cell_angle_gamma   60.00000000
_symmetry_Int_Tables_number   1
_chemical_formula_structural   Yb3(P3Pd10)2
_chemical_formula_sum   'Yb3 P6 Pd20'
_cell_volume   460.14108488
_cell_formula_units_Z   1
loop_
 _symmetry_equiv_pos_site_id
 _symmetry_equiv_pos_as_xyz
  1  'x, y, z'
loop_
 _atom_site_type_symbol
 _atom_site_label
 _atom_site_symmetry_multiplicity
 _atom_site_fract_x
 _atom_site_fract_y
 _atom_site_fract_z
 _atom_site_occupancy
  Yb  Yb0  1  0.25000000  0.25000000  0.25000000  1
  Yb  Yb1  1  0.75000000  0.75000000  0.75000000  1
  Yb  Yb2  1  0.00000000  0.00000000  0.00000000  1
  P  P0  1  0.73639800  0.26360200  0.26360200  1
  P  P1  1  0.26360200  0.73639800  0.73639800  1
  P  P2  1  0.26360200  0.73639800  0.26360200  1
  P  P3  1  0.73639800  0.26360200  0.73639800  1
  P  P4  1  0.26360200  0.26360200  0.73639800  1
  P  P5  1  0.73639800  0.73639800  0.26360200  1
  Pd  Pd0  1  0.38450600  0.38450600  0.38450600  1
  Pd  Pd1  1  0.61549400  0.61549400  0.61549400  1
  Pd  Pd2  1  0.38450600  0.38450600  0.84648300  1
  Pd  Pd3  1  0.38450600  0.84648300  0.38450600  1
  Pd  Pd4  1  0.61549400  0.61549400  0.15351700  1
  Pd  Pd5  1  0.61549400  0.15351700  0.61549400  1
  Pd  Pd6  1  0.84648300  0.38450600  0.38450600  1
  Pd  Pd7  1  0.15351700  0.61549400  0.61549400  1
  Pd  Pd8  1  0.34509100  0.00000000  0.00000000  1
  Pd  Pd9  1  0.65490900  0.00000000  0.00000000  1
  Pd  Pd10  1  0.00000000  0.34509100  0.65490900  1
  Pd  Pd11  1  0.00000000  0.65490900  0.34509100  1
  Pd  Pd12  1  0.00000000  0.34509100  0.00000000  1
  Pd  Pd13  1  0.65490900  0.00000000  0.34509100  1
  Pd  Pd14  1  0.00000000  0.65490900  0.00000000  1
  Pd  Pd15  1  0.34509100  0.00000000  0.65490900  1
  Pd  Pd16  1  0.00000000  0.00000000  0.34509100  1
  Pd  Pd17  1  0.00000000  0.00000000  0.65490900  1
  Pd  Pd18  1  0.65490900  0.34509100  0.00000000  1
  Pd  Pd19  1  0.34509100  0.65490900  0.00000000  1
loop_
_geom_bond_atom_site_label_1
_geom_bond_atom_site_label_2
_geom_bond_distance
_geom_bond_site_symmetry_2
P0 Pd12 2.390946 1_655
P0 Pd18 2.390946 1_555
P0 Pd16 2.390946 1_655
P0 Pd13 2.390946 1_555
P0 Pd5 2.490396 1_555
P0 Pd4 2.490396 1_555
P0 Pd0 2.490396 1_555
P0 Pd6 2.490403 1_555
P0 Yb2 3.230470 1_655
P1 Pd19 2.390946 1_556
P1 Pd15 2.390946 1_565
P1 Pd14 2.390946 1_556
P1 Pd17 2.390946 1_565
P1 Pd2 2.490396 1_555
P1 Pd3 2.490396 1_555
P1 Pd1 2.490396 1_555
P1 Pd7 2.490403 1_555
P1 Yb2 3.230470 1_566
P2 Pd11 2.390946 1_555
P2 Pd16 2.390946 1_565
P2 Pd8 2.390946 1_565
P2 Pd19 2.390946 1_555
P2 Pd7 2.490396 1_555
P2 Pd4 2.490396 1_555
P2 Pd0 2.490396 1_555
P2 Pd3 2.490403 1_555
P2 Yb2 3.230470 1_565
P3 Pd10 2.390946 1_655
P3 Pd18 2.390946 1_556
P3 Pd17 2.390946 1_655
P3 Pd9 2.390946 1_556
P3 Pd2 2.490396 1_555
P3 Pd6 2.490396 1_555
P3 Pd1 2.490396 1_555
P3 Pd5 2.490403 1_555
P3 Yb2 3.230470 1_656
P4 Pd8 2.390946 1_556
P4 Pd15 2.390946 1_555
P4 Pd12 2.390946 1_556
P4 Pd10 2.390946 1_555
P4 Pd7 2.490396 1_555
P4 Pd5 2.490396 1_555
P4 Pd0 2.490396 1_555
P4 Pd2 2.490403 1_555
P4 Yb2 3.230470 1_556
P5 Pd11 2.390946 1_655
P5 Pd13 2.390946 1_565
P5 Pd9 2.390946 1_565
P5 Pd14 2.390946 1_655
P5 Pd6 2.490396 1_555
P5 Pd3 2.490396 1_555
P5 Pd1 2.490396 1_555
P5 Pd4 2.490403 1_555
P5 Yb2 3.230470 1_665
Pd0 Yb0 2.855087 1_555
Pd0 Pd15 3.039686 1_555
Pd0 Pd13 3.039686 1_555
Pd0 Pd10 3.039686 1_555
Pd0 Pd19 3.039686 1_555
Pd0 Pd18 3.039686 1_555
Pd0 Pd11 3.039686 1_555
Pd1 Yb1 2.855087 1_555
Pd1 Pd10 3.039686 1_655
Pd1 Pd18 3.039686 1_556
Pd1 Pd19 3.039686 1_556
Pd1 Pd13 3.039686 1_565
Pd1 Pd15 3.039686 1_565
Pd1 Pd11 3.039686 1_655
Pd2 Yb0 2.855080 1_556
Pd2 Pd9 3.039683 1_556
Pd2 Pd8 3.039687 1_556
Pd3 Yb0 2.855080 1_565
Pd3 Pd9 3.039683 1_565
Pd3 Pd8 3.039687 1_565
Pd4 Yb1 2.855080 1_554
Pd4 Pd8 3.039683 1_565
Pd4 Pd9 3.039687 1_565
Pd5 Yb1 2.855080 1_545
Pd5 Pd8 3.039683 1_556
Pd5 Pd9 3.039687 1_556
Pd6 Yb0 2.855080 1_655
Pd7 Yb1 2.855080 1_455
Pd8 Pd9 2.684780 1_555
Pd8 Yb2 2.990444 1_555
Pd8 Yb1 3.344956 1_544
Pd8 Yb0 3.344956 1_555
Pd9 Yb2 2.990444 1_655
Pd9 Yb1 3.344956 1_544
Pd9 Yb0 3.344956 1_555
Pd10 Pd11 2.684780 1_555
Pd10 Pd17 2.990444 1_555
Pd10 Pd15 2.990444 1_555
Pd10 Pd18 2.990444 1_456
Pd10 Yb2 2.990444 1_556
Pd10 Pd12 2.990444 1_556
Pd10 Pd6 3.039679 1_455
Pd10 Pd7 3.039679 1_555
Pd10 Yb0 3.344956 1_555
Pd10 Yb1 3.344956 1_455
Pd11 Pd19 2.990444 1_555
Pd11 Pd14 2.990444 1_555
Pd11 Pd13 2.990444 1_465
Pd11 Pd16 2.990444 1_565
Pd11 Yb2 2.990444 1_565
Pd11 Pd7 3.039679 1_555
Pd11 Pd6 3.039679 1_455
Pd11 Yb0 3.344956 1_555
Pd11 Yb1 3.344956 1_455
Pd12 Pd14 2.684780 1_555
Pd12 Yb2 2.990444 1_555
Pd12 Pd8 2.990444 1_555
Pd12 Pd16 2.990444 1_555
Pd12 Pd18 2.990444 1_455
Pd12 Pd7 3.039683 1_554
Pd12 Pd4 3.039683 1_455
Pd12 Pd6 3.039687 1_455
Pd12 Pd2 3.039687 1_554
Pd12 Yb0 3.344956 1_555
Pd12 Yb1 3.344956 1_454
Pd13 Pd15 2.684780 1_555
Pd13 Pd9 2.990444 1_555
Pd13 Pd18 2.990444 1_555
Pd13 Pd16 2.990444 1_655
Pd13 Yb2 2.990444 1_655
Pd13 Pd3 3.039679 1_545
Pd13 Pd5 3.039679 1_555
Pd13 Yb0 3.344956 1_555
Pd13 Yb1 3.344956 1_545
Pd14 Pd19 2.990444 1_555
Pd14 Pd9 2.990444 1_465
Pd14 Pd17 2.990444 1_564
Pd14 Yb2 2.990444 1_565
Pd14 Pd6 3.039683 1_455
Pd14 Pd2 3.039683 1_554
Pd14 Pd7 3.039687 1_554
Pd14 Pd4 3.039687 1_455
Pd14 Yb1 3.344956 1_454
Pd14 Yb0 3.344956 1_555
Pd15 Pd17 2.990444 1_555
Pd15 Pd19 2.990444 1_546
Pd15 Pd8 2.990444 1_556
Pd15 Yb2 2.990444 1_556
Pd15 Pd3 3.039679 1_545
Pd15 Pd5 3.039679 1_555
Pd15 Yb0 3.344956 1_555
Pd15 Yb1 3.344956 1_545
Pd16 Pd17 2.684780 1_555
Pd16 Yb2 2.990444 1_555
Pd16 Pd8 2.990444 1_555
Pd16 Pd5 3.039683 1_455
Pd16 Pd7 3.039683 1_545
Pd16 Pd3 3.039687 1_545
Pd16 Pd6 3.039687 1_455
Pd16 Yb1 3.344956 1_445
Pd16 Yb0 3.344956 1_555
Pd17 Yb2 2.990444 1_556
Pd17 Pd9 2.990444 1_456
Pd17 Pd3 3.039683 1_545
Pd17 Pd6 3.039683 1_455
Pd17 Pd7 3.039687 1_545
Pd17 Pd5 3.039687 1_455
Pd17 Yb1 3.344956 1_445
Pd17 Yb0 3.344956 1_555
Pd18 Pd19 2.684780 1_555
Pd18 Pd9 2.990444 1_555
Pd18 Yb2 2.990444 1_655
Pd18 Pd2 3.039679 1_554
Pd18 Pd4 3.039679 1_555
Pd18 Yb0 3.344956 1_555
Pd18 Yb1 3.344956 1_554
Pd19 Pd8 2.990444 1_565
Pd19 Yb2 2.990444 1_565
Pd19 Pd2 3.039679 1_554
Pd19 Pd4 3.039679 1_555
Pd19 Yb0 3.344956 1_555
Pd19 Yb1 3.344956 1_554
