# generated using pymatgen
data_Na6S2O9
_symmetry_space_group_name_H-M   'P 1'
_cell_length_a   6.76504248
_cell_length_b   6.76504192
_cell_length_c   6.76504241
_cell_angle_alpha   60.00000711
_cell_angle_beta   60.00000991
_cell_angle_gamma   60.00000106
_symmetry_Int_Tables_number   1
_chemical_formula_structural   Na6S2O9
_chemical_formula_sum   'Na6 S2 O9'
_cell_volume   218.92562850
_cell_formula_units_Z   1
loop_
 _symmetry_equiv_pos_site_id
 _symmetry_equiv_pos_as_xyz
  1  'x, y, z'
loop_
 _atom_site_type_symbol
 _atom_site_label
 _atom_site_symmetry_multiplicity
 _atom_site_fract_x
 _atom_site_fract_y
 _atom_site_fract_z
 _atom_site_occupancy
  Na  Na0  1  0.23783247  0.23783247  0.76216753  1
  Na  Na1  1  0.76216753  0.23783247  0.76216753  1
  Na  Na2  1  0.23783247  0.76216753  0.23783247  1
  Na  Na3  1  0.76216753  0.23783247  0.23783247  1
  Na  Na4  1  0.23783247  0.76216753  0.76216753  1
  Na  Na5  1  0.76216753  0.76216753  0.23783247  1
  S  S0  1  0.75000000  0.75000000  0.75000000  1
  S  S1  1  0.25000000  0.25000000  0.25000000  1
  O  O0  1  0.00000000  -0.00000000  -0.00000000  1
  O  O1  1  0.66079740  0.66079740  0.01760580  1
  O  O2  1  0.33920260  0.33920260  0.33920260  1
  O  O3  1  0.33920260  0.98239420  0.33920260  1
  O  O4  1  0.98239420  0.33920260  0.33920260  1
  O  O5  1  0.01760580  0.66079740  0.66079740  1
  O  O6  1  0.66079740  0.66079740  0.66079740  1
  O  O7  1  0.66079740  0.01760580  0.66079740  1
  O  O8  1  0.33920260  0.33920260  0.98239420  1
loop_
_geom_bond_atom_site_label_1
_geom_bond_atom_site_label_2
_geom_bond_distance
_geom_bond_site_symmetry_2
Na0 O0 2.275395 1_556
Na0 O2 2.381978 1_555
Na0 O5 2.381979 1_555
Na0 O7 2.381980 1_555
Na0 O8 2.381990 1_555
Na1 O0 2.275394 1_656
Na1 O6 2.381977 1_555
Na1 O8 2.381980 1_555
Na1 O4 2.381980 1_555
Na1 O7 2.381989 1_555
Na2 O0 2.275394 1_565
Na2 O2 2.381977 1_555
Na2 O1 2.381980 1_555
Na2 O5 2.381980 1_555
Na2 O3 2.381989 1_555
Na3 O0 2.275394 1_655
Na3 O2 2.381977 1_555
Na3 O1 2.381980 1_555
Na3 O7 2.381980 1_555
Na3 O4 2.381990 1_555
Na4 O0 2.275394 1_566
Na4 O6 2.381977 1_555
Na4 O8 2.381980 1_555
Na4 O3 2.381980 1_555
Na4 O5 2.381990 1_555
Na5 O0 2.275395 1_665
Na5 O6 2.381978 1_555
Na5 O4 2.381979 1_555
Na5 O3 2.381980 1_555
Na5 O1 2.381990 1_555
O1 S0 1.478157 1_554
O2 S1 1.478167 1_555
O3 S1 1.478156 1_565
O4 S1 1.478157 1_655
O5 S0 1.478157 1_455
O6 S0 1.478167 1_555
O7 S0 1.478156 1_545
O8 S1 1.478157 1_556
