# generated using pymatgen
data_Gd2InSbO7
_symmetry_space_group_name_H-M   'P 1'
_cell_length_a   7.42983620
_cell_length_b   7.42983620
_cell_length_c   7.42983620
_cell_angle_alpha   120.71693276
_cell_angle_beta   119.19441031
_cell_angle_gamma   90.08184672
_symmetry_Int_Tables_number   1
_chemical_formula_structural   Gd2InSbO7
_chemical_formula_sum   'Gd4 In2 Sb2 O14'
_cell_volume   290.14657720
_cell_formula_units_Z   2
loop_
 _symmetry_equiv_pos_site_id
 _symmetry_equiv_pos_as_xyz
  1  'x, y, z'
loop_
 _atom_site_type_symbol
 _atom_site_label
 _atom_site_symmetry_multiplicity
 _atom_site_fract_x
 _atom_site_fract_y
 _atom_site_fract_z
 _atom_site_occupancy
  Gd  Gd0  1  0.50000000  0.00000000  0.00000000  1
  Gd  Gd1  1  0.50000000  0.50000000  0.50000000  1
  Gd  Gd2  1  0.50000000  0.00000000  0.50000000  1
  Gd  Gd3  1  -0.00000000  0.00000000  0.00000000  1
  In  In0  1  -0.00000000  0.50000000  0.00000000  1
  In  In1  1  -0.00000000  0.00000000  0.50000000  1
  Sb  Sb0  1  -0.00000000  0.50000000  0.50000000  1
  Sb  Sb1  1  0.50000000  0.50000000  0.00000000  1
  O  O0  1  0.89629829  0.14629829  0.75000000  1
  O  O1  1  0.31534959  0.56534959  0.75000000  1
  O  O2  1  0.90015622  0.57448443  0.72407812  1
  O  O3  1  0.35040630  0.17607810  0.77592188  1
  O  O4  1  0.90015622  0.17607810  0.32567180  1
  O  O5  1  0.35040630  0.57448443  0.17432820  1
  O  O6  1  0.10370171  0.85370171  0.25000000  1
  O  O7  1  0.68465041  0.43465041  0.25000000  1
  O  O8  1  0.09984378  0.42551557  0.27592188  1
  O  O9  1  0.64959370  0.82392190  0.22407812  1
  O  O10  1  0.09984378  0.82392190  0.67432820  1
  O  O11  1  0.64959370  0.42551557  0.82567180  1
  O  O12  1  0.62131722  0.87131722  0.75000000  1
  O  O13  1  0.37868278  0.12868278  0.25000000  1
loop_
_geom_bond_atom_site_label_1
_geom_bond_atom_site_label_2
_geom_bond_distance
_geom_bond_site_symmetry_2
Gd0 O13 2.235678 1_555
Gd0 O12 2.235678 1_544
Gd0 O9 2.478429 1_545
Gd0 O3 2.478429 1_554
Gd0 O4 2.478429 1_555
Gd0 O10 2.478429 1_544
Gd0 O7 2.671070 1_555
Gd0 O1 2.671070 1_544
Gd1 O13 2.235678 1_555
Gd1 O12 2.235678 1_555
Gd1 O2 2.478429 1_555
Gd1 O8 2.478429 1_555
Gd1 O11 2.478429 1_555
Gd1 O5 2.478429 1_555
Gd1 O1 2.671070 1_555
Gd1 O7 2.671070 1_555
Gd2 O13 2.315195 1_555
Gd2 O12 2.315195 1_545
Gd2 O6 2.427788 1_545
Gd2 O0 2.427788 1_555
Gd2 O5 2.576171 1_545
Gd2 O11 2.576171 1_555
Gd2 O9 2.576171 1_545
Gd2 O3 2.576171 1_555
Gd3 O12 2.315195 1_444
Gd3 O13 2.315195 1_555
Gd3 O6 2.427788 1_545
Gd3 O0 2.427788 1_454
Gd3 O2 2.576171 1_444
Gd3 O8 2.576171 1_555
Gd3 O4 2.576171 1_455
Gd3 O10 2.576171 1_544
In0 O0 2.135709 1_454
In0 O6 2.135709 1_555
In0 O5 2.176207 1_555
In0 O11 2.176207 1_454
In0 O2 2.176207 1_454
In0 O8 2.176207 1_555
In1 O0 2.135709 1_455
In1 O6 2.135709 1_545
In1 O10 2.176207 1_545
In1 O4 2.176207 1_455
In1 O3 2.176207 1_555
In1 O9 2.176207 1_445
O1 Sb1 2.001333 1_556
O1 Sb0 2.001333 1_555
O2 Sb0 1.973094 1_655
O3 Sb1 1.973094 1_556
O4 Sb0 1.973094 1_655
O5 Sb1 1.973094 1_555
O7 Sb1 2.001333 1_555
O7 Sb0 2.001333 1_655
O8 Sb0 1.973094 1_555
O9 Sb1 1.973094 1_555
O10 Sb0 1.973094 1_555
O11 Sb1 1.973094 1_556
