# generated using pymatgen
data_LiAlP2
_symmetry_space_group_name_H-M   'P 1'
_cell_length_a   9.51688131
_cell_length_b   9.51688131
_cell_length_c   9.51688131
_cell_angle_alpha   88.67892914
_cell_angle_beta   109.33095996
_cell_angle_gamma   133.79106917
_symmetry_Int_Tables_number   1
_chemical_formula_structural   LiAlP2
_chemical_formula_sum   'Li8 Al8 P16'
_cell_volume   559.63819431
_cell_formula_units_Z   8
loop_
 _symmetry_equiv_pos_site_id
 _symmetry_equiv_pos_as_xyz
  1  'x, y, z'
loop_
 _atom_site_type_symbol
 _atom_site_label
 _atom_site_symmetry_multiplicity
 _atom_site_fract_x
 _atom_site_fract_y
 _atom_site_fract_z
 _atom_site_occupancy
  Li  Li0  1  0.85381800  0.79590300  0.26328300  1
  Li  Li1  1  0.53262000  0.09053500  0.23671700  1
  Li  Li2  1  0.96738000  0.70409700  0.05791500  1
  Li  Li3  1  0.64618200  0.40946500  0.44208500  1
  Li  Li4  1  0.14618200  0.20409700  0.73671700  1
  Li  Li5  1  0.46738000  0.90946500  0.76328300  1
  Li  Li6  1  0.03262000  0.29590300  0.94208500  1
  Li  Li7  1  0.35381800  0.59053500  0.55791500  1
  Al  Al0  1  0.30297800  0.04483300  0.55970700  1
  Al  Al1  1  0.48512500  0.24327100  0.94029300  1
  Al  Al2  1  0.01487500  0.45516700  0.25814600  1
  Al  Al3  1  0.19702200  0.25672900  0.24185400  1
  Al  Al4  1  0.69702200  0.95516700  0.44029300  1
  Al  Al5  1  0.51487500  0.75672900  0.05970700  1
  Al  Al6  1  0.98512500  0.54483300  0.74185400  1
  Al  Al7  1  0.80297800  0.74327100  0.75814600  1
  P  P0  1  0.50000000  0.00000000  0.50000000  1
  P  P1  1  0.50000000  0.50000000  0.00000000  1
  P  P2  1  0.00000000  0.50000000  0.50000000  1
  P  P3  1  0.00000000  0.00000000  0.00000000  1
  P  P4  1  0.15975600  0.90975600  0.75000000  1
  P  P5  1  0.34024400  0.59024400  0.25000000  1
  P  P6  1  0.84024400  0.09024400  0.25000000  1
  P  P7  1  0.65975600  0.40975600  0.75000000  1
  P  P8  1  0.09750500  0.75000000  0.34750500  1
  P  P9  1  0.40249500  0.25000000  0.15249500  1
  P  P10  1  0.90249500  0.25000000  0.65249500  1
  P  P11  1  0.59750500  0.75000000  0.84750500  1
  P  P12  1  0.25000000  0.25032700  0.50032700  1
  P  P13  1  0.75000000  0.24967300  0.99967300  1
  P  P14  1  0.75000000  0.74967300  0.49967300  1
  P  P15  1  0.25000000  0.75032700  0.00032700  1
loop_
_geom_bond_atom_site_label_1
_geom_bond_atom_site_label_2
_geom_bond_distance
_geom_bond_site_symmetry_2
Li0 P8 2.523317 1_655
Li0 P14 2.656158 1_555
Li0 P1 2.676222 1_555
Li0 P6 2.890180 1_565
Li1 P9 2.523317 1_555
Li1 P15 2.656158 1_545
Li1 P0 2.676222 1_555
Li1 P6 2.890180 1_555
Li2 P8 2.523317 1_655
Li2 P15 2.656158 1_655
Li2 P3 2.676222 1_665
Li2 P7 2.890180 1_554
Li3 P9 2.523317 1_555
Li3 P14 2.656158 1_555
Li3 P2 2.676222 1_655
Li3 P7 2.890180 1_555
Li4 P10 2.523317 1_455
Li4 P12 2.656158 1_555
Li4 P1 2.676222 1_556
Li4 P4 2.890180 1_545
Li5 P11 2.523317 1_555
Li5 P13 2.656158 1_565
Li5 P0 2.676222 1_565
Li5 P4 2.890180 1_555
Li6 P10 2.523317 1_455
Li6 P13 2.656158 1_455
Li6 P3 2.676222 1_556
Li6 P5 2.890180 1_556
Li7 P11 2.523317 1_555
Li7 P12 2.656158 1_555
Li7 P2 2.676222 1_555
Li7 P5 2.890180 1_555
Al0 P12 2.350167 1_555
Al0 P8 2.414118 1_545
Al0 P0 2.417543 1_555
Al0 P4 2.427310 1_545
Al0 P7 2.601519 1_555
Al0 Li5 2.920448 1_545
Al1 P13 2.350176 1_555
Al1 P9 2.414113 1_556
Al1 P1 2.417536 1_556
Al1 P4 2.427309 1_545
Al1 P7 2.601523 1_555
Al1 Li4 2.920440 1_555
Al2 P13 2.350175 1_454
Al2 P8 2.414122 1_555
Al2 P2 2.417539 1_555
Al2 P5 2.427305 1_555
Al2 P6 2.601514 1_455
Al2 Li7 2.920437 1_555
Al3 P12 2.350176 1_555
Al3 P9 2.414113 1_555
Al3 P3 2.417536 1_555
Al3 P5 2.427309 1_555
Al3 P6 2.601523 1_455
Al3 Li6 2.920440 1_554
Al4 P14 2.350167 1_555
Al4 P10 2.414118 1_565
Al4 P0 2.417543 1_565
Al4 P6 2.427310 1_565
Al4 P5 2.601519 1_555
Al4 Li1 2.920448 1_565
Al5 P15 2.350176 1_555
Al5 P11 2.414113 1_554
Al5 P1 2.417536 1_555
Al5 P6 2.427309 1_565
Al5 P5 2.601523 1_555
Al5 Li0 2.920440 1_555
Al6 P15 2.350175 1_656
Al6 P10 2.414122 1_555
Al6 P2 2.417539 1_655
Al6 P7 2.427305 1_555
Al6 P4 2.601514 1_655
Al6 Li3 2.920437 1_555
Al7 P14 2.350176 1_555
Al7 P11 2.414113 1_555
Al7 P3 2.417536 1_666
Al7 P7 2.427309 1_555
Al7 P4 2.601523 1_655
Al7 Li2 2.920440 1_556
