# generated using pymatgen
data_Pd(SN)4
_symmetry_space_group_name_H-M   'P 1'
_cell_length_a   9.00895151
_cell_length_b   13.34677409
_cell_length_c   15.07017468
_cell_angle_alpha   90.00000000
_cell_angle_beta   90.00000000
_cell_angle_gamma   90.69327505
_symmetry_Int_Tables_number   1
_chemical_formula_structural   Pd(SN)4
_chemical_formula_sum   'Pd8 S32 N32'
_cell_volume   1811.91179574
_cell_formula_units_Z   8
loop_
 _symmetry_equiv_pos_site_id
 _symmetry_equiv_pos_as_xyz
  1  'x, y, z'
loop_
 _atom_site_type_symbol
 _atom_site_label
 _atom_site_symmetry_multiplicity
 _atom_site_fract_x
 _atom_site_fract_y
 _atom_site_fract_z
 _atom_site_occupancy
  Pd  Pd0  1  0.36871889  0.13332866  0.12709508  1
  Pd  Pd1  1  0.63128111  0.86667134  0.87290492  1
  Pd  Pd2  1  0.13128111  0.86667134  0.62709508  1
  Pd  Pd3  1  0.86871889  0.13332866  0.37290492  1
  Pd  Pd4  1  0.30573636  0.63478865  0.37612969  1
  Pd  Pd5  1  0.69426364  0.36521135  0.62387031  1
  Pd  Pd6  1  0.19426364  0.36521135  0.87612969  1
  Pd  Pd7  1  0.80573636  0.63478865  0.12387031  1
  S  S0  1  0.47572551  0.58130769  0.12844685  1
  S  S1  1  0.52427449  0.41869231  0.87155315  1
  S  S2  1  0.02427449  0.41869231  0.62844685  1
  S  S3  1  0.97572551  0.58130769  0.37155315  1
  S  S4  1  0.12545492  0.09645152  0.11613062  1
  S  S5  1  0.87454508  0.90354848  0.88386938  1
  S  S6  1  0.37454508  0.90354848  0.61613062  1
  S  S7  1  0.62545492  0.09645152  0.38386938  1
  S  S8  1  0.23292476  0.47302087  0.37108664  1
  S  S9  1  0.76707524  0.52697913  0.62891336  1
  S  S10  1  0.26707524  0.52697913  0.87108664  1
  S  S11  1  0.73292476  0.47302087  0.12891336  1
  S  S12  1  0.45765505  0.19972638  0.62827706  1
  S  S13  1  0.54234495  0.80027362  0.37172294  1
  S  S14  1  0.04234495  0.80027362  0.12827706  1
  S  S15  1  0.95765505  0.19972638  0.87172294  1
  S  S16  1  0.04665025  0.59613194  0.10929821  1
  S  S17  1  0.95334975  0.40386806  0.89070179  1
  S  S18  1  0.45334975  0.40386806  0.60929821  1
  S  S19  1  0.54665025  0.59613194  0.39070179  1
  S  S20  1  0.06486718  0.02844091  0.63519959  1
  S  S21  1  0.93513282  0.97155909  0.36480041  1
  S  S22  1  0.43513282  0.97155909  0.13519959  1
  S  S23  1  0.56486718  0.02844091  0.86480041  1
  S  S24  1  0.14159639  0.30062476  0.13441351  1
  S  S25  1  0.85840361  0.69937524  0.86558649  1
  S  S26  1  0.35840361  0.69937524  0.63441351  1
  S  S27  1  0.64159639  0.30062476  0.36558649  1
  S  S28  1  0.19625048  0.07883166  0.37607776  1
  S  S29  1  0.80374952  0.92116834  0.62392224  1
  S  S30  1  0.30374952  0.92116834  0.87607776  1
  S  S31  1  0.69625048  0.07883166  0.12392224  1
  N  N0  1  0.14155669  0.70106971  0.11380014  1
  N  N1  1  0.85844331  0.29893029  0.88619986  1
  N  N2  1  0.35844331  0.29893029  0.61380014  1
  N  N3  1  0.64155669  0.70106971  0.38619986  1
  N  N4  1  0.38431069  0.03000132  0.86654760  1
  N  N5  1  0.61568931  0.96999868  0.13345240  1
  N  N6  1  0.11568931  0.96999868  0.36654760  1
  N  N7  1  0.88431069  0.03000132  0.63345240  1
  N  N8  1  0.03635594  0.20222271  0.12084333  1
  N  N9  1  0.96364406  0.79777729  0.87915667  1
  N  N10  1  0.46364406  0.79777729  0.62084333  1
  N  N11  1  0.53635594  0.20222271  0.37915667  1
  N  N12  1  0.30879405  0.27761177  0.13662546  1
  N  N13  1  0.69120595  0.72238823  0.86337454  1
  N  N14  1  0.19120595  0.72238823  0.63662546  1
  N  N15  1  0.80879405  0.27761177  0.36337454  1
  N  N16  1  0.08899423  0.66913033  0.37429506  1
  N  N17  1  0.91100577  0.33086967  0.62570494  1
  N  N18  1  0.41100577  0.33086967  0.87429506  1
  N  N19  1  0.58899423  0.66913033  0.12570494  1
  N  N20  1  0.08646755  0.16692969  0.37859554  1
  N  N21  1  0.91353245  0.83307031  0.62140446  1
  N  N22  1  0.41353245  0.83307031  0.87859554  1
  N  N23  1  0.58646755  0.16692969  0.12140446  1
  N  N24  1  0.12616037  0.22121836  0.86752757  1
  N  N25  1  0.87383963  0.77878164  0.13247243  1
  N  N26  1  0.37383963  0.77878164  0.36752757  1
  N  N27  1  0.62616037  0.22121836  0.63247243  1
  N  N28  1  0.05255950  0.47190305  0.36801815  1
  N  N29  1  0.94744050  0.52809695  0.63198185  1
  N  N30  1  0.44744050  0.52809695  0.86801815  1
  N  N31  1  0.55255950  0.47190305  0.13198185  1
loop_
_geom_bond_atom_site_label_1
_geom_bond_atom_site_label_2
_geom_bond_distance
_geom_bond_site_symmetry_2
Pd0 S4 2.246410 1_555
Pd0 S22 2.250752 1_545
Pd1 S5 2.246410 1_555
Pd1 S23 2.250752 1_565
Pd2 S6 2.246410 1_555
Pd2 S20 2.250752 1_565
Pd3 S7 2.246410 1_555
Pd3 S21 2.250752 1_545
Pd4 S19 2.247683 1_555
Pd4 S8 2.250200 1_555
Pd5 S18 2.247683 1_555
Pd5 S9 2.250200 1_555
Pd6 S17 2.247683 1_455
Pd6 S10 2.250200 1_555
Pd7 S16 2.247683 1_655
Pd7 S11 2.250200 1_555
N0 S14 1.621178 1_555
N0 S16 1.633490 1_555
N1 S15 1.621178 1_555
N1 S17 1.633490 1_555
N2 S12 1.621178 1_555
N2 S18 1.633490 1_555
N3 S13 1.621178 1_555
N3 S19 1.633490 1_555
N4 S30 1.622288 1_545
N4 S23 1.627223 1_555
N5 S31 1.622288 1_565
N5 S22 1.627223 1_555
N6 S28 1.622288 1_565
N6 S21 1.627223 1_455
N7 S29 1.622288 1_545
N7 S20 1.627223 1_655
N8 S24 1.623417 1_555
N8 S4 1.633916 1_555
N9 S25 1.623417 1_555
N9 S5 1.633916 1_555
N10 S26 1.623417 1_555
N10 S6 1.633916 1_555
N11 S27 1.623417 1_555
N11 S7 1.633916 1_555
N12 S24 1.541270 1_555
N12 Pd0 2.011370 1_555
N13 S25 1.541270 1_555
N13 Pd1 2.011370 1_555
N14 S26 1.541270 1_555
N14 Pd2 2.011370 1_555
N15 S27 1.541270 1_555
N15 Pd3 2.011370 1_555
N16 S3 1.545308 1_455
N16 Pd4 2.011276 1_555
N17 S2 1.545308 1_655
N17 Pd5 2.011276 1_555
N18 S1 1.545308 1_555
N18 Pd6 2.011276 1_555
N19 S0 1.545308 1_555
N19 Pd7 2.011276 1_555
N20 S28 1.546067 1_555
N20 Pd3 2.008831 1_455
N21 S29 1.546067 1_555
N21 Pd2 2.008831 1_655
N22 S30 1.546067 1_555
N22 Pd1 2.008831 1_555
N23 S31 1.546067 1_555
N23 Pd0 2.008831 1_555
N24 S15 1.542802 1_455
N24 Pd6 2.014492 1_555
N25 S14 1.542802 1_655
N25 Pd7 2.014492 1_555
N26 S13 1.542802 1_555
N26 Pd4 2.014492 1_555
N27 S12 1.542802 1_555
N27 Pd5 2.014492 1_555
N28 S3 1.624380 1_455
N28 S8 1.625448 1_555
N29 S2 1.624380 1_655
N29 S9 1.625448 1_555
N30 S1 1.624380 1_555
N30 S10 1.625448 1_555
N31 S0 1.624380 1_555
N31 S11 1.625448 1_555
