# generated using pymatgen
data_SrCo(GeO3)2
_symmetry_space_group_name_H-M   'P 1'
_cell_length_a   7.00244472
_cell_length_b   8.01085953
_cell_length_c   9.79925122
_cell_angle_alpha   76.70368675
_cell_angle_beta   79.00365393
_cell_angle_gamma   92.89971971
_symmetry_Int_Tables_number   1
_chemical_formula_structural   SrCo(GeO3)2
_chemical_formula_sum   'Sr4 Co4 Ge8 O24'
_cell_volume   522.56416261
_cell_formula_units_Z   4
loop_
 _symmetry_equiv_pos_site_id
 _symmetry_equiv_pos_as_xyz
  1  'x, y, z'
loop_
 _atom_site_type_symbol
 _atom_site_label
 _atom_site_symmetry_multiplicity
 _atom_site_fract_x
 _atom_site_fract_y
 _atom_site_fract_z
 _atom_site_occupancy
  Sr  Sr0  1  0.19542300  0.27765800  0.52755800  1
  Sr  Sr1  1  0.19496600  0.77708100  0.02799000  1
  Sr  Sr2  1  0.80517000  0.72288400  0.47203800  1
  Sr  Sr3  1  0.80463200  0.22242800  0.97215500  1
  Co  Co0  1  0.59228200  0.57857300  0.82810500  1
  Co  Co1  1  0.40750400  0.92150300  0.67200500  1
  Co  Co2  1  0.59074000  0.07924500  0.32877700  1
  Co  Co3  1  0.40935300  0.42077100  0.17115000  1
  Ge  Ge0  1  0.12275400  0.05233800  0.26241100  1
  Ge  Ge1  1  0.12276200  0.55278800  0.76300300  1
  Ge  Ge2  1  0.87731600  0.94713600  0.73699600  1
  Ge  Ge3  1  0.87713800  0.44764300  0.23758500  1
  Ge  Ge4  1  0.68472800  0.29401400  0.58346500  1
  Ge  Ge5  1  0.68390900  0.79359400  0.08380200  1
  Ge  Ge6  1  0.31614200  0.70653000  0.41613200  1
  Ge  Ge7  1  0.31537100  0.20588500  0.91653000  1
  O  O0  1  0.87563300  0.40855300  0.42783700  1
  O  O1  1  0.87455300  0.90834900  0.92734700  1
  O  O2  1  0.12554600  0.59172100  0.57261300  1
  O  O3  1  0.12423000  0.09143900  0.07213700  1
  O  O4  1  0.16454000  0.82178600  0.30257900  1
  O  O5  1  0.16408000  0.32185500  0.80298400  1
  O  O6  1  0.83610700  0.17804000  0.69699700  1
  O  O7  1  0.83534600  0.67824400  0.19737800  1
  O  O8  1  0.31005300  0.17374300  0.30266700  1
  O  O9  1  0.30920700  0.67324400  0.80496400  1
  O  O10  1  0.69068400  0.82673000  0.69516500  1
  O  O11  1  0.68955100  0.32626300  0.19761200  1
  O  O12  1  0.52294100  0.16108900  0.52973800  1
  O  O13  1  0.52212700  0.65945300  0.03052600  1
  O  O14  1  0.47809300  0.84062600  0.46929000  1
  O  O15  1  0.47717700  0.33875200  0.97032800  1
  O  O16  1  0.88441900  0.04548900  0.35657200  1
  O  O17  1  0.88361300  0.54574400  0.85693400  1
  O  O18  1  0.11651200  0.95428700  0.64305200  1
  O  O19  1  0.11548000  0.45455400  0.14359900  1
  O  O20  1  0.59653200  0.96397900  0.15176300  1
  O  O21  1  0.59708600  0.46349300  0.65285000  1
  O  O22  1  0.40308200  0.03629800  0.84735200  1
  O  O23  1  0.40321900  0.53619900  0.34801300  1
loop_
_geom_bond_atom_site_label_1
_geom_bond_atom_site_label_2
_geom_bond_distance
_geom_bond_site_symmetry_2
Co0 O10 2.109872 1_555
Co0 O15 2.113318 1_555
Co0 O21 2.123607 1_555
Co0 O17 2.133227 1_555
Co0 O9 2.190946 1_555
Co0 O13 2.201662 1_556
Co1 O9 2.110457 1_555
Co1 O12 2.112581 1_565
Co1 O22 2.123320 1_565
Co1 O18 2.131180 1_555
Co1 O10 2.191976 1_555
Co1 O14 2.204520 1_555
Co2 O14 2.096317 1_545
Co2 O11 2.097340 1_555
Co2 O20 2.139350 1_545
Co2 O16 2.147662 1_555
Co2 O8 2.180595 1_555
Co2 O12 2.191344 1_555
Co3 O13 2.097282 1_555
Co3 O8 2.099121 1_555
Co3 O23 2.138542 1_555
Co3 O19 2.148366 1_555
Co3 O11 2.178127 1_555
Co3 O15 2.190818 1_554
Ge0 O16 1.737727 1_455
Ge0 O8 1.751125 1_555
Ge0 O3 1.816155 1_555
Ge0 O4 1.848212 1_545
Ge1 O17 1.741639 1_455
Ge1 O9 1.750592 1_555
Ge1 O2 1.815564 1_555
Ge1 O5 1.850301 1_555
Ge2 O18 1.741847 1_655
Ge2 O10 1.750722 1_555
Ge2 O1 1.815292 1_555
Ge2 O6 1.849892 1_565
Ge3 O19 1.737117 1_655
Ge3 O11 1.751179 1_555
Ge3 O0 1.815908 1_555
Ge3 O7 1.848604 1_555
Ge4 O21 1.741243 1_555
Ge4 O12 1.748688 1_555
Ge4 O6 1.816209 1_555
Ge4 O0 1.846402 1_555
Ge5 O20 1.740136 1_555
Ge5 O13 1.752479 1_555
Ge5 O7 1.814771 1_555
Ge5 O1 1.850544 1_554
Ge6 O23 1.739853 1_555
Ge6 O14 1.752391 1_555
Ge6 O4 1.815175 1_555
Ge6 O2 1.850627 1_555
Ge7 O22 1.741146 1_555
Ge7 O15 1.748871 1_555
Ge7 O5 1.815832 1_555
Ge7 O3 1.846978 1_556
O0 Sr2 2.705097 1_555
O0 Sr0 2.769475 1_655
O1 Sr3 2.704399 1_565
O1 Sr1 2.778192 1_656
O2 Sr0 2.705042 1_555
O2 Sr2 2.777395 1_455
O3 Sr1 2.705510 1_545
O3 Sr3 2.769602 1_454
O4 Sr2 2.704953 1_455
O4 Sr1 2.765164 1_555
O5 Sr3 2.704794 1_455
O5 Sr0 2.771170 1_555
O6 Sr0 2.705186 1_655
O6 Sr3 2.769027 1_555
O7 Sr1 2.706040 1_655
O7 Sr2 2.765845 1_555
O8 Sr0 2.535834 1_555
O9 Sr1 2.518888 1_556
O10 Sr2 2.520091 1_555
O11 Sr3 2.540919 1_554
O12 Sr0 2.521602 1_555
O13 Sr1 2.523144 1_555
O14 Sr2 2.523181 1_555
O15 Sr3 2.520046 1_555
O16 Sr2 2.556827 1_545
O17 Sr3 2.561389 1_555
O18 Sr0 2.562194 1_565
O19 Sr1 2.556639 1_555
O20 Sr3 2.558886 1_564
O21 Sr2 2.568187 1_555
O22 Sr1 2.566735 1_546
O23 Sr0 2.558257 1_555
