# generated using pymatgen
data_CsVP3HO10
_symmetry_space_group_name_H-M   'P 1'
_cell_length_a   8.87119702
_cell_length_b   9.21705287
_cell_length_c   12.31539665
_cell_angle_alpha   69.04856279
_cell_angle_beta   89.99398037
_cell_angle_gamma   90.00321420
_symmetry_Int_Tables_number   1
_chemical_formula_structural   CsVP3HO10
_chemical_formula_sum   'Cs4 V4 P12 H4 O40'
_cell_volume   940.40636834
_cell_formula_units_Z   4
loop_
 _symmetry_equiv_pos_site_id
 _symmetry_equiv_pos_as_xyz
  1  'x, y, z'
loop_
 _atom_site_type_symbol
 _atom_site_label
 _atom_site_symmetry_multiplicity
 _atom_site_fract_x
 _atom_site_fract_y
 _atom_site_fract_z
 _atom_site_occupancy
  Cs  Cs0  1  0.56409500  0.24991500  0.50006000  1
  Cs  Cs1  1  0.06401600  0.24992400  0.00001200  1
  Cs  Cs2  1  0.43602800  0.75006800  0.49999800  1
  Cs  Cs3  1  0.93595000  0.75006800  0.99990700  1
  V  V0  1  0.75003300  0.50000800  0.74997700  1
  V  V1  1  0.74995000  0.00004600  0.25000900  1
  V  V2  1  0.25006100  0.50007600  0.25006300  1
  V  V3  1  0.25003100  0.00018200  0.75004300  1
  P  P0  1  0.12405300  0.24985700  0.49998300  1
  P  P1  1  0.62413700  0.24996000  0.99993100  1
  P  P2  1  0.87588100  0.75004700  0.50006400  1
  P  P3  1  0.37597900  0.75002100  0.00000600  1
  P  P4  1  0.93970500  0.20011700  0.70734800  1
  P  P5  1  0.43978500  0.20008700  0.20731100  1
  P  P6  1  0.93970000  0.29976300  0.29258600  1
  P  P7  1  0.43972900  0.29998400  0.79262700  1
  P  P8  1  0.06012700  0.79989600  0.29263400  1
  P  P9  1  0.56024600  0.79997700  0.79259900  1
  P  P10  1  0.06035600  0.70012100  0.70741600  1
  P  P11  1  0.56034100  0.70021900  0.20735100  1
  H  H0  1  0.24993800  0.99980200  0.25005800  1
  H  H1  1  0.75007400  0.00003300  0.74997600  1
  H  H2  1  0.75006200  0.49997900  0.24999400  1
  H  H3  1  0.24997900  0.50008100  0.74995800  1
  O  O0  1  0.01384200  0.19661400  0.41770900  1
  O  O1  1  0.51391300  0.19673300  0.91766700  1
  O  O2  1  0.01392100  0.30324100  0.58227300  1
  O  O3  1  0.51405500  0.30327800  0.08229100  1
  O  O4  1  0.98612600  0.80323500  0.58235100  1
  O  O5  1  0.48616400  0.80335200  0.08228000  1
  O  O6  1  0.98600800  0.69673900  0.41772900  1
  O  O7  1  0.48612000  0.69670700  0.91768600  1
  O  O8  1  0.81820000  0.10213900  0.67741400  1
  O  O9  1  0.31833300  0.10202100  0.17743200  1
  O  O10  1  0.81796300  0.39753100  0.32247200  1
  O  O11  1  0.31818700  0.39789100  0.82259200  1
  O  O12  1  0.18161500  0.89799300  0.32252400  1
  O  O13  1  0.68183200  0.89783700  0.82253800  1
  O  O14  1  0.18176200  0.60203400  0.67744000  1
  O  O15  1  0.68205000  0.60241500  0.17750300  1
  O  O16  1  0.87809100  0.31595500  0.75791300  1
  O  O17  1  0.37815500  0.31584600  0.25787900  1
  O  O18  1  0.87826100  0.18387600  0.24199100  1
  O  O19  1  0.37807800  0.18422800  0.74208200  1
  O  O20  1  0.12179400  0.68413300  0.24206600  1
  O  O21  1  0.62182200  0.68415800  0.74201900  1
  O  O22  1  0.12201300  0.81591000  0.75793200  1
  O  O23  1  0.62164400  0.81599200  0.25808300  1
  O  O24  1  0.21289400  0.39148200  0.42834100  1
  O  O25  1  0.71286300  0.39166200  0.92825000  1
  O  O26  1  0.21291200  0.10841700  0.57165900  1
  O  O27  1  0.71297900  0.10845100  0.07144200  1
  O  O28  1  0.78708900  0.60835700  0.57167700  1
  O  O29  1  0.28712500  0.60845700  0.07176600  1
  O  O30  1  0.78698000  0.89150600  0.42854000  1
  O  O31  1  0.28710100  0.89149600  0.92842200  1
  O  O32  1  0.06523900  0.39717600  0.21385400  1
  O  O33  1  0.56519300  0.39726600  0.71363800  1
  O  O34  1  0.06508300  0.10277600  0.78626000  1
  O  O35  1  0.56523900  0.10278200  0.28624800  1
  O  O36  1  0.93479900  0.60275300  0.78623800  1
  O  O37  1  0.43492400  0.60276700  0.28623000  1
  O  O38  1  0.93457400  0.89724200  0.21386000  1
  O  O39  1  0.43480100  0.89732400  0.71380000  1
loop_
_geom_bond_atom_site_label_1
_geom_bond_atom_site_label_2
_geom_bond_distance
_geom_bond_site_symmetry_2
Cs0 O10 3.094675 1_555
Cs0 O8 3.095345 1_555
Cs0 O19 3.268327 1_555
Cs0 O17 3.269673 1_555
Cs0 O33 3.364204 1_555
Cs0 O35 3.365501 1_555
Cs0 O26 3.370576 1_555
Cs0 O24 3.371400 1_555
Cs0 O39 3.561911 1_545
Cs0 O37 3.563872 1_555
Cs1 O11 3.096103 1_554
Cs1 O9 3.097381 1_555
Cs1 O18 3.266239 1_455
Cs1 O16 3.268622 1_454
Cs1 O34 3.364909 1_554
Cs1 O32 3.366596 1_555
Cs1 O27 3.369056 1_455
Cs1 O25 3.371534 1_454
Cs1 O38 3.563427 1_445
Cs1 O36 3.563582 1_454
Cs2 O14 3.096981 1_555
Cs2 O12 3.098404 1_555
Cs2 O23 3.265111 1_555
Cs2 O21 3.267380 1_555
Cs2 O37 3.366057 1_555
Cs2 O39 3.366164 1_555
Cs2 O30 3.368306 1_555
Cs2 O28 3.370581 1_555
Cs2 O35 3.562460 1_565
Cs2 O33 3.562591 1_555
Cs3 O15 3.094999 1_556
Cs3 O13 3.095519 1_555
Cs3 O22 3.267843 1_655
Cs3 O20 3.269009 1_656
Cs3 O36 3.365017 1_555
Cs3 O38 3.367375 1_556
Cs3 O31 3.369952 1_655
Cs3 O29 3.371519 1_656
Cs3 O34 3.561678 1_665
Cs3 O32 3.565043 1_656
H0 O12 1.202205 1_555
H0 O9 1.205388 1_565
H1 O8 1.203286 1_555
H1 O13 1.204231 1_545
H2 O10 1.203587 1_555
H2 O15 1.204096 1_555
H3 O14 1.202860 1_555
H3 O11 1.204609 1_555
O0 P0 1.605970 1_555
O0 P6 1.632042 1_455
O1 P1 1.605871 1_555
O1 P7 1.631671 1_555
O2 P0 1.606284 1_555
O2 P4 1.631641 1_455
O3 P1 1.606329 1_554
O3 P5 1.631488 1_555
O4 P2 1.606003 1_555
O4 P10 1.631752 1_655
O5 P3 1.606260 1_555
O5 P11 1.631659 1_555
O6 P2 1.606295 1_555
O6 P8 1.631550 1_655
O7 P3 1.606263 1_556
O7 P9 1.631758 1_555
O8 P4 1.533412 1_555
O9 P5 1.533323 1_555
O10 P6 1.533305 1_555
O11 P7 1.533390 1_555
O12 P8 1.533802 1_555
O13 P9 1.533211 1_555
O14 P10 1.533723 1_555
O15 P11 1.533143 1_555
O16 P4 1.517229 1_555
O16 V0 2.014855 1_555
O17 P5 1.516686 1_555
O17 V2 2.016754 1_555
O18 P6 1.517304 1_555
O18 V1 2.014054 1_555
O19 P7 1.516546 1_555
O19 V3 2.014550 1_555
O20 P8 1.516835 1_555
O20 V2 2.015742 1_555
O21 P9 1.517081 1_555
O21 V0 2.016289 1_555
O22 P10 1.516587 1_555
O22 V3 2.016347 1_565
O23 P11 1.517095 1_555
O23 V1 2.015556 1_565
O24 P0 1.509852 1_555
O24 V2 2.087883 1_555
O25 P1 1.509918 1_555
O25 V0 2.087598 1_555
O26 P0 1.509107 1_555
O26 V3 2.088717 1_555
O27 P1 1.508885 1_554
O27 V1 2.090655 1_555
O28 P2 1.509920 1_555
O28 V0 2.087734 1_555
O29 P3 1.509945 1_555
O29 V2 2.087743 1_555
O30 P2 1.508901 1_555
O30 V1 2.090474 1_565
O31 P3 1.509094 1_556
O31 V3 2.089020 1_565
O32 P6 1.537419 1_455
O32 V2 2.022149 1_555
O33 P7 1.537844 1_555
O33 V0 2.022103 1_555
O34 P4 1.537305 1_455
O34 V3 2.021560 1_555
O35 P5 1.537805 1_555
O35 V1 2.020676 1_555
O36 P10 1.537854 1_655
O36 V0 2.021212 1_555
O37 P11 1.537529 1_555
O37 V2 2.021188 1_555
O38 P8 1.537727 1_655
O38 V1 2.019963 1_565
O39 P9 1.537166 1_555
O39 V3 2.021735 1_565
