# generated using pymatgen
data_Sr2Al2SiO7
_symmetry_space_group_name_H-M   'P 1'
_cell_length_a   7.91256700
_cell_length_b   5.32788100
_cell_length_c   7.92719814
_cell_angle_alpha   89.93474066
_cell_angle_beta   90.00000000
_cell_angle_gamma   90.00000000
_symmetry_Int_Tables_number   1
_chemical_formula_structural   Sr2Al2SiO7
_chemical_formula_sum   'Sr4 Al4 Si2 O14'
_cell_volume   334.18838266
_cell_formula_units_Z   2
loop_
 _symmetry_equiv_pos_site_id
 _symmetry_equiv_pos_as_xyz
  1  'x, y, z'
loop_
 _atom_site_type_symbol
 _atom_site_label
 _atom_site_symmetry_multiplicity
 _atom_site_fract_x
 _atom_site_fract_y
 _atom_site_fract_z
 _atom_site_occupancy
  Sr  Sr0  1  0.84005400  0.51311000  0.07834300  1
  Sr  Sr1  1  0.34005400  0.48689000  0.92165700  1
  Sr  Sr2  1  0.16470300  0.50975900  0.40215200  1
  Sr  Sr3  1  0.66470300  0.49024100  0.59784800  1
  Al  Al0  1  0.49986700  0.99994500  0.25004000  1
  Al  Al1  1  0.99986700  0.00005500  0.74996000  1
  Al  Al2  1  0.64211400  0.96622100  0.89224500  1
  Al  Al3  1  0.14211400  0.03377900  0.10775500  1
  Si  Si0  1  0.35842200  0.96001600  0.60801600  1
  Si  Si1  1  0.85842200  0.03998400  0.39198400  1
  O  O0  1  0.99266400  0.16223000  0.25452300  1
  O  O1  1  0.49266400  0.83777000  0.74547700  1
  O  O2  1  0.64115300  0.29060300  0.88725300  1
  O  O3  1  0.14115300  0.70939700  0.11274700  1
  O  O4  1  0.35810300  0.26338300  0.60441500  1
  O  O5  1  0.85810300  0.73661700  0.39558500  1
  O  O6  1  0.58272300  0.81492300  0.08503700  1
  O  O7  1  0.08272300  0.18507700  0.91496300  1
  O  O8  1  0.41375600  0.82567700  0.42608900  1
  O  O9  1  0.91375600  0.17432300  0.57391100  1
  O  O10  1  0.67388900  0.17134300  0.34154700  1
  O  O11  1  0.17388900  0.82865700  0.65845300  1
  O  O12  1  0.33255000  0.18814200  0.17328200  1
  O  O13  1  0.83255000  0.81185800  0.82671800  1
loop_
_geom_bond_atom_site_label_1
_geom_bond_atom_site_label_2
_geom_bond_distance
_geom_bond_site_symmetry_2
Al0 O6 1.765050 1_555
Al0 O12 1.768325 1_565
Al0 O10 1.804893 1_565
Al0 O8 1.808591 1_555
Al1 O7 1.765050 1_655
Al1 O13 1.768325 1_545
Al1 O11 1.804893 1_645
Al1 O9 1.808591 1_555
Al2 O2 1.728693 1_565
Al2 O6 1.789840 1_556
Al2 O13 1.793807 1_555
Al2 O1 1.795049 1_555
Al3 O3 1.728693 1_545
Al3 O7 1.789840 1_554
Al3 O12 1.793807 1_555
Al3 O0 1.795049 1_455
O0 Si1 1.654769 1_555
O0 Sr2 2.579914 1_655
O0 Sr0 2.626320 1_555
O1 Si0 1.654769 1_555
O1 Sr3 2.579914 1_555
O1 Sr1 2.626320 1_555
O2 Sr0 2.486167 1_556
O2 Sr3 2.534508 1_555
O2 Sr1 2.616268 1_555
O3 Sr1 2.486167 1_554
O3 Sr2 2.534508 1_555
O3 Sr0 2.616268 1_455
O4 Si0 1.616525 1_545
O4 Sr2 2.575053 1_555
O4 Sr3 2.710885 1_555
O4 Sr1 2.787416 1_555
O5 Si1 1.616525 1_565
O5 Sr3 2.575053 1_555
O5 Sr2 2.710885 1_655
O5 Sr0 2.787416 1_555
O6 Sr0 2.595121 1_555
O6 Sr1 2.902413 1_554
O7 Sr1 2.595121 1_555
O7 Sr0 2.902413 1_456
O8 Si0 1.669190 1_555
O8 Sr2 2.598704 1_555
O8 Sr3 2.997503 1_555
O9 Si1 1.669190 1_555
O9 Sr3 2.598704 1_555
O9 Sr2 2.997503 1_655
O10 Si1 1.667637 1_555
O10 Sr3 2.651023 1_555
O10 Sr0 3.064153 1_555
O11 Si0 1.667637 1_555
O11 Sr2 2.651023 1_555
O11 Sr1 3.064153 1_555
O12 Sr1 2.551183 1_554
O12 Sr2 2.828218 1_555
O13 Sr0 2.551183 1_556
O13 Sr3 2.828218 1_555
