# generated using pymatgen
data_AgP2H8SN7O2
_symmetry_space_group_name_H-M   'P 1'
_cell_length_a   9.20891500
_cell_length_b   10.36512000
_cell_length_c   12.00807569
_cell_angle_alpha   70.09373497
_cell_angle_beta   90.00000000
_cell_angle_gamma   90.00000000
_symmetry_Int_Tables_number   1
_chemical_formula_structural   AgP2H8SN7O2
_chemical_formula_sum   'Ag4 P8 H32 S4 N28 O8'
_cell_volume   1077.70518983
_cell_formula_units_Z   4
loop_
 _symmetry_equiv_pos_site_id
 _symmetry_equiv_pos_as_xyz
  1  'x, y, z'
loop_
 _atom_site_type_symbol
 _atom_site_label
 _atom_site_symmetry_multiplicity
 _atom_site_fract_x
 _atom_site_fract_y
 _atom_site_fract_z
 _atom_site_occupancy
  Ag  Ag0  1  0.79700900  0.30750900  0.20723900  1
  Ag  Ag1  1  0.70299100  0.30750900  0.70723900  1
  Ag  Ag2  1  0.20299100  0.69249100  0.79276100  1
  Ag  Ag3  1  0.29700900  0.69249100  0.29276100  1
  P  P0  1  0.09189500  0.27162300  0.05305400  1
  P  P1  1  0.40810500  0.27162300  0.55305400  1
  P  P2  1  0.90810500  0.72837700  0.94694600  1
  P  P3  1  0.59189500  0.72837700  0.44694600  1
  P  P4  1  0.01873800  0.30578000  0.79208700  1
  P  P5  1  0.48126200  0.30578000  0.29208700  1
  P  P6  1  0.98126200  0.69422000  0.20791300  1
  P  P7  1  0.51873800  0.69422000  0.70791300  1
  H  H0  1  0.27194300  0.38323700  0.12808900  1
  H  H1  1  0.22805700  0.38323700  0.62808900  1
  H  H2  1  0.72805700  0.61676300  0.87191100  1
  H  H3  1  0.77194300  0.61676300  0.37191100  1
  H  H4  1  0.10985000  0.46938700  0.09406200  1
  H  H5  1  0.39015000  0.46938700  0.59406200  1
  H  H6  1  0.89015000  0.53061300  0.90593800  1
  H  H7  1  0.60985000  0.53061300  0.40593800  1
  H  H8  1  0.01935200  0.51388500  0.64970800  1
  H  H9  1  0.48064800  0.51388500  0.14970800  1
  H  H10  1  0.98064800  0.48611500  0.35029200  1
  H  H11  1  0.51935200  0.48611500  0.85029200  1
  H  H12  1  0.73354300  0.69818400  0.60974100  1
  H  H13  1  0.76645700  0.69818400  0.10974100  1
  H  H14  1  0.26645700  0.30181600  0.39025900  1
  H  H15  1  0.23354300  0.30181600  0.89025900  1
  H  H16  1  0.02222700  0.14383400  0.70400300  1
  H  H17  1  0.47777300  0.14383400  0.20400300  1
  H  H18  1  0.97777300  0.85616600  0.29599700  1
  H  H19  1  0.52222700  0.85616600  0.79599700  1
  H  H20  1  0.06640600  0.07168000  0.85081800  1
  H  H21  1  0.43359400  0.07168000  0.35081800  1
  H  H22  1  0.93359400  0.92832000  0.14918200  1
  H  H23  1  0.56640600  0.92832000  0.64918200  1
  H  H24  1  0.17417300  0.05030600  0.08184600  1
  H  H25  1  0.32582700  0.05030600  0.58184600  1
  H  H26  1  0.82582700  0.94969400  0.91815400  1
  H  H27  1  0.67417300  0.94969400  0.41815400  1
  H  H28  1  0.21370900  0.10398700  0.20189900  1
  H  H29  1  0.28629100  0.10398700  0.70189900  1
  H  H30  1  0.78629100  0.89601300  0.79810100  1
  H  H31  1  0.71370900  0.89601300  0.29810100  1
  S  S0  1  0.81135400  0.22132400  0.97967100  1
  S  S1  1  0.68864600  0.22132400  0.47967100  1
  S  S2  1  0.18864600  0.77867600  0.02032900  1
  S  S3  1  0.31135400  0.77867600  0.52032900  1
  N  N0  1  0.91496000  0.28338800  0.06117400  1
  N  N1  1  0.58504000  0.28338800  0.56117400  1
  N  N2  1  0.08504000  0.71661200  0.93882600  1
  N  N3  1  0.41496000  0.71661200  0.43882600  1
  N  N4  1  0.85172400  0.31183000  0.84370900  1
  N  N5  1  0.64827600  0.31183000  0.34370900  1
  N  N6  1  0.14827600  0.68817000  0.15629100  1
  N  N7  1  0.35172400  0.68817000  0.65629100  1
  N  N8  1  0.12565000  0.30598400  0.90881600  1
  N  N9  1  0.37435000  0.30598400  0.40881600  1
  N  N10  1  0.87435000  0.69401600  0.09118400  1
  N  N11  1  0.62565000  0.69401600  0.59118400  1
  N  N12  1  0.15829300  0.37564900  0.11418200  1
  N  N13  1  0.34170700  0.37564900  0.61418200  1
  N  N14  1  0.84170700  0.62435100  0.88581800  1
  N  N15  1  0.65829300  0.62435100  0.38581800  1
  N  N16  1  0.05298900  0.41512400  0.66862800  1
  N  N17  1  0.44701100  0.41512400  0.16862800  1
  N  N18  1  0.94701100  0.58487600  0.33137200  1
  N  N19  1  0.55298900  0.58487600  0.83137200  1
  N  N20  1  0.06653700  0.15803500  0.77674700  1
  N  N21  1  0.43346300  0.15803500  0.27674700  1
  N  N22  1  0.93346300  0.84196500  0.22325300  1
  N  N23  1  0.56653700  0.84196500  0.72325300  1
  N  N24  1  0.17498400  0.12668500  0.11808700  1
  N  N25  1  0.32501600  0.12668500  0.61808700  1
  N  N26  1  0.82501600  0.87331500  0.88191300  1
  N  N27  1  0.67498400  0.87331500  0.38191300  1
  O  O0  1  0.84893400  0.07586700  0.00523100  1
  O  O1  1  0.65106600  0.07586700  0.50523100  1
  O  O2  1  0.15106600  0.92413300  0.99476900  1
  O  O3  1  0.34893400  0.92413300  0.49476900  1
  O  O4  1  0.66214200  0.24809100  0.00233500  1
  O  O5  1  0.83785800  0.24809100  0.50233500  1
  O  O6  1  0.33785800  0.75190900  0.99766500  1
  O  O7  1  0.16214200  0.75190900  0.49766500  1
loop_
_geom_bond_atom_site_label_1
_geom_bond_atom_site_label_2
_geom_bond_distance
_geom_bond_site_symmetry_2
Ag0 N5 2.147896 1_555
Ag0 N0 2.148798 1_555
Ag1 N4 2.147896 1_555
Ag1 N1 2.148798 1_555
Ag2 N7 2.147896 1_555
Ag2 N2 2.148798 1_555
Ag3 N6 2.147896 1_555
Ag3 N3 2.148798 1_555
H0 N12 1.066947 1_555
H1 N13 1.066947 1_555
H2 N14 1.066947 1_555
H3 N15 1.066947 1_555
H4 N12 1.020564 1_555
H5 N13 1.020564 1_555
H6 N14 1.020564 1_555
H7 N15 1.020564 1_555
H8 N16 1.018379 1_555
H9 N17 1.018379 1_555
H10 N18 1.018379 1_555
H11 N19 1.018379 1_555
H12 N11 1.022386 1_555
H13 N10 1.022386 1_555
H14 N9 1.022386 1_555
H15 N8 1.022386 1_555
H16 N20 1.019193 1_555
H17 N21 1.019193 1_555
H18 N22 1.019193 1_555
H19 N23 1.019193 1_555
H20 N20 1.024771 1_555
H21 N21 1.024771 1_555
H22 N22 1.024771 1_555
H23 N23 1.024771 1_555
H24 N24 1.025088 1_555
H25 N25 1.025088 1_555
H26 N26 1.025088 1_555
H27 N27 1.025088 1_555
H28 N24 1.016942 1_555
H29 N25 1.016942 1_555
H30 N26 1.016942 1_555
H31 N27 1.016942 1_555
N0 P0 1.639315 1_655
N0 S0 1.646425 1_554
N1 P1 1.639315 1_555
N1 S1 1.646425 1_555
N2 P2 1.639315 1_455
N2 S2 1.646425 1_556
N3 P3 1.639315 1_555
N3 S3 1.646425 1_555
N4 S0 1.625057 1_555
N4 P4 1.667379 1_655
N5 S1 1.625057 1_555
N5 P5 1.667379 1_555
N6 S2 1.625057 1_555
N6 P6 1.667379 1_455
N7 S3 1.625057 1_555
N7 P7 1.667379 1_555
N8 P0 1.674307 1_556
N8 P4 1.713501 1_555
N9 P1 1.674307 1_555
N9 P5 1.713501 1_555
N10 P2 1.674307 1_554
N10 P6 1.713501 1_555
N11 P3 1.674307 1_555
N11 P7 1.713501 1_555
N12 P0 1.616861 1_555
N13 P1 1.616861 1_555
N14 P2 1.616861 1_555
N15 P3 1.616861 1_555
N16 P4 1.561298 1_555
N17 P5 1.561298 1_555
N18 P6 1.561298 1_555
N19 P7 1.561298 1_555
N20 P4 1.662814 1_555
N21 P5 1.662814 1_555
N22 P6 1.662814 1_555
N23 P7 1.662814 1_555
N24 P0 1.628901 1_555
N25 P1 1.628901 1_555
N26 P2 1.628901 1_555
N27 P3 1.628901 1_555
O0 S0 1.473754 1_554
O1 S1 1.473754 1_555
O2 S2 1.473754 1_556
O3 S3 1.473754 1_555
O4 S0 1.445875 1_554
O5 S1 1.445875 1_555
O6 S2 1.445875 1_556
O7 S3 1.445875 1_555
