# generated using pymatgen
data_Tm3Cu11Si4
_symmetry_space_group_name_H-M   'P 1'
_cell_length_a   8.33192103
_cell_length_b   8.33192103
_cell_length_c   8.51096000
_cell_angle_alpha   90.00000000
_cell_angle_beta   90.00000000
_cell_angle_gamma   119.99999234
_symmetry_Int_Tables_number   1
_chemical_formula_structural   Tm3Cu11Si4
_chemical_formula_sum   'Tm6 Cu22 Si8'
_cell_volume   511.68125264
_cell_formula_units_Z   2
loop_
 _symmetry_equiv_pos_site_id
 _symmetry_equiv_pos_as_xyz
  1  'x, y, z'
loop_
 _atom_site_type_symbol
 _atom_site_label
 _atom_site_symmetry_multiplicity
 _atom_site_fract_x
 _atom_site_fract_y
 _atom_site_fract_z
 _atom_site_occupancy
  Tm  Tm0  1  0.80161100  0.19838900  0.75000000  1
  Tm  Tm1  1  0.19838900  0.80161100  0.25000000  1
  Tm  Tm2  1  0.39677800  0.19838900  0.75000000  1
  Tm  Tm3  1  0.60322200  0.80161100  0.25000000  1
  Tm  Tm4  1  0.80161100  0.60322200  0.75000000  1
  Tm  Tm5  1  0.19838900  0.39677800  0.25000000  1
  Cu  Cu0  1  0.84810500  0.15189500  0.40993500  1
  Cu  Cu1  1  0.15189500  0.84810500  0.59006500  1
  Cu  Cu2  1  0.30378900  0.15189500  0.40993500  1
  Cu  Cu3  1  0.15189500  0.84810500  0.90993500  1
  Cu  Cu4  1  0.69621100  0.84810500  0.59006500  1
  Cu  Cu5  1  0.84810500  0.15189500  0.09006500  1
  Cu  Cu6  1  0.84810500  0.69621100  0.40993500  1
  Cu  Cu7  1  0.69621100  0.84810500  0.90993500  1
  Cu  Cu8  1  0.15189500  0.30378900  0.59006500  1
  Cu  Cu9  1  0.30378900  0.15189500  0.09006500  1
  Cu  Cu10  1  0.15189500  0.30378900  0.90993500  1
  Cu  Cu11  1  0.84810500  0.69621100  0.09006500  1
  Cu  Cu12  1  0.43508200  0.56491800  0.75000000  1
  Cu  Cu13  1  0.56491800  0.43508200  0.25000000  1
  Cu  Cu14  1  0.12983600  0.56491800  0.75000000  1
  Cu  Cu15  1  0.87016400  0.43508200  0.25000000  1
  Cu  Cu16  1  0.43508200  0.87016400  0.75000000  1
  Cu  Cu17  1  0.56491800  0.12983600  0.25000000  1
  Cu  Cu18  1  0.66666700  0.33333300  0.00493200  1
  Cu  Cu19  1  0.33333300  0.66666700  0.99506800  1
  Cu  Cu20  1  0.33333300  0.66666700  0.50493200  1
  Cu  Cu21  1  0.66666700  0.33333300  0.49506800  1
  Si  Si0  1  0.50000000  0.50000000  0.00000000  1
  Si  Si1  1  0.00000000  0.50000000  0.00000000  1
  Si  Si2  1  0.50000000  0.50000000  0.50000000  1
  Si  Si3  1  0.50000000  0.00000000  0.00000000  1
  Si  Si4  1  0.00000000  0.50000000  0.50000000  1
  Si  Si5  1  0.50000000  0.00000000  0.50000000  1
  Si  Si6  1  0.00000000  0.00000000  0.75000000  1
  Si  Si7  1  0.00000000  0.00000000  0.25000000  1
loop_
_geom_bond_atom_site_label_1
_geom_bond_atom_site_label_2
_geom_bond_distance
_geom_bond_site_symmetry_2
Cu0 Si7 2.580295 1_655
Cu0 Si5 2.632648 1_555
Cu0 Si4 2.632648 1_655
Cu0 Cu15 2.649564 1_555
Cu0 Cu17 2.649564 1_555
Cu0 Cu4 2.674956 1_545
Cu0 Cu8 2.674956 1_655
Cu0 Cu21 2.716790 1_555
Cu0 Cu5 2.722401 1_555
Cu0 Tm5 2.928979 1_655
Cu0 Tm3 2.928979 1_545
Cu0 Tm0 2.971036 1_555
Cu1 Si6 2.580295 1_565
Cu1 Si4 2.632648 1_555
Cu1 Si5 2.632648 1_565
Cu1 Cu16 2.649564 1_555
Cu1 Cu14 2.649564 1_555
Cu1 Cu6 2.674956 1_455
Cu1 Cu2 2.674956 1_565
Cu1 Cu20 2.716790 1_555
Cu1 Cu3 2.722401 1_555
Cu1 Tm2 2.928979 1_565
Cu1 Tm4 2.928979 1_455
Cu1 Tm1 2.971036 1_555
Cu2 Si7 2.580289 1_555
Cu2 Si2 2.632648 1_555
Cu2 Si5 2.632655 1_555
Cu2 Cu8 2.674944 1_555
Cu2 Cu21 2.716804 1_555
Cu2 Cu9 2.722401 1_555
Cu2 Tm5 2.928973 1_555
Cu2 Tm1 2.928981 1_545
Cu2 Tm2 2.971038 1_555
Cu3 Si6 2.580295 1_565
Cu3 Si3 2.632648 1_566
Cu3 Si1 2.632648 1_556
Cu3 Cu9 2.674956 1_566
Cu3 Tm2 2.928979 1_565
Cu3 Tm4 2.928979 1_455
Cu3 Tm1 2.971036 1_556
Cu4 Si6 2.580289 1_665
Cu4 Si2 2.632648 1_555
Cu4 Si5 2.632655 1_565
Cu4 Cu6 2.674944 1_555
Cu4 Cu7 2.722401 1_555
Cu4 Tm4 2.928973 1_555
Cu4 Tm0 2.928981 1_565
Cu4 Tm3 2.971038 1_555
Cu5 Si7 2.580295 1_655
Cu5 Si1 2.632648 1_655
Cu5 Si3 2.632648 1_555
Cu5 Cu7 2.674956 1_544
Cu5 Tm5 2.928979 1_655
Cu5 Tm3 2.928979 1_545
Cu5 Tm0 2.971036 1_554
Cu6 Si7 2.580289 1_665
Cu6 Si2 2.632648 1_555
Cu6 Si4 2.632655 1_655
Cu6 Tm3 2.928973 1_555
Cu6 Tm1 2.928981 1_655
Cu6 Tm4 2.971038 1_555
Cu7 Si6 2.580289 1_665
Cu7 Si0 2.632648 1_556
Cu7 Si3 2.632655 1_566
Cu7 Tm4 2.928973 1_555
Cu7 Tm0 2.928981 1_565
Cu7 Tm3 2.971038 1_556
Cu8 Si6 2.580289 1_555
Cu8 Si2 2.632648 1_555
Cu8 Si4 2.632655 1_555
Cu8 Tm2 2.928973 1_555
Cu8 Tm0 2.928981 1_455
Cu8 Tm5 2.971038 1_555
Cu9 Si7 2.580289 1_555
Cu9 Si0 2.632648 1_555
Cu9 Si3 2.632655 1_555
Cu9 Tm5 2.928973 1_555
Cu9 Tm1 2.928981 1_545
Cu9 Tm2 2.971038 1_554
Cu10 Si6 2.580289 1_555
Cu10 Si0 2.632648 1_556
Cu10 Si1 2.632655 1_556
Cu10 Cu12 2.649567 1_555
Cu10 Cu14 2.649571 1_555
Cu10 Cu9 2.674944 1_556
Cu10 Cu5 2.674956 1_456
Cu10 Cu19 2.716804 1_555
Cu10 Cu8 2.722401 1_555
Cu10 Tm2 2.928973 1_555
Cu10 Tm0 2.928981 1_455
Cu10 Tm5 2.971038 1_556
Cu11 Si7 2.580289 1_665
Cu11 Si0 2.632648 1_555
Cu11 Si1 2.632655 1_655
Cu11 Cu13 2.649567 1_555
Cu11 Cu15 2.649571 1_555
Cu11 Cu7 2.674944 1_554
Cu11 Cu3 2.674956 1_654
Cu11 Cu18 2.716804 1_555
Cu11 Cu6 2.722401 1_555
Cu11 Tm3 2.928973 1_555
Cu11 Tm1 2.928981 1_655
Cu11 Tm4 2.971038 1_554
Cu12 Si0 2.324859 1_556
Cu12 Si2 2.324859 1_555
Cu12 Cu14 2.543286 1_555
Cu12 Cu16 2.543286 1_555
Cu12 Cu19 2.550789 1_555
Cu12 Cu20 2.550789 1_555
Cu12 Cu8 2.649567 1_555
Cu12 Cu7 2.649567 1_555
Cu12 Cu4 2.649567 1_555
Cu12 Tm2 2.907484 1_555
Cu12 Tm4 2.907484 1_555
Cu13 Si2 2.324859 1_555
Cu13 Si0 2.324859 1_555
Cu13 Cu17 2.543286 1_555
Cu13 Cu15 2.543286 1_555
Cu13 Cu21 2.550789 1_555
Cu13 Cu18 2.550789 1_555
Cu13 Cu2 2.649567 1_555
Cu13 Cu9 2.649567 1_555
Cu13 Cu6 2.649567 1_555
Cu13 Tm5 2.907484 1_555
Cu13 Tm3 2.907484 1_555
Cu14 Si4 2.324859 1_555
Cu14 Si1 2.324859 1_556
Cu14 Cu16 2.543286 1_555
Cu14 Cu19 2.550785 1_555
Cu14 Cu20 2.550785 1_555
Cu14 Cu3 2.649564 1_555
Cu14 Cu8 2.649571 1_555
Cu14 Tm4 2.907484 1_455
Cu14 Tm0 2.907485 1_455
Cu15 Si4 2.324859 1_655
Cu15 Si1 2.324859 1_655
Cu15 Cu17 2.543286 1_555
Cu15 Cu21 2.550785 1_555
Cu15 Cu18 2.550785 1_555
Cu15 Cu5 2.649564 1_555
Cu15 Cu6 2.649571 1_555
Cu15 Tm5 2.907484 1_655
Cu15 Tm1 2.907485 1_655
Cu16 Si5 2.324859 1_565
Cu16 Si3 2.324859 1_566
Cu16 Cu19 2.550785 1_555
Cu16 Cu20 2.550785 1_555
Cu16 Cu3 2.649564 1_555
Cu16 Cu7 2.649571 1_555
Cu16 Cu4 2.649571 1_555
Cu16 Tm2 2.907484 1_565
Cu16 Tm0 2.907485 1_565
Cu17 Si5 2.324859 1_555
Cu17 Si3 2.324859 1_555
Cu17 Cu21 2.550785 1_555
Cu17 Cu18 2.550785 1_555
Cu17 Cu5 2.649564 1_555
Cu17 Cu2 2.649571 1_555
Cu17 Cu9 2.649571 1_555
Cu17 Tm3 2.907484 1_545
Cu17 Tm1 2.907485 1_545
Cu18 Si3 2.405582 1_555
Cu18 Si1 2.405582 1_655
Cu18 Si0 2.405589 1_555
Cu18 Cu5 2.716790 1_555
Cu18 Cu9 2.716804 1_555
Cu18 Tm0 2.915494 1_554
Cu18 Tm4 2.915499 1_554
Cu18 Tm2 2.915499 1_554
Cu19 Si3 2.405582 1_566
Cu19 Si1 2.405582 1_556
Cu19 Si0 2.405589 1_556
Cu19 Cu3 2.716790 1_555
Cu19 Cu7 2.716804 1_555
Cu19 Tm1 2.915494 1_556
Cu19 Tm3 2.915499 1_556
Cu19 Tm5 2.915499 1_556
Cu20 Si4 2.405582 1_555
Cu20 Si5 2.405582 1_565
Cu20 Si2 2.405589 1_555
Cu20 Cu4 2.716804 1_555
Cu20 Cu8 2.716804 1_555
Cu20 Tm1 2.915494 1_555
Cu20 Tm3 2.915499 1_555
Cu20 Tm5 2.915499 1_555
Cu21 Si4 2.405582 1_655
Cu21 Si5 2.405582 1_555
Cu21 Si2 2.405589 1_555
Cu21 Cu6 2.716804 1_555
Cu21 Tm0 2.915494 1_555
Cu21 Tm4 2.915499 1_555
Cu21 Tm2 2.915499 1_555
Si0 Tm3 3.069338 1_555
Si0 Tm4 3.069338 1_554
Si0 Tm2 3.069338 1_554
Si0 Tm5 3.069338 1_555
Si1 Tm4 3.069337 1_454
Si1 Tm5 3.069337 1_555
Si1 Tm1 3.069338 1_555
Si1 Tm0 3.069338 1_454
Si2 Tm3 3.069338 1_555
Si2 Tm4 3.069338 1_555
Si2 Tm2 3.069338 1_555
Si2 Tm5 3.069338 1_555
Si3 Tm3 3.069337 1_545
Si3 Tm2 3.069337 1_554
Si3 Tm0 3.069338 1_554
Si3 Tm1 3.069338 1_545
Si4 Tm4 3.069337 1_455
Si4 Tm5 3.069337 1_555
Si4 Tm1 3.069338 1_555
Si4 Tm0 3.069338 1_455
Si5 Tm3 3.069337 1_545
Si5 Tm2 3.069337 1_555
Si5 Tm0 3.069338 1_555
Si5 Tm1 3.069338 1_545
Si6 Tm0 2.863013 1_455
Si6 Tm2 2.863013 1_555
Si6 Tm4 2.863013 1_445
Si7 Tm1 2.863013 1_545
Si7 Tm5 2.863013 1_555
Si7 Tm3 2.863013 1_445
