# generated using pymatgen
data_Pr4FeS7
_symmetry_space_group_name_H-M   'P 1'
_cell_length_a   6.99759700
_cell_length_b   9.92910000
_cell_length_c   9.94959420
_cell_angle_alpha   60.07194176
_cell_angle_beta   90.00000000
_cell_angle_gamma   90.00000000
_symmetry_Int_Tables_number   1
_chemical_formula_structural   Pr4FeS7
_chemical_formula_sum   'Pr8 Fe2 S14'
_cell_volume   599.11361624
_cell_formula_units_Z   2
loop_
 _symmetry_equiv_pos_site_id
 _symmetry_equiv_pos_as_xyz
  1  'x, y, z'
loop_
 _atom_site_type_symbol
 _atom_site_label
 _atom_site_symmetry_multiplicity
 _atom_site_fract_x
 _atom_site_fract_y
 _atom_site_fract_z
 _atom_site_occupancy
  Pr  Pr0  1  0.72456200  0.78074600  0.84457600  1
  Pr  Pr1  1  0.72376800  0.37508800  0.78077600  1
  Pr  Pr2  1  0.72451900  0.84429300  0.37564500  1
  Pr  Pr3  1  0.22456200  0.21925400  0.15542400  1
  Pr  Pr4  1  0.22376800  0.62491200  0.21922400  1
  Pr  Pr5  1  0.22451900  0.15570700  0.62435500  1
  Pr  Pr6  1  0.17930700  0.66319400  0.66656300  1
  Pr  Pr7  1  0.67930700  0.33680600  0.33343700  1
  Fe  Fe0  1  0.51732500  0.00193100  0.00145500  1
  Fe  Fe1  1  0.01732500  0.99806900  0.99854500  1
  S  S0  1  0.33450200  0.87185600  0.90005200  1
  S  S1  1  0.33553600  0.23348800  0.86932400  1
  S  S2  1  0.33528300  0.89843600  0.23262100  1
  S  S3  1  0.83450200  0.12814400  0.09994800  1
  S  S4  1  0.83553600  0.76651200  0.13067600  1
  S  S5  1  0.83528300  0.10156400  0.76737900  1
  S  S6  1  0.96698800  0.92506200  0.56251400  1
  S  S7  1  0.96473400  0.51039900  0.92710900  1
  S  S8  1  0.96188000  0.55996800  0.51045700  1
  S  S9  1  0.46698800  0.07493800  0.43748600  1
  S  S10  1  0.46473400  0.48960100  0.07289100  1
  S  S11  1  0.46188000  0.44003200  0.48954300  1
  S  S12  1  0.56359700  0.66744200  0.66691400  1
  S  S13  1  0.06359700  0.33255800  0.33308600  1
loop_
_geom_bond_atom_site_label_1
_geom_bond_atom_site_label_2
_geom_bond_distance
_geom_bond_site_symmetry_2
Pr0 S12 2.764651 1_555
Pr0 S4 2.885235 1_556
Pr0 S7 2.916305 1_555
Pr0 S6 2.965523 1_555
Pr0 S5 2.982596 1_565
Pr0 S0 3.011869 1_555
Pr0 S10 3.204728 1_556
Pr1 S12 2.772106 1_555
Pr1 S5 2.892013 1_555
Pr1 S8 2.907458 1_555
Pr1 S7 2.952947 1_555
Pr1 S1 2.982842 1_555
Pr1 S3 2.987899 1_556
Pr1 S11 3.210315 1_555
Pr2 S12 2.769868 1_555
Pr2 S3 2.888916 1_565
Pr2 S6 2.909751 1_555
Pr2 S8 2.957927 1_555
Pr2 S2 2.994880 1_555
Pr2 S4 3.003137 1_555
Pr2 S9 3.205730 1_565
Pr3 S13 2.764651 1_555
Pr3 S1 2.885235 1_554
Pr3 S10 2.916305 1_555
Pr3 S9 2.965523 1_555
Pr3 S2 2.982596 1_545
Pr3 S3 3.011869 1_455
Pr3 S7 3.204728 1_454
Pr4 S13 2.772106 1_555
Pr4 S2 2.892013 1_555
Pr4 S11 2.907458 1_555
Pr4 S10 2.952947 1_555
Pr4 S4 2.982842 1_455
Pr4 S0 2.987899 1_554
Pr4 S8 3.210315 1_455
Pr5 S13 2.769868 1_555
Pr5 S0 2.888916 1_545
Pr5 S9 2.909751 1_555
Pr5 S11 2.957927 1_555
Pr5 S5 2.994880 1_455
Pr5 S1 3.003137 1_555
Pr5 S6 3.205730 1_445
Pr6 S12 2.689467 1_555
Pr6 S7 2.711454 1_455
Pr6 S6 2.711788 1_455
Pr6 S8 2.714081 1_455
Pr7 S13 2.689467 1_655
Pr7 S10 2.711454 1_555
Pr7 S9 2.711788 1_555
Pr7 S11 2.714081 1_555
Fe0 S2 2.368620 1_545
Fe0 S1 2.369938 1_554
Fe0 S0 2.371252 1_544
Fe0 S3 2.946570 1_555
Fe0 S5 3.009007 1_554
Fe0 S4 3.012704 1_545
Fe1 S5 2.368620 1_465
Fe1 S4 2.369938 1_456
Fe1 S3 2.371252 1_466
Fe1 S0 2.946570 1_555
Fe1 S2 3.009007 1_556
Fe1 S1 3.012704 1_565
