# generated using pymatgen
data_Li3CrPCO7
_symmetry_space_group_name_H-M   'P 1'
_cell_length_a   4.97818500
_cell_length_b   8.66316466
_cell_length_c   12.94479046
_cell_angle_alpha   90.16657614
_cell_angle_beta   90.19912472
_cell_angle_gamma   94.65733296
_symmetry_Int_Tables_number   1
_chemical_formula_structural   Li3CrPCO7
_chemical_formula_sum   'Li12 Cr4 P4 C4 O28'
_cell_volume   556.41832143
_cell_formula_units_Z   4
loop_
 _symmetry_equiv_pos_site_id
 _symmetry_equiv_pos_as_xyz
  1  'x, y, z'
loop_
 _atom_site_type_symbol
 _atom_site_label
 _atom_site_symmetry_multiplicity
 _atom_site_fract_x
 _atom_site_fract_y
 _atom_site_fract_z
 _atom_site_occupancy
  Li  Li0  1  0.23222700  0.11114500  0.12730400  1
  Li  Li1  1  0.22793700  0.11172100  0.63101700  1
  Li  Li2  1  0.74377200  0.27459000  0.51756900  1
  Li  Li3  1  0.73625600  0.27698700  0.24243500  1
  Li  Li4  1  0.76114200  0.28085900  0.73396200  1
  Li  Li5  1  0.22789900  0.35540800  0.86840200  1
  Li  Li6  1  0.24847300  0.71836200  0.98093500  1
  Li  Li7  1  0.25456000  0.72493200  0.26720300  1
  Li  Li8  1  0.26183800  0.72854200  0.49030700  1
  Li  Li9  1  0.25749800  0.72179500  0.76222800  1
  Li  Li10  1  0.77023400  0.89223200  0.37915200  1
  Li  Li11  1  0.77059700  0.89081900  0.86815500  1
  Cr  Cr0  1  0.75845000  0.25036100  0.98713200  1
  Cr  Cr1  1  0.20379700  0.33324800  0.37583200  1
  Cr  Cr2  1  0.79177800  0.66490900  0.12629700  1
  Cr  Cr3  1  0.79654000  0.66487300  0.62517600  1
  P  P0  1  0.26903200  0.41233000  0.12641200  1
  P  P1  1  0.27643800  0.40927200  0.62706200  1
  P  P2  1  0.72240900  0.58903900  0.37563700  1
  P  P3  1  0.71737900  0.58459700  0.87496300  1
  C  C0  1  0.29590400  0.03150500  0.37306700  1
  C  C1  1  0.29061500  0.03676800  0.88135000  1
  C  C2  1  0.70512200  0.96726300  0.62573000  1
  C  C3  1  0.70950300  0.96650300  0.12133600  1
  O  O0  1  0.03876600  0.05951100  0.88198600  1
  O  O1  1  0.04398100  0.05445000  0.37305500  1
  O  O2  1  0.62688600  0.10743400  0.11313800  1
  O  O3  1  0.62143300  0.10554100  0.62632900  1
  O  O4  1  0.47403400  0.15195600  0.37026900  1
  O  O5  1  0.47029000  0.15589100  0.88385000  1
  O  O6  1  0.16192000  0.31235800  0.53177200  1
  O  O7  1  0.15847100  0.31699400  0.03107400  1
  O  O8  1  0.15370200  0.31190800  0.21894300  1
  O  O9  1  0.16707500  0.31190600  0.71947400  1
  O  O10  1  0.81256000  0.42243500  0.37555600  1
  O  O11  1  0.81722700  0.41947000  0.87219300  1
  O  O12  1  0.58987300  0.41911500  0.62457100  1
  O  O13  1  0.58123700  0.41909700  0.12922800  1
  O  O14  1  0.41043000  0.58113300  0.37554900  1
  O  O15  1  0.40655600  0.57466800  0.87441900  1
  O  O16  1  0.18191700  0.57974700  0.12741800  1
  O  O17  1  0.18671300  0.57706500  0.62625500  1
  O  O18  1  0.83876900  0.68825400  0.46869900  1
  O  O19  1  0.83692100  0.68783000  0.28267800  1
  O  O20  1  0.83278100  0.68505200  0.78276600  1
  O  O21  1  0.83157400  0.68286500  0.96895700  1
  O  O22  1  0.53075800  0.84966200  0.12818800  1
  O  O23  1  0.52931900  0.84550300  0.62417200  1
  O  O24  1  0.37710000  0.89265200  0.37575300  1
  O  O25  1  0.37105900  0.89692000  0.87587800  1
  O  O26  1  0.96141600  0.94671600  0.12213000  1
  O  O27  1  0.95782900  0.94580600  0.62703700  1
loop_
_geom_bond_atom_site_label_1
_geom_bond_atom_site_label_2
_geom_bond_distance
_geom_bond_site_symmetry_2
Li0 O26 1.880977 1_445
Li0 O2 1.976709 1_555
Li0 O8 2.164855 1_555
Li0 O7 2.232211 1_555
Li1 O27 1.887308 1_445
Li1 O3 1.965111 1_555
Li1 O9 2.118188 1_555
Li1 O6 2.209629 1_555
Li2 O12 2.055772 1_555
Li2 O6 2.088152 1_655
Li2 O3 2.090668 1_555
Li2 O10 2.254777 1_555
Li2 O4 2.511242 1_555
Li3 O8 2.098911 1_655
Li3 O13 2.101341 1_555
Li3 O10 2.146296 1_555
Li3 O2 2.259392 1_555
Li3 O4 2.326246 1_555
Li4 O9 2.026290 1_655
Li4 O12 2.081825 1_555
Li4 O3 2.131001 1_555
Li4 O11 2.156696 1_555
Li5 O9 1.980776 1_555
Li5 O15 2.032102 1_555
Li5 O7 2.157513 1_556
Li5 O11 2.162123 1_455
Li5 O5 2.196041 1_555
Li6 O15 2.055911 1_555
Li6 O21 2.078398 1_455
Li6 O25 2.116456 1_555
Li6 O16 2.258394 1_556
Li6 O22 2.571237 1_556
Li7 O14 2.068967 1_555
Li7 O24 2.072679 1_555
Li7 O19 2.088248 1_455
Li7 O16 2.212542 1_555
Li7 O22 2.466503 1_555
Li8 O24 2.105975 1_555
Li8 O18 2.124087 1_455
Li8 O14 2.129498 1_555
Li8 O17 2.212958 1_555
Li8 O23 2.357370 1_555
Li9 O15 2.107414 1_555
Li9 O20 2.130131 1_455
Li9 O25 2.151190 1_555
Li9 O17 2.169204 1_555
Li9 O23 2.442503 1_555
Li10 O1 1.878476 1_665
Li10 O24 1.957734 1_555
Li10 O18 2.165586 1_555
Li10 O19 2.211540 1_555
Li11 O0 1.905248 1_665
Li11 O25 1.996805 1_555
Li11 O20 2.139108 1_555
Li11 O21 2.267173 1_555
Cr0 O5 2.074789 1_555
Cr0 O11 2.095642 1_555
Cr0 O7 2.103784 1_656
Cr0 O2 2.123707 1_556
Cr0 O13 2.550209 1_556
Cr0 O0 2.628365 1_655
Cr1 O6 2.037136 1_555
Cr1 O8 2.051271 1_555
Cr1 O4 2.150531 1_555
Cr1 O10 2.152829 1_455
Cr1 O14 2.304586 1_555
Cr1 O1 2.480938 1_555
Cr2 O19 2.043295 1_555
Cr2 O21 2.052162 1_554
Cr2 O16 2.132875 1_655
Cr2 O22 2.142086 1_555
Cr2 O13 2.296319 1_555
Cr2 O26 2.518431 1_555
Cr3 O18 2.046107 1_555
Cr3 O20 2.053005 1_555
Cr3 O23 2.134603 1_555
Cr3 O17 2.142756 1_655
Cr3 O12 2.288123 1_555
Cr3 O27 2.500138 1_555
C0 O1 1.285616 1_555
C0 O24 1.300262 1_545
C0 O4 1.314041 1_555
C1 O0 1.284895 1_555
C1 O25 1.308309 1_545
C1 O5 1.309882 1_555
C2 O27 1.286587 1_555
C2 O3 1.299874 1_565
C2 O23 1.314856 1_555
C3 O26 1.279457 1_555
C3 O22 1.295776 1_555
C3 O2 1.324019 1_565
O6 P1 1.569334 1_555
O7 P0 1.556815 1_555
O8 P0 1.565542 1_555
O9 P1 1.541017 1_555
O10 P2 1.545885 1_555
O11 P3 1.552433 1_555
O12 P1 1.556189 1_555
O13 P0 1.550853 1_555
O14 P2 1.549029 1_555
O15 P3 1.542725 1_555
O16 P0 1.547211 1_555
O17 P1 1.555031 1_555
O18 P2 1.560068 1_555
O19 P2 1.561083 1_555
O20 P3 1.562491 1_555
O21 P3 1.561705 1_555
