# generated using pymatgen
data_In2Ni3Se2
_symmetry_space_group_name_H-M   'P 1'
_cell_length_a   5.66101784
_cell_length_b   5.66101784
_cell_length_c   5.66101674
_cell_angle_alpha   57.20460553
_cell_angle_beta   57.20460553
_cell_angle_gamma   57.20459601
_symmetry_Int_Tables_number   1
_chemical_formula_structural   In2Ni3Se2
_chemical_formula_sum   'In2 Ni3 Se2'
_cell_volume   120.02273225
_cell_formula_units_Z   1
loop_
 _symmetry_equiv_pos_site_id
 _symmetry_equiv_pos_as_xyz
  1  'x, y, z'
loop_
 _atom_site_type_symbol
 _atom_site_label
 _atom_site_symmetry_multiplicity
 _atom_site_fract_x
 _atom_site_fract_y
 _atom_site_fract_z
 _atom_site_occupancy
  In  In0  1  0.00000000  0.00000000  -0.00000000  1
  In  In1  1  0.50000000  0.50000000  0.50000000  1
  Ni  Ni0  1  0.00000000  0.00000000  0.50000000  1
  Ni  Ni1  1  0.50000000  0.00000000  -0.00000000  1
  Ni  Ni2  1  0.00000000  0.50000000  -0.00000000  1
  Se  Se0  1  0.71720852  0.71720852  0.71720852  1
  Se  Se1  1  0.28279148  0.28279148  0.28279148  1
loop_
_geom_bond_atom_site_label_1
_geom_bond_atom_site_label_2
_geom_bond_distance
_geom_bond_site_symmetry_2
In0 Ni0 2.830508 1_554
In0 Ni0 2.830508 1_555
In0 Ni2 2.830509 1_555
In0 Ni2 2.830509 1_545
In0 Ni1 2.830509 1_455
In0 Ni1 2.830509 1_555
In0 Se1 3.210041 1_554
In0 Se0 3.210041 1_445
In0 Se1 3.210041 1_455
In0 Se1 3.210041 1_545
In0 Se0 3.210041 1_454
In0 Se0 3.210041 1_544
In1 Ni0 2.710082 1_655
In1 Ni0 2.710082 1_565
In1 Ni1 2.710083 1_556
In1 Ni2 2.710083 1_655
In1 Ni1 2.710083 1_565
In1 Ni2 2.710083 1_556
In1 Se1 3.074015 1_555
In1 Se0 3.074015 1_555
Ni0 Se0 2.269159 1_445
Ni0 Se1 2.269159 1_555
Ni1 Se1 2.269158 1_555
Ni1 Se0 2.269158 1_544
Ni2 Se1 2.269158 1_555
Ni2 Se0 2.269158 1_454
