# generated using pymatgen
data_Ti11Ni9Pt4
_symmetry_space_group_name_H-M   'P 1'
_cell_length_a   7.52064872
_cell_length_b   7.52064872
_cell_length_c   14.25880011
_cell_angle_alpha   84.86180607
_cell_angle_beta   84.86180607
_cell_angle_gamma   120.20058318
_symmetry_Int_Tables_number   1
_chemical_formula_structural   Ti11Ni9Pt4
_chemical_formula_sum   'Ti22 Ni18 Pt8'
_cell_volume   685.67468977
_cell_formula_units_Z   2
loop_
 _symmetry_equiv_pos_site_id
 _symmetry_equiv_pos_as_xyz
  1  'x, y, z'
loop_
 _atom_site_type_symbol
 _atom_site_label
 _atom_site_symmetry_multiplicity
 _atom_site_fract_x
 _atom_site_fract_y
 _atom_site_fract_z
 _atom_site_occupancy
  Ti  Ti0  1  0.00000000  0.50000000  0.00000000  1
  Ti  Ti1  1  0.50000000  0.00000000  0.50000000  1
  Ti  Ti2  1  0.24930200  0.75069800  0.25000000  1
  Ti  Ti3  1  0.75069800  0.24930200  0.75000000  1
  Ti  Ti4  1  0.58553700  0.41446300  0.25000000  1
  Ti  Ti5  1  0.41446300  0.58553700  0.75000000  1
  Ti  Ti6  1  0.83411500  0.67324900  0.49971100  1
  Ti  Ti7  1  0.32675100  0.16588500  0.00028900  1
  Ti  Ti8  1  0.16588500  0.32675100  0.50028900  1
  Ti  Ti9  1  0.67325000  0.83411500  0.99971100  1
  Ti  Ti10  1  0.62103700  0.78320900  0.35034500  1
  Ti  Ti11  1  0.21679100  0.37896300  0.14965500  1
  Ti  Ti12  1  0.37896300  0.21679100  0.64965500  1
  Ti  Ti13  1  0.78320900  0.62103700  0.85034500  1
  Ti  Ti14  1  0.88395500  0.33373200  0.36227900  1
  Ti  Ti15  1  0.66626800  0.11604500  0.13772100  1
  Ti  Ti16  1  0.11604500  0.66626800  0.63772100  1
  Ti  Ti17  1  0.33373200  0.88395500  0.86227900  1
  Ti  Ti18  1  0.13599200  0.05147700  0.34124200  1
  Ti  Ti19  1  0.94852300  0.86400800  0.15875800  1
  Ti  Ti20  1  0.86400800  0.94852300  0.65875800  1
  Ti  Ti21  1  0.05147700  0.13599200  0.84124200  1
  Ni  Ni0  1  0.88084000  0.11916000  0.25000000  1
  Ni  Ni1  1  0.11916000  0.88084000  0.75000000  1
  Ni  Ni2  1  0.49781300  0.05937600  0.32317200  1
  Ni  Ni3  1  0.94062400  0.50218700  0.17682800  1
  Ni  Ni4  1  0.50218700  0.94062400  0.67682800  1
  Ni  Ni5  1  0.05937600  0.49781300  0.82317200  1
  Ni  Ni6  1  0.89020100  0.66236300  0.32497900  1
  Ni  Ni7  1  0.33763700  0.10979900  0.17502100  1
  Ni  Ni8  1  0.10979900  0.33763700  0.67502100  1
  Ni  Ni9  1  0.66236300  0.89020100  0.82497900  1
  Ni  Ni10  1  0.28771600  0.45729500  0.32381800  1
  Ni  Ni11  1  0.54270500  0.71228400  0.17618200  1
  Ni  Ni12  1  0.71228400  0.54270500  0.67618200  1
  Ni  Ni13  1  0.45729500  0.28771600  0.82381800  1
  Ni  Ni14  1  0.01058700  0.84124300  0.97786800  1
  Ni  Ni15  1  0.15875700  0.98941300  0.52213200  1
  Ni  Ni16  1  0.98941300  0.15875700  0.02213200  1
  Ni  Ni17  1  0.84124300  0.01058700  0.47786800  1
  Pt  Pt0  1  0.68418300  0.18729300  0.93753400  1
  Pt  Pt1  1  0.81270700  0.31581700  0.56246600  1
  Pt  Pt2  1  0.31581700  0.81270700  0.06246600  1
  Pt  Pt3  1  0.18729300  0.68418300  0.43753400  1
  Pt  Pt4  1  0.64560500  0.47698800  0.06175600  1
  Pt  Pt5  1  0.52301200  0.35439500  0.43824400  1
  Pt  Pt6  1  0.35439500  0.52301200  0.93824400  1
  Pt  Pt7  1  0.47698800  0.64560500  0.56175600  1
loop_
_geom_bond_atom_site_label_1
_geom_bond_atom_site_label_2
_geom_bond_distance
_geom_bond_site_symmetry_2
Ni0 Ti14 2.366255 1_555
Ni0 Ti15 2.366255 1_555
Ni0 Ti10 2.476616 1_545
Ni0 Ti11 2.476616 1_655
Ni0 Ti18 2.635364 1_655
Ni0 Ti19 2.635364 1_545
Ni0 Ni3 2.768263 1_555
Ni0 Ni2 2.768263 1_555
Ni1 Ti17 2.366255 1_555
Ni1 Ti16 2.366255 1_555
Ni1 Ti12 2.476616 1_565
Ni1 Ti13 2.476616 1_455
Ni1 Ti21 2.635364 1_565
Ni1 Ti20 2.635364 1_455
Ni1 Ni4 2.768263 1_555
Ni1 Ni5 2.768263 1_555
Ni2 Ti4 2.502091 1_555
Ni2 Ti1 2.523897 1_555
Ni2 Ti2 2.527621 1_545
Ni2 Ni7 2.613292 1_555
Ni2 Ti10 2.679418 1_545
Ni2 Ti18 2.680206 1_555
Ni2 Ti15 2.726519 1_555
Ni2 Ti14 2.733050 1_555
Ni2 Pt5 2.817024 1_555
Ni2 Pt3 2.817624 1_545
Ni3 Ti4 2.502091 1_555
Ni3 Ti0 2.523897 1_655
Ni3 Ti2 2.527621 1_655
Ni3 Ni6 2.613292 1_555
Ni3 Ti11 2.679418 1_655
Ni3 Ti19 2.680206 1_555
Ni3 Ti14 2.726519 1_555
Ni3 Ti15 2.733050 1_555
Ni3 Pt4 2.817024 1_555
Ni3 Pt2 2.817624 1_655
Ni4 Ti5 2.502091 1_555
Ni4 Ti1 2.523897 1_565
Ni4 Ti3 2.527621 1_565
Ni4 Ni9 2.613292 1_555
Ni4 Ti12 2.679418 1_565
Ni4 Ti20 2.680206 1_555
Ni4 Ti17 2.726519 1_555
Ni4 Ti16 2.733050 1_555
Ni4 Pt7 2.817024 1_555
Ni4 Pt1 2.817624 1_565
Ni5 Ti5 2.502091 1_555
Ni5 Ti0 2.523897 1_556
Ni5 Ti3 2.527621 1_455
Ni5 Ni8 2.613292 1_555
Ni5 Ti13 2.679418 1_455
Ni5 Ti21 2.680206 1_555
Ni5 Ti16 2.726519 1_555
Ni5 Ti17 2.733050 1_555
Ni5 Pt6 2.817024 1_555
Ni5 Pt0 2.817624 1_455
Ni6 Ti14 2.456981 1_555
Ni6 Ti6 2.505011 1_555
Ni6 Ti4 2.523277 1_555
Ni6 Ti2 2.535462 1_655
Ni6 Ti19 2.571069 1_555
Ni6 Ti18 2.605881 1_665
Ni6 Ti10 2.614036 1_555
Ni6 Pt5 2.773994 1_555
Ni6 Pt3 2.813436 1_655
Ni7 Ti15 2.456981 1_555
Ni7 Ti7 2.505011 1_555
Ni7 Ti4 2.523277 1_555
Ni7 Ti2 2.535462 1_545
Ni7 Ti18 2.571069 1_555
Ni7 Ti19 2.605881 1_445
Ni7 Ti11 2.614036 1_555
Ni7 Pt4 2.773994 1_555
Ni7 Pt2 2.813436 1_545
Ni8 Ti16 2.456981 1_555
Ni8 Ti8 2.505011 1_555
Ni8 Ti5 2.523277 1_555
Ni8 Ti3 2.535462 1_455
Ni8 Ti21 2.571069 1_555
Ni8 Ti20 2.605881 1_445
Ni8 Ti12 2.614036 1_555
Ni8 Pt7 2.773994 1_555
Ni8 Pt1 2.813436 1_455
Ni9 Ti17 2.456981 1_555
Ni9 Ti9 2.505012 1_555
Ni9 Ti5 2.523277 1_555
Ni9 Ti3 2.535462 1_565
Ni9 Ti20 2.571069 1_555
Ni9 Ti21 2.605881 1_665
Ni9 Ti13 2.614036 1_555
Ni9 Pt6 2.773994 1_555
Ni9 Pt0 2.813436 1_565
Ni10 Ti2 2.517962 1_555
Ni10 Ti8 2.524784 1_555
Ni10 Ti10 2.566944 1_555
Ni10 Ti4 2.567625 1_555
Ni10 Ni11 2.576929 1_555
Ni10 Ti11 2.642307 1_555
Ni10 Ti18 2.643542 1_555
Ni10 Ti14 2.675158 1_455
Ni10 Pt3 2.771979 1_555
Ni10 Pt5 2.839199 1_555
Ni11 Ti2 2.517962 1_555
Ni11 Ti9 2.524785 1_554
Ni11 Ti11 2.566944 1_555
Ni11 Ti4 2.567625 1_555
Ni11 Ti10 2.642307 1_555
Ni11 Ti19 2.643542 1_555
Ni11 Ti15 2.675158 1_565
Ni11 Pt2 2.771979 1_555
Ni11 Pt4 2.839199 1_555
Ni12 Ti3 2.517962 1_555
Ni12 Ti6 2.524784 1_555
Ni12 Ti12 2.566944 1_555
Ni12 Ti5 2.567625 1_555
Ni12 Ni13 2.576929 1_555
Ni12 Ti13 2.642307 1_555
Ni12 Ti20 2.643542 1_555
Ni12 Ti16 2.675158 1_655
Ni12 Pt1 2.771979 1_555
Ni12 Pt7 2.839199 1_555
Ni13 Ti3 2.517962 1_555
Ni13 Ti7 2.524784 1_556
Ni13 Ti13 2.566944 1_555
Ni13 Ti5 2.567625 1_555
Ni13 Ti12 2.642307 1_555
Ni13 Ti21 2.643542 1_555
Ni13 Ti17 2.675158 1_545
Ni13 Pt0 2.771979 1_555
Ni13 Pt6 2.839199 1_555
Ni14 Ti7 2.480406 1_566
Ni14 Ti9 2.500973 1_455
Ni14 Ti0 2.517347 1_556
Ni14 Ni16 2.600065 1_466
Ni14 Ti19 2.616044 1_456
Ni14 Ti17 2.669855 1_555
Ni14 Ti13 2.687070 1_455
Ni14 Ti21 2.690151 1_565
Ni14 Pt2 2.777736 1_556
Ni14 Pt4 2.780234 1_456
Ni15 Ti6 2.480406 1_455
Ni15 Ti8 2.500980 1_565
Ni15 Ti1 2.517347 1_565
Ni15 Ni17 2.600065 1_465
Ni15 Ti18 2.616044 1_565
Ni15 Ti16 2.669855 1_555
Ni15 Ti12 2.687070 1_565
Ni15 Ti20 2.690151 1_455
Ni15 Pt3 2.777736 1_555
Ni15 Pt5 2.780234 1_565
Ni16 Ti9 2.480402 1_544
Ni16 Ti7 2.500980 1_655
Ni16 Ti0 2.517347 1_655
Ni16 Ti21 2.616044 1_654
Ni16 Ti15 2.669855 1_555
Ni16 Ti11 2.687070 1_655
Ni16 Ti19 2.690151 1_545
Ni16 Pt0 2.777736 1_554
Ni16 Pt6 2.780234 1_654
Ni17 Ti8 2.480406 1_655
Ni17 Ti6 2.500980 1_545
Ni17 Ti1 2.517347 1_555
Ni17 Ti20 2.616044 1_545
Ni17 Ti14 2.669855 1_555
Ni17 Ti10 2.687070 1_545
Ni17 Ti18 2.690151 1_655
Ni17 Pt1 2.777736 1_555
Ni17 Pt7 2.780234 1_545
Pt0 Ti3 2.630664 1_555
Pt0 Ti0 2.664571 1_656
Pt0 Ti7 2.675919 1_556
Pt0 Ti9 2.682017 1_545
Pt0 Ti15 2.835056 1_556
Pt0 Ti17 2.863253 1_545
Pt0 Pt2 3.024871 1_546
Pt0 Pt4 3.033701 1_556
Pt0 Ti13 3.066721 1_555
Pt0 Ti21 3.186220 1_655
Pt1 Ti3 2.630664 1_555
Pt1 Ti1 2.664571 1_555
Pt1 Ti6 2.675919 1_555
Pt1 Ti8 2.682013 1_655
Pt1 Ti14 2.835056 1_555
Pt1 Ti16 2.863253 1_655
Pt1 Pt3 3.024871 1_655
Pt1 Pt5 3.033701 1_555
Pt1 Ti12 3.066721 1_555
Pt1 Ti20 3.186220 1_545
Pt2 Ti2 2.630664 1_555
Pt2 Ti0 2.664571 1_555
Pt2 Ti9 2.675926 1_554
Pt2 Ti7 2.682013 1_565
Pt2 Ti17 2.835056 1_554
Pt2 Ti15 2.863253 1_565
Pt2 Pt6 3.033701 1_554
Pt2 Ti11 3.066721 1_555
Pt2 Ti19 3.186220 1_455
Pt3 Ti2 2.630664 1_555
Pt3 Ti1 2.664571 1_565
Pt3 Ti8 2.675919 1_555
Pt3 Ti6 2.682013 1_455
Pt3 Ti16 2.835056 1_555
Pt3 Ti14 2.863253 1_455
Pt3 Pt7 3.033701 1_555
Pt3 Ti10 3.066721 1_555
Pt3 Ti18 3.186220 1_565
Pt4 Ti4 2.640604 1_555
Pt4 Ti0 2.645247 1_655
Pt4 Ti9 2.649382 1_554
Pt4 Ti7 2.663059 1_555
Pt4 Ti15 2.914436 1_555
Pt4 Ti13 3.009980 1_554
Pt4 Ti11 3.038640 1_555
Pt4 Pt6 3.059772 1_554
Pt4 Ti19 3.192064 1_555
Pt5 Ti4 2.640604 1_555
Pt5 Ti1 2.645247 1_555
Pt5 Ti8 2.649386 1_555
Pt5 Ti6 2.663059 1_555
Pt5 Ti14 2.914436 1_555
Pt5 Ti12 3.009980 1_555
Pt5 Ti10 3.038640 1_555
Pt5 Pt7 3.059772 1_555
Pt5 Ti18 3.192064 1_555
Pt6 Ti5 2.640604 1_555
Pt6 Ti0 2.645247 1_556
Pt6 Ti7 2.649386 1_556
Pt6 Ti9 2.663063 1_555
Pt6 Ti17 2.914436 1_555
Pt6 Ti11 3.009980 1_556
Pt6 Ti13 3.038640 1_555
Pt6 Ti21 3.192064 1_555
Pt7 Ti5 2.640604 1_555
Pt7 Ti1 2.645247 1_565
Pt7 Ti6 2.649386 1_555
Pt7 Ti8 2.663059 1_555
Pt7 Ti16 2.914436 1_555
Pt7 Ti10 3.009980 1_555
Pt7 Ti12 3.038640 1_555
Pt7 Ti20 3.192064 1_555
