# generated using pymatgen
data_Co2Sb2O7
_symmetry_space_group_name_H-M   'P 1'
_cell_length_a   7.19025490
_cell_length_b   7.19025490
_cell_length_c   7.19025490
_cell_angle_alpha   60.00000000
_cell_angle_beta   60.00000000
_cell_angle_gamma   60.00000000
_symmetry_Int_Tables_number   1
_chemical_formula_structural   Co2Sb2O7
_chemical_formula_sum   'Co4 Sb4 O14'
_cell_volume   262.85598065
_cell_formula_units_Z   2
loop_
 _symmetry_equiv_pos_site_id
 _symmetry_equiv_pos_as_xyz
  1  'x, y, z'
loop_
 _atom_site_type_symbol
 _atom_site_label
 _atom_site_symmetry_multiplicity
 _atom_site_fract_x
 _atom_site_fract_y
 _atom_site_fract_z
 _atom_site_occupancy
  Co  Co0  1  0.62500000  0.12500000  0.12500000  1
  Co  Co1  1  0.12500000  0.62500000  0.12500000  1
  Co  Co2  1  0.12500000  0.12500000  0.62500000  1
  Co  Co3  1  0.12500000  0.12500000  0.12500000  1
  Sb  Sb0  1  0.12500000  0.62500000  0.62500000  1
  Sb  Sb1  1  0.62500000  0.12500000  0.62500000  1
  Sb  Sb2  1  0.62500000  0.62500000  0.12500000  1
  Sb  Sb3  1  0.62500000  0.62500000  0.62500000  1
  O  O0  1  0.70633100  0.70633100  0.29366900  1
  O  O1  1  0.29366900  0.29366900  0.70633100  1
  O  O2  1  0.70633100  0.29366900  0.70633100  1
  O  O3  1  0.29366900  0.70633100  0.29366900  1
  O  O4  1  0.29366900  0.70633100  0.70633100  1
  O  O5  1  0.70633100  0.29366900  0.29366900  1
  O  O6  1  0.54366900  0.54366900  0.95633100  1
  O  O7  1  0.95633100  0.95633100  0.54366900  1
  O  O8  1  0.54366900  0.95633100  0.54366900  1
  O  O9  1  0.95633100  0.54366900  0.95633100  1
  O  O10  1  0.95633100  0.54366900  0.54366900  1
  O  O11  1  0.54366900  0.95633100  0.95633100  1
  O  O12  1  0.25000000  0.25000000  0.25000000  1
  O  O13  1  0.00000000  0.00000000  0.00000000  1
loop_
_geom_bond_atom_site_label_1
_geom_bond_atom_site_label_2
_geom_bond_distance
_geom_bond_site_symmetry_2
Co0 O12 2.201557 1_555
Co0 O13 2.201557 1_655
Co0 O5 2.484527 1_555
Co0 O6 2.484527 1_554
Co0 O8 2.484527 1_545
Co0 O2 2.484527 1_554
Co0 O0 2.484527 1_545
Co0 O11 2.484527 1_544
Co1 O13 2.201557 1_565
Co1 O12 2.201557 1_555
Co1 O3 2.484527 1_555
Co1 O10 2.484527 1_455
Co1 O6 2.484527 1_554
Co1 O0 2.484527 1_455
Co1 O4 2.484527 1_554
Co1 O9 2.484527 1_454
Co2 O12 2.201557 1_555
Co2 O13 2.201557 1_556
Co2 O1 2.484527 1_555
Co2 O10 2.484527 1_455
Co2 O8 2.484527 1_545
Co2 O2 2.484527 1_455
Co2 O4 2.484527 1_545
Co2 O7 2.484527 1_445
Co3 O12 2.201557 1_555
Co3 O13 2.201557 1_555
Co3 O11 2.484527 1_544
Co3 O9 2.484527 1_454
Co3 O7 2.484527 1_445
Co3 O5 2.484527 1_455
Co3 O3 2.484527 1_545
Co3 O1 2.484527 1_554
O0 Sb2 1.978685 1_555
O0 Sb3 1.978685 1_555
O1 Sb1 1.978685 1_555
O1 Sb0 1.978685 1_555
O2 Sb1 1.978685 1_555
O2 Sb3 1.978685 1_555
O3 Sb0 1.978685 1_555
O3 Sb2 1.978685 1_555
O4 Sb0 1.978685 1_555
O4 Sb3 1.978685 1_555
O5 Sb2 1.978685 1_555
O5 Sb1 1.978685 1_555
O6 Sb3 1.978685 1_555
O6 Sb2 1.978685 1_556
O7 Sb0 1.978685 1_655
O7 Sb1 1.978685 1_565
O8 Sb3 1.978685 1_555
O8 Sb1 1.978685 1_565
O9 Sb2 1.978685 1_556
O9 Sb0 1.978685 1_655
O10 Sb3 1.978685 1_555
O10 Sb0 1.978685 1_655
O11 Sb2 1.978685 1_556
O11 Sb1 1.978685 1_565
