# generated using pymatgen
data_AlCoO3
_symmetry_space_group_name_H-M   'P 1'
_cell_length_a   5.41447980
_cell_length_b   5.41447980
_cell_length_c   11.55758800
_cell_angle_alpha   90.00000000
_cell_angle_beta   90.00000000
_cell_angle_gamma   119.99999758
_symmetry_Int_Tables_number   1
_chemical_formula_structural   AlCoO3
_chemical_formula_sum   'Al6 Co6 O18'
_cell_volume   293.43460356
_cell_formula_units_Z   6
loop_
 _symmetry_equiv_pos_site_id
 _symmetry_equiv_pos_as_xyz
  1  'x, y, z'
loop_
 _atom_site_type_symbol
 _atom_site_label
 _atom_site_symmetry_multiplicity
 _atom_site_fract_x
 _atom_site_fract_y
 _atom_site_fract_z
 _atom_site_occupancy
  Al  Al0  1  0.66666700  0.33333300  0.24968500  1
  Al  Al1  1  0.33333300  0.66666700  0.74968500  1
  Al  Al2  1  0.66666700  0.33333300  0.74968500  1
  Al  Al3  1  0.33333300  0.66666700  0.24968500  1
  Al  Al4  1  0.00000000  0.00000000  0.76513700  1
  Al  Al5  1  0.00000000  0.00000000  0.26513700  1
  Co  Co0  1  0.67248900  0.00000000  0.50080000  1
  Co  Co1  1  0.67248900  0.67248900  0.00080000  1
  Co  Co2  1  0.00000000  0.32751100  0.00080000  1
  Co  Co3  1  0.00000000  0.67248900  0.50080000  1
  Co  Co4  1  0.32751100  0.32751100  0.50080000  1
  Co  Co5  1  0.32751100  0.00000000  0.00080000  1
  O  O0  1  0.66666700  0.33333300  0.02171100  1
  O  O1  1  0.33333300  0.66666700  0.52171100  1
  O  O2  1  0.66666700  0.33333300  0.52171100  1
  O  O3  1  0.33333300  0.66666700  0.02171100  1
  O  O4  1  0.00000000  0.00000000  0.94515600  1
  O  O5  1  0.00000000  0.00000000  0.44515600  1
  O  O6  1  0.37353500  0.00000000  0.82967800  1
  O  O7  1  0.37353500  0.37353500  0.32967800  1
  O  O8  1  0.00000000  0.62646500  0.32967800  1
  O  O9  1  0.00000000  0.37353500  0.82967800  1
  O  O10  1  0.62646500  0.62646500  0.82967800  1
  O  O11  1  0.62646500  0.00000000  0.32967800  1
  O  O12  1  0.31015500  0.00000000  0.17682700  1
  O  O13  1  0.31015500  0.31015500  0.67682700  1
  O  O14  1  0.00000000  0.68984500  0.67682700  1
  O  O15  1  0.00000000  0.31015500  0.17682700  1
  O  O16  1  0.68984500  0.68984500  0.17682700  1
  O  O17  1  0.68984500  0.00000000  0.67682700  1
loop_
_geom_bond_atom_site_label_1
_geom_bond_atom_site_label_2
_geom_bond_distance
_geom_bond_site_symmetry_2
Al0 O11 1.940789 1_555
Al0 O8 1.940791 1_655
Al0 O7 1.940794 1_555
Al0 O15 2.051514 1_655
Al0 O12 2.051517 1_555
Al0 O16 2.051519 1_555
Al1 O6 1.940789 1_565
Al1 O9 1.940791 1_555
Al1 O10 1.940794 1_555
Al1 O14 2.051514 1_555
Al1 O17 2.051517 1_565
Al1 O13 2.051519 1_555
Al2 O9 1.940789 1_655
Al2 O6 1.940791 1_555
Al2 O10 1.940794 1_555
Al2 O17 2.051514 1_555
Al2 O14 2.051517 1_655
Al2 O13 2.051519 1_555
Al3 O8 1.940789 1_555
Al3 O11 1.940791 1_565
Al3 O7 1.940794 1_555
Al3 O12 2.051514 1_565
Al3 O15 2.051517 1_555
Al3 O16 2.051519 1_555
Al4 O14 1.965164 1_545
Al4 O17 1.965164 1_455
Al4 O13 1.965164 1_555
Al4 O4 2.080585 1_555
Al4 O6 2.155672 1_555
Al4 O9 2.155672 1_555
Al4 O10 2.155672 1_445
Al5 O15 1.965164 1_555
Al5 O12 1.965164 1_555
Al5 O16 1.965164 1_445
Al5 O5 2.080585 1_555
Al5 O8 2.155672 1_545
Al5 O11 2.155672 1_455
Al5 O7 2.155672 1_555
Co0 O2 1.836761 1_555
Co0 O1 1.836763 1_545
Co0 O5 1.886316 1_655
Co0 O11 1.993395 1_555
Co0 O17 2.036617 1_555
Co1 O3 1.836766 1_555
Co1 O0 1.836766 1_555
Co1 O4 1.886317 1_664
Co1 O10 1.993395 1_554
Co1 O16 2.036617 1_555
Co2 O0 1.836761 1_455
Co2 O3 1.836763 1_555
Co2 O4 1.886316 1_554
Co2 O9 1.993395 1_554
Co2 O15 2.036617 1_555
Co3 O1 1.836761 1_555
Co3 O2 1.836763 1_455
Co3 O5 1.886316 1_565
Co3 O8 1.993395 1_555
Co3 O14 2.036617 1_555
Co4 O2 1.836766 1_555
Co4 O1 1.836766 1_555
Co4 O5 1.886317 1_555
Co4 O7 1.993395 1_555
Co4 O13 2.036617 1_555
Co5 O3 1.836761 1_545
Co5 O0 1.836763 1_555
Co5 O4 1.886316 1_554
Co5 O6 1.993395 1_554
Co5 O12 2.036617 1_555
