# generated using pymatgen
data_ErTe2
_symmetry_space_group_name_H-M   'P 1'
_cell_length_a   4.42521700
_cell_length_b   4.42521700
_cell_length_c   8.84654300
_cell_angle_alpha   90.00000000
_cell_angle_beta   90.00000000
_cell_angle_gamma   90.00000000
_symmetry_Int_Tables_number   1
_chemical_formula_structural   ErTe2
_chemical_formula_sum   'Er2 Te4'
_cell_volume   173.23783079
_cell_formula_units_Z   2
loop_
 _symmetry_equiv_pos_site_id
 _symmetry_equiv_pos_as_xyz
  1  'x, y, z'
loop_
 _atom_site_type_symbol
 _atom_site_label
 _atom_site_symmetry_multiplicity
 _atom_site_fract_x
 _atom_site_fract_y
 _atom_site_fract_z
 _atom_site_occupancy
  Er  Er0  1  0.00000000  0.50000000  0.72903900  1
  Er  Er1  1  0.50000000  0.00000000  0.27096100  1
  Te  Te0  1  0.00000000  0.50000000  0.37271500  1
  Te  Te1  1  0.50000000  0.00000000  0.62728500  1
  Te  Te2  1  0.00000000  0.00000000  0.00000000  1
  Te  Te3  1  0.50000000  0.50000000  0.00000000  1
loop_
_geom_bond_atom_site_label_1
_geom_bond_atom_site_label_2
_geom_bond_distance
_geom_bond_site_symmetry_2
Er0 Te0 3.152236 1_555
Er0 Te1 3.256007 1_565
Er0 Te1 3.256007 1_455
Er0 Te1 3.256007 1_555
Er0 Te1 3.256007 1_465
Er0 Te3 3.262142 1_556
Er0 Te2 3.262142 1_566
Er0 Te2 3.262142 1_556
Er0 Te3 3.262142 1_456
Er1 Te1 3.152236 1_555
Er1 Te0 3.256007 1_645
Er1 Te0 3.256007 1_555
Er1 Te0 3.256007 1_545
Er1 Te0 3.256007 1_655
Er1 Te2 3.262142 1_555
Er1 Te3 3.262142 1_545
Er1 Te3 3.262142 1_555
Er1 Te2 3.262142 1_655
Te2 Te3 3.129101 1_445
Te2 Te3 3.129101 1_455
Te2 Te3 3.129101 1_555
Te2 Te3 3.129101 1_545
