# generated using pymatgen
data_CaSm4(Mo2O7)2
_symmetry_space_group_name_H-M   'P 1'
_cell_length_a   7.72729156
_cell_length_b   7.71743338
_cell_length_c   7.72689688
_cell_angle_alpha   58.92309546
_cell_angle_beta   59.06523544
_cell_angle_gamma   58.92532328
_symmetry_Int_Tables_number   1
_chemical_formula_structural   CaSm4(Mo2O7)2
_chemical_formula_sum   'Ca1 Sm4 Mo4 O14'
_cell_volume   318.18057805
_cell_formula_units_Z   1
loop_
 _symmetry_equiv_pos_site_id
 _symmetry_equiv_pos_as_xyz
  1  'x, y, z'
loop_
 _atom_site_type_symbol
 _atom_site_label
 _atom_site_symmetry_multiplicity
 _atom_site_fract_x
 _atom_site_fract_y
 _atom_site_fract_z
 _atom_site_occupancy
  Ca  Ca0  1  0.74894900  0.74230800  0.74894300  1
  Sm  Sm0  1  0.47066100  0.99921400  0.47068900  1
  Sm  Sm1  1  0.49497500  0.49272100  0.49498900  1
  Sm  Sm2  1  0.47611200  0.46458600  0.00356700  1
  Sm  Sm3  1  0.00356400  0.46461000  0.47609000  1
  Mo  Mo0  1  0.00342700  0.00618700  0.00342000  1
  Mo  Mo1  1  0.00474000  0.00563200  0.49601900  1
  Mo  Mo2  1  0.49602000  0.00563600  0.00472600  1
  Mo  Mo3  1  0.00773400  0.49826900  0.00771200  1
  O  O0  1  0.68019700  0.09651100  0.68022300  1
  O  O1  1  0.10278600  0.67927900  0.66821800  1
  O  O2  1  0.90486200  0.33413000  0.34472600  1
  O  O3  1  0.66822300  0.67923500  0.10279400  1
  O  O4  1  0.37451300  0.36663800  0.37453100  1
  O  O5  1  0.89596400  0.36578900  0.89597000  1
  O  O6  1  0.09623900  0.08574500  0.65143200  1
  O  O7  1  0.35615100  0.92205500  0.90407500  1
  O  O8  1  0.34470300  0.33415100  0.90487300  1
  O  O9  1  0.10162100  0.65041400  0.10161300  1
  O  O10  1  0.62140100  0.62626200  0.62139700  1
  O  O11  1  0.33269000  0.91394400  0.33265500  1
  O  O12  1  0.90410200  0.92202700  0.35615100  1
  O  O13  1  0.65143700  0.08572700  0.09625700  1
loop_
_geom_bond_atom_site_label_1
_geom_bond_atom_site_label_2
_geom_bond_distance
_geom_bond_site_symmetry_2
Ca0 O3 2.299498 1_556
Ca0 O1 2.299649 1_655
Ca0 O0 2.308423 1_565
Ca0 O5 2.352839 1_555
Ca0 O10 2.359196 1_555
Ca0 O12 2.490447 1_555
Ca0 O7 2.490669 1_555
Mo0 O12 2.230636 1_445
Mo0 O7 2.230765 1_544
Mo0 O9 2.231731 1_545
Mo0 O6 2.239123 1_554
Mo0 O13 2.239295 1_455
Mo0 O5 2.243160 1_454
Mo1 O2 2.058516 1_455
Mo1 O12 2.071477 1_445
Mo1 O1 2.072371 1_545
Mo1 O11 2.073224 1_545
Mo1 O0 2.086148 1_455
Mo1 O6 2.101169 1_555
Mo2 O8 2.058654 1_554
Mo2 O7 2.071434 1_544
Mo2 O3 2.072681 1_545
Mo2 O11 2.072937 1_545
Mo2 O0 2.085773 1_554
Mo2 O13 2.101282 1_555
Mo3 O8 2.126719 1_554
Mo3 O2 2.126847 1_455
Mo3 O1 2.160415 1_554
Mo3 O3 2.160618 1_455
Mo3 O9 2.175210 1_555
Mo3 O5 2.264143 1_454
O0 Sm1 2.552832 1_555
O1 Sm1 2.522610 1_555
O2 Sm3 2.295642 1_655
O2 Sm1 2.561704 1_555
O3 Sm1 2.522427 1_555
O4 Sm0 2.315646 1_545
O4 Sm1 2.332460 1_555
O4 Sm2 2.337967 1_555
O4 Sm3 2.338053 1_555
O5 Sm3 2.669391 1_655
O5 Sm2 2.669428 1_556
O6 Sm0 2.362489 1_545
O6 Sm3 2.375671 1_555
O7 Sm0 2.791123 1_555
O7 Sm2 2.909792 1_556
O8 Sm2 2.295603 1_556
O8 Sm1 2.561492 1_555
O9 Sm3 2.363660 1_555
O9 Sm2 2.363950 1_555
O10 Sm0 2.338911 1_555
O10 Sm2 2.402316 1_556
O10 Sm3 2.402441 1_655
O10 Sm1 2.455636 1_555
O11 Sm0 2.307650 1_555
O11 Sm1 2.629217 1_555
O12 Sm0 2.791621 1_555
O12 Sm3 2.909495 1_655
O13 Sm0 2.362436 1_545
O13 Sm2 2.375652 1_555
