# generated using pymatgen
data_Ag6Sn3(S5N)2
_symmetry_space_group_name_H-M   'P 1'
_cell_length_a   6.61576300
_cell_length_b   13.91222400
_cell_length_c   22.73063400
_cell_angle_alpha   90.00000000
_cell_angle_beta   90.00000000
_cell_angle_gamma   90.00000000
_symmetry_Int_Tables_number   1
_chemical_formula_structural   Ag6Sn3(S5N)2
_chemical_formula_sum   'Ag24 Sn12 S40 N8'
_cell_volume   2092.12702571
_cell_formula_units_Z   4
loop_
 _symmetry_equiv_pos_site_id
 _symmetry_equiv_pos_as_xyz
  1  'x, y, z'
loop_
 _atom_site_type_symbol
 _atom_site_label
 _atom_site_symmetry_multiplicity
 _atom_site_fract_x
 _atom_site_fract_y
 _atom_site_fract_z
 _atom_site_occupancy
  Ag  Ag0  1  0.02073300  0.79817100  0.08272300  1
  Ag  Ag1  1  0.47926700  0.29817100  0.41727700  1
  Ag  Ag2  1  0.47926700  0.20182900  0.58272300  1
  Ag  Ag3  1  0.02073300  0.70182900  0.91727700  1
  Ag  Ag4  1  0.97926700  0.20182900  0.91727700  1
  Ag  Ag5  1  0.52073300  0.70182900  0.58272300  1
  Ag  Ag6  1  0.52073300  0.79817100  0.41727700  1
  Ag  Ag7  1  0.97926700  0.29817100  0.08272300  1
  Ag  Ag8  1  0.45515900  0.51724900  0.10943400  1
  Ag  Ag9  1  0.04484100  0.01724900  0.39056600  1
  Ag  Ag10  1  0.04484100  0.48275100  0.60943400  1
  Ag  Ag11  1  0.45515900  0.98275100  0.89056600  1
  Ag  Ag12  1  0.54484100  0.48275100  0.89056600  1
  Ag  Ag13  1  0.95515900  0.98275100  0.60943400  1
  Ag  Ag14  1  0.95515900  0.51724900  0.39056600  1
  Ag  Ag15  1  0.54484100  0.01724900  0.10943400  1
  Ag  Ag16  1  0.91415100  0.90845400  0.96842100  1
  Ag  Ag17  1  0.58584900  0.40845400  0.53157900  1
  Ag  Ag18  1  0.58584900  0.09154600  0.46842100  1
  Ag  Ag19  1  0.91415100  0.59154600  0.03157900  1
  Ag  Ag20  1  0.08584900  0.09154600  0.03157900  1
  Ag  Ag21  1  0.41415100  0.59154600  0.46842100  1
  Ag  Ag22  1  0.41415100  0.90845400  0.53157900  1
  Ag  Ag23  1  0.08584900  0.40845400  0.96842100  1
  Sn  Sn0  1  0.94169100  0.55194800  0.19668000  1
  Sn  Sn1  1  0.55830900  0.05194800  0.30332000  1
  Sn  Sn2  1  0.55830900  0.44805200  0.69668000  1
  Sn  Sn3  1  0.94169100  0.94805200  0.80332000  1
  Sn  Sn4  1  0.05830900  0.44805200  0.80332000  1
  Sn  Sn5  1  0.44169100  0.94805200  0.69668000  1
  Sn  Sn6  1  0.44169100  0.55194800  0.30332000  1
  Sn  Sn7  1  0.05830900  0.05194800  0.19668000  1
  Sn  Sn8  1  0.47303200  0.75000000  0.00000000  1
  Sn  Sn9  1  0.02696800  0.25000000  0.50000000  1
  Sn  Sn10  1  0.52696800  0.25000000  0.00000000  1
  Sn  Sn11  1  0.97303200  0.75000000  0.50000000  1
  S  S0  1  0.68899200  0.86430400  0.05279100  1
  S  S1  1  0.81100800  0.36430400  0.44720900  1
  S  S2  1  0.81100800  0.13569600  0.55279100  1
  S  S3  1  0.68899200  0.63569600  0.94720900  1
  S  S4  1  0.31100800  0.13569600  0.94720900  1
  S  S5  1  0.18899200  0.63569600  0.55279100  1
  S  S6  1  0.18899200  0.86430400  0.44720900  1
  S  S7  1  0.31100800  0.36430400  0.05279100  1
  S  S8  1  0.25329100  0.66059100  0.06805700  1
  S  S9  1  0.24670900  0.16059100  0.43194300  1
  S  S10  1  0.24670900  0.33940900  0.56805700  1
  S  S11  1  0.25329100  0.83940900  0.93194300  1
  S  S12  1  0.74670900  0.33940900  0.93194300  1
  S  S13  1  0.75329100  0.83940900  0.56805700  1
  S  S14  1  0.75329100  0.66059100  0.43194300  1
  S  S15  1  0.74670900  0.16059100  0.06805700  1
  S  S16  1  0.87700800  0.74493100  0.22078000  1
  S  S17  1  0.62299200  0.24493100  0.27922000  1
  S  S18  1  0.62299200  0.25506900  0.72078000  1
  S  S19  1  0.87700800  0.75506900  0.77922000  1
  S  S20  1  0.12299200  0.25506900  0.77922000  1
  S  S21  1  0.37700800  0.75506900  0.72078000  1
  S  S22  1  0.37700800  0.74493100  0.27922000  1
  S  S23  1  0.12299200  0.24493100  0.22078000  1
  S  S24  1  0.78583900  0.48452200  0.28919100  1
  S  S25  1  0.71416100  0.98452200  0.21080900  1
  S  S26  1  0.71416100  0.51547800  0.78919100  1
  S  S27  1  0.78583900  0.01547800  0.71080900  1
  S  S28  1  0.21416100  0.51547800  0.71080900  1
  S  S29  1  0.28583900  0.01547800  0.78919100  1
  S  S30  1  0.28583900  0.48452200  0.21080900  1
  S  S31  1  0.21416100  0.98452200  0.28919100  1
  S  S32  1  0.82062800  0.46804700  0.10900500  1
  S  S33  1  0.67937200  0.96804700  0.39099500  1
  S  S34  1  0.67937200  0.53195300  0.60900500  1
  S  S35  1  0.82062800  0.03195300  0.89099500  1
  S  S36  1  0.17937200  0.53195300  0.89099500  1
  S  S37  1  0.32062800  0.03195300  0.60900500  1
  S  S38  1  0.32062800  0.46804700  0.39099500  1
  S  S39  1  0.17937200  0.96804700  0.10900500  1
  N  N0  1  0.97956100  0.76212600  0.27848900  1
  N  N1  1  0.52043900  0.26212600  0.22151100  1
  N  N2  1  0.52043900  0.23787400  0.77848900  1
  N  N3  1  0.97956100  0.73787400  0.72151100  1
  N  N4  1  0.02043900  0.23787400  0.72151100  1
  N  N5  1  0.47956100  0.73787400  0.77848900  1
  N  N6  1  0.47956100  0.76212600  0.22151100  1
  N  N7  1  0.02043900  0.26212600  0.27848900  1
loop_
_geom_bond_atom_site_label_1
_geom_bond_atom_site_label_2
_geom_bond_distance
_geom_bond_site_symmetry_2
Ag0 S0 2.475118 1_455
Ag0 S8 2.478271 1_555
Ag0 S39 2.654020 1_555
Ag1 S1 2.475118 1_555
Ag1 S9 2.478271 1_555
Ag1 S38 2.654020 1_555
Ag2 S2 2.475118 1_555
Ag2 S10 2.478271 1_555
Ag2 S37 2.654020 1_555
Ag3 S3 2.475118 1_455
Ag3 S11 2.478271 1_555
Ag3 S36 2.654020 1_555
Ag4 S4 2.475118 1_655
Ag4 S12 2.478271 1_555
Ag4 S35 2.654020 1_555
Ag5 S5 2.475118 1_555
Ag5 S13 2.478271 1_555
Ag5 S34 2.654020 1_555
Ag6 S6 2.475118 1_555
Ag6 S14 2.478271 1_555
Ag6 S33 2.654020 1_555
Ag7 S7 2.475118 1_655
Ag7 S15 2.478271 1_555
Ag7 S32 2.654020 1_555
Ag8 S32 2.512902 1_555
Ag8 S8 2.577797 1_555
Ag8 S30 2.602305 1_555
Ag8 S7 2.663602 1_555
Ag9 S33 2.512902 1_445
Ag9 S9 2.577797 1_555
Ag9 S31 2.602305 1_545
Ag9 S6 2.663602 1_545
Ag10 S34 2.512902 1_455
Ag10 S10 2.577797 1_555
Ag10 S28 2.602305 1_555
Ag10 S5 2.663602 1_555
Ag11 S35 2.512902 1_565
Ag11 S11 2.577797 1_555
Ag11 S29 2.602305 1_565
Ag11 S4 2.663602 1_565
Ag12 S36 2.512902 1_555
Ag12 S12 2.577797 1_555
Ag12 S26 2.602305 1_555
Ag12 S3 2.663602 1_555
Ag13 S37 2.512902 1_665
Ag13 S13 2.577797 1_555
Ag13 S27 2.602305 1_565
Ag13 S2 2.663602 1_565
Ag14 S38 2.512902 1_655
Ag14 S14 2.577797 1_555
Ag14 S24 2.602305 1_555
Ag14 S1 2.663602 1_555
Ag15 S39 2.512902 1_545
Ag15 S15 2.577797 1_555
Ag15 S25 2.602305 1_545
Ag15 S0 2.663602 1_545
Ag16 S0 2.504809 1_556
Ag16 S35 2.536187 1_565
Ag16 S11 2.577648 1_655
Ag17 S1 2.504809 1_555
Ag17 S34 2.536187 1_555
Ag17 S10 2.577648 1_555
Ag18 S2 2.504809 1_555
Ag18 S33 2.536187 1_545
Ag18 S9 2.577648 1_555
Ag19 S3 2.504809 1_554
Ag19 S32 2.536187 1_555
Ag19 S8 2.577648 1_655
Ag20 S4 2.504809 1_554
Ag20 S39 2.536187 1_545
Ag20 S15 2.577648 1_455
Ag21 S5 2.504809 1_555
Ag21 S38 2.536187 1_555
Ag21 S14 2.577648 1_555
Ag22 S6 2.504809 1_555
Ag22 S37 2.536187 1_565
Ag22 S13 2.577648 1_555
Ag23 S7 2.504809 1_556
Ag23 S36 2.536187 1_555
Ag23 S12 2.577648 1_455
S0 Sn8 2.451539 1_555
S1 Sn9 2.451539 1_655
S2 Sn9 2.451539 1_655
S3 Sn8 2.451539 1_556
S4 Sn10 2.451539 1_556
S5 Sn11 2.451539 1_455
S6 Sn11 2.451539 1_455
S7 Sn10 2.451539 1_555
S8 Sn8 2.460443 1_555
S9 Sn9 2.460443 1_555
S10 Sn9 2.460443 1_555
S11 Sn8 2.460443 1_556
S12 Sn10 2.460443 1_556
S13 Sn11 2.460443 1_555
S14 Sn11 2.460443 1_555
S15 Sn10 2.460443 1_555
S16 Sn0 2.773353 1_555
S17 Sn1 2.773353 1_555
S18 Sn2 2.773353 1_555
S19 Sn3 2.773353 1_555
S20 Sn4 2.773353 1_555
S21 Sn5 2.773353 1_555
S22 Sn6 2.773353 1_555
S23 Sn7 2.773353 1_555
S24 Sn6 2.483324 1_555
S24 Sn0 2.522888 1_555
S25 Sn7 2.483324 1_665
S25 Sn1 2.522888 1_565
S26 Sn4 2.483324 1_655
S26 Sn2 2.522888 1_555
S27 Sn5 2.483324 1_545
S27 Sn3 2.522888 1_545
S28 Sn2 2.483324 1_555
S28 Sn4 2.522888 1_555
S29 Sn3 2.483324 1_445
S29 Sn5 2.522888 1_545
S30 Sn0 2.483324 1_455
S30 Sn6 2.522888 1_555
S31 Sn1 2.483324 1_565
S31 Sn7 2.522888 1_565
S32 Sn0 2.444511 1_555
S33 Sn1 2.444511 1_565
S34 Sn2 2.444511 1_555
S35 Sn3 2.444511 1_545
S36 Sn4 2.444511 1_555
S37 Sn5 2.444511 1_545
S38 Sn6 2.444511 1_555
S39 Sn7 2.444511 1_565
N0 S16 1.496083 1_555
N1 S17 1.496083 1_555
N2 S18 1.496083 1_555
N3 S19 1.496083 1_555
N4 S20 1.496083 1_555
N5 S21 1.496083 1_555
N6 S22 1.496083 1_555
N7 S23 1.496083 1_555
