# generated using pymatgen
data_CaTi(SiO3)2
_symmetry_space_group_name_H-M   'P 1'
_cell_length_a   6.83641523
_cell_length_b   6.83641523
_cell_length_c   5.26019407
_cell_angle_alpha   78.90873204
_cell_angle_beta   78.90873204
_cell_angle_gamma   82.93986007
_symmetry_Int_Tables_number   1
_chemical_formula_structural   CaTi(SiO3)2
_chemical_formula_sum   'Ca2 Ti2 Si4 O12'
_cell_volume   235.80164126
_cell_formula_units_Z   2
loop_
 _symmetry_equiv_pos_site_id
 _symmetry_equiv_pos_as_xyz
  1  'x, y, z'
loop_
 _atom_site_type_symbol
 _atom_site_label
 _atom_site_symmetry_multiplicity
 _atom_site_fract_x
 _atom_site_fract_y
 _atom_site_fract_z
 _atom_site_occupancy
  Ca  Ca0  1  0.70204100  0.29795900  0.75000000  1
  Ca  Ca1  1  0.29795900  0.70204100  0.25000000  1
  Ti  Ti0  1  0.92131400  0.07868600  0.25000000  1
  Ti  Ti1  1  0.07868600  0.92131400  0.75000000  1
  Si  Si0  1  0.38743900  0.19664100  0.26570600  1
  Si  Si1  1  0.80335900  0.61256100  0.23429400  1
  Si  Si2  1  0.19664100  0.38743900  0.76570600  1
  Si  Si3  1  0.61256100  0.80335900  0.73429400  1
  O  O0  1  0.36960500  0.33182800  0.50579300  1
  O  O1  1  0.66817200  0.63039500  0.99420700  1
  O  O2  1  0.63039500  0.66817200  0.49420700  1
  O  O3  1  0.33182800  0.36960500  0.00579300  1
  O  O4  1  0.61688100  0.11941000  0.17463800  1
  O  O5  1  0.88059000  0.38311900  0.32536200  1
  O  O6  1  0.38311900  0.88059000  0.82536200  1
  O  O7  1  0.11941000  0.61688100  0.67463800  1
  O  O8  1  0.03158500  0.22416600  0.84794000  1
  O  O9  1  0.77583400  0.96841500  0.65206000  1
  O  O10  1  0.22416600  0.03158500  0.34794000  1
  O  O11  1  0.96841500  0.77583400  0.15206000  1
loop_
_geom_bond_atom_site_label_1
_geom_bond_atom_site_label_2
_geom_bond_distance
_geom_bond_site_symmetry_2
Ca0 O4 2.333145 1_556
Ca0 O5 2.333145 1_555
Ca0 O9 2.379631 1_545
Ca0 O8 2.379631 1_655
Ca0 O3 2.663559 1_556
Ca0 O2 2.663559 1_555
Ca0 O1 2.783562 1_555
Ca0 O0 2.783562 1_555
Ca1 O7 2.333145 1_555
Ca1 O6 2.333145 1_554
Ca1 O11 2.379631 1_455
Ca1 O10 2.379631 1_565
Ca1 O0 2.663559 1_555
Ca1 O1 2.663559 1_554
Ca1 O2 2.783562 1_555
Ca1 O3 2.783562 1_555
O0 Si0 1.681086 1_555
O0 Si2 1.696888 1_555
O1 Si1 1.681086 1_556
O1 Si3 1.696888 1_555
O2 Si3 1.681086 1_555
O2 Si1 1.696888 1_555
O3 Si2 1.681086 1_554
O3 Si0 1.696888 1_555
O4 Si0 1.604137 1_555
O4 Ti0 2.167650 1_555
O5 Si1 1.604137 1_555
O5 Ti0 2.167650 1_555
O6 Si3 1.604137 1_555
O6 Ti1 2.167650 1_555
O7 Si2 1.604137 1_555
O7 Ti1 2.167650 1_555
O8 Si2 1.625528 1_555
O8 Ti0 2.189048 1_456
O8 Ti1 2.199642 1_545
O9 Si3 1.625528 1_555
O9 Ti0 2.189048 1_565
O9 Ti1 2.199642 1_655
O10 Si0 1.625528 1_555
O10 Ti1 2.189048 1_545
O10 Ti0 2.199642 1_455
O11 Si1 1.625528 1_555
O11 Ti1 2.189048 1_654
O11 Ti0 2.199642 1_565
