# generated using pymatgen
data_Cd2SnO4
_symmetry_space_group_name_H-M   'P 1'
_cell_length_a   6.59859462
_cell_length_b   6.59859462
_cell_length_c   6.59859462
_cell_angle_alpha   60.00000000
_cell_angle_beta   60.00000000
_cell_angle_gamma   60.00000000
_symmetry_Int_Tables_number   1
_chemical_formula_structural   Cd2SnO4
_chemical_formula_sum   'Cd4 Sn2 O8'
_cell_volume   203.16053480
_cell_formula_units_Z   2
loop_
 _symmetry_equiv_pos_site_id
 _symmetry_equiv_pos_as_xyz
  1  'x, y, z'
loop_
 _atom_site_type_symbol
 _atom_site_label
 _atom_site_symmetry_multiplicity
 _atom_site_fract_x
 _atom_site_fract_y
 _atom_site_fract_z
 _atom_site_occupancy
  Cd  Cd0  1  0.62500000  0.12500000  0.12500000  1
  Cd  Cd1  1  0.12500000  0.62500000  0.12500000  1
  Cd  Cd2  1  0.12500000  0.12500000  0.62500000  1
  Cd  Cd3  1  0.12500000  0.12500000  0.12500000  1
  Sn  Sn0  1  0.50000000  0.50000000  0.50000000  1
  Sn  Sn1  1  0.75000000  0.75000000  0.75000000  1
  O  O0  1  0.87253800  0.37582100  0.37582100  1
  O  O1  1  0.37582100  0.87253800  0.37582100  1
  O  O2  1  0.37582100  0.37582100  0.87253800  1
  O  O3  1  0.37582100  0.37582100  0.37582100  1
  O  O4  1  0.37746200  0.87417900  0.87417900  1
  O  O5  1  0.87417900  0.37746200  0.87417900  1
  O  O6  1  0.87417900  0.87417900  0.37746200  1
  O  O7  1  0.87417900  0.87417900  0.87417900  1
loop_
_geom_bond_atom_site_label_1
_geom_bond_atom_site_label_2
_geom_bond_distance
_geom_bond_site_symmetry_2
Cd0 O1 2.340637 1_545
Cd0 O2 2.340637 1_554
Cd0 O6 2.340637 1_545
Cd0 O5 2.340637 1_554
Cd0 O7 2.340642 1_544
Cd0 O3 2.340642 1_555
Cd1 O0 2.340637 1_455
Cd1 O2 2.340637 1_554
Cd1 O6 2.340637 1_455
Cd1 O4 2.340637 1_554
Cd1 O7 2.340642 1_454
Cd1 O3 2.340642 1_555
Cd2 O1 2.340637 1_545
Cd2 O0 2.340637 1_455
Cd2 O5 2.340637 1_455
Cd2 O4 2.340637 1_545
Cd2 O7 2.340642 1_445
Cd2 O3 2.340642 1_555
Cd3 O6 2.340642 1_445
Cd3 O4 2.340642 1_544
Cd3 O5 2.340642 1_454
Cd3 O1 2.340642 1_545
Cd3 O2 2.340642 1_554
Cd3 O0 2.340642 1_455
O0 Sn0 2.007134 1_555
O1 Sn0 2.007134 1_555
O2 Sn0 2.007134 1_555
O3 Sn0 2.007129 1_555
O4 Sn1 2.007134 1_555
O5 Sn1 2.007134 1_555
O6 Sn1 2.007134 1_555
O7 Sn1 2.007129 1_555
