# generated using pymatgen
data_LiZn(CoO2)4
_symmetry_space_group_name_H-M   'P 1'
_cell_length_a   2.90507892
_cell_length_b   7.45433140
_cell_length_c   7.39820293
_cell_angle_alpha   78.41686130
_cell_angle_beta   78.67686489
_cell_angle_gamma   78.80500591
_symmetry_Int_Tables_number   1
_chemical_formula_structural   LiZn(CoO2)4
_chemical_formula_sum   'Li1 Zn1 Co4 O8'
_cell_volume   151.88390364
_cell_formula_units_Z   1
loop_
 _symmetry_equiv_pos_site_id
 _symmetry_equiv_pos_as_xyz
  1  'x, y, z'
loop_
 _atom_site_type_symbol
 _atom_site_label
 _atom_site_symmetry_multiplicity
 _atom_site_fract_x
 _atom_site_fract_y
 _atom_site_fract_z
 _atom_site_occupancy
  Li  Li0  1  0.49937400  0.48714700  0.52372800  1
  Zn  Zn0  1  0.32629500  0.14919900  0.19674200  1
  Co  Co0  1  0.63584500  0.15876400  0.56859100  1
  Co  Co1  1  0.13769200  0.52965000  0.19212800  1
  Co  Co2  1  0.83614400  0.47854900  0.84394800  1
  Co  Co3  1  0.34158600  0.82061700  0.49309000  1
  O  O0  1  0.86463700  0.65277500  0.61448400  1
  O  O1  1  0.44389900  0.33936700  0.76649400  1
  O  O2  1  0.52638500  0.65355200  0.29053800  1
  O  O3  1  0.12691500  0.31236100  0.43393800  1
  O  O4  1  0.16926900  0.00318100  0.65733000  1
  O  O5  1  0.78481500  0.33681800  0.09060000  1
  O  O6  1  0.83600600  0.98739100  0.34012100  1
  O  O7  1  0.22567500  0.61030500  0.93341600  1
loop_
_geom_bond_atom_site_label_1
_geom_bond_atom_site_label_2
_geom_bond_distance
_geom_bond_site_symmetry_2
Li0 O1 1.904199 1_555
Li0 O2 1.909548 1_555
Li0 O0 2.054879 1_555
Li0 O0 2.082804 1_455
Li0 O3 2.100498 1_655
Li0 O3 2.118221 1_555
Co0 O4 1.889044 1_555
Co0 O4 1.890324 1_655
Co0 O3 1.988028 1_555
Co0 O3 1.989133 1_655
Co0 O1 2.108679 1_555
Co0 O6 2.240487 1_545
Co1 O7 1.869669 1_554
Co1 O2 1.912068 1_555
Co1 O2 1.913724 1_455
Co1 O3 2.158468 1_555
Co1 O5 2.233705 1_455
Co1 O5 2.234811 1_555
Co2 O5 1.910077 1_556
Co2 O1 1.911077 1_655
Co2 O1 1.912448 1_555
Co2 O7 1.915738 1_655
Co2 O7 1.916160 1_555
Co2 O0 1.917463 1_555
Co3 O4 1.933833 1_565
Co3 O0 2.006246 1_455
Co3 O0 2.006811 1_555
Co3 O2 2.063638 1_555
Co3 O6 2.088588 1_455
Co3 O6 2.092692 1_555
O3 Zn0 2.253579 1_555
O5 Zn0 2.053915 1_555
O5 Zn0 2.058367 1_655
O6 Zn0 2.041751 1_665
O6 Zn0 2.045026 1_565
