# generated using pymatgen
data_TaCo2N3
_symmetry_space_group_name_H-M   'P 1'
_cell_length_a   6.19282458
_cell_length_b   11.06117177
_cell_length_c   8.02394476
_cell_angle_alpha   90.00000435
_cell_angle_beta   90.64305286
_cell_angle_gamma   153.26076599
_symmetry_Int_Tables_number   1
_chemical_formula_structural   TaCo2N3
_chemical_formula_sum   'Ta4 Co8 N12'
_cell_volume   247.22265149
_cell_formula_units_Z   4
loop_
 _symmetry_equiv_pos_site_id
 _symmetry_equiv_pos_as_xyz
  1  'x, y, z'
loop_
 _atom_site_type_symbol
 _atom_site_label
 _atom_site_symmetry_multiplicity
 _atom_site_fract_x
 _atom_site_fract_y
 _atom_site_fract_z
 _atom_site_occupancy
  Ta  Ta0  1  0.38484700  0.22634400  0.63225300  1
  Ta  Ta1  1  0.61515300  0.84149600  0.86774700  1
  Ta  Ta2  1  0.61515300  0.77365600  0.36774700  1
  Ta  Ta3  1  0.38484700  0.15850400  0.13225300  1
  Co  Co0  1  0.67167200  0.14058000  0.85706000  1
  Co  Co1  1  0.32832800  0.46890800  0.64294000  1
  Co  Co2  1  0.32832800  0.85942000  0.14294000  1
  Co  Co3  1  0.67167200  0.53109200  0.35706000  1
  Co  Co4  1  0.27979100  0.84679300  0.60972900  1
  Co  Co5  1  0.72020900  0.56700200  0.89027100  1
  Co  Co6  1  0.72020900  0.15320700  0.39027100  1
  Co  Co7  1  0.27979100  0.43299800  0.10972900  1
  N  N0  1  0.00000000  0.59156800  0.75000000  1
  N  N1  1  0.00000000  0.40843200  0.25000000  1
  N  N2  1  0.66322900  0.18246700  0.60539600  1
  N  N3  1  0.33677100  0.51923900  0.89460400  1
  N  N4  1  0.33677100  0.81753300  0.39460400  1
  N  N5  1  0.66322900  0.48076100  0.10539600  1
  N  N6  1  0.30110900  0.09771500  0.88888000  1
  N  N7  1  0.69889100  0.79660600  0.61112000  1
  N  N8  1  0.69889100  0.90228500  0.11112000  1
  N  N9  1  0.30110900  0.20339400  0.38888000  1
  N  N10  1  0.00000000  0.16827500  0.75000000  1
  N  N11  1  0.00000000  0.83172500  0.25000000  1
loop_
_geom_bond_atom_site_label_1
_geom_bond_atom_site_label_2
_geom_bond_distance
_geom_bond_site_symmetry_2
Co0 N6 1.904200 1_555
Co0 N3 1.938389 1_655
Co0 N10 1.972991 1_655
Co0 N2 2.082312 1_555
Co1 N7 1.904200 1_555
Co1 N2 1.938386 1_455
Co1 N10 1.972992 1_555
Co1 N3 2.082315 1_555
Co2 N8 1.904200 1_555
Co2 N5 1.938389 1_455
Co2 N11 1.972991 1_555
Co2 N4 2.082312 1_555
Co3 N9 1.904200 1_555
Co3 N4 1.938386 1_655
Co3 N11 1.972992 1_655
Co3 N5 2.082315 1_555
Co4 N4 1.851086 1_555
Co4 N0 1.883005 1_555
Co4 N2 1.918325 1_565
Co4 N10 2.315961 1_665
Co5 N5 1.851090 1_556
Co5 N0 1.883005 1_655
Co5 N3 1.918334 1_555
Co5 N10 2.315961 1_555
Co6 N2 1.851086 1_555
Co6 N1 1.883005 1_655
Co6 N4 1.918325 1_545
Co6 N11 2.315961 1_545
Co7 N3 1.851090 1_554
Co7 N1 1.883005 1_555
Co7 N5 1.918334 1_555
Co7 N11 2.315961 1_655
N0 Ta0 2.038708 1_455
N0 Ta1 2.038712 1_555
N1 Ta2 2.038708 1_555
N1 Ta3 2.038712 1_455
N2 Ta0 2.181020 1_555
N3 Ta1 2.180999 1_555
N4 Ta2 2.181020 1_555
N5 Ta3 2.180999 1_555
N6 Ta3 1.972049 1_556
N6 Ta1 2.141640 1_445
N6 Ta0 2.288998 1_555
N7 Ta2 1.972048 1_555
N7 Ta0 2.141645 1_665
N7 Ta1 2.288994 1_555
N8 Ta1 1.972049 1_554
N8 Ta3 2.141640 1_665
N8 Ta2 2.288998 1_555
N9 Ta0 1.972048 1_555
N9 Ta2 2.141645 1_445
N9 Ta3 2.288994 1_555
N10 Ta0 2.074027 1_555
N10 Ta1 2.074035 1_445
N11 Ta2 2.074027 1_455
N11 Ta3 2.074035 1_565
