# generated using pymatgen
data_Lu(Fe5Mo)2
_symmetry_space_group_name_H-M   'P 1'
_cell_length_a   4.72119200
_cell_length_b   6.48386859
_cell_length_c   6.48386859
_cell_angle_alpha   97.35195555
_cell_angle_beta   111.35049259
_cell_angle_gamma   68.64950741
_symmetry_Int_Tables_number   1
_chemical_formula_structural   Lu(Fe5Mo)2
_chemical_formula_sum   'Lu1 Fe10 Mo2'
_cell_volume   172.17067892
_cell_formula_units_Z   1
loop_
 _symmetry_equiv_pos_site_id
 _symmetry_equiv_pos_as_xyz
  1  'x, y, z'
loop_
 _atom_site_type_symbol
 _atom_site_label
 _atom_site_symmetry_multiplicity
 _atom_site_fract_x
 _atom_site_fract_y
 _atom_site_fract_z
 _atom_site_occupancy
  Lu  Lu0  1  0.00000000  0.00000000  0.00000000  1
  Fe  Fe0  1  0.50000000  0.00000000  0.50000000  1
  Fe  Fe1  1  0.00000000  0.00000000  0.50000000  1
  Fe  Fe2  1  0.50000000  0.50000000  0.00000000  1
  Fe  Fe3  1  0.00000000  0.50000000  0.00000000  1
  Fe  Fe4  1  0.71781800  0.78218200  0.21781800  1
  Fe  Fe5  1  0.28218200  0.21781800  0.78218200  1
  Fe  Fe6  1  0.50000000  0.77826800  0.77826800  1
  Fe  Fe7  1  0.50000000  0.22173200  0.22173200  1
  Fe  Fe8  1  0.64266700  0.35733300  0.64266700  1
  Fe  Fe9  1  0.35733300  0.64266700  0.35733300  1
  Mo  Mo0  1  0.00000000  0.35640800  0.35640800  1
  Mo  Mo1  1  0.00000000  0.64359200  0.64359200  1
loop_
_geom_bond_atom_site_label_1
_geom_bond_atom_site_label_2
_geom_bond_distance
_geom_bond_site_symmetry_2
Lu0 Mo0 3.051855 1_555
Lu0 Mo1 3.051855 1_544
Fe0 Fe1 2.360596 1_555
Fe0 Fe1 2.360596 1_655
Fe0 Fe6 2.446655 1_545
Fe0 Fe7 2.446655 1_555
Fe0 Fe5 2.459848 1_555
Fe0 Fe4 2.459848 1_545
Fe0 Mo0 2.599563 1_555
Fe0 Mo1 2.599563 1_645
Fe0 Fe8 2.609890 1_555
Fe0 Fe9 2.609890 1_545
Fe0 Lu0 3.241934 1_656
Fe0 Lu0 3.241934 1_555
Fe1 Fe6 2.446655 1_545
Fe1 Fe7 2.446655 1_455
Fe1 Fe5 2.459848 1_555
Fe1 Fe4 2.459848 1_445
Fe1 Mo0 2.599563 1_555
Fe1 Mo1 2.599563 1_545
Fe1 Fe8 2.609890 1_455
Fe1 Fe9 2.609890 1_545
Fe1 Lu0 3.241934 1_556
Fe1 Lu0 3.241934 1_555
Fe2 Fe3 2.360596 1_655
Fe2 Fe3 2.360596 1_555
Fe2 Fe6 2.446655 1_554
Fe2 Fe7 2.446655 1_555
Fe2 Fe4 2.459848 1_555
Fe2 Fe5 2.459848 1_554
Fe2 Mo0 2.599563 1_655
Fe2 Mo1 2.599563 1_554
Fe2 Fe9 2.609890 1_555
Fe2 Fe8 2.609890 1_554
Fe2 Lu0 3.241934 1_655
Fe2 Lu0 3.241934 1_565
Fe3 Fe6 2.446655 1_454
Fe3 Fe7 2.446655 1_555
Fe3 Fe4 2.459848 1_455
Fe3 Fe5 2.459848 1_554
Fe3 Mo0 2.599563 1_555
Fe3 Mo1 2.599563 1_554
Fe3 Fe9 2.609890 1_555
Fe3 Fe8 2.609890 1_454
Fe3 Lu0 3.241934 1_555
Fe3 Lu0 3.241934 1_565
Fe4 Fe9 2.642834 1_655
Fe4 Fe9 2.642834 1_555
Fe4 Fe6 2.654622 1_554
Fe4 Fe7 2.654622 1_565
Fe4 Mo0 2.699773 1_655
Fe4 Mo1 2.699773 1_655
Fe4 Lu0 3.002426 1_565
Fe4 Lu0 3.002426 1_665
Fe5 Fe8 2.642834 1_555
Fe5 Fe8 2.642834 1_455
Fe5 Fe6 2.654622 1_545
Fe5 Fe7 2.654622 1_556
Fe5 Mo0 2.699773 1_555
Fe5 Mo1 2.699773 1_555
Fe5 Lu0 3.002426 1_556
Fe5 Lu0 3.002426 1_656
Fe6 Mo1 2.627222 1_555
Fe6 Mo1 2.627222 1_655
Fe6 Fe8 2.674737 1_555
Fe6 Fe9 2.674737 1_555
Fe6 Lu0 3.029403 1_666
Fe6 Lu0 3.029403 1_566
Fe7 Mo0 2.627222 1_655
Fe7 Mo0 2.627222 1_555
Fe7 Fe8 2.674737 1_555
Fe7 Fe9 2.674737 1_555
Fe7 Lu0 3.029403 1_655
Fe7 Lu0 3.029403 1_555
Fe8 Fe9 2.430383 1_555
Fe8 Mo0 2.925902 1_555
Fe8 Mo1 2.925902 1_555
Fe8 Mo0 2.925902 1_655
Fe8 Mo1 2.925902 1_655
Fe8 Lu0 3.043647 1_656
Fe9 Mo0 2.925902 1_555
Fe9 Mo1 2.925902 1_555
Fe9 Mo0 2.925902 1_655
Fe9 Mo1 2.925902 1_655
Fe9 Lu0 3.043647 1_565
Mo0 Mo1 2.459103 1_555
