# generated using pymatgen
data_CeSe2
_symmetry_space_group_name_H-M   'P 1'
_cell_length_a   6.60219600
_cell_length_b   7.76990300
_cell_length_c   21.62169300
_cell_angle_alpha   90.00000000
_cell_angle_beta   90.00000000
_cell_angle_gamma   90.00000000
_symmetry_Int_Tables_number   1
_chemical_formula_structural   CeSe2
_chemical_formula_sum   'Ce12 Se24'
_cell_volume   1109.15874283
_cell_formula_units_Z   12
loop_
 _symmetry_equiv_pos_site_id
 _symmetry_equiv_pos_as_xyz
  1  'x, y, z'
loop_
 _atom_site_type_symbol
 _atom_site_label
 _atom_site_symmetry_multiplicity
 _atom_site_fract_x
 _atom_site_fract_y
 _atom_site_fract_z
 _atom_site_occupancy
  Ce  Ce0  1  0.00000000  0.00089500  0.75000000  1
  Ce  Ce1  1  0.50000000  0.49910500  0.25000000  1
  Ce  Ce2  1  0.00000000  0.99910500  0.25000000  1
  Ce  Ce3  1  0.50000000  0.50089500  0.75000000  1
  Ce  Ce4  1  0.99891600  0.68380000  0.58256300  1
  Ce  Ce5  1  0.50108400  0.81620000  0.08256300  1
  Ce  Ce6  1  0.49891600  0.81620000  0.41743700  1
  Ce  Ce7  1  0.00108400  0.68380000  0.91743700  1
  Ce  Ce8  1  0.00108400  0.31620000  0.41743700  1
  Ce  Ce9  1  0.49891600  0.18380000  0.91743700  1
  Ce  Ce10  1  0.50108400  0.18380000  0.58256300  1
  Ce  Ce11  1  0.99891600  0.31620000  0.08256300  1
  Se  Se0  1  0.26608000  0.91993200  0.52331000  1
  Se  Se1  1  0.23392000  0.58006800  0.02331000  1
  Se  Se2  1  0.76608000  0.58006800  0.47669000  1
  Se  Se3  1  0.73392000  0.91993200  0.97669000  1
  Se  Se4  1  0.73392000  0.08006800  0.47669000  1
  Se  Se5  1  0.76608000  0.41993200  0.97669000  1
  Se  Se6  1  0.23392000  0.41993200  0.52331000  1
  Se  Se7  1  0.26608000  0.08006800  0.02331000  1
  Se  Se8  1  0.75768600  0.93725600  0.64416700  1
  Se  Se9  1  0.74231400  0.56274400  0.14416700  1
  Se  Se10  1  0.25768600  0.56274400  0.35583300  1
  Se  Se11  1  0.24231400  0.93725600  0.85583300  1
  Se  Se12  1  0.24231400  0.06274400  0.35583300  1
  Se  Se13  1  0.25768600  0.43725600  0.85583300  1
  Se  Se14  1  0.74231400  0.43725600  0.64416700  1
  Se  Se15  1  0.75768600  0.06274400  0.14416700  1
  Se  Se16  1  0.25172900  0.75648600  0.68796800  1
  Se  Se17  1  0.24827100  0.74351400  0.18796800  1
  Se  Se18  1  0.75172900  0.74351400  0.31203200  1
  Se  Se19  1  0.74827100  0.75648600  0.81203200  1
  Se  Se20  1  0.74827100  0.24351400  0.31203200  1
  Se  Se21  1  0.75172900  0.25648600  0.81203200  1
  Se  Se22  1  0.24827100  0.25648600  0.68796800  1
  Se  Se23  1  0.25172900  0.24351400  0.18796800  1
loop_
_geom_bond_atom_site_label_1
_geom_bond_atom_site_label_2
_geom_bond_distance
_geom_bond_site_symmetry_2
Ce0 Se11 2.835514 1_545
Ce0 Se8 2.835514 1_445
Ce0 Se19 2.857861 1_445
Ce0 Se16 2.857861 1_545
Ce0 Se21 2.903368 1_455
Ce0 Se22 2.903368 1_555
Ce1 Se9 2.835514 1_555
Ce1 Se10 2.835514 1_555
Ce1 Se18 2.857861 1_555
Ce1 Se17 2.857861 1_555
Ce1 Se20 2.903368 1_555
Ce1 Se23 2.903368 1_555
Ce2 Se15 2.835514 1_465
Ce2 Se12 2.835514 1_565
Ce2 Se20 2.857861 1_465
Ce2 Se23 2.857861 1_565
Ce2 Se18 2.903368 1_455
Ce2 Se17 2.903368 1_555
Ce3 Se13 2.835514 1_555
Ce3 Se14 2.835514 1_555
Ce3 Se21 2.857861 1_555
Ce3 Se22 2.857861 1_555
Ce3 Se19 2.903368 1_555
Ce3 Se16 2.903368 1_555
Ce4 Se0 2.849349 1_655
Ce4 Se8 2.861636 1_555
Ce4 Se6 2.872641 1_655
Ce4 Se2 2.872788 1_555
Ce4 Se16 2.880785 1_655
Ce4 Se14 2.883381 1_555
Ce5 Se1 2.849349 1_555
Ce5 Se9 2.861636 1_555
Ce5 Se7 2.872641 1_565
Ce5 Se3 2.872788 1_554
Ce5 Se17 2.880785 1_555
Ce5 Se15 2.883381 1_565
Ce6 Se2 2.849349 1_555
Ce6 Se10 2.861636 1_555
Ce6 Se4 2.872641 1_565
Ce6 Se0 2.872788 1_555
Ce6 Se18 2.880785 1_555
Ce6 Se12 2.883381 1_565
Ce7 Se3 2.849349 1_455
Ce7 Se11 2.861636 1_555
Ce7 Se5 2.872641 1_455
Ce7 Se1 2.872788 1_556
Ce7 Se19 2.880785 1_455
Ce7 Se13 2.883381 1_555
Ce8 Se4 2.849349 1_455
Ce8 Se12 2.861636 1_555
Ce8 Se2 2.872641 1_455
Ce8 Se6 2.872788 1_555
Ce8 Se20 2.880785 1_455
Ce8 Se10 2.883381 1_555
Ce9 Se5 2.849349 1_555
Ce9 Se13 2.861636 1_555
Ce9 Se3 2.872641 1_545
Ce9 Se7 2.872788 1_556
Ce9 Se21 2.880785 1_555
Ce9 Se11 2.883381 1_545
Ce10 Se6 2.849349 1_555
Ce10 Se14 2.861636 1_555
Ce10 Se0 2.872641 1_545
Ce10 Se4 2.872788 1_555
Ce10 Se22 2.880785 1_555
Ce10 Se8 2.883381 1_545
Ce11 Se7 2.849349 1_655
Ce11 Se15 2.861636 1_555
Ce11 Se1 2.872641 1_655
Ce11 Se5 2.872788 1_554
Ce11 Se23 2.880785 1_655
Ce11 Se9 2.883381 1_555
