# generated using pymatgen
data_LiB3
_symmetry_space_group_name_H-M   'P 1'
_cell_length_a   4.14105703
_cell_length_b   5.95595135
_cell_length_c   5.95595135
_cell_angle_alpha   90.00000000
_cell_angle_beta   90.00000000
_cell_angle_gamma   90.00000000
_symmetry_Int_Tables_number   1
_chemical_formula_structural   LiB3
_chemical_formula_sum   'Li4 B12'
_cell_volume   146.89719224
_cell_formula_units_Z   4
loop_
 _symmetry_equiv_pos_site_id
 _symmetry_equiv_pos_as_xyz
  1  'x, y, z'
loop_
 _atom_site_type_symbol
 _atom_site_label
 _atom_site_symmetry_multiplicity
 _atom_site_fract_x
 _atom_site_fract_y
 _atom_site_fract_z
 _atom_site_occupancy
  Li  Li0  1  0.50000000  0.17944306  0.67944306  1
  Li  Li1  1  0.50000000  0.82055694  0.32055694  1
  Li  Li2  1  0.50000000  0.32055694  0.17944306  1
  Li  Li3  1  0.50000000  0.67944306  0.82055694  1
  B  B0  1  0.70606910  0.50000000  0.50000000  1
  B  B1  1  0.70606910  0.00000000  -0.00000000  1
  B  B2  1  0.29393090  0.50000000  0.50000000  1
  B  B3  1  0.29393090  0.00000000  -0.00000000  1
  B  B4  1  0.00000000  0.66468880  0.63200926  1
  B  B5  1  0.00000000  0.33531120  0.36799074  1
  B  B6  1  0.00000000  0.83531120  0.13200926  1
  B  B7  1  0.00000000  0.16468880  0.86799074  1
  B  B8  1  0.00000000  0.63200926  0.33531120  1
  B  B9  1  0.00000000  0.36799074  0.66468880  1
  B  B10  1  0.00000000  0.13200926  0.16468880  1
  B  B11  1  0.00000000  0.86799074  0.83531120  1
loop_
_geom_bond_atom_site_label_1
_geom_bond_atom_site_label_2
_geom_bond_distance
_geom_bond_site_symmetry_2
B0 B2 1.706688 1_555
B0 B9 1.749810 1_655
B0 B4 1.749810 1_655
B0 B8 1.749810 1_655
B0 B5 1.749810 1_655
B0 Li2 2.348523 1_555
B0 Li1 2.348523 1_555
B0 Li3 2.348523 1_555
B0 Li0 2.348523 1_555
B1 B3 1.706688 1_555
B1 B11 1.749810 1_644
B1 B10 1.749810 1_655
B1 B6 1.749810 1_645
B1 B7 1.749810 1_654
B1 Li2 2.348523 1_555
B1 Li3 2.348523 1_544
B1 Li0 2.348523 1_554
B1 Li1 2.348523 1_545
B2 B9 1.749810 1_555
B2 B4 1.749810 1_555
B2 B5 1.749810 1_555
B2 B8 1.749810 1_555
B2 Li2 2.348523 1_555
B2 Li1 2.348523 1_555
B2 Li3 2.348523 1_555
B2 Li0 2.348523 1_555
B3 B6 1.749810 1_545
B3 B7 1.749810 1_554
B3 Li2 2.348523 1_555
B3 Li3 2.348523 1_544
B3 Li0 2.348523 1_554
B3 Li1 2.348523 1_545
B4 B9 1.777806 1_555
B4 B8 1.777806 1_555
B4 Li3 2.357095 1_455
B4 Li3 2.357095 1_555
B5 B9 1.777806 1_555
B5 B8 1.777806 1_555
B5 Li2 2.357095 1_455
B5 Li2 2.357095 1_555
B6 B8 1.712410 1_555
B6 Li1 2.357095 1_555
B6 Li1 2.357095 1_455
B7 B9 1.712410 1_555
B7 Li0 2.357095 1_455
B7 Li0 2.357095 1_555
B8 Li1 2.357095 1_555
B8 Li1 2.357095 1_455
B9 Li0 2.357095 1_455
B9 Li0 2.357095 1_555
B10 B5 1.712410 1_555
B10 B3 1.749810 1_555
B10 B7 1.777806 1_554
B10 B6 1.777806 1_545
B10 Li2 2.357095 1_455
B10 Li2 2.357095 1_555
B11 B4 1.712410 1_555
B11 B3 1.749810 1_566
B11 B7 1.777806 1_565
B11 B6 1.777806 1_556
B11 Li3 2.357095 1_455
B11 Li3 2.357095 1_555
