# generated using pymatgen
data_MgFe3Co2Sb(PO4)6
_symmetry_space_group_name_H-M   'P 1'
_cell_length_a   8.72069929
_cell_length_b   8.73606070
_cell_length_c   8.73415605
_cell_angle_alpha   60.04124987
_cell_angle_beta   59.86891339
_cell_angle_gamma   60.04404136
_symmetry_Int_Tables_number   1
_chemical_formula_structural   MgFe3Co2Sb(PO4)6
_chemical_formula_sum   'Mg1 Fe3 Co2 Sb1 P6 O24'
_cell_volume   470.34864124
_cell_formula_units_Z   1
loop_
 _symmetry_equiv_pos_site_id
 _symmetry_equiv_pos_as_xyz
  1  'x, y, z'
loop_
 _atom_site_type_symbol
 _atom_site_label
 _atom_site_symmetry_multiplicity
 _atom_site_fract_x
 _atom_site_fract_y
 _atom_site_fract_z
 _atom_site_occupancy
  Mg  Mg0  1  0.37931600  0.87303700  0.87407900  1
  Fe  Fe0  1  0.10392500  0.63229400  0.63192000  1
  Fe  Fe1  1  0.74424600  0.75195600  0.75221700  1
  Fe  Fe2  1  0.92526800  0.35820700  0.35793400  1
  Co  Co0  1  0.98830400  0.00794000  0.00061200  1
  Co  Co1  1  0.49797500  0.49901000  0.50322600  1
  Sb  Sb0  1  0.54472700  0.15139800  0.15171500  1
  P  P0  1  0.22998600  0.25517900  0.55063000  1
  P  P1  1  0.23031300  0.96359800  0.25475600  1
  P  P2  1  0.23117300  0.55058100  0.96371600  1
  P  P3  1  0.73155400  0.45554900  0.06115300  1
  P  P4  1  0.73264000  0.06078200  0.75131900  1
  P  P5  1  0.73174300  0.75209600  0.45548800  1
  O  O0  1  0.06272700  0.10747900  0.34288000  1
  O  O1  1  0.06267200  0.48676800  0.10690600  1
  O  O2  1  0.06186800  0.34373500  0.48739200  1
  O  O3  1  0.19315900  0.10193000  0.74582400  1
  O  O4  1  0.41043100  0.15586000  0.40876600  1
  O  O5  1  0.28540400  0.39806800  0.55031400  1
  O  O6  1  0.19456500  0.95824600  0.10148500  1
  O  O7  1  0.28399300  0.76699300  0.39888800  1
  O  O8  1  0.56315300  0.62181000  0.00812100  1
  O  O9  1  0.28617200  0.54889200  0.76602200  1
  O  O10  1  0.74245300  0.25855900  0.07756600  1
  O  O11  1  0.56334500  0.00835100  0.80654300  1
  O  O12  1  0.41202900  0.02321900  0.15595200  1
  O  O13  1  0.19524600  0.74460700  0.95852000  1
  O  O14  1  0.71752000  0.42877400  0.25544000  1
  O  O15  1  0.41157900  0.40778200  0.02402400  1
  O  O16  1  0.72009900  0.25409800  0.59718300  1
  O  O17  1  0.74318500  0.07838700  0.92067600  1
  O  O18  1  0.71749800  0.59787700  0.42985100  1
  O  O19  1  0.56299800  0.80781700  0.62216500  1
  O  O20  1  0.74324700  0.92110500  0.25802700  1
  O  O21  1  0.90967900  0.70511700  0.48926100  1
  O  O22  1  0.90988900  0.48917900  0.89587000  1
  O  O23  1  0.91029400  0.89559600  0.70543100  1
loop_
_geom_bond_atom_site_label_1
_geom_bond_atom_site_label_2
_geom_bond_distance
_geom_bond_site_symmetry_2
Mg0 O6 2.039881 1_556
Mg0 O13 2.040364 1_555
Mg0 O3 2.058032 1_565
Mg0 O19 2.129282 1_555
Mg0 O8 2.135863 1_556
Mg0 O11 2.137448 1_565
Fe0 O7 2.058579 1_555
Fe0 O9 2.070941 1_555
Fe0 O5 2.071178 1_555
Fe0 O22 2.249186 1_455
Fe0 O23 2.249935 1_455
Fe0 O21 2.253413 1_455
Fe1 O8 2.119848 1_556
Fe1 O19 2.122569 1_555
Fe1 O11 2.124160 1_565
Fe1 O21 2.132166 1_555
Fe1 O23 2.132358 1_555
Fe1 O22 2.135893 1_555
Fe2 O1 1.936841 1_655
Fe2 O0 1.938870 1_655
Fe2 O2 1.942332 1_655
Fe2 O16 2.090078 1_555
Fe2 O14 2.103663 1_555
Fe2 O18 2.108001 1_555
Co0 O3 2.113432 1_654
Co0 O6 2.151593 1_645
Co0 O13 2.171812 1_644
Co0 O10 2.275340 1_555
Co0 O17 2.278370 1_554
Co0 O20 2.299821 1_545
Co1 O18 2.165252 1_555
Co1 O16 2.169512 1_555
Co1 O14 2.172327 1_555
Co1 O9 2.192887 1_555
Co1 O5 2.210911 1_555
Co1 O7 2.237663 1_555
O0 P1 1.520071 1_545
O1 P2 1.520159 1_554
O2 P0 1.518731 1_555
O3 P0 1.549882 1_555
O4 P0 1.586515 1_555
O4 Sb0 1.953386 1_555
O5 P0 1.545796 1_555
O6 P1 1.545163 1_555
O7 P1 1.543726 1_555
O8 P3 1.536780 1_555
O9 P2 1.548757 1_555
O10 P3 1.610924 1_555
O10 Sb0 2.038257 1_555
O11 P4 1.536840 1_555
O12 P1 1.590492 1_545
O12 Sb0 1.950424 1_555
O13 P2 1.542859 1_555
O14 P3 1.540431 1_555
O15 P2 1.588879 1_554
O15 Sb0 1.953649 1_555
O16 P4 1.539184 1_555
O17 P4 1.611837 1_555
O17 Sb0 2.037398 1_556
O18 P5 1.541774 1_555
O19 P5 1.537335 1_555
O20 P5 1.611043 1_555
O20 Sb0 2.043697 1_565
O21 P5 1.538159 1_555
O22 P3 1.538731 1_556
O23 P4 1.537809 1_565
