# generated using pymatgen
data_Ti5FeSn3
_symmetry_space_group_name_H-M   'P 1'
_cell_length_a   8.26709364
_cell_length_b   8.26709364
_cell_length_c   5.47550300
_cell_angle_alpha   90.00000000
_cell_angle_beta   90.00000000
_cell_angle_gamma   119.99999709
_symmetry_Int_Tables_number   1
_chemical_formula_structural   Ti5FeSn3
_chemical_formula_sum   'Ti10 Fe2 Sn6'
_cell_volume   324.08608088
_cell_formula_units_Z   2
loop_
 _symmetry_equiv_pos_site_id
 _symmetry_equiv_pos_as_xyz
  1  'x, y, z'
loop_
 _atom_site_type_symbol
 _atom_site_label
 _atom_site_symmetry_multiplicity
 _atom_site_fract_x
 _atom_site_fract_y
 _atom_site_fract_z
 _atom_site_occupancy
  Ti  Ti0  1  0.24078600  0.00000000  0.25000000  1
  Ti  Ti1  1  0.75921400  0.00000000  0.75000000  1
  Ti  Ti2  1  0.00000000  0.24078600  0.25000000  1
  Ti  Ti3  1  0.00000000  0.75921400  0.75000000  1
  Ti  Ti4  1  0.75921400  0.75921400  0.25000000  1
  Ti  Ti5  1  0.24078600  0.24078600  0.75000000  1
  Ti  Ti6  1  0.33333300  0.66666700  0.00000000  1
  Ti  Ti7  1  0.66666700  0.33333300  0.00000000  1
  Ti  Ti8  1  0.66666700  0.33333300  0.50000000  1
  Ti  Ti9  1  0.33333300  0.66666700  0.50000000  1
  Fe  Fe0  1  0.00000000  0.00000000  0.00000000  1
  Fe  Fe1  1  0.00000000  0.00000000  0.50000000  1
  Sn  Sn0  1  0.60108400  0.00000000  0.25000000  1
  Sn  Sn1  1  0.39891600  0.00000000  0.75000000  1
  Sn  Sn2  1  0.00000000  0.60108400  0.25000000  1
  Sn  Sn3  1  0.00000000  0.39891600  0.75000000  1
  Sn  Sn4  1  0.39891600  0.39891600  0.25000000  1
  Sn  Sn5  1  0.60108400  0.60108400  0.75000000  1
loop_
_geom_bond_atom_site_label_1
_geom_bond_atom_site_label_2
_geom_bond_distance
_geom_bond_site_symmetry_2
Ti6 Ti9 2.737751 1_555
Ti6 Ti9 2.737751 1_554
Ti7 Ti8 2.737751 1_554
Ti7 Ti8 2.737751 1_555
Fe0 Ti1 2.415846 1_454
Fe0 Ti3 2.415846 1_544
Fe0 Ti2 2.415846 1_555
Fe0 Ti0 2.415846 1_555
Fe0 Ti4 2.415846 1_445
Fe0 Ti5 2.415846 1_554
Fe1 Ti3 2.415846 1_545
Fe1 Ti1 2.415846 1_455
Fe1 Ti2 2.415846 1_555
Fe1 Ti0 2.415846 1_555
Fe1 Ti4 2.415846 1_445
Fe1 Ti5 2.415846 1_555
Sn0 Ti7 2.875335 1_555
Sn0 Ti8 2.875335 1_555
Sn0 Ti9 2.875338 1_545
Sn0 Ti6 2.875338 1_545
Sn0 Ti4 2.876408 1_545
Sn0 Ti2 2.876408 1_655
Sn0 Ti0 2.978617 1_555
Sn0 Ti1 3.033851 1_554
Sn0 Ti1 3.033851 1_555
Sn1 Ti9 2.875335 1_545
Sn1 Ti6 2.875335 1_546
Sn1 Ti7 2.875338 1_556
Sn1 Ti8 2.875338 1_555
Sn1 Ti5 2.876408 1_555
Sn1 Ti3 2.876408 1_545
Sn1 Ti1 2.978617 1_555
Sn1 Ti0 3.033851 1_556
Sn1 Ti0 3.033851 1_555
Sn2 Ti9 2.875335 1_555
Sn2 Ti6 2.875335 1_555
Sn2 Ti7 2.875338 1_455
Sn2 Ti8 2.875338 1_455
Sn2 Ti4 2.876408 1_455
Sn2 Ti0 2.876408 1_565
Sn2 Ti2 2.978617 1_555
Sn2 Ti3 3.033851 1_555
Sn2 Ti3 3.033851 1_554
Sn3 Ti7 2.875335 1_456
Sn3 Ti8 2.875335 1_455
Sn3 Ti9 2.875338 1_555
Sn3 Ti6 2.875338 1_556
Sn3 Ti5 2.876408 1_555
Sn3 Ti1 2.876408 1_455
Sn3 Ti3 2.978617 1_555
Sn3 Ti2 3.033851 1_555
Sn3 Ti2 3.033851 1_556
Sn4 Ti6 2.875342 1_555
Sn4 Ti7 2.875342 1_555
Sn4 Ti8 2.875342 1_555
Sn4 Ti9 2.875342 1_555
Sn4 Ti0 2.876408 1_555
Sn4 Ti2 2.876408 1_555
Sn4 Ti4 2.978617 1_555
Sn4 Ti5 3.033851 1_555
Sn4 Ti5 3.033851 1_554
Sn5 Ti8 2.875342 1_555
Sn5 Ti7 2.875342 1_556
Sn5 Ti9 2.875342 1_555
Sn5 Ti6 2.875342 1_556
Sn5 Ti3 2.876408 1_655
Sn5 Ti1 2.876408 1_565
Sn5 Ti5 2.978617 1_555
Sn5 Ti4 3.033851 1_556
Sn5 Ti4 3.033851 1_555
