# generated using pymatgen
data_Li9Mn2Co5O16
_symmetry_space_group_name_H-M   'P 1'
_cell_length_a   5.79179400
_cell_length_b   6.62314245
_cell_length_c   7.73984316
_cell_angle_alpha   85.57958686
_cell_angle_beta   78.76195909
_cell_angle_gamma   77.23240709
_symmetry_Int_Tables_number   1
_chemical_formula_structural   Li9Mn2Co5O16
_chemical_formula_sum   'Li9 Mn2 Co5 O16'
_cell_volume   283.82693630
_cell_formula_units_Z   1
loop_
 _symmetry_equiv_pos_site_id
 _symmetry_equiv_pos_as_xyz
  1  'x, y, z'
loop_
 _atom_site_type_symbol
 _atom_site_label
 _atom_site_symmetry_multiplicity
 _atom_site_fract_x
 _atom_site_fract_y
 _atom_site_fract_z
 _atom_site_occupancy
  Li  Li0  1  0.80262100  0.63412500  0.12478900  1
  Li  Li1  1  0.93130600  0.88178900  0.37519300  1
  Li  Li2  1  0.68138200  0.36974700  0.87325600  1
  Li  Li3  1  0.56323100  0.12061900  0.63361200  1
  Li  Li4  1  0.44403700  0.87762100  0.36999300  1
  Li  Li5  1  0.31891800  0.62380500  0.12332200  1
  Li  Li6  1  0.19914500  0.36592500  0.86917800  1
  Li  Li7  1  0.06053500  0.12341300  0.63070600  1
  Li  Li8  1  0.50036700  0.00550200  0.00059100  1
  Mn  Mn0  1  0.99637800  0.00094000  0.00149700  1
  Mn  Mn1  1  0.13068100  0.24556300  0.24613800  1
  Co  Co0  1  0.24848600  0.50001400  0.50266400  1
  Co  Co1  1  0.37798200  0.75851900  0.75493400  1
  Co  Co2  1  0.62488700  0.24717400  0.24737600  1
  Co  Co3  1  0.74549400  0.50003000  0.50155400  1
  Co  Co4  1  0.86739500  0.75714700  0.75482500  1
  O  O0  1  0.72766500  0.95908900  0.17983400  1
  O  O1  1  0.84584400  0.19833900  0.41801100  1
  O  O2  1  0.59915900  0.68545900  0.91895400  1
  O  O3  1  0.47440900  0.44247500  0.67641400  1
  O  O4  1  0.34583800  0.19314200  0.41504500  1
  O  O5  1  0.20183200  0.95927300  0.18133300  1
  O  O6  1  0.08562600  0.71212500  0.94321600  1
  O  O7  1  0.97704800  0.44726800  0.67456900  1
  O  O8  1  0.90926300  0.29465200  0.07613200  1
  O  O9  1  0.02942800  0.53792100  0.31858100  1
  O  O10  1  0.79717700  0.05472700  0.82275900  1
  O  O11  1  0.65932100  0.80370300  0.56543900  1
  O  O12  1  0.52999900  0.53972000  0.31844800  1
  O  O13  1  0.39966700  0.30805100  0.08356600  1
  O  O14  1  0.26541500  0.05384700  0.82190500  1
  O  O15  1  0.15946300  0.79827300  0.57616600  1
loop_
_geom_bond_atom_site_label_1
_geom_bond_atom_site_label_2
_geom_bond_distance
_geom_bond_site_symmetry_2
Li0 O6 2.071970 1_654
Li0 O12 2.121366 1_555
Li0 O2 2.124493 1_554
Li0 O9 2.152219 1_655
Li0 O0 2.158372 1_555
Li0 O8 2.237092 1_555
Li1 O0 2.061161 1_555
Li1 O11 2.062950 1_555
Li1 O5 2.071239 1_655
Li1 O1 2.082034 1_565
Li1 O15 2.194815 1_655
Li1 O9 2.277411 1_655
Li2 O2 2.081446 1_555
Li2 O3 2.081742 1_555
Li2 O10 2.088243 1_555
Li2 O13 2.153087 1_556
Li2 O7 2.191205 1_555
Li2 O8 2.202775 1_556
Li3 O3 2.115717 1_555
Li3 O11 2.129274 1_545
Li3 O14 2.133711 1_555
Li3 O10 2.140773 1_555
Li3 O1 2.214541 1_555
Li3 O4 2.261734 1_555
Li4 O4 2.078889 1_565
Li4 O11 2.105689 1_555
Li4 O0 2.117270 1_555
Li4 O5 2.175742 1_555
Li4 O15 2.183477 1_555
Li4 O12 2.232322 1_555
Li5 O13 2.073086 1_555
Li5 O6 2.090498 1_554
Li5 O12 2.091567 1_555
Li5 O2 2.120353 1_554
Li5 O9 2.172580 1_555
Li5 O5 2.228730 1_555
Li6 O14 2.065093 1_555
Li6 O3 2.082849 1_555
Li6 O7 2.130138 1_455
Li6 O13 2.169202 1_556
Li6 O8 2.189275 1_456
Li6 O6 2.325415 1_555
Li7 O10 2.015396 1_455
Li7 O14 2.036666 1_555
Li7 O7 2.130650 1_455
Li7 O15 2.155069 1_545
Li7 O4 2.207564 1_555
Li7 O1 2.213972 1_455
Li8 O10 2.052371 1_554
Li8 O0 2.054132 1_545
Li8 O5 2.065315 1_545
Li8 O13 2.074545 1_555
Li8 O14 2.083188 1_554
Li8 O2 2.179264 1_544
Mn0 O0 1.923178 1_545
Mn0 O6 1.932566 1_644
Mn0 O10 1.932947 1_554
Mn0 O14 1.950633 1_654
Mn0 O5 1.967420 1_645
Mn0 O8 1.999561 1_555
Mn1 O13 1.903232 1_555
Mn1 O5 1.933241 1_545
Mn1 O4 1.938110 1_555
Mn1 O8 1.972088 1_455
Mn1 O1 1.974223 1_455
Mn1 O9 1.986191 1_555
Co0 O7 1.928642 1_455
Co0 O12 1.996521 1_555
Co0 O3 2.013044 1_555
Co0 O15 2.024959 1_555
Co0 O9 2.052159 1_555
Co0 O4 2.113198 1_555
Co1 O2 1.936990 1_555
Co1 O14 1.995142 1_565
Co1 O15 2.016102 1_555
Co1 O11 2.027845 1_555
Co1 O6 2.069873 1_555
Co1 O3 2.147056 1_555
Co2 O4 1.946999 1_555
Co2 O0 1.949013 1_545
Co2 O13 1.950624 1_555
Co2 O8 1.970314 1_555
Co2 O1 1.973963 1_555
Co2 O12 1.983590 1_555
Co3 O3 1.949068 1_555
Co3 O9 1.998194 1_655
Co3 O12 2.030356 1_555
Co3 O7 2.033378 1_555
Co3 O11 2.037700 1_555
Co3 O1 2.070714 1_555
Co4 O2 1.927842 1_555
Co4 O10 2.012084 1_565
Co4 O15 2.020317 1_655
Co4 O11 2.037309 1_555
Co4 O6 2.072999 1_655
Co4 O7 2.113780 1_555
