# generated using pymatgen
data_Ce(AlAu)2
_symmetry_space_group_name_H-M   'P 1'
_cell_length_a   4.42462965
_cell_length_b   4.42462965
_cell_length_c   10.40267797
_cell_angle_alpha   90.00000000
_cell_angle_beta   90.00000000
_cell_angle_gamma   90.00000000
_symmetry_Int_Tables_number   1
_chemical_formula_structural   Ce(AlAu)2
_chemical_formula_sum   'Ce2 Al4 Au4'
_cell_volume   203.65684196
_cell_formula_units_Z   2
loop_
 _symmetry_equiv_pos_site_id
 _symmetry_equiv_pos_as_xyz
  1  'x, y, z'
loop_
 _atom_site_type_symbol
 _atom_site_label
 _atom_site_symmetry_multiplicity
 _atom_site_fract_x
 _atom_site_fract_y
 _atom_site_fract_z
 _atom_site_occupancy
  Ce  Ce0  1  0.00000000  0.50000000  0.24996595  1
  Ce  Ce1  1  0.50000000  -0.00000000  0.75003405  1
  Al  Al0  1  -0.00000000  0.00000000  0.50000000  1
  Al  Al1  1  0.50000000  0.50000000  0.50000000  1
  Al  Al2  1  0.00000000  0.50000000  0.87075702  1
  Al  Al3  1  0.50000000  0.00000000  0.12924298  1
  Au  Au0  1  0.00000000  0.00000000  0.00000000  1
  Au  Au1  1  0.50000000  0.50000000  0.00000000  1
  Au  Au2  1  -0.00000000  0.50000000  0.62964604  1
  Au  Au3  1  0.50000000  -0.00000000  0.37035396  1
loop_
_geom_bond_atom_site_label_1
_geom_bond_atom_site_label_2
_geom_bond_distance
_geom_bond_site_symmetry_2
Al0 Au3 2.590991 1_455
Al0 Au2 2.590991 1_555
Al0 Au3 2.590991 1_555
Al0 Au2 2.590991 1_545
Al0 Ce1 3.414625 1_555
Al0 Ce0 3.414625 1_555
Al0 Ce0 3.414625 1_545
Al0 Ce1 3.414625 1_455
Al1 Au2 2.590991 1_555
Al1 Au3 2.590991 1_555
Al1 Au2 2.590991 1_655
Al1 Au3 2.590991 1_565
Al1 Ce0 3.414625 1_655
Al1 Ce1 3.414625 1_555
Al1 Ce0 3.414625 1_555
Al1 Ce1 3.414625 1_565
Al2 Au2 2.508200 1_555
Al2 Au1 2.588811 1_556
Al2 Au0 2.588811 1_566
Al2 Au1 2.588811 1_456
Al2 Au0 2.588811 1_556
Al2 Ce1 3.371322 1_555
Al2 Ce1 3.371322 1_465
Al2 Ce1 3.371322 1_565
Al2 Ce1 3.371322 1_455
Al3 Au3 2.508200 1_555
Al3 Au1 2.588811 1_555
Al3 Au0 2.588811 1_555
Al3 Au0 2.588811 1_655
Al3 Au1 2.588811 1_545
Al3 Ce0 3.371322 1_645
Al3 Ce0 3.371322 1_555
Al3 Ce0 3.371322 1_545
Al3 Ce0 3.371322 1_655
Au0 Ce0 3.414085 1_555
Au0 Ce0 3.414085 1_545
Au0 Ce1 3.414085 1_454
Au0 Ce1 3.414085 1_554
Au1 Ce0 3.414085 1_555
Au1 Ce0 3.414085 1_655
Au1 Ce1 3.414085 1_564
Au1 Ce1 3.414085 1_554
Au2 Ce1 3.370026 1_465
Au2 Ce1 3.370026 1_565
Au2 Ce1 3.370026 1_555
Au2 Ce1 3.370026 1_455
Au3 Ce0 3.370026 1_645
Au3 Ce0 3.370026 1_555
Au3 Ce0 3.370026 1_545
Au3 Ce0 3.370026 1_655
