# generated using pymatgen
data_Mg6TiSn
_symmetry_space_group_name_H-M   'P 1'
_cell_length_a   5.11351300
_cell_length_b   6.09447800
_cell_length_c   11.16936900
_cell_angle_alpha   90.00000000
_cell_angle_beta   90.00000000
_cell_angle_gamma   90.00000000
_symmetry_Int_Tables_number   1
_chemical_formula_structural   Mg6TiSn
_chemical_formula_sum   'Mg12 Ti2 Sn2'
_cell_volume   348.08436541
_cell_formula_units_Z   2
loop_
 _symmetry_equiv_pos_site_id
 _symmetry_equiv_pos_as_xyz
  1  'x, y, z'
loop_
 _atom_site_type_symbol
 _atom_site_label
 _atom_site_symmetry_multiplicity
 _atom_site_fract_x
 _atom_site_fract_y
 _atom_site_fract_z
 _atom_site_occupancy
  Mg  Mg0  1  0.50000000  0.25108300  0.41755900  1
  Mg  Mg1  1  0.50000000  0.74891700  0.41755900  1
  Mg  Mg2  1  0.00000000  0.74067400  0.08231300  1
  Mg  Mg3  1  0.00000000  0.25932600  0.08231300  1
  Mg  Mg4  1  0.00000000  0.00000000  0.33531900  1
  Mg  Mg5  1  0.00000000  0.50000000  0.32863900  1
  Mg  Mg6  1  0.50000000  0.75108300  0.91755900  1
  Mg  Mg7  1  0.50000000  0.24891700  0.91755900  1
  Mg  Mg8  1  0.00000000  0.24067400  0.58231300  1
  Mg  Mg9  1  0.00000000  0.75932600  0.58231300  1
  Mg  Mg10  1  0.00000000  0.50000000  0.83531900  1
  Mg  Mg11  1  0.00000000  0.00000000  0.82863900  1
  Ti  Ti0  1  0.50000000  0.50000000  0.16911000  1
  Ti  Ti1  1  0.50000000  0.00000000  0.66911000  1
  Sn  Sn0  1  0.50000000  0.00000000  0.16718500  1
  Sn  Sn1  1  0.50000000  0.50000000  0.66718500  1
loop_
_geom_bond_atom_site_label_1
_geom_bond_atom_site_label_2
_geom_bond_distance
_geom_bond_site_symmetry_2
Mg0 Mg1 3.034038 1_555
Mg0 Mg1 3.060440 1_545
Mg0 Mg4 3.118068 1_555
Mg0 Mg4 3.118068 1_655
Mg0 Mg5 3.134447 1_555
Mg0 Mg5 3.134447 1_655
Mg0 Mg8 3.150771 1_555
Mg0 Mg8 3.150771 1_655
Mg0 Ti0 3.162606 1_555
Mg0 Sn1 3.174147 1_555
Mg0 Sn0 3.187804 1_555
Mg0 Ti1 3.199343 1_555
Mg1 Mg4 3.118068 1_665
Mg1 Mg4 3.118068 1_565
Mg1 Mg5 3.134447 1_655
Mg1 Mg5 3.134447 1_555
Mg1 Mg9 3.150771 1_655
Mg1 Mg9 3.150771 1_555
Mg1 Ti0 3.162606 1_555
Mg1 Sn1 3.174147 1_555
Mg1 Sn0 3.187804 1_565
Mg1 Ti1 3.199343 1_565
Mg2 Mg3 2.933565 1_555
Mg2 Ti0 3.102954 1_555
Mg2 Ti0 3.102954 1_455
Mg2 Mg5 3.117874 1_555
Mg2 Mg6 3.150771 1_554
Mg2 Mg6 3.150771 1_454
Mg2 Sn0 3.151744 1_565
Mg2 Sn0 3.151744 1_465
Mg2 Mg3 3.160913 1_565
Mg2 Mg4 3.237847 1_565
Mg3 Ti0 3.102954 1_555
Mg3 Ti0 3.102954 1_455
Mg3 Mg5 3.117874 1_555
Mg3 Mg7 3.150771 1_454
Mg3 Mg7 3.150771 1_554
Mg3 Sn0 3.151744 1_555
Mg3 Sn0 3.151744 1_455
Mg3 Mg4 3.237847 1_555
Mg4 Mg5 3.048152 1_545
Mg4 Mg5 3.048152 1_555
Mg4 Mg9 3.124459 1_545
Mg4 Mg8 3.124459 1_555
Mg4 Sn0 3.172334 1_555
Mg4 Sn0 3.172334 1_455
Mg5 Ti0 3.116400 1_555
Mg5 Ti0 3.116400 1_455
Mg5 Mg9 3.244361 1_555
Mg5 Mg8 3.244361 1_555
Mg6 Mg7 3.034038 1_565
Mg6 Mg7 3.060440 1_555
Mg6 Ti1 3.162606 1_565
Mg6 Sn0 3.174147 1_566
Mg6 Sn1 3.187804 1_555
Mg6 Ti0 3.199343 1_556
Mg7 Ti1 3.162606 1_555
Mg7 Sn0 3.174147 1_556
Mg7 Sn1 3.187804 1_555
Mg7 Ti0 3.199343 1_556
Mg8 Mg9 2.933565 1_545
Mg8 Ti1 3.102954 1_455
Mg8 Ti1 3.102954 1_555
Mg8 Sn1 3.151744 1_555
Mg8 Sn1 3.151744 1_455
Mg8 Mg9 3.160913 1_555
Mg9 Ti1 3.102954 1_565
Mg9 Ti1 3.102954 1_465
Mg9 Sn1 3.151744 1_455
Mg9 Sn1 3.151744 1_555
Mg10 Mg11 3.048152 1_555
Mg10 Mg11 3.048152 1_565
Mg10 Mg6 3.118068 1_555
Mg10 Mg7 3.118068 1_455
Mg10 Mg7 3.118068 1_555
Mg10 Mg6 3.118068 1_455
Mg10 Mg2 3.124459 1_556
Mg10 Mg3 3.124459 1_556
Mg10 Sn1 3.172334 1_455
Mg10 Sn1 3.172334 1_555
Mg10 Mg9 3.237847 1_555
Mg10 Mg8 3.237847 1_555
Mg11 Ti1 3.116400 1_555
Mg11 Ti1 3.116400 1_455
Mg11 Mg8 3.117874 1_555
Mg11 Mg9 3.117874 1_545
Mg11 Mg7 3.134447 1_455
Mg11 Mg7 3.134447 1_555
Mg11 Mg6 3.134447 1_445
Mg11 Mg6 3.134447 1_545
Mg11 Mg2 3.244361 1_546
Mg11 Mg3 3.244361 1_556
Sn0 Ti0 3.047315 1_545
Sn0 Ti0 3.047315 1_555
Sn1 Ti1 3.047315 1_555
Sn1 Ti1 3.047315 1_565
