# generated using pymatgen
data_Li7Mn2(CoO4)3
_symmetry_space_group_name_H-M   'P 1'
_cell_length_a   5.14821500
_cell_length_b   5.87575101
_cell_length_c   7.66398019
_cell_angle_alpha   100.42622892
_cell_angle_beta   96.58211855
_cell_angle_gamma   107.27035618
_symmetry_Int_Tables_number   1
_chemical_formula_structural   Li7Mn2(CoO4)3
_chemical_formula_sum   'Li7 Mn2 Co3 O12'
_cell_volume   214.19816492
_cell_formula_units_Z   1
loop_
 _symmetry_equiv_pos_site_id
 _symmetry_equiv_pos_as_xyz
  1  'x, y, z'
loop_
 _atom_site_type_symbol
 _atom_site_label
 _atom_site_symmetry_multiplicity
 _atom_site_fract_x
 _atom_site_fract_y
 _atom_site_fract_z
 _atom_site_occupancy
  Li  Li0  1  0.49990000  0.74746600  0.00050100  1
  Li  Li1  1  0.51006200  0.09190200  0.33960600  1
  Li  Li2  1  0.50562000  0.41604600  0.65945700  1
  Li  Li3  1  0.50010000  0.25253400  0.99949900  1
  Li  Li4  1  0.49438000  0.58395400  0.34054300  1
  Li  Li5  1  0.48993800  0.90809800  0.66039400  1
  Li  Li6  1  0.00000000  0.50000000  0.50000000  1
  Mn  Mn0  1  0.00376500  0.83388500  0.83179200  1
  Mn  Mn1  1  0.99623500  0.16611500  0.16820800  1
  Co  Co0  1  0.99501400  0.33716100  0.82015100  1
  Co  Co1  1  0.00498600  0.66283900  0.17984900  1
  Co  Co2  1  0.00000000  0.00000000  0.50000000  1
  O  O0  1  0.77808100  0.56175200  0.91709100  1
  O  O1  1  0.76786000  0.88574600  0.24636900  1
  O  O2  1  0.76472400  0.20875700  0.59736700  1
  O  O3  1  0.78203900  0.04009500  0.92476400  1
  O  O4  1  0.76848000  0.35893800  0.23618900  1
  O  O5  1  0.77488700  0.73172100  0.59425500  1
  O  O6  1  0.21796100  0.95990500  0.07523600  1
  O  O7  1  0.22511300  0.26827900  0.40574500  1
  O  O8  1  0.23152000  0.64106200  0.76381100  1
  O  O9  1  0.22191900  0.43824800  0.08290900  1
  O  O10  1  0.23527600  0.79124300  0.40263300  1
  O  O11  1  0.23214000  0.11425400  0.75363100  1
loop_
_geom_bond_atom_site_label_1
_geom_bond_atom_site_label_2
_geom_bond_distance
_geom_bond_site_symmetry_2
Li0 O8 2.022989 1_554
Li0 O1 2.073238 1_555
Li0 O3 2.115350 1_564
Li0 O0 2.129720 1_554
Li0 O9 2.196973 1_555
Li0 O6 2.236194 1_555
Li1 O4 2.076636 1_555
Li1 O10 2.082564 1_545
Li1 O7 2.089501 1_555
Li1 O2 2.115093 1_555
Li1 O1 2.144311 1_545
Li1 O6 2.237932 1_545
Li2 O2 2.095158 1_555
Li2 O5 2.139939 1_555
Li2 O7 2.149626 1_555
Li2 O0 2.153911 1_555
Li2 O11 2.204862 1_555
Li2 O8 2.315761 1_555
Li3 O4 2.022989 1_556
Li3 O11 2.073238 1_555
Li3 O6 2.115350 1_546
Li3 O9 2.129720 1_556
Li3 O0 2.196973 1_555
Li3 O3 2.236194 1_555
Li4 O10 2.095158 1_555
Li4 O7 2.139939 1_555
Li4 O5 2.149626 1_555
Li4 O9 2.153911 1_555
Li4 O1 2.204862 1_555
Li4 O4 2.315761 1_555
Li5 O8 2.076636 1_555
Li5 O2 2.082564 1_565
Li5 O5 2.089501 1_555
Li5 O10 2.115093 1_555
Li5 O11 2.144311 1_565
Li5 O3 2.237932 1_565
Li6 O10 2.095492 1_555
Li6 O2 2.095492 1_455
Li6 O8 2.109479 1_555
Li6 O4 2.109479 1_455
Li6 O7 2.119333 1_555
Li6 O5 2.119333 1_455
Mn0 O8 1.909217 1_555
Mn0 O5 1.937943 1_455
Mn0 O0 1.945103 1_455
Mn0 O6 1.946483 1_556
Mn0 O11 1.955404 1_565
Mn0 O3 1.993487 1_465
Mn1 O4 1.909217 1_555
Mn1 O7 1.937943 1_655
Mn1 O9 1.945103 1_655
Mn1 O3 1.946483 1_554
Mn1 O1 1.955404 1_545
Mn1 O6 1.993487 1_645
Co0 O2 1.851663 1_555
Co0 O8 1.991516 1_655
Co0 O0 2.061833 1_555
Co0 O11 2.077500 1_655
Co0 O9 2.094867 1_656
Co0 O3 2.112676 1_555
Co1 O10 1.851663 1_555
Co1 O4 1.991516 1_455
Co1 O9 2.061833 1_555
Co1 O1 2.077500 1_455
Co1 O0 2.094867 1_454
Co1 O6 2.112676 1_555
Co2 O5 1.967009 1_445
Co2 O7 1.967009 1_555
Co2 O11 2.043562 1_555
Co2 O1 2.043562 1_445
Co2 O2 2.070416 1_455
Co2 O10 2.070416 1_545
