# generated using pymatgen
data_MgO
_symmetry_space_group_name_H-M   'P 1'
_cell_length_a   9.74147727
_cell_length_b   10.46111231
_cell_length_c   8.98087555
_cell_angle_alpha   87.32552168
_cell_angle_beta   92.03941530
_cell_angle_gamma   86.39794205
_symmetry_Int_Tables_number   1
_chemical_formula_structural   MgO
_chemical_formula_sum   'Mg40 O40'
_cell_volume   911.72705958
_cell_formula_units_Z   40
loop_
 _symmetry_equiv_pos_site_id
 _symmetry_equiv_pos_as_xyz
  1  'x, y, z'
loop_
 _atom_site_type_symbol
 _atom_site_label
 _atom_site_symmetry_multiplicity
 _atom_site_fract_x
 _atom_site_fract_y
 _atom_site_fract_z
 _atom_site_occupancy
  Mg  Mg0  1  0.54955400  0.76809400  0.11645900  1
  Mg  Mg1  1  0.24008400  0.61944900  0.68070700  1
  Mg  Mg2  1  0.84902200  0.39036700  0.95841900  1
  Mg  Mg3  1  0.54200500  0.87196800  0.55528800  1
  Mg  Mg4  1  0.35778200  0.38784700  0.54270000  1
  Mg  Mg5  1  0.22658400  0.76870500  0.10354300  1
  Mg  Mg6  1  0.53839600  0.31889900  0.86370200  1
  Mg  Mg7  1  0.54266200  0.60267300  0.70419400  1
  Mg  Mg8  1  0.21765900  0.18053600  0.40845800  1
  Mg  Mg9  1  0.78873400  0.87633400  0.67631400  1
  Mg  Mg10  1  0.24455000  0.35247100  0.83714200  1
  Mg  Mg11  1  0.23944300  0.89163100  0.55520500  1
  Mg  Mg12  1  0.95038500  0.62994000  0.65930000  1
  Mg  Mg13  1  0.05427100  0.94576300  0.25480400  1
  Mg  Mg14  1  0.08820200  0.56632200  0.96809700  1
  Mg  Mg15  1  0.89912600  0.63415300  0.19967400  1
  Mg  Mg16  1  0.03859700  0.22003600  0.13595000  1
  Mg  Mg17  1  0.87720700  0.89303200  0.98211100  1
  Mg  Mg18  1  0.74364500  0.63988000  0.89400200  1
  Mg  Mg19  1  0.36719200  0.96623500  0.26318700  1
  Mg  Mg20  1  0.85163300  0.11500000  0.46303500  1
  Mg  Mg21  1  0.72566500  0.89012000  0.29506400  1
  Mg  Mg22  1  0.57397800  0.03245300  0.94064700  1
  Mg  Mg23  1  0.39354800  0.55547300  0.97556300  1
  Mg  Mg24  1  0.67497200  0.35854300  0.61369000  1
  Mg  Mg25  1  0.69151000  0.24766900  0.14613100  1
  Mg  Mg26  1  0.08514200  0.69370100  0.39659000  1
  Mg  Mg27  1  0.39880500  0.83035800  0.83277200  1
  Mg  Mg28  1  0.35582100  0.27560300  0.12585100  1
  Mg  Mg29  1  0.56060400  0.13288200  0.48210100  1
  Mg  Mg30  1  0.56565600  0.50229400  0.23565400  1
  Mg  Mg31  1  0.24668600  0.49793800  0.25306400  1
  Mg  Mg32  1  0.02994300  0.32976600  0.67805300  1
  Mg  Mg33  1  0.83386600  0.38114400  0.37930500  1
  Mg  Mg34  1  0.36814400  0.11427000  0.70021400  1
  Mg  Mg35  1  0.07643000  0.85813200  0.80145500  1
  Mg  Mg36  1  0.38321600  0.70106700  0.39161200  1
  Mg  Mg37  1  0.72338100  0.63502300  0.43573900  1
  Mg  Mg38  1  0.23674900  0.03975400  0.97023200  1
  Mg  Mg39  1  0.85425300  0.16091600  0.81130300  1
  O  O0  1  0.69571700  0.91467600  0.07440500  1
  O  O1  1  0.53205300  0.37636700  0.08300100  1
  O  O2  1  0.08647400  0.49582300  0.75234300  1
  O  O3  1  0.02376500  0.11258300  0.35244900  1
  O  O4  1  0.39534200  0.74911500  0.61413500  1
  O  O5  1  0.25912400  0.56400500  0.46399600  1
  O  O6  1  0.52767400  0.83543300  0.33507900  1
  O  O7  1  0.69148600  0.71882600  0.62054900  1
  O  O8  1  0.22571300  0.84293500  0.33275400  1
  O  O9  1  0.89470500  0.75179100  0.82755000  1
  O  O10  1  0.10422300  0.63306400  0.18532900  1
  O  O11  1  0.89479200  0.55384800  0.00985400  1
  O  O12  1  0.37490500  0.04365800  0.47297500  1
  O  O13  1  0.23830800  0.42718600  0.03775400  1
  O  O14  1  0.23356200  0.12491800  0.17129800  1
  O  O15  1  0.91615300  0.55376700  0.44578600  1
  O  O16  1  0.23786900  0.96827000  0.75798900  1
  O  O17  1  0.69733100  0.45739900  0.79656000  1
  O  O18  1  0.39336600  0.47456900  0.76090900  1
  O  O19  1  0.37852200  0.18949400  0.91411100  1
  O  O20  1  0.07735700  0.92051500  0.03511100  1
  O  O21  1  0.69486800  0.18689500  0.94012800  1
  O  O22  1  0.38887200  0.90487100  0.04926800  1
  O  O23  1  0.91671900  0.81660000  0.29447700  1
  O  O24  1  0.54090500  0.68179100  0.91129800  1
  O  O25  1  0.68956100  0.21732200  0.35714100  1
  O  O26  1  0.90424100  0.99173400  0.77643100  1
  O  O27  1  0.71415800  0.98004700  0.49270200  1
  O  O28  1  0.39927000  0.62447500  0.18858700  1
  O  O29  1  0.08928000  0.76362300  0.60335000  1
  O  O30  1  0.69689700  0.64203900  0.21569500  1
  O  O31  1  0.21569800  0.26215300  0.62699200  1
  O  O32  1  0.87053100  0.32736500  0.17475400  1
  O  O33  1  0.53270600  0.96403400  0.74780100  1
  O  O34  1  0.61997700  0.48061900  0.45128700  1
  O  O35  1  0.32481400  0.32650100  0.33579100  1
  O  O36  1  0.23514800  0.69753900  0.89598200  1
  O  O37  1  0.51733600  0.25304000  0.63999200  1
  O  O38  1  0.00164700  0.25859400  0.90251200  1
  O  O39  1  0.85990900  0.26812100  0.59521000  1
loop_
_geom_bond_atom_site_label_1
_geom_bond_atom_site_label_2
_geom_bond_distance
_geom_bond_site_symmetry_2
Mg0 O30 2.038341 1_555
Mg0 O24 2.090656 1_554
Mg0 O22 2.105306 1_555
Mg0 O6 2.129929 1_555
Mg0 O0 2.186296 1_555
Mg0 O28 2.252369 1_555
Mg1 O5 2.067907 1_555
Mg1 O29 2.113451 1_555
Mg1 O36 2.134619 1_555
Mg1 O2 2.135335 1_555
Mg1 O18 2.140726 1_555
Mg1 O4 2.175167 1_555
Mg2 O11 1.868640 1_556
Mg2 O32 2.021689 1_556
Mg2 O38 2.055015 1_655
Mg2 O17 2.100035 1_555
Mg3 O33 2.020047 1_555
Mg3 O6 2.033306 1_555
Mg3 O4 2.047753 1_555
Mg3 O7 2.142185 1_555
Mg3 O27 2.157010 1_555
Mg3 O12 2.417676 1_565
Mg4 O35 2.015611 1_555
Mg4 O5 2.103989 1_555
Mg4 O31 2.104318 1_555
Mg4 O37 2.163555 1_555
Mg4 O18 2.222774 1_555
Mg5 O10 2.037480 1_555
Mg5 O36 2.041757 1_554
Mg5 O20 2.137344 1_555
Mg5 O8 2.233863 1_555
Mg5 O22 2.244768 1_555
Mg5 O28 2.274155 1_555
Mg6 O21 2.067368 1_555
Mg6 O1 2.087736 1_556
Mg6 O37 2.161223 1_555
Mg6 O19 2.172772 1_555
Mg6 O18 2.231143 1_555
Mg6 O17 2.264223 1_555
Mg7 O24 2.070984 1_555
Mg7 O7 2.087164 1_555
Mg7 O18 2.098673 1_555
Mg7 O4 2.141515 1_555
Mg7 O17 2.184840 1_555
Mg8 O35 2.000721 1_555
Mg8 O12 2.077567 1_555
Mg8 O3 2.111972 1_555
Mg8 O31 2.176752 1_555
Mg8 O14 2.242058 1_555
Mg9 O26 1.931807 1_555
Mg9 O27 2.018123 1_555
Mg9 O7 2.025486 1_555
Mg9 O9 2.043030 1_555
Mg10 O13 1.998465 1_556
Mg10 O18 2.103205 1_555
Mg10 O19 2.152684 1_555
Mg10 O31 2.166965 1_555
Mg10 O2 2.172536 1_555
Mg11 O16 2.023956 1_555
Mg11 O8 2.086417 1_555
Mg11 O29 2.087365 1_555
Mg11 O4 2.096158 1_555
Mg11 O12 2.244874 1_565
Mg12 O2 2.000555 1_655
Mg12 O29 2.063857 1_655
Mg12 O9 2.086500 1_555
Mg12 O15 2.133922 1_555
Mg12 O7 2.638024 1_555
Mg13 O23 1.991156 1_455
Mg13 O3 1.999747 1_565
Mg13 O8 2.014250 1_555
Mg13 O20 2.021375 1_555
Mg14 O11 1.945279 1_456
Mg14 O13 2.056832 1_556
Mg14 O2 2.105068 1_555
Mg14 O10 2.106446 1_556
Mg14 O36 2.140730 1_555
Mg15 O11 1.935632 1_555
Mg15 O30 1.977196 1_555
Mg15 O10 2.006021 1_655
Mg15 O23 2.139951 1_555
Mg15 O15 2.324440 1_555
Mg16 O32 1.977041 1_455
Mg16 O14 2.094796 1_555
Mg16 O38 2.129932 1_554
Mg16 O3 2.213902 1_555
Mg17 O0 1.983830 1_556
Mg17 O20 2.031730 1_656
Mg17 O9 2.077396 1_555
Mg17 O26 2.106745 1_555
Mg18 O11 1.922899 1_556
Mg18 O24 2.009058 1_555
Mg18 O9 2.026317 1_555
Mg18 O17 2.202159 1_555
Mg18 O7 2.576934 1_555
Mg19 O8 2.040342 1_555
Mg19 O22 2.067499 1_555
Mg19 O6 2.076086 1_555
Mg19 O12 2.085994 1_565
Mg19 O14 2.157629 1_565
Mg20 O3 1.978453 1_655
Mg20 O27 2.021235 1_545
Mg20 O25 2.031910 1_555
Mg20 O39 2.041631 1_555
Mg21 O23 1.968917 1_555
Mg21 O0 1.995045 1_555
Mg21 O27 2.050556 1_555
Mg21 O6 2.084514 1_555
Mg22 O33 1.943136 1_545
Mg22 O0 1.986036 1_546
Mg22 O21 2.058133 1_555
Mg22 O19 2.432925 1_555
Mg22 O22 2.508099 1_546
Mg23 O28 2.076201 1_556
Mg23 O24 2.089499 1_555
Mg23 O18 2.141227 1_555
Mg23 O36 2.152844 1_555
Mg23 O13 2.155253 1_556
Mg23 O1 2.383904 1_556
Mg24 O34 1.931256 1_555
Mg24 O37 1.961234 1_555
Mg24 O17 1.993864 1_555
Mg24 O39 1.997429 1_555
Mg25 O25 1.907760 1_555
Mg25 O21 1.984830 1_554
Mg25 O32 1.993294 1_555
Mg25 O1 2.037210 1_555
Mg26 O29 2.027269 1_555
Mg26 O10 2.039438 1_555
Mg26 O5 2.154333 1_555
Mg26 O23 2.168783 1_455
Mg26 O8 2.209529 1_555
Mg26 O15 2.311342 1_455
Mg27 O24 2.094494 1_555
Mg27 O33 2.107075 1_555
Mg27 O16 2.130909 1_555
Mg27 O22 2.131364 1_556
Mg27 O4 2.175687 1_555
Mg27 O36 2.250244 1_555
Mg28 O13 2.010304 1_555
Mg28 O35 2.010884 1_555
Mg28 O14 2.068891 1_555
Mg28 O1 2.107853 1_555
Mg28 O19 2.154349 1_554
Mg29 O25 1.940389 1_555
Mg29 O37 1.977549 1_555
Mg29 O12 2.087842 1_555
Mg29 O27 2.116128 1_545
Mg30 O1 1.978090 1_555
Mg30 O34 1.988153 1_555
Mg30 O30 2.007601 1_555
Mg30 O28 2.019898 1_555
Mg31 O10 1.976710 1_555
Mg31 O35 2.002872 1_555
Mg31 O5 2.048730 1_555
Mg31 O13 2.103208 1_555
Mg31 O28 2.129287 1_555
Mg32 O39 1.950458 1_455
Mg32 O31 1.978250 1_555
Mg32 O2 1.992054 1_555
Mg32 O38 2.149230 1_555
Mg33 O32 1.984117 1_555
Mg33 O15 2.123322 1_555
Mg33 O39 2.221584 1_555
Mg33 O25 2.295069 1_555
Mg33 O34 2.393402 1_555
Mg34 O16 2.104505 1_545
Mg34 O19 2.111136 1_555
Mg34 O31 2.139617 1_555
Mg34 O37 2.181724 1_555
Mg34 O33 2.189639 1_545
Mg34 O12 2.204316 1_555
Mg35 O16 2.045119 1_555
Mg35 O29 2.079180 1_555
Mg35 O26 2.113465 1_455
Mg35 O9 2.163091 1_455
Mg35 O20 2.226339 1_556
Mg35 O36 2.319634 1_555
Mg36 O5 2.031370 1_555
Mg36 O28 2.032709 1_555
Mg36 O4 2.084420 1_555
Mg36 O8 2.102146 1_555
Mg36 O6 2.108706 1_555
Mg37 O7 1.938595 1_555
Mg37 O34 1.958715 1_555
Mg37 O30 1.981177 1_555
Mg37 O15 2.009315 1_555
Mg38 O14 2.050869 1_556
Mg38 O22 2.063926 1_546
Mg38 O16 2.079935 1_545
Mg38 O20 2.132204 1_546
Mg38 O19 2.205190 1_555
Mg39 O26 1.849812 1_545
Mg39 O21 1.981742 1_555
Mg39 O38 1.988839 1_655
Mg39 O39 2.199853 1_555
