# generated using pymatgen
data_Sr2Cu2SbO7
_symmetry_space_group_name_H-M   'P 1'
_cell_length_a   13.77861172
_cell_length_b   13.77861172
_cell_length_c   13.77861172
_cell_angle_alpha   158.34530651
_cell_angle_beta   158.09301887
_cell_angle_gamma   30.99464226
_symmetry_Int_Tables_number   1
_chemical_formula_structural   Sr2Cu2SbO7
_chemical_formula_sum   'Sr4 Cu4 Sb2 O14'
_cell_volume   359.90285351
_cell_formula_units_Z   2
loop_
 _symmetry_equiv_pos_site_id
 _symmetry_equiv_pos_as_xyz
  1  'x, y, z'
loop_
 _atom_site_type_symbol
 _atom_site_label
 _atom_site_symmetry_multiplicity
 _atom_site_fract_x
 _atom_site_fract_y
 _atom_site_fract_z
 _atom_site_occupancy
  Sr  Sr0  1  0.63869800  0.61813100  0.97852600  1
  Sr  Sr1  1  0.36130200  0.33982700  0.97943300  1
  Sr  Sr2  1  0.13960600  0.11813100  0.97943300  1
  Sr  Sr3  1  0.86039400  0.83982700  0.97852600  1
  Cu  Cu0  1  0.56177200  0.03822800  0.48039500  1
  Cu  Cu1  1  0.43822800  0.91862300  0.47645600  1
  Cu  Cu2  1  0.05783300  0.53822800  0.47645600  1
  Cu  Cu3  1  0.94216700  0.41862300  0.48039500  1
  Sb  Sb0  1  0.23357600  0.76876600  0.50234200  1
  Sb  Sb1  1  0.76642400  0.26876600  0.53519100  1
  O  O0  1  0.86439000  0.64756300  0.01195300  1
  O  O1  1  0.13561000  0.14756300  0.78317200  1
  O  O2  1  0.32624500  0.30410500  0.48065400  1
  O  O3  1  0.67375500  0.15440800  0.97786000  1
  O  O4  1  0.32345200  0.80410500  0.97786000  1
  O  O5  1  0.67654800  0.65440800  0.48065400  1
  O  O6  1  0.82664200  0.80323200  0.47876500  1
  O  O7  1  0.17335800  0.65212200  0.97659000  1
  O  O8  1  0.82446700  0.30323200  0.97659000  1
  O  O9  1  0.17553300  0.15212200  0.47876500  1
  O  O10  1  0.18803000  0.65136500  0.48865900  1
  O  O11  1  0.81197000  0.30062900  0.46333500  1
  O  O12  1  0.66270600  0.15136500  0.46333500  1
  O  O13  1  0.33729400  0.80062900  0.48865900  1
loop_
_geom_bond_atom_site_label_1
_geom_bond_atom_site_label_2
_geom_bond_distance
_geom_bond_site_symmetry_2
Cu0 O8 1.873973 1_555
Cu0 O6 1.887167 1_545
Cu0 O2 1.888678 1_555
Cu0 O4 1.892997 1_544
Cu1 O9 1.873972 1_565
Cu1 O7 1.887170 1_554
Cu1 O3 1.888681 1_565
Cu1 O5 1.893000 1_555
Cu2 O6 1.873973 1_455
Cu2 O8 1.887167 1_454
Cu2 O4 1.888681 1_555
Cu2 O2 1.892995 1_555
Cu3 O7 1.873976 1_655
Cu3 O9 1.887174 1_655
Cu3 O5 1.888684 1_555
Cu3 O3 1.892997 1_554
O0 Sb1 2.026874 1_554
O0 Sb0 2.032404 1_655
O0 Sr3 3.033805 1_554
O0 Sr0 3.033831 1_554
O1 Sb0 2.026876 1_545
O1 Sb1 2.032401 1_455
O1 Sr1 3.033806 1_555
O1 Sr2 3.033832 1_555
O2 Sr0 2.505068 1_555
O2 Sr2 2.514176 1_554
O3 Sr1 2.505068 1_555
O3 Sr3 2.514173 1_545
O4 Sr2 2.505068 1_565
O4 Sr0 2.514155 1_555
O5 Sr3 2.505068 1_555
O5 Sr1 2.514158 1_554
O6 Sr0 2.498885 1_554
O6 Sr2 2.499898 1_665
O7 Sr1 2.498885 1_555
O7 Sr3 2.499901 1_455
O8 Sr2 2.498897 1_655
O8 Sr0 2.499889 1_555
O9 Sr3 2.498894 1_444
O9 Sr1 2.499889 1_555
O10 Sb0 2.000012 1_555
O10 Sr0 2.724842 1_555
O10 Sr2 2.747490 1_554
O10 Sr2 2.776423 1_565
O10 Sr0 2.853763 1_454
O11 Sb1 2.000026 1_555
O11 Sr1 2.724835 1_554
O11 Sr3 2.747483 1_544
O11 Sr3 2.776421 1_555
O11 Sr1 2.853761 1_655
O12 Sb1 2.000000 1_555
O12 Sr2 2.724835 1_554
O12 Sr0 2.747493 1_544
O12 Sr0 2.776430 1_555
O12 Sr2 2.853761 1_655
O13 Sb0 2.000012 1_555
O13 Sr3 2.724833 1_555
O13 Sr1 2.747490 1_554
O13 Sr1 2.776423 1_565
O13 Sr3 2.853754 1_454
