# generated using pymatgen
data_Sr4La2Mn3(IrO6)3
_symmetry_space_group_name_H-M   'P 1'
_cell_length_a   5.67230369
_cell_length_b   5.67230369
_cell_length_c   13.83726300
_cell_angle_alpha   90.00000000
_cell_angle_beta   90.00000000
_cell_angle_gamma   119.99999634
_symmetry_Int_Tables_number   1
_chemical_formula_structural   Sr4La2Mn3(IrO6)3
_chemical_formula_sum   'Sr4 La2 Mn3 Ir3 O18'
_cell_volume   385.56694265
_cell_formula_units_Z   1
loop_
 _symmetry_equiv_pos_site_id
 _symmetry_equiv_pos_as_xyz
  1  'x, y, z'
loop_
 _atom_site_type_symbol
 _atom_site_label
 _atom_site_symmetry_multiplicity
 _atom_site_fract_x
 _atom_site_fract_y
 _atom_site_fract_z
 _atom_site_occupancy
  Sr  Sr0  1  0.66666700  0.33333300  0.91512200  1
  Sr  Sr1  1  0.33333300  0.66666700  0.08487800  1
  Sr  Sr2  1  0.66666700  0.33333300  0.41595200  1
  Sr  Sr3  1  0.33333300  0.66666700  0.58404800  1
  La  La0  1  0.00000000  0.00000000  0.25102000  1
  La  La1  1  0.00000000  0.00000000  0.74898000  1
  Mn  Mn0  1  0.00000000  0.00000000  0.00000000  1
  Mn  Mn1  1  0.33333300  0.66666700  0.33360400  1
  Mn  Mn2  1  0.66666700  0.33333300  0.66639600  1
  Ir  Ir0  1  0.66666700  0.33333300  0.16548000  1
  Ir  Ir1  1  0.00000000  0.00000000  0.50000000  1
  Ir  Ir2  1  0.33333300  0.66666700  0.83452000  1
  O  O0  1  0.67291700  0.83645800  0.91049800  1
  O  O1  1  0.32025500  0.16012800  0.58691100  1
  O  O2  1  0.00480900  0.50240400  0.75067100  1
  O  O3  1  0.67974500  0.83987200  0.41308900  1
  O  O4  1  0.32708300  0.16354200  0.08950200  1
  O  O5  1  0.99519100  0.49759600  0.24932900  1
  O  O6  1  0.49759600  0.99519100  0.75067100  1
  O  O7  1  0.16012800  0.32025500  0.41308900  1
  O  O8  1  0.83987200  0.67974500  0.58691100  1
  O  O9  1  0.50240400  0.00480900  0.24932900  1
  O  O10  1  0.16354200  0.32708300  0.91049800  1
  O  O11  1  0.83645800  0.67291700  0.08950200  1
  O  O12  1  0.49759600  0.50240400  0.75067100  1
  O  O13  1  0.16012800  0.83987200  0.41308900  1
  O  O14  1  0.83987200  0.16012800  0.58691100  1
  O  O15  1  0.50240400  0.49759600  0.24932900  1
  O  O16  1  0.16354200  0.83645800  0.91049800  1
  O  O17  1  0.83645800  0.16354200  0.08950200  1
loop_
_geom_bond_atom_site_label_1
_geom_bond_atom_site_label_2
_geom_bond_distance
_geom_bond_site_symmetry_2
La0 O7 2.739379 1_555
La0 O3 2.739379 1_445
La0 O13 2.739382 1_545
La0 O4 2.752584 1_555
La0 O11 2.752584 1_445
La0 O17 2.752587 1_455
La0 O5 2.836344 1_445
La0 O9 2.836344 1_555
La0 O15 2.836347 1_555
La0 O15 2.836347 1_445
La0 O9 2.836350 1_455
La0 O5 2.836350 1_455
La1 O1 2.739379 1_555
La1 O8 2.739379 1_445
La1 O14 2.739382 1_455
La1 O10 2.752584 1_555
La1 O0 2.752584 1_445
La1 O16 2.752587 1_545
La1 O6 2.836344 1_445
La1 O2 2.836344 1_555
La1 O12 2.836347 1_555
La1 O12 2.836347 1_445
La1 O2 2.836350 1_545
La1 O6 2.836350 1_545
Mn0 O11 2.028653 1_445
Mn0 O4 2.028653 1_555
Mn0 O0 2.028653 1_444
Mn0 O10 2.028653 1_554
Mn0 O17 2.028657 1_455
Mn0 O16 2.028657 1_544
Mn1 O13 2.026186 1_555
Mn1 O3 2.026195 1_555
Mn1 O7 2.026195 1_555
Mn1 O15 2.029542 1_555
Mn1 O9 2.029542 1_565
Mn1 O5 2.029542 1_455
Mn2 O14 2.026186 1_555
Mn2 O8 2.026195 1_555
Mn2 O1 2.026195 1_555
Mn2 O12 2.029542 1_555
Mn2 O2 2.029542 1_655
Mn2 O6 2.029542 1_545
Ir0 O17 1.971804 1_555
Ir0 O4 1.971812 1_555
Ir0 O11 1.971812 1_555
Ir0 O5 1.987611 1_555
Ir0 O9 1.987611 1_555
Ir0 O15 1.987619 1_555
Ir1 O1 1.980216 1_555
Ir1 O7 1.980216 1_555
Ir1 O8 1.980216 1_445
Ir1 O3 1.980216 1_445
Ir1 O14 1.980219 1_455
Ir1 O13 1.980219 1_545
Ir2 O16 1.971804 1_555
Ir2 O10 1.971812 1_555
Ir2 O0 1.971812 1_555
Ir2 O6 1.987611 1_555
Ir2 O2 1.987611 1_555
Ir2 O12 1.987619 1_555
O0 Sr0 2.837040 1_565
O0 Sr0 2.837040 1_555
O0 Sr1 2.933435 1_556
O1 Sr3 2.837156 1_545
O1 Sr3 2.837156 1_555
O1 Sr2 2.914081 1_555
O2 Sr3 2.814296 1_555
O2 Sr0 2.817322 1_455
O3 Sr2 2.837156 1_565
O3 Sr2 2.837156 1_555
O3 Sr3 2.914081 1_555
O4 Sr1 2.837040 1_545
O4 Sr1 2.837040 1_555
O4 Sr0 2.933435 1_554
O5 Sr2 2.814296 1_555
O5 Sr1 2.817322 1_655
O6 Sr3 2.814296 1_555
O6 Sr0 2.817322 1_565
O7 Sr2 2.837156 1_455
O7 Sr2 2.837156 1_555
O7 Sr3 2.914081 1_555
O8 Sr3 2.837156 1_655
O8 Sr3 2.837156 1_555
O8 Sr2 2.914081 1_555
O9 Sr2 2.814296 1_555
O9 Sr1 2.817322 1_545
O10 Sr0 2.837040 1_455
O10 Sr0 2.837040 1_555
O10 Sr1 2.933435 1_556
O11 Sr1 2.837040 1_655
O11 Sr1 2.837040 1_555
O11 Sr0 2.933435 1_554
O12 Sr3 2.814301 1_555
O12 Sr0 2.817322 1_555
O13 Sr2 2.837156 1_455
O13 Sr2 2.837156 1_565
O13 Sr3 2.914075 1_555
O14 Sr3 2.837156 1_545
O14 Sr3 2.837156 1_655
O14 Sr2 2.914075 1_555
O15 Sr2 2.814301 1_555
O15 Sr1 2.817322 1_555
O16 Sr0 2.837040 1_455
O16 Sr0 2.837040 1_565
O16 Sr1 2.933430 1_556
O17 Sr1 2.837040 1_545
O17 Sr1 2.837040 1_655
O17 Sr0 2.933430 1_554
