# generated using pymatgen
data_MgV4(GeO4)4
_symmetry_space_group_name_H-M   'P 1'
_cell_length_a   4.60727340
_cell_length_b   4.85094931
_cell_length_c   11.37731344
_cell_angle_alpha   90.00066115
_cell_angle_beta   90.00304164
_cell_angle_gamma   89.72363450
_symmetry_Int_Tables_number   1
_chemical_formula_structural   MgV4(GeO4)4
_chemical_formula_sum   'Mg1 V4 Ge4 O16'
_cell_volume   254.27601160
_cell_formula_units_Z   1
loop_
 _symmetry_equiv_pos_site_id
 _symmetry_equiv_pos_as_xyz
  1  'x, y, z'
loop_
 _atom_site_type_symbol
 _atom_site_label
 _atom_site_symmetry_multiplicity
 _atom_site_fract_x
 _atom_site_fract_y
 _atom_site_fract_z
 _atom_site_occupancy
  Mg  Mg0  1  0.00006000  0.24997000  0.70360500  1
  V  V0  1  0.00003700  0.75003200  0.55512200  1
  V  V1  1  0.49991000  0.75010100  0.06743900  1
  V  V2  1  0.50000600  0.24992800  0.93924200  1
  V  V3  1  0.00002300  0.24996300  0.42559100  1
  Ge  Ge0  1  0.00002100  0.75000400  0.83385700  1
  Ge  Ge1  1  0.50004900  0.25017600  0.66942400  1
  Ge  Ge2  1  0.50000800  0.74993200  0.32008900  1
  Ge  Ge3  1  0.99990600  0.25005400  0.17417900  1
  O  O0  1  0.22019200  0.08198500  0.30729800  1
  O  O1  1  0.25497400  0.58165300  0.43493500  1
  O  O2  1  0.24741000  0.07817000  0.06311500  1
  O  O3  1  0.24340900  0.10087500  0.56319500  1
  O  O4  1  0.28280700  0.58065800  0.19189600  1
  O  O5  1  0.27406100  0.07644500  0.80651200  1
  O  O6  1  0.22878600  0.57945600  0.69213800  1
  O  O7  1  0.24491600  0.58680500  0.94110500  1
  O  O8  1  0.75244200  0.42178700  0.06308200  1
  O  O9  1  0.77972700  0.41800700  0.30730000  1
  O  O10  1  0.71711700  0.91933100  0.19191000  1
  O  O11  1  0.72601000  0.42352300  0.80648400  1
  O  O12  1  0.74503000  0.91834700  0.43493700  1
  O  O13  1  0.75505600  0.91309300  0.94110700  1
  O  O14  1  0.75670900  0.39917900  0.56318000  1
  O  O15  1  0.77133500  0.92052600  0.69214700  1
loop_
_geom_bond_atom_site_label_1
_geom_bond_atom_site_label_2
_geom_bond_distance
_geom_bond_site_symmetry_2
Mg0 O5 1.913794 1_555
Mg0 O11 1.913877 1_455
Mg0 O15 1.922937 1_445
Mg0 O6 1.923127 1_555
Mg0 O3 2.079528 1_555
Mg0 O14 2.079777 1_455
Ge0 O7 1.838459 1_555
Ge0 O13 1.838511 1_455
Ge0 O5 2.053743 1_565
Ge0 O11 2.053833 1_455
Ge0 O15 2.094099 1_455
Ge0 O6 2.094481 1_555
Ge1 O14 1.841279 1_555
Ge1 O3 1.841586 1_555
Ge1 O6 2.039838 1_555
Ge1 O15 2.041304 1_545
Ge1 O11 2.056894 1_555
Ge1 O5 2.058064 1_555
Ge2 O1 1.912393 1_555
Ge2 O12 1.912564 1_555
Ge2 O4 1.952082 1_555
Ge2 O10 1.952095 1_555
Ge2 O9 2.062671 1_555
Ge2 O0 2.063426 1_565
Ge3 O8 1.892690 1_555
Ge3 O2 1.892939 1_655
Ge3 O9 1.994717 1_555
Ge3 O0 1.995111 1_655
Ge3 O4 2.081252 1_655
Ge3 O10 2.081406 1_545
O0 V3 1.869873 1_555
O1 V0 1.976726 1_555
O1 V3 1.999547 1_555
O2 V1 1.967386 1_545
O2 V2 2.011066 1_554
O3 V0 2.044661 1_545
O3 V3 2.055108 1_555
O4 V1 1.920742 1_555
O5 V2 2.020042 1_555
O6 V0 2.053518 1_555
O7 V2 2.008408 1_555
O7 V1 2.020502 1_556
O8 V1 1.968442 1_555
O8 V2 2.010479 1_554
O9 V3 1.870248 1_655
O10 V1 1.920573 1_555
O11 V2 2.020746 1_555
O12 V0 1.976701 1_655
O12 V3 1.999381 1_665
O13 V2 2.008135 1_565
O13 V1 2.020414 1_556
O14 V0 2.044589 1_655
O14 V3 2.055092 1_655
O15 V0 2.053397 1_655
