# generated using pymatgen
data_CsSi2H18C6N
_symmetry_space_group_name_H-M   'P 1'
_cell_length_a   13.42284636
_cell_length_b   13.55398835
_cell_length_c   16.18952306
_cell_angle_alpha   90.00000000
_cell_angle_beta   90.00000000
_cell_angle_gamma   90.00000000
_symmetry_Int_Tables_number   1
_chemical_formula_structural   CsSi2H18C6N
_chemical_formula_sum   'Cs8 Si16 H144 C48 N8'
_cell_volume   2945.41016943
_cell_formula_units_Z   8
loop_
 _symmetry_equiv_pos_site_id
 _symmetry_equiv_pos_as_xyz
  1  'x, y, z'
loop_
 _atom_site_type_symbol
 _atom_site_label
 _atom_site_symmetry_multiplicity
 _atom_site_fract_x
 _atom_site_fract_y
 _atom_site_fract_z
 _atom_site_occupancy
  Cs  Cs0  1  0.35687222  0.00730878  0.93580812  1
  Cs  Cs1  1  0.85687222  0.49269122  0.06419188  1
  Cs  Cs2  1  0.64312778  0.50730878  0.56419188  1
  Cs  Cs3  1  0.14312778  0.99269122  0.43580812  1
  Cs  Cs4  1  0.64312778  0.99269122  0.06419188  1
  Cs  Cs5  1  0.14312778  0.50730878  0.93580812  1
  Cs  Cs6  1  0.35687222  0.49269122  0.43580812  1
  Cs  Cs7  1  0.85687222  0.00730878  0.56419188  1
  Si  Si0  1  0.49424888  0.24680092  0.02539822  1
  Si  Si1  1  0.99424888  0.25319908  0.97460178  1
  Si  Si2  1  0.50575112  0.74680092  0.47460178  1
  Si  Si3  1  0.00575112  0.75319908  0.52539822  1
  Si  Si4  1  0.50575112  0.75319908  0.97460178  1
  Si  Si5  1  0.00575112  0.74680092  0.02539822  1
  Si  Si6  1  0.49424888  0.25319908  0.52539822  1
  Si  Si7  1  0.99424888  0.24680092  0.47460178  1
  Si  Si8  1  0.39585896  0.12860879  0.16511317  1
  Si  Si9  1  0.89585896  0.37139121  0.83488683  1
  Si  Si10  1  0.60414104  0.62860879  0.33488683  1
  Si  Si11  1  0.10414104  0.87139121  0.66511317  1
  Si  Si12  1  0.60414104  0.87139121  0.83488683  1
  Si  Si13  1  0.10414104  0.62860879  0.16511317  1
  Si  Si14  1  0.39585896  0.37139121  0.66511317  1
  Si  Si15  1  0.89585896  0.12860879  0.33488683  1
  H  H0  1  0.57979674  0.28487288  0.89212809  1
  H  H1  1  0.07979674  0.21512712  0.10787191  1
  H  H2  1  0.42020326  0.78487288  0.60787191  1
  H  H3  1  0.92020326  0.71512712  0.39212809  1
  H  H4  1  0.42020326  0.71512712  0.10787191  1
  H  H5  1  0.92020326  0.78487288  0.89212809  1
  H  H6  1  0.57979674  0.21512712  0.39212809  1
  H  H7  1  0.07979674  0.28487288  0.60787191  1
  H  H8  1  0.62303981  0.17067728  0.93016926  1
  H  H9  1  0.12303981  0.32932272  0.06983074  1
  H  H10  1  0.37696019  0.67067728  0.56983074  1
  H  H11  1  0.87696019  0.82932272  0.43016926  1
  H  H12  1  0.37696019  0.82932272  0.06983074  1
  H  H13  1  0.87696019  0.67067728  0.93016926  1
  H  H14  1  0.62303981  0.32932272  0.43016926  1
  H  H15  1  0.12303981  0.17067728  0.56983074  1
  H  H16  1  0.50608659  0.17848738  0.87895829  1
  H  H17  1  0.00608659  0.32151262  0.12104171  1
  H  H18  1  0.49391341  0.67848738  0.62104171  1
  H  H19  1  0.99391341  0.82151262  0.37895829  1
  H  H20  1  0.49391341  0.82151262  0.12104171  1
  H  H21  1  0.99391341  0.67848738  0.87895829  1
  H  H22  1  0.50608659  0.32151262  0.37895829  1
  H  H23  1  0.00608659  0.17848738  0.62104171  1
  H  H24  1  0.61160558  0.38876035  0.04815793  1
  H  H25  1  0.11160558  0.11123965  0.95184207  1
  H  H26  1  0.38839442  0.88876035  0.45184207  1
  H  H27  1  0.88839442  0.61123965  0.54815793  1
  H  H28  1  0.38839442  0.61123965  0.95184207  1
  H  H29  1  0.88839442  0.88876035  0.04815793  1
  H  H30  1  0.61160558  0.11123965  0.54815793  1
  H  H31  1  0.11160558  0.38876035  0.45184207  1
  H  H32  1  0.57047205  0.34106214  0.14472399  1
  H  H33  1  0.07047205  0.15893786  0.85527601  1
  H  H34  1  0.42952795  0.84106214  0.35527601  1
  H  H35  1  0.92952795  0.65893786  0.64472399  1
  H  H36  1  0.42952795  0.65893786  0.85527601  1
  H  H37  1  0.92952795  0.84106214  0.14472399  1
  H  H38  1  0.57047205  0.15893786  0.64472399  1
  H  H39  1  0.07047205  0.34106214  0.35527601  1
  H  H40  1  0.66367663  0.27729730  0.08775766  1
  H  H41  1  0.16367663  0.22270270  0.91224234  1
  H  H42  1  0.33632337  0.77729730  0.41224234  1
  H  H43  1  0.83632337  0.72270270  0.58775766  1
  H  H44  1  0.33632337  0.72270270  0.91224234  1
  H  H45  1  0.83632337  0.77729730  0.08775766  1
  H  H46  1  0.66367663  0.22270270  0.58775766  1
  H  H47  1  0.16367663  0.27729730  0.41224234  1
  H  H48  1  0.42714529  0.40384669  0.96312086  1
  H  H49  1  0.92714529  0.09615331  0.03687914  1
  H  H50  1  0.57285471  0.90384669  0.53687914  1
  H  H51  1  0.07285471  0.59615331  0.46312086  1
  H  H52  1  0.57285471  0.59615331  0.03687914  1
  H  H53  1  0.07285471  0.90384669  0.96312086  1
  H  H54  1  0.42714529  0.09615331  0.46312086  1
  H  H55  1  0.92714529  0.40384669  0.53687914  1
  H  H56  1  0.33588649  0.30813570  0.96050730  1
  H  H57  1  0.83588649  0.19186430  0.03949270  1
  H  H58  1  0.66411351  0.80813570  0.53949270  1
  H  H59  1  0.16411351  0.69186430  0.46050730  1
  H  H60  1  0.66411351  0.69186430  0.03949270  1
  H  H61  1  0.16411351  0.80813570  0.96050730  1
  H  H62  1  0.33588649  0.19186430  0.46050730  1
  H  H63  1  0.83588649  0.30813570  0.53949270  1
  H  H64  1  0.36040787  0.37218168  0.05467550  1
  H  H65  1  0.86040787  0.12781832  0.94532450  1
  H  H66  1  0.63959213  0.87218168  0.44532450  1
  H  H67  1  0.13959213  0.62781832  0.55467550  1
  H  H68  1  0.63959213  0.62781832  0.94532450  1
  H  H69  1  0.13959213  0.87218168  0.05467550  1
  H  H70  1  0.36040787  0.12781832  0.55467550  1
  H  H71  1  0.86040787  0.37218168  0.44532450  1
  H  H72  1  0.24730328  0.03792335  0.21974886  1
  H  H73  1  0.74730328  0.46207665  0.78025114  1
  H  H74  1  0.75269672  0.53792335  0.28025114  1
  H  H75  1  0.25269672  0.96207665  0.71974886  1
  H  H76  1  0.75269672  0.96207665  0.78025114  1
  H  H77  1  0.25269672  0.53792335  0.21974886  1
  H  H78  1  0.24730328  0.46207665  0.71974886  1
  H  H79  1  0.74730328  0.03792335  0.28025114  1
  H  H80  1  0.22214362  0.08040414  0.11864409  1
  H  H81  1  0.72214362  0.41959586  0.88135591  1
  H  H82  1  0.77785638  0.58040414  0.38135591  1
  H  H83  1  0.27785638  0.91959586  0.61864409  1
  H  H84  1  0.77785638  0.91959586  0.88135591  1
  H  H85  1  0.27785638  0.58040414  0.11864409  1
  H  H86  1  0.22214362  0.41959586  0.61864409  1
  H  H87  1  0.72214362  0.08040414  0.38135591  1
  H  H88  1  0.29728420  0.97315792  0.13499137  1
  H  H89  1  0.79728420  0.52684208  0.86500863  1
  H  H90  1  0.70271580  0.47315792  0.36500863  1
  H  H91  1  0.20271580  0.02684208  0.63499137  1
  H  H92  1  0.70271580  0.02684208  0.86500863  1
  H  H93  1  0.20271580  0.47315792  0.13499137  1
  H  H94  1  0.29728420  0.52684208  0.63499137  1
  H  H95  1  0.79728420  0.97315792  0.36500863  1
  H  H96  1  0.43919713  0.05768548  0.30401782  1
  H  H97  1  0.93919713  0.44231452  0.69598218  1
  H  H98  1  0.56080287  0.55768548  0.19598218  1
  H  H99  1  0.06080287  0.94231452  0.80401782  1
  H  H100  1  0.56080287  0.94231452  0.69598218  1
  H  H101  1  0.06080287  0.55768548  0.30401782  1
  H  H102  1  0.43919713  0.44231452  0.80401782  1
  H  H103  1  0.93919713  0.05768548  0.19598218  1
  H  H104  1  0.49300126  0.98573261  0.22500680  1
  H  H105  1  0.99300126  0.51426739  0.77499320  1
  H  H106  1  0.50699874  0.48573261  0.27499320  1
  H  H107  1  0.00699874  0.01426739  0.72500680  1
  H  H108  1  0.50699874  0.01426739  0.77499320  1
  H  H109  1  0.00699874  0.48573261  0.22500680  1
  H  H110  1  0.49300126  0.51426739  0.72500680  1
  H  H111  1  0.99300126  0.98573261  0.27499320  1
  H  H112  1  0.54820390  0.10063761  0.25395362  1
  H  H113  1  0.04820390  0.39936239  0.74604638  1
  H  H114  1  0.45179610  0.60063761  0.24604638  1
  H  H115  1  0.95179610  0.89936239  0.75395362  1
  H  H116  1  0.45179610  0.89936239  0.74604638  1
  H  H117  1  0.95179610  0.60063761  0.25395362  1
  H  H118  1  0.54820390  0.39936239  0.75395362  1
  H  H119  1  0.04820390  0.10063761  0.24604638  1
  H  H120  1  0.32109284  0.22709653  0.28149809  1
  H  H121  1  0.82109284  0.27290347  0.71850191  1
  H  H122  1  0.67890716  0.72709653  0.21850191  1
  H  H123  1  0.17890716  0.77290347  0.78149809  1
  H  H124  1  0.67890716  0.77290347  0.71850191  1
  H  H125  1  0.17890716  0.72709653  0.28149809  1
  H  H126  1  0.32109284  0.27290347  0.78149809  1
  H  H127  1  0.82109284  0.22709653  0.21850191  1
  H  H128  1  0.41233120  0.29785311  0.22820788  1
  H  H129  1  0.91233120  0.20214689  0.77179212  1
  H  H130  1  0.58766880  0.79785311  0.27179212  1
  H  H131  1  0.08766880  0.70214689  0.72820788  1
  H  H132  1  0.58766880  0.70214689  0.77179212  1
  H  H133  1  0.08766880  0.79785311  0.22820788  1
  H  H134  1  0.41233120  0.20214689  0.72820788  1
  H  H135  1  0.91233120  0.29785311  0.27179212  1
  H  H136  1  0.29159820  0.28162383  0.18481513  1
  H  H137  1  0.79159820  0.21837617  0.81518487  1
  H  H138  1  0.70840180  0.78162383  0.31518487  1
  H  H139  1  0.20840180  0.71837617  0.68481513  1
  H  H140  1  0.70840180  0.71837617  0.81518487  1
  H  H141  1  0.20840180  0.78162383  0.18481513  1
  H  H142  1  0.29159820  0.21837617  0.68481513  1
  H  H143  1  0.79159820  0.28162383  0.31518487  1
  C  C0  1  0.55583736  0.21655039  0.92270279  1
  C  C1  1  0.05583736  0.28344961  0.07729721  1
  C  C2  1  0.44416264  0.71655039  0.57729721  1
  C  C3  1  0.94416264  0.78344961  0.42270279  1
  C  C4  1  0.44416264  0.78344961  0.07729721  1
  C  C5  1  0.94416264  0.71655039  0.92270279  1
  C  C6  1  0.55583736  0.28344961  0.42270279  1
  C  C7  1  0.05583736  0.21655039  0.57729721  1
  C  C8  1  0.59436609  0.32040819  0.08220972  1
  C  C9  1  0.09436609  0.17959181  0.91779028  1
  C  C10  1  0.40563391  0.82040819  0.41779028  1
  C  C11  1  0.90563391  0.67959181  0.58220972  1
  C  C12  1  0.40563391  0.67959181  0.91779028  1
  C  C13  1  0.90563391  0.82040819  0.08220972  1
  C  C14  1  0.59436609  0.17959181  0.58220972  1
  C  C15  1  0.09436609  0.32040819  0.41779028  1
  C  C16  1  0.39473496  0.34213126  0.99840393  1
  C  C17  1  0.89473496  0.15786874  0.00159607  1
  C  C18  1  0.60526504  0.84213126  0.50159607  1
  C  C19  1  0.10526504  0.65786874  0.49840393  1
  C  C20  1  0.60526504  0.65786874  0.00159607  1
  C  C21  1  0.10526504  0.84213126  0.99840393  1
  C  C22  1  0.39473496  0.15786874  0.49840393  1
  C  C23  1  0.89473496  0.34213126  0.50159607  1
  C  C24  1  0.28026329  0.04784447  0.15816140  1
  C  C25  1  0.78026329  0.45215553  0.84183860  1
  C  C26  1  0.71973671  0.54784447  0.34183860  1
  C  C27  1  0.21973671  0.95215553  0.65816140  1
  C  C28  1  0.71973671  0.95215553  0.84183860  1
  C  C29  1  0.21973671  0.54784447  0.15816140  1
  C  C30  1  0.28026329  0.45215553  0.65816140  1
  C  C31  1  0.78026329  0.04784447  0.34183860  1
  C  C32  1  0.47685929  0.06228275  0.24386134  1
  C  C33  1  0.97685929  0.43771725  0.75613866  1
  C  C34  1  0.52314071  0.56228275  0.25613866  1
  C  C35  1  0.02314071  0.93771725  0.74386134  1
  C  C36  1  0.52314071  0.93771725  0.75613866  1
  C  C37  1  0.02314071  0.56228275  0.24386134  1
  C  C38  1  0.47685929  0.43771725  0.74386134  1
  C  C39  1  0.97685929  0.06228275  0.25613866  1
  C  C40  1  0.35118964  0.24481256  0.21990659  1
  C  C41  1  0.85118964  0.25518744  0.78009341  1
  C  C42  1  0.64881036  0.74481256  0.28009341  1
  C  C43  1  0.14881036  0.75518744  0.71990659  1
  C  C44  1  0.64881036  0.75518744  0.78009341  1
  C  C45  1  0.14881036  0.74481256  0.21990659  1
  C  C46  1  0.35118964  0.25518744  0.71990659  1
  C  C47  1  0.85118964  0.24481256  0.28009341  1
  N  N0  1  0.45340464  0.14337954  0.07232167  1
  N  N1  1  0.95340464  0.35662046  0.92767833  1
  N  N2  1  0.54659536  0.64337954  0.42767833  1
  N  N3  1  0.04659536  0.85662046  0.57232167  1
  N  N4  1  0.54659536  0.85662046  0.92767833  1
  N  N5  1  0.04659536  0.64337954  0.07232167  1
  N  N6  1  0.45340464  0.35662046  0.57232167  1
  N  N7  1  0.95340464  0.14337954  0.42767833  1
loop_
_geom_bond_atom_site_label_1
_geom_bond_atom_site_label_2
_geom_bond_distance
_geom_bond_site_symmetry_2
Cs0 N0 3.156720 1_556
Cs0 H16 3.200270 1_555
Cs0 H12 3.255818 1_546
Cs0 N4 3.267129 1_545
Cs0 H108 3.293619 1_555
Cs0 H88 3.354486 1_546
Cs1 N1 3.156720 1_554
Cs1 H17 3.200270 1_655
Cs1 H13 3.255818 1_554
Cs1 N5 3.267129 1_655
Cs1 H109 3.293619 1_655
Cs1 H89 3.354486 1_554
Cs2 N2 3.156720 1_555
Cs2 H18 3.200270 1_555
Cs2 H14 3.255818 1_555
Cs2 N6 3.267129 1_555
Cs2 H110 3.293619 1_555
Cs2 H90 3.354486 1_555
Cs3 N3 3.156720 1_555
Cs3 H19 3.200270 1_455
Cs3 H15 3.255818 1_565
Cs3 N7 3.267129 1_465
Cs3 H111 3.293619 1_455
Cs3 H91 3.354486 1_565
Cs4 N4 3.156720 1_554
Cs4 H20 3.200270 1_555
Cs4 H8 3.255818 1_564
Cs4 N0 3.267129 1_565
Cs4 H104 3.293619 1_555
Cs4 H92 3.354486 1_564
Cs5 N5 3.156720 1_556
Cs5 H21 3.200270 1_455
Cs5 H9 3.255818 1_556
Cs5 N1 3.267129 1_455
Cs5 H105 3.293619 1_455
Cs5 H93 3.354486 1_556
Cs6 N6 3.156720 1_555
Cs6 H22 3.200270 1_555
Cs6 H10 3.255818 1_555
Cs6 N2 3.267129 1_555
Cs6 H106 3.293619 1_555
Cs6 H94 3.354486 1_555
Cs7 N7 3.156720 1_555
Cs7 H23 3.200270 1_655
Cs7 H11 3.255818 1_545
Cs7 N3 3.267129 1_645
Cs7 H107 3.293619 1_655
Cs7 H95 3.354486 1_545
C0 H0 1.098179 1_555
C0 H16 1.101663 1_555
C0 H8 1.102222 1_555
C0 Si0 1.901510 1_556
C1 H1 1.098179 1_555
C1 H17 1.101663 1_555
C1 H9 1.102222 1_555
C1 Si1 1.901510 1_454
C2 H2 1.098179 1_555
C2 H18 1.101663 1_555
C2 H10 1.102222 1_555
C2 Si2 1.901510 1_555
C3 H3 1.098179 1_555
C3 H19 1.101663 1_555
C3 H11 1.102222 1_555
C3 Si3 1.901510 1_655
C4 H4 1.098179 1_555
C4 H20 1.101663 1_555
C4 H12 1.102222 1_555
C4 Si4 1.901510 1_554
C5 H5 1.098179 1_555
C5 H21 1.101663 1_555
C5 H13 1.102222 1_555
C5 Si5 1.901510 1_656
C6 H6 1.098179 1_555
C6 H22 1.101663 1_555
C6 H14 1.102222 1_555
C6 Si6 1.901510 1_555
C7 H7 1.098179 1_555
C7 H23 1.101663 1_555
C7 H15 1.102222 1_555
C7 Si7 1.901510 1_455
C8 H32 1.097967 1_555
C8 H40 1.102290 1_555
C8 H24 1.102614 1_555
C8 Si0 1.909776 1_555
C9 H33 1.097967 1_555
C9 H41 1.102290 1_555
C9 H25 1.102614 1_555
C9 Si1 1.909776 1_455
C10 H34 1.097967 1_555
C10 H42 1.102290 1_555
C10 H26 1.102614 1_555
C10 Si2 1.909776 1_555
C11 H35 1.097967 1_555
C11 H43 1.102290 1_555
C11 H27 1.102614 1_555
C11 Si3 1.909776 1_655
C12 H36 1.097967 1_555
C12 H44 1.102290 1_555
C12 H28 1.102614 1_555
C12 Si4 1.909776 1_555
C13 H37 1.097967 1_555
C13 H45 1.102290 1_555
C13 H29 1.102614 1_555
C13 Si5 1.909776 1_655
C14 H38 1.097967 1_555
C14 H46 1.102290 1_555
C14 H30 1.102614 1_555
C14 Si6 1.909776 1_555
C15 H39 1.097967 1_555
C15 H47 1.102290 1_555
C15 H31 1.102614 1_555
C15 Si7 1.909776 1_455
C16 H64 1.099155 1_556
C16 H56 1.101224 1_555
C16 H48 1.102389 1_555
C16 Si0 1.909132 1_556
C17 H65 1.099155 1_554
C17 H57 1.101224 1_555
C17 H49 1.102389 1_555
C17 Si1 1.909132 1_554
C18 H66 1.099155 1_555
C18 H58 1.101224 1_555
C18 H50 1.102389 1_555
C18 Si2 1.909132 1_555
C19 H67 1.099155 1_555
C19 H59 1.101224 1_555
C19 H51 1.102389 1_555
C19 Si3 1.909132 1_555
C20 H68 1.099155 1_554
C20 H60 1.101224 1_555
C20 H52 1.102389 1_555
C20 Si4 1.909132 1_554
C21 H69 1.099155 1_556
C21 H61 1.101224 1_555
C21 H53 1.102389 1_555
C21 Si5 1.909132 1_556
C22 H70 1.099155 1_555
C22 H62 1.101224 1_555
C22 H54 1.102389 1_555
C22 Si6 1.909132 1_555
C23 H71 1.099155 1_555
C23 H63 1.101224 1_555
C23 H55 1.102389 1_555
C23 Si7 1.909132 1_555
C24 H72 1.099076 1_555
C24 H80 1.101210 1_555
C24 H88 1.103476 1_545
C24 Si8 1.902241 1_555
C25 H73 1.099076 1_555
C25 H81 1.101210 1_555
C25 H89 1.103476 1_555
C25 Si9 1.902241 1_555
C26 H74 1.099076 1_555
C26 H82 1.101210 1_555
C26 H90 1.103476 1_555
C26 Si10 1.902241 1_555
C27 H75 1.099076 1_555
C27 H83 1.101210 1_555
C27 H91 1.103476 1_565
C27 Si11 1.902241 1_555
C28 H76 1.099076 1_555
C28 H84 1.101210 1_555
C28 H92 1.103476 1_565
C28 Si12 1.902241 1_555
C29 H77 1.099076 1_555
C29 H85 1.101210 1_555
C29 H93 1.103476 1_555
C29 Si13 1.902241 1_555
C30 H78 1.099076 1_555
C30 H86 1.101210 1_555
C30 H94 1.103476 1_555
C30 Si14 1.902241 1_555
C31 H79 1.099076 1_555
C31 H87 1.101210 1_555
C31 H95 1.103476 1_545
C31 Si15 1.902241 1_555
C32 H96 1.099062 1_555
C32 H112 1.101835 1_555
C32 H104 1.103019 1_545
C32 Si8 1.901486 1_555
C33 H97 1.099062 1_555
C33 H113 1.101835 1_655
C33 H105 1.103019 1_555
C33 Si9 1.901486 1_555
C34 H98 1.099062 1_555
C34 H114 1.101835 1_555
C34 H106 1.103019 1_555
C34 Si10 1.901486 1_555
C35 H99 1.099062 1_555
C35 H115 1.101835 1_455
C35 H107 1.103019 1_565
C35 Si11 1.901486 1_555
C36 H100 1.099062 1_555
C36 H116 1.101835 1_555
C36 H108 1.103019 1_565
C36 Si12 1.901486 1_555
C37 H101 1.099062 1_555
C37 H117 1.101835 1_455
C37 H109 1.103019 1_555
C37 Si13 1.901486 1_555
C38 H102 1.099062 1_555
C38 H118 1.101835 1_555
C38 H110 1.103019 1_555
C38 Si14 1.901486 1_555
C39 H103 1.099062 1_555
C39 H119 1.101835 1_655
C39 H111 1.103019 1_545
C39 Si15 1.901486 1_555
C40 H128 1.099287 1_555
C40 H136 1.100687 1_555
C40 H120 1.102336 1_555
C40 Si8 1.904500 1_555
C41 H129 1.099287 1_555
C41 H137 1.100687 1_555
C41 H121 1.102336 1_555
C41 Si9 1.904500 1_555
C42 H130 1.099287 1_555
C42 H138 1.100687 1_555
C42 H122 1.102336 1_555
C42 Si10 1.904500 1_555
C43 H131 1.099287 1_555
C43 H139 1.100687 1_555
C43 H123 1.102336 1_555
C43 Si11 1.904500 1_555
C44 H132 1.099287 1_555
C44 H140 1.100687 1_555
C44 H124 1.102336 1_555
C44 Si12 1.904500 1_555
C45 H133 1.099287 1_555
C45 H141 1.100687 1_555
C45 H125 1.102336 1_555
C45 Si13 1.904500 1_555
C46 H134 1.099287 1_555
C46 H142 1.100687 1_555
C46 H126 1.102336 1_555
C46 Si14 1.904500 1_555
C47 H135 1.099287 1_555
C47 H143 1.100687 1_555
C47 H127 1.102336 1_555
C47 Si15 1.904500 1_555
N0 Si0 1.686011 1_555
N0 Si8 1.701023 1_555
N1 Si1 1.686011 1_555
N1 Si9 1.701023 1_555
N2 Si2 1.686011 1_555
N2 Si10 1.701023 1_555
N3 Si3 1.686011 1_555
N3 Si11 1.701023 1_555
N4 Si4 1.686011 1_555
N4 Si12 1.701023 1_555
N5 Si5 1.686011 1_555
N5 Si13 1.701023 1_555
N6 Si6 1.686011 1_555
N6 Si14 1.701023 1_555
N7 Si7 1.686011 1_555
N7 Si15 1.701023 1_555
