# generated using pymatgen
data_Sr3TiSi4H2O13
_symmetry_space_group_name_H-M   'P 1'
_cell_length_a   7.72902300
_cell_length_b   7.77907000
_cell_length_c   11.16006675
_cell_angle_alpha   77.03471416
_cell_angle_beta   90.00000000
_cell_angle_gamma   90.00000000
_symmetry_Int_Tables_number   1
_chemical_formula_structural   Sr3TiSi4H2O13
_chemical_formula_sum   'Sr6 Ti2 Si8 H4 O26'
_cell_volume   653.88845310
_cell_formula_units_Z   2
loop_
 _symmetry_equiv_pos_site_id
 _symmetry_equiv_pos_as_xyz
  1  'x, y, z'
loop_
 _atom_site_type_symbol
 _atom_site_label
 _atom_site_symmetry_multiplicity
 _atom_site_fract_x
 _atom_site_fract_y
 _atom_site_fract_z
 _atom_site_occupancy
  Sr  Sr0  1  0.25000000  0.65570200  0.11096700  1
  Sr  Sr1  1  0.75000000  0.34429800  0.88903300  1
  Sr  Sr2  1  0.25000000  0.38958200  0.73382900  1
  Sr  Sr3  1  0.75000000  0.61041800  0.26617100  1
  Sr  Sr4  1  0.25000000  0.27762400  0.41287100  1
  Sr  Sr5  1  0.75000000  0.72237600  0.58712900  1
  Ti  Ti0  1  0.50000000  0.00000000  0.00000000  1
  Ti  Ti1  1  0.00000000  0.00000000  0.00000000  1
  Si  Si0  1  0.45486900  0.87330900  0.30397100  1
  Si  Si1  1  0.54513100  0.12669100  0.69602900  1
  Si  Si2  1  0.95486900  0.12669100  0.69602900  1
  Si  Si3  1  0.04513100  0.87330900  0.30397100  1
  Si  Si4  1  0.45712200  0.74198700  0.79825800  1
  Si  Si5  1  0.54287800  0.25801300  0.20174200  1
  Si  Si6  1  0.95712200  0.25801300  0.20174200  1
  Si  Si7  1  0.04287800  0.74198700  0.79825800  1
  H  H0  1  0.25000000  0.39218800  0.98072200  1
  H  H1  1  0.75000000  0.60781200  0.01927800  1
  H  H2  1  0.25000000  0.59230300  0.50019400  1
  H  H3  1  0.75000000  0.40769700  0.49980600  1
  O  O0  1  0.45520400  0.43271000  0.23077400  1
  O  O1  1  0.54479600  0.56729000  0.76922600  1
  O  O2  1  0.95520400  0.56729000  0.76922600  1
  O  O3  1  0.04479600  0.43271000  0.23077400  1
  O  O4  1  0.95834400  0.91247500  0.69497400  1
  O  O5  1  0.04165600  0.08752500  0.30502600  1
  O  O6  1  0.45834400  0.08752500  0.30502600  1
  O  O7  1  0.54165600  0.91247500  0.69497400  1
  O  O8  1  0.97380600  0.84818800  0.16978600  1
  O  O9  1  0.02619400  0.15181200  0.83021400  1
  O  O10  1  0.47380600  0.15181200  0.83021400  1
  O  O11  1  0.52619400  0.84818800  0.16978600  1
  O  O12  1  0.25000000  0.99353700  0.02392600  1
  O  O13  1  0.75000000  0.00646300  0.97607400  1
  O  O14  1  0.25000000  0.81019600  0.31146300  1
  O  O15  1  0.75000000  0.18980400  0.68853700  1
  O  O16  1  0.93814200  0.74828800  0.41087000  1
  O  O17  1  0.06185800  0.25171200  0.58913000  1
  O  O18  1  0.43814200  0.25171200  0.58913000  1
  O  O19  1  0.56185800  0.74828800  0.41087000  1
  O  O20  1  0.97506600  0.22577500  0.06326900  1
  O  O21  1  0.02493400  0.77422500  0.93673100  1
  O  O22  1  0.47506600  0.77422500  0.93673100  1
  O  O23  1  0.52493400  0.22577500  0.06326900  1
  O  O24  1  0.25000000  0.72644600  0.76234100  1
  O  O25  1  0.75000000  0.27355400  0.23765900  1
loop_
_geom_bond_atom_site_label_1
_geom_bond_atom_site_label_2
_geom_bond_distance
_geom_bond_site_symmetry_2
H0 Sr2 2.759961 1_555
H0 Sr0 2.766201 1_556
H1 Sr3 2.759961 1_555
H1 Sr1 2.766201 1_554
H2 Sr2 2.727684 1_555
H2 Sr4 2.830623 1_555
H3 Sr3 2.727684 1_555
H3 Sr5 2.830623 1_555
O0 Si5 1.615106 1_555
O0 Sr0 2.504303 1_555
O0 Sr4 2.645884 1_555
O0 Sr3 2.739275 1_555
O1 Si4 1.615106 1_555
O1 Sr1 2.504303 1_555
O1 Sr5 2.645884 1_555
O1 Sr2 2.739275 1_555
O2 Si7 1.615106 1_655
O2 Sr1 2.504303 1_555
O2 Sr5 2.645884 1_555
O2 Sr2 2.739275 1_655
O3 Si6 1.615106 1_455
O3 Sr0 2.504303 1_555
O3 Sr4 2.645884 1_555
O3 Sr3 2.739275 1_455
O4 Si2 1.669298 1_565
O4 Si7 1.681800 1_655
O4 Sr5 2.650863 1_555
O5 Si3 1.669298 1_545
O5 Si6 1.681800 1_455
O5 Sr4 2.650863 1_555
O6 Si0 1.669298 1_545
O6 Si5 1.681800 1_555
O6 Sr4 2.650863 1_555
O7 Si1 1.669298 1_565
O7 Si4 1.681800 1_555
O7 Sr5 2.650863 1_555
O8 Si3 1.648014 1_655
O8 Ti1 2.005466 1_665
O8 Sr3 2.584111 1_555
O8 Sr0 2.769661 1_655
O9 Si2 1.648014 1_455
O9 Ti1 2.005466 1_556
O9 Sr2 2.584111 1_555
O9 Sr1 2.769661 1_455
O10 Si1 1.648014 1_555
O10 Ti0 2.005466 1_556
O10 Sr2 2.584111 1_555
O10 Sr1 2.769661 1_555
O11 Si0 1.648014 1_555
O11 Ti0 2.005466 1_565
O11 Sr3 2.584111 1_555
O11 Sr0 2.769661 1_555
O12 Ti1 1.949721 1_565
O12 Ti0 1.949721 1_565
O12 Sr0 2.589339 1_555
O13 Ti1 1.949721 1_656
O13 Ti0 1.949721 1_556
O13 Sr1 2.589339 1_555
O14 Si0 1.654354 1_555
O14 Si3 1.654354 1_555
O14 Sr0 2.767249 1_555
O15 Si2 1.654354 1_555
O15 Si1 1.654354 1_555
O15 Sr1 2.767249 1_555
O16 Si3 1.591309 1_655
O16 Sr5 2.417976 1_555
O16 Sr3 2.578704 1_555
O17 Si2 1.591309 1_455
O17 Sr4 2.417976 1_555
O17 Sr2 2.578704 1_555
O18 Si1 1.591309 1_555
O18 Sr4 2.417976 1_555
O18 Sr2 2.578704 1_555
O19 Si0 1.591309 1_555
O19 Sr5 2.417976 1_555
O19 Sr3 2.578704 1_555
O20 Si6 1.626097 1_555
O20 Ti1 2.043727 1_655
O20 Sr1 2.617753 1_554
O21 Si7 1.626097 1_555
O21 Ti1 2.043727 1_566
O21 Sr0 2.617753 1_556
O22 Si4 1.626097 1_555
O22 Ti0 2.043727 1_566
O22 Sr0 2.617753 1_556
O23 Si5 1.626097 1_555
O23 Ti0 2.043727 1_555
O23 Sr1 2.617753 1_554
O24 Si4 1.661250 1_555
O24 Si7 1.661250 1_555
O24 Sr2 2.709680 1_555
O25 Si6 1.661250 1_555
O25 Si5 1.661250 1_555
O25 Sr3 2.709680 1_555
