# generated using pymatgen
data_LiHo6B3O14
_symmetry_space_group_name_H-M   'P 1'
_cell_length_a   15.55300200
_cell_length_b   8.39371400
_cell_length_c   12.00334102
_cell_angle_alpha   47.52432972
_cell_angle_beta   90.00000000
_cell_angle_gamma   90.00000000
_symmetry_Int_Tables_number   1
_chemical_formula_structural   LiHo6B3O14
_chemical_formula_sum   'Li4 Ho24 B12 O56'
_cell_volume   1155.76712853
_cell_formula_units_Z   4
loop_
 _symmetry_equiv_pos_site_id
 _symmetry_equiv_pos_as_xyz
  1  'x, y, z'
loop_
 _atom_site_type_symbol
 _atom_site_label
 _atom_site_symmetry_multiplicity
 _atom_site_fract_x
 _atom_site_fract_y
 _atom_site_fract_z
 _atom_site_occupancy
  Li  Li0  1  0.60396400  0.88017400  0.43935500  1
  Li  Li1  1  0.39603600  0.11982600  0.56064500  1
  Li  Li2  1  0.10396400  0.11982600  0.06064500  1
  Li  Li3  1  0.89603600  0.88017400  0.93935500  1
  Ho  Ho0  1  0.82211900  0.55023700  0.30723200  1
  Ho  Ho1  1  0.17788100  0.44976300  0.69276800  1
  Ho  Ho2  1  0.32211900  0.44976300  0.19276800  1
  Ho  Ho3  1  0.67788100  0.55023700  0.80723200  1
  Ho  Ho4  1  0.32598300  0.98420800  0.05556100  1
  Ho  Ho5  1  0.67401700  0.01579200  0.94443900  1
  Ho  Ho6  1  0.82598300  0.01579200  0.44443900  1
  Ho  Ho7  1  0.17401700  0.98420800  0.55556100  1
  Ho  Ho8  1  0.35609500  0.84841000  0.42462400  1
  Ho  Ho9  1  0.64390500  0.15159000  0.57537600  1
  Ho  Ho10  1  0.85609500  0.15159000  0.07537600  1
  Ho  Ho11  1  0.14390500  0.84841000  0.92462400  1
  Ho  Ho12  1  0.51329200  0.66579000  0.28242800  1
  Ho  Ho13  1  0.48670800  0.33421000  0.71757200  1
  Ho  Ho14  1  0.01329200  0.33421000  0.21757200  1
  Ho  Ho15  1  0.98670800  0.66579000  0.78242800  1
  Ho  Ho16  1  0.50388800  0.23907100  0.06120300  1
  Ho  Ho17  1  0.49611200  0.76092900  0.93879700  1
  Ho  Ho18  1  0.00388800  0.76092900  0.43879700  1
  Ho  Ho19  1  0.99611200  0.23907100  0.56120300  1
  Ho  Ho20  1  0.66592100  0.41275600  0.16552700  1
  Ho  Ho21  1  0.33407900  0.58724400  0.83447300  1
  Ho  Ho22  1  0.16592100  0.58724400  0.33447300  1
  Ho  Ho23  1  0.83407900  0.41275600  0.66552700  1
  B  B0  1  0.82699300  0.54388400  0.02729100  1
  B  B1  1  0.17300700  0.45611600  0.97270900  1
  B  B2  1  0.32699300  0.45611600  0.47270900  1
  B  B3  1  0.67300700  0.54388400  0.52729100  1
  B  B4  1  0.99949900  0.79074900  0.14530500  1
  B  B5  1  0.00050100  0.20925100  0.85469500  1
  B  B6  1  0.49949900  0.20925100  0.35469500  1
  B  B7  1  0.50050100  0.79074900  0.64530500  1
  B  B8  1  0.69294500  0.95811800  0.22149800  1
  B  B9  1  0.30705500  0.04188200  0.77850200  1
  B  B10  1  0.19294500  0.04188200  0.27850200  1
  B  B11  1  0.80705500  0.95811800  0.72149800  1
  O  O0  1  0.75143500  0.88258900  0.17736900  1
  O  O1  1  0.24856500  0.11741100  0.82263100  1
  O  O2  1  0.25143500  0.11741100  0.32263100  1
  O  O3  1  0.74856500  0.88258900  0.67736900  1
  O  O4  1  0.46650700  0.69633200  0.59333700  1
  O  O5  1  0.53349300  0.30366800  0.40666300  1
  O  O6  1  0.96650700  0.30366800  0.90666300  1
  O  O7  1  0.03349300  0.69633200  0.09333700  1
  O  O8  1  0.42066200  0.93495600  0.22101400  1
  O  O9  1  0.57933800  0.06504400  0.77898600  1
  O  O10  1  0.92066200  0.06504400  0.27898600  1
  O  O11  1  0.07933800  0.93495600  0.72101400  1
  O  O12  1  0.91423000  0.85342100  0.11832900  1
  O  O13  1  0.08577000  0.14657900  0.88167100  1
  O  O14  1  0.41423000  0.14657900  0.38167100  1
  O  O15  1  0.58577000  0.85342100  0.61832900  1
  O  O16  1  0.91275000  0.52483300  0.00906800  1
  O  O17  1  0.08725000  0.47516700  0.99093200  1
  O  O18  1  0.41275000  0.47516700  0.49093200  1
  O  O19  1  0.58725000  0.52483300  0.50906800  1
  O  O20  1  0.79527300  0.64074500  0.07692500  1
  O  O21  1  0.20472700  0.35925500  0.92307500  1
  O  O22  1  0.29527300  0.35925500  0.42307500  1
  O  O23  1  0.70472700  0.64074500  0.57692500  1
  O  O24  1  0.44835400  0.82103300  0.72221500  1
  O  O25  1  0.55164600  0.17896700  0.27778500  1
  O  O26  1  0.94835400  0.17896700  0.77778500  1
  O  O27  1  0.05164600  0.82103300  0.22221500  1
  O  O28  1  0.59819700  0.70213400  0.10532200  1
  O  O29  1  0.40180300  0.29786600  0.89467800  1
  O  O30  1  0.09819700  0.29786600  0.39467800  1
  O  O31  1  0.90180300  0.70213400  0.60532200  1
  O  O32  1  0.91046700  0.52714900  0.46395900  1
  O  O33  1  0.08953300  0.47285100  0.53604100  1
  O  O34  1  0.41046700  0.47285100  0.03604100  1
  O  O35  1  0.58953300  0.52714900  0.96395900  1
  O  O36  1  0.41454600  0.71369600  0.12407100  1
  O  O37  1  0.58545400  0.28630400  0.87592900  1
  O  O38  1  0.91454600  0.28630400  0.37592900  1
  O  O39  1  0.08545400  0.71369600  0.62407100  1
  O  O40  1  0.23178500  0.72372000  0.12224300  1
  O  O41  1  0.76821500  0.27628000  0.87775700  1
  O  O42  1  0.73178500  0.27628000  0.37775700  1
  O  O43  1  0.26821500  0.72372000  0.62224300  1
  O  O44  1  0.22521700  0.94636600  0.22783700  1
  O  O45  1  0.77478300  0.05363400  0.77216300  1
  O  O46  1  0.72521700  0.05363400  0.27216300  1
  O  O47  1  0.27478300  0.94636600  0.72783700  1
  O  O48  1  0.60632100  0.94788100  0.20061100  1
  O  O49  1  0.39367900  0.05211900  0.79938900  1
  O  O50  1  0.10632100  0.05211900  0.29938900  1
  O  O51  1  0.89367900  0.94788100  0.70061100  1
  O  O52  1  0.76733700  0.44681300  0.00323100  1
  O  O53  1  0.23266300  0.55318700  0.99676900  1
  O  O54  1  0.26733700  0.55318700  0.49676900  1
  O  O55  1  0.73266300  0.44681300  0.50323100  1
loop_
_geom_bond_atom_site_label_1
_geom_bond_atom_site_label_2
_geom_bond_distance
_geom_bond_site_symmetry_2
Li0 O15 2.023390 1_555
Li0 O25 2.035751 1_565
Li0 O23 2.177090 1_555
Li0 O46 2.399488 1_565
Li0 O19 2.508609 1_555
Li0 O48 2.517371 1_555
Li0 O4 2.552632 1_555
Li1 O14 2.023390 1_555
Li1 O24 2.035751 1_545
Li1 O22 2.177090 1_555
Li1 O47 2.399488 1_545
Li1 O18 2.508609 1_555
Li1 O49 2.517371 1_555
Li1 O5 2.552632 1_555
Li2 O13 2.023390 1_554
Li2 O27 2.035751 1_545
Li2 O21 2.177090 1_554
Li2 O44 2.399488 1_545
Li2 O17 2.508609 1_554
Li2 O50 2.517371 1_555
Li2 O6 2.552632 1_454
Li3 O12 2.023390 1_556
Li3 O26 2.035751 1_565
Li3 O20 2.177090 1_556
Li3 O45 2.399488 1_565
Li3 O16 2.508609 1_556
Li3 O51 2.517371 1_555
Li3 O7 2.552632 1_656
Ho0 O32 2.229878 1_555
Ho0 O38 2.277529 1_555
Ho0 O42 2.312857 1_555
Ho0 O55 2.337942 1_555
Ho0 O0 2.355365 1_555
Ho0 O20 2.357396 1_555
Ho0 O12 2.424213 1_555
Ho1 O33 2.229878 1_555
Ho1 O39 2.277529 1_555
Ho1 O43 2.312857 1_555
Ho1 O54 2.337942 1_555
Ho1 O1 2.355365 1_555
Ho1 O21 2.357396 1_555
Ho1 O13 2.424213 1_555
Ho2 O34 2.229878 1_555
Ho2 O36 2.277529 1_555
Ho2 O40 2.312857 1_555
Ho2 O53 2.337942 1_554
Ho2 O2 2.355365 1_555
Ho2 O22 2.357396 1_555
Ho2 O14 2.424213 1_555
Ho3 O35 2.229878 1_555
Ho3 O37 2.277529 1_555
Ho3 O41 2.312857 1_555
Ho3 O52 2.337942 1_556
Ho3 O3 2.355365 1_555
Ho3 O23 2.357396 1_555
Ho3 O15 2.424213 1_555
Ho4 O8 2.274776 1_555
Ho4 O29 2.277009 1_564
Ho4 O40 2.281255 1_555
Ho4 O36 2.281969 1_555
Ho4 O44 2.438467 1_555
Ho4 O1 2.509036 1_564
Ho5 O9 2.274776 1_555
Ho5 O28 2.277009 1_546
Ho5 O41 2.281255 1_555
Ho5 O37 2.281969 1_555
Ho5 O45 2.438467 1_555
Ho5 O0 2.509036 1_546
Ho6 O10 2.274776 1_555
Ho6 O31 2.277009 1_545
Ho6 O42 2.281255 1_555
Ho6 O38 2.281969 1_555
Ho6 O46 2.438467 1_555
Ho6 O3 2.509036 1_545
Ho7 O11 2.274776 1_555
Ho7 O30 2.277009 1_565
Ho7 O43 2.281255 1_555
Ho7 O39 2.281969 1_555
Ho7 O47 2.438467 1_555
Ho7 O2 2.509036 1_565
Ho8 O8 2.260860 1_555
Ho8 O4 2.277762 1_555
Ho8 O43 2.288531 1_555
Ho8 O2 2.348054 1_565
Ho8 O14 2.367357 1_565
Ho8 O54 2.428573 1_555
Ho9 O9 2.260860 1_555
Ho9 O5 2.277762 1_555
Ho9 O42 2.288531 1_555
Ho9 O3 2.348054 1_545
Ho9 O15 2.367357 1_545
Ho9 O55 2.428573 1_555
Ho10 O10 2.260860 1_555
Ho10 O6 2.277762 1_554
Ho10 O41 2.288531 1_554
Ho10 O0 2.348054 1_545
Ho10 O12 2.367357 1_545
Ho10 O52 2.428573 1_555
Ho11 O11 2.260860 1_555
Ho11 O7 2.277762 1_556
Ho11 O40 2.288531 1_556
Ho11 O1 2.348054 1_565
Ho11 O13 2.367357 1_565
Ho11 O53 2.428573 1_555
Ho12 O36 2.258579 1_555
Ho12 O5 2.332320 1_555
Ho12 O8 2.339673 1_555
Ho12 O28 2.341003 1_555
Ho12 O48 2.350289 1_555
Ho12 O19 2.403483 1_555
Ho12 O18 2.420915 1_555
Ho13 O37 2.258579 1_555
Ho13 O4 2.332320 1_555
Ho13 O9 2.339673 1_555
Ho13 O29 2.341003 1_555
Ho13 O49 2.350289 1_555
Ho13 O18 2.403483 1_555
Ho13 O19 2.420915 1_555
Ho14 O38 2.258579 1_455
Ho14 O7 2.332320 1_555
Ho14 O10 2.339673 1_455
Ho14 O30 2.341003 1_555
Ho14 O50 2.350289 1_555
Ho14 O17 2.403483 1_554
Ho14 O16 2.420915 1_455
Ho15 O39 2.258579 1_655
Ho15 O6 2.332320 1_555
Ho15 O11 2.339673 1_655
Ho15 O31 2.341003 1_555
Ho15 O51 2.350289 1_555
Ho15 O16 2.403483 1_556
Ho15 O17 2.420915 1_655
Ho16 O35 2.274169 1_554
Ho16 O34 2.291831 1_555
Ho16 O8 2.293050 1_545
Ho16 O29 2.329721 1_554
Ho16 O37 2.349789 1_554
Ho16 O48 2.405920 1_545
Ho16 O25 2.406950 1_555
Ho17 O34 2.274169 1_556
Ho17 O35 2.291831 1_555
Ho17 O9 2.293050 1_565
Ho17 O28 2.329721 1_556
Ho17 O36 2.349789 1_556
Ho17 O49 2.405920 1_565
Ho17 O24 2.406950 1_555
Ho18 O33 2.274169 1_555
Ho18 O32 2.291831 1_455
Ho18 O10 2.293050 1_465
Ho18 O31 2.329721 1_455
Ho18 O39 2.349789 1_555
Ho18 O50 2.405920 1_565
Ho18 O27 2.406950 1_555
Ho19 O32 2.274169 1_555
Ho19 O33 2.291831 1_655
Ho19 O11 2.293050 1_645
Ho19 O30 2.329721 1_655
Ho19 O38 2.349789 1_555
Ho19 O51 2.405920 1_545
Ho19 O26 2.406950 1_555
Ho20 O42 2.215851 1_555
Ho20 O35 2.247183 1_554
Ho20 O28 2.271759 1_555
Ho20 O25 2.292210 1_555
Ho20 O52 2.369098 1_555
Ho20 O20 2.468182 1_555
Ho20 O46 2.522771 1_555
Ho21 O43 2.215851 1_555
Ho21 O34 2.247183 1_556
Ho21 O29 2.271759 1_555
Ho21 O24 2.292210 1_555
Ho21 O53 2.369098 1_555
Ho21 O21 2.468182 1_555
Ho21 O47 2.522771 1_555
Ho22 O40 2.215851 1_555
Ho22 O33 2.247183 1_555
Ho22 O30 2.271759 1_555
Ho22 O27 2.292210 1_555
Ho22 O54 2.369098 1_555
Ho22 O22 2.468182 1_555
Ho22 O44 2.522771 1_555
Ho23 O41 2.215851 1_555
Ho23 O32 2.247183 1_555
Ho23 O31 2.271759 1_555
Ho23 O26 2.292210 1_555
Ho23 O55 2.369098 1_555
Ho23 O23 2.468182 1_555
Ho23 O45 2.522771 1_555
B0 O16 1.378268 1_555
B0 O20 1.383300 1_555
B0 O52 1.387786 1_555
B1 O17 1.378268 1_555
B1 O21 1.383300 1_555
B1 O53 1.387786 1_555
B2 O18 1.378268 1_555
B2 O22 1.383300 1_555
B2 O54 1.387786 1_555
B3 O19 1.378268 1_555
B3 O23 1.383300 1_555
B3 O55 1.387786 1_555
B4 O27 1.375351 1_655
B4 O12 1.382138 1_555
B4 O7 1.401562 1_655
B5 O26 1.375351 1_455
B5 O13 1.382138 1_555
B5 O6 1.401562 1_455
B6 O25 1.375351 1_555
B6 O14 1.382138 1_555
B6 O5 1.401562 1_555
B7 O24 1.375351 1_555
B7 O15 1.382138 1_555
B7 O4 1.401562 1_555
B8 O48 1.383638 1_555
B8 O46 1.386740 1_565
B8 O0 1.401274 1_555
B9 O49 1.383638 1_555
B9 O47 1.386740 1_545
B9 O1 1.401274 1_555
B10 O50 1.383638 1_555
B10 O44 1.386740 1_545
B10 O2 1.401274 1_555
B11 O51 1.383638 1_555
B11 O45 1.386740 1_565
B11 O3 1.401274 1_555
