# generated using pymatgen
data_Cd(GaTe2)2
_symmetry_space_group_name_H-M   'P 1'
_cell_length_a   6.21850654
_cell_length_b   6.21850619
_cell_length_c   7.40273031
_cell_angle_alpha   114.83549878
_cell_angle_beta   114.83549703
_cell_angle_gamma   90.00000565
_symmetry_Int_Tables_number   1
_chemical_formula_structural   Cd(GaTe2)2
_chemical_formula_sum   'Cd1 Ga2 Te4'
_cell_volume   230.29006817
_cell_formula_units_Z   1
loop_
 _symmetry_equiv_pos_site_id
 _symmetry_equiv_pos_as_xyz
  1  'x, y, z'
loop_
 _atom_site_type_symbol
 _atom_site_label
 _atom_site_symmetry_multiplicity
 _atom_site_fract_x
 _atom_site_fract_y
 _atom_site_fract_z
 _atom_site_occupancy
  Cd  Cd0  1  0.00000000  0.00000000  0.00000000  1
  Ga  Ga0  1  0.25000000  0.75000000  0.50000000  1
  Ga  Ga1  1  0.50000000  0.50000000  0.00000000  1
  Te  Te0  1  0.41047066  0.39240904  0.27443458  1
  Te  Te1  1  0.11797346  0.58952934  0.72556542  1
  Te  Te2  1  0.60759096  0.13603708  0.72556542  1
  Te  Te3  1  0.86396292  0.88202654  0.27443458  1
loop_
_geom_bond_atom_site_label_1
_geom_bond_atom_site_label_2
_geom_bond_distance
_geom_bond_site_symmetry_2
Cd0 Te1 2.841954 1_544
Cd0 Te0 2.841958 1_555
Cd0 Te3 2.841958 1_445
Cd0 Te2 2.841962 1_454
Ga0 Te0 2.647523 1_555
Ga0 Te1 2.647526 1_555
Ga0 Te2 2.647526 1_565
Ga0 Te3 2.647530 1_455
Ga1 Te2 2.641352 1_554
Ga1 Te3 2.641355 1_555
Ga1 Te0 2.641355 1_555
Ga1 Te1 2.641359 1_554
