# generated using pymatgen
data_ZnAg
_symmetry_space_group_name_H-M   'P 1'
_cell_length_a   5.74452819
_cell_length_b   5.74449544
_cell_length_c   8.83529415
_cell_angle_alpha   89.67386938
_cell_angle_beta   90.32615739
_cell_angle_gamma   119.99038361
_symmetry_Int_Tables_number   1
_chemical_formula_structural   ZnAg
_chemical_formula_sum   'Zn8 Ag8'
_cell_volume   252.51698281
_cell_formula_units_Z   8
loop_
 _symmetry_equiv_pos_site_id
 _symmetry_equiv_pos_as_xyz
  1  'x, y, z'
loop_
 _atom_site_type_symbol
 _atom_site_label
 _atom_site_symmetry_multiplicity
 _atom_site_fract_x
 _atom_site_fract_y
 _atom_site_fract_z
 _atom_site_occupancy
  Zn  Zn0_0  1  0.16666064  0.33333737  0.12499971  1
  Zn  Zn0_1  1  0.16666064  0.33333737  0.62499972  1
  Zn  Zn0_2  1  0.16666064  0.83333737  0.12499971  1
  Zn  Zn0_3  1  0.16666064  0.83333737  0.62499972  1
  Zn  Zn0_4  1  0.66666064  0.33333737  0.12499971  1
  Zn  Zn0_5  1  0.66666064  0.33333737  0.62499972  1
  Zn  Zn0_6  1  0.66666064  0.83333737  0.12499972  1
  Zn  Zn0_7  1  0.66666064  0.83333737  0.62499972  1
  Ag  Ag0_0  1  0.33333837  0.16666164  0.37500079  1
  Ag  Ag0_1  1  0.33333837  0.16666164  0.87500079  1
  Ag  Ag0_2  1  0.33333837  0.66666164  0.37500079  1
  Ag  Ag0_3  1  0.33333837  0.66666164  0.87500079  1
  Ag  Ag0_4  1  0.83333837  0.16666164  0.37500079  1
  Ag  Ag0_5  1  0.83333837  0.16666164  0.87500079  1
  Ag  Ag0_6  1  0.83333837  0.66666164  0.37500079  1
  Ag  Ag0_7  1  0.83333837  0.66666164  0.87500079  1
loop_
_geom_bond_atom_site_label_1
_geom_bond_atom_site_label_2
_geom_bond_distance
_geom_bond_site_symmetry_2
Zn0_0 Zn0_2 2.872248 1_545
Zn0_0 Zn0_2 2.872248 1_555
Zn0_0 Zn0_4 2.872264 1_455
Zn0_0 Zn0_4 2.872264 1_555
Zn0_0 Zn0_6 2.872673 1_445
Zn0_0 Zn0_6 2.872673 1_555
Zn0_1 Zn0_3 2.872248 1_555
Zn0_1 Zn0_3 2.872248 1_545
Zn0_1 Zn0_5 2.872264 1_555
Zn0_1 Zn0_5 2.872264 1_455
Zn0_1 Zn0_7 2.872673 1_445
Zn0_1 Zn0_7 2.872673 1_555
Zn0_2 Zn0_6 2.872264 1_455
Zn0_2 Zn0_6 2.872264 1_555
Zn0_2 Zn0_4 2.872673 1_455
Zn0_2 Zn0_4 2.872673 1_565
Zn0_3 Zn0_7 2.872264 1_455
Zn0_3 Zn0_7 2.872264 1_555
Zn0_3 Zn0_5 2.872673 1_565
Zn0_3 Zn0_5 2.872673 1_455
Zn0_4 Zn0_6 2.872248 1_545
Zn0_4 Zn0_6 2.872248 1_555
Zn0_5 Zn0_7 2.872248 1_555
Zn0_5 Zn0_7 2.872248 1_545
Ag0_0 Zn0_0 2.753326 1_555
Ag0_0 Zn0_5 2.757735 1_555
Ag0_0 Zn0_3 2.757736 1_545
Ag0_0 Zn0_2 2.766466 1_545
Ag0_0 Zn0_4 2.766466 1_555
Ag0_0 Zn0_1 2.770745 1_555
Ag0_0 Ag0_2 2.872248 1_545
Ag0_0 Ag0_2 2.872248 1_555
Ag0_0 Ag0_4 2.872264 1_455
Ag0_0 Ag0_4 2.872264 1_555
Ag0_0 Ag0_6 2.872673 1_445
Ag0_0 Ag0_6 2.872673 1_555
Ag0_1 Zn0_1 2.753326 1_555
Ag0_1 Zn0_4 2.757735 1_556
Ag0_1 Zn0_2 2.757736 1_546
Ag0_1 Zn0_3 2.766466 1_545
Ag0_1 Zn0_5 2.766466 1_555
Ag0_1 Zn0_0 2.770745 1_556
Ag0_1 Ag0_3 2.872248 1_545
Ag0_1 Ag0_3 2.872248 1_555
Ag0_1 Ag0_5 2.872264 1_455
Ag0_1 Ag0_5 2.872264 1_555
Ag0_1 Ag0_7 2.872673 1_445
Ag0_1 Ag0_7 2.872673 1_555
Ag0_2 Zn0_2 2.753326 1_555
Ag0_2 Zn0_7 2.757735 1_555
Ag0_2 Zn0_1 2.757736 1_555
Ag0_2 Zn0_0 2.766466 1_555
Ag0_2 Zn0_6 2.766466 1_555
Ag0_2 Zn0_3 2.770745 1_555
Ag0_2 Ag0_6 2.872264 1_455
Ag0_2 Ag0_6 2.872264 1_555
Ag0_2 Ag0_4 2.872673 1_565
Ag0_2 Ag0_4 2.872673 1_455
Ag0_3 Zn0_3 2.753326 1_555
Ag0_3 Zn0_6 2.757735 1_556
Ag0_3 Zn0_0 2.757736 1_556
Ag0_3 Zn0_1 2.766466 1_555
Ag0_3 Zn0_7 2.766466 1_555
Ag0_3 Zn0_2 2.770745 1_556
Ag0_3 Ag0_7 2.872264 1_455
Ag0_3 Ag0_7 2.872264 1_555
Ag0_3 Ag0_5 2.872673 1_455
Ag0_3 Ag0_5 2.872673 1_565
Ag0_4 Zn0_4 2.753326 1_555
Ag0_4 Zn0_1 2.757735 1_655
Ag0_4 Zn0_7 2.757736 1_545
Ag0_4 Zn0_6 2.766466 1_545
Ag0_4 Zn0_0 2.766466 1_655
Ag0_4 Zn0_5 2.770745 1_555
Ag0_4 Ag0_6 2.872248 1_545
Ag0_4 Ag0_6 2.872248 1_555
Ag0_5 Zn0_5 2.753326 1_555
Ag0_5 Zn0_0 2.757735 1_656
Ag0_5 Zn0_6 2.757736 1_546
Ag0_5 Zn0_7 2.766466 1_545
Ag0_5 Zn0_1 2.766466 1_655
Ag0_5 Zn0_4 2.770745 1_556
Ag0_5 Ag0_7 2.872248 1_545
Ag0_5 Ag0_7 2.872248 1_555
Ag0_6 Zn0_6 2.753326 1_555
Ag0_6 Zn0_3 2.757735 1_655
Ag0_6 Zn0_5 2.757736 1_555
Ag0_6 Zn0_4 2.766466 1_555
Ag0_6 Zn0_2 2.766466 1_655
Ag0_6 Zn0_7 2.770745 1_555
Ag0_7 Zn0_7 2.753326 1_555
Ag0_7 Zn0_2 2.757735 1_656
Ag0_7 Zn0_4 2.757736 1_556
Ag0_7 Zn0_5 2.766466 1_555
Ag0_7 Zn0_3 2.766466 1_655
Ag0_7 Zn0_6 2.770745 1_556
