# generated using pymatgen
data_Mg16Al12Si
_symmetry_space_group_name_H-M   'P 1'
_cell_length_a   9.06850248
_cell_length_b   9.06850248
_cell_length_c   9.06850255
_cell_angle_alpha   109.24138160
_cell_angle_beta   109.24138160
_cell_angle_gamma   109.24138145
_symmetry_Int_Tables_number   1
_chemical_formula_structural   Mg16Al12Si
_chemical_formula_sum   'Mg16 Al12 Si1'
_cell_volume   578.93019684
_cell_formula_units_Z   1
loop_
 _symmetry_equiv_pos_site_id
 _symmetry_equiv_pos_as_xyz
  1  'x, y, z'
loop_
 _atom_site_type_symbol
 _atom_site_label
 _atom_site_symmetry_multiplicity
 _atom_site_fract_x
 _atom_site_fract_y
 _atom_site_fract_z
 _atom_site_occupancy
  Mg  Mg0  1  0.28093000  0.68257000  0.68257000  1
  Mg  Mg1  1  0.00431200  0.00431200  0.00431200  1
  Mg  Mg2  1  0.34536200  0.99714700  0.99714700  1
  Mg  Mg3  1  0.70450300  0.41435300  0.41435300  1
  Mg  Mg4  1  0.99729500  0.59575600  0.31668400  1
  Mg  Mg5  1  0.41435300  0.70450300  0.41435300  1
  Mg  Mg6  1  0.59575600  0.31668400  0.99729500  1
  Mg  Mg7  1  0.99714700  0.34536200  0.99714700  1
  Mg  Mg8  1  0.31668400  0.99729500  0.59575600  1
  Mg  Mg9  1  0.68257000  0.68257000  0.28093000  1
  Mg  Mg10  1  0.68257000  0.28093000  0.68257000  1
  Mg  Mg11  1  0.31668400  0.59575600  0.99729500  1
  Mg  Mg12  1  0.99714700  0.99714700  0.34536200  1
  Mg  Mg13  1  0.59575600  0.99729500  0.31668400  1
  Mg  Mg14  1  0.41435300  0.41435300  0.70450300  1
  Mg  Mg15  1  0.99729500  0.31668400  0.59575600  1
  Al  Al0  1  0.16904800  0.35773000  0.35773000  1
  Al  Al1  1  0.80832900  0.18550400  0.18550400  1
  Al  Al2  1  0.99941200  0.81470300  0.63137400  1
  Al  Al3  1  0.63137400  0.99941200  0.81470300  1
  Al  Al4  1  0.35773000  0.35773000  0.16904800  1
  Al  Al5  1  0.81470300  0.99941200  0.63137400  1
  Al  Al6  1  0.18550400  0.18550400  0.80832900  1
  Al  Al7  1  0.18550400  0.80832900  0.18550400  1
  Al  Al8  1  0.81470300  0.63137400  0.99941200  1
  Al  Al9  1  0.35773000  0.16904800  0.35773000  1
  Al  Al10  1  0.63137400  0.81470300  0.99941200  1
  Al  Al11  1  0.99941200  0.63137400  0.81470300  1
  Si  Si0  1  0.70244700  0.70244700  0.70244700  1
loop_
_geom_bond_atom_site_label_1
_geom_bond_atom_site_label_2
_geom_bond_distance
_geom_bond_site_symmetry_2
Mg0 Mg2 3.009421 1_555
Mg0 Mg14 3.085402 1_555
Mg0 Mg5 3.085402 1_555
Mg0 Mg15 3.092524 1_455
Mg0 Mg4 3.092524 1_455
Mg0 Mg8 3.148015 1_555
Mg0 Mg11 3.148015 1_555
Mg1 Si0 2.768370 1_444
Mg1 Mg2 3.136248 1_544
Mg1 Mg7 3.136248 1_454
Mg1 Mg12 3.136248 1_445
Mg2 Mg6 3.035051 1_565
Mg3 Si0 3.035951 1_555
Mg3 Mg9 3.085402 1_555
Mg3 Mg4 3.189382 1_555
Mg3 Mg6 3.289281 1_554
Mg4 Mg7 3.035051 1_554
Mg4 Mg9 3.148015 1_555
Mg4 Mg5 3.289281 1_655
Mg5 Si0 3.035951 1_555
Mg5 Mg9 3.085402 1_555
Mg5 Mg8 3.189382 1_555
Mg6 Mg9 3.092524 1_556
Mg10 Mg7 3.009421 1_555
Mg10 Mg14 3.085402 1_555
Mg10 Mg3 3.085402 1_555
Mg10 Mg8 3.092524 1_545
Mg10 Mg13 3.092524 1_545
Mg10 Mg15 3.148015 1_555
Mg10 Mg6 3.148015 1_555
Mg11 Mg7 3.035051 1_455
Mg11 Mg9 3.092524 1_556
Mg11 Mg14 3.189382 1_555
Mg11 Mg5 3.289281 1_556
Mg12 Mg9 3.009421 1_555
Mg12 Mg15 3.035051 1_565
Mg12 Mg8 3.035051 1_655
Mg13 Mg2 3.035051 1_554
Mg13 Mg9 3.148015 1_555
Mg13 Mg5 3.189382 1_555
Mg13 Mg3 3.289281 1_565
Mg14 Si0 3.035951 1_555
Mg14 Mg6 3.189382 1_555
Mg14 Mg15 3.289281 1_455
Mg14 Mg8 3.289281 1_545
Mg15 Mg3 3.189382 1_555
Al0 Al1 2.690133 1_455
Al0 Al9 2.790186 1_555
Al0 Al4 2.790186 1_555
Al0 Mg5 2.945095 1_555
Al0 Mg14 2.945095 1_555
Al0 Mg0 2.953923 1_555
Al0 Mg12 3.068968 1_445
Al0 Mg7 3.068968 1_454
Al0 Mg4 3.096308 1_455
Al0 Mg15 3.096308 1_455
Al0 Mg1 3.113499 1_555
Al1 Al10 2.765614 1_544
Al1 Al3 2.765614 1_544
Al1 Mg6 2.953891 1_554
Al1 Mg13 2.953891 1_545
Al1 Mg3 3.039320 1_555
Al1 Mg4 3.119338 1_555
Al1 Mg15 3.119338 1_555
Al1 Mg12 3.142436 1_545
Al1 Mg7 3.142436 1_554
Al1 Mg1 3.260145 1_655
Al2 Al5 2.731434 1_555
Al2 Al6 2.765614 1_665
Al2 Mg4 2.879380 1_555
Al2 Si0 2.910958 1_555
Al2 Mg8 2.991538 1_655
Al2 Mg9 2.998960 1_555
Al2 Mg3 3.103013 1_555
Al2 Mg2 3.112122 1_655
Al2 Mg0 3.125791 1_655
Al2 Mg1 3.227103 1_666
Al3 Al5 2.711027 1_555
Al3 Mg8 2.879380 1_555
Al3 Si0 2.910958 1_555
Al3 Mg6 2.991538 1_565
Al3 Mg0 2.998960 1_555
Al3 Mg5 3.103013 1_555
Al3 Mg7 3.112122 1_565
Al3 Mg10 3.125791 1_565
Al3 Mg1 3.227103 1_666
Al4 Al6 2.690133 1_554
Al4 Al9 2.790186 1_555
Al4 Mg3 2.945095 1_555
Al4 Mg5 2.945095 1_555
Al4 Mg9 2.953923 1_555
Al4 Mg7 3.068968 1_454
Al4 Mg2 3.068968 1_544
Al4 Mg11 3.096308 1_554
Al4 Mg6 3.096308 1_554
Al4 Mg1 3.113499 1_555
Al5 Al6 2.765614 1_665
Al5 Mg13 2.879380 1_555
Al5 Si0 2.910958 1_555
Al5 Mg15 2.991538 1_565
Al5 Mg9 2.998960 1_555
Al5 Mg5 3.103013 1_555
Al5 Mg7 3.112122 1_565
Al5 Mg10 3.125791 1_565
Al5 Mg1 3.227103 1_666
Al6 Mg15 2.953891 1_455
Al6 Mg8 2.953891 1_545
Al6 Mg14 3.039320 1_555
Al6 Mg11 3.119338 1_555
Al6 Mg6 3.119338 1_555
Al6 Mg7 3.142436 1_455
Al6 Mg2 3.142436 1_545
Al6 Mg1 3.260145 1_556
Al7 Al9 2.690133 1_565
Al7 Al8 2.765614 1_454
Al7 Mg11 2.953891 1_554
Al7 Mg4 2.953891 1_455
Al7 Mg5 3.039320 1_555
Al7 Mg13 3.119338 1_555
Al7 Mg8 3.119338 1_555
Al7 Mg12 3.142436 1_455
Al7 Mg2 3.142436 1_554
Al7 Mg1 3.260145 1_565
Al8 Mg6 2.879380 1_555
Al8 Si0 2.910958 1_555
Al8 Mg4 2.991538 1_556
Al8 Mg10 2.998960 1_555
Al8 Mg14 3.103013 1_555
Al8 Mg12 3.112122 1_556
Al8 Mg9 3.125791 1_556
Al8 Mg1 3.227103 1_666
Al9 Mg3 2.945095 1_555
Al9 Mg14 2.945095 1_555
Al9 Mg10 2.953923 1_555
Al9 Mg12 3.068968 1_445
Al9 Mg2 3.068968 1_544
Al9 Mg13 3.096308 1_545
Al9 Mg8 3.096308 1_545
Al9 Mg1 3.113499 1_555
Al10 Al8 2.711027 1_555
Al10 Al3 2.731434 1_555
Al10 Mg11 2.879380 1_555
Al10 Si0 2.910958 1_555
Al10 Mg13 2.991538 1_556
Al10 Mg0 2.998960 1_555
Al10 Mg14 3.103013 1_555
Al10 Mg12 3.112122 1_556
Al10 Mg9 3.125791 1_556
Al10 Mg1 3.227103 1_666
Al11 Al2 2.711027 1_555
Al11 Al8 2.731434 1_555
Al11 Al7 2.765614 1_656
Al11 Mg15 2.879380 1_555
Al11 Si0 2.910958 1_555
Al11 Mg11 2.991538 1_655
Al11 Mg10 2.998960 1_555
Al11 Mg3 3.103013 1_555
Al11 Mg2 3.112122 1_655
Al11 Mg0 3.125791 1_655
Al11 Mg1 3.227103 1_666
