# generated using pymatgen
data_CaCO3
_symmetry_space_group_name_H-M   'P 1'
_cell_length_a   7.12538187
_cell_length_b   7.12538187
_cell_length_c   9.41390244
_cell_angle_alpha   68.34036705
_cell_angle_beta   68.34036705
_cell_angle_gamma   60.54706716
_symmetry_Int_Tables_number   1
_chemical_formula_structural   CaCO3
_chemical_formula_sum   'Ca6 C6 O18'
_cell_volume   376.26074989
_cell_formula_units_Z   6
loop_
 _symmetry_equiv_pos_site_id
 _symmetry_equiv_pos_as_xyz
  1  'x, y, z'
loop_
 _atom_site_type_symbol
 _atom_site_label
 _atom_site_symmetry_multiplicity
 _atom_site_fract_x
 _atom_site_fract_y
 _atom_site_fract_z
 _atom_site_occupancy
  Ca  Ca0  1  0.00000000  0.50000000  0.50000000  1
  Ca  Ca1  1  0.50000000  0.00000000  -0.00000000  1
  Ca  Ca2  1  0.19723481  0.65290023  0.99919240  1
  Ca  Ca3  1  0.34709977  0.80276519  0.50080760  1
  Ca  Ca4  1  0.80276519  0.34709977  0.00080760  1
  Ca  Ca5  1  0.65290023  0.19723481  0.49919240  1
  C  C0  1  0.20653408  0.41271764  0.76572834  1
  C  C1  1  0.58728236  0.79346592  0.73427166  1
  C  C2  1  0.79346592  0.58728236  0.23427166  1
  C  C3  1  0.41271764  0.20653408  0.26572834  1
  C  C4  1  0.95133188  0.04866812  0.75000000  1
  C  C5  1  0.04866812  0.95133188  0.25000000  1
  O  O0  1  0.34546596  0.45515730  0.63891010  1
  O  O1  1  0.54484270  0.65453404  0.86108990  1
  O  O2  1  0.65453404  0.54484270  0.36108990  1
  O  O3  1  0.45515730  0.34546596  0.13891010  1
  O  O4  1  0.24084863  0.36130951  0.90360166  1
  O  O5  1  0.63869049  0.75915137  0.59639834  1
  O  O6  1  0.75915137  0.63869049  0.09639834  1
  O  O7  1  0.36130951  0.24084863  0.40360166  1
  O  O8  1  0.81942193  0.09042927  0.88321271  1
  O  O9  1  0.90957073  0.18057807  0.61678729  1
  O  O10  1  0.18057807  0.90957073  0.11678729  1
  O  O11  1  0.09042927  0.81942193  0.38321271  1
  O  O12  1  0.02671621  0.42177828  0.75566672  1
  O  O13  1  0.57822172  0.97328379  0.74433328  1
  O  O14  1  0.97328379  0.57822172  0.24433328  1
  O  O15  1  0.42177828  0.02671621  0.25566672  1
  O  O16  1  0.13093714  0.86906286  0.75000000  1
  O  O17  1  0.86906286  0.13093714  0.25000000  1
loop_
_geom_bond_atom_site_label_1
_geom_bond_atom_site_label_2
_geom_bond_distance
_geom_bond_site_symmetry_2
Ca0 O12 2.320194 1_555
Ca0 O14 2.320194 1_455
Ca0 O5 2.387151 1_455
Ca0 O7 2.387151 1_555
Ca0 O9 2.424092 1_455
Ca0 O11 2.424092 1_555
Ca1 O15 2.320194 1_555
Ca1 O13 2.320194 1_544
Ca1 O6 2.387151 1_545
Ca1 O4 2.387151 1_554
Ca1 O8 2.424092 1_554
Ca1 O10 2.424092 1_545
Ca2 O14 2.316316 1_456
Ca2 O1 2.337786 1_555
Ca2 O16 2.352427 1_555
Ca2 O3 2.367388 1_556
Ca2 O4 2.400405 1_555
Ca2 O10 2.401763 1_556
Ca3 O15 2.316316 1_565
Ca3 O0 2.337786 1_555
Ca3 O16 2.352427 1_555
Ca3 O2 2.367388 1_555
Ca3 O5 2.400405 1_555
Ca3 O11 2.401763 1_555
Ca4 O12 2.316316 1_654
Ca4 O3 2.337786 1_555
Ca4 O17 2.352427 1_555
Ca4 O1 2.367388 1_554
Ca4 O6 2.400405 1_555
Ca4 O8 2.401763 1_554
Ca5 O13 2.316316 1_545
Ca5 O2 2.337786 1_555
Ca5 O17 2.352427 1_555
Ca5 O0 2.367388 1_555
Ca5 O7 2.400405 1_555
Ca5 O9 2.401763 1_555
C0 O0 1.285377 1_555
C0 O12 1.287835 1_555
C0 O4 1.293754 1_555
C1 O1 1.285377 1_555
C1 O13 1.287835 1_555
C1 O5 1.293754 1_555
C2 O2 1.285377 1_555
C2 O14 1.287835 1_555
C2 O6 1.293754 1_555
C3 O3 1.285377 1_555
C3 O15 1.287835 1_555
C3 O7 1.293754 1_555
C4 O16 1.290324 1_645
C4 O9 1.294195 1_555
C4 O8 1.294195 1_555
C5 O17 1.290324 1_465
C5 O11 1.294195 1_555
C5 O10 1.294195 1_555
