# generated using pymatgen
data_LiEuTcO3
_symmetry_space_group_name_H-M   'P 1'
_cell_length_a   4.23092313
_cell_length_b   4.23092313
_cell_length_c   4.23208277
_cell_angle_alpha   81.11936142
_cell_angle_beta   81.11936142
_cell_angle_gamma   81.13125232
_symmetry_Int_Tables_number   1
_chemical_formula_structural   LiEuTcO3
_chemical_formula_sum   'Li1 Eu1 Tc1 O3'
_cell_volume   73.28966197
_cell_formula_units_Z   1
loop_
 _symmetry_equiv_pos_site_id
 _symmetry_equiv_pos_as_xyz
  1  'x, y, z'
loop_
 _atom_site_type_symbol
 _atom_site_label
 _atom_site_symmetry_multiplicity
 _atom_site_fract_x
 _atom_site_fract_y
 _atom_site_fract_z
 _atom_site_occupancy
  Li  Li0  1  0.23822100  0.23822100  0.23842300  1
  Eu  Eu0  1  0.90261100  0.90261100  0.90258700  1
  Tc  Tc0  1  0.52631000  0.52631000  0.52614600  1
  O  O0  1  0.52128700  0.52128700  0.02336500  1
  O  O1  1  0.52139000  0.02351700  0.52140800  1
  O  O2  1  0.02351700  0.52139000  0.52140800  1
loop_
_geom_bond_atom_site_label_1
_geom_bond_atom_site_label_2
_geom_bond_distance
_geom_bond_site_symmetry_2
Li0 O0 1.861765 1_555
Li0 O1 1.861818 1_555
Li0 O2 1.861818 1_555
Eu0 O1 2.399935 1_565
Eu0 O2 2.399935 1_655
Eu0 O0 2.400091 1_556
O0 Tc0 2.097949 1_554
O0 Tc0 2.134607 1_555
O1 Tc0 2.097560 1_545
O1 Tc0 2.133800 1_555
O2 Tc0 2.097560 1_455
O2 Tc0 2.133800 1_555
