# generated using pymatgen
data_Cs3PrCl6
_symmetry_space_group_name_H-M   'P 1'
_cell_length_a   14.29104247
_cell_length_b   14.29104247
_cell_length_c   13.31859669
_cell_angle_alpha   80.75070164
_cell_angle_beta   80.75070164
_cell_angle_gamma   33.94861648
_symmetry_Int_Tables_number   1
_chemical_formula_structural   Cs3PrCl6
_chemical_formula_sum   'Cs12 Pr4 Cl24'
_cell_volume   1497.43909594
_cell_formula_units_Z   4
loop_
 _symmetry_equiv_pos_site_id
 _symmetry_equiv_pos_as_xyz
  1  'x, y, z'
loop_
 _atom_site_type_symbol
 _atom_site_label
 _atom_site_symmetry_multiplicity
 _atom_site_fract_x
 _atom_site_fract_y
 _atom_site_fract_z
 _atom_site_occupancy
  Cs  Cs0  1  0.29990049  0.80053560  0.06678034  1
  Cs  Cs1  1  0.70009951  0.19946440  0.93321966  1
  Cs  Cs2  1  0.19946440  0.70009951  0.43321966  1
  Cs  Cs3  1  0.80053560  0.29990049  0.56678034  1
  Cs  Cs4  1  0.46677351  0.84128770  0.35505684  1
  Cs  Cs5  1  0.53322649  0.15871230  0.64494316  1
  Cs  Cs6  1  0.15871230  0.53322649  0.14494316  1
  Cs  Cs7  1  0.84128770  0.46677351  0.85505684  1
  Cs  Cs8  1  0.65103097  0.02516016  0.29992949  1
  Cs  Cs9  1  0.34896903  0.97483984  0.70007051  1
  Cs  Cs10  1  0.97483984  0.34896903  0.20007051  1
  Cs  Cs11  1  0.02516016  0.65103097  0.79992949  1
  Pr  Pr0  1  0.78439064  0.21560936  0.25000000  1
  Pr  Pr1  1  0.21560936  0.78439064  0.75000000  1
  Pr  Pr2  1  0.50000000  -0.00000000  0.00000000  1
  Pr  Pr3  1  0.00000000  0.50000000  0.50000000  1
  Cl  Cl0  1  0.61875884  0.72401831  0.08095968  1
  Cl  Cl1  1  0.38124116  0.27598169  0.91904032  1
  Cl  Cl2  1  0.27598169  0.38124116  0.41904032  1
  Cl  Cl3  1  0.72401831  0.61875884  0.58095968  1
  Cl  Cl4  1  0.49840840  0.38460806  0.17725415  1
  Cl  Cl5  1  0.50159160  0.61539194  0.82274585  1
  Cl  Cl6  1  0.61539194  0.50159160  0.32274585  1
  Cl  Cl7  1  0.38460806  0.49840840  0.67725415  1
  Cl  Cl8  1  0.78161224  0.86685453  0.03341837  1
  Cl  Cl9  1  0.21838776  0.13314547  0.96658163  1
  Cl  Cl10  1  0.13314547  0.21838776  0.46658163  1
  Cl  Cl11  1  0.86685453  0.78161224  0.53341837  1
  Cl  Cl12  1  0.90962863  0.97291893  0.69643026  1
  Cl  Cl13  1  0.09037137  0.02708107  0.30356974  1
  Cl  Cl14  1  0.02708107  0.09037137  0.80356974  1
  Cl  Cl15  1  0.97291893  0.90962863  0.19643026  1
  Cl  Cl16  1  0.71848153  0.16432984  0.43825178  1
  Cl  Cl17  1  0.28151847  0.83567016  0.56174822  1
  Cl  Cl18  1  0.83567016  0.28151847  0.06174822  1
  Cl  Cl19  1  0.16432984  0.71848153  0.93825178  1
  Cl  Cl20  1  0.35887888  0.14197705  0.18860738  1
  Cl  Cl21  1  0.64112112  0.85802295  0.81139262  1
  Cl  Cl22  1  0.85802295  0.64112112  0.31139262  1
  Cl  Cl23  1  0.14197705  0.35887888  0.68860738  1
loop_
_geom_bond_atom_site_label_1
_geom_bond_atom_site_label_2
_geom_bond_distance
_geom_bond_site_symmetry_2
Cl0 Pr2 2.777478 1_565
Cl0 Cs10 3.427906 1_555
Cl0 Cs7 3.710003 1_554
Cl0 Cs0 3.733524 1_555
Cl0 Cs4 3.772496 1_555
Cl1 Pr2 2.777478 1_556
Cl1 Cs11 3.427906 1_555
Cl1 Cs6 3.710003 1_556
Cl1 Cs1 3.733524 1_555
Cl1 Cs5 3.772496 1_555
Cl2 Pr3 2.777478 1_555
Cl2 Cs8 3.427906 1_555
Cl2 Cs5 3.710003 1_555
Cl2 Cs2 3.733524 1_555
Cl2 Cs6 3.772496 1_555
Cl3 Pr3 2.777478 1_655
Cl3 Cs9 3.427906 1_555
Cl3 Cs4 3.710003 1_555
Cl3 Cs3 3.733524 1_555
Cl3 Cs7 3.772496 1_555
Cl4 Pr0 2.760352 1_555
Cl4 Cs6 3.396297 1_555
Cl4 Cs1 3.601758 1_554
Cl4 Cs8 3.697745 1_555
Cl4 Cs0 4.012291 1_555
Cl5 Pr1 2.760352 1_555
Cl5 Cs7 3.396297 1_555
Cl5 Cs0 3.601758 1_556
Cl5 Cs9 3.697745 1_555
Cl5 Cs1 4.012291 1_555
Cl6 Pr0 2.760352 1_555
Cl6 Cs4 3.396297 1_555
Cl6 Cs3 3.601758 1_555
Cl6 Cs10 3.697745 1_555
Cl6 Cs2 4.012291 1_555
Cl7 Pr1 2.760352 1_555
Cl7 Cs5 3.396297 1_555
Cl7 Cs2 3.601758 1_555
Cl7 Cs11 3.697745 1_555
Cl7 Cs3 4.012291 1_555
Cl8 Pr2 2.759385 1_565
Cl8 Cs6 3.413042 1_655
Cl8 Cs11 3.618190 1_654
Cl8 Cs8 3.827237 1_565
Cl8 Cs1 3.873777 1_564
Cl9 Pr2 2.759385 1_556
Cl9 Cs7 3.413042 1_455
Cl9 Cs10 3.618190 1_456
Cl9 Cs9 3.827237 1_545
Cl9 Cs0 3.873777 1_546
Cl10 Pr3 2.759385 1_555
Cl10 Cs4 3.413042 1_545
Cl10 Cs9 3.618190 1_545
Cl10 Cs10 3.827237 1_455
Cl10 Cs3 3.873777 1_455
Cl11 Pr3 2.759385 1_655
Cl11 Cs5 3.413042 1_565
Cl11 Cs8 3.618190 1_565
Cl11 Cs11 3.827237 1_655
Cl11 Cs2 3.873777 1_655
Cl12 Pr1 2.779928 1_655
Cl12 Cs11 3.446680 1_655
Cl12 Cs5 3.655156 1_565
Cl12 Cs3 3.665112 1_565
Cl12 Cs1 3.681929 1_565
Cl13 Pr0 2.779928 1_455
Cl13 Cs10 3.446680 1_455
Cl13 Cs4 3.655156 1_545
Cl13 Cs2 3.665112 1_545
Cl13 Cs0 3.681929 1_545
Cl14 Pr1 2.779928 1_545
Cl14 Cs9 3.446680 1_545
Cl14 Cs7 3.655156 1_455
Cl14 Cs1 3.665112 1_455
Cl14 Cs3 3.681929 1_455
Cl15 Pr0 2.779928 1_565
Cl15 Cs8 3.446680 1_565
Cl15 Cs6 3.655156 1_655
Cl15 Cs0 3.665112 1_655
Cl15 Cs2 3.681929 1_655
Cl16 Pr0 2.739696 1_555
Cl16 Cs5 3.540127 1_555
Cl16 Cs8 3.634302 1_555
Cl16 Cs3 3.679651 1_555
Cl16 Cs2 3.950146 1_645
Cl17 Pr1 2.739696 1_555
Cl17 Cs4 3.540127 1_555
Cl17 Cs9 3.634302 1_555
Cl17 Cs2 3.679651 1_555
Cl17 Cs3 3.950146 1_465
Cl18 Pr0 2.739696 1_555
Cl18 Cs7 3.540127 1_554
Cl18 Cs10 3.634302 1_555
Cl18 Cs1 3.679651 1_554
Cl18 Cs0 3.950146 1_645
Cl19 Pr1 2.739696 1_555
Cl19 Cs6 3.540127 1_556
Cl19 Cs11 3.634302 1_555
Cl19 Cs0 3.679651 1_556
Cl19 Cs1 3.950146 1_465
Cl20 Pr2 2.777618 1_555
Cl20 Cs10 3.440336 1_455
Cl20 Cs8 3.470945 1_555
Cl20 Cs6 3.568996 1_555
Cl20 Cs4 3.577890 1_545
Cl21 Pr2 2.777618 1_566
Cl21 Cs11 3.440336 1_655
Cl21 Cs9 3.470945 1_555
Cl21 Cs7 3.568996 1_555
Cl21 Cs5 3.577890 1_565
Cl22 Pr3 2.777618 1_655
Cl22 Cs8 3.440336 1_565
Cl22 Cs10 3.470945 1_555
Cl22 Cs4 3.568996 1_555
Cl22 Cs6 3.577890 1_655
Cl23 Pr3 2.777618 1_555
Cl23 Cs9 3.440336 1_545
Cl23 Cs11 3.470945 1_555
Cl23 Cs5 3.568996 1_555
Cl23 Cs7 3.577890 1_455
