# generated using pymatgen
data_Zr5Bi3
_symmetry_space_group_name_H-M   'P 1'
_cell_length_a   5.89637500
_cell_length_b   8.73227303
_cell_length_c   8.73227303
_cell_angle_alpha   119.99999267
_cell_angle_beta   90.00000000
_cell_angle_gamma   90.00000000
_symmetry_Int_Tables_number   1
_chemical_formula_structural   Zr5Bi3
_chemical_formula_sum   'Zr10 Bi6'
_cell_volume   389.37706989
_cell_formula_units_Z   2
loop_
 _symmetry_equiv_pos_site_id
 _symmetry_equiv_pos_as_xyz
  1  'x, y, z'
loop_
 _atom_site_type_symbol
 _atom_site_label
 _atom_site_symmetry_multiplicity
 _atom_site_fract_x
 _atom_site_fract_y
 _atom_site_fract_z
 _atom_site_occupancy
  Zr  Zr0  1  0.00000000  0.66666700  0.33333300  1
  Zr  Zr1  1  0.00000000  0.33333300  0.66666700  1
  Zr  Zr2  1  0.50000000  0.33333300  0.66666700  1
  Zr  Zr3  1  0.50000000  0.66666700  0.33333300  1
  Zr  Zr4  1  0.75000000  0.74533200  0.74533200  1
  Zr  Zr5  1  0.25000000  0.25466800  0.25466800  1
  Zr  Zr6  1  0.75000000  0.00000000  0.25466800  1
  Zr  Zr7  1  0.25000000  0.00000000  0.74533200  1
  Zr  Zr8  1  0.75000000  0.25466800  0.00000000  1
  Zr  Zr9  1  0.25000000  0.74533200  0.00000000  1
  Bi  Bi0  1  0.75000000  0.38560600  0.38560600  1
  Bi  Bi1  1  0.25000000  0.61439400  0.61439400  1
  Bi  Bi2  1  0.75000000  0.00000000  0.61439400  1
  Bi  Bi3  1  0.25000000  0.00000000  0.38560600  1
  Bi  Bi4  1  0.75000000  0.61439400  0.00000000  1
  Bi  Bi5  1  0.25000000  0.38560600  0.00000000  1
loop_
_geom_bond_atom_site_label_1
_geom_bond_atom_site_label_2
_geom_bond_distance
_geom_bond_site_symmetry_2
Zr0 Zr3 2.948187 1_455
Zr0 Zr3 2.948187 1_555
Zr1 Zr2 2.948187 1_455
Zr1 Zr2 2.948187 1_555
Bi0 Zr8 2.965713 1_555
Bi0 Zr6 2.965713 1_555
Bi0 Zr1 3.086292 1_655
Bi0 Zr2 3.086292 1_555
Bi0 Zr3 3.086292 1_555
Bi0 Zr0 3.086292 1_655
Bi0 Zr4 3.141226 1_555
Bi0 Zr5 3.162142 1_555
Bi0 Zr5 3.162142 1_655
Bi1 Zr7 2.965713 1_565
Bi1 Zr9 2.965713 1_556
Bi1 Zr2 3.086292 1_555
Bi1 Zr3 3.086292 1_555
Bi1 Zr0 3.086292 1_555
Bi1 Zr1 3.086292 1_555
Bi1 Zr5 3.141226 1_555
Bi1 Zr4 3.162142 1_455
Bi1 Zr4 3.162142 1_555
Bi2 Zr4 2.965713 1_545
Bi2 Zr8 2.965713 1_556
Bi2 Zr1 3.086285 1_655
Bi2 Zr2 3.086285 1_555
Bi2 Zr0 3.086288 1_645
Bi2 Zr3 3.086288 1_545
Bi2 Zr6 3.141226 1_555
Bi2 Zr7 3.162142 1_555
Bi2 Zr7 3.162142 1_655
Bi3 Zr5 2.965713 1_555
Bi3 Zr9 2.965713 1_545
Bi3 Zr3 3.086285 1_545
Bi3 Zr0 3.086285 1_545
Bi3 Zr2 3.086288 1_555
Bi3 Zr1 3.086288 1_555
Bi3 Zr7 3.141226 1_555
Bi3 Zr6 3.162142 1_455
Bi3 Zr6 3.162142 1_555
Bi4 Zr4 2.965713 1_554
Bi4 Zr6 2.965713 1_565
Bi4 Zr3 3.086285 1_555
Bi4 Zr0 3.086285 1_655
Bi4 Zr1 3.086288 1_654
Bi4 Zr2 3.086288 1_554
Bi4 Zr8 3.141226 1_555
Bi4 Zr9 3.162142 1_555
Bi4 Zr9 3.162142 1_655
Bi5 Zr5 2.965713 1_555
Bi5 Zr7 2.965713 1_554
Bi5 Zr1 3.086285 1_554
Bi5 Zr2 3.086285 1_554
Bi5 Zr3 3.086288 1_555
Bi5 Zr0 3.086288 1_555
Bi5 Zr9 3.141226 1_555
Bi5 Zr8 3.162142 1_455
Bi5 Zr8 3.162142 1_555
