# generated using pymatgen
data_Hg2P2H6O7
_symmetry_space_group_name_H-M   'P 1'
_cell_length_a   7.47767300
_cell_length_b   7.84546590
_cell_length_c   9.27396540
_cell_angle_alpha   80.46251886
_cell_angle_beta   67.80580109
_cell_angle_gamma   74.06919592
_symmetry_Int_Tables_number   1
_chemical_formula_structural   Hg2P2H6O7
_chemical_formula_sum   'Hg4 P4 H12 O14'
_cell_volume   483.23092086
_cell_formula_units_Z   2
loop_
 _symmetry_equiv_pos_site_id
 _symmetry_equiv_pos_as_xyz
  1  'x, y, z'
loop_
 _atom_site_type_symbol
 _atom_site_label
 _atom_site_symmetry_multiplicity
 _atom_site_fract_x
 _atom_site_fract_y
 _atom_site_fract_z
 _atom_site_occupancy
  Hg  Hg0  1  0.71858300  0.24690000  0.89238200  1
  Hg  Hg1  1  0.28141700  0.75310000  0.10761800  1
  Hg  Hg2  1  0.79105700  0.41189900  0.25800500  1
  Hg  Hg3  1  0.20894300  0.58810100  0.74199500  1
  P  P0  1  0.68105700  0.65490500  0.74483900  1
  P  P1  1  0.31894300  0.34509500  0.25516100  1
  P  P2  1  0.78589300  0.79253900  0.97330500  1
  P  P3  1  0.21410700  0.20746100  0.02669500  1
  H  H0  1  0.81807200  0.98477400  0.31804500  1
  H  H1  1  0.18192800  0.01522600  0.68195500  1
  H  H2  1  0.77967600  0.13723000  0.55276300  1
  H  H3  1  0.22032400  0.86277000  0.44723700  1
  H  H4  1  0.17822100  0.94498300  0.40551000  1
  H  H5  1  0.82177900  0.05501700  0.59449000  1
  H  H6  1  0.83305700  0.98439500  0.23314600  1
  H  H7  1  0.16694300  0.01560500  0.76685400  1
  H  H8  1  0.33050000  0.51697700  0.57109700  1
  H  H9  1  0.66950000  0.48302300  0.42890300  1
  H  H10  1  0.83942400  0.70092700  0.49301300  1
  H  H11  1  0.16057600  0.29907300  0.50698700  1
  O  O0  1  0.72558900  0.99010300  0.00414500  1
  O  O1  1  0.27441100  0.00989700  0.99585500  1
  O  O2  1  0.46439200  0.67311700  0.83568900  1
  O  O3  1  0.53560800  0.32688300  0.16431100  1
  O  O4  1  0.70639000  0.73332800  0.57044700  1
  O  O5  1  0.29361000  0.26667200  0.42955300  1
  O  O6  1  0.77418200  0.78381700  0.79942700  1
  O  O7  1  0.22581800  0.21618300  0.20057300  1
  O  O8  1  0.81634000  0.46432300  0.73847700  1
  O  O9  1  0.18366000  0.53567700  0.26152300  1
  O  O10  1  0.00711100  0.71136500  0.95221800  1
  O  O11  1  0.99288900  0.28863500  0.04778200  1
  O  O12  1  0.35638600  0.30984600  0.90696100  1
  O  O13  1  0.64361400  0.69015400  0.09303900  1
loop_
_geom_bond_atom_site_label_1
_geom_bond_atom_site_label_2
_geom_bond_distance
_geom_bond_site_symmetry_2
Hg0 O0 2.104071 1_546
Hg0 O8 2.137919 1_555
Hg0 O3 2.464116 1_556
Hg0 O12 2.570755 1_555
Hg1 O1 2.104071 1_564
Hg1 O9 2.137919 1_555
Hg1 O2 2.464116 1_554
Hg1 O13 2.570755 1_555
Hg2 O11 2.148151 1_555
Hg2 O3 2.644621 1_555
Hg2 O13 2.677332 1_555
Hg3 O10 2.148151 1_555
Hg3 O2 2.644621 1_555
Hg3 O12 2.677332 1_555
H0 H6 0.752612 1_555
H1 H7 0.752612 1_555
H2 H5 0.750166 1_555
H3 H4 0.750166 1_555
H8 Hg3 1.604916 1_555
H9 Hg2 1.604916 1_555
H10 O4 0.975645 1_555
H11 O5 0.975645 1_555
O0 P2 1.534070 1_554
O1 P3 1.534070 1_556
O2 P0 1.495564 1_555
O3 P1 1.495564 1_555
O4 P0 1.591503 1_555
O5 P1 1.591503 1_555
O6 P0 1.608322 1_555
O6 P2 1.661076 1_555
O7 P1 1.608322 1_555
O7 P3 1.661076 1_555
O8 P0 1.554439 1_555
O9 P1 1.554439 1_555
O10 P2 1.548790 1_455
O11 P3 1.548790 1_655
O12 P3 1.513664 1_556
O13 P2 1.513664 1_554
