# generated using pymatgen
data_LiMn4P7O24
_symmetry_space_group_name_H-M   'P 1'
_cell_length_a   10.39040919
_cell_length_b   10.61176495
_cell_length_c   10.79802845
_cell_angle_alpha   112.36628969
_cell_angle_beta   108.69852232
_cell_angle_gamma   105.82470074
_symmetry_Int_Tables_number   1
_chemical_formula_structural   LiMn4P7O24
_chemical_formula_sum   'Li2 Mn8 P14 O48'
_cell_volume   931.04877320
_cell_formula_units_Z   2
loop_
 _symmetry_equiv_pos_site_id
 _symmetry_equiv_pos_as_xyz
  1  'x, y, z'
loop_
 _atom_site_type_symbol
 _atom_site_label
 _atom_site_symmetry_multiplicity
 _atom_site_fract_x
 _atom_site_fract_y
 _atom_site_fract_z
 _atom_site_occupancy
  Li  Li0  1  0.01782000  0.40701700  0.57214900  1
  Li  Li1  1  0.98218000  0.59298300  0.42785100  1
  Mn  Mn0  1  0.24328300  0.84973900  0.74460200  1
  Mn  Mn1  1  0.05842700  0.69509100  0.07085700  1
  Mn  Mn2  1  0.39134500  0.23205100  0.89773000  1
  Mn  Mn3  1  0.43036300  0.59892400  0.41613500  1
  Mn  Mn4  1  0.56963700  0.40107600  0.58386600  1
  Mn  Mn5  1  0.60865500  0.76794900  0.10227000  1
  Mn  Mn6  1  0.94157300  0.30490900  0.92914300  1
  Mn  Mn7  1  0.75671700  0.15026100  0.25539800  1
  P  P0  1  0.99528000  0.97014600  0.76457400  1
  P  P1  1  0.23645000  0.81557200  0.42861200  1
  P  P2  1  0.07670700  0.33964200  0.27387400  1
  P  P3  1  0.49660100  0.74434000  0.75666600  1
  P  P4  1  0.27071000  0.13452900  0.52781600  1
  P  P5  1  0.37641800  0.92032500  0.11012500  1
  P  P6  1  0.30064200  0.49399600  0.04828100  1
  P  P7  1  0.69935800  0.50600400  0.95171900  1
  P  P8  1  0.62358200  0.07967500  0.88987500  1
  P  P9  1  0.72929000  0.86547100  0.47218400  1
  P  P10  1  0.50339900  0.25566000  0.24333400  1
  P  P11  1  0.92329300  0.66035800  0.72612600  1
  P  P12  1  0.76355000  0.18442800  0.57138800  1
  P  P13  1  0.00472000  0.02985400  0.23542600  1
  O  O0  1  0.00535600  0.66081300  0.86992700  1
  O  O1  1  0.01189400  0.64291700  0.63461700  1
  O  O2  1  0.01919900  0.90006300  0.13435700  1
  O  O3  1  0.30569400  0.87901300  0.94537000  1
  O  O4  1  0.16213900  0.80377400  0.53141100  1
  O  O5  1  0.10003900  0.71674700  0.26760600  1
  O  O6  1  0.27327500  0.33553600  0.92893200  1
  O  O7  1  0.30138300  0.99045700  0.46501700  1
  O  O8  1  0.15649300  0.99355200  0.79169500  1
  O  O9  1  0.32812000  0.71336700  0.69735100  1
  O  O10  1  0.09572600  0.08074600  0.41311400  1
  O  O11  1  0.08054100  0.17582900  0.22525300  1
  O  O12  1  0.24060500  0.45867400  0.37649600  1
  O  O13  1  0.28208700  0.17836200  0.68111700  1
  O  O14  1  0.13591000  0.48116600  0.00795200  1
  O  O15  1  0.36923700  0.78036100  0.45441300  1
  O  O16  1  0.27533200  0.82469700  0.14770900  1
  O  O17  1  0.56316700  0.74794900  0.90402800  1
  O  O18  1  0.59471500  0.90849300  0.78465200  1
  O  O19  1  0.36345800  0.25592200  0.50948500  1
  O  O20  1  0.50856600  0.62952300  0.62670100  1
  O  O21  1  0.45904800  0.06730700  0.83176300  1
  O  O22  1  0.38142500  0.52145800  0.20989000  1
  O  O23  1  0.60717200  0.38240800  0.96997700  1
  O  O24  1  0.39282800  0.61759200  0.03002300  1
  O  O25  1  0.61857500  0.47854200  0.79011000  1
  O  O26  1  0.54095200  0.93269300  0.16823700  1
  O  O27  1  0.49143400  0.37047700  0.37329900  1
  O  O28  1  0.63654200  0.74407800  0.49051500  1
  O  O29  1  0.40528500  0.09150700  0.21534800  1
  O  O30  1  0.43683300  0.25205100  0.09597200  1
  O  O31  1  0.72466800  0.17530300  0.85229000  1
  O  O32  1  0.63076300  0.21963900  0.54558700  1
  O  O33  1  0.86409000  0.51883400  0.99204800  1
  O  O34  1  0.71791300  0.82163800  0.31888300  1
  O  O35  1  0.75939500  0.54132600  0.62350400  1
  O  O36  1  0.91945900  0.82417100  0.77474700  1
  O  O37  1  0.90427400  0.91925400  0.58688600  1
  O  O38  1  0.67188000  0.28663300  0.30264900  1
  O  O39  1  0.84350700  0.00644800  0.20830500  1
  O  O40  1  0.69861700  0.00954300  0.53498300  1
  O  O41  1  0.72672500  0.66446400  0.07106800  1
  O  O42  1  0.89996100  0.28325300  0.73239400  1
  O  O43  1  0.83786100  0.19622600  0.46858900  1
  O  O44  1  0.69430600  0.12098700  0.05463000  1
  O  O45  1  0.98080100  0.09993700  0.86564300  1
  O  O46  1  0.98810600  0.35708300  0.36538300  1
  O  O47  1  0.99464400  0.33918700  0.13007300  1
loop_
_geom_bond_atom_site_label_1
_geom_bond_atom_site_label_2
_geom_bond_distance
_geom_bond_site_symmetry_2
Li0 O46 1.982253 1_455
Li0 O43 2.055452 1_455
Li0 O1 2.356052 1_555
Li1 O1 1.982253 1_655
Li1 O4 2.055452 1_655
Li1 O46 2.356052 1_555
Mn0 O9 1.885139 1_555
Mn0 O3 1.921723 1_555
Mn0 O8 1.963364 1_555
Mn0 O4 1.981126 1_555
Mn0 O1 2.305505 1_555
Mn0 O21 2.326534 1_565
Mn1 O0 1.914843 1_554
Mn1 O5 1.933530 1_555
Mn1 O16 1.975154 1_555
Mn1 O33 1.981657 1_454
Mn1 O2 2.212482 1_555
Mn1 O14 2.537096 1_555
Mn2 O6 1.882203 1_555
Mn2 O30 1.949750 1_556
Mn2 O13 2.003694 1_555
Mn2 O21 2.025542 1_555
Mn2 O23 2.040310 1_555
Mn2 O8 2.511159 1_545
Mn3 O22 1.883265 1_555
Mn3 O12 1.912950 1_555
Mn3 O28 1.939757 1_555
Mn3 O20 2.011226 1_555
Mn3 O15 2.123877 1_555
Mn3 O27 2.582104 1_555
Mn4 O25 1.883255 1_555
Mn4 O35 1.912954 1_555
Mn4 O19 1.939755 1_555
Mn4 O27 2.011236 1_555
Mn4 O32 2.123877 1_555
Mn4 O20 2.582105 1_555
Mn5 O41 1.882203 1_555
Mn5 O17 1.949750 1_554
Mn5 O34 2.003694 1_555
Mn5 O26 2.025542 1_555
Mn5 O24 2.040310 1_555
Mn5 O39 2.511159 1_565
Mn6 O47 1.914843 1_556
Mn6 O42 1.933530 1_555
Mn6 O31 1.975151 1_555
Mn6 O14 1.981657 1_656
Mn6 O45 2.212482 1_555
Mn6 O33 2.537096 1_555
Mn7 O38 1.885139 1_555
Mn7 O44 1.921723 1_555
Mn7 O39 1.963364 1_555
Mn7 O43 1.981126 1_555
Mn7 O46 2.305505 1_555
Mn7 O26 2.326534 1_545
O0 P11 1.510393 1_455
O1 P11 1.547622 1_455
O2 P13 1.478168 1_565
O3 P5 1.513162 1_556
O4 P1 1.564157 1_555
O5 P1 1.533968 1_555
O6 P6 1.557010 1_556
O7 P4 1.585596 1_565
O7 P1 1.626564 1_555
O8 P0 1.535094 1_455
O9 P3 1.545924 1_555
O10 P4 1.617921 1_555
O10 P13 1.623805 1_555
O11 P13 1.597402 1_555
O11 P2 1.629623 1_555
O12 P2 1.508361 1_555
O13 P4 1.493005 1_555
O14 P6 1.577253 1_555
O15 P1 1.494913 1_555
O16 P5 1.517594 1_555
O17 P3 1.498446 1_555
O18 P8 1.610683 1_565
O18 P3 1.611931 1_555
O19 P4 1.505531 1_555
O20 P3 1.537071 1_555
O21 P8 1.568678 1_555
O22 P6 1.541134 1_555
O23 P7 1.519628 1_555
O24 P6 1.519628 1_555
O25 P7 1.541134 1_555
O26 P5 1.568678 1_555
O27 P10 1.537071 1_555
O28 P9 1.505531 1_555
O29 P5 1.610683 1_545
O29 P10 1.611931 1_555
O30 P10 1.498446 1_555
O31 P8 1.517602 1_555
O32 P12 1.494913 1_555
O33 P7 1.577253 1_555
O34 P9 1.493005 1_555
O35 P11 1.508361 1_555
O36 P0 1.597402 1_555
O36 P11 1.629623 1_555
O37 P9 1.617921 1_555
O37 P0 1.623805 1_555
O38 P10 1.545924 1_555
O39 P13 1.535094 1_655
O40 P9 1.585596 1_545
O40 P12 1.626564 1_555
O41 P7 1.557010 1_554
O42 P12 1.533968 1_555
O43 P12 1.564157 1_555
O44 P8 1.513162 1_554
O45 P0 1.478168 1_545
O46 P2 1.547622 1_655
O47 P2 1.510393 1_655
