# generated using pymatgen
data_Ca4Si3B5(HO4)5
_symmetry_space_group_name_H-M   'P 1'
_cell_length_a   4.87409924
_cell_length_b   7.65782869
_cell_length_c   9.59429347
_cell_angle_alpha   89.69274219
_cell_angle_beta   90.40769913
_cell_angle_gamma   90.29030636
_symmetry_Int_Tables_number   1
_chemical_formula_structural   Ca4Si3B5(HO4)5
_chemical_formula_sum   'Ca4 Si3 B5 H5 O20'
_cell_volume   358.08842394
_cell_formula_units_Z   1
loop_
 _symmetry_equiv_pos_site_id
 _symmetry_equiv_pos_as_xyz
  1  'x, y, z'
loop_
 _atom_site_type_symbol
 _atom_site_label
 _atom_site_symmetry_multiplicity
 _atom_site_fract_x
 _atom_site_fract_y
 _atom_site_fract_z
 _atom_site_occupancy
  Ca  Ca0  1  0.99181500  0.39159900  0.83176300  1
  Ca  Ca1  1  0.00322400  0.89468400  0.66709000  1
  Ca  Ca2  1  0.01046500  0.60390300  0.16226400  1
  Ca  Ca3  1  0.97956500  0.11692600  0.33533500  1
  Si  Si0  1  0.53004100  0.73421700  0.91230500  1
  Si  Si1  1  0.53067100  0.75715100  0.41311100  1
  Si  Si2  1  0.46728700  0.26488800  0.08472800  1
  B  B0  1  0.56059800  0.09689300  0.83240700  1
  B  B1  1  0.43099900  0.58158200  0.65694900  1
  B  B2  1  0.42778900  0.91002100  0.15731600  1
  B  B3  1  0.56616500  0.40356100  0.34947600  1
  B  B4  1  0.48728200  0.25424900  0.59153100  1
  H  H0  1  0.19989900  0.03733300  0.92474700  1
  H  H1  1  0.80256800  0.52867500  0.57536600  1
  H  H2  1  0.80061800  0.96352000  0.07313500  1
  H  H3  1  0.19594300  0.45196200  0.43212900  1
  H  H4  1  0.43220000  0.03088700  0.50437100  1
  O  O0  1  0.66684900  0.19892700  0.95600700  1
  O  O1  1  0.32320700  0.69724300  0.54084100  1
  O  O2  1  0.32769300  0.80147000  0.03946800  1
  O  O3  1  0.66497700  0.30240700  0.46993500  1
  O  O4  1  0.28830700  0.11153300  0.53968500  1
  O  O5  1  0.76148200  0.60071300  0.96112600  1
  O  O6  1  0.74072000  0.90780200  0.46331700  1
  O  O7  1  0.24128300  0.40267800  0.03795900  1
  O  O8  1  0.66379100  0.17710300  0.70422200  1
  O  O9  1  0.32187900  0.65914400  0.78703200  1
  O  O10  1  0.32235700  0.83110800  0.28840600  1
  O  O11  1  0.67278700  0.32724000  0.21655100  1
  O  O12  1  0.32401100  0.40351800  0.64079900  1
  O  O13  1  0.67765400  0.91577200  0.84668600  1
  O  O14  1  0.69094200  0.58378400  0.35453400  1
  O  O15  1  0.30654200  0.08598900  0.14545700  1
  O  O16  1  0.25243100  0.08800800  0.83447500  1
  O  O17  1  0.73974300  0.58860400  0.65968700  1
  O  O18  1  0.73610600  0.91643800  0.16261300  1
  O  O19  1  0.25950500  0.41216900  0.34057800  1
loop_
_geom_bond_atom_site_label_1
_geom_bond_atom_site_label_2
_geom_bond_distance
_geom_bond_site_symmetry_2
Ca0 O7 2.316441 1_656
Ca0 O5 2.329064 1_555
Ca0 O12 2.454741 1_655
Ca0 O0 2.467997 1_555
Ca0 O17 2.544467 1_555
Ca0 O8 2.592053 1_555
Ca0 O9 2.633806 1_655
Ca0 O16 2.654804 1_655
Ca1 O6 2.330876 1_455
Ca1 O13 2.357490 1_455
Ca1 O4 2.482242 1_565
Ca1 O16 2.495129 1_565
Ca1 O1 2.501218 1_555
Ca1 O9 2.640200 1_555
Ca1 O17 2.667993 1_455
Ca1 O8 2.755777 1_465
Ca2 O7 2.262503 1_555
Ca2 O5 2.272501 1_454
Ca2 O14 2.426416 1_455
Ca2 O2 2.459842 1_555
Ca2 O19 2.552963 1_555
Ca2 O10 2.602405 1_555
Ca2 O11 2.726507 1_455
Ca2 O18 2.747528 1_455
Ca3 O6 2.325498 1_545
Ca3 O15 2.442252 1_655
Ca3 O4 2.463321 1_655
Ca3 O3 2.471075 1_555
Ca3 O11 2.471630 1_555
Ca3 O18 2.547989 1_545
Ca3 O19 2.635339 1_655
Ca3 O10 2.800579 1_645
B0 O8 1.462995 1_555
B0 O16 1.503500 1_555
B0 O13 1.507616 1_545
B0 O0 1.510652 1_555
B1 O12 1.466019 1_555
B1 O9 1.487918 1_555
B1 O17 1.505584 1_555
B1 O1 1.512370 1_555
B2 O15 1.477669 1_565
B2 O2 1.485112 1_555
B2 O10 1.486273 1_555
B2 O18 1.503828 1_555
B3 O3 1.467630 1_555
B3 O19 1.498285 1_555
B3 O11 1.502867 1_555
B3 O14 1.506236 1_555
B4 O12 1.477743 1_555
B4 O8 1.497732 1_555
B4 O3 1.501228 1_555
B4 O4 1.539686 1_555
H0 O16 0.982251 1_555
H1 O17 0.983765 1_555
H2 O18 0.982457 1_555
H3 O19 0.983905 1_555
H4 O4 0.999048 1_555
O0 Si2 1.659885 1_556
O1 Si1 1.655806 1_555
O2 Si0 1.659958 1_554
O5 Si0 1.592535 1_555
O6 Si1 1.611861 1_555
O7 Si2 1.589921 1_555
O9 Si0 1.669924 1_555
O10 Si1 1.662664 1_555
O11 Si2 1.677628 1_555
O13 Si0 1.683422 1_555
O14 Si1 1.647242 1_555
O15 Si2 1.678462 1_555
