# generated using pymatgen
data_Yb(SiRh)2
_symmetry_space_group_name_H-M   'P 1'
_cell_length_a   5.75164700
_cell_length_b   5.75164700
_cell_length_c   5.75164700
_cell_angle_alpha   138.23623239
_cell_angle_beta   138.23623239
_cell_angle_gamma   60.54138976
_symmetry_Int_Tables_number   1
_chemical_formula_structural   Yb(SiRh)2
_chemical_formula_sum   'Yb1 Si2 Rh2'
_cell_volume   83.51325214
_cell_formula_units_Z   1
loop_
 _symmetry_equiv_pos_site_id
 _symmetry_equiv_pos_as_xyz
  1  'x, y, z'
loop_
 _atom_site_type_symbol
 _atom_site_label
 _atom_site_symmetry_multiplicity
 _atom_site_fract_x
 _atom_site_fract_y
 _atom_site_fract_z
 _atom_site_occupancy
  Yb  Yb0  1  0.00000000  0.00000000  0.00000000  1
  Si  Si0  1  0.62540400  0.62540400  0.00000000  1
  Si  Si1  1  0.37459600  0.37459600  0.00000000  1
  Rh  Rh0  1  0.25000000  0.75000000  0.50000000  1
  Rh  Rh1  1  0.75000000  0.25000000  0.50000000  1
loop_
_geom_bond_atom_site_label_1
_geom_bond_atom_site_label_2
_geom_bond_distance
_geom_bond_site_symmetry_2
Si0 Si1 2.491742 1_555
Si0 Yb0 3.155674 1_655
Si0 Yb0 3.155674 1_565
Si0 Yb0 3.155674 1_554
Si0 Yb0 3.155674 1_666
Si1 Yb0 3.155674 1_565
Si1 Yb0 3.155674 1_554
Si1 Yb0 3.155674 1_655
Si1 Yb0 3.155674 1_666
Rh0 Si1 2.394848 1_566
Rh0 Si1 2.394848 1_555
Rh0 Si0 2.394848 1_455
Rh0 Si0 2.394848 1_556
Rh0 Yb0 3.220541 1_566
Rh0 Yb0 3.220541 1_565
Rh0 Yb0 3.220541 1_555
Rh0 Yb0 3.220541 1_666
Rh1 Si1 2.394848 1_656
Rh1 Si1 2.394848 1_555
Rh1 Si0 2.394848 1_545
Rh1 Si0 2.394848 1_556
Rh1 Yb0 3.220541 1_666
Rh1 Yb0 3.220541 1_655
Rh1 Yb0 3.220541 1_656
Rh1 Yb0 3.220541 1_555
