# generated using pymatgen
data_Mn3Sb
_symmetry_space_group_name_H-M   'P 1'
_cell_length_a   5.41410571
_cell_length_b   5.41410571
_cell_length_c   4.34470600
_cell_angle_alpha   90.00000000
_cell_angle_beta   90.00000000
_cell_angle_gamma   119.99999646
_symmetry_Int_Tables_number   1
_chemical_formula_structural   Mn3Sb
_chemical_formula_sum   'Mn6 Sb2'
_cell_volume   110.29212467
_cell_formula_units_Z   2
loop_
 _symmetry_equiv_pos_site_id
 _symmetry_equiv_pos_as_xyz
  1  'x, y, z'
loop_
 _atom_site_type_symbol
 _atom_site_label
 _atom_site_symmetry_multiplicity
 _atom_site_fract_x
 _atom_site_fract_y
 _atom_site_fract_z
 _atom_site_occupancy
  Mn  Mn0  1  0.15295700  0.30591300  0.25000000  1
  Mn  Mn1  1  0.69408700  0.84704300  0.25000000  1
  Mn  Mn2  1  0.15295700  0.84704300  0.25000000  1
  Mn  Mn3  1  0.84704300  0.69408700  0.75000000  1
  Mn  Mn4  1  0.30591300  0.15295700  0.75000000  1
  Mn  Mn5  1  0.84704300  0.15295700  0.75000000  1
  Sb  Sb0  1  0.33333300  0.66666700  0.75000000  1
  Sb  Sb1  1  0.66666700  0.33333300  0.25000000  1
loop_
_geom_bond_atom_site_label_1
_geom_bond_atom_site_label_2
_geom_bond_distance
_geom_bond_site_symmetry_2
Mn0 Mn2 2.484371 1_545
Mn0 Mn1 2.484371 1_445
Mn0 Mn4 2.603165 1_555
Mn0 Mn4 2.603165 1_554
Mn0 Mn5 2.603170 1_455
Mn0 Mn5 2.603170 1_454
Mn0 Sb1 2.710104 1_455
Mn0 Sb1 2.710104 1_555
Mn0 Sb0 2.753224 1_555
Mn0 Sb0 2.753224 1_554
Mn0 Mn2 2.929735 1_555
Mn0 Mn1 2.929735 1_555
Mn1 Mn2 2.484371 1_655
Mn1 Mn3 2.603165 1_554
Mn1 Mn3 2.603165 1_555
Mn1 Mn5 2.603170 1_564
Mn1 Mn5 2.603170 1_565
Mn1 Sb1 2.710104 1_565
Mn1 Sb1 2.710104 1_555
Mn1 Sb0 2.753224 1_554
Mn1 Sb0 2.753224 1_555
Mn1 Mn2 2.929735 1_555
Mn2 Mn3 2.603170 1_454
Mn2 Mn3 2.603170 1_455
Mn2 Mn4 2.603170 1_565
Mn2 Mn4 2.603170 1_564
Mn2 Sb1 2.710104 1_455
Mn2 Sb1 2.710104 1_565
Mn2 Sb0 2.753218 1_554
Mn2 Sb0 2.753218 1_555
Mn3 Mn5 2.484371 1_565
Mn3 Mn4 2.484371 1_665
Mn3 Sb0 2.710104 1_655
Mn3 Sb0 2.710104 1_555
Mn3 Sb1 2.753224 1_555
Mn3 Sb1 2.753224 1_556
Mn3 Mn5 2.929735 1_555
Mn3 Mn4 2.929735 1_555
Mn4 Mn5 2.484371 1_455
Mn4 Sb0 2.710104 1_545
Mn4 Sb0 2.710104 1_555
Mn4 Sb1 2.753224 1_556
Mn4 Sb1 2.753224 1_555
Mn4 Mn5 2.929735 1_555
Mn5 Sb0 2.710104 1_545
Mn5 Sb0 2.710104 1_655
Mn5 Sb1 2.753218 1_556
Mn5 Sb1 2.753218 1_555
