# generated using pymatgen
data_Ti3ZnO7
_symmetry_space_group_name_H-M   'P 1'
_cell_length_a   5.54077400
_cell_length_b   10.15839100
_cell_length_c   10.44084300
_cell_angle_alpha   90.00000000
_cell_angle_beta   90.00000000
_cell_angle_gamma   90.00000000
_symmetry_Int_Tables_number   1
_chemical_formula_structural   Ti3ZnO7
_chemical_formula_sum   'Ti12 Zn4 O28'
_cell_volume   587.66648934
_cell_formula_units_Z   4
loop_
 _symmetry_equiv_pos_site_id
 _symmetry_equiv_pos_as_xyz
  1  'x, y, z'
loop_
 _atom_site_type_symbol
 _atom_site_label
 _atom_site_symmetry_multiplicity
 _atom_site_fract_x
 _atom_site_fract_y
 _atom_site_fract_z
 _atom_site_occupancy
  Ti  Ti0  1  0.73636800  0.69381800  0.96597400  1
  Ti  Ti1  1  0.23636800  0.80618200  0.03402600  1
  Ti  Ti2  1  0.26363200  0.30618200  0.46597400  1
  Ti  Ti3  1  0.76363200  0.19381800  0.53402600  1
  Ti  Ti4  1  0.72712700  0.77455800  0.25000000  1
  Ti  Ti5  1  0.22712700  0.72544200  0.75000000  1
  Ti  Ti6  1  0.27287300  0.22544200  0.75000000  1
  Ti  Ti7  1  0.77287300  0.27455800  0.25000000  1
  Ti  Ti8  1  0.23636800  0.80618200  0.46597400  1
  Ti  Ti9  1  0.73636800  0.69381800  0.53402600  1
  Ti  Ti10  1  0.76363200  0.19381800  0.96597400  1
  Ti  Ti11  1  0.26363200  0.30618200  0.03402600  1
  Zn  Zn0  1  0.39833600  0.04194300  0.25000000  1
  Zn  Zn1  1  0.89833600  0.45805700  0.75000000  1
  Zn  Zn2  1  0.60166400  0.95805700  0.75000000  1
  Zn  Zn3  1  0.10166400  0.54194300  0.25000000  1
  O  O0  1  0.02747400  0.28879600  0.87843800  1
  O  O1  1  0.52747400  0.21120400  0.12156200  1
  O  O2  1  0.97252600  0.71120400  0.37843800  1
  O  O3  1  0.47252600  0.78879600  0.62156200  1
  O  O4  1  0.97252600  0.71120400  0.12156200  1
  O  O5  1  0.47252600  0.78879600  0.87843800  1
  O  O6  1  0.02747400  0.28879600  0.62156200  1
  O  O7  1  0.52747400  0.21120400  0.37843800  1
  O  O8  1  0.49277500  0.27824400  0.88599300  1
  O  O9  1  0.99277500  0.22175600  0.11400700  1
  O  O10  1  0.50722500  0.72175600  0.38599300  1
  O  O11  1  0.00722500  0.77824400  0.61400700  1
  O  O12  1  0.50722500  0.72175600  0.11400700  1
  O  O13  1  0.00722500  0.77824400  0.88599300  1
  O  O14  1  0.49277500  0.27824400  0.61400700  1
  O  O15  1  0.99277500  0.22175600  0.38599300  1
  O  O16  1  0.79192600  0.44234100  0.25000000  1
  O  O17  1  0.29192600  0.05765900  0.75000000  1
  O  O18  1  0.20807400  0.55765900  0.75000000  1
  O  O19  1  0.70807400  0.94234100  0.25000000  1
  O  O20  1  0.75907300  0.04005800  0.59880600  1
  O  O21  1  0.25907300  0.45994200  0.40119400  1
  O  O22  1  0.24092700  0.95994200  0.09880600  1
  O  O23  1  0.74092700  0.54005800  0.90119400  1
  O  O24  1  0.24092700  0.95994200  0.40119400  1
  O  O25  1  0.74092700  0.54005800  0.59880600  1
  O  O26  1  0.75907300  0.04005800  0.90119400  1
  O  O27  1  0.25907300  0.45994200  0.09880600  1
loop_
_geom_bond_atom_site_label_1
_geom_bond_atom_site_label_2
_geom_bond_distance
_geom_bond_site_symmetry_2
O0 Ti10 1.975679 1_455
O0 Ti6 2.015256 1_555
O0 Ti11 2.093385 1_556
O0 Zn1 2.294921 1_455
O1 Ti11 1.975679 1_555
O1 Ti7 2.015256 1_555
O1 Ti10 2.093385 1_554
O1 Zn0 2.294921 1_555
O2 Ti8 1.975679 1_655
O2 Ti4 2.015256 1_555
O2 Ti9 2.093385 1_555
O2 Zn3 2.294921 1_655
O3 Ti9 1.975679 1_555
O3 Ti5 2.015256 1_555
O3 Ti8 2.093385 1_555
O3 Zn2 2.294921 1_555
O4 Ti1 1.975679 1_655
O4 Ti4 2.015256 1_555
O4 Ti0 2.093385 1_554
O4 Zn3 2.294921 1_655
O5 Ti0 1.975679 1_555
O5 Ti5 2.015256 1_555
O5 Ti1 2.093385 1_556
O5 Zn2 2.294921 1_555
O6 Ti3 1.975679 1_455
O6 Ti6 2.015256 1_555
O6 Ti2 2.093385 1_555
O6 Zn1 2.294921 1_455
O7 Ti2 1.975679 1_555
O7 Ti7 2.015256 1_555
O7 Ti3 2.093385 1_555
O7 Zn0 2.294921 1_555
O8 Ti10 1.919674 1_555
O8 Ti6 1.946365 1_555
O8 Ti11 2.020235 1_556
O9 Ti11 1.919674 1_655
O9 Ti7 1.946365 1_555
O9 Ti10 2.020235 1_554
O10 Ti8 1.919674 1_555
O10 Ti4 1.946365 1_555
O10 Ti9 2.020235 1_555
O11 Ti9 1.919674 1_455
O11 Ti5 1.946365 1_555
O11 Ti8 2.020235 1_555
O12 Ti1 1.919674 1_555
O12 Ti4 1.946365 1_555
O12 Ti0 2.020235 1_554
O13 Ti0 1.919674 1_455
O13 Ti5 1.946365 1_555
O13 Ti1 2.020235 1_556
O14 Ti3 1.919674 1_555
O14 Ti6 1.946365 1_555
O14 Ti2 2.020235 1_555
O15 Ti2 1.919674 1_655
O15 Ti7 1.946365 1_555
O15 Ti3 2.020235 1_555
O16 Ti7 1.707672 1_555
O16 Zn3 1.992243 1_655
O17 Ti6 1.707672 1_555
O17 Zn2 1.992243 1_545
O18 Ti5 1.707672 1_555
O18 Zn1 1.992243 1_455
O19 Ti4 1.707672 1_555
O19 Zn0 1.992243 1_565
O20 Ti3 1.702292 1_555
O20 Zn2 1.986584 1_545
O21 Ti2 1.702292 1_555
O21 Zn3 1.986584 1_555
O22 Ti1 1.702292 1_555
O22 Zn0 1.986584 1_565
O23 Ti0 1.702292 1_555
O23 Zn1 1.986584 1_555
O24 Ti8 1.702292 1_555
O24 Zn0 1.986584 1_565
O25 Ti9 1.702292 1_555
O25 Zn1 1.986584 1_555
O26 Ti10 1.702292 1_555
O26 Zn2 1.986584 1_545
O27 Ti11 1.702292 1_555
O27 Zn3 1.986584 1_555
