# generated using pymatgen
data_BaCu2GeS4
_symmetry_space_group_name_H-M   'P 1'
_cell_length_a   6.27703272
_cell_length_b   6.27703272
_cell_length_c   15.55798300
_cell_angle_alpha   90.00000000
_cell_angle_beta   90.00000000
_cell_angle_gamma   120.00000755
_symmetry_Int_Tables_number   1
_chemical_formula_structural   BaCu2GeS4
_chemical_formula_sum   'Ba3 Cu6 Ge3 S12'
_cell_volume   530.87549111
_cell_formula_units_Z   3
loop_
 _symmetry_equiv_pos_site_id
 _symmetry_equiv_pos_as_xyz
  1  'x, y, z'
loop_
 _atom_site_type_symbol
 _atom_site_label
 _atom_site_symmetry_multiplicity
 _atom_site_fract_x
 _atom_site_fract_y
 _atom_site_fract_z
 _atom_site_occupancy
  Ba  Ba0  1  0.43187500  0.43187500  0.50000000  1
  Ba  Ba1  1  0.00000000  0.56812500  0.16666700  1
  Ba  Ba2  1  0.56812500  0.00000000  0.83333300  1
  Cu  Cu0  1  0.35431500  0.42340400  0.74429700  1
  Cu  Cu1  1  0.93091100  0.57659600  0.92237000  1
  Cu  Cu2  1  0.42340400  0.35431500  0.25570300  1
  Cu  Cu3  1  0.06908900  0.64568500  0.41096300  1
  Cu  Cu4  1  0.57659600  0.93091100  0.07763000  1
  Cu  Cu5  1  0.64568500  0.06908900  0.58903700  1
  Ge  Ge0  1  0.71083400  0.00000000  0.33333300  1
  Ge  Ge1  1  0.00000000  0.71083400  0.66666700  1
  Ge  Ge2  1  0.28916600  0.28916600  0.00000000  1
  S  S0  1  0.76295300  0.66769600  0.33165000  1
  S  S1  1  0.90474300  0.23704700  0.99831700  1
  S  S2  1  0.33230400  0.09525700  0.66498400  1
  S  S3  1  0.09525700  0.33230400  0.33501600  1
  S  S4  1  0.23704700  0.90474300  0.00168300  1
  S  S5  1  0.66769600  0.76295300  0.66835000  1
  S  S6  1  0.95301800  0.46788500  0.55233500  1
  S  S7  1  0.51486700  0.04698200  0.21900100  1
  S  S8  1  0.04698200  0.51486700  0.78099900  1
  S  S9  1  0.46788500  0.95301800  0.44766500  1
  S  S10  1  0.48513300  0.53211500  0.11433200  1
  S  S11  1  0.53211500  0.48513300  0.88566800  1
loop_
_geom_bond_atom_site_label_1
_geom_bond_atom_site_label_2
_geom_bond_distance
_geom_bond_site_symmetry_2
Ba0 S2 3.181694 1_555
Ba0 S3 3.181694 1_555
Ba0 S5 3.208412 1_555
Ba0 S0 3.208412 1_555
Ba0 S9 3.229291 1_545
Ba0 S6 3.229291 1_455
Ba0 S9 3.267353 1_555
Ba0 S6 3.267353 1_555
Ba1 S0 3.181682 1_455
Ba1 S4 3.181694 1_555
Ba1 S3 3.208400 1_555
Ba1 S1 3.208412 1_454
Ba1 S7 3.229286 1_565
Ba1 S10 3.229290 1_455
Ba1 S7 3.267349 1_455
Ba1 S10 3.267353 1_555
Ba2 S5 3.181682 1_545
Ba2 S1 3.181694 1_555
Ba2 S2 3.208400 1_555
Ba2 S4 3.208412 1_546
Ba2 S8 3.229286 1_655
Ba2 S11 3.229290 1_545
Ba2 S8 3.267349 1_545
Ba2 S11 3.267353 1_555
Cu0 S8 2.341963 1_555
Cu0 S2 2.345179 1_555
Cu0 S5 2.369751 1_555
Cu0 S11 2.408494 1_555
Cu1 S11 2.341963 1_555
Cu1 S4 2.345179 1_656
Cu1 S1 2.369751 1_555
Cu1 S8 2.408494 1_655
Cu2 S7 2.341963 1_555
Cu2 S3 2.345179 1_555
Cu2 S0 2.369751 1_555
Cu2 S10 2.408494 1_555
Cu3 S9 2.341963 1_555
Cu3 S0 2.345180 1_455
Cu3 S3 2.369751 1_555
Cu3 S6 2.408508 1_455
Cu4 S10 2.341963 1_555
Cu4 S1 2.345179 1_564
Cu4 S4 2.369751 1_555
Cu4 S7 2.408494 1_565
Cu5 S6 2.341963 1_555
Cu5 S5 2.345180 1_545
Cu5 S2 2.369751 1_555
Cu5 S9 2.408508 1_545
Ge0 S9 2.264266 1_545
Ge0 S7 2.264266 1_555
Ge0 S3 2.267383 1_655
Ge0 S0 2.267383 1_545
Ge1 S6 2.264266 1_455
Ge1 S8 2.264266 1_555
Ge1 S2 2.267383 1_565
Ge1 S5 2.267383 1_455
Ge2 S11 2.264266 1_554
Ge2 S10 2.264266 1_555
Ge2 S4 2.267383 1_545
Ge2 S1 2.267383 1_454
