# generated using pymatgen
data_Rb3Ti4Tl(PO5)4
_symmetry_space_group_name_H-M   'P 1'
_cell_length_a   10.68921600
_cell_length_b   6.57320500
_cell_length_c   13.13227203
_cell_angle_alpha   89.96107353
_cell_angle_beta   90.00000000
_cell_angle_gamma   90.00000000
_symmetry_Int_Tables_number   1
_chemical_formula_structural   Rb3Ti4Tl(PO5)4
_chemical_formula_sum   'Rb6 Ti8 Tl2 P8 O40'
_cell_volume   922.70484320
_cell_formula_units_Z   2
loop_
 _symmetry_equiv_pos_site_id
 _symmetry_equiv_pos_as_xyz
  1  'x, y, z'
loop_
 _atom_site_type_symbol
 _atom_site_label
 _atom_site_symmetry_multiplicity
 _atom_site_fract_x
 _atom_site_fract_y
 _atom_site_fract_z
 _atom_site_occupancy
  Rb  Rb0  1  0.17411600  0.78299600  0.61669300  1
  Rb  Rb1  1  0.67411600  0.21700400  0.38330700  1
  Rb  Rb2  1  0.92476600  0.19535900  0.60565400  1
  Rb  Rb3  1  0.42476600  0.80464100  0.39434600  1
  Rb  Rb4  1  0.42466200  0.69415700  0.89479200  1
  Rb  Rb5  1  0.92466200  0.30584300  0.10520800  1
  Ti  Ti0  1  0.99790100  0.99772900  0.87131900  1
  Ti  Ti1  1  0.49790100  0.00227100  0.12868100  1
  Ti  Ti2  1  0.49773600  0.49816200  0.62877600  1
  Ti  Ti3  1  0.99773600  0.50183800  0.37122400  1
  Ti  Ti4  1  0.74651300  0.76465400  0.74721900  1
  Ti  Ti5  1  0.24651300  0.23534600  0.25278100  1
  Ti  Ti6  1  0.24631400  0.26494400  0.75297300  1
  Ti  Ti7  1  0.74631400  0.73505600  0.24702700  1
  Tl  Tl0  1  0.67432000  0.28229000  0.88229600  1
  Tl  Tl1  1  0.17432000  0.71771000  0.11770400  1
  P  P0  1  0.48783200  0.00248600  0.68045200  1
  P  P1  1  0.98783200  0.99751400  0.31954800  1
  P  P2  1  0.98788700  0.50217900  0.81957100  1
  P  P3  1  0.48788700  0.49782100  0.18042900  1
  P  P4  1  0.74097900  0.83416600  0.99958200  1
  P  P5  1  0.24097900  0.16583400  0.00041800  1
  P  P6  1  0.24086200  0.33409800  0.50029100  1
  P  P7  1  0.74086200  0.66590200  0.49970900  1
  O  O0  1  0.85244700  0.98013200  0.98597900  1
  O  O1  1  0.35244700  0.01986800  0.01402100  1
  O  O2  1  0.35236100  0.48010800  0.51387800  1
  O  O3  1  0.85236100  0.51989200  0.48612200  1
  O  O4  1  0.76174000  0.69664200  0.09512500  1
  O  O5  1  0.26174000  0.30335800  0.90487500  1
  O  O6  1  0.26197600  0.19621200  0.40499000  1
  O  O7  1  0.76197600  0.80378800  0.59501000  1
  O  O8  1  0.51665000  0.19166400  0.61379400  1
  O  O9  1  0.01665000  0.80833600  0.38620600  1
  O  O10  1  0.01639800  0.69186300  0.88563000  1
  O  O11  1  0.51639800  0.30813700  0.11437000  1
  O  O12  1  0.37286000  0.04456700  0.75090900  1
  O  O13  1  0.87286000  0.95543300  0.24909100  1
  O  O14  1  0.87324900  0.54479200  0.74875300  1
  O  O15  1  0.37324900  0.45520800  0.25124700  1
  O  O16  1  0.61210400  0.54691000  0.72326200  1
  O  O17  1  0.11210400  0.45309000  0.27673800  1
  O  O18  1  0.11180000  0.04812900  0.77719200  1
  O  O19  1  0.61180000  0.95187100  0.22280800  1
  O  O20  1  0.35845300  0.46005800  0.72045900  1
  O  O21  1  0.85845300  0.53994200  0.27954100  1
  O  O22  1  0.85831500  0.96054100  0.77923300  1
  O  O23  1  0.35831500  0.03945900  0.22076700  1
  O  O24  1  0.60126200  0.95862600  0.75150800  1
  O  O25  1  0.10126200  0.04137400  0.24849200  1
  O  O26  1  0.10117400  0.45795200  0.74869900  1
  O  O27  1  0.60117400  0.54204800  0.25130100  1
  O  O28  1  0.61814600  0.96094600  0.01412700  1
  O  O29  1  0.11814600  0.03905400  0.98587300  1
  O  O30  1  0.11831200  0.46113200  0.48560200  1
  O  O31  1  0.61831200  0.53886800  0.51439800  1
  O  O32  1  0.45777400  0.81283800  0.61503400  1
  O  O33  1  0.95777400  0.18716200  0.38496600  1
  O  O34  1  0.95726100  0.31252900  0.88512500  1
  O  O35  1  0.45726100  0.68747100  0.11487500  1
  O  O36  1  0.71964400  0.70351300  0.90229700  1
  O  O37  1  0.21964400  0.29648700  0.09770300  1
  O  O38  1  0.21926400  0.20305800  0.59750300  1
  O  O39  1  0.71926400  0.79694200  0.40249700  1
loop_
_geom_bond_atom_site_label_1
_geom_bond_atom_site_label_2
_geom_bond_distance
_geom_bond_site_symmetry_2
O0 P4 1.540109 1_555
O0 Ti0 2.167437 1_555
O0 Rb5 2.763280 1_566
O1 P5 1.540109 1_555
O1 Ti1 2.167437 1_555
O1 Rb4 2.763280 1_544
O2 P6 1.540672 1_555
O2 Ti2 2.169278 1_555
O2 Rb3 2.758465 1_555
O2 Rb0 3.069317 1_555
O3 P7 1.540672 1_555
O3 Ti3 2.169278 1_555
O3 Rb2 2.758465 1_555
O3 Rb1 3.069317 1_555
O4 P4 1.561774 1_554
O4 Ti7 2.017655 1_555
O4 Rb5 3.106230 1_555
O5 P5 1.561774 1_556
O5 Ti6 2.017655 1_555
O5 Rb4 3.106230 1_555
O6 P6 1.562131 1_555
O6 Ti5 2.021928 1_555
O6 Rb3 3.110114 1_545
O7 P7 1.562131 1_555
O7 Ti4 2.021928 1_555
O7 Rb2 3.110114 1_565
O8 P0 1.551126 1_555
O8 Ti2 2.034462 1_555
O8 Rb1 3.467248 1_555
O9 P1 1.551126 1_455
O9 Ti3 2.034462 1_455
O9 Rb0 3.467248 1_555
O10 P2 1.549678 1_455
O10 Ti0 2.028815 1_455
O11 P3 1.549678 1_555
O11 Ti1 2.028815 1_555
O12 P0 1.563109 1_555
O12 Ti6 1.982150 1_555
O12 Rb4 3.029227 1_545
O12 Rb0 3.252705 1_545
O13 P1 1.563109 1_555
O13 Ti7 1.982150 1_555
O13 Rb5 3.029227 1_565
O13 Rb1 3.252705 1_565
O14 P2 1.563518 1_555
O14 Ti4 1.980959 1_555
O14 Rb2 3.019318 1_555
O15 P3 1.563518 1_555
O15 Ti5 1.980959 1_555
O15 Rb3 3.019318 1_555
O16 Ti2 1.771258 1_555
O16 Ti4 2.052395 1_555
O16 Tl0 2.797249 1_555
O16 Rb4 3.166752 1_555
O17 Ti3 1.771258 1_455
O17 Ti5 2.052395 1_555
O17 Tl1 2.797249 1_555
O17 Rb5 3.166752 1_455
O18 Ti0 1.766190 1_445
O18 Ti6 2.049160 1_555
O18 Rb0 2.815745 1_545
O18 Rb2 3.163099 1_455
O19 Ti1 1.766190 1_565
O19 Ti7 2.049160 1_555
O19 Rb1 2.815745 1_565
O19 Rb3 3.163099 1_555
O20 Ti6 1.806452 1_555
O20 Ti2 1.930947 1_555
O20 Rb4 2.848649 1_555
O20 Rb0 3.200240 1_555
O21 Ti7 1.806452 1_555
O21 Ti3 1.930947 1_555
O21 Rb5 2.848649 1_555
O21 Rb1 3.200240 1_555
O22 Ti4 1.806549 1_555
O22 Ti0 1.936186 1_555
O22 Rb2 2.842223 1_565
O23 Ti5 1.806549 1_555
O23 Ti1 1.936186 1_555
O23 Rb3 2.842223 1_545
O24 P0 1.556785 1_565
O24 Ti4 2.009867 1_555
O24 Tl0 2.844482 1_565
O24 Rb4 3.181458 1_555
O25 P1 1.556785 1_445
O25 Ti5 2.009867 1_555
O25 Tl1 2.844482 1_545
O25 Rb5 3.181458 1_455
O26 P2 1.554832 1_455
O26 Ti6 2.004881 1_555
O26 Rb0 2.858850 1_555
O26 Rb2 3.173052 1_455
O27 P3 1.554832 1_555
O27 Ti7 2.004881 1_555
O27 Rb1 2.858850 1_555
O27 Rb3 3.173052 1_555
O28 P4 1.566880 1_554
O28 Ti1 1.997369 1_565
O28 Tl0 2.795427 1_564
O28 Rb4 3.132475 1_554
O29 P5 1.566880 1_556
O29 Ti0 1.997369 1_445
O29 Tl1 2.795427 1_546
O29 Rb5 3.132475 1_456
O30 P6 1.565329 1_555
O30 Ti3 1.997085 1_455
O30 Rb0 2.792937 1_555
O30 Rb2 3.132712 1_455
O31 P7 1.565329 1_555
O31 Ti2 1.997085 1_555
O31 Rb1 2.792937 1_555
O31 Rb3 3.132712 1_555
O32 P0 1.548133 1_565
O32 Ti2 2.119653 1_555
O32 Rb3 2.920067 1_555
O32 Rb0 3.038497 1_555
O33 P1 1.548133 1_545
O33 Ti3 2.119653 1_555
O33 Rb2 2.920067 1_555
O33 Rb1 3.038497 1_555
O34 P2 1.549466 1_555
O34 Ti0 2.122232 1_545
O34 Rb5 2.911422 1_556
O35 P3 1.549466 1_555
O35 Ti1 2.122232 1_565
O35 Rb4 2.911422 1_554
O36 P4 1.556678 1_555
O36 Ti4 2.095312 1_555
O36 Tl0 2.823273 1_555
O36 Rb4 3.155267 1_555
O37 P5 1.556678 1_555
O37 Ti5 2.095312 1_555
O37 Tl1 2.823273 1_555
O37 Rb5 3.155267 1_455
O38 P6 1.556752 1_555
O38 Ti6 2.102057 1_555
O38 Rb0 2.814148 1_545
O38 Rb2 3.150177 1_455
O39 P7 1.556752 1_555
O39 Ti7 2.102057 1_555
O39 Rb1 2.814148 1_565
O39 Rb3 3.150177 1_555
