# generated using pymatgen
data_SrLiU2O6
_symmetry_space_group_name_H-M   'P 1'
_cell_length_a   3.90969981
_cell_length_b   11.82363004
_cell_length_c   6.88420788
_cell_angle_alpha   29.14824631
_cell_angle_beta   55.38461577
_cell_angle_gamma   60.25594499
_symmetry_Int_Tables_number   1
_chemical_formula_structural   SrLiU2O6
_chemical_formula_sum   'Sr1 Li1 U2 O6'
_cell_volume   127.56507639
_cell_formula_units_Z   1
loop_
 _symmetry_equiv_pos_site_id
 _symmetry_equiv_pos_as_xyz
  1  'x, y, z'
loop_
 _atom_site_type_symbol
 _atom_site_label
 _atom_site_symmetry_multiplicity
 _atom_site_fract_x
 _atom_site_fract_y
 _atom_site_fract_z
 _atom_site_occupancy
  Sr  Sr0  1  0.00000000  0.66666700  0.00000000  1
  Li  Li0  1  0.50000000  0.66666700  0.50000000  1
  U  U0  1  0.00000000  0.01785300  0.97322200  1
  U  U1  1  0.00000000  0.31548000  0.02677800  1
  O  O0  1  0.27022900  0.31792400  0.25278200  1
  O  O1  1  0.21214100  0.66666700  0.28801300  1
  O  O2  1  0.72977100  0.01540900  0.74721800  1
  O  O3  1  0.27022900  0.01540900  0.20655700  1
  O  O4  1  0.72977100  0.31792400  0.79344300  1
  O  O5  1  0.78785900  0.66666700  0.71198700  1
loop_
_geom_bond_atom_site_label_1
_geom_bond_atom_site_label_2
_geom_bond_distance
_geom_bond_site_symmetry_2
Li0 O5 2.293986 1_555
Li0 O1 2.293986 1_555
Li0 O1 2.294659 1_655
Li0 O5 2.294659 1_455
Li0 O2 2.393066 1_564
Li0 O0 2.393066 1_556
Li0 O3 2.393070 1_565
Li0 O4 2.393079 1_555
O0 U0 2.309134 1_555
O0 U1 2.348219 1_555
O0 U1 2.348503 1_655
O0 Sr0 2.525752 1_555
O1 U1 2.352194 1_556
O1 U0 2.352200 1_564
O1 Sr0 2.545710 1_655
O1 Sr0 2.547066 1_555
O2 U1 2.309134 1_655
O2 U0 2.348219 1_655
O2 U0 2.348503 1_555
O2 Sr0 2.525742 1_646
O3 U1 2.309112 1_555
O3 U0 2.348213 1_554
O3 U0 2.348504 1_654
O3 Sr0 2.525738 1_546
O4 U0 2.309112 1_655
O4 U1 2.348213 1_656
O4 U1 2.348504 1_556
O4 Sr0 2.525737 1_655
O5 U0 2.352193 1_664
O5 U1 2.352209 1_656
O5 Sr0 2.545710 1_556
O5 Sr0 2.547066 1_656
