# generated using pymatgen
data_Ho3TaO7
_symmetry_space_group_name_H-M   'P 1'
_cell_length_a   8.10578643
_cell_length_b   8.10578643
_cell_length_c   5.35719000
_cell_angle_alpha   90.00000000
_cell_angle_beta   90.00000000
_cell_angle_gamma   125.43574997
_symmetry_Int_Tables_number   1
_chemical_formula_structural   Ho3TaO7
_chemical_formula_sum   'Ho6 Ta2 O14'
_cell_volume   286.78759586
_cell_formula_units_Z   2
loop_
 _symmetry_equiv_pos_site_id
 _symmetry_equiv_pos_as_xyz
  1  'x, y, z'
loop_
 _atom_site_type_symbol
 _atom_site_label
 _atom_site_symmetry_multiplicity
 _atom_site_fract_x
 _atom_site_fract_y
 _atom_site_fract_z
 _atom_site_occupancy
  Ho  Ho0  1  0.00000000  0.50000000  0.00000000  1
  Ho  Ho1  1  0.50000000  0.00000000  0.00000000  1
  Ho  Ho2  1  0.62020900  0.37979100  0.47137600  1
  Ho  Ho3  1  0.12020900  0.87979100  0.52862400  1
  Ho  Ho4  1  0.87979100  0.12020900  0.47137600  1
  Ho  Ho5  1  0.37979100  0.62020900  0.52862400  1
  Ta  Ta0  1  0.75000000  0.75000000  0.00000000  1
  Ta  Ta1  1  0.25000000  0.25000000  0.00000000  1
  O  O0  1  0.75000000  0.25000000  0.24144100  1
  O  O1  1  0.83769900  0.59768800  0.76372700  1
  O  O2  1  0.25000000  0.75000000  0.75855900  1
  O  O3  1  0.98686500  0.01313500  0.21146600  1
  O  O4  1  0.40231200  0.16230100  0.76372700  1
  O  O5  1  0.09768800  0.33769900  0.76372700  1
  O  O6  1  0.33769900  0.09768800  0.23627300  1
  O  O7  1  0.51313500  0.48686500  0.21146600  1
  O  O8  1  0.48686500  0.51313500  0.78853400  1
  O  O9  1  0.66230100  0.90231200  0.76372700  1
  O  O10  1  0.90231200  0.66230100  0.23627300  1
  O  O11  1  0.59768800  0.83769900  0.23627300  1
  O  O12  1  0.01313500  0.98686500  0.78853400  1
  O  O13  1  0.16230100  0.40231200  0.23627300  1
loop_
_geom_bond_atom_site_label_1
_geom_bond_atom_site_label_2
_geom_bond_distance
_geom_bond_site_symmetry_2
Ho0 O0 2.263664 1_455
Ho0 O2 2.263664 1_554
Ho0 O10 2.273293 1_455
Ho0 O13 2.273293 1_555
Ho0 O1 2.273293 1_454
Ho0 O5 2.273293 1_554
Ho1 O0 2.263664 1_555
Ho1 O2 2.263664 1_544
Ho1 O9 2.273293 1_544
Ho1 O11 2.273293 1_545
Ho1 O4 2.273293 1_554
Ho1 O6 2.273293 1_555
Ho2 O7 2.078172 1_555
Ho2 O0 2.239297 1_555
Ho2 O4 2.251616 1_555
Ho2 O1 2.251616 1_555
Ho2 O10 2.446855 1_555
Ho2 O6 2.446855 1_555
Ho2 O8 2.564771 1_555
Ho3 O12 2.078172 1_555
Ho3 O2 2.239297 1_555
Ho3 O6 2.251616 1_565
Ho3 O10 2.251616 1_455
Ho3 O4 2.446855 1_565
Ho3 O1 2.446855 1_455
Ho3 O3 2.564771 1_465
Ho4 O3 2.078172 1_555
Ho4 O0 2.239297 1_555
Ho4 O5 2.251616 1_655
Ho4 O9 2.251616 1_545
Ho4 O13 2.446855 1_655
Ho4 O11 2.446855 1_545
Ho4 O12 2.564771 1_645
Ho5 O8 2.078172 1_555
Ho5 O2 2.239297 1_555
Ho5 O13 2.251616 1_555
Ho5 O11 2.251616 1_555
Ho5 O9 2.446855 1_555
Ho5 O5 2.446855 1_555
Ho5 O7 2.564771 1_555
O1 Ta0 2.156256 1_556
O3 Ta0 2.184118 1_545
O3 Ta1 2.184118 1_655
O4 Ta1 2.156256 1_556
O5 Ta1 2.156256 1_556
O6 Ta1 2.156256 1_555
O7 Ta0 2.184118 1_555
O7 Ta1 2.184118 1_555
O8 Ta1 2.184118 1_556
O8 Ta0 2.184118 1_556
O9 Ta0 2.156256 1_556
O10 Ta0 2.156256 1_555
O11 Ta0 2.156256 1_555
O12 Ta0 2.184118 1_456
O12 Ta1 2.184118 1_566
O13 Ta1 2.156256 1_555
