# generated using pymatgen
data_Na2O
_symmetry_space_group_name_H-M   'P 1'
_cell_length_a   12.56994112
_cell_length_b   11.86770867
_cell_length_c   12.44660761
_cell_angle_alpha   85.30852657
_cell_angle_beta   91.82129866
_cell_angle_gamma   85.40233701
_symmetry_Int_Tables_number   1
_chemical_formula_structural   Na2O
_chemical_formula_sum   'Na68 O34'
_cell_volume   1843.19045857
_cell_formula_units_Z   34
loop_
 _symmetry_equiv_pos_site_id
 _symmetry_equiv_pos_as_xyz
  1  'x, y, z'
loop_
 _atom_site_type_symbol
 _atom_site_label
 _atom_site_symmetry_multiplicity
 _atom_site_fract_x
 _atom_site_fract_y
 _atom_site_fract_z
 _atom_site_occupancy
  Na  Na0  1  0.04974340  0.83754806  0.34519373  1
  Na  Na1  1  0.10736549  0.17121017  0.67189691  1
  Na  Na2  1  0.01140290  0.57496532  0.87499897  1
  Na  Na3  1  0.07011234  0.11198833  0.38062290  1
  Na  Na4  1  0.82341378  0.17629809  0.87924011  1
  Na  Na5  1  0.58911192  0.24022609  0.83697533  1
  Na  Na6  1  0.53088861  0.61572219  0.20802717  1
  Na  Na7  1  0.91516325  0.31632625  0.27855216  1
  Na  Na8  1  0.90270672  0.41848255  0.70553390  1
  Na  Na9  1  0.94468308  0.36997536  0.97651563  1
  Na  Na10  1  0.62970761  0.02595921  0.60833992  1
  Na  Na11  1  0.41037896  0.80512436  0.84604806  1
  Na  Na12  1  0.87910256  0.13327126  0.14155376  1
  Na  Na13  1  0.93918813  0.88583712  0.14125174  1
  Na  Na14  1  0.28426125  0.20824374  0.44829671  1
  Na  Na15  1  0.33423929  0.64769353  0.05438655  1
  Na  Na16  1  0.35043626  0.22171000  0.93982626  1
  Na  Na17  1  0.62608175  0.77891177  0.68617221  1
  Na  Na18  1  0.51084708  0.97740633  0.02355839  1
  Na  Na19  1  0.10891263  0.95617090  0.59608760  1
  Na  Na20  1  0.43381563  0.16022385  0.14430424  1
  Na  Na21  1  0.20869996  0.64628722  0.74916396  1
  Na  Na22  1  0.85966959  0.00904621  0.69988321  1
  Na  Na23  1  0.80947615  0.80131440  0.54863107  1
  Na  Na24  1  0.64235356  0.91401520  0.34806933  1
  Na  Na25  1  0.10328920  0.29963125  0.11271569  1
  Na  Na26  1  0.97542825  0.81123260  0.70610769  1
  Na  Na27  1  0.13850636  0.17833936  0.91631467  1
  Na  Na28  1  0.71220966  0.43759691  0.24662081  1
  Na  Na29  1  0.09497575  0.04614094  0.12748643  1
  Na  Na30  1  0.36925580  0.90850480  0.57290311  1
  Na  Na31  1  0.25795131  0.40061643  0.25775776  1
  Na  Na32  1  0.04613565  0.68676070  0.06372890  1
  Na  Na33  1  0.97590666  0.01114680  0.92990710  1
  Na  Na34  1  0.16336681  0.89161928  0.86223054  1
  Na  Na35  1  0.00542530  0.55346469  0.23874075  1
  Na  Na36  1  0.46633005  0.40464421  0.37788626  1
  Na  Na37  1  0.24984565  0.64128546  0.30892585  1
  Na  Na38  1  0.82314694  0.23334027  0.58012318  1
  Na  Na39  1  0.35820648  0.07168416  0.71084838  1
  Na  Na40  1  0.51825515  0.10683598  0.35535059  1
  Na  Na41  1  0.95080380  0.55551113  0.48210321  1
  Na  Na42  1  0.86873075  0.99523430  0.40490494  1
  Na  Na43  1  0.78756724  0.57521250  0.05265154  1
  Na  Na44  1  0.11198339  0.41538140  0.68088880  1
  Na  Na45  1  0.81428058  0.82764887  0.93631605  1
  Na  Na46  1  0.09255102  0.69317971  0.53727619  1
  Na  Na47  1  0.25820912  0.15526737  0.24247149  1
  Na  Na48  1  0.58668299  0.66436452  0.45185792  1
  Na  Na49  1  0.28021376  0.91974168  0.07529894  1
  Na  Na50  1  0.47266437  0.84267068  0.21790258  1
  Na  Na51  1  0.58773518  0.27076985  0.60951167  1
  Na  Na52  1  0.82178812  0.64740051  0.73155851  1
  Na  Na53  1  0.35217899  0.35398152  0.70533317  1
  Na  Na54  1  0.69404468  0.84873010  0.14264138  1
  Na  Na55  1  0.69438405  0.22411069  0.36487160  1
  Na  Na56  1  0.43786629  0.57753959  0.71460228  1
  Na  Na57  1  0.65785173  0.97700729  0.81119752  1
  Na  Na58  1  0.64360771  0.47493947  0.64675934  1
  Na  Na59  1  0.75607118  0.49019247  0.46246031  1
  Na  Na60  1  0.49525021  0.45083266  0.91253192  1
  Na  Na61  1  0.22635575  0.45391071  0.92415608  1
  Na  Na62  1  0.67541774  0.34461662  0.04759693  1
  Na  Na63  1  0.07143664  0.38742022  0.42644335  1
  Na  Na64  1  0.79636781  0.66853457  0.27070968  1
  Na  Na65  1  0.47411470  0.39295027  0.14603147  1
  Na  Na66  1  0.65872031  0.11980106  0.11716103  1
  Na  Na67  1  0.55997400  0.68053535  0.98938990  1
  O  O0  1  0.25943473  0.11801483  0.06784047  1
  O  O1  1  0.97896933  0.85823281  0.51763834  1
  O  O2  1  0.51418478  0.39582799  0.73221995  1
  O  O3  1  0.98322098  0.18484677  0.00017205  1
  O  O4  1  0.63198146  0.37401828  0.46330115  1
  O  O5  1  0.98058142  0.01109663  0.26590292  1
  O  O6  1  0.22342115  0.29694166  0.80246826  1
  O  O7  1  0.49586789  0.92722142  0.71506222  1
  O  O8  1  0.12141536  0.27368600  0.29814384  1
  O  O9  1  0.07568988  0.48890414  0.03190594  1
  O  O10  1  0.69029242  0.96830169  0.98985739  1
  O  O11  1  0.54465923  0.00730960  0.20526172  1
  O  O12  1  0.78956082  0.83751436  0.74591056  1
  O  O13  1  0.13917330  0.82018422  0.14275536  1
  O  O14  1  0.62640616  0.73976375  0.29171608  1
  O  O15  1  0.69652630  0.04543384  0.44959163  1
  O  O16  1  0.43186434  0.81137748  0.03411048  1
  O  O17  1  0.10107887  0.59641439  0.38911443  1
  O  O18  1  0.24486071  0.06843006  0.56605277  1
  O  O19  1  0.37539239  0.53673209  0.22745544  1
  O  O20  1  0.34816719  0.60173528  0.86867109  1
  O  O21  1  0.03234643  0.60117309  0.69977142  1
  O  O22  1  0.61762116  0.51913339  0.08121779  1
  O  O23  1  0.03817692  0.99253297  0.76166025  1
  O  O24  1  0.51588343  0.26277294  0.00509648  1
  O  O25  1  0.98534282  0.32449315  0.58280675  1
  O  O26  1  0.75835918  0.26040120  0.19876403  1
  O  O27  1  0.79913478  0.01644127  0.00618837  1
  O  O28  1  0.09803039  0.87429748  0.03047522  1
  O  O29  1  0.86160513  0.72805694  0.10457342  1
  O  O30  1  0.71742669  0.15111948  0.72269835  1
  O  O31  1  0.86665466  0.49278941  0.32815426  1
  O  O32  1  0.71741557  0.63352721  0.58329038  1
  O  O33  1  0.39443312  0.25172972  0.30650392  1
loop_
_geom_bond_atom_site_label_1
_geom_bond_atom_site_label_2
_geom_bond_distance
_geom_bond_site_symmetry_2
Na0 O5 2.301678 1_465
Na0 O1 2.372987 1_455
Na0 O13 2.807617 1_555
Na0 O17 2.886211 1_555
Na1 O25 2.450711 1_455
Na1 O18 2.506000 1_555
Na1 O23 2.543809 1_545
Na1 O6 2.755133 1_555
Na2 O21 2.204861 1_555
Na2 O9 2.225149 1_556
Na3 O8 2.251766 1_555
Na3 O5 2.265514 1_455
Na4 O30 2.377932 1_555
Na4 O27 2.412885 1_556
Na4 O3 2.485257 1_556
Na5 O2 2.290501 1_555
Na5 O24 2.339259 1_556
Na5 O30 2.421013 1_555
Na6 O19 2.245960 1_555
Na6 O14 2.268990 1_555
Na6 O22 2.280071 1_555
Na7 O31 2.273629 1_555
Na7 O26 2.346223 1_555
Na7 O8 2.601211 1_655
Na8 O25 2.202354 1_555
Na8 O21 2.812430 1_655
Na9 O3 2.205195 1_556
Na9 O9 2.374613 1_656
Na10 O15 2.173674 1_555
Na10 O30 2.440643 1_555
Na10 O7 2.484222 1_545
Na11 O16 2.355621 1_556
Na11 O7 2.426295 1_555
Na11 O20 2.592775 1_555
Na12 O26 2.228050 1_555
Na12 O3 2.298424 1_555
Na12 O5 2.309931 1_555
Na12 O27 2.503877 1_555
Na13 O29 2.251656 1_555
Na13 O5 2.310324 1_565
Na13 O28 2.463418 1_655
Na13 O13 2.570457 1_655
Na13 O27 2.697383 1_565
Na14 O18 2.219616 1_555
Na14 O33 2.328038 1_555
Na14 O8 2.747824 1_555
Na15 O16 2.380070 1_555
Na15 O20 2.426508 1_554
Na15 O19 2.449057 1_555
Na16 O24 2.311342 1_556
Na16 O0 2.320006 1_556
Na16 O6 2.370092 1_555
Na17 O12 2.340050 1_555
Na17 O7 2.363340 1_555
Na17 O32 2.464152 1_555
Na18 O16 2.272640 1_555
Na18 O10 2.303023 1_554
Na18 O11 2.348562 1_565
Na19 O18 2.271340 1_565
Na19 O1 2.315364 1_455
Na19 O23 2.328992 1_555
Na20 O11 2.261069 1_555
Na20 O24 2.348912 1_555
Na20 O33 2.415792 1_555
Na20 O0 2.466328 1_555
Na21 O20 2.263277 1_555
Na21 O21 2.395012 1_555
Na22 O12 2.319004 1_545
Na22 O23 2.336574 1_645
Na22 O30 2.397436 1_555
Na23 O1 2.320462 1_555
Na23 O32 2.398104 1_555
Na23 O12 2.543798 1_555
Na24 O15 2.220544 1_565
Na24 O14 2.259077 1_555
Na24 O11 2.283559 1_565
Na25 O8 2.304874 1_555
Na25 O9 2.379263 1_555
Na25 O3 2.569643 1_455
Na25 O0 2.897991 1_555
Na26 O1 2.369068 1_555
Na26 O12 2.404836 1_555
Na26 O23 2.492077 1_655
Na26 O21 2.546092 1_655
Na27 O3 2.241406 1_456
Na27 O6 2.266954 1_555
Na27 O0 2.408837 1_556
Na28 O26 2.268222 1_555
Na28 O31 2.327047 1_555
Na28 O22 2.433592 1_555
Na29 O5 2.311891 1_455
Na29 O0 2.414301 1_555
Na29 O28 2.451886 1_545
Na29 O3 2.501037 1_455
Na29 O13 2.684543 1_545
Na30 O18 2.354510 1_565
Na30 O7 2.378018 1_555
Na31 O19 2.291066 1_555
Na31 O33 2.388699 1_555
Na31 O8 2.410973 1_555
Na32 O13 2.306719 1_555
Na32 O28 2.376864 1_555
Na32 O29 2.410883 1_455
Na32 O9 2.414567 1_555
Na33 O23 2.280105 1_645
Na33 O3 2.311481 1_556
Na33 O28 2.388852 1_646
Na33 O27 2.442172 1_556
Na34 O23 2.192013 1_555
Na34 O28 2.273295 1_556
Na35 O31 2.234600 1_455
Na35 O17 2.306466 1_555
Na35 O9 2.890210 1_555
Na36 O4 2.296251 1_555
Na36 O33 2.318417 1_555
Na36 O19 2.523137 1_555
Na37 O17 2.228885 1_555
Na37 O19 2.247650 1_555
Na37 O13 3.057108 1_555
Na38 O25 2.383945 1_555
Na38 O30 2.437571 1_555
Na39 O18 2.266356 1_555
Na39 O7 2.332434 1_545
Na40 O33 2.255830 1_555
Na40 O11 2.309234 1_555
Na40 O15 2.521835 1_555
Na41 O17 2.310281 1_655
Na41 O31 2.361190 1_555
Na41 O21 2.972689 1_655
Na42 O5 2.269181 1_565
Na42 O15 2.296468 1_565
Na42 O1 2.382127 1_555
Na43 O29 2.235664 1_555
Na43 O22 2.317379 1_555
Na44 O6 2.330124 1_555
Na44 O25 2.356895 1_455
Na44 O21 2.380095 1_555
Na45 O10 2.343145 1_555
Na45 O29 2.353684 1_556
Na45 O12 2.372481 1_555
Na45 O27 2.464437 1_566
Na46 O17 2.251726 1_555
Na46 O1 2.320814 1_455
Na46 O21 2.392496 1_555
Na47 O0 2.253508 1_555
Na47 O33 2.292281 1_555
Na47 O8 2.293351 1_555
Na48 O14 2.205921 1_555
Na48 O32 2.268320 1_555
Na49 O16 2.308116 1_555
Na49 O0 2.340485 1_565
Na49 O13 2.347796 1_555
Na49 O28 2.452017 1_555
Na50 O11 2.214416 1_565
Na50 O14 2.322811 1_555
Na50 O16 2.393519 1_555
Na51 O4 2.220661 1_555
Na51 O2 2.372906 1_555
Na51 O30 2.411284 1_555
Na52 O32 2.254862 1_555
Na52 O12 2.282657 1_555
Na52 O21 2.707738 1_655
Na53 O2 2.156748 1_555
Na53 O6 2.169226 1_555
Na54 O10 2.274707 1_554
Na54 O14 2.392070 1_555
Na54 O29 2.530316 1_555
Na54 O11 2.727957 1_565
Na55 O26 2.263222 1_555
Na55 O15 2.287439 1_555
Na55 O4 2.339900 1_555
Na56 O2 2.279580 1_555
Na56 O20 2.281812 1_555
Na57 O10 2.240506 1_555
Na57 O30 2.443756 1_565
Na57 O12 2.451119 1_555
Na57 O7 2.465829 1_555
Na58 O2 2.202505 1_555
Na58 O32 2.260598 1_555
Na58 O4 2.669107 1_555
Na59 O4 2.162730 1_555
Na59 O31 2.207646 1_555
Na59 O32 2.392467 1_555
Na60 O2 2.401712 1_555
Na60 O24 2.417297 1_556
Na60 O20 2.483646 1_555
Na60 O22 2.775652 1_556
Na61 O9 2.384166 1_556
Na61 O20 2.489731 1_555
Na61 O6 2.496926 1_555
Na62 O22 2.216372 1_555
Na62 O26 2.242008 1_555
Na62 O24 2.360826 1_555
Na63 O8 2.246557 1_555
Na63 O25 2.354191 1_455
Na63 O17 2.545025 1_555
Na64 O31 2.249975 1_555
Na64 O14 2.264798 1_555
Na64 O29 2.325743 1_555
Na65 O19 2.345639 1_555
Na65 O24 2.472103 1_555
Na65 O22 2.544639 1_555
Na65 O33 2.765881 1_555
Na66 O11 2.282025 1_555
Na66 O26 2.432260 1_555
Na66 O10 2.508456 1_544
Na66 O27 2.571520 1_555
Na66 O24 2.648285 1_555
Na67 O22 2.206161 1_556
Na67 O16 2.260897 1_556
O10 O27 1.538229 1_566
O13 O28 1.544963 1_555
