# generated using pymatgen
data_Li2CrO2
_symmetry_space_group_name_H-M   'P 1'
_cell_length_a   3.50563777
_cell_length_b   10.04682912
_cell_length_c   5.93511356
_cell_angle_alpha   80.94054870
_cell_angle_beta   101.77738277
_cell_angle_gamma   86.03533779
_symmetry_Int_Tables_number   1
_chemical_formula_structural   Li2CrO2
_chemical_formula_sum   'Li8 Cr4 O8'
_cell_volume   200.97244705
_cell_formula_units_Z   4
loop_
 _symmetry_equiv_pos_site_id
 _symmetry_equiv_pos_as_xyz
  1  'x, y, z'
loop_
 _atom_site_type_symbol
 _atom_site_label
 _atom_site_symmetry_multiplicity
 _atom_site_fract_x
 _atom_site_fract_y
 _atom_site_fract_z
 _atom_site_occupancy
  Li  Li0  1  0.80682500  0.73946400  0.89016900  1
  Li  Li1  1  0.30718400  0.99095500  0.64260700  1
  Li  Li2  1  0.80688200  0.23942800  0.39023700  1
  Li  Li3  1  0.30725700  0.49091900  0.14277400  1
  Li  Li4  1  0.19272700  0.75910100  0.60721300  1
  Li  Li5  1  0.69310600  0.01056900  0.35972400  1
  Li  Li6  1  0.19281000  0.25905500  0.10736400  1
  Li  Li7  1  0.69317100  0.51056200  0.85983300  1
  Cr  Cr0  1  0.99918600  0.49722300  0.50234500  1
  Cr  Cr1  1  0.50068500  0.75274500  0.24767400  1
  Cr  Cr2  1  0.99904900  0.99707800  0.00249200  1
  Cr  Cr3  1  0.50101000  0.25295600  0.74753900  1
  O  O0  1  0.70960400  0.66058700  0.59530200  1
  O  O1  1  0.21207900  0.91240400  0.34960100  1
  O  O2  1  0.70963200  0.16064300  0.09526600  1
  O  O3  1  0.21217200  0.41246300  0.84984500  1
  O  O4  1  0.28784500  0.83753800  0.90021500  1
  O  O5  1  0.79033600  0.08939600  0.65467500  1
  O  O6  1  0.28792400  0.33758900  0.40035300  1
  O  O7  1  0.79052300  0.58933000  0.15477600  1
loop_
_geom_bond_atom_site_label_1
_geom_bond_atom_site_label_2
_geom_bond_distance
_geom_bond_site_symmetry_2
Li0 O4 2.006291 1_655
Li0 O0 2.009356 1_555
Li0 O7 2.011814 1_556
Li0 O4 2.024693 1_555
Li1 O1 1.997519 1_555
Li1 O4 2.008139 1_555
Li1 O5 2.014083 1_565
Li1 O5 2.023287 1_465
Li2 O6 2.006815 1_655
Li2 O2 2.009411 1_555
Li2 O5 2.010704 1_555
Li2 O6 2.025121 1_555
Li3 O3 1.996588 1_554
Li3 O6 2.007455 1_555
Li3 O7 2.014285 1_555
Li3 O7 2.022694 1_455
Li4 O4 1.996876 1_555
Li4 O1 2.007421 1_555
Li4 O0 2.014457 1_455
Li4 O0 2.023418 1_555
Li5 O1 2.006789 1_545
Li5 O5 2.009532 1_555
Li5 O2 2.011032 1_555
Li5 O1 2.025196 1_645
Li6 O6 1.997336 1_555
Li6 O3 2.007758 1_554
Li6 O2 2.013990 1_455
Li6 O2 2.023135 1_555
Li7 O3 2.006388 1_555
Li7 O7 2.009175 1_556
Li7 O0 2.010934 1_555
Li7 O3 2.024765 1_655
Cr0 O3 2.065603 1_655
Cr0 O6 2.072342 1_655
Cr0 O0 2.076579 1_555
Cr0 O7 2.082321 1_555
Cr1 O4 2.065404 1_554
Cr1 O1 2.072112 1_555
Cr1 O7 2.077255 1_555
Cr1 O0 2.082860 1_555
Cr2 O1 2.063429 1_655
Cr2 O4 2.072569 1_654
Cr2 O2 2.077378 1_565
Cr2 O5 2.084152 1_564
Cr3 O6 2.063753 1_555
Cr3 O3 2.072470 1_555
Cr3 O5 2.077444 1_555
Cr3 O2 2.083648 1_556
