# generated using pymatgen
data_NaTbP2H2CO7
_symmetry_space_group_name_H-M   'P 1'
_cell_length_a   15.19557100
_cell_length_b   6.63812700
_cell_length_c   6.73247060
_cell_angle_alpha   88.46638534
_cell_angle_beta   90.00000000
_cell_angle_gamma   90.00000000
_symmetry_Int_Tables_number   1
_chemical_formula_structural   NaTbP2H2CO7
_chemical_formula_sum   'Na4 Tb4 P8 H8 C4 O28'
_cell_volume   678.86192715
_cell_formula_units_Z   4
loop_
 _symmetry_equiv_pos_site_id
 _symmetry_equiv_pos_as_xyz
  1  'x, y, z'
loop_
 _atom_site_type_symbol
 _atom_site_label
 _atom_site_symmetry_multiplicity
 _atom_site_fract_x
 _atom_site_fract_y
 _atom_site_fract_z
 _atom_site_occupancy
  Na  Na0  1  0.02806600  0.86078700  0.20321200  1
  Na  Na1  1  0.52806600  0.63921300  0.79678800  1
  Na  Na2  1  0.97193400  0.13921300  0.79678800  1
  Na  Na3  1  0.47193400  0.36078700  0.20321200  1
  Tb  Tb0  1  0.89768000  0.40371500  0.32662800  1
  Tb  Tb1  1  0.39768000  0.09628500  0.67337200  1
  Tb  Tb2  1  0.10232000  0.59628500  0.67337200  1
  Tb  Tb3  1  0.60232000  0.90371500  0.32662800  1
  P  P0  1  0.09237100  0.36788100  0.18113100  1
  P  P1  1  0.59237100  0.13211900  0.81886900  1
  P  P2  1  0.90762900  0.63211900  0.81886900  1
  P  P3  1  0.40762900  0.86788100  0.18113100  1
  P  P4  1  0.83890900  0.89812400  0.46870300  1
  P  P5  1  0.33890900  0.60187600  0.53129700  1
  P  P6  1  0.16109100  0.10187600  0.53129700  1
  P  P7  1  0.66109100  0.39812400  0.46870300  1
  H  H0  1  0.76126500  0.67885200  0.69790600  1
  H  H1  1  0.26126500  0.82114800  0.30209400  1
  H  H2  1  0.23873500  0.32114800  0.30209400  1
  H  H3  1  0.73873500  0.17885200  0.69790600  1
  H  H4  1  0.79933600  0.89226900  0.82212700  1
  H  H5  1  0.29933600  0.60773100  0.17787300  1
  H  H6  1  0.20066400  0.10773100  0.17787300  1
  H  H7  1  0.70066400  0.39226900  0.82212700  1
  C  C0  1  0.81816100  0.77897600  0.71322200  1
  C  C1  1  0.31816100  0.72102400  0.28677800  1
  C  C2  1  0.18183900  0.22102400  0.28677800  1
  C  C3  1  0.68183900  0.27897600  0.71322200  1
  O  O0  1  0.89605500  0.75390000  0.34954100  1
  O  O1  1  0.39605500  0.74610000  0.65045900  1
  O  O2  1  0.10394500  0.24610000  0.65045900  1
  O  O3  1  0.60394500  0.25390000  0.34954100  1
  O  O4  1  0.94231800  0.47884900  0.66647900  1
  O  O5  1  0.44231800  0.02115100  0.33352100  1
  O  O6  1  0.05768200  0.52115100  0.33352100  1
  O  O7  1  0.55768200  0.97884900  0.66647900  1
  O  O8  1  0.75233800  0.43503800  0.37630300  1
  O  O9  1  0.25233800  0.06496200  0.62369700  1
  O  O10  1  0.24766200  0.56496200  0.62369700  1
  O  O11  1  0.74766200  0.93503800  0.37630300  1
  O  O12  1  0.87364900  0.52092900  0.00635300  1
  O  O13  1  0.37364900  0.97907100  0.99364700  1
  O  O14  1  0.12635100  0.47907100  0.99364700  1
  O  O15  1  0.62635100  0.02092900  0.00635300  1
  O  O16  1  0.01522500  0.22119500  0.13903100  1
  O  O17  1  0.51522500  0.27880500  0.86096900  1
  O  O18  1  0.98477500  0.77880500  0.86096900  1
  O  O19  1  0.48477500  0.72119500  0.13903100  1
  O  O20  1  0.88769400  0.09794200  0.50529700  1
  O  O21  1  0.38769400  0.40205800  0.49470300  1
  O  O22  1  0.11230600  0.90205800  0.49470300  1
  O  O23  1  0.61230600  0.59794200  0.50529700  1
  O  O24  1  0.83999800  0.17153300  0.08760300  1
  O  O25  1  0.33999800  0.32846700  0.91239700  1
  O  O26  1  0.16000200  0.82846700  0.91239700  1
  O  O27  1  0.66000200  0.67153300  0.08760300  1
loop_
_geom_bond_atom_site_label_1
_geom_bond_atom_site_label_2
_geom_bond_distance
_geom_bond_site_symmetry_2
Na0 O0 2.336774 1_455
Na0 O22 2.365091 1_555
Na0 O16 2.427589 1_565
Na0 O6 2.439118 1_555
Na0 O18 2.470848 1_454
Na0 O26 2.814479 1_554
Na1 O1 2.336774 1_555
Na1 O23 2.365091 1_555
Na1 O17 2.427589 1_555
Na1 O7 2.439118 1_555
Na1 O19 2.470848 1_556
Na1 O27 2.814479 1_556
Na2 O2 2.336774 1_655
Na2 O20 2.365091 1_555
Na2 O18 2.427589 1_545
Na2 O4 2.439118 1_555
Na2 O16 2.470848 1_656
Na2 O24 2.814479 1_556
Na3 O3 2.336774 1_555
Na3 O21 2.365091 1_555
Na3 O19 2.427589 1_555
Na3 O5 2.439118 1_555
Na3 O17 2.470848 1_554
Na3 O25 2.814479 1_554
C0 H0 1.097050 1_555
C0 H4 1.102048 1_555
C0 P2 1.807599 1_555
C0 P4 1.834473 1_555
C1 H1 1.097050 1_555
C1 H5 1.102048 1_555
C1 P3 1.807599 1_555
C1 P5 1.834473 1_555
C2 H2 1.097050 1_555
C2 H6 1.102048 1_555
C2 P0 1.807599 1_555
C2 P6 1.834473 1_555
C3 H3 1.097050 1_555
C3 H7 1.102048 1_555
C3 P1 1.807599 1_555
C3 P7 1.834473 1_555
O0 P4 1.534717 1_555
O0 Tb0 2.333932 1_555
O1 P5 1.534717 1_555
O1 Tb1 2.333932 1_565
O2 P6 1.534717 1_555
O2 Tb2 2.333932 1_555
O3 P7 1.534717 1_555
O3 Tb3 2.333932 1_545
O4 P2 1.556110 1_555
O4 Tb0 2.450518 1_555
O4 Tb2 2.554040 1_655
O5 P3 1.556110 1_545
O5 Tb1 2.450518 1_555
O5 Tb3 2.554040 1_545
O6 P0 1.556110 1_555
O6 Tb2 2.450518 1_555
O6 Tb0 2.554040 1_455
O7 P1 1.556110 1_565
O7 Tb3 2.450518 1_555
O7 Tb1 2.554040 1_565
O8 P7 1.536682 1_555
O8 Tb0 2.244218 1_555
O9 P6 1.536682 1_555
O9 Tb1 2.244218 1_555
O10 P5 1.536682 1_555
O10 Tb2 2.244218 1_555
O11 P4 1.536682 1_555
O11 Tb3 2.244218 1_555
O12 P2 1.534520 1_554
O12 Tb0 2.301811 1_555
O13 P3 1.534520 1_556
O13 Tb1 2.301811 1_565
O14 P0 1.534520 1_556
O14 Tb2 2.301811 1_555
O15 P1 1.534520 1_554
O15 Tb3 2.301811 1_545
O16 P0 1.554823 1_555
O16 Tb0 2.517020 1_455
O17 P1 1.554823 1_555
O17 Tb1 2.517020 1_555
O18 P2 1.554823 1_555
O18 Tb2 2.517020 1_655
O19 P3 1.554823 1_555
O19 Tb3 2.517020 1_555
O20 P4 1.545031 1_545
O20 Tb0 2.336491 1_555
O21 P5 1.545031 1_555
O21 Tb1 2.336491 1_555
O22 P6 1.545031 1_565
O22 Tb2 2.336491 1_555
O23 P7 1.545031 1_555
O23 Tb3 2.336491 1_555
O24 Tb0 2.422005 1_555
O25 Tb1 2.422005 1_555
O26 Tb2 2.422005 1_555
O27 Tb3 2.422005 1_555
