# generated using pymatgen
data_SrCa2I6
_symmetry_space_group_name_H-M   'P 1'
_cell_length_a   8.52099951
_cell_length_b   8.52099951
_cell_length_c   11.87034015
_cell_angle_alpha   87.69557849
_cell_angle_beta   87.69557849
_cell_angle_gamma   119.28103647
_symmetry_Int_Tables_number   1
_chemical_formula_structural   SrCa2I6
_chemical_formula_sum   'Sr2 Ca4 I12'
_cell_volume   749.37150561
_cell_formula_units_Z   2
loop_
 _symmetry_equiv_pos_site_id
 _symmetry_equiv_pos_as_xyz
  1  'x, y, z'
loop_
 _atom_site_type_symbol
 _atom_site_label
 _atom_site_symmetry_multiplicity
 _atom_site_fract_x
 _atom_site_fract_y
 _atom_site_fract_z
 _atom_site_occupancy
  Sr  Sr0  1  0.01901000  0.98099000  0.75000000  1
  Sr  Sr1  1  0.98099000  0.01901000  0.25000000  1
  Ca  Ca0  1  0.41492100  0.70762600  0.43451700  1
  Ca  Ca1  1  0.29237400  0.58507900  0.06548300  1
  Ca  Ca2  1  0.70762600  0.41492100  0.93451700  1
  Ca  Ca3  1  0.58507900  0.29237400  0.56548300  1
  I  I0  1  0.59623600  0.70753800  0.87128600  1
  I  I1  1  0.43916300  0.08140500  0.80488100  1
  I  I2  1  0.24374300  0.97205900  0.46271900  1
  I  I3  1  0.02794100  0.75625700  0.03728100  1
  I  I4  1  0.91859500  0.56083700  0.69511900  1
  I  I5  1  0.29246200  0.40376400  0.62871400  1
  I  I6  1  0.70753800  0.59623600  0.37128600  1
  I  I7  1  0.08140500  0.43916300  0.30488100  1
  I  I8  1  0.97205900  0.24374300  0.96271900  1
  I  I9  1  0.75625700  0.02794100  0.53728100  1
  I  I10  1  0.56083700  0.91859500  0.19511900  1
  I  I11  1  0.40376400  0.29246200  0.12871400  1
loop_
_geom_bond_atom_site_label_1
_geom_bond_atom_site_label_2
_geom_bond_distance
_geom_bond_site_symmetry_2
Ca0 I5 3.128970 1_555
Ca0 I6 3.146907 1_555
Ca0 I7 3.154813 1_555
Ca0 I10 3.157793 1_555
Ca0 I9 3.191373 1_565
Ca0 I2 3.248531 1_555
Ca1 I0 3.128970 1_554
Ca1 I11 3.146907 1_555
Ca1 I10 3.154813 1_555
Ca1 I7 3.157793 1_555
Ca1 I8 3.191373 1_454
Ca1 I3 3.248531 1_555
Ca2 I11 3.128970 1_556
Ca2 I0 3.146907 1_555
Ca2 I1 3.154813 1_555
Ca2 I4 3.157793 1_555
Ca2 I3 3.191373 1_656
Ca2 I8 3.248531 1_555
Ca3 I6 3.128970 1_555
Ca3 I5 3.146907 1_555
Ca3 I4 3.154813 1_555
Ca3 I1 3.157793 1_555
Ca3 I2 3.191373 1_545
Ca3 I9 3.248531 1_555
I0 Sr0 3.403227 1_655
I1 Sr0 3.348091 1_545
I2 Sr1 3.577464 1_465
I2 Sr0 3.865235 1_555
I3 Sr1 3.577464 1_465
I3 Sr0 3.865235 1_554
I4 Sr0 3.348091 1_655
I5 Sr0 3.403227 1_545
I6 Sr1 3.403227 1_565
I7 Sr1 3.348091 1_455
I8 Sr0 3.577464 1_645
I8 Sr1 3.865235 1_556
I9 Sr0 3.577464 1_645
I9 Sr1 3.865235 1_555
I10 Sr1 3.348091 1_565
I11 Sr1 3.403227 1_455
