# generated using pymatgen
data_Cs4Pr6OsI13
_symmetry_space_group_name_H-M   'P 1'
_cell_length_a   10.15150394
_cell_length_b   10.15150394
_cell_length_c   12.56262411
_cell_angle_alpha   68.93186198
_cell_angle_beta   68.93186198
_cell_angle_gamma   87.73493520
_symmetry_Int_Tables_number   1
_chemical_formula_structural   Cs4Pr6OsI13
_chemical_formula_sum   'Cs4 Pr6 Os1 I13'
_cell_volume   1121.32305934
_cell_formula_units_Z   1
loop_
 _symmetry_equiv_pos_site_id
 _symmetry_equiv_pos_as_xyz
  1  'x, y, z'
loop_
 _atom_site_type_symbol
 _atom_site_label
 _atom_site_symmetry_multiplicity
 _atom_site_fract_x
 _atom_site_fract_y
 _atom_site_fract_z
 _atom_site_occupancy
  Cs  Cs0  1  0.71738200  0.28261800  0.50000000  1
  Cs  Cs1  1  0.28261800  0.71738200  0.50000000  1
  Cs  Cs2  1  0.32389400  0.32389400  0.28196400  1
  Cs  Cs3  1  0.67610600  0.67610600  0.71803600  1
  Pr  Pr0  1  0.99034100  0.99034100  0.22384300  1
  Pr  Pr1  1  0.00965900  0.00965900  0.77615700  1
  Pr  Pr2  1  0.98508000  0.69779500  0.08521700  1
  Pr  Pr3  1  0.69779500  0.98508000  0.08521700  1
  Pr  Pr4  1  0.01492000  0.30220500  0.91478300  1
  Pr  Pr5  1  0.30220500  0.01492000  0.91478300  1
  Os  Os0  1  0.00000000  0.00000000  0.00000000  1
  I  I0  1  0.99952800  0.33239400  0.16994400  1
  I  I1  1  0.33239400  0.99952800  0.16994400  1
  I  I2  1  0.00047200  0.66760600  0.83005600  1
  I  I3  1  0.66760600  0.00047200  0.83005600  1
  I  I4  1  0.63495400  0.63495400  0.21979500  1
  I  I5  1  0.36504600  0.36504600  0.78020500  1
  I  I6  1  0.32409300  0.67590700  0.00000000  1
  I  I7  1  0.67590700  0.32409300  0.00000000  1
  I  I8  1  0.00000000  0.00000000  0.50000000  1
  I  I9  1  0.97463800  0.64902600  0.35858400  1
  I  I10  1  0.64902600  0.97463800  0.35858400  1
  I  I11  1  0.02536200  0.35097400  0.64141600  1
  I  I12  1  0.35097400  0.02536200  0.64141600  1
loop_
_geom_bond_atom_site_label_1
_geom_bond_atom_site_label_2
_geom_bond_distance
_geom_bond_site_symmetry_2
Cs0 I3 3.964984 1_555
Cs0 I0 3.964984 1_555
Cs0 I8 3.976388 1_655
Cs0 I9 4.061150 1_555
Cs0 I12 4.061150 1_555
Cs0 I11 4.296923 1_655
Cs0 I10 4.296923 1_545
Cs0 I5 4.325913 1_555
Cs0 I4 4.325913 1_555
Cs1 I2 3.964984 1_555
Cs1 I1 3.964984 1_555
Cs1 I8 3.976388 1_565
Cs1 I10 4.061150 1_555
Cs1 I11 4.061150 1_555
Cs1 I12 4.296923 1_565
Cs1 I9 4.296923 1_455
Cs1 I5 4.325913 1_555
Cs1 I4 4.325913 1_555
Cs2 I0 4.006515 1_455
Cs2 I1 4.006515 1_545
Cs2 I6 4.026387 1_555
Cs2 I7 4.026387 1_555
Cs2 I8 4.126640 1_555
Cs2 I4 4.218346 1_555
Cs2 I12 4.542990 1_555
Cs2 I11 4.542990 1_555
Cs3 I2 4.006515 1_655
Cs3 I3 4.006515 1_565
Cs3 I7 4.026387 1_556
Cs3 I6 4.026387 1_556
Cs3 I8 4.126640 1_665
Cs3 I5 4.218346 1_555
Cs3 I9 4.542990 1_555
Cs3 I10 4.542990 1_555
Os0 Pr0 2.744297 1_445
Os0 Pr1 2.744297 1_554
Os0 Pr4 2.852988 1_554
Os0 Pr5 2.852988 1_554
Os0 Pr3 2.852988 1_445
Os0 Pr2 2.852988 1_445
I0 Pr4 3.276569 1_654
I0 Pr0 3.288498 1_545
I0 Pr2 3.484896 1_555
I1 Pr5 3.276569 1_564
I1 Pr0 3.288498 1_455
I1 Pr3 3.484896 1_555
I2 Pr2 3.276569 1_456
I2 Pr1 3.288498 1_565
I2 Pr4 3.484896 1_555
I3 Pr3 3.276569 1_546
I3 Pr1 3.288498 1_655
I3 Pr5 3.484896 1_555
I4 Pr2 3.313894 1_555
I4 Pr3 3.313894 1_555
I5 Pr4 3.313894 1_555
I5 Pr5 3.313894 1_555
I6 Pr2 3.240532 1_455
I6 Pr5 3.240532 1_564
I7 Pr3 3.240532 1_545
I7 Pr4 3.240532 1_654
I8 Pr1 3.541874 1_555
I8 Pr0 3.541874 1_445
I9 Pr0 3.244828 1_555
I9 Pr2 3.251180 1_555
I10 Pr0 3.244828 1_555
I10 Pr3 3.251180 1_555
I11 Pr1 3.244828 1_555
I11 Pr4 3.251180 1_555
I12 Pr1 3.244828 1_555
I12 Pr5 3.251180 1_555
