# generated using pymatgen
data_ErSbRh
_symmetry_space_group_name_H-M   'P 1'
_cell_length_a   4.52997726
_cell_length_b   7.08737633
_cell_length_c   7.74530542
_cell_angle_alpha   90.00064051
_cell_angle_beta   90.00000000
_cell_angle_gamma   90.00000000
_symmetry_Int_Tables_number   1
_chemical_formula_structural   ErSbRh
_chemical_formula_sum   'Er4 Sb4 Rh4'
_cell_volume   248.66809289
_cell_formula_units_Z   4
loop_
 _symmetry_equiv_pos_site_id
 _symmetry_equiv_pos_as_xyz
  1  'x, y, z'
loop_
 _atom_site_type_symbol
 _atom_site_label
 _atom_site_symmetry_multiplicity
 _atom_site_fract_x
 _atom_site_fract_y
 _atom_site_fract_z
 _atom_site_occupancy
  Er  Er0  1  0.25000000  0.50925917  0.20270576  1
  Er  Er1  1  0.75000000  0.49070256  0.79731410  1
  Er  Er2  1  0.75000000  0.99074366  0.70267126  1
  Er  Er3  1  0.25000000  0.00925086  0.29731567  1
  Sb  Sb0  1  0.25000000  0.69588867  0.59188409  1
  Sb  Sb1  1  0.75000000  0.30418798  0.40813606  1
  Sb  Sb2  1  0.75000000  0.80418429  0.09179402  1
  Sb  Sb3  1  0.25000000  0.19576756  0.90821792  1
  Rh  Rh0  1  0.25000000  0.80400256  0.91967180  1
  Rh  Rh1  1  0.75000000  0.19598969  0.08031382  1
  Rh  Rh2  1  0.75000000  0.69611727  0.41957513  1
  Rh  Rh3  1  0.25000000  0.30390573  0.58040037  1
loop_
_geom_bond_atom_site_label_1
_geom_bond_atom_site_label_2
_geom_bond_distance
_geom_bond_site_symmetry_2
Er0 Rh0 3.028121 1_554
Er0 Rh2 3.115356 1_455
Er0 Rh2 3.115356 1_555
Er0 Sb1 3.126389 1_455
Er0 Sb1 3.126389 1_555
Er0 Sb3 3.184168 1_554
Er0 Sb2 3.199578 1_455
Er0 Sb2 3.199578 1_555
Er0 Rh3 3.267425 1_555
Er0 Sb0 3.291735 1_555
Er0 Rh1 3.310334 1_455
Er0 Rh1 3.310334 1_555
Er1 Rh1 3.027780 1_556
Er1 Rh3 3.115356 1_655
Er1 Rh3 3.115356 1_555
Er1 Sb0 3.126767 1_655
Er1 Sb0 3.126767 1_555
Er1 Sb2 3.184075 1_556
Er1 Sb3 3.199607 1_655
Er1 Sb3 3.199607 1_555
Er1 Rh2 3.267926 1_555
Er1 Sb1 3.291405 1_555
Er1 Rh0 3.310403 1_655
Er1 Rh0 3.310403 1_555
Er2 Rh2 3.027864 1_555
Er2 Rh0 3.115567 1_555
Er2 Rh0 3.115567 1_655
Er2 Sb3 3.126676 1_665
Er2 Sb3 3.126676 1_565
Er2 Sb1 3.184232 1_565
Er2 Sb0 3.198982 1_555
Er2 Sb0 3.198982 1_655
Er2 Rh1 3.266696 1_566
Er2 Sb2 3.291168 1_556
Er2 Rh3 3.309569 1_565
Er2 Rh3 3.309569 1_665
Er3 Rh3 3.027939 1_555
Er3 Rh1 3.115566 1_555
Er3 Rh1 3.115566 1_455
Er3 Sb2 3.126718 1_445
Er3 Sb2 3.126718 1_545
Er3 Sb0 3.184011 1_545
Er3 Sb1 3.199431 1_555
Er3 Sb1 3.199431 1_455
Er3 Rh0 3.266712 1_544
Er3 Sb3 3.290869 1_554
Er3 Rh2 3.309408 1_545
Er3 Rh2 3.309408 1_445
Rh0 Sb2 2.628200 1_456
Rh0 Sb2 2.628200 1_556
Rh0 Sb0 2.651919 1_555
Rh0 Sb3 2.778004 1_565
Rh1 Sb3 2.628097 1_654
Rh1 Sb3 2.628097 1_554
Rh1 Sb1 2.652348 1_555
Rh1 Sb2 2.778297 1_545
Rh2 Sb0 2.628934 1_655
Rh2 Sb0 2.628934 1_555
Rh2 Sb2 2.651790 1_555
Rh2 Sb1 2.779162 1_555
Rh3 Sb1 2.628759 1_455
Rh3 Sb1 2.628759 1_555
Rh3 Sb3 2.652206 1_555
Rh3 Sb0 2.779553 1_555
