# generated using pymatgen
data_K2MoS3O
_symmetry_space_group_name_H-M   'P 1'
_cell_length_a   7.13311855
_cell_length_b   9.08450648
_cell_length_c   11.25575161
_cell_angle_alpha   90.00000000
_cell_angle_beta   90.00000000
_cell_angle_gamma   90.00000000
_symmetry_Int_Tables_number   1
_chemical_formula_structural   K2MoS3O
_chemical_formula_sum   'K8 Mo4 S12 O4'
_cell_volume   729.38240330
_cell_formula_units_Z   4
loop_
 _symmetry_equiv_pos_site_id
 _symmetry_equiv_pos_as_xyz
  1  'x, y, z'
loop_
 _atom_site_type_symbol
 _atom_site_label
 _atom_site_symmetry_multiplicity
 _atom_site_fract_x
 _atom_site_fract_y
 _atom_site_fract_z
 _atom_site_occupancy
  K  K0  1  0.25000000  0.45237571  0.19177555  1
  K  K1  1  0.25000000  0.95237571  0.30822445  1
  K  K2  1  0.75000000  0.54762429  0.80822445  1
  K  K3  1  0.75000000  0.04762429  0.69177555  1
  K  K4  1  0.25000000  0.15631975  0.87549916  1
  K  K5  1  0.25000000  0.65631975  0.62450084  1
  K  K6  1  0.75000000  0.84368025  0.12450084  1
  K  K7  1  0.75000000  0.34368025  0.37549916  1
  Mo  Mo0  1  0.25000000  0.23871805  0.54618263  1
  Mo  Mo1  1  0.25000000  0.73871805  0.95381737  1
  Mo  Mo2  1  0.75000000  0.76128195  0.45381737  1
  Mo  Mo3  1  0.75000000  0.26128195  0.04618263  1
  S  S0  1  0.25000000  0.00556324  0.59834595  1
  S  S1  1  0.25000000  0.50556324  0.90165405  1
  S  S2  1  0.75000000  0.99443676  0.40165405  1
  S  S3  1  0.75000000  0.49443676  0.09834595  1
  S  S4  1  0.49910009  0.34585762  0.62255699  1
  S  S5  1  0.00089991  0.84585762  0.87744301  1
  S  S6  1  -0.00089991  0.65414238  0.37744301  1
  S  S7  1  0.50089991  0.15414238  0.12255699  1
  S  S8  1  0.50089991  0.65414238  0.37744301  1
  S  S9  1  -0.00089991  0.15414238  0.12255699  1
  S  S10  1  0.00089991  0.34585762  0.62255699  1
  S  S11  1  0.49910009  0.84585762  0.87744301  1
  O  O0  1  0.25000000  0.25503809  0.39276734  1
  O  O1  1  0.25000000  0.75503809  0.10723266  1
  O  O2  1  0.75000000  0.74496191  0.60723266  1
  O  O3  1  0.75000000  0.24496191  0.89276734  1
loop_
_geom_bond_atom_site_label_1
_geom_bond_atom_site_label_2
_geom_bond_distance
_geom_bond_site_symmetry_2
K0 O0 2.886501 1_555
K0 O1 2.909552 1_555
K0 S1 3.301089 1_554
K0 S8 3.306071 1_555
K0 S6 3.306071 1_555
K0 S9 3.339214 1_555
K0 S7 3.339214 1_555
K0 S3 3.737948 1_455
K0 S3 3.737948 1_555
K1 O1 2.886501 1_555
K1 O0 2.909552 1_565
K1 S0 3.301089 1_565
K1 S7 3.306071 1_565
K1 S9 3.306071 1_565
K1 S8 3.339214 1_555
K1 S6 3.339214 1_555
K1 S2 3.737948 1_455
K1 S2 3.737948 1_555
K2 O2 2.886501 1_555
K2 O3 2.909552 1_555
K2 S3 3.301089 1_556
K2 S4 3.306071 1_555
K2 S10 3.306071 1_655
K2 S5 3.339214 1_655
K2 S11 3.339214 1_555
K2 S1 3.737948 1_555
K2 S1 3.737948 1_655
K3 O3 2.886501 1_555
K3 O2 2.909552 1_545
K3 S2 3.301089 1_545
K3 S5 3.306071 1_645
K3 S11 3.306071 1_545
K3 S4 3.339214 1_555
K3 S10 3.339214 1_655
K3 S0 3.737948 1_655
K3 S0 3.737948 1_555
K4 S1 3.186334 1_555
K4 S9 3.307020 1_556
K4 S7 3.307020 1_556
K4 S11 3.333518 1_545
K4 S5 3.333518 1_545
K4 S0 3.406958 1_555
K5 S0 3.186334 1_565
K5 S8 3.307020 1_555
K5 S6 3.307020 1_555
K5 S10 3.333518 1_555
K5 S4 3.333518 1_555
K5 S1 3.406958 1_555
K6 S3 3.186334 1_555
K6 S11 3.307020 1_554
K6 S5 3.307020 1_654
K6 S7 3.333518 1_565
K6 S9 3.333518 1_665
K6 S2 3.406958 1_555
K7 S2 3.186334 1_545
K7 S10 3.307020 1_655
K7 S4 3.307020 1_555
K7 S8 3.333518 1_555
K7 S6 3.333518 1_655
K7 S3 3.406958 1_555
Mo0 O0 1.733157 1_555
Mo0 S0 2.197968 1_555
Mo0 S4 2.200810 1_555
Mo0 S10 2.200810 1_555
Mo1 O1 1.733157 1_556
Mo1 S1 2.197968 1_555
Mo1 S11 2.200810 1_555
Mo1 S5 2.200810 1_555
Mo2 O2 1.733157 1_555
Mo2 S2 2.197968 1_555
Mo2 S8 2.200810 1_555
Mo2 S6 2.200810 1_655
Mo3 O3 1.733157 1_554
Mo3 S3 2.197968 1_555
Mo3 S9 2.200810 1_655
Mo3 S7 2.200810 1_555
