# generated using pymatgen
data_Nd2(N4O9)3
_symmetry_space_group_name_H-M   'P 1'
_cell_length_a   13.41544533
_cell_length_b   13.41544533
_cell_length_c   13.41544533
_cell_angle_alpha   90.00000000
_cell_angle_beta   90.00000000
_cell_angle_gamma   90.00000000
_symmetry_Int_Tables_number   1
_chemical_formula_structural   Nd2(N4O9)3
_chemical_formula_sum   'Nd8 N48 O108'
_cell_volume   2414.43368409
_cell_formula_units_Z   4
loop_
 _symmetry_equiv_pos_site_id
 _symmetry_equiv_pos_as_xyz
  1  'x, y, z'
loop_
 _atom_site_type_symbol
 _atom_site_label
 _atom_site_symmetry_multiplicity
 _atom_site_fract_x
 _atom_site_fract_y
 _atom_site_fract_z
 _atom_site_occupancy
  Nd  Nd0  1  0.04786520  0.04786520  0.04786520  1
  Nd  Nd1  1  0.45213480  0.95213480  0.54786520  1
  Nd  Nd2  1  0.95213480  0.54786520  0.45213480  1
  Nd  Nd3  1  0.79786520  0.29786520  0.20213480  1
  Nd  Nd4  1  0.54786520  0.45213480  0.95213480  1
  Nd  Nd5  1  0.70213480  0.70213480  0.70213480  1
  Nd  Nd6  1  0.29786520  0.20213480  0.79786520  1
  Nd  Nd7  1  0.20213480  0.79786520  0.29786520  1
  N  N0  1  0.09313700  0.38303755  0.38656641  1
  N  N1  1  0.40686300  0.61696245  0.88656641  1
  N  N2  1  0.90686300  0.88303755  0.11343359  1
  N  N3  1  0.38656641  0.09313700  0.38303755  1
  N  N4  1  0.13303755  0.34313700  0.86343359  1
  N  N5  1  0.59313700  0.11696245  0.61343359  1
  N  N6  1  0.88656641  0.40686300  0.61696245  1
  N  N7  1  0.36696245  0.65686300  0.36343359  1
  N  N8  1  0.11343359  0.90686300  0.88303755  1
  N  N9  1  0.63303755  0.15686300  0.13656641  1
  N  N10  1  0.61343359  0.59313700  0.11696245  1
  N  N11  1  0.86696245  0.84313700  0.63656641  1
  N  N12  1  0.38303755  0.38656641  0.09313700  1
  N  N13  1  0.84313700  0.63656641  0.86696245  1
  N  N14  1  0.88303755  0.11343359  0.90686300  1
  N  N15  1  0.65686300  0.36343359  0.36696245  1
  N  N16  1  0.11696245  0.61343359  0.59313700  1
  N  N17  1  0.34313700  0.86343359  0.13303755  1
  N  N18  1  0.61696245  0.88656641  0.40686300  1
  N  N19  1  0.15686300  0.13656641  0.63303755  1
  N  N20  1  0.86343359  0.13303755  0.34313700  1
  N  N21  1  0.36343359  0.36696245  0.65686300  1
  N  N22  1  0.63656641  0.86696245  0.84313700  1
  N  N23  1  0.13656641  0.63303755  0.15686300  1
  N  N24  1  0.12500000  0.20537417  0.45537417  1
  N  N25  1  0.37500000  0.79462583  0.95537417  1
  N  N26  1  0.87500000  0.70537417  0.04462583  1
  N  N27  1  0.45537417  0.12500000  0.20537417  1
  N  N28  1  0.95537417  0.37500000  0.79462583  1
  N  N29  1  0.62500000  0.29462583  0.54462583  1
  N  N30  1  0.54462583  0.62500000  0.29462583  1
  N  N31  1  0.04462583  0.87500000  0.70537417  1
  N  N32  1  0.20537417  0.45537417  0.12500000  1
  N  N33  1  0.70537417  0.04462583  0.87500000  1
  N  N34  1  0.29462583  0.54462583  0.62500000  1
  N  N35  1  0.79462583  0.95537417  0.37500000  1
  N  N36  1  0.12500000  0.00940812  0.25940812  1
  N  N37  1  0.37500000  0.99059188  0.75940812  1
  N  N38  1  0.87500000  0.50940812  0.24059188  1
  N  N39  1  0.25940812  0.12500000  0.00940812  1
  N  N40  1  0.75940812  0.37500000  0.99059188  1
  N  N41  1  0.62500000  0.49059188  0.74059188  1
  N  N42  1  0.74059188  0.62500000  0.49059188  1
  N  N43  1  0.24059188  0.87500000  0.50940812  1
  N  N44  1  0.00940812  0.25940812  0.12500000  1
  N  N45  1  0.50940812  0.24059188  0.87500000  1
  N  N46  1  0.49059188  0.74059188  0.62500000  1
  N  N47  1  0.99059188  0.75940812  0.37500000  1
  O  O0  1  0.12500000  0.94035849  0.19035849  1
  O  O1  1  0.37500000  0.05964151  0.69035849  1
  O  O2  1  0.87500000  0.44035849  0.30964151  1
  O  O3  1  0.19035849  0.12500000  0.94035849  1
  O  O4  1  0.69035849  0.37500000  0.05964151  1
  O  O5  1  0.62500000  0.55964151  0.80964151  1
  O  O6  1  0.80964151  0.62500000  0.55964151  1
  O  O7  1  0.30964151  0.87500000  0.44035849  1
  O  O8  1  0.94035849  0.19035849  0.12500000  1
  O  O9  1  0.44035849  0.30964151  0.87500000  1
  O  O10  1  0.55964151  0.80964151  0.62500000  1
  O  O11  1  0.05964151  0.69035849  0.37500000  1
  O  O12  1  0.02961268  0.37350199  0.45562258  1
  O  O13  1  0.47038732  0.62649801  0.95562258  1
  O  O14  1  0.97038732  0.87350199  0.04437742  1
  O  O15  1  0.45562258  0.02961268  0.37350199  1
  O  O16  1  0.12350199  0.27961268  0.79437742  1
  O  O17  1  0.52961268  0.12649801  0.54437742  1
  O  O18  1  0.95562258  0.47038732  0.62649801  1
  O  O19  1  0.37649801  0.72038732  0.29437742  1
  O  O20  1  0.04437742  0.97038732  0.87350199  1
  O  O21  1  0.62350199  0.22038732  0.20562258  1
  O  O22  1  0.54437742  0.52961268  0.12649801  1
  O  O23  1  0.87649801  0.77961268  0.70562258  1
  O  O24  1  0.37350199  0.45562258  0.02961268  1
  O  O25  1  0.77961268  0.70562258  0.87649801  1
  O  O26  1  0.87350199  0.04437742  0.97038732  1
  O  O27  1  0.72038732  0.29437742  0.37649801  1
  O  O28  1  0.12649801  0.54437742  0.52961268  1
  O  O29  1  0.27961268  0.79437742  0.12350199  1
  O  O30  1  0.62649801  0.95562258  0.47038732  1
  O  O31  1  0.22038732  0.20562258  0.62350199  1
  O  O32  1  0.79437742  0.12350199  0.27961268  1
  O  O33  1  0.29437742  0.37649801  0.72038732  1
  O  O34  1  0.70562258  0.87649801  0.77961268  1
  O  O35  1  0.20562258  0.62350199  0.22038732  1
  O  O36  1  0.09729282  0.46264077  0.33758181  1
  O  O37  1  0.40270718  0.53735923  0.83758181  1
  O  O38  1  0.90270718  0.96264077  0.16241819  1
  O  O39  1  0.33758181  0.09729282  0.46264077  1
  O  O40  1  0.21264077  0.34729282  0.91241819  1
  O  O41  1  0.59729282  0.03735923  0.66241819  1
  O  O42  1  0.83758181  0.40270718  0.53735923  1
  O  O43  1  0.28735923  0.65270718  0.41241819  1
  O  O44  1  0.16241819  0.90270718  0.96264077  1
  O  O45  1  0.71264077  0.15270718  0.08758181  1
  O  O46  1  0.66241819  0.59729282  0.03735923  1
  O  O47  1  0.78735923  0.84729282  0.58758181  1
  O  O48  1  0.46264077  0.33758181  0.09729282  1
  O  O49  1  0.84729282  0.58758181  0.78735923  1
  O  O50  1  0.96264077  0.16241819  0.90270718  1
  O  O51  1  0.65270718  0.41241819  0.28735923  1
  O  O52  1  0.03735923  0.66241819  0.59729282  1
  O  O53  1  0.34729282  0.91241819  0.21264077  1
  O  O54  1  0.53735923  0.83758181  0.40270718  1
  O  O55  1  0.15270718  0.08758181  0.71264077  1
  O  O56  1  0.91241819  0.21264077  0.34729282  1
  O  O57  1  0.41241819  0.28735923  0.65270718  1
  O  O58  1  0.58758181  0.78735923  0.84729282  1
  O  O59  1  0.08758181  0.71264077  0.15270718  1
  O  O60  1  0.15311766  0.31119055  0.36570063  1
  O  O61  1  0.34688234  0.68880945  0.86570063  1
  O  O62  1  0.84688234  0.81119055  0.13429937  1
  O  O63  1  0.36570063  0.15311766  0.31119055  1
  O  O64  1  0.06119055  0.40311766  0.88429937  1
  O  O65  1  0.65311766  0.18880945  0.63429937  1
  O  O66  1  0.86570063  0.34688234  0.68880945  1
  O  O67  1  0.43880945  0.59688234  0.38429937  1
  O  O68  1  0.13429937  0.84688234  0.81119055  1
  O  O69  1  0.56119055  0.09688234  0.11570063  1
  O  O70  1  0.63429937  0.65311766  0.18880945  1
  O  O71  1  0.93880945  0.90311766  0.61570063  1
  O  O72  1  0.31119055  0.36570063  0.15311766  1
  O  O73  1  0.90311766  0.61570063  0.93880945  1
  O  O74  1  0.81119055  0.13429937  0.84688234  1
  O  O75  1  0.59688234  0.38429937  0.43880945  1
  O  O76  1  0.18880945  0.63429937  0.65311766  1
  O  O77  1  0.40311766  0.88429937  0.06119055  1
  O  O78  1  0.68880945  0.86570063  0.34688234  1
  O  O79  1  0.09688234  0.11570063  0.56119055  1
  O  O80  1  0.88429937  0.06119055  0.40311766  1
  O  O81  1  0.38429937  0.43880945  0.59688234  1
  O  O82  1  0.61570063  0.93880945  0.90311766  1
  O  O83  1  0.11570063  0.56119055  0.09688234  1
  O  O84  1  0.08500532  0.09083945  0.23945057  1
  O  O85  1  0.41499468  0.90916055  0.73945057  1
  O  O86  1  0.91499468  0.59083945  0.26054943  1
  O  O87  1  0.23945057  0.08500532  0.09083945  1
  O  O88  1  0.84083945  0.33500532  0.01054943  1
  O  O89  1  0.58500532  0.40916055  0.76054943  1
  O  O90  1  0.73945057  0.41499468  0.90916055  1
  O  O91  1  0.65916055  0.66499468  0.51054943  1
  O  O92  1  0.26054943  0.91499468  0.59083945  1
  O  O93  1  0.34083945  0.16499468  0.98945057  1
  O  O94  1  0.76054943  0.58500532  0.40916055  1
  O  O95  1  0.15916055  0.83500532  0.48945057  1
  O  O96  1  0.09083945  0.23945057  0.08500532  1
  O  O97  1  0.83500532  0.48945057  0.15916055  1
  O  O98  1  0.59083945  0.26054943  0.91499468  1
  O  O99  1  0.66499468  0.51054943  0.65916055  1
  O  O100  1  0.40916055  0.76054943  0.58500532  1
  O  O101  1  0.33500532  0.01054943  0.84083945  1
  O  O102  1  0.90916055  0.73945057  0.41499468  1
  O  O103  1  0.16499468  0.98945057  0.34083945  1
  O  O104  1  0.01054943  0.84083945  0.33500532  1
  O  O105  1  0.51054943  0.65916055  0.66499468  1
  O  O106  1  0.48945057  0.15916055  0.83500532  1
  O  O107  1  0.98945057  0.34083945  0.16499468  1
loop_
_geom_bond_atom_site_label_1
_geom_bond_atom_site_label_2
_geom_bond_distance
_geom_bond_site_symmetry_2
Nd0 O20 2.560120 1_544
Nd0 O26 2.560120 1_454
Nd0 O14 2.560120 1_445
Nd0 O3 2.608668 1_554
Nd0 O0 2.608668 1_545
Nd0 O8 2.608668 1_455
Nd0 O96 2.680778 1_555
Nd0 O84 2.680778 1_555
Nd0 O87 2.680778 1_555
Nd0 O50 2.731499 1_454
Nd0 O38 2.731499 1_445
Nd0 O44 2.731499 1_544
Nd1 O17 2.560120 1_565
Nd1 O30 2.560120 1_555
Nd1 O15 2.560120 1_565
Nd1 O10 2.608668 1_555
Nd1 O7 2.608668 1_555
Nd1 O1 2.608668 1_565
Nd1 O85 2.680778 1_555
Nd1 O92 2.680778 1_555
Nd1 O100 2.680778 1_555
Nd1 O54 2.731499 1_555
Nd1 O41 2.731499 1_565
Nd1 O39 2.731499 1_565
Nd2 O28 2.560120 1_655
Nd2 O18 2.560120 1_555
Nd2 O12 2.560120 1_655
Nd2 O6 2.608668 1_555
Nd2 O2 2.608668 1_555
Nd2 O11 2.608668 1_655
Nd2 O102 2.680778 1_555
Nd2 O86 2.680778 1_555
Nd2 O94 2.680778 1_555
Nd2 O42 2.731499 1_555
Nd2 O52 2.731499 1_655
Nd2 O36 2.731499 1_655
Nd3 O32 2.560120 1_555
Nd3 O27 2.560120 1_555
Nd3 O21 2.560120 1_555
Nd3 O2 2.608668 1_555
Nd3 O4 2.608668 1_555
Nd3 O8 2.608668 1_555
Nd3 O97 2.680778 1_555
Nd3 O107 2.680778 1_555
Nd3 O88 2.680778 1_555
Nd3 O56 2.731499 1_555
Nd3 O51 2.731499 1_555
Nd3 O45 2.731499 1_555
Nd4 O22 2.560120 1_556
Nd4 O13 2.560120 1_555
Nd4 O24 2.560120 1_556
Nd4 O5 2.608668 1_555
Nd4 O9 2.608668 1_555
Nd4 O4 2.608668 1_556
Nd4 O89 2.680778 1_555
Nd4 O90 2.680778 1_555
Nd4 O98 2.680778 1_555
Nd4 O46 2.731499 1_556
Nd4 O37 2.731499 1_555
Nd4 O48 2.731499 1_556
Nd5 O25 2.560120 1_555
Nd5 O23 2.560120 1_555
Nd5 O34 2.560120 1_555
Nd5 O5 2.608668 1_555
Nd5 O6 2.608668 1_555
Nd5 O10 2.608668 1_555
Nd5 O105 2.680778 1_555
Nd5 O99 2.680778 1_555
Nd5 O91 2.680778 1_555
Nd5 O58 2.731499 1_555
Nd5 O49 2.731499 1_555
Nd5 O47 2.731499 1_555
Nd6 O33 2.560120 1_555
Nd6 O16 2.560120 1_555
Nd6 O31 2.560120 1_555
Nd6 O9 2.608668 1_555
Nd6 O3 2.608668 1_555
Nd6 O1 2.608668 1_555
Nd6 O93 2.680778 1_555
Nd6 O106 2.680778 1_555
Nd6 O101 2.680778 1_555
Nd6 O40 2.731499 1_555
Nd6 O57 2.731499 1_555
Nd6 O55 2.731499 1_555
Nd7 O29 2.560120 1_555
Nd7 O19 2.560120 1_555
Nd7 O35 2.560120 1_555
Nd7 O7 2.608668 1_555
Nd7 O0 2.608668 1_555
Nd7 O11 2.608668 1_555
Nd7 O103 2.680778 1_555
Nd7 O95 2.680778 1_555
Nd7 O104 2.680778 1_555
Nd7 O53 2.731499 1_555
Nd7 O59 2.731499 1_555
Nd7 O43 2.731499 1_555
N0 O36 1.255146 1_555
N0 O12 1.265256 1_555
N0 O60 1.286418 1_555
N1 O37 1.255146 1_555
N1 O13 1.265256 1_555
N1 O61 1.286418 1_555
N2 O38 1.255146 1_555
N2 O14 1.265256 1_555
N2 O62 1.286418 1_555
N3 O39 1.255146 1_555
N3 O15 1.265256 1_555
N3 O63 1.286418 1_555
N4 O40 1.255146 1_555
N4 O16 1.265256 1_555
N4 O64 1.286418 1_555
N5 O41 1.255146 1_555
N5 O17 1.265256 1_555
N5 O65 1.286418 1_555
N6 O42 1.255146 1_555
N6 O18 1.265256 1_555
N6 O66 1.286418 1_555
N7 O43 1.255146 1_555
N7 O19 1.265256 1_555
N7 O67 1.286418 1_555
N8 O44 1.255146 1_555
N8 O20 1.265256 1_555
N8 O68 1.286418 1_555
N9 O45 1.255146 1_555
N9 O21 1.265256 1_555
N9 O69 1.286418 1_555
N10 O46 1.255146 1_555
N10 O22 1.265256 1_555
N10 O70 1.286418 1_555
N11 O47 1.255146 1_555
N11 O23 1.265256 1_555
N11 O71 1.286418 1_555
N12 O48 1.255146 1_555
N12 O24 1.265256 1_555
N12 O72 1.286418 1_555
N13 O49 1.255146 1_555
N13 O25 1.265256 1_555
N13 O73 1.286418 1_555
N14 O50 1.255146 1_555
N14 O26 1.265256 1_555
N14 O74 1.286418 1_555
N15 O51 1.255146 1_555
N15 O27 1.265256 1_555
N15 O75 1.286418 1_555
N16 O52 1.255146 1_555
N16 O28 1.265256 1_555
N16 O76 1.286418 1_555
N17 O53 1.255146 1_555
N17 O29 1.265256 1_555
N17 O77 1.286418 1_555
N18 O54 1.255146 1_555
N18 O30 1.265256 1_555
N18 O78 1.286418 1_555
N19 O55 1.255146 1_555
N19 O31 1.265256 1_555
N19 O79 1.286418 1_555
N20 O56 1.255146 1_555
N20 O32 1.265256 1_555
N20 O80 1.286418 1_555
N21 O57 1.255146 1_555
N21 O33 1.265256 1_555
N21 O81 1.286418 1_555
N22 O58 1.255146 1_555
N22 O34 1.265256 1_555
N22 O82 1.286418 1_555
N23 O59 1.255146 1_555
N23 O35 1.265256 1_555
N23 O83 1.286418 1_555
N24 O79 1.898608 1_555
N24 O60 1.898608 1_555
N25 O61 1.898608 1_555
N25 O77 1.898608 1_556
N26 O62 1.898608 1_555
N26 O73 1.898608 1_554
N27 O69 1.898608 1_555
N27 O63 1.898608 1_555
N28 O66 1.898608 1_555
N28 O64 1.898608 1_655
N29 O75 1.898608 1_555
N29 O65 1.898608 1_555
N30 O67 1.898608 1_555
N30 O70 1.898608 1_555
N31 O68 1.898608 1_555
N31 O71 1.898608 1_455
N32 O83 1.898608 1_555
N32 O72 1.898608 1_555
N33 O74 1.898608 1_555
N33 O82 1.898608 1_545
N34 O81 1.898608 1_555
N34 O76 1.898608 1_555
N35 O78 1.898608 1_555
N35 O80 1.898608 1_565
N36 O103 1.246189 1_545
N36 O84 1.246189 1_555
N36 O0 1.310031 1_545
N37 O85 1.246189 1_555
N37 O101 1.246189 1_565
N37 O1 1.310031 1_565
N38 O86 1.246189 1_555
N38 O97 1.246189 1_555
N38 O2 1.310031 1_555
N39 O93 1.246189 1_554
N39 O87 1.246189 1_555
N39 O3 1.310031 1_554
N40 O90 1.246189 1_555
N40 O88 1.246189 1_556
N40 O4 1.310031 1_556
N41 O89 1.246189 1_555
N41 O99 1.246189 1_555
N41 O5 1.310031 1_555
N42 O94 1.246189 1_555
N42 O91 1.246189 1_555
N42 O6 1.310031 1_555
N43 O95 1.246189 1_555
N43 O92 1.246189 1_555
N43 O7 1.310031 1_555
N44 O107 1.246189 1_455
N44 O96 1.246189 1_555
N44 O8 1.310031 1_455
N45 O106 1.246189 1_555
N45 O98 1.246189 1_555
N45 O9 1.310031 1_555
N46 O100 1.246189 1_555
N46 O105 1.246189 1_555
N46 O10 1.310031 1_555
N47 O104 1.246189 1_655
N47 O102 1.246189 1_555
N47 O11 1.310031 1_655
