# generated using pymatgen
data_Al119Cr16Fe13
_symmetry_space_group_name_H-M   'P 1'
_cell_length_a   12.20500200
_cell_length_b   12.53911750
_cell_length_c   17.35057534
_cell_angle_alpha   111.54855122
_cell_angle_beta   110.59240118
_cell_angle_gamma   90.00000000
_symmetry_Int_Tables_number   1
_chemical_formula_structural   Al119Cr16Fe13
_chemical_formula_sum   'Al119 Cr16 Fe13'
_cell_volume   2286.35156352
_cell_formula_units_Z   1
loop_
 _symmetry_equiv_pos_site_id
 _symmetry_equiv_pos_as_xyz
  1  'x, y, z'
loop_
 _atom_site_type_symbol
 _atom_site_label
 _atom_site_symmetry_multiplicity
 _atom_site_fract_x
 _atom_site_fract_y
 _atom_site_fract_z
 _atom_site_occupancy
  Al  Al0  1  0.94060200  0.45326900  0.88120300  1
  Al  Al1  1  0.29284800  0.54110000  0.21594000  1
  Al  Al2  1  0.92309200  0.54110000  0.21594000  1
  Al  Al3  1  0.93926800  0.68000700  0.87853600  1
  Al  Al4  1  0.59041700  0.59470300  0.18083400  1
  Al  Al5  1  0.29281900  0.72479000  0.58563800  1
  Al  Al6  1  0.38066200  0.01245800  0.38960400  1
  Al  Al7  1  0.00894300  0.01245800  0.38960400  1
  Al  Al8  1  0.80021800  0.24922900  0.85038100  1
  Al  Al9  1  0.05016300  0.24922900  0.85038100  1
  Al  Al10  1  0.68937600  0.62960100  0.76465300  1
  Al  Al11  1  0.07527700  0.62960100  0.76465300  1
  Al  Al12  1  0.50563100  0.02571100  0.01126100  1
  Al  Al13  1  0.52778800  0.84153100  0.62233800  1
  Al  Al14  1  0.09455000  0.84153100  0.62233800  1
  Al  Al15  1  0.73121900  0.36058900  0.46243900  1
  Al  Al16  1  0.29569300  0.92640700  0.20738000  1
  Al  Al17  1  0.91168700  0.92640700  0.20738000  1
  Al  Al18  1  0.49963400  0.44289900  0.64447700  1
  Al  Al19  1  0.14484400  0.44289900  0.64447700  1
  Al  Al20  1  0.55828600  0.69365700  0.88425100  1
  Al  Al21  1  0.32596500  0.69365700  0.88425100  1
  Al  Al22  1  0.99747800  0.24795500  0.99495600  1
  Al  Al23  1  0.79304400  0.10117300  0.94269300  1
  Al  Al24  1  0.14964900  0.10117300  0.94269300  1
  Al  Al25  1  0.53645800  0.59460100  0.32538200  1
  Al  Al26  1  0.78892400  0.59460100  0.32538200  1
  Al  Al27  1  0.54949400  0.98554800  0.32245800  1
  Al  Al28  1  0.77296300  0.98554800  0.32245800  1
  Al  Al29  1  0.66491900  0.30161900  0.96006000  1
  Al  Al30  1  0.29514200  0.30161900  0.96006000  1
  Al  Al31  1  0.49460500  0.00182500  0.55459900  1
  Al  Al32  1  0.05999400  0.00182500  0.55459900  1
  Al  Al33  1  0.26271600  0.77061300  0.29513100  1
  Al  Al34  1  0.03241500  0.77061300  0.29513100  1
  Al  Al35  1  0.12939100  0.45981300  0.03203300  1
  Al  Al36  1  0.90264100  0.45981300  0.03203300  1
  Al  Al37  1  0.77494400  0.59558200  0.93921000  1
  Al  Al38  1  0.16426500  0.59558200  0.93921000  1
  Al  Al39  1  0.72420000  0.75408300  0.44840000  1
  Al  Al40  1  0.37096300  0.91085200  0.74192600  1
  Al  Al41  1  0.81537800  0.85817500  0.85425500  1
  Al  Al42  1  0.03887700  0.85817500  0.85425500  1
  Al  Al43  1  0.08233000  0.20941200  0.16466000  1
  Al  Al44  1  0.45910300  0.38483200  0.14495600  1
  Al  Al45  1  0.68585400  0.38483200  0.14495600  1
  Al  Al46  1  0.55543700  0.07202800  0.88183300  1
  Al  Al47  1  0.32639500  0.07202800  0.88183300  1
  Al  Al48  1  0.08289900  0.81858200  0.16579900  1
  Al  Al49  1  0.50576000  0.63482300  0.01151900  1
  Al  Al50  1  0.69353700  0.40499000  0.77213500  1
  Al  Al51  1  0.07859800  0.40499000  0.77213500  1
  Al  Al52  1  0.86143800  0.88378000  0.72287600  1
  Al  Al53  1  0.67792600  0.92006100  0.97042200  1
  Al  Al54  1  0.29249500  0.92006100  0.97042200  1
  Al  Al55  1  0.21718000  0.93170600  0.43436000  1
  Al  Al56  1  0.68281100  0.54662500  0.59007800  1
  Al  Al57  1  0.90726700  0.54662500  0.59007800  1
  Al  Al58  1  0.51061500  0.44494800  0.40796100  1
  Al  Al59  1  0.89734600  0.44494800  0.40796100  1
  Al  Al60  1  0.37497000  0.49160300  0.74994000  1
  Al  Al61  1  0.57870000  0.82838900  0.78672600  1
  Al  Al62  1  0.20802600  0.82838900  0.78672600  1
  Al  Al63  1  0.23715300  0.06308400  0.11216100  1
  Al  Al64  1  0.87500700  0.06308400  0.11216100  1
  Al  Al65  1  0.42534300  0.25020800  0.23736400  1
  Al  Al66  1  0.81202100  0.25020800  0.23736400  1
  Al  Al67  1  0.48066400  0.08528900  0.72507800  1
  Al  Al68  1  0.24441300  0.08528900  0.72507800  1
  Al  Al69  1  0.08246900  0.61016100  0.16493800  1
  Al  Al70  1  0.33364900  0.55157700  0.44489600  1
  Al  Al71  1  0.11124700  0.55157700  0.44489600  1
  Al  Al72  1  0.64932400  0.16674400  0.29864700  1
  Al  Al73  1  0.43795200  0.74297700  0.23332100  1
  Al  Al74  1  0.79537000  0.74297700  0.23332100  1
  Al  Al75  1  0.12699600  0.82541200  0.02721100  1
  Al  Al76  1  0.90021500  0.82541200  0.02721100  1
  Al  Al77  1  0.67946200  0.30710800  0.58938000  1
  Al  Al78  1  0.90991900  0.30710800  0.58938000  1
  Al  Al79  1  0.46531100  0.20974400  0.55456300  1
  Al  Al80  1  0.08925200  0.20974400  0.55456300  1
  Al  Al81  1  0.34926900  0.35263500  0.46874100  1
  Al  Al82  1  0.11947200  0.35263500  0.46874100  1
  Al  Al83  1  0.35091600  0.78157500  0.06446100  1
  Al  Al84  1  0.71354500  0.78157500  0.06446100  1
  Al  Al85  1  0.51141900  0.22050000  0.40913000  1
  Al  Al86  1  0.89771100  0.22050000  0.40913000  1
  Al  Al87  1  0.64788900  0.39308400  0.29577800  1
  Al  Al88  1  0.72766100  0.95999900  0.45532300  1
  Al  Al89  1  0.50583100  0.23443300  0.01166200  1
  Al  Al90  1  0.29560800  0.11440700  0.59121700  1
  Al  Al91  1  0.86232000  0.09042800  0.72464100  1
  Al  Al92  1  0.36909100  0.69235300  0.73818100  1
  Al  Al93  1  0.85766900  0.48870200  0.71533900  1
  Al  Al94  1  0.23651000  0.30212800  0.10723900  1
  Al  Al95  1  0.87073000  0.30212800  0.10723900  1
  Al  Al96  1  0.25884200  0.38577900  0.28644100  1
  Al  Al97  1  0.02759900  0.38577900  0.28644100  1
  Al  Al98  1  0.26372700  0.15769800  0.29434300  1
  Al  Al99  1  0.03061600  0.15769800  0.29434300  1
  Al  Al100  1  0.46150700  0.01933200  0.14936200  1
  Al  Al101  1  0.68785600  0.01933200  0.14936200  1
  Al  Al102  1  0.56035400  0.45602800  0.88904900  1
  Al  Al103  1  0.32869500  0.45602800  0.88904900  1
  Al  Al104  1  0.49445200  0.63006700  0.61313000  1
  Al  Al105  1  0.11867800  0.63006700  0.61313000  1
  Al  Al106  1  0.58813500  0.84157900  0.17626900  1
  Al  Al107  1  0.00008200  0.00030300  0.00016400  1
  Al  Al108  1  0.52162400  0.82893600  0.41709900  1
  Al  Al109  1  0.89547500  0.82893600  0.41709900  1
  Al  Al110  1  0.34528500  0.75919900  0.45335900  1
  Al  Al111  1  0.10807400  0.75919900  0.45335900  1
  Al  Al112  1  0.69351900  0.01469600  0.75907400  1
  Al  Al113  1  0.06555500  0.01469600  0.75907400  1
  Al  Al114  1  0.21845500  0.14992400  0.43691100  1
  Al  Al115  1  0.47802700  0.29134000  0.72860400  1
  Al  Al116  1  0.25057600  0.29134000  0.72860400  1
  Al  Al117  1  0.35151400  0.54112200  0.06879400  1
  Al  Al118  1  0.71728000  0.54112200  0.06879400  1
  Cr  Cr0  1  0.29274800  0.52468700  0.58549600  1
  Cr  Cr1  1  0.56999600  0.67507900  0.49850200  1
  Cr  Cr2  1  0.92850500  0.67507900  0.49850200  1
  Cr  Cr3  1  0.65492900  0.17013800  0.67860500  1
  Cr  Cr4  1  0.02367600  0.17013800  0.67860500  1
  Cr  Cr5  1  0.58140400  0.20844600  0.16280800  1
  Cr  Cr6  1  0.72481100  0.55069800  0.44962200  1
  Cr  Cr7  1  0.86399300  0.29775600  0.72798700  1
  Cr  Cr8  1  0.07599000  0.39954400  0.15198100  1
  Cr  Cr9  1  0.79254700  0.71623700  0.58509400  1
  Cr  Cr10  1  0.79567500  0.13573700  0.59135000  1
  Cr  Cr11  1  0.70144600  0.92029000  0.58856500  1
  Cr  Cr12  1  0.88711800  0.92029000  0.58856500  1
  Cr  Cr13  1  0.72467000  0.15881500  0.44934000  1
  Cr  Cr14  1  0.51120700  0.44460200  0.02241400  1
  Cr  Cr15  1  0.00692600  0.63610300  0.01385200  1
  Fe  Fe0  1  0.34911600  0.14843300  0.05197000  1
  Fe  Fe1  1  0.70285400  0.14843300  0.05197000  1
  Fe  Fe2  1  0.15853800  0.58680600  0.31707600  1
  Fe  Fe3  1  0.29629500  0.30602600  0.59259000  1
  Fe  Fe4  1  0.42992600  0.25420500  0.85985200  1
  Fe  Fe5  1  0.51290000  0.83244700  0.02580000  1
  Fe  Fe6  1  0.65137600  0.78701100  0.30275200  1
  Fe  Fe7  1  0.23838900  0.69514700  0.12347000  1
  Fe  Fe8  1  0.88508000  0.69514700  0.12347000  1
  Fe  Fe9  1  0.07650600  0.01274800  0.15301100  1
  Fe  Fe10  1  0.93616500  0.05363000  0.87233100  1
  Fe  Fe11  1  0.86577100  0.68687700  0.73154300  1
  Fe  Fe12  1  0.29407600  0.92029700  0.58815100  1
loop_
_geom_bond_atom_site_label_1
_geom_bond_atom_site_label_2
_geom_bond_distance
_geom_bond_site_symmetry_2
Al0 Cr15 2.453922 1_656
Al0 Cr7 2.487435 1_555
Al0 Al35 2.786595 1_656
Al0 Al36 2.786607 1_556
Al0 Al9 2.849186 1_655
Al0 Al8 2.849192 1_555
Al0 Al3 2.860368 1_555
Al0 Al51 2.860905 1_655
Al0 Al50 2.860915 1_555
Al0 Al93 2.897252 1_555
Al0 Al38 2.897797 1_655
Al0 Al37 2.897817 1_555
Al1 Al69 2.662802 1_555
Al1 Fe2 2.716525 1_555
Al1 Al96 2.751148 1_555
Al1 Al33 2.784986 1_555
Al1 Cr8 2.806123 1_555
Al1 Al94 2.818723 1_555
Al1 Al25 2.826449 1_555
Al1 Fe7 2.876357 1_555
Al1 Al117 2.883967 1_555
Al1 Al35 2.886804 1_555
Al1 Al73 2.949354 1_555
Al1 Al44 3.075548 1_555
Al2 Al69 2.662802 1_655
Al2 Fe2 2.716525 1_655
Al2 Al97 2.751148 1_655
Al2 Al34 2.784986 1_655
Al2 Cr8 2.806113 1_655
Al2 Al95 2.818723 1_555
Al2 Al26 2.826449 1_555
Al2 Fe8 2.876356 1_555
Al2 Al36 2.886801 1_555
Al2 Al74 2.949348 1_555
Al2 Al45 3.075538 1_555
Al3 Fe11 2.422553 1_555
Al3 Cr15 2.466342 1_656
Al3 Al76 2.759664 1_556
Al3 Al75 2.759664 1_656
Al3 Al41 2.774564 1_555
Al3 Al42 2.774564 1_655
Al3 Al38 2.924893 1_655
Al3 Al37 2.924903 1_555
Al4 Fe6 2.447215 1_555
Al4 Cr14 2.522456 1_555
Al4 Al44 2.824225 1_555
Al4 Al45 2.824231 1_555
Al5 Fe12 2.435760 1_555
Al5 Cr0 2.508211 1_555
Al5 Al92 2.663589 1_555
Al5 Al71 2.808694 1_555
Al5 Al70 2.808694 1_555
Al6 Al79 2.845651 1_555
Al6 Al85 2.904691 1_555
Al6 Al98 2.938921 1_555
Al7 Al80 2.845651 1_555
Al7 Al86 2.904697 1_455
Al7 Al99 2.938918 1_555
Al8 Cr3 2.668688 1_555
Al8 Al91 2.696512 1_555
Al8 Cr7 2.756408 1_555
Al8 Fe10 3.025753 1_555
Al8 Al9 3.050579 1_655
Al9 Cr4 2.668688 1_555
Al9 Al91 2.696519 1_455
Al9 Cr7 2.756415 1_455
Al9 Fe10 3.025759 1_455
Al10 Fe11 2.579513 1_555
Al10 Al56 2.788890 1_555
Al10 Al61 2.801282 1_555
Al10 Al41 2.835776 1_555
Al10 Al104 2.860633 1_555
Al10 Al18 2.865104 1_555
Al10 Al50 2.866289 1_555
Al10 Al20 2.936342 1_555
Al10 Al37 3.028119 1_555
Al11 Fe11 2.579524 1_455
Al11 Al57 2.788890 1_455
Al11 Al62 2.801282 1_555
Al11 Al42 2.835776 1_555
Al11 Al19 2.865111 1_555
Al11 Al51 2.866289 1_555
Al11 Al21 2.936342 1_555
Al11 Al38 3.028119 1_555
Al12 Fe5 2.525371 1_545
Al12 Fe1 2.581984 1_555
Al12 Fe0 2.581994 1_555
Al12 Al89 2.614641 1_555
Al12 Cr5 2.623558 1_555
Al12 Al53 2.652866 1_544
Al12 Al54 2.652887 1_544
Al12 Al46 2.769128 1_554
Al12 Al47 2.769140 1_554
Al13 Cr1 2.592793 1_555
Al13 Al31 2.643053 1_565
Al13 Cr11 2.666399 1_555
Al13 Al61 2.765324 1_555
Al13 Fe12 2.950248 1_555
Al13 Al5 2.967029 1_555
Al13 Al67 3.093466 1_565
Al14 Cr2 2.592799 1_455
Al14 Al32 2.643053 1_565
Al14 Cr12 2.666409 1_455
Al14 Al62 2.765324 1_555
Al14 Fe12 2.950259 1_555
Al14 Al5 2.967029 1_555
Al14 Al68 3.093462 1_565
Al15 Cr13 2.454406 1_555
Al15 Cr6 2.472902 1_555
Al15 Al77 2.786292 1_555
Al15 Al78 2.786304 1_555
Al15 Al56 2.796549 1_555
Al15 Al57 2.796555 1_555
Al15 Al72 2.812664 1_555
Al15 Al85 2.863364 1_555
Al15 Al86 2.863374 1_555
Al15 Al58 2.864612 1_555
Al15 Al59 2.864622 1_555
Al15 Al87 2.891170 1_555
Al16 Al48 2.656897 1_555
Al16 Fe7 2.683297 1_555
Al16 Al6 2.724623 1_565
Al16 Al63 2.725183 1_565
Al16 Al83 2.787296 1_555
Al16 Al98 2.835408 1_565
Al16 Al75 2.859986 1_555
Al16 Fe9 2.862447 1_565
Al16 Al27 2.948493 1_555
Al16 Al73 2.952658 1_555
Al16 Al33 2.985338 1_555
Al17 Al48 2.656887 1_655
Al17 Fe8 2.683297 1_555
Al17 Al7 2.724623 1_665
Al17 Al64 2.725182 1_565
Al17 Al84 2.787296 1_555
Al17 Al99 2.835408 1_665
Al17 Al76 2.859986 1_555
Al17 Fe9 2.862457 1_665
Al17 Al28 2.948502 1_555
Al17 Al74 2.952652 1_555
Al17 Al34 2.985338 1_655
Al18 Al60 2.678415 1_555
Al18 Fe3 2.684866 1_555
Al18 Al79 2.710423 1_555
Al18 Cr0 2.725455 1_555
Al18 Al81 2.734009 1_555
Al18 Al50 2.796204 1_555
Al18 Al77 2.985034 1_555
Al19 Al60 2.678405 1_555
Al19 Fe3 2.684856 1_555
Al19 Al80 2.710423 1_555
Al19 Cr0 2.725446 1_555
Al19 Al82 2.734005 1_555
Al19 Al51 2.796211 1_555
Al19 Al78 2.985034 1_455
Al20 Fe5 2.680399 1_556
Al20 Al92 2.758331 1_555
Al20 Al53 2.788068 1_555
Al20 Al84 2.807621 1_556
Al20 Al49 2.832613 1_556
Al20 Al21 2.835478 1_555
Al20 Al61 2.859366 1_555
Al20 Al37 2.915769 1_555
Al20 Al60 2.975022 1_555
Al21 Fe5 2.680399 1_556
Al21 Al92 2.758337 1_555
Al21 Al54 2.788072 1_555
Al21 Al83 2.807621 1_556
Al21 Al49 2.832619 1_556
Al21 Al62 2.859366 1_555
Al21 Al38 2.915779 1_555
Al21 Al60 2.975022 1_555
Al22 Fe10 2.468973 1_555
Al22 Cr8 2.512648 1_656
Al22 Al9 2.805382 1_655
Al22 Al8 2.805382 1_555
Al22 Al35 2.842371 1_656
Al22 Al36 2.842377 1_556
Al23 Fe1 2.408427 1_556
Al23 Fe10 2.421270 1_555
Al23 Al46 2.687189 1_555
Al23 Al8 2.881400 1_555
Al23 Al41 2.927913 1_545
Al23 Al29 2.937438 1_555
Al23 Al53 2.939561 1_545
Al24 Fe0 2.408427 1_556
Al24 Fe10 2.421281 1_455
Al24 Al47 2.687177 1_555
Al24 Al9 2.881400 1_555
Al24 Al42 2.927913 1_545
Al24 Al30 2.937445 1_555
Al24 Al54 2.939554 1_545
Al25 Cr1 2.667731 1_555
Al25 Al39 2.688775 1_555
Al25 Cr6 2.760504 1_555
Al25 Al4 2.808549 1_555
Al25 Al58 2.822522 1_555
Al25 Al87 2.834855 1_555
Al25 Al73 2.879319 1_555
Al25 Fe6 3.004253 1_555
Al25 Al44 3.079321 1_555
Al25 Al26 3.081348 1_555
Al26 Cr2 2.667728 1_555
Al26 Al39 2.688775 1_555
Al26 Cr6 2.760504 1_555
Al26 Al4 2.808549 1_555
Al26 Al59 2.822522 1_555
Al26 Al87 2.834855 1_555
Al26 Al74 2.879321 1_555
Al26 Fe6 3.004253 1_555
Al26 Al45 3.079321 1_555
Al27 Al6 2.667791 1_565
Al27 Al88 2.676153 1_555
Al27 Cr13 2.704349 1_565
Al27 Al28 2.727440 1_555
Al27 Fe6 2.744893 1_555
Al27 Al72 2.803748 1_565
Al27 Al85 2.897236 1_565
Al27 Al73 2.925769 1_555
Al28 Al7 2.667813 1_665
Al28 Al88 2.676153 1_555
Al28 Cr13 2.704343 1_565
Al28 Fe6 2.744887 1_555
Al28 Al72 2.803737 1_565
Al28 Al86 2.897240 1_565
Al28 Al74 2.925776 1_555
Al29 Al89 2.656756 1_556
Al29 Fe4 2.708368 1_555
Al29 Al46 2.787383 1_555
Al29 Cr14 2.812002 1_556
Al29 Al8 2.841128 1_555
Al29 Fe1 2.859663 1_556
Al29 Al95 2.882133 1_556
Al29 Al45 2.900020 1_556
Al29 Al36 3.089332 1_556
Al30 Al89 2.656745 1_556
Al30 Fe4 2.708357 1_555
Al30 Al47 2.787376 1_555
Al30 Cr14 2.811992 1_556
Al30 Al9 2.841138 1_555
Al30 Fe0 2.859662 1_556
Al30 Al94 2.882133 1_556
Al30 Al44 2.900020 1_556
Al30 Al35 3.089352 1_556
Al31 Cr3 2.572000 1_555
Al31 Al79 2.631720 1_555
Al31 Cr11 2.676134 1_545
Al31 Al6 2.761707 1_555
Al31 Al67 2.820197 1_555
Al31 Al90 2.953302 1_555
Al31 Fe12 2.968740 1_545
Al32 Cr4 2.572000 1_555
Al32 Al80 2.631720 1_555
Al32 Cr12 2.676144 1_445
Al32 Al7 2.761709 1_555
Al32 Al68 2.820191 1_555
Al32 Al90 2.953291 1_555
Al32 Fe12 2.968751 1_545
Al33 Al69 2.675075 1_555
Al33 Fe7 2.676221 1_555
Al33 Al73 2.680476 1_555
Al33 Al55 2.754031 1_555
Al33 Al48 2.782270 1_555
Al33 Al34 2.810824 1_555
Al33 Fe2 2.838814 1_555
Al33 Al6 2.940070 1_565
Al34 Al69 2.675075 1_555
Al34 Fe8 2.676224 1_455
Al34 Al74 2.680464 1_455
Al34 Al55 2.754031 1_555
Al34 Al48 2.782264 1_555
Al34 Fe2 2.838814 1_555
Al34 Al7 2.940066 1_565
Al35 Al69 2.633460 1_555
Al35 Cr15 2.720397 1_555
Al35 Cr8 2.727021 1_555
Al35 Al36 2.767484 1_455
Al35 Al94 2.831356 1_555
Al35 Fe7 2.840917 1_555
Al35 Al38 2.858235 1_554
Al35 Al9 3.095777 1_554
Al36 Al69 2.633467 1_655
Al36 Cr15 2.720403 1_655
Al36 Cr8 2.727021 1_655
Al36 Al95 2.831349 1_555
Al36 Fe8 2.840917 1_555
Al36 Al37 2.858235 1_554
Al36 Al8 3.095777 1_554
Al37 Cr15 2.624719 1_656
Al37 Fe8 2.762521 1_556
Al37 Al50 2.826098 1_555
Al37 Al76 2.845987 1_556
Al37 Al84 2.854100 1_556
Al38 Cr15 2.624708 1_556
Al38 Fe7 2.762521 1_556
Al38 Al51 2.826098 1_555
Al38 Al75 2.845982 1_556
Al38 Al83 2.854107 1_556
Al39 Cr9 2.445646 1_555
Al39 Al88 2.539993 1_555
Al39 Fe6 2.555984 1_555
Al39 Cr6 2.558121 1_555
Al39 Cr2 2.657557 1_555
Al39 Cr1 2.657567 1_555
Al39 Cr12 2.662110 1_555
Al39 Cr11 2.662115 1_555
Al40 Fe12 2.546410 1_555
Al40 Al5 2.690618 1_555
Al40 Al62 2.702938 1_555
Al40 Al61 2.702938 1_555
Al40 Al92 2.716495 1_555
Al40 Al67 2.721641 1_565
Al40 Al68 2.721648 1_565
Al40 Al46 2.756438 1_565
Al40 Al47 2.756445 1_565
Al41 Al52 2.655987 1_555
Al41 Fe11 2.662107 1_555
Al41 Al61 2.674765 1_555
Al41 Fe10 2.718153 1_565
Al41 Al42 2.727806 1_655
Al41 Al53 2.951037 1_555
Al41 Al76 2.994343 1_556
Al42 Al52 2.655987 1_455
Al42 Fe11 2.662113 1_455
Al42 Al62 2.674765 1_555
Al42 Fe10 2.718159 1_465
Al42 Al54 2.951027 1_555
Al42 Al75 2.994343 1_556
Al43 Fe9 2.398081 1_555
Al43 Cr8 2.472154 1_555
Al43 Al96 2.713272 1_555
Al43 Al97 2.713272 1_555
Al43 Al98 2.820016 1_555
Al43 Al99 2.820016 1_555
Al44 Al89 2.637125 1_555
Al44 Al94 2.671194 1_555
Al44 Cr5 2.719150 1_555
Al44 Cr14 2.758328 1_555
Al44 Al45 2.767496 1_555
Al44 Al87 2.779806 1_555
Al44 Al65 2.836000 1_555
Al44 Fe0 2.855718 1_555
Al45 Al89 2.637131 1_555
Al45 Al95 2.671194 1_555
Al45 Cr5 2.719156 1_555
Al45 Cr14 2.758334 1_555
Al45 Al87 2.779812 1_555
Al45 Al66 2.835996 1_555
Al45 Fe1 2.855715 1_555
Al46 Al67 2.616099 1_555
Al46 Fe1 2.656238 1_556
Al46 Al89 2.679077 1_556
Al46 Al47 2.795458 1_555
Al46 Fe4 2.817670 1_555
Al46 Al61 2.960261 1_545
Al46 Al53 2.960358 1_545
Al47 Al68 2.616099 1_555
Al47 Fe0 2.656235 1_556
Al47 Al89 2.679084 1_556
Al47 Fe4 2.817676 1_555
Al47 Al62 2.960257 1_545
Al47 Al54 2.960358 1_545
Al48 Fe9 2.523407 1_565
Al48 Fe8 2.584929 1_455
Al48 Fe7 2.584929 1_555
Al48 Al69 2.607960 1_555
Al48 Cr15 2.625818 1_555
Al48 Al76 2.672191 1_455
Al48 Al75 2.672197 1_555
Al49 Fe5 2.396538 1_555
Al49 Cr14 2.460024 1_555
Al50 Cr7 2.662192 1_555
Al50 Cr3 2.734815 1_555
Al50 Al8 2.838554 1_555
Al50 Al93 2.869552 1_555
Al50 Al77 2.889381 1_555
Al51 Cr7 2.662203 1_455
Al51 Cr4 2.734815 1_555
Al51 Al9 2.838554 1_555
Al51 Al93 2.869562 1_455
Al51 Al78 2.889377 1_455
Al52 Cr9 2.394216 1_555
Al52 Fe10 2.524182 1_565
Al52 Fe11 2.527541 1_555
Al52 Al91 2.580071 1_565
Al52 Cr12 2.652533 1_555
Al52 Cr11 2.652538 1_555
Al53 Fe1 2.648684 1_566
Al53 Al84 2.729276 1_556
Al53 Al61 2.745898 1_555
Al53 Al64 2.765697 1_566
Al53 Fe5 2.885075 1_556
Al53 Al76 2.952718 1_556
Al54 Fe0 2.648684 1_566
Al54 Al83 2.729277 1_556
Al54 Al62 2.745899 1_555
Al54 Al63 2.765697 1_566
Al54 Fe5 2.885085 1_556
Al54 Al75 2.952708 1_556
Al55 Fe12 2.557388 1_555
Al55 Al90 2.675611 1_565
Al55 Al7 2.697587 1_565
Al55 Al6 2.697597 1_565
Al56 Cr9 2.557550 1_555
Al56 Fe11 2.660341 1_555
Al56 Cr6 2.678523 1_555
Al56 Cr1 2.712163 1_555
Al56 Al57 2.739486 1_555
Al56 Al93 2.775315 1_555
Al56 Al58 2.897624 1_555
Al56 Al77 2.999125 1_555
Al57 Cr9 2.557550 1_555
Al57 Fe11 2.660347 1_555
Al57 Cr6 2.678523 1_555
Al57 Cr2 2.712160 1_555
Al57 Al93 2.775321 1_555
Al57 Al59 2.897624 1_555
Al57 Al78 2.999125 1_555
Al58 Cr6 2.661166 1_555
Al58 Cr1 2.681263 1_555
Al58 Al70 2.684702 1_555
Al58 Al85 2.821885 1_555
Al58 Al65 2.886318 1_555
Al58 Al87 2.895299 1_555
Al58 Al81 2.947429 1_555
Al58 Al96 2.954990 1_555
Al59 Cr6 2.661166 1_555
Al59 Cr2 2.681264 1_555
Al59 Al71 2.684702 1_655
Al59 Al86 2.821885 1_555
Al59 Al66 2.886318 1_555
Al59 Al87 2.895299 1_555
Al59 Al82 2.947429 1_655
Al59 Al97 2.954990 1_655
Al60 Al92 2.598110 1_555
Al60 Fe3 2.698068 1_555
Al60 Cr0 2.859240 1_555
Al61 Al92 2.755490 1_555
Al62 Al92 2.755500 1_555
Al63 Fe0 2.434796 1_555
Al63 Fe9 2.459926 1_555
Al63 Al98 2.833453 1_555
Al63 Al75 2.870707 1_545
Al63 Al65 2.871588 1_555
Al64 Fe1 2.434787 1_555
Al64 Fe9 2.459947 1_655
Al64 Al99 2.833457 1_655
Al64 Al76 2.870711 1_545
Al64 Al66 2.871581 1_555
Al65 Cr5 2.609824 1_555
Al65 Fe0 2.778607 1_555
Al65 Al96 2.810408 1_555
Al65 Al94 2.872694 1_555
Al65 Al87 2.888622 1_555
Al65 Al98 2.903095 1_555
Al65 Al72 2.910619 1_555
Al65 Al85 2.955906 1_555
Al66 Cr5 2.609824 1_555
Al66 Fe1 2.778607 1_555
Al66 Al97 2.810408 1_655
Al66 Al95 2.872701 1_555
Al66 Al87 2.888622 1_555
Al66 Al99 2.903095 1_655
Al66 Al72 2.910610 1_555
Al66 Al86 2.955906 1_555
Al67 Al90 2.749873 1_555
Al67 Fe12 2.773838 1_545
Al67 Fe4 2.778154 1_555
Al67 Cr3 2.853492 1_555
Al67 Al68 2.883444 1_555
Al68 Al90 2.749873 1_555
Al68 Fe12 2.773850 1_545
Al68 Fe4 2.778160 1_555
Al68 Cr4 2.853482 1_555
Al69 Cr8 2.565693 1_555
Al69 Cr15 2.598847 1_555
Al69 Fe2 2.599917 1_555
Al69 Fe7 2.607886 1_555
Al69 Fe8 2.607896 1_455
Al70 Al96 2.598061 1_555
Al70 Fe2 2.658341 1_555
Al70 Al81 2.670763 1_555
Al70 Al71 2.714417 1_555
Al70 Cr0 2.788343 1_555
Al70 Cr1 2.939204 1_555
Al71 Al97 2.598061 1_555
Al71 Fe2 2.658341 1_555
Al71 Al82 2.670763 1_555
Al71 Cr0 2.788343 1_555
Al71 Cr2 2.939215 1_455
Al72 Cr5 2.458960 1_555
Al72 Cr13 2.488243 1_555
Al72 Al87 2.856709 1_555
Al72 Al86 2.877905 1_555
Al72 Al85 2.877915 1_555
Al73 Fe7 2.412394 1_555
Al73 Fe6 2.417710 1_555
Al74 Fe8 2.412376 1_555
Al74 Fe6 2.417721 1_555
Al75 Cr15 2.681967 1_555
Al75 Al83 2.684644 1_555
Al75 Al76 2.767863 1_455
Al75 Fe7 2.777139 1_555
Al75 Fe9 2.800297 1_565
Al76 Cr15 2.681967 1_655
Al76 Al84 2.684644 1_555
Al76 Fe8 2.777142 1_555
Al76 Fe9 2.800303 1_665
Al77 Cr10 2.578825 1_555
Al77 Al79 2.652261 1_555
Al77 Cr7 2.695714 1_555
Al77 Cr13 2.700007 1_555
Al77 Al93 2.773545 1_555
Al77 Cr3 2.777631 1_555
Al77 Al78 2.812728 1_555
Al77 Al85 2.856535 1_555
Al78 Cr10 2.578832 1_555
Al78 Al80 2.652250 1_655
Al78 Cr7 2.695727 1_555
Al78 Cr13 2.700013 1_555
Al78 Al93 2.773557 1_555
Al78 Cr4 2.777627 1_655
Al78 Al86 2.856531 1_555
Al79 Fe3 2.553518 1_555
Al79 Cr3 2.741532 1_555
Al79 Al90 2.758364 1_555
Al79 Al81 2.812440 1_555
Al79 Al85 2.819757 1_555
Al80 Fe3 2.553518 1_555
Al80 Cr4 2.741532 1_555
Al80 Al90 2.758354 1_555
Al80 Al82 2.812440 1_555
Al80 Al86 2.819757 1_455
Al81 Cr0 2.646988 1_555
Al81 Fe3 2.697590 1_555
Al81 Al82 2.804673 1_555
Al81 Al85 2.812927 1_555
Al81 Al98 2.926679 1_555
Al82 Cr0 2.646988 1_555
Al82 Fe3 2.697590 1_555
Al82 Al86 2.812927 1_455
Al82 Al99 2.926679 1_555
Al83 Fe7 2.431690 1_555
Al83 Fe5 2.452069 1_555
Al84 Fe8 2.431681 1_555
Al84 Fe5 2.452069 1_555
Al85 Cr13 2.641643 1_555
Al85 Al98 2.887620 1_555
Al86 Cr13 2.641643 1_555
Al86 Al99 2.887620 1_655
Al87 Cr5 2.469968 1_555
Al87 Cr6 2.504870 1_555
Al88 Cr10 2.432418 1_565
Al88 Cr13 2.532683 1_565
Al88 Fe6 2.574455 1_555
Al88 Cr12 2.657200 1_555
Al88 Cr11 2.657200 1_555
Al89 Cr14 2.571836 1_555
Al89 Fe4 2.573095 1_554
Al89 Cr5 2.600095 1_555
Al89 Fe1 2.608717 1_555
Al89 Fe0 2.608717 1_555
Al90 Fe3 2.394071 1_555
Al90 Fe12 2.414864 1_545
Al91 Cr10 2.444337 1_555
Al91 Cr7 2.578872 1_555
Al91 Fe10 2.614496 1_555
Al91 Cr11 2.649505 1_545
Al91 Cr12 2.649505 1_545
Al91 Cr3 2.684817 1_555
Al91 Cr4 2.684827 1_655
Al92 Cr0 2.545321 1_555
Al93 Fe11 2.393948 1_555
Al93 Cr7 2.482099 1_555
Al94 Fe0 2.468209 1_555
Al94 Cr8 2.511227 1_555
Al94 Al96 2.801811 1_555
Al95 Fe1 2.468217 1_555
Al95 Cr8 2.511205 1_655
Al95 Al97 2.801807 1_655
Al96 Cr8 2.662026 1_555
Al96 Fe2 2.758382 1_555
Al96 Al97 2.822321 1_555
Al96 Al98 2.912707 1_555
Al97 Cr8 2.662019 1_555
Al97 Fe2 2.758382 1_555
Al97 Al99 2.912707 1_555
Al98 Fe9 2.706013 1_555
Al98 Al99 2.845120 1_555
Al99 Fe9 2.706020 1_555
Al100 Al12 2.662022 1_555
Al100 Cr5 2.678141 1_555
Al100 Al63 2.689314 1_555
Al100 Al101 2.762590 1_555
Al100 Al72 2.772498 1_555
Al100 Fe5 2.781461 1_545
Al100 Fe0 2.781464 1_555
Al100 Al106 2.798423 1_545
Al100 Al54 2.846023 1_544
Al100 Al65 2.852038 1_555
Al100 Al83 2.873169 1_545
Al100 Al16 2.959947 1_545
Al100 Al27 3.003072 1_545
Al101 Al12 2.662022 1_555
Al101 Cr5 2.678148 1_555
Al101 Al64 2.689291 1_555
Al101 Al72 2.772498 1_555
Al101 Fe1 2.781461 1_555
Al101 Fe5 2.781467 1_545
Al101 Al106 2.798423 1_545
Al101 Al53 2.846014 1_544
Al101 Al66 2.852034 1_555
Al101 Al84 2.873166 1_545
Al101 Al17 2.959938 1_545
Al101 Al28 3.003072 1_545
Al102 Al115 2.614027 1_555
Al102 Cr14 2.637166 1_556
Al102 Al49 2.735331 1_556
Al102 Al29 2.746214 1_555
Al102 Fe4 2.772372 1_555
Al102 Al118 2.808349 1_556
Al102 Al37 2.820801 1_555
Al102 Al103 2.827399 1_555
Al102 Al60 2.844880 1_555
Al102 Al50 2.921058 1_555
Al102 Al20 3.011090 1_555
Al103 Al116 2.614027 1_555
Al103 Cr14 2.637166 1_556
Al103 Al49 2.735338 1_556
Al103 Al30 2.746211 1_555
Al103 Fe4 2.772372 1_555
Al103 Al117 2.808349 1_556
Al103 Al38 2.820811 1_555
Al103 Al60 2.844880 1_555
Al103 Al51 2.921058 1_555
Al103 Al21 3.011090 1_555
Al104 Al18 2.592551 1_555
Al104 Cr0 2.596280 1_555
Al104 Al13 2.620112 1_555
Al104 Al56 2.622810 1_555
Al104 Al70 2.683400 1_555
Al104 Cr1 2.690495 1_555
Al104 Al5 2.699053 1_555
Al104 Al61 2.938156 1_555
Al104 Al92 2.957874 1_555
Al105 Al19 2.592552 1_555
Al105 Cr0 2.596280 1_555
Al105 Al14 2.620112 1_555
Al105 Al57 2.622810 1_455
Al105 Al71 2.683400 1_555
Al105 Cr2 2.690502 1_455
Al105 Al5 2.699053 1_555
Al105 Al11 2.860633 1_555
Al105 Al62 2.938156 1_555
Al105 Al92 2.957883 1_555
Al106 Fe5 2.401298 1_555
Al106 Fe6 2.406554 1_555
Al106 Al28 2.718968 1_555
Al106 Al27 2.718980 1_555
Al107 Fe10 2.418148 1_454
Al107 Fe9 2.425561 1_555
Al107 Al42 2.708930 1_544
Al107 Al41 2.708930 1_444
Al107 Al76 2.770086 1_445
Al107 Al75 2.770086 1_545
Al108 Al39 2.592057 1_555
Al108 Al110 2.673777 1_555
Al108 Al31 2.693371 1_565
Al108 Cr1 2.735026 1_555
Al108 Al88 2.736875 1_555
Al108 Al73 2.748980 1_555
Al108 Cr11 2.807749 1_555
Al108 Al25 2.822570 1_555
Al108 Fe6 2.857339 1_555
Al108 Al6 2.951630 1_565
Al108 Al33 3.026180 1_555
Al108 Al27 3.070866 1_555
Al109 Al39 2.592057 1_555
Al109 Al111 2.673777 1_655
Al109 Al32 2.693371 1_665
Al109 Cr2 2.735026 1_555
Al109 Al88 2.736885 1_555
Al109 Al74 2.748979 1_555
Al109 Cr12 2.807754 1_555
Al109 Al26 2.822570 1_555
Al109 Fe6 2.857339 1_555
Al109 Al7 2.951636 1_665
Al109 Al34 3.026180 1_655
Al109 Al28 3.070870 1_555
Al110 Al70 2.554197 1_555
Al110 Al33 2.629727 1_555
Al110 Al55 2.719088 1_555
Al110 Fe12 2.738360 1_555
Al110 Al5 2.761340 1_555
Al110 Al13 2.793917 1_555
Al110 Fe2 2.813025 1_555
Al110 Cr1 2.888549 1_555
Al110 Al111 2.895161 1_555
Al110 Al31 3.079781 1_565
Al111 Al71 2.554197 1_555
Al111 Al34 2.629727 1_555
Al111 Al55 2.719088 1_555
Al111 Fe12 2.738366 1_555
Al111 Al5 2.761340 1_555
Al111 Al14 2.793917 1_555
Al111 Fe2 2.813025 1_555
Al111 Cr2 2.888560 1_455
Al111 Al32 3.079781 1_565
Al112 Al91 2.604946 1_555
Al112 Al67 2.680697 1_555
Al112 Al13 2.697208 1_545
Al112 Al52 2.727188 1_545
Al112 Cr3 2.739821 1_555
Al112 Al23 2.746146 1_555
Al112 Cr11 2.791370 1_545
Al112 Al8 2.824991 1_555
Al112 Fe10 2.841111 1_555
Al112 Al61 2.991284 1_545
Al112 Al46 3.048589 1_555
Al112 Al41 3.073171 1_545
Al113 Al91 2.604957 1_455
Al113 Al68 2.680686 1_555
Al113 Al14 2.697208 1_545
Al113 Al52 2.727188 1_445
Al113 Cr4 2.739821 1_555
Al113 Al24 2.746146 1_555
Al113 Cr12 2.791375 1_445
Al113 Al9 2.824991 1_555
Al113 Fe10 2.841121 1_455
Al113 Al62 2.991284 1_545
Al113 Al47 3.048579 1_555
Al113 Al42 3.073171 1_545
Al114 Fe3 2.518139 1_555
Al114 Al55 2.720271 1_545
Al114 Al99 2.751769 1_555
Al114 Al98 2.751775 1_555
Al114 Al82 2.768295 1_555
Al114 Al81 2.768301 1_555
Al114 Al7 2.769094 1_555
Al114 Al6 2.769114 1_555
Al114 Al80 2.890665 1_555
Al114 Al79 2.890675 1_555
Al115 Al67 2.562332 1_555
Al115 Fe3 2.675820 1_555
Al115 Al50 2.707700 1_555
Al115 Fe4 2.732506 1_555
Al115 Al79 2.755058 1_555
Al115 Al60 2.769393 1_555
Al115 Al116 2.776040 1_555
Al115 Al90 2.818364 1_555
Al115 Cr3 2.841304 1_555
Al115 Al18 2.849590 1_555
Al116 Al68 2.562332 1_555
Al116 Fe3 2.675826 1_555
Al116 Al51 2.707690 1_555
Al116 Fe4 2.732512 1_555
Al116 Al80 2.755054 1_555
Al116 Al60 2.769399 1_555
Al116 Al90 2.818364 1_555
Al116 Cr4 2.841294 1_555
Al116 Al19 2.849584 1_555
Al117 Fe7 2.472207 1_555
Al117 Cr14 2.509784 1_555
Al117 Al35 2.664928 1_555
Al117 Al30 2.824280 1_554
Al117 Al44 2.827160 1_555
Al117 Al38 2.873626 1_554
Al118 Fe8 2.472199 1_555
Al118 Cr14 2.509784 1_555
Al118 Al36 2.664916 1_555
Al118 Al29 2.824280 1_554
Al118 Al45 2.827156 1_555
Al118 Al37 2.873620 1_554
Al118 Al2 2.883967 1_555
Cr0 Fe3 2.789038 1_555
Cr1 Cr9 2.541909 1_555
Cr1 Cr6 2.622517 1_555
Cr1 Cr11 3.029321 1_555
Cr2 Cr9 2.541899 1_555
Cr2 Cr6 2.622506 1_555
Cr3 Cr7 2.694543 1_555
Cr4 Cr7 2.694553 1_455
Cr5 Fe1 2.721024 1_555
Cr5 Fe0 2.721024 1_555
Cr6 Cr9 2.359246 1_555
Cr8 Fe2 2.786214 1_555
Cr9 Fe11 2.545691 1_555
Cr10 Cr7 2.348282 1_555
Cr10 Cr13 2.434657 1_555
Cr10 Cr4 2.603565 1_655
Cr10 Cr3 2.603565 1_555
Cr10 Cr12 2.913444 1_545
Cr10 Cr11 2.913449 1_545
Cr11 Cr12 2.266127 1_555
Cr11 Cr9 2.778578 1_555
Cr11 Cr3 3.099433 1_565
Cr12 Cr9 2.778573 1_555
Cr12 Cr2 3.029321 1_555
Cr12 Cr4 3.099437 1_665
Cr14 Fe4 2.779309 1_554
Cr15 Fe7 2.707810 1_555
Cr15 Fe8 2.707820 1_455
