# generated using pymatgen
data_Dy2InAg
_symmetry_space_group_name_H-M   'P 1'
_cell_length_a   3.63705888
_cell_length_b   3.63705888
_cell_length_c   7.55218776
_cell_angle_alpha   90.00000000
_cell_angle_beta   90.00000000
_cell_angle_gamma   90.00000000
_symmetry_Int_Tables_number   1
_chemical_formula_structural   Dy2InAg
_chemical_formula_sum   'Dy2 In1 Ag1'
_cell_volume   99.90182971
_cell_formula_units_Z   1
loop_
 _symmetry_equiv_pos_site_id
 _symmetry_equiv_pos_as_xyz
  1  'x, y, z'
loop_
 _atom_site_type_symbol
 _atom_site_label
 _atom_site_symmetry_multiplicity
 _atom_site_fract_x
 _atom_site_fract_y
 _atom_site_fract_z
 _atom_site_occupancy
  Dy  Dy0  1  -0.00000000  -0.00000000  0.76543464  1
  Dy  Dy1  1  0.00000000  0.00000000  0.23456536  1
  In  In0  1  0.50000000  0.50000000  0.50000000  1
  Ag  Ag0  1  0.50000000  0.50000000  0.00000000  1
loop_
_geom_bond_atom_site_label_1
_geom_bond_atom_site_label_2
_geom_bond_distance
_geom_bond_site_symmetry_2
Dy0 In0 3.260762 1_555
Dy0 In0 3.260762 1_455
Dy0 In0 3.260762 1_545
Dy0 In0 3.260762 1_445
Dy1 In0 3.260762 1_455
Dy1 In0 3.260762 1_545
Dy1 In0 3.260762 1_555
Dy1 In0 3.260762 1_445
Ag0 Dy0 3.122859 1_554
Ag0 Dy0 3.122859 1_664
Ag0 Dy0 3.122859 1_654
Ag0 Dy0 3.122859 1_564
Ag0 Dy1 3.122859 1_665
Ag0 Dy1 3.122859 1_555
Ag0 Dy1 3.122859 1_565
Ag0 Dy1 3.122859 1_655
