# generated using pymatgen
data_Dy4Te7
_symmetry_space_group_name_H-M   'P 1'
_cell_length_a   4.35946465
_cell_length_b   4.35946465
_cell_length_c   17.57930647
_cell_angle_alpha   90.00000000
_cell_angle_beta   90.00000000
_cell_angle_gamma   90.00000000
_symmetry_Int_Tables_number   1
_chemical_formula_structural   Dy4Te7
_chemical_formula_sum   'Dy4 Te7'
_cell_volume   334.09352468
_cell_formula_units_Z   1
loop_
 _symmetry_equiv_pos_site_id
 _symmetry_equiv_pos_as_xyz
  1  'x, y, z'
loop_
 _atom_site_type_symbol
 _atom_site_label
 _atom_site_symmetry_multiplicity
 _atom_site_fract_x
 _atom_site_fract_y
 _atom_site_fract_z
 _atom_site_occupancy
  Dy  Dy0  1  0.50000000  0.00000000  0.36149939  1
  Dy  Dy1  1  0.50000000  -0.00000000  0.87122977  1
  Dy  Dy2  1  0.00000000  0.50000000  0.12877023  1
  Dy  Dy3  1  0.00000000  0.50000000  0.63850061  1
  Te  Te0  1  0.50000000  -0.00000000  0.17942897  1
  Te  Te1  1  0.50000000  0.00000000  0.68973245  1
  Te  Te2  1  0.00000000  0.50000000  0.31026755  1
  Te  Te3  1  -0.00000000  0.50000000  0.82057103  1
  Te  Te4  1  0.50000000  0.50000000  0.50000000  1
  Te  Te5  1  0.00000000  0.00000000  -0.00000000  1
  Te  Te6  1  0.00000000  -0.00000000  0.50000000  1
loop_
_geom_bond_atom_site_label_1
_geom_bond_atom_site_label_2
_geom_bond_distance
_geom_bond_site_symmetry_2
Dy0 Te0 3.200672 1_555
Dy0 Te2 3.211477 1_645
Dy0 Te2 3.211477 1_555
Dy0 Te2 3.211477 1_545
Dy0 Te2 3.211477 1_655
Dy0 Te4 3.267907 1_555
Dy0 Te4 3.267907 1_545
Dy0 Te6 3.267907 1_555
Dy0 Te6 3.267907 1_655
Dy1 Te5 3.142536 1_556
Dy1 Te5 3.142536 1_656
Dy1 Te1 3.190597 1_555
Dy1 Te3 3.208666 1_655
Dy1 Te3 3.208666 1_645
Dy1 Te3 3.208666 1_555
Dy1 Te3 3.208666 1_545
Dy2 Te5 3.142536 1_555
Dy2 Te5 3.142536 1_565
Dy2 Te2 3.190597 1_555
Dy2 Te0 3.208666 1_565
Dy2 Te0 3.208666 1_455
Dy2 Te0 3.208666 1_555
Dy2 Te0 3.208666 1_465
Dy3 Te3 3.200672 1_555
Dy3 Te1 3.211477 1_555
Dy3 Te1 3.211477 1_565
Dy3 Te1 3.211477 1_455
Dy3 Te1 3.211477 1_465
Dy3 Te4 3.267907 1_455
Dy3 Te6 3.267907 1_555
Dy3 Te4 3.267907 1_555
Dy3 Te6 3.267907 1_565
Te4 Te6 3.082607 1_555
Te4 Te6 3.082607 1_655
Te4 Te6 3.082607 1_665
Te4 Te6 3.082607 1_565
