# generated using pymatgen
data_Ba2Mg2Tl2Co3O10
_symmetry_space_group_name_H-M   'P 1'
_cell_length_a   3.86781300
_cell_length_b   3.90370155
_cell_length_c   18.04157564
_cell_angle_alpha   95.71431554
_cell_angle_beta   95.37148516
_cell_angle_gamma   90.37261512
_symmetry_Int_Tables_number   1
_chemical_formula_structural   Ba2Mg2Tl2Co3O10
_chemical_formula_sum   'Ba2 Mg2 Tl2 Co3 O10'
_cell_volume   269.82755068
_cell_formula_units_Z   1
loop_
 _symmetry_equiv_pos_site_id
 _symmetry_equiv_pos_as_xyz
  1  'x, y, z'
loop_
 _atom_site_type_symbol
 _atom_site_label
 _atom_site_symmetry_multiplicity
 _atom_site_fract_x
 _atom_site_fract_y
 _atom_site_fract_z
 _atom_site_occupancy
  Ba  Ba0  1  0.85042500  0.89168000  0.72204500  1
  Ba  Ba1  1  0.17659000  0.18642400  0.27956900  1
  Mg  Mg0  1  0.09126700  0.09961600  0.09097800  1
  Mg  Mg1  1  0.95026900  0.99321900  0.91187200  1
  Tl  Tl0  1  0.28068400  0.37984900  0.56542600  1
  Tl  Tl1  1  0.72876900  0.82023300  0.43546700  1
  Co  Co0  1  0.63331400  0.62291700  0.15831500  1
  Co  Co1  1  0.41019900  0.43861300  0.84262500  1
  Co  Co2  1  0.43969400  0.63372000  0.00022700  1
  O  O0  1  0.13655700  0.61550900  0.16031000  1
  O  O1  1  0.68729700  0.69860400  0.31683200  1
  O  O2  1  0.63707000  0.11880500  0.15420900  1
  O  O3  1  0.23560400  0.17717700  0.44664100  1
  O  O4  1  0.37142000  0.15492300  0.99563400  1
  O  O5  1  0.40892800  0.93442500  0.83900600  1
  O  O6  1  0.33253800  0.36869100  0.68371800  1
  O  O7  1  0.91112000  0.43206700  0.84729200  1
  O  O8  1  0.77857400  0.72487400  0.55423900  1
  O  O9  1  0.92172100  0.70756800  0.00463000  1
loop_
_geom_bond_atom_site_label_1
_geom_bond_atom_site_label_2
_geom_bond_distance
_geom_bond_site_symmetry_2
Ba0 O6 2.806322 1_665
Ba0 O6 2.829057 1_565
Ba0 O5 2.829284 1_555
Ba0 O6 2.839890 1_555
Ba0 O6 2.851884 1_655
Ba0 O5 2.866841 1_655
Ba0 O7 2.925095 1_565
Ba0 O7 3.015589 1_555
Ba0 O8 3.019015 1_555
Ba1 O1 2.789941 1_555
Ba1 O1 2.834689 1_545
Ba1 O1 2.837400 1_455
Ba1 O1 2.847129 1_445
Ba1 O0 2.849180 1_555
Ba1 O2 2.920586 1_455
Ba1 O0 2.932352 1_545
Ba1 O2 2.999746 1_555
Ba1 O3 3.005332 1_555
Mg0 O9 2.126049 1_445
Mg0 O4 2.144664 1_554
Mg0 O2 2.180156 1_455
Mg0 O0 2.259168 1_555
Mg0 O2 2.300789 1_555
Mg0 O0 2.366586 1_545
Mg1 O9 2.112071 1_556
Mg1 O4 2.161341 1_665
Mg1 O7 2.164044 1_565
Mg1 O5 2.304310 1_655
Mg1 O5 2.362887 1_555
Mg1 O7 2.373487 1_555
Co0 O0 1.925149 1_555
Co0 O0 1.943868 1_655
Co0 O2 1.944584 1_565
Co0 O2 1.962112 1_555
Co1 O7 1.931853 1_555
Co1 O7 1.940152 1_455
Co1 O5 1.943112 1_555
Co1 O5 1.962733 1_545
Co2 O9 1.877788 1_555
Co2 O4 1.878484 1_554
Co2 O9 2.033683 1_455
Co2 O4 2.062219 1_564
O1 Tl1 2.136510 1_555
O3 Tl0 2.199932 1_555
O3 Tl1 2.379012 1_445
O3 Tl1 2.381445 1_545
O6 Tl0 2.129626 1_555
O8 Tl1 2.202252 1_555
O8 Tl0 2.375121 1_655
O8 Tl0 2.378334 1_555
