# generated using pymatgen
data_RbNa2Mn3P4ClO14
_symmetry_space_group_name_H-M   'P 1'
_cell_length_a   11.04516813
_cell_length_b   11.04516813
_cell_length_c   14.03740660
_cell_angle_alpha   61.50643681
_cell_angle_beta   61.50643681
_cell_angle_gamma   27.82308493
_symmetry_Int_Tables_number   1
_chemical_formula_structural   RbNa2Mn3P4ClO14
_chemical_formula_sum   'Rb2 Na4 Mn6 P8 Cl2 O28'
_cell_volume   696.10256334
_cell_formula_units_Z   2
loop_
 _symmetry_equiv_pos_site_id
 _symmetry_equiv_pos_as_xyz
  1  'x, y, z'
loop_
 _atom_site_type_symbol
 _atom_site_label
 _atom_site_symmetry_multiplicity
 _atom_site_fract_x
 _atom_site_fract_y
 _atom_site_fract_z
 _atom_site_occupancy
  Rb  Rb0  1  0.50000000  0.50000000  0.00000000  1
  Rb  Rb1  1  0.50000000  0.50000000  0.50000000  1
  Na  Na0  1  0.25434300  0.30477700  0.15326400  1
  Na  Na1  1  0.69522300  0.74565700  0.34673600  1
  Na  Na2  1  0.74565700  0.69522300  0.84673600  1
  Na  Na3  1  0.30477700  0.25434300  0.65326400  1
  Mn  Mn0  1  0.67088200  0.64255600  0.15527500  1
  Mn  Mn1  1  0.35744400  0.32911800  0.34472500  1
  Mn  Mn2  1  0.32911800  0.35744400  0.84472500  1
  Mn  Mn3  1  0.64255600  0.67088200  0.65527500  1
  Mn  Mn4  1  0.94757800  0.05242200  0.25000000  1
  Mn  Mn5  1  0.05242100  0.94757800  0.75000000  1
  P  P0  1  0.17357200  0.14137300  0.00700600  1
  P  P1  1  0.85862700  0.82642800  0.49299400  1
  P  P2  1  0.82642800  0.85862700  0.99299400  1
  P  P3  1  0.14137300  0.17357200  0.50700600  1
  P  P4  1  0.87675300  0.88640500  0.17075700  1
  P  P5  1  0.11359500  0.12324700  0.32924300  1
  P  P6  1  0.12324700  0.11359500  0.82924300  1
  P  P7  1  0.88640500  0.87675300  0.67075700  1
  Cl  Cl0  1  0.45812900  0.54187100  0.25000000  1
  Cl  Cl1  1  0.54187100  0.45812900  0.75000000  1
  O  O0  1  0.95457900  0.96379600  0.14579100  1
  O  O1  1  0.03620400  0.04542100  0.35420900  1
  O  O2  1  0.04542100  0.03620400  0.85420900  1
  O  O3  1  0.96379600  0.95457900  0.64579100  1
  O  O4  1  0.06138700  0.15429100  0.95126700  1
  O  O5  1  0.84570900  0.93861300  0.54873300  1
  O  O6  1  0.93861300  0.84570900  0.04873300  1
  O  O7  1  0.15429100  0.06138700  0.45126700  1
  O  O8  1  0.89628900  0.41603200  0.29018900  1
  O  O9  1  0.58396800  0.10371100  0.20981100  1
  O  O10  1  0.10371100  0.58396800  0.70981100  1
  O  O11  1  0.41603200  0.89628900  0.79018900  1
  O  O12  1  0.98858700  0.24794500  0.11591400  1
  O  O13  1  0.75205500  0.01141300  0.38408600  1
  O  O14  1  0.01141300  0.75205500  0.88408600  1
  O  O15  1  0.24794500  0.98858700  0.61591400  1
  O  O16  1  0.45879400  0.85483600  0.02293400  1
  O  O17  1  0.14516400  0.54120600  0.47706600  1
  O  O18  1  0.54120600  0.14516400  0.97706600  1
  O  O19  1  0.85483600  0.45879400  0.52293400  1
  O  O20  1  0.04813800  0.62256800  0.24356500  1
  O  O21  1  0.37743200  0.95186200  0.25643500  1
  O  O22  1  0.95186200  0.37743200  0.75643500  1
  O  O23  1  0.62256800  0.04813800  0.74356500  1
  O  O24  1  0.85945400  0.67827600  0.07235000  1
  O  O25  1  0.32172400  0.14054600  0.42765000  1
  O  O26  1  0.14054600  0.32172400  0.92765000  1
  O  O27  1  0.67827600  0.85945400  0.57235000  1
loop_
_geom_bond_atom_site_label_1
_geom_bond_atom_site_label_2
_geom_bond_distance
_geom_bond_site_symmetry_2
Na0 O9 2.364578 1_555
Na0 O24 2.400465 1_455
Na0 O18 2.463261 1_554
Na0 O21 2.501778 1_545
Na0 O20 2.542605 1_555
Na0 O8 2.692521 1_455
Na1 O8 2.364578 1_555
Na1 O25 2.400465 1_565
Na1 O19 2.463261 1_555
Na1 O20 2.501778 1_655
Na1 O21 2.542605 1_555
Na1 O9 2.692521 1_565
Na2 O11 2.364578 1_555
Na2 O26 2.400465 1_655
Na2 O16 2.463261 1_556
Na2 O23 2.501778 1_565
Na2 O22 2.542605 1_555
Na2 O10 2.692521 1_655
Na3 O10 2.364578 1_555
Na3 O27 2.400465 1_545
Na3 O17 2.463261 1_555
Na3 O22 2.501778 1_455
Na3 O23 2.542605 1_555
Na3 O11 2.692521 1_545
Mn0 O24 2.133260 1_555
Mn0 O16 2.171941 1_555
Mn0 O21 2.201060 1_555
Mn0 O8 2.237132 1_555
Mn0 O12 2.238518 1_555
Mn1 O25 2.133260 1_555
Mn1 O17 2.171941 1_555
Mn1 O20 2.201060 1_555
Mn1 O9 2.237132 1_555
Mn1 O13 2.238518 1_555
Mn2 O26 2.133260 1_555
Mn2 O18 2.171941 1_555
Mn2 O23 2.201060 1_555
Mn2 O10 2.237132 1_555
Mn2 O14 2.238518 1_555
Mn3 O27 2.133260 1_555
Mn3 O19 2.171941 1_555
Mn3 O22 2.201060 1_555
Mn3 O11 2.237132 1_555
Mn3 O15 2.238518 1_555
Mn4 O0 2.056329 1_545
Mn4 O1 2.056329 1_655
Mn4 O13 2.334559 1_555
Mn4 O12 2.334559 1_555
Mn5 O3 2.056320 1_455
Mn5 O2 2.056337 1_565
Mn5 O14 2.334552 1_555
Mn5 O15 2.334567 1_555
Cl0 Mn4 2.599482 1_555
Cl0 Mn4 2.711556 1_465
Cl0 Mn1 2.959218 1_555
Cl0 Mn0 2.959218 1_555
Cl0 Rb0 3.516390 1_555
Cl0 Rb1 3.516390 1_555
Cl1 Mn5 2.599485 1_555
Cl1 Mn5 2.711553 1_645
Cl1 Mn2 2.959218 1_555
Cl1 Mn3 2.959218 1_555
Cl1 Rb1 3.516390 1_555
Cl1 Rb0 3.516390 1_556
O0 P4 1.522770 1_555
O0 Rb0 3.180578 1_565
O0 Rb0 3.221189 1_655
O1 P5 1.522770 1_555
O1 Rb1 3.180578 1_455
O1 Rb1 3.221189 1_545
O2 P6 1.522770 1_555
O2 Rb0 3.180578 1_546
O2 Rb0 3.221189 1_456
O3 P7 1.522770 1_555
O3 Rb1 3.180578 1_655
O3 Rb1 3.221189 1_565
O4 P0 1.635154 1_556
O4 P6 1.636351 1_555
O4 Rb0 3.172117 1_456
O5 P1 1.635154 1_555
O5 P7 1.636351 1_555
O5 Rb1 3.172117 1_565
O6 P2 1.635154 1_554
O6 P4 1.636351 1_555
O6 Rb0 3.172117 1_655
O7 P3 1.635154 1_555
O7 P5 1.636351 1_555
O7 Rb1 3.172117 1_545
O8 P5 1.534321 1_655
O8 Rb1 3.437889 1_555
O9 P4 1.534321 1_545
O9 Rb0 3.437889 1_555
O10 P7 1.534321 1_455
O10 Rb1 3.437889 1_555
O11 P6 1.534321 1_565
O11 Rb0 3.437889 1_556
O12 P0 1.542744 1_655
O13 P1 1.542744 1_545
O14 P2 1.542744 1_455
O15 P3 1.542744 1_565
O16 P0 1.533746 1_565
O17 P1 1.533746 1_455
O18 P2 1.533746 1_545
O19 P3 1.533746 1_655
O20 P4 1.538504 1_455
O21 P5 1.538504 1_565
O22 P6 1.538504 1_655
O23 P7 1.538504 1_545
O24 P2 1.525544 1_554
O25 P3 1.525544 1_555
O26 P0 1.525544 1_556
O27 P1 1.525544 1_555
