# generated using pymatgen
data_Cr2Se3
_symmetry_space_group_name_H-M   'P 1'
_cell_length_a   6.86117798
_cell_length_b   7.30139075
_cell_length_c   8.58488841
_cell_angle_alpha   90.45509465
_cell_angle_beta   104.35736851
_cell_angle_gamma   105.26225717
_symmetry_Int_Tables_number   1
_chemical_formula_structural   Cr2Se3
_chemical_formula_sum   'Cr8 Se12'
_cell_volume   400.70810228
_cell_formula_units_Z   4
loop_
 _symmetry_equiv_pos_site_id
 _symmetry_equiv_pos_as_xyz
  1  'x, y, z'
loop_
 _atom_site_type_symbol
 _atom_site_label
 _atom_site_symmetry_multiplicity
 _atom_site_fract_x
 _atom_site_fract_y
 _atom_site_fract_z
 _atom_site_occupancy
  Cr  Cr0  1  0.49423703  0.24051670  0.02212302  1
  Cr  Cr1  1  0.81489763  0.56743039  0.33459640  1
  Cr  Cr2  1  0.17961669  0.90873518  0.67653550  1
  Cr  Cr3  1  0.50576297  0.75948330  0.97787698  1
  Cr  Cr4  1  0.82038331  0.09126482  0.32346450  1
  Cr  Cr5  1  0.18510237  0.43256961  0.66540360  1
  Cr  Cr6  1  0.83473458  0.32872629  0.82152594  1
  Cr  Cr7  1  0.16526542  0.67127371  0.17847406  1
  Se  Se0  1  0.77254442  0.07480724  0.02216356  1
  Se  Se1  1  0.10266858  0.40370628  0.36260949  1
  Se  Se2  1  0.45092240  0.74068675  0.68409930  1
  Se  Se3  1  0.22745558  0.92519276  0.97783644  1
  Se  Se4  1  0.54907760  0.25931325  0.31590070  1
  Se  Se5  1  0.89733142  0.59629372  0.63739051  1
  Se  Se6  1  0.55564404  0.76670473  0.28985095  1
  Se  Se7  1  0.91044266  0.10737316  0.63148657  1
  Se  Se8  1  0.22637808  0.43825388  0.97627331  1
  Se  Se9  1  0.44435596  0.23329527  0.71014905  1
  Se  Se10  1  0.77362192  0.56174612  0.02372669  1
  Se  Se11  1  0.08955734  0.89262684  0.36851343  1
loop_
_geom_bond_atom_site_label_1
_geom_bond_atom_site_label_2
_geom_bond_distance
_geom_bond_site_symmetry_2
Cr0 Se4 2.453126 1_555
Cr0 Se3 2.493576 1_544
Cr0 Se0 2.515184 1_555
Cr0 Se8 2.581507 1_554
Cr0 Se10 2.606745 1_555
Cr0 Se9 2.612789 1_554
Cr1 Se4 2.470254 1_555
Cr1 Se5 2.514133 1_555
Cr1 Se1 2.529229 1_655
Cr1 Se6 2.541885 1_555
Cr1 Se11 2.575843 1_655
Cr1 Se10 2.611809 1_555
Cr2 Se2 2.473581 1_555
Cr2 Se3 2.523112 1_555
Cr2 Se5 2.531239 1_455
Cr2 Se9 2.541915 1_565
Cr2 Se11 2.556288 1_555
Cr2 Se7 2.593987 1_465
Cr3 Se2 2.453126 1_555
Cr3 Se0 2.493576 1_566
Cr3 Se3 2.515184 1_555
Cr3 Se10 2.581507 1_556
Cr3 Se8 2.606745 1_555
Cr3 Se6 2.612789 1_556
Cr4 Se4 2.473581 1_555
Cr4 Se0 2.523112 1_555
Cr4 Se1 2.531239 1_655
Cr4 Se6 2.541915 1_545
Cr4 Se7 2.556288 1_555
Cr4 Se11 2.593987 1_645
Cr5 Se2 2.470254 1_555
Cr5 Se1 2.514133 1_555
Cr5 Se5 2.529229 1_455
Cr5 Se9 2.541885 1_555
Cr5 Se7 2.575843 1_455
Cr5 Se8 2.611809 1_555
Cr6 Se9 2.512095 1_555
Cr6 Se7 2.522688 1_555
Cr6 Se5 2.538497 1_555
Cr6 Se0 2.566092 1_556
Cr6 Se8 2.589685 1_655
Cr6 Se10 2.602568 1_556
Cr7 Se6 2.512095 1_555
Cr7 Se11 2.522688 1_555
Cr7 Se1 2.538497 1_555
Cr7 Se3 2.566092 1_554
Cr7 Se10 2.589685 1_455
Cr7 Se8 2.602568 1_554
