# generated using pymatgen
data_MgIn2
_symmetry_space_group_name_H-M   'P 1'
_cell_length_a   5.53762534
_cell_length_b   5.53762534
_cell_length_c   5.52887227
_cell_angle_alpha   90.00000000
_cell_angle_beta   90.00000000
_cell_angle_gamma   120.00000908
_symmetry_Int_Tables_number   1
_chemical_formula_structural   MgIn2
_chemical_formula_sum   'Mg2 In4'
_cell_volume   146.82982707
_cell_formula_units_Z   2
loop_
 _symmetry_equiv_pos_site_id
 _symmetry_equiv_pos_as_xyz
  1  'x, y, z'
loop_
 _atom_site_type_symbol
 _atom_site_label
 _atom_site_symmetry_multiplicity
 _atom_site_fract_x
 _atom_site_fract_y
 _atom_site_fract_z
 _atom_site_occupancy
  Mg  Mg0  1  0.66666700  0.33333300  0.00000000  1
  Mg  Mg1  1  0.33333300  0.66666700  0.00000000  1
  In  In0  1  0.66400941  -0.00000000  0.50000000  1
  In  In1  1  0.00000000  0.00000000  0.00000000  1
  In  In2  1  0.33599059  0.33599059  0.50000000  1
  In  In3  1  -0.00000000  0.66400941  0.50000000  1
loop_
_geom_bond_atom_site_label_1
_geom_bond_atom_site_label_2
_geom_bond_distance
_geom_bond_site_symmetry_2
Mg0 Mg1 3.197146 1_545
Mg0 Mg1 3.197146 1_655
Mg0 Mg1 3.197156 1_555
In0 In3 3.184482 1_545
In0 In3 3.184482 1_655
In0 In2 3.184482 1_545
In0 In2 3.184483 1_555
In0 In2 3.222636 1_655
In0 In3 3.222637 1_645
In0 Mg0 3.320001 1_555
In0 Mg0 3.320001 1_556
In0 Mg1 3.320002 1_545
In0 Mg1 3.320002 1_546
In0 In1 3.332252 1_655
In0 In1 3.332252 1_656
In1 Mg1 3.197146 1_545
In1 Mg0 3.197146 1_455
In1 Mg1 3.197151 1_555
In1 Mg0 3.197151 1_555
In1 Mg0 3.197151 1_445
In1 Mg1 3.197151 1_445
In1 In2 3.332252 1_554
In1 In2 3.332252 1_555
In1 In3 3.332252 1_545
In1 In3 3.332252 1_544
In2 In3 3.184482 1_655
In2 In3 3.184483 1_555
In2 In3 3.222636 1_545
In2 Mg1 3.320004 1_555
In2 Mg0 3.320004 1_555
In2 Mg0 3.320004 1_556
In2 Mg1 3.320004 1_556
In3 Mg1 3.320001 1_556
In3 Mg1 3.320001 1_555
In3 Mg0 3.320002 1_456
In3 Mg0 3.320002 1_455
