# generated using pymatgen
data_VSnRu2
_symmetry_space_group_name_H-M   'P 1'
_cell_length_a   12.52380590
_cell_length_b   12.52380590
_cell_length_c   12.52380590
_cell_angle_alpha   136.53024579
_cell_angle_beta   121.63214216
_cell_angle_gamma   75.51057706
_symmetry_Int_Tables_number   1
_chemical_formula_structural   VSnRu2
_chemical_formula_sum   'V1 Sn1 Ru2'
_cell_volume   1121.73151287
_cell_formula_units_Z   1
loop_
 _symmetry_equiv_pos_site_id
 _symmetry_equiv_pos_as_xyz
  1  'x, y, z'
loop_
 _atom_site_type_symbol
 _atom_site_label
 _atom_site_symmetry_multiplicity
 _atom_site_fract_x
 _atom_site_fract_y
 _atom_site_fract_z
 _atom_site_occupancy
  V  V0  1  0.00000000  0.00000000  0.00000000  1
  Sn  Sn0  1  0.00000000  0.50000000  0.50000000  1
  Ru  Ru0  1  0.00000000  0.21882600  0.21882600  1
  Ru  Ru1  1  0.00000000  0.78117400  0.78117400  1
loop_
_geom_bond_atom_site_label_1
_geom_bond_atom_site_label_2
_geom_bond_distance
_geom_bond_site_symmetry_2
Ru0 V0 2.029707 1_555
Ru0 Sn0 2.608012 1_555
Ru1 V0 2.029707 1_566
Ru1 Sn0 2.608012 1_555
