# generated using pymatgen
data_Eu2Ga2O5
_symmetry_space_group_name_H-M   'P 1'
_cell_length_a   3.93587400
_cell_length_b   3.93587400
_cell_length_c   7.58410300
_cell_angle_alpha   90.00000000
_cell_angle_beta   90.00000000
_cell_angle_gamma   90.00000000
_symmetry_Int_Tables_number   1
_chemical_formula_structural   Eu2Ga2O5
_chemical_formula_sum   'Eu2 Ga2 O5'
_cell_volume   117.48612941
_cell_formula_units_Z   1
loop_
 _symmetry_equiv_pos_site_id
 _symmetry_equiv_pos_as_xyz
  1  'x, y, z'
loop_
 _atom_site_type_symbol
 _atom_site_label
 _atom_site_symmetry_multiplicity
 _atom_site_fract_x
 _atom_site_fract_y
 _atom_site_fract_z
 _atom_site_occupancy
  Eu  Eu0  1  0.00000000  0.00000000  0.00000000  1
  Eu  Eu1  1  0.00000000  0.00000000  0.50000000  1
  Ga  Ga0  1  0.50000000  0.50000000  0.24954900  1
  Ga  Ga1  1  0.50000000  0.50000000  0.75045100  1
  O  O0  1  0.50000000  0.00000000  0.21429800  1
  O  O1  1  0.50000000  0.00000000  0.78570200  1
  O  O2  1  0.50000000  0.50000000  0.50000000  1
  O  O3  1  0.00000000  0.50000000  0.21429800  1
  O  O4  1  0.00000000  0.50000000  0.78570200  1
loop_
_geom_bond_atom_site_label_1
_geom_bond_atom_site_label_2
_geom_bond_distance
_geom_bond_site_symmetry_2
Eu0 O4 2.552301 1_544
Eu0 O0 2.552301 1_455
Eu0 O1 2.552301 1_454
Eu0 O3 2.552301 1_555
Eu0 O0 2.552301 1_555
Eu0 O4 2.552301 1_554
Eu0 O1 2.552301 1_554
Eu0 O3 2.552301 1_545
Eu1 O2 2.783083 1_455
Eu1 O2 2.783083 1_555
Eu1 O2 2.783083 1_545
Eu1 O2 2.783083 1_445
Eu1 O4 2.927075 1_545
Eu1 O0 2.927075 1_455
Eu1 O3 2.927075 1_555
Eu1 O0 2.927075 1_555
Eu1 O1 2.927075 1_555
Eu1 O4 2.927075 1_555
Eu1 O1 2.927075 1_455
Eu1 O3 2.927075 1_545
Ga0 O2 1.899446 1_555
Ga0 O3 1.986014 1_555
Ga0 O0 1.986014 1_555
Ga0 O3 1.986014 1_655
Ga0 O0 1.986014 1_565
Ga1 O2 1.899446 1_555
Ga1 O1 1.986014 1_565
Ga1 O1 1.986014 1_555
Ga1 O4 1.986014 1_555
Ga1 O4 1.986014 1_655
