# generated using pymatgen
data_Ho(AlSi)2
_symmetry_space_group_name_H-M   'P 1'
_cell_length_a   4.21543096
_cell_length_b   4.21543096
_cell_length_c   6.50728400
_cell_angle_alpha   90.00000000
_cell_angle_beta   90.00000000
_cell_angle_gamma   119.99998369
_symmetry_Int_Tables_number   1
_chemical_formula_structural   Ho(AlSi)2
_chemical_formula_sum   'Ho1 Al2 Si2'
_cell_volume   100.14157698
_cell_formula_units_Z   1
loop_
 _symmetry_equiv_pos_site_id
 _symmetry_equiv_pos_as_xyz
  1  'x, y, z'
loop_
 _atom_site_type_symbol
 _atom_site_label
 _atom_site_symmetry_multiplicity
 _atom_site_fract_x
 _atom_site_fract_y
 _atom_site_fract_z
 _atom_site_occupancy
  Ho  Ho0  1  0.00000000  0.00000000  0.00000000  1
  Al  Al0  1  0.66666700  0.33333300  0.35504200  1
  Al  Al1  1  0.33333300  0.66666700  0.64495800  1
  Si  Si0  1  0.66666700  0.33333300  0.74153400  1
  Si  Si1  1  0.33333300  0.66666700  0.25846600  1
loop_
_geom_bond_atom_site_label_1
_geom_bond_atom_site_label_2
_geom_bond_distance
_geom_bond_site_symmetry_2
Ho0 Si1 2.958395 1_545
Ho0 Si0 2.958395 1_454
Ho0 Si1 2.958398 1_445
Ho0 Si1 2.958398 1_555
Ho0 Si0 2.958398 1_554
Ho0 Si0 2.958398 1_444
Al0 Si1 2.513607 1_655
Al0 Si1 2.513607 1_545
Al0 Si1 2.513614 1_555
Al0 Si0 2.515013 1_555
Al1 Si0 2.513607 1_455
Al1 Si0 2.513607 1_565
Al1 Si0 2.513614 1_555
Al1 Si1 2.515013 1_555
