# generated using pymatgen
data_BaPb(SO4)2
_symmetry_space_group_name_H-M   'P 1'
_cell_length_a   5.50987200
_cell_length_b   7.15670300
_cell_length_c   8.78004300
_cell_angle_alpha   90.00000000
_cell_angle_beta   90.00000000
_cell_angle_gamma   90.00000000
_symmetry_Int_Tables_number   1
_chemical_formula_structural   BaPb(SO4)2
_chemical_formula_sum   'Ba2 Pb2 S4 O16'
_cell_volume   346.21919900
_cell_formula_units_Z   2
loop_
 _symmetry_equiv_pos_site_id
 _symmetry_equiv_pos_as_xyz
  1  'x, y, z'
loop_
 _atom_site_type_symbol
 _atom_site_label
 _atom_site_symmetry_multiplicity
 _atom_site_fract_x
 _atom_site_fract_y
 _atom_site_fract_z
 _atom_site_occupancy
  Ba  Ba0  1  0.50000000  0.41122000  0.31586200  1
  Ba  Ba1  1  0.50000000  0.58878000  0.81586200  1
  Pb  Pb0  1  0.00000000  0.08393900  0.68757200  1
  Pb  Pb1  1  0.00000000  0.91606100  0.18757200  1
  S  S0  1  0.50000000  0.06230000  0.93570000  1
  S  S1  1  0.50000000  0.93770000  0.43570000  1
  S  S2  1  0.00000000  0.43803300  0.06358500  1
  S  S3  1  0.00000000  0.56196700  0.56358500  1
  O  O0  1  0.72282300  0.94043100  0.92036700  1
  O  O1  1  0.27717700  0.05956900  0.42036700  1
  O  O2  1  0.21908500  0.56091200  0.08028000  1
  O  O3  1  0.78091500  0.43908800  0.58028000  1
  O  O4  1  0.78091500  0.56091200  0.08028000  1
  O  O5  1  0.21908500  0.43908800  0.58028000  1
  O  O6  1  0.27717700  0.94043100  0.92036700  1
  O  O7  1  0.72282300  0.05956900  0.42036700  1
  O  O8  1  0.50000000  0.19951900  0.80808300  1
  O  O9  1  0.50000000  0.80048100  0.30808300  1
  O  O10  1  0.00000000  0.29648600  0.18957500  1
  O  O11  1  0.00000000  0.70351400  0.68957500  1
  O  O12  1  0.50000000  0.15133600  0.08706900  1
  O  O13  1  0.50000000  0.84866400  0.58706900  1
  O  O14  1  0.00000000  0.34909600  0.91126100  1
  O  O15  1  0.00000000  0.65090400  0.41126100  1
loop_
_geom_bond_atom_site_label_1
_geom_bond_atom_site_label_2
_geom_bond_distance
_geom_bond_site_symmetry_2
Ba0 O12 2.737627 1_555
Ba0 O9 2.786662 1_555
Ba0 O2 2.796739 1_555
Ba0 O4 2.796739 1_555
Ba0 O5 2.797376 1_555
Ba0 O3 2.797376 1_555
Ba0 O1 2.946661 1_555
Ba0 O7 2.946661 1_555
Ba0 O10 3.081129 1_555
Ba0 O10 3.081129 1_655
Ba0 O15 3.351667 1_555
Ba0 O15 3.351667 1_655
Ba1 O13 2.737627 1_555
Ba1 O8 2.786662 1_555
Ba1 O5 2.796739 1_555
Ba1 O3 2.796739 1_555
Ba1 O4 2.797376 1_556
Ba1 O2 2.797376 1_556
Ba1 O6 2.946661 1_555
Ba1 O0 2.946661 1_555
Ba1 O11 3.081129 1_655
Ba1 O11 3.081129 1_555
Ba1 O14 3.351667 1_655
Ba1 O14 3.351667 1_555
O0 S0 1.511997 1_565
O0 Pb0 2.750440 1_665
O0 Pb1 2.804789 1_656
O1 S1 1.511997 1_545
O1 Pb1 2.750440 1_545
O1 Pb0 2.804789 1_555
O2 S2 1.500670 1_555
O3 S3 1.500670 1_655
O4 S2 1.500670 1_655
O5 S3 1.500670 1_555
O6 S0 1.511997 1_565
O6 Pb0 2.750440 1_565
O6 Pb1 2.804789 1_556
O7 S1 1.511997 1_545
O7 Pb1 2.750440 1_645
O7 Pb0 2.804789 1_655
O8 S0 1.489925 1_555
O9 S1 1.489925 1_555
O10 S2 1.499954 1_555
O10 Pb1 2.722646 1_545
O11 S3 1.499954 1_555
O11 Pb0 2.722646 1_565
O12 S0 1.473886 1_554
O13 S1 1.473886 1_555
O14 S2 1.481147 1_556
O14 Pb0 2.731001 1_555
O15 S3 1.481147 1_555
O15 Pb1 2.731001 1_555
