# generated using pymatgen
data_MgSn5
_symmetry_space_group_name_H-M   'P 1'
_cell_length_a   6.64034075
_cell_length_b   6.64034075
_cell_length_c   33.77816800
_cell_angle_alpha   90.00000000
_cell_angle_beta   90.00000000
_cell_angle_gamma   120.00000751
_symmetry_Int_Tables_number   1
_chemical_formula_structural   MgSn5
_chemical_formula_sum   'Mg8 Sn40'
_cell_volume   1289.87439672
_cell_formula_units_Z   8
loop_
 _symmetry_equiv_pos_site_id
 _symmetry_equiv_pos_as_xyz
  1  'x, y, z'
loop_
 _atom_site_type_symbol
 _atom_site_label
 _atom_site_symmetry_multiplicity
 _atom_site_fract_x
 _atom_site_fract_y
 _atom_site_fract_z
 _atom_site_occupancy
  Mg  Mg0_0  1  0.00000000  0.00000000  0.00000000  1
  Mg  Mg0_1  1  0.00000000  0.00000000  0.50000000  1
  Mg  Mg0_2  1  1.00000000  0.50000000  0.00000000  1
  Mg  Mg0_3  1  1.00000000  0.50000000  0.50000000  1
  Mg  Mg0_4  1  0.50000000  0.00000000  0.00000000  1
  Mg  Mg0_5  1  0.50000000  0.00000000  0.50000000  1
  Mg  Mg0_6  1  0.50000000  0.50000000  0.00000000  1
  Mg  Mg0_7  1  0.50000000  0.50000000  0.50000000  1
  Sn  Sn0_0  1  0.33333350  0.16666650  0.42194250  1
  Sn  Sn0_1  1  0.33333350  0.16666650  0.92194250  1
  Sn  Sn0_2  1  0.33333350  0.66666650  0.42194250  1
  Sn  Sn0_3  1  0.33333350  0.66666650  0.92194250  1
  Sn  Sn0_4  1  0.83333350  0.16666650  0.42194250  1
  Sn  Sn0_5  1  0.83333350  0.16666650  0.92194250  1
  Sn  Sn0_6  1  0.83333350  0.66666650  0.42194250  1
  Sn  Sn0_7  1  0.83333350  0.66666650  0.92194250  1
  Sn  Sn1_0  1  0.00000000  0.00000000  0.33484550  1
  Sn  Sn1_1  1  0.00000000  0.00000000  0.83484550  1
  Sn  Sn1_2  1  1.00000000  0.50000000  0.33484550  1
  Sn  Sn1_3  1  1.00000000  0.50000000  0.83484550  1
  Sn  Sn1_4  1  0.50000000  0.00000000  0.33484550  1
  Sn  Sn1_5  1  0.50000000  0.00000000  0.83484550  1
  Sn  Sn1_6  1  0.50000000  0.50000000  0.33484550  1
  Sn  Sn1_7  1  0.50000000  0.50000000  0.83484550  1
  Sn  Sn2_0  1  0.33333350  0.16666650  0.25000000  1
  Sn  Sn2_1  1  0.33333350  0.16666650  0.75000000  1
  Sn  Sn2_2  1  0.33333350  0.66666650  0.25000000  1
  Sn  Sn2_3  1  0.33333350  0.66666650  0.75000000  1
  Sn  Sn2_4  1  0.83333350  0.16666650  0.25000000  1
  Sn  Sn2_5  1  0.83333350  0.16666650  0.75000000  1
  Sn  Sn2_6  1  0.83333350  0.66666650  0.25000000  1
  Sn  Sn2_7  1  0.83333350  0.66666650  0.75000000  1
  Sn  Sn3_0  1  0.00000000  0.00000000  0.16515450  1
  Sn  Sn3_1  1  0.00000000  0.00000000  0.66515450  1
  Sn  Sn3_2  1  1.00000000  0.50000000  0.16515450  1
  Sn  Sn3_3  1  1.00000000  0.50000000  0.66515450  1
  Sn  Sn3_4  1  0.50000000  0.00000000  0.16515450  1
  Sn  Sn3_5  1  0.50000000  0.00000000  0.66515450  1
  Sn  Sn3_6  1  0.50000000  0.50000000  0.16515450  1
  Sn  Sn3_7  1  0.50000000  0.50000000  0.66515450  1
  Sn  Sn4_0  1  0.33333350  0.16666650  0.07805750  1
  Sn  Sn4_1  1  0.33333350  0.16666650  0.57805750  1
  Sn  Sn4_2  1  0.33333350  0.66666650  0.07805750  1
  Sn  Sn4_3  1  0.33333350  0.66666650  0.57805750  1
  Sn  Sn4_4  1  0.83333350  0.16666650  0.07805750  1
  Sn  Sn4_5  1  0.83333350  0.16666650  0.57805750  1
  Sn  Sn4_6  1  0.83333350  0.66666650  0.07805750  1
  Sn  Sn4_7  1  0.83333350  0.66666650  0.57805750  1
loop_
_geom_bond_atom_site_label_1
_geom_bond_atom_site_label_2
_geom_bond_distance
_geom_bond_site_symmetry_2
Mg0_0 Sn0_5 3.259811 1_454
Mg0_0 Sn4_4 3.259811 1_455
Mg0_0 Sn0_1 3.259813 1_554
Mg0_0 Sn0_7 3.259813 1_444
Mg0_0 Sn4_0 3.259813 1_555
Mg0_0 Sn4_6 3.259813 1_445
Mg0_1 Sn0_4 3.259811 1_455
Mg0_1 Sn4_5 3.259811 1_455
Mg0_1 Sn0_0 3.259813 1_555
Mg0_1 Sn0_6 3.259813 1_445
Mg0_1 Sn4_1 3.259813 1_555
Mg0_1 Sn4_7 3.259813 1_445
Mg0_2 Sn0_7 3.259811 1_554
Mg0_2 Sn4_6 3.259811 1_555
Mg0_2 Sn0_5 3.259813 1_554
Mg0_2 Sn0_3 3.259813 1_654
Mg0_2 Sn4_2 3.259813 1_655
Mg0_2 Sn4_4 3.259813 1_555
Mg0_3 Sn0_6 3.259811 1_555
Mg0_3 Sn4_7 3.259811 1_555
Mg0_3 Sn0_4 3.259813 1_555
Mg0_3 Sn0_2 3.259813 1_655
Mg0_3 Sn4_3 3.259813 1_655
Mg0_3 Sn4_5 3.259813 1_555
Mg0_4 Sn0_1 3.259811 1_554
Mg0_4 Sn4_0 3.259811 1_555
Mg0_4 Sn0_5 3.259813 1_554
Mg0_4 Sn0_3 3.259813 1_544
Mg0_4 Sn4_2 3.259813 1_545
Mg0_4 Sn4_4 3.259813 1_555
Mg0_5 Sn0_0 3.259811 1_555
Mg0_5 Sn4_1 3.259811 1_555
Mg0_5 Sn0_2 3.259813 1_545
Mg0_5 Sn0_4 3.259813 1_555
Mg0_5 Sn4_3 3.259813 1_545
Mg0_5 Sn4_5 3.259813 1_555
Mg0_6 Sn0_3 3.259811 1_554
Mg0_6 Sn4_2 3.259811 1_555
Mg0_6 Sn0_7 3.259813 1_554
Mg0_6 Sn0_1 3.259813 1_554
Mg0_6 Sn4_6 3.259813 1_555
Mg0_6 Sn4_0 3.259813 1_555
Mg0_7 Sn0_2 3.259811 1_555
Mg0_7 Sn4_3 3.259811 1_555
Mg0_7 Sn0_6 3.259813 1_555
Mg0_7 Sn0_0 3.259813 1_555
Mg0_7 Sn4_1 3.259813 1_555
Mg0_7 Sn4_7 3.259813 1_555
Sn0_0 Sn1_4 3.511372 1_555
Sn0_0 Sn1_0 3.511373 1_555
Sn0_0 Sn1_6 3.511373 1_555
Sn0_1 Sn1_5 3.511372 1_555
Sn0_1 Sn1_1 3.511373 1_555
Sn0_1 Sn1_7 3.511373 1_555
Sn0_2 Sn1_6 3.511372 1_555
Sn0_2 Sn1_4 3.511373 1_565
Sn0_2 Sn1_2 3.511373 1_455
Sn0_3 Sn1_7 3.511372 1_555
Sn0_3 Sn1_5 3.511373 1_565
Sn0_3 Sn1_3 3.511373 1_455
Sn0_4 Sn1_0 3.511372 1_655
Sn0_4 Sn1_2 3.511373 1_555
Sn0_4 Sn1_4 3.511373 1_555
Sn0_5 Sn1_1 3.511372 1_655
Sn0_5 Sn1_5 3.511373 1_555
Sn0_5 Sn1_3 3.511373 1_555
Sn0_6 Sn1_2 3.511372 1_555
Sn0_6 Sn1_6 3.511373 1_555
Sn0_6 Sn1_0 3.511373 1_665
Sn0_7 Sn1_3 3.511372 1_555
Sn0_7 Sn1_7 3.511373 1_555
Sn0_7 Sn1_1 3.511373 1_665
Sn1_0 Sn1_6 3.320170 1_555
Sn1_0 Sn1_6 3.320170 1_445
Sn1_0 Sn1_4 3.320170 1_555
Sn1_0 Sn1_2 3.320170 1_445
Sn1_0 Sn1_2 3.320170 1_455
Sn1_0 Sn1_4 3.320170 1_455
Sn1_0 Sn2_4 3.447903 1_455
Sn1_0 Sn2_0 3.447904 1_555
Sn1_0 Sn2_6 3.447904 1_445
Sn1_1 Sn1_7 3.320170 1_555
Sn1_1 Sn1_7 3.320170 1_445
Sn1_1 Sn1_3 3.320170 1_445
Sn1_1 Sn1_5 3.320170 1_555
Sn1_1 Sn1_3 3.320170 1_455
Sn1_1 Sn1_5 3.320170 1_455
Sn1_1 Sn2_5 3.447903 1_455
Sn1_1 Sn2_1 3.447904 1_555
Sn1_1 Sn2_7 3.447904 1_445
Sn1_2 Sn1_4 3.320170 1_555
Sn1_2 Sn1_4 3.320170 1_665
Sn1_2 Sn1_6 3.320170 1_555
Sn1_2 Sn1_6 3.320170 1_655
Sn1_2 Sn2_6 3.447903 1_555
Sn1_2 Sn2_2 3.447904 1_655
Sn1_2 Sn2_4 3.447904 1_555
Sn1_3 Sn1_5 3.320170 1_555
Sn1_3 Sn1_5 3.320170 1_665
Sn1_3 Sn1_7 3.320170 1_555
Sn1_3 Sn1_7 3.320170 1_655
Sn1_3 Sn2_7 3.447903 1_555
Sn1_3 Sn2_5 3.447904 1_555
Sn1_3 Sn2_3 3.447904 1_655
Sn1_4 Sn1_6 3.320170 1_545
Sn1_4 Sn1_6 3.320170 1_555
Sn1_4 Sn2_0 3.447903 1_555
Sn1_4 Sn2_4 3.447904 1_555
Sn1_4 Sn2_2 3.447904 1_545
Sn1_5 Sn1_7 3.320170 1_545
Sn1_5 Sn1_7 3.320170 1_555
Sn1_5 Sn2_1 3.447903 1_555
Sn1_5 Sn2_5 3.447904 1_555
Sn1_5 Sn2_3 3.447904 1_545
Sn1_6 Sn2_2 3.447903 1_555
Sn1_6 Sn2_6 3.447904 1_555
Sn1_6 Sn2_0 3.447904 1_555
Sn1_7 Sn2_3 3.447903 1_555
Sn1_7 Sn2_7 3.447904 1_555
Sn1_7 Sn2_1 3.447904 1_555
Sn2_0 Sn2_6 3.320170 1_555
Sn2_0 Sn2_6 3.320170 1_445
Sn2_0 Sn2_2 3.320170 1_545
Sn2_0 Sn2_2 3.320170 1_555
Sn2_0 Sn2_4 3.320170 1_455
Sn2_0 Sn2_4 3.320170 1_555
Sn2_0 Sn3_4 3.447903 1_555
Sn2_0 Sn3_0 3.447904 1_555
Sn2_0 Sn3_6 3.447904 1_555
Sn2_1 Sn2_7 3.320170 1_555
Sn2_1 Sn2_7 3.320170 1_445
Sn2_1 Sn2_3 3.320170 1_545
Sn2_1 Sn2_5 3.320170 1_555
Sn2_1 Sn2_5 3.320170 1_455
Sn2_1 Sn2_3 3.320170 1_555
Sn2_1 Sn3_5 3.447903 1_555
Sn2_1 Sn3_1 3.447904 1_555
Sn2_1 Sn3_7 3.447904 1_555
Sn2_2 Sn2_4 3.320170 1_565
Sn2_2 Sn2_4 3.320170 1_455
Sn2_2 Sn2_6 3.320170 1_455
Sn2_2 Sn2_6 3.320170 1_555
Sn2_2 Sn3_6 3.447903 1_555
Sn2_2 Sn3_2 3.447904 1_455
Sn2_2 Sn3_4 3.447904 1_565
Sn2_3 Sn2_5 3.320170 1_565
Sn2_3 Sn2_5 3.320170 1_455
Sn2_3 Sn2_7 3.320170 1_455
Sn2_3 Sn2_7 3.320170 1_555
Sn2_3 Sn3_7 3.447903 1_555
Sn2_3 Sn3_5 3.447904 1_565
Sn2_3 Sn3_3 3.447904 1_455
Sn2_4 Sn2_6 3.320170 1_555
Sn2_4 Sn2_6 3.320170 1_545
Sn2_4 Sn3_0 3.447903 1_655
Sn2_4 Sn3_2 3.447904 1_555
Sn2_4 Sn3_4 3.447904 1_555
Sn2_5 Sn2_7 3.320170 1_555
Sn2_5 Sn2_7 3.320170 1_545
Sn2_5 Sn3_1 3.447903 1_655
Sn2_5 Sn3_5 3.447904 1_555
Sn2_5 Sn3_3 3.447904 1_555
Sn2_6 Sn3_2 3.447903 1_555
Sn2_6 Sn3_6 3.447904 1_555
Sn2_6 Sn3_0 3.447904 1_665
Sn2_7 Sn3_3 3.447903 1_555
Sn2_7 Sn3_7 3.447904 1_555
Sn2_7 Sn3_1 3.447904 1_665
Sn3_0 Sn3_6 3.320170 1_555
Sn3_0 Sn3_6 3.320170 1_445
Sn3_0 Sn3_2 3.320170 1_445
Sn3_0 Sn3_4 3.320170 1_555
Sn3_0 Sn3_4 3.320170 1_455
Sn3_0 Sn3_2 3.320170 1_455
Sn3_0 Sn4_4 3.511372 1_455
Sn3_0 Sn4_0 3.511373 1_555
Sn3_0 Sn4_6 3.511373 1_445
Sn3_1 Sn3_7 3.320170 1_555
Sn3_1 Sn3_7 3.320170 1_445
Sn3_1 Sn3_5 3.320170 1_555
Sn3_1 Sn3_3 3.320170 1_445
Sn3_1 Sn3_3 3.320170 1_455
Sn3_1 Sn3_5 3.320170 1_455
Sn3_1 Sn4_5 3.511372 1_455
Sn3_1 Sn4_1 3.511373 1_555
Sn3_1 Sn4_7 3.511373 1_445
Sn3_2 Sn3_4 3.320170 1_555
Sn3_2 Sn3_4 3.320170 1_665
Sn3_2 Sn3_6 3.320170 1_555
Sn3_2 Sn3_6 3.320170 1_655
Sn3_2 Sn4_6 3.511372 1_555
Sn3_2 Sn4_4 3.511373 1_555
Sn3_2 Sn4_2 3.511373 1_655
Sn3_3 Sn3_5 3.320170 1_555
Sn3_3 Sn3_5 3.320170 1_665
Sn3_3 Sn3_7 3.320170 1_555
Sn3_3 Sn3_7 3.320170 1_655
Sn3_3 Sn4_7 3.511372 1_555
Sn3_3 Sn4_5 3.511373 1_555
Sn3_3 Sn4_3 3.511373 1_655
Sn3_4 Sn3_6 3.320170 1_545
Sn3_4 Sn3_6 3.320170 1_555
Sn3_4 Sn4_0 3.511372 1_555
Sn3_4 Sn4_4 3.511373 1_555
Sn3_4 Sn4_2 3.511373 1_545
Sn3_5 Sn3_7 3.320170 1_545
Sn3_5 Sn3_7 3.320170 1_555
Sn3_5 Sn4_1 3.511372 1_555
Sn3_5 Sn4_3 3.511373 1_545
Sn3_5 Sn4_5 3.511373 1_555
Sn3_6 Sn4_2 3.511372 1_555
Sn3_6 Sn4_6 3.511373 1_555
Sn3_6 Sn4_0 3.511373 1_555
Sn3_7 Sn4_3 3.511372 1_555
Sn3_7 Sn4_7 3.511373 1_555
Sn3_7 Sn4_1 3.511373 1_555
