# generated using pymatgen
data_CaSi3
_symmetry_space_group_name_H-M   'P 1'
_cell_length_a   7.64928384
_cell_length_b   7.64928384
_cell_length_c   7.64928384
_cell_angle_alpha   123.34129732
_cell_angle_beta   123.34129732
_cell_angle_gamma   84.30400426
_symmetry_Int_Tables_number   1
_chemical_formula_structural   CaSi3
_chemical_formula_sum   'Ca4 Si12'
_cell_volume   298.88201362
_cell_formula_units_Z   4
loop_
 _symmetry_equiv_pos_site_id
 _symmetry_equiv_pos_as_xyz
  1  'x, y, z'
loop_
 _atom_site_type_symbol
 _atom_site_label
 _atom_site_symmetry_multiplicity
 _atom_site_fract_x
 _atom_site_fract_y
 _atom_site_fract_z
 _atom_site_occupancy
  Ca  Ca0  1  0.82690000  0.82690000  0.00000000  1
  Ca  Ca1  1  0.17310000  0.17310000  0.00000000  1
  Ca  Ca2  1  0.25000000  0.75000000  0.50000000  1
  Ca  Ca3  1  0.75000000  0.25000000  0.50000000  1
  Si  Si0  1  0.33546400  0.00000000  0.33546400  1
  Si  Si1  1  0.66453600  0.00000000  0.66453600  1
  Si  Si2  1  0.00000000  0.66453600  0.66453600  1
  Si  Si3  1  0.00000000  0.33546400  0.33546400  1
  Si  Si4  1  0.20994800  0.20994800  0.62910100  1
  Si  Si5  1  0.58084700  0.58084700  0.37089900  1
  Si  Si6  1  0.20994800  0.58084700  0.00000000  1
  Si  Si7  1  0.58084700  0.20994800  0.00000000  1
  Si  Si8  1  0.79005200  0.79005200  0.37089900  1
  Si  Si9  1  0.41915300  0.41915300  0.62910100  1
  Si  Si10  1  0.79005200  0.41915300  0.00000000  1
  Si  Si11  1  0.41915300  0.79005200  0.00000000  1
loop_
_geom_bond_atom_site_label_1
_geom_bond_atom_site_label_2
_geom_bond_distance
_geom_bond_site_symmetry_2
Ca0 Si3 3.128191 1_665
Ca0 Si1 3.128191 1_564
Ca0 Si2 3.128191 1_654
Ca0 Si0 3.128191 1_665
Ca0 Si8 3.159421 1_555
Ca0 Si9 3.159421 1_554
Ca0 Si10 3.159421 1_555
Ca0 Si11 3.159421 1_555
Ca0 Si5 3.321579 1_554
Ca0 Si4 3.321579 1_665
Ca0 Si7 3.321579 1_565
Ca0 Si6 3.321579 1_655
Ca1 Si0 3.128191 1_555
Ca1 Si1 3.128191 1_454
Ca1 Si3 3.128191 1_555
Ca1 Si2 3.128191 1_544
Ca1 Si7 3.159421 1_555
Ca1 Si5 3.159421 1_555
Ca1 Si6 3.159421 1_555
Ca1 Si4 3.159421 1_554
Ca1 Si11 3.321579 1_545
Ca1 Si8 3.321579 1_444
Ca1 Si10 3.321579 1_455
Ca1 Si9 3.321579 1_555
Ca2 Si1 3.076795 1_565
Ca2 Si0 3.076795 1_565
Ca2 Si2 3.076795 1_555
Ca2 Si3 3.076795 1_555
Ca2 Si8 3.121971 1_455
Ca2 Si4 3.121971 1_565
Ca2 Si10 3.121971 1_455
Ca2 Si11 3.121971 1_556
Ca2 Si7 3.121971 1_566
Ca2 Si5 3.121971 1_555
Ca2 Si9 3.121971 1_555
Ca2 Si6 3.121971 1_555
Ca3 Si0 3.076795 1_555
Ca3 Si1 3.076795 1_555
Ca3 Si3 3.076795 1_655
Ca3 Si2 3.076795 1_655
Ca3 Si4 3.121971 1_655
Ca3 Si11 3.121971 1_545
Ca3 Si8 3.121971 1_545
Ca3 Si5 3.121971 1_555
Ca3 Si9 3.121971 1_555
Ca3 Si7 3.121971 1_555
Ca3 Si6 3.121971 1_656
Ca3 Si10 3.121971 1_556
Si0 Si1 2.388987 1_555
Si0 Si9 2.577834 1_555
Si0 Si6 2.577834 1_545
Si0 Si11 2.577834 1_545
Si0 Si4 2.577834 1_555
Si1 Si5 2.577834 1_545
Si1 Si10 2.577834 1_556
Si1 Si8 2.577834 1_545
Si1 Si7 2.577834 1_556
Si2 Si3 2.388987 1_555
Si2 Si5 2.577834 1_455
Si2 Si8 2.577834 1_455
Si2 Si6 2.577834 1_556
Si3 Si9 2.577834 1_555
Si3 Si7 2.577834 1_455
Si3 Si4 2.577834 1_555
Si4 Si9 2.372773 1_555
Si4 Si6 2.692641 1_556
Si4 Si7 2.692641 1_556
Si5 Si8 2.372773 1_555
Si5 Si7 2.692641 1_555
Si5 Si6 2.692641 1_555
Si10 Si7 2.372773 1_555
Si10 Si3 2.577834 1_655
Si10 Si9 2.692641 1_554
Si10 Si8 2.692641 1_555
Si11 Si6 2.372773 1_555
Si11 Si2 2.577834 1_554
Si11 Si9 2.692641 1_554
Si11 Si8 2.692641 1_555
