# generated using pymatgen
data_Na3GaSe3
_symmetry_space_group_name_H-M   'P 1'
_cell_length_a   7.23137434
_cell_length_b   7.46436753
_cell_length_c   15.05117886
_cell_angle_alpha   60.79256543
_cell_angle_beta   90.00000000
_cell_angle_gamma   90.00000000
_symmetry_Int_Tables_number   1
_chemical_formula_structural   Na3GaSe3
_chemical_formula_sum   'Na12 Ga4 Se12'
_cell_volume   709.13407371
_cell_formula_units_Z   4
loop_
 _symmetry_equiv_pos_site_id
 _symmetry_equiv_pos_as_xyz
  1  'x, y, z'
loop_
 _atom_site_type_symbol
 _atom_site_label
 _atom_site_symmetry_multiplicity
 _atom_site_fract_x
 _atom_site_fract_y
 _atom_site_fract_z
 _atom_site_occupancy
  Na  Na0  1  0.03097916  0.94370397  0.28533019  1
  Na  Na1  1  0.53097916  0.05629603  0.21466981  1
  Na  Na2  1  0.96902084  0.05629603  0.71466981  1
  Na  Na3  1  0.46902084  0.94370397  0.78533019  1
  Na  Na4  1  0.00149017  0.72466660  0.10682742  1
  Na  Na5  1  0.50149017  0.27533340  0.39317258  1
  Na  Na6  1  0.99850983  0.27533340  0.89317258  1
  Na  Na7  1  0.49850983  0.72466660  0.60682742  1
  Na  Na8  1  0.00312302  0.31266000  0.39608768  1
  Na  Na9  1  0.50312302  0.68734000  0.10391232  1
  Na  Na10  1  0.99687698  0.68734000  0.60391232  1
  Na  Na11  1  0.49687698  0.31266000  0.89608768  1
  Ga  Ga0  1  0.64548209  0.66682558  0.41786766  1
  Ga  Ga1  1  0.14548209  0.33317442  0.08213234  1
  Ga  Ga2  1  0.35451791  0.33317442  0.58213234  1
  Ga  Ga3  1  0.85451791  0.66682558  0.91786766  1
  Se  Se0  1  0.80271385  0.34594751  0.07351938  1
  Se  Se1  1  0.30271385  0.65405249  0.42648062  1
  Se  Se2  1  0.19728615  0.65405249  0.92648062  1
  Se  Se3  1  0.69728615  0.34594751  0.57351938  1
  Se  Se4  1  0.24880447  0.34361961  0.22894544  1
  Se  Se5  1  0.74880447  0.65638039  0.27105456  1
  Se  Se6  1  0.75119553  0.65638039  0.77105456  1
  Se  Se7  1  0.25119553  0.34361961  0.72894544  1
  Se  Se8  1  0.75970509  0.95357494  0.42782591  1
  Se  Se9  1  0.25970509  0.04642506  0.07217409  1
  Se  Se10  1  0.24029491  0.04642506  0.57217409  1
  Se  Se11  1  0.74029491  0.95357494  0.92782591  1
loop_
_geom_bond_atom_site_label_1
_geom_bond_atom_site_label_2
_geom_bond_distance
_geom_bond_site_symmetry_2
Na0 Se1 2.926850 1_555
Na0 Se8 2.933891 1_455
Na0 Se5 3.042906 1_455
Na0 Se4 3.104822 1_565
Na0 Se9 3.348993 1_565
Na1 Se0 2.926850 1_555
Na1 Se9 2.933891 1_555
Na1 Se4 3.042906 1_555
Na1 Se5 3.104822 1_545
Na1 Se8 3.348993 1_545
Na2 Se3 2.926850 1_555
Na2 Se10 2.933891 1_655
Na2 Se7 3.042906 1_655
Na2 Se6 3.104822 1_545
Na2 Se11 3.348993 1_545
Na3 Se2 2.926850 1_555
Na3 Se11 2.933891 1_555
Na3 Se6 3.042906 1_555
Na3 Se7 3.104822 1_565
Na3 Se10 3.348993 1_565
Na4 Se9 2.881734 1_565
Na4 Se5 2.911864 1_455
Na4 Se11 3.041874 1_454
Na4 Se4 3.092667 1_555
Na4 Se2 3.323702 1_554
Na4 Se0 3.419354 1_455
Na5 Se8 2.881734 1_545
Na5 Se4 2.911864 1_555
Na5 Se10 3.041874 1_555
Na5 Se5 3.092667 1_555
Na5 Se3 3.323702 1_555
Na5 Se1 3.419354 1_555
Na6 Se11 2.881734 1_545
Na6 Se7 2.911864 1_655
Na6 Se9 3.041874 1_656
Na6 Se6 3.092667 1_555
Na6 Se0 3.323702 1_556
Na6 Se2 3.419354 1_655
Na7 Se10 2.881734 1_565
Na7 Se6 2.911864 1_555
Na7 Se8 3.041874 1_555
Na7 Se7 3.092667 1_555
Na7 Se1 3.323702 1_555
Na7 Se3 3.419354 1_555
Na8 Se10 2.962210 1_555
Na8 Se5 2.965494 1_455
Na8 Se4 2.995175 1_555
Na8 Se8 3.043239 1_445
Na9 Se11 2.962210 1_554
Na9 Se4 2.965494 1_555
Na9 Se5 2.995175 1_555
Na9 Se9 3.043239 1_565
Na10 Se8 2.962210 1_555
Na10 Se7 2.965494 1_655
Na10 Se6 2.995175 1_555
Na10 Se10 3.043239 1_665
Na11 Se9 2.962210 1_556
Na11 Se6 2.965494 1_555
Na11 Se7 2.995175 1_555
Na11 Se11 3.043239 1_545
Ga0 Se8 2.366250 1_555
Ga0 Se5 2.369660 1_555
Ga0 Se3 2.426784 1_555
Ga0 Se1 2.481474 1_555
Ga0 Na7 3.256236 1_555
Ga0 Na5 3.289667 1_555
Ga1 Se9 2.366250 1_555
Ga1 Se4 2.369660 1_555
Ga1 Se2 2.426784 1_554
Ga1 Se0 2.481474 1_455
Ga1 Na6 3.256236 1_454
Ga1 Na4 3.289667 1_555
Ga2 Se10 2.366250 1_555
Ga2 Se7 2.369660 1_555
Ga2 Se1 2.426784 1_555
Ga2 Se3 2.481474 1_555
Ga2 Na5 3.256236 1_555
Ga2 Na7 3.289667 1_555
Ga3 Se11 2.366250 1_555
Ga3 Se6 2.369660 1_555
Ga3 Se0 2.426784 1_556
Ga3 Se2 2.481474 1_655
Ga3 Na4 3.256236 1_656
Ga3 Na6 3.289667 1_555
