# generated using pymatgen
data_Th2Cu(NO)2
_symmetry_space_group_name_H-M   'P 1'
_cell_length_a   6.80174862
_cell_length_b   6.80174862
_cell_length_c   6.80174862
_cell_angle_alpha   145.56177748
_cell_angle_beta   145.56177748
_cell_angle_gamma   49.49813191
_symmetry_Int_Tables_number   1
_chemical_formula_structural   Th2Cu(NO)2
_chemical_formula_sum   'Th2 Cu1 N2 O2'
_cell_volume   100.17076527
_cell_formula_units_Z   1
loop_
 _symmetry_equiv_pos_site_id
 _symmetry_equiv_pos_as_xyz
  1  'x, y, z'
loop_
 _atom_site_type_symbol
 _atom_site_label
 _atom_site_symmetry_multiplicity
 _atom_site_fract_x
 _atom_site_fract_y
 _atom_site_fract_z
 _atom_site_occupancy
  Th  Th0  1  0.65045200  0.65045200  0.00000000  1
  Th  Th1  1  0.34954800  0.34954800  0.00000000  1
  Cu  Cu0  1  0.00000000  0.00000000  0.00000000  1
  N  N0  1  0.25000000  0.75000000  0.50000000  1
  N  N1  1  0.75000000  0.25000000  0.50000000  1
  O  O0  1  0.00000000  0.50000000  0.50000000  1
  O  O1  1  0.50000000  0.00000000  0.50000000  1
loop_
_geom_bond_atom_site_label_1
_geom_bond_atom_site_label_2
_geom_bond_distance
_geom_bond_site_symmetry_2
Cu0 O1 2.013499 1_555
Cu0 O0 2.013499 1_544
Cu0 O1 2.013499 1_454
Cu0 O0 2.013499 1_555
N0 Th1 2.359371 1_555
N0 Th1 2.359371 1_566
N0 Th0 2.359371 1_556
N0 Th0 2.359371 1_455
N1 Th1 2.359371 1_555
N1 Th1 2.359371 1_656
N1 Th0 2.359371 1_545
N1 Th0 2.359371 1_556
O0 Th0 2.740236 1_455
O0 Th0 2.740236 1_556
O0 Th1 2.740236 1_455
O0 Th1 2.740236 1_556
O1 Th0 2.740236 1_545
O1 Th0 2.740236 1_556
O1 Th1 2.740236 1_545
O1 Th1 2.740236 1_556
