# generated using pymatgen
data_Zn(MoO2)2
_symmetry_space_group_name_H-M   'P 1'
_cell_length_a   6.38936582
_cell_length_b   6.38936582
_cell_length_c   15.43857532
_cell_angle_alpha   88.92447136
_cell_angle_beta   88.92447136
_cell_angle_gamma   59.32529861
_symmetry_Int_Tables_number   1
_chemical_formula_structural   Zn(MoO2)2
_chemical_formula_sum   'Zn6 Mo12 O24'
_cell_volume   541.94975763
_cell_formula_units_Z   6
loop_
 _symmetry_equiv_pos_site_id
 _symmetry_equiv_pos_as_xyz
  1  'x, y, z'
loop_
 _atom_site_type_symbol
 _atom_site_label
 _atom_site_symmetry_multiplicity
 _atom_site_fract_x
 _atom_site_fract_y
 _atom_site_fract_z
 _atom_site_occupancy
  Zn  Zn0  1  0.66404200  0.66404200  0.95456000  1
  Zn  Zn1  1  0.99898300  0.99898300  0.62417000  1
  Zn  Zn2  1  0.99939100  0.99939100  0.99609300  1
  Zn  Zn3  1  0.33589100  0.33589100  0.29242500  1
  Zn  Zn4  1  0.66502100  0.66502100  0.70947900  1
  Zn  Zn5  1  0.00068100  0.00068100  0.37545000  1
  Mo  Mo0  1  0.16114500  0.66664900  0.83451500  1
  Mo  Mo1  1  0.66664900  0.16114500  0.83451500  1
  Mo  Mo2  1  0.50241700  0.99807400  0.50044200  1
  Mo  Mo3  1  0.16005200  0.16005200  0.83316000  1
  Mo  Mo4  1  0.33230900  0.33230900  0.66730100  1
  Mo  Mo5  1  0.99807400  0.50241700  0.50044200  1
  Mo  Mo6  1  0.83603100  0.33556600  0.16621000  1
  Mo  Mo7  1  0.50059000  0.50059000  0.50013800  1
  Mo  Mo8  1  0.83664100  0.83664100  0.16563600  1
  Mo  Mo9  1  0.66914200  0.66914200  0.33328000  1
  Mo  Mo10  1  0.33556600  0.83603100  0.16621000  1
  Mo  Mo11  1  0.33228000  0.33228000  0.04235800  1
  O  O0  1  0.31323300  0.83375600  0.91311100  1
  O  O1  1  0.99757500  0.99757500  0.75746900  1
  O  O2  1  0.84172100  0.84172100  0.91799500  1
  O  O3  1  0.83375600  0.31323300  0.91311100  1
  O  O4  1  0.49128700  0.01657800  0.75328000  1
  O  O5  1  0.64931500  0.17096800  0.58021000  1
  O  O6  1  0.48705300  0.48705300  0.75164700  1
  O  O7  1  0.32071500  0.32071500  0.90739700  1
  O  O8  1  0.17632100  0.17632100  0.58254600  1
  O  O9  1  0.33667700  0.33667700  0.42410000  1
  O  O10  1  0.01657800  0.49128700  0.75328000  1
  O  O11  1  0.17096800  0.64931500  0.58021000  1
  O  O12  1  0.83073500  0.35100700  0.41953400  1
  O  O13  1  0.98613600  0.50835700  0.24591600  1
  O  O14  1  0.82433500  0.82433500  0.41777600  1
  O  O15  1  0.66423700  0.66423700  0.57610400  1
  O  O16  1  0.67170500  0.67170500  0.09026000  1
  O  O17  1  0.51383200  0.51383200  0.24940300  1
  O  O18  1  0.35100700  0.83073500  0.41953400  1
  O  O19  1  0.50835700  0.98613600  0.24591600  1
  O  O20  1  0.17192200  0.68424700  0.09090000  1
  O  O21  1  0.99955800  0.99955800  0.24245900  1
  O  O22  1  0.14823600  0.14823600  0.07914900  1
  O  O23  1  0.68424700  0.17192200  0.09090000  1
loop_
_geom_bond_atom_site_label_1
_geom_bond_atom_site_label_2
_geom_bond_distance
_geom_bond_site_symmetry_2
Mo0 O1 2.162263 1_455
Mo0 O2 2.168789 1_455
Mo0 O0 2.169836 1_555
Mo0 O6 2.192426 1_555
Mo0 O10 2.198579 1_555
Mo0 O7 2.200307 1_555
Mo1 O1 2.162263 1_545
Mo1 O2 2.168789 1_545
Mo1 O3 2.169836 1_555
Mo1 O6 2.192426 1_555
Mo1 O4 2.198579 1_555
Mo1 O7 2.200307 1_555
Mo2 O15 2.164443 1_555
Mo2 O14 2.171791 1_555
Mo2 O5 2.184090 1_565
Mo2 O8 2.186058 1_565
Mo2 O18 2.188651 1_555
Mo2 O9 2.191944 1_565
Mo3 O7 2.141180 1_555
Mo3 O0 2.166741 1_545
Mo3 O3 2.166741 1_455
Mo3 O1 2.170630 1_445
Mo3 O4 2.192079 1_555
Mo3 O10 2.192079 1_555
Mo4 O4 2.173166 1_555
Mo4 O10 2.173166 1_555
Mo4 O6 2.178278 1_555
Mo4 O5 2.189159 1_555
Mo4 O11 2.189159 1_555
Mo4 O8 2.193237 1_555
Mo5 O15 2.164443 1_555
Mo5 O14 2.171791 1_555
Mo5 O11 2.184090 1_655
Mo5 O8 2.186058 1_655
Mo5 O12 2.188651 1_555
Mo5 O9 2.191944 1_655
Mo6 O23 2.123245 1_555
Mo6 O16 2.177342 1_555
Mo6 O22 2.177617 1_655
Mo6 O17 2.179033 1_555
Mo6 O21 2.179238 1_545
Mo6 O13 2.197411 1_555
Mo7 O15 2.183944 1_555
Mo7 O11 2.184284 1_555
Mo7 O5 2.184284 1_555
Mo7 O9 2.187053 1_555
Mo7 O12 2.191052 1_555
Mo7 O18 2.191052 1_555
Mo8 O20 2.165558 1_655
Mo8 O23 2.165558 1_565
Mo8 O19 2.179617 1_555
Mo8 O13 2.179617 1_555
Mo8 O21 2.184502 1_555
Mo8 O16 2.191017 1_555
Mo9 O17 2.178885 1_555
Mo9 O14 2.183699 1_555
Mo9 O18 2.186254 1_555
Mo9 O12 2.186254 1_555
Mo9 O19 2.191628 1_555
Mo9 O13 2.191628 1_555
Mo10 O20 2.123245 1_555
Mo10 O16 2.177342 1_555
Mo10 O22 2.177617 1_565
Mo10 O17 2.179033 1_555
Mo10 O21 2.179238 1_455
Mo10 O19 2.197411 1_555
Mo11 O23 2.086189 1_555
Mo11 O20 2.086189 1_555
Mo11 O7 2.090326 1_554
Mo11 O22 2.109260 1_555
O0 Zn0 2.038938 1_555
O0 Zn2 2.138101 1_455
O1 Zn1 2.057668 1_555
O2 Zn0 2.040385 1_555
O2 Zn2 2.147143 1_555
O3 Zn0 2.038938 1_555
O3 Zn2 2.138101 1_545
O4 Zn4 2.054206 1_545
O5 Zn1 2.045373 1_545
O6 Zn4 2.067251 1_555
O8 Zn1 2.058148 1_445
O9 Zn3 2.033082 1_555
O10 Zn4 2.054206 1_455
O11 Zn1 2.045373 1_455
O12 Zn5 2.049892 1_655
O13 Zn3 2.059549 1_655
O14 Zn5 2.050890 1_665
O15 Zn4 2.059326 1_555
O16 Zn0 2.098578 1_554
O17 Zn3 2.070885 1_555
O18 Zn5 2.049892 1_565
O19 Zn3 2.059549 1_565
O20 Zn2 2.257691 1_454
O21 Zn5 2.053499 1_665
O22 Zn2 2.113645 1_444
O23 Zn2 2.257691 1_544
