# generated using pymatgen
data_Li5V3P8O29
_symmetry_space_group_name_H-M   'P 1'
_cell_length_a   9.73866000
_cell_length_b   9.79924000
_cell_length_c   14.11498121
_cell_angle_alpha   88.96818033
_cell_angle_beta   89.18110210
_cell_angle_gamma   60.24028565
_symmetry_Int_Tables_number   1
_chemical_formula_structural   Li5V3P8O29
_chemical_formula_sum   'Li10 V6 P16 O58'
_cell_volume   1169.15020383
_cell_formula_units_Z   2
loop_
 _symmetry_equiv_pos_site_id
 _symmetry_equiv_pos_as_xyz
  1  'x, y, z'
loop_
 _atom_site_type_symbol
 _atom_site_label
 _atom_site_symmetry_multiplicity
 _atom_site_fract_x
 _atom_site_fract_y
 _atom_site_fract_z
 _atom_site_occupancy
  Li  Li0  1  0.23754000  0.09833000  0.55726400  1
  Li  Li1  1  0.09707800  0.66520300  0.56576500  1
  Li  Li2  1  0.23680400  0.65796700  0.06089000  1
  Li  Li3  1  0.67017800  0.09946900  0.06287500  1
  Li  Li4  1  0.66686300  0.23471300  0.55775000  1
  Li  Li5  1  0.76938800  0.31529500  0.93759800  1
  Li  Li6  1  0.66467300  0.67978000  0.10538800  1
  Li  Li7  1  0.90311700  0.33302700  0.43563400  1
  Li  Li8  1  0.06441500  0.98482400  0.99046600  1
  Li  Li9  1  0.02507600  0.95351400  0.49862700  1
  V  V0  1  0.43011600  0.57156000  0.25492900  1
  V  V1  1  0.56265100  0.43638800  0.74866500  1
  V  V2  1  0.43491100  0.99996400  0.75305000  1
  V  V3  1  0.56315900  0.00108900  0.25396300  1
  V  V4  1  0.00398200  0.43479200  0.24372300  1
  V  V5  1  0.99951800  0.56544700  0.75184000  1
  P  P0  1  0.08329900  0.21734400  0.83747200  1
  P  P1  1  0.22102300  0.08354100  0.34394600  1
  P  P2  1  0.08172100  0.68585600  0.34692100  1
  P  P3  1  0.33878700  0.33871600  0.12966400  1
  P  P4  1  0.33568300  0.32904200  0.62987500  1
  P  P5  1  0.22759100  0.68391000  0.84496600  1
  P  P6  1  0.30586600  0.78239100  0.66249400  1
  P  P7  1  0.68566300  0.08614900  0.84616700  1
  P  P8  1  0.30774500  0.91297000  0.15989800  1
  P  P9  1  0.68588700  0.22620800  0.33886600  1
  P  P10  1  0.77241600  0.32166400  0.15616200  1
  P  P11  1  0.67160900  0.66021100  0.36686400  1
  P  P12  1  0.66631300  0.66550200  0.86729600  1
  P  P13  1  0.91242700  0.31917000  0.65461000  1
  P  P14  1  0.78091200  0.91783600  0.66308400  1
  P  P15  1  0.91151100  0.78366600  0.16375900  1
  O  O0  1  0.99508900  0.24074100  0.56362200  1
  O  O1  1  0.07923900  0.25090700  0.33456100  1
  O  O2  1  0.20667200  0.00052100  0.07848900  1
  O  O3  1  0.25702800  0.07866100  0.83287900  1
  O  O4  1  0.07763600  0.37548300  0.83259400  1
  O  O5  1  0.18850300  0.34015700  0.17492300  1
  O  O6  1  0.08324300  0.53090600  0.33376700  1
  O  O7  1  0.01217300  0.79011700  0.08546200  1
  O  O8  1  0.09007600  0.65110100  0.82986400  1
  O  O9  1  0.32487600  0.18637700  0.67791200  1
  O  O10  1  0.37869300  0.08573900  0.32609400  1
  O  O11  1  0.18853800  0.48386000  0.66464400  1
  O  O12  1  0.33352500  0.35888400  0.02479300  1
  O  O13  1  0.34158400  0.31029800  0.52459400  1
  O  O14  1  0.33520900  0.48697700  0.17536200  1
  O  O15  1  0.52628500  0.08970600  0.82666600  1
  O  O16  1  0.48675300  0.18846300  0.16701300  1
  O  O17  1  0.25265600  0.66053800  0.33040000  1
  O  O18  1  0.21345900  0.80448000  0.76265800  1
  O  O19  1  0.19436700  0.79950400  0.58504100  1
  O  O20  1  0.21831800  0.75897700  0.93774400  1
  O  O21  1  0.38401600  0.52758100  0.82770700  1
  O  O22  1  0.48914100  0.32222200  0.66846900  1
  O  O23  1  0.34100800  0.73843300  0.16136100  1
  O  O24  1  0.52794700  0.38294400  0.32436000  1
  O  O25  1  0.66005100  0.08470200  0.33695700  1
  O  O26  1  0.21219500  0.98266400  0.25844100  1
  O  O27  1  0.21487000  0.00999600  0.43683500  1
  O  O28  1  0.79542300  0.01178800  0.58250400  1
  O  O29  1  0.33945100  0.92254900  0.66005100  1
  O  O30  1  0.45984700  0.62515600  0.66871200  1
  O  O31  1  0.66283500  0.25407900  0.83594500  1
  O  O32  1  0.51843500  0.66514700  0.32210200  1
  O  O33  1  0.62021000  0.48315800  0.17174200  1
  O  O34  1  0.76233600  0.23966500  0.06929700  1
  O  O35  1  0.76919600  0.22968300  0.42750500  1
  O  O36  1  0.79317800  0.21097400  0.24770300  1
  O  O37  1  0.74175000  0.34461500  0.65861300  1
  O  O38  1  0.51742000  0.81295300  0.82038300  1
  O  O39  1  0.47159100  0.90202300  0.16877700  1
  O  O40  1  0.67148600  0.51263400  0.83083000  1
  O  O41  1  0.65503600  0.67076400  0.97324100  1
  O  O42  1  0.67215100  0.64388400  0.47164000  1
  O  O43  1  0.81518100  0.50989400  0.32197700  1
  O  O44  1  0.61811100  0.92524200  0.67278400  1
  O  O45  1  0.67298100  0.80724700  0.32546100  1
  O  O46  1  0.91455900  0.34712000  0.15487000  1
  O  O47  1  0.00574300  0.20015000  0.73997100  1
  O  O48  1  0.99627000  0.19056000  0.91757100  1
  O  O49  1  0.90916200  0.47482300  0.67275900  1
  O  O50  1  0.80860400  0.67379700  0.82533700  1
  O  O51  1  0.89632800  0.63284600  0.16894400  1
  O  O52  1  0.73912000  0.92497900  0.16093000  1
  O  O53  1  0.75545600  0.01540100  0.93991700  1
  O  O54  1  0.80308800  0.98662800  0.76203100  1
  O  O55  1  0.91737300  0.74596000  0.66070200  1
  O  O56  1  0.02193500  0.76489700  0.44028500  1
  O  O57  1  0.97862700  0.80454500  0.26357600  1
loop_
_geom_bond_atom_site_label_1
_geom_bond_atom_site_label_2
_geom_bond_distance
_geom_bond_site_symmetry_2
Li0 O27 1.985183 1_555
Li0 O0 2.063477 1_455
Li0 O29 2.076304 1_545
Li0 O9 2.278302 1_555
Li1 O56 1.972788 1_555
Li1 O19 1.990428 1_555
Li1 O55 2.020155 1_455
Li1 O11 2.067364 1_555
Li2 O7 1.940377 1_555
Li2 O20 1.950279 1_554
Li2 O23 2.130372 1_555
Li2 O14 2.165487 1_555
Li3 O53 1.926554 1_554
Li3 O34 1.982906 1_555
Li3 O52 2.022791 1_545
Li3 O16 2.129953 1_555
Li4 O28 1.931715 1_555
Li4 O35 2.068207 1_555
Li4 O37 2.140837 1_555
Li4 O22 2.161209 1_555
Li5 O48 1.941511 1_555
Li5 O34 2.001711 1_556
Li5 O31 2.046185 1_555
Li5 O40 2.241750 1_555
Li6 O41 1.874820 1_554
Li6 O39 2.244096 1_555
Li6 O51 2.262484 1_555
Li6 O33 2.351317 1_555
Li7 O35 2.014771 1_555
Li7 O0 2.016678 1_555
Li7 O1 2.055715 1_655
Li7 O43 2.185541 1_555
Li8 O2 1.937594 1_566
Li8 O48 2.044545 1_465
Li8 O20 2.105388 1_555
Li8 O7 2.559136 1_556
Li9 O19 2.001154 1_555
Li9 O56 2.051090 1_555
Li9 O28 2.326061 1_465
Li9 O27 2.331423 1_565
O0 P13 1.509943 1_555
O1 P1 1.537275 1_555
O1 V4 2.015118 1_555
O2 P8 1.477774 1_545
O3 P0 1.559179 1_555
O3 V2 1.874738 1_545
O4 P0 1.523351 1_555
O4 V5 1.971217 1_455
O5 P3 1.582216 1_555
O5 V4 1.833149 1_555
O6 P2 1.525759 1_555
O6 V4 1.972595 1_555
O7 P15 1.488095 1_455
O8 P5 1.542838 1_555
O8 V5 1.868435 1_455
O9 P4 1.592209 1_555
O9 V2 1.905109 1_545
O10 P1 1.563099 1_555
O10 V3 1.857608 1_555
O11 P4 1.563471 1_555
O11 V5 2.013010 1_455
O12 P3 1.488089 1_555
O13 P4 1.497419 1_555
O14 P3 1.584577 1_555
O14 V0 1.904281 1_555
O15 P7 1.563407 1_555
O15 V2 1.865771 1_545
O16 P3 1.552339 1_555
O16 V3 2.004973 1_555
O17 P2 1.571010 1_555
O17 V0 1.834862 1_555
O18 P5 1.599470 1_555
O18 P6 1.623839 1_555
O19 P6 1.499649 1_555
O20 P5 1.493176 1_555
O21 P5 1.553345 1_555
O21 V1 1.872662 1_555
O22 P4 1.567638 1_555
O22 V1 1.977185 1_555
O23 P8 1.574643 1_555
O23 V0 1.928101 1_555
O24 P9 1.555371 1_555
O24 V0 1.870201 1_555
O25 P9 1.527982 1_555
O25 V3 1.941054 1_555
O26 P1 1.603581 1_565
O26 P8 1.622754 1_555
O27 P1 1.499541 1_555
O28 P14 1.499359 1_545
O29 P6 1.561547 1_555
O29 V2 1.983362 1_555
O30 P6 1.528269 1_555
O30 V1 1.953526 1_555
O31 P7 1.551575 1_555
O31 V1 1.971277 1_555
O32 P11 1.606530 1_555
O32 V0 1.821397 1_555
O33 P10 1.557056 1_555
O33 V0 1.984633 1_555
O34 P10 1.508588 1_555
O35 P9 1.510867 1_555
O36 P9 1.607309 1_555
O36 P10 1.620556 1_555
O37 P13 1.553881 1_555
O37 V1 1.971606 1_555
O38 P12 1.594324 1_555
O38 V2 1.845133 1_555
O39 P8 1.551964 1_555
O39 V3 2.028658 1_565
O40 P12 1.569572 1_555
O40 V1 1.969562 1_555
O41 P12 1.497811 1_555
O42 P11 1.484475 1_555
O43 P11 1.577917 1_555
O43 V4 1.941717 1_655
O44 P14 1.554875 1_555
O44 V2 1.917825 1_555
O45 P11 1.551222 1_555
O45 V3 1.927560 1_565
O46 P10 1.523387 1_555
O46 V4 1.970318 1_655
O47 P13 1.601978 1_455
O47 P0 1.630105 1_555
O48 P0 1.499407 1_655
O49 P13 1.535842 1_555
O49 V5 1.910084 1_555
O50 P12 1.537603 1_555
O50 V5 1.919679 1_555
O51 P15 1.556986 1_555
O51 V4 1.979342 1_655
O52 P15 1.558761 1_555
O52 V3 1.979731 1_565
O53 P7 1.489484 1_555
O54 P7 1.601536 1_565
O54 P14 1.624410 1_555
O55 P14 1.543599 1_555
O55 V5 1.991600 1_555
O56 P2 1.497576 1_555
O57 P2 1.603102 1_655
O57 P15 1.619748 1_555
