# generated using pymatgen
data_CaMn(SiO3)2
_symmetry_space_group_name_H-M   'P 1'
_cell_length_a   5.48510200
_cell_length_b   9.83144900
_cell_length_c   19.22927600
_cell_angle_alpha   90.00000000
_cell_angle_beta   90.00000000
_cell_angle_gamma   90.00000000
_symmetry_Int_Tables_number   1
_chemical_formula_structural   CaMn(SiO3)2
_chemical_formula_sum   'Ca8 Mn8 Si16 O48'
_cell_volume   1036.96756323
_cell_formula_units_Z   8
loop_
 _symmetry_equiv_pos_site_id
 _symmetry_equiv_pos_as_xyz
  1  'x, y, z'
loop_
 _atom_site_type_symbol
 _atom_site_label
 _atom_site_symmetry_multiplicity
 _atom_site_fract_x
 _atom_site_fract_y
 _atom_site_fract_z
 _atom_site_occupancy
  Ca  Ca0  1  0.61186200  0.14508500  0.37744300  1
  Ca  Ca1  1  0.38813800  0.85491500  0.62255700  1
  Ca  Ca2  1  0.61186200  0.64508500  0.12255700  1
  Ca  Ca3  1  0.11186200  0.85491500  0.12255700  1
  Ca  Ca4  1  0.88813800  0.14508500  0.87744300  1
  Ca  Ca5  1  0.38813800  0.35491500  0.87744300  1
  Ca  Ca6  1  0.11186200  0.35491500  0.37744300  1
  Ca  Ca7  1  0.88813800  0.64508500  0.62255700  1
  Mn  Mn0  1  0.38568000  0.98947300  0.87306200  1
  Mn  Mn1  1  0.61432000  0.01052700  0.12693800  1
  Mn  Mn2  1  0.88568000  0.01052700  0.62693800  1
  Mn  Mn3  1  0.11432000  0.98947300  0.37306200  1
  Mn  Mn4  1  0.38568000  0.48947300  0.62693800  1
  Mn  Mn5  1  0.61432000  0.51052700  0.37306200  1
  Mn  Mn6  1  0.88568000  0.51052700  0.87306200  1
  Mn  Mn7  1  0.11432000  0.48947300  0.12693800  1
  Si  Si0  1  0.55738100  0.66602200  0.77329200  1
  Si  Si1  1  0.74121600  0.83187800  0.47537700  1
  Si  Si2  1  0.75878400  0.83187800  0.97537700  1
  Si  Si3  1  0.94261900  0.16602200  0.22670800  1
  Si  Si4  1  0.05738100  0.33397800  0.72670800  1
  Si  Si5  1  0.44261900  0.83397800  0.27329200  1
  Si  Si6  1  0.24121600  0.66812200  0.47537700  1
  Si  Si7  1  0.74121600  0.33187800  0.02462300  1
  Si  Si8  1  0.75878400  0.33187800  0.52462300  1
  Si  Si9  1  0.94261900  0.66602200  0.27329200  1
  Si  Si10  1  0.44261900  0.33397800  0.22670800  1
  Si  Si11  1  0.55738100  0.16602200  0.72670800  1
  Si  Si12  1  0.25878400  0.16812200  0.52462300  1
  Si  Si13  1  0.05738100  0.83397800  0.77329200  1
  Si  Si14  1  0.25878400  0.66812200  0.97537700  1
  Si  Si15  1  0.24121600  0.16812200  0.02462300  1
  O  O0  1  0.92715600  0.52155400  0.31340700  1
  O  O1  1  0.30685200  0.03279100  0.06828900  1
  O  O2  1  0.07284400  0.47844600  0.68659300  1
  O  O3  1  0.74544800  0.34677100  0.93960000  1
  O  O4  1  0.24544800  0.15322900  0.93960000  1
  O  O5  1  0.95559800  0.21618300  0.04561600  1
  O  O6  1  0.95759600  0.65703400  0.18844500  1
  O  O7  1  0.04240400  0.84296600  0.68844500  1
  O  O8  1  0.74544800  0.84677100  0.56040000  1
  O  O9  1  0.95759600  0.15703400  0.31155500  1
  O  O10  1  0.42715600  0.47844600  0.18659300  1
  O  O11  1  0.75455200  0.34677100  0.43960000  1
  O  O12  1  0.69314800  0.96720900  0.93171100  1
  O  O13  1  0.45759600  0.84296600  0.18844500  1
  O  O14  1  0.57284400  0.02155400  0.68659300  1
  O  O15  1  0.30685200  0.53279100  0.43171100  1
  O  O16  1  0.42715600  0.97844600  0.31340700  1
  O  O17  1  0.18122800  0.75884700  0.29888700  1
  O  O18  1  0.31877200  0.75884700  0.79888700  1
  O  O19  1  0.54440200  0.71618300  0.95438400  1
  O  O20  1  0.75455200  0.84677100  0.06040000  1
  O  O21  1  0.54240400  0.65703400  0.68844500  1
  O  O22  1  0.80685200  0.46720900  0.06828900  1
  O  O23  1  0.18122800  0.25884700  0.20111300  1
  O  O24  1  0.25455200  0.15322900  0.43960000  1
  O  O25  1  0.54240400  0.15703400  0.81155500  1
  O  O26  1  0.69314800  0.46720900  0.56828900  1
  O  O27  1  0.24544800  0.65322900  0.56040000  1
  O  O28  1  0.19314800  0.53279100  0.93171100  1
  O  O29  1  0.68122800  0.74115300  0.29888700  1
  O  O30  1  0.07284400  0.97844600  0.81340700  1
  O  O31  1  0.81877200  0.74115300  0.79888700  1
  O  O32  1  0.81877200  0.24115300  0.70111300  1
  O  O33  1  0.80685200  0.96720900  0.43171100  1
  O  O34  1  0.25455200  0.65322900  0.06040000  1
  O  O35  1  0.19314800  0.03279100  0.56828900  1
  O  O36  1  0.31877200  0.25884700  0.70111300  1
  O  O37  1  0.04440200  0.78381700  0.95438400  1
  O  O38  1  0.45559800  0.78381700  0.45438400  1
  O  O39  1  0.68122800  0.24115300  0.20111300  1
  O  O40  1  0.45559800  0.28381700  0.04561600  1
  O  O41  1  0.54440200  0.21618300  0.54561600  1
  O  O42  1  0.04440200  0.28381700  0.54561600  1
  O  O43  1  0.45759600  0.34296600  0.31155500  1
  O  O44  1  0.57284400  0.52155400  0.81340700  1
  O  O45  1  0.95559800  0.71618300  0.45438400  1
  O  O46  1  0.04240400  0.34296600  0.81155500  1
  O  O47  1  0.92715600  0.02155400  0.18659300  1
loop_
_geom_bond_atom_site_label_1
_geom_bond_atom_site_label_2
_geom_bond_distance
_geom_bond_site_symmetry_2
Ca0 O9 2.283707 1_555
Ca0 O16 2.286205 1_545
Ca0 O24 2.296983 1_555
Ca0 O33 2.300241 1_545
Ca0 O11 2.443954 1_555
Ca0 O43 2.471039 1_555
Ca1 O7 2.283707 1_555
Ca1 O14 2.286205 1_565
Ca1 O8 2.296983 1_555
Ca1 O35 2.300241 1_565
Ca1 O27 2.443954 1_555
Ca1 O21 2.471039 1_555
Ca2 O6 2.283707 1_555
Ca2 O10 2.286205 1_555
Ca2 O34 2.296983 1_555
Ca2 O22 2.300241 1_555
Ca2 O20 2.443954 1_555
Ca2 O13 2.471039 1_555
Ca3 O13 2.283707 1_555
Ca3 O47 2.286205 1_465
Ca3 O20 2.296983 1_455
Ca3 O1 2.300241 1_565
Ca3 O34 2.443954 1_555
Ca3 O6 2.471039 1_455
Ca4 O25 2.283707 1_555
Ca4 O30 2.286205 1_645
Ca4 O4 2.296983 1_655
Ca4 O12 2.300241 1_545
Ca4 O3 2.443954 1_555
Ca4 O46 2.471039 1_655
Ca5 O46 2.283707 1_555
Ca5 O44 2.286205 1_555
Ca5 O3 2.296983 1_555
Ca5 O28 2.300241 1_555
Ca5 O4 2.443954 1_555
Ca5 O25 2.471039 1_555
Ca6 O43 2.283707 1_555
Ca6 O0 2.286205 1_455
Ca6 O11 2.296983 1_455
Ca6 O15 2.300241 1_555
Ca6 O24 2.443954 1_555
Ca6 O9 2.471039 1_455
Ca7 O21 2.283707 1_555
Ca7 O2 2.286205 1_655
Ca7 O27 2.296983 1_655
Ca7 O26 2.300241 1_555
Ca7 O8 2.443954 1_555
Ca7 O7 2.471039 1_655
Mn0 O12 2.040601 1_555
Mn0 O30 2.066902 1_555
Mn0 O4 2.195604 1_565
Mn0 O25 2.202652 1_565
Mn0 O18 2.703730 1_555
Mn1 O1 2.040601 1_555
Mn1 O47 2.066902 1_555
Mn1 O20 2.195604 1_545
Mn1 O13 2.202652 1_545
Mn1 O39 2.703730 1_555
Mn2 O35 2.040601 1_655
Mn2 O14 2.066902 1_555
Mn2 O8 2.195604 1_545
Mn2 O7 2.202652 1_645
Mn2 O32 2.703730 1_555
Mn3 O33 2.040601 1_455
Mn3 O16 2.066902 1_555
Mn3 O24 2.195604 1_565
Mn3 O9 2.202652 1_465
Mn3 O17 2.703730 1_555
Mn4 O26 2.040601 1_555
Mn4 O2 2.066902 1_555
Mn4 O27 2.195604 1_555
Mn4 O21 2.202652 1_555
Mn4 O36 2.703730 1_555
Mn5 O15 2.040601 1_555
Mn5 O0 2.066902 1_555
Mn5 O11 2.195604 1_555
Mn5 O43 2.202652 1_555
Mn5 O29 2.703730 1_555
Mn6 O28 2.040601 1_655
Mn6 O44 2.066902 1_555
Mn6 O3 2.195604 1_555
Mn6 O46 2.202652 1_655
Mn6 O31 2.703730 1_555
Mn7 O22 2.040601 1_455
Mn7 O10 2.066902 1_555
Mn7 O34 2.195604 1_555
Mn7 O6 2.202652 1_455
Mn7 O23 2.703730 1_555
O0 Si9 1.618506 1_555
O1 Si15 1.613965 1_555
O2 Si4 1.618506 1_555
O3 Si7 1.641638 1_556
O4 Si15 1.641638 1_556
O5 Si7 1.685084 1_555
O5 Si15 1.685407 1_655
O6 Si9 1.636001 1_555
O7 Si13 1.636001 1_555
O8 Si1 1.641638 1_555
O9 Si3 1.636001 1_555
O10 Si10 1.618506 1_555
O11 Si8 1.641638 1_555
O12 Si2 1.613965 1_555
O13 Si5 1.636001 1_555
O14 Si11 1.618506 1_555
O15 Si6 1.613965 1_555
O16 Si5 1.618506 1_555
O17 Si9 1.669738 1_455
O17 Si5 1.686265 1_555
O18 Si0 1.669738 1_555
O18 Si13 1.686265 1_555
O19 Si2 1.685084 1_555
O19 Si14 1.685407 1_555
O20 Si2 1.641638 1_554
O21 Si0 1.636001 1_555
O22 Si7 1.613965 1_555
O23 Si3 1.669738 1_455
O23 Si10 1.686265 1_555
O24 Si12 1.641638 1_555
O25 Si11 1.636001 1_555
O26 Si8 1.613965 1_555
O27 Si6 1.641638 1_555
O28 Si14 1.613965 1_555
O29 Si5 1.669738 1_555
O29 Si9 1.686265 1_555
O30 Si13 1.618506 1_555
O31 Si13 1.669738 1_655
O31 Si0 1.686265 1_555
O32 Si4 1.669738 1_655
O32 Si11 1.686265 1_555
O33 Si1 1.613965 1_555
O34 Si14 1.641638 1_554
O35 Si12 1.613965 1_555
O36 Si11 1.669738 1_555
O36 Si4 1.686265 1_555
O37 Si14 1.685084 1_555
O37 Si2 1.685407 1_455
O38 Si6 1.685084 1_555
O38 Si1 1.685407 1_555
O39 Si10 1.669738 1_555
O39 Si3 1.686265 1_555
O40 Si15 1.685084 1_555
O40 Si7 1.685407 1_555
O41 Si8 1.685084 1_555
O41 Si12 1.685407 1_555
O42 Si12 1.685084 1_555
O42 Si8 1.685407 1_455
O43 Si10 1.636001 1_555
O44 Si0 1.618506 1_555
O45 Si1 1.685084 1_555
O45 Si6 1.685407 1_655
O46 Si4 1.636001 1_555
O47 Si3 1.618506 1_555
