# generated using pymatgen
data_Ca2V2O5
_symmetry_space_group_name_H-M   'P 1'
_cell_length_a   3.97194800
_cell_length_b   5.52550000
_cell_length_c   10.26906100
_cell_angle_alpha   90.00000000
_cell_angle_beta   90.00000000
_cell_angle_gamma   90.00000000
_symmetry_Int_Tables_number   1
_chemical_formula_structural   Ca2V2O5
_chemical_formula_sum   'Ca4 V4 O10'
_cell_volume   225.37506815
_cell_formula_units_Z   2
loop_
 _symmetry_equiv_pos_site_id
 _symmetry_equiv_pos_as_xyz
  1  'x, y, z'
loop_
 _atom_site_type_symbol
 _atom_site_label
 _atom_site_symmetry_multiplicity
 _atom_site_fract_x
 _atom_site_fract_y
 _atom_site_fract_z
 _atom_site_occupancy
  Ca  Ca0  1  0.50000000  0.70874800  0.37533400  1
  Ca  Ca1  1  0.50000000  0.29125200  0.62466600  1
  Ca  Ca2  1  0.50000000  0.20874800  0.12466600  1
  Ca  Ca3  1  0.50000000  0.79125200  0.87533400  1
  V  V0  1  0.00000000  0.72530600  0.12688900  1
  V  V1  1  0.00000000  0.27469400  0.87311100  1
  V  V2  1  0.00000000  0.77469400  0.62688900  1
  V  V3  1  0.00000000  0.22530600  0.37311100  1
  O  O0  1  0.00000000  0.00000000  0.00000000  1
  O  O1  1  0.00000000  0.60322100  0.79887000  1
  O  O2  1  0.00000000  0.10322100  0.70113000  1
  O  O3  1  0.00000000  0.89677900  0.29887000  1
  O  O4  1  0.50000000  0.78836600  0.60669600  1
  O  O5  1  0.50000000  0.21163400  0.39330400  1
  O  O6  1  0.00000000  0.39677900  0.20113000  1
  O  O7  1  0.50000000  0.71163400  0.10669600  1
  O  O8  1  0.00000000  0.50000000  0.50000000  1
  O  O9  1  0.50000000  0.28836600  0.89330400  1
loop_
_geom_bond_atom_site_label_1
_geom_bond_atom_site_label_2
_geom_bond_distance
_geom_bond_site_symmetry_2
Ca0 O3 2.374890 1_555
Ca0 O3 2.374890 1_655
Ca0 O4 2.416257 1_555
Ca0 O8 2.629340 1_555
Ca0 O8 2.629340 1_655
Ca0 O5 2.752995 1_555
Ca0 O7 2.758706 1_555
Ca0 O5 2.784817 1_565
Ca1 O2 2.374890 1_655
Ca1 O2 2.374890 1_555
Ca1 O5 2.416257 1_555
Ca1 O8 2.629340 1_555
Ca1 O8 2.629340 1_655
Ca1 O4 2.752995 1_555
Ca1 O9 2.758706 1_555
Ca1 O4 2.784817 1_545
Ca2 O6 2.374890 1_555
Ca2 O6 2.374890 1_655
Ca2 O9 2.416257 1_554
Ca2 O0 2.629340 1_655
Ca2 O0 2.629340 1_555
Ca2 O7 2.752995 1_545
Ca2 O5 2.758706 1_555
Ca2 O7 2.784817 1_555
Ca3 O1 2.374890 1_555
Ca3 O1 2.374890 1_655
Ca3 O7 2.416257 1_556
Ca3 O0 2.629340 1_566
Ca3 O0 2.629340 1_666
Ca3 O9 2.752995 1_565
Ca3 O4 2.758706 1_555
Ca3 O9 2.784817 1_555
O0 V0 2.000418 1_545
O0 V1 2.000418 1_554
O1 V1 1.968872 1_555
O1 V2 2.004185 1_555
O2 V2 1.968872 1_545
O2 V1 2.004185 1_555
O3 V3 1.968872 1_565
O3 V0 2.004185 1_555
O4 V2 1.998199 1_555
O4 V2 1.998199 1_655
O5 V3 1.998199 1_555
O5 V3 1.998199 1_655
O6 V0 1.968872 1_555
O6 V3 2.004185 1_555
O7 V0 1.998199 1_555
O7 V0 1.998199 1_655
O8 V2 2.000418 1_555
O8 V3 2.000418 1_555
O9 V1 1.998199 1_655
O9 V1 1.998199 1_555
