# generated using pymatgen
data_Ba3Ti4Sb4O21
_symmetry_space_group_name_H-M   'P 1'
_cell_length_a   9.09698379
_cell_length_b   9.09698379
_cell_length_c   12.05451147
_cell_angle_alpha   89.73779186
_cell_angle_beta   89.73779186
_cell_angle_gamma   60.09264803
_symmetry_Int_Tables_number   1
_chemical_formula_structural   Ba3Ti4Sb4O21
_chemical_formula_sum   'Ba6 Ti8 Sb8 O42'
_cell_volume   864.71643173
_cell_formula_units_Z   2
loop_
 _symmetry_equiv_pos_site_id
 _symmetry_equiv_pos_as_xyz
  1  'x, y, z'
loop_
 _atom_site_type_symbol
 _atom_site_label
 _atom_site_symmetry_multiplicity
 _atom_site_fract_x
 _atom_site_fract_y
 _atom_site_fract_z
 _atom_site_occupancy
  Ba  Ba0  1  0.40627100  0.99977100  0.24939600  1
  Ba  Ba1  1  0.00022900  0.59372900  0.25060400  1
  Ba  Ba2  1  0.59084300  0.40915700  0.25000000  1
  Ba  Ba3  1  0.59372900  0.00022900  0.75060400  1
  Ba  Ba4  1  0.99977100  0.40627100  0.74939600  1
  Ba  Ba5  1  0.40915700  0.59084300  0.75000000  1
  Ti  Ti0  1  0.99656700  0.25235700  0.40072800  1
  Ti  Ti1  1  0.24717100  0.74818600  0.40227700  1
  Ti  Ti2  1  0.00343300  0.74764300  0.59927200  1
  Ti  Ti3  1  0.75282900  0.25181400  0.59772300  1
  Ti  Ti4  1  0.25235700  0.99656700  0.90072800  1
  Ti  Ti5  1  0.74818600  0.24717100  0.90227700  1
  Ti  Ti6  1  0.74764300  0.00343300  0.09927200  1
  Ti  Ti7  1  0.25181400  0.75282900  0.09772300  1
  Sb  Sb0  1  0.33432900  0.33167300  0.50017800  1
  Sb  Sb1  1  0.66567100  0.66832700  0.49982200  1
  Sb  Sb2  1  0.66832700  0.66567100  0.99982200  1
  Sb  Sb3  1  0.33167300  0.33432900  0.00017800  1
  Sb  Sb4  1  0.76220600  0.00000100  0.41358000  1
  Sb  Sb5  1  0.23779400  0.99999900  0.58642000  1
  Sb  Sb6  1  0.00000100  0.76220600  0.91358000  1
  Sb  Sb7  1  0.99999900  0.23779400  0.08642000  1
  O  O0  1  0.31328100  0.51690100  0.39909700  1
  O  O1  1  0.51331900  0.16913500  0.39418000  1
  O  O2  1  0.16827900  0.31387400  0.40212200  1
  O  O3  1  0.82921500  0.48356700  0.39966600  1
  O  O4  1  0.68166300  0.83177600  0.39408000  1
  O  O5  1  0.48068100  0.68733700  0.40165200  1
  O  O6  1  0.68671900  0.48309900  0.60090300  1
  O  O7  1  0.48668100  0.83086500  0.60582000  1
  O  O8  1  0.83172100  0.68612600  0.59787800  1
  O  O9  1  0.17078500  0.51643300  0.60033400  1
  O  O10  1  0.31833700  0.16822400  0.60592000  1
  O  O11  1  0.51931900  0.31266300  0.59834800  1
  O  O12  1  0.68733700  0.48068100  0.90165200  1
  O  O13  1  0.48356700  0.82921500  0.89966600  1
  O  O14  1  0.83177600  0.68166300  0.89408000  1
  O  O15  1  0.16913500  0.51331900  0.89418000  1
  O  O16  1  0.31387400  0.16827900  0.90212200  1
  O  O17  1  0.51690100  0.31328100  0.89909700  1
  O  O18  1  0.31266300  0.51931900  0.09834800  1
  O  O19  1  0.51643300  0.17078500  0.10033400  1
  O  O20  1  0.16822400  0.31833700  0.10592000  1
  O  O21  1  0.83086500  0.48668100  0.10582000  1
  O  O22  1  0.68612600  0.83172100  0.09787800  1
  O  O23  1  0.48309900  0.68671900  0.10090300  1
  O  O24  1  0.19989700  0.00047200  0.42220500  1
  O  O25  1  0.99948200  0.79758900  0.42640000  1
  O  O26  1  0.79666900  0.20256500  0.42557900  1
  O  O27  1  0.80010300  0.99952800  0.57779500  1
  O  O28  1  0.00051800  0.20241100  0.57360000  1
  O  O29  1  0.20333100  0.79743500  0.57442100  1
  O  O30  1  0.79758900  0.99948200  0.92640000  1
  O  O31  1  0.00047200  0.19989700  0.92220500  1
  O  O32  1  0.20256500  0.79666900  0.92557900  1
  O  O33  1  0.20241100  0.00051800  0.07360000  1
  O  O34  1  0.99952800  0.80010300  0.07779500  1
  O  O35  1  0.79743500  0.20333100  0.07442100  1
  O  O36  1  0.78271800  0.99912600  0.24989000  1
  O  O37  1  0.00087400  0.21728200  0.25011000  1
  O  O38  1  0.21681900  0.78318100  0.25000000  1
  O  O39  1  0.21728200  0.00087400  0.75011000  1
  O  O40  1  0.99912600  0.78271800  0.74989000  1
  O  O41  1  0.78318100  0.21681900  0.75000000  1
loop_
_geom_bond_atom_site_label_1
_geom_bond_atom_site_label_2
_geom_bond_distance
_geom_bond_site_symmetry_2
Ba0 O24 2.795784 1_565
Ba0 O4 2.802021 1_555
Ba0 O1 2.811489 1_565
Ba0 O33 2.820153 1_565
Ba0 O19 2.857600 1_565
Ba0 O22 2.873382 1_555
Ba0 O20 3.132000 1_565
Ba0 O23 3.138974 1_555
Ba0 O5 3.154368 1_555
Ba0 O2 3.175545 1_565
Ba0 O38 3.199752 1_555
Ba0 O37 3.199835 1_565
Ba1 O34 2.795784 1_455
Ba1 O20 2.802021 1_555
Ba1 O21 2.811489 1_455
Ba1 O25 2.820153 1_455
Ba1 O3 2.857600 1_455
Ba1 O2 2.873382 1_555
Ba1 O4 3.132000 1_455
Ba1 O0 3.138974 1_555
Ba1 O18 3.154368 1_555
Ba1 O22 3.175545 1_455
Ba1 O38 3.199752 1_555
Ba1 O36 3.199835 1_455
Ba2 O35 2.829901 1_555
Ba2 O26 2.829901 1_555
Ba2 O23 2.841325 1_555
Ba2 O0 2.841325 1_555
Ba2 O18 2.871724 1_555
Ba2 O5 2.871724 1_555
Ba2 O21 3.126537 1_555
Ba2 O1 3.126537 1_555
Ba3 O27 2.795784 1_545
Ba3 O10 2.802021 1_555
Ba3 O7 2.811489 1_545
Ba3 O30 2.820153 1_545
Ba3 O13 2.857600 1_545
Ba3 O16 2.873382 1_555
Ba3 O14 3.132000 1_545
Ba3 O17 3.138974 1_555
Ba3 O11 3.154368 1_555
Ba3 O8 3.175545 1_545
Ba3 O41 3.199752 1_555
Ba3 O40 3.199835 1_545
Ba4 O31 2.795784 1_655
Ba4 O14 2.802021 1_555
Ba4 O15 2.811489 1_655
Ba4 O28 2.820153 1_655
Ba4 O9 2.857600 1_655
Ba4 O8 2.873382 1_555
Ba4 O10 3.132000 1_655
Ba4 O6 3.138974 1_555
Ba4 O12 3.154368 1_555
Ba4 O16 3.175545 1_655
Ba4 O41 3.199752 1_555
Ba4 O39 3.199835 1_655
Ba5 O32 2.829901 1_555
Ba5 O29 2.829901 1_555
Ba5 O6 2.841325 1_555
Ba5 O17 2.841325 1_555
Ba5 O11 2.871724 1_555
Ba5 O12 2.871724 1_555
Ba5 O7 3.126537 1_555
Ba5 O15 3.126537 1_555
O0 Ti1 1.878478 1_555
O0 Sb0 2.005555 1_555
O1 Sb0 2.016834 1_555
O1 Sb4 2.018903 1_555
O2 Ti0 1.904082 1_455
O2 Sb0 1.991770 1_555
O3 Ti0 1.883776 1_555
O3 Sb1 2.001150 1_555
O4 Sb1 2.013319 1_555
O4 Sb4 2.014211 1_565
O5 Ti1 1.909497 1_555
O5 Sb1 1.997112 1_555
O6 Ti3 1.878478 1_555
O6 Sb1 2.005555 1_555
O7 Sb1 2.016834 1_555
O7 Sb5 2.018903 1_555
O8 Ti2 1.904082 1_655
O8 Sb1 1.991770 1_555
O9 Ti2 1.883776 1_555
O9 Sb0 2.001150 1_555
O10 Sb0 2.013319 1_555
O10 Sb5 2.014211 1_545
O11 Ti3 1.909497 1_555
O11 Sb0 1.997112 1_555
O12 Ti5 1.909497 1_555
O12 Sb2 1.997112 1_555
O13 Ti4 1.883776 1_555
O13 Sb2 2.001150 1_555
O14 Sb2 2.013319 1_555
O14 Sb6 2.014211 1_655
O15 Sb3 2.016834 1_556
O15 Sb6 2.018903 1_555
O16 Ti4 1.904082 1_545
O16 Sb3 1.991770 1_556
O17 Ti5 1.878478 1_555
O17 Sb3 2.005555 1_556
O18 Ti7 1.909497 1_555
O18 Sb3 1.997112 1_555
O19 Ti6 1.883776 1_555
O19 Sb3 2.001150 1_555
O20 Sb3 2.013319 1_555
O20 Sb7 2.014211 1_455
O21 Sb2 2.016834 1_554
O21 Sb7 2.018903 1_555
O22 Ti6 1.904082 1_565
O22 Sb2 1.991770 1_554
O23 Ti7 1.878478 1_555
O23 Sb2 2.005555 1_554
O24 Sb5 2.010499 1_545
O24 Ti0 2.123988 1_455
O24 Ti1 2.128321 1_545
O25 Sb4 2.027456 1_565
O25 Ti1 2.085413 1_655
O25 Ti2 2.127453 1_655
O26 Sb4 2.023309 1_555
O26 Ti0 2.101640 1_555
O26 Ti3 2.118636 1_555
O27 Sb4 2.010499 1_565
O27 Ti2 2.123988 1_655
O27 Ti3 2.128321 1_565
O28 Sb5 2.027456 1_545
O28 Ti3 2.085413 1_455
O28 Ti0 2.127453 1_455
O29 Sb5 2.023309 1_555
O29 Ti2 2.101640 1_555
O29 Ti1 2.118636 1_555
O30 Sb6 2.027456 1_655
O30 Ti5 2.085413 1_565
O30 Ti6 2.127453 1_566
O31 Sb7 2.010499 1_456
O31 Ti4 2.123988 1_545
O31 Ti5 2.128321 1_455
O32 Sb6 2.023309 1_555
O32 Ti4 2.101640 1_555
O32 Ti7 2.118636 1_556
O33 Sb7 2.027456 1_455
O33 Ti7 2.085413 1_545
O33 Ti4 2.127453 1_544
O34 Sb6 2.010499 1_654
O34 Ti6 2.123988 1_565
O34 Ti7 2.128321 1_655
O35 Sb7 2.023309 1_555
O35 Ti6 2.101640 1_555
O35 Ti5 2.118636 1_554
O36 Ti6 1.841746 1_565
O36 Sb4 1.980834 1_565
O37 Ti0 1.841746 1_455
O37 Sb7 1.980834 1_455
O38 Ti7 1.859769 1_555
O38 Ti1 1.859769 1_555
O39 Ti4 1.841746 1_545
O39 Sb5 1.980834 1_545
O40 Ti2 1.841746 1_655
O40 Sb6 1.980834 1_655
O41 Ti3 1.859769 1_555
O41 Ti5 1.859769 1_555
