# generated using pymatgen
data_CaAl12O19
_symmetry_space_group_name_H-M   'P 1'
_cell_length_a   5.61109181
_cell_length_b   5.61109181
_cell_length_c   22.06773100
_cell_angle_alpha   90.00000000
_cell_angle_beta   90.00000000
_cell_angle_gamma   119.99999780
_symmetry_Int_Tables_number   1
_chemical_formula_structural   CaAl12O19
_chemical_formula_sum   'Ca2 Al24 O38'
_cell_volume   601.70424143
_cell_formula_units_Z   2
loop_
 _symmetry_equiv_pos_site_id
 _symmetry_equiv_pos_as_xyz
  1  'x, y, z'
loop_
 _atom_site_type_symbol
 _atom_site_label
 _atom_site_symmetry_multiplicity
 _atom_site_fract_x
 _atom_site_fract_y
 _atom_site_fract_z
 _atom_site_occupancy
  Ca  Ca0  1  0.33333300  0.66666700  0.74913100  1
  Ca  Ca1  1  0.66666700  0.33333300  0.24913100  1
  Al  Al0  1  0.66666700  0.33333300  0.69085200  1
  Al  Al1  1  0.33333300  0.66666700  0.30894000  1
  Al  Al2  1  0.33333300  0.66666700  0.19085200  1
  Al  Al3  1  0.66666700  0.33333300  0.80894000  1
  Al  Al4  1  0.66666700  0.33333300  0.52842300  1
  Al  Al5  1  0.33333300  0.66666700  0.47206000  1
  Al  Al6  1  0.33333300  0.66666700  0.02842300  1
  Al  Al7  1  0.66666700  0.33333300  0.97206000  1
  Al  Al8  1  0.00000000  0.00000000  0.50033500  1
  Al  Al9  1  0.00000000  0.00000000  0.00033500  1
  Al  Al10  1  0.83090700  0.66181300  0.39108100  1
  Al  Al11  1  0.83090700  0.16909300  0.39108100  1
  Al  Al12  1  0.33818700  0.16909300  0.39108100  1
  Al  Al13  1  0.16784000  0.33568000  0.60970400  1
  Al  Al14  1  0.16784000  0.83216000  0.60970400  1
  Al  Al15  1  0.66432000  0.83216000  0.60970400  1
  Al  Al16  1  0.16909300  0.33818700  0.89108100  1
  Al  Al17  1  0.16909300  0.83090700  0.89108100  1
  Al  Al18  1  0.66181300  0.83090700  0.89108100  1
  Al  Al19  1  0.83216000  0.66432000  0.10970400  1
  Al  Al20  1  0.83216000  0.16784000  0.10970400  1
  Al  Al21  1  0.33568000  0.16784000  0.10970400  1
  Al  Al22  1  0.00000000  0.00000000  0.75682100  1
  Al  Al23  1  0.00000000  0.00000000  0.25682100  1
  O  O0  1  0.49678900  0.99357700  0.64942100  1
  O  O1  1  0.49678900  0.50321100  0.64942100  1
  O  O2  1  0.00642300  0.50321100  0.64942100  1
  O  O3  1  0.50346700  0.00693500  0.35084100  1
  O  O4  1  0.50346700  0.49653300  0.35084100  1
  O  O5  1  0.99306500  0.49653300  0.35084100  1
  O  O6  1  0.50321100  0.00642300  0.14942100  1
  O  O7  1  0.50321100  0.49678900  0.14942100  1
  O  O8  1  0.99357700  0.49678900  0.14942100  1
  O  O9  1  0.49653300  0.99306500  0.85084100  1
  O  O10  1  0.49653300  0.50346700  0.85084100  1
  O  O11  1  0.00693500  0.50346700  0.85084100  1
  O  O12  1  0.00000000  0.00000000  0.64864200  1
  O  O13  1  0.00000000  0.00000000  0.34965500  1
  O  O14  1  0.00000000  0.00000000  0.14864200  1
  O  O15  1  0.00000000  0.00000000  0.84965500  1
  O  O16  1  0.84461400  0.68922700  0.55185000  1
  O  O17  1  0.84461400  0.15538600  0.55185000  1
  O  O18  1  0.31077300  0.15538600  0.55185000  1
  O  O19  1  0.15477100  0.30954100  0.44749800  1
  O  O20  1  0.15477100  0.84522900  0.44749800  1
  O  O21  1  0.69045900  0.84522900  0.44749800  1
  O  O22  1  0.15538600  0.31077300  0.05185000  1
  O  O23  1  0.15538600  0.84461400  0.05185000  1
  O  O24  1  0.68922700  0.84461400  0.05185000  1
  O  O25  1  0.84522900  0.69045900  0.94749800  1
  O  O26  1  0.84522900  0.15477100  0.94749800  1
  O  O27  1  0.30954100  0.15477100  0.94749800  1
  O  O28  1  0.33333300  0.66666700  0.55455900  1
  O  O29  1  0.66666700  0.33333300  0.44545300  1
  O  O30  1  0.66666700  0.33333300  0.05455900  1
  O  O31  1  0.33333300  0.66666700  0.94545300  1
  O  O32  1  0.81867600  0.63735200  0.75055200  1
  O  O33  1  0.81867600  0.18132400  0.75055200  1
  O  O34  1  0.36264800  0.18132400  0.75055200  1
  O  O35  1  0.18132400  0.36264800  0.25055200  1
  O  O36  1  0.18132400  0.81867600  0.25055200  1
  O  O37  1  0.63735200  0.81867600  0.25055200  1
loop_
_geom_bond_atom_site_label_1
_geom_bond_atom_site_label_2
_geom_bond_distance
_geom_bond_site_symmetry_2
Ca0 O0 2.713890 1_555
Ca0 O2 2.713890 1_555
Ca0 O1 2.713895 1_555
Ca0 O9 2.748359 1_555
Ca0 O11 2.748359 1_555
Ca0 O10 2.748364 1_555
Ca0 O32 2.809332 1_455
Ca0 O34 2.809332 1_565
Ca0 O33 2.809335 1_565
Ca0 O33 2.809335 1_455
Ca0 O32 2.809338 1_555
Ca0 O34 2.809338 1_555
Ca1 O6 2.713890 1_555
Ca1 O8 2.713890 1_555
Ca1 O7 2.713895 1_555
Ca1 O3 2.748359 1_555
Ca1 O5 2.748359 1_555
Ca1 O4 2.748364 1_555
Ca1 O35 2.809332 1_655
Ca1 O37 2.809332 1_545
Ca1 O36 2.809335 1_545
Ca1 O36 2.809335 1_655
Ca1 O37 2.809338 1_555
Ca1 O35 2.809338 1_555
Al0 O1 1.887247 1_555
Al0 O0 1.887247 1_545
Al0 O2 1.887247 1_655
Al0 O33 1.979434 1_555
Al0 O32 1.979438 1_555
Al0 O34 1.979438 1_555
Al1 O4 1.894464 1_555
Al1 O3 1.894464 1_565
Al1 O5 1.894464 1_455
Al1 O36 1.960283 1_555
Al1 O35 1.960287 1_555
Al1 O37 1.960287 1_555
Al2 O7 1.887247 1_555
Al2 O8 1.887247 1_455
Al2 O6 1.887247 1_565
Al2 O36 1.979434 1_555
Al2 O35 1.979438 1_555
Al2 O37 1.979438 1_555
Al3 O10 1.894464 1_555
Al3 O11 1.894464 1_655
Al3 O9 1.894464 1_545
Al3 O33 1.960283 1_555
Al3 O32 1.960287 1_555
Al3 O34 1.960287 1_555
Al4 O17 1.805031 1_555
Al4 O18 1.805031 1_555
Al4 O16 1.805031 1_555
Al4 O29 1.830960 1_555
Al5 O20 1.818068 1_555
Al5 O19 1.818077 1_555
Al5 O21 1.818077 1_555
Al5 O28 1.820566 1_555
Al6 O23 1.805031 1_555
Al6 O22 1.805031 1_555
Al6 O24 1.805031 1_555
Al6 O31 1.830960 1_554
Al7 O26 1.818068 1_555
Al7 O27 1.818077 1_555
Al7 O25 1.818077 1_555
Al7 O30 1.820566 1_556
Al8 O17 1.890214 1_455
Al8 O16 1.890218 1_445
Al8 O18 1.890218 1_555
Al8 O21 1.903171 1_445
Al8 O19 1.903171 1_555
Al8 O20 1.903175 1_545
Al9 O23 1.890214 1_545
Al9 O24 1.890218 1_445
Al9 O22 1.890218 1_555
Al9 O25 1.903171 1_444
Al9 O27 1.903171 1_554
Al9 O26 1.903175 1_454
Al10 O5 1.822180 1_555
Al10 O4 1.822189 1_555
Al10 O13 1.880527 1_665
Al10 O29 1.996880 1_555
Al10 O21 2.010296 1_555
Al10 O20 2.010296 1_655
Al11 O3 1.822189 1_555
Al11 O5 1.822189 1_555
Al11 O13 1.880522 1_655
Al11 O29 1.996880 1_555
Al11 O19 2.010296 1_655
Al11 O21 2.010296 1_545
Al12 O3 1.822180 1_555
Al12 O4 1.822189 1_555
Al12 O13 1.880527 1_555
Al12 O29 1.996880 1_555
Al12 O19 2.010296 1_555
Al12 O20 2.010296 1_545
Al13 O2 1.823074 1_555
Al13 O1 1.823078 1_555
Al13 O12 1.843670 1_555
Al13 O28 2.016878 1_555
Al13 O17 2.026811 1_455
Al13 O18 2.026815 1_555
Al14 O0 1.823078 1_555
Al14 O2 1.823078 1_555
Al14 O12 1.843670 1_565
Al14 O28 2.016874 1_555
Al14 O18 2.026811 1_565
Al14 O16 2.026811 1_455
Al15 O0 1.823074 1_555
Al15 O1 1.823078 1_555
Al15 O12 1.843670 1_665
Al15 O28 2.016878 1_555
Al15 O17 2.026811 1_565
Al15 O16 2.026815 1_555
Al16 O11 1.822180 1_555
Al16 O10 1.822189 1_555
Al16 O15 1.880527 1_555
Al16 O31 1.996880 1_555
Al16 O27 2.010296 1_555
Al16 O26 2.010296 1_455
Al17 O11 1.822189 1_555
Al17 O9 1.822189 1_555
Al17 O15 1.880522 1_565
Al17 O31 1.996880 1_555
Al17 O25 2.010296 1_455
Al17 O27 2.010296 1_565
Al18 O9 1.822180 1_555
Al18 O10 1.822189 1_555
Al18 O15 1.880527 1_665
Al18 O31 1.996880 1_555
Al18 O25 2.010296 1_555
Al18 O26 2.010296 1_565
Al19 O8 1.823074 1_555
Al19 O7 1.823078 1_555
Al19 O14 1.843670 1_665
Al19 O30 2.016878 1_555
Al19 O23 2.026811 1_655
Al19 O24 2.026815 1_555
Al20 O8 1.823078 1_555
Al20 O6 1.823078 1_555
Al20 O14 1.843670 1_655
Al20 O30 2.016874 1_555
Al20 O22 2.026811 1_655
Al20 O24 2.026811 1_545
Al21 O6 1.823074 1_555
Al21 O7 1.823078 1_555
Al21 O14 1.843670 1_555
Al21 O30 2.016878 1_555
Al21 O23 2.026811 1_545
Al21 O22 2.026815 1_555
Al22 O33 1.767655 1_455
Al22 O32 1.767655 1_445
Al22 O34 1.767655 1_555
Al22 O15 2.048636 1_555
Al22 O12 2.387265 1_555
Al23 O36 1.767655 1_545
Al23 O37 1.767655 1_445
Al23 O35 1.767655 1_555
Al23 O13 2.048636 1_555
Al23 O14 2.387265 1_555
