# generated using pymatgen
data_CsYb(MoO4)2
_symmetry_space_group_name_H-M   'P 1'
_cell_length_a   5.06014100
_cell_length_b   8.15857300
_cell_length_c   10.06280300
_cell_angle_alpha   90.00000000
_cell_angle_beta   90.00000000
_cell_angle_gamma   90.00000000
_symmetry_Int_Tables_number   1
_chemical_formula_structural   CsYb(MoO4)2
_chemical_formula_sum   'Cs2 Yb2 Mo4 O16'
_cell_volume   415.42802691
_cell_formula_units_Z   2
loop_
 _symmetry_equiv_pos_site_id
 _symmetry_equiv_pos_as_xyz
  1  'x, y, z'
loop_
 _atom_site_type_symbol
 _atom_site_label
 _atom_site_symmetry_multiplicity
 _atom_site_fract_x
 _atom_site_fract_y
 _atom_site_fract_z
 _atom_site_occupancy
  Cs  Cs0  1  0.00000000  0.25000000  0.50000000  1
  Cs  Cs1  1  0.00000000  0.75000000  0.50000000  1
  Yb  Yb0  1  0.00000000  0.25000000  0.00000000  1
  Yb  Yb1  1  0.00000000  0.75000000  0.00000000  1
  Mo  Mo0  1  0.50018300  0.00000000  0.19301100  1
  Mo  Mo1  1  0.49981700  0.00000000  0.80698900  1
  Mo  Mo2  1  0.49981700  0.50000000  0.19301100  1
  Mo  Mo3  1  0.50018300  0.50000000  0.80698900  1
  O  O0  1  0.24190800  0.00000000  0.06771700  1
  O  O1  1  0.75809200  0.00000000  0.93228300  1
  O  O2  1  0.75809200  0.50000000  0.06771700  1
  O  O3  1  0.24190800  0.50000000  0.93228300  1
  O  O4  1  0.27638300  0.32496800  0.18180500  1
  O  O5  1  0.72361700  0.67503200  0.81819500  1
  O  O6  1  0.72361700  0.32496800  0.81819500  1
  O  O7  1  0.72361700  0.17503200  0.18180500  1
  O  O8  1  0.27638300  0.67503200  0.18180500  1
  O  O9  1  0.27638300  0.82496800  0.81819500  1
  O  O10  1  0.27638300  0.17503200  0.81819500  1
  O  O11  1  0.72361700  0.82496800  0.18180500  1
  O  O12  1  0.36025900  0.00000000  0.35333000  1
  O  O13  1  0.63974100  0.00000000  0.64667000  1
  O  O14  1  0.63974100  0.50000000  0.35333000  1
  O  O15  1  0.36025900  0.50000000  0.64667000  1
loop_
_geom_bond_atom_site_label_1
_geom_bond_atom_site_label_2
_geom_bond_distance
_geom_bond_site_symmetry_2
Cs0 O13 3.108319 1_455
Cs0 O15 3.108319 1_555
Cs0 O12 3.108319 1_555
Cs0 O14 3.108319 1_455
Cs0 O10 3.547165 1_555
Cs0 O4 3.547165 1_555
Cs0 O7 3.547165 1_455
Cs0 O6 3.547165 1_455
Cs1 O15 3.108319 1_555
Cs1 O13 3.108319 1_465
Cs1 O12 3.108319 1_565
Cs1 O14 3.108319 1_455
Cs1 O9 3.547165 1_555
Cs1 O8 3.547165 1_555
Cs1 O5 3.547165 1_455
Cs1 O11 3.547165 1_455
Mo0 O12 1.761794 1_555
Mo0 O0 1.815943 1_555
Mo0 O11 1.824885 1_545
Mo0 O7 1.824885 1_555
Mo1 O13 1.761794 1_555
Mo1 O1 1.815943 1_555
Mo1 O9 1.824885 1_545
Mo1 O10 1.824885 1_555
Mo2 O14 1.761794 1_555
Mo2 O2 1.815943 1_555
Mo2 O8 1.824885 1_555
Mo2 O4 1.824885 1_555
Mo3 O15 1.761794 1_555
Mo3 O3 1.815943 1_555
Mo3 O5 1.824885 1_555
Mo3 O6 1.824885 1_555
O0 Yb0 2.474444 1_555
O0 Yb1 2.474444 1_545
O1 Yb0 2.474444 1_656
O1 Yb1 2.474444 1_646
O2 Yb0 2.474444 1_655
O2 Yb1 2.474444 1_655
O3 Yb0 2.474444 1_556
O3 Yb1 2.474444 1_556
O4 Yb0 2.382636 1_555
O5 Yb1 2.382636 1_656
O6 Yb0 2.382636 1_656
O7 Yb0 2.382636 1_655
O8 Yb1 2.382636 1_555
O9 Yb1 2.382636 1_556
O10 Yb0 2.382636 1_556
O11 Yb1 2.382636 1_655
