# generated using pymatgen
data_Ba2SmMoO6
_symmetry_space_group_name_H-M   'P 1'
_cell_length_a   6.07343447
_cell_length_b   6.07343447
_cell_length_c   6.07343447
_cell_angle_alpha   119.41945815
_cell_angle_beta   119.41945815
_cell_angle_gamma   91.00850395
_symmetry_Int_Tables_number   1
_chemical_formula_structural   Ba2SmMoO6
_chemical_formula_sum   'Ba2 Sm1 Mo1 O6'
_cell_volume   159.77524517
_cell_formula_units_Z   1
loop_
 _symmetry_equiv_pos_site_id
 _symmetry_equiv_pos_as_xyz
  1  'x, y, z'
loop_
 _atom_site_type_symbol
 _atom_site_label
 _atom_site_symmetry_multiplicity
 _atom_site_fract_x
 _atom_site_fract_y
 _atom_site_fract_z
 _atom_site_occupancy
  Ba  Ba0  1  0.75000000  0.25000000  0.50000000  1
  Ba  Ba1  1  0.25000000  0.75000000  0.50000000  1
  Sm  Sm0  1  0.00000000  0.00000000  0.00000000  1
  Mo  Mo0  1  0.50000000  0.50000000  0.00000000  1
  O  O0  1  0.72876200  0.72876200  0.00000000  1
  O  O1  1  0.27123800  0.27123800  0.00000000  1
  O  O2  1  0.24731800  0.71752800  0.96484700  1
  O  O3  1  0.75268200  0.28247200  0.03515300  1
  O  O4  1  0.28247200  0.24731800  0.52979000  1
  O  O5  1  0.71752800  0.75268200  0.47021000  1
loop_
_geom_bond_atom_site_label_1
_geom_bond_atom_site_label_2
_geom_bond_distance
_geom_bond_site_symmetry_2
Ba0 O2 2.932871 1_655
Ba0 O4 2.932871 1_555
Ba0 O5 2.932871 1_545
Ba0 O3 2.932877 1_555
Ba0 O0 3.068656 1_556
Ba0 O1 3.068656 1_555
Ba0 O0 3.068656 1_545
Ba0 O1 3.068656 1_656
Ba0 O3 3.149798 1_556
Ba0 O2 3.149804 1_544
Ba0 O5 3.149804 1_555
Ba0 O4 3.149804 1_655
Ba1 O3 2.932871 1_455
Ba1 O4 2.932871 1_565
Ba1 O5 2.932871 1_555
Ba1 O2 2.932877 1_555
Ba1 O1 3.068656 1_566
Ba1 O0 3.068656 1_556
Ba1 O1 3.068656 1_555
Ba1 O0 3.068656 1_455
Ba1 O2 3.149798 1_554
Ba1 O3 3.149804 1_566
Ba1 O5 3.149804 1_455
Ba1 O4 3.149804 1_555
Mo0 O1 1.947499 1_555
Mo0 O0 1.947499 1_555
Mo0 O3 2.042726 1_555
Mo0 O2 2.042726 1_554
Mo0 O4 2.042727 1_554
Mo0 O5 2.042727 1_555
O0 Sm0 2.309106 1_665
O1 Sm0 2.309106 1_555
O2 Sm0 2.300201 1_566
O3 Sm0 2.300201 1_655
O4 Sm0 2.300201 1_555
O5 Sm0 2.300201 1_666
