# generated using pymatgen
data_MgFe3Ni2Sb(PO4)6
_symmetry_space_group_name_H-M   'P 1'
_cell_length_a   8.46388443
_cell_length_b   8.59788387
_cell_length_c   8.62465133
_cell_angle_alpha   61.62647114
_cell_angle_beta   61.92672456
_cell_angle_gamma   62.01031881
_symmetry_Int_Tables_number   1
_chemical_formula_structural   MgFe3Ni2Sb(PO4)6
_chemical_formula_sum   'Mg1 Fe3 Ni2 Sb1 P6 O24'
_cell_volume   462.21824237
_cell_formula_units_Z   1
loop_
 _symmetry_equiv_pos_site_id
 _symmetry_equiv_pos_as_xyz
  1  'x, y, z'
loop_
 _atom_site_type_symbol
 _atom_site_label
 _atom_site_symmetry_multiplicity
 _atom_site_fract_x
 _atom_site_fract_y
 _atom_site_fract_z
 _atom_site_occupancy
  Mg  Mg0  1  0.74493600  0.14067500  0.36024200  1
  Fe  Fe0  1  0.15288900  0.15241300  0.14353300  1
  Fe  Fe1  1  0.34176000  0.36330100  0.34818400  1
  Fe  Fe2  1  0.64369900  0.63757300  0.64641400  1
  Ni  Ni0  1  0.01560900  0.00293700  0.99600200  1
  Ni  Ni1  1  0.48919800  0.51181900  0.50234000  1
  Sb  Sb0  1  0.85827700  0.85234400  0.86283300  1
  P  P0  1  0.04346000  0.74031100  0.46084300  1
  P  P1  1  0.45801600  0.03924300  0.75084100  1
  P  P2  1  0.74569600  0.45467400  0.04568300  1
  P  P3  1  0.25460800  0.54802400  0.94286500  1
  P  P4  1  0.56112100  0.94675800  0.25672300  1
  P  P5  1  0.93135700  0.24911800  0.54676300  1
  O  O0  1  0.10416500  0.29652600  0.49037200  1
  O  O1  1  0.32177300  0.51794500  0.09120700  1
  O  O2  1  0.01724200  0.91625200  0.28314600  1
  O  O3  1  0.56277500  0.09034000  0.31338900  1
  O  O4  1  0.99735000  0.81375400  0.61959300  1
  O  O5  1  0.24669600  0.60709700  0.43332100  1
  O  O6  1  0.26075900  0.06040000  0.89679800  1
  O  O7  1  0.47804100  0.22313800  0.58402700  1
  O  O8  1  0.17288900  0.40772500  0.97788700  1
  O  O9  1  0.60177100  0.42970100  0.24743900  1
  O  O10  1  0.09319500  0.75421400  0.92860000  1
  O  O11  1  0.39576000  0.00761900  0.19660400  1
  O  O12  1  0.60370600  0.99535000  0.84329800  1
  O  O13  1  0.89685600  0.25494700  0.06826900  1
  O  O14  1  0.40184500  0.57721600  0.74351000  1
  O  O15  1  0.81477800  0.60994600  0.01565800  1
  O  O16  1  0.57853100  0.74938200  0.40460900  1
  O  O17  1  0.76086100  0.92733000  0.08871500  1
  O  O18  1  0.73751500  0.40355800  0.57906600  1
  O  O19  1  0.93502300  0.17863400  0.41082100  1
  O  O20  1  0.52228600  0.88266500  0.67771500  1
  O  O21  1  0.92846400  0.08768800  0.74783100  1
  O  O22  1  0.67782100  0.50500600  0.89062700  1
  O  O23  1  0.89927200  0.65031800  0.51829700  1
loop_
_geom_bond_atom_site_label_1
_geom_bond_atom_site_label_2
_geom_bond_distance
_geom_bond_site_symmetry_2
Mg0 O3 2.026474 1_555
Mg0 O19 2.043042 1_555
Mg0 O9 2.139038 1_555
Mg0 O13 2.178669 1_555
Mg0 O7 2.241533 1_555
Mg0 O2 2.253903 1_645
Fe0 O11 1.981646 1_555
Fe0 O8 2.007200 1_554
Fe0 O19 2.206397 1_455
Fe0 O13 2.209411 1_455
Fe0 O6 2.254175 1_554
Fe0 O2 2.335403 1_545
Fe1 O0 1.992721 1_555
Fe1 O1 2.012360 1_555
Fe1 O9 2.198195 1_555
Fe1 O5 2.214509 1_555
Fe1 O3 2.262194 1_555
Fe1 O7 2.343917 1_555
Fe2 O23 1.941620 1_555
Fe2 O22 1.949535 1_555
Fe2 O20 1.953583 1_555
Fe2 O14 2.032613 1_555
Fe2 O18 2.047743 1_555
Fe2 O16 2.063281 1_555
Ni0 O6 2.042298 1_555
Ni0 O13 2.177912 1_456
Ni0 O10 2.201460 1_545
Ni0 O17 2.215813 1_446
Ni0 O2 2.226449 1_546
Ni0 O21 2.270535 1_455
Ni1 O5 2.084823 1_555
Ni1 O14 2.112620 1_555
Ni1 O18 2.146835 1_555
Ni1 O16 2.160454 1_555
Ni1 O9 2.260916 1_555
Ni1 O7 2.271831 1_555
O0 P5 1.497868 1_455
O1 P3 1.502991 1_554
O2 P0 1.577312 1_555
O3 P4 1.535946 1_545
O4 P0 1.585285 1_655
O4 Sb0 1.966582 1_555
O5 P0 1.533613 1_555
O6 P1 1.536110 1_555
O7 P1 1.567972 1_555
O8 P3 1.504965 1_555
O9 P2 1.566279 1_555
O10 P3 1.643772 1_555
O10 Sb0 2.004754 1_455
O11 P4 1.496417 1_545
O12 P1 1.581609 1_565
O12 Sb0 1.959811 1_555
O13 P2 1.574212 1_555
O14 P3 1.561722 1_555
O15 P2 1.566136 1_555
O15 Sb0 1.966976 1_554
O16 P4 1.553500 1_555
O17 P4 1.626328 1_555
O17 Sb0 2.018356 1_554
O18 P5 1.552135 1_555
O19 P5 1.538270 1_555
O20 P1 1.517474 1_565
O21 P5 1.624373 1_555
O21 Sb0 2.024170 1_545
O22 P2 1.498464 1_556
O23 P0 1.512060 1_655
