# generated using pymatgen
data_Mg2SiO4
_symmetry_space_group_name_H-M   'P 1'
_cell_length_a   5.10910900
_cell_length_b   5.78480216
_cell_length_c   10.03285215
_cell_angle_alpha   92.06631394
_cell_angle_beta   99.18524033
_cell_angle_gamma   107.73330259
_symmetry_Int_Tables_number   1
_chemical_formula_structural   Mg2SiO4
_chemical_formula_sum   'Mg8 Si4 O16'
_cell_volume   277.67899849
_cell_formula_units_Z   4
loop_
 _symmetry_equiv_pos_site_id
 _symmetry_equiv_pos_as_xyz
  1  'x, y, z'
loop_
 _atom_site_type_symbol
 _atom_site_label
 _atom_site_symmetry_multiplicity
 _atom_site_fract_x
 _atom_site_fract_y
 _atom_site_fract_z
 _atom_site_occupancy
  Mg  Mg0  1  0.52175500  0.17390000  0.40843000  1
  Mg  Mg1  1  0.47824500  0.82610000  0.59157000  1
  Mg  Mg2  1  0.49925700  0.11511800  0.85588800  1
  Mg  Mg3  1  0.00000000  0.00000000  0.00000000  1
  Mg  Mg4  1  0.95528200  0.70029900  0.72237000  1
  Mg  Mg5  1  0.50074300  0.88488200  0.14411200  1
  Mg  Mg6  1  0.04471800  0.29970100  0.27763000  1
  Mg  Mg7  1  0.00000000  0.50000000  0.00000000  1
  Si  Si0  1  0.50847100  0.39573100  0.12876600  1
  Si  Si1  1  0.49152900  0.60426900  0.87123400  1
  Si  Si2  1  0.88355200  0.75303400  0.39380300  1
  Si  Si3  1  0.11644800  0.24696600  0.60619700  1
  O  O0  1  0.22995300  0.03805500  0.68448700  1
  O  O1  1  0.70521800  0.87609100  0.82113800  1
  O  O2  1  0.74825300  0.47667700  0.29131700  1
  O  O3  1  0.24026400  0.31715000  0.46783200  1
  O  O4  1  0.77004700  0.96194500  0.31551300  1
  O  O5  1  0.29478200  0.12390900  0.17886200  1
  O  O6  1  0.25174700  0.52332300  0.70868300  1
  O  O7  1  0.71265900  0.45124100  0.82751700  1
  O  O8  1  0.70972100  0.67112400  0.04999500  1
  O  O9  1  0.75973600  0.68285000  0.53216800  1
  O  O10  1  0.29027900  0.32887600  0.95000500  1
  O  O11  1  0.73365900  0.21306500  0.07040900  1
  O  O12  1  0.22312900  0.83117000  0.41890700  1
  O  O13  1  0.26634100  0.78693500  0.92959100  1
  O  O14  1  0.28734100  0.54875900  0.17248300  1
  O  O15  1  0.77687100  0.16883000  0.58109300  1
loop_
_geom_bond_atom_site_label_1
_geom_bond_atom_site_label_2
_geom_bond_distance
_geom_bond_site_symmetry_2
Mg0 O15 2.001681 1_555
Mg0 O3 2.018471 1_555
Mg0 O12 2.119712 1_545
Mg0 O2 2.266109 1_555
Mg0 O4 2.285661 1_545
Mg0 O5 2.372381 1_555
Mg1 O12 2.001681 1_555
Mg1 O9 2.018471 1_555
Mg1 O15 2.119712 1_565
Mg1 O6 2.266109 1_555
Mg1 O0 2.285661 1_565
Mg1 O1 2.372381 1_555
Mg2 O0 1.965885 1_555
Mg2 O7 1.974343 1_555
Mg2 O1 2.027184 1_545
Mg2 O13 2.138459 1_545
Mg2 O10 2.145361 1_555
Mg2 O11 2.250174 1_556
Mg3 O5 2.095006 1_555
Mg3 O1 2.095006 1_444
Mg3 O8 2.158249 1_445
Mg3 O10 2.158249 1_554
Mg3 O13 2.266195 1_544
Mg3 O11 2.266195 1_455
Mg4 O9 1.991440 1_555
Mg4 O7 2.040672 1_555
Mg4 O6 2.088562 1_655
Mg4 O0 2.117748 1_665
Mg4 O1 2.184330 1_555
Mg4 O13 2.341793 1_655
Mg5 O4 1.965885 1_555
Mg5 O14 1.974343 1_555
Mg5 O5 2.027184 1_565
Mg5 O11 2.138459 1_565
Mg5 O8 2.145361 1_555
Mg5 O13 2.250174 1_554
Mg6 O3 1.991440 1_555
Mg6 O14 2.040672 1_555
Mg6 O2 2.088562 1_455
Mg6 O4 2.117748 1_445
Mg6 O5 2.184330 1_555
Mg6 O11 2.341793 1_455
Mg7 O11 2.030108 1_455
Mg7 O13 2.030108 1_554
Mg7 O14 2.032453 1_555
Mg7 O7 2.032453 1_454
Mg7 O8 2.127685 1_455
Mg7 O10 2.127685 1_554
O0 Si3 1.662441 1_555
O1 Si1 1.761676 1_555
O2 Si2 1.752766 1_555
O2 Si0 1.826849 1_555
O3 Si3 1.629919 1_555
O4 Si2 1.662441 1_555
O5 Si0 1.761676 1_555
O6 Si3 1.752766 1_555
O6 Si1 1.826849 1_555
O7 Si1 1.729700 1_555
O8 Si0 1.890000 1_555
O8 Si1 1.912568 1_554
O9 Si2 1.629919 1_555
O10 Si1 1.890000 1_555
O10 Si0 1.912568 1_556
O11 Si0 1.922000 1_555
O12 Si2 1.628595 1_455
O13 Si1 1.922000 1_555
O14 Si0 1.729700 1_555
O15 Si3 1.628595 1_655
