# generated using pymatgen
data_DySeI
_symmetry_space_group_name_H-M   'P 1'
_cell_length_a   11.01400270
_cell_length_b   14.70050983
_cell_length_c   42.84230179
_cell_angle_alpha   90.00000000
_cell_angle_beta   90.00000000
_cell_angle_gamma   90.00000000
_symmetry_Int_Tables_number   1
_chemical_formula_structural   DySeI
_chemical_formula_sum   'Dy2 Se2 I2'
_cell_volume   6936.65941661
_cell_formula_units_Z   2
loop_
 _symmetry_equiv_pos_site_id
 _symmetry_equiv_pos_as_xyz
  1  'x, y, z'
loop_
 _atom_site_type_symbol
 _atom_site_label
 _atom_site_symmetry_multiplicity
 _atom_site_fract_x
 _atom_site_fract_y
 _atom_site_fract_z
 _atom_site_occupancy
  Dy  Dy0  1  0.50000000  0.50000000  0.11404642  1
  Dy  Dy1  1  0.50000000  0.50000000  0.88595358  1
  Se  Se0  1  0.50000000  0.50000000  0.67042028  1
  Se  Se1  1  0.50000000  0.50000000  0.32957972  1
  I  I0  1  0.50000000  0.50000000  0.04952892  1
  I  I1  1  0.50000000  0.50000000  0.95047108  1
loop_
_geom_bond_atom_site_label_1
_geom_bond_atom_site_label_2
_geom_bond_distance
_geom_bond_site_symmetry_2
Dy0 I0 2.764078 1_555
Dy1 I1 2.764078 1_555
