# generated using pymatgen
data_BaSr(SnO3)2
_symmetry_space_group_name_H-M   'P 1'
_cell_length_a   4.14642200
_cell_length_b   4.14642200
_cell_length_c   8.29489300
_cell_angle_alpha   90.00000000
_cell_angle_beta   90.00000000
_cell_angle_gamma   90.00000000
_symmetry_Int_Tables_number   1
_chemical_formula_structural   BaSr(SnO3)2
_chemical_formula_sum   'Ba1 Sr1 Sn2 O6'
_cell_volume   142.61256413
_cell_formula_units_Z   1
loop_
 _symmetry_equiv_pos_site_id
 _symmetry_equiv_pos_as_xyz
  1  'x, y, z'
loop_
 _atom_site_type_symbol
 _atom_site_label
 _atom_site_symmetry_multiplicity
 _atom_site_fract_x
 _atom_site_fract_y
 _atom_site_fract_z
 _atom_site_occupancy
  Ba  Ba0  1  0.50000000  0.50000000  0.00000000  1
  Sr  Sr0  1  0.50000000  0.50000000  0.50000000  1
  Sn  Sn0  1  0.00000000  0.00000000  0.74720600  1
  Sn  Sn1  1  0.00000000  0.00000000  0.25279400  1
  O  O0  1  0.00000000  0.00000000  0.00000000  1
  O  O1  1  0.00000000  0.00000000  0.50000000  1
  O  O2  1  0.00000000  0.50000000  0.25666400  1
  O  O3  1  0.00000000  0.50000000  0.74333600  1
  O  O4  1  0.50000000  0.00000000  0.74333600  1
  O  O5  1  0.50000000  0.00000000  0.25666400  1
loop_
_geom_bond_atom_site_label_1
_geom_bond_atom_site_label_2
_geom_bond_distance
_geom_bond_site_symmetry_2
Ba0 O0 2.931963 1_655
Ba0 O0 2.931963 1_665
Ba0 O0 2.931963 1_565
Ba0 O0 2.931963 1_555
Ba0 O2 2.971674 1_555
Ba0 O3 2.971674 1_554
Ba0 O4 2.971674 1_554
Ba0 O5 2.971674 1_555
Ba0 O3 2.971674 1_654
Ba0 O2 2.971674 1_655
Ba0 O4 2.971674 1_564
Ba0 O5 2.971674 1_565
O0 Sn0 2.096899 1_554
O0 Sn1 2.096899 1_555
O1 Sn1 2.050547 1_555
O1 Sn0 2.050547 1_555
O1 Sr0 2.931963 1_545
O1 Sr0 2.931963 1_455
O1 Sr0 2.931963 1_555
O1 Sr0 2.931963 1_445
O2 Sn1 2.073460 1_555
O2 Sn1 2.073460 1_565
O2 Sr0 2.893498 1_455
O2 Sr0 2.893498 1_555
O3 Sn0 2.073460 1_565
O3 Sn0 2.073460 1_555
O3 Sr0 2.893498 1_455
O3 Sr0 2.893498 1_555
O4 Sn0 2.073460 1_655
O4 Sn0 2.073460 1_555
O4 Sr0 2.893498 1_555
O4 Sr0 2.893498 1_545
O5 Sn1 2.073460 1_555
O5 Sn1 2.073460 1_655
O5 Sr0 2.893498 1_555
O5 Sr0 2.893498 1_545
