# generated using pymatgen
data_Sr2PrBiO6
_symmetry_space_group_name_H-M   'P 1'
_cell_length_a   8.71559035
_cell_length_b   8.71559035
_cell_length_c   8.71559035
_cell_angle_alpha   90.00000000
_cell_angle_beta   90.00000000
_cell_angle_gamma   90.00000000
_symmetry_Int_Tables_number   1
_chemical_formula_structural   Sr2PrBiO6
_chemical_formula_sum   'Sr8 Pr4 Bi4 O24'
_cell_volume   662.04944840
_cell_formula_units_Z   4
loop_
 _symmetry_equiv_pos_site_id
 _symmetry_equiv_pos_as_xyz
  1  'x, y, z'
loop_
 _atom_site_type_symbol
 _atom_site_label
 _atom_site_symmetry_multiplicity
 _atom_site_fract_x
 _atom_site_fract_y
 _atom_site_fract_z
 _atom_site_occupancy
  Sr  Sr0  1  0.50000000  0.50000000  0.50000000  1
  Sr  Sr1  1  0.00000000  0.00000000  -0.00000000  1
  Sr  Sr2  1  0.00000000  0.00000000  0.50000000  1
  Sr  Sr3  1  0.00000000  0.50000000  0.00000000  1
  Sr  Sr4  1  0.50000000  0.00000000  -0.00000000  1
  Sr  Sr5  1  0.50000000  0.50000000  0.00000000  1
  Sr  Sr6  1  0.50000000  0.00000000  0.50000000  1
  Sr  Sr7  1  0.00000000  0.50000000  0.50000000  1
  Pr  Pr0  1  0.25000000  0.25000000  0.25000000  1
  Pr  Pr1  1  0.25000000  0.75000000  0.75000000  1
  Pr  Pr2  1  0.75000000  0.25000000  0.75000000  1
  Pr  Pr3  1  0.75000000  0.75000000  0.25000000  1
  Bi  Bi0  1  0.75000000  0.75000000  0.75000000  1
  Bi  Bi1  1  0.75000000  0.25000000  0.25000000  1
  Bi  Bi2  1  0.25000000  0.75000000  0.25000000  1
  Bi  Bi3  1  0.25000000  0.25000000  0.75000000  1
  O  O0  1  0.21063479  0.30063538  0.51220613  1
  O  O1  1  0.21063479  0.69936462  0.48779387  1
  O  O2  1  0.78936521  0.30063538  0.48779387  1
  O  O3  1  0.78936521  0.69936462  0.51220613  1
  O  O4  1  0.30063538  0.51220613  0.21063479  1
  O  O5  1  0.69936462  0.48779387  0.21063479  1
  O  O6  1  0.30063538  0.48779387  0.78936521  1
  O  O7  1  0.69936462  0.51220613  0.78936521  1
  O  O8  1  0.51220613  0.21063479  0.30063538  1
  O  O9  1  0.48779387  0.21063479  0.69936462  1
  O  O10  1  0.48779387  0.78936521  0.30063538  1
  O  O11  1  0.51220613  0.78936521  0.69936462  1
  O  O12  1  0.28936521  0.19936462  0.98779387  1
  O  O13  1  0.28936521  0.80063538  0.01220613  1
  O  O14  1  0.71063479  0.19936462  0.01220613  1
  O  O15  1  0.71063479  0.80063538  0.98779387  1
  O  O16  1  0.19936462  0.98779387  0.28936521  1
  O  O17  1  0.80063538  0.01220613  0.28936521  1
  O  O18  1  0.19936462  0.01220613  0.71063479  1
  O  O19  1  0.80063538  0.98779387  0.71063479  1
  O  O20  1  0.98779387  0.28936521  0.19936462  1
  O  O21  1  0.01220613  0.28936521  0.80063538  1
  O  O22  1  0.01220613  0.71063479  0.19936462  1
  O  O23  1  0.98779387  0.71063479  0.80063538  1
loop_
_geom_bond_atom_site_label_1
_geom_bond_atom_site_label_2
_geom_bond_distance
_geom_bond_site_symmetry_2
Bi0 O15 2.146576 1_555
Bi0 O7 2.146576 1_555
Bi0 O19 2.146576 1_555
Bi0 O3 2.146576 1_555
Bi0 O23 2.146576 1_555
Bi0 O11 2.146576 1_555
Bi1 O8 2.146576 1_555
Bi1 O20 2.146576 1_555
Bi1 O17 2.146576 1_555
Bi1 O5 2.146576 1_555
Bi1 O14 2.146576 1_555
Bi1 O2 2.146576 1_555
Bi2 O16 2.146576 1_555
Bi2 O4 2.146576 1_555
Bi2 O13 2.146576 1_555
Bi2 O22 2.146576 1_555
Bi2 O10 2.146576 1_555
Bi2 O1 2.146576 1_555
Bi3 O0 2.146576 1_555
Bi3 O12 2.146576 1_555
Bi3 O21 2.146576 1_555
Bi3 O18 2.146576 1_555
Bi3 O6 2.146576 1_555
Bi3 O9 2.146576 1_555
O0 Pr0 2.352654 1_555
O0 Sr7 2.529958 1_555
O0 Sr0 3.064462 1_555
O1 Pr1 2.352654 1_555
O1 Sr7 2.529958 1_555
O1 Sr0 3.064462 1_555
O2 Pr2 2.352654 1_555
O2 Sr7 2.529958 1_655
O2 Sr0 3.064462 1_555
O3 Pr3 2.352654 1_555
O3 Sr7 2.529958 1_655
O3 Sr0 3.064462 1_555
O4 Pr0 2.352654 1_555
O4 Sr5 2.529958 1_555
O4 Sr0 3.064462 1_555
O5 Pr3 2.352654 1_555
O5 Sr5 2.529958 1_555
O5 Sr0 3.064462 1_555
O6 Pr1 2.352654 1_555
O6 Sr5 2.529958 1_556
O6 Sr0 3.064462 1_555
O7 Pr2 2.352654 1_555
O7 Sr5 2.529958 1_556
O7 Sr0 3.064462 1_555
O8 Pr0 2.352654 1_555
O8 Sr6 2.529958 1_555
O8 Sr0 3.064462 1_555
O9 Pr2 2.352654 1_555
O9 Sr6 2.529958 1_555
O9 Sr0 3.064462 1_555
O10 Pr3 2.352654 1_555
O10 Sr6 2.529958 1_565
O10 Sr0 3.064462 1_555
O11 Pr1 2.352654 1_555
O11 Sr6 2.529958 1_565
O11 Sr0 3.064462 1_555
O12 Pr0 2.352654 1_556
O12 Sr4 2.529958 1_556
O12 Sr1 3.064462 1_556
O13 Pr1 2.352654 1_554
O13 Sr4 2.529958 1_565
O13 Sr1 3.064462 1_565
O14 Pr2 2.352654 1_554
O14 Sr4 2.529958 1_555
O14 Sr1 3.064462 1_655
O15 Pr3 2.352654 1_556
O15 Sr4 2.529958 1_566
O15 Sr1 3.064462 1_666
O16 Pr0 2.352654 1_565
O16 Sr2 2.529958 1_565
O16 Sr1 3.064462 1_565
O17 Pr3 2.352654 1_545
O17 Sr2 2.529958 1_655
O17 Sr1 3.064462 1_655
O18 Pr1 2.352654 1_545
O18 Sr2 2.529958 1_555
O18 Sr1 3.064462 1_556
O19 Pr2 2.352654 1_565
O19 Sr2 2.529958 1_665
O19 Sr1 3.064462 1_666
O20 Pr0 2.352654 1_655
O20 Sr3 2.529958 1_655
O20 Sr1 3.064462 1_655
O21 Pr2 2.352654 1_455
O21 Sr3 2.529958 1_556
O21 Sr1 3.064462 1_556
O22 Pr3 2.352654 1_455
O22 Sr3 2.529958 1_555
O22 Sr1 3.064462 1_565
O23 Pr1 2.352654 1_655
O23 Sr3 2.529958 1_656
O23 Sr1 3.064462 1_666
