# generated using pymatgen
data_Dy2Fe17N3
_symmetry_space_group_name_H-M   'P 1'
_cell_length_a   6.49744593
_cell_length_b   6.49744593
_cell_length_c   6.49744613
_cell_angle_alpha   82.86579287
_cell_angle_beta   82.86579287
_cell_angle_gamma   82.86580035
_symmetry_Int_Tables_number   1
_chemical_formula_structural   Dy2Fe17N3
_chemical_formula_sum   'Dy2 Fe17 N3'
_cell_volume   268.41746188
_cell_formula_units_Z   1
loop_
 _symmetry_equiv_pos_site_id
 _symmetry_equiv_pos_as_xyz
  1  'x, y, z'
loop_
 _atom_site_type_symbol
 _atom_site_label
 _atom_site_symmetry_multiplicity
 _atom_site_fract_x
 _atom_site_fract_y
 _atom_site_fract_z
 _atom_site_occupancy
  Dy  Dy0  1  0.65854900  0.65854900  0.65854900  1
  Dy  Dy1  1  0.34145100  0.34145100  0.34145100  1
  Fe  Fe0  1  0.00000000  0.00000000  0.50000000  1
  Fe  Fe1  1  0.50000000  0.00000000  0.00000000  1
  Fe  Fe2  1  0.00000000  0.50000000  0.00000000  1
  Fe  Fe3  1  0.71755000  0.28245000  0.00000000  1
  Fe  Fe4  1  0.00000000  0.71755000  0.28245000  1
  Fe  Fe5  1  0.28245000  0.00000000  0.71755000  1
  Fe  Fe6  1  0.00000000  0.28245000  0.71755000  1
  Fe  Fe7  1  0.71755000  0.00000000  0.28245000  1
  Fe  Fe8  1  0.28245000  0.71755000  0.00000000  1
  Fe  Fe9  1  0.34294900  0.34294900  0.85547300  1
  Fe  Fe10  1  0.85547300  0.34294900  0.34294900  1
  Fe  Fe11  1  0.34294900  0.85547300  0.34294900  1
  Fe  Fe12  1  0.65705100  0.65705100  0.14452700  1
  Fe  Fe13  1  0.14452700  0.65705100  0.65705100  1
  Fe  Fe14  1  0.65705100  0.14452700  0.65705100  1
  Fe  Fe15  1  0.90491500  0.90491500  0.90491500  1
  Fe  Fe16  1  0.09508500  0.09508500  0.09508500  1
  N  N0  1  0.50000000  0.50000000  0.00000000  1
  N  N1  1  0.00000000  0.50000000  0.50000000  1
  N  N2  1  0.50000000  0.00000000  0.50000000  1
loop_
_geom_bond_atom_site_label_1
_geom_bond_atom_site_label_2
_geom_bond_distance
_geom_bond_site_symmetry_2
Dy0 N0 2.484493 1_556
Dy0 N2 2.484494 1_565
Dy0 N1 2.484494 1_655
Dy0 Fe15 3.097839 1_555
Dy0 Fe0 3.315485 1_665
Dy0 Fe1 3.315486 1_566
Dy0 Fe2 3.315486 1_656
Dy1 N0 2.484493 1_555
Dy1 N1 2.484494 1_555
Dy1 N2 2.484494 1_555
Dy1 Fe16 3.097839 1_555
Dy1 Fe0 3.315485 1_555
Dy1 Fe2 3.315486 1_555
Dy1 Fe1 3.315486 1_555
Fe0 Fe4 2.451602 1_545
Fe0 Fe7 2.451602 1_455
Fe0 Fe5 2.451602 1_555
Fe0 Fe6 2.451602 1_555
Fe0 Fe10 2.458022 1_455
Fe0 Fe11 2.458022 1_545
Fe0 Fe13 2.458022 1_545
Fe0 Fe14 2.458022 1_455
Fe0 Fe15 2.640536 1_445
Fe0 Fe16 2.640536 1_555
Fe1 Fe8 2.451602 1_545
Fe1 Fe3 2.451602 1_555
Fe1 Fe5 2.451602 1_554
Fe1 Fe7 2.451602 1_555
Fe1 Fe11 2.458022 1_545
Fe1 Fe14 2.458022 1_554
Fe1 Fe9 2.458022 1_554
Fe1 Fe12 2.458022 1_545
Fe1 Fe15 2.640536 1_544
Fe1 Fe16 2.640536 1_555
Fe2 Fe3 2.451602 1_455
Fe2 Fe8 2.451602 1_555
Fe2 Fe6 2.451602 1_554
Fe2 Fe4 2.451602 1_555
Fe2 Fe9 2.458022 1_554
Fe3 N0 1.870772 1_555
Fe4 N1 1.870772 1_555
Fe5 N2 1.870772 1_555
Fe6 N1 1.870772 1_555
Fe7 N2 1.870772 1_555
Fe8 N0 1.870772 1_555
Fe9 N0 1.923293 1_556
Fe10 N1 1.923293 1_655
Fe10 Fe2 2.458022 1_655
Fe10 Fe16 2.647604 1_655
Fe11 N2 1.923293 1_565
Fe11 Fe16 2.647604 1_565
Fe12 N0 1.923293 1_555
Fe12 Fe2 2.458022 1_655
Fe12 Fe15 2.647604 1_554
Fe13 N1 1.923293 1_555
Fe13 Fe2 2.458022 1_556
Fe13 Fe15 2.647604 1_455
Fe14 N2 1.923293 1_555
Fe14 Fe15 2.647604 1_545
Fe15 Fe16 2.391223 1_666
Fe15 Fe2 2.640536 1_656
Fe15 Fe5 2.707188 1_665
Fe15 Fe6 2.707188 1_665
Fe15 Fe7 2.707188 1_566
Fe15 Fe4 2.707188 1_656
Fe15 Fe8 2.707188 1_656
Fe15 Fe3 2.707188 1_566
Fe16 Fe2 2.640536 1_555
Fe16 Fe9 2.647604 1_554
Fe16 Fe4 2.707188 1_545
Fe16 Fe7 2.707188 1_455
Fe16 Fe6 2.707188 1_554
Fe16 Fe5 2.707188 1_554
Fe16 Fe8 2.707188 1_545
Fe16 Fe3 2.707188 1_455
