# generated using pymatgen
data_Na2VFeF7
_symmetry_space_group_name_H-M   'P 1'
_cell_length_a   7.49854478
_cell_length_b   7.49854478
_cell_length_c   25.04184860
_cell_angle_alpha   89.98979783
_cell_angle_beta   98.69653671
_cell_angle_gamma   119.71258387
_symmetry_Int_Tables_number   1
_chemical_formula_structural   Na2VFeF7
_chemical_formula_sum   'Na16 V8 Fe8 F56'
_cell_volume   1204.27730057
_cell_formula_units_Z   8
loop_
 _symmetry_equiv_pos_site_id
 _symmetry_equiv_pos_as_xyz
  1  'x, y, z'
loop_
 _atom_site_type_symbol
 _atom_site_label
 _atom_site_symmetry_multiplicity
 _atom_site_fract_x
 _atom_site_fract_y
 _atom_site_fract_z
 _atom_site_occupancy
  Na  Na0  1  0.50000000  -0.00000000  0.50000000  1
  Na  Na1  1  -0.00000000  -0.00000000  0.00000000  1
  Na  Na2  1  -0.00000000  0.50000000  0.50000000  1
  Na  Na3  1  0.50000000  0.50000000  0.00000000  1
  Na  Na4  1  -0.00000000  0.50000000  0.00000000  1
  Na  Na5  1  -0.00000000  -0.00000000  0.50000000  1
  Na  Na6  1  0.53267853  0.78267853  0.75000000  1
  Na  Na7  1  0.46732147  0.21732147  0.25000000  1
  Na  Na8  1  0.54039819  0.29313727  0.75258545  1
  Na  Na9  1  0.04055181  0.78781274  0.74741455  1
  Na  Na10  1  0.45960181  0.70686273  0.24741455  1
  Na  Na11  1  0.95944819  0.21218726  0.25258545  1
  Na  Na12  1  0.75673947  0.88412040  0.62173658  1
  Na  Na13  1  0.76238382  0.13500289  0.87826342  1
  Na  Na14  1  0.24326053  0.11587960  0.37826342  1
  Na  Na15  1  0.23761618  0.86499711  0.12173658  1
  V  V0  1  0.50000000  0.50000000  0.50000000  1
  V  V1  1  0.50000000  -0.00000000  0.00000000  1
  V  V2  1  0.99443986  0.24443986  0.75000000  1
  V  V3  1  0.00556014  0.75556014  0.25000000  1
  V  V4  1  0.26082209  0.88753779  0.62622881  1
  V  V5  1  0.76130898  0.63459328  0.87377119  1
  V  V6  1  0.73917791  0.11246221  0.37377119  1
  V  V7  1  0.23869102  0.36540672  0.12622881  1
  Fe  Fe0  1  0.25767494  0.38474028  0.62817486  1
  Fe  Fe1  1  0.25656542  0.62950008  0.87182514  1
  Fe  Fe2  1  0.74232506  0.61525972  0.37182514  1
  Fe  Fe3  1  0.74343458  0.37049992  0.12817486  1
  Fe  Fe4  1  0.75887155  0.38646757  0.62633920  1
  Fe  Fe5  1  0.26012836  0.13253235  0.87366080  1
  Fe  Fe6  1  0.24112845  0.61353243  0.37366080  1
  Fe  Fe7  1  0.73987164  0.86746765  0.12633920  1
  F  F0  1  0.28719038  0.41350309  0.54634051  1
  F  F1  1  0.36716258  0.74084987  0.95365949  1
  F  F2  1  0.71280962  0.58649691  0.45365949  1
  F  F3  1  0.63283742  0.25915013  0.04634051  1
  F  F4  1  0.23464460  0.36295475  0.71003456  1
  F  F5  1  0.15292019  0.52461004  0.78996544  1
  F  F6  1  0.76535540  0.63704525  0.28996544  1
  F  F7  1  0.84707981  0.47538996  0.21003456  1
  F  F8  1  0.37284265  0.69976792  0.64329610  1
  F  F9  1  0.55647182  0.72954656  0.85670390  1
  F  F10  1  0.62715735  0.30023208  0.35670390  1
  F  F11  1  0.44352818  0.27045344  0.14329610  1
  F  F12  1  0.14401720  0.07218804  0.60942505  1
  F  F13  1  0.96276299  0.53459215  0.89057495  1
  F  F14  1  0.85598280  0.92781196  0.39057495  1
  F  F15  1  0.03723701  0.46540785  0.10942505  1
  F  F16  1  0.68379465  0.41898638  0.54495011  1
  F  F17  1  0.37403628  0.13884455  0.95504989  1
  F  F18  1  0.31620535  0.58101362  0.45504989  1
  F  F19  1  0.62596372  0.86115545  0.04495011  1
  F  F20  1  0.83854142  0.36039220  0.70715361  1
  F  F21  1  0.15323859  0.13138781  0.79284639  1
  F  F22  1  0.16145858  0.63960780  0.29284639  1
  F  F23  1  0.84676141  0.86861219  0.20715361  1
  F  F24  1  0.54292205  0.07288303  0.60872704  1
  F  F25  1  0.96415599  0.93419501  0.89127296  1
  F  F26  1  0.45707795  0.92711697  0.39127296  1
  F  F27  1  0.03584401  0.06580499  0.10872704  1
  F  F28  1  0.97775869  0.69995732  0.64253895  1
  F  F29  1  0.55741837  0.33521974  0.85746105  1
  F  F30  1  0.02224131  0.30004268  0.35746105  1
  F  F31  1  0.44258163  0.66478026  0.14253895  1
  F  F32  1  0.56329622  0.46565355  0.65587068  1
  F  F33  1  0.30978287  0.90742554  0.84412932  1
  F  F34  1  0.43670378  0.53434645  0.34412932  1
  F  F35  1  0.69021713  0.09257446  0.15587068  1
  F  F36  1  0.95311515  0.30253974  0.59795441  1
  F  F37  1  0.20458534  0.35516075  0.90204559  1
  F  F38  1  0.04688485  0.69746026  0.40204559  1
  F  F39  1  0.79541466  0.64483925  0.09795441  1
  F  F40  1  0.66218619  0.79483929  0.53229558  1
  F  F41  1  0.76254371  0.12989061  0.96770442  1
  F  F42  1  0.33781381  0.20516071  0.46770442  1
  F  F43  1  0.23745629  0.87010939  0.03229558  1
  F  F44  1  0.76361257  0.13574929  0.79083545  1
  F  F45  1  0.84491384  0.97277712  0.70916455  1
  F  F46  1  0.23638743  0.86425071  0.20916455  1
  F  F47  1  0.15508616  0.02722288  0.29083545  1
  F  F48  1  0.34285241  0.97114387  0.70443393  1
  F  F49  1  0.76670994  0.63841848  0.79556607  1
  F  F50  1  0.65714759  0.02885613  0.29556607  1
  F  F51  1  0.23329006  0.36158152  0.20443393  1
  F  F52  1  0.18055167  0.80944085  0.54689060  1
  F  F53  1  0.76255025  0.63366107  0.95310940  1
  F  F54  1  0.81944833  0.19055915  0.45310940  1
  F  F55  1  0.23744975  0.36633893  0.04689060  1
loop_
_geom_bond_atom_site_label_1
_geom_bond_atom_site_label_2
_geom_bond_distance
_geom_bond_site_symmetry_2
F0 V0 1.961506 1_555
F0 Fe0 2.093978 1_555
F0 Na2 2.652087 1_555
F0 Na5 2.867883 1_555
F1 V1 1.961506 1_566
F1 Fe1 2.093978 1_555
F1 Na3 2.652087 1_556
F1 Na4 2.867883 1_556
F2 V0 1.961506 1_555
F2 Fe2 2.093978 1_555
F2 Na2 2.652087 1_655
F2 Na5 2.867883 1_665
F3 V1 1.961506 1_555
F3 Fe3 2.093978 1_555
F3 Na3 2.652087 1_555
F3 Na4 2.867883 1_655
F4 V2 1.998424 1_455
F4 Fe0 2.082701 1_555
F4 Na8 2.667748 1_555
F4 Na6 2.872964 1_555
F5 V2 1.998424 1_455
F5 Fe1 2.082701 1_555
F5 Na9 2.667748 1_555
F5 Na6 2.872964 1_555
F6 V3 1.998424 1_655
F6 Fe2 2.082701 1_555
F6 Na10 2.667748 1_555
F6 Na7 2.872964 1_555
F7 V3 1.998424 1_655
F7 Fe3 2.082701 1_555
F7 Na11 2.667748 1_555
F7 Na7 2.872964 1_555
F8 V4 1.983521 1_555
F8 Fe0 2.085320 1_555
F8 Na12 2.648417 1_555
F8 Na6 2.693771 1_555
F9 V5 1.983521 1_555
F9 Fe1 2.085320 1_555
F9 Na13 2.648417 1_565
F9 Na6 2.693771 1_555
F10 V6 1.983521 1_555
F10 Fe2 2.085320 1_555
F10 Na14 2.648417 1_555
F10 Na7 2.693771 1_555
F11 V7 1.983521 1_555
F11 Fe3 2.085320 1_555
F11 Na15 2.648417 1_545
F11 Na7 2.693771 1_555
F12 V4 1.987931 1_545
F12 Fe0 2.083027 1_555
F12 Na12 2.593842 1_445
F12 Na5 2.737543 1_555
F13 V5 1.987931 1_555
F13 Fe1 2.083027 1_655
F13 Na13 2.593842 1_555
F13 Na4 2.737543 1_656
F14 V6 1.987931 1_565
F14 Fe2 2.083027 1_555
F14 Na14 2.593842 1_665
F14 Na5 2.737543 1_665
F15 V7 1.987931 1_555
F15 Fe3 2.083027 1_455
F15 Na15 2.593842 1_555
F15 Na4 2.737543 1_555
F16 V0 1.973848 1_555
F16 Fe4 2.078294 1_555
F16 Na2 2.576258 1_655
F16 Na0 2.876998 1_555
F17 V1 1.973848 1_556
F17 Fe5 2.078294 1_555
F17 Na3 2.576258 1_556
F17 Na1 2.876998 1_556
F18 V0 1.973848 1_555
F18 Fe6 2.078294 1_555
F18 Na2 2.576258 1_555
F18 Na0 2.876998 1_565
F19 V1 1.973848 1_565
F19 Fe7 2.078294 1_555
F19 Na3 2.576258 1_555
F19 Na1 2.876998 1_665
F20 V2 1.975284 1_555
F20 Fe4 2.059298 1_555
F20 Na8 2.489593 1_555
F20 Na9 2.882692 1_655
F21 V2 1.975284 1_455
F21 Fe5 2.059298 1_555
F21 Na9 2.489592 1_545
F21 Na8 2.882692 1_555
F22 V3 1.975284 1_555
F22 Fe6 2.059298 1_555
F22 Na10 2.489593 1_555
F22 Na11 2.882692 1_455
F23 V3 1.975284 1_655
F23 Fe7 2.059298 1_555
F23 Na11 2.489592 1_565
F23 Na10 2.882692 1_555
F24 V4 1.991012 1_545
F24 Fe4 2.087039 1_555
F24 Na12 2.602268 1_545
F24 Na0 2.716002 1_555
F25 V5 1.991012 1_555
F25 Fe5 2.087039 1_665
F25 Na13 2.602268 1_565
F25 Na1 2.716002 1_666
F26 V6 1.991012 1_565
F26 Fe6 2.087039 1_555
F26 Na14 2.602268 1_565
F26 Na0 2.716002 1_565
F27 V7 1.991012 1_555
F27 Fe7 2.087039 1_445
F27 Na15 2.602268 1_545
F27 Na1 2.716002 1_555
F28 V4 1.988201 1_655
F28 Fe4 2.087742 1_555
F28 Na9 2.621492 1_655
F28 Na12 2.632976 1_555
F29 V5 1.988201 1_555
F29 Fe5 2.087742 1_555
F29 Na8 2.621492 1_555
F29 Na13 2.632976 1_555
F30 V6 1.988201 1_455
F30 Fe6 2.087742 1_555
F30 Na11 2.621492 1_455
F30 Na14 2.632976 1_555
F31 V7 1.988201 1_555
F31 Fe7 2.087742 1_555
F31 Na10 2.621492 1_555
F31 Na15 2.632976 1_555
F32 Fe4 2.059495 1_555
F32 Fe0 2.059671 1_555
F32 Na8 2.733692 1_555
F32 Na12 2.922848 1_555
F33 Fe5 2.059495 1_565
F33 Fe1 2.059671 1_555
F33 Na9 2.733692 1_555
F33 Na13 2.922848 1_565
F34 Fe6 2.059495 1_555
F34 Fe2 2.059671 1_555
F34 Na10 2.733692 1_555
F34 Na14 2.922848 1_555
F35 Fe7 2.059495 1_545
F35 Fe3 2.059671 1_555
F35 Na11 2.733692 1_555
F35 Na15 2.922848 1_545
F36 Fe4 2.060281 1_555
F36 Fe0 2.061621 1_655
F36 Na12 2.837564 1_545
F36 Na2 2.841909 1_655
F37 Fe5 2.060281 1_555
F37 Fe1 2.061621 1_555
F37 Na13 2.837564 1_455
F37 Na3 2.841909 1_556
F38 Fe6 2.060281 1_555
F38 Fe2 2.061621 1_455
F38 Na14 2.837564 1_565
F38 Na2 2.841909 1_555
F39 Fe7 2.060281 1_555
F39 Fe3 2.061621 1_555
F39 Na15 2.837564 1_655
F39 Na3 2.841909 1_555
F40 V0 2.014664 1_555
F40 Na12 2.239918 1_555
F40 Na0 2.461016 1_565
F40 Na5 2.488661 1_665
F41 V1 2.014664 1_556
F41 Na13 2.239918 1_555
F41 Na1 2.461016 1_656
F41 Na4 2.488661 1_656
F42 V0 2.014664 1_555
F42 Na14 2.239918 1_555
F42 Na0 2.461016 1_555
F42 Na5 2.488661 1_555
F43 V1 2.014664 1_565
F43 Na15 2.239918 1_555
F43 Na1 2.461016 1_565
F43 Na4 2.488661 1_555
F44 V2 1.960203 1_555
F44 Na13 2.190765 1_555
F44 Na6 2.444272 1_545
F44 Na8 2.566088 1_555
F45 V2 1.960203 1_565
F45 Na12 2.190765 1_555
F45 Na6 2.444272 1_555
F45 Na9 2.566088 1_655
F46 V3 1.960203 1_555
F46 Na15 2.190765 1_555
F46 Na7 2.444272 1_565
F46 Na10 2.566088 1_555
F47 V3 1.960203 1_545
F47 Na14 2.190765 1_555
F47 Na7 2.444272 1_555
F47 Na11 2.566088 1_455
F48 V4 1.964843 1_555
F48 Na8 2.322366 1_565
F48 Na9 2.415556 1_555
F48 Na6 2.612982 1_555
F49 V5 1.964843 1_555
F49 Na9 2.322366 1_655
F49 Na8 2.415556 1_555
F49 Na6 2.612982 1_555
F50 V6 1.964843 1_555
F50 Na10 2.322366 1_545
F50 Na11 2.415556 1_555
F50 Na7 2.612982 1_555
F51 V7 1.964843 1_555
F51 Na11 2.322366 1_455
F51 Na10 2.415556 1_555
F51 Na7 2.612982 1_555
F52 V4 1.985417 1_555
F52 Na2 2.236499 1_555
F52 Na0 2.572058 1_565
F52 Na5 2.586501 1_565
F53 V5 1.985417 1_555
F53 Na3 2.236499 1_556
F53 Na1 2.572058 1_666
F53 Na4 2.586501 1_656
F54 V6 1.985417 1_555
F54 Na2 2.236499 1_655
F54 Na0 2.572058 1_555
F54 Na5 2.586501 1_655
F55 V7 1.985417 1_555
F55 Na3 2.236499 1_555
F55 Na1 2.572058 1_555
F55 Na4 2.586501 1_555
