# generated using pymatgen
data_BeCr2O4
_symmetry_space_group_name_H-M   'P 1'
_cell_length_a   4.54221179
_cell_length_b   5.70840671
_cell_length_c   9.81139617
_cell_angle_alpha   90.00001842
_cell_angle_beta   90.00005470
_cell_angle_gamma   90.00639128
_symmetry_Int_Tables_number   1
_chemical_formula_structural   BeCr2O4
_chemical_formula_sum   'Be4 Cr8 O16'
_cell_volume   254.39765157
_cell_formula_units_Z   4
loop_
 _symmetry_equiv_pos_site_id
 _symmetry_equiv_pos_as_xyz
  1  'x, y, z'
loop_
 _atom_site_type_symbol
 _atom_site_label
 _atom_site_symmetry_multiplicity
 _atom_site_fract_x
 _atom_site_fract_y
 _atom_site_fract_z
 _atom_site_occupancy
  Be  Be0  1  0.93069136  0.74997966  0.40701402  1
  Be  Be1  1  0.56930731  0.75002070  0.90701318  1
  Be  Be2  1  0.06930763  0.25002059  0.59298667  1
  Be  Be3  1  0.43069259  0.24998001  0.09298733  1
  Cr  Cr0  1  0.49739968  0.75002588  0.23028031  1
  Cr  Cr1  1  0.00260070  0.74997487  0.73027660  1
  Cr  Cr2  1  0.50260025  0.24997472  0.76972143  1
  Cr  Cr3  1  0.99739898  0.25002534  0.26972340  1
  Cr  Cr4  1  0.50000043  0.50000592  0.49999903  1
  Cr  Cr5  1  -0.00000033  -0.00000205  -0.00000016  1
  Cr  Cr6  1  0.50000066  -0.00000523  0.49999925  1
  Cr  Cr7  1  -0.00000078  0.50000229  -0.00000000  1
  O  O0  1  0.27747364  0.75001038  0.40768557  1
  O  O1  1  0.22252481  0.74998846  0.90768468  1
  O  O2  1  0.72252905  0.24999060  0.59231559  1
  O  O3  1  0.77747510  0.25000984  0.09231428  1
  O  O4  1  0.72962193  0.75010940  0.06037011  1
  O  O5  1  0.77037774  0.74989144  0.56037125  1
  O  O6  1  0.27037834  0.24989092  0.93962926  1
  O  O7  1  0.22962100  0.25010922  0.43962974  1
  O  O8  1  0.76033160  0.97689579  0.33661764  1
  O  O9  1  0.73966669  0.52310506  0.83661831  1
  O  O10  1  0.23968953  0.47662510  0.66342515  1
  O  O11  1  0.26031018  0.02337501  0.16342453  1
  O  O12  1  0.23966778  0.02310587  0.66338263  1
  O  O13  1  0.26033302  0.47689489  0.16338172  1
  O  O14  1  0.76031006  0.52337350  0.33657495  1
  O  O15  1  0.73969007  0.97662583  0.83657553  1
loop_
_geom_bond_atom_site_label_1
_geom_bond_atom_site_label_2
_geom_bond_distance
_geom_bond_site_symmetry_2
Be0 O0 1.575172 1_655
Be0 O14 1.658202 1_555
Be0 O8 1.659498 1_555
Be0 O5 1.671590 1_555
Be1 O1 1.575173 1_555
Be1 O15 1.658196 1_555
Be1 O9 1.659489 1_555
Be1 O4 1.671588 1_556
Be2 O2 1.575156 1_455
Be2 O10 1.658193 1_555
Be2 O12 1.659490 1_555
Be2 O7 1.671587 1_555
Be3 O3 1.575173 1_555
Be3 O11 1.658192 1_555
Be3 O13 1.659484 1_555
Be3 O6 1.671597 1_554
Cr0 O4 1.972736 1_555
Cr0 O13 2.005214 1_555
Cr0 O11 2.006288 1_565
Cr0 O0 2.006881 1_555
Cr0 O14 2.046476 1_555
Cr0 O8 2.047362 1_555
Cr1 O5 1.972696 1_455
Cr1 O12 2.005201 1_565
Cr1 O10 2.006275 1_555
Cr1 O1 2.006899 1_555
Cr1 O15 2.046493 1_455
Cr1 O9 2.047391 1_455
Cr2 O6 1.972716 1_555
Cr2 O9 2.005205 1_555
Cr2 O15 2.006282 1_545
Cr2 O2 2.006892 1_555
Cr2 O10 2.046477 1_555
Cr2 O12 2.047367 1_555
Cr3 O7 1.972702 1_655
Cr3 O8 2.005196 1_545
Cr3 O14 2.006269 1_555
Cr3 O3 2.006907 1_555
Cr3 O11 2.046492 1_655
Cr3 O13 2.047390 1_655
Cr4 O0 1.969516 1_555
Cr4 O2 1.969579 1_555
Cr4 O5 1.973190 1_555
Cr4 O7 1.973234 1_555
Cr4 O14 1.996682 1_555
Cr4 O10 1.996706 1_555
Cr5 O1 1.969541 1_544
Cr5 O3 1.969546 1_455
Cr5 O4 1.973199 1_445
Cr5 O6 1.973221 1_554
Cr5 O15 1.996683 1_444
Cr5 O11 1.996691 1_555
Cr6 O0 1.969270 1_545
Cr6 O2 1.969333 1_555
Cr6 O5 1.974286 1_545
Cr6 O7 1.974332 1_555
Cr6 O8 1.996320 1_545
Cr6 O12 1.996344 1_555
Cr7 O1 1.969283 1_554
Cr7 O3 1.969301 1_455
Cr7 O4 1.974297 1_455
Cr7 O6 1.974322 1_554
Cr7 O9 1.996325 1_454
Cr7 O13 1.996330 1_555
