# generated using pymatgen
data_Rb2SnF6
_symmetry_space_group_name_H-M   'P 1'
_cell_length_a   4.78619671
_cell_length_b   6.03076131
_cell_length_c   6.03085667
_cell_angle_alpha   120.00125100
_cell_angle_beta   90.00206516
_cell_angle_gamma   90.00999734
_symmetry_Int_Tables_number   1
_chemical_formula_structural   Rb2SnF6
_chemical_formula_sum   'Rb2 Sn1 F6'
_cell_volume   150.75330318
_cell_formula_units_Z   1
loop_
 _symmetry_equiv_pos_site_id
 _symmetry_equiv_pos_as_xyz
  1  'x, y, z'
loop_
 _atom_site_type_symbol
 _atom_site_label
 _atom_site_symmetry_multiplicity
 _atom_site_fract_x
 _atom_site_fract_y
 _atom_site_fract_z
 _atom_site_occupancy
  Rb  Rb0  1  0.69795662  0.66667249  0.33333845  1
  Rb  Rb1  1  0.30204324  0.33332695  0.66666226  1
  Sn  Sn0  1  0.00000085  -0.00000337  -0.00000253  1
  F  F0  1  0.77214798  0.15858076  0.31712269  1
  F  F1  1  0.22785174  0.84141870  0.68287419  1
  F  F2  1  0.77216107  0.15857699  0.84146472  1
  F  F3  1  0.22783923  0.84142260  0.15853878  1
  F  F4  1  0.77224547  0.68293624  0.84147644  1
  F  F5  1  0.22775279  0.31706763  0.15852601  1
loop_
_geom_bond_atom_site_label_1
_geom_bond_atom_site_label_2
_geom_bond_distance
_geom_bond_site_symmetry_2
F0 Sn0 1.983202 1_655
F0 Rb1 2.897666 1_555
F0 Rb0 3.037361 1_555
F0 Rb0 3.037437 1_545
F0 Rb1 3.124683 1_655
F1 Sn0 1.983188 1_566
F1 Rb0 2.897654 1_555
F1 Rb1 3.037373 1_555
F1 Rb1 3.037425 1_565
F1 Rb0 3.124671 1_455
F2 Sn0 1.983073 1_656
F2 Rb1 2.897681 1_555
F2 Rb0 3.037354 1_556
F2 Rb0 3.037393 1_545
F2 Rb1 3.124775 1_655
F3 Sn0 1.983079 1_565
F3 Rb0 2.897671 1_555
F3 Rb1 3.037363 1_554
F3 Rb1 3.037384 1_565
F3 Rb0 3.124769 1_455
F4 Sn0 1.982308 1_666
F4 Rb1 2.897723 1_555
F4 Rb0 3.037482 1_556
F4 Rb0 3.037527 1_555
F4 Rb1 3.125040 1_655
F5 Sn0 1.982346 1_555
F5 Rb0 2.897714 1_555
F5 Rb1 3.037479 1_554
F5 Rb1 3.037530 1_555
F5 Rb0 3.125021 1_455
