# generated using pymatgen
data_SrSn(HO)6
_symmetry_space_group_name_H-M   'P 1'
_cell_length_a   6.11264500
_cell_length_b   9.71036183
_cell_length_c   10.28613846
_cell_angle_alpha   112.77347861
_cell_angle_beta   90.00000000
_cell_angle_gamma   90.00000000
_symmetry_Int_Tables_number   1
_chemical_formula_structural   SrSn(HO)6
_chemical_formula_sum   'Sr4 Sn4 H24 O24'
_cell_volume   562.94745332
_cell_formula_units_Z   4
loop_
 _symmetry_equiv_pos_site_id
 _symmetry_equiv_pos_as_xyz
  1  'x, y, z'
loop_
 _atom_site_type_symbol
 _atom_site_label
 _atom_site_symmetry_multiplicity
 _atom_site_fract_x
 _atom_site_fract_y
 _atom_site_fract_z
 _atom_site_occupancy
  Sr  Sr0  1  0.49612500  0.56198700  0.21838100  1
  Sr  Sr1  1  0.00387500  0.06198700  0.71838100  1
  Sr  Sr2  1  0.50387500  0.43801300  0.78161900  1
  Sr  Sr3  1  0.99612500  0.93801300  0.28161900  1
  Sn  Sn0  1  0.50000000  0.00000000  0.00000000  1
  Sn  Sn1  1  0.00000000  0.50000000  0.50000000  1
  Sn  Sn2  1  0.00000000  0.50000000  0.00000000  1
  Sn  Sn3  1  0.50000000  0.00000000  0.50000000  1
  H  H0  1  0.27979400  0.71145100  0.01833900  1
  H  H1  1  0.22020600  0.21145100  0.51833900  1
  H  H2  1  0.72020600  0.28854900  0.98166100  1
  H  H3  1  0.77979400  0.78854900  0.48166100  1
  H  H4  1  0.99212900  0.63752800  0.27289000  1
  H  H5  1  0.50787100  0.13752800  0.77289000  1
  H  H6  1  0.00787100  0.36247200  0.72711000  1
  H  H7  1  0.49212900  0.86247200  0.22711000  1
  H  H8  1  0.90602100  0.63911200  0.83247500  1
  H  H9  1  0.59397900  0.13911200  0.33247500  1
  H  H10  1  0.09397900  0.36088800  0.16752500  1
  H  H11  1  0.40602100  0.86088800  0.66752500  1
  H  H12  1  0.27380000  0.20945800  0.97222800  1
  H  H13  1  0.22620000  0.70945800  0.47222800  1
  H  H14  1  0.72620000  0.79054200  0.02777200  1
  H  H15  1  0.77380000  0.29054200  0.52777200  1
  H  H16  1  0.34501000  0.21983700  0.21572600  1
  H  H17  1  0.15499000  0.71983700  0.71572600  1
  H  H18  1  0.65499000  0.78016300  0.78427400  1
  H  H19  1  0.84501000  0.28016300  0.28427400  1
  H  H20  1  0.89160100  0.10913300  0.02227000  1
  H  H21  1  0.60839900  0.60913300  0.52227000  1
  H  H22  1  0.10839900  0.89086700  0.97773000  1
  H  H23  1  0.39160100  0.39086700  0.47773000  1
  O  O0  1  0.49559800  0.18392200  0.19540700  1
  O  O1  1  0.00440200  0.68392200  0.69540700  1
  O  O2  1  0.50440200  0.81607800  0.80459300  1
  O  O3  1  0.99559800  0.31607800  0.30459300  1
  O  O4  1  0.82234400  0.62206200  0.90869300  1
  O  O5  1  0.67765600  0.12206200  0.40869300  1
  O  O6  1  0.17765600  0.37793800  0.09130700  1
  O  O7  1  0.32234400  0.87793800  0.59130700  1
  O  O8  1  0.31649700  0.10971600  0.89929600  1
  O  O9  1  0.18350300  0.60971600  0.39929600  1
  O  O10  1  0.68350300  0.89028400  0.10070400  1
  O  O11  1  0.81649700  0.39028400  0.60070400  1
  O  O12  1  0.30053200  0.60518200  0.00336900  1
  O  O13  1  0.19946800  0.10518200  0.50336900  1
  O  O14  1  0.69946800  0.39481800  0.99663100  1
  O  O15  1  0.80053200  0.89481800  0.49663100  1
  O  O16  1  0.90735900  0.65715900  0.19900200  1
  O  O17  1  0.59264100  0.15715900  0.69900200  1
  O  O18  1  0.09264100  0.34284100  0.80099800  1
  O  O19  1  0.40735900  0.84284100  0.30099800  1
  O  O20  1  0.78772800  0.08808700  0.94531500  1
  O  O21  1  0.71227200  0.58808700  0.44531500  1
  O  O22  1  0.21227200  0.91191300  0.05468500  1
  O  O23  1  0.28772800  0.41191300  0.55468500  1
loop_
_geom_bond_atom_site_label_1
_geom_bond_atom_site_label_2
_geom_bond_distance
_geom_bond_site_symmetry_2
H0 O12 0.990760 1_555
H1 O13 0.990760 1_555
H2 O14 0.990760 1_555
H3 O15 0.990760 1_555
H4 O16 0.997312 1_555
H5 O17 0.997312 1_555
H6 O18 0.997312 1_555
H7 O19 0.997312 1_555
H8 O4 1.002076 1_555
H9 O5 1.002076 1_555
H10 O6 1.002076 1_555
H11 O7 1.002076 1_555
H12 O8 1.003219 1_555
H13 O9 1.003219 1_555
H14 O10 1.003219 1_555
H15 O11 1.003219 1_555
H16 O0 0.977845 1_555
H17 O1 0.977845 1_555
H18 O2 0.977845 1_555
H19 O3 0.977845 1_555
H20 O20 0.972757 1_554
H21 O21 0.972757 1_555
H22 O22 0.972757 1_556
H23 O23 0.972757 1_555
O0 Sn0 2.109807 1_555
O1 Sn1 2.109807 1_555
O2 Sn0 2.109807 1_566
O3 Sn1 2.109807 1_655
O4 Sn2 2.080395 1_656
O4 Sr2 2.623667 1_555
O5 Sn3 2.080395 1_555
O5 Sr3 2.623667 1_545
O6 Sn2 2.080395 1_555
O6 Sr0 2.623667 1_555
O7 Sn3 2.080395 1_565
O7 Sr1 2.623667 1_565
O8 Sn0 2.078603 1_556
O8 Sr1 2.581051 1_555
O9 Sn1 2.078603 1_555
O9 Sr0 2.581051 1_555
O10 Sn0 2.078603 1_565
O10 Sr3 2.581051 1_555
O11 Sn1 2.078603 1_655
O11 Sr2 2.581051 1_555
O12 Sn2 2.095639 1_555
O12 Sr2 2.552692 1_554
O12 Sr0 2.686056 1_555
O13 Sn3 2.095639 1_555
O13 Sr3 2.552692 1_445
O13 Sr1 2.686056 1_555
O14 Sn2 2.095639 1_656
O14 Sr0 2.552692 1_556
O14 Sr2 2.686056 1_555
O15 Sn3 2.095639 1_565
O15 Sr1 2.552692 1_665
O15 Sr3 2.686056 1_555
O16 Sn2 2.102674 1_655
O16 Sr3 2.580686 1_555
O16 Sr0 2.712054 1_555
O17 Sn3 2.102674 1_555
O17 Sr2 2.580686 1_555
O17 Sr1 2.712054 1_655
O18 Sn2 2.102674 1_556
O18 Sr1 2.580686 1_555
O18 Sr2 2.712054 1_555
O19 Sn3 2.102674 1_565
O19 Sr0 2.580686 1_555
O19 Sr3 2.712054 1_455
O20 Sn0 2.124577 1_556
O20 Sr1 2.607818 1_655
O21 Sn1 2.124577 1_655
O21 Sr0 2.607818 1_555
O22 Sn0 2.124577 1_565
O22 Sr3 2.607818 1_455
O23 Sn1 2.124577 1_555
O23 Sr2 2.607818 1_555
