# generated using pymatgen
data_Li7Mn5O12
_symmetry_space_group_name_H-M   'P 1'
_cell_length_a   5.97001800
_cell_length_b   6.01114975
_cell_length_c   6.51463282
_cell_angle_alpha   103.44290179
_cell_angle_beta   102.84893216
_cell_angle_gamma   92.30335578
_symmetry_Int_Tables_number   1
_chemical_formula_structural   Li7Mn5O12
_chemical_formula_sum   'Li7 Mn5 O12'
_cell_volume   220.64612963
_cell_formula_units_Z   1
loop_
 _symmetry_equiv_pos_site_id
 _symmetry_equiv_pos_as_xyz
  1  'x, y, z'
loop_
 _atom_site_type_symbol
 _atom_site_label
 _atom_site_symmetry_multiplicity
 _atom_site_fract_x
 _atom_site_fract_y
 _atom_site_fract_z
 _atom_site_occupancy
  Li  Li0  1  0.83858800  0.82153800  0.32454100  1
  Li  Li1  1  0.16518400  0.66149900  0.67294200  1
  Li  Li2  1  0.50000000  0.50000000  0.00000000  1
  Li  Li3  1  0.16141200  0.17846200  0.67545900  1
  Li  Li4  1  0.50000000  0.00000000  0.00000000  1
  Li  Li5  1  0.83481600  0.33850100  0.32705800  1
  Li  Li6  1  0.00000000  0.50000000  0.00000000  1
  Mn  Mn0  1  0.67638700  0.66095300  0.66681100  1
  Mn  Mn1  1  0.00000000  0.00000000  0.00000000  1
  Mn  Mn2  1  0.32361300  0.33904700  0.33318900  1
  Mn  Mn3  1  0.67151700  0.16858900  0.66949500  1
  Mn  Mn4  1  0.32848300  0.83141100  0.33050500  1
  O  O0  1  0.44565100  0.91050400  0.65381400  1
  O  O1  1  0.75790400  0.76016500  0.98136700  1
  O  O2  1  0.11386900  0.58498000  0.33430800  1
  O  O3  1  0.76783600  0.22220200  0.98379900  1
  O  O4  1  0.07009300  0.09195200  0.31702600  1
  O  O5  1  0.41005300  0.42524500  0.65374700  1
  O  O6  1  0.23216400  0.77779800  0.01620100  1
  O  O7  1  0.58994700  0.57475500  0.34625300  1
  O  O8  1  0.88613100  0.41502000  0.66569200  1
  O  O9  1  0.55434900  0.08949600  0.34618600  1
  O  O10  1  0.92990700  0.90804800  0.68297400  1
  O  O11  1  0.24209600  0.23983500  0.01863300  1
loop_
_geom_bond_atom_site_label_1
_geom_bond_atom_site_label_2
_geom_bond_distance
_geom_bond_site_symmetry_2
Li0 O7 2.106654 1_555
Li0 O4 2.107446 1_665
Li0 O1 2.118854 1_554
Li0 O10 2.206033 1_555
Li0 O2 2.215935 1_655
Li0 O9 2.390478 1_565
Li1 O5 2.082107 1_555
Li1 O10 2.082491 1_455
Li1 O2 2.094871 1_555
Li1 O6 2.121840 1_556
Li1 O8 2.169537 1_455
Li1 O0 2.244464 1_555
Li2 O7 2.132860 1_555
Li2 O5 2.132860 1_554
Li2 O11 2.192939 1_555
Li2 O1 2.192939 1_554
Li2 O3 2.358845 1_554
Li2 O6 2.358845 1_555
Li3 O5 2.106654 1_555
Li3 O10 2.107446 1_445
Li3 O11 2.118854 1_556
Li3 O4 2.206033 1_555
Li3 O8 2.215935 1_455
Li3 O0 2.390478 1_545
Li4 O3 2.078676 1_554
Li4 O6 2.078676 1_545
Li4 O0 2.139475 1_544
Li4 O9 2.139475 1_555
Li4 O1 2.154999 1_544
Li4 O11 2.154999 1_555
Li5 O7 2.082107 1_555
Li5 O4 2.082491 1_655
Li5 O8 2.094871 1_555
Li5 O3 2.121840 1_554
Li5 O2 2.169537 1_655
Li5 O9 2.244464 1_555
Li6 O2 2.064612 1_555
Li6 O8 2.064612 1_454
Li6 O6 2.094676 1_555
Li6 O3 2.094676 1_454
Li6 O1 2.177465 1_454
Li6 O11 2.177465 1_555
Mn0 O1 1.938219 1_555
Mn0 O7 1.972802 1_555
Mn0 O8 1.975179 1_555
Mn0 O10 2.045414 1_555
Mn0 O5 2.060486 1_555
Mn0 O0 2.080436 1_555
Mn1 O4 1.952529 1_555
Mn1 O10 1.952529 1_444
Mn1 O1 1.963478 1_444
Mn1 O11 1.963478 1_555
Mn1 O3 1.966102 1_454
Mn1 O6 1.966102 1_545
Mn2 O11 1.938219 1_555
Mn2 O5 1.972802 1_555
Mn2 O2 1.975179 1_555
Mn2 O4 2.045414 1_555
Mn2 O7 2.060486 1_555
Mn2 O9 2.080436 1_555
Mn3 O8 1.927482 1_555
Mn3 O3 1.944660 1_555
Mn3 O0 1.983024 1_545
Mn3 O9 2.000995 1_555
Mn3 O5 2.241259 1_555
Mn3 O10 2.244554 1_545
Mn4 O2 1.927482 1_555
Mn4 O6 1.944660 1_555
Mn4 O9 1.983024 1_565
Mn4 O0 2.000995 1_555
Mn4 O7 2.241259 1_555
Mn4 O4 2.244554 1_565
