# generated using pymatgen
data_CaLaTaFeO6
_symmetry_space_group_name_H-M   'P 1'
_cell_length_a   5.62090297
_cell_length_b   7.89175426
_cell_length_c   11.65206202
_cell_angle_alpha   89.99922949
_cell_angle_beta   89.99252336
_cell_angle_gamma   89.16773205
_symmetry_Int_Tables_number   1
_chemical_formula_structural   CaLaTaFeO6
_chemical_formula_sum   'Ca4 La4 Ta4 Fe4 O24'
_cell_volume   516.81678037
_cell_formula_units_Z   4
loop_
 _symmetry_equiv_pos_site_id
 _symmetry_equiv_pos_as_xyz
  1  'x, y, z'
loop_
 _atom_site_type_symbol
 _atom_site_label
 _atom_site_symmetry_multiplicity
 _atom_site_fract_x
 _atom_site_fract_y
 _atom_site_fract_z
 _atom_site_occupancy
  Ca  Ca0  1  0.51540800  0.25187600  0.27833600  1
  Ca  Ca1  1  0.51538200  0.25217100  0.77833500  1
  Ca  Ca2  1  0.01538900  0.75188100  0.47166500  1
  Ca  Ca3  1  0.01556600  0.75213600  0.97164900  1
  La  La0  1  0.98603900  0.24775400  0.02711300  1
  La  La1  1  0.98552600  0.24767600  0.52710300  1
  La  La2  1  0.48562200  0.74770700  0.22286600  1
  La  La3  1  0.48614500  0.74766600  0.72287500  1
  Ta  Ta0  1  0.00029600  0.49861600  0.25208700  1
  Ta  Ta1  1  0.00061700  0.49861000  0.75211000  1
  Ta  Ta2  1  0.50019600  0.99864500  0.49791900  1
  Ta  Ta3  1  0.50058800  0.99859600  0.99788300  1
  Fe  Fe0  1  0.00023200  0.00029400  0.75022800  1
  Fe  Fe1  1  0.50031800  0.50026900  0.99975500  1
  Fe  Fe2  1  0.00016600  0.00023400  0.25021400  1
  Fe  Fe3  1  0.50016700  0.50025600  0.49975700  1
  O  O0  1  0.60261600  0.75542100  0.01482400  1
  O  O1  1  0.60265600  0.75556200  0.51491500  1
  O  O2  1  0.10268100  0.25556400  0.23511100  1
  O  O3  1  0.10239000  0.25535500  0.73528200  1
  O  O4  1  0.21134600  0.95100500  0.09261800  1
  O  O5  1  0.21125700  0.95060200  0.59266100  1
  O  O6  1  0.71125500  0.45066000  0.15738400  1
  O  O7  1  0.71123800  0.45107500  0.65745400  1
  O  O8  1  0.18372000  0.55361100  0.10811200  1
  O  O9  1  0.18393900  0.55300400  0.60799900  1
  O  O10  1  0.68403000  0.05316800  0.14194300  1
  O  O11  1  0.68366800  0.05372600  0.64183500  1
  O  O12  1  0.90164700  0.74459000  0.26743100  1
  O  O13  1  0.90248400  0.74474100  0.76725700  1
  O  O14  1  0.40158800  0.24459300  0.48257200  1
  O  O15  1  0.40228300  0.24469500  0.98266700  1
  O  O16  1  0.28652200  0.54962400  0.34615800  1
  O  O17  1  0.28701900  0.54938200  0.84604900  1
  O  O18  1  0.78650100  0.04958400  0.40384500  1
  O  O19  1  0.78692900  0.04955800  0.90391400  1
  O  O20  1  0.31138900  0.94752800  0.35657600  1
  O  O21  1  0.31190500  0.94739200  0.85664400  1
  O  O22  1  0.81139600  0.44749100  0.39343500  1
  O  O23  1  0.81187400  0.44767600  0.89342000  1
loop_
_geom_bond_atom_site_label_1
_geom_bond_atom_site_label_2
_geom_bond_distance
_geom_bond_site_symmetry_2
Ca0 O2 2.373772 1_555
Ca0 O6 2.389305 1_555
Ca0 O10 2.416545 1_555
Ca0 O14 2.465073 1_555
Ca0 O18 2.634221 1_555
Ca0 O22 2.650476 1_555
Ca0 O16 2.777234 1_555
Ca0 O20 2.827494 1_545
Ca1 O3 2.374814 1_555
Ca1 O7 2.389469 1_555
Ca1 O11 2.415309 1_555
Ca1 O15 2.465146 1_555
Ca1 O19 2.637642 1_555
Ca1 O23 2.651684 1_555
Ca1 O17 2.771993 1_555
Ca1 O21 2.829392 1_545
Ca2 O1 2.373738 1_455
Ca2 O5 2.389527 1_555
Ca2 O9 2.416931 1_555
Ca2 O12 2.465101 1_455
Ca2 O16 2.633974 1_555
Ca2 O20 2.650369 1_555
Ca2 O18 2.777012 1_465
Ca2 O22 2.827796 1_455
Ca3 O0 2.374753 1_456
Ca3 O4 2.389884 1_556
Ca3 O8 2.415282 1_556
Ca3 O13 2.465940 1_455
Ca3 O17 2.637945 1_555
Ca3 O21 2.649262 1_555
Ca3 O19 2.774232 1_465
Ca3 O23 2.827558 1_455
La0 O15 2.396012 1_654
La0 O19 2.410616 1_554
La0 O23 2.414502 1_554
La0 O2 2.511794 1_655
La0 O10 2.665559 1_555
La0 O6 2.679813 1_555
La0 O4 2.754056 1_645
La0 O8 2.833698 1_655
La1 O14 2.395227 1_655
La1 O18 2.410261 1_555
La1 O22 2.413689 1_555
La1 O3 2.514127 1_655
La1 O11 2.661503 1_555
La1 O7 2.681055 1_555
La1 O5 2.757457 1_645
La1 O9 2.831388 1_655
La2 O12 2.395241 1_555
La2 O16 2.410452 1_555
La2 O20 2.414128 1_555
La2 O0 2.512619 1_555
La2 O8 2.662708 1_555
La2 O4 2.680070 1_555
La2 O6 2.756711 1_555
La2 O10 2.832262 1_565
La3 O13 2.396509 1_555
La3 O17 2.410742 1_555
La3 O21 2.414102 1_555
La3 O1 2.511027 1_555
La3 O9 2.667137 1_555
La3 O5 2.680113 1_555
La3 O7 2.752120 1_555
La3 O11 2.834754 1_565
Fe0 O13 2.107303 1_445
Fe0 O3 2.108383 1_555
Fe0 O21 2.181792 1_545
Fe0 O19 2.186636 1_455
Fe0 O5 2.217544 1_545
Fe0 O11 2.217641 1_455
Fe1 O15 2.107989 1_555
Fe1 O0 2.109433 1_556
Fe1 O23 2.180038 1_555
Fe1 O17 2.186860 1_555
Fe1 O8 2.217171 1_556
Fe1 O6 2.218016 1_556
Fe2 O12 2.109394 1_445
Fe2 O2 2.111145 1_555
Fe2 O20 2.179132 1_545
Fe2 O18 2.187338 1_455
Fe2 O10 2.214209 1_455
Fe2 O4 2.217673 1_545
Fe3 O14 2.109614 1_555
Fe3 O1 2.110992 1_555
Fe3 O22 2.178725 1_555
Fe3 O16 2.187243 1_555
Fe3 O9 2.213913 1_555
Fe3 O7 2.218506 1_555
O0 Ta3 2.004685 1_554
O1 Ta2 2.004718 1_555
O2 Ta0 2.004337 1_555
O3 Ta1 2.004758 1_555
O4 Ta3 2.005006 1_554
O5 Ta2 2.004379 1_555
O6 Ta0 2.004696 1_655
O7 Ta1 2.005277 1_655
O8 Ta0 2.019463 1_555
O9 Ta1 2.019436 1_555
O10 Ta3 2.019831 1_544
O11 Ta2 2.019415 1_545
O12 Ta0 2.018978 1_655
O13 Ta1 2.019209 1_655
O14 Ta2 2.018733 1_545
O15 Ta3 2.019296 1_545
O16 Ta0 1.992787 1_555
O17 Ta1 1.992347 1_555
O18 Ta2 1.992813 1_545
O19 Ta3 1.992344 1_545
O20 Ta2 2.003580 1_555
O21 Ta3 2.002356 1_555
O22 Ta0 2.003683 1_655
O23 Ta1 2.002534 1_655
