# generated using pymatgen
data_Gd2C3
_symmetry_space_group_name_H-M   'P 1'
_cell_length_a   7.22068343
_cell_length_b   7.22068283
_cell_length_c   7.22068283
_cell_angle_alpha   109.47122070
_cell_angle_beta   109.47122397
_cell_angle_gamma   109.47121386
_symmetry_Int_Tables_number   1
_chemical_formula_structural   Gd2C3
_chemical_formula_sum   'Gd8 C12'
_cell_volume   289.80973483
_cell_formula_units_Z   4
loop_
 _symmetry_equiv_pos_site_id
 _symmetry_equiv_pos_as_xyz
  1  'x, y, z'
loop_
 _atom_site_type_symbol
 _atom_site_label
 _atom_site_symmetry_multiplicity
 _atom_site_fract_x
 _atom_site_fract_y
 _atom_site_fract_z
 _atom_site_occupancy
  Gd  Gd0  1  0.10124726  -0.00000000  0.50000000  1
  Gd  Gd1  1  0.00000000  0.50000000  0.10124626  1
  Gd  Gd2  1  0.50000000  0.10124726  -0.00000000  1
  Gd  Gd3  1  0.39875274  0.39875274  0.39875274  1
  Gd  Gd4  1  0.00000000  0.50000000  0.60124726  1
  Gd  Gd5  1  0.60124726  -0.00000000  0.50000000  1
  Gd  Gd6  1  0.50000000  0.60124726  -0.00000000  1
  Gd  Gd7  1  0.89875274  0.89875274  0.89875374  1
  C  C0  1  0.29508502  0.75000000  0.54508502  1
  C  C1  1  0.20491498  0.25000000  0.95491498  1
  C  C2  1  0.04508502  0.25000000  0.79508502  1
  C  C3  1  0.45491498  0.75000000  0.70491498  1
  C  C4  1  0.75000000  0.54508502  0.29508502  1
  C  C5  1  0.25000000  0.95491498  0.20491498  1
  C  C6  1  0.25000000  0.79508502  0.04508502  1
  C  C7  1  0.75000000  0.70491498  0.45491498  1
  C  C8  1  0.54508502  0.29508502  0.75000000  1
  C  C9  1  0.95491498  0.20491498  0.25000000  1
  C  C10  1  0.79508502  0.04508502  0.25000000  1
  C  C11  1  0.70491498  0.45491498  0.75000000  1
loop_
_geom_bond_atom_site_label_1
_geom_bond_atom_site_label_2
_geom_bond_distance
_geom_bond_site_symmetry_2
C0 C3 1.332618 1_555
C0 Gd4 2.542228 1_555
C0 Gd5 2.542228 1_565
C0 Gd0 2.663836 1_565
C0 Gd1 2.663841 1_555
C1 C2 1.332618 1_555
C1 Gd6 2.542228 1_556
C1 Gd7 2.542231 1_445
C1 Gd3 2.663836 1_556
C1 Gd2 2.663836 1_556
C2 Gd1 2.542222 1_556
C2 Gd0 2.542227 1_555
C2 Gd4 2.663836 1_555
C2 Gd5 2.663836 1_455
C3 Gd2 2.542227 1_566
C3 Gd3 2.542227 1_555
C3 Gd6 2.663836 1_556
C3 Gd7 2.663836 1_555
C4 C7 1.332618 1_555
C4 Gd4 2.542227 1_655
C4 Gd6 2.542227 1_555
C4 Gd2 2.663836 1_555
C4 Gd1 2.663841 1_655
C5 C6 1.332618 1_555
C5 Gd7 2.542224 1_454
C5 Gd5 2.542227 1_565
C5 Gd3 2.663836 1_565
C5 Gd0 2.663836 1_565
C6 Gd1 2.542223 1_555
C6 Gd2 2.542228 1_565
C6 Gd6 2.663836 1_555
C6 Gd4 2.663836 1_554
C7 Gd3 2.542228 1_555
C7 Gd0 2.542228 1_665
C7 Gd5 2.663836 1_565
C7 Gd7 2.663842 1_555
C8 Gd6 2.542227 1_556
C8 Gd5 2.542227 1_555
C8 Gd2 2.663836 1_556
C8 Gd0 2.663836 1_555
C9 Gd7 2.542223 1_544
C9 Gd4 2.542227 1_655
C9 Gd3 2.663836 1_655
C9 Gd1 2.663841 1_655
C10 C9 1.332619 1_555
C10 Gd2 2.542227 1_555
C10 Gd0 2.542227 1_655
C10 Gd5 2.663836 1_555
C10 Gd6 2.663836 1_545
C11 C8 1.332619 1_555
C11 Gd1 2.542222 1_656
C11 Gd3 2.542227 1_555
C11 Gd7 2.663835 1_555
C11 Gd4 2.663836 1_655
