# generated using pymatgen
data_Ga3Ni27B14
_symmetry_space_group_name_H-M   'P 1'
_cell_length_a   10.71584000
_cell_length_b   8.64492500
_cell_length_c   8.81662653
_cell_angle_alpha   89.26090607
_cell_angle_beta   90.00000000
_cell_angle_gamma   90.00000000
_symmetry_Int_Tables_number   1
_chemical_formula_structural   Ga3Ni27B14
_chemical_formula_sum   'Ga6 Ni54 B28'
_cell_volume   816.68346129
_cell_formula_units_Z   2
loop_
 _symmetry_equiv_pos_site_id
 _symmetry_equiv_pos_as_xyz
  1  'x, y, z'
loop_
 _atom_site_type_symbol
 _atom_site_label
 _atom_site_symmetry_multiplicity
 _atom_site_fract_x
 _atom_site_fract_y
 _atom_site_fract_z
 _atom_site_occupancy
  Ga  Ga0  1  0.25000000  0.72232800  0.67013500  1
  Ga  Ga1  1  0.75000000  0.27767200  0.32986500  1
  Ga  Ga2  1  0.25000000  0.14060500  0.83606800  1
  Ga  Ga3  1  0.75000000  0.85939500  0.16393200  1
  Ga  Ga4  1  0.25000000  0.89380400  0.24685700  1
  Ga  Ga5  1  0.75000000  0.10619600  0.75314300  1
  Ni  Ni0  1  0.25000000  0.62648900  0.36947800  1
  Ni  Ni1  1  0.75000000  0.37351100  0.63052200  1
  Ni  Ni2  1  0.25000000  0.20852200  0.17424400  1
  Ni  Ni3  1  0.75000000  0.79147800  0.82575600  1
  Ni  Ni4  1  0.25000000  0.43117000  0.75838400  1
  Ni  Ni5  1  0.75000000  0.56883000  0.24161600  1
  Ni  Ni6  1  0.25000000  0.02691600  0.57034100  1
  Ni  Ni7  1  0.75000000  0.97308400  0.42965900  1
  Ni  Ni8  1  0.25000000  0.79464800  0.97737100  1
  Ni  Ni9  1  0.75000000  0.20535200  0.02262900  1
  Ni  Ni10  1  0.11488100  0.61214100  0.12854200  1
  Ni  Ni11  1  0.61488100  0.38785900  0.87145800  1
  Ni  Ni12  1  0.88511900  0.38785900  0.87145800  1
  Ni  Ni13  1  0.38511900  0.61214100  0.12854200  1
  Ni  Ni14  1  0.09900700  0.82574000  0.48384000  1
  Ni  Ni15  1  0.59900700  0.17426000  0.51616000  1
  Ni  Ni16  1  0.90099300  0.17426000  0.51616000  1
  Ni  Ni17  1  0.40099300  0.82574000  0.48384000  1
  Ni  Ni18  1  0.10738100  0.03687700  0.03765200  1
  Ni  Ni19  1  0.60738100  0.96312300  0.96234800  1
  Ni  Ni20  1  0.89261900  0.96312300  0.96234800  1
  Ni  Ni21  1  0.39261900  0.03687700  0.03765200  1
  Ni  Ni22  1  0.12127500  0.26270400  0.58161100  1
  Ni  Ni23  1  0.62127500  0.73729600  0.41838900  1
  Ni  Ni24  1  0.87872500  0.73729600  0.41838900  1
  Ni  Ni25  1  0.37872500  0.26270400  0.58161100  1
  Ni  Ni26  1  0.10656200  0.90767900  0.77602200  1
  Ni  Ni27  1  0.60656200  0.09232100  0.22397800  1
  Ni  Ni28  1  0.89343800  0.09232100  0.22397800  1
  Ni  Ni29  1  0.39343800  0.90767900  0.77602200  1
  Ni  Ni30  1  0.10037200  0.08900000  0.35095100  1
  Ni  Ni31  1  0.60037200  0.91100000  0.64904900  1
  Ni  Ni32  1  0.89962800  0.91100000  0.64904900  1
  Ni  Ni33  1  0.39962800  0.08900000  0.35095100  1
  Ni  Ni34  1  0.09369700  0.54245400  0.57049000  1
  Ni  Ni35  1  0.59369700  0.45754600  0.42951000  1
  Ni  Ni36  1  0.90630300  0.45754600  0.42951000  1
  Ni  Ni37  1  0.40630300  0.54245400  0.57049000  1
  Ni  Ni38  1  0.11644600  0.34513500  0.98214200  1
  Ni  Ni39  1  0.61644600  0.65486500  0.01785800  1
  Ni  Ni40  1  0.88355400  0.65486500  0.01785800  1
  Ni  Ni41  1  0.38355400  0.34513500  0.98214200  1
  Ni  Ni42  1  0.00571000  0.83840800  0.21498500  1
  Ni  Ni43  1  0.50571000  0.16159200  0.78501500  1
  Ni  Ni44  1  0.99429000  0.16159200  0.78501500  1
  Ni  Ni45  1  0.49429000  0.83840800  0.21498500  1
  Ni  Ni46  1  0.08524600  0.61627500  0.84948900  1
  Ni  Ni47  1  0.58524600  0.38372500  0.15051100  1
  Ni  Ni48  1  0.91475400  0.38372500  0.15051100  1
  Ni  Ni49  1  0.41475400  0.61627500  0.84948900  1
  Ni  Ni50  1  0.11828200  0.39136400  0.31341600  1
  Ni  Ni51  1  0.61828200  0.60863600  0.68658400  1
  Ni  Ni52  1  0.88171800  0.60863600  0.68658400  1
  Ni  Ni53  1  0.38171800  0.39136400  0.31341600  1
  B  B0  1  0.25000000  0.42336300  0.50190600  1
  B  B1  1  0.75000000  0.57663700  0.49809400  1
  B  B2  1  0.25000000  0.44426700  0.14469400  1
  B  B3  1  0.75000000  0.55573300  0.85530600  1
  B  B4  1  0.25000000  0.22714100  0.41116600  1
  B  B5  1  0.75000000  0.77285900  0.58883400  1
  B  B6  1  0.25000000  0.54345600  0.96540500  1
  B  B7  1  0.75000000  0.45654400  0.03459500  1
  B  B8  1  0.05240400  0.21891300  0.16961800  1
  B  B9  1  0.55240400  0.78108700  0.83038200  1
  B  B10  1  0.94759600  0.78108700  0.83038200  1
  B  B11  1  0.44759600  0.21891300  0.16961800  1
  B  B12  1  0.05170400  0.81151700  0.98955600  1
  B  B13  1  0.55170400  0.18848300  0.01044400  1
  B  B14  1  0.94829600  0.18848300  0.01044400  1
  B  B15  1  0.44829600  0.81151700  0.98955600  1
  B  B16  1  0.06044200  0.39892800  0.76621000  1
  B  B17  1  0.56044200  0.60107200  0.23379000  1
  B  B18  1  0.93955800  0.60107200  0.23379000  1
  B  B19  1  0.43955800  0.39892800  0.76621000  1
  B  B20  1  0.94607400  0.96346200  0.41813200  1
  B  B21  1  0.44607400  0.03653800  0.58186800  1
  B  B22  1  0.05392600  0.03653800  0.58186800  1
  B  B23  1  0.55392600  0.96346200  0.41813200  1
  B  B24  1  0.05726800  0.63344100  0.36085900  1
  B  B25  1  0.55726800  0.36655900  0.63914100  1
  B  B26  1  0.94273200  0.36655900  0.63914100  1
  B  B27  1  0.44273200  0.63344100  0.36085900  1
loop_
_geom_bond_atom_site_label_1
_geom_bond_atom_site_label_2
_geom_bond_distance
_geom_bond_site_symmetry_2
Ga0 Ni29 2.416650 1_555
Ga0 Ni26 2.416650 1_555
Ga0 Ni37 2.455693 1_555
Ga0 Ni34 2.455693 1_555
Ga0 Ni17 2.465177 1_555
Ga0 Ni14 2.465177 1_555
Ga0 Ni49 2.533884 1_555
Ga0 Ni46 2.533884 1_555
Ga0 Ni4 2.624945 1_555
Ga0 Ni6 2.765464 1_565
Ga0 Ni0 2.787426 1_555
Ga0 Ni8 2.787846 1_555
Ga1 Ni28 2.416650 1_555
Ga1 Ni27 2.416650 1_555
Ga1 Ni36 2.455693 1_555
Ga1 Ni35 2.455693 1_555
Ga1 Ni16 2.465177 1_555
Ga1 Ni15 2.465177 1_555
Ga1 Ni48 2.533884 1_555
Ga1 Ni47 2.533884 1_555
Ga1 Ni5 2.624945 1_555
Ga1 Ni7 2.765464 1_545
Ga1 Ni1 2.787426 1_555
Ga1 Ni9 2.787846 1_555
Ga2 Ni21 2.501480 1_556
Ga2 Ni18 2.501480 1_556
Ga2 Ni6 2.552283 1_555
Ga2 Ni29 2.593264 1_545
Ga2 Ni26 2.593264 1_545
Ga2 Ni4 2.595077 1_555
Ga2 Ni38 2.625242 1_555
Ga2 Ni41 2.625242 1_555
Ga2 Ni44 2.782413 1_455
Ga2 Ni43 2.782413 1_555
Ga2 Ni25 2.826460 1_555
Ga2 Ni22 2.826460 1_555
Ga3 Ni20 2.501480 1_554
Ga3 Ni19 2.501480 1_554
Ga3 Ni7 2.552283 1_555
Ga3 Ni28 2.593264 1_565
Ga3 Ni27 2.593264 1_565
Ga3 Ni5 2.595077 1_555
Ga3 Ni40 2.625242 1_555
Ga3 Ni39 2.625242 1_555
Ga3 Ni45 2.782413 1_555
Ga3 Ni42 2.782413 1_655
Ga3 Ni24 2.826460 1_555
Ga3 Ni23 2.826460 1_555
Ga4 Ni33 2.510099 1_565
Ga4 Ni30 2.510099 1_565
Ga4 Ni8 2.536238 1_554
Ga4 Ni0 2.538636 1_555
Ga4 Ni45 2.676660 1_555
Ga4 Ni42 2.676660 1_555
Ga4 Ni21 2.684906 1_565
Ga4 Ni18 2.684906 1_565
Ga4 Ni17 2.701488 1_555
Ga4 Ni14 2.701488 1_555
Ga4 Ni2 2.786970 1_565
Ga5 Ni31 2.510099 1_545
Ga5 Ni32 2.510099 1_545
Ga5 Ni9 2.536238 1_556
Ga5 Ni1 2.538636 1_555
Ga5 Ni43 2.676660 1_555
Ga5 Ni44 2.676660 1_555
Ga5 Ni20 2.684906 1_545
Ga5 Ni19 2.684906 1_545
Ga5 Ni16 2.701488 1_555
Ga5 Ni15 2.701488 1_555
Ga5 Ni3 2.786970 1_545
Ni4 Ni49 2.521104 1_555
Ni4 Ni46 2.521104 1_555
Ni4 Ni41 2.540750 1_555
Ni22 Ni4 2.551740 1_555
Ni23 Ni5 2.551740 1_555
Ni24 Ni5 2.551740 1_555
Ni25 Ni4 2.551740 1_555
Ni34 Ni4 2.536544 1_555
Ni35 Ni5 2.536544 1_555
Ni36 Ni5 2.536544 1_555
Ni37 Ni4 2.536544 1_555
Ni38 Ni4 2.540750 1_555
Ni39 Ni5 2.540750 1_555
Ni40 Ni5 2.540750 1_555
Ni47 Ni5 2.521104 1_555
Ni48 Ni5 2.521104 1_555
B0 B4 1.884824 1_555
B0 Ni37 2.060822 1_555
B0 Ni34 2.060822 1_555
B0 Ni22 2.073737 1_555
B0 Ni25 2.073737 1_555
B0 Ni0 2.096161 1_555
B0 Ni50 2.200536 1_555
B0 Ni53 2.200536 1_555
B0 Ni4 2.263148 1_555
B1 B5 1.884824 1_555
B1 Ni36 2.060822 1_555
B1 Ni35 2.060822 1_555
B1 Ni24 2.073737 1_555
B1 Ni23 2.073737 1_555
B1 Ni1 2.096161 1_555
B1 Ni51 2.200536 1_555
B1 Ni52 2.200536 1_555
B1 Ni5 2.263148 1_555
B2 B6 1.788573 1_554
B2 Ni2 2.051247 1_555
B2 Ni13 2.053668 1_555
B2 Ni10 2.053668 1_555
B2 Ni50 2.096828 1_555
B2 Ni53 2.096828 1_555
B2 Ni41 2.206408 1_554
B2 Ni38 2.206408 1_554
B2 Ni0 2.547504 1_555
B3 B7 1.788573 1_556
B3 Ni3 2.051247 1_555
B3 Ni12 2.053668 1_555
B3 Ni11 2.053668 1_555
B3 Ni51 2.096828 1_555
B3 Ni52 2.096828 1_555
B3 Ni40 2.206408 1_556
B3 Ni39 2.206408 1_556
B3 Ni1 2.547504 1_555
B4 Ni25 2.065776 1_555
B4 Ni22 2.065776 1_555
B4 Ni33 2.072491 1_555
B4 Ni30 2.072491 1_555
B4 Ni2 2.097114 1_555
B4 Ni50 2.172316 1_555
B4 Ni53 2.172316 1_555
B4 Ni6 2.214259 1_555
B5 Ni24 2.065776 1_555
B5 Ni23 2.065776 1_555
B5 Ni31 2.072491 1_555
B5 Ni32 2.072491 1_555
B5 Ni3 2.097114 1_555
B5 Ni52 2.172316 1_555
B5 Ni51 2.172316 1_555
B5 Ni7 2.214259 1_555
B6 Ni4 2.078323 1_555
B6 Ni13 2.130684 1_556
B6 Ni10 2.130684 1_556
B6 Ni49 2.130977 1_555
B6 Ni46 2.130977 1_555
B6 Ni8 2.175456 1_555
B6 Ni38 2.236700 1_555
B6 Ni41 2.236700 1_555
B7 Ni5 2.078323 1_555
B7 Ni12 2.130684 1_554
B7 Ni11 2.130684 1_554
B7 Ni48 2.130977 1_555
B7 Ni47 2.130977 1_555
B7 Ni9 2.175456 1_555
B7 Ni40 2.236700 1_555
B7 Ni39 2.236700 1_555
B8 Ni30 2.008782 1_555
B8 Ni18 2.055363 1_555
B8 Ni48 2.056194 1_455
B8 Ni28 2.077400 1_455
B8 Ni38 2.084994 1_554
B8 Ni50 2.092134 1_555
B8 Ni2 2.119682 1_555
B9 Ni31 2.008782 1_555
B9 Ni19 2.055363 1_555
B9 Ni49 2.056194 1_555
B9 Ni29 2.077400 1_555
B9 Ni39 2.084994 1_556
B9 Ni51 2.092134 1_555
B9 Ni3 2.119682 1_555
B10 B12 1.814599 1_655
B10 Ni32 2.008782 1_555
B10 Ni20 2.055363 1_555
B10 Ni46 2.056194 1_655
B10 Ni26 2.077400 1_655
B10 Ni40 2.084994 1_556
B10 Ni52 2.092134 1_555
B10 Ni3 2.119682 1_555
B11 B13 1.814599 1_555
B11 Ni33 2.008782 1_555
B11 Ni21 2.055363 1_555
B11 Ni47 2.056194 1_555
B11 Ni27 2.077400 1_555
B11 Ni41 2.084994 1_554
B11 Ni53 2.092134 1_555
B11 Ni2 2.119682 1_555
B12 Ni42 2.063765 1_556
B12 Ni18 2.086301 1_566
B12 Ni26 2.130878 1_555
B12 Ni8 2.132709 1_555
B12 Ni46 2.134674 1_555
B12 Ni20 2.161774 1_455
B12 Ni10 2.208206 1_556
B12 Ni40 2.265890 1_456
B13 Ni43 2.063765 1_554
B13 Ni19 2.086301 1_544
B13 Ni27 2.130878 1_555
B13 Ni9 2.132709 1_555
B13 Ni47 2.134674 1_555
B13 Ni21 2.161774 1_555
B13 Ni11 2.208206 1_554
B13 Ni41 2.265890 1_554
B14 B8 1.814599 1_655
B14 Ni44 2.063765 1_554
B14 Ni20 2.086301 1_544
B14 Ni28 2.130878 1_555
B14 Ni9 2.132709 1_555
B14 Ni48 2.134674 1_555
B14 Ni18 2.161774 1_655
B14 Ni12 2.208206 1_554
B14 Ni38 2.265890 1_654
B15 B9 1.814599 1_555
B15 Ni45 2.063765 1_556
B15 Ni21 2.086301 1_566
B15 Ni29 2.130878 1_555
B15 Ni8 2.132709 1_555
B15 Ni49 2.134674 1_555
B15 Ni19 2.161774 1_555
B15 Ni13 2.208206 1_556
B15 Ni39 2.265890 1_556
B16 B26 1.712466 1_455
B16 Ni46 2.043476 1_555
B16 Ni38 2.044015 1_555
B16 Ni4 2.051347 1_555
B16 Ni12 2.097037 1_455
B16 Ni22 2.123706 1_555
B16 Ni34 2.142178 1_555
B16 Ni44 2.175063 1_455
B17 B27 1.712466 1_555
B17 Ni47 2.043476 1_555
B17 Ni39 2.044015 1_555
B17 Ni5 2.051347 1_555
B17 Ni13 2.097037 1_555
B17 Ni23 2.123706 1_555
B17 Ni35 2.142178 1_555
B17 Ni45 2.175063 1_555
B18 B24 1.712466 1_655
B18 Ni48 2.043476 1_555
B18 Ni40 2.044015 1_555
B18 Ni5 2.051347 1_555
B18 Ni10 2.097037 1_655
B18 Ni24 2.123706 1_555
B18 Ni36 2.142178 1_555
B18 Ni42 2.175063 1_655
B19 B25 1.712466 1_555
B19 Ni49 2.043476 1_555
B19 Ni41 2.044015 1_555
B19 Ni4 2.051347 1_555
B19 Ni11 2.097037 1_555
B19 Ni25 2.123706 1_555
B19 Ni37 2.142178 1_555
B19 Ni43 2.175063 1_555
B20 B22 1.960178 1_665
B20 Ni30 2.060556 1_665
B20 Ni16 2.083716 1_565
B20 Ni24 2.084107 1_555
B20 Ni14 2.102623 1_655
B20 Ni7 2.105250 1_555
B20 Ni28 2.107152 1_565
B20 Ni32 2.138810 1_555
B20 Ni42 2.198866 1_655
B21 B23 1.960178 1_545
B21 Ni31 2.060556 1_545
B21 Ni17 2.083716 1_545
B21 Ni25 2.084107 1_555
B21 Ni15 2.102623 1_555
B21 Ni6 2.105250 1_555
B21 Ni29 2.107152 1_545
B21 Ni33 2.138810 1_555
B21 Ni43 2.198866 1_555
B22 Ni32 2.060556 1_445
B22 Ni14 2.083716 1_545
B22 Ni22 2.084107 1_555
B22 Ni16 2.102623 1_455
B22 Ni6 2.105250 1_555
B22 Ni26 2.107152 1_545
B22 Ni30 2.138810 1_555
B22 Ni44 2.198866 1_455
B23 Ni33 2.060556 1_565
B23 Ni15 2.083716 1_565
B23 Ni23 2.084107 1_555
B23 Ni17 2.102623 1_555
B23 Ni7 2.105250 1_555
B23 Ni27 2.107152 1_565
B23 Ni31 2.138810 1_555
B23 Ni45 2.198866 1_555
B24 Ni34 2.037049 1_555
B24 Ni14 2.045927 1_555
B24 Ni0 2.067528 1_555
B24 Ni10 2.149447 1_555
B24 Ni24 2.176139 1_455
B24 Ni50 2.237090 1_555
B24 Ni42 2.245053 1_555
B24 Ni36 2.296048 1_455
B25 Ni35 2.037049 1_555
B25 Ni15 2.045927 1_555
B25 Ni1 2.067528 1_555
B25 Ni11 2.149447 1_555
B25 Ni25 2.176139 1_555
B25 Ni51 2.237090 1_555
B25 Ni43 2.245053 1_555
B25 Ni37 2.296048 1_555
B26 Ni36 2.037049 1_555
B26 Ni16 2.045927 1_555
B26 Ni1 2.067528 1_555
B26 Ni12 2.149447 1_555
B26 Ni22 2.176139 1_655
B26 Ni52 2.237090 1_555
B26 Ni44 2.245053 1_555
B26 Ni34 2.296048 1_655
B27 Ni37 2.037049 1_555
B27 Ni17 2.045927 1_555
B27 Ni0 2.067528 1_555
B27 Ni13 2.149447 1_555
B27 Ni23 2.176139 1_555
B27 Ni53 2.237090 1_555
B27 Ni45 2.245053 1_555
B27 Ni35 2.296048 1_555
