# generated using pymatgen
data_Ni2PPd
_symmetry_space_group_name_H-M   'P 1'
_cell_length_a   4.55239523
_cell_length_b   4.55239523
_cell_length_c   6.48033230
_cell_angle_alpha   90.00000000
_cell_angle_beta   90.00000000
_cell_angle_gamma   135.16829682
_symmetry_Int_Tables_number   1
_chemical_formula_structural   Ni2PPd
_chemical_formula_sum   'Ni4 P2 Pd2'
_cell_volume   94.68534694
_cell_formula_units_Z   2
loop_
 _symmetry_equiv_pos_site_id
 _symmetry_equiv_pos_as_xyz
  1  'x, y, z'
loop_
 _atom_site_type_symbol
 _atom_site_label
 _atom_site_symmetry_multiplicity
 _atom_site_fract_x
 _atom_site_fract_y
 _atom_site_fract_z
 _atom_site_occupancy
  Ni  Ni0  1  0.85210884  0.14789116  0.05419671  1
  Ni  Ni1  1  0.14789116  0.85210884  0.94580329  1
  Ni  Ni2  1  0.14789116  0.85210884  0.55419671  1
  Ni  Ni3  1  0.85210884  0.14789116  0.44580329  1
  P  P0  1  0.27009042  0.72990958  0.25000000  1
  P  P1  1  0.72990958  0.27009042  0.75000000  1
  Pd  Pd0  1  0.55356344  0.44643656  0.25000000  1
  Pd  Pd1  1  0.44643656  0.55356344  0.75000000  1
loop_
_geom_bond_atom_site_label_1
_geom_bond_atom_site_label_2
_geom_bond_distance
_geom_bond_site_symmetry_2
Ni0 P1 2.223485 1_554
Ni0 P0 2.258342 1_545
Ni0 P0 2.258342 1_655
Ni0 Pd0 2.738365 1_545
Ni0 Pd0 2.738365 1_655
Ni0 Pd1 2.744060 1_654
Ni0 Pd1 2.744060 1_544
Ni0 Pd0 2.815002 1_555
Ni1 P0 2.223485 1_556
Ni1 P1 2.258342 1_565
Ni1 P1 2.258342 1_455
Ni1 Pd1 2.738365 1_455
Ni1 Pd1 2.738365 1_565
Ni1 Pd0 2.744060 1_456
Ni1 Pd0 2.744060 1_566
Ni1 Pd1 2.815002 1_555
Ni2 P0 2.223485 1_555
Ni2 P1 2.258342 1_565
Ni2 P1 2.258342 1_455
Ni2 Pd1 2.738365 1_455
Ni2 Pd1 2.738365 1_565
Ni2 Pd0 2.744060 1_455
Ni2 Pd0 2.744060 1_565
Ni2 Pd1 2.815002 1_555
Ni3 P1 2.223485 1_555
Ni3 P0 2.258342 1_545
Ni3 P0 2.258342 1_655
Ni3 Pd0 2.738365 1_545
Ni3 Pd0 2.738365 1_655
Ni3 Pd1 2.744060 1_545
Ni3 Pd1 2.744060 1_655
Ni3 Pd0 2.815002 1_555
P0 Pd0 2.385946 1_555
P0 Pd0 2.516926 1_565
P0 Pd0 2.516926 1_455
P1 Pd1 2.385946 1_555
P1 Pd1 2.516926 1_655
P1 Pd1 2.516926 1_545
