# generated using pymatgen
data_In9Cu11
_symmetry_space_group_name_H-M   'P 1'
_cell_length_a   4.34238104
_cell_length_b   7.29048713
_cell_length_c   10.51477241
_cell_angle_alpha   89.25628106
_cell_angle_beta   90.00000000
_cell_angle_gamma   90.00000000
_symmetry_Int_Tables_number   1
_chemical_formula_structural   In9Cu11
_chemical_formula_sum   'In9 Cu11'
_cell_volume   332.84939081
_cell_formula_units_Z   1
loop_
 _symmetry_equiv_pos_site_id
 _symmetry_equiv_pos_as_xyz
  1  'x, y, z'
loop_
 _atom_site_type_symbol
 _atom_site_label
 _atom_site_symmetry_multiplicity
 _atom_site_fract_x
 _atom_site_fract_y
 _atom_site_fract_z
 _atom_site_occupancy
  In  In0  1  0.00000000  0.69479472  0.85908587  1
  In  In1  1  0.00000000  0.30520528  0.14091413  1
  In  In2  1  0.50000000  0.19543304  0.34100876  1
  In  In3  1  0.50000000  0.80456696  0.65899124  1
  In  In4  1  0.00000000  0.38920415  0.62635259  1
  In  In5  1  -0.00000000  0.61079585  0.37364741  1
  In  In6  1  0.50000000  0.86251845  0.11397354  1
  In  In7  1  0.50000000  0.13748155  0.88602646  1
  In  In8  1  0.00000000  -0.00000000  0.50000000  1
  Cu  Cu0  1  0.00000000  -0.00000000  -0.00000000  1
  Cu  Cu1  1  0.50000000  0.50000000  0.50000000  1
  Cu  Cu2  1  0.00000000  0.03105200  0.74833131  1
  Cu  Cu3  1  0.00000000  0.96894800  0.25166869  1
  Cu  Cu4  1  0.50000000  0.52520092  0.23584567  1
  Cu  Cu5  1  0.50000000  0.47479908  0.76415433  1
  Cu  Cu6  1  -0.00000000  0.34152075  0.88689765  1
  Cu  Cu7  1  0.00000000  0.65847925  0.11310235  1
  Cu  Cu8  1  0.50000000  0.82637192  0.38074632  1
  Cu  Cu9  1  0.50000000  0.17362808  0.61925368  1
  Cu  Cu10  1  0.50000000  0.50000000  -0.00000000  1
loop_
_geom_bond_atom_site_label_1
_geom_bond_atom_site_label_2
_geom_bond_distance
_geom_bond_site_symmetry_2
In0 In3 3.120486 1_555
In0 In3 3.120486 1_455
In0 In4 3.330701 1_555
In1 In2 3.120486 1_455
In1 In2 3.120486 1_555
In1 In5 3.330701 1_555
In2 In8 3.078484 1_655
In2 In8 3.078484 1_555
In3 In8 3.078484 1_565
In3 In8 3.078484 1_665
In4 In5 3.091734 1_555
In4 In8 3.148697 1_555
In5 In8 3.148697 1_565
In6 In7 3.104587 1_564
Cu0 Cu2 2.652975 1_554
Cu0 Cu3 2.652975 1_545
Cu0 In7 2.669023 1_554
Cu0 In7 2.669023 1_454
Cu0 In6 2.669023 1_445
Cu0 In6 2.669023 1_545
Cu0 In0 2.689240 1_544
Cu0 In1 2.689240 1_555
Cu0 Cu6 2.745324 1_554
Cu0 Cu7 2.745324 1_545
Cu1 In4 2.665290 1_555
Cu1 In4 2.665290 1_655
Cu1 In5 2.665290 1_555
Cu1 In5 2.665290 1_655
Cu1 Cu8 2.675158 1_555
Cu1 Cu9 2.675158 1_555
Cu1 Cu4 2.781212 1_555
Cu1 Cu5 2.781212 1_555
Cu1 In2 2.796694 1_555
Cu1 In3 2.796694 1_555
Cu2 In8 2.623868 1_555
Cu2 In0 2.700340 1_545
Cu2 Cu6 2.707717 1_555
Cu2 In7 2.727913 1_555
Cu2 In7 2.727913 1_455
Cu2 Cu9 2.756801 1_555
Cu2 Cu9 2.756801 1_455
Cu2 In3 2.891921 1_445
Cu2 In3 2.891921 1_545
Cu2 In4 2.894120 1_555
Cu3 In8 2.623868 1_565
Cu3 In1 2.700340 1_565
Cu3 Cu7 2.707717 1_555
Cu3 In6 2.727913 1_455
Cu3 In6 2.727913 1_555
Cu3 Cu8 2.756801 1_455
Cu3 Cu8 2.756801 1_555
Cu3 In2 2.891921 1_465
Cu3 In2 2.891921 1_565
Cu3 In5 2.894120 1_555
Cu4 In2 2.633198 1_555
Cu4 In5 2.688200 1_655
Cu4 In5 2.688200 1_555
Cu4 Cu8 2.688721 1_555
Cu4 Cu7 2.700248 1_655
Cu4 Cu7 2.700248 1_555
Cu4 In6 2.758266 1_555
Cu4 In1 2.885206 1_655
Cu4 In1 2.885206 1_555
Cu5 In3 2.633198 1_555
Cu5 In4 2.688200 1_555
Cu5 In4 2.688200 1_655
Cu5 Cu9 2.688721 1_555
Cu5 Cu6 2.700248 1_555
Cu5 Cu6 2.700248 1_655
Cu5 In7 2.758266 1_555
Cu5 In0 2.885206 1_655
Cu5 In0 2.885206 1_555
Cu6 In0 2.588314 1_555
Cu6 In7 2.631976 1_455
Cu6 In7 2.631976 1_555
Cu6 In1 2.680594 1_556
Cu6 In4 2.757060 1_555
Cu7 In1 2.588314 1_555
Cu7 In6 2.631976 1_455
Cu7 In6 2.631976 1_555
Cu7 In0 2.680594 1_554
Cu7 In5 2.757060 1_555
Cu8 In5 2.681937 1_555
Cu8 In5 2.681937 1_655
Cu8 In2 2.717520 1_565
Cu8 In6 2.813999 1_555
Cu8 In8 2.816014 1_565
Cu8 In8 2.816014 1_665
Cu8 In3 2.927937 1_555
Cu9 In4 2.681937 1_655
Cu9 In4 2.681937 1_555
Cu9 In3 2.717520 1_545
Cu9 In7 2.813999 1_555
Cu9 In8 2.816014 1_655
Cu9 In8 2.816014 1_555
Cu9 In2 2.927937 1_555
Cu10 Cu4 2.489037 1_555
Cu10 Cu5 2.489037 1_554
Cu10 Cu7 2.738425 1_555
Cu10 Cu7 2.738425 1_655
Cu10 Cu6 2.738425 1_554
Cu10 Cu6 2.738425 1_654
Cu10 In7 2.916078 1_554
Cu10 In6 2.916078 1_555
Cu10 In0 2.978530 1_554
Cu10 In0 2.978530 1_654
Cu10 In1 2.978530 1_555
Cu10 In1 2.978530 1_655
