# generated using pymatgen
data_LaTi6(PO4)9
_symmetry_space_group_name_H-M   'P 1'
_cell_length_a   8.98191200
_cell_length_b   12.29922859
_cell_length_c   14.54391463
_cell_angle_alpha   113.23290611
_cell_angle_beta   105.61465188
_cell_angle_gamma   95.26963750
_symmetry_Int_Tables_number   1
_chemical_formula_structural   LaTi6(PO4)9
_chemical_formula_sum   'La2 Ti12 P18 O72'
_cell_volume   1385.84876464
_cell_formula_units_Z   2
loop_
 _symmetry_equiv_pos_site_id
 _symmetry_equiv_pos_as_xyz
  1  'x, y, z'
loop_
 _atom_site_type_symbol
 _atom_site_label
 _atom_site_symmetry_multiplicity
 _atom_site_fract_x
 _atom_site_fract_y
 _atom_site_fract_z
 _atom_site_occupancy
  La  La0  1  0.66709600  0.66641200  0.83116900  1
  La  La1  1  0.33290400  0.33358800  0.16883100  1
  Ti  Ti0  1  0.71089800  0.64652400  0.50044500  1
  Ti  Ti1  1  0.37673200  0.30792900  0.82955500  1
  Ti  Ti2  1  0.04628100  0.97861400  0.16995400  1
  Ti  Ti3  1  0.28910200  0.35347600  0.49955500  1
  Ti  Ti4  1  0.95371900  0.02138600  0.83004600  1
  Ti  Ti5  1  0.62326800  0.69207100  0.17044500  1
  Ti  Ti6  1  0.03338600  0.48598100  0.16778600  1
  Ti  Ti7  1  0.71337300  0.14109500  0.50052300  1
  Ti  Ti8  1  0.36345900  0.81726200  0.83155300  1
  Ti  Ti9  1  0.96661400  0.51401900  0.83221400  1
  Ti  Ti10  1  0.63654100  0.18273800  0.16844700  1
  Ti  Ti11  1  0.28662700  0.85890500  0.49947700  1
  P  P0  1  0.06795500  0.82612000  0.64217400  1
  P  P1  1  0.73392700  0.49203400  0.97705300  1
  P  P2  1  0.40569800  0.15877300  0.31200600  1
  P  P3  1  0.73233400  0.48981800  0.26047900  1
  P  P4  1  0.40135300  0.15433400  0.59106000  1
  P  P5  1  0.06555600  0.82334000  0.92773600  1
  P  P6  1  0.68569600  0.43958600  0.59492300  1
  P  P7  1  0.35147100  0.10923800  0.93008400  1
  P  P8  1  0.01814300  0.77638200  0.26409200  1
  P  P9  1  0.93204500  0.17388000  0.35782600  1
  P  P10  1  0.59430200  0.84122700  0.68799400  1
  P  P11  1  0.26607300  0.50796600  0.02294700  1
  P  P12  1  0.26766600  0.51018200  0.73952100  1
  P  P13  1  0.93444400  0.17666000  0.07226400  1
  P  P14  1  0.59864700  0.84566600  0.40894000  1
  P  P15  1  0.31430400  0.56041400  0.40507700  1
  P  P16  1  0.98185700  0.22361800  0.73590800  1
  P  P17  1  0.64852900  0.89076200  0.06991600  1
  O  O0  1  0.15404500  0.24783700  0.73893300  1
  O  O1  1  0.81811400  0.90796300  0.06609400  1
  O  O2  1  0.48433800  0.57272800  0.39947600  1
  O  O3  1  0.29638500  0.38542400  0.95576100  1
  O  O4  1  0.95949900  0.05360800  0.28354600  1
  O  O5  1  0.62921200  0.71850200  0.62311600  1
  O  O6  1  0.37410700  0.46408000  0.81199400  1
  O  O7  1  0.04052000  0.12991000  0.14403400  1
  O  O8  1  0.69838300  0.79184700  0.47715500  1
  O  O9  1  0.84595500  0.75216300  0.26106700  1
  O  O10  1  0.51566200  0.42727200  0.60052400  1
  O  O11  1  0.18188600  0.09203700  0.93390600  1
  O  O12  1  0.70361500  0.61457600  0.04423900  1
  O  O13  1  0.37078800  0.28149800  0.37688400  1
  O  O14  1  0.04050100  0.94639200  0.71645400  1
  O  O15  1  0.62589300  0.53592000  0.18800600  1
  O  O16  1  0.30161700  0.20815300  0.52284500  1
  O  O17  1  0.95948000  0.87009000  0.85596600  1
  O  O18  1  0.20917300  0.79252000  0.70908300  1
  O  O19  1  0.87644500  0.45847800  0.03966200  1
  O  O20  1  0.54543700  0.12574900  0.37314900  1
  O  O21  1  0.88641200  0.46831500  0.23438800  1
  O  O22  1  0.55713100  0.13795900  0.56807500  1
  O  O23  1  0.22043400  0.80252200  0.90233800  1
  O  O24  1  0.73956600  0.32041200  0.55860800  1
  O  O25  1  0.40562100  0.98763800  0.89224500  1
  O  O26  1  0.06901700  0.65213800  0.22226600  1
  O  O27  1  0.79082700  0.20748000  0.29091700  1
  O  O28  1  0.45456300  0.87425100  0.62685100  1
  O  O29  1  0.12355500  0.54152200  0.96033800  1
  O  O30  1  0.11358800  0.53168500  0.76561200  1
  O  O31  1  0.77956600  0.19747800  0.09766200  1
  O  O32  1  0.44286900  0.86204100  0.43192500  1
  O  O33  1  0.26043400  0.67958800  0.44139200  1
  O  O34  1  0.93098300  0.34786200  0.77773400  1
  O  O35  1  0.59437900  0.01236200  0.10775500  1
  O  O36  1  0.77968400  0.57466000  0.37869300  1
  O  O37  1  0.44337000  0.24120000  0.71105100  1
  O  O38  1  0.11222000  0.90854300  0.04623800  1
  O  O39  1  0.70557000  0.50313200  0.52497000  1
  O  O40  1  0.37226300  0.16744200  0.85702800  1
  O  O41  1  0.03710700  0.83432700  0.19010200  1
  O  O42  1  0.92354800  0.72068800  0.59795300  1
  O  O43  1  0.58977800  0.38602000  0.93019000  1
  O  O44  1  0.25740700  0.05398700  0.26359000  1
  O  O45  1  0.22031600  0.42534000  0.62130700  1
  O  O46  1  0.88778000  0.09145700  0.95376200  1
  O  O47  1  0.55663000  0.75880000  0.28894900  1
  O  O48  1  0.29443000  0.49686800  0.47503000  1
  O  O49  1  0.96289300  0.16567300  0.80989800  1
  O  O50  1  0.62773700  0.83255800  0.14297200  1
  O  O51  1  0.07645200  0.27931200  0.40204700  1
  O  O52  1  0.74259300  0.94601300  0.73641000  1
  O  O53  1  0.41022200  0.61398000  0.06981000  1
  O  O54  1  0.88463500  0.16102300  0.44641300  1
  O  O55  1  0.55853400  0.82361400  0.78223400  1
  O  O56  1  0.22528400  0.49063200  0.11523300  1
  O  O57  1  0.36980500  0.63497400  0.76478800  1
  O  O58  1  0.03641200  0.30143800  0.09751900  1
  O  O59  1  0.69330000  0.96880700  0.43104100  1
  O  O60  1  0.20781100  0.47303900  0.28635700  1
  O  O61  1  0.87054800  0.14521100  0.62311700  1
  O  O62  1  0.54115600  0.80601100  0.95330400  1
  O  O63  1  0.11536500  0.83897700  0.55358700  1
  O  O64  1  0.77471600  0.50936800  0.88476700  1
  O  O65  1  0.44146600  0.17638600  0.21776600  1
  O  O66  1  0.63019500  0.36502600  0.23521200  1
  O  O67  1  0.30670000  0.03119300  0.56895900  1
  O  O68  1  0.96358800  0.69856200  0.90248100  1
  O  O69  1  0.79218900  0.52696100  0.71364300  1
  O  O70  1  0.45884400  0.19398900  0.04669600  1
  O  O71  1  0.12945200  0.85478900  0.37688300  1
loop_
_geom_bond_atom_site_label_1
_geom_bond_atom_site_label_2
_geom_bond_distance
_geom_bond_site_symmetry_2
La0 O69 2.490127 1_555
La0 O55 2.500791 1_555
La0 O68 2.513982 1_555
La0 O57 2.517898 1_555
La0 O64 2.529427 1_555
La0 O62 2.532809 1_555
La1 O60 2.490127 1_555
La1 O65 2.500791 1_555
La1 O58 2.513982 1_555
La1 O66 2.517898 1_555
La1 O56 2.529427 1_555
La1 O70 2.532809 1_555
O0 P16 1.533290 1_455
O0 Ti1 1.955704 1_555
O1 P17 1.537415 1_555
O1 Ti2 2.051239 1_655
O2 P15 1.547975 1_555
O2 Ti0 2.030209 1_555
O3 P11 1.535320 1_556
O3 Ti1 2.063402 1_555
O4 P9 1.538091 1_555
O4 Ti2 1.952119 1_645
O5 P10 1.545825 1_555
O5 Ti0 2.020644 1_555
O6 P12 1.541150 1_555
O6 Ti1 2.036250 1_555
O7 P13 1.538404 1_455
O7 Ti2 2.041586 1_545
O8 P14 1.540622 1_555
O8 Ti0 1.953480 1_555
O9 P8 1.533290 1_655
O9 Ti5 1.955704 1_555
O10 P6 1.547975 1_555
O10 Ti3 2.030209 1_555
O11 P7 1.537415 1_555
O11 Ti4 2.051239 1_455
O12 P1 1.535320 1_554
O12 Ti5 2.063402 1_555
O13 P2 1.545825 1_555
O13 Ti3 2.020644 1_555
O14 P0 1.538091 1_555
O14 Ti4 1.952119 1_465
O15 P3 1.541150 1_555
O15 Ti5 2.036250 1_555
O16 P4 1.540622 1_555
O16 Ti3 1.953480 1_555
O17 P5 1.538404 1_655
O17 Ti4 2.041586 1_565
O18 P0 1.573429 1_555
O18 Ti8 1.830783 1_555
O19 P1 1.550531 1_554
O19 Ti6 1.890739 1_655
O20 P2 1.519487 1_555
O20 Ti7 1.977436 1_555
O21 P3 1.549167 1_555
O21 Ti6 1.878809 1_655
O22 P4 1.536383 1_555
O22 Ti7 1.923100 1_555
O23 P5 1.550677 1_555
O23 Ti8 1.886647 1_555
O24 P6 1.522687 1_555
O24 Ti7 1.990192 1_555
O25 P7 1.550663 1_565
O25 Ti8 1.878471 1_555
O26 P8 1.567953 1_555
O26 Ti6 1.836415 1_555
O27 P9 1.573429 1_555
O27 Ti10 1.830783 1_555
O28 P10 1.519487 1_555
O28 Ti11 1.977436 1_555
O29 P11 1.550531 1_556
O29 Ti9 1.890739 1_455
O30 P12 1.549167 1_555
O30 Ti9 1.878809 1_455
O31 P13 1.550677 1_555
O31 Ti10 1.886647 1_555
O32 P14 1.536383 1_555
O32 Ti11 1.923100 1_555
O33 P15 1.522687 1_555
O33 Ti11 1.990192 1_555
O34 P16 1.567953 1_555
O34 Ti9 1.836415 1_555
O35 P17 1.550663 1_545
O35 Ti10 1.878471 1_555
O36 P3 1.528123 1_555
O36 Ti0 1.937259 1_555
O37 P4 1.558785 1_555
O37 Ti1 1.879339 1_555
O38 P5 1.532898 1_554
O38 Ti2 1.942956 1_555
O39 P6 1.541839 1_555
O39 Ti0 1.931274 1_555
O40 P7 1.535784 1_555
O40 Ti1 1.920265 1_555
O41 P8 1.541542 1_555
O41 Ti2 1.907441 1_555
O42 P0 1.536720 1_655
O42 Ti0 1.921602 1_555
O43 P1 1.534513 1_555
O43 Ti1 1.942169 1_555
O44 P2 1.547477 1_555
O44 Ti2 1.897590 1_545
O45 P12 1.528123 1_555
O45 Ti3 1.937259 1_555
O46 P13 1.532898 1_556
O46 Ti4 1.942956 1_555
O47 P14 1.558785 1_555
O47 Ti5 1.879339 1_555
O48 P15 1.541839 1_555
O48 Ti3 1.931274 1_555
O49 P16 1.541542 1_555
O49 Ti4 1.907441 1_555
O50 P17 1.535784 1_555
O50 Ti5 1.920265 1_555
O51 P9 1.536720 1_455
O51 Ti3 1.921602 1_555
O52 P10 1.547477 1_555
O52 Ti4 1.897590 1_565
O53 P11 1.534513 1_555
O53 Ti5 1.942169 1_555
O54 P9 1.519881 1_555
O54 Ti7 1.944286 1_555
O55 P10 1.577099 1_555
O55 Ti8 2.070331 1_555
O56 P11 1.567577 1_555
O56 Ti6 2.069755 1_555
O57 P12 1.564388 1_555
O57 Ti8 2.075675 1_555
O58 P13 1.563633 1_455
O58 Ti6 2.095977 1_555
O59 P14 1.533697 1_555
O59 Ti7 1.919961 1_565
O60 P15 1.584076 1_555
O60 Ti6 2.064365 1_555
O61 P16 1.520675 1_555
O61 Ti7 1.932678 1_555
O62 P17 1.559848 1_556
O62 Ti8 2.101073 1_555
O63 P0 1.519881 1_555
O63 Ti11 1.944286 1_555
O64 P1 1.567577 1_555
O64 Ti9 2.069755 1_555
O65 P2 1.577099 1_555
O65 Ti10 2.070331 1_555
O66 P3 1.564388 1_555
O66 Ti10 2.075675 1_555
O67 P4 1.533697 1_555
O67 Ti11 1.919961 1_545
O68 P5 1.563633 1_655
O68 Ti9 2.095977 1_555
O69 P6 1.584076 1_555
O69 Ti9 2.064365 1_555
O70 P7 1.559848 1_554
O70 Ti10 2.101073 1_555
O71 P8 1.520675 1_555
O71 Ti11 1.932678 1_555
