# generated using pymatgen
data_BaSnN2
_symmetry_space_group_name_H-M   'P 1'
_cell_length_a   4.15585700
_cell_length_b   4.15585700
_cell_length_c   8.57910300
_cell_angle_alpha   90.00000000
_cell_angle_beta   90.00000000
_cell_angle_gamma   90.00000000
_symmetry_Int_Tables_number   1
_chemical_formula_structural   BaSnN2
_chemical_formula_sum   'Ba2 Sn2 N4'
_cell_volume   148.17095251
_cell_formula_units_Z   2
loop_
 _symmetry_equiv_pos_site_id
 _symmetry_equiv_pos_as_xyz
  1  'x, y, z'
loop_
 _atom_site_type_symbol
 _atom_site_label
 _atom_site_symmetry_multiplicity
 _atom_site_fract_x
 _atom_site_fract_y
 _atom_site_fract_z
 _atom_site_occupancy
  Ba  Ba0  1  0.75000000  0.75000000  0.15111600  1
  Ba  Ba1  1  0.25000000  0.25000000  0.84888400  1
  Sn  Sn0  1  0.75000000  0.75000000  0.60171600  1
  Sn  Sn1  1  0.25000000  0.25000000  0.39828400  1
  N  N0  1  0.75000000  0.25000000  0.50000000  1
  N  N1  1  0.25000000  0.75000000  0.50000000  1
  N  N2  1  0.75000000  0.75000000  0.84051500  1
  N  N3  1  0.25000000  0.25000000  0.15948500  1
loop_
_geom_bond_atom_site_label_1
_geom_bond_atom_site_label_2
_geom_bond_distance
_geom_bond_site_symmetry_2
Ba0 N2 2.664678 1_554
Ba0 N3 2.939512 1_665
Ba0 N3 2.939512 1_555
Ba0 N3 2.939512 1_565
Ba0 N3 2.939512 1_655
Ba1 N3 2.664678 1_556
Ba1 N2 2.939512 1_455
Ba1 N2 2.939512 1_445
Ba1 N2 2.939512 1_545
Ba1 N2 2.939512 1_555
N0 Sn1 2.253724 1_655
N0 Sn0 2.253724 1_555
N0 Sn1 2.253724 1_555
N0 Sn0 2.253724 1_545
N1 Sn1 2.253724 1_565
N1 Sn0 2.253724 1_555
N1 Sn0 2.253724 1_455
N1 Sn1 2.253724 1_555
N2 Sn0 2.048681 1_555
N3 Sn1 2.048681 1_555
