# generated using pymatgen
data_PrMg(BiO3)2
_symmetry_space_group_name_H-M   'P 1'
_cell_length_a   5.82623174
_cell_length_b   5.82623174
_cell_length_c   8.65081755
_cell_angle_alpha   90.00000000
_cell_angle_beta   90.00000000
_cell_angle_gamma   90.00000000
_symmetry_Int_Tables_number   1
_chemical_formula_structural   PrMg(BiO3)2
_chemical_formula_sum   'Pr2 Mg2 Bi4 O12'
_cell_volume   293.65179661
_cell_formula_units_Z   2
loop_
 _symmetry_equiv_pos_site_id
 _symmetry_equiv_pos_as_xyz
  1  'x, y, z'
loop_
 _atom_site_type_symbol
 _atom_site_label
 _atom_site_symmetry_multiplicity
 _atom_site_fract_x
 _atom_site_fract_y
 _atom_site_fract_z
 _atom_site_occupancy
  Pr  Pr0  1  0.50000000  0.50000000  -0.00000000  1
  Pr  Pr1  1  -0.00000000  -0.00000000  0.50000000  1
  Mg  Mg0  1  0.50000000  0.50000000  0.50000000  1
  Mg  Mg1  1  -0.00000000  -0.00000000  -0.00000000  1
  Bi  Bi0  1  0.50000000  -0.00000000  0.75000000  1
  Bi  Bi1  1  -0.00000000  0.50000000  0.75000000  1
  Bi  Bi2  1  0.50000000  -0.00000000  0.25000000  1
  Bi  Bi3  1  -0.00000000  0.50000000  0.25000000  1
  O  O0  1  0.50000000  0.50000000  0.73408888  1
  O  O1  1  -0.00000000  -0.00000000  0.76591112  1
  O  O2  1  0.50000000  0.50000000  0.26591112  1
  O  O3  1  -0.00000000  -0.00000000  0.23408888  1
  O  O4  1  0.63189852  0.16757572  0.50000000  1
  O  O5  1  0.36810148  0.83242428  0.50000000  1
  O  O6  1  0.83242428  0.63189852  0.50000000  1
  O  O7  1  0.16757572  0.36810148  0.50000000  1
  O  O8  1  0.86810148  0.66757572  -0.00000000  1
  O  O9  1  0.13189852  0.33242428  -0.00000000  1
  O  O10  1  0.66757572  0.13189852  -0.00000000  1
  O  O11  1  0.33242428  0.86810148  -0.00000000  1
loop_
_geom_bond_atom_site_label_1
_geom_bond_atom_site_label_2
_geom_bond_distance
_geom_bond_site_symmetry_2
Mg0 O2 2.025060 1_555
Mg0 O0 2.025060 1_555
Mg0 O5 2.083667 1_555
Mg0 O6 2.083667 1_555
Mg0 O7 2.083667 1_555
Mg0 O4 2.083667 1_555
Mg1 O1 2.025060 1_554
Mg1 O3 2.025060 1_555
Mg1 O10 2.083667 1_455
Mg1 O8 2.083667 1_445
Mg1 O9 2.083667 1_555
Mg1 O11 2.083667 1_545
Bi0 O11 2.494207 1_546
Bi0 O10 2.494207 1_556
Bi0 O5 2.494207 1_545
Bi0 O4 2.494207 1_555
Bi1 O9 2.494207 1_556
Bi1 O6 2.494207 1_455
Bi1 O7 2.494207 1_555
Bi1 O8 2.494207 1_456
Bi2 O10 2.494207 1_555
Bi2 O11 2.494207 1_545
Bi2 O5 2.494207 1_545
Bi2 O4 2.494207 1_555
Bi3 O6 2.494207 1_455
Bi3 O9 2.494207 1_555
Bi3 O8 2.494207 1_455
Bi3 O7 2.494207 1_555
O0 Pr0 2.300349 1_556
O1 Pr1 2.300349 1_555
O2 Pr0 2.300349 1_555
O3 Pr1 2.300349 1_555
O4 Pr1 2.356423 1_655
O5 Pr1 2.356423 1_565
O6 Pr1 2.356423 1_665
O7 Pr1 2.356423 1_555
O8 Pr0 2.356423 1_555
O9 Pr0 2.356423 1_555
O10 Pr0 2.356423 1_555
O11 Pr0 2.356423 1_555
