# generated using pymatgen
data_V3Fe
_symmetry_space_group_name_H-M   'P 1'
_cell_length_a   4.61896515
_cell_length_b   4.61896515
_cell_length_c   4.61896515
_cell_angle_alpha   90.00000000
_cell_angle_beta   90.00000000
_cell_angle_gamma   90.00000000
_symmetry_Int_Tables_number   1
_chemical_formula_structural   V3Fe
_chemical_formula_sum   'V6 Fe2'
_cell_volume   98.54487808
_cell_formula_units_Z   2
loop_
 _symmetry_equiv_pos_site_id
 _symmetry_equiv_pos_as_xyz
  1  'x, y, z'
loop_
 _atom_site_type_symbol
 _atom_site_label
 _atom_site_symmetry_multiplicity
 _atom_site_fract_x
 _atom_site_fract_y
 _atom_site_fract_z
 _atom_site_occupancy
  V  V0  1  0.00000000  0.50000000  0.75000000  1
  V  V1  1  0.50000000  0.25000000  0.00000000  1
  V  V2  1  0.75000000  -0.00000000  0.50000000  1
  V  V3  1  0.00000000  0.50000000  0.25000000  1
  V  V4  1  0.50000000  0.75000000  0.00000000  1
  V  V5  1  0.25000000  -0.00000000  0.50000000  1
  Fe  Fe0  1  0.50000000  0.50000000  0.50000000  1
  Fe  Fe1  1  0.00000000  -0.00000000  0.00000000  1
loop_
_geom_bond_atom_site_label_1
_geom_bond_atom_site_label_2
_geom_bond_distance
_geom_bond_site_symmetry_2
V0 V3 2.309483 1_555
V0 V3 2.309483 1_556
V1 V4 2.309483 1_545
V1 V4 2.309483 1_555
V2 V5 2.309483 1_655
V2 V5 2.309483 1_555
Fe0 V1 2.582080 1_556
Fe0 V0 2.582080 1_655
Fe0 V2 2.582080 1_555
Fe0 V3 2.582080 1_655
Fe0 V0 2.582080 1_555
Fe0 V4 2.582080 1_556
Fe0 V5 2.582080 1_555
Fe0 V4 2.582080 1_555
Fe0 V1 2.582080 1_555
Fe0 V3 2.582080 1_555
Fe0 V5 2.582080 1_565
Fe0 V2 2.582080 1_565
Fe1 V5 2.582080 1_554
Fe1 V0 2.582080 1_544
Fe1 V2 2.582080 1_455
Fe1 V4 2.582080 1_545
Fe1 V5 2.582080 1_555
Fe1 V0 2.582080 1_554
Fe1 V3 2.582080 1_545
Fe1 V4 2.582080 1_445
Fe1 V1 2.582080 1_555
Fe1 V3 2.582080 1_555
Fe1 V1 2.582080 1_455
Fe1 V2 2.582080 1_454
