# generated using pymatgen
data_DyMg(BO2)5
_symmetry_space_group_name_H-M   'P 1'
_cell_length_a   7.65540100
_cell_length_b   8.62902300
_cell_length_c   12.35195391
_cell_angle_alpha   49.36817612
_cell_angle_beta   90.00000000
_cell_angle_gamma   90.00000000
_symmetry_Int_Tables_number   1
_chemical_formula_structural   DyMg(BO2)5
_chemical_formula_sum   'Dy4 Mg4 B20 O40'
_cell_volume   619.23479889
_cell_formula_units_Z   4
loop_
 _symmetry_equiv_pos_site_id
 _symmetry_equiv_pos_as_xyz
  1  'x, y, z'
loop_
 _atom_site_type_symbol
 _atom_site_label
 _atom_site_symmetry_multiplicity
 _atom_site_fract_x
 _atom_site_fract_y
 _atom_site_fract_z
 _atom_site_occupancy
  Dy  Dy0  1  0.19183100  0.94592000  0.24137300  1
  Dy  Dy1  1  0.80816900  0.05408000  0.75862700  1
  Dy  Dy2  1  0.69183100  0.05408000  0.25862700  1
  Dy  Dy3  1  0.30816900  0.94592000  0.74137300  1
  Mg  Mg0  1  0.90909900  0.52688000  0.37190600  1
  Mg  Mg1  1  0.09090100  0.47312000  0.62809400  1
  Mg  Mg2  1  0.40909900  0.47312000  0.12809400  1
  Mg  Mg3  1  0.59090100  0.52688000  0.87190600  1
  B  B0  1  0.82663200  0.91281000  0.10381800  1
  B  B1  1  0.17336800  0.08719000  0.89618200  1
  B  B2  1  0.32663200  0.08719000  0.39618200  1
  B  B3  1  0.67336800  0.91281000  0.60381800  1
  B  B4  1  0.57605000  0.65910700  0.25833400  1
  B  B5  1  0.42395000  0.34089300  0.74166600  1
  B  B6  1  0.07605000  0.34089300  0.24166600  1
  B  B7  1  0.92395000  0.65910700  0.75833400  1
  B  B8  1  0.81239000  0.47737300  0.08831900  1
  B  B9  1  0.18761000  0.52262700  0.91168100  1
  B  B10  1  0.31239000  0.52262700  0.41168100  1
  B  B11  1  0.68761000  0.47737300  0.58831900  1
  B  B12  1  0.46826200  0.72207200  0.55548600  1
  B  B13  1  0.53173800  0.27792800  0.44451400  1
  B  B14  1  0.96826200  0.27792800  0.94451400  1
  B  B15  1  0.03173800  0.72207200  0.05548600  1
  B  B16  1  0.59815600  0.84679700  0.99459800  1
  B  B17  1  0.40184400  0.15320300  0.00540200  1
  B  B18  1  0.09815600  0.15320300  0.50540200  1
  B  B19  1  0.90184400  0.84679700  0.49459800  1
  O  O0  1  0.91288000  0.31203800  0.19427900  1
  O  O1  1  0.08712000  0.68796200  0.80572100  1
  O  O2  1  0.41288000  0.68796200  0.30572100  1
  O  O3  1  0.58712000  0.31203800  0.69427900  1
  O  O4  1  0.87324900  0.67315100  0.00954900  1
  O  O5  1  0.12675100  0.32684900  0.99045100  1
  O  O6  1  0.37324900  0.32684900  0.49045100  1
  O  O7  1  0.62675100  0.67315100  0.50954900  1
  O  O8  1  0.39056100  0.90605100  0.41875200  1
  O  O9  1  0.60943900  0.09394900  0.58124800  1
  O  O10  1  0.89056100  0.09394900  0.08124800  1
  O  O11  1  0.10943900  0.90605100  0.91875200  1
  O  O12  1  0.71053200  0.80437300  0.23086600  1
  O  O13  1  0.28946800  0.19562700  0.76913400  1
  O  O14  1  0.21053200  0.19562700  0.26913400  1
  O  O15  1  0.78946800  0.80437300  0.73086600  1
  O  O16  1  0.65070800  0.42265800  0.07379000  1
  O  O17  1  0.34929200  0.57734200  0.92621000  1
  O  O18  1  0.15070800  0.57734200  0.42621000  1
  O  O19  1  0.84929200  0.42265800  0.57379000  1
  O  O20  1  0.77119900  0.97369800  0.47882500  1
  O  O21  1  0.22880100  0.02630200  0.52117500  1
  O  O22  1  0.27119900  0.02630200  0.02117500  1
  O  O23  1  0.72880100  0.97369800  0.97882500  1
  O  O24  1  0.64988000  0.45337900  0.36513600  1
  O  O25  1  0.35012000  0.54662100  0.63486400  1
  O  O26  1  0.14988000  0.54662100  0.13486400  1
  O  O27  1  0.85012000  0.45337900  0.86513600  1
  O  O28  1  0.53057300  0.68994500  0.12710400  1
  O  O29  1  0.46942700  0.31005500  0.87289600  1
  O  O30  1  0.03057300  0.31005500  0.37289600  1
  O  O31  1  0.96942700  0.68994500  0.62710400  1
  O  O32  1  0.95256000  0.88338700  0.37495200  1
  O  O33  1  0.04744000  0.11661300  0.62504800  1
  O  O34  1  0.45256000  0.11661300  0.12504800  1
  O  O35  1  0.54744000  0.88338700  0.87495200  1
  O  O36  1  0.97182300  0.76675100  0.14808900  1
  O  O37  1  0.02817700  0.23324900  0.85191100  1
  O  O38  1  0.47182300  0.23324900  0.35191100  1
  O  O39  1  0.52817700  0.76675100  0.64808900  1
loop_
_geom_bond_atom_site_label_1
_geom_bond_atom_site_label_2
_geom_bond_distance
_geom_bond_site_symmetry_2
Dy0 O32 2.282363 1_455
Dy0 O34 2.337014 1_565
Dy0 O14 2.396501 1_565
Dy0 O22 2.406443 1_565
Dy0 O18 2.443346 1_555
Dy0 O2 2.479088 1_555
Dy0 O8 2.500315 1_555
Dy0 O5 2.718552 1_564
Dy0 O10 2.751795 1_465
Dy0 O36 2.979051 1_455
Dy1 O33 2.282363 1_655
Dy1 O35 2.337014 1_545
Dy1 O15 2.396501 1_545
Dy1 O23 2.406443 1_545
Dy1 O19 2.443346 1_555
Dy1 O3 2.479088 1_555
Dy1 O9 2.500315 1_555
Dy1 O4 2.718552 1_546
Dy1 O11 2.751795 1_645
Dy1 O37 2.979051 1_655
Dy2 O34 2.282363 1_555
Dy2 O32 2.337014 1_545
Dy2 O12 2.396501 1_545
Dy2 O20 2.406443 1_545
Dy2 O16 2.443346 1_555
Dy2 O0 2.479088 1_555
Dy2 O10 2.500315 1_555
Dy2 O7 2.718552 1_545
Dy2 O8 2.751795 1_545
Dy2 O38 2.979051 1_555
Dy3 O35 2.282363 1_555
Dy3 O33 2.337014 1_565
Dy3 O13 2.396501 1_565
Dy3 O21 2.406443 1_565
Dy3 O17 2.443346 1_555
Dy3 O1 2.479088 1_555
Dy3 O11 2.500315 1_555
Dy3 O6 2.718552 1_565
Dy3 O9 2.751795 1_565
Dy3 O39 2.979051 1_555
Mg0 O19 2.077495 1_555
Mg0 O30 2.082240 1_655
Mg0 O24 2.101493 1_555
Mg0 O18 2.107366 1_655
Mg0 O36 2.169127 1_555
Mg0 O12 2.376214 1_555
Mg1 O18 2.077495 1_555
Mg1 O31 2.082240 1_455
Mg1 O25 2.101493 1_555
Mg1 O19 2.107366 1_455
Mg1 O37 2.169127 1_555
Mg1 O13 2.376214 1_555
Mg2 O17 2.077495 1_554
Mg2 O28 2.082240 1_555
Mg2 O26 2.101493 1_555
Mg2 O16 2.107366 1_555
Mg2 O38 2.169127 1_555
Mg2 O14 2.376214 1_555
Mg3 O16 2.077495 1_556
Mg3 O29 2.082240 1_555
Mg3 O27 2.101493 1_555
Mg3 O17 2.107366 1_555
Mg3 O39 2.169127 1_555
Mg3 O15 2.376214 1_555
B0 O23 1.471101 1_554
B0 O10 1.480826 1_565
B0 O12 1.488538 1_555
B0 O36 1.491749 1_555
B1 O22 1.471101 1_556
B1 O11 1.480826 1_545
B1 O13 1.488538 1_555
B1 O37 1.491749 1_555
B2 O21 1.471101 1_555
B2 O8 1.480826 1_545
B2 O14 1.488538 1_555
B2 O38 1.491749 1_555
B3 O20 1.471101 1_555
B3 O9 1.480826 1_565
B3 O15 1.488538 1_555
B3 O39 1.491749 1_555
B4 O2 1.467903 1_555
B4 O24 1.470081 1_555
B4 O12 1.480670 1_555
B4 O28 1.502569 1_555
B5 O3 1.467903 1_555
B5 O25 1.470081 1_555
B5 O13 1.480670 1_555
B5 O29 1.502569 1_555
B6 O0 1.467903 1_455
B6 O26 1.470081 1_555
B6 O14 1.480670 1_555
B6 O30 1.502569 1_555
B7 O1 1.467903 1_655
B7 O27 1.470081 1_555
B7 O15 1.480670 1_555
B7 O31 1.502569 1_555
B8 O4 1.370023 1_555
B8 O16 1.377488 1_555
B8 O0 1.381418 1_555
B9 O5 1.370023 1_555
B9 O17 1.377488 1_555
B9 O1 1.381418 1_555
B10 O6 1.370023 1_555
B10 O18 1.377488 1_555
B10 O2 1.381418 1_555
B11 O7 1.370023 1_555
B11 O19 1.377488 1_555
B11 O3 1.381418 1_555
B12 O25 1.462237 1_555
B12 O8 1.494853 1_555
B12 O39 1.497231 1_555
B12 O7 1.511359 1_555
B13 O24 1.462237 1_555
B13 O9 1.494853 1_555
B13 O38 1.497231 1_555
B13 O6 1.511359 1_555
B14 O27 1.462237 1_555
B14 O10 1.494853 1_556
B14 O37 1.497231 1_655
B14 O5 1.511359 1_655
B15 O26 1.462237 1_555
B15 O11 1.494853 1_554
B15 O36 1.497231 1_455
B15 O4 1.511359 1_455
B16 O35 1.351588 1_555
B16 O28 1.375962 1_556
B16 O23 1.399813 1_555
B17 O34 1.351588 1_555
B17 O29 1.375962 1_554
B17 O22 1.399813 1_555
B18 O33 1.351588 1_555
B18 O30 1.375962 1_555
B18 O21 1.399813 1_555
B19 O32 1.351588 1_555
B19 O31 1.375962 1_555
B19 O20 1.399813 1_555
