# generated using pymatgen
data_Cu4SO12
_symmetry_space_group_name_H-M   'P 1'
_cell_length_a   5.19453100
_cell_length_b   5.88042304
_cell_length_c   14.12291128
_cell_angle_alpha   93.28651424
_cell_angle_beta   90.00000000
_cell_angle_gamma   90.00000000
_symmetry_Int_Tables_number   1
_chemical_formula_structural   Cu4SO12
_chemical_formula_sum   'Cu8 S2 O24'
_cell_volume   430.68950367
_cell_formula_units_Z   2
loop_
 _symmetry_equiv_pos_site_id
 _symmetry_equiv_pos_as_xyz
  1  'x, y, z'
loop_
 _atom_site_type_symbol
 _atom_site_label
 _atom_site_symmetry_multiplicity
 _atom_site_fract_x
 _atom_site_fract_y
 _atom_site_fract_z
 _atom_site_occupancy
  Cu  Cu0  1  0.32629300  0.00482700  0.25190100  1
  Cu  Cu1  1  0.67370700  0.00482700  0.75190100  1
  Cu  Cu2  1  0.32137100  0.50548600  0.24626800  1
  Cu  Cu3  1  0.67862900  0.50548600  0.74626800  1
  Cu  Cu4  1  0.82099000  0.25770500  0.24532700  1
  Cu  Cu5  1  0.17901000  0.25770500  0.74532700  1
  Cu  Cu6  1  0.17963700  0.75181400  0.74818500  1
  Cu  Cu7  1  0.82036300  0.75181400  0.24818500  1
  S  S0  1  0.02946700  0.06525500  0.46696400  1
  S  S1  1  0.97053300  0.06525500  0.96696400  1
  O  O0  1  0.00966200  0.02275100  0.35778700  1
  O  O1  1  0.99033800  0.02275100  0.85778700  1
  O  O2  1  0.95065100  0.84814900  0.50913900  1
  O  O3  1  0.04934900  0.84814900  0.00913900  1
  O  O4  1  0.30652800  0.10946200  0.48919600  1
  O  O5  1  0.69347200  0.10946200  0.98919600  1
  O  O6  1  0.86970500  0.26047300  0.49459400  1
  O  O7  1  0.13029500  0.26047300  0.99459400  1
  O  O8  1  0.49944500  0.75960400  0.31021700  1
  O  O9  1  0.50055500  0.75960400  0.81021700  1
  O  O10  1  0.14904700  0.75535200  0.19287700  1
  O  O11  1  0.85095300  0.75535200  0.69287700  1
  O  O12  1  0.70445700  0.99471400  0.18357900  1
  O  O13  1  0.29554300  0.99471400  0.68357900  1
  O  O14  1  0.49704800  0.26989100  0.30495600  1
  O  O15  1  0.50295200  0.26989100  0.80495600  1
  O  O16  1  0.14692900  0.23387900  0.19104700  1
  O  O17  1  0.85307100  0.23387900  0.69104700  1
  O  O18  1  0.94979800  0.51173100  0.31187200  1
  O  O19  1  0.05020200  0.51173100  0.81187200  1
  O  O20  1  0.62909500  0.51272900  0.16050100  1
  O  O21  1  0.37090500  0.51272900  0.66050100  1
  O  O22  1  0.45932100  0.78478000  0.00629000  1
  O  O23  1  0.54067900  0.78478000  0.50629000  1
loop_
_geom_bond_atom_site_label_1
_geom_bond_atom_site_label_2
_geom_bond_distance
_geom_bond_site_symmetry_2
Cu0 O16 1.885111 1_555
Cu0 O10 1.885341 1_545
Cu0 O14 1.908872 1_555
Cu0 O8 1.924287 1_545
Cu0 O12 2.187877 1_545
Cu0 O0 2.221377 1_555
Cu1 O17 1.885111 1_555
Cu1 O11 1.885341 1_545
Cu1 O15 1.908872 1_555
Cu1 O9 1.924287 1_545
Cu1 O13 2.187877 1_545
Cu1 O1 2.221377 1_555
Cu2 O14 1.889640 1_555
Cu2 O10 1.912009 1_555
Cu2 O8 1.936381 1_555
Cu2 O16 1.958935 1_555
Cu2 O20 2.007504 1_555
Cu2 O18 2.140410 1_455
Cu3 O15 1.889640 1_555
Cu3 O11 1.912009 1_555
Cu3 O9 1.936381 1_555
Cu3 O17 1.958935 1_555
Cu3 O21 2.007504 1_555
Cu3 O19 2.140410 1_655
Cu4 O12 1.834106 1_545
Cu4 O18 1.844274 1_555
Cu4 O16 1.860528 1_655
Cu4 O14 1.881217 1_555
Cu4 O20 2.209918 1_555
Cu4 O0 2.375627 1_655
Cu5 O13 1.834106 1_545
Cu5 O19 1.844274 1_555
Cu5 O17 1.860528 1_455
Cu5 O15 1.881217 1_555
Cu5 O21 2.209918 1_555
Cu5 O1 2.375627 1_455
Cu6 O13 1.839740 1_555
Cu6 O19 1.843857 1_555
Cu6 O11 1.878165 1_455
Cu6 O9 1.882538 1_555
Cu6 O21 2.073077 1_555
Cu6 O1 2.370339 1_465
Cu7 O12 1.839740 1_555
Cu7 O18 1.843857 1_555
Cu7 O10 1.878165 1_655
Cu7 O8 1.882538 1_555
Cu7 O20 2.073077 1_555
Cu7 O0 2.370339 1_665
O0 S0 1.551230 1_555
O1 S1 1.551230 1_555
O2 S0 1.496492 1_665
O3 S1 1.496492 1_464
O4 S0 1.492684 1_555
O5 S1 1.492684 1_555
O6 S0 1.451704 1_655
O7 S1 1.451704 1_455
