# generated using pymatgen
data_V12Ga2GeS24
_symmetry_space_group_name_H-M   'P 1'
_cell_length_a   11.89255127
_cell_length_b   11.89255127
_cell_length_c   11.89255127
_cell_angle_alpha   146.42957495
_cell_angle_beta   131.82574328
_cell_angle_gamma   59.99509557
_symmetry_Int_Tables_number   1
_chemical_formula_structural   V12Ga2GeS24
_chemical_formula_sum   'V12 Ga2 Ge1 S24'
_cell_volume   686.74301788
_cell_formula_units_Z   1
loop_
 _symmetry_equiv_pos_site_id
 _symmetry_equiv_pos_as_xyz
  1  'x, y, z'
loop_
 _atom_site_type_symbol
 _atom_site_label
 _atom_site_symmetry_multiplicity
 _atom_site_fract_x
 _atom_site_fract_y
 _atom_site_fract_z
 _atom_site_occupancy
  V  V0  1  0.93838200  0.12362500  0.39568500  1
  V  V1  1  0.27206000  0.45730300  0.39568500  1
  V  V2  1  0.60430100  0.78979600  0.39409700  1
  V  V3  1  0.79790700  0.40274700  0.39516000  1
  V  V4  1  0.13132100  0.73690200  0.39441900  1
  V  V5  1  0.46572400  0.07012600  0.39559800  1
  V  V6  1  0.65751700  0.26309800  0.39441900  1
  V  V7  1  0.99241300  0.59725300  0.39516000  1
  V  V8  1  0.32547200  0.92987400  0.39559800  1
  V  V9  1  0.93838200  0.54269700  0.81475600  1
  V  V10  1  0.27206000  0.87637500  0.81475600  1
  V  V11  1  0.60430100  0.21020400  0.81450500  1
  Ga  Ga0  1  0.33312300  0.33329800  0.99982400  1
  Ga  Ga1  1  0.66652600  0.66670200  0.99982400  1
  Ge  Ge0  1  0.00032500  0.00000000  0.00032500  1
  S  S0  1  0.70406400  0.59195000  0.62964500  1
  S  S1  1  0.03769500  0.92558100  0.62964500  1
  S  S2  1  0.37084600  0.25881700  0.62966300  1
  S  S3  1  0.87597500  0.24700400  0.62897100  1
  S  S4  1  0.20968900  0.58049000  0.62919900  1
  S  S5  1  0.54294400  0.91373700  0.62920700  1
  S  S6  1  0.04870800  0.41951000  0.62919900  1
  S  S7  1  0.38196700  0.75299600  0.62897100  1
  S  S8  1  0.71547000  0.08626300  0.62920700  1
  S  S9  1  0.70406400  0.07441900  0.11211400  1
  S  S10  1  0.03769500  0.40805000  0.11211400  1
  S  S11  1  0.37084600  0.74118300  0.11202900  1
  S  S12  1  0.19638700  0.60723000  0.13670200  1
  S  S13  1  0.52947200  0.94031500  0.13670200  1
  S  S14  1  0.86415500  0.27216500  0.13632000  1
  S  S15  1  0.04536600  0.90946200  0.13590400  1
  S  S16  1  0.37875300  0.24200800  0.13674500  1
  S  S17  1  0.71274200  0.57528100  0.13746100  1
  S  S18  1  0.89473600  0.75799200  0.13674500  1
  S  S19  1  0.22644200  0.09053800  0.13590400  1
  S  S20  1  0.56218000  0.42471900  0.13746100  1
  S  S21  1  0.19638700  0.05968500  0.58915700  1
  S  S22  1  0.52947200  0.39277000  0.58915700  1
  S  S23  1  0.86415500  0.72783500  0.59199000  1
loop_
_geom_bond_atom_site_label_1
_geom_bond_atom_site_label_2
_geom_bond_distance
_geom_bond_site_symmetry_2
Ga0 S21 2.302636 1_555
Ga0 S12 2.302642 1_556
Ga0 S16 2.302790 1_556
Ga0 S20 2.308992 1_556
Ga1 S22 2.302636 1_555
Ga1 S13 2.302636 1_556
Ga1 S18 2.302773 1_556
Ga1 S17 2.309003 1_556
Ge0 S19 2.282616 1_555
Ge0 S15 2.282616 1_545
Ge0 S23 2.289558 1_444
Ge0 S14 2.289558 1_455
S0 V3 2.295205 1_555
S0 V9 2.299815 1_555
S0 V6 2.301234 1_555
S1 V7 2.295205 1_455
S1 V10 2.299815 1_555
S1 V4 2.301234 1_555
S2 V11 2.290686 1_555
S2 V8 2.303216 1_545
S2 V5 2.303216 1_555
S3 V0 2.296594 1_555
S3 V9 2.296600 1_555
S3 V6 2.300876 1_555
S4 V7 2.297979 1_455
S4 V1 2.299874 1_555
S4 V10 2.299881 1_555
S5 V8 2.291947 1_555
S5 V2 2.302309 1_555
S5 V11 2.302309 1_565
S6 V3 2.297972 1_455
S6 V9 2.299854 1_455
S6 V0 2.299868 1_455
S7 V10 2.296584 1_555
S7 V1 2.296594 1_555
S7 V4 2.300876 1_555
S8 V5 2.291947 1_555
S8 V11 2.302309 1_555
S8 V2 2.302309 1_545
S9 V3 2.295205 1_555
S9 V0 2.299819 1_555
S9 V6 2.301234 1_555
S10 V7 2.295205 1_455
S10 V1 2.299819 1_555
S10 V4 2.301234 1_555
S11 V2 2.290686 1_555
S11 V5 2.303216 1_565
S11 V8 2.303216 1_555
S12 V9 2.540280 1_454
S12 V8 2.541598 1_555
S12 V4 2.542435 1_555
S13 V10 2.540280 1_554
S13 V5 2.541598 1_565
S13 V6 2.542435 1_565
S14 V11 2.558133 1_554
S14 V7 2.559867 1_555
S14 V3 2.559867 1_555
S15 V8 2.555753 1_555
S15 V9 2.557258 1_454
S15 V0 2.557261 1_465
S16 V6 2.538766 1_555
S16 V10 2.543962 1_544
S16 V1 2.543965 1_555
S17 V7 2.542177 1_555
S17 V11 2.543736 1_554
S17 V2 2.543736 1_555
S18 V4 2.538769 1_655
S18 V0 2.543968 1_565
S18 V9 2.543983 1_554
S19 V5 2.555753 1_555
S19 V1 2.557261 1_555
S19 V10 2.557271 1_544
S20 V3 2.542177 1_555
S20 V2 2.543736 1_555
S20 V11 2.543736 1_554
S21 V0 2.540274 1_455
S21 V8 2.541598 1_545
S21 V4 2.542435 1_545
S22 V1 2.540274 1_555
S22 V5 2.541598 1_555
S22 V6 2.542435 1_555
S23 V2 2.558133 1_555
S23 V7 2.559867 1_555
S23 V3 2.559867 1_555
