# generated using pymatgen
data_Sr2Si(S2O7)4
_symmetry_space_group_name_H-M   'P 1'
_cell_length_a   13.17397000
_cell_length_b   7.14658700
_cell_length_c   13.61870014
_cell_angle_alpha   65.69296786
_cell_angle_beta   90.00000000
_cell_angle_gamma   90.00000000
_symmetry_Int_Tables_number   1
_chemical_formula_structural   Sr2Si(S2O7)4
_chemical_formula_sum   'Sr4 Si2 S16 O56'
_cell_volume   1168.52370566
_cell_formula_units_Z   2
loop_
 _symmetry_equiv_pos_site_id
 _symmetry_equiv_pos_as_xyz
  1  'x, y, z'
loop_
 _atom_site_type_symbol
 _atom_site_label
 _atom_site_symmetry_multiplicity
 _atom_site_fract_x
 _atom_site_fract_y
 _atom_site_fract_z
 _atom_site_occupancy
  Sr  Sr0  1  0.63516300  0.64068200  0.15903800  1
  Sr  Sr1  1  0.86483700  0.64068200  0.65903800  1
  Sr  Sr2  1  0.36483700  0.35931800  0.84096200  1
  Sr  Sr3  1  0.13516300  0.35931800  0.34096200  1
  Si  Si0  1  0.50000000  0.00000000  0.50000000  1
  Si  Si1  1  0.00000000  0.00000000  0.00000000  1
  S  S0  1  0.52922700  0.18103500  0.10694300  1
  S  S1  1  0.97077300  0.18103500  0.60694300  1
  S  S2  1  0.47077300  0.81896500  0.89305700  1
  S  S3  1  0.02922700  0.81896500  0.39305700  1
  S  S4  1  0.41664900  0.25874700  0.27455600  1
  S  S5  1  0.08335100  0.25874700  0.77455600  1
  S  S6  1  0.58335100  0.74125300  0.72544400  1
  S  S7  1  0.91664900  0.74125300  0.22544400  1
  S  S8  1  0.71498600  0.12385500  0.41185100  1
  S  S9  1  0.78501400  0.12385500  0.91185100  1
  S  S10  1  0.28501400  0.87614500  0.58814900  1
  S  S11  1  0.21498600  0.87614500  0.08814900  1
  S  S12  1  0.64478500  0.72424700  0.44180000  1
  S  S13  1  0.85521500  0.72424700  0.94180000  1
  S  S14  1  0.35521500  0.27575300  0.55820000  1
  S  S15  1  0.14478500  0.27575300  0.05820000  1
  O  O0  1  0.47459900  0.07880100  0.35956300  1
  O  O1  1  0.02540100  0.07880100  0.85956300  1
  O  O2  1  0.52540100  0.92119900  0.64043700  1
  O  O3  1  0.97459900  0.92119900  0.14043700  1
  O  O4  1  0.60377200  0.30738400  0.12888000  1
  O  O5  1  0.89622800  0.30738400  0.62888000  1
  O  O6  1  0.39622800  0.69261600  0.87112000  1
  O  O7  1  0.10377200  0.69261600  0.37112000  1
  O  O8  1  0.61840000  0.13518900  0.47030000  1
  O  O9  1  0.88160000  0.13518900  0.97030000  1
  O  O10  1  0.38160000  0.86481100  0.52970000  1
  O  O11  1  0.11840000  0.86481100  0.02970000  1
  O  O12  1  0.41860000  0.20137100  0.17464900  1
  O  O13  1  0.08140000  0.20137100  0.67464900  1
  O  O14  1  0.58140000  0.79862900  0.82535100  1
  O  O15  1  0.91860000  0.79862900  0.32535100  1
  O  O16  1  0.54850000  0.96281800  0.15716700  1
  O  O17  1  0.95150000  0.96281800  0.65716700  1
  O  O18  1  0.45150000  0.03718200  0.84283300  1
  O  O19  1  0.04850000  0.03718200  0.34283300  1
  O  O20  1  0.31048800  0.25076700  0.30110800  1
  O  O21  1  0.18951200  0.25076700  0.80110800  1
  O  O22  1  0.68951200  0.74923300  0.69889200  1
  O  O23  1  0.81048800  0.74923300  0.19889200  1
  O  O24  1  0.46908000  0.44973600  0.25079300  1
  O  O25  1  0.03092000  0.44973600  0.75079300  1
  O  O26  1  0.53092000  0.55026400  0.74920700  1
  O  O27  1  0.96908000  0.55026400  0.24920700  1
  O  O28  1  0.79714900  0.04128700  0.48609200  1
  O  O29  1  0.70285100  0.04128700  0.98609200  1
  O  O30  1  0.20285100  0.95871300  0.51390800  1
  O  O31  1  0.29714900  0.95871300  0.01390800  1
  O  O32  1  0.73024500  0.30908100  0.31723900  1
  O  O33  1  0.76975500  0.30908100  0.81723900  1
  O  O34  1  0.26975500  0.69091900  0.68276100  1
  O  O35  1  0.23024500  0.69091900  0.18276100  1
  O  O36  1  0.48887500  0.26019700  0.99891900  1
  O  O37  1  0.01112500  0.26019700  0.49891900  1
  O  O38  1  0.51112500  0.73980300  0.00108100  1
  O  O39  1  0.98887500  0.73980300  0.50108100  1
  O  O40  1  0.68584300  0.95473200  0.36182800  1
  O  O41  1  0.81415700  0.95473200  0.86182800  1
  O  O42  1  0.31415700  0.04526800  0.63817200  1
  O  O43  1  0.18584300  0.04526800  0.13817200  1
  O  O44  1  0.55579600  0.77068800  0.49999300  1
  O  O45  1  0.94420400  0.77068800  0.99999300  1
  O  O46  1  0.44420400  0.22931200  0.50000700  1
  O  O47  1  0.05579600  0.22931200  0.00000700  1
  O  O48  1  0.61171400  0.64073400  0.36831600  1
  O  O49  1  0.88828600  0.64073400  0.86831600  1
  O  O50  1  0.38828600  0.35926600  0.63168400  1
  O  O51  1  0.11171400  0.35926600  0.13168400  1
  O  O52  1  0.72342200  0.61903100  0.51757900  1
  O  O53  1  0.77657800  0.61903100  0.01757900  1
  O  O54  1  0.27657800  0.38096900  0.48242100  1
  O  O55  1  0.22342200  0.38096900  0.98242100  1
loop_
_geom_bond_atom_site_label_1
_geom_bond_atom_site_label_2
_geom_bond_distance
_geom_bond_site_symmetry_2
O0 S4 1.533367 1_555
O0 Si0 1.788949 1_555
O1 S5 1.533367 1_555
O1 Si1 1.788949 1_556
O2 S6 1.533367 1_555
O2 Si0 1.788949 1_565
O3 S7 1.533367 1_555
O3 Si1 1.788949 1_665
O4 S0 1.446067 1_555
O4 Sr0 2.611272 1_555
O5 S1 1.446067 1_555
O5 Sr1 2.611272 1_555
O6 S2 1.446067 1_555
O6 Sr2 2.611272 1_555
O7 S3 1.446067 1_555
O7 Sr3 2.611272 1_555
O8 S8 1.520628 1_555
O8 Si0 1.791169 1_555
O9 S9 1.520628 1_555
O9 Si1 1.791169 1_656
O10 S10 1.520628 1_555
O10 Si0 1.791169 1_565
O11 S11 1.520628 1_555
O11 Si1 1.791169 1_565
O12 S4 1.574590 1_555
O12 S0 1.762288 1_555
O13 S5 1.574590 1_555
O13 S1 1.762288 1_455
O14 S6 1.574590 1_555
O14 S2 1.762288 1_555
O15 S7 1.574590 1_555
O15 S3 1.762288 1_655
O16 S0 1.444374 1_565
O16 Sr0 2.560435 1_555
O17 S1 1.444374 1_565
O17 Sr1 2.560435 1_555
O18 S2 1.444374 1_545
O18 Sr2 2.560435 1_555
O19 S3 1.444374 1_545
O19 Sr3 2.560435 1_555
O20 S4 1.439794 1_555
O20 Sr3 2.564737 1_555
O21 S5 1.439794 1_555
O21 Sr2 2.564737 1_555
O22 S6 1.439794 1_555
O22 Sr1 2.564737 1_555
O23 S7 1.439794 1_555
O23 Sr0 2.564737 1_555
O24 S4 1.442634 1_555
O24 Sr0 2.609031 1_555
O25 S5 1.442634 1_555
O25 Sr1 2.609031 1_455
O26 S6 1.442634 1_555
O26 Sr2 2.609031 1_555
O27 S7 1.442634 1_555
O27 Sr3 2.609031 1_655
O28 S8 1.432098 1_555
O28 Sr1 2.997972 1_545
O29 S9 1.432098 1_555
O29 Sr0 2.997972 1_546
O30 S10 1.432098 1_555
O30 Sr3 2.997972 1_565
O31 S11 1.432098 1_555
O31 Sr2 2.997972 1_564
O32 S8 1.431341 1_555
O32 Sr0 2.761081 1_555
O33 S9 1.431341 1_555
O33 Sr1 2.761081 1_555
O34 S10 1.431341 1_555
O34 Sr2 2.761081 1_555
O35 S11 1.431341 1_555
O35 Sr3 2.761081 1_555
O36 S0 1.442826 1_556
O36 Sr2 2.558323 1_555
O37 S1 1.442826 1_455
O37 Sr3 2.558323 1_555
O38 S2 1.442826 1_554
O38 Sr0 2.558323 1_555
O39 S3 1.442826 1_655
O39 Sr1 2.558323 1_555
O40 S12 1.647743 1_555
O40 S8 1.658373 1_565
O41 S13 1.647743 1_555
O41 S9 1.658373 1_565
O42 S14 1.647743 1_555
O42 S10 1.658373 1_545
O43 S15 1.647743 1_555
O43 S11 1.658373 1_545
O44 S12 1.526155 1_555
O44 Si0 1.796133 1_565
O45 S13 1.526155 1_555
O45 Si1 1.796133 1_666
O46 S14 1.526155 1_555
O46 Si0 1.796133 1_555
O47 S15 1.526155 1_555
O47 Si1 1.796133 1_555
O48 S12 1.428024 1_555
O48 Sr0 2.866939 1_555
O49 S13 1.428024 1_555
O49 Sr1 2.866939 1_555
O50 S14 1.428024 1_555
O50 Sr2 2.866939 1_555
O51 S15 1.428024 1_555
O51 Sr3 2.866939 1_555
O52 S12 1.436949 1_555
O52 Sr1 2.729735 1_555
O53 S13 1.436949 1_554
O53 Sr0 2.729735 1_555
O54 S14 1.436949 1_555
O54 Sr3 2.729735 1_555
O55 S15 1.436949 1_556
O55 Sr2 2.729735 1_555
