# generated using pymatgen
data_NaLiHo2F8
_symmetry_space_group_name_H-M   'P 1'
_cell_length_a   6.69177471
_cell_length_b   6.69177471
_cell_length_c   7.04026100
_cell_angle_alpha   90.00000000
_cell_angle_beta   90.00000000
_cell_angle_gamma   103.15906805
_symmetry_Int_Tables_number   1
_chemical_formula_structural   NaLiHo2F8
_chemical_formula_sum   'Na2 Li2 Ho4 F16'
_cell_volume   306.98361116
_cell_formula_units_Z   2
loop_
 _symmetry_equiv_pos_site_id
 _symmetry_equiv_pos_as_xyz
  1  'x, y, z'
loop_
 _atom_site_type_symbol
 _atom_site_label
 _atom_site_symmetry_multiplicity
 _atom_site_fract_x
 _atom_site_fract_y
 _atom_site_fract_z
 _atom_site_occupancy
  Na  Na0  1  0.65656800  0.65656800  0.25000000  1
  Na  Na1  1  0.34343200  0.34343200  0.75000000  1
  Li  Li0  1  0.00000000  0.00000000  0.00000000  1
  Li  Li1  1  0.00000000  0.00000000  0.50000000  1
  Ho  Ho0  1  0.07589800  0.44990400  0.25000000  1
  Ho  Ho1  1  0.92410200  0.55009600  0.75000000  1
  Ho  Ho2  1  0.44990400  0.07589800  0.25000000  1
  Ho  Ho3  1  0.55009600  0.92410200  0.75000000  1
  F  F0  1  0.08626400  0.08626400  0.25000000  1
  F  F1  1  0.91373600  0.91373600  0.75000000  1
  F  F2  1  0.93386500  0.65957500  0.05122700  1
  F  F3  1  0.06613500  0.34042500  0.94877300  1
  F  F4  1  0.65957500  0.93386500  0.44877300  1
  F  F5  1  0.34042500  0.06613500  0.55122700  1
  F  F6  1  0.39054400  0.39054400  0.25000000  1
  F  F7  1  0.60945600  0.60945600  0.75000000  1
  F  F8  1  0.74597500  0.30529900  0.25000000  1
  F  F9  1  0.25402500  0.69470100  0.75000000  1
  F  F10  1  0.30529900  0.74597500  0.25000000  1
  F  F11  1  0.69470100  0.25402500  0.75000000  1
  F  F12  1  0.06613500  0.34042500  0.55122700  1
  F  F13  1  0.93386500  0.65957500  0.44877300  1
  F  F14  1  0.34042500  0.06613500  0.94877300  1
  F  F15  1  0.65957500  0.93386500  0.05122700  1
loop_
_geom_bond_atom_site_label_1
_geom_bond_atom_site_label_2
_geom_bond_distance
_geom_bond_site_symmetry_2
F0 Li1 1.900675 1_555
F0 Li0 1.900675 1_555
F0 Ho2 2.450120 1_555
F0 Ho0 2.450120 1_555
F1 Li0 1.900675 1_666
F1 Li1 1.900675 1_665
F1 Ho3 2.450120 1_555
F1 Ho1 2.450120 1_555
F2 Ho1 2.239784 1_554
F2 Li0 2.248643 1_665
F2 Na0 2.320571 1_555
F2 Ho0 2.331847 1_655
F3 Ho0 2.239784 1_556
F3 Li0 2.248643 1_556
F3 Na1 2.320571 1_555
F3 Ho1 2.331847 1_455
F4 Ho3 2.239784 1_555
F4 Li1 2.248643 1_665
F4 Na0 2.320571 1_555
F4 Ho2 2.331847 1_565
F5 Ho2 2.239784 1_555
F5 Li1 2.248643 1_555
F5 Na1 2.320571 1_555
F5 Ho3 2.331847 1_545
F6 Na0 2.212497 1_555
F6 Ho2 2.229775 1_555
F6 Ho0 2.229775 1_555
F7 Na1 2.212497 1_555
F7 Ho1 2.229775 1_555
F7 Ho3 2.229775 1_555
F8 Ho0 2.199524 1_655
F8 Ho2 2.212931 1_555
F8 Na0 2.554146 1_555
F9 Ho1 2.199524 1_455
F9 Ho3 2.212931 1_555
F9 Na1 2.554146 1_555
F10 Ho2 2.199524 1_565
F10 Ho0 2.212931 1_555
F10 Na0 2.554146 1_555
F11 Ho3 2.199524 1_545
F11 Ho1 2.212931 1_555
F11 Na1 2.554146 1_555
F12 Ho0 2.239784 1_555
F12 Li1 2.248643 1_555
F12 Na1 2.320571 1_555
F12 Ho1 2.331847 1_455
F13 Ho1 2.239784 1_555
F13 Li1 2.248643 1_665
F13 Na0 2.320571 1_555
F13 Ho0 2.331847 1_655
F14 Ho2 2.239784 1_556
F14 Li0 2.248643 1_556
F14 Na1 2.320571 1_555
F14 Ho3 2.331847 1_545
F15 Ho3 2.239784 1_554
F15 Li0 2.248643 1_665
F15 Na0 2.320571 1_555
F15 Ho2 2.331847 1_565
