# generated using pymatgen
data_VBiO2
_symmetry_space_group_name_H-M   'P 1'
_cell_length_a   7.66318645
_cell_length_b   7.66318645
_cell_length_c   7.66318645
_cell_angle_alpha   130.97113581
_cell_angle_beta   130.97113581
_cell_angle_gamma   71.85894219
_symmetry_Int_Tables_number   1
_chemical_formula_structural   VBiO2
_chemical_formula_sum   'V4 Bi4 O8'
_cell_volume   250.93865205
_cell_formula_units_Z   4
loop_
 _symmetry_equiv_pos_site_id
 _symmetry_equiv_pos_as_xyz
  1  'x, y, z'
loop_
 _atom_site_type_symbol
 _atom_site_label
 _atom_site_symmetry_multiplicity
 _atom_site_fract_x
 _atom_site_fract_y
 _atom_site_fract_z
 _atom_site_occupancy
  V  V0  1  0.37500000  0.12500000  0.25000000  1
  V  V1  1  0.87500000  0.12500000  0.75000000  1
  V  V2  1  0.87500000  0.12500000  0.25000000  1
  V  V3  1  0.87500000  0.62500000  0.75000000  1
  Bi  Bi0  1  0.87500000  0.62500000  0.25000000  1
  Bi  Bi1  1  0.37500000  0.62500000  0.75000000  1
  Bi  Bi2  1  0.37500000  0.62500000  0.25000000  1
  Bi  Bi3  1  0.37500000  0.12500000  0.75000000  1
  O  O0  1  0.17849200  0.39119400  0.21270100  1
  O  O1  1  0.17849200  0.96579100  0.78729900  1
  O  O2  1  0.14119400  0.42849200  0.71270100  1
  O  O3  1  0.57150800  0.85880600  0.28729900  1
  O  O4  1  0.71579100  0.42849200  0.28729900  1
  O  O5  1  0.57150800  0.28420900  0.71270100  1
  O  O6  1  0.60880600  0.82150800  0.78729900  1
  O  O7  1  0.03420900  0.82150800  0.21270100  1
loop_
_geom_bond_atom_site_label_1
_geom_bond_atom_site_label_2
_geom_bond_distance
_geom_bond_site_symmetry_2
Bi0 O4 2.450246 1_555
Bi0 O7 2.450246 1_655
Bi0 O0 2.511206 1_655
Bi0 O3 2.511206 1_555
Bi0 O1 2.511209 1_655
Bi0 O5 2.511209 1_554
Bi1 O2 2.450239 1_555
Bi1 O6 2.450239 1_555
Bi1 O5 2.511209 1_555
Bi1 O1 2.511209 1_555
Bi1 O3 2.511210 1_556
Bi1 O0 2.511210 1_555
Bi2 O3 2.450239 1_555
Bi2 O0 2.450239 1_555
Bi2 O4 2.511209 1_555
Bi2 O7 2.511209 1_555
Bi2 O6 2.511210 1_555
Bi2 O2 2.511210 1_554
Bi3 O5 2.450246 1_555
Bi3 O1 2.450246 1_545
Bi3 O6 2.511206 1_545
Bi3 O2 2.511206 1_555
Bi3 O4 2.511209 1_556
Bi3 O7 2.511209 1_545
O0 V1 2.190388 1_454
O0 V0 2.190393 1_555
O1 V1 2.190387 1_465
O1 V0 2.190387 1_566
O2 V2 2.190388 1_455
O2 V3 2.190393 1_455
O3 V1 2.190388 1_565
O3 V0 2.190393 1_565
O4 V2 2.190387 1_555
O4 V3 2.190387 1_555
O5 V0 2.190387 1_555
O5 V1 2.190387 1_555
O6 V2 2.190388 1_566
O6 V3 2.190393 1_555
O7 V2 2.190387 1_465
O7 V3 2.190387 1_454
