# generated using pymatgen
data_Mg5Si6
_symmetry_space_group_name_H-M   'P 1'
_cell_length_a   5.55170800
_cell_length_b   5.70514839
_cell_length_c   13.22693372
_cell_angle_alpha   98.82274964
_cell_angle_beta   99.38136775
_cell_angle_gamma   92.00860385
_symmetry_Int_Tables_number   1
_chemical_formula_structural   Mg5Si6
_chemical_formula_sum   'Mg10 Si12'
_cell_volume   407.67132284
_cell_formula_units_Z   2
loop_
 _symmetry_equiv_pos_site_id
 _symmetry_equiv_pos_as_xyz
  1  'x, y, z'
loop_
 _atom_site_type_symbol
 _atom_site_label
 _atom_site_symmetry_multiplicity
 _atom_site_fract_x
 _atom_site_fract_y
 _atom_site_fract_z
 _atom_site_occupancy
  Mg  Mg0  1  0.18662100  0.84139800  0.06289500  1
  Mg  Mg1  1  0.16508500  0.55064300  0.36207300  1
  Mg  Mg2  1  0.02113300  0.88499400  0.57272200  1
  Mg  Mg3  1  0.46857800  0.14748200  0.46851500  1
  Mg  Mg4  1  0.74404200  0.60511600  0.16231000  1
  Mg  Mg5  1  0.30347800  0.71430200  0.81231700  1
  Mg  Mg6  1  0.80441100  0.48053000  0.68401300  1
  Mg  Mg7  1  0.94561900  0.00537300  0.32335300  1
  Mg  Mg8  1  0.43408200  0.24995000  0.96953500  1
  Mg  Mg9  1  0.90926100  0.39278600  0.91141500  1
  Si  Si0  1  0.63242300  0.78258100  0.98727800  1
  Si  Si1  1  0.79541500  0.10971000  0.12884100  1
  Si  Si2  1  0.94982300  0.31722000  0.49026500  1
  Si  Si3  1  0.51811700  0.75564400  0.56754800  1
  Si  Si4  1  0.17772600  0.18126200  0.76894400  1
  Si  Si5  1  0.15128300  0.35671500  0.12174100  1
  Si  Si6  1  0.67311900  0.61772800  0.38313000  1
  Si  Si7  1  0.28557200  0.42733700  0.62861700  1
  Si  Si8  1  0.58360500  0.07427600  0.72593500  1
  Si  Si9  1  0.50507400  0.26382200  0.24422500  1
  Si  Si10  1  0.39711900  0.86990900  0.27015400  1
  Si  Si11  1  0.85204400  0.87122300  0.85054500  1
loop_
_geom_bond_atom_site_label_1
_geom_bond_atom_site_label_2
_geom_bond_distance
_geom_bond_site_symmetry_2
Mg0 Si10 2.777207 1_555
Mg0 Si0 2.828546 1_554
Mg0 Si1 2.874390 1_465
Mg0 Si5 2.945495 1_565
Mg0 Si5 2.993755 1_555
Mg0 Si0 3.066067 1_454
Mg0 Si11 3.136255 1_454
Mg1 Si2 2.705252 1_455
Mg1 Si10 2.735098 1_555
Mg1 Si6 2.795454 1_555
Mg1 Si6 2.823538 1_455
Mg1 Mg7 2.983780 1_465
Mg1 Si9 3.010549 1_555
Mg1 Si3 3.118228 1_555
Mg1 Si5 3.189178 1_555
Mg1 Mg7 3.235171 1_455
Mg1 Mg3 3.256255 1_555
Mg1 Mg4 3.291095 1_455
Mg1 Mg2 3.353044 1_555
Mg2 Si3 2.850546 1_455
Mg2 Si4 2.857378 1_565
Mg2 Si2 2.860011 1_465
Mg2 Si3 2.889767 1_555
Mg2 Si6 3.063908 1_455
Mg2 Si7 3.166419 1_555
Mg2 Si2 3.244149 1_455
Mg3 Si3 2.759137 1_545
Mg3 Si2 2.764285 1_555
Mg3 Si7 2.800690 1_555
Mg3 Si10 2.809108 1_545
Mg3 Si2 3.113669 1_455
Mg3 Si9 3.173845 1_555
Mg4 Si0 2.657866 1_554
Mg4 Si9 2.767678 1_555
Mg4 Si5 2.791905 1_655
Mg4 Si1 2.824803 1_555
Mg4 Si10 2.909474 1_555
Mg4 Si1 2.989859 1_565
Mg4 Si6 3.000593 1_555
Mg5 Si0 2.671722 1_555
Mg5 Si7 2.698828 1_555
Mg5 Si11 2.787454 1_455
Mg5 Si4 2.895248 1_565
Mg5 Si8 3.002827 1_565
Mg5 Si4 3.041391 1_555
Mg5 Si11 3.082220 1_555
Mg6 Si3 2.735180 1_555
Mg6 Si8 2.756586 1_555
Mg6 Si2 2.842873 1_555
Mg6 Si7 2.847521 1_555
Mg6 Si11 2.855312 1_555
Mg6 Si7 2.896782 1_655
Mg6 Si4 2.924017 1_655
Mg7 Si2 2.610622 1_555
Mg7 Si1 2.733888 1_555
Mg7 Si10 2.814149 1_645
Mg7 Si6 2.914912 1_545
Mg7 Si9 3.023745 1_555
Mg7 Si10 3.055289 1_545
Mg8 Si5 2.758684 1_556
Mg8 Si4 2.762158 1_555
Mg8 Si1 2.890654 1_556
Mg8 Si0 2.948022 1_545
Mg8 Si0 3.156570 1_555
Mg9 Si4 2.751913 1_655
Mg9 Si0 2.893496 1_555
Mg9 Si5 2.926336 1_656
Mg9 Si11 2.952753 1_545
Mg9 Si11 2.975085 1_555
Mg9 Si8 3.089608 1_555
Si0 Si11 2.443254 1_555
Si0 Si1 2.462777 1_566
Si1 Si5 2.409123 1_655
Si1 Si9 2.488004 1_555
Si2 Si7 2.381411 1_655
Si2 Si6 2.743618 1_555
Si3 Si8 2.522455 1_565
Si3 Si7 2.542058 1_555
Si3 Si6 2.729971 1_555
Si4 Si8 2.486248 1_555
Si4 Si7 2.622441 1_555
Si5 Si9 2.462188 1_555
Si6 Si9 2.548313 1_555
Si10 Si9 2.395068 1_565
Si10 Si6 2.591984 1_555
Si11 Si8 2.487070 1_565
