# generated using pymatgen
data_NaTi2(P2O7)2
_symmetry_space_group_name_H-M   'P 1'
_cell_length_a   4.91445805
_cell_length_b   7.08678522
_cell_length_c   8.11155359
_cell_angle_alpha   90.83690016
_cell_angle_beta   93.79632384
_cell_angle_gamma   105.72929367
_symmetry_Int_Tables_number   1
_chemical_formula_structural   NaTi2(P2O7)2
_chemical_formula_sum   'Na1 Ti2 P4 O14'
_cell_volume   271.17526559
_cell_formula_units_Z   1
loop_
 _symmetry_equiv_pos_site_id
 _symmetry_equiv_pos_as_xyz
  1  'x, y, z'
loop_
 _atom_site_type_symbol
 _atom_site_label
 _atom_site_symmetry_multiplicity
 _atom_site_fract_x
 _atom_site_fract_y
 _atom_site_fract_z
 _atom_site_occupancy
  Na  Na0  1  0.93569567  0.99279183  0.00890907  1
  Ti  Ti0  1  0.49810049  0.49714339  0.99970568  1
  Ti  Ti1  1  0.00020086  0.99982844  0.50081833  1
  P  P0  1  0.01022903  0.62568724  0.75631810  1
  P  P1  1  0.98940107  0.37522853  0.24439084  1
  P  P2  1  0.62235952  0.23665901  0.69793135  1
  P  P3  1  0.37858016  0.76443510  0.30162539  1
  O  O0  1  0.26820922  0.55500991  0.81040365  1
  O  O1  1  0.73122113  0.44567132  0.19053663  1
  O  O2  1  0.79474083  0.45305714  0.64355215  1
  O  O3  1  0.20676425  0.54740574  0.35572133  1
  O  O4  1  0.81867007  0.10153419  0.69159863  1
  O  O5  1  0.17967414  0.89751672  0.30841898  1
  O  O6  1  0.85325318  0.66811900  0.90502253  1
  O  O7  1  0.14294851  0.33083782  0.09461844  1
  O  O8  1  0.36734808  0.18032772  0.57186176  1
  O  O9  1  0.63240570  0.82116077  0.42860904  1
  O  O10  1  0.08947167  0.80127344  0.64710185  1
  O  O11  1  0.90998344  0.19800880  0.35195602  1
  O  O12  1  0.54189132  0.25610260  0.87647660  1
  O  O13  1  0.46515167  0.74530129  0.12422362  1
loop_
_geom_bond_atom_site_label_1
_geom_bond_atom_site_label_2
_geom_bond_distance
_geom_bond_site_symmetry_2
Na0 O6 2.358189 1_554
Na0 O7 2.407189 1_665
Na0 O13 2.726532 1_555
Na0 O4 2.766175 1_564
Na0 O5 2.810175 1_655
O0 P0 1.525718 1_555
O0 Ti0 1.960187 1_555
O1 P1 1.525232 1_555
O1 Ti0 1.962128 1_554
O2 P0 1.609804 1_655
O2 P2 1.621397 1_555
O3 P1 1.605876 1_455
O3 P3 1.623497 1_555
O4 P2 1.535065 1_555
O4 Ti1 2.051607 1_645
O5 P3 1.534117 1_555
O5 Ti1 2.057978 1_555
O6 P0 1.542381 1_655
O6 Ti0 2.040204 1_555
O7 P1 1.543788 1_455
O7 Ti0 2.029101 1_554
O8 P2 1.524089 1_555
O8 Ti1 1.952779 1_545
O9 P3 1.524630 1_555
O9 Ti1 1.952094 1_655
O10 P0 1.516588 1_555
O10 Ti1 1.973571 1_555
O11 P1 1.517330 1_555
O11 Ti1 1.985805 1_645
O12 P2 1.540273 1_555
O12 Ti0 2.035033 1_555
O13 P3 1.541680 1_555
O13 Ti0 2.064794 1_554
