# generated using pymatgen
data_Ti6Fe(BiO3)9
_symmetry_space_group_name_H-M   'P 1'
_cell_length_a   6.09544600
_cell_length_b   5.70703900
_cell_length_c   19.80050300
_cell_angle_alpha   90.00000000
_cell_angle_beta   90.00000000
_cell_angle_gamma   90.00000000
_symmetry_Int_Tables_number   1
_chemical_formula_structural   Ti6Fe(BiO3)9
_chemical_formula_sum   'Ti6 Fe1 Bi9 O27'
_cell_volume   688.79906911
_cell_formula_units_Z   1
loop_
 _symmetry_equiv_pos_site_id
 _symmetry_equiv_pos_as_xyz
  1  'x, y, z'
loop_
 _atom_site_type_symbol
 _atom_site_label
 _atom_site_symmetry_multiplicity
 _atom_site_fract_x
 _atom_site_fract_y
 _atom_site_fract_z
 _atom_site_occupancy
  Ti  Ti0  1  0.50000000  0.00000000  0.82459100  1
  Ti  Ti1  1  0.00000000  0.50000000  0.95496100  1
  Ti  Ti2  1  0.00000000  0.00000000  0.97338900  1
  Ti  Ti3  1  0.50000000  0.00000000  0.55418800  1
  Ti  Ti4  1  0.00000000  0.00000000  0.21775600  1
  Ti  Ti5  1  0.50000000  0.50000000  0.22640200  1
  Fe  Fe0  1  0.00000000  0.50000000  0.57529400  1
  Bi  Bi0  1  0.00000000  0.00000000  0.74352100  1
  Bi  Bi1  1  0.50000000  0.50000000  0.76864500  1
  Bi  Bi2  1  0.00000000  0.00000000  0.52502700  1
  Bi  Bi3  1  0.50000000  0.50000000  0.49984800  1
  Bi  Bi4  1  0.50000000  0.00000000  0.15031700  1
  Bi  Bi5  1  0.00000000  0.50000000  0.14857100  1
  Bi  Bi6  1  0.50000000  0.00000000  0.35206500  1
  Bi  Bi7  1  0.00000000  0.50000000  0.36769300  1
  Bi  Bi8  1  0.50000000  0.50000000  0.99575900  1
  O  O0  1  0.71810200  0.74718100  0.55849600  1
  O  O1  1  0.28189800  0.25281900  0.55849600  1
  O  O2  1  0.28189800  0.74718100  0.55849600  1
  O  O3  1  0.71810200  0.25281900  0.55849600  1
  O  O4  1  0.71508100  0.78768100  0.79138600  1
  O  O5  1  0.28491900  0.21231900  0.79138600  1
  O  O6  1  0.28491900  0.78768100  0.79138600  1
  O  O7  1  0.71508100  0.21231900  0.79138600  1
  O  O8  1  0.00000000  0.00000000  0.88763200  1
  O  O9  1  0.50000000  0.50000000  0.88565100  1
  O  O10  1  0.00000000  0.00000000  0.31133900  1
  O  O11  1  0.50000000  0.50000000  0.32103800  1
  O  O12  1  0.00000000  0.00000000  0.63404300  1
  O  O13  1  0.50000000  0.50000000  0.66808800  1
  O  O14  1  0.00000000  0.00000000  0.12496500  1
  O  O15  1  0.50000000  0.50000000  0.12551300  1
  O  O16  1  0.80214600  0.73067900  0.98832000  1
  O  O17  1  0.19785400  0.26932100  0.98832000  1
  O  O18  1  0.19785400  0.73067900  0.98832000  1
  O  O19  1  0.80214600  0.26932100  0.98832000  1
  O  O20  1  0.74633900  0.75052800  0.21377700  1
  O  O21  1  0.25366100  0.24947200  0.21377700  1
  O  O22  1  0.25366100  0.75052800  0.21377700  1
  O  O23  1  0.74633900  0.24947200  0.21377700  1
  O  O24  1  0.50000000  0.00000000  0.46042700  1
  O  O25  1  0.00000000  0.50000000  0.47143600  1
  O  O26  1  0.00000000  0.00000000  0.38392300  1
loop_
_geom_bond_atom_site_label_1
_geom_bond_atom_site_label_2
_geom_bond_distance
_geom_bond_site_symmetry_2
Fe0 O25 2.056441 1_555
Fe0 O3 2.247923 1_455
Fe0 O0 2.247923 1_455
Fe0 O2 2.247923 1_555
Fe0 O1 2.247923 1_555
Bi0 O12 2.167719 1_555
Bi0 O7 2.320051 1_455
Bi0 O5 2.320051 1_555
Bi0 O6 2.320051 1_545
Bi0 O4 2.320051 1_445
Bi1 O13 1.991079 1_555
Bi1 O7 2.148731 1_555
Bi1 O4 2.148731 1_555
Bi1 O5 2.148731 1_555
Bi1 O6 2.148731 1_555
Bi1 O9 2.316778 1_555
Bi2 O12 2.158572 1_555
Bi2 O2 2.339555 1_545
Bi2 O0 2.339555 1_445
Bi2 O1 2.339555 1_555
Bi2 O3 2.339555 1_455
Bi2 O26 2.793930 1_555
Bi3 O2 2.259624 1_555
Bi3 O0 2.259624 1_555
Bi3 O1 2.259624 1_555
Bi3 O3 2.259624 1_555
Bi4 O22 2.420865 1_545
Bi4 O20 2.420865 1_545
Bi4 O21 2.420865 1_555
Bi4 O23 2.420865 1_555
Bi5 O20 2.470199 1_455
Bi5 O21 2.470199 1_555
Bi5 O23 2.470199 1_455
Bi5 O22 2.470199 1_555
Bi6 O24 2.145622 1_555
Bi7 O25 2.054164 1_555
Bi7 O26 2.871558 1_565
Bi7 O26 2.871558 1_555
Bi8 O9 2.180194 1_555
Bi8 O18 2.268648 1_555
Bi8 O19 2.268648 1_555
Bi8 O16 2.268648 1_555
Bi8 O17 2.268648 1_555
Bi8 O15 2.569194 1_556
O0 Ti3 1.963789 1_565
O1 Ti3 1.963789 1_555
O2 Ti3 1.963789 1_565
O3 Ti3 1.963789 1_555
O4 Ti0 1.902441 1_565
O5 Ti0 1.902441 1_555
O6 Ti0 1.902441 1_565
O7 Ti0 1.902441 1_555
O8 Ti2 1.698032 1_555
O10 O26 1.437200 1_555
O10 Ti4 1.852990 1_555
O11 Ti5 1.873840 1_555
O14 Ti4 1.837308 1_555
O15 Ti5 1.997653 1_555
O16 Ti1 1.903656 1_655
O16 Ti2 1.975932 1_665
O17 Ti1 1.903656 1_555
O17 Ti2 1.975932 1_555
O18 Ti1 1.903656 1_555
O18 Ti2 1.975932 1_565
O19 Ti1 1.903656 1_655
O19 Ti2 1.975932 1_655
O20 Ti5 2.088392 1_555
O20 Ti4 2.103313 1_665
O21 Ti5 2.088392 1_555
O21 Ti4 2.103313 1_555
O22 Ti5 2.088392 1_555
O22 Ti4 2.103313 1_565
O23 Ti5 2.088392 1_555
O23 Ti4 2.103313 1_655
O24 Ti3 1.856515 1_555
