# generated using pymatgen
data_PrMg(AgO3)2
_symmetry_space_group_name_H-M   'P 1'
_cell_length_a   5.41545200
_cell_length_b   5.78972500
_cell_length_c   8.12346300
_cell_angle_alpha   90.00000000
_cell_angle_beta   90.00000000
_cell_angle_gamma   90.00000000
_symmetry_Int_Tables_number   1
_chemical_formula_structural   PrMg(AgO3)2
_chemical_formula_sum   'Pr2 Mg2 Ag4 O12'
_cell_volume   254.70287881
_cell_formula_units_Z   2
loop_
 _symmetry_equiv_pos_site_id
 _symmetry_equiv_pos_as_xyz
  1  'x, y, z'
loop_
 _atom_site_type_symbol
 _atom_site_label
 _atom_site_symmetry_multiplicity
 _atom_site_fract_x
 _atom_site_fract_y
 _atom_site_fract_z
 _atom_site_occupancy
  Pr  Pr0  1  0.02066000  0.67754300  0.00000000  1
  Pr  Pr1  1  0.52066000  0.32245700  0.50000000  1
  Mg  Mg0  1  0.46570200  0.17826600  0.00000000  1
  Mg  Mg1  1  0.96570200  0.82173400  0.50000000  1
  Ag  Ag0  1  0.00021300  0.24459300  0.75234100  1
  Ag  Ag1  1  0.00021300  0.24459300  0.24765900  1
  Ag  Ag2  1  0.50021300  0.75540700  0.25234100  1
  Ag  Ag3  1  0.50021300  0.75540700  0.74765900  1
  O  O0  1  0.11194300  0.17426000  0.50000000  1
  O  O1  1  0.21953000  0.97279700  0.83294100  1
  O  O2  1  0.21953000  0.97279700  0.16705900  1
  O  O3  1  0.31562900  0.43742600  0.17724800  1
  O  O4  1  0.31562900  0.43742600  0.82275200  1
  O  O5  1  0.33056200  0.70079500  0.50000000  1
  O  O6  1  0.61194300  0.82574000  0.00000000  1
  O  O7  1  0.71953000  0.02720300  0.66705900  1
  O  O8  1  0.71953000  0.02720300  0.33294100  1
  O  O9  1  0.81562900  0.56257400  0.67724800  1
  O  O10  1  0.81562900  0.56257400  0.32275200  1
  O  O11  1  0.83056200  0.29920500  0.00000000  1
loop_
_geom_bond_atom_site_label_1
_geom_bond_atom_site_label_2
_geom_bond_distance
_geom_bond_site_symmetry_2
Mg0 O11 2.096281 1_555
Mg0 O6 2.189292 1_545
Mg0 O3 2.232738 1_555
Mg0 O4 2.232738 1_554
Mg0 O1 2.243686 1_544
Mg0 O2 2.243686 1_545
Mg1 O5 2.096281 1_655
Mg1 O0 2.189292 1_665
Mg1 O10 2.232738 1_555
Mg1 O9 2.232738 1_555
Mg1 O7 2.243686 1_565
Mg1 O8 2.243686 1_565
Ag0 O1 2.077408 1_545
Ag0 O7 2.091548 1_455
Ag0 O4 2.119268 1_555
Ag0 O0 2.175763 1_555
Ag0 O9 2.181902 1_455
Ag0 O11 2.234186 1_456
Ag1 O2 2.077408 1_545
Ag1 O8 2.091548 1_455
Ag1 O3 2.119268 1_555
Ag1 O0 2.175763 1_555
Ag1 O10 2.181902 1_455
Ag1 O11 2.234186 1_455
Ag2 O8 2.077408 1_565
Ag2 O2 2.091548 1_555
Ag2 O10 2.119268 1_555
Ag2 O6 2.175763 1_555
Ag2 O3 2.181902 1_555
Ag2 O5 2.234186 1_555
Ag3 O7 2.077408 1_565
Ag3 O1 2.091548 1_555
Ag3 O9 2.119268 1_555
Ag3 O6 2.175763 1_556
Ag3 O4 2.181902 1_555
Ag3 O5 2.234186 1_555
O0 Pr1 2.373875 1_555
O1 Pr0 2.433878 1_556
O2 Pr0 2.433878 1_555
O3 Pr0 2.560774 1_555
O3 Pr1 2.924054 1_555
O4 Pr0 2.560774 1_556
O4 Pr1 2.924054 1_555
O5 Pr1 2.420325 1_555
O6 Pr0 2.373875 1_655
O7 Pr1 2.433878 1_555
O8 Pr1 2.433878 1_555
O9 Pr1 2.560774 1_555
O9 Pr0 2.924054 1_656
O10 Pr1 2.560774 1_555
O10 Pr0 2.924054 1_655
O11 Pr0 2.420325 1_655
