# generated using pymatgen
data_KZn2Ru2C4(ClO12)2
_symmetry_space_group_name_H-M   'P 1'
_cell_length_a   11.21882247
_cell_length_b   11.21882247
_cell_length_c   9.84770171
_cell_angle_alpha   80.88870693
_cell_angle_beta   80.88870693
_cell_angle_gamma   93.97693300
_symmetry_Int_Tables_number   1
_chemical_formula_structural   KZn2Ru2C4(ClO12)2
_chemical_formula_sum   'K2 Zn4 Ru4 C8 Cl4 O48'
_cell_volume   1202.68961054
_cell_formula_units_Z   2
loop_
 _symmetry_equiv_pos_site_id
 _symmetry_equiv_pos_as_xyz
  1  'x, y, z'
loop_
 _atom_site_type_symbol
 _atom_site_label
 _atom_site_symmetry_multiplicity
 _atom_site_fract_x
 _atom_site_fract_y
 _atom_site_fract_z
 _atom_site_occupancy
  K  K0  1  0.84915100  0.84915100  0.43248600  1
  K  K1  1  0.15084900  0.15084900  0.56751400  1
  Zn  Zn0  1  0.00000000  0.50000000  0.00000000  1
  Zn  Zn1  1  0.50000000  0.00000000  0.00000000  1
  Zn  Zn2  1  0.00000000  0.50000000  0.50000000  1
  Zn  Zn3  1  0.50000000  0.00000000  0.50000000  1
  Ru  Ru0  1  0.01571200  0.01571200  0.11034300  1
  Ru  Ru1  1  0.98428800  0.98428800  0.88965700  1
  Ru  Ru2  1  0.45142400  0.45142400  0.11307000  1
  Ru  Ru3  1  0.54857600  0.54857600  0.88693000  1
  C  C0  1  0.28343700  0.52933600  0.92230900  1
  C  C1  1  0.52933600  0.28343700  0.92230900  1
  C  C2  1  0.71656300  0.47066400  0.07769100  1
  C  C3  1  0.47066400  0.71656300  0.07769100  1
  C  C4  1  0.00353800  0.24160100  0.91775500  1
  C  C5  1  0.24160100  0.00353800  0.91775500  1
  C  C6  1  0.99646200  0.75839900  0.08224500  1
  C  C7  1  0.75839900  0.99646200  0.08224500  1
  Cl  Cl0  1  0.05517400  0.05517400  0.33291500  1
  Cl  Cl1  1  0.94482600  0.94482600  0.66708500  1
  Cl  Cl2  1  0.34390300  0.34390300  0.33158600  1
  Cl  Cl3  1  0.65609700  0.65609700  0.66841400  1
  O  O0  1  0.01690900  0.19306800  0.04497100  1
  O  O1  1  0.19306800  0.01690900  0.04497100  1
  O  O2  1  0.98309100  0.80693200  0.95502900  1
  O  O3  1  0.80693200  0.98309100  0.95502900  1
  O  O4  1  0.29388400  0.46872200  0.04577600  1
  O  O5  1  0.46872200  0.29388400  0.04577600  1
  O  O6  1  0.70611600  0.53127800  0.95422400  1
  O  O7  1  0.53127800  0.70611600  0.95422400  1
  O  O8  1  0.00505800  0.83633600  0.16956500  1
  O  O9  1  0.83633600  0.00505800  0.16956500  1
  O  O10  1  0.99494200  0.16366400  0.83043500  1
  O  O11  1  0.16366400  0.99494200  0.83043500  1
  O  O12  1  0.61293200  0.44063300  0.16635500  1
  O  O13  1  0.44063300  0.61293200  0.16635500  1
  O  O14  1  0.38706800  0.55936700  0.83364500  1
  O  O15  1  0.55936700  0.38706800  0.83364500  1
  O  O16  1  0.18512400  0.55686500  0.88899400  1
  O  O17  1  0.55686500  0.18512400  0.88899400  1
  O  O18  1  0.81487600  0.44313500  0.11100600  1
  O  O19  1  0.44313500  0.81487600  0.11100600  1
  O  O20  1  0.99961100  0.35209400  0.87900900  1
  O  O21  1  0.35209400  0.99961100  0.87900900  1
  O  O22  1  0.00038900  0.64790600  0.12099100  1
  O  O23  1  0.64790600  0.00038900  0.12099100  1
  O  O24  1  0.03964400  0.33791500  0.45347700  1
  O  O25  1  0.33791500  0.03964400  0.45347700  1
  O  O26  1  0.96035600  0.66208500  0.54652300  1
  O  O27  1  0.66208500  0.96035600  0.54652300  1
  O  O28  1  0.10758300  0.37899300  0.54552500  1
  O  O29  1  0.37899300  0.10758300  0.54552500  1
  O  O30  1  0.89241700  0.62100700  0.45447500  1
  O  O31  1  0.62100700  0.89241700  0.45447500  1
  O  O32  1  0.19164300  0.62351700  0.35208400  1
  O  O33  1  0.62351700  0.19164300  0.35208400  1
  O  O34  1  0.80835700  0.37648300  0.64791600  1
  O  O35  1  0.37648300  0.80835700  0.64791600  1
  O  O36  1  0.26724000  0.78388200  0.65033900  1
  O  O37  1  0.78388200  0.26724000  0.65033900  1
  O  O38  1  0.73276000  0.21611800  0.34966100  1
  O  O39  1  0.21611800  0.73276000  0.34966100  1
  O  O40  1  0.60482000  0.47339700  0.46564300  1
  O  O41  1  0.47339700  0.60482000  0.46564300  1
  O  O42  1  0.39518000  0.52660300  0.53435700  1
  O  O43  1  0.52660300  0.39518000  0.53435700  1
  O  O44  1  0.06360900  0.39698200  0.15494100  1
  O  O45  1  0.39698200  0.06360900  0.15494100  1
  O  O46  1  0.93639100  0.60301800  0.84505900  1
  O  O47  1  0.60301800  0.93639100  0.84505900  1
loop_
_geom_bond_atom_site_label_1
_geom_bond_atom_site_label_2
_geom_bond_distance
_geom_bond_site_symmetry_2
K0 O31 2.619859 1_555
K0 O30 2.619859 1_555
K0 O26 2.698606 1_555
K0 O27 2.698606 1_555
K0 O8 2.915869 1_655
K0 O9 2.915869 1_565
K1 O29 2.619859 1_555
K1 O28 2.619859 1_555
K1 O25 2.698606 1_555
K1 O24 2.698606 1_555
K1 O11 2.915869 1_545
K1 O10 2.915869 1_455
C0 O16 1.244705 1_555
C0 O4 1.322431 1_556
C0 O14 1.326109 1_555
C1 O17 1.244705 1_555
C1 O5 1.322431 1_556
C1 O15 1.326109 1_555
C2 O18 1.244705 1_555
C2 O6 1.322431 1_554
C2 O12 1.326109 1_555
C3 O19 1.244705 1_555
C3 O7 1.322431 1_554
C3 O13 1.326109 1_555
C4 O20 1.243882 1_455
C4 O0 1.320322 1_556
C4 O10 1.328881 1_455
C5 O21 1.243882 1_545
C5 O1 1.320322 1_556
C5 O11 1.328881 1_545
C6 O22 1.243882 1_655
C6 O2 1.320322 1_554
C6 O8 1.328881 1_655
C7 O23 1.243882 1_565
C7 O3 1.320322 1_554
C7 O9 1.328881 1_565
Cl0 Ru0 2.404897 1_555
Cl0 K1 3.008721 1_555
Cl0 K0 3.077246 1_445
Cl1 Ru1 2.404897 1_555
Cl1 K0 3.008721 1_555
Cl1 K1 3.077246 1_665
Cl2 Ru2 2.386361 1_555
Cl2 K1 3.307820 1_555
Cl3 Ru3 2.386361 1_555
Cl3 K0 3.307820 1_555
O0 Ru0 1.990353 1_555
O1 Ru0 1.990353 1_555
O2 Ru1 1.990353 1_555
O3 Ru1 1.990353 1_555
O4 Ru2 1.994582 1_555
O5 Ru2 1.994582 1_555
O6 Ru3 1.994582 1_555
O7 Ru3 1.994582 1_555
O8 Ru0 1.994236 1_565
O9 Ru0 1.994236 1_655
O10 Ru1 1.994236 1_545
O11 Ru1 1.994236 1_455
O12 Ru2 1.970918 1_555
O13 Ru2 1.970918 1_555
O14 Ru3 1.970918 1_555
O15 Ru3 1.970918 1_555
O16 Zn0 2.188995 1_556
O17 Zn1 2.188995 1_556
O18 Zn0 2.188995 1_655
O19 Zn1 2.188995 1_565
O20 Zn0 2.190849 1_656
O21 Zn1 2.190849 1_566
O22 Zn0 2.190849 1_555
O23 Zn1 2.190849 1_555
O24 O28 1.384696 1_555
O24 Zn2 2.006437 1_555
O25 O29 1.384696 1_555
O25 Zn3 2.006437 1_555
O26 O30 1.384696 1_555
O26 Zn2 2.006437 1_655
O27 O31 1.384696 1_555
O27 Zn3 2.006437 1_565
O28 Zn2 1.925248 1_555
O29 Zn3 1.925248 1_555
O30 Zn2 1.925248 1_655
O31 Zn3 1.925248 1_565
O32 O39 1.232879 1_555
O32 Zn2 2.572966 1_555
O33 O38 1.232879 1_555
O33 Zn3 2.572966 1_555
O34 O37 1.232879 1_555
O34 Zn2 2.572966 1_655
O35 O36 1.232879 1_555
O35 Zn3 2.572966 1_565
O40 O43 1.230851 1_555
O41 O42 1.230851 1_555
O44 Zn0 2.018377 1_555
O45 Zn1 2.018377 1_555
O46 Zn0 2.018377 1_656
O47 Zn1 2.018377 1_566
