# generated using pymatgen
data_Pr2Co3Ge5
_symmetry_space_group_name_H-M   'P 1'
_cell_length_a   8.25883359
_cell_length_b   8.25883359
_cell_length_c   5.89651484
_cell_angle_alpha   69.66388143
_cell_angle_beta   69.66388143
_cell_angle_gamma   92.95281877
_symmetry_Int_Tables_number   1
_chemical_formula_structural   Pr2Co3Ge5
_chemical_formula_sum   'Pr4 Co6 Ge10'
_cell_volume   346.76121325
_cell_formula_units_Z   2
loop_
 _symmetry_equiv_pos_site_id
 _symmetry_equiv_pos_as_xyz
  1  'x, y, z'
loop_
 _atom_site_type_symbol
 _atom_site_label
 _atom_site_symmetry_multiplicity
 _atom_site_fract_x
 _atom_site_fract_y
 _atom_site_fract_z
 _atom_site_occupancy
  Pr  Pr0  1  0.87119200  0.59808200  0.76522600  1
  Pr  Pr1  1  0.40191800  0.12880800  0.73477400  1
  Pr  Pr2  1  0.12880800  0.40191800  0.23477400  1
  Pr  Pr3  1  0.59808200  0.87119200  0.26522600  1
  Co  Co0  1  0.26016300  0.53607700  0.61430400  1
  Co  Co1  1  0.46392300  0.73983700  0.88569600  1
  Co  Co2  1  0.73983700  0.46392300  0.38569600  1
  Co  Co3  1  0.53607700  0.26016300  0.11430400  1
  Co  Co4  1  0.00263400  0.99736600  0.75000000  1
  Co  Co5  1  0.99736500  0.00263500  0.25000000  1
  Ge  Ge0  1  0.06711200  0.25754700  0.83484200  1
  Ge  Ge1  1  0.74245300  0.93288800  0.66515800  1
  Ge  Ge2  1  0.93288800  0.74245300  0.16515800  1
  Ge  Ge3  1  0.25754700  0.06711200  0.33484200  1
  Ge  Ge4  1  0.22277100  0.77722900  0.75000000  1
  Ge  Ge5  1  0.77722900  0.22277100  0.25000000  1
  Ge  Ge6  1  0.50520000  0.49480000  0.75000000  1
  Ge  Ge7  1  0.49480000  0.50520000  0.25000000  1
  Ge  Ge8  1  0.76907400  0.23092600  0.75000000  1
  Ge  Ge9  1  0.23092600  0.76907400  0.25000000  1
loop_
_geom_bond_atom_site_label_1
_geom_bond_atom_site_label_2
_geom_bond_distance
_geom_bond_site_symmetry_2
Co0 Ge0 2.372029 1_555
Co0 Ge4 2.387767 1_555
Co0 Ge6 2.420500 1_555
Co0 Ge9 2.431239 1_555
Co0 Ge7 2.443972 1_555
Co1 Ge1 2.372029 1_555
Co1 Ge4 2.387767 1_555
Co1 Ge6 2.420500 1_555
Co1 Ge9 2.431239 1_556
Co1 Ge7 2.443972 1_556
Co2 Ge2 2.372029 1_555
Co2 Ge5 2.387767 1_555
Co2 Ge7 2.420500 1_555
Co2 Ge8 2.431239 1_555
Co2 Ge6 2.443972 1_555
Co3 Ge3 2.372029 1_555
Co3 Ge5 2.387767 1_555
Co3 Ge7 2.420500 1_555
Co3 Ge8 2.431239 1_554
Co3 Ge6 2.443972 1_554
Co4 Ge1 2.442456 1_455
Co4 Ge0 2.442456 1_565
Co4 Ge2 2.463640 1_456
Co4 Ge3 2.463640 1_565
Co4 Ge4 2.636539 1_555
Co4 Ge8 2.797304 1_465
Co5 Ge2 2.442462 1_545
Co5 Ge3 2.442462 1_655
Co5 Ge0 2.463635 1_654
Co5 Ge1 2.463635 1_545
Co5 Ge5 2.636527 1_555
Co5 Ge9 2.797316 1_645
Ge0 Ge5 2.678392 1_456
Ge0 Ge8 2.689592 1_455
Ge0 Pr1 2.954551 1_555
Ge0 Pr2 3.154821 1_555
Ge0 Pr2 3.157425 1_556
Ge0 Pr0 3.290054 1_455
Ge1 Ge5 2.678392 1_565
Ge1 Ge8 2.689592 1_565
Ge1 Pr0 2.954551 1_555
Ge1 Pr3 3.154821 1_556
Ge1 Pr3 3.157425 1_555
Ge1 Pr1 3.290054 1_565
Ge2 Ge4 2.678392 1_654
Ge2 Ge9 2.689592 1_655
Ge2 Pr3 2.954551 1_555
Ge2 Pr0 3.154821 1_555
Ge2 Pr0 3.157425 1_554
Ge2 Pr2 3.290054 1_655
Ge3 Ge4 2.678392 1_545
Ge3 Ge9 2.689592 1_545
Ge3 Pr2 2.954551 1_555
Ge3 Pr1 3.154821 1_554
Ge3 Pr1 3.157425 1_555
Ge3 Pr3 3.290054 1_545
Ge4 Ge9 2.949875 1_555
Ge4 Ge9 2.949875 1_556
Ge4 Pr0 3.148343 1_455
Ge4 Pr1 3.148343 1_565
Ge4 Pr2 3.229995 1_556
Ge4 Pr3 3.229995 1_555
Ge5 Ge8 2.949875 1_554
Ge5 Ge8 2.949875 1_555
Ge5 Pr3 3.148343 1_545
Ge5 Pr2 3.148343 1_655
Ge5 Pr1 3.229995 1_555
Ge5 Pr0 3.229995 1_554
Ge6 Pr1 3.138213 1_555
Ge6 Pr0 3.138213 1_555
Ge6 Pr2 3.236767 1_556
Ge6 Pr3 3.236767 1_555
Ge7 Pr3 3.138213 1_555
Ge7 Pr2 3.138213 1_555
Ge7 Pr1 3.236767 1_555
Ge7 Pr0 3.236767 1_554
