# generated using pymatgen
data_Dy(CuSe)3
_symmetry_space_group_name_H-M   'P 1'
_cell_length_a   7.70480492
_cell_length_b   7.70480492
_cell_length_c   7.70480540
_cell_angle_alpha   53.99660786
_cell_angle_beta   53.99660786
_cell_angle_gamma   53.99660761
_symmetry_Int_Tables_number   1
_chemical_formula_structural   Dy(CuSe)3
_chemical_formula_sum   'Dy2 Cu6 Se6'
_cell_volume   278.07002138
_cell_formula_units_Z   2
loop_
 _symmetry_equiv_pos_site_id
 _symmetry_equiv_pos_as_xyz
  1  'x, y, z'
loop_
 _atom_site_type_symbol
 _atom_site_label
 _atom_site_symmetry_multiplicity
 _atom_site_fract_x
 _atom_site_fract_y
 _atom_site_fract_z
 _atom_site_occupancy
  Dy  Dy0  1  0.83380900  0.83380900  0.83380900  1
  Dy  Dy1  1  0.16619100  0.16619100  0.16619100  1
  Cu  Cu0  1  0.97787600  0.62705200  0.26663500  1
  Cu  Cu1  1  0.26663500  0.97787600  0.62705200  1
  Cu  Cu2  1  0.62705200  0.26663500  0.97787600  1
  Cu  Cu3  1  0.37294800  0.73336500  0.02212400  1
  Cu  Cu4  1  0.73336500  0.02212400  0.37294800  1
  Cu  Cu5  1  0.02212400  0.37294800  0.73336500  1
  Se  Se0  1  0.73688900  0.42025800  0.09804800  1
  Se  Se1  1  0.42025800  0.09804800  0.73688900  1
  Se  Se2  1  0.09804800  0.73688900  0.42025800  1
  Se  Se3  1  0.90195200  0.26311100  0.57974200  1
  Se  Se4  1  0.57974200  0.90195200  0.26311100  1
  Se  Se5  1  0.26311100  0.57974200  0.90195200  1
loop_
_geom_bond_atom_site_label_1
_geom_bond_atom_site_label_2
_geom_bond_distance
_geom_bond_site_symmetry_2
Dy0 Se0 2.870297 1_556
Dy0 Se1 2.870297 1_565
Dy0 Se2 2.870297 1_655
Dy0 Se3 2.875665 1_565
Dy0 Se5 2.875665 1_655
Dy0 Se4 2.875666 1_556
Dy1 Se5 2.870297 1_554
Dy1 Se4 2.870297 1_545
Dy1 Se3 2.870297 1_455
Dy1 Se2 2.875665 1_545
Dy1 Se0 2.875665 1_455
Dy1 Se1 2.875666 1_554
Cu0 Se5 2.420789 1_654
Cu0 Se4 2.507680 1_555
Cu0 Se3 2.518198 1_555
Cu0 Se2 2.522254 1_655
Cu1 Se3 2.420789 1_465
Cu1 Se5 2.507680 1_555
Cu1 Se4 2.518198 1_555
Cu1 Se1 2.522254 1_565
Cu2 Se4 2.420789 1_546
Cu2 Se3 2.507680 1_555
Cu2 Se5 2.518198 1_555
Cu2 Se0 2.522254 1_556
Cu3 Se1 2.420789 1_564
Cu3 Se2 2.507680 1_555
Cu3 Se0 2.518198 1_555
Cu3 Se5 2.522254 1_554
Cu4 Se2 2.420789 1_645
Cu4 Se0 2.507680 1_555
Cu4 Se1 2.518198 1_555
Cu4 Se4 2.522254 1_545
Cu5 Se0 2.420789 1_456
Cu5 Se1 2.507680 1_555
Cu5 Se2 2.518198 1_555
Cu5 Se3 2.522254 1_455
