# generated using pymatgen
data_Mg4Si7
_symmetry_space_group_name_H-M   'P 1'
_cell_length_a   4.22094264
_cell_length_b   7.00489839
_cell_length_c   14.21541635
_cell_angle_alpha   88.40547642
_cell_angle_beta   82.71040101
_cell_angle_gamma   87.36128800
_symmetry_Int_Tables_number   1
_chemical_formula_structural   Mg4Si7
_chemical_formula_sum   'Mg8 Si14'
_cell_volume   416.36936843
_cell_formula_units_Z   2
loop_
 _symmetry_equiv_pos_site_id
 _symmetry_equiv_pos_as_xyz
  1  'x, y, z'
loop_
 _atom_site_type_symbol
 _atom_site_label
 _atom_site_symmetry_multiplicity
 _atom_site_fract_x
 _atom_site_fract_y
 _atom_site_fract_z
 _atom_site_occupancy
  Mg  Mg0  1  0.97275020  0.96445650  0.07502919  1
  Mg  Mg1  1  0.84801822  0.67863180  0.48241124  1
  Mg  Mg2  1  0.26394206  0.82614761  0.62812327  1
  Mg  Mg3  1  0.41514434  0.49992217  0.34287058  1
  Mg  Mg4  1  0.95824170  0.51754006  0.16575116  1
  Mg  Mg5  1  0.26220284  0.09080195  0.80847696  1
  Mg  Mg6  1  0.33451680  0.35872122  0.57816613  1
  Mg  Mg7  1  0.37429740  0.00006104  0.41268170  1
  Si  Si0  1  0.46084156  0.67779103  0.05283404  1
  Si  Si1  1  0.54836861  0.33594874  0.04696119  1
  Si  Si2  1  0.09079607  0.29146052  0.96255455  1
  Si  Si3  1  0.15074597  0.61289728  0.91432813  1
  Si  Si4  1  0.89186487  0.30411143  0.43182858  1
  Si  Si5  1  0.80949274  0.05326623  0.54746570  1
  Si  Si6  1  0.49929496  0.71797509  0.78736008  1
  Si  Si7  1  0.46955492  0.17472629  0.19747459  1
  Si  Si8  1  0.94290430  0.81289096  0.30017274  1
  Si  Si9  1  0.72892713  0.83799021  0.91736963  1
  Si  Si10  1  0.78438959  0.54502597  0.66325220  1
  Si  Si11  1  0.47062486  0.81828403  0.20541642  1
  Si  Si12  1  0.93111168  0.16790511  0.28008332  1
  Si  Si13  1  0.78824919  0.20977577  0.69579960  1
loop_
_geom_bond_atom_site_label_1
_geom_bond_atom_site_label_2
_geom_bond_distance
_geom_bond_site_symmetry_2
Mg0 Si9 2.765267 1_554
Mg0 Si2 2.784017 1_664
Mg0 Si0 2.804585 1_655
Mg0 Si11 2.841345 1_555
Mg0 Si7 2.937153 1_565
Mg0 Si0 3.067315 1_555
Mg0 Si11 3.095955 1_655
Mg0 Si1 3.135936 1_565
Mg1 Si10 2.696427 1_555
Mg1 Si8 2.718800 1_555
Mg1 Si4 2.731379 1_555
Mg1 Si5 2.797514 1_565
Mg2 Si6 2.662871 1_555
Mg2 Si5 2.775046 1_465
Mg2 Si10 2.877542 1_455
Mg2 Si5 2.951971 1_565
Mg2 Si10 2.962839 1_555
Mg3 Si4 2.797248 1_555
Mg3 Si4 2.798686 1_455
Mg3 Si11 2.921576 1_555
Mg3 Si8 2.996414 1_455
Mg3 Si7 3.099546 1_555
Mg3 Si8 3.188973 1_555
Mg4 Si0 2.755362 1_655
Mg4 Si8 2.848196 1_555
Mg4 Si11 2.892162 1_555
Mg4 Si12 2.900014 1_555
Mg4 Si1 2.919968 1_555
Mg4 Si0 2.963524 1_555
Mg4 Si1 3.071566 1_655
Mg4 Si11 3.198214 1_655
Mg5 Si2 2.640457 1_555
Mg5 Si13 2.717343 1_555
Mg5 Si6 2.763855 1_545
Mg5 Si13 2.801369 1_455
Mg5 Si9 3.116628 1_545
Mg5 Si9 3.151071 1_445
Mg6 Si10 2.766612 1_455
Mg6 Si10 2.769614 1_555
Mg6 Si13 2.843308 1_555
Mg6 Si5 2.867587 1_555
Mg6 Si13 2.889179 1_455
Mg6 Si4 2.954269 1_555
Mg6 Si4 3.010175 1_455
Mg7 Si5 2.860117 1_555
Mg7 Si4 2.872139 1_455
Mg7 Si5 2.879629 1_455
Mg7 Si8 2.944171 1_445
Mg7 Si8 2.981625 1_545
Mg7 Si12 3.000614 1_455
Mg7 Si12 3.076692 1_555
Mg7 Si4 3.161402 1_555
Mg7 Si11 3.213230 1_545
Si0 Si9 2.385725 1_554
Si0 Si1 2.408167 1_555
Si0 Si11 2.412501 1_555
Si0 Si3 2.560288 1_554
Si1 Si7 2.384012 1_555
Si1 Si2 2.435446 1_554
Si1 Si2 2.456999 1_654
Si2 Si3 2.350830 1_555
Si3 Si6 2.305607 1_555
Si3 Si9 2.320317 1_455
Si4 Si5 2.379304 1_555
Si6 Si9 2.382843 1_555
Si10 Si6 2.339726 1_555
Si10 Si13 2.380590 1_555
Si11 Si8 2.453773 1_455
Si11 Si7 2.496075 1_565
Si11 Si8 2.541927 1_555
Si12 Si4 2.366485 1_555
Si12 Si7 2.397016 1_555
Si12 Si7 2.424094 1_655
Si12 Si8 2.494210 1_545
Si13 Si5 2.393308 1_555
