# generated using pymatgen
data_In16Bi8Pb3S38
_symmetry_space_group_name_H-M   'P 1'
_cell_length_a   7.78597900
_cell_length_b   14.80332743
_cell_length_c   15.05611515
_cell_angle_alpha   114.59078421
_cell_angle_beta   97.46277227
_cell_angle_gamma   97.54617361
_symmetry_Int_Tables_number   1
_chemical_formula_structural   In16Bi8Pb3S38
_chemical_formula_sum   'In16 Bi8 Pb3 S38'
_cell_volume   1531.15993394
_cell_formula_units_Z   1
loop_
 _symmetry_equiv_pos_site_id
 _symmetry_equiv_pos_as_xyz
  1  'x, y, z'
loop_
 _atom_site_type_symbol
 _atom_site_label
 _atom_site_symmetry_multiplicity
 _atom_site_fract_x
 _atom_site_fract_y
 _atom_site_fract_z
 _atom_site_occupancy
  In  In0  1  0.01379100  0.91999300  0.13581300  1
  In  In1  1  0.51376400  0.92004900  0.13520500  1
  In  In2  1  0.98656700  0.07928900  0.86360000  1
  In  In3  1  0.48597200  0.07961100  0.86363300  1
  In  In4  1  0.17562200  0.10529300  0.59664000  1
  In  In5  1  0.67595500  0.10735400  0.59695200  1
  In  In6  1  0.82437700  0.89477800  0.40424700  1
  In  In7  1  0.32481000  0.89527400  0.40421800  1
  In  In8  1  0.81425300  0.14429700  0.11552900  1
  In  In9  1  0.31451700  0.14425100  0.11566600  1
  In  In10  1  0.18107200  0.85397200  0.88244800  1
  In  In11  1  0.68811100  0.85411600  0.88252100  1
  In  In12  1  0.97511100  0.65793800  0.24189100  1
  In  In13  1  0.47621500  0.65812500  0.24169700  1
  In  In14  1  0.02177700  0.34188200  0.75472500  1
  In  In15  1  0.52573400  0.34189600  0.75494400  1
  Bi  Bi0  1  0.15129600  0.21913000  0.38208700  1
  Bi  Bi1  1  0.65169300  0.21814500  0.38441100  1
  Bi  Bi2  1  0.84900900  0.77717600  0.62057100  1
  Bi  Bi3  1  0.34741200  0.77989300  0.61256200  1
  Bi  Bi4  1  0.38431100  0.59750300  0.93902800  1
  Bi  Bi5  1  0.88645800  0.60112700  0.94153500  1
  Bi  Bi6  1  0.61376500  0.39955800  0.05404000  1
  Bi  Bi7  1  0.11391800  0.39891000  0.05456700  1
  Pb  Pb0  1  0.29186000  0.52171200  0.63505600  1
  Pb  Pb1  1  0.20824700  0.48050600  0.36537400  1
  Pb  Pb2  1  0.71050700  0.47983200  0.36986900  1
  S  S0  1  0.02757900  0.84580900  0.26728400  1
  S  S1  1  0.52787100  0.84616400  0.26703100  1
  S  S2  1  0.97475400  0.15517400  0.73430200  1
  S  S3  1  0.47109300  0.15540100  0.73409300  1
  S  S4  1  0.17929400  0.94603200  0.77031600  1
  S  S5  1  0.67979400  0.94606000  0.77026500  1
  S  S6  1  0.82018400  0.05517600  0.23062600  1
  S  S7  1  0.32272200  0.05509000  0.23067300  1
  S  S8  1  0.32721300  0.40144100  0.90967800  1
  S  S9  1  0.82812600  0.40278900  0.90886800  1
  S  S10  1  0.67345400  0.59743200  0.09369300  1
  S  S11  1  0.17014000  0.59725000  0.09372000  1
  S  S12  1  0.29585000  0.20477100  0.97834300  1
  S  S13  1  0.79572700  0.20486300  0.97788800  1
  S  S14  1  0.70455500  0.79627900  0.02185400  1
  S  S15  1  0.20362800  0.79638300  0.02207800  1
  S  S16  1  0.11179500  0.91160100  0.53076600  1
  S  S17  1  0.61214300  0.91286200  0.53121300  1
  S  S18  1  0.88941000  0.08873800  0.46877700  1
  S  S19  1  0.38705100  0.08886000  0.46853900  1
  S  S20  1  0.23421900  0.30452900  0.63420400  1
  S  S21  1  0.73255300  0.29992900  0.63297900  1
  S  S22  1  0.76552600  0.69538900  0.36543700  1
  S  S23  1  0.26622600  0.69584000  0.36504500  1
  S  S24  1  0.50049700  0.00008900  0.00025700  1
  S  S25  1  0.00044700  0.00300900  0.00089200  1
  S  S26  1  0.91712100  0.46579100  0.20689600  1
  S  S27  1  0.41951300  0.46588700  0.20667800  1
  S  S28  1  0.08473700  0.53462100  0.79761300  1
  S  S29  1  0.58051100  0.53435400  0.79728000  1
  S  S30  1  0.05386500  0.63505300  0.54949100  1
  S  S31  1  0.53905000  0.63542300  0.54950300  1
  S  S32  1  0.95826100  0.36453700  0.44919500  1
  S  S33  1  0.44928100  0.36451800  0.44900600  1
  S  S34  1  0.38023100  0.74062400  0.77831600  1
  S  S35  1  0.88014500  0.73902600  0.78049100  1
  S  S36  1  0.62043700  0.26037700  0.22282300  1
  S  S37  1  0.11996700  0.26012000  0.22055500  1
loop_
_geom_bond_atom_site_label_1
_geom_bond_atom_site_label_2
_geom_bond_distance
_geom_bond_site_symmetry_2
In0 S0 2.630706 1_555
In0 S15 2.687996 1_555
In0 S14 2.692296 1_455
In0 S6 2.699723 1_465
In0 S7 2.700361 1_565
In0 S25 2.775597 1_565
In1 S1 2.632371 1_555
In1 S7 2.686953 1_565
In1 S6 2.687318 1_565
In1 S14 2.692071 1_555
In1 S15 2.694204 1_555
In1 S24 2.742984 1_565
In2 S2 2.619312 1_555
In2 S4 2.671089 1_645
In2 S5 2.674643 1_545
In2 S12 2.703241 1_655
In2 S13 2.711415 1_555
In2 S25 2.734276 1_656
In3 S3 2.621591 1_555
In3 S4 2.676162 1_545
In3 S5 2.680243 1_545
In3 S13 2.703111 1_555
In3 S12 2.707057 1_555
In3 S24 2.760401 1_556
In4 S16 2.565714 1_545
In4 S19 2.651119 1_555
In4 S18 2.661129 1_455
In4 S2 2.675573 1_455
In4 S3 2.676376 1_555
In4 S20 2.723599 1_555
In5 S17 2.576960 1_545
In5 S21 2.633666 1_555
In5 S18 2.659521 1_555
In5 S19 2.672228 1_555
In5 S3 2.691605 1_555
In5 S2 2.699865 1_555
In6 S18 2.571589 1_565
In6 S17 2.639575 1_555
In6 S16 2.655179 1_655
In6 S0 2.680597 1_655
In6 S1 2.683827 1_555
In6 S22 2.720893 1_555
In7 S19 2.566831 1_565
In7 S16 2.642399 1_555
In7 S17 2.655218 1_555
In7 S1 2.682334 1_555
In7 S0 2.683564 1_555
In7 S23 2.720139 1_555
In8 S13 2.573312 1_554
In8 S6 2.577518 1_555
In8 S37 2.607650 1_655
In8 S36 2.616038 1_555
In8 S25 2.810174 1_655
In8 S24 2.825327 1_555
In9 S12 2.568324 1_554
In9 S7 2.576816 1_555
In9 S37 2.603826 1_555
In9 S36 2.617161 1_555
In9 S25 2.808893 1_555
In9 S24 2.837149 1_555
In10 S35 2.566354 1_455
In10 S15 2.571428 1_556
In10 S4 2.573209 1_555
In10 S34 2.608348 1_555
In10 S25 2.866603 1_566
In10 S24 2.873710 1_566
In11 S35 2.566223 1_555
In11 S14 2.569849 1_556
In11 S5 2.573436 1_555
In11 S34 2.608050 1_555
In11 S25 2.853992 1_666
In11 S24 2.873887 1_566
In12 S22 2.568675 1_555
In12 S23 2.568826 1_655
In12 S0 2.612231 1_655
In12 S26 2.631680 1_555
In12 S11 2.767668 1_655
In12 S10 2.778504 1_555
In13 S22 2.564657 1_555
In13 S23 2.568921 1_555
In13 S1 2.614982 1_555
In13 S27 2.632879 1_555
In13 S10 2.777816 1_555
In13 S11 2.800141 1_555
In14 S21 2.535679 1_455
In14 S20 2.553274 1_555
In14 S28 2.610548 1_555
In14 S2 2.620188 1_455
In14 S9 2.827875 1_455
In14 S8 2.858637 1_555
In15 S21 2.536230 1_555
In15 S20 2.554183 1_555
In15 S29 2.608435 1_555
In15 S3 2.614721 1_555
In15 S9 2.830760 1_555
In15 S8 2.859673 1_555
Bi0 S33 2.703077 1_555
Bi0 S32 2.710570 1_455
Bi0 S37 2.730479 1_555
Bi0 S7 3.147967 1_555
Bi0 S6 3.155985 1_455
Bi1 S36 2.742450 1_555
Bi1 S32 2.760887 1_555
Bi1 S33 2.768717 1_555
Bi1 S6 3.142213 1_555
Bi1 S7 3.151303 1_555
Bi2 S35 2.681627 1_555
Bi2 S31 2.739132 1_555
Bi2 S30 2.750744 1_655
Bi2 S5 3.164276 1_555
Bi2 S4 3.171690 1_655
Bi3 S30 2.679043 1_555
Bi3 S31 2.686581 1_555
Bi3 S34 2.777058 1_555
Bi4 S29 2.706233 1_555
Bi4 S28 2.707479 1_555
Bi4 S8 2.712805 1_555
Bi4 S10 3.021867 1_556
Bi4 S11 3.036393 1_556
Bi5 S9 2.731030 1_555
Bi5 S28 2.746036 1_655
Bi5 S29 2.760349 1_555
Bi5 S11 2.993335 1_656
Bi5 S10 3.011493 1_556
Bi5 S15 3.217707 1_656
Bi5 S14 3.228932 1_556
Bi6 S10 2.695831 1_555
Bi6 S26 2.817494 1_555
Bi6 S27 2.819206 1_555
Bi6 S8 2.917163 1_554
Bi6 S9 2.928983 1_554
Bi6 S13 3.220659 1_554
Bi6 S12 3.224577 1_554
Bi7 S11 2.704563 1_555
Bi7 S27 2.822134 1_555
Bi7 S26 2.830121 1_455
Bi7 S8 2.917345 1_554
Bi7 S9 2.938919 1_454
Bi7 S12 3.213946 1_554
Bi7 S13 3.217111 1_454
Pb0 S34 2.973027 1_555
Pb0 S29 3.022381 1_555
Pb0 S28 3.056841 1_555
Pb0 S31 3.129613 1_555
Pb0 S30 3.147043 1_555
Pb0 S20 3.181699 1_555
Pb1 S26 2.985211 1_455
Pb1 S37 2.995261 1_555
Pb1 S27 3.024175 1_555
Pb1 S32 3.145133 1_455
Pb1 S23 3.162397 1_555
Pb1 S33 3.176075 1_555
Pb1 S30 3.266950 1_555
Pb1 S31 3.298645 1_555
Pb2 S36 2.993241 1_555
Pb2 S27 3.036744 1_555
Pb2 S26 3.056249 1_555
Pb2 S33 3.143364 1_555
Pb2 S32 3.165961 1_555
Pb2 S22 3.193087 1_555
