# generated using pymatgen
data_Zn(CuO2)2
_symmetry_space_group_name_H-M   'P 1'
_cell_length_a   5.04604600
_cell_length_b   5.80478000
_cell_length_c   10.11238100
_cell_angle_alpha   90.00000000
_cell_angle_beta   90.00000000
_cell_angle_gamma   90.00000000
_symmetry_Int_Tables_number   1
_chemical_formula_structural   Zn(CuO2)2
_chemical_formula_sum   'Zn4 Cu8 O16'
_cell_volume   296.20364187
_cell_formula_units_Z   4
loop_
 _symmetry_equiv_pos_site_id
 _symmetry_equiv_pos_as_xyz
  1  'x, y, z'
loop_
 _atom_site_type_symbol
 _atom_site_label
 _atom_site_symmetry_multiplicity
 _atom_site_fract_x
 _atom_site_fract_y
 _atom_site_fract_z
 _atom_site_occupancy
  Zn  Zn0  1  0.65502800  0.50000000  0.50000000  1
  Zn  Zn1  1  0.34497200  0.00000000  0.00000000  1
  Zn  Zn2  1  0.98114400  0.50000000  0.00000000  1
  Zn  Zn3  1  0.01885600  0.00000000  0.50000000  1
  Cu  Cu0  1  0.98492100  0.00000000  0.23291900  1
  Cu  Cu1  1  0.98492100  0.00000000  0.76708100  1
  Cu  Cu2  1  0.01507900  0.50000000  0.26708100  1
  Cu  Cu3  1  0.01507900  0.50000000  0.73291900  1
  Cu  Cu4  1  0.50000000  0.25000000  0.25000000  1
  Cu  Cu5  1  0.50000000  0.75000000  0.75000000  1
  Cu  Cu6  1  0.50000000  0.75000000  0.25000000  1
  Cu  Cu7  1  0.50000000  0.25000000  0.75000000  1
  O  O0  1  0.63687000  0.00000000  0.14642600  1
  O  O1  1  0.63687000  0.00000000  0.85357400  1
  O  O2  1  0.36313000  0.50000000  0.35357400  1
  O  O3  1  0.36313000  0.50000000  0.64642600  1
  O  O4  1  0.29953600  0.00000000  0.34717600  1
  O  O5  1  0.29953600  0.00000000  0.65282400  1
  O  O6  1  0.70046400  0.50000000  0.15282400  1
  O  O7  1  0.70046400  0.50000000  0.84717600  1
  O  O8  1  0.83534900  0.24898800  0.36657900  1
  O  O9  1  0.83534900  0.75101200  0.63342100  1
  O  O10  1  0.16465100  0.74898800  0.13342100  1
  O  O11  1  0.16465100  0.25101200  0.86657900  1
  O  O12  1  0.16465100  0.25101200  0.13342100  1
  O  O13  1  0.16465100  0.74898800  0.86657900  1
  O  O14  1  0.83534900  0.75101200  0.36657900  1
  O  O15  1  0.83534900  0.24898800  0.63342100  1
loop_
_geom_bond_atom_site_label_1
_geom_bond_atom_site_label_2
_geom_bond_distance
_geom_bond_site_symmetry_2
Cu0 O0 1.962024 1_555
Cu0 O4 1.963498 1_655
Cu0 O10 1.989454 1_645
Cu0 O12 1.989454 1_655
Cu0 O8 2.117894 1_555
Cu0 O14 2.117894 1_545
Cu1 O1 1.962024 1_555
Cu1 O5 1.963498 1_655
Cu1 O11 1.989454 1_655
Cu1 O13 1.989454 1_645
Cu1 O15 2.117894 1_555
Cu1 O9 2.117894 1_545
Cu2 O2 1.962024 1_555
Cu2 O6 1.963498 1_455
Cu2 O8 1.989454 1_455
Cu2 O14 1.989454 1_455
Cu2 O10 2.117894 1_555
Cu2 O12 2.117894 1_555
Cu3 O3 1.962024 1_555
Cu3 O7 1.963498 1_455
Cu3 O9 1.989454 1_455
Cu3 O15 1.989454 1_455
Cu3 O11 2.117894 1_555
Cu3 O13 2.117894 1_555
Cu4 O2 1.918325 1_555
Cu4 O0 1.918325 1_555
Cu4 O6 2.023577 1_555
Cu4 O4 2.023577 1_555
Cu4 O8 2.062356 1_555
Cu4 O12 2.062356 1_555
Cu5 O1 1.918325 1_565
Cu5 O3 1.918325 1_555
Cu5 O7 2.023577 1_555
Cu5 O5 2.023577 1_565
Cu5 O9 2.062356 1_555
Cu5 O13 2.062356 1_555
Cu6 O2 1.918325 1_555
Cu6 O0 1.918325 1_565
Cu6 O6 2.023577 1_555
Cu6 O4 2.023577 1_565
Cu6 O14 2.062356 1_555
Cu6 O10 2.062356 1_555
Cu7 O1 1.918325 1_555
Cu7 O3 1.918325 1_555
Cu7 O7 2.023577 1_555
Cu7 O5 2.023577 1_555
Cu7 O15 2.062356 1_555
Cu7 O11 2.062356 1_555
O0 Zn1 2.088551 1_555
O1 Zn1 2.088551 1_556
O2 Zn0 2.088551 1_555
O3 Zn0 2.088551 1_555
O4 Zn3 2.096254 1_555
O5 Zn3 2.096254 1_555
O6 Zn2 2.096254 1_555
O7 Zn2 2.096254 1_556
O8 Zn3 2.183289 1_655
O8 Zn0 2.184339 1_555
O9 Zn3 2.183289 1_665
O9 Zn0 2.184339 1_555
O10 Zn2 2.183289 1_455
O10 Zn1 2.184339 1_565
O11 Zn2 2.183289 1_456
O11 Zn1 2.184339 1_556
O12 Zn2 2.183289 1_455
O12 Zn1 2.184339 1_555
O13 Zn2 2.183289 1_456
O13 Zn1 2.184339 1_566
O14 Zn3 2.183289 1_665
O14 Zn0 2.184339 1_555
O15 Zn3 2.183289 1_655
O15 Zn0 2.184339 1_555
