# generated using pymatgen
data_Li7Ni(O2F)2
_symmetry_space_group_name_H-M   'P 1'
_cell_length_a   5.35613700
_cell_length_b   5.63707400
_cell_length_c   10.07127862
_cell_angle_alpha   105.81951251
_cell_angle_beta   85.88191179
_cell_angle_gamma   115.99099197
_symmetry_Int_Tables_number   1
_chemical_formula_structural   Li7Ni(O2F)2
_chemical_formula_sum   'Li14 Ni2 O8 F4'
_cell_volume   262.57586632
_cell_formula_units_Z   2
loop_
 _symmetry_equiv_pos_site_id
 _symmetry_equiv_pos_as_xyz
  1  'x, y, z'
loop_
 _atom_site_type_symbol
 _atom_site_label
 _atom_site_symmetry_multiplicity
 _atom_site_fract_x
 _atom_site_fract_y
 _atom_site_fract_z
 _atom_site_occupancy
  Li  Li0  1  0.05710700  0.96319500  0.77304700  1
  Li  Li1  1  0.47374500  0.37810300  0.25404500  1
  Li  Li2  1  0.54228000  0.05670000  0.61567900  1
  Li  Li3  1  0.96602700  0.42745400  0.88494300  1
  Li  Li4  1  0.04843500  0.78296600  0.55776900  1
  Li  Li5  1  0.51709300  0.27999900  0.03791300  1
  Li  Li6  1  0.95633000  0.65157800  0.32322900  1
  Li  Li7  1  0.48421100  0.76131700  0.93942300  1
  Li  Li8  1  0.98034300  0.22545100  0.47293300  1
  Li  Li9  1  0.98184500  0.50510800  0.10737400  1
  Li  Li10  1  0.49503600  0.97022900  0.38358000  1
  Li  Li11  1  0.46748100  0.53606500  0.72098400  1
  Li  Li12  1  0.98769400  0.09673000  0.24881000  1
  Li  Li13  1  0.50324700  0.85085900  0.16327500  1
  Ni  Ni0  1  0.00249300  0.96001000  0.04287200  1
  Ni  Ni1  1  0.51108500  0.50626400  0.49164300  1
  O  O0  1  0.26165800  0.17564700  0.60237800  1
  O  O1  1  0.28024800  0.03661100  0.19774000  1
  O  O2  1  0.17146300  0.80630200  0.97102700  1
  O  O3  1  0.66748700  0.31953900  0.43462900  1
  O  O4  1  0.69571600  0.63046000  0.10774500  1
  O  O5  1  0.34236100  0.69024100  0.53735200  1
  O  O6  1  0.82040500  0.16436700  0.06221100  1
  O  O7  1  0.77879300  0.84044000  0.39197700  1
  F  F0  1  0.85459900  0.60114800  0.72121700  1
  F  F1  1  0.29688500  0.39051700  0.88943300  1
  F  F2  1  0.69714600  0.94601900  0.78654400  1
  F  F3  1  0.15879000  0.44668200  0.28022500  1
loop_
_geom_bond_atom_site_label_1
_geom_bond_atom_site_label_2
_geom_bond_distance
_geom_bond_site_symmetry_2
Li0 O0 2.300202 1_565
Li1 O1 1.685825 1_555
Li1 O4 2.239867 1_555
Li1 O7 2.451855 1_555
Li2 O5 1.824927 1_545
Li2 O0 1.920388 1_555
Li3 O2 1.895027 1_655
Li3 O6 2.494967 1_556
Li4 O5 1.846639 1_555
Li4 O0 1.929198 1_565
Li4 O7 2.455651 1_455
Li5 O4 1.730715 1_555
Li5 O6 2.048466 1_555
Li6 O7 1.705258 1_555
Li7 O2 1.795374 1_555
Li7 O6 2.266280 1_566
Li8 O7 1.910142 1_545
Li8 O3 2.054617 1_555
Li8 O0 2.213857 1_655
Li9 O6 1.663862 1_555
Li9 O4 1.948050 1_555
Li9 O2 2.315025 1_654
Li10 O3 1.707909 1_565
Li10 O7 1.969552 1_555
Li11 O0 1.916474 1_555
Li12 O1 1.757669 1_655
Li12 Ni0 2.015043 1_645
Li12 O7 2.214816 1_545
Li12 O6 2.326348 1_555
Li13 O1 1.866005 1_565
Li13 O4 1.892088 1_555
Li13 O6 2.268506 1_565
Ni0 O2 1.531276 1_554
Ni0 O6 1.775181 1_465
Ni0 O1 2.058019 1_565
Ni0 O4 2.100006 1_455
Ni1 O3 1.585438 1_555
Ni1 O5 1.614176 1_555
Ni1 O7 2.251436 1_555
Ni1 O0 2.288880 1_555
F0 Li0 1.781705 1_655
F0 Li11 1.940961 1_555
F0 Li4 2.140063 1_655
F0 Li3 2.359583 1_555
F1 Li7 1.813805 1_555
F1 Li3 1.877726 1_455
F1 Li11 2.065275 1_555
F1 Li0 2.188879 1_545
F1 Li5 2.328242 1_556
F2 Li0 1.884399 1_655
F2 Li11 2.020593 1_555
F2 Li7 2.082426 1_555
F2 Li2 2.298379 1_565
F2 Li3 2.394657 1_565
F3 Li12 1.717078 1_455
F3 Li6 1.858801 1_455
F3 Li1 1.875331 1_555
F3 Li9 2.204612 1_455
