# generated using pymatgen
data_Na2NdN5O16
_symmetry_space_group_name_H-M   'P 1'
_cell_length_a   8.06823659
_cell_length_b   15.19879182
_cell_length_c   21.40686603
_cell_angle_alpha   90.22637788
_cell_angle_beta   90.00000000
_cell_angle_gamma   90.00000000
_symmetry_Int_Tables_number   1
_chemical_formula_structural   Na2NdN5O16
_chemical_formula_sum   'Na16 Nd8 N40 O128'
_cell_volume   2625.04886751
_cell_formula_units_Z   8
loop_
 _symmetry_equiv_pos_site_id
 _symmetry_equiv_pos_as_xyz
  1  'x, y, z'
loop_
 _atom_site_type_symbol
 _atom_site_label
 _atom_site_symmetry_multiplicity
 _atom_site_fract_x
 _atom_site_fract_y
 _atom_site_fract_z
 _atom_site_occupancy
  Na  Na0  1  0.33007977  0.65872414  0.12723886  1
  Na  Na1  1  0.33007977  0.84127586  0.87276114  1
  Na  Na2  1  0.66992023  0.34127586  0.87276114  1
  Na  Na3  1  0.66992023  0.15872414  0.12723886  1
  Na  Na4  1  0.18655586  0.53939494  0.36979175  1
  Na  Na5  1  0.18655586  0.96060506  0.63020825  1
  Na  Na6  1  0.81344414  0.46060506  0.63020825  1
  Na  Na7  1  0.81344414  0.03939494  0.36979175  1
  Na  Na8  1  0.32563042  0.88176178  0.39215290  1
  Na  Na9  1  0.32563042  0.61823822  0.60784710  1
  Na  Na10  1  0.67436958  0.11823822  0.60784710  1
  Na  Na11  1  0.67436958  0.38176178  0.39215290  1
  Na  Na12  1  0.23409310  0.96615424  0.11881518  1
  Na  Na13  1  0.23409310  0.53384576  0.88118482  1
  Na  Na14  1  0.76590690  0.03384576  0.88118482  1
  Na  Na15  1  0.76590690  0.46615424  0.11881518  1
  Nd  Nd0  1  0.82317322  0.75000000  0.00000000  1
  Nd  Nd1  1  0.17682678  0.25000000  0.00000000  1
  Nd  Nd2  1  0.85107373  0.75000000  0.50000000  1
  Nd  Nd3  1  0.14892627  0.25000000  0.50000000  1
  Nd  Nd4  1  0.83000929  0.75428620  0.24902625  1
  Nd  Nd5  1  0.83000929  0.74571380  0.75097375  1
  Nd  Nd6  1  0.16999071  0.24571380  0.75097375  1
  Nd  Nd7  1  0.16999071  0.25428620  0.24902625  1
  N  N0  1  0.51004540  0.81468115  0.18069200  1
  N  N1  1  0.51004540  0.68531885  0.81930800  1
  N  N2  1  0.48995460  0.18531885  0.81930800  1
  N  N3  1  0.48995460  0.31468115  0.18069200  1
  N  N4  1  0.15527380  0.70913699  0.42285312  1
  N  N5  1  0.15527380  0.79086301  0.57714688  1
  N  N6  1  0.84472620  0.29086301  0.57714688  1
  N  N7  1  0.84472620  0.20913699  0.42285312  1
  N  N8  1  0.52026886  0.87125081  0.00430384  1
  N  N9  1  0.52026886  0.62874919  0.99569616  1
  N  N10  1  0.47973114  0.12874919  0.99569616  1
  N  N11  1  0.47973114  0.37125081  0.00430384  1
  N  N12  1  0.01638562  0.60918047  0.07061758  1
  N  N13  1  0.01638562  0.89081953  0.92938242  1
  N  N14  1  0.98361438  0.39081953  0.92938242  1
  N  N15  1  0.98361438  0.10918047  0.07061758  1
  N  N16  1  0.70529129  0.56588557  0.24695865  1
  N  N17  1  0.70529129  0.93411443  0.75304135  1
  N  N18  1  0.29470871  0.43411443  0.75304135  1
  N  N19  1  0.29470871  0.06588557  0.24695865  1
  N  N20  1  0.14133274  0.64289938  0.24933429  1
  N  N21  1  0.14133274  0.85710062  0.75066571  1
  N  N22  1  0.85866726  0.35710062  0.75066571  1
  N  N23  1  0.85866726  0.14289938  0.24933429  1
  N  N24  1  0.01668910  0.60167810  0.67955319  1
  N  N25  1  0.01668910  0.89832190  0.32044681  1
  N  N26  1  0.98331090  0.39832190  0.32044681  1
  N  N27  1  0.98331090  0.10167810  0.67955319  1
  N  N28  1  0.64930232  0.78294242  0.37868837  1
  N  N29  1  0.64930232  0.71705758  0.62131163  1
  N  N30  1  0.35069768  0.21705758  0.62131163  1
  N  N31  1  0.35069768  0.28294242  0.37868837  1
  N  N32  1  0.74265571  0.94527722  0.50390724  1
  N  N33  1  0.74265571  0.55472278  0.49609276  1
  N  N34  1  0.25734429  0.05472278  0.49609276  1
  N  N35  1  0.25734429  0.44527722  0.50390724  1
  N  N36  1  0.95052810  0.83647034  0.12459491  1
  N  N37  1  0.95052810  0.66352966  0.87540509  1
  N  N38  1  0.04947190  0.16352966  0.87540509  1
  N  N39  1  0.04947190  0.33647034  0.12459491  1
  O  O0  1  0.50316975  0.00696132  0.36907226  1
  O  O1  1  0.50316975  0.49303868  0.63092774  1
  O  O2  1  0.49683025  0.99303868  0.63092774  1
  O  O3  1  0.49683025  0.50696132  0.36907226  1
  O  O4  1  0.52228893  0.01166866  0.12882514  1
  O  O5  1  0.52228893  0.48833134  0.87117486  1
  O  O6  1  0.47771107  0.98833134  0.87117486  1
  O  O7  1  0.47771107  0.51166866  0.12882514  1
  O  O8  1  0.61003829  0.87467692  0.19795686  1
  O  O9  1  0.61003829  0.62532308  0.80204314  1
  O  O10  1  0.38996171  0.12532308  0.80204314  1
  O  O11  1  0.38996171  0.37467692  0.19795686  1
  O  O12  1  0.54947628  0.73493780  0.19506685  1
  O  O13  1  0.54947628  0.76506220  0.80493315  1
  O  O14  1  0.45052372  0.26506220  0.80493315  1
  O  O15  1  0.45052372  0.23493780  0.19506685  1
  O  O16  1  0.38063938  0.82880724  0.15094170  1
  O  O17  1  0.38063938  0.67119276  0.84905830  1
  O  O18  1  0.61936062  0.17119276  0.84905830  1
  O  O19  1  0.61936062  0.32880724  0.15094170  1
  O  O20  1  0.04897938  0.65015012  0.43697744  1
  O  O21  1  0.04897938  0.84984988  0.56302256  1
  O  O22  1  0.95102062  0.34984988  0.56302256  1
  O  O23  1  0.95102062  0.15015012  0.43697744  1
  O  O24  1  0.28260152  0.69139332  0.39305130  1
  O  O25  1  0.28260152  0.80860668  0.60694870  1
  O  O26  1  0.71739848  0.30860668  0.60694870  1
  O  O27  1  0.71739848  0.19139332  0.39305130  1
  O  O28  1  0.12286048  0.78821173  0.44088330  1
  O  O29  1  0.12286048  0.71178827  0.55911670  1
  O  O30  1  0.87713952  0.21178827  0.55911670  1
  O  O31  1  0.87713952  0.28821173  0.44088330  1
  O  O32  1  0.54868377  0.82313451  0.95543086  1
  O  O33  1  0.54868377  0.67686549  0.04456914  1
  O  O34  1  0.45131623  0.17686549  0.04456914  1
  O  O35  1  0.45131623  0.32313451  0.95543086  1
  O  O36  1  0.63023189  0.86834921  0.04722544  1
  O  O37  1  0.63023189  0.63165079  0.95277456  1
  O  O38  1  0.36976811  0.13165079  0.95277456  1
  O  O39  1  0.36976811  0.36834921  0.04722544  1
  O  O40  1  0.39356288  0.91654484  0.00854445  1
  O  O41  1  0.39356288  0.58345516  0.99145555  1
  O  O42  1  0.60643712  0.08345516  0.99145555  1
  O  O43  1  0.60643712  0.41654484  0.00854445  1
  O  O44  1  0.86563005  0.59747485  0.05328016  1
  O  O45  1  0.86563005  0.90252515  0.94671984  1
  O  O46  1  0.13436995  0.40252515  0.94671984  1
  O  O47  1  0.13436995  0.09747485  0.05328016  1
  O  O48  1  0.09068484  0.55415933  0.10265899  1
  O  O49  1  0.09068484  0.94584067  0.89734101  1
  O  O50  1  0.90931516  0.44584067  0.89734101  1
  O  O51  1  0.90931516  0.05415933  0.10265899  1
  O  O52  1  0.08555129  0.68150188  0.05404393  1
  O  O53  1  0.08555129  0.81849812  0.94595607  1
  O  O54  1  0.91444871  0.31849812  0.94595607  1
  O  O55  1  0.91444871  0.18150188  0.05404393  1
  O  O56  1  0.78534864  0.59968339  0.20053469  1
  O  O57  1  0.78534864  0.90031661  0.79946531  1
  O  O58  1  0.21465136  0.40031661  0.79946531  1
  O  O59  1  0.21465136  0.09968339  0.20053469  1
  O  O60  1  0.67593009  0.61702692  0.29315366  1
  O  O61  1  0.67593009  0.88297308  0.70684634  1
  O  O62  1  0.32406991  0.38297308  0.70684634  1
  O  O63  1  0.32406991  0.11702692  0.29315366  1
  O  O64  1  0.33900693  0.98799305  0.24582457  1
  O  O65  1  0.33900693  0.51200695  0.75417543  1
  O  O66  1  0.66099307  0.01200695  0.75417543  1
  O  O67  1  0.66099307  0.48799305  0.24582457  1
  O  O68  1  0.03635468  0.64070175  0.29450362  1
  O  O69  1  0.03635468  0.85929825  0.70549638  1
  O  O70  1  0.96364532  0.35929825  0.70549638  1
  O  O71  1  0.96364532  0.14070175  0.29450362  1
  O  O72  1  0.26743019  0.59685797  0.24910929  1
  O  O73  1  0.26743019  0.90314203  0.75089071  1
  O  O74  1  0.73256981  0.40314203  0.75089071  1
  O  O75  1  0.73256981  0.09685797  0.24910929  1
  O  O76  1  0.10708929  0.69553522  0.20432143  1
  O  O77  1  0.10708929  0.80446478  0.79567857  1
  O  O78  1  0.89291071  0.30446478  0.79567857  1
  O  O79  1  0.89291071  0.19553522  0.20432143  1
  O  O80  1  0.86495468  0.59315269  0.69680051  1
  O  O81  1  0.86495468  0.90684731  0.30319949  1
  O  O82  1  0.13504532  0.40684731  0.30319949  1
  O  O83  1  0.13504532  0.09315269  0.69680051  1
  O  O84  1  0.08436184  0.54370337  0.64690960  1
  O  O85  1  0.08436184  0.95629663  0.35309040  1
  O  O86  1  0.91563816  0.45629663  0.35309040  1
  O  O87  1  0.91563816  0.04370337  0.64690960  1
  O  O88  1  0.09282407  0.67108946  0.69614806  1
  O  O89  1  0.09282407  0.82891054  0.30385194  1
  O  O90  1  0.90717593  0.32891054  0.30385194  1
  O  O91  1  0.90717593  0.17108946  0.69614806  1
  O  O92  1  0.79811255  0.75338321  0.37601678  1
  O  O93  1  0.79811255  0.74661679  0.62398322  1
  O  O94  1  0.20188745  0.24661679  0.62398322  1
  O  O95  1  0.20188745  0.25338321  0.37601678  1
  O  O96  1  0.58391215  0.79449147  0.43171823  1
  O  O97  1  0.58391215  0.70550853  0.56828177  1
  O  O98  1  0.41608785  0.20550853  0.56828177  1
  O  O99  1  0.41608785  0.29449147  0.43171823  1
  O  O100  1  0.57471747  0.80101739  0.32889386  1
  O  O101  1  0.57471747  0.69898261  0.67110614  1
  O  O102  1  0.42528253  0.19898261  0.67110614  1
  O  O103  1  0.42528253  0.30101739  0.32889386  1
  O  O104  1  0.69731849  0.89118800  0.54579836  1
  O  O105  1  0.69731849  0.60881200  0.45420164  1
  O  O106  1  0.30268151  0.10881200  0.45420164  1
  O  O107  1  0.30268151  0.39118800  0.54579836  1
  O  O108  1  0.83386667  0.91439240  0.45940529  1
  O  O109  1  0.83386667  0.58560760  0.54059471  1
  O  O110  1  0.16613333  0.08560760  0.54059471  1
  O  O111  1  0.16613333  0.41439240  0.45940529  1
  O  O112  1  0.29857084  0.52416552  0.50476933  1
  O  O113  1  0.29857084  0.97583448  0.49523067  1
  O  O114  1  0.70142916  0.47583448  0.49523067  1
  O  O115  1  0.70142916  0.02416552  0.50476933  1
  O  O116  1  0.00489455  0.86248633  0.07292516  1
  O  O117  1  0.00489455  0.63751367  0.92707484  1
  O  O118  1  0.99510545  0.13751367  0.92707484  1
  O  O119  1  0.99510545  0.36248633  0.07292516  1
  O  O120  1  0.99476759  0.87027510  0.17561567  1
  O  O121  1  0.99476759  0.62972490  0.82438433  1
  O  O122  1  0.00523241  0.12972490  0.82438433  1
  O  O123  1  0.00523241  0.37027510  0.17561567  1
  O  O124  1  0.84713495  0.77183990  0.12551182  1
  O  O125  1  0.84713495  0.72816010  0.87448818  1
  O  O126  1  0.15286505  0.22816010  0.87448818  1
  O  O127  1  0.15286505  0.27183990  0.12551182  1
loop_
_geom_bond_atom_site_label_1
_geom_bond_atom_site_label_2
_geom_bond_distance
_geom_bond_site_symmetry_2
Na0 O76 2.503088 1_555
Na0 O33 2.514464 1_555
Na0 O7 2.532992 1_555
Na0 O52 2.543938 1_555
Na0 O48 2.554735 1_555
Na0 O12 2.563233 1_555
Na0 O16 2.663836 1_555
Na0 O72 2.822269 1_555
Na1 O77 2.503088 1_555
Na1 O32 2.514464 1_555
Na1 O6 2.532992 1_555
Na1 O53 2.543938 1_555
Na1 O49 2.554735 1_555
Na1 O13 2.563233 1_555
Na1 O17 2.663836 1_555
Na1 O73 2.822269 1_555
Na2 O78 2.503088 1_555
Na2 O35 2.514464 1_555
Na2 O5 2.532992 1_555
Na2 O54 2.543938 1_555
Na2 O50 2.554735 1_555
Na2 O14 2.563233 1_555
Na2 O18 2.663836 1_555
Na2 O74 2.822269 1_555
Na3 O79 2.503088 1_555
Na3 O34 2.514464 1_555
Na3 O4 2.532992 1_555
Na3 O55 2.543938 1_555
Na3 O51 2.554735 1_555
Na3 O15 2.563233 1_555
Na3 O19 2.663836 1_555
Na3 O75 2.822269 1_555
Na4 O20 2.472881 1_555
Na4 O24 2.485219 1_555
Na4 O82 2.498127 1_555
Na4 O68 2.540971 1_555
Na4 O86 2.548971 1_455
Na4 O3 2.551475 1_555
Na4 O111 2.710271 1_555
Na4 O72 2.807223 1_555
Na5 O21 2.472881 1_555
Na5 O25 2.485219 1_555
Na5 O83 2.498127 1_565
Na5 O69 2.540971 1_555
Na5 O87 2.548971 1_465
Na5 O2 2.551475 1_555
Na5 O110 2.710271 1_565
Na5 O73 2.807223 1_555
Na6 O22 2.472881 1_555
Na6 O26 2.485219 1_555
Na6 O80 2.498127 1_555
Na6 O70 2.540971 1_555
Na6 O84 2.548971 1_655
Na6 O1 2.551475 1_555
Na6 O109 2.710271 1_555
Na6 O74 2.807223 1_555
Na7 O23 2.472881 1_555
Na7 O27 2.485219 1_555
Na7 O81 2.498127 1_545
Na7 O71 2.540971 1_555
Na7 O85 2.548971 1_645
Na7 O0 2.551475 1_555
Na7 O108 2.710271 1_545
Na7 O75 2.807223 1_555
Na8 O85 2.404028 1_555
Na8 O28 2.407914 1_555
Na8 O0 2.434001 1_565
Na8 O96 2.613069 1_555
Na8 O113 2.633628 1_555
Na8 O100 2.713963 1_555
Na8 O89 2.781085 1_555
Na8 O24 2.914263 1_555
Na9 O84 2.404028 1_555
Na9 O29 2.407914 1_555
Na9 O1 2.434001 1_555
Na9 O97 2.613069 1_555
Na9 O112 2.633628 1_555
Na9 O101 2.713963 1_555
Na9 O88 2.781085 1_555
Na9 O25 2.914263 1_555
Na10 O87 2.404028 1_555
Na10 O30 2.407914 1_555
Na10 O2 2.434001 1_545
Na10 O98 2.613069 1_555
Na10 O115 2.633628 1_555
Na10 O102 2.713963 1_555
Na10 O91 2.781085 1_555
Na10 O26 2.914263 1_555
Na11 O86 2.404028 1_555
Na11 O31 2.407914 1_555
Na11 O3 2.434001 1_555
Na11 O99 2.613069 1_555
Na11 O114 2.633628 1_555
Na11 O103 2.713963 1_555
Na11 O90 2.781085 1_555
Na11 O27 2.914263 1_555
Na12 O4 2.435157 1_565
Na12 O16 2.498000 1_555
Na12 O47 2.573187 1_565
Na12 O116 2.618215 1_555
Na12 O59 2.678731 1_565
Na12 O120 2.710082 1_455
Na12 O40 2.789641 1_555
Na12 O64 2.865628 1_555
Na12 O51 2.962901 1_465
Na13 O5 2.435157 1_555
Na13 O17 2.498000 1_555
Na13 O46 2.573187 1_555
Na13 O117 2.618215 1_555
Na13 O58 2.678731 1_555
Na13 O121 2.710082 1_455
Na13 O41 2.789641 1_555
Na13 O65 2.865628 1_555
Na13 O50 2.962901 1_455
Na14 O6 2.435157 1_545
Na14 O18 2.498000 1_555
Na14 O45 2.573187 1_545
Na14 O118 2.618215 1_555
Na14 O57 2.678731 1_545
Na14 O122 2.710082 1_655
Na14 O42 2.789641 1_555
Na14 O66 2.865628 1_555
Na14 O49 2.962901 1_645
Na15 O7 2.435157 1_555
Na15 O19 2.498000 1_555
Na15 O44 2.573187 1_555
Na15 O119 2.618215 1_555
Na15 O56 2.678731 1_555
Na15 O123 2.710082 1_655
Na15 O43 2.789641 1_555
Na15 O67 2.865628 1_555
Na15 O48 2.962901 1_655
Nd0 O37 2.581958 1_554
Nd0 O36 2.581958 1_555
Nd0 O44 2.610202 1_555
Nd0 O45 2.610202 1_554
Nd0 O52 2.629299 1_655
Nd0 O53 2.629299 1_654
Nd0 O32 2.656854 1_554
Nd0 O33 2.656854 1_555
Nd0 O124 2.712837 1_555
Nd0 O125 2.712837 1_554
Nd0 O116 2.736516 1_655
Nd0 O117 2.736516 1_654
Nd1 O39 2.581958 1_555
Nd1 O38 2.581958 1_554
Nd1 O47 2.610202 1_555
Nd1 O46 2.610202 1_554
Nd1 O54 2.629299 1_454
Nd1 O55 2.629299 1_455
Nd1 O35 2.656854 1_554
Nd1 O34 2.656854 1_555
Nd1 O127 2.712837 1_555
Nd1 O126 2.712837 1_554
Nd1 O119 2.736516 1_455
Nd1 O118 2.736516 1_454
Nd2 O21 2.580048 1_655
Nd2 O20 2.580048 1_655
Nd2 O28 2.598682 1_655
Nd2 O29 2.598682 1_655
Nd2 O108 2.652251 1_555
Nd2 O109 2.652251 1_555
Nd2 O105 2.662389 1_555
Nd2 O104 2.662389 1_555
Nd2 O93 2.688962 1_555
Nd2 O92 2.688962 1_555
Nd2 O97 2.692196 1_555
Nd2 O96 2.692196 1_555
Nd3 O22 2.580048 1_455
Nd3 O23 2.580048 1_455
Nd3 O30 2.598682 1_455
Nd3 O31 2.598682 1_455
Nd3 O111 2.652251 1_555
Nd3 O110 2.652251 1_555
Nd3 O106 2.662389 1_555
Nd3 O107 2.662389 1_555
Nd3 O94 2.688962 1_555
Nd3 O95 2.688962 1_555
Nd3 O98 2.692196 1_555
Nd3 O99 2.692196 1_555
Nd4 O12 2.557550 1_555
Nd4 O76 2.589227 1_655
Nd4 O56 2.590283 1_555
Nd4 O68 2.590948 1_655
Nd4 O81 2.603782 1_555
Nd4 O60 2.608724 1_555
Nd4 O124 2.662120 1_555
Nd4 O89 2.673883 1_655
Nd4 O120 2.714097 1_555
Nd4 O92 2.730712 1_555
Nd4 O100 2.767776 1_555
Nd4 O8 2.776500 1_555
Nd5 O13 2.557550 1_555
Nd5 O77 2.589227 1_655
Nd5 O57 2.590283 1_555
Nd5 O69 2.590948 1_655
Nd5 O80 2.603782 1_555
Nd5 O61 2.608724 1_555
Nd5 O125 2.662120 1_555
Nd5 O88 2.673883 1_655
Nd5 O121 2.714097 1_555
Nd5 O93 2.730712 1_555
Nd5 O101 2.767776 1_555
Nd5 O9 2.776500 1_555
Nd6 O14 2.557550 1_555
Nd6 O78 2.589227 1_455
Nd6 O58 2.590283 1_555
Nd6 O70 2.590948 1_455
Nd6 O83 2.603782 1_555
Nd6 O62 2.608724 1_555
Nd6 O126 2.662120 1_555
Nd6 O91 2.673883 1_455
Nd6 O122 2.714097 1_555
Nd6 O94 2.730712 1_555
Nd6 O102 2.767776 1_555
Nd6 O10 2.776500 1_555
Nd7 O15 2.557550 1_555
Nd7 O79 2.589227 1_455
Nd7 O59 2.590283 1_555
Nd7 O71 2.590948 1_455
Nd7 O82 2.603782 1_555
Nd7 O63 2.608724 1_555
Nd7 O127 2.662120 1_555
Nd7 O90 2.673883 1_455
Nd7 O123 2.714097 1_555
Nd7 O95 2.730712 1_555
Nd7 O103 2.767776 1_555
Nd7 O11 2.776500 1_555
N0 O16 1.242122 1_555
N0 O8 1.271337 1_555
N0 O12 1.291434 1_555
N1 O17 1.242122 1_555
N1 O9 1.271337 1_555
N1 O13 1.291434 1_555
N2 O18 1.242122 1_555
N2 O10 1.271337 1_555
N2 O14 1.291434 1_555
N3 O19 1.242122 1_555
N3 O11 1.271337 1_555
N3 O15 1.291434 1_555
N4 O24 1.238440 1_555
N4 O20 1.277818 1_555
N4 O28 1.287680 1_555
N5 O25 1.238440 1_555
N5 O21 1.277818 1_555
N5 O29 1.287680 1_555
N6 O26 1.238440 1_555
N6 O22 1.277818 1_555
N6 O30 1.287680 1_555
N7 O27 1.238440 1_555
N7 O23 1.277818 1_555
N7 O31 1.287680 1_555
N8 O40 1.235616 1_555
N8 O36 1.278134 1_555
N8 O32 1.294565 1_554
N9 O41 1.235616 1_555
N9 O37 1.278134 1_555
N9 O33 1.294565 1_556
N10 O42 1.235616 1_555
N10 O38 1.278134 1_555
N10 O34 1.294565 1_556
N11 O43 1.235616 1_555
N11 O39 1.278134 1_555
N11 O35 1.294565 1_554
N12 O48 1.238418 1_555
N12 O44 1.283876 1_455
N12 O52 1.283981 1_555
N13 O49 1.238418 1_555
N13 O45 1.283876 1_455
N13 O53 1.283981 1_555
N14 O50 1.238418 1_555
N14 O46 1.283876 1_655
N14 O54 1.283981 1_555
N15 O51 1.238418 1_555
N15 O47 1.283876 1_655
N15 O55 1.283981 1_555
N16 O67 1.236793 1_555
N16 O60 1.277546 1_555
N16 O56 1.293346 1_555
N17 O66 1.236793 1_565
N17 O61 1.277546 1_555
N17 O57 1.293346 1_555
N18 O65 1.236793 1_555
N18 O62 1.277546 1_555
N18 O58 1.293346 1_555
N19 O64 1.236793 1_545
N19 O63 1.277546 1_555
N19 O59 1.293346 1_555
N20 O72 1.234808 1_555
N20 O76 1.284882 1_555
N20 O68 1.285971 1_555
N21 O73 1.234808 1_555
N21 O77 1.284882 1_555
N21 O69 1.285971 1_555
N22 O74 1.234808 1_555
N22 O78 1.284882 1_555
N22 O70 1.285971 1_555
N23 O75 1.234808 1_555
N23 O79 1.284882 1_555
N23 O71 1.285971 1_555
N24 O84 1.248193 1_555
N24 O88 1.270248 1_555
N24 O80 1.285388 1_455
N25 O85 1.248193 1_555
N25 O89 1.270248 1_555
N25 O81 1.285388 1_455
N26 O86 1.248193 1_555
N26 O90 1.270248 1_555
N26 O82 1.285388 1_655
N27 O87 1.248193 1_555
N27 O91 1.270248 1_555
N27 O83 1.285388 1_655
N28 O100 1.255447 1_555
N28 O96 1.263435 1_555
N28 O92 1.283134 1_555
N29 O101 1.255447 1_555
N29 O97 1.263435 1_555
N29 O93 1.283134 1_555
N30 O102 1.255447 1_555
N30 O98 1.263435 1_555
N30 O94 1.283134 1_555
N31 O103 1.255447 1_555
N31 O99 1.263435 1_555
N31 O95 1.283134 1_555
N32 O115 1.244356 1_565
N32 O104 1.272649 1_555
N32 O108 1.290704 1_555
N33 O114 1.244356 1_555
N33 O105 1.272649 1_555
N33 O109 1.290704 1_555
N34 O113 1.244356 1_545
N34 O106 1.272649 1_555
N34 O110 1.290704 1_555
N35 O112 1.244356 1_555
N35 O107 1.272649 1_555
N35 O111 1.290704 1_555
N36 O116 1.255246 1_655
N36 O120 1.256916 1_555
N36 O124 1.288934 1_555
N37 O117 1.255246 1_655
N37 O121 1.256916 1_555
N37 O125 1.288934 1_555
N38 O118 1.255246 1_455
N38 O122 1.256916 1_555
N38 O126 1.288934 1_555
N39 O119 1.255246 1_455
N39 O123 1.256916 1_555
N39 O127 1.288934 1_555
