# generated using pymatgen
data_Zn3SbN3
_symmetry_space_group_name_H-M   'P 1'
_cell_length_a   6.78777909
_cell_length_b   6.56649623
_cell_length_c   5.57659167
_cell_angle_alpha   90.00000000
_cell_angle_beta   125.21343947
_cell_angle_gamma   90.00000000
_symmetry_Int_Tables_number   1
_chemical_formula_structural   Zn3SbN3
_chemical_formula_sum   'Zn6 Sb2 N6'
_cell_volume   203.07545718
_cell_formula_units_Z   2
loop_
 _symmetry_equiv_pos_site_id
 _symmetry_equiv_pos_as_xyz
  1  'x, y, z'
loop_
 _atom_site_type_symbol
 _atom_site_label
 _atom_site_symmetry_multiplicity
 _atom_site_fract_x
 _atom_site_fract_y
 _atom_site_fract_z
 _atom_site_occupancy
  Zn  Zn0  1  0.64265811  0.00000000  0.11808447  1
  Zn  Zn1  1  0.14265811  0.50000000  0.11808447  1
  Zn  Zn2  1  0.03543722  0.27942319  0.51982585  1
  Zn  Zn3  1  0.03543722  0.72057681  0.51982585  1
  Zn  Zn4  1  0.53543722  0.77942319  0.51982585  1
  Zn  Zn5  1  0.53543722  0.22057681  0.51982585  1
  Sb  Sb0  1  0.06050886  0.00000000  0.00241463  1
  Sb  Sb1  1  0.56050886  0.50000000  0.00241463  1
  N  N0  1  0.67654830  0.26551304  0.29988336  1
  N  N1  1  0.67654830  0.73448696  0.29988336  1
  N  N2  1  0.17654830  0.76551304  0.29988336  1
  N  N3  1  0.17654830  0.23448696  0.29988336  1
  N  N4  1  0.69872200  0.00000000  0.81219049  1
  N  N5  1  0.19872200  0.50000000  0.81219049  1
loop_
_geom_bond_atom_site_label_1
_geom_bond_atom_site_label_2
_geom_bond_distance
_geom_bond_site_symmetry_2
N0 Zn0 1.962536 1_555
N0 Zn5 1.965637 1_555
N0 Zn2 2.000328 1_655
N0 Sb1 2.058211 1_555
N1 Zn0 1.962536 1_565
N1 Zn4 1.965637 1_555
N1 Zn3 2.000328 1_655
N1 Sb1 2.058211 1_555
N2 Zn1 1.962536 1_555
N2 Zn3 1.965637 1_555
N2 Zn4 2.000328 1_555
N2 Sb0 2.058211 1_565
N3 Zn1 1.962536 1_555
N3 Zn2 1.965637 1_555
N3 Zn5 2.000328 1_555
N3 Sb0 2.058211 1_555
N4 Zn0 1.950223 1_556
N4 Zn4 1.974985 1_545
N4 Zn5 1.974985 1_555
N4 Sb0 2.037559 1_656
N5 Zn1 1.950223 1_556
N5 Zn2 1.974985 1_555
N5 Zn3 1.974985 1_555
N5 Sb1 2.037559 1_556
