# generated using pymatgen
data_Na5AlO4
_symmetry_space_group_name_H-M   'P 1'
_cell_length_a   5.86085451
_cell_length_b   10.05327947
_cell_length_c   17.75811229
_cell_angle_alpha   90.00000000
_cell_angle_beta   90.00000000
_cell_angle_gamma   90.00000000
_symmetry_Int_Tables_number   1
_chemical_formula_structural   Na5AlO4
_chemical_formula_sum   'Na40 Al8 O32'
_cell_volume   1046.32233040
_cell_formula_units_Z   8
loop_
 _symmetry_equiv_pos_site_id
 _symmetry_equiv_pos_as_xyz
  1  'x, y, z'
loop_
 _atom_site_type_symbol
 _atom_site_label
 _atom_site_symmetry_multiplicity
 _atom_site_fract_x
 _atom_site_fract_y
 _atom_site_fract_z
 _atom_site_occupancy
  Na  Na0  1  0.10685812  0.32749785  0.17280485  1
  Na  Na1  1  0.60685812  0.67250215  0.32719515  1
  Na  Na2  1  0.39314188  0.82749785  0.82719515  1
  Na  Na3  1  0.89314188  0.17250215  0.67280485  1
  Na  Na4  1  0.89314188  0.67250215  0.82719515  1
  Na  Na5  1  0.39314188  0.32749785  0.67280485  1
  Na  Na6  1  0.60685812  0.17250215  0.17280485  1
  Na  Na7  1  0.10685812  0.82749785  0.32719515  1
  Na  Na8  1  0.10527686  0.58418139  0.25000813  1
  Na  Na9  1  0.60527686  0.41581861  0.24999187  1
  Na  Na10  1  0.39472314  0.08418139  0.74999187  1
  Na  Na11  1  0.89472314  0.91581861  0.75000813  1
  Na  Na12  1  0.89472314  0.41581861  0.74999187  1
  Na  Na13  1  0.39472314  0.58418139  0.75000813  1
  Na  Na14  1  0.60527686  0.91581861  0.25000813  1
  Na  Na15  1  0.10527686  0.08418139  0.24999187  1
  Na  Na16  1  0.08450122  0.16200559  0.49863152  1
  Na  Na17  1  0.58450122  0.83799441  0.00136848  1
  Na  Na18  1  0.41549878  0.66200559  0.50136848  1
  Na  Na19  1  0.91549878  0.33799441  0.99863152  1
  Na  Na20  1  0.91549878  0.83799441  0.50136848  1
  Na  Na21  1  0.41549878  0.16200559  0.99863152  1
  Na  Na22  1  0.58450122  0.33799441  0.49863152  1
  Na  Na23  1  0.08450122  0.66200559  0.00136848  1
  Na  Na24  1  0.91732040  0.30105307  0.36181687  1
  Na  Na25  1  0.41320375  0.44055185  0.06459954  1
  Na  Na26  1  0.58679625  0.05944815  0.56459954  1
  Na  Na27  1  0.08679625  0.94055185  0.93540046  1
  Na  Na28  1  0.08679625  0.44055185  0.56459954  1
  Na  Na29  1  0.58679625  0.55944815  0.93540046  1
  Na  Na30  1  0.41320375  0.94055185  0.43540046  1
  Na  Na31  1  0.91320375  0.05944815  0.06459954  1
  Na  Na32  1  0.91732040  0.80105307  0.13818313  1
  Na  Na33  1  0.41732040  0.19894693  0.36181687  1
  Na  Na34  1  0.58267960  0.30105307  0.86181687  1
  Na  Na35  1  0.08267960  0.69894693  0.63818313  1
  Na  Na36  1  0.08267960  0.19894693  0.86181687  1
  Na  Na37  1  0.58267960  0.80105307  0.63818313  1
  Na  Na38  1  0.41732040  0.69894693  0.13818313  1
  Na  Na39  1  0.91320375  0.55944815  0.43540046  1
  Al  Al0  1  0.32225788  0.46057108  0.37570672  1
  Al  Al1  1  0.82225788  0.53942892  0.12429328  1
  Al  Al2  1  0.17774212  0.96057108  0.62429328  1
  Al  Al3  1  0.67774212  0.03942892  0.87570672  1
  Al  Al4  1  0.67774212  0.53942892  0.62429328  1
  Al  Al5  1  0.17774212  0.46057108  0.87570672  1
  Al  Al6  1  0.82225788  0.03942892  0.37570672  1
  Al  Al7  1  0.32225788  0.96057108  0.12429328  1
  O  O0  1  0.62310016  0.45262817  0.38027578  1
  O  O1  1  0.12310016  0.54737183  0.11972422  1
  O  O2  1  0.87689984  0.95262817  0.61972422  1
  O  O3  1  0.37689984  0.04737183  0.88027578  1
  O  O4  1  0.37689984  0.54737183  0.61972422  1
  O  O5  1  0.87689984  0.45262817  0.88027578  1
  O  O6  1  0.12310016  0.04737183  0.38027578  1
  O  O7  1  0.62310016  0.95262817  0.11972422  1
  O  O8  1  0.23385729  0.37738115  0.29123213  1
  O  O9  1  0.73385729  0.62261885  0.20876787  1
  O  O10  1  0.26614271  0.87738115  0.70876787  1
  O  O11  1  0.23686638  0.13089863  0.12625558  1
  O  O12  1  0.76614271  0.62261885  0.70876787  1
  O  O13  1  0.26614271  0.37738115  0.79123213  1
  O  O14  1  0.73385729  0.12261885  0.29123213  1
  O  O15  1  0.23385729  0.87738115  0.20876787  1
  O  O16  1  0.19669436  0.37304800  0.45160884  1
  O  O17  1  0.69669436  0.62695200  0.04839116  1
  O  O18  1  0.30330564  0.87304800  0.54839116  1
  O  O19  1  0.80330564  0.12695200  0.95160884  1
  O  O20  1  0.80330564  0.62695200  0.54839116  1
  O  O21  1  0.30330564  0.37304800  0.95160884  1
  O  O22  1  0.69669436  0.12695200  0.45160884  1
  O  O23  1  0.19669436  0.87304800  0.04839116  1
  O  O24  1  0.23686638  0.63089863  0.37374442  1
  O  O25  1  0.73686638  0.36910137  0.12625558  1
  O  O26  1  0.26313362  0.13089863  0.62625558  1
  O  O27  1  0.76313362  0.86910137  0.87374442  1
  O  O28  1  0.76313362  0.36910137  0.62625558  1
  O  O29  1  0.26313362  0.63089863  0.87374442  1
  O  O30  1  0.73686638  0.86910137  0.37374442  1
  O  O31  1  0.76614271  0.12261885  0.79123213  1
loop_
_geom_bond_atom_site_label_1
_geom_bond_atom_site_label_2
_geom_bond_distance
_geom_bond_site_symmetry_2
Na0 O11 2.273833 1_555
Na0 O8 2.286550 1_555
Na0 O25 2.358071 1_455
Na0 O1 2.404930 1_555
Na1 O30 2.273833 1_555
Na1 O9 2.286550 1_555
Na1 O24 2.358071 1_555
Na1 O0 2.404930 1_555
Na2 O29 2.273833 1_555
Na2 O10 2.286550 1_555
Na2 O27 2.358071 1_555
Na2 O3 2.404930 1_565
Na3 O28 2.273833 1_555
Na3 O31 2.286550 1_555
Na3 O26 2.358071 1_655
Na3 O2 2.404930 1_545
Na4 O27 2.273833 1_555
Na4 O12 2.286550 1_555
Na4 O29 2.358071 1_655
Na4 O5 2.404930 1_555
Na5 O26 2.273833 1_555
Na5 O13 2.286550 1_555
Na5 O28 2.358071 1_555
Na5 O4 2.404930 1_555
Na6 O25 2.273833 1_555
Na6 O14 2.286550 1_555
Na6 O11 2.358071 1_555
Na6 O7 2.404930 1_545
Na7 O24 2.273833 1_555
Na7 O15 2.286550 1_555
Na7 O30 2.358071 1_455
Na7 O6 2.404930 1_565
Na8 O9 2.329007 1_455
Na8 O8 2.329407 1_555
Na8 O1 2.345332 1_555
Na8 O24 2.375626 1_555
Na9 O8 2.329007 1_555
Na9 O9 2.329407 1_555
Na9 O0 2.345332 1_555
Na9 O25 2.375626 1_555
Na10 O31 2.329007 1_555
Na10 O10 2.329407 1_545
Na10 O3 2.345332 1_555
Na10 O26 2.375626 1_555
Na11 O10 2.329007 1_655
Na11 O31 2.329407 1_565
Na11 O2 2.345332 1_555
Na11 O27 2.375626 1_555
Na12 O13 2.329007 1_655
Na12 O12 2.329407 1_555
Na12 O5 2.345332 1_555
Na12 O28 2.375626 1_555
Na13 O12 2.329007 1_555
Na13 O13 2.329407 1_555
Na13 O4 2.345332 1_555
Na13 O29 2.375626 1_555
Na14 O15 2.329007 1_555
Na14 O14 2.329407 1_565
Na14 O7 2.345332 1_555
Na14 O30 2.375626 1_555
Na15 O14 2.329007 1_455
Na15 O15 2.329407 1_545
Na15 O6 2.345332 1_555
Na15 O11 2.375626 1_555
Na16 O16 2.373000 1_555
Na16 O6 2.407647 1_555
Na16 O22 2.446927 1_455
Na16 O26 2.516004 1_555
Na17 O17 2.373000 1_555
Na17 O7 2.407647 1_555
Na17 O23 2.446927 1_555
Na17 O27 2.516004 1_554
Na18 O18 2.373000 1_555
Na18 O4 2.407647 1_555
Na18 O20 2.446927 1_555
Na18 O24 2.516004 1_555
Na19 O19 2.373000 1_555
Na19 O5 2.407647 1_555
Na19 O21 2.446927 1_655
Na19 O25 2.516004 1_556
Na20 O20 2.373000 1_555
Na20 O2 2.407647 1_555
Na20 O18 2.446927 1_655
Na20 O30 2.516004 1_555
Na21 O21 2.373000 1_555
Na21 O3 2.407647 1_555
Na21 O19 2.446927 1_555
Na21 O11 2.516004 1_556
Na22 O22 2.373000 1_555
Na22 O0 2.407647 1_555
Na22 O16 2.446927 1_555
Na22 O28 2.516004 1_555
Na23 O23 2.373000 1_555
Na23 O1 2.407647 1_555
Na23 O17 2.446927 1_455
Na23 O29 2.516004 1_554
Na24 O0 2.324434 1_555
Na24 O8 2.366779 1_655
Na24 O16 2.397372 1_655
Na24 O14 2.438278 1_555
Na24 O22 2.697785 1_555
Na25 O21 2.213923 1_554
Na25 O1 2.236599 1_555
Na25 O25 2.305026 1_555
Na25 O17 2.520921 1_555
Na26 O22 2.213923 1_555
Na26 O2 2.236599 1_545
Na26 O26 2.305026 1_555
Na26 O18 2.520921 1_545
Na27 O23 2.213923 1_556
Na27 O3 2.236599 1_565
Na27 O27 2.305026 1_455
Na27 O19 2.520921 1_465
Na28 O16 2.213923 1_555
Na28 O4 2.236599 1_555
Na28 O28 2.305026 1_455
Na28 O20 2.520921 1_455
Na29 O17 2.213923 1_556
Na29 O5 2.236599 1_555
Na29 O29 2.305026 1_555
Na29 O21 2.520921 1_555
Na30 O18 2.213923 1_555
Na30 O6 2.236599 1_565
Na30 O30 2.305026 1_555
Na30 O22 2.520921 1_565
Na31 O19 2.213923 1_554
Na31 O7 2.236599 1_545
Na31 O11 2.305026 1_655
Na31 O23 2.520921 1_645
Na32 O7 2.324434 1_555
Na32 O15 2.366779 1_655
Na32 O23 2.397372 1_655
Na32 O9 2.438278 1_555
Na32 O17 2.697785 1_555
Na33 O6 2.324434 1_555
Na33 O14 2.366779 1_555
Na33 O22 2.397372 1_555
Na33 O8 2.438278 1_555
Na33 O16 2.697785 1_555
Na34 O5 2.324434 1_555
Na34 O13 2.366779 1_555
Na34 O21 2.397372 1_555
Na34 O31 2.438278 1_555
Na34 O19 2.697785 1_555
Na35 O4 2.324434 1_555
Na35 O12 2.366779 1_455
Na35 O20 2.397372 1_455
Na35 O10 2.438278 1_555
Na35 O18 2.697785 1_555
Na36 O3 2.324434 1_555
Na36 O31 2.366779 1_455
Na36 O19 2.397372 1_455
Na36 O13 2.438278 1_555
Na36 O21 2.697785 1_555
Na37 O2 2.324434 1_555
Na37 O10 2.366779 1_555
Na37 O18 2.397372 1_555
Na37 O12 2.438278 1_555
Na37 O20 2.697785 1_555
Na38 O1 2.324434 1_555
Na38 O9 2.366779 1_555
Na38 O17 2.397372 1_555
Na38 O15 2.438278 1_555
Na38 O23 2.697785 1_555
Na39 O20 2.213923 1_555
Na39 O0 2.236599 1_555
Na39 O24 2.305026 1_655
Na39 O16 2.520921 1_655
Al0 O0 1.766864 1_555
Al0 O16 1.769902 1_555
Al0 O24 1.784328 1_555
Al0 O8 1.793937 1_555
Al1 O1 1.766864 1_655
Al1 O17 1.769902 1_555
Al1 O25 1.784328 1_555
Al1 O9 1.793937 1_555
Al2 O2 1.766864 1_455
Al2 O18 1.769902 1_555
Al2 O26 1.784328 1_565
Al2 O10 1.793937 1_555
Al3 O3 1.766864 1_555
Al3 O19 1.769902 1_555
Al3 O27 1.784328 1_545
Al3 O31 1.793937 1_555
Al4 O4 1.766864 1_555
Al4 O20 1.769902 1_555
Al4 O28 1.784328 1_555
Al4 O12 1.793937 1_555
Al5 O5 1.766864 1_455
Al5 O21 1.769902 1_555
Al5 O29 1.784328 1_555
Al5 O13 1.793937 1_555
Al6 O6 1.766864 1_655
Al6 O22 1.769902 1_555
Al6 O30 1.784328 1_545
Al6 O14 1.793937 1_555
Al7 O7 1.766864 1_555
Al7 O23 1.769902 1_555
Al7 O11 1.784328 1_565
Al7 O15 1.793937 1_555
