# generated using pymatgen
data_CeGa3Ni
_symmetry_space_group_name_H-M   'P 1'
_cell_length_a   5.95269922
_cell_length_b   5.95269922
_cell_length_c   5.95269922
_cell_angle_alpha   138.95184744
_cell_angle_beta   138.95184744
_cell_angle_gamma   59.44828259
_symmetry_Int_Tables_number   1
_chemical_formula_structural   CeGa3Ni
_chemical_formula_sum   'Ce1 Ga3 Ni1'
_cell_volume   90.06564028
_cell_formula_units_Z   1
loop_
 _symmetry_equiv_pos_site_id
 _symmetry_equiv_pos_as_xyz
  1  'x, y, z'
loop_
 _atom_site_type_symbol
 _atom_site_label
 _atom_site_symmetry_multiplicity
 _atom_site_fract_x
 _atom_site_fract_y
 _atom_site_fract_z
 _atom_site_occupancy
  Ce  Ce0  1  0.00000000  0.00000000  0.00000000  1
  Ga  Ga0  1  0.61952400  0.61952400  0.00000000  1
  Ga  Ga1  1  0.38047600  0.38047600  0.00000000  1
  Ga  Ga2  1  0.75000000  0.25000000  0.50000000  1
  Ni  Ni0  1  0.25000000  0.75000000  0.50000000  1
loop_
_geom_bond_atom_site_label_1
_geom_bond_atom_site_label_2
_geom_bond_distance
_geom_bond_site_symmetry_2
Ce0 Ga0 3.199749 1_556
Ce0 Ga1 3.199749 1_444
Ce0 Ga1 3.199749 1_545
Ce0 Ga0 3.199749 1_455
Ce0 Ga0 3.199749 1_545
Ce0 Ga1 3.199749 1_455
Ce0 Ga0 3.199749 1_444
Ce0 Ga1 3.199749 1_556
Ce0 Ga2 3.322121 1_454
Ce0 Ga2 3.322121 1_444
Ce0 Ni0 3.322121 1_544
Ce0 Ni0 3.322121 1_444
Ce0 Ga2 3.322121 1_455
Ce0 Ga2 3.322121 1_555
Ce0 Ni0 3.322121 1_545
Ce0 Ni0 3.322121 1_555
Ga0 Ga1 2.471498 1_555
Ga0 Ni0 2.485037 1_554
Ga0 Ga2 2.485037 1_565
Ga0 Ga2 2.485037 1_554
Ga0 Ni0 2.485037 1_655
Ga1 Ga2 2.485037 1_454
Ga1 Ni0 2.485037 1_544
Ga1 Ni0 2.485037 1_555
Ga1 Ga2 2.485037 1_555
