# generated using pymatgen
data_V2ZnO4
_symmetry_space_group_name_H-M   'P 1'
_cell_length_a   7.19418994
_cell_length_b   7.19418994
_cell_length_c   9.44682775
_cell_angle_alpha   51.22611621
_cell_angle_beta   51.22611621
_cell_angle_gamma   22.79390685
_symmetry_Int_Tables_number   1
_chemical_formula_structural   V2ZnO4
_chemical_formula_sum   'V4 Zn2 O8'
_cell_volume   145.72854214
_cell_formula_units_Z   2
loop_
 _symmetry_equiv_pos_site_id
 _symmetry_equiv_pos_as_xyz
  1  'x, y, z'
loop_
 _atom_site_type_symbol
 _atom_site_label
 _atom_site_symmetry_multiplicity
 _atom_site_fract_x
 _atom_site_fract_y
 _atom_site_fract_z
 _atom_site_occupancy
  V  V0  1  0.36106220  0.36106220  0.96366792  1
  V  V1  1  0.84832739  0.84832739  0.31348889  1
  V  V2  1  0.15167261  0.15167261  0.68651111  1
  V  V3  1  0.63893780  0.63893780  0.03633208  1
  Zn  Zn0  1  0.61073503  0.61073503  0.38337101  1
  Zn  Zn1  1  0.38926497  0.38926497  0.61662899  1
  O  O0  1  0.13941543  0.13941543  0.89978009  1
  O  O1  1  0.53536762  0.53536762  0.77074289  1
  O  O2  1  0.46463238  0.46463238  0.22925711  1
  O  O3  1  0.86058457  0.86058457  0.10021991  1
  O  O4  1  0.82978815  0.82978815  0.84567025  1
  O  O5  1  0.21223172  0.21223172  0.42562138  1
  O  O6  1  0.17021185  0.17021185  0.15432975  1
  O  O7  1  0.78776828  0.78776828  0.57437862  1
loop_
_geom_bond_atom_site_label_1
_geom_bond_atom_site_label_2
_geom_bond_distance
_geom_bond_site_symmetry_2
O0 V2 1.908909 1_555
O0 V3 1.916761 1_456
O0 V3 1.916761 1_546
O1 V0 1.908128 1_555
O1 V2 1.917650 1_565
O1 V2 1.917650 1_655
O2 V3 1.908128 1_555
O2 V1 1.917650 1_455
O2 V1 1.917650 1_545
O3 V1 1.908909 1_555
O3 V0 1.916761 1_564
O3 V0 1.916761 1_654
O4 V0 2.021476 1_565
O4 V0 2.021476 1_655
O4 V3 2.072559 1_556
O4 Zn1 2.255481 1_565
O4 Zn1 2.255481 1_655
O5 V2 2.028303 1_555
O5 V1 2.056652 1_545
O5 V1 2.056652 1_455
O5 Zn0 2.227049 1_455
O5 Zn0 2.227049 1_545
O6 V3 2.021476 1_455
O6 V3 2.021476 1_545
O6 V0 2.072559 1_554
O6 Zn0 2.255481 1_455
O6 Zn0 2.255481 1_545
O7 V1 2.028303 1_555
O7 V2 2.056652 1_565
O7 V2 2.056652 1_655
O7 Zn1 2.227049 1_655
O7 Zn1 2.227049 1_565
