# generated using pymatgen
data_Tm(Co2Ge)2
_symmetry_space_group_name_H-M   'P 1'
_cell_length_a   7.22464500
_cell_length_b   7.22464500
_cell_length_c   3.70580500
_cell_angle_alpha   90.00000000
_cell_angle_beta   90.00000000
_cell_angle_gamma   90.00000000
_symmetry_Int_Tables_number   1
_chemical_formula_structural   Tm(Co2Ge)2
_chemical_formula_sum   'Tm2 Co8 Ge4'
_cell_volume   193.42632774
_cell_formula_units_Z   2
loop_
 _symmetry_equiv_pos_site_id
 _symmetry_equiv_pos_as_xyz
  1  'x, y, z'
loop_
 _atom_site_type_symbol
 _atom_site_label
 _atom_site_symmetry_multiplicity
 _atom_site_fract_x
 _atom_site_fract_y
 _atom_site_fract_z
 _atom_site_occupancy
  Tm  Tm0  1  0.00000000  0.00000000  0.00000000  1
  Tm  Tm1  1  0.50000000  0.50000000  0.50000000  1
  Co  Co0  1  0.58212600  0.14634000  0.00000000  1
  Co  Co1  1  0.41787400  0.85366000  0.00000000  1
  Co  Co2  1  0.64634000  0.91787400  0.50000000  1
  Co  Co3  1  0.08212600  0.35366000  0.50000000  1
  Co  Co4  1  0.35366000  0.08212600  0.50000000  1
  Co  Co5  1  0.91787400  0.64634000  0.50000000  1
  Co  Co6  1  0.14634000  0.58212600  0.00000000  1
  Co  Co7  1  0.85366000  0.41787400  0.00000000  1
  Ge  Ge0  1  0.27824000  0.27824000  0.00000000  1
  Ge  Ge1  1  0.72176000  0.72176000  0.00000000  1
  Ge  Ge2  1  0.77824000  0.22176000  0.50000000  1
  Ge  Ge3  1  0.22176000  0.77824000  0.50000000  1
loop_
_geom_bond_atom_site_label_1
_geom_bond_atom_site_label_2
_geom_bond_distance
_geom_bond_site_symmetry_2
Co0 Ge0 2.393357 1_555
Co0 Ge2 2.395333 1_554
Co0 Ge2 2.395333 1_555
Co1 Ge1 2.393357 1_555
Co1 Ge3 2.395333 1_555
Co1 Ge3 2.395333 1_554
Co2 Ge2 2.393357 1_565
Co2 Ge1 2.395333 1_556
Co2 Ge1 2.395333 1_555
Co3 Ge2 2.393357 1_455
Co3 Ge0 2.395333 1_555
Co3 Ge0 2.395333 1_556
Co4 Ge3 2.393357 1_545
Co4 Ge0 2.395333 1_555
Co4 Ge0 2.395333 1_556
Co5 Ge3 2.393357 1_655
Co5 Ge1 2.395333 1_555
Co5 Ge1 2.395333 1_556
Co6 Ge0 2.393357 1_555
Co6 Ge3 2.395333 1_555
Co6 Ge3 2.395333 1_554
Co7 Ge1 2.393357 1_555
Co7 Ge2 2.395333 1_554
Co7 Ge2 2.395333 1_555
Ge0 Tm0 2.842831 1_555
Ge0 Tm1 2.926933 1_554
Ge0 Tm1 2.926933 1_555
Ge1 Tm0 2.842831 1_665
Ge1 Tm1 2.926933 1_554
Ge1 Tm1 2.926933 1_555
Ge2 Tm1 2.842831 1_555
Ge2 Tm0 2.926933 1_655
Ge2 Tm0 2.926933 1_656
Ge3 Tm1 2.842831 1_555
Ge3 Tm0 2.926933 1_565
Ge3 Tm0 2.926933 1_566
