# generated using pymatgen
data_CaV(GeO3)2
_symmetry_space_group_name_H-M   'P 1'
_cell_length_a   9.30298700
_cell_length_b   5.42322800
_cell_length_c   10.34877512
_cell_angle_alpha   75.55404795
_cell_angle_beta   90.00000000
_cell_angle_gamma   90.00000000
_symmetry_Int_Tables_number   1
_chemical_formula_structural   CaV(GeO3)2
_chemical_formula_sum   'Ca4 V4 Ge8 O24'
_cell_volume   505.61105562
_cell_formula_units_Z   4
loop_
 _symmetry_equiv_pos_site_id
 _symmetry_equiv_pos_as_xyz
  1  'x, y, z'
loop_
 _atom_site_type_symbol
 _atom_site_label
 _atom_site_symmetry_multiplicity
 _atom_site_fract_x
 _atom_site_fract_y
 _atom_site_fract_z
 _atom_site_occupancy
  Ca  Ca0  1  0.54670900  0.20896200  0.26561500  1
  Ca  Ca1  1  0.04670900  0.29103800  0.73438500  1
  Ca  Ca2  1  0.45329100  0.79103800  0.73438500  1
  Ca  Ca3  1  0.95329100  0.70896200  0.26561500  1
  V  V0  1  0.34194300  0.73168800  0.24433400  1
  V  V1  1  0.84194300  0.76831200  0.75566600  1
  V  V2  1  0.65805700  0.26831200  0.75566600  1
  V  V3  1  0.15805700  0.23168800  0.24433400  1
  Ge  Ge0  1  0.65506800  0.77649800  0.04137800  1
  Ge  Ge1  1  0.15506800  0.72350200  0.95862200  1
  Ge  Ge2  1  0.34493200  0.22350200  0.95862200  1
  Ge  Ge3  1  0.84493200  0.27649800  0.04137800  1
  Ge  Ge4  1  0.65215100  0.66669600  0.47102800  1
  Ge  Ge5  1  0.15215100  0.83330400  0.52897200  1
  Ge  Ge6  1  0.34784900  0.33330400  0.52897200  1
  Ge  Ge7  1  0.84784900  0.16669600  0.47102800  1
  O  O0  1  0.76543300  0.94391300  0.38998800  1
  O  O1  1  0.26543300  0.55608700  0.61001200  1
  O  O2  1  0.23456700  0.05608700  0.61001200  1
  O  O3  1  0.73456700  0.44391300  0.38998800  1
  O  O4  1  0.69306300  0.06151900  0.09915200  1
  O  O5  1  0.19306300  0.43848100  0.90084800  1
  O  O6  1  0.30693700  0.93848100  0.90084800  1
  O  O7  1  0.80693700  0.56151900  0.09915200  1
  O  O8  1  0.01586100  0.27075200  0.40404400  1
  O  O9  1  0.51586100  0.22924800  0.59595600  1
  O  O10  1  0.98413900  0.72924800  0.59595600  1
  O  O11  1  0.48413900  0.77075200  0.40404400  1
  O  O12  1  0.98791600  0.11988900  0.13236100  1
  O  O13  1  0.48791600  0.38011100  0.86763900  1
  O  O14  1  0.01208400  0.88011100  0.86763900  1
  O  O15  1  0.51208400  0.61988900  0.13236100  1
  O  O16  1  0.65526100  0.87014300  0.86581400  1
  O  O17  1  0.15526100  0.62985700  0.13418600  1
  O  O18  1  0.34473900  0.12985700  0.13418600  1
  O  O19  1  0.84473900  0.37014300  0.86581400  1
  O  O20  1  0.66549000  0.65396200  0.64172800  1
  O  O21  1  0.16549000  0.84603800  0.35827200  1
  O  O22  1  0.33451000  0.34603800  0.35827200  1
  O  O23  1  0.83451000  0.15396200  0.64172800  1
loop_
_geom_bond_atom_site_label_1
_geom_bond_atom_site_label_2
_geom_bond_distance
_geom_bond_site_symmetry_2
Ca0 O15 2.332071 1_555
Ca0 O22 2.392648 1_555
Ca0 O18 2.419810 1_555
Ca0 O4 2.479532 1_555
Ca0 O11 2.517989 1_545
Ca0 O0 2.634407 1_545
Ca0 O3 2.674458 1_555
Ca1 O14 2.332071 1_545
Ca1 O23 2.392648 1_455
Ca1 O19 2.419810 1_455
Ca1 O5 2.479532 1_555
Ca1 O10 2.517989 1_455
Ca1 O1 2.634407 1_555
Ca1 O2 2.674458 1_555
Ca2 O13 2.332071 1_555
Ca2 O20 2.392648 1_555
Ca2 O16 2.419810 1_555
Ca2 O6 2.479532 1_555
Ca2 O9 2.517989 1_565
Ca2 O2 2.634407 1_565
Ca2 O1 2.674458 1_555
Ca3 O12 2.332071 1_565
Ca3 O21 2.392648 1_655
Ca3 O17 2.419810 1_655
Ca3 O7 2.479532 1_555
Ca3 O8 2.517989 1_655
Ca3 O3 2.634407 1_555
Ca3 O0 2.674458 1_555
Ge0 O15 1.725768 1_555
Ge0 O16 1.760277 1_554
Ge0 O4 1.825598 1_565
Ge0 O7 1.834411 1_555
Ge1 O14 1.725768 1_555
Ge1 O17 1.760277 1_556
Ge1 O5 1.825598 1_555
Ge1 O6 1.834411 1_555
Ge2 O13 1.725768 1_555
Ge2 O18 1.760277 1_556
Ge2 O6 1.825598 1_545
Ge2 O5 1.834411 1_555
Ge3 O12 1.725768 1_555
Ge3 O19 1.760277 1_554
Ge3 O7 1.825598 1_555
Ge3 O4 1.834411 1_555
Ge4 O11 1.745514 1_555
Ge4 O20 1.754978 1_555
Ge4 O3 1.804584 1_555
Ge4 O0 1.856109 1_555
Ge5 O10 1.745514 1_455
Ge5 O21 1.754978 1_555
Ge5 O2 1.804584 1_565
Ge5 O1 1.856109 1_555
Ge6 O9 1.745514 1_555
Ge6 O22 1.754978 1_555
Ge6 O1 1.804584 1_555
Ge6 O2 1.856109 1_555
Ge7 O8 1.745514 1_655
Ge7 O23 1.754978 1_555
Ge7 O0 1.804584 1_545
Ge7 O3 1.856109 1_555
O8 V3 2.168240 1_555
O9 V2 2.168240 1_555
O10 V1 2.168240 1_555
O11 V0 2.168240 1_555
O12 V3 2.136879 1_655
O13 V2 2.136879 1_555
O14 V1 2.136879 1_455
O15 V0 2.136879 1_555
O16 V2 2.175956 1_565
O16 V1 2.221387 1_555
O17 V3 2.175956 1_555
O17 V0 2.221387 1_555
O18 V0 2.175956 1_545
O18 V3 2.221387 1_555
O19 V1 2.175956 1_555
O19 V2 2.221387 1_555
O20 V2 2.130476 1_555
O20 V1 2.198724 1_555
O21 V3 2.130476 1_565
O21 V0 2.198724 1_555
O22 V0 2.130476 1_555
O22 V3 2.198724 1_555
O23 V1 2.130476 1_545
O23 V2 2.198724 1_555
