# generated using pymatgen
data_Tm3(CuSn)4
_symmetry_space_group_name_H-M   'P 1'
_cell_length_a   4.38905962
_cell_length_b   6.89002413
_cell_length_c   8.28707496
_cell_angle_alpha   113.79762384
_cell_angle_beta   105.35587471
_cell_angle_gamma   90.00000000
_symmetry_Int_Tables_number   1
_chemical_formula_structural   Tm3(CuSn)4
_chemical_formula_sum   'Tm3 Cu4 Sn4'
_cell_volume   219.48604457
_cell_formula_units_Z   1
loop_
 _symmetry_equiv_pos_site_id
 _symmetry_equiv_pos_as_xyz
  1  'x, y, z'
loop_
 _atom_site_type_symbol
 _atom_site_label
 _atom_site_symmetry_multiplicity
 _atom_site_fract_x
 _atom_site_fract_y
 _atom_site_fract_z
 _atom_site_occupancy
  Tm  Tm0  1  -0.00000000  0.50000000  -0.00000000  1
  Tm  Tm1  1  0.86957836  0.85626639  0.73915671  1
  Tm  Tm2  1  0.13042164  0.14373361  0.26084329  1
  Cu  Cu0  1  0.68443026  0.87859165  0.36886053  1
  Cu  Cu1  1  0.31556974  0.12140835  0.63113947  1
  Cu  Cu2  1  0.65919622  0.47841199  0.31838944  1
  Cu  Cu3  1  0.34080378  0.52158801  0.68161056  1
  Sn  Sn0  1  0.78275180  0.30033840  0.56550261  1
  Sn  Sn1  1  0.21724820  0.69966160  0.43449739  1
  Sn  Sn2  1  0.48998080  0.19366203  0.97995959  1
  Sn  Sn3  1  0.51001920  0.80633797  0.02004041  1
loop_
_geom_bond_atom_site_label_1
_geom_bond_atom_site_label_2
_geom_bond_distance
_geom_bond_site_symmetry_2
Cu0 Cu2 2.614269 1_555
Cu0 Sn3 2.618517 1_555
Cu0 Sn0 2.663041 1_565
Cu0 Sn1 2.674344 1_655
Cu0 Sn1 2.674348 1_555
Cu0 Cu1 3.012188 1_565
Cu0 Cu1 3.012188 1_665
Cu0 Tm1 3.026712 1_555
Cu0 Tm2 3.196573 1_665
Cu0 Tm2 3.196573 1_565
Cu1 Cu3 2.614269 1_555
Cu1 Sn2 2.618517 1_555
Cu1 Sn1 2.663041 1_545
Cu1 Sn0 2.674344 1_455
Cu1 Sn0 2.674348 1_555
Cu1 Tm2 3.026712 1_555
Cu1 Tm1 3.196573 1_545
Cu1 Tm1 3.196573 1_445
Cu2 Sn2 2.592835 1_554
Cu2 Sn1 2.610928 1_655
Cu2 Sn1 2.610942 1_555
Cu2 Sn0 2.726284 1_555
Cu2 Tm2 3.075275 1_655
Cu2 Tm2 3.075285 1_555
Cu2 Tm1 3.279911 1_555
Cu2 Tm0 3.410036 1_655
Cu2 Tm0 3.410045 1_555
Cu3 Sn3 2.592835 1_556
Cu3 Sn0 2.610928 1_455
Cu3 Sn0 2.610942 1_555
Cu3 Sn1 2.726284 1_555
Cu3 Tm1 3.075275 1_455
Cu3 Tm1 3.075285 1_555
Cu3 Tm2 3.279911 1_555
Cu3 Tm0 3.410036 1_556
Cu3 Tm0 3.410045 1_656
Sn0 Tm2 3.115929 1_655
Sn0 Tm2 3.115932 1_555
Sn0 Tm0 3.154511 1_656
Sn1 Tm1 3.115929 1_455
Sn1 Tm1 3.115932 1_555
Sn1 Tm0 3.154511 1_555
Sn2 Sn3 2.817755 1_546
Sn2 Tm0 3.002275 1_656
Sn2 Tm0 3.002282 1_556
Sn2 Tm1 3.190492 1_545
Sn2 Tm1 3.190498 1_445
Sn2 Tm2 3.258642 1_656
Sn2 Tm2 3.258648 1_556
Sn3 Tm0 3.002275 1_555
Sn3 Tm0 3.002282 1_655
Sn3 Tm2 3.190492 1_565
Sn3 Tm2 3.190498 1_665
Sn3 Tm1 3.258642 1_454
Sn3 Tm1 3.258648 1_554
