# generated using pymatgen
data_Bi3Te4(ClO2)5
_symmetry_space_group_name_H-M   'P 1'
_cell_length_a   8.03666632
_cell_length_b   8.03666632
_cell_length_c   13.59025018
_cell_angle_alpha   82.30885790
_cell_angle_beta   82.30885790
_cell_angle_gamma   29.62449222
_symmetry_Int_Tables_number   1
_chemical_formula_structural   Bi3Te4(ClO2)5
_chemical_formula_sum   'Bi3 Te4 Cl5 O10'
_cell_volume   429.71453995
_cell_formula_units_Z   1
loop_
 _symmetry_equiv_pos_site_id
 _symmetry_equiv_pos_as_xyz
  1  'x, y, z'
loop_
 _atom_site_type_symbol
 _atom_site_label
 _atom_site_symmetry_multiplicity
 _atom_site_fract_x
 _atom_site_fract_y
 _atom_site_fract_z
 _atom_site_occupancy
  Bi  Bi0  1  0.00000000  0.00000000  0.00000000  1
  Bi  Bi1  1  0.78399300  0.78399300  0.80399500  1
  Bi  Bi2  1  0.21600700  0.21600700  0.19600500  1
  Te  Te0  1  0.16209700  0.16209700  0.49491800  1
  Te  Te1  1  0.83790300  0.83790300  0.50508200  1
  Te  Te2  1  0.47282900  0.47282900  0.77036400  1
  Te  Te3  1  0.52717100  0.52717100  0.22963600  1
  Cl  Cl0  1  0.15002300  0.15002300  0.72733600  1
  Cl  Cl1  1  0.84997700  0.84997700  0.27266400  1
  Cl  Cl2  1  0.50000000  0.50000000  0.50000000  1
  Cl  Cl3  1  0.17480600  0.17480600  0.97556600  1
  Cl  Cl4  1  0.82519400  0.82519400  0.02443400  1
  O  O0  1  0.29236500  0.29236500  0.50058700  1
  O  O1  1  0.70763500  0.70763500  0.49941300  1
  O  O2  1  0.16684000  0.16684000  0.35803800  1
  O  O3  1  0.83316000  0.83316000  0.64196200  1
  O  O4  1  0.34656200  0.34656200  0.79648000  1
  O  O5  1  0.65343800  0.65343800  0.20352000  1
  O  O6  1  0.50422600  0.50422600  0.90074400  1
  O  O7  1  0.49577400  0.49577400  0.09925600  1
  O  O8  1  0.06138500  0.06138500  0.20137900  1
  O  O9  1  0.93861500  0.93861500  0.79862100  1
loop_
_geom_bond_atom_site_label_1
_geom_bond_atom_site_label_2
_geom_bond_distance
_geom_bond_site_symmetry_2
Bi0 O7 2.453713 1_455
Bi0 O6 2.453713 1_544
Bi0 O6 2.453713 1_454
Bi0 O7 2.453713 1_545
Bi0 Cl3 2.690550 1_554
Bi0 Cl4 2.690550 1_445
Bi1 O3 2.228682 1_555
Bi1 O4 2.269274 1_655
Bi1 O4 2.269274 1_565
Bi1 O9 2.393684 1_555
Bi1 Cl0 3.200163 1_655
Bi1 Cl0 3.200163 1_565
Bi2 O2 2.228682 1_555
Bi2 O5 2.269274 1_455
Bi2 O5 2.269274 1_545
Bi2 O8 2.393684 1_555
Bi2 Cl1 3.200163 1_455
Bi2 Cl1 3.200163 1_545
Cl0 Te0 3.138152 1_555
Cl1 Te1 3.138152 1_555
O0 Te0 2.036355 1_555
O0 Te1 2.176645 1_545
O0 Te1 2.176645 1_455
O1 Te1 2.036355 1_555
O1 Te0 2.176645 1_655
O1 Te0 2.176645 1_565
O2 Te0 1.851470 1_555
O3 Te1 1.851470 1_555
O4 Te2 1.944981 1_555
O5 Te3 1.944981 1_555
O6 Te2 1.901840 1_555
O7 Te3 1.901840 1_555
O8 Te3 2.143585 1_455
O8 Te3 2.143585 1_545
O9 Te2 2.143585 1_565
O9 Te2 2.143585 1_655
