# generated using pymatgen
data_Nb3AlCo8
_symmetry_space_group_name_H-M   'P 1'
_cell_length_a   8.20628441
_cell_length_b   8.20628441
_cell_length_c   8.20628389
_cell_angle_alpha   33.59546226
_cell_angle_beta   33.59546226
_cell_angle_gamma   33.59546175
_symmetry_Int_Tables_number   1
_chemical_formula_structural   Nb3AlCo8
_chemical_formula_sum   'Nb3 Al1 Co8'
_cell_volume   150.72016269
_cell_formula_units_Z   1
loop_
 _symmetry_equiv_pos_site_id
 _symmetry_equiv_pos_as_xyz
  1  'x, y, z'
loop_
 _atom_site_type_symbol
 _atom_site_label
 _atom_site_symmetry_multiplicity
 _atom_site_fract_x
 _atom_site_fract_y
 _atom_site_fract_z
 _atom_site_occupancy
  Nb  Nb0  1  0.62285300  0.62285300  0.62285300  1
  Nb  Nb1  1  0.00346800  0.00346800  0.00346800  1
  Nb  Nb2  1  0.49777700  0.49777700  0.49777700  1
  Al  Al0  1  0.12607200  0.12607200  0.12607200  1
  Co  Co0  1  0.56368100  0.06018700  0.56368100  1
  Co  Co1  1  0.06383400  0.56057200  0.06383400  1
  Co  Co2  1  0.06018700  0.56368100  0.56368100  1
  Co  Co3  1  0.56057200  0.06383400  0.06383400  1
  Co  Co4  1  0.81165900  0.81165900  0.81165900  1
  Co  Co5  1  0.31238400  0.31238400  0.31238400  1
  Co  Co6  1  0.56368100  0.56368100  0.06018700  1
  Co  Co7  1  0.06383400  0.06383400  0.56057200  1
loop_
_geom_bond_atom_site_label_1
_geom_bond_atom_site_label_2
_geom_bond_distance
_geom_bond_site_symmetry_2
Nb0 Nb2 2.902723 1_555
Nb0 Nb1 2.950112 1_656
Nb0 Nb1 2.950112 1_566
Nb0 Nb1 2.950112 1_665
Al0 Co7 2.757225 1_555
Al0 Co3 2.757225 1_555
Al0 Co1 2.757225 1_555
Al0 Co4 2.773429 1_445
Al0 Co4 2.773429 1_544
Al0 Co4 2.773429 1_454
Al0 Co0 2.792844 1_554
Al0 Co2 2.792844 1_554
Al0 Co6 2.792844 1_545
Al0 Co6 2.792844 1_455
Al0 Co2 2.792845 1_545
Al0 Co0 2.792845 1_455
Al0 Nb1 2.845353 1_555
Al0 Nb2 2.879604 1_545
Al0 Nb2 2.879604 1_455
Al0 Nb2 2.879604 1_554
Co0 Co4 2.347840 1_545
Co0 Co6 2.354993 1_546
Co0 Co2 2.354993 1_645
Co0 Co5 2.377647 1_555
Co0 Co6 2.388138 1_555
Co0 Co2 2.388139 1_555
Co0 Nb2 2.737999 1_555
Co0 Nb1 2.739040 1_655
Co0 Nb1 2.739041 1_556
Co0 Nb0 2.817458 1_545
Co1 Co7 2.356094 1_555
Co1 Co3 2.356094 1_555
Co1 Co5 2.357575 1_555
Co1 Co7 2.387038 1_564
Co1 Co3 2.387038 1_465
Co1 Co4 2.395379 1_454
Co1 Nb0 2.751405 1_455
Co1 Nb0 2.751405 1_554
Co1 Nb2 2.810311 1_554
Co1 Nb2 2.810311 1_455
Co1 Nb1 2.847895 1_565
Co2 Co4 2.347840 1_455
Co2 Co6 2.354993 1_456
Co2 Co5 2.377647 1_555
Co2 Co6 2.388138 1_555
Co2 Nb2 2.737999 1_555
Co2 Nb1 2.739040 1_565
Co2 Nb1 2.739041 1_556
Co2 Nb0 2.817458 1_455
Co3 Co7 2.356094 1_555
Co3 Co5 2.357575 1_555
Co3 Co7 2.387038 1_654
Co3 Co4 2.395379 1_544
Co3 Nb0 2.751405 1_545
Co3 Nb0 2.751405 1_554
Co3 Nb2 2.810311 1_554
Co3 Nb2 2.810311 1_545
Co3 Nb1 2.847895 1_655
Co4 Co6 2.347840 1_556
Co4 Co7 2.395379 1_665
Co4 Nb2 2.775406 1_556
Co4 Nb2 2.775406 1_565
Co4 Nb2 2.775406 1_655
Co5 Co7 2.357575 1_555
Co5 Co6 2.377647 1_555
Co5 Nb0 2.789384 1_554
Co5 Nb0 2.789385 1_545
Co5 Nb0 2.789385 1_455
Co5 Nb1 2.796465 1_556
Co5 Nb1 2.796465 1_655
Co5 Nb1 2.796465 1_565
Co6 Nb2 2.737999 1_555
Co6 Nb1 2.739040 1_565
Co6 Nb1 2.739040 1_655
Co6 Nb0 2.817458 1_554
Co7 Nb0 2.751405 1_455
Co7 Nb0 2.751405 1_545
Co7 Nb2 2.810311 1_455
Co7 Nb2 2.810311 1_545
Co7 Nb1 2.847895 1_556
