# generated using pymatgen
data_LiNiSbO4
_symmetry_space_group_name_H-M   'P 1'
_cell_length_a   5.19618700
_cell_length_b   6.02475000
_cell_length_c   10.69376800
_cell_angle_alpha   90.00000000
_cell_angle_beta   90.00000000
_cell_angle_gamma   90.00000000
_symmetry_Int_Tables_number   1
_chemical_formula_structural   LiNiSbO4
_chemical_formula_sum   'Li4 Ni4 Sb4 O16'
_cell_volume   334.77618833
_cell_formula_units_Z   4
loop_
 _symmetry_equiv_pos_site_id
 _symmetry_equiv_pos_as_xyz
  1  'x, y, z'
loop_
 _atom_site_type_symbol
 _atom_site_label
 _atom_site_symmetry_multiplicity
 _atom_site_fract_x
 _atom_site_fract_y
 _atom_site_fract_z
 _atom_site_occupancy
  Li  Li0  1  0.00000000  0.00000000  0.00000000  1
  Li  Li1  1  0.50000100  0.00000000  0.50000000  1
  Li  Li2  1  0.00000000  0.49999900  0.00000000  1
  Li  Li3  1  0.50000100  0.49999900  0.50000000  1
  Ni  Ni0  1  0.00550400  0.75000000  0.73092600  1
  Ni  Ni1  1  0.49449500  0.75000000  0.23092500  1
  Ni  Ni2  1  0.99449500  0.25000000  0.26907400  1
  Ni  Ni3  1  0.50550500  0.25000000  0.76907400  1
  Sb  Sb0  1  0.54385800  0.75000000  0.90140400  1
  Sb  Sb1  1  0.95614200  0.75000000  0.40140300  1
  Sb  Sb2  1  0.45614300  0.25000000  0.09859600  1
  Sb  Sb3  1  0.04385700  0.25000000  0.59859600  1
  O  O0  1  0.82074400  0.25000000  0.09369900  1
  O  O1  1  0.23664300  0.48666800  0.67479000  1
  O  O2  1  0.73664300  0.51333200  0.82521000  1
  O  O3  1  0.76335700  0.98666700  0.32521000  1
  O  O4  1  0.26335800  0.01333300  0.17479000  1
  O  O5  1  0.76335700  0.51333200  0.32521000  1
  O  O6  1  0.26335800  0.48666800  0.17479000  1
  O  O7  1  0.23664300  0.01333300  0.67479000  1
  O  O8  1  0.17925600  0.75000000  0.90630200  1
  O  O9  1  0.67925600  0.25000000  0.59369800  1
  O  O10  1  0.73664300  0.98666700  0.82521000  1
  O  O11  1  0.32074500  0.75000000  0.40630200  1
  O  O12  1  0.69282500  0.75000000  0.06477700  1
  O  O13  1  0.30717400  0.25000000  0.93522200  1
  O  O14  1  0.19282500  0.25000000  0.43522300  1
  O  O15  1  0.80717500  0.75000000  0.56477800  1
loop_
_geom_bond_atom_site_label_1
_geom_bond_atom_site_label_2
_geom_bond_distance
_geom_bond_site_symmetry_2
Li0 O8 2.034740 1_544
Li0 O0 2.034746 1_455
Li0 O13 2.301327 1_554
Li0 O12 2.301327 1_445
Li0 O10 2.317949 1_444
Li0 O4 2.317952 1_555
Li1 O9 2.034738 1_555
Li1 O11 2.034740 1_545
Li1 O15 2.301327 1_545
Li1 O14 2.301331 1_555
Li1 O3 2.317946 1_545
Li1 O7 2.317952 1_555
Li2 O0 2.034741 1_455
Li2 O8 2.034745 1_554
Li2 O13 2.301323 1_554
Li2 O12 2.301331 1_455
Li2 O2 2.317949 1_454
Li2 O6 2.317952 1_555
Li3 O9 2.034734 1_555
Li3 O11 2.034745 1_555
Li3 O14 2.301327 1_555
Li3 O15 2.301331 1_555
Li3 O5 2.317946 1_555
Li3 O1 2.317952 1_555
Ni0 O15 2.053990 1_455
Ni0 O1 2.078432 1_555
Ni0 O7 2.078437 1_565
Ni0 O8 2.081435 1_555
Ni0 O10 2.236381 1_455
Ni0 O2 2.236385 1_455
Ni1 O12 2.053993 1_555
Ni1 O6 2.078423 1_555
Ni1 O4 2.078427 1_565
Ni1 O11 2.081440 1_555
Ni1 O3 2.236389 1_555
Ni1 O5 2.236393 1_555
Ni2 O14 2.054002 1_655
Ni2 O5 2.078429 1_555
Ni2 O3 2.078434 1_545
Ni2 O0 2.081423 1_555
Ni2 O4 2.236388 1_655
Ni2 O6 2.236391 1_655
Ni3 O13 2.053996 1_555
Ni3 O2 2.078429 1_555
Ni3 O10 2.078434 1_545
Ni3 O9 2.081433 1_555
Ni3 O7 2.236384 1_555
Ni3 O1 2.236388 1_555
O0 Sb2 1.895259 1_555
O1 Sb3 1.923668 1_555
O2 Sb0 1.923666 1_555
O3 Sb1 1.923657 1_555
O4 Sb2 1.923661 1_555
O5 Sb1 1.923661 1_555
O6 Sb2 1.923666 1_555
O7 Sb3 1.923664 1_555
O8 Sb0 1.895264 1_555
O9 Sb3 1.895259 1_655
O10 Sb0 1.923661 1_555
O11 Sb1 1.895270 1_455
O12 Sb0 1.910872 1_554
O13 Sb2 1.910886 1_556
O14 Sb3 1.910875 1_555
O15 Sb1 1.910892 1_555
