# generated using pymatgen
data_La3InCoS7
_symmetry_space_group_name_H-M   'P 1'
_cell_length_a   10.14691461
_cell_length_b   10.14691461
_cell_length_c   6.25802900
_cell_angle_alpha   90.00000000
_cell_angle_beta   90.00000000
_cell_angle_gamma   120.00000399
_symmetry_Int_Tables_number   1
_chemical_formula_structural   La3InCoS7
_chemical_formula_sum   'La6 In2 Co2 S14'
_cell_volume   558.00256722
_cell_formula_units_Z   2
loop_
 _symmetry_equiv_pos_site_id
 _symmetry_equiv_pos_as_xyz
  1  'x, y, z'
loop_
 _atom_site_type_symbol
 _atom_site_label
 _atom_site_symmetry_multiplicity
 _atom_site_fract_x
 _atom_site_fract_y
 _atom_site_fract_z
 _atom_site_occupancy
  La  La0  1  0.14930500  0.37056800  0.80416900  1
  La  La1  1  0.22126300  0.85069500  0.80416900  1
  La  La2  1  0.62943200  0.77873700  0.80416900  1
  La  La3  1  0.85069500  0.62943200  0.30416900  1
  La  La4  1  0.77873700  0.14930500  0.30416900  1
  La  La5  1  0.37056800  0.22126300  0.30416900  1
  In  In0  1  0.66666700  0.33333300  0.87712400  1
  In  In1  1  0.33333300  0.66666700  0.37712400  1
  Co  Co0  1  0.00000000  0.00000000  0.49491400  1
  Co  Co1  1  0.00000000  0.00000000  0.99491400  1
  S  S0  1  0.87217100  0.08933700  0.73497700  1
  S  S1  1  0.21716600  0.12782900  0.73497700  1
  S  S2  1  0.91066300  0.78283400  0.73497700  1
  S  S3  1  0.12782900  0.91066300  0.23497700  1
  S  S4  1  0.78283400  0.87217100  0.23497700  1
  S  S5  1  0.08933700  0.21716600  0.23497700  1
  S  S6  1  0.43313300  0.51260900  0.54261900  1
  S  S7  1  0.07947600  0.56686700  0.54261900  1
  S  S8  1  0.48739100  0.92052400  0.54261900  1
  S  S9  1  0.56686700  0.48739100  0.04261900  1
  S  S10  1  0.92052400  0.43313300  0.04261900  1
  S  S11  1  0.51260900  0.07947600  0.04261900  1
  S  S12  1  0.66666700  0.33333300  0.49137900  1
  S  S13  1  0.33333300  0.66666700  0.99137900  1
loop_
_geom_bond_atom_site_label_1
_geom_bond_atom_site_label_2
_geom_bond_distance
_geom_bond_site_symmetry_2
La0 S0 2.865969 1_455
La0 S13 2.876816 1_555
La0 S1 2.902459 1_555
La0 S7 2.925715 1_555
La0 S6 2.983250 1_555
La0 S5 3.019014 1_556
La0 S10 3.080990 1_456
La1 S1 2.865969 1_565
La1 S13 2.876808 1_555
La1 S2 2.902459 1_455
La1 S8 2.925715 1_555
La1 S7 2.983250 1_555
La1 S3 3.019014 1_556
La1 S11 3.080990 1_566
La2 S2 2.865969 1_555
La2 S13 2.876817 1_555
La2 S0 2.902459 1_565
La2 S6 2.925715 1_555
La2 S8 2.983250 1_555
La2 S4 3.019014 1_556
La2 S9 3.080990 1_556
La3 S3 2.865969 1_655
La3 S12 2.876816 1_555
La3 S4 2.902459 1_555
La3 S10 2.925715 1_555
La3 S9 2.983250 1_555
La3 S2 3.019014 1_555
La3 S7 3.080990 1_655
La4 S4 2.865969 1_545
La4 S12 2.876808 1_555
La4 S5 2.902459 1_655
La4 S11 2.925715 1_555
La4 S10 2.983250 1_555
La4 S0 3.019014 1_555
La4 S8 3.080990 1_545
La5 S5 2.865969 1_555
La5 S12 2.876817 1_555
La5 S3 2.902459 1_545
La5 S9 2.925715 1_555
La5 S11 2.983250 1_555
La5 S1 3.019014 1_555
La5 S6 3.080990 1_555
In0 S12 2.414003 1_555
In0 S10 2.474814 1_556
In0 S11 2.474815 1_556
In0 S9 2.474822 1_556
In1 S13 2.414003 1_554
In1 S7 2.474814 1_555
In1 S8 2.474815 1_555
In1 S6 2.474822 1_555
Co0 S1 2.436571 1_555
Co0 S2 2.436571 1_445
Co0 S0 2.436571 1_455
Co0 S4 2.515162 1_445
Co0 S5 2.515162 1_555
Co0 S3 2.515162 1_545
Co1 S4 2.436571 1_446
Co1 S5 2.436571 1_556
Co1 S3 2.436571 1_546
Co1 S1 2.515162 1_555
Co1 S2 2.515162 1_445
Co1 S0 2.515162 1_455
