# generated using pymatgen
data_Ca(SnO2)4
_symmetry_space_group_name_H-M   'P 1'
_cell_length_a   6.90471974
_cell_length_b   6.90471974
_cell_length_c   6.90471903
_cell_angle_alpha   57.40965367
_cell_angle_beta   57.40965367
_cell_angle_gamma   57.40965612
_symmetry_Int_Tables_number   1
_chemical_formula_structural   Ca(SnO2)4
_chemical_formula_sum   'Ca1 Sn4 O8'
_cell_volume   218.89395337
_cell_formula_units_Z   1
loop_
 _symmetry_equiv_pos_site_id
 _symmetry_equiv_pos_as_xyz
  1  'x, y, z'
loop_
 _atom_site_type_symbol
 _atom_site_label
 _atom_site_symmetry_multiplicity
 _atom_site_fract_x
 _atom_site_fract_y
 _atom_site_fract_z
 _atom_site_occupancy
  Ca  Ca0  1  0.50000000  0.50000000  0.50000000  1
  Sn  Sn0  1  0.00000000  0.50000000  0.50000000  1
  Sn  Sn1  1  0.50000000  0.00000000  0.50000000  1
  Sn  Sn2  1  0.50000000  0.50000000  0.00000000  1
  Sn  Sn3  1  0.00000000  0.00000000  0.00000000  1
  O  O0  1  0.30758900  0.74836800  0.74836800  1
  O  O1  1  0.25163200  0.25163200  0.69241100  1
  O  O2  1  0.69241100  0.25163200  0.25163200  1
  O  O3  1  0.25163200  0.69241100  0.25163200  1
  O  O4  1  0.27197900  0.27197900  0.27197900  1
  O  O5  1  0.72802100  0.72802100  0.72802100  1
  O  O6  1  0.74836800  0.30758900  0.74836800  1
  O  O7  1  0.74836800  0.74836800  0.30758900  1
loop_
_geom_bond_atom_site_label_1
_geom_bond_atom_site_label_2
_geom_bond_distance
_geom_bond_site_symmetry_2
Ca0 O0 2.430287 1_555
Ca0 O6 2.430287 1_555
Ca0 O3 2.430287 1_555
Ca0 O2 2.430287 1_555
Ca0 O7 2.430287 1_555
Ca0 O1 2.430287 1_555
O0 Sn2 2.132409 1_556
O0 Sn1 2.132409 1_565
O0 Sn3 2.418634 1_566
O1 Sn0 2.132409 1_555
O1 Sn1 2.132409 1_555
O1 Sn3 2.418634 1_556
O2 Sn2 2.132409 1_555
O2 Sn1 2.132409 1_555
O2 Sn3 2.418634 1_655
O3 Sn2 2.132409 1_555
O3 Sn0 2.132409 1_555
O3 Sn3 2.418634 1_565
O4 Sn2 2.187323 1_555
O4 Sn1 2.187323 1_555
O4 Sn0 2.187323 1_555
O5 Sn2 2.187323 1_556
O5 Sn1 2.187323 1_565
O5 Sn0 2.187323 1_655
O6 Sn2 2.132409 1_556
O6 Sn0 2.132409 1_655
O6 Sn3 2.418634 1_656
O7 Sn0 2.132409 1_655
O7 Sn1 2.132409 1_565
O7 Sn3 2.418634 1_665
