# generated using pymatgen
data_Rb7NaSi8
_symmetry_space_group_name_H-M   'P 1'
_cell_length_a   13.06824047
_cell_length_b   13.06824047
_cell_length_c   13.06824047
_cell_angle_alpha   90.00000000
_cell_angle_beta   90.00000000
_cell_angle_gamma   90.00000000
_symmetry_Int_Tables_number   1
_chemical_formula_structural   Rb7NaSi8
_chemical_formula_sum   'Rb28 Na4 Si32'
_cell_volume   2231.77984978
_cell_formula_units_Z   4
loop_
 _symmetry_equiv_pos_site_id
 _symmetry_equiv_pos_as_xyz
  1  'x, y, z'
loop_
 _atom_site_type_symbol
 _atom_site_label
 _atom_site_symmetry_multiplicity
 _atom_site_fract_x
 _atom_site_fract_y
 _atom_site_fract_z
 _atom_site_occupancy
  Rb  Rb0  1  0.22593390  0.68592115  0.45749505  1
  Rb  Rb1  1  0.77406610  0.18592115  0.04250495  1
  Rb  Rb2  1  0.27406610  0.31407885  0.95749505  1
  Rb  Rb3  1  0.72593390  0.81407885  0.54250495  1
  Rb  Rb4  1  0.45749505  0.22593390  0.68592115  1
  Rb  Rb5  1  0.04250495  0.77406610  0.18592115  1
  Rb  Rb6  1  0.95749505  0.27406610  0.31407885  1
  Rb  Rb7  1  0.54250495  0.72593390  0.81407885  1
  Rb  Rb8  1  0.68592115  0.45749505  0.22593390  1
  Rb  Rb9  1  0.18592115  0.04250495  0.77406610  1
  Rb  Rb10  1  0.31407885  0.95749505  0.27406610  1
  Rb  Rb11  1  0.81407885  0.54250495  0.72593390  1
  Rb  Rb12  1  0.77406610  0.31407885  0.54250495  1
  Rb  Rb13  1  0.22593390  0.81407885  0.95749505  1
  Rb  Rb14  1  0.72593390  0.68592115  0.04250495  1
  Rb  Rb15  1  0.27406610  0.18592115  0.45749505  1
  Rb  Rb16  1  0.54250495  0.77406610  0.31407885  1
  Rb  Rb17  1  0.95749505  0.22593390  0.81407885  1
  Rb  Rb18  1  0.04250495  0.72593390  0.68592115  1
  Rb  Rb19  1  0.45749505  0.27406610  0.18592115  1
  Rb  Rb20  1  0.31407885  0.54250495  0.77406610  1
  Rb  Rb21  1  0.81407885  0.95749505  0.22593390  1
  Rb  Rb22  1  0.68592115  0.04250495  0.72593390  1
  Rb  Rb23  1  0.18592115  0.45749505  0.27406610  1
  Rb  Rb24  1  0.00000000  0.00000000  0.50000000  1
  Rb  Rb25  1  0.00000000  0.50000000  -0.00000000  1
  Rb  Rb26  1  0.50000000  0.00000000  -0.00000000  1
  Rb  Rb27  1  0.50000000  0.50000000  0.50000000  1
  Na  Na0  1  0.50000000  0.50000000  -0.00000000  1
  Na  Na1  1  0.50000000  0.00000000  0.50000000  1
  Na  Na2  1  0.00000000  0.50000000  0.50000000  1
  Na  Na3  1  0.00000000  0.00000000  -0.00000000  1
  Si  Si0  1  0.30145676  0.69854324  0.19854324  1
  Si  Si1  1  0.69854324  0.19854324  0.30145676  1
  Si  Si2  1  0.19854324  0.30145676  0.69854324  1
  Si  Si3  1  0.80145676  0.80145676  0.80145676  1
  Si  Si4  1  0.69854324  0.30145676  0.80145676  1
  Si  Si5  1  0.30145676  0.80145676  0.69854324  1
  Si  Si6  1  0.80145676  0.69854324  0.30145676  1
  Si  Si7  1  0.19854324  0.19854324  0.19854324  1
  Si  Si8  1  0.42242017  0.56173406  0.20162154  1
  Si  Si9  1  0.57757983  0.06173406  0.29837846  1
  Si  Si10  1  0.07757983  0.43826594  0.70162154  1
  Si  Si11  1  0.92242017  0.93826594  0.79837846  1
  Si  Si12  1  0.20162154  0.42242017  0.56173406  1
  Si  Si13  1  0.29837846  0.57757983  0.06173406  1
  Si  Si14  1  0.70162154  0.07757983  0.43826594  1
  Si  Si15  1  0.79837846  0.92242017  0.93826594  1
  Si  Si16  1  0.56173406  0.20162154  0.42242017  1
  Si  Si17  1  0.06173406  0.29837846  0.57757983  1
  Si  Si18  1  0.43826594  0.70162154  0.07757983  1
  Si  Si19  1  0.93826594  0.79837846  0.92242017  1
  Si  Si20  1  0.57757983  0.43826594  0.79837846  1
  Si  Si21  1  0.42242017  0.93826594  0.70162154  1
  Si  Si22  1  0.92242017  0.56173406  0.29837846  1
  Si  Si23  1  0.07757983  0.06173406  0.20162154  1
  Si  Si24  1  0.79837846  0.57757983  0.43826594  1
  Si  Si25  1  0.70162154  0.42242017  0.93826594  1
  Si  Si26  1  0.29837846  0.92242017  0.56173406  1
  Si  Si27  1  0.20162154  0.07757983  0.06173406  1
  Si  Si28  1  0.43826594  0.79837846  0.57757983  1
  Si  Si29  1  0.93826594  0.70162154  0.42242017  1
  Si  Si30  1  0.56173406  0.29837846  0.92242017  1
  Si  Si31  1  0.06173406  0.20162154  0.07757983  1
loop_
_geom_bond_atom_site_label_1
_geom_bond_atom_site_label_2
_geom_bond_distance
_geom_bond_site_symmetry_2
Rb0 Si26 3.507691 1_555
Rb0 Si28 3.510274 1_555
Rb0 Si0 3.528886 1_555
Rb0 Si5 3.629971 1_555
Rb0 Si12 3.716752 1_555
Rb0 Si29 3.792709 1_455
Rb1 Si25 3.507691 1_554
Rb1 Si30 3.510274 1_554
Rb1 Si1 3.528886 1_555
Rb1 Si4 3.629971 1_554
Rb1 Si15 3.716752 1_544
Rb1 Si31 3.792709 1_655
Rb2 Si27 3.507691 1_556
Rb2 Si31 3.510274 1_556
Rb2 Si2 3.528886 1_555
Rb2 Si7 3.629971 1_556
Rb2 Si13 3.716752 1_556
Rb2 Si30 3.792709 1_555
Rb3 Si24 3.507691 1_555
Rb3 Si29 3.510274 1_555
Rb3 Si3 3.528886 1_555
Rb3 Si6 3.629971 1_555
Rb3 Si14 3.716752 1_565
Rb3 Si28 3.792709 1_555
Rb4 Si30 3.507691 1_555
Rb4 Si20 3.510274 1_555
Rb4 Si2 3.528886 1_555
Rb4 Si4 3.629971 1_555
Rb4 Si16 3.716752 1_555
Rb4 Si21 3.792709 1_545
Rb5 Si29 3.507691 1_455
Rb5 Si22 3.510274 1_455
Rb5 Si0 3.528886 1_555
Rb5 Si6 3.629971 1_455
Rb5 Si19 3.716752 1_454
Rb5 Si23 3.792709 1_565
Rb6 Si31 3.507691 1_655
Rb6 Si23 3.510274 1_655
Rb6 Si1 3.528886 1_555
Rb6 Si7 3.629971 1_655
Rb6 Si17 3.716752 1_655
Rb6 Si22 3.792709 1_555
Rb7 Si28 3.507691 1_555
Rb7 Si21 3.510274 1_555
Rb7 Si3 3.528886 1_555
Rb7 Si5 3.629971 1_555
Rb7 Si18 3.716752 1_556
Rb7 Si20 3.792709 1_555
Rb8 Si22 3.507691 1_555
Rb8 Si24 3.510274 1_555
Rb8 Si1 3.528886 1_555
Rb8 Si6 3.629971 1_555
Rb8 Si8 3.716752 1_555
Rb8 Si25 3.792709 1_554
Rb9 Si21 3.507691 1_545
Rb9 Si26 3.510274 1_545
Rb9 Si2 3.528886 1_555
Rb9 Si5 3.629971 1_545
Rb9 Si11 3.716752 1_445
Rb9 Si27 3.792709 1_556
Rb10 Si23 3.507691 1_565
Rb10 Si27 3.510274 1_565
Rb10 Si0 3.528886 1_555
Rb10 Si7 3.629971 1_565
Rb10 Si9 3.716752 1_565
Rb10 Si26 3.792709 1_555
Rb11 Si20 3.507691 1_555
Rb11 Si25 3.510274 1_555
Rb11 Si3 3.528886 1_555
Rb11 Si4 3.629971 1_555
Rb11 Si10 3.716752 1_655
Rb11 Si24 3.792709 1_555
Rb12 Si14 3.507691 1_555
Rb12 Si16 3.510274 1_555
Rb12 Si4 3.528886 1_555
Rb12 Si1 3.629971 1_555
Rb12 Si24 3.716752 1_555
Rb12 Si17 3.792709 1_655
Rb13 Si13 3.507691 1_556
Rb13 Si18 3.510274 1_556
Rb13 Si5 3.528886 1_555
Rb13 Si0 3.629971 1_556
Rb13 Si27 3.716752 1_566
Rb13 Si19 3.792709 1_455
Rb14 Si15 3.507691 1_554
Rb14 Si19 3.510274 1_554
Rb14 Si6 3.528886 1_555
Rb14 Si3 3.629971 1_554
Rb14 Si25 3.716752 1_554
Rb14 Si18 3.792709 1_555
Rb15 Si12 3.507691 1_555
Rb15 Si17 3.510274 1_555
Rb15 Si7 3.528886 1_555
Rb15 Si2 3.629971 1_555
Rb15 Si26 3.716752 1_545
Rb15 Si16 3.792709 1_555
Rb16 Si18 3.507691 1_555
Rb16 Si8 3.510274 1_555
Rb16 Si6 3.528886 1_555
Rb16 Si0 3.629971 1_555
Rb16 Si28 3.716752 1_555
Rb16 Si9 3.792709 1_565
Rb17 Si17 3.507691 1_655
Rb17 Si10 3.510274 1_655
Rb17 Si4 3.528886 1_555
Rb17 Si2 3.629971 1_655
Rb17 Si31 3.716752 1_656
Rb17 Si11 3.792709 1_545
Rb18 Si19 3.507691 1_455
Rb18 Si11 3.510274 1_455
Rb18 Si5 3.528886 1_555
Rb18 Si3 3.629971 1_455
Rb18 Si29 3.716752 1_455
Rb18 Si10 3.792709 1_555
Rb19 Si16 3.507691 1_555
Rb19 Si9 3.510274 1_555
Rb19 Si7 3.528886 1_555
Rb19 Si1 3.629971 1_555
Rb19 Si30 3.716752 1_554
Rb19 Si8 3.792709 1_555
Rb20 Si10 3.507691 1_555
Rb20 Si12 3.510274 1_555
Rb20 Si5 3.528886 1_555
Rb20 Si2 3.629971 1_555
Rb20 Si20 3.716752 1_555
Rb20 Si13 3.792709 1_556
Rb21 Si9 3.507691 1_565
Rb21 Si14 3.510274 1_565
Rb21 Si6 3.528886 1_555
Rb21 Si1 3.629971 1_565
Rb21 Si23 3.716752 1_665
Rb21 Si15 3.792709 1_554
Rb22 Si11 3.507691 1_545
Rb22 Si15 3.510274 1_545
Rb22 Si4 3.528886 1_555
Rb22 Si3 3.629971 1_545
Rb22 Si21 3.716752 1_545
Rb22 Si14 3.792709 1_555
Rb23 Si8 3.507691 1_555
Rb23 Si13 3.510274 1_555
Rb23 Si7 3.528886 1_555
Rb23 Si0 3.629971 1_555
Rb23 Si22 3.716752 1_455
Rb23 Si12 3.792709 1_555
Na0 Si18 2.936168 1_555
Na0 Si20 2.936168 1_554
Na0 Si30 2.936168 1_554
Na0 Si13 2.936168 1_555
Na0 Si25 2.936168 1_554
Na0 Si8 2.936168 1_555
Na1 Si28 2.936168 1_545
Na1 Si9 2.936168 1_555
Na1 Si14 2.936168 1_555
Na1 Si26 2.936168 1_545
Na1 Si21 2.936168 1_545
Na1 Si16 2.936168 1_555
Na2 Si10 2.936168 1_555
Na2 Si24 2.936168 1_455
Na2 Si17 2.936168 1_555
Na2 Si29 2.936168 1_455
Na2 Si12 2.936168 1_555
Na2 Si22 2.936168 1_455
Na3 Si23 2.936168 1_555
Na3 Si31 2.936168 1_555
Na3 Si11 2.936168 1_444
Na3 Si27 2.936168 1_555
Na3 Si15 2.936168 1_444
Na3 Si19 2.936168 1_444
Si0 Si13 2.386819 1_555
Si0 Si8 2.386819 1_555
Si0 Si18 2.386819 1_555
Si1 Si16 2.386819 1_555
Si1 Si9 2.386819 1_555
Si1 Si14 2.386819 1_555
Si10 Si2 2.386819 1_555
Si10 Si12 2.452026 1_555
Si10 Si17 2.452026 1_555
Si11 Si3 2.386819 1_555
Si11 Si19 2.452026 1_555
Si11 Si15 2.452026 1_555
Si12 Si2 2.386819 1_555
Si12 Si17 2.452026 1_555
Si13 Si8 2.452026 1_555
Si13 Si18 2.452026 1_555
Si14 Si16 2.452026 1_555
Si14 Si9 2.452026 1_555
Si15 Si3 2.386819 1_555
Si15 Si19 2.452026 1_555
Si16 Si9 2.452026 1_555
Si17 Si2 2.386819 1_555
Si18 Si8 2.452026 1_555
Si19 Si3 2.386819 1_555
Si20 Si4 2.386819 1_555
Si20 Si25 2.452026 1_555
Si20 Si30 2.452026 1_555
Si21 Si5 2.386819 1_555
Si21 Si28 2.452026 1_555
Si21 Si26 2.452026 1_555
Si22 Si6 2.386819 1_555
Si22 Si29 2.452026 1_555
Si22 Si24 2.452026 1_555
Si23 Si7 2.386819 1_555
Si23 Si31 2.452026 1_555
Si23 Si27 2.452026 1_555
Si24 Si6 2.386819 1_555
Si24 Si29 2.452026 1_555
Si25 Si4 2.386819 1_555
Si25 Si30 2.452026 1_555
Si26 Si5 2.386819 1_555
Si26 Si28 2.452026 1_555
Si27 Si7 2.386819 1_555
Si27 Si31 2.452026 1_555
Si28 Si5 2.386819 1_555
Si29 Si6 2.386819 1_555
Si30 Si4 2.386819 1_555
Si31 Si7 2.386819 1_555
