# generated using pymatgen
data_K3Ti4Ge3O20
_symmetry_space_group_name_H-M   'P 1'
_cell_length_a   11.20910200
_cell_length_b   11.20910200
_cell_length_c   7.94919700
_cell_angle_alpha   90.00000000
_cell_angle_beta   90.00000000
_cell_angle_gamma   90.00000000
_symmetry_Int_Tables_number   1
_chemical_formula_structural   K3Ti4Ge3O20
_chemical_formula_sum   'K6 Ti8 Ge6 O40'
_cell_volume   998.76865068
_cell_formula_units_Z   2
loop_
 _symmetry_equiv_pos_site_id
 _symmetry_equiv_pos_as_xyz
  1  'x, y, z'
loop_
 _atom_site_type_symbol
 _atom_site_label
 _atom_site_symmetry_multiplicity
 _atom_site_fract_x
 _atom_site_fract_y
 _atom_site_fract_z
 _atom_site_occupancy
  K  K0  1  0.26487600  0.76487600  0.50000000  1
  K  K1  1  0.23512400  0.26487600  0.50000000  1
  K  K2  1  0.73512400  0.23512400  0.50000000  1
  K  K3  1  0.76487600  0.73512400  0.50000000  1
  K  K4  1  0.50000000  0.00000000  0.00000000  1
  K  K5  1  0.00000000  0.50000000  0.00000000  1
  Ti  Ti0  1  0.50916700  0.64495700  0.85509100  1
  Ti  Ti1  1  0.99083300  0.14495700  0.85509100  1
  Ti  Ti2  1  0.49083300  0.35504300  0.85509100  1
  Ti  Ti3  1  0.00916700  0.85504300  0.85509100  1
  Ti  Ti4  1  0.64495700  0.49083300  0.14490900  1
  Ti  Ti5  1  0.85504300  0.99083300  0.14490900  1
  Ti  Ti6  1  0.35504300  0.50916700  0.14490900  1
  Ti  Ti7  1  0.14495700  0.00916700  0.14490900  1
  Ge  Ge0  1  0.26992300  0.76992300  0.00000000  1
  Ge  Ge1  1  0.23007700  0.26992300  0.00000000  1
  Ge  Ge2  1  0.73007700  0.23007700  0.00000000  1
  Ge  Ge3  1  0.76992300  0.73007700  0.00000000  1
  Ge  Ge4  1  0.50000000  0.50000000  0.50000000  1
  Ge  Ge5  1  0.00000000  0.00000000  0.50000000  1
  O  O0  1  0.26086400  0.65075500  0.14399000  1
  O  O1  1  0.23913600  0.15075500  0.14399000  1
  O  O2  1  0.73913600  0.34924500  0.14399000  1
  O  O3  1  0.76086400  0.84924500  0.14399000  1
  O  O4  1  0.65075500  0.73913600  0.85601000  1
  O  O5  1  0.84924500  0.23913600  0.85601000  1
  O  O6  1  0.34924500  0.26086400  0.85601000  1
  O  O7  1  0.15075500  0.76086400  0.85601000  1
  O  O8  1  0.40084300  0.77116300  0.87679600  1
  O  O9  1  0.09915700  0.27116300  0.87679600  1
  O  O10  1  0.59915700  0.22883700  0.87679600  1
  O  O11  1  0.90084300  0.72883700  0.87679600  1
  O  O12  1  0.77116300  0.59915700  0.12320400  1
  O  O13  1  0.72883700  0.09915700  0.12320400  1
  O  O14  1  0.22883700  0.40084300  0.12320400  1
  O  O15  1  0.27116300  0.90084300  0.12320400  1
  O  O16  1  0.51329100  0.61398100  0.11164900  1
  O  O17  1  0.98670900  0.11398100  0.11164900  1
  O  O18  1  0.48670900  0.38601900  0.11164900  1
  O  O19  1  0.01329100  0.88601900  0.11164900  1
  O  O20  1  0.61398100  0.48670900  0.88835100  1
  O  O21  1  0.88601900  0.98670900  0.88835100  1
  O  O22  1  0.38601900  0.51329100  0.88835100  1
  O  O23  1  0.11398100  0.01329100  0.88835100  1
  O  O24  1  0.49616000  0.36803100  0.61969300  1
  O  O25  1  0.00384000  0.86803100  0.61969300  1
  O  O26  1  0.50384000  0.63196900  0.61969300  1
  O  O27  1  0.99616000  0.13196900  0.61969300  1
  O  O28  1  0.36803100  0.50384000  0.38030700  1
  O  O29  1  0.13196900  0.00384000  0.38030700  1
  O  O30  1  0.63196900  0.49616000  0.38030700  1
  O  O31  1  0.86803100  0.99616000  0.38030700  1
  O  O32  1  0.55252600  0.80245300  0.23990500  1
  O  O33  1  0.94747400  0.30245300  0.23990500  1
  O  O34  1  0.44747400  0.19754700  0.23990500  1
  O  O35  1  0.05252600  0.69754700  0.23990500  1
  O  O36  1  0.80245300  0.44747400  0.76009500  1
  O  O37  1  0.69754700  0.94747400  0.76009500  1
  O  O38  1  0.19754700  0.55252600  0.76009500  1
  O  O39  1  0.30245300  0.05252600  0.76009500  1
loop_
_geom_bond_atom_site_label_1
_geom_bond_atom_site_label_2
_geom_bond_distance
_geom_bond_site_symmetry_2
K0 O0 3.105998 1_555
K0 O7 3.105998 1_555
K0 O26 3.209274 1_555
K0 O29 3.209274 1_565
K0 O35 3.241901 1_555
K0 O38 3.241901 1_555
K0 O28 3.286884 1_555
K0 O25 3.286884 1_555
K0 O15 3.361417 1_555
K0 O8 3.361417 1_555
K1 O1 3.105998 1_555
K1 O6 3.105998 1_555
K1 O28 3.209274 1_555
K1 O27 3.209274 1_455
K1 O34 3.241901 1_555
K1 O39 3.241901 1_555
K1 O29 3.286884 1_555
K1 O24 3.286884 1_555
K1 O14 3.361417 1_555
K1 O9 3.361417 1_555
K2 O2 3.105998 1_555
K2 O5 3.105998 1_555
K2 O31 3.209274 1_545
K2 O24 3.209274 1_555
K2 O36 3.241901 1_555
K2 O33 3.241901 1_555
K2 O30 3.286884 1_555
K2 O27 3.286884 1_555
K2 O10 3.361417 1_555
K2 O13 3.361417 1_555
K3 O3 3.105998 1_555
K3 O4 3.105998 1_555
K3 O30 3.209274 1_555
K3 O25 3.209274 1_655
K3 O32 3.241901 1_555
K3 O37 3.241901 1_555
K3 O26 3.286884 1_555
K3 O31 3.286884 1_555
K3 O11 3.361417 1_555
K3 O12 3.361417 1_555
K4 O8 2.962100 1_544
K4 O13 2.962100 1_555
K4 O15 2.962100 1_545
K4 O10 2.962100 1_554
K4 O39 2.981062 1_554
K4 O34 2.981062 1_555
K4 O37 2.981062 1_544
K4 O32 2.981062 1_545
K5 O12 2.962100 1_455
K5 O11 2.962100 1_454
K5 O14 2.962100 1_555
K5 O9 2.962100 1_554
K5 O33 2.981062 1_455
K5 O36 2.981062 1_454
K5 O38 2.981062 1_554
K5 O35 2.981062 1_555
Ge0 O7 1.762017 1_554
Ge0 O0 1.762017 1_555
Ge0 O15 1.764343 1_555
Ge0 O8 1.764343 1_554
Ge1 O6 1.762017 1_554
Ge1 O1 1.762017 1_555
Ge1 O14 1.764343 1_555
Ge1 O9 1.764343 1_554
Ge2 O5 1.762017 1_554
Ge2 O2 1.762017 1_555
Ge2 O10 1.764343 1_554
Ge2 O13 1.764343 1_555
Ge3 O4 1.762017 1_554
Ge3 O3 1.762017 1_555
Ge3 O12 1.764343 1_555
Ge3 O11 1.764343 1_554
Ge4 O28 1.759354 1_555
Ge4 O30 1.759354 1_555
Ge4 O24 1.759354 1_555
Ge4 O26 1.759354 1_555
Ge5 O31 1.759354 1_445
Ge5 O29 1.759354 1_555
Ge5 O27 1.759354 1_455
Ge5 O25 1.759354 1_545
O0 Ti6 1.906117 1_555
O1 Ti7 1.906117 1_555
O2 Ti4 1.906117 1_555
O3 Ti5 1.906117 1_555
O4 Ti0 1.906117 1_555
O5 Ti1 1.906117 1_555
O6 Ti2 1.906117 1_555
O7 Ti3 1.906117 1_555
O8 Ti0 1.872255 1_555
O9 Ti1 1.872255 1_455
O10 Ti2 1.872255 1_555
O11 Ti3 1.872255 1_655
O12 Ti4 1.872255 1_555
O13 Ti5 1.872255 1_545
O14 Ti6 1.872255 1_555
O15 Ti7 1.872255 1_565
O16 Ti4 2.038014 1_555
O16 Ti0 2.069292 1_554
O16 Ti6 2.143981 1_555
O17 Ti5 2.038014 1_545
O17 Ti1 2.069292 1_554
O17 Ti7 2.143981 1_655
O18 Ti6 2.038014 1_555
O18 Ti2 2.069292 1_554
O18 Ti4 2.143981 1_555
O19 Ti7 2.038014 1_565
O19 Ti3 2.069292 1_554
O19 Ti5 2.143981 1_455
O20 Ti2 2.038014 1_555
O20 Ti4 2.069292 1_556
O20 Ti0 2.143981 1_555
O21 Ti3 2.038014 1_655
O21 Ti5 2.069292 1_556
O21 Ti1 2.143981 1_565
O22 Ti0 2.038014 1_555
O22 Ti6 2.069292 1_556
O22 Ti2 2.143981 1_555
O23 Ti1 2.038014 1_455
O23 Ti7 2.069292 1_556
O23 Ti3 2.143981 1_545
O24 Ti2 1.877829 1_555
O25 Ti3 1.877829 1_555
O26 Ti0 1.877829 1_555
O27 Ti1 1.877829 1_555
O28 Ti6 1.877829 1_555
O29 Ti7 1.877829 1_555
O30 Ti4 1.877829 1_555
O31 Ti5 1.877829 1_555
