# generated using pymatgen
data_KLiGdF5
_symmetry_space_group_name_H-M   'P 1'
_cell_length_a   6.52898266
_cell_length_b   6.33609699
_cell_length_c   11.73076194
_cell_angle_alpha   90.00000000
_cell_angle_beta   90.00000000
_cell_angle_gamma   113.40980152
_symmetry_Int_Tables_number   1
_chemical_formula_structural   KLiGdF5
_chemical_formula_sum   'K4 Li4 Gd4 F20'
_cell_volume   445.33617877
_cell_formula_units_Z   4
loop_
 _symmetry_equiv_pos_site_id
 _symmetry_equiv_pos_as_xyz
  1  'x, y, z'
loop_
 _atom_site_type_symbol
 _atom_site_label
 _atom_site_symmetry_multiplicity
 _atom_site_fract_x
 _atom_site_fract_y
 _atom_site_fract_z
 _atom_site_occupancy
  K  K0  1  0.94604772  0.96109419  0.34853170  1
  K  K1  1  0.05395228  0.03890581  0.65146830  1
  K  K2  1  0.05395228  0.53890581  0.84853170  1
  K  K3  1  0.94604772  0.46109419  0.15146830  1
  Li  Li0  1  0.55883568  0.96016202  0.74412780  1
  Li  Li1  1  0.44116432  0.03983798  0.25587220  1
  Li  Li2  1  0.44116432  0.53983798  0.24412780  1
  Li  Li3  1  0.55883568  0.46016202  0.75587220  1
  Gd  Gd0  1  0.68264215  0.82024576  0.99628904  1
  Gd  Gd1  1  0.31735785  0.17975424  0.00371096  1
  Gd  Gd2  1  0.31735785  0.67975424  0.49628904  1
  Gd  Gd3  1  0.68264215  0.32024576  0.50371096  1
  F  F0  1  0.72096933  0.77757857  0.79916985  1
  F  F1  1  0.27903067  0.22242143  0.20083015  1
  F  F2  1  0.27903067  0.72242143  0.29916985  1
  F  F3  1  0.72096933  0.27757857  0.70083015  1
  F  F4  1  0.66591498  0.95066109  0.53712641  1
  F  F5  1  0.33408502  0.04933891  0.46287359  1
  F  F6  1  0.33408502  0.54933891  0.03712641  1
  F  F7  1  0.66591498  0.45066109  0.96287359  1
  F  F8  1  0.95727833  0.67832245  0.50785223  1
  F  F9  1  0.04272167  0.32167755  0.49214777  1
  F  F10  1  0.04272167  0.82167755  0.00785223  1
  F  F11  1  0.95727833  0.17832245  0.99214777  1
  F  F12  1  0.45921885  0.96105079  0.89249038  1
  F  F13  1  0.54078115  0.03894921  0.10750962  1
  F  F14  1  0.54078115  0.53894921  0.39249038  1
  F  F15  1  0.45921885  0.46105079  0.60750962  1
  F  F16  1  0.28890755  0.78799645  0.67619674  1
  F  F17  1  0.71109245  0.21200355  0.32380326  1
  F  F18  1  0.71109245  0.71200355  0.17619674  1
  F  F19  1  0.28890755  0.28799645  0.82380326  1
loop_
_geom_bond_atom_site_label_1
_geom_bond_atom_site_label_2
_geom_bond_distance
_geom_bond_site_symmetry_2
F0 Li3 1.931759 1_555
F0 Li0 1.961864 1_555
F0 Gd0 2.352968 1_555
F0 K1 2.758583 1_665
F0 K2 3.156121 1_655
F1 Li2 1.931759 1_555
F1 Li1 1.961864 1_555
F1 Gd1 2.352968 1_555
F1 K0 2.758583 1_445
F1 K3 3.156121 1_455
F2 Li1 1.931759 1_565
F2 Li2 1.961864 1_555
F2 Gd2 2.352968 1_555
F2 K3 2.758583 1_455
F2 K0 3.156121 1_455
F3 Li0 1.931759 1_545
F3 Li3 1.961864 1_555
F3 Gd3 2.352968 1_555
F3 K2 2.758583 1_655
F3 K1 3.156121 1_655
F4 Gd2 2.291463 1_555
F4 Gd3 2.333675 1_565
F4 Li0 2.534245 1_555
F4 K1 2.721162 1_665
F4 K0 2.854471 1_555
F5 Gd3 2.291463 1_555
F5 Gd2 2.333675 1_545
F5 Li1 2.534245 1_555
F5 K0 2.721162 1_445
F5 K1 2.854471 1_555
F6 Gd0 2.291463 1_554
F6 Gd1 2.333675 1_555
F6 Li2 2.534245 1_555
F6 K3 2.721162 1_455
F6 K2 2.854471 1_554
F7 Gd1 2.291463 1_556
F7 Gd0 2.333675 1_555
F7 Li3 2.534245 1_555
F7 K2 2.721162 1_655
F7 K3 2.854471 1_556
F8 Gd3 2.265484 1_555
F8 Gd2 2.351279 1_655
F8 K0 2.610139 1_555
F8 K1 2.703818 1_665
F9 Gd2 2.265484 1_555
F9 Gd3 2.351279 1_455
F9 K1 2.610139 1_555
F9 K0 2.703818 1_445
F10 Gd1 2.265484 1_565
F10 Gd0 2.351279 1_454
F10 K2 2.610139 1_554
F10 K3 2.703818 1_455
F11 Gd0 2.265484 1_545
F11 Gd1 2.351279 1_656
F11 K3 2.610139 1_556
F11 K2 2.703818 1_655
F12 Li0 1.858755 1_555
F12 Gd0 2.332504 1_555
F12 Gd1 2.345252 1_566
F12 K2 2.966090 1_555
F13 Li1 1.858755 1_555
F13 Gd1 2.332504 1_555
F13 Gd0 2.345252 1_544
F13 K3 2.966090 1_555
F14 Li2 1.858755 1_555
F14 Gd2 2.332504 1_555
F14 Gd3 2.345252 1_555
F14 K0 2.966090 1_555
F15 Li3 1.858755 1_555
F15 Gd3 2.332504 1_555
F15 Gd2 2.345252 1_555
F15 K1 2.966090 1_555
F16 Li0 1.844796 1_555
F16 Gd2 2.249470 1_555
F16 K1 2.627289 1_565
F16 K2 2.647123 1_555
F17 Li1 1.844796 1_555
F17 Gd3 2.249470 1_555
F17 K0 2.627289 1_545
F17 K3 2.647123 1_555
F18 Li2 1.844796 1_555
F18 Gd0 2.249470 1_554
F18 K3 2.627289 1_555
F18 K0 2.647123 1_555
F19 Li3 1.844796 1_555
F19 Gd1 2.249470 1_556
F19 K2 2.627289 1_555
F19 K1 2.647123 1_555
