# generated using pymatgen
data_Dy2FeC4
_symmetry_space_group_name_H-M   'P 1'
_cell_length_a   5.02413200
_cell_length_b   6.58485616
_cell_length_c   6.58485616
_cell_angle_alpha   69.10207247
_cell_angle_beta   67.57390592
_cell_angle_gamma   67.57390592
_symmetry_Int_Tables_number   1
_chemical_formula_structural   Dy2FeC4
_chemical_formula_sum   'Dy4 Fe2 C8'
_cell_volume   180.36936566
_cell_formula_units_Z   2
loop_
 _symmetry_equiv_pos_site_id
 _symmetry_equiv_pos_as_xyz
  1  'x, y, z'
loop_
 _atom_site_type_symbol
 _atom_site_label
 _atom_site_symmetry_multiplicity
 _atom_site_fract_x
 _atom_site_fract_y
 _atom_site_fract_z
 _atom_site_occupancy
  Dy  Dy0  1  0.64466500  0.19828200  0.51238800  1
  Dy  Dy1  1  0.35533500  0.80171800  0.48761200  1
  Dy  Dy2  1  0.14466500  0.51238800  0.19828200  1
  Dy  Dy3  1  0.85533500  0.48761200  0.80171800  1
  Fe  Fe0  1  0.25000000  0.00000000  0.00000000  1
  Fe  Fe1  1  0.75000000  0.00000000  0.00000000  1
  C  C0  1  0.87182300  0.79088200  0.46547100  1
  C  C1  1  0.12817700  0.20911800  0.53452900  1
  C  C2  1  0.37182300  0.46547100  0.79088200  1
  C  C3  1  0.62817700  0.53452900  0.20911800  1
  C  C4  1  0.92234700  0.91275300  0.24255200  1
  C  C5  1  0.07765300  0.08724700  0.75744800  1
  C  C6  1  0.42234700  0.24255200  0.91275300  1
  C  C7  1  0.57765300  0.75744800  0.08724700  1
loop_
_geom_bond_atom_site_label_1
_geom_bond_atom_site_label_2
_geom_bond_distance
_geom_bond_site_symmetry_2
C0 C4 1.376187 1_555
C0 Dy3 2.393553 1_555
C0 Dy1 2.517413 1_555
C0 Dy1 2.517418 1_655
C0 Dy0 2.565331 1_565
C0 Dy2 2.623202 1_655
C1 C5 1.376187 1_555
C1 Dy2 2.393553 1_555
C1 Dy0 2.517413 1_555
C1 Dy0 2.517418 1_455
C1 Dy1 2.565331 1_545
C1 Dy3 2.623202 1_455
C2 C6 1.376187 1_555
C2 Dy1 2.393553 1_555
C2 Dy3 2.517413 1_455
C2 Dy3 2.517418 1_555
C2 Dy2 2.565331 1_556
C2 Dy0 2.623202 1_555
C3 C7 1.376187 1_555
C3 Dy0 2.393553 1_555
C3 Dy2 2.517413 1_655
C3 Dy2 2.517418 1_555
C3 Dy3 2.565331 1_554
C3 Dy1 2.623202 1_555
C4 Fe1 1.910969 1_565
C4 Fe0 1.910973 1_665
C4 Dy2 2.517139 1_655
C4 Dy0 2.670043 1_565
C5 Fe0 1.910969 1_556
C5 Fe1 1.910973 1_456
C5 Dy3 2.517139 1_455
C5 Dy1 2.670043 1_545
C6 Fe0 1.910969 1_556
C6 Fe1 1.910973 1_556
C6 Dy0 2.517139 1_555
C6 Dy2 2.670043 1_556
C7 Fe1 1.910969 1_565
C7 Fe0 1.910973 1_565
C7 Dy1 2.517139 1_555
C7 Dy3 2.670043 1_554
