# generated using pymatgen
data_RbHo(MoO4)2
_symmetry_space_group_name_H-M   'P 1'
_cell_length_a   5.14660800
_cell_length_b   8.19889400
_cell_length_c   19.14372500
_cell_angle_alpha   90.00000000
_cell_angle_beta   90.00000000
_cell_angle_gamma   90.00000000
_symmetry_Int_Tables_number   1
_chemical_formula_structural   RbHo(MoO4)2
_chemical_formula_sum   'Rb4 Ho4 Mo8 O32'
_cell_volume   807.79806660
_cell_formula_units_Z   4
loop_
 _symmetry_equiv_pos_site_id
 _symmetry_equiv_pos_as_xyz
  1  'x, y, z'
loop_
 _atom_site_type_symbol
 _atom_site_label
 _atom_site_symmetry_multiplicity
 _atom_site_fract_x
 _atom_site_fract_y
 _atom_site_fract_z
 _atom_site_occupancy
  Rb  Rb0  1  0.00000000  0.75000000  0.77105800  1
  Rb  Rb1  1  0.00000000  0.25000000  0.22894200  1
  Rb  Rb2  1  0.50000000  0.25000000  0.72894200  1
  Rb  Rb3  1  0.50000000  0.75000000  0.27105800  1
  Ho  Ho0  1  0.00000000  0.75000000  0.00655600  1
  Ho  Ho1  1  0.00000000  0.25000000  0.99344400  1
  Ho  Ho2  1  0.50000000  0.25000000  0.49344400  1
  Ho  Ho3  1  0.50000000  0.75000000  0.50655600  1
  Mo  Mo0  1  0.02521500  0.51519000  0.40310900  1
  Mo  Mo1  1  0.97478500  0.48481000  0.59689100  1
  Mo  Mo2  1  0.47478500  0.01519000  0.09689100  1
  Mo  Mo3  1  0.97478500  0.98481000  0.40310900  1
  Mo  Mo4  1  0.52521500  0.98481000  0.90310900  1
  Mo  Mo5  1  0.02521500  0.01519000  0.59689100  1
  Mo  Mo6  1  0.52521500  0.48481000  0.09689100  1
  Mo  Mo7  1  0.47478500  0.51519000  0.90310900  1
  O  O0  1  0.09119300  0.97562800  0.31696800  1
  O  O1  1  0.90880700  0.02437200  0.68303200  1
  O  O2  1  0.40880700  0.47562800  0.18303200  1
  O  O3  1  0.90880700  0.52437200  0.31696800  1
  O  O4  1  0.59119300  0.52437200  0.81696800  1
  O  O5  1  0.09119300  0.47562800  0.68303200  1
  O  O6  1  0.59119300  0.02437200  0.18303200  1
  O  O7  1  0.40880700  0.97562800  0.81696800  1
  O  O8  1  0.26587900  0.83932200  0.09451700  1
  O  O9  1  0.73412100  0.16067800  0.90548300  1
  O  O10  1  0.23412100  0.33932200  0.40548300  1
  O  O11  1  0.73412100  0.66067800  0.09451700  1
  O  O12  1  0.76587900  0.66067800  0.59451700  1
  O  O13  1  0.26587900  0.33932200  0.90548300  1
  O  O14  1  0.76587900  0.16067800  0.40548300  1
  O  O15  1  0.23412100  0.83932200  0.59451700  1
  O  O16  1  0.24690800  0.50616200  0.03518500  1
  O  O17  1  0.75309200  0.49383800  0.96481500  1
  O  O18  1  0.25309200  0.00616200  0.46481500  1
  O  O19  1  0.75309200  0.99383800  0.03518500  1
  O  O20  1  0.74690800  0.99383800  0.53518500  1
  O  O21  1  0.24690800  0.00616200  0.96481500  1
  O  O22  1  0.74690800  0.49383800  0.46481500  1
  O  O23  1  0.25309200  0.50616200  0.53518500  1
  O  O24  1  0.24216300  0.68865700  0.41359300  1
  O  O25  1  0.75783700  0.31134300  0.58640700  1
  O  O26  1  0.25783700  0.18865700  0.08640700  1
  O  O27  1  0.75783700  0.81134300  0.41359300  1
  O  O28  1  0.74216300  0.81134300  0.91359300  1
  O  O29  1  0.24216300  0.18865700  0.58640700  1
  O  O30  1  0.74216300  0.31134300  0.08640700  1
  O  O31  1  0.25783700  0.68865700  0.91359300  1
loop_
_geom_bond_atom_site_label_1
_geom_bond_atom_site_label_2
_geom_bond_distance
_geom_bond_site_symmetry_2
Ho0 O28 2.276187 1_454
Ho0 O31 2.276187 1_554
Ho0 O8 2.290043 1_555
Ho0 O11 2.290043 1_455
Ho0 O19 2.431452 1_455
Ho0 O16 2.431452 1_555
Ho0 O17 2.581537 1_454
Ho0 O21 2.581537 1_564
Ho1 O26 2.276187 1_556
Ho1 O30 2.276187 1_456
Ho1 O13 2.290043 1_555
Ho1 O9 2.290043 1_455
Ho1 O17 2.431452 1_455
Ho1 O21 2.431452 1_555
Ho1 O19 2.581537 1_446
Ho1 O16 2.581537 1_556
Ho2 O25 2.276187 1_555
Ho2 O29 2.276187 1_555
Ho2 O10 2.290043 1_555
Ho2 O14 2.290043 1_555
Ho2 O18 2.431452 1_555
Ho2 O22 2.431452 1_555
Ho2 O20 2.581537 1_545
Ho2 O23 2.581537 1_555
Ho3 O27 2.276187 1_555
Ho3 O24 2.276187 1_555
Ho3 O12 2.290043 1_555
Ho3 O15 2.290043 1_555
Ho3 O20 2.431452 1_555
Ho3 O23 2.431452 1_555
Ho3 O22 2.581537 1_555
Ho3 O18 2.581537 1_565
Mo0 O3 1.756130 1_455
Mo0 O10 1.799214 1_555
Mo0 O24 1.819263 1_555
Mo0 O22 1.864850 1_455
Mo1 O5 1.756130 1_655
Mo1 O12 1.799214 1_555
Mo1 O25 1.819263 1_555
Mo1 O23 1.864850 1_655
Mo2 O6 1.756130 1_555
Mo2 O8 1.799214 1_545
Mo2 O26 1.819263 1_555
Mo2 O19 1.864850 1_545
Mo3 O0 1.756130 1_655
Mo3 O14 1.799214 1_565
Mo3 O27 1.819263 1_555
Mo3 O18 1.864850 1_665
Mo4 O7 1.756130 1_555
Mo4 O9 1.799214 1_565
Mo4 O28 1.819263 1_555
Mo4 O21 1.864850 1_565
Mo5 O1 1.756130 1_455
Mo5 O15 1.799214 1_545
Mo5 O29 1.819263 1_555
Mo5 O20 1.864850 1_445
Mo6 O2 1.756130 1_555
Mo6 O11 1.799214 1_555
Mo6 O30 1.819263 1_555
Mo6 O16 1.864850 1_555
Mo7 O4 1.756130 1_555
Mo7 O13 1.799214 1_555
Mo7 O31 1.819263 1_555
Mo7 O17 1.864850 1_555
O0 Rb1 2.849641 1_565
O0 Rb3 2.936199 1_555
O1 Rb0 2.849641 1_645
O1 Rb2 2.936199 1_555
O2 Rb3 2.849641 1_555
O2 Rb1 2.936199 1_555
O3 Rb1 2.849641 1_655
O3 Rb3 2.936199 1_555
O4 Rb2 2.849641 1_555
O4 Rb0 2.936199 1_655
O5 Rb0 2.849641 1_555
O5 Rb2 2.936199 1_555
O6 Rb3 2.849641 1_545
O6 Rb1 2.936199 1_655
O7 Rb2 2.849641 1_565
O7 Rb0 2.936199 1_555
O24 Rb3 3.075611 1_555
O25 Rb2 3.075611 1_555
O26 Rb1 3.075611 1_555
O27 Rb3 3.075611 1_555
O28 Rb0 3.075611 1_655
O29 Rb2 3.075611 1_555
O30 Rb1 3.075611 1_655
O31 Rb0 3.075611 1_555
