# generated using pymatgen
data_K2HgBiCl6
_symmetry_space_group_name_H-M   'P 1'
_cell_length_a   7.87835041
_cell_length_b   7.87835041
_cell_length_c   7.87835041
_cell_angle_alpha   60.00000000
_cell_angle_beta   60.00000000
_cell_angle_gamma   60.00000000
_symmetry_Int_Tables_number   1
_chemical_formula_structural   K2HgBiCl6
_chemical_formula_sum   'K2 Hg1 Bi1 Cl6'
_cell_volume   345.77284405
_cell_formula_units_Z   1
loop_
 _symmetry_equiv_pos_site_id
 _symmetry_equiv_pos_as_xyz
  1  'x, y, z'
loop_
 _atom_site_type_symbol
 _atom_site_label
 _atom_site_symmetry_multiplicity
 _atom_site_fract_x
 _atom_site_fract_y
 _atom_site_fract_z
 _atom_site_occupancy
  K  K0  1  0.75000000  0.75000000  0.75000000  1
  K  K1  1  0.25000000  0.25000000  0.25000000  1
  Hg  Hg0  1  0.50000000  0.50000000  0.50000000  1
  Bi  Bi0  1  0.00000000  0.00000000  0.00000000  1
  Cl  Cl0  1  0.75591200  0.24408800  0.24408800  1
  Cl  Cl1  1  0.24408800  0.24408800  0.75591200  1
  Cl  Cl2  1  0.24408800  0.75591200  0.75591200  1
  Cl  Cl3  1  0.24408800  0.75591200  0.24408800  1
  Cl  Cl4  1  0.75591200  0.24408800  0.75591200  1
  Cl  Cl5  1  0.75591200  0.75591200  0.24408800  1
loop_
_geom_bond_atom_site_label_1
_geom_bond_atom_site_label_2
_geom_bond_distance
_geom_bond_site_symmetry_2
Bi0 Cl0 2.719548 1_455
Bi0 Cl3 2.719548 1_545
Bi0 Cl1 2.719548 1_554
Bi0 Cl5 2.719548 1_445
Bi0 Cl2 2.719548 1_544
Bi0 Cl4 2.719548 1_454
Cl0 Hg0 2.851287 1_555
Cl1 Hg0 2.851287 1_555
Cl2 Hg0 2.851287 1_555
Cl3 Hg0 2.851287 1_555
Cl4 Hg0 2.851287 1_555
Cl5 Hg0 2.851287 1_555
