# generated using pymatgen
data_BaSr3Mn3O10
_symmetry_space_group_name_H-M   'P 1'
_cell_length_a   5.61224599
_cell_length_b   6.97255869
_cell_length_c   12.93134816
_cell_angle_alpha   90.28545270
_cell_angle_beta   90.00000000
_cell_angle_gamma   66.26841605
_symmetry_Int_Tables_number   1
_chemical_formula_structural   BaSr3Mn3O10
_chemical_formula_sum   'Ba2 Sr6 Mn6 O20'
_cell_volume   463.22986776
_cell_formula_units_Z   2
loop_
 _symmetry_equiv_pos_site_id
 _symmetry_equiv_pos_as_xyz
  1  'x, y, z'
loop_
 _atom_site_type_symbol
 _atom_site_label
 _atom_site_symmetry_multiplicity
 _atom_site_fract_x
 _atom_site_fract_y
 _atom_site_fract_z
 _atom_site_occupancy
  Ba  Ba0  1  0.96603914  0.06792171  0.64477846  1
  Ba  Ba1  1  0.03396086  0.93207829  0.35522154  1
  Sr  Sr0  1  0.53042179  0.93915641  0.14230106  1
  Sr  Sr1  1  0.46957821  0.06084359  0.85769894  1
  Sr  Sr2  1  0.75921608  0.48156784  0.89059751  1
  Sr  Sr3  1  0.24078392  0.51843216  0.10940249  1
  Sr  Sr4  1  0.74041434  0.51917131  0.39049515  1
  Sr  Sr5  1  0.25958566  0.48082869  0.60950485  1
  Mn  Mn0  1  0.63024122  0.73951756  0.65249463  1
  Mn  Mn1  1  0.36975878  0.26048244  0.34750537  1
  Mn  Mn2  1  0.86722447  0.26555106  0.15148943  1
  Mn  Mn3  1  0.13277553  0.73444894  0.84851057  1
  Mn  Mn4  1  0.50000000  0.00000000  0.50000000  1
  Mn  Mn5  1  -0.00000000  0.00000000  0.00000000  1
  O  O0  1  0.53701860  0.92596280  0.35464922  1
  O  O1  1  0.46298140  0.07403720  0.64535078  1
  O  O2  1  0.96243139  0.07513722  0.85674827  1
  O  O3  1  0.03756861  0.92486278  0.14325173  1
  O  O4  1  0.38604984  0.78163838  0.53704637  1
  O  O5  1  0.16768823  0.21836162  0.46295363  1
  O  O6  1  0.66546364  0.21466933  0.03797415  1
  O  O7  1  0.88013297  0.78533067  0.96202585  1
  O  O8  1  0.61395016  0.21836162  0.46295363  1
  O  O9  1  0.83231177  0.78163838  0.53704637  1
  O  O10  1  0.33453636  0.78533067  0.96202585  1
  O  O11  1  0.11986703  0.21466933  0.03797415  1
  O  O12  1  0.37345565  0.75901795  0.75236067  1
  O  O13  1  0.13247360  0.24098205  0.24763933  1
  O  O14  1  0.62654435  0.24098205  0.24763933  1
  O  O15  1  0.86752640  0.75901795  0.75236067  1
  O  O16  1  0.77042949  0.45914102  0.64657412  1
  O  O17  1  0.22957051  0.54085898  0.35342588  1
  O  O18  1  0.72438793  0.55122415  0.14698447  1
  O  O19  1  0.27561207  0.44877585  0.85301553  1
loop_
_geom_bond_atom_site_label_1
_geom_bond_atom_site_label_2
_geom_bond_distance
_geom_bond_site_symmetry_2
Ba0 O16 2.497121 1_555
Ba0 O2 2.741192 1_555
Ba0 O4 2.768882 1_645
Ba0 O9 2.768882 1_545
Ba0 O12 2.805081 1_645
Ba0 O15 2.805081 1_545
Ba0 O1 2.806404 1_555
Ba0 O1 2.806404 1_655
Ba0 O8 2.981520 1_555
Ba0 O5 2.981520 1_655
Ba1 O17 2.497121 1_555
Ba1 O3 2.741192 1_555
Ba1 O8 2.768882 1_465
Ba1 O5 2.768882 1_565
Ba1 O14 2.805081 1_465
Ba1 O13 2.805081 1_565
Ba1 O0 2.806404 1_555
Ba1 O0 2.806404 1_455
Ba1 O4 2.981520 1_555
Ba1 O9 2.981520 1_455
Mn0 O16 1.790854 1_555
Mn0 O12 1.898324 1_555
Mn0 O15 1.898324 1_555
Mn0 O9 1.968141 1_555
Mn0 O4 1.968141 1_555
Mn0 O1 2.137727 1_565
Mn1 O17 1.790854 1_555
Mn1 O14 1.898324 1_555
Mn1 O13 1.898324 1_555
Mn1 O5 1.968141 1_555
Mn1 O8 1.968141 1_555
Mn1 O0 2.137727 1_545
Mn2 O18 1.824689 1_555
Mn2 O13 1.894248 1_655
Mn2 O14 1.894248 1_555
Mn2 O11 1.970012 1_655
Mn2 O6 1.970012 1_555
Mn2 O3 2.176630 1_645
Mn3 O19 1.824689 1_555
Mn3 O15 1.894248 1_455
Mn3 O12 1.894248 1_555
Mn3 O7 1.970012 1_455
Mn3 O10 1.970012 1_555
Mn3 O2 2.176630 1_465
Mn4 O1 1.935585 1_555
Mn4 O0 1.935585 1_545
Mn4 O9 1.935872 1_545
Mn4 O5 1.935872 1_555
Mn4 O8 1.935872 1_555
Mn4 O4 1.935872 1_545
Mn5 O3 1.916040 1_545
Mn5 O2 1.916040 1_454
Mn5 O10 1.933195 1_544
Mn5 O6 1.933195 1_455
Mn5 O11 1.933196 1_555
Mn5 O7 1.933196 1_444
O0 Sr4 2.640069 1_555
O0 Sr0 2.747697 1_555
O1 Sr5 2.640069 1_555
O1 Sr1 2.747697 1_555
O2 Sr2 2.628551 1_555
O2 Sr1 2.807635 1_555
O2 Sr1 2.807635 1_655
O3 Sr3 2.628551 1_555
O3 Sr0 2.807635 1_555
O3 Sr0 2.807635 1_455
O4 Sr5 2.645490 1_555
O4 Sr4 2.816332 1_555
O5 Sr4 2.645490 1_455
O5 Sr5 2.816332 1_555
O6 Sr3 2.633822 1_555
O6 Sr0 2.698609 1_545
O6 Sr2 2.862780 1_554
O6 Sr1 2.952565 1_554
O7 Sr2 2.633823 1_555
O7 Sr1 2.698609 1_565
O7 Sr3 2.862780 1_656
O7 Sr0 2.952565 1_556
O8 Sr4 2.645490 1_555
O8 Sr5 2.816332 1_555
O9 Sr5 2.645490 1_655
O9 Sr4 2.816332 1_555
O10 Sr2 2.633822 1_555
O10 Sr1 2.698609 1_565
O10 Sr3 2.862780 1_556
O10 Sr0 2.952565 1_556
O11 Sr3 2.633823 1_555
O11 Sr0 2.698609 1_545
O11 Sr2 2.862780 1_454
O11 Sr1 2.952565 1_554
O12 Sr1 2.731422 1_565
O12 Sr2 2.878955 1_555
O12 Sr5 2.923259 1_555
O13 Sr0 2.731422 1_545
O13 Sr3 2.878955 1_555
O13 Sr4 2.923259 1_455
O14 Sr0 2.731422 1_545
O14 Sr3 2.878955 1_555
O14 Sr4 2.923259 1_555
O15 Sr1 2.731422 1_565
O15 Sr2 2.878955 1_555
O15 Sr5 2.923259 1_655
O16 Sr5 2.850262 1_555
O16 Sr5 2.850262 1_655
O16 Sr2 3.158018 1_555
O17 Sr4 2.850262 1_555
O17 Sr4 2.850262 1_455
O17 Sr3 3.158018 1_555
O18 Sr0 2.477228 1_555
O18 Sr3 2.855383 1_655
O18 Sr3 2.855383 1_555
O18 Sr4 3.156672 1_555
O19 Sr1 2.477228 1_555
O19 Sr2 2.855383 1_455
O19 Sr2 2.855383 1_555
O19 Sr5 3.156672 1_555
