# generated using pymatgen
data_Tb3Ga2
_symmetry_space_group_name_H-M   'P 1'
_cell_length_a   11.09735750
_cell_length_b   11.09735750
_cell_length_c   11.09735750
_cell_angle_alpha   95.90135413
_cell_angle_beta   116.65338250
_cell_angle_gamma   116.65338250
_symmetry_Int_Tables_number   1
_chemical_formula_structural   Tb3Ga2
_chemical_formula_sum   'Tb24 Ga16'
_cell_volume   1009.45638172
_cell_formula_units_Z   8
loop_
 _symmetry_equiv_pos_site_id
 _symmetry_equiv_pos_as_xyz
  1  'x, y, z'
loop_
 _atom_site_type_symbol
 _atom_site_label
 _atom_site_symmetry_multiplicity
 _atom_site_fract_x
 _atom_site_fract_y
 _atom_site_fract_z
 _atom_site_occupancy
  Tb  Tb0  1  0.50000000  0.85272180  0.35272180  1
  Tb  Tb1  1  0.50000000  0.35272180  0.85272180  1
  Tb  Tb2  1  0.50000000  0.14727820  0.64727820  1
  Tb  Tb3  1  0.50000000  0.64727820  0.14727820  1
  Tb  Tb4  1  0.16489464  0.33244732  0.83244732  1
  Tb  Tb5  1  0.83510536  0.66755268  0.16755268  1
  Tb  Tb6  1  0.50000000  0.16755268  0.33244732  1
  Tb  Tb7  1  0.50000000  0.83244732  0.66755268  1
  Tb  Tb8  1  0.73036209  0.56781890  0.43366138  1
  Tb  Tb9  1  0.26963791  0.70330029  0.83745682  1
  Tb  Tb10  1  0.86584248  0.20330029  0.93366138  1
  Tb  Tb11  1  0.13415752  0.06781890  0.33745682  1
  Tb  Tb12  1  0.86584248  0.43366138  0.70330029  1
  Tb  Tb13  1  0.13415752  0.83745682  0.56781890  1
  Tb  Tb14  1  0.73036209  0.93366138  0.06781890  1
  Tb  Tb15  1  0.26963791  0.33745682  0.20330029  1
  Tb  Tb16  1  0.26963791  0.43218110  0.56633862  1
  Tb  Tb17  1  0.73036209  0.29669971  0.16254318  1
  Tb  Tb18  1  0.13415752  0.79669971  0.06633862  1
  Tb  Tb19  1  0.86584248  0.93218110  0.66254318  1
  Tb  Tb20  1  0.13415752  0.56633862  0.29669971  1
  Tb  Tb21  1  0.86584248  0.16254318  0.43218110  1
  Tb  Tb22  1  0.26963791  0.06633862  0.93218110  1
  Tb  Tb23  1  0.73036209  0.66254318  0.79669971  1
  Ga  Ga0  1  0.00000000  0.75000000  0.75000000  1
  Ga  Ga1  1  0.00000000  0.25000000  0.25000000  1
  Ga  Ga2  1  0.00000000  0.50000000  0.50000000  1
  Ga  Ga3  1  0.00000000  0.00000000  0.00000000  1
  Ga  Ga4  1  0.26621849  0.88310925  0.38310925  1
  Ga  Ga5  1  0.73378151  0.11689075  0.61689075  1
  Ga  Ga6  1  0.50000000  0.61689075  0.88310925  1
  Ga  Ga7  1  0.50000000  0.38310925  0.11689075  1
  Ga  Ga8  1  0.14319267  0.12037532  0.62037432  1
  Ga  Ga9  1  0.85680733  0.47718165  0.97718165  1
  Ga  Ga10  1  0.50000000  0.97718165  0.12037532  1
  Ga  Ga11  1  0.50000000  0.62037432  0.47718165  1
  Ga  Ga12  1  0.85680733  0.87962568  0.37962568  1
  Ga  Ga13  1  0.14319267  0.52281835  0.02281835  1
  Ga  Ga14  1  0.50000000  0.02281835  0.87962568  1
  Ga  Ga15  1  0.50000000  0.37962568  0.52281835  1
loop_
_geom_bond_atom_site_label_1
_geom_bond_atom_site_label_2
_geom_bond_distance
_geom_bond_site_symmetry_2
Tb0 Tb3 3.053992 1_555
Tb0 Tb6 3.524037 1_565
Tb0 Tb7 3.524037 1_555
Tb1 Tb2 3.053992 1_555
Tb1 Tb5 3.524037 1_556
Tb1 Tb4 3.524037 1_555
Tb2 Tb6 3.524037 1_555
Tb2 Tb7 3.524037 1_545
Tb3 Tb5 3.524037 1_555
Tb3 Tb4 3.524037 1_554
Tb4 Tb9 3.727537 1_555
Tb5 Tb8 3.727526 1_555
Tb6 Tb8 3.706398 1_555
Tb7 Tb9 3.706397 1_555
Tb10 Tb4 3.706398 1_655
Tb10 Tb7 3.727532 1_545
Tb11 Tb5 3.706398 1_445
Tb11 Tb6 3.727527 1_555
Tb12 Tb4 3.706398 1_655
Tb12 Tb6 3.727532 1_555
Tb13 Tb5 3.706398 1_455
Tb13 Tb7 3.727527 1_555
Tb14 Tb7 3.706398 1_554
Tb14 Tb5 3.727526 1_555
Tb15 Tb6 3.706397 1_555
Tb15 Tb4 3.727537 1_554
Tb16 Tb7 3.706398 1_555
Tb16 Tb4 3.727526 1_555
Tb17 Tb6 3.706397 1_555
Tb17 Tb5 3.727537 1_555
Tb18 Tb5 3.706398 1_455
Tb18 Tb6 3.727532 1_565
Tb19 Tb4 3.706398 1_665
Tb19 Tb7 3.727527 1_555
Tb20 Tb5 3.706398 1_455
Tb20 Tb7 3.727532 1_555
Tb21 Tb4 3.706398 1_655
Tb21 Tb6 3.727527 1_555
Tb22 Tb6 3.706398 1_556
Tb22 Tb4 3.727526 1_555
Tb23 Tb7 3.706397 1_555
Tb23 Tb5 3.727537 1_556
Ga0 Tb9 3.008883 1_555
Ga0 Tb23 3.008883 1_455
Ga0 Tb22 3.008891 1_565
Ga0 Tb8 3.008891 1_455
Ga0 Tb13 3.008891 1_555
Ga0 Tb19 3.008891 1_455
Ga0 Tb18 3.008893 1_556
Ga0 Tb12 3.008893 1_455
Ga1 Tb15 3.008883 1_555
Ga1 Tb17 3.008883 1_455
Ga1 Tb14 3.008891 1_445
Ga1 Tb16 3.008891 1_555
Ga1 Tb21 3.008891 1_455
Ga1 Tb11 3.008891 1_555
Ga1 Tb10 3.008893 1_454
Ga1 Tb20 3.008893 1_555
Ga2 Tb16 3.196888 1_555
Ga2 Tb8 3.196888 1_455
Ga2 Tb13 3.196888 1_555
Ga2 Tb21 3.196888 1_455
Ga2 Tb17 3.196890 1_455
Ga2 Tb9 3.196890 1_555
Ga2 Tb20 3.196898 1_555
Ga2 Tb12 3.196898 1_455
Ga3 Tb22 3.196888 1_554
Ga3 Tb14 3.196888 1_445
Ga3 Tb19 3.196888 1_444
Ga3 Tb11 3.196888 1_555
Ga3 Tb23 3.196890 1_444
Ga3 Tb15 3.196890 1_555
Ga3 Tb18 3.196898 1_545
Ga3 Tb10 3.196898 1_454
Ga4 Tb2 2.916261 1_565
Ga4 Tb0 2.916261 1_555
Ga4 Tb18 2.974667 1_555
Ga4 Tb20 2.974667 1_555
Ga4 Tb11 2.974667 1_565
Ga4 Tb13 2.974667 1_555
Ga4 Tb6 3.367042 1_565
Ga4 Tb7 3.367042 1_555
Ga4 Tb5 3.552609 1_455
Ga5 Tb0 2.916261 1_545
Ga5 Tb2 2.916261 1_555
Ga5 Tb10 2.974667 1_555
Ga5 Tb12 2.974667 1_555
Ga5 Tb19 2.974667 1_545
Ga5 Tb21 2.974667 1_555
Ga5 Tb7 3.367042 1_545
Ga5 Tb6 3.367042 1_555
Ga5 Tb4 3.552609 1_655
Ga6 Tb3 2.916261 1_556
Ga6 Tb1 2.916261 1_555
Ga6 Tb14 2.974667 1_556
Ga6 Tb16 2.974667 1_555
Ga6 Tb9 2.974675 1_555
Ga6 Tb23 2.974675 1_555
Ga6 Tb5 3.367042 1_556
Ga6 Tb4 3.367042 1_555
Ga6 Tb7 3.552609 1_555
Ga7 Tb3 2.916261 1_555
Ga7 Tb1 2.916261 1_554
Ga7 Tb8 2.974667 1_555
Ga7 Tb22 2.974667 1_554
Ga7 Tb17 2.974675 1_555
Ga7 Tb15 2.974675 1_555
Ga7 Tb4 3.367042 1_554
Ga7 Tb5 3.367042 1_555
Ga7 Tb6 3.552609 1_555
Ga8 Tb4 2.996571 1_555
Ga8 Tb1 3.047674 1_555
Ga8 Tb11 3.081573 1_555
Ga8 Tb13 3.081583 1_545
Ga8 Tb21 3.127283 1_455
Ga8 Tb19 3.127293 1_445
Ga8 Tb16 3.335731 1_555
Ga8 Tb22 3.335746 1_555
Ga8 Tb2 3.703684 1_555
Ga9 Tb5 2.996578 1_556
Ga9 Tb1 3.047676 1_555
Ga9 Tb12 3.081562 1_555
Ga9 Tb10 3.081562 1_555
Ga9 Tb20 3.127284 1_656
Ga9 Tb18 3.127284 1_656
Ga9 Tb23 3.335746 1_555
Ga9 Tb17 3.335746 1_556
Ga9 Tb2 3.703679 1_555
Ga10 Ga14 2.769950 1_564
Ga10 Tb6 2.996570 1_565
Ga10 Tb0 3.047666 1_555
Ga10 Tb9 3.081573 1_554
Ga10 Tb14 3.081579 1_555
Ga10 Tb17 3.127286 1_565
Ga10 Tb22 3.127295 1_564
Ga10 Tb21 3.335736 1_565
Ga10 Tb18 3.335737 1_555
Ga10 Tb3 3.703677 1_555
Ga11 Ga15 2.769939 1_555
Ga11 Tb7 2.996578 1_555
Ga11 Tb0 3.047676 1_555
Ga11 Tb15 3.081567 1_555
Ga11 Tb8 3.081573 1_555
Ga11 Tb23 3.127283 1_555
Ga11 Tb16 3.127291 1_555
Ga11 Tb19 3.335741 1_555
Ga11 Tb20 3.335741 1_555
Ga11 Tb3 3.703679 1_555
Ga12 Ga8 2.769943 1_665
Ga12 Tb5 2.996578 1_555
Ga12 Tb3 3.047676 1_555
Ga12 Tb19 3.081572 1_555
Ga12 Tb21 3.081572 1_565
Ga12 Tb13 3.127291 1_655
Ga12 Tb11 3.127291 1_665
Ga12 Tb8 3.335741 1_555
Ga12 Tb14 3.335741 1_555
Ga12 Tb0 3.703679 1_555
Ga13 Ga9 2.769939 1_454
Ga13 Tb4 2.996578 1_554
Ga13 Tb3 3.047676 1_555
Ga13 Tb20 3.081562 1_555
Ga13 Tb18 3.081562 1_555
Ga13 Tb12 3.127284 1_454
Ga13 Tb10 3.127284 1_454
Ga13 Tb15 3.335746 1_555
Ga13 Tb9 3.335746 1_554
Ga13 Tb0 3.703679 1_555
Ga14 Tb7 2.996578 1_545
Ga14 Tb2 3.047676 1_555
Ga14 Tb17 3.081567 1_556
Ga14 Tb22 3.081573 1_555
Ga14 Tb9 3.127283 1_545
Ga14 Tb14 3.127291 1_546
Ga14 Tb13 3.335741 1_545
Ga14 Tb10 3.335741 1_555
Ga14 Tb1 3.703679 1_555
Ga15 Tb6 2.996578 1_555
Ga15 Tb2 3.047676 1_555
Ga15 Tb23 3.081567 1_555
Ga15 Tb16 3.081573 1_555
Ga15 Tb15 3.127283 1_555
Ga15 Tb8 3.127291 1_555
Ga15 Tb11 3.335741 1_555
Ga15 Tb12 3.335741 1_555
Ga15 Tb1 3.703679 1_555
