# generated using pymatgen
data_Np(SO6)2
_symmetry_space_group_name_H-M   'P 1'
_cell_length_a   5.68336400
_cell_length_b   11.92855600
_cell_length_c   14.38660700
_cell_angle_alpha   90.00000000
_cell_angle_beta   90.00000000
_cell_angle_gamma   90.00000000
_symmetry_Int_Tables_number   1
_chemical_formula_structural   Np(SO6)2
_chemical_formula_sum   'Np4 S8 O48'
_cell_volume   975.33032129
_cell_formula_units_Z   4
loop_
 _symmetry_equiv_pos_site_id
 _symmetry_equiv_pos_as_xyz
  1  'x, y, z'
loop_
 _atom_site_type_symbol
 _atom_site_label
 _atom_site_symmetry_multiplicity
 _atom_site_fract_x
 _atom_site_fract_y
 _atom_site_fract_z
 _atom_site_occupancy
  Np  Np0  1  0.88185700  0.75000000  0.65972400  1
  Np  Np1  1  0.61814300  0.75000000  0.15972400  1
  Np  Np2  1  0.11814300  0.25000000  0.34027600  1
  Np  Np3  1  0.38185700  0.25000000  0.84027600  1
  S  S0  1  0.11687000  0.93817000  0.85196100  1
  S  S1  1  0.38313000  0.56183000  0.35196100  1
  S  S2  1  0.88313000  0.43817000  0.14803900  1
  S  S3  1  0.61687000  0.06183000  0.64803900  1
  S  S4  1  0.88313000  0.06183000  0.14803900  1
  S  S5  1  0.61687000  0.43817000  0.64803900  1
  S  S6  1  0.11687000  0.56183000  0.85196100  1
  S  S7  1  0.38313000  0.93817000  0.35196100  1
  O  O0  1  0.14140500  0.05823100  0.82958600  1
  O  O1  1  0.35859500  0.44176900  0.32958600  1
  O  O2  1  0.85859500  0.55823100  0.17041400  1
  O  O3  1  0.64140500  0.94176900  0.67041400  1
  O  O4  1  0.85859500  0.94176900  0.17041400  1
  O  O5  1  0.64140500  0.55823100  0.67041400  1
  O  O6  1  0.14140500  0.44176900  0.82958600  1
  O  O7  1  0.35859500  0.05823100  0.32958600  1
  O  O8  1  0.09825600  0.87552700  0.76129300  1
  O  O9  1  0.40174400  0.62447300  0.26129300  1
  O  O10  1  0.90174400  0.37552700  0.23870700  1
  O  O11  1  0.59825600  0.12447300  0.73870700  1
  O  O12  1  0.90174400  0.12447300  0.23870700  1
  O  O13  1  0.59825600  0.37552700  0.73870700  1
  O  O14  1  0.09825600  0.62447300  0.76129300  1
  O  O15  1  0.40174400  0.87552700  0.26129300  1
  O  O16  1  0.90776100  0.92109000  0.91146000  1
  O  O17  1  0.59223900  0.57891000  0.41146000  1
  O  O18  1  0.09223900  0.42108900  0.08854000  1
  O  O19  1  0.40776100  0.07891000  0.58854000  1
  O  O20  1  0.09223900  0.07891000  0.08854000  1
  O  O21  1  0.40776100  0.42108900  0.58854000  1
  O  O22  1  0.90776100  0.57891000  0.91146000  1
  O  O23  1  0.59223900  0.92109000  0.41146000  1
  O  O24  1  0.32140500  0.89368800  0.90335200  1
  O  O25  1  0.17859500  0.60631200  0.40335200  1
  O  O26  1  0.67859500  0.39368800  0.09664800  1
  O  O27  1  0.82140500  0.10631200  0.59664800  1
  O  O28  1  0.67859500  0.10631200  0.09664800  1
  O  O29  1  0.82140500  0.39368800  0.59664800  1
  O  O30  1  0.32140500  0.60631200  0.90335200  1
  O  O31  1  0.17859500  0.89368800  0.40335200  1
  O  O32  1  0.06675900  0.84457300  0.58987500  1
  O  O33  1  0.43324100  0.65542700  0.08987500  1
  O  O34  1  0.93324100  0.34457300  0.41012500  1
  O  O35  1  0.56675900  0.15542700  0.91012500  1
  O  O36  1  0.93324100  0.15542700  0.41012500  1
  O  O37  1  0.56675900  0.34457300  0.91012500  1
  O  O38  1  0.06675900  0.65542700  0.58987500  1
  O  O39  1  0.43324100  0.84457300  0.08987500  1
  O  O40  1  0.69801500  0.75000000  0.75935200  1
  O  O41  1  0.80198500  0.75000000  0.25935200  1
  O  O42  1  0.30198500  0.25000000  0.24064800  1
  O  O43  1  0.19801500  0.25000000  0.74064800  1
  O  O44  1  0.68779300  0.75000000  0.55618400  1
  O  O45  1  0.81220700  0.75000000  0.05618400  1
  O  O46  1  0.31220700  0.25000000  0.44381600  1
  O  O47  1  0.18779300  0.25000000  0.94381600  1
loop_
_geom_bond_atom_site_label_1
_geom_bond_atom_site_label_2
_geom_bond_distance
_geom_bond_site_symmetry_2
Np0 O40 1.773716 1_555
Np0 O38 1.840319 1_655
Np0 O32 1.840319 1_655
Np0 O44 1.853468 1_555
Np0 O14 2.426905 1_655
Np0 O8 2.426905 1_655
Np1 O41 1.773716 1_555
Np1 O39 1.840319 1_555
Np1 O33 1.840319 1_555
Np1 O45 1.853468 1_555
Np1 O15 2.426905 1_555
Np1 O9 2.426905 1_555
Np2 O42 1.773716 1_555
Np2 O36 1.840319 1_455
Np2 O34 1.840319 1_455
Np2 O46 1.853468 1_555
Np2 O12 2.426905 1_455
Np2 O10 2.426905 1_455
Np3 O43 1.773716 1_555
Np3 O35 1.840319 1_555
Np3 O37 1.840319 1_555
Np3 O47 1.853468 1_555
Np3 O13 2.426905 1_555
Np3 O11 2.426905 1_555
O0 S0 1.474493 1_545
O1 S1 1.474493 1_555
O2 S2 1.474493 1_555
O3 S3 1.474493 1_565
O4 S4 1.474493 1_565
O5 S5 1.474493 1_555
O6 S6 1.474493 1_555
O7 S7 1.474493 1_545
O8 S0 1.506994 1_555
O9 S1 1.506994 1_555
O10 S2 1.506994 1_555
O11 S3 1.506994 1_555
O12 S4 1.506994 1_555
O13 S5 1.506994 1_555
O14 S6 1.506994 1_555
O15 S7 1.506994 1_555
O16 S0 1.478723 1_655
O17 S1 1.478723 1_555
O18 S2 1.478725 1_455
O19 S3 1.478723 1_555
O20 S4 1.478723 1_455
O21 S5 1.478725 1_555
O22 S6 1.478723 1_655
O23 S7 1.478723 1_555
O24 S0 1.476297 1_555
O25 S1 1.476297 1_555
O26 S2 1.476297 1_555
O27 S3 1.476297 1_555
O28 S4 1.476297 1_555
O29 S5 1.476297 1_555
O30 S6 1.476297 1_555
O31 S7 1.476297 1_555
