# generated using pymatgen
data_BaNdZr2O6
_symmetry_space_group_name_H-M   'P 1'
_cell_length_a   8.39413175
_cell_length_b   8.40714699
_cell_length_c   8.42904838
_cell_angle_alpha   90.00000000
_cell_angle_beta   89.99582463
_cell_angle_gamma   90.00000000
_symmetry_Int_Tables_number   1
_chemical_formula_structural   BaNdZr2O6
_chemical_formula_sum   'Ba4 Nd4 Zr8 O24'
_cell_volume   594.84383902
_cell_formula_units_Z   4
loop_
 _symmetry_equiv_pos_site_id
 _symmetry_equiv_pos_as_xyz
  1  'x, y, z'
loop_
 _atom_site_type_symbol
 _atom_site_label
 _atom_site_symmetry_multiplicity
 _atom_site_fract_x
 _atom_site_fract_y
 _atom_site_fract_z
 _atom_site_occupancy
  Ba  Ba0  1  0.00000000  0.50000000  0.50000000  1
  Ba  Ba1  1  0.50000000  0.50000000  0.50000000  1
  Ba  Ba2  1  0.50000000  -0.00000000  0.50000000  1
  Ba  Ba3  1  0.00000000  -0.00000000  0.00000000  1
  Nd  Nd0  1  0.00000000  -0.00000000  0.50000000  1
  Nd  Nd1  1  0.00000000  0.50000000  0.00000000  1
  Nd  Nd2  1  0.50000000  0.50000000  0.00000000  1
  Nd  Nd3  1  0.50000000  -0.00000000  0.00000000  1
  Zr  Zr0  1  0.75052527  0.75051799  0.24685003  1
  Zr  Zr1  1  0.75052527  0.24948201  0.24685003  1
  Zr  Zr2  1  0.24954186  0.75045197  0.24683376  1
  Zr  Zr3  1  0.24954186  0.24954803  0.24683376  1
  Zr  Zr4  1  0.75045814  0.75045197  0.75316624  1
  Zr  Zr5  1  0.75045814  0.24954803  0.75316624  1
  Zr  Zr6  1  0.24947473  0.75051799  0.75314997  1
  Zr  Zr7  1  0.24947473  0.24948201  0.75314997  1
  O  O0  1  0.74776480  0.50000000  0.23263083  1
  O  O1  1  0.74444637  -0.00000000  0.23888332  1
  O  O2  1  0.25230677  0.50000000  0.23265357  1
  O  O3  1  0.25558067  -0.00000000  0.23894715  1
  O  O4  1  0.74769323  0.50000000  0.76734643  1
  O  O5  1  0.74441933  -0.00000000  0.76105285  1
  O  O6  1  0.25223520  0.50000000  0.76736917  1
  O  O7  1  0.25555363  -0.00000000  0.76111668  1
  O  O8  1  0.74476703  0.74474848  0.99998464  1
  O  O9  1  0.74476703  0.25525152  0.99998464  1
  O  O10  1  0.25523297  0.74474848  0.00001536  1
  O  O11  1  0.25523297  0.25525152  0.00001536  1
  O  O12  1  0.75684492  0.75684844  0.49999577  1
  O  O13  1  0.75684492  0.24315156  0.49999577  1
  O  O14  1  0.24315508  0.75684844  0.50000423  1
  O  O15  1  0.24315508  0.24315156  0.50000423  1
  O  O16  1  0.00007631  0.74446296  0.23896510  1
  O  O17  1  0.00007631  0.25553704  0.23896510  1
  O  O18  1  0.50002289  0.74772207  0.23256538  1
  O  O19  1  0.50002289  0.25227793  0.23256538  1
  O  O20  1  -0.00007631  0.74446296  0.76103490  1
  O  O21  1  -0.00007631  0.25553704  0.76103490  1
  O  O22  1  0.49997711  0.74772207  0.76743462  1
  O  O23  1  0.49997711  0.25227793  0.76743462  1
loop_
_geom_bond_atom_site_label_1
_geom_bond_atom_site_label_2
_geom_bond_distance
_geom_bond_site_symmetry_2
Ba0 O12 2.971336 1_455
Ba0 O14 2.971336 1_555
Ba0 O15 2.971336 1_555
Ba0 O13 2.971336 1_455
Ba0 O16 3.010849 1_555
Ba0 O20 3.010849 1_555
Ba0 O17 3.010849 1_555
Ba0 O21 3.010849 1_555
Ba0 O6 3.092354 1_555
Ba0 O0 3.092354 1_455
Ba0 O4 3.092401 1_455
Ba0 O2 3.092401 1_555
Ba1 O14 3.051416 1_555
Ba1 O12 3.051416 1_555
Ba1 O15 3.051416 1_555
Ba1 O13 3.051416 1_555
Ba1 O2 3.066233 1_555
Ba1 O4 3.066233 1_555
Ba1 O6 3.066558 1_555
Ba1 O0 3.066558 1_555
Ba1 O19 3.069019 1_555
Ba1 O22 3.069019 1_555
Ba1 O23 3.069019 1_555
Ba1 O18 3.069019 1_555
Ba2 O13 2.971042 1_555
Ba2 O15 2.971042 1_555
Ba2 O14 2.971042 1_545
Ba2 O12 2.971042 1_545
Ba2 O5 3.008648 1_555
Ba2 O3 3.008648 1_555
Ba2 O1 3.008977 1_555
Ba2 O7 3.008977 1_555
Ba2 O19 3.095138 1_555
Ba2 O18 3.095138 1_545
Ba2 O22 3.095138 1_545
Ba2 O23 3.095138 1_555
Ba3 O1 2.942017 1_455
Ba3 O7 2.942017 1_554
Ba3 O5 2.942764 1_454
Ba3 O3 2.942764 1_555
Ba3 O16 2.944920 1_545
Ba3 O17 2.944920 1_555
Ba3 O21 2.944920 1_554
Ba3 O20 2.944920 1_544
Ba3 O8 3.032355 1_444
Ba3 O10 3.032355 1_545
Ba3 O11 3.032355 1_555
Ba3 O9 3.032355 1_454
Nd0 O12 2.888735 1_445
Nd0 O15 2.888735 1_555
Nd0 O13 2.888735 1_455
Nd0 O14 2.888735 1_545
Nd0 O3 3.073083 1_555
Nd0 O5 3.073083 1_455
Nd0 O1 3.073533 1_455
Nd0 O7 3.073533 1_555
Nd0 O20 3.075153 1_545
Nd0 O21 3.075153 1_555
Nd0 O17 3.075153 1_555
Nd0 O16 3.075153 1_545
Nd1 O16 2.877706 1_555
Nd1 O17 2.877706 1_555
Nd1 O20 2.877706 1_554
Nd1 O21 2.877706 1_554
Nd1 O0 2.885705 1_455
Nd1 O6 2.885705 1_554
Nd1 O4 2.886486 1_454
Nd1 O2 2.886486 1_555
Nd1 O9 2.970522 1_454
Nd1 O10 2.970522 1_555
Nd1 O8 2.970522 1_454
Nd1 O11 2.970522 1_555
Nd2 O2 2.857982 1_555
Nd2 O4 2.857982 1_554
Nd2 O6 2.858496 1_554
Nd2 O0 2.858496 1_555
Nd2 O18 2.860099 1_555
Nd2 O19 2.860099 1_555
Nd2 O22 2.860099 1_554
Nd2 O23 2.860099 1_554
Nd2 O10 2.907796 1_555
Nd2 O8 2.907796 1_554
Nd2 O11 2.907796 1_555
Nd2 O9 2.907796 1_554
Nd3 O7 2.874957 1_554
Nd3 O1 2.874957 1_555
Nd3 O3 2.874962 1_555
Nd3 O5 2.874962 1_554
Nd3 O19 2.888109 1_555
Nd3 O18 2.888109 1_545
Nd3 O23 2.888109 1_554
Nd3 O22 2.888109 1_544
Nd3 O8 2.970935 1_544
Nd3 O10 2.970935 1_545
Nd3 O11 2.970935 1_555
Nd3 O9 2.970935 1_554
O0 Zr1 2.109676 1_555
O0 Zr0 2.109676 1_555
O1 Zr1 2.099127 1_555
O1 Zr0 2.099127 1_545
O2 Zr2 2.109104 1_555
O2 Zr3 2.109104 1_555
O3 Zr3 2.099652 1_555
O3 Zr2 2.099652 1_545
O4 Zr4 2.109104 1_555
O4 Zr5 2.109104 1_555
O5 Zr5 2.099652 1_555
O5 Zr4 2.099652 1_545
O6 Zr6 2.109676 1_555
O6 Zr7 2.109676 1_555
O7 Zr7 2.099127 1_555
O7 Zr6 2.099127 1_545
O8 Zr4 2.081542 1_555
O8 Zr0 2.081970 1_556
O9 Zr5 2.081542 1_555
O9 Zr1 2.081970 1_556
O10 Zr2 2.081542 1_555
O10 Zr6 2.081970 1_554
O11 Zr3 2.081542 1_555
O11 Zr7 2.081970 1_554
O12 Zr0 2.135104 1_555
O12 Zr4 2.135333 1_555
O13 Zr1 2.135104 1_555
O13 Zr5 2.135333 1_555
O14 Zr6 2.135104 1_555
O14 Zr2 2.135333 1_555
O15 Zr7 2.135104 1_555
O15 Zr3 2.135333 1_555
O16 Zr2 2.095707 1_555
O16 Zr0 2.096432 1_455
O17 Zr3 2.095707 1_555
O17 Zr1 2.096432 1_455
O18 Zr2 2.106124 1_555
O18 Zr0 2.106334 1_555
O19 Zr3 2.106124 1_555
O19 Zr1 2.106334 1_555
O20 Zr4 2.095707 1_455
O20 Zr6 2.096432 1_555
O21 Zr5 2.095707 1_455
O21 Zr7 2.096432 1_555
O22 Zr4 2.106124 1_555
O22 Zr6 2.106334 1_555
O23 Zr5 2.106124 1_555
O23 Zr7 2.106334 1_555
