# generated using pymatgen
data_Sr2TiMnO6
_symmetry_space_group_name_H-M   'P 1'
_cell_length_a   3.93313800
_cell_length_b   8.70368428
_cell_length_c   7.80516800
_cell_angle_alpha   63.35970555
_cell_angle_beta   89.99921028
_cell_angle_gamma   89.99992737
_symmetry_Int_Tables_number   1
_chemical_formula_structural   Sr2TiMnO6
_chemical_formula_sum   'Sr4 Ti2 Mn2 O12'
_cell_volume   238.82727703
_cell_formula_units_Z   2
loop_
 _symmetry_equiv_pos_site_id
 _symmetry_equiv_pos_as_xyz
  1  'x, y, z'
loop_
 _atom_site_type_symbol
 _atom_site_label
 _atom_site_symmetry_multiplicity
 _atom_site_fract_x
 _atom_site_fract_y
 _atom_site_fract_z
 _atom_site_occupancy
  Sr  Sr0  1  0.50000100  0.25533600  0.12231500  1
  Sr  Sr1  1  0.50000000  0.25533400  0.62233100  1
  Sr  Sr2  1  0.50000000  0.74466500  0.87766900  1
  Sr  Sr3  1  0.49999900  0.74466500  0.37768300  1
  Ti  Ti0  1  0.00000000  0.00000100  0.49999800  1
  Ti  Ti1  1  0.00000000  0.99999500  0.00000200  1
  Mn  Mn0  1  0.00000500  0.50000200  0.25000300  1
  Mn  Mn1  1  0.99999500  0.50000000  0.75000200  1
  O  O0  1  0.00000000  0.25369400  0.37317900  1
  O  O1  1  0.99999900  0.25368700  0.87318100  1
  O  O2  1  0.00000100  0.74630500  0.12682200  1
  O  O3  1  0.00000000  0.74631300  0.62681800  1
  O  O4  1  0.00000000  0.00000100  0.25000000  1
  O  O5  1  0.00000000  0.00000100  0.74999900  1
  O  O6  1  0.50000000  0.99999900  0.50000000  1
  O  O7  1  0.50000000  0.00000200  0.99999800  1
  O  O8  1  0.00000000  0.49999900  0.00000500  1
  O  O9  1  0.00000000  0.50000000  0.49999400  1
  O  O10  1  0.50000000  0.50000000  0.25000000  1
  O  O11  1  0.50000000  0.50000000  0.74999900  1
loop_
_geom_bond_atom_site_label_1
_geom_bond_atom_site_label_2
_geom_bond_distance
_geom_bond_site_symmetry_2
Mn0 O2 1.916162 1_555
Mn0 O0 1.916201 1_555
Mn0 O9 1.951214 1_555
Mn0 O8 1.951288 1_555
Mn0 O10 1.966549 1_555
Mn0 O10 1.966589 1_455
Mn1 O1 1.916240 1_555
Mn1 O3 1.916240 1_655
Mn1 O8 1.951312 1_656
Mn1 O9 1.951354 1_655
Mn1 O11 1.966549 1_555
Mn1 O11 1.966589 1_655
O0 Ti0 1.973654 1_555
O0 Sr1 2.770224 1_455
O0 Sr1 2.770262 1_555
O0 Sr0 2.770617 1_555
O0 Sr0 2.770649 1_455
O1 Ti1 1.973646 1_646
O1 Sr0 2.770144 1_556
O1 Sr0 2.770193 1_656
O1 Sr1 2.770526 1_655
O1 Sr1 2.770559 1_555
O2 Ti1 1.973630 1_555
O2 Sr2 2.770226 1_554
O2 Sr2 2.770270 1_454
O2 Sr3 2.770608 1_455
O2 Sr3 2.770635 1_555
O3 Ti0 1.973615 1_565
O3 Sr3 2.770150 1_555
O3 Sr3 2.770193 1_455
O3 Sr2 2.770526 1_455
O3 Sr2 2.770564 1_555
O4 Ti0 1.951276 1_555
O4 Ti1 1.951300 1_545
O4 Sr0 2.795221 1_555
O4 Sr3 2.795227 1_445
O4 Sr0 2.795231 1_455
O4 Sr3 2.795237 1_545
O5 Ti1 1.951292 1_546
O5 Ti0 1.951300 1_555
O5 Sr1 2.795208 1_555
O5 Sr1 2.795223 1_455
O5 Sr2 2.795224 1_445
O5 Sr2 2.795239 1_545
O6 Ti0 1.966569 1_665
O6 Ti0 1.966569 1_565
O6 Sr3 2.784414 1_555
O6 Sr2 2.784497 1_555
O6 Sr1 2.784499 1_565
O6 Sr0 2.784593 1_565
O7 Ti1 1.966569 1_546
O7 Ti1 1.966569 1_646
O7 Sr0 2.784414 1_556
O7 Sr1 2.784481 1_555
O7 Sr2 2.784504 1_545
O7 Sr3 2.784593 1_546
O8 Sr0 2.736838 1_455
O8 Sr2 2.736857 1_554
O8 Sr0 2.736858 1_555
O8 Sr2 2.736872 1_454
O9 Sr3 2.736849 1_555
O9 Sr1 2.736857 1_455
O9 Sr3 2.736869 1_455
O9 Sr1 2.736872 1_555
O10 Sr2 2.725887 1_554
O10 Sr1 2.725889 1_555
O10 Sr3 2.725996 1_555
O10 Sr0 2.725999 1_555
O11 Sr0 2.725800 1_556
O11 Sr3 2.725803 1_555
O11 Sr1 2.725921 1_555
O11 Sr2 2.725924 1_555
