# generated using pymatgen
data_Li4MnCo2O7
_symmetry_space_group_name_H-M   'P 1'
_cell_length_a   4.98998800
_cell_length_b   5.09190381
_cell_length_c   10.59379960
_cell_angle_alpha   85.37671978
_cell_angle_beta   76.86373960
_cell_angle_gamma   72.05206008
_symmetry_Int_Tables_number   1
_chemical_formula_structural   Li4MnCo2O7
_chemical_formula_sum   'Li8 Mn2 Co4 O14'
_cell_volume   249.35708164
_cell_formula_units_Z   2
loop_
 _symmetry_equiv_pos_site_id
 _symmetry_equiv_pos_as_xyz
  1  'x, y, z'
loop_
 _atom_site_type_symbol
 _atom_site_label
 _atom_site_symmetry_multiplicity
 _atom_site_fract_x
 _atom_site_fract_y
 _atom_site_fract_z
 _atom_site_occupancy
  Li  Li0  1  0.07447900  0.49970600  0.85322000  1
  Li  Li1  1  0.63825200  0.49866700  0.72105100  1
  Li  Li2  1  0.19841300  0.50844000  0.58069700  1
  Li  Li3  1  0.78344400  0.50113500  0.43444100  1
  Li  Li4  1  0.36681800  0.49509200  0.28309900  1
  Li  Li5  1  0.93291100  0.49976200  0.13509700  1
  Li  Li6  1  0.50232700  0.50483300  0.98956700  1
  Li  Li7  1  0.56247800  0.00509800  0.86076500  1
  Mn  Mn0  1  0.99737900  0.00335400  0.99767200  1
  Mn  Mn1  1  0.86630200  0.99192200  0.28250800  1
  Co  Co0  1  0.13231100  0.00616600  0.72179200  1
  Co  Co1  1  0.70988900  0.00576800  0.57978000  1
  Co  Co2  1  0.29189400  0.99338600  0.43128400  1
  Co  Co3  1  0.43216100  0.99784600  0.14132800  1
  O  O0  1  0.73725600  0.78428000  0.01176600  1
  O  O1  1  0.27986200  0.77261200  0.86917900  1
  O  O2  1  0.89302500  0.77130700  0.70889100  1
  O  O3  1  0.46262100  0.76868100  0.56675400  1
  O  O4  1  0.03764000  0.76656900  0.41569000  1
  O  O5  1  0.61629900  0.77089200  0.27900800  1
  O  O6  1  0.16985500  0.78145700  0.14322800  1
  O  O7  1  0.38463400  0.23560300  0.70756100  1
  O  O8  1  0.96494300  0.23456600  0.56493900  1
  O  O9  1  0.56689300  0.21688800  0.41456600  1
  O  O10  1  0.12426200  0.21004600  0.28108600  1
  O  O11  1  0.69279200  0.21360800  0.14442100  1
  O  O12  1  0.24326400  0.22287200  0.01313600  1
  O  O13  1  0.83759500  0.23944500  0.86747600  1
loop_
_geom_bond_atom_site_label_1
_geom_bond_atom_site_label_2
_geom_bond_distance
_geom_bond_site_symmetry_2
Li0 O1 2.001070 1_555
Li0 O13 2.007059 1_455
Li0 O7 2.133340 1_555
Li0 O2 2.141706 1_455
Li0 O12 2.257939 1_556
Li0 O0 2.314578 1_456
Li1 O2 2.131794 1_555
Li1 O7 2.138720 1_555
Li1 O13 2.167948 1_555
Li1 O3 2.208281 1_555
Li1 O8 2.232274 1_555
Li1 O1 2.268557 1_555
Li2 O2 2.013305 1_455
Li2 O7 2.017630 1_555
Li2 O8 2.111179 1_455
Li2 O3 2.114845 1_555
Li2 O4 2.245893 1_555
Li2 O9 2.439303 1_555
Li3 O8 2.020601 1_555
Li3 O3 2.080216 1_555
Li3 O4 2.091382 1_655
Li3 O9 2.103162 1_555
Li3 O5 2.201659 1_555
Li3 O10 2.303772 1_655
Li4 O9 2.094162 1_555
Li4 O4 2.108762 1_555
Li4 O5 2.137055 1_555
Li4 O10 2.161355 1_555
Li4 O11 2.162152 1_555
Li4 O6 2.172141 1_555
Li5 O12 2.023363 1_655
Li5 O0 2.040107 1_555
Li5 O11 2.137158 1_555
Li5 O6 2.138733 1_655
Li5 O5 2.150943 1_555
Li5 O10 2.217017 1_655
Li6 O1 2.036751 1_555
Li6 O13 2.050066 1_555
Li6 O0 2.159067 1_556
Li6 O12 2.175801 1_556
Li6 O6 2.255700 1_556
Li6 O11 2.289410 1_556
Li7 O0 2.079338 1_546
Li7 O1 2.086353 1_545
Li7 O13 2.093147 1_555
Li7 O12 2.098509 1_556
Li7 O7 2.122488 1_555
Li7 O2 2.149131 1_545
Mn0 O1 1.893486 1_645
Mn0 O13 1.903973 1_555
Mn0 O0 1.931037 1_546
Mn0 O12 1.935922 1_656
Mn0 O11 2.016076 1_556
Mn0 O6 2.029317 1_646
Mn1 O5 1.928054 1_555
Mn1 O4 1.928991 1_655
Mn1 O9 1.937800 1_565
Mn1 O10 1.939159 1_665
Mn1 O6 1.964325 1_655
Mn1 O11 1.967478 1_565
Co0 O7 1.940303 1_555
Co0 O2 1.963437 1_445
Co0 O1 2.019375 1_545
Co0 O13 2.035411 1_455
Co0 O8 2.128811 1_455
Co0 O3 2.176674 1_545
Co1 O2 1.940032 1_545
Co1 O8 1.948109 1_555
Co1 O7 1.980500 1_555
Co1 O3 2.005273 1_545
Co1 O9 2.125967 1_555
Co1 O4 2.236396 1_645
Co2 O3 1.945462 1_555
Co2 O4 1.999977 1_555
Co2 O9 2.007258 1_565
Co2 O8 2.042107 1_465
Co2 O10 2.049842 1_565
Co2 O5 2.117472 1_555
Co3 O0 1.911731 1_555
Co3 O12 1.926396 1_565
Co3 O6 1.949602 1_555
Co3 O11 1.950710 1_565
Co3 O10 1.980135 1_565
Co3 O5 1.997537 1_555
