# generated using pymatgen
data_ThFe2Co3
_symmetry_space_group_name_H-M   'P 1'
_cell_length_a   4.97598638
_cell_length_b   4.97598638
_cell_length_c   4.03082600
_cell_angle_alpha   90.00000000
_cell_angle_beta   90.00000000
_cell_angle_gamma   119.79716767
_symmetry_Int_Tables_number   1
_chemical_formula_structural   ThFe2Co3
_chemical_formula_sum   'Th1 Fe2 Co3'
_cell_volume   86.60980633
_cell_formula_units_Z   1
loop_
 _symmetry_equiv_pos_site_id
 _symmetry_equiv_pos_as_xyz
  1  'x, y, z'
loop_
 _atom_site_type_symbol
 _atom_site_label
 _atom_site_symmetry_multiplicity
 _atom_site_fract_x
 _atom_site_fract_y
 _atom_site_fract_z
 _atom_site_occupancy
  Th  Th0  1  0.00000000  0.00000000  0.00000000  1
  Fe  Fe0  1  0.50000000  0.00000000  0.50000000  1
  Fe  Fe1  1  0.00000000  0.50000000  0.50000000  1
  Co  Co0  1  0.50000000  0.50000000  0.50000000  1
  Co  Co1  1  0.67637900  0.32362100  0.00000000  1
  Co  Co2  1  0.32362100  0.67637900  0.00000000  1
loop_
_geom_bond_atom_site_label_1
_geom_bond_atom_site_label_2
_geom_bond_distance
_geom_bond_site_symmetry_2
Fe0 Fe1 2.495617 1_545
Fe0 Fe1 2.495617 1_655
Fe0 Th0 3.201874 1_656
Fe0 Th0 3.201874 1_555
Fe0 Th0 3.201874 1_556
Fe0 Th0 3.201874 1_655
Fe1 Th0 3.201874 1_565
Fe1 Th0 3.201874 1_555
Fe1 Th0 3.201874 1_556
Fe1 Th0 3.201874 1_566
Co0 Fe1 2.487993 1_555
Co0 Fe1 2.487993 1_655
Co0 Fe0 2.487993 1_555
Co0 Fe0 2.487993 1_565
Co0 Co2 2.523494 1_555
Co0 Co2 2.523494 1_556
Co0 Co1 2.523494 1_556
Co0 Co1 2.523494 1_555
Co0 Th0 3.207802 1_665
Co0 Th0 3.207802 1_666
Co0 Th0 3.207802 1_555
Co0 Th0 3.207802 1_556
Co1 Fe1 2.453712 1_654
Co1 Fe1 2.453712 1_655
Co1 Fe0 2.453712 1_554
Co1 Fe0 2.453712 1_555
Co1 Th0 2.786325 1_655
Co1 Th0 2.921341 1_555
Co1 Th0 2.921341 1_665
Co2 Fe0 2.453712 1_565
Co2 Fe0 2.453712 1_564
Co2 Fe1 2.453712 1_555
Co2 Fe1 2.453712 1_554
Co2 Th0 2.786325 1_565
Co2 Th0 2.921341 1_555
Co2 Th0 2.921341 1_665
