# generated using pymatgen
data_YHo3C8
_symmetry_space_group_name_H-M   'P 1'
_cell_length_a   3.66702600
_cell_length_b   3.66702600
_cell_length_c   12.35437700
_cell_angle_alpha   90.00000000
_cell_angle_beta   90.00000000
_cell_angle_gamma   90.00000000
_symmetry_Int_Tables_number   1
_chemical_formula_structural   YHo3C8
_chemical_formula_sum   'Y1 Ho3 C8'
_cell_volume   166.13029197
_cell_formula_units_Z   1
loop_
 _symmetry_equiv_pos_site_id
 _symmetry_equiv_pos_as_xyz
  1  'x, y, z'
loop_
 _atom_site_type_symbol
 _atom_site_label
 _atom_site_symmetry_multiplicity
 _atom_site_fract_x
 _atom_site_fract_y
 _atom_site_fract_z
 _atom_site_occupancy
  Y  Y0  1  0.00000000  0.00000000  0.00000000  1
  Ho  Ho0  1  0.50000000  0.50000000  0.25002300  1
  Ho  Ho1  1  0.00000000  0.00000000  0.50000000  1
  Ho  Ho2  1  0.50000000  0.50000000  0.74997700  1
  C  C0  1  0.00000000  0.00000000  0.19754500  1
  C  C1  1  0.50000000  0.50000000  0.44720900  1
  C  C2  1  0.00000000  0.00000000  0.69662300  1
  C  C3  1  0.50000000  0.50000000  0.94726200  1
  C  C4  1  0.50000000  0.50000000  0.05273800  1
  C  C5  1  0.00000000  0.00000000  0.30337700  1
  C  C6  1  0.50000000  0.50000000  0.55279100  1
  C  C7  1  0.00000000  0.00000000  0.80245500  1
loop_
_geom_bond_atom_site_label_1
_geom_bond_atom_site_label_2
_geom_bond_distance
_geom_bond_site_symmetry_2
C0 C5 1.307488 1_555
C0 Y0 2.440545 1_555
C0 Ho0 2.672803 1_545
C0 Ho0 2.672803 1_555
C0 Ho0 2.672803 1_445
C0 Ho0 2.672803 1_455
C1 C6 1.304400 1_555
C1 Ho0 2.436110 1_555
C1 Ho1 2.673744 1_655
C1 Ho1 2.673744 1_555
C1 Ho1 2.673744 1_565
C1 Ho1 2.673744 1_665
C2 C7 1.307488 1_555
C2 Ho1 2.429155 1_555
C2 Ho2 2.675449 1_445
C2 Ho2 2.675449 1_455
C2 Ho2 2.675449 1_545
C2 Ho2 2.675449 1_555
C3 C4 1.303090 1_556
C3 Ho2 2.437333 1_555
C3 Y0 2.673584 1_656
C3 Y0 2.673584 1_566
C3 Y0 2.673584 1_666
C3 Y0 2.673584 1_556
C4 Ho0 2.437333 1_555
C4 Y0 2.673584 1_665
C4 Y0 2.673584 1_655
C4 Y0 2.673584 1_555
C4 Y0 2.673584 1_565
C5 Ho1 2.429155 1_555
C5 Ho0 2.675449 1_445
C5 Ho0 2.675449 1_455
C5 Ho0 2.675449 1_545
C5 Ho0 2.675449 1_555
C6 Ho2 2.436110 1_555
C6 Ho1 2.673744 1_565
C6 Ho1 2.673744 1_665
C6 Ho1 2.673744 1_655
C6 Ho1 2.673744 1_555
C7 Y0 2.440545 1_556
C7 Ho2 2.672803 1_455
C7 Ho2 2.672803 1_545
C7 Ho2 2.672803 1_555
C7 Ho2 2.672803 1_445
