# generated using pymatgen
data_SrMoO3
_symmetry_space_group_name_H-M   'P 1'
_cell_length_a   5.62925261
_cell_length_b   5.64031801
_cell_length_c   5.61795213
_cell_angle_alpha   60.20138919
_cell_angle_beta   60.19408403
_cell_angle_gamma   59.81371416
_symmetry_Int_Tables_number   1
_chemical_formula_structural   SrMoO3
_chemical_formula_sum   'Sr2 Mo2 O6'
_cell_volume   126.32524882
_cell_formula_units_Z   2
loop_
 _symmetry_equiv_pos_site_id
 _symmetry_equiv_pos_as_xyz
  1  'x, y, z'
loop_
 _atom_site_type_symbol
 _atom_site_label
 _atom_site_symmetry_multiplicity
 _atom_site_fract_x
 _atom_site_fract_y
 _atom_site_fract_z
 _atom_site_occupancy
  Sr  Sr0  1  0.74984624  0.75010061  0.74968806  1
  Sr  Sr1  1  0.25015376  0.24989939  0.25031194  1
  Mo  Mo0  1  0.50000000  0.50000000  0.50000000  1
  Mo  Mo1  1  -0.00000000  0.00000000  0.00000000  1
  O  O0  1  0.75520354  0.22697945  0.27543157  1
  O  O1  1  0.24479646  0.77302055  0.72456843  1
  O  O2  1  0.24034647  0.25843700  0.75959801  1
  O  O3  1  0.26638000  0.73386500  0.23520683  1
  O  O4  1  0.73362000  0.26613500  0.76479317  1
  O  O5  1  0.75965353  0.74156300  0.24040199  1
loop_
_geom_bond_atom_site_label_1
_geom_bond_atom_site_label_2
_geom_bond_distance
_geom_bond_site_symmetry_2
Mo0 O0 1.982754 1_555
Mo0 O1 1.982754 1_555
Mo0 O3 1.983049 1_555
Mo0 O4 1.983049 1_555
Mo0 O5 2.007073 1_555
Mo0 O2 2.007073 1_555
Mo1 O4 1.995664 1_454
Mo1 O3 1.995664 1_545
Mo1 O2 1.997350 1_554
Mo1 O5 1.997350 1_445
Mo1 O1 2.001824 1_544
Mo1 O0 2.001824 1_455
O0 Sr0 2.685769 1_545
O0 Sr1 2.784374 1_655
O0 Sr1 2.851438 1_555
O0 Sr0 2.961065 1_554
O1 Sr1 2.685769 1_565
O1 Sr0 2.784374 1_455
O1 Sr0 2.851438 1_555
O1 Sr1 2.961065 1_556
O2 Sr0 2.759816 1_455
O2 Sr1 2.760804 1_556
O2 Sr1 2.858103 1_555
O2 Sr0 2.860090 1_545
O3 Sr0 2.734548 1_554
O3 Sr1 2.734907 1_555
O3 Sr1 2.908187 1_565
O3 Sr0 2.908188 1_455
O4 Sr1 2.734548 1_556
O4 Sr0 2.734907 1_555
O4 Sr0 2.908187 1_545
O4 Sr1 2.908188 1_655
O5 Sr1 2.759816 1_655
O5 Sr0 2.760804 1_554
O5 Sr0 2.858103 1_555
O5 Sr1 2.860090 1_565
