# generated using pymatgen
data_Li6MnV3(PO4)6
_symmetry_space_group_name_H-M   'P 1'
_cell_length_a   8.59148900
_cell_length_b   8.77946502
_cell_length_c   12.04770196
_cell_angle_alpha   90.25768902
_cell_angle_beta   91.01608931
_cell_angle_gamma   90.62060631
_symmetry_Int_Tables_number   1
_chemical_formula_structural   Li6MnV3(PO4)6
_chemical_formula_sum   'Li12 Mn2 V6 P12 O48'
_cell_volume   908.53603100
_cell_formula_units_Z   2
loop_
 _symmetry_equiv_pos_site_id
 _symmetry_equiv_pos_as_xyz
  1  'x, y, z'
loop_
 _atom_site_type_symbol
 _atom_site_label
 _atom_site_symmetry_multiplicity
 _atom_site_fract_x
 _atom_site_fract_y
 _atom_site_fract_z
 _atom_site_occupancy
  Li  Li0  1  0.06521500  0.48699400  0.34748100  1
  Li  Li1  1  0.07921400  0.91343400  0.69042600  1
  Li  Li2  1  0.18080800  0.22033600  0.17818900  1
  Li  Li3  1  0.32010700  0.72199800  0.32240200  1
  Li  Li4  1  0.41982800  0.41287800  0.80936400  1
  Li  Li5  1  0.43495100  0.98917200  0.15369500  1
  Li  Li6  1  0.56510900  0.01418300  0.84664600  1
  Li  Li7  1  0.58051700  0.58595400  0.19130100  1
  Li  Li8  1  0.68007500  0.27898700  0.67805800  1
  Li  Li9  1  0.82019800  0.78010300  0.82198100  1
  Li  Li10  1  0.92078200  0.08594900  0.30980200  1
  Li  Li11  1  0.93469700  0.51308200  0.65259000  1
  Mn  Mn0  1  0.25298200  0.03533600  0.39142800  1
  Mn  Mn1  1  0.75227500  0.02743400  0.10735300  1
  V  V0  1  0.24334000  0.97314100  0.89565600  1
  V  V1  1  0.24524800  0.53452900  0.10873400  1
  V  V2  1  0.25446400  0.47184400  0.60517400  1
  V  V3  1  0.74474200  0.96586100  0.60824900  1
  V  V4  1  0.74539000  0.52804200  0.39500600  1
  V  V5  1  0.75541100  0.46449000  0.89066200  1
  P  P0  1  0.04042300  0.75113200  0.49081000  1
  P  P1  1  0.11368500  0.61730400  0.84752100  1
  P  P2  1  0.11685400  0.88742500  0.14795200  1
  P  P3  1  0.38496300  0.11679800  0.65081200  1
  P  P4  1  0.38568200  0.38913500  0.35315400  1
  P  P5  1  0.45862800  0.25240400  0.00961200  1
  P  P6  1  0.54184300  0.75028700  0.98943100  1
  P  P7  1  0.61479600  0.61029700  0.64719500  1
  P  P8  1  0.61352000  0.88129700  0.34729000  1
  P  P9  1  0.88481300  0.11046700  0.85309000  1
  P  P10  1  0.88547800  0.38092800  0.15158800  1
  P  P11  1  0.95797800  0.24999500  0.50957000  1
  O  O0  1  0.05212200  0.11042800  0.89746100  1
  O  O1  1  0.04638400  0.12905000  0.44518100  1
  O  O2  1  0.05454700  0.33530600  0.60039200  1
  O  O3  1  0.05749600  0.42015300  0.18953400  1
  O  O4  1  0.09795300  0.63933700  0.58209600  1
  O  O5  1  0.12413600  0.79370100  0.83019100  1
  O  O6  1  0.13908500  0.57928800  0.97000200  1
  O  O7  1  0.13036700  0.00622500  0.24824800  1
  O  O8  1  0.17509600  0.73004200  0.18827000  1
  O  O9  1  0.18657000  0.82188300  0.43470700  1
  O  O10  1  0.22951200  0.52874600  0.77534800  1
  O  O11  1  0.23764900  0.95014200  0.06305300  1
  O  O12  1  0.26532500  0.44910400  0.43854200  1
  O  O13  1  0.26940200  0.02801800  0.72352300  1
  O  O14  1  0.31295400  0.32477100  0.06450600  1
  O  O15  1  0.32749300  0.23030500  0.31199300  1
  O  O16  1  0.36216100  0.07984000  0.52696100  1
  O  O17  1  0.37228700  0.50581600  0.25434300  1
  O  O18  1  0.37572100  0.29319100  0.66911700  1
  O  O19  1  0.40116600  0.14001900  0.91699300  1
  O  O20  1  0.44590100  0.83499200  0.90031500  1
  O  O21  1  0.44431900  0.91790400  0.30772300  1
  O  O22  1  0.44748400  0.60956900  0.60293500  1
  O  O23  1  0.45037900  0.63105400  0.05584400  1
  O  O24  1  0.55016900  0.37347600  0.94534600  1
  O  O25  1  0.55285000  0.39061300  0.39756300  1
  O  O26  1  0.55686900  0.07810600  0.68717300  1
  O  O27  1  0.55033200  0.17015100  0.10184400  1
  O  O28  1  0.60125700  0.86266900  0.08356800  1
  O  O29  1  0.62492300  0.70464400  0.33080700  1
  O  O30  1  0.62777000  0.49329900  0.74579800  1
  O  O31  1  0.63746200  0.92030700  0.47025300  1
  O  O32  1  0.67241300  0.76939200  0.68757200  1
  O  O33  1  0.68513800  0.67778700  0.93388800  1
  O  O34  1  0.73206000  0.97206100  0.27778700  1
  O  O35  1  0.73517900  0.55032300  0.56193500  1
  O  O36  1  0.76272000  0.04916100  0.93681300  1
  O  O37  1  0.77026300  0.46946700  0.22414200  1
  O  O38  1  0.81331700  0.17863300  0.56706600  1
  O  O39  1  0.82918000  0.26920500  0.81274100  1
  O  O40  1  0.87274400  0.99403300  0.75298800  1
  O  O41  1  0.86088200  0.42043200  0.02984000  1
  O  O42  1  0.87746400  0.20288100  0.16750500  1
  O  O43  1  0.90055500  0.36187400  0.41822200  1
  O  O44  1  0.94149400  0.57823300  0.81059100  1
  O  O45  1  0.94470000  0.66535000  0.39953900  1
  O  O46  1  0.94949600  0.87155200  0.55479600  1
  O  O47  1  0.95123800  0.88625300  0.10273100  1
loop_
_geom_bond_atom_site_label_1
_geom_bond_atom_site_label_2
_geom_bond_distance
_geom_bond_site_symmetry_2
Li0 O43 1.987927 1_455
Li0 O3 1.988573 1_555
Li0 O45 1.991653 1_455
Li0 O12 2.053974 1_555
Li1 O13 1.943870 1_565
Li1 O46 1.992093 1_455
Li1 O5 2.022613 1_555
Li1 O40 2.070098 1_455
Li2 O14 2.012313 1_555
Li2 O15 2.029484 1_555
Li2 O3 2.064423 1_555
Li2 O7 2.107936 1_555
Li3 O9 1.995521 1_555
Li3 O21 2.024355 1_555
Li3 O8 2.024866 1_555
Li3 O17 2.119678 1_555
Li4 O10 1.972898 1_555
Li4 O24 2.001506 1_555
Li4 O18 2.013797 1_555
Li4 O30 2.074308 1_555
Li5 O21 1.961574 1_555
Li5 O27 1.973390 1_565
Li5 O28 2.014340 1_555
Li5 O11 2.025282 1_555
Li6 O20 1.984869 1_545
Li6 O19 1.997586 1_555
Li6 O26 2.004254 1_555
Li6 O36 2.019180 1_555
Li7 O37 1.968980 1_555
Li7 O29 2.002280 1_555
Li7 O23 2.005197 1_555
Li7 O17 2.073195 1_555
Li8 O38 1.985030 1_555
Li8 O26 2.051423 1_555
Li8 O39 2.052130 1_555
Li8 O30 2.103735 1_555
Li9 O33 2.003711 1_555
Li9 O32 2.041148 1_555
Li9 O44 2.070944 1_555
Li9 O40 2.105064 1_555
Li10 O34 1.927875 1_545
Li10 O1 1.972568 1_655
Li10 O42 2.032953 1_555
Li10 O7 2.086187 1_655
Li11 O4 1.983511 1_655
Li11 O44 1.984848 1_555
Li11 O2 1.985123 1_655
Li11 O35 2.046229 1_555
Mn0 O16 1.905456 1_555
Mn0 O7 2.019012 1_555
Mn0 O9 2.026202 1_545
Mn0 O15 2.066009 1_555
Mn0 O1 2.077137 1_555
Mn0 O21 2.206441 1_545
Mn1 O28 1.949480 1_545
Mn1 O42 1.995258 1_555
Mn1 O36 2.067747 1_554
Mn1 O34 2.121909 1_545
Mn1 O47 2.123701 1_545
Mn1 O27 2.151351 1_555
O0 P9 1.524709 1_455
O0 V0 2.048441 1_545
O1 P11 1.528764 1_455
O2 P11 1.547116 1_455
O2 V2 2.083660 1_555
O3 P10 1.573324 1_455
O3 V1 2.141807 1_555
O4 P0 1.555029 1_555
O4 V2 2.020159 1_555
O5 P1 1.565439 1_555
O5 V0 2.019402 1_555
O6 P1 1.526775 1_555
O6 V1 1.933786 1_556
O7 P2 1.594513 1_545
O8 P2 1.551749 1_555
O8 V1 2.062990 1_555
O9 P0 1.560851 1_555
O10 P1 1.546674 1_555
O10 V2 2.123102 1_555
O11 P2 1.567407 1_555
O11 V0 2.029134 1_554
O12 P4 1.565050 1_555
O12 V2 2.020444 1_555
O13 P3 1.543004 1_555
O13 V0 2.146172 1_545
O14 P5 1.565323 1_555
O14 V1 2.009731 1_555
O15 P4 1.552481 1_555
O16 P3 1.534269 1_555
O17 P4 1.577485 1_555
O17 V1 2.067428 1_555
O18 P3 1.566342 1_555
O18 V2 2.038796 1_555
O19 P5 1.556400 1_556
O19 V0 1.998109 1_545
O20 P6 1.540865 1_555
O20 V0 2.132073 1_555
O21 P8 1.559057 1_555
O22 P7 1.524221 1_555
O22 V2 2.042370 1_555
O23 P6 1.538020 1_554
O23 V1 2.059732 1_555
O24 P5 1.535826 1_556
O24 V5 2.048729 1_555
O25 P4 1.523626 1_555
O25 V4 2.037651 1_555
O26 P3 1.574126 1_555
O26 V3 2.135660 1_545
O27 P5 1.538002 1_555
O28 P6 1.574421 1_554
O29 P8 1.567033 1_555
O29 V4 2.022511 1_555
O30 P7 1.577176 1_555
O30 V5 2.062682 1_555
O31 P8 1.528830 1_555
O31 V3 1.924885 1_555
O32 P7 1.550164 1_555
O32 V3 2.070595 1_555
O33 P6 1.552721 1_555
O33 V5 2.041898 1_555
O34 P8 1.546615 1_555
O35 P7 1.564187 1_555
O35 V4 2.023269 1_555
O36 P9 1.561284 1_555
O37 P10 1.545763 1_555
O37 V4 2.134499 1_555
O38 P11 1.560323 1_555
O38 V3 2.019323 1_545
O39 P9 1.555398 1_555
O39 V5 2.062192 1_555
O40 P9 1.578707 1_565
O40 V3 2.057555 1_555
O41 P10 1.520384 1_555
O41 V5 1.934385 1_554
O42 P10 1.576645 1_555
O43 P11 1.555739 1_555
O43 V4 2.004058 1_555
O44 P1 1.571135 1_655
O44 V5 2.124268 1_555
O45 P0 1.549106 1_655
O45 V4 2.083212 1_555
O46 P0 1.534331 1_655
O46 V3 2.064410 1_555
O47 P2 1.514487 1_655
