# generated using pymatgen
data_Zn2SiO4
_symmetry_space_group_name_H-M   'P 1'
_cell_length_a   7.77725917
_cell_length_b   7.77725917
_cell_length_c   7.77725917
_cell_angle_alpha   136.07171749
_cell_angle_beta   113.56441139
_cell_angle_gamma   83.10856042
_symmetry_Int_Tables_number   1
_chemical_formula_structural   Zn2SiO4
_chemical_formula_sum   'Zn8 Si4 O16'
_cell_volume   288.51864332
_cell_formula_units_Z   4
loop_
 _symmetry_equiv_pos_site_id
 _symmetry_equiv_pos_as_xyz
  1  'x, y, z'
loop_
 _atom_site_type_symbol
 _atom_site_label
 _atom_site_symmetry_multiplicity
 _atom_site_fract_x
 _atom_site_fract_y
 _atom_site_fract_z
 _atom_site_occupancy
  Zn  Zn0  1  0.50000000  0.50000000  0.00000000  1
  Zn  Zn1  1  0.00000000  0.00000000  0.00000000  1
  Zn  Zn2  1  0.78172900  0.75000000  0.03172900  1
  Zn  Zn3  1  0.21827100  0.25000000  0.96827100  1
  Zn  Zn4  1  0.37547200  0.37547200  0.50000000  1
  Zn  Zn5  1  0.62452800  0.12452800  0.00000000  1
  Zn  Zn6  1  0.37547200  0.87547200  0.00000000  1
  Zn  Zn7  1  0.62452800  0.62452800  0.50000000  1
  Si  Si0  1  0.00372000  0.62075000  0.38297000  1
  Si  Si1  1  0.99628000  0.37925000  0.61703000  1
  Si  Si2  1  0.73778000  0.12075000  0.61703000  1
  Si  Si3  1  0.26222000  0.87925000  0.38297000  1
  O  O0  1  0.53761300  0.75000000  0.78761300  1
  O  O1  1  0.46238700  0.25000000  0.21238700  1
  O  O2  1  0.03623900  0.75000000  0.28623900  1
  O  O3  1  0.96376100  0.25000000  0.71376100  1
  O  O4  1  0.24420800  0.98733300  0.25687500  1
  O  O5  1  0.75579200  0.01266700  0.74312500  1
  O  O6  1  0.23045900  0.48733300  0.74312500  1
  O  O7  1  0.76954100  0.51266700  0.25687500  1
  O  O8  1  0.63156200  0.35857200  0.74409700  1
  O  O9  1  0.36843800  0.11253400  0.72701000  1
  O  O10  1  0.11447500  0.85857200  0.72701000  1
  O  O11  1  0.88552500  0.61253400  0.74409700  1
  O  O12  1  0.36843800  0.64142800  0.25590300  1
  O  O13  1  0.63156200  0.88746600  0.27299000  1
  O  O14  1  0.88552500  0.14142800  0.27299000  1
  O  O15  1  0.11447500  0.38746600  0.25590300  1
loop_
_geom_bond_atom_site_label_1
_geom_bond_atom_site_label_2
_geom_bond_distance
_geom_bond_site_symmetry_2
O0 Zn5 2.078261 1_566
O0 Zn7 2.078261 1_555
O0 Zn4 2.078261 1_555
O0 Zn6 2.078261 1_556
O0 Zn2 2.080143 1_556
O1 Zn7 2.078261 1_555
O1 Zn4 2.078261 1_555
O1 Zn5 2.078261 1_555
O1 Zn6 2.078261 1_545
O1 Zn3 2.080143 1_554
O2 Si3 1.715454 1_555
O2 Si0 1.715454 1_555
O2 Zn2 2.168711 1_455
O3 Si2 1.715454 1_555
O3 Si1 1.715454 1_555
O3 Zn3 2.168711 1_655
O4 Si3 1.654459 1_555
O4 Zn6 2.168932 1_555
O4 Zn4 2.168932 1_565
O4 Zn1 2.193824 1_565
O5 Si2 1.654459 1_555
O5 Zn7 2.168932 1_545
O5 Zn5 2.168932 1_556
O5 Zn1 2.193824 1_656
O6 Si1 1.654466 1_455
O6 Zn4 2.168925 1_555
O6 Zn6 2.168929 1_556
O6 Zn0 2.193819 1_556
O7 Si0 1.654466 1_655
O7 Zn7 2.168925 1_555
O7 Zn5 2.168929 1_555
O7 Zn0 2.193819 1_555
O8 Si2 1.653259 1_555
O8 Zn0 2.103014 1_556
O8 Zn2 2.142576 1_556
O8 Zn4 2.204869 1_555
O9 Si3 1.653259 1_545
O9 Zn0 2.103019 1_556
O9 Zn3 2.142574 1_555
O9 Zn5 2.204865 1_556
O10 Si0 1.653259 1_555
O10 Zn1 2.103014 1_566
O10 Zn3 2.142576 1_565
O10 Zn6 2.204869 1_556
O11 Si1 1.653254 1_555
O11 Zn1 2.103020 1_666
O11 Zn2 2.142574 1_556
O11 Zn7 2.204873 1_555
O12 Si3 1.653259 1_555
O12 Zn0 2.103014 1_555
O12 Zn3 2.142576 1_554
O12 Zn7 2.204869 1_555
O13 Si2 1.653259 1_565
O13 Zn0 2.103019 1_555
O13 Zn2 2.142574 1_555
O13 Zn6 2.204865 1_555
O14 Si1 1.653259 1_555
O14 Zn1 2.103014 1_655
O14 Zn2 2.142576 1_545
O14 Zn5 2.204869 1_555
O15 Si0 1.653254 1_555
O15 Zn1 2.103020 1_555
O15 Zn3 2.142574 1_554
O15 Zn4 2.204873 1_555
