# generated using pymatgen
data_Mg4Si3
_symmetry_space_group_name_H-M   'P 1'
_cell_length_a   5.08993227
_cell_length_b   10.26149971
_cell_length_c   7.12287629
_cell_angle_alpha   124.62949021
_cell_angle_beta   106.74150947
_cell_angle_gamma   90.06717820
_symmetry_Int_Tables_number   1
_chemical_formula_structural   Mg4Si3
_chemical_formula_sum   'Mg8 Si6'
_cell_volume   286.65930358
_cell_formula_units_Z   2
loop_
 _symmetry_equiv_pos_site_id
 _symmetry_equiv_pos_as_xyz
  1  'x, y, z'
loop_
 _atom_site_type_symbol
 _atom_site_label
 _atom_site_symmetry_multiplicity
 _atom_site_fract_x
 _atom_site_fract_y
 _atom_site_fract_z
 _atom_site_occupancy
  Mg  Mg0  1  0.44089600  0.78106300  0.56670900  1
  Mg  Mg1  1  0.94679000  0.22099900  0.03570000  1
  Mg  Mg2  1  0.24884900  0.63902700  0.01563200  1
  Mg  Mg3  1  0.44442800  0.40277600  0.53637100  1
  Mg  Mg4  1  0.93802200  0.58505500  0.53519800  1
  Mg  Mg5  1  0.47035900  0.06559700  0.07410100  1
  Mg  Mg6  1  0.78203900  0.49057700  0.04405700  1
  Mg  Mg7  1  0.88991500  0.88776900  0.45406700  1
  Si  Si0  1  0.01516800  0.17895300  0.40295400  1
  Si  Si1  1  0.70195500  0.18801400  0.60689200  1
  Si  Si2  1  0.70461700  0.70621100  0.92692400  1
  Si  Si3  1  0.38763600  0.46399000  0.20922200  1
  Si  Si4  1  0.32672400  0.95452800  0.35511600  1
  Si  Si5  1  0.95256400  0.93535100  0.98712800  1
loop_
_geom_bond_atom_site_label_1
_geom_bond_atom_site_label_2
_geom_bond_distance
_geom_bond_site_symmetry_2
Mg0 Si3 2.706977 1_555
Mg0 Si4 2.885226 1_555
Mg0 Si5 2.892349 1_555
Mg0 Si2 3.038590 1_555
Mg0 Mg5 3.050052 1_566
Mg1 Si5 2.750609 1_544
Mg1 Si1 2.761845 1_554
Mg1 Si3 2.768828 1_655
Mg1 Si0 2.812264 1_655
Mg1 Mg5 3.060585 1_555
Mg1 Mg5 3.131352 1_655
Mg2 Si4 2.652001 1_555
Mg2 Si2 2.755344 1_554
Mg2 Si3 2.807713 1_555
Mg2 Si2 2.835348 1_454
Mg3 Si3 2.680318 1_555
Mg3 Si2 2.685349 1_555
Mg3 Si0 2.695068 1_555
Mg3 Si1 2.777179 1_555
Mg3 Mg5 3.183387 1_555
Mg4 Si3 2.783637 1_555
Mg4 Si2 2.951772 1_555
Mg4 Si5 3.162246 1_555
Mg5 Si5 2.688167 1_444
Mg5 Si0 2.771855 1_655
Mg5 Si5 2.852497 1_544
Mg5 Si4 3.045318 1_545
Mg5 Si1 3.061175 1_555
Mg6 Si3 2.685621 1_555
Mg6 Si2 2.767377 1_554
Mg6 Si1 2.789235 1_554
Mg6 Si3 3.039332 1_655
Mg7 Si4 2.712418 1_655
Mg7 Si1 2.896161 1_565
Mg7 Si2 2.909308 1_554
Mg7 Si4 2.927943 1_555
Si0 Si1 2.416889 1_455
Si0 Si5 2.482440 1_444
Si0 Si4 2.713374 1_545
Si1 Si4 2.395182 1_545
Si2 Si5 2.416735 1_555
Si4 Si5 2.659522 1_454
