# generated using pymatgen
data_Nb2InC
_symmetry_space_group_name_H-M   'P 1'
_cell_length_a   6.38752020
_cell_length_b   6.38752020
_cell_length_c   28.90809506
_cell_angle_alpha   90.00000000
_cell_angle_beta   90.00000000
_cell_angle_gamma   119.99999710
_symmetry_Int_Tables_number   1
_chemical_formula_structural   Nb2InC
_chemical_formula_sum   'Nb32 In16 C16'
_cell_volume   1021.44430576
_cell_formula_units_Z   16
loop_
 _symmetry_equiv_pos_site_id
 _symmetry_equiv_pos_as_xyz
  1  'x, y, z'
loop_
 _atom_site_type_symbol
 _atom_site_label
 _atom_site_symmetry_multiplicity
 _atom_site_fract_x
 _atom_site_fract_y
 _atom_site_fract_z
 _atom_site_occupancy
  Nb  Nb0_0  1  0.16666650  0.33333350  0.20834636  1
  Nb  Nb0_1  1  0.16666650  0.33333350  0.70834636  1
  Nb  Nb0_2  1  0.16666650  0.83333350  0.20834636  1
  Nb  Nb0_3  1  0.16666650  0.83333350  0.70834636  1
  Nb  Nb0_4  1  0.66666650  0.33333350  0.20834636  1
  Nb  Nb0_5  1  0.66666650  0.33333350  0.70834636  1
  Nb  Nb0_6  1  0.66666650  0.83333350  0.20834636  1
  Nb  Nb0_7  1  0.66666650  0.83333350  0.70834636  1
  Nb  Nb1_0  1  0.33333350  0.16666650  0.29165365  1
  Nb  Nb1_1  1  0.33333350  0.16666650  0.79165365  1
  Nb  Nb1_2  1  0.33333350  0.66666650  0.29165365  1
  Nb  Nb1_3  1  0.33333350  0.66666650  0.79165365  1
  Nb  Nb1_4  1  0.83333350  0.16666650  0.29165365  1
  Nb  Nb1_5  1  0.83333350  0.16666650  0.79165365  1
  Nb  Nb1_6  1  0.83333350  0.66666650  0.29165365  1
  Nb  Nb1_7  1  0.83333350  0.66666650  0.79165365  1
  Nb  Nb2_0  1  0.33333350  0.16666650  0.45834635  1
  Nb  Nb2_1  1  0.33333350  0.16666650  0.95834635  1
  Nb  Nb2_2  1  0.33333350  0.66666650  0.45834635  1
  Nb  Nb2_3  1  0.33333350  0.66666650  0.95834635  1
  Nb  Nb2_4  1  0.83333350  0.16666650  0.45834635  1
  Nb  Nb2_5  1  0.83333350  0.16666650  0.95834635  1
  Nb  Nb2_6  1  0.83333350  0.66666650  0.45834635  1
  Nb  Nb2_7  1  0.83333350  0.66666650  0.95834635  1
  Nb  Nb3_0  1  0.16666650  0.33333350  0.04165365  1
  Nb  Nb3_1  1  0.16666650  0.33333350  0.54165365  1
  Nb  Nb3_2  1  0.16666650  0.83333350  0.04165365  1
  Nb  Nb3_3  1  0.16666650  0.83333350  0.54165365  1
  Nb  Nb3_4  1  0.66666650  0.33333350  0.04165365  1
  Nb  Nb3_5  1  0.66666650  0.33333350  0.54165365  1
  Nb  Nb3_6  1  0.66666650  0.83333350  0.04165365  1
  Nb  Nb3_7  1  0.66666650  0.83333350  0.54165365  1
  In  In0_0  1  0.16666650  0.33333350  0.37500000  1
  In  In0_1  1  0.16666650  0.33333350  0.87500000  1
  In  In0_2  1  0.16666650  0.83333350  0.37500000  1
  In  In0_3  1  0.16666650  0.83333350  0.87500000  1
  In  In0_4  1  0.66666650  0.33333350  0.37500000  1
  In  In0_5  1  0.66666650  0.33333350  0.87500000  1
  In  In0_6  1  0.66666650  0.83333350  0.37500000  1
  In  In0_7  1  0.66666650  0.83333350  0.87500000  1
  In  In1_0  1  0.33333350  0.16666650  0.12500000  1
  In  In1_1  1  0.33333350  0.16666650  0.62500000  1
  In  In1_2  1  0.33333350  0.66666650  0.12500000  1
  In  In1_3  1  0.33333350  0.66666650  0.62500000  1
  In  In1_4  1  0.83333350  0.16666650  0.12500000  1
  In  In1_5  1  0.83333350  0.16666650  0.62500000  1
  In  In1_6  1  0.83333350  0.66666650  0.12500000  1
  In  In1_7  1  0.83333350  0.66666650  0.62500000  1
  C  C0_0  1  0.00000000  0.00000000  0.25000000  1
  C  C0_1  1  0.00000000  0.00000000  0.75000000  1
  C  C0_2  1  0.00000000  0.50000000  0.25000000  1
  C  C0_3  1  0.00000000  0.50000000  0.75000000  1
  C  C0_4  1  0.50000000  0.00000000  0.25000000  1
  C  C0_5  1  0.50000000  0.00000000  0.75000000  1
  C  C0_6  1  0.50000000  0.50000000  0.25000000  1
  C  C0_7  1  0.50000000  0.50000000  0.75000000  1
  C  C1_0  1  0.00000000  0.00000000  0.00000000  1
  C  C1_1  1  0.00000000  0.00000000  0.50000000  1
  C  C1_2  1  0.00000000  0.50000000  0.00000000  1
  C  C1_3  1  0.00000000  0.50000000  0.50000000  1
  C  C1_4  1  0.50000000  0.00000000  0.00000000  1
  C  C1_5  1  0.50000000  0.00000000  0.50000000  1
  C  C1_6  1  0.50000000  0.50000000  0.00000000  1
  C  C1_7  1  0.50000000  0.50000000  0.50000000  1
loop_
_geom_bond_atom_site_label_1
_geom_bond_atom_site_label_2
_geom_bond_distance
_geom_bond_site_symmetry_2
In0_0 Nb2_4 3.034001 1_455
In0_0 Nb2_2 3.034001 1_555
In0_0 Nb1_2 3.034001 1_555
In0_0 Nb1_4 3.034001 1_455
In0_0 Nb2_0 3.034004 1_555
In0_0 Nb1_0 3.034004 1_555
In0_0 In0_4 3.193760 1_455
In0_0 In0_2 3.193760 1_555
In0_0 In0_2 3.193760 1_545
In0_0 In0_4 3.193760 1_555
In0_0 In0_6 3.193760 1_445
In0_0 In0_6 3.193760 1_555
In0_1 Nb1_5 3.034001 1_455
In0_1 Nb1_3 3.034001 1_555
In0_1 Nb2_3 3.034001 1_555
In0_1 Nb2_5 3.034001 1_455
In0_1 Nb1_1 3.034004 1_555
In0_1 Nb2_1 3.034004 1_555
In0_1 In0_5 3.193760 1_455
In0_1 In0_3 3.193760 1_555
In0_1 In0_5 3.193760 1_555
In0_1 In0_3 3.193760 1_545
In0_1 In0_7 3.193760 1_445
In0_1 In0_7 3.193760 1_555
In0_2 Nb2_0 3.034001 1_565
In0_2 Nb2_6 3.034001 1_455
In0_2 Nb1_0 3.034001 1_565
In0_2 Nb1_6 3.034001 1_455
In0_2 Nb2_2 3.034004 1_555
In0_2 Nb1_2 3.034004 1_555
In0_2 In0_6 3.193760 1_555
In0_2 In0_6 3.193760 1_455
In0_2 In0_4 3.193760 1_565
In0_2 In0_4 3.193760 1_455
In0_3 Nb1_7 3.034001 1_455
In0_3 Nb1_1 3.034001 1_565
In0_3 Nb2_7 3.034001 1_455
In0_3 Nb2_1 3.034001 1_565
In0_3 Nb1_3 3.034004 1_555
In0_3 Nb2_3 3.034004 1_555
In0_3 In0_7 3.193760 1_455
In0_3 In0_7 3.193760 1_555
In0_3 In0_5 3.193760 1_565
In0_3 In0_5 3.193760 1_455
In0_4 Nb2_6 3.034001 1_555
In0_4 Nb2_0 3.034001 1_555
In0_4 Nb1_6 3.034001 1_555
In0_4 Nb1_0 3.034001 1_555
In0_4 Nb2_4 3.034004 1_555
In0_4 Nb1_4 3.034004 1_555
In0_4 In0_6 3.193760 1_555
In0_4 In0_6 3.193760 1_545
In0_5 Nb1_1 3.034001 1_555
In0_5 Nb1_7 3.034001 1_555
In0_5 Nb2_7 3.034001 1_555
In0_5 Nb2_1 3.034001 1_555
In0_5 Nb1_5 3.034004 1_555
In0_5 Nb2_5 3.034004 1_555
In0_5 In0_7 3.193760 1_555
In0_5 In0_7 3.193760 1_545
In0_6 Nb2_2 3.034001 1_555
In0_6 Nb2_4 3.034001 1_565
In0_6 Nb1_2 3.034001 1_555
In0_6 Nb1_4 3.034001 1_565
In0_6 Nb2_6 3.034004 1_555
In0_6 Nb1_6 3.034004 1_555
In0_7 Nb1_3 3.034001 1_555
In0_7 Nb1_5 3.034001 1_565
In0_7 Nb2_5 3.034001 1_565
In0_7 Nb2_3 3.034001 1_555
In0_7 Nb1_7 3.034004 1_555
In0_7 Nb2_7 3.034004 1_555
In1_0 Nb3_4 3.034001 1_555
In1_0 Nb3_2 3.034001 1_545
In1_0 Nb0_4 3.034001 1_555
In1_0 Nb0_2 3.034001 1_545
In1_0 Nb3_0 3.034004 1_555
In1_0 Nb0_0 3.034004 1_555
In1_0 In1_4 3.193760 1_455
In1_0 In1_2 3.193760 1_555
In1_0 In1_4 3.193760 1_555
In1_0 In1_2 3.193760 1_545
In1_0 In1_6 3.193760 1_555
In1_0 In1_6 3.193760 1_445
In1_1 Nb3_5 3.034001 1_555
In1_1 Nb3_3 3.034001 1_545
In1_1 Nb0_5 3.034001 1_555
In1_1 Nb0_3 3.034001 1_545
In1_1 Nb3_1 3.034004 1_555
In1_1 Nb0_1 3.034004 1_555
In1_1 In1_3 3.193760 1_555
In1_1 In1_5 3.193760 1_455
In1_1 In1_3 3.193760 1_545
In1_1 In1_5 3.193760 1_555
In1_1 In1_7 3.193760 1_555
In1_1 In1_7 3.193760 1_445
In1_2 Nb3_0 3.034001 1_555
In1_2 Nb0_0 3.034001 1_555
In1_2 Nb3_6 3.034001 1_555
In1_2 Nb0_6 3.034001 1_555
In1_2 Nb3_2 3.034004 1_555
In1_2 Nb0_2 3.034004 1_555
In1_2 In1_6 3.193760 1_555
In1_2 In1_6 3.193760 1_455
In1_2 In1_4 3.193760 1_455
In1_2 In1_4 3.193760 1_565
In1_3 Nb3_1 3.034001 1_555
In1_3 Nb3_7 3.034001 1_555
In1_3 Nb0_1 3.034001 1_555
In1_3 Nb0_7 3.034001 1_555
In1_3 Nb3_3 3.034004 1_555
In1_3 Nb0_3 3.034004 1_555
In1_3 In1_7 3.193760 1_555
In1_3 In1_7 3.193760 1_455
In1_3 In1_5 3.193760 1_455
In1_3 In1_5 3.193760 1_565
In1_4 Nb3_0 3.034001 1_655
In1_4 Nb0_0 3.034001 1_655
In1_4 Nb3_6 3.034001 1_545
In1_4 Nb0_6 3.034001 1_545
In1_4 Nb0_4 3.034004 1_555
In1_4 Nb3_4 3.034004 1_555
In1_4 In1_6 3.193760 1_545
In1_4 In1_6 3.193760 1_555
In1_5 Nb3_1 3.034001 1_655
In1_5 Nb3_7 3.034001 1_545
In1_5 Nb0_1 3.034001 1_655
In1_5 Nb0_7 3.034001 1_545
In1_5 Nb3_5 3.034004 1_555
In1_5 Nb0_5 3.034004 1_555
In1_5 In1_7 3.193760 1_545
In1_5 In1_7 3.193760 1_555
In1_6 Nb3_4 3.034001 1_555
In1_6 Nb3_2 3.034001 1_655
In1_6 Nb0_4 3.034001 1_555
In1_6 Nb0_2 3.034001 1_655
In1_6 Nb3_6 3.034004 1_555
In1_6 Nb0_6 3.034004 1_555
In1_7 Nb3_5 3.034001 1_555
In1_7 Nb3_3 3.034001 1_655
In1_7 Nb0_5 3.034001 1_555
In1_7 Nb0_3 3.034001 1_655
In1_7 Nb3_7 3.034004 1_555
In1_7 Nb0_7 3.034004 1_555
C0_0 Nb0_2 2.202260 1_545
C0_0 Nb1_4 2.202260 1_455
C0_0 Nb0_6 2.202263 1_445
C0_0 Nb0_0 2.202263 1_555
C0_0 Nb1_0 2.202263 1_555
C0_0 Nb1_6 2.202263 1_445
C0_1 Nb1_5 2.202260 1_455
C0_1 Nb0_3 2.202260 1_545
C0_1 Nb1_7 2.202263 1_445
C0_1 Nb0_1 2.202263 1_555
C0_1 Nb0_7 2.202263 1_445
C0_1 Nb1_1 2.202263 1_555
C0_2 Nb0_0 2.202260 1_555
C0_2 Nb1_6 2.202260 1_455
C0_2 Nb0_4 2.202263 1_455
C0_2 Nb0_2 2.202263 1_555
C0_2 Nb1_4 2.202263 1_455
C0_2 Nb1_2 2.202263 1_555
C0_3 Nb0_1 2.202260 1_555
C0_3 Nb1_7 2.202260 1_455
C0_3 Nb0_5 2.202263 1_455
C0_3 Nb0_3 2.202263 1_555
C0_3 Nb1_5 2.202263 1_455
C0_3 Nb1_3 2.202263 1_555
C0_4 Nb0_6 2.202260 1_545
C0_4 Nb1_0 2.202260 1_555
C0_4 Nb0_2 2.202263 1_545
C0_4 Nb0_4 2.202263 1_555
C0_4 Nb1_4 2.202263 1_555
C0_4 Nb1_2 2.202263 1_545
C0_5 Nb1_1 2.202260 1_555
C0_5 Nb0_7 2.202260 1_545
C0_5 Nb0_3 2.202263 1_545
C0_5 Nb0_5 2.202263 1_555
C0_5 Nb1_3 2.202263 1_545
C0_5 Nb1_5 2.202263 1_555
C0_6 Nb0_4 2.202260 1_555
C0_6 Nb1_2 2.202260 1_555
C0_6 Nb0_6 2.202263 1_555
C0_6 Nb0_0 2.202263 1_555
C0_6 Nb1_6 2.202263 1_555
C0_6 Nb1_0 2.202263 1_555
C0_7 Nb1_3 2.202260 1_555
C0_7 Nb0_5 2.202260 1_555
C0_7 Nb1_7 2.202263 1_555
C0_7 Nb0_7 2.202263 1_555
C0_7 Nb0_1 2.202263 1_555
C0_7 Nb1_1 2.202263 1_555
C1_0 Nb2_5 2.202260 1_454
C1_0 Nb3_2 2.202260 1_545
C1_0 Nb3_0 2.202263 1_555
C1_0 Nb3_6 2.202263 1_445
C1_0 Nb2_7 2.202263 1_444
C1_0 Nb2_1 2.202263 1_554
C1_1 Nb2_4 2.202260 1_455
C1_1 Nb3_3 2.202260 1_545
C1_1 Nb2_0 2.202263 1_555
C1_1 Nb3_1 2.202263 1_555
C1_1 Nb3_7 2.202263 1_445
C1_1 Nb2_6 2.202263 1_445
C1_2 Nb3_0 2.202260 1_555
C1_2 Nb2_7 2.202260 1_454
C1_2 Nb3_4 2.202263 1_455
C1_2 Nb3_2 2.202263 1_555
C1_2 Nb2_5 2.202263 1_454
C1_2 Nb2_3 2.202263 1_554
C1_3 Nb3_1 2.202260 1_555
C1_3 Nb2_6 2.202260 1_455
C1_3 Nb3_5 2.202263 1_455
C1_3 Nb2_4 2.202263 1_455
C1_3 Nb3_3 2.202263 1_555
C1_3 Nb2_2 2.202263 1_555
C1_4 Nb3_6 2.202260 1_545
C1_4 Nb2_1 2.202260 1_554
C1_4 Nb3_2 2.202263 1_545
C1_4 Nb3_4 2.202263 1_555
C1_4 Nb2_5 2.202263 1_554
C1_4 Nb2_3 2.202263 1_544
C1_5 Nb2_0 2.202260 1_555
C1_5 Nb3_7 2.202260 1_545
C1_5 Nb3_3 2.202263 1_545
C1_5 Nb2_2 2.202263 1_545
C1_5 Nb2_4 2.202263 1_555
C1_5 Nb3_5 2.202263 1_555
C1_6 Nb2_3 2.202260 1_554
C1_6 Nb3_4 2.202260 1_555
C1_6 Nb3_6 2.202263 1_555
C1_6 Nb2_1 2.202263 1_554
C1_6 Nb3_0 2.202263 1_555
C1_6 Nb2_7 2.202263 1_554
C1_7 Nb2_2 2.202260 1_555
C1_7 Nb3_5 2.202260 1_555
C1_7 Nb2_6 2.202263 1_555
C1_7 Nb2_0 2.202263 1_555
C1_7 Nb3_1 2.202263 1_555
C1_7 Nb3_7 2.202263 1_555
