# generated using pymatgen
data_Na
_symmetry_space_group_name_H-M   'P 1'
_cell_length_a   7.31063103
_cell_length_b   7.31063072
_cell_length_c   7.31063116
_cell_angle_alpha   109.47122750
_cell_angle_beta   109.47122670
_cell_angle_gamma   109.47121950
_symmetry_Int_Tables_number   1
_chemical_formula_structural   Na
_chemical_formula_sum   Na8
_cell_volume   300.77562088
_cell_formula_units_Z   8
loop_
 _symmetry_equiv_pos_site_id
 _symmetry_equiv_pos_as_xyz
  1  'x, y, z'
loop_
 _atom_site_type_symbol
 _atom_site_label
 _atom_site_symmetry_multiplicity
 _atom_site_fract_x
 _atom_site_fract_y
 _atom_site_fract_z
 _atom_site_occupancy
  Na  Na0  1  0.49551256  0.50000000  -0.00000000  1
  Na  Na1  1  -0.00000000  0.49551256  0.50000000  1
  Na  Na2  1  0.50000000  -0.00000000  0.99551256  1
  Na  Na3  1  -0.00000000  0.99551256  0.50000000  1
  Na  Na4  1  0.50000000  -0.00000000  0.49551256  1
  Na  Na5  1  0.99551256  0.50000000  -0.00000000  1
  Na  Na6  1  0.50448744  0.50448744  0.50448744  1
  Na  Na7  1  0.00448744  0.00448744  0.00448744  1
loop_
_geom_bond_atom_site_label_1
_geom_bond_atom_site_label_2
_geom_bond_distance
_geom_bond_site_symmetry_2
Na0 Na5 3.655316 1_555
Na0 Na5 3.655316 1_455
Na0 Na3 3.655707 1_544
Na0 Na3 3.655707 1_655
Na0 Na2 3.655708 1_554
Na0 Na2 3.655708 1_564
Na0 Na6 3.655708 1_555
Na0 Na6 3.655708 1_554
Na1 Na3 3.655315 1_545
Na1 Na3 3.655315 1_555
Na1 Na2 3.655707 1_454
Na1 Na2 3.655707 1_565
Na1 Na6 3.655708 1_555
Na1 Na6 3.655708 1_455
Na1 Na5 3.655708 1_455
Na1 Na5 3.655708 1_456
Na2 Na4 3.655316 1_556
Na2 Na4 3.655316 1_555
Na2 Na7 3.655708 1_656
Na2 Na7 3.655708 1_556
Na3 Na4 3.655708 1_465
Na3 Na4 3.655708 1_565
Na3 Na7 3.655708 1_566
Na3 Na7 3.655708 1_565
Na4 Na5 3.655707 1_556
Na4 Na5 3.655707 1_445
Na4 Na6 3.655708 1_555
Na4 Na6 3.655708 1_545
Na5 Na7 3.655708 1_665
Na5 Na7 3.655708 1_655
Na6 Na7 3.655315 1_666
Na6 Na7 3.655315 1_555
