# generated using pymatgen
data_Ta3Re3B4
_symmetry_space_group_name_H-M   'P 1'
_cell_length_a   3.06764300
_cell_length_b   6.25866537
_cell_length_c   6.25866537
_cell_angle_alpha   86.87819554
_cell_angle_beta   90.00000000
_cell_angle_gamma   90.00000000
_symmetry_Int_Tables_number   1
_chemical_formula_structural   Ta3Re3B4
_chemical_formula_sum   'Ta3 Re3 B4'
_cell_volume   119.98399449
_cell_formula_units_Z   1
loop_
 _symmetry_equiv_pos_site_id
 _symmetry_equiv_pos_as_xyz
  1  'x, y, z'
loop_
 _atom_site_type_symbol
 _atom_site_label
 _atom_site_symmetry_multiplicity
 _atom_site_fract_x
 _atom_site_fract_y
 _atom_site_fract_z
 _atom_site_occupancy
  Ta  Ta0  1  0.00000000  0.50959400  0.48455900  1
  Ta  Ta1  1  0.00000000  0.98455900  0.00959400  1
  Ta  Ta2  1  0.50000000  0.17000400  0.67000400  1
  Re  Re0  1  0.50000000  0.86520700  0.36520700  1
  Re  Re1  1  0.50000000  0.32688000  0.15106500  1
  Re  Re2  1  0.50000000  0.65106500  0.82688000  1
  B  B0  1  0.00000000  0.37581900  0.87581900  1
  B  B1  1  0.00000000  0.60949500  0.10949500  1
  B  B2  1  0.00000000  0.13564200  0.37173500  1
  B  B3  1  0.00000000  0.87173500  0.63564200  1
loop_
_geom_bond_atom_site_label_1
_geom_bond_atom_site_label_2
_geom_bond_distance
_geom_bond_site_symmetry_2
Re0 Ta2 2.770271 1_565
Re0 Ta0 2.771839 1_655
Re0 Ta0 2.771839 1_555
Re0 Ta1 2.771839 1_655
Re0 Ta1 2.771839 1_555
Re1 Ta1 2.816626 1_645
Re1 Ta1 2.816626 1_545
Re1 Ta0 2.876941 1_655
Re1 Ta0 2.876941 1_555
Re2 Ta0 2.816626 1_655
Re2 Ta0 2.816626 1_555
Re2 Ta1 2.876941 1_556
Re2 Ta1 2.876941 1_656
B0 B1 2.123859 1_556
B0 Re1 2.314423 1_456
B0 Re1 2.314423 1_556
B0 Re2 2.314423 1_455
B0 Re2 2.314423 1_555
B0 Ta2 2.419065 1_555
B0 Ta2 2.419065 1_455
B0 Ta1 2.544433 1_546
B0 Ta0 2.544433 1_555
B1 Re2 2.344953 1_554
B1 Re2 2.344953 1_454
B1 Re1 2.344953 1_455
B1 Re1 2.344953 1_555
B1 Ta0 2.396114 1_555
B1 Ta1 2.396114 1_555
B1 Re0 2.784644 1_455
B1 Re0 2.784644 1_555
B2 B3 2.271370 1_545
B2 Re0 2.286171 1_445
B2 Re0 2.286171 1_545
B2 Re1 2.347884 1_455
B2 Re1 2.347884 1_555
B2 Ta2 2.434625 1_455
B2 Ta2 2.434625 1_555
B2 Ta0 2.481185 1_555
B2 Ta1 2.502930 1_545
B3 Re0 2.286171 1_555
B3 Re0 2.286171 1_455
B3 Re2 2.347884 1_455
B3 Re2 2.347884 1_555
B3 Ta2 2.434625 1_465
B3 Ta2 2.434625 1_565
B3 Ta1 2.481185 1_556
B3 Ta0 2.502930 1_555
