# generated using pymatgen
data_Rb2As3
_symmetry_space_group_name_H-M   'P 1'
_cell_length_a   6.85482512
_cell_length_b   6.85482493
_cell_length_c   8.91420893
_cell_angle_alpha   110.12810619
_cell_angle_beta   110.12810834
_cell_angle_gamma   96.02674584
_symmetry_Int_Tables_number   1
_chemical_formula_structural   Rb2As3
_chemical_formula_sum   'Rb4 As6'
_cell_volume   357.21048476
_cell_formula_units_Z   2
loop_
 _symmetry_equiv_pos_site_id
 _symmetry_equiv_pos_as_xyz
  1  'x, y, z'
loop_
 _atom_site_type_symbol
 _atom_site_label
 _atom_site_symmetry_multiplicity
 _atom_site_fract_x
 _atom_site_fract_y
 _atom_site_fract_z
 _atom_site_occupancy
  Rb  Rb0  1  0.75000000  0.25000000  0.50000000  1
  Rb  Rb1  1  0.25000000  0.75000000  0.50000000  1
  Rb  Rb2  1  0.26345225  0.73654775  0.00000000  1
  Rb  Rb3  1  0.73654775  0.26345225  -0.00000000  1
  As  As0  1  0.69594592  0.69594592  0.84347860  1
  As  As1  1  0.85246532  0.85246532  0.15652140  1
  As  As2  1  0.30405408  0.30405408  0.15652140  1
  As  As3  1  0.14753468  0.14753468  0.84347860  1
  As  As4  1  0.84286661  0.84286661  0.68573523  1
  As  As5  1  0.15713339  0.15713339  0.31426477  1
loop_
_geom_bond_atom_site_label_1
_geom_bond_atom_site_label_2
_geom_bond_distance
_geom_bond_site_symmetry_2
As0 As1 2.392997 1_556
As0 As4 2.396285 1_555
As0 Rb3 3.595455 1_566
As0 Rb2 3.595455 1_656
As0 Rb1 3.665191 1_555
As0 Rb0 3.665191 1_555
As0 Rb3 3.683258 1_556
As0 Rb2 3.683258 1_556
As1 As5 2.396316 1_665
As1 Rb3 3.595466 1_565
As1 Rb2 3.595466 1_655
As1 Rb1 3.665190 1_655
As1 Rb0 3.665190 1_565
As1 Rb3 3.683245 1_555
As1 Rb2 3.683245 1_555
As2 As3 2.392997 1_554
As2 As5 2.396285 1_555
As2 Rb2 3.595455 1_545
As2 Rb3 3.595455 1_455
As2 Rb0 3.665191 1_555
As2 Rb1 3.665191 1_555
As2 Rb2 3.683258 1_555
As2 Rb3 3.683258 1_555
As3 As4 2.396316 1_445
As3 Rb2 3.595466 1_546
As3 Rb3 3.595466 1_456
As3 Rb0 3.665190 1_455
As3 Rb1 3.665190 1_545
As3 Rb2 3.683245 1_556
As3 Rb3 3.683245 1_556
As4 Rb2 3.602603 1_656
As4 Rb3 3.602603 1_566
As4 Rb0 3.709851 1_555
As4 Rb1 3.709851 1_555
As4 Rb0 3.709863 1_565
As4 Rb1 3.709863 1_655
As5 Rb3 3.602603 1_455
As5 Rb2 3.602603 1_545
As5 Rb1 3.709851 1_555
As5 Rb0 3.709851 1_555
As5 Rb1 3.709863 1_545
As5 Rb0 3.709863 1_455
