# generated using pymatgen
data_Ca3Sn13Ir4
_symmetry_space_group_name_H-M   'P 1'
_cell_length_a   9.77304614
_cell_length_b   9.77303408
_cell_length_c   9.77304487
_cell_angle_alpha   89.99999765
_cell_angle_beta   89.99998147
_cell_angle_gamma   89.99995650
_symmetry_Int_Tables_number   1
_chemical_formula_structural   Ca3Sn13Ir4
_chemical_formula_sum   'Ca6 Sn26 Ir8'
_cell_volume   933.44612050
_cell_formula_units_Z   2
loop_
 _symmetry_equiv_pos_site_id
 _symmetry_equiv_pos_as_xyz
  1  'x, y, z'
loop_
 _atom_site_type_symbol
 _atom_site_label
 _atom_site_symmetry_multiplicity
 _atom_site_fract_x
 _atom_site_fract_y
 _atom_site_fract_z
 _atom_site_occupancy
  Ca  Ca0  1  0.49999605  0.99999820  0.75000559  1
  Ca  Ca1  1  0.00000240  0.24999803  0.49999606  1
  Ca  Ca2  1  0.74999465  0.49999999  0.00000448  1
  Ca  Ca3  1  0.49999821  0.00000093  0.24999439  1
  Ca  Ca4  1  0.00000351  0.75000193  0.49999801  1
  Ca  Ca5  1  0.25000539  0.50000106  0.00000159  1
  Sn  Sn0  1  0.49999803  0.50000043  0.49999743  1
  Sn  Sn1  1  0.00000189  0.99999941  0.00000253  1
  Sn  Sn2  1  0.65208621  0.19676415  0.49999587  1
  Sn  Sn3  1  0.80323241  0.49999954  0.65208969  1
  Sn  Sn4  1  0.49999823  0.34791147  0.80324014  1
  Sn  Sn5  1  0.34791104  0.80323598  0.49999877  1
  Sn  Sn6  1  0.19676967  0.50000045  0.34790602  1
  Sn  Sn7  1  0.49999780  0.65208912  0.19676211  1
  Sn  Sn8  1  0.65208513  0.80323659  0.49999596  1
  Sn  Sn9  1  0.80323134  0.49999928  0.34790571  1
  Sn  Sn10  1  0.34791231  0.19676322  0.49999675  1
  Sn  Sn11  1  0.19676960  0.50000181  0.65209240  1
  Sn  Sn12  1  0.49999587  0.65208915  0.80323884  1
  Sn  Sn13  1  0.49999980  0.34791000  0.19676301  1
  Sn  Sn14  1  0.15209263  0.99999827  0.69676939  1
  Sn  Sn15  1  0.30323637  0.15208741  0.00000253  1
  Sn  Sn16  1  0.00000184  0.30323445  0.84791499  1
  Sn  Sn17  1  0.84790828  0.00000068  0.30322830  1
  Sn  Sn18  1  0.69676147  0.84791321  0.00000400  1
  Sn  Sn19  1  0.00000205  0.69676619  0.15208806  1
  Sn  Sn20  1  0.15209280  -0.00000046  0.30322914  1
  Sn  Sn21  1  0.30323617  0.84791143  0.00000120  1
  Sn  Sn22  1  0.84791058  0.00000063  0.69676913  1
  Sn  Sn23  1  0.69676205  0.15208716  0.00000416  1
  Sn  Sn24  1  0.00000020  0.30323283  0.15208879  1
  Sn  Sn25  1  0.00000417  0.69676681  0.84791512  1
  Ir  Ir0  1  0.74999714  0.24999961  0.75000444  1
  Ir  Ir1  1  0.25000293  0.75000076  0.24999592  1
  Ir  Ir2  1  0.74999640  0.75000094  0.24999542  1
  Ir  Ir3  1  0.25000357  0.24999901  0.75000363  1
  Ir  Ir4  1  0.25000285  0.75000088  0.75000412  1
  Ir  Ir5  1  0.74999648  0.24999906  0.24999554  1
  Ir  Ir6  1  0.25000347  0.24999936  0.24999599  1
  Ir  Ir7  1  0.74999703  0.75000101  0.75000477  1
loop_
_geom_bond_atom_site_label_1
_geom_bond_atom_site_label_2
_geom_bond_distance
_geom_bond_site_symmetry_2
Ca0 Sn14 3.439653 1_555
Ca0 Sn12 3.439698 1_555
Ca0 Sn4 3.439741 1_565
Ca0 Sn22 3.439760 1_565
Ca0 Sn21 3.446195 1_556
Ca0 Sn15 3.446213 1_566
Ca0 Sn18 3.446237 1_556
Ca0 Sn23 3.446259 1_566
Ca0 Sn5 3.446279 1_555
Ca0 Sn10 3.446301 1_565
Ca0 Sn8 3.446310 1_555
Ca0 Sn2 3.446340 1_565
Ca0 Ir4 3.455227 1_555
Ca0 Ir3 3.455244 1_565
Ca0 Ir7 3.455278 1_555
Ca0 Ir0 3.455310 1_565
Ca1 Sn24 3.439687 1_555
Ca1 Sn10 3.439713 1_555
Ca1 Sn2 3.439773 1_455
Ca1 Sn16 3.439802 1_555
Ca1 Sn20 3.446267 1_555
Ca1 Sn17 3.446281 1_455
Ca1 Sn6 3.446296 1_555
Ca1 Sn22 3.446300 1_455
Ca1 Sn9 3.446308 1_455
Ca1 Sn14 3.446310 1_545
Ca1 Sn3 3.446318 1_455
Ca1 Sn11 3.446332 1_555
Ca1 Ir6 3.455301 1_555
Ca1 Ir5 3.455338 1_455
Ca1 Ir3 3.455354 1_555
Ca1 Ir0 3.455387 1_455
Ca2 Sn9 3.439632 1_555
Ca2 Sn23 3.439734 1_555
Ca2 Sn18 3.439738 1_555
Ca2 Sn3 3.439764 1_554
Ca2 Sn13 3.446196 1_555
Ca2 Sn7 3.446200 1_555
Ca2 Sn4 3.446234 1_554
Ca2 Sn12 3.446258 1_554
Ca2 Sn24 3.446292 1_655
Ca2 Sn19 3.446299 1_655
Ca2 Sn16 3.446316 1_654
Ca2 Sn25 3.446341 1_654
Ca2 Ir2 3.455235 1_555
Ca2 Ir5 3.455236 1_555
Ca2 Ir0 3.455294 1_554
Ca2 Ir7 3.455296 1_554
Ca3 Sn20 3.439669 1_555
Ca3 Sn13 3.439696 1_555
Ca3 Sn17 3.439713 1_555
Ca3 Sn7 3.439724 1_545
Ca3 Sn23 3.446177 1_555
Ca3 Sn15 3.446178 1_555
Ca3 Sn18 3.446180 1_545
Ca3 Sn21 3.446203 1_545
Ca3 Sn10 3.446250 1_555
Ca3 Sn2 3.446260 1_555
Ca3 Sn8 3.446261 1_545
Ca3 Sn5 3.446285 1_545
Ca3 Ir6 3.455243 1_555
Ca3 Ir1 3.455261 1_545
Ca3 Ir5 3.455268 1_555
Ca3 Ir2 3.455278 1_545
Ca4 Sn5 3.439689 1_555
Ca4 Sn19 3.439714 1_555
Ca4 Sn25 3.439783 1_555
Ca4 Sn8 3.439794 1_455
Ca4 Sn20 3.446268 1_565
Ca4 Sn14 3.446273 1_555
Ca4 Sn6 3.446290 1_555
Ca4 Sn11 3.446290 1_555
Ca4 Sn22 3.446302 1_465
Ca4 Sn17 3.446304 1_465
Ca4 Sn3 3.446324 1_455
Ca4 Sn9 3.446334 1_455
Ca4 Ir1 3.455303 1_555
Ca4 Ir4 3.455332 1_555
Ca4 Ir2 3.455361 1_455
Ca4 Ir7 3.455384 1_455
Ca5 Sn6 3.439661 1_555
Ca5 Sn11 3.439707 1_554
Ca5 Sn21 3.439708 1_555
Ca5 Sn15 3.439739 1_555
Ca5 Sn12 3.446181 1_554
Ca5 Sn7 3.446183 1_555
Ca5 Sn4 3.446195 1_554
Ca5 Sn13 3.446213 1_555
Ca5 Sn25 3.446264 1_554
Ca5 Sn19 3.446274 1_555
Ca5 Sn16 3.446287 1_554
Ca5 Sn24 3.446309 1_555
Ca5 Ir1 3.455250 1_555
Ca5 Ir6 3.455264 1_555
Ca5 Ir4 3.455272 1_554
Ca5 Ir3 3.455291 1_554
Sn0 Sn6 3.315343 1_555
Sn0 Sn11 3.315358 1_555
Sn0 Sn5 3.315382 1_555
Sn0 Sn9 3.315387 1_555
Sn0 Sn8 3.315390 1_555
Sn0 Sn13 3.315390 1_555
Sn0 Sn7 3.315390 1_555
Sn0 Sn10 3.315393 1_555
Sn0 Sn2 3.315394 1_555
Sn0 Sn3 3.315399 1_555
Sn0 Sn12 3.315444 1_555
Sn0 Sn4 3.315456 1_555
Sn1 Sn20 3.315325 1_565
Sn1 Sn17 3.315329 1_465
Sn1 Sn19 3.315356 1_555
Sn1 Sn25 3.315359 1_554
Sn1 Sn24 3.315361 1_565
Sn1 Sn21 3.315378 1_555
Sn1 Sn16 3.315381 1_564
Sn1 Sn14 3.315381 1_554
Sn1 Sn15 3.315381 1_565
Sn1 Sn22 3.315386 1_464
Sn1 Sn23 3.315425 1_465
Sn1 Sn18 3.315425 1_455
Ir0 Sn4 2.675034 1_555
Ir0 Sn22 2.675037 1_555
Ir0 Sn23 2.675043 1_556
Ir0 Sn3 2.675051 1_555
Ir0 Sn16 2.675081 1_655
Ir0 Sn2 2.675118 1_555
Ir1 Sn21 2.674988 1_555
Ir1 Sn7 2.674993 1_555
Ir1 Sn20 2.675020 1_565
Ir1 Sn6 2.675034 1_555
Ir1 Sn19 2.675037 1_555
Ir1 Sn5 2.675056 1_555
Ir2 Sn18 2.674968 1_555
Ir2 Sn7 2.675028 1_555
Ir2 Sn17 2.675035 1_565
Ir2 Sn8 2.675047 1_555
Ir2 Sn9 2.675050 1_555
Ir2 Sn19 2.675077 1_655
Ir3 Sn4 2.675001 1_555
Ir3 Sn15 2.675028 1_556
Ir3 Sn14 2.675043 1_545
Ir3 Sn16 2.675057 1_555
Ir3 Sn11 2.675061 1_555
Ir3 Sn10 2.675095 1_555
Ir4 Sn12 2.674979 1_555
Ir4 Sn21 2.675009 1_556
Ir4 Sn14 2.675011 1_555
Ir4 Sn25 2.675027 1_555
Ir4 Sn11 2.675029 1_555
Ir4 Sn5 2.675078 1_555
Ir5 Sn23 2.674965 1_555
Ir5 Sn13 2.675005 1_555
Ir5 Sn17 2.675021 1_555
Ir5 Sn9 2.675037 1_555
Ir5 Sn2 2.675040 1_555
Ir5 Sn24 2.675056 1_655
Ir6 Sn15 2.674981 1_555
Ir6 Sn13 2.675003 1_555
Ir6 Sn20 2.675032 1_555
Ir6 Sn6 2.675041 1_555
Ir6 Sn10 2.675042 1_555
Ir6 Sn24 2.675053 1_555
Ir7 Sn18 2.675038 1_556
Ir7 Sn22 2.675045 1_565
Ir7 Sn12 2.675052 1_555
Ir7 Sn3 2.675065 1_555
Ir7 Sn25 2.675100 1_655
Ir7 Sn8 2.675123 1_555
