# generated using pymatgen
data_KHfMg14O15
_symmetry_space_group_name_H-M   'P 1'
_cell_length_a   8.69165083
_cell_length_b   8.68006673
_cell_length_c   4.43717411
_cell_angle_alpha   90.00000000
_cell_angle_beta   90.00000000
_cell_angle_gamma   90.00000000
_symmetry_Int_Tables_number   1
_chemical_formula_structural   KHfMg14O15
_chemical_formula_sum   'K1 Hf1 Mg14 O15'
_cell_volume   334.75864809
_cell_formula_units_Z   1
loop_
 _symmetry_equiv_pos_site_id
 _symmetry_equiv_pos_as_xyz
  1  'x, y, z'
loop_
 _atom_site_type_symbol
 _atom_site_label
 _atom_site_symmetry_multiplicity
 _atom_site_fract_x
 _atom_site_fract_y
 _atom_site_fract_z
 _atom_site_occupancy
  K  K0  1  0.00068115  0.00000000  0.00000000  1
  Hf  Hf0  1  0.49330539  0.50000000  0.00000000  1
  Mg  Mg0  1  0.99675334  0.50000000  0.00000000  1
  Mg  Mg1  1  0.50048602  0.00000000  0.00000000  1
  Mg  Mg2  1  0.00102684  0.24980172  0.50000000  1
  Mg  Mg3  1  0.00102684  0.75019828  0.50000000  1
  Mg  Mg4  1  0.49886435  0.24025030  0.50000000  1
  Mg  Mg5  1  0.49886435  0.75974970  0.50000000  1
  Mg  Mg6  1  0.24832379  0.00000000  0.50000000  1
  Mg  Mg7  1  0.24494100  0.50000000  0.50000000  1
  Mg  Mg8  1  0.75173342  0.00000000  0.50000000  1
  Mg  Mg9  1  0.75801611  0.50000000  0.50000000  1
  Mg  Mg10  1  0.24189462  0.24313345  -0.00000000  1
  Mg  Mg11  1  0.24189462  0.75686655  0.00000000  1
  Mg  Mg12  1  0.75784393  0.24569862  0.00000000  1
  Mg  Mg13  1  0.75784393  0.75430138  -0.00000000  1
  O  O0  1  0.27716105  0.00000000  0.00000000  1
  O  O1  1  0.72394235  0.00000000  0.00000000  1
  O  O2  1  0.74838930  0.50000000  0.00000000  1
  O  O3  1  0.25102918  0.24411175  0.50000000  1
  O  O4  1  0.25102918  0.75588825  0.50000000  1
  O  O5  1  0.74792778  0.25060076  0.50000000  1
  O  O6  1  0.74792778  0.74939924  0.50000000  1
  O  O7  1  0.99753347  0.00000000  0.50000000  1
  O  O8  1  0.99931760  0.50000000  0.50000000  1
  O  O9  1  0.50116444  0.00000000  0.50000000  1
  O  O10  1  0.50752943  0.50000000  0.50000000  1
  O  O11  1  0.00085161  0.27580294  0.00000000  1
  O  O12  1  0.00085161  0.72419706  -0.00000000  1
  O  O13  1  0.50092275  0.25947896  0.00000000  1
  O  O14  1  0.50092275  0.74052104  0.00000000  1
loop_
_geom_bond_atom_site_label_1
_geom_bond_atom_site_label_2
_geom_bond_distance
_geom_bond_site_symmetry_2
K0 O7 2.218756 1_454
K0 O7 2.218756 1_455
K0 O11 2.393988 1_555
K0 O12 2.393988 1_545
K0 O0 2.403067 1_555
K0 O1 2.405317 1_455
Hf0 O14 2.088788 1_555
Hf0 O13 2.088788 1_555
Hf0 O2 2.217100 1_555
Hf0 O10 2.222029 1_555
Hf0 O10 2.222029 1_554
Mg0 O12 1.946371 1_655
Mg0 O11 1.946371 1_655
Mg0 O2 2.158694 1_555
Mg0 O8 2.218699 1_554
Mg0 O8 2.218699 1_555
Mg1 O0 1.941063 1_555
Mg1 O1 1.942204 1_555
Mg1 O9 2.218595 1_554
Mg1 O9 2.218595 1_555
Mg1 O13 2.252298 1_555
Mg1 O14 2.252298 1_545
Mg2 O7 2.168508 1_455
Mg2 O8 2.171789 1_455
Mg2 O3 2.173494 1_555
Mg2 O5 2.199860 1_455
Mg2 O11 2.230038 1_556
Mg2 O11 2.230038 1_555
Mg3 O7 2.168508 1_465
Mg3 O8 2.171789 1_455
Mg3 O4 2.173494 1_555
Mg3 O6 2.199860 1_455
Mg3 O12 2.230038 1_556
Mg3 O12 2.230038 1_555
Mg4 O9 2.085484 1_555
Mg4 O3 2.154358 1_555
Mg4 O5 2.166636 1_555
Mg4 O13 2.224928 1_555
Mg4 O13 2.224928 1_556
Mg4 O10 2.255902 1_555
Mg5 O9 2.085484 1_565
Mg5 O4 2.154358 1_555
Mg5 O6 2.166636 1_555
Mg5 O14 2.224928 1_555
Mg5 O14 2.224928 1_556
Mg5 O10 2.255902 1_555
Mg6 O4 2.119037 1_545
Mg6 O3 2.119037 1_555
Mg6 O7 2.179782 1_455
Mg6 O9 2.197603 1_555
Mg6 O0 2.232700 1_555
Mg6 O0 2.232700 1_556
Mg7 O8 2.134873 1_455
Mg7 O4 2.221757 1_555
Mg7 O3 2.221757 1_555
Mg7 O10 2.282327 1_555
Mg8 O7 2.136408 1_555
Mg8 O6 2.175483 1_545
Mg8 O5 2.175483 1_555
Mg8 O9 2.177858 1_555
Mg8 O1 2.231698 1_556
Mg8 O1 2.231698 1_555
Mg9 O8 2.097308 1_555
Mg9 O5 2.166577 1_555
Mg9 O6 2.166577 1_555
Mg9 O10 2.177143 1_555
Mg9 O2 2.220164 1_555
Mg9 O2 2.220164 1_556
Mg10 O11 2.114166 1_555
Mg10 O0 2.132559 1_555
Mg10 O3 2.220023 1_554
Mg10 O3 2.220023 1_555
Mg10 O13 2.255848 1_555
Mg11 O12 2.114166 1_555
Mg11 O0 2.132559 1_565
Mg11 O4 2.220023 1_554
Mg11 O4 2.220023 1_555
Mg11 O14 2.255848 1_555
Mg12 O11 2.128241 1_655
Mg12 O1 2.152940 1_555
Mg12 O2 2.208882 1_555
Mg12 O5 2.220668 1_554
Mg12 O5 2.220668 1_555
Mg12 O13 2.236270 1_555
Mg13 O12 2.128241 1_655
Mg13 O1 2.152940 1_565
Mg13 O2 2.208882 1_555
Mg13 O6 2.220668 1_554
Mg13 O6 2.220668 1_555
Mg13 O14 2.236270 1_555
