# generated using pymatgen
data_Na2Mn3P2H2(C4O9)2
_symmetry_space_group_name_H-M   'P 1'
_cell_length_a   10.72445400
_cell_length_b   5.92915100
_cell_length_c   15.61734060
_cell_angle_alpha   75.26424635
_cell_angle_beta   90.00000000
_cell_angle_gamma   90.00000000
_symmetry_Int_Tables_number   1
_chemical_formula_structural   Na2Mn3P2H2(C4O9)2
_chemical_formula_sum   'Na4 Mn6 P4 H4 C16 O36'
_cell_volume   960.39591639
_cell_formula_units_Z   2
loop_
 _symmetry_equiv_pos_site_id
 _symmetry_equiv_pos_as_xyz
  1  'x, y, z'
loop_
 _atom_site_type_symbol
 _atom_site_label
 _atom_site_symmetry_multiplicity
 _atom_site_fract_x
 _atom_site_fract_y
 _atom_site_fract_z
 _atom_site_occupancy
  Na  Na0  1  0.24754500  0.69821200  0.67868700  1
  Na  Na1  1  0.25245500  0.69821200  0.17868700  1
  Na  Na2  1  0.75245500  0.30178800  0.32131300  1
  Na  Na3  1  0.74754500  0.30178800  0.82131300  1
  Mn  Mn0  1  0.05486500  0.16614100  0.74234200  1
  Mn  Mn1  1  0.44513500  0.16614100  0.24234200  1
  Mn  Mn2  1  0.94513500  0.83385900  0.25765800  1
  Mn  Mn3  1  0.55486500  0.83385900  0.75765800  1
  Mn  Mn4  1  0.50000000  0.00000000  0.00000000  1
  Mn  Mn5  1  0.00000000  0.00000000  0.50000000  1
  P  P0  1  0.18635600  0.11285500  0.95476000  1
  P  P1  1  0.31364400  0.11285500  0.45476000  1
  P  P2  1  0.81364400  0.88714500  0.04524000  1
  P  P3  1  0.68635600  0.88714500  0.54524000  1
  H  H0  1  0.06674200  0.95588800  0.07123700  1
  H  H1  1  0.43325800  0.95588800  0.57123700  1
  H  H2  1  0.93325800  0.04411200  0.92876300  1
  H  H3  1  0.56674200  0.04411200  0.42876300  1
  C  C0  1  0.84555400  0.82001200  0.76405000  1
  C  C1  1  0.65444600  0.82001200  0.26405000  1
  C  C2  1  0.15444600  0.17998800  0.23595000  1
  C  C3  1  0.34555400  0.17998800  0.73595000  1
  C  C4  1  0.96582700  0.68051200  0.75579900  1
  C  C5  1  0.53417300  0.68051200  0.25579900  1
  C  C6  1  0.03417300  0.31948800  0.24420100  1
  C  C7  1  0.46582700  0.31948800  0.74420100  1
  C  C8  1  0.03052700  0.47266700  0.54688600  1
  C  C9  1  0.46947300  0.47266700  0.04688600  1
  C  C10  1  0.96947300  0.52733300  0.45311400  1
  C  C11  1  0.53052700  0.52733300  0.95311400  1
  C  C12  1  0.16677000  0.41570600  0.95217300  1
  C  C13  1  0.33323000  0.41570600  0.45217300  1
  C  C14  1  0.83323000  0.58429400  0.04782700  1
  C  C15  1  0.66677000  0.58429400  0.54782700  1
  O  O0  1  0.32289700  0.07759000  0.93643600  1
  O  O1  1  0.17710300  0.07759000  0.43643600  1
  O  O2  1  0.67710300  0.92241000  0.06356400  1
  O  O3  1  0.82289700  0.92241000  0.56356400  1
  O  O4  1  0.08574500  0.06782600  0.89117400  1
  O  O5  1  0.41425500  0.06782600  0.39117400  1
  O  O6  1  0.91425500  0.93217400  0.10882600  1
  O  O7  1  0.58574500  0.93217400  0.60882600  1
  O  O8  1  0.15665000  0.95450400  0.05268400  1
  O  O9  1  0.34335000  0.95450400  0.55268400  1
  O  O10  1  0.84335000  0.04549600  0.94731600  1
  O  O11  1  0.65665000  0.04549600  0.44731600  1
  O  O12  1  0.85912400  0.03564500  0.75743700  1
  O  O13  1  0.64087600  0.03564500  0.25743700  1
  O  O14  1  0.14087600  0.96435500  0.24256300  1
  O  O15  1  0.35912400  0.96435500  0.74256300  1
  O  O16  1  0.74361100  0.70818700  0.77676900  1
  O  O17  1  0.75638900  0.70818700  0.27676900  1
  O  O18  1  0.25638900  0.29181300  0.22323100  1
  O  O19  1  0.24361100  0.29181300  0.72323100  1
  O  O20  1  0.95369400  0.46398500  0.76409200  1
  O  O21  1  0.54630600  0.46398500  0.26409200  1
  O  O22  1  0.04630600  0.53601500  0.23590800  1
  O  O23  1  0.45369400  0.53601500  0.73590800  1
  O  O24  1  0.06587000  0.79763900  0.74053900  1
  O  O25  1  0.43413000  0.79763900  0.24053900  1
  O  O26  1  0.93413000  0.20236100  0.25946100  1
  O  O27  1  0.56587000  0.20236100  0.75946100  1
  O  O28  1  0.06643800  0.64323500  0.57522500  1
  O  O29  1  0.43356200  0.64323500  0.07522500  1
  O  O30  1  0.93356200  0.35676500  0.42477500  1
  O  O31  1  0.56643800  0.35676500  0.92477500  1
  O  O32  1  0.03912600  0.25737600  0.58844000  1
  O  O33  1  0.46087400  0.25737600  0.08844000  1
  O  O34  1  0.96087400  0.74262400  0.41156000  1
  O  O35  1  0.53912600  0.74262400  0.91156000  1
loop_
_geom_bond_atom_site_label_1
_geom_bond_atom_site_label_2
_geom_bond_distance
_geom_bond_site_symmetry_2
Na0 O24 2.316557 1_555
Na0 O19 2.332198 1_555
Na0 O9 2.390807 1_555
Na0 O15 2.391228 1_555
Na0 O23 2.484761 1_555
Na0 O28 2.599507 1_555
Na1 O25 2.316557 1_555
Na1 O18 2.332198 1_555
Na1 O8 2.390807 1_555
Na1 O14 2.391228 1_555
Na1 O22 2.484761 1_555
Na1 O29 2.599507 1_555
Na2 O26 2.316557 1_555
Na2 O17 2.332198 1_555
Na2 O11 2.390807 1_555
Na2 O13 2.391228 1_555
Na2 O21 2.484761 1_555
Na2 O30 2.599507 1_555
Na3 O27 2.316557 1_555
Na3 O16 2.332198 1_555
Na3 O10 2.390807 1_555
Na3 O12 2.391228 1_555
Na3 O20 2.484761 1_555
Na3 O31 2.599507 1_555
Mn0 O19 2.151403 1_555
Mn0 O20 2.171727 1_455
Mn0 O24 2.195410 1_545
Mn0 O12 2.228934 1_455
Mn0 O4 2.272189 1_555
Mn0 O32 2.331670 1_555
Mn1 O18 2.151403 1_555
Mn1 O21 2.171727 1_555
Mn1 O25 2.195410 1_545
Mn1 O13 2.228934 1_555
Mn1 O5 2.272189 1_555
Mn1 O33 2.331670 1_555
Mn2 O17 2.151403 1_555
Mn2 O22 2.171727 1_655
Mn2 O26 2.195410 1_565
Mn2 O14 2.228934 1_655
Mn2 O6 2.272189 1_555
Mn2 O34 2.331670 1_555
Mn3 O16 2.151403 1_555
Mn3 O23 2.171727 1_555
Mn3 O27 2.195410 1_565
Mn3 O15 2.228934 1_555
Mn3 O7 2.272189 1_555
Mn3 O35 2.331670 1_555
Mn4 O0 2.138278 1_554
Mn4 O2 2.138278 1_545
Mn4 O31 2.257916 1_554
Mn4 O29 2.257916 1_545
Mn4 O35 2.341959 1_544
Mn4 O33 2.341959 1_555
Mn5 O3 2.138278 1_445
Mn5 O1 2.138278 1_555
Mn5 O30 2.257916 1_455
Mn5 O28 2.257916 1_545
Mn5 O32 2.341959 1_555
Mn5 O34 2.341959 1_445
H0 O8 1.007442 1_555
H0 O6 1.731107 1_455
H1 O9 1.007442 1_555
H1 O7 1.731107 1_555
H2 O10 1.007442 1_555
H2 O4 1.731107 1_655
H3 O11 1.007442 1_555
H3 O5 1.731107 1_555
C0 O12 1.264629 1_565
C0 O16 1.267805 1_555
C1 O13 1.264629 1_565
C1 O17 1.267805 1_555
C2 O14 1.264629 1_545
C2 O18 1.267805 1_555
C3 O15 1.264629 1_545
C3 O19 1.267805 1_555
C4 O20 1.263849 1_555
C4 O24 1.267284 1_655
C5 O21 1.263849 1_555
C5 O25 1.267284 1_555
C6 O22 1.263849 1_555
C6 O26 1.267284 1_455
C7 O23 1.263849 1_555
C7 O27 1.267284 1_555
C8 O28 1.262804 1_555
C8 O32 1.279714 1_555
C9 O29 1.262804 1_555
C9 O33 1.279714 1_555
C10 O30 1.262804 1_555
C10 O34 1.279714 1_555
C11 O31 1.262804 1_555
C11 O35 1.279714 1_555
C12 P0 1.798111 1_555
C13 P1 1.798111 1_555
C14 P2 1.798111 1_555
C15 P3 1.798111 1_555
O0 P0 1.516677 1_555
O1 P1 1.516677 1_555
O2 P2 1.516677 1_555
O3 P3 1.516677 1_555
O4 P0 1.535099 1_555
O5 P1 1.535099 1_555
O6 P2 1.535099 1_555
O7 P3 1.535099 1_555
O8 P0 1.609767 1_564
O9 P1 1.609767 1_565
O10 P2 1.609767 1_546
O11 P3 1.609767 1_545
