# generated using pymatgen
data_Ti3NiS6
_symmetry_space_group_name_H-M   'P 1'
_cell_length_a   6.62884623
_cell_length_b   6.62884803
_cell_length_c   6.62884418
_cell_angle_alpha   52.81558627
_cell_angle_beta   52.81557945
_cell_angle_gamma   52.81558953
_symmetry_Int_Tables_number   1
_chemical_formula_structural   Ti3NiS6
_chemical_formula_sum   'Ti3 Ni1 S6'
_cell_volume   171.26323083
_cell_formula_units_Z   1
loop_
 _symmetry_equiv_pos_site_id
 _symmetry_equiv_pos_as_xyz
  1  'x, y, z'
loop_
 _atom_site_type_symbol
 _atom_site_label
 _atom_site_symmetry_multiplicity
 _atom_site_fract_x
 _atom_site_fract_y
 _atom_site_fract_z
 _atom_site_occupancy
  Ti  Ti0  1  0.67096185  0.67096285  0.67096185  1
  Ti  Ti1  1  0.32903815  0.32903715  0.32903815  1
  Ti  Ti2  1  -0.00000000  0.00000000  -0.00000000  1
  Ni  Ni0  1  0.50000000  0.50000000  0.50000000  1
  S  S0  1  0.09016763  0.74755068  0.41487364  1
  S  S1  1  0.74755068  0.41487364  0.09016763  1
  S  S2  1  0.41487364  0.09016763  0.74755068  1
  S  S3  1  0.90983237  0.25244932  0.58512636  1
  S  S4  1  0.58512636  0.90983237  0.25244932  1
  S  S5  1  0.25244932  0.58512636  0.90983237  1
loop_
_geom_bond_atom_site_label_1
_geom_bond_atom_site_label_2
_geom_bond_distance
_geom_bond_site_symmetry_2
Ni0 S5 2.395155 1_555
Ni0 S1 2.395155 1_555
Ni0 S0 2.395156 1_555
Ni0 S3 2.395156 1_555
Ni0 S2 2.395157 1_555
Ni0 S4 2.395157 1_555
S0 Ti0 2.413081 1_455
S0 Ti2 2.436354 1_565
S0 Ti1 2.456955 1_555
S1 Ti0 2.413083 1_554
S1 Ti2 2.436355 1_655
S1 Ti1 2.456952 1_555
S2 Ti0 2.413079 1_545
S2 Ti2 2.436355 1_556
S2 Ti1 2.456949 1_555
S3 Ti1 2.413081 1_655
S3 Ti2 2.436354 1_656
S3 Ti0 2.456955 1_555
S4 Ti1 2.413079 1_565
S4 Ti2 2.436355 1_665
S4 Ti0 2.456949 1_555
S5 Ti1 2.413083 1_556
S5 Ti2 2.436355 1_566
S5 Ti0 2.456952 1_555
