# generated using pymatgen
data_La2TeMo6O35
_symmetry_space_group_name_H-M   'P 1'
_cell_length_a   13.72438700
_cell_length_b   10.42989700
_cell_length_c   10.47931715
_cell_angle_alpha   77.96473560
_cell_angle_beta   90.00000000
_cell_angle_gamma   90.00000000
_symmetry_Int_Tables_number   1
_chemical_formula_structural   La2TeMo6O35
_chemical_formula_sum   'La4 Te2 Mo12 O70'
_cell_volume   1467.07883428
_cell_formula_units_Z   2
loop_
 _symmetry_equiv_pos_site_id
 _symmetry_equiv_pos_as_xyz
  1  'x, y, z'
loop_
 _atom_site_type_symbol
 _atom_site_label
 _atom_site_symmetry_multiplicity
 _atom_site_fract_x
 _atom_site_fract_y
 _atom_site_fract_z
 _atom_site_occupancy
  La  La0  1  0.81301500  0.71041700  0.68787700  1
  La  La1  1  0.68839300  0.21956600  0.17774000  1
  La  La2  1  0.18839300  0.78043400  0.82226000  1
  La  La3  1  0.31301500  0.28958300  0.31212300  1
  Te  Te0  1  0.99556400  0.24844900  0.75339400  1
  Te  Te1  1  0.49556400  0.75155100  0.24660600  1
  Mo  Mo0  1  0.00112200  0.47338200  0.93460200  1
  Mo  Mo1  1  0.50151500  0.97594100  0.42405900  1
  Mo  Mo2  1  0.00151500  0.02405900  0.57594100  1
  Mo  Mo3  1  0.50112200  0.52661800  0.06539800  1
  Mo  Mo4  1  0.97064600  0.93644100  0.89763500  1
  Mo  Mo5  1  0.52991900  0.44163800  0.38651000  1
  Mo  Mo6  1  0.02991900  0.55836200  0.61349000  1
  Mo  Mo7  1  0.47064600  0.06355900  0.10236500  1
  Mo  Mo8  1  0.97082000  0.16013300  0.07994300  1
  Mo  Mo9  1  0.53087500  0.66521700  0.56825300  1
  Mo  Mo10  1  0.03087500  0.33478300  0.43174700  1
  Mo  Mo11  1  0.47082000  0.83986700  0.92005700  1
  O  O0  1  0.88344800  0.82587700  0.85699900  1
  O  O1  1  0.61853900  0.33484800  0.34157300  1
  O  O2  1  0.11853900  0.66515200  0.65842700  1
  O  O3  1  0.38344800  0.17412300  0.14300100  1
  O  O4  1  0.73197000  0.06997400  0.66019700  1
  O  O5  1  0.76849700  0.56586400  0.17560200  1
  O  O6  1  0.26849700  0.43413600  0.82439800  1
  O  O7  1  0.23197000  0.93002600  0.33980300  1
  O  O8  1  0.90461600  0.52014400  0.02503100  1
  O  O9  1  0.59799900  0.02637600  0.50945000  1
  O  O10  1  0.09799900  0.97362400  0.49055000  1
  O  O11  1  0.40461600  0.47985600  0.97496900  1
  O  O12  1  0.91199000  0.30311900  0.88545800  1
  O  O13  1  0.58175300  0.80494700  0.37250600  1
  O  O14  1  0.08175300  0.19505300  0.62749400  1
  O  O15  1  0.41199000  0.69688100  0.11454200  1
  O  O16  1  0.86332300  0.20502800  0.15860600  1
  O  O17  1  0.63979300  0.70845200  0.64565900  1
  O  O18  1  0.13979300  0.29154800  0.35434100  1
  O  O19  1  0.36332300  0.79497200  0.84139400  1
  O  O20  1  0.04216200  0.06812900  0.19840300  1
  O  O21  1  0.46045800  0.57323300  0.68806300  1
  O  O22  1  0.96045800  0.42676700  0.31193700  1
  O  O23  1  0.54216200  0.93187100  0.80159700  1
  O  O24  1  0.94155400  0.56558800  0.76886500  1
  O  O25  1  0.56173300  0.06692800  0.25377700  1
  O  O26  1  0.06173300  0.93307200  0.74622300  1
  O  O27  1  0.44155400  0.43441200  0.23113500  1
  O  O28  1  0.91905300  0.09380000  0.73772400  1
  O  O29  1  0.57630400  0.60155500  0.22396900  1
  O  O30  1  0.07630400  0.39844500  0.77603100  1
  O  O31  1  0.41905300  0.90620000  0.26227600  1
  O  O32  1  0.76307200  0.47451000  0.68972700  1
  O  O33  1  0.73510500  0.99679400  0.10014800  1
  O  O34  1  0.23510500  0.00320600  0.89985200  1
  O  O35  1  0.26307200  0.52549000  0.31027300  1
  O  O36  1  0.76823200  0.57178000  0.93491400  1
  O  O37  1  0.73888600  0.09596800  0.42097900  1
  O  O38  1  0.23888600  0.90403200  0.57902100  1
  O  O39  1  0.26823200  0.42822000  0.06508600  1
  O  O40  1  0.79338300  0.81854800  0.36047300  1
  O  O41  1  0.75292200  0.38536100  0.88398400  1
  O  O42  1  0.25292200  0.61463900  0.11601600  1
  O  O43  1  0.29338300  0.18145200  0.63952700  1
  O  O44  1  0.90053500  0.01439300  0.01930300  1
  O  O45  1  0.59757000  0.51927800  0.50594600  1
  O  O46  1  0.09757000  0.48072200  0.49405400  1
  O  O47  1  0.40053500  0.98560700  0.98069700  1
  O  O48  1  0.04662600  0.32198300  0.05573700  1
  O  O49  1  0.45537300  0.82695100  0.54870800  1
  O  O50  1  0.95537300  0.17304900  0.45129200  1
  O  O51  1  0.54662600  0.67801700  0.94426300  1
  O  O52  1  0.06383200  0.84222200  0.98983500  1
  O  O53  1  0.43756400  0.34383900  0.47581500  1
  O  O54  1  0.93756400  0.65616100  0.52418500  1
  O  O55  1  0.56383200  0.15777800  0.01016500  1
  O  O56  1  0.94273500  0.37239300  0.60254600  1
  O  O57  1  0.55087500  0.87247100  0.09196000  1
  O  O58  1  0.05087500  0.12752900  0.90804000  1
  O  O59  1  0.44273500  0.62760700  0.39745400  1
  O  O60  1  0.09739600  0.58700400  0.93682800  1
  O  O61  1  0.40549700  0.09094500  0.42229200  1
  O  O62  1  0.90549700  0.90905500  0.57770800  1
  O  O63  1  0.59739600  0.41299600  0.06317200  1
  O  O64  1  0.74875900  0.64130100  0.07307600  1
  O  O65  1  0.75333500  0.15218300  0.56243300  1
  O  O66  1  0.25333500  0.84781700  0.43756700  1
  O  O67  1  0.24875900  0.35869900  0.92692400  1
  O  O68  1  0.85124300  0.79341100  0.27914000  1
  O  O69  1  0.35124300  0.20658900  0.72086000  1
loop_
_geom_bond_atom_site_label_1
_geom_bond_atom_site_label_2
_geom_bond_distance
_geom_bond_site_symmetry_2
La0 O24 2.362105 1_555
La0 O17 2.419050 1_555
La0 O62 2.497730 1_555
La0 O0 2.532908 1_555
La0 O32 2.550352 1_555
La0 O54 2.566997 1_555
La0 O36 2.758497 1_555
La1 O25 2.379529 1_555
La1 O16 2.416557 1_555
La1 O63 2.461940 1_555
La1 O1 2.484614 1_555
La1 O55 2.625549 1_555
La1 O33 2.694183 1_545
La1 O37 2.696111 1_555
La1 O41 3.321287 1_554
La2 O26 2.379529 1_555
La2 O19 2.416557 1_555
La2 O60 2.461940 1_555
La2 O2 2.484614 1_555
La2 O52 2.625549 1_555
La2 O34 2.694183 1_565
La2 O38 2.696111 1_555
La2 O42 3.321287 1_556
La3 O27 2.362105 1_555
La3 O18 2.419050 1_555
La3 O61 2.497730 1_555
La3 O3 2.532908 1_555
La3 O35 2.550352 1_555
La3 O53 2.566997 1_555
La3 O39 2.758497 1_555
Mo0 O8 1.755816 1_456
Mo0 O60 1.778283 1_555
Mo0 O48 1.912845 1_556
Mo0 O24 1.978176 1_455
Mo0 O30 2.231247 1_555
Mo0 O12 2.301431 1_455
Mo1 O9 1.739888 1_565
Mo1 O61 1.779438 1_565
Mo1 O49 1.917173 1_555
Mo1 O25 2.015348 1_565
Mo1 O13 2.255446 1_555
Mo1 O31 2.280024 1_555
Mo2 O10 1.739888 1_545
Mo2 O62 1.779438 1_445
Mo2 O50 1.917173 1_455
Mo2 O26 2.015348 1_545
Mo2 O14 2.255446 1_555
Mo2 O28 2.280024 1_455
Mo3 O11 1.755816 1_554
Mo3 O63 1.778283 1_555
Mo3 O51 1.912845 1_554
Mo3 O27 1.978176 1_555
Mo3 O29 2.231247 1_555
Mo3 O15 2.301431 1_555
Mo4 O52 1.771694 1_655
Mo4 O0 1.774292 1_555
Mo4 O44 1.909142 1_566
Mo4 O26 2.026047 1_655
Mo4 O28 2.203690 1_565
Mo4 O58 2.299366 1_665
Mo5 O53 1.767709 1_555
Mo5 O1 1.777733 1_555
Mo5 O45 1.872694 1_555
Mo5 O27 2.044198 1_555
Mo5 O29 2.214439 1_555
Mo5 O59 2.302138 1_555
Mo6 O54 1.767709 1_455
Mo6 O2 1.777733 1_555
Mo6 O46 1.872694 1_555
Mo6 O24 2.044198 1_455
Mo6 O30 2.214439 1_555
Mo6 O56 2.302138 1_455
Mo7 O55 1.771694 1_555
Mo7 O3 1.774292 1_555
Mo7 O47 1.909142 1_544
Mo7 O25 2.026047 1_555
Mo7 O31 2.203690 1_545
Mo7 O57 2.299366 1_545
Mo8 O20 1.709900 1_655
Mo8 O16 1.798987 1_555
Mo8 O48 1.953918 1_655
Mo8 O44 2.011888 1_555
Mo8 O58 2.196223 1_654
Mo8 O12 2.400452 1_554
Mo9 O21 1.711265 1_555
Mo9 O17 1.802330 1_555
Mo9 O49 1.953751 1_555
Mo9 O45 1.998881 1_555
Mo9 O59 2.261317 1_555
Mo9 O13 2.360639 1_555
Mo10 O22 1.711265 1_455
Mo10 O18 1.802330 1_555
Mo10 O50 1.953751 1_455
Mo10 O46 1.998881 1_555
Mo10 O56 2.261317 1_455
Mo10 O14 2.360639 1_555
Mo11 O23 1.709900 1_555
Mo11 O19 1.798987 1_555
Mo11 O51 1.953918 1_555
Mo11 O47 2.011888 1_555
Mo11 O57 2.196223 1_556
Mo11 O15 2.400452 1_556
O4 O65 1.226554 1_555
O5 O64 1.222394 1_555
O6 O67 1.222394 1_555
O12 Te0 1.971072 1_555
O13 Te1 1.938163 1_555
O14 Te0 1.938163 1_455
O15 Te1 1.971072 1_555
O28 Te0 1.960037 1_555
O29 Te1 1.971401 1_555
O30 Te0 1.971401 1_455
O31 Te1 1.960037 1_555
O32 O41 2.058787 1_555
O35 O42 2.058787 1_555
O36 O64 1.769533 1_556
O36 O41 2.131238 1_555
O37 O65 1.715481 1_555
O38 O66 1.715481 1_555
O39 O67 1.769533 1_554
O39 O42 2.131238 1_555
O40 O68 1.232456 1_555
O43 O69 1.232456 1_555
O56 Te0 1.960485 1_555
O57 Te1 1.985140 1_555
O58 Te0 1.985140 1_455
O59 Te1 1.960485 1_555
O66 O7 1.226554 1_555
