# generated using pymatgen
data_Zr5CuSn3
_symmetry_space_group_name_H-M   'P 1'
_cell_length_a   8.64634146
_cell_length_b   8.64634146
_cell_length_c   5.87872988
_cell_angle_alpha   90.00000000
_cell_angle_beta   90.00000000
_cell_angle_gamma   120.00000763
_symmetry_Int_Tables_number   1
_chemical_formula_structural   Zr5CuSn3
_chemical_formula_sum   'Zr10 Cu2 Sn6'
_cell_volume   380.60883800
_cell_formula_units_Z   2
loop_
 _symmetry_equiv_pos_site_id
 _symmetry_equiv_pos_as_xyz
  1  'x, y, z'
loop_
 _atom_site_type_symbol
 _atom_site_label
 _atom_site_symmetry_multiplicity
 _atom_site_fract_x
 _atom_site_fract_y
 _atom_site_fract_z
 _atom_site_occupancy
  Zr  Zr0  1  0.66666700  0.33333300  0.50000000  1
  Zr  Zr1  1  0.33333300  0.66666700  0.50000000  1
  Zr  Zr2  1  0.33333300  0.66666700  0.00000000  1
  Zr  Zr3  1  0.66666700  0.33333300  0.00000000  1
  Zr  Zr4  1  0.73830949  0.73830949  0.25000000  1
  Zr  Zr5  1  0.26169051  0.00000000  0.25000000  1
  Zr  Zr6  1  0.00000000  0.26169051  0.25000000  1
  Zr  Zr7  1  0.26169051  0.26169051  0.75000000  1
  Zr  Zr8  1  0.73830949  -0.00000000  0.75000000  1
  Zr  Zr9  1  -0.00000000  0.73830949  0.75000000  1
  Cu  Cu0  1  -0.00000000  0.00000000  0.50000000  1
  Cu  Cu1  1  -0.00000000  0.00000000  0.00000000  1
  Sn  Sn0  1  0.38643869  0.38643869  0.25000000  1
  Sn  Sn1  1  0.61356131  0.00000000  0.25000000  1
  Sn  Sn2  1  0.00000000  0.61356131  0.25000000  1
  Sn  Sn3  1  0.61356131  0.61356131  0.75000000  1
  Sn  Sn4  1  0.38643869  -0.00000000  0.75000000  1
  Sn  Sn5  1  -0.00000000  0.38643869  0.75000000  1
loop_
_geom_bond_atom_site_label_1
_geom_bond_atom_site_label_2
_geom_bond_distance
_geom_bond_site_symmetry_2
Cu0 Zr7 2.698077 1_555
Cu0 Zr4 2.698077 1_445
Cu0 Zr8 2.698077 1_455
Cu0 Zr5 2.698077 1_555
Cu0 Zr6 2.698077 1_555
Cu0 Zr9 2.698077 1_545
Cu1 Zr7 2.698077 1_554
Cu1 Zr4 2.698077 1_445
Cu1 Zr8 2.698077 1_454
Cu1 Zr5 2.698077 1_555
Cu1 Zr6 2.698077 1_555
Cu1 Zr9 2.698077 1_544
Sn0 Zr5 2.953576 1_555
Sn0 Zr6 2.953576 1_555
Sn0 Zr4 3.042395 1_555
Sn0 Zr1 3.058437 1_555
Sn0 Zr2 3.058437 1_555
Sn0 Zr3 3.058437 1_555
Sn0 Zr0 3.058437 1_555
Sn0 Zr7 3.131019 1_555
Sn0 Zr7 3.131019 1_554
Sn1 Zr6 2.953576 1_655
Sn1 Zr4 2.953576 1_545
Sn1 Zr5 3.042395 1_555
Sn1 Zr0 3.058429 1_555
Sn1 Zr3 3.058429 1_555
Sn1 Zr2 3.058432 1_545
Sn1 Zr1 3.058432 1_545
Sn1 Zr8 3.131019 1_554
Sn1 Zr8 3.131019 1_555
Sn2 Zr5 2.953576 1_565
Sn2 Zr4 2.953576 1_455
Sn2 Zr6 3.042395 1_555
Sn2 Zr2 3.058429 1_555
Sn2 Zr1 3.058429 1_555
Sn2 Zr3 3.058432 1_455
Sn2 Zr0 3.058432 1_455
Sn2 Zr9 3.131019 1_554
Sn2 Zr9 3.131019 1_555
Sn3 Zr8 2.953576 1_565
Sn3 Zr9 2.953576 1_655
Sn3 Zr7 3.042395 1_555
Sn3 Zr3 3.058437 1_556
Sn3 Zr1 3.058437 1_555
Sn3 Zr2 3.058437 1_556
Sn3 Zr0 3.058437 1_555
Sn3 Zr4 3.131019 1_555
Sn3 Zr4 3.131019 1_556
Sn4 Zr9 2.953576 1_545
Sn4 Zr7 2.953576 1_555
Sn4 Zr8 3.042395 1_555
Sn4 Zr1 3.058429 1_545
Sn4 Zr2 3.058429 1_546
Sn4 Zr0 3.058432 1_555
Sn4 Zr3 3.058432 1_556
Sn4 Zr5 3.131019 1_556
Sn4 Zr5 3.131019 1_555
Sn5 Zr8 2.953576 1_455
Sn5 Zr7 2.953576 1_555
Sn5 Zr9 3.042395 1_555
Sn5 Zr0 3.058429 1_455
Sn5 Zr3 3.058429 1_456
Sn5 Zr2 3.058432 1_556
Sn5 Zr1 3.058432 1_555
Sn5 Zr6 3.131019 1_555
Sn5 Zr6 3.131019 1_556
