# generated using pymatgen
data_MgTi2Be3(SiO4)3
_symmetry_space_group_name_H-M   'P 1'
_cell_length_a   7.52412400
_cell_length_b   8.20600300
_cell_length_c   16.38507733
_cell_angle_alpha   59.94494832
_cell_angle_beta   90.00000000
_cell_angle_gamma   90.00000000
_symmetry_Int_Tables_number   1
_chemical_formula_structural   MgTi2Be3(SiO4)3
_chemical_formula_sum   'Mg4 Ti8 Be12 Si12 O48'
_cell_volume   875.63992688
_cell_formula_units_Z   4
loop_
 _symmetry_equiv_pos_site_id
 _symmetry_equiv_pos_as_xyz
  1  'x, y, z'
loop_
 _atom_site_type_symbol
 _atom_site_label
 _atom_site_symmetry_multiplicity
 _atom_site_fract_x
 _atom_site_fract_y
 _atom_site_fract_z
 _atom_site_occupancy
  Mg  Mg0  1  0.07682400  0.50000000  0.75115100  1
  Mg  Mg1  1  0.57682400  0.50000000  0.74884900  1
  Mg  Mg2  1  0.92317600  0.50000000  0.24884900  1
  Mg  Mg3  1  0.42317600  0.50000000  0.25115100  1
  Ti  Ti0  1  0.06013600  0.15990400  0.58864400  1
  Ti  Ti1  1  0.43986400  0.15990400  0.08864400  1
  Ti  Ti2  1  0.93986400  0.84009600  0.41135600  1
  Ti  Ti3  1  0.56013600  0.84009600  0.91135600  1
  Ti  Ti4  1  0.93013900  0.82772500  0.92217600  1
  Ti  Ti5  1  0.43013900  0.17227500  0.57782400  1
  Ti  Ti6  1  0.06986100  0.17227500  0.07782400  1
  Ti  Ti7  1  0.56986100  0.82772500  0.42217600  1
  Be  Be0  1  0.65473900  0.16263700  0.26221000  1
  Be  Be1  1  0.84115100  0.52326100  0.90633400  1
  Be  Be2  1  0.34115100  0.47673900  0.59366600  1
  Be  Be3  1  0.15884900  0.47673900  0.09366600  1
  Be  Be4  1  0.65884900  0.52326100  0.40633400  1
  Be  Be5  1  0.34365200  0.18787400  0.91869200  1
  Be  Be6  1  0.84365200  0.81212600  0.58130800  1
  Be  Be7  1  0.65634800  0.81212600  0.08130800  1
  Be  Be8  1  0.15634800  0.18787400  0.41869200  1
  Be  Be9  1  0.84526100  0.16263700  0.76221000  1
  Be  Be10  1  0.34526100  0.83736300  0.73779000  1
  Be  Be11  1  0.15473900  0.83736300  0.23779000  1
  Si  Si0  1  0.26884900  0.15055000  0.26997500  1
  Si  Si1  1  0.76884900  0.84945000  0.23002500  1
  Si  Si2  1  0.73115100  0.84945000  0.73002500  1
  Si  Si3  1  0.23115100  0.15055000  0.76997500  1
  Si  Si4  1  0.76933200  0.18864200  0.42522900  1
  Si  Si5  1  0.26933200  0.81135800  0.07477100  1
  Si  Si6  1  0.23066800  0.81135800  0.57477100  1
  Si  Si7  1  0.73066800  0.18864200  0.92522900  1
  Si  Si8  1  0.26667700  0.53857500  0.40679600  1
  Si  Si9  1  0.76667700  0.46142500  0.09320400  1
  Si  Si10  1  0.73332300  0.46142500  0.59320400  1
  Si  Si11  1  0.23332300  0.53857500  0.90679600  1
  O  O0  1  0.37586500  0.70387000  0.54373000  1
  O  O1  1  0.46570800  0.10371400  0.31950100  1
  O  O2  1  0.96570800  0.89628600  0.18049900  1
  O  O3  1  0.53429200  0.89628600  0.68049900  1
  O  O4  1  0.03429200  0.10371400  0.81950100  1
  O  O5  1  0.96684100  0.23871700  0.44865700  1
  O  O6  1  0.46684100  0.76128300  0.05134300  1
  O  O7  1  0.03315900  0.76128300  0.55134300  1
  O  O8  1  0.53315900  0.23871700  0.94865700  1
  O  O9  1  0.46674400  0.63230900  0.38313800  1
  O  O10  1  0.96674400  0.36769100  0.11686200  1
  O  O11  1  0.53325600  0.36769100  0.61686200  1
  O  O12  1  0.37591600  0.71201800  0.85150200  1
  O  O13  1  0.87591600  0.28798200  0.64849800  1
  O  O14  1  0.62408400  0.28798200  0.14849800  1
  O  O15  1  0.12408400  0.71201800  0.35150200  1
  O  O16  1  0.87586500  0.29613000  0.95627000  1
  O  O17  1  0.03325600  0.63230900  0.88313800  1
  O  O18  1  0.12413500  0.70387000  0.04373000  1
  O  O19  1  0.62413500  0.29613000  0.45627000  1
  O  O20  1  0.73823100  0.58459000  0.97802300  1
  O  O21  1  0.87739900  0.91197200  0.64550700  1
  O  O22  1  0.62260100  0.91197200  0.14550700  1
  O  O23  1  0.12260100  0.08802800  0.35449300  1
  O  O24  1  0.76197600  0.61854400  0.30408300  1
  O  O25  1  0.26197600  0.38145600  0.19591700  1
  O  O26  1  0.23802400  0.38145600  0.69591700  1
  O  O27  1  0.73802400  0.61854400  0.80408300  1
  O  O28  1  0.76309400  0.27031700  0.30976100  1
  O  O29  1  0.26309400  0.72968300  0.19023900  1
  O  O30  1  0.23690600  0.72968300  0.69023900  1
  O  O31  1  0.73690600  0.27031700  0.80976100  1
  O  O32  1  0.26144900  0.39172100  0.36480300  1
  O  O33  1  0.76144900  0.60827900  0.13519700  1
  O  O34  1  0.73855100  0.60827900  0.63519700  1
  O  O35  1  0.23855100  0.39172100  0.86480300  1
  O  O36  1  0.74316500  0.95367500  0.29334500  1
  O  O37  1  0.24316500  0.04632500  0.20665500  1
  O  O38  1  0.25683500  0.04632500  0.70665500  1
  O  O39  1  0.75683500  0.95367500  0.79334500  1
  O  O40  1  0.74499700  0.95766000  0.47929200  1
  O  O41  1  0.24499700  0.04234000  0.02070800  1
  O  O42  1  0.25500300  0.04234000  0.52070800  1
  O  O43  1  0.75500300  0.95766000  0.97929200  1
  O  O44  1  0.76176900  0.58459000  0.47802300  1
  O  O45  1  0.26176900  0.41541000  0.02197700  1
  O  O46  1  0.23823100  0.41541000  0.52197700  1
  O  O47  1  0.37739900  0.08802800  0.85449300  1
loop_
_geom_bond_atom_site_label_1
_geom_bond_atom_site_label_2
_geom_bond_distance
_geom_bond_site_symmetry_2
Mg0 O35 2.020056 1_555
Mg0 O30 2.028553 1_555
Mg0 O26 2.029352 1_555
Mg1 O34 2.020056 1_555
Mg1 O31 2.028553 1_555
Mg1 O27 2.029352 1_555
Mg2 O33 2.020056 1_555
Mg2 O28 2.028553 1_555
Mg2 O24 2.029352 1_555
Mg3 O32 2.020056 1_555
Mg3 O29 2.028553 1_555
Mg3 O25 2.029352 1_555
Be0 O14 1.631870 1_555
Be0 O1 1.638064 1_555
Be0 O28 1.655929 1_555
Be0 O36 1.663438 1_545
Be1 O16 1.638302 1_555
Be1 O17 1.641274 1_655
Be1 O27 1.645666 1_555
Be1 O20 1.680725 1_555
Be2 O0 1.638302 1_555
Be2 O11 1.641274 1_555
Be2 O26 1.645666 1_555
Be2 O46 1.680725 1_555
Be3 O18 1.638302 1_555
Be3 O10 1.641274 1_455
Be3 O25 1.645666 1_555
Be3 O45 1.680725 1_555
Be4 O19 1.638302 1_555
Be4 O9 1.641274 1_555
Be4 O24 1.645666 1_555
Be4 O44 1.680725 1_555
Be5 O8 1.628936 1_555
Be5 O47 1.644868 1_555
Be5 O35 1.650359 1_555
Be5 O41 1.664849 1_556
Be6 O7 1.628936 1_655
Be6 O21 1.644868 1_555
Be6 O34 1.650359 1_555
Be6 O40 1.664849 1_555
Be7 O6 1.628936 1_555
Be7 O22 1.644868 1_555
Be7 O33 1.650359 1_555
Be7 O43 1.664849 1_554
Be8 O5 1.628936 1_455
Be8 O23 1.644868 1_555
Be8 O32 1.650359 1_555
Be8 O42 1.664849 1_555
Be9 O13 1.631870 1_555
Be9 O4 1.638064 1_655
Be9 O31 1.655929 1_555
Be9 O39 1.663438 1_545
Be10 O12 1.631870 1_555
Be10 O3 1.638064 1_555
Be10 O30 1.655929 1_555
Be10 O38 1.663438 1_565
Be11 O15 1.631870 1_555
Be11 O2 1.638064 1_455
Be11 O29 1.655929 1_555
Be11 O37 1.663438 1_565
O0 Si6 1.636938 1_555
O0 Ti7 2.258915 1_555
O1 Si0 1.639436 1_555
O1 Ti7 2.181080 1_545
O2 Si1 1.639436 1_555
O2 Ti6 2.181080 1_665
O3 Si2 1.639436 1_555
O3 Ti5 2.181080 1_565
O4 Si3 1.639436 1_555
O4 Ti4 2.181080 1_445
O5 Si4 1.637879 1_555
O5 Ti0 2.164759 1_655
O6 Si5 1.637879 1_555
O6 Ti3 2.164759 1_554
O7 Si6 1.637879 1_555
O7 Ti2 2.164759 1_455
O8 Si7 1.637879 1_555
O8 Ti1 2.164759 1_556
O9 Si8 1.645983 1_555
O9 Ti7 2.147094 1_555
O10 Si9 1.645983 1_555
O10 Ti6 2.147094 1_655
O11 Si10 1.645983 1_555
O11 Ti5 2.147094 1_555
O12 Si11 1.644992 1_555
O12 Ti3 2.240563 1_555
O13 Si10 1.644992 1_555
O13 Ti0 2.240563 1_655
O14 Si9 1.644992 1_555
O14 Ti1 2.240563 1_555
O15 Si8 1.644992 1_555
O15 Ti2 2.240563 1_455
O16 Si7 1.636938 1_555
O16 Ti6 2.258915 1_656
O17 Si11 1.645983 1_555
O17 Ti4 2.147094 1_455
O18 Si5 1.636938 1_555
O18 Ti4 2.258915 1_454
O19 Si4 1.636938 1_555
O19 Ti5 2.258915 1_555
O20 Si9 1.648762 1_556
O20 Ti4 2.252610 1_555
O20 Ti3 2.256282 1_555
O21 Si2 1.637121 1_555
O21 Ti0 2.235867 1_665
O22 Si1 1.637121 1_555
O22 Ti1 2.235867 1_565
O23 Si0 1.637121 1_555
O23 Ti2 2.235867 1_445
O24 Si1 1.662038 1_555
O25 Si0 1.662038 1_555
O26 Si3 1.662038 1_555
O27 Si2 1.662038 1_555
O28 Si4 1.661549 1_555
O29 Si5 1.661549 1_555
O30 Si6 1.661549 1_555
O31 Si7 1.661549 1_555
O32 Si8 1.660647 1_555
O33 Si9 1.660647 1_555
O34 Si10 1.660647 1_555
O35 Si11 1.660647 1_555
O36 Si1 1.653502 1_555
O36 Ti2 2.234443 1_555
O36 Ti7 2.244795 1_555
O37 Si0 1.653502 1_555
O37 Ti1 2.234443 1_555
O37 Ti6 2.244795 1_555
O38 Si3 1.653502 1_555
O38 Ti0 2.234443 1_555
O38 Ti5 2.244795 1_555
O39 Si2 1.653502 1_555
O39 Ti3 2.234443 1_555
O39 Ti4 2.244795 1_555
O40 Si4 1.651993 1_565
O40 Ti7 2.179141 1_555
O40 Ti2 2.322756 1_555
O41 Si5 1.651993 1_545
O41 Ti6 2.179141 1_555
O41 Ti1 2.322756 1_555
O42 Si6 1.651993 1_545
O42 Ti5 2.179141 1_555
O42 Ti0 2.322756 1_555
O43 Si7 1.651993 1_565
O43 Ti4 2.179141 1_555
O43 Ti3 2.322756 1_555
O44 Si10 1.648762 1_555
O44 Ti7 2.252610 1_555
O44 Ti2 2.256282 1_555
O45 Si11 1.648762 1_554
O45 Ti6 2.252610 1_555
O45 Ti1 2.256282 1_555
O46 Si8 1.648762 1_555
O46 Ti5 2.252610 1_555
O46 Ti0 2.256282 1_555
O47 Si3 1.637121 1_555
O47 Ti3 2.235867 1_545
