# generated using pymatgen
data_Ce3AlCdS7
_symmetry_space_group_name_H-M   'P 1'
_cell_length_a   10.22731869
_cell_length_b   10.22731869
_cell_length_c   6.07253500
_cell_angle_alpha   90.00000000
_cell_angle_beta   90.00000000
_cell_angle_gamma   120.00000448
_symmetry_Int_Tables_number   1
_chemical_formula_structural   Ce3AlCdS7
_chemical_formula_sum   'Ce6 Al2 Cd2 S14'
_cell_volume   550.07792533
_cell_formula_units_Z   2
loop_
 _symmetry_equiv_pos_site_id
 _symmetry_equiv_pos_as_xyz
  1  'x, y, z'
loop_
 _atom_site_type_symbol
 _atom_site_label
 _atom_site_symmetry_multiplicity
 _atom_site_fract_x
 _atom_site_fract_y
 _atom_site_fract_z
 _atom_site_occupancy
  Ce  Ce0  1  0.62595200  0.86808900  0.26273600  1
  Ce  Ce1  1  0.13191100  0.75786300  0.26273600  1
  Ce  Ce2  1  0.24213700  0.37404800  0.26273600  1
  Ce  Ce3  1  0.37404800  0.13191100  0.76273600  1
  Ce  Ce4  1  0.86808900  0.24213700  0.76273600  1
  Ce  Ce5  1  0.75786300  0.62595200  0.76273600  1
  Al  Al0  1  0.33333300  0.66666700  0.84244500  1
  Al  Al1  1  0.66666700  0.33333300  0.34244500  1
  Cd  Cd0  1  0.00000000  0.00000000  0.50233900  1
  Cd  Cd1  1  0.00000000  0.00000000  0.00233900  1
  S  S0  1  0.74749900  0.91079700  0.74194600  1
  S  S1  1  0.08920300  0.83670200  0.74194600  1
  S  S2  1  0.16329800  0.25250100  0.74194600  1
  S  S3  1  0.25250100  0.08920300  0.24194600  1
  S  S4  1  0.91079700  0.16329800  0.24194600  1
  S  S5  1  0.83670200  0.74749900  0.24194600  1
  S  S6  1  0.48387100  0.58684500  0.99601100  1
  S  S7  1  0.41315500  0.89702700  0.99601100  1
  S  S8  1  0.10297300  0.51612900  0.99601100  1
  S  S9  1  0.51612900  0.41315500  0.49601100  1
  S  S10  1  0.58684500  0.10297300  0.49601100  1
  S  S11  1  0.89702700  0.48387100  0.49601100  1
  S  S12  1  0.33333300  0.66666700  0.47302100  1
  S  S13  1  0.66666700  0.33333300  0.97302100  1
loop_
_geom_bond_atom_site_label_1
_geom_bond_atom_site_label_2
_geom_bond_distance
_geom_bond_site_symmetry_2
Ce0 S7 2.844571 1_554
Ce0 S12 2.943733 1_555
Ce0 S4 2.970303 1_565
Ce0 S6 2.971326 1_554
Ce0 S5 2.973394 1_555
Ce0 S10 2.982979 1_565
Ce0 S0 3.108267 1_555
Ce0 S0 3.345835 1_554
Ce1 S8 2.844562 1_554
Ce1 S12 2.943726 1_555
Ce1 S5 2.970303 1_455
Ce1 S7 2.971326 1_554
Ce1 S3 2.973394 1_565
Ce1 S11 2.982984 1_455
Ce1 S1 3.108267 1_555
Ce1 S1 3.345835 1_554
Ce2 S6 2.844566 1_554
Ce2 S12 2.943735 1_555
Ce2 S3 2.970303 1_555
Ce2 S8 2.971333 1_554
Ce2 S4 2.973393 1_455
Ce2 S9 2.982988 1_555
Ce2 S2 3.108267 1_555
Ce2 S2 3.345835 1_554
Ce3 S10 2.844571 1_555
Ce3 S13 2.943733 1_555
Ce3 S1 2.970303 1_545
Ce3 S9 2.971326 1_555
Ce3 S2 2.973394 1_555
Ce3 S7 2.982979 1_545
Ce3 S3 3.108267 1_556
Ce3 S3 3.345835 1_555
Ce4 S11 2.844562 1_555
Ce4 S13 2.943726 1_555
Ce4 S2 2.970303 1_655
Ce4 S10 2.971326 1_555
Ce4 S0 2.973394 1_545
Ce4 S8 2.982984 1_655
Ce4 S4 3.108267 1_556
Ce4 S4 3.345835 1_555
Ce5 S9 2.844566 1_555
Ce5 S13 2.943735 1_555
Ce5 S0 2.970303 1_555
Ce5 S11 2.971333 1_555
Ce5 S1 2.973393 1_655
Ce5 S6 2.982988 1_555
Ce5 S5 3.108267 1_556
Ce5 S5 3.345835 1_555
Al0 S12 2.243340 1_555
Al0 S8 2.272293 1_555
Al0 S7 2.272293 1_555
Al0 S6 2.272293 1_555
Al1 S13 2.243340 1_554
Al1 S11 2.272293 1_555
Al1 S10 2.272293 1_555
Al1 S9 2.272293 1_555
Cd0 S2 2.694861 1_555
Cd0 S0 2.694861 1_445
Cd0 S1 2.694861 1_545
Cd0 S5 2.765054 1_445
Cd0 S3 2.765054 1_555
Cd0 S4 2.765054 1_455
Cd1 S5 2.694861 1_445
Cd1 S3 2.694861 1_555
Cd1 S4 2.694861 1_455
Cd1 S2 2.765054 1_554
Cd1 S0 2.765054 1_444
Cd1 S1 2.765054 1_544
