# generated using pymatgen
data_Li3NbV2O6
_symmetry_space_group_name_H-M   'P 1'
_cell_length_a   5.98090837
_cell_length_b   6.17736992
_cell_length_c   6.74509544
_cell_angle_alpha   104.34105851
_cell_angle_beta   102.73748949
_cell_angle_gamma   90.28556677
_symmetry_Int_Tables_number   1
_chemical_formula_structural   Li3NbV2O6
_chemical_formula_sum   'Li6 Nb2 V4 O12'
_cell_volume   235.03004374
_cell_formula_units_Z   2
loop_
 _symmetry_equiv_pos_site_id
 _symmetry_equiv_pos_as_xyz
  1  'x, y, z'
loop_
 _atom_site_type_symbol
 _atom_site_label
 _atom_site_symmetry_multiplicity
 _atom_site_fract_x
 _atom_site_fract_y
 _atom_site_fract_z
 _atom_site_occupancy
  Li  Li0  1  0.83523300  0.83504900  0.33348100  1
  Li  Li1  1  0.33180500  0.83287900  0.33361100  1
  Li  Li2  1  0.99747900  0.50772500  0.99589600  1
  Li  Li3  1  0.50093100  0.51846500  0.98945800  1
  Li  Li4  1  0.16921400  0.15870000  0.67106000  1
  Li  Li5  1  0.66557500  0.14748000  0.67725800  1
  Nb  Nb0  1  0.80638100  0.33323100  0.33194900  1
  Nb  Nb1  1  0.36006200  0.33360700  0.33461400  1
  V  V0  1  0.99733400  0.99096600  0.99644900  1
  V  V1  1  0.66558100  0.66674200  0.66135900  1
  V  V2  1  0.50112700  0.99952800  0.00516800  1
  V  V3  1  0.16979800  0.67553100  0.67042800  1
  O  O0  1  0.75623100  0.24649900  0.01104400  1
  O  O1  1  0.24415400  0.24034100  0.01382500  1
  O  O2  1  0.92282100  0.42673100  0.65266000  1
  O  O3  1  0.41083900  0.41963400  0.65542200  1
  O  O4  1  0.92243600  0.91395400  0.68041900  1
  O  O5  1  0.41142900  0.90548400  0.67606600  1
  O  O6  1  0.24356400  0.75299900  0.98642900  1
  O  O7  1  0.75483100  0.76044700  0.99020700  1
  O  O8  1  0.08874500  0.57372000  0.34776700  1
  O  O9  1  0.58153300  0.59880200  0.32535300  1
  O  O10  1  0.07783100  0.09318500  0.31891700  1
  O  O11  1  0.58506600  0.06830500  0.34115800  1
loop_
_geom_bond_atom_site_label_1
_geom_bond_atom_site_label_2
_geom_bond_distance
_geom_bond_site_symmetry_2
Li0 O11 2.082375 1_565
Li0 O9 2.082496 1_555
Li0 O10 2.185193 1_665
Li0 O7 2.187001 1_554
Li0 O4 2.209075 1_555
Li0 O8 2.225157 1_655
Li1 O11 2.078315 1_565
Li1 O9 2.084015 1_555
Li1 O5 2.182457 1_555
Li1 O8 2.190685 1_555
Li1 O6 2.210409 1_554
Li1 O10 2.222558 1_565
Li2 O6 2.129114 1_655
Li2 O7 2.138348 1_555
Li2 O2 2.185809 1_555
Li2 O0 2.195409 1_556
Li2 O1 2.228011 1_656
Li2 O8 2.245967 1_656
Li3 O6 2.119406 1_555
Li3 O7 2.123850 1_555
Li3 O3 2.125908 1_555
Li3 O9 2.137945 1_556
Li3 O0 2.285592 1_556
Li3 O1 2.358441 1_556
Li4 O4 2.129403 1_445
Li4 O5 2.138622 1_545
Li4 O1 2.182584 1_556
Li4 O3 2.196804 1_555
Li4 O2 2.230237 1_455
Li4 O10 2.247975 1_555
Li5 O4 2.112928 1_545
Li5 O5 2.123974 1_545
Li5 O0 2.124428 1_556
Li5 O11 2.139506 1_555
Li5 O3 2.284419 1_555
Li5 O2 2.366085 1_555
Nb0 O0 2.049350 1_555
Nb0 O2 2.052037 1_555
Nb0 O11 2.121144 1_555
Nb0 O9 2.129216 1_555
Nb0 O10 2.205617 1_655
Nb0 O8 2.210746 1_655
Nb1 O3 2.048405 1_555
Nb1 O1 2.052156 1_555
Nb1 O9 2.123143 1_555
Nb1 O11 2.128485 1_555
Nb1 O8 2.205327 1_555
Nb1 O10 2.210112 1_555
O0 V2 2.139444 1_545
O0 V0 2.142227 1_544
O1 V0 2.092273 1_444
O1 V2 2.144255 1_545
O2 V3 2.089625 1_655
O2 V1 2.142003 1_555
O3 V1 2.138385 1_555
O3 V3 2.143646 1_555
O4 V0 2.011308 1_555
O4 V3 2.092617 1_655
O4 V1 2.121528 1_555
O5 V3 2.009066 1_555
O5 V2 2.094236 1_556
O5 V1 2.124103 1_555
O6 V3 2.011141 1_555
O6 V0 2.085793 1_455
O6 V2 2.122173 1_556
O7 V0 2.013942 1_555
O7 V1 2.092552 1_555
O7 V2 2.123645 1_556
O8 V3 2.054463 1_555
O9 V1 2.142352 1_555
O10 V0 2.053359 1_444
O11 V2 2.141907 1_545
