# generated using pymatgen
data_MgGa2
_symmetry_space_group_name_H-M   'P 1'
_cell_length_a   15.02121865
_cell_length_b   15.02121865
_cell_length_c   10.04329400
_cell_angle_alpha   90.00000000
_cell_angle_beta   90.00000000
_cell_angle_gamma   156.06933686
_symmetry_Int_Tables_number   1
_chemical_formula_structural   MgGa2
_chemical_formula_sum   'Mg16 Ga32'
_cell_volume   919.21573287
_cell_formula_units_Z   16
loop_
 _symmetry_equiv_pos_site_id
 _symmetry_equiv_pos_as_xyz
  1  'x, y, z'
loop_
 _atom_site_type_symbol
 _atom_site_label
 _atom_site_symmetry_multiplicity
 _atom_site_fract_x
 _atom_site_fract_y
 _atom_site_fract_z
 _atom_site_occupancy
  Mg  Mg0_0  1  0.22005000  0.27995000  0.12500000  1
  Mg  Mg0_1  1  0.22005000  0.27995000  0.62500000  1
  Mg  Mg0_2  1  0.22005000  0.77995000  0.12500000  1
  Mg  Mg0_3  1  0.22005000  0.77995000  0.62500000  1
  Mg  Mg0_4  1  0.72005000  0.27995000  0.12500000  1
  Mg  Mg0_5  1  0.72005000  0.27995000  0.62500000  1
  Mg  Mg0_6  1  0.72005000  0.77995000  0.12500000  1
  Mg  Mg0_7  1  0.72005000  0.77995000  0.62500000  1
  Mg  Mg1_0  1  0.27995000  0.22005000  0.37500000  1
  Mg  Mg1_1  1  0.27995000  0.22005000  0.87500000  1
  Mg  Mg1_2  1  0.27995000  0.72005000  0.37500000  1
  Mg  Mg1_3  1  0.27995000  0.72005000  0.87500000  1
  Mg  Mg1_4  1  0.77995000  0.22005000  0.37500000  1
  Mg  Mg1_5  1  0.77995000  0.22005000  0.87500000  1
  Mg  Mg1_6  1  0.77995000  0.72005000  0.37500000  1
  Mg  Mg1_7  1  0.77995000  0.72005000  0.87500000  1
  Ga  Ga0_0  1  0.05675700  0.44324300  0.12500000  1
  Ga  Ga0_1  1  0.05675700  0.44324300  0.62500000  1
  Ga  Ga0_2  1  0.05675700  0.94324300  0.12500000  1
  Ga  Ga0_3  1  0.05675700  0.94324300  0.62500000  1
  Ga  Ga0_4  1  0.55675700  0.44324300  0.12500000  1
  Ga  Ga0_5  1  0.55675700  0.44324300  0.62500000  1
  Ga  Ga0_6  1  0.55675700  0.94324300  0.12500000  1
  Ga  Ga0_7  1  0.55675700  0.94324300  0.62500000  1
  Ga  Ga1_0  1  0.38655650  0.11344350  0.12500000  1
  Ga  Ga1_1  1  0.38655650  0.11344350  0.62500000  1
  Ga  Ga1_2  1  0.38655650  0.61344350  0.12500000  1
  Ga  Ga1_3  1  0.38655650  0.61344350  0.62500000  1
  Ga  Ga1_4  1  0.88655650  0.11344350  0.12500000  1
  Ga  Ga1_5  1  0.88655650  0.11344350  0.62500000  1
  Ga  Ga1_6  1  0.88655650  0.61344350  0.12500000  1
  Ga  Ga1_7  1  0.88655650  0.61344350  0.62500000  1
  Ga  Ga2_0  1  0.11344350  0.38655650  0.37500000  1
  Ga  Ga2_1  1  0.11344350  0.38655650  0.87500000  1
  Ga  Ga2_2  1  0.11344350  0.88655650  0.37500000  1
  Ga  Ga2_3  1  0.11344350  0.88655650  0.87500000  1
  Ga  Ga2_4  1  0.61344350  0.38655650  0.37500000  1
  Ga  Ga2_5  1  0.61344350  0.38655650  0.87500000  1
  Ga  Ga2_6  1  0.61344350  0.88655650  0.37500000  1
  Ga  Ga2_7  1  0.61344350  0.88655650  0.87500000  1
  Ga  Ga3_0  1  0.44324300  0.05675700  0.37500000  1
  Ga  Ga3_1  1  0.44324300  0.05675700  0.87500000  1
  Ga  Ga3_2  1  0.44324300  0.55675700  0.37500000  1
  Ga  Ga3_3  1  0.44324300  0.55675700  0.87500000  1
  Ga  Ga3_4  1  0.94324300  0.05675700  0.37500000  1
  Ga  Ga3_5  1  0.94324300  0.05675700  0.87500000  1
  Ga  Ga3_6  1  0.94324300  0.55675700  0.37500000  1
  Ga  Ga3_7  1  0.94324300  0.55675700  0.87500000  1
loop_
_geom_bond_atom_site_label_1
_geom_bond_atom_site_label_2
_geom_bond_distance
_geom_bond_site_symmetry_2
Ga0_0 Ga1_2 2.815122 1_555
Ga0_0 Ga1_4 2.815122 1_455
Ga0_0 Mg0_4 2.986362 1_455
Ga0_0 Mg0_2 2.986362 1_555
Ga0_0 Ga2_0 3.013269 1_555
Ga0_0 Ga2_1 3.013269 1_554
Ga0_0 Mg1_4 3.057695 1_455
Ga0_0 Mg1_2 3.057695 1_555
Ga0_0 Mg1_5 3.057695 1_454
Ga0_0 Mg1_3 3.057695 1_554
Ga0_0 Ga0_6 3.114196 1_445
Ga0_0 Ga0_6 3.114196 1_555
Ga0_1 Ga1_3 2.815122 1_555
Ga0_1 Ga1_5 2.815122 1_455
Ga0_1 Mg0_5 2.986362 1_455
Ga0_1 Mg0_3 2.986362 1_555
Ga0_1 Ga2_1 3.013269 1_555
Ga0_1 Ga2_0 3.013269 1_555
Ga0_1 Mg1_3 3.057695 1_555
Ga0_1 Mg1_5 3.057695 1_455
Ga0_1 Mg1_4 3.057695 1_455
Ga0_1 Mg1_2 3.057695 1_555
Ga0_1 Ga0_7 3.114196 1_445
Ga0_1 Ga0_7 3.114196 1_555
Ga0_2 Ga1_6 2.815122 1_455
Ga0_2 Ga1_0 2.815122 1_565
Ga0_2 Mg0_0 2.986362 1_565
Ga0_2 Mg0_6 2.986362 1_455
Ga0_2 Ga2_2 3.013269 1_555
Ga0_2 Ga2_3 3.013269 1_554
Ga0_2 Mg1_0 3.057695 1_565
Ga0_2 Mg1_6 3.057695 1_455
Ga0_2 Mg1_1 3.057695 1_564
Ga0_2 Mg1_7 3.057695 1_454
Ga0_2 Ga0_4 3.114196 1_455
Ga0_2 Ga0_4 3.114196 1_565
Ga0_3 Ga1_7 2.815122 1_455
Ga0_3 Ga1_1 2.815122 1_565
Ga0_3 Mg0_1 2.986362 1_565
Ga0_3 Mg0_7 2.986362 1_455
Ga0_3 Ga2_3 3.013269 1_555
Ga0_3 Ga2_2 3.013269 1_555
Ga0_3 Mg1_1 3.057695 1_565
Ga0_3 Mg1_7 3.057695 1_455
Ga0_3 Mg1_0 3.057695 1_565
Ga0_3 Mg1_6 3.057695 1_455
Ga0_3 Ga0_5 3.114196 1_455
Ga0_3 Ga0_5 3.114196 1_565
Ga0_4 Ga1_6 2.815122 1_555
Ga0_4 Ga1_0 2.815122 1_555
Ga0_4 Mg0_0 2.986362 1_555
Ga0_4 Mg0_6 2.986362 1_555
Ga0_4 Ga2_4 3.013269 1_555
Ga0_4 Ga2_5 3.013269 1_554
Ga0_4 Mg1_0 3.057695 1_555
Ga0_4 Mg1_6 3.057695 1_555
Ga0_4 Mg1_1 3.057695 1_554
Ga0_4 Mg1_7 3.057695 1_554
Ga0_5 Ga1_7 2.815122 1_555
Ga0_5 Ga1_1 2.815122 1_555
Ga0_5 Mg0_1 2.986362 1_555
Ga0_5 Mg0_7 2.986362 1_555
Ga0_5 Ga2_5 3.013269 1_555
Ga0_5 Ga2_4 3.013269 1_555
Ga0_5 Mg1_1 3.057695 1_555
Ga0_5 Mg1_7 3.057695 1_555
Ga0_5 Mg1_0 3.057695 1_555
Ga0_5 Mg1_6 3.057695 1_555
Ga0_6 Ga1_2 2.815122 1_555
Ga0_6 Ga1_4 2.815122 1_565
Ga0_6 Mg0_4 2.986362 1_565
Ga0_6 Mg0_2 2.986362 1_555
Ga0_6 Ga2_6 3.013269 1_555
Ga0_6 Ga2_7 3.013269 1_554
Ga0_6 Mg1_2 3.057695 1_555
Ga0_6 Mg1_4 3.057695 1_565
Ga0_6 Mg1_5 3.057695 1_564
Ga0_6 Mg1_3 3.057695 1_554
Ga0_7 Ga1_3 2.815122 1_555
Ga0_7 Ga1_5 2.815122 1_565
Ga0_7 Mg0_5 2.986362 1_565
Ga0_7 Mg0_3 2.986362 1_555
Ga0_7 Ga2_7 3.013269 1_555
Ga0_7 Ga2_6 3.013269 1_555
Ga0_7 Mg1_5 3.057695 1_565
Ga0_7 Mg1_3 3.057695 1_555
Ga0_7 Mg1_2 3.057695 1_555
Ga0_7 Mg1_4 3.057695 1_565
Ga1_0 Mg0_2 2.906189 1_545
Ga1_0 Mg0_4 2.906189 1_555
Ga1_0 Ga3_0 3.013269 1_555
Ga1_0 Ga3_1 3.013269 1_554
Ga1_1 Mg0_5 2.906189 1_555
Ga1_1 Mg0_3 2.906189 1_545
Ga1_1 Ga3_1 3.013269 1_555
Ga1_1 Ga3_0 3.013269 1_555
Ga1_2 Mg0_6 2.906189 1_555
Ga1_2 Mg0_0 2.906189 1_555
Ga1_2 Ga3_2 3.013269 1_555
Ga1_2 Ga3_3 3.013269 1_554
Ga1_3 Mg0_7 2.906189 1_555
Ga1_3 Mg0_1 2.906189 1_555
Ga1_3 Ga3_3 3.013269 1_555
Ga1_3 Ga3_2 3.013269 1_555
Ga1_4 Mg0_0 2.906189 1_655
Ga1_4 Mg0_6 2.906189 1_545
Ga1_4 Ga3_4 3.013269 1_555
Ga1_4 Ga3_5 3.013269 1_554
Ga1_5 Mg0_1 2.906189 1_655
Ga1_5 Mg0_7 2.906189 1_545
Ga1_5 Ga3_5 3.013269 1_555
Ga1_5 Ga3_4 3.013269 1_555
Ga1_6 Mg0_2 2.906189 1_655
Ga1_6 Mg0_4 2.906189 1_555
Ga1_6 Ga3_6 3.013269 1_555
Ga1_6 Ga3_7 3.013269 1_554
Ga1_7 Mg0_3 2.906189 1_655
Ga1_7 Mg0_5 2.906189 1_555
Ga1_7 Ga3_7 3.013269 1_555
Ga1_7 Ga3_6 3.013269 1_555
Ga2_0 Ga3_2 2.815122 1_555
Ga2_0 Ga3_4 2.815122 1_455
Ga2_0 Mg1_4 2.906189 1_455
Ga2_0 Mg1_2 2.906189 1_555
Ga2_1 Ga3_3 2.815122 1_555
Ga2_1 Ga3_5 2.815122 1_455
Ga2_1 Mg1_5 2.906189 1_455
Ga2_1 Mg1_3 2.906189 1_555
Ga2_2 Ga3_6 2.815122 1_455
Ga2_2 Ga3_0 2.815122 1_565
Ga2_2 Mg1_0 2.906189 1_565
Ga2_2 Mg1_6 2.906189 1_455
Ga2_3 Ga3_7 2.815122 1_455
Ga2_3 Ga3_1 2.815122 1_565
Ga2_3 Mg1_1 2.906189 1_565
Ga2_3 Mg1_7 2.906189 1_455
Ga2_4 Ga3_6 2.815122 1_555
Ga2_4 Ga3_0 2.815122 1_555
Ga2_4 Mg1_0 2.906189 1_555
Ga2_4 Mg1_6 2.906189 1_555
Ga2_5 Ga3_7 2.815122 1_555
Ga2_5 Ga3_1 2.815122 1_555
Ga2_5 Mg1_1 2.906189 1_555
Ga2_5 Mg1_7 2.906189 1_555
Ga2_6 Ga3_2 2.815122 1_555
Ga2_6 Ga3_4 2.815122 1_565
Ga2_6 Mg1_2 2.906189 1_555
Ga2_6 Mg1_4 2.906189 1_565
Ga2_7 Ga3_3 2.815122 1_555
Ga2_7 Ga3_5 2.815122 1_565
Ga2_7 Mg1_3 2.906189 1_555
Ga2_7 Mg1_5 2.906189 1_565
Ga3_0 Mg1_2 2.986362 1_545
Ga3_0 Mg1_4 2.986362 1_555
Ga3_0 Mg0_3 3.057695 1_545
Ga3_0 Mg0_2 3.057695 1_545
Ga3_0 Mg0_4 3.057695 1_555
Ga3_0 Mg0_5 3.057695 1_555
Ga3_0 Ga3_6 3.114196 1_555
Ga3_0 Ga3_6 3.114196 1_445
Ga3_1 Mg1_3 2.986362 1_545
Ga3_1 Mg1_5 2.986362 1_555
Ga3_1 Mg0_5 3.057695 1_555
Ga3_1 Mg0_3 3.057695 1_545
Ga3_1 Mg0_4 3.057695 1_556
Ga3_1 Mg0_2 3.057695 1_546
Ga3_1 Ga3_7 3.114196 1_445
Ga3_1 Ga3_7 3.114196 1_555
Ga3_2 Mg1_6 2.986362 1_555
Ga3_2 Mg1_0 2.986362 1_555
Ga3_2 Mg0_6 3.057695 1_555
Ga3_2 Mg0_7 3.057695 1_555
Ga3_2 Mg0_1 3.057695 1_555
Ga3_2 Mg0_0 3.057695 1_555
Ga3_2 Ga3_4 3.114196 1_565
Ga3_2 Ga3_4 3.114196 1_455
Ga3_3 Mg1_7 2.986362 1_555
Ga3_3 Mg1_1 2.986362 1_555
Ga3_3 Mg0_7 3.057695 1_555
Ga3_3 Mg0_1 3.057695 1_555
Ga3_3 Mg0_6 3.057695 1_556
Ga3_3 Mg0_0 3.057695 1_556
Ga3_3 Ga3_5 3.114196 1_565
Ga3_3 Ga3_5 3.114196 1_455
Ga3_4 Mg1_6 2.986362 1_545
Ga3_4 Mg1_0 2.986362 1_655
Ga3_4 Mg0_0 3.057695 1_655
Ga3_4 Mg0_1 3.057695 1_655
Ga3_4 Mg0_6 3.057695 1_545
Ga3_4 Mg0_7 3.057695 1_545
Ga3_5 Mg1_7 2.986362 1_545
Ga3_5 Mg1_1 2.986362 1_655
Ga3_5 Mg0_7 3.057695 1_545
Ga3_5 Mg0_1 3.057695 1_655
Ga3_5 Mg0_0 3.057695 1_656
Ga3_5 Mg0_6 3.057695 1_546
Ga3_6 Mg1_2 2.986362 1_655
Ga3_6 Mg1_4 2.986362 1_555
Ga3_6 Mg0_2 3.057695 1_655
Ga3_6 Mg0_3 3.057695 1_655
Ga3_6 Mg0_4 3.057695 1_555
Ga3_6 Mg0_5 3.057695 1_555
Ga3_7 Mg1_3 2.986362 1_655
Ga3_7 Mg1_5 2.986362 1_555
Ga3_7 Mg0_3 3.057695 1_655
Ga3_7 Mg0_5 3.057695 1_555
Ga3_7 Mg0_2 3.057695 1_656
Ga3_7 Mg0_4 3.057695 1_556
