# generated using pymatgen
data_FeGe3H4PbO10
_symmetry_space_group_name_H-M   'P 1'
_cell_length_a   5.48014973
_cell_length_b   6.01749080
_cell_length_c   13.75037600
_cell_angle_alpha   90.00000000
_cell_angle_beta   90.00000000
_cell_angle_gamma   112.16266634
_symmetry_Int_Tables_number   1
_chemical_formula_structural   FeGe3H4PbO10
_chemical_formula_sum   'Fe2 Ge6 H8 Pb2 O20'
_cell_volume   419.94082423
_cell_formula_units_Z   2
loop_
 _symmetry_equiv_pos_site_id
 _symmetry_equiv_pos_as_xyz
  1  'x, y, z'
loop_
 _atom_site_type_symbol
 _atom_site_label
 _atom_site_symmetry_multiplicity
 _atom_site_fract_x
 _atom_site_fract_y
 _atom_site_fract_z
 _atom_site_occupancy
  Fe  Fe0  1  0.00000000  0.50000000  0.50000000  1
  Fe  Fe1  1  0.00000000  0.50000000  0.00000000  1
  Ge  Ge0  1  0.50000000  0.00000000  0.50000000  1
  Ge  Ge1  1  0.50000000  0.00000000  0.00000000  1
  Ge  Ge2  1  0.00202600  0.96304400  0.62908500  1
  Ge  Ge3  1  0.99797400  0.03695600  0.12908500  1
  Ge  Ge4  1  0.99797400  0.03695600  0.37091500  1
  Ge  Ge5  1  0.00202600  0.96304400  0.87091500  1
  H  H0  1  0.54023100  0.63704400  0.56533400  1
  H  H1  1  0.45976900  0.36295600  0.06533400  1
  H  H2  1  0.45976900  0.36295600  0.43466600  1
  H  H3  1  0.54023100  0.63704400  0.93466600  1
  H  H4  1  0.65232200  0.34996400  0.30955500  1
  H  H5  1  0.34767800  0.65003600  0.80955500  1
  H  H6  1  0.34767800  0.65003600  0.69044500  1
  H  H7  1  0.65232200  0.34996400  0.19044500  1
  Pb  Pb0  1  0.32330900  0.64700500  0.25000000  1
  Pb  Pb1  1  0.67669100  0.35299500  0.75000000  1
  O  O0  1  0.06790300  0.96794700  0.25000000  1
  O  O1  1  0.93209700  0.03205300  0.75000000  1
  O  O2  1  0.34724100  0.10022600  0.61129300  1
  O  O3  1  0.65275900  0.89977400  0.11129300  1
  O  O4  1  0.65275900  0.89977400  0.38870700  1
  O  O5  1  0.34724100  0.10022600  0.88870700  1
  O  O6  1  0.85437800  0.64911800  0.88699300  1
  O  O7  1  0.14562200  0.35088200  0.38699300  1
  O  O8  1  0.14562200  0.35088200  0.11300700  1
  O  O9  1  0.85437800  0.64911800  0.61300700  1
  O  O10  1  0.84121800  0.12577800  0.56231800  1
  O  O11  1  0.15878200  0.87422200  0.06231800  1
  O  O12  1  0.15878200  0.87422200  0.43768200  1
  O  O13  1  0.84121800  0.12577800  0.93768200  1
  O  O14  1  0.38965400  0.69020200  0.55763700  1
  O  O15  1  0.61034600  0.30979800  0.05763700  1
  O  O16  1  0.61034600  0.30979800  0.44236300  1
  O  O17  1  0.38965400  0.69020200  0.94236300  1
  O  O18  1  0.67393500  0.44875600  0.25000000  1
  O  O19  1  0.32606500  0.55124400  0.75000000  1
loop_
_geom_bond_atom_site_label_1
_geom_bond_atom_site_label_2
_geom_bond_distance
_geom_bond_site_symmetry_2
Fe0 O9 2.096871 1_455
Fe0 O7 2.096871 1_555
Fe0 O16 2.157291 1_455
Fe0 O14 2.157291 1_555
Fe0 O12 2.254775 1_555
Fe0 O10 2.254775 1_455
Fe1 O8 2.096871 1_555
Fe1 O6 2.096871 1_454
Fe1 O15 2.157291 1_455
Fe1 O17 2.157291 1_554
Fe1 O11 2.254775 1_555
Fe1 O13 2.254775 1_454
Ge0 O16 1.902241 1_555
Ge0 O14 1.902241 1_545
Ge0 O10 1.932859 1_555
Ge0 O12 1.932859 1_545
Ge0 O2 1.946113 1_555
Ge0 O4 1.946113 1_545
Ge1 O15 1.902241 1_555
Ge1 O17 1.902241 1_544
Ge1 O13 1.932859 1_554
Ge1 O11 1.932859 1_545
Ge1 O5 1.946113 1_554
Ge1 O3 1.946113 1_545
Ge2 O9 1.766030 1_455
Ge2 O2 1.772584 1_565
Ge2 O1 1.789886 1_465
Ge2 O10 1.797075 1_465
Ge3 O8 1.766030 1_655
Ge3 O3 1.772584 1_545
Ge3 O0 1.789886 1_645
Ge3 O11 1.797075 1_645
Ge4 O7 1.766030 1_655
Ge4 O4 1.772584 1_545
Ge4 O0 1.789886 1_645
Ge4 O12 1.797075 1_645
Ge5 O6 1.766030 1_455
Ge5 O5 1.772584 1_565
Ge5 O1 1.789886 1_465
Ge5 O13 1.797075 1_465
H0 O14 0.996796 1_555
H1 O15 0.996796 1_555
H2 O16 0.996796 1_555
H3 O17 0.996796 1_555
H4 O18 0.992429 1_555
H5 O19 0.992429 1_555
H6 O19 0.992429 1_555
H7 O18 0.992429 1_555
O0 Pb0 2.779978 1_555
O1 Pb1 2.779978 1_555
O2 Pb1 2.671881 1_555
O3 Pb0 2.671881 1_555
O4 Pb0 2.671881 1_555
O5 Pb1 2.671881 1_555
O6 Pb1 2.522428 1_555
O7 Pb0 2.522428 1_555
O8 Pb0 2.522428 1_555
O9 Pb1 2.522428 1_555
O18 Pb0 2.616238 1_555
O19 Pb1 2.616238 1_555
