# generated using pymatgen
data_SmS3(NO3)3
_symmetry_space_group_name_H-M   'P 1'
_cell_length_a   9.86084005
_cell_length_b   9.86084005
_cell_length_c   5.79704100
_cell_angle_alpha   90.00000000
_cell_angle_beta   90.00000000
_cell_angle_gamma   120.00000033
_symmetry_Int_Tables_number   1
_chemical_formula_structural   SmS3(NO3)3
_chemical_formula_sum   'Sm2 S6 N6 O18'
_cell_volume   488.16296795
_cell_formula_units_Z   2
loop_
 _symmetry_equiv_pos_site_id
 _symmetry_equiv_pos_as_xyz
  1  'x, y, z'
loop_
 _atom_site_type_symbol
 _atom_site_label
 _atom_site_symmetry_multiplicity
 _atom_site_fract_x
 _atom_site_fract_y
 _atom_site_fract_z
 _atom_site_occupancy
  Sm  Sm0  1  0.66666700  0.33333300  0.25000000  1
  Sm  Sm1  1  0.33333300  0.66666700  0.75000000  1
  S  S0  1  0.08670400  0.40084600  0.25000000  1
  S  S1  1  0.91329600  0.59915400  0.75000000  1
  S  S2  1  0.59915400  0.68585800  0.25000000  1
  S  S3  1  0.40084600  0.31414200  0.75000000  1
  S  S4  1  0.31414200  0.91329600  0.25000000  1
  S  S5  1  0.68585800  0.08670400  0.75000000  1
  N  N0  1  0.14471400  0.26926300  0.25000000  1
  N  N1  1  0.85528600  0.73073700  0.75000000  1
  N  N2  1  0.73073700  0.87545100  0.25000000  1
  N  N3  1  0.26926300  0.12454900  0.75000000  1
  N  N4  1  0.12454900  0.85528600  0.25000000  1
  N  N5  1  0.87545100  0.14471400  0.75000000  1
  O  O0  1  0.39484200  0.08444900  0.25000000  1
  O  O1  1  0.60515800  0.91555100  0.75000000  1
  O  O2  1  0.91555100  0.31039400  0.25000000  1
  O  O3  1  0.08444900  0.68960600  0.75000000  1
  O  O4  1  0.68960600  0.60515800  0.25000000  1
  O  O5  1  0.31039400  0.39484200  0.75000000  1
  O  O6  1  0.15197800  0.49413700  0.03996200  1
  O  O7  1  0.84802200  0.50586300  0.96003800  1
  O  O8  1  0.50586300  0.65784100  0.03996200  1
  O  O9  1  0.84802200  0.50586300  0.53996200  1
  O  O10  1  0.49413700  0.34215900  0.96003800  1
  O  O11  1  0.15197800  0.49413700  0.46003800  1
  O  O12  1  0.34215900  0.84802200  0.03996200  1
  O  O13  1  0.49413700  0.34215900  0.53996200  1
  O  O14  1  0.65784100  0.15197800  0.96003800  1
  O  O15  1  0.50586300  0.65784100  0.46003800  1
  O  O16  1  0.65784100  0.15197800  0.53996200  1
  O  O17  1  0.34215900  0.84802200  0.46003800  1
loop_
_geom_bond_atom_site_label_1
_geom_bond_atom_site_label_2
_geom_bond_distance
_geom_bond_site_symmetry_2
N0 S0 1.659213 1_555
N1 S1 1.659213 1_555
N2 S2 1.659213 1_555
N3 S3 1.659213 1_555
N4 S4 1.659213 1_555
N5 S5 1.659213 1_555
O0 S4 1.462393 1_545
O0 Sm0 2.574778 1_555
O1 S5 1.462393 1_565
O1 Sm1 2.574778 1_555
O2 S0 1.462392 1_655
O2 Sm0 2.574767 1_555
O3 S1 1.462392 1_455
O3 Sm1 2.574767 1_555
O4 S2 1.462384 1_555
O4 Sm0 2.574787 1_555
O5 S3 1.462384 1_555
O5 Sm1 2.574787 1_555
O6 S0 1.466625 1_555
O6 Sm1 2.423945 1_554
O7 S1 1.466625 1_555
O7 Sm0 2.423945 1_556
O8 S2 1.466625 1_555
O8 Sm1 2.423949 1_554
O9 S1 1.466625 1_555
O9 Sm0 2.423945 1_555
O10 S3 1.466625 1_555
O10 Sm0 2.423949 1_556
O11 S0 1.466625 1_555
O11 Sm1 2.423945 1_555
O12 S4 1.466625 1_555
O12 Sm1 2.423942 1_554
O13 S3 1.466625 1_555
O13 Sm0 2.423949 1_555
O14 S5 1.466625 1_555
O14 Sm0 2.423942 1_556
O15 S2 1.466625 1_555
O15 Sm1 2.423949 1_555
O16 S5 1.466625 1_555
O16 Sm0 2.423942 1_555
O17 S4 1.466625 1_555
O17 Sm1 2.423942 1_555
