# generated using pymatgen
data_Na5U5O18
_symmetry_space_group_name_H-M   'P 1'
_cell_length_a   11.70118074
_cell_length_b   11.70118074
_cell_length_c   6.89542610
_cell_angle_alpha   84.16470329
_cell_angle_beta   84.16470329
_cell_angle_gamma   115.80916520
_symmetry_Int_Tables_number   1
_chemical_formula_structural   Na5U5O18
_chemical_formula_sum   'Na10 U10 O36'
_cell_volume   834.22526415
_cell_formula_units_Z   2
loop_
 _symmetry_equiv_pos_site_id
 _symmetry_equiv_pos_as_xyz
  1  'x, y, z'
loop_
 _atom_site_type_symbol
 _atom_site_label
 _atom_site_symmetry_multiplicity
 _atom_site_fract_x
 _atom_site_fract_y
 _atom_site_fract_z
 _atom_site_occupancy
  Na  Na0  1  0.55119600  0.44822000  0.75757800  1
  Na  Na1  1  0.44822000  0.55119600  0.25757800  1
  Na  Na2  1  0.05716100  0.94419500  0.25030600  1
  Na  Na3  1  0.94419500  0.05716100  0.75030600  1
  Na  Na4  1  0.14039200  0.86006700  0.75100400  1
  Na  Na5  1  0.86006700  0.14039200  0.25100400  1
  Na  Na6  1  0.25102200  0.75003400  0.25362800  1
  Na  Na7  1  0.75003400  0.25102200  0.75362800  1
  Na  Na8  1  0.65362700  0.36648000  0.27506700  1
  Na  Na9  1  0.36648000  0.65362700  0.77506700  1
  U  U0  1  0.90865600  0.60318400  0.53054000  1
  U  U1  1  0.39772500  0.09222700  0.97106000  1
  U  U2  1  0.09222700  0.39772500  0.47106000  1
  U  U3  1  0.60318400  0.90865600  0.03054000  1
  U  U4  1  0.00090300  0.50122400  0.00071400  1
  U  U5  1  0.50122400  0.00090300  0.50071400  1
  U  U6  1  0.79553400  0.70800900  0.99338100  1
  U  U7  1  0.29297400  0.20536400  0.50778200  1
  U  U8  1  0.20536400  0.29297400  0.00778200  1
  U  U9  1  0.70800900  0.79553400  0.49338100  1
  O  O0  1  0.78878500  0.68972800  0.67066800  1
  O  O1  1  0.31010800  0.21121400  0.83085900  1
  O  O2  1  0.21121400  0.31010800  0.33085900  1
  O  O3  1  0.68972800  0.78878500  0.17066800  1
  O  O4  1  0.75518100  0.44757900  0.57682600  1
  O  O5  1  0.55253700  0.24473000  0.91898700  1
  O  O6  1  0.24473000  0.55253700  0.41898700  1
  O  O7  1  0.44757900  0.75518100  0.07682600  1
  O  O8  1  0.64665300  0.54651300  0.05168000  1
  O  O9  1  0.45394700  0.35491600  0.45296800  1
  O  O10  1  0.35491600  0.45394700  0.95296800  1
  O  O11  1  0.54651300  0.64665300  0.55168000  1
  O  O12  1  0.06381900  0.75880600  0.47653200  1
  O  O13  1  0.24225900  0.93702300  0.02517500  1
  O  O14  1  0.93702300  0.24225900  0.52517500  1
  O  O15  1  0.75880600  0.06381900  0.97653200  1
  O  O16  1  0.84091700  0.67926800  0.28812100  1
  O  O17  1  0.32059200  0.16016600  0.21275500  1
  O  O18  1  0.16016600  0.32059200  0.71275500  1
  O  O19  1  0.67926800  0.84091700  0.78812100  1
  O  O20  1  0.92435800  0.62556800  0.88290500  1
  O  O21  1  0.37605700  0.07710100  0.61721300  1
  O  O22  1  0.07710100  0.37605700  0.11721300  1
  O  O23  1  0.62556800  0.92435800  0.38290500  1
  O  O24  1  0.94226900  0.86931100  0.93380600  1
  O  O25  1  0.13188500  0.05818000  0.56705600  1
  O  O26  1  0.05818000  0.13188500  0.06705600  1
  O  O27  1  0.86931100  0.94226900  0.43380600  1
  O  O28  1  0.16879300  0.64020300  0.94221800  1
  O  O29  1  0.36300700  0.83246100  0.56189500  1
  O  O30  1  0.83246100  0.36300700  0.06189500  1
  O  O31  1  0.64020300  0.16879300  0.44221800  1
  O  O32  1  0.00328200  0.47575000  0.68953500  1
  O  O33  1  0.52526300  0.99717200  0.81254200  1
  O  O34  1  0.99717200  0.52526300  0.31254200  1
  O  O35  1  0.47575000  0.00328200  0.18953500  1
loop_
_geom_bond_atom_site_label_1
_geom_bond_atom_site_label_2
_geom_bond_distance
_geom_bond_site_symmetry_2
Na0 O5 2.530950 1_555
Na0 O8 2.549371 1_556
Na0 O10 2.572497 1_555
Na0 O4 2.581314 1_555
Na0 O9 2.601748 1_555
Na0 O11 2.620348 1_555
Na0 O1 2.918452 1_555
Na0 O0 2.924007 1_555
Na1 O6 2.530950 1_555
Na1 O11 2.549371 1_555
Na1 O9 2.572497 1_555
Na1 O7 2.581314 1_555
Na1 O10 2.601748 1_554
Na1 O8 2.620348 1_555
Na1 O2 2.918452 1_555
Na1 O3 2.924007 1_555
Na2 O27 2.412168 1_455
Na2 O26 2.414522 1_565
Na2 O13 2.570791 1_555
Na2 O12 2.574677 1_555
Na2 O25 2.697968 1_565
Na2 O24 2.701425 1_454
Na3 O24 2.412168 1_545
Na3 O25 2.414522 1_655
Na3 O14 2.570791 1_555
Na3 O15 2.574677 1_555
Na3 O26 2.697968 1_656
Na3 O27 2.701425 1_545
Na4 O12 2.380136 1_555
Na4 O13 2.382328 1_556
Na4 O25 2.573191 1_565
Na4 O24 2.574262 1_455
Na4 O20 2.780586 1_455
Na4 O21 2.795181 1_565
Na4 O28 2.934507 1_555
Na4 O29 2.952568 1_555
Na5 O15 2.380136 1_554
Na5 O14 2.382328 1_555
Na5 O26 2.573191 1_655
Na5 O27 2.574262 1_545
Na5 O23 2.780586 1_545
Na5 O22 2.795181 1_655
Na5 O31 2.934507 1_555
Na5 O30 2.952568 1_555
Na6 O6 2.438235 1_555
Na6 O7 2.464543 1_555
Na6 O12 2.591232 1_555
Na6 O13 2.608962 1_555
Na6 O29 2.654874 1_555
Na6 O28 2.663240 1_554
Na6 O35 2.933168 1_565
Na6 O34 2.939419 1_455
Na7 O5 2.438235 1_555
Na7 O4 2.464543 1_555
Na7 O15 2.591232 1_555
Na7 O14 2.608962 1_555
Na7 O30 2.654874 1_556
Na7 O31 2.663240 1_555
Na7 O32 2.933168 1_655
Na7 O33 2.939419 1_545
Na8 O31 2.410094 1_555
Na8 O30 2.449874 1_555
Na8 O9 2.467885 1_555
Na8 O8 2.516451 1_555
Na8 O4 2.562127 1_555
Na9 O28 2.410094 1_555
Na9 O29 2.449874 1_555
Na9 O10 2.467885 1_555
Na9 O11 2.516451 1_555
Na9 O7 2.562127 1_556
O0 U9 2.206059 1_555
O0 U0 2.255369 1_555
O0 U6 2.263077 1_555
O1 U8 2.204540 1_556
O1 U1 2.257189 1_555
O1 U7 2.262221 1_555
O2 U7 2.204540 1_555
O2 U2 2.257189 1_555
O2 U8 2.262221 1_555
O3 U6 2.206059 1_554
O3 U3 2.255369 1_555
O3 U9 2.263077 1_555
O4 U0 1.886847 1_555
O5 U1 1.875485 1_555
O6 U2 1.875485 1_555
O7 U3 1.886847 1_555
O8 U6 1.898425 1_554
O9 U7 1.898321 1_555
O10 U8 1.898321 1_556
O11 U9 1.898425 1_555
O12 U0 1.896516 1_455
O13 U1 1.895812 1_564
O14 U2 1.895812 1_655
O15 U3 1.896516 1_546
O16 U6 2.182099 1_554
O16 U0 2.190043 1_555
O17 U7 2.180958 1_555
O17 U1 2.193715 1_554
O18 U8 2.180958 1_556
O18 U2 2.193715 1_555
O19 U9 2.182099 1_555
O19 U3 2.190043 1_556
O20 U4 2.149747 1_656
O20 U6 2.228275 1_555
O20 U0 2.486786 1_555
O21 U5 2.151465 1_555
O21 U7 2.226284 1_555
O21 U1 2.494669 1_555
O22 U4 2.151465 1_555
O22 U8 2.226284 1_555
O22 U2 2.494669 1_555
O23 U5 2.149747 1_565
O23 U9 2.228275 1_555
O23 U3 2.486786 1_555
O24 U6 1.885799 1_555
O25 U7 1.886690 1_555
O26 U8 1.886690 1_555
O27 U9 1.885799 1_555
O28 U4 1.894802 1_556
O29 U5 1.896023 1_565
O30 U4 1.896023 1_655
O31 U5 1.894802 1_555
O32 U4 2.195185 1_556
O32 U2 2.230347 1_555
O32 U0 2.450193 1_455
O33 U5 2.195203 1_565
O33 U3 2.224424 1_556
O33 U1 2.453532 1_565
O34 U4 2.195203 1_655
O34 U0 2.224424 1_555
O34 U2 2.453532 1_655
O35 U5 2.195185 1_555
O35 U1 2.230347 1_554
O35 U3 2.450193 1_545
