# generated using pymatgen
data_Ga
_symmetry_space_group_name_H-M   'P 1'
_cell_length_a   5.55684417
_cell_length_b   6.56321758
_cell_length_c   8.42070950
_cell_angle_alpha   90.00000000
_cell_angle_beta   108.60716858
_cell_angle_gamma   90.00000000
_symmetry_Int_Tables_number   1
_chemical_formula_structural   Ga
_chemical_formula_sum   Ga16
_cell_volume   291.05672912
_cell_formula_units_Z   16
loop_
 _symmetry_equiv_pos_site_id
 _symmetry_equiv_pos_as_xyz
  1  'x, y, z'
loop_
 _atom_site_type_symbol
 _atom_site_label
 _atom_site_symmetry_multiplicity
 _atom_site_fract_x
 _atom_site_fract_y
 _atom_site_fract_z
 _atom_site_occupancy
  Ga  Ga0_0  1  0.43270187  0.12500000  0.36491633  1
  Ga  Ga0_1  1  0.43270187  0.12500000  0.86491633  1
  Ga  Ga0_2  1  0.43270187  0.62500000  0.36491633  1
  Ga  Ga0_3  1  0.43270187  0.62500000  0.86491633  1
  Ga  Ga0_4  1  0.93270187  0.12500000  0.36491633  1
  Ga  Ga0_5  1  0.93270187  0.12500000  0.86491633  1
  Ga  Ga0_6  1  0.93270187  0.62500000  0.36491633  1
  Ga  Ga0_7  1  0.93270187  0.62500000  0.86491633  1
  Ga  Ga1_0  1  0.06729814  0.37500000  0.13508317  1
  Ga  Ga1_1  1  0.06729814  0.37500000  0.63508316  1
  Ga  Ga1_2  1  0.06729814  0.87500000  0.13508317  1
  Ga  Ga1_3  1  0.06729814  0.87500000  0.63508316  1
  Ga  Ga1_4  1  0.56729814  0.37500000  0.13508317  1
  Ga  Ga1_5  1  0.56729814  0.37500000  0.63508316  1
  Ga  Ga1_6  1  0.56729814  0.87500000  0.13508317  1
  Ga  Ga1_7  1  0.56729814  0.87500000  0.63508316  1
loop_
_geom_bond_atom_site_label_1
_geom_bond_atom_site_label_2
_geom_bond_distance
_geom_bond_site_symmetry_2
Ga0_0 Ga1_5 2.709502 1_555
Ga0_0 Ga1_7 2.709502 1_545
Ga0_0 Ga0_4 2.778422 1_555
Ga0_0 Ga0_4 2.778422 1_455
Ga0_0 Ga1_4 2.814425 1_555
Ga0_0 Ga1_6 2.814425 1_545
Ga0_0 Ga1_0 2.837775 1_555
Ga0_0 Ga1_2 2.837775 1_545
Ga0_1 Ga1_4 2.709502 1_556
Ga0_1 Ga1_6 2.709502 1_546
Ga0_1 Ga0_5 2.778422 1_455
Ga0_1 Ga0_5 2.778422 1_555
Ga0_1 Ga1_5 2.814425 1_555
Ga0_1 Ga1_7 2.814425 1_545
Ga0_1 Ga1_1 2.837775 1_555
Ga0_1 Ga1_3 2.837775 1_545
Ga0_2 Ga1_7 2.709502 1_555
Ga0_2 Ga1_5 2.709502 1_555
Ga0_2 Ga0_6 2.778422 1_455
Ga0_2 Ga0_6 2.778422 1_555
Ga0_2 Ga1_6 2.814425 1_555
Ga0_2 Ga1_4 2.814425 1_555
Ga0_2 Ga1_2 2.837775 1_555
Ga0_2 Ga1_0 2.837775 1_555
Ga0_3 Ga1_6 2.709502 1_556
Ga0_3 Ga1_4 2.709502 1_556
Ga0_3 Ga0_7 2.778422 1_455
Ga0_3 Ga0_7 2.778422 1_555
Ga0_3 Ga1_7 2.814425 1_555
Ga0_3 Ga1_5 2.814425 1_555
Ga0_3 Ga1_3 2.837775 1_555
Ga0_3 Ga1_1 2.837775 1_555
Ga0_4 Ga1_1 2.709502 1_655
Ga0_4 Ga1_3 2.709502 1_645
Ga0_4 Ga1_0 2.814425 1_655
Ga0_4 Ga1_2 2.814425 1_645
Ga0_4 Ga1_4 2.837775 1_555
Ga0_4 Ga1_6 2.837775 1_545
Ga0_5 Ga1_0 2.709502 1_656
Ga0_5 Ga1_2 2.709502 1_646
Ga0_5 Ga1_1 2.814425 1_655
Ga0_5 Ga1_3 2.814425 1_645
Ga0_5 Ga1_5 2.837775 1_555
Ga0_5 Ga1_7 2.837775 1_545
Ga0_6 Ga1_3 2.709502 1_655
Ga0_6 Ga1_1 2.709502 1_655
Ga0_6 Ga1_2 2.814425 1_655
Ga0_6 Ga1_0 2.814425 1_655
Ga0_6 Ga1_6 2.837775 1_555
Ga0_6 Ga1_4 2.837775 1_555
Ga0_7 Ga1_2 2.709502 1_656
Ga0_7 Ga1_0 2.709502 1_656
Ga0_7 Ga1_3 2.814425 1_655
Ga0_7 Ga1_1 2.814425 1_655
Ga0_7 Ga1_7 2.837775 1_555
Ga0_7 Ga1_5 2.837775 1_555
Ga1_0 Ga1_4 2.778422 1_555
Ga1_0 Ga1_4 2.778422 1_455
Ga1_1 Ga1_5 2.778422 1_455
Ga1_1 Ga1_5 2.778422 1_555
Ga1_2 Ga1_6 2.778422 1_555
Ga1_2 Ga1_6 2.778422 1_455
Ga1_3 Ga1_7 2.778422 1_455
Ga1_3 Ga1_7 2.778422 1_555
