# generated using pymatgen
data_TmSiPt
_symmetry_space_group_name_H-M   'P 1'
_cell_length_a   4.24709610
_cell_length_b   6.88253092
_cell_length_c   7.37893732
_cell_angle_alpha   90.00000000
_cell_angle_beta   90.00000000
_cell_angle_gamma   90.00000000
_symmetry_Int_Tables_number   1
_chemical_formula_structural   TmSiPt
_chemical_formula_sum   'Tm4 Si4 Pt4'
_cell_volume   215.69202133
_cell_formula_units_Z   4
loop_
 _symmetry_equiv_pos_site_id
 _symmetry_equiv_pos_as_xyz
  1  'x, y, z'
loop_
 _atom_site_type_symbol
 _atom_site_label
 _atom_site_symmetry_multiplicity
 _atom_site_fract_x
 _atom_site_fract_y
 _atom_site_fract_z
 _atom_site_occupancy
  Tm  Tm0  1  0.25000000  0.49653133  0.70215654  1
  Tm  Tm1  1  0.25000000  0.99653133  0.79784346  1
  Tm  Tm2  1  0.75000000  0.50346867  0.29784346  1
  Tm  Tm3  1  0.75000000  0.00346867  0.20215654  1
  Si  Si0  1  0.25000000  0.81197414  0.41216919  1
  Si  Si1  1  0.25000000  0.31197414  0.08783081  1
  Si  Si2  1  0.75000000  0.18802586  0.58783081  1
  Si  Si3  1  0.75000000  0.68802586  0.91216919  1
  Pt  Pt0  1  0.25000000  0.20095292  0.41518039  1
  Pt  Pt1  1  0.25000000  0.70095292  0.08481961  1
  Pt  Pt2  1  0.75000000  0.79904708  0.58481961  1
  Pt  Pt3  1  0.75000000  0.29904708  0.91518039  1
loop_
_geom_bond_atom_site_label_1
_geom_bond_atom_site_label_2
_geom_bond_distance
_geom_bond_site_symmetry_2
Si0 Tm3 2.940743 1_465
Si0 Tm3 2.940743 1_565
Si0 Tm0 3.048307 1_555
Si0 Tm1 3.116475 1_555
Si0 Tm2 3.119217 1_555
Si0 Tm2 3.119217 1_455
Si1 Tm2 2.940743 1_555
Si1 Tm2 2.940743 1_455
Si1 Tm1 3.048307 1_544
Si1 Tm0 3.116475 1_554
Si1 Tm3 3.119217 1_455
Si1 Tm3 3.119217 1_555
Si2 Tm1 2.940743 1_645
Si2 Tm1 2.940743 1_545
Si2 Tm2 3.048307 1_555
Si2 Tm3 3.116475 1_555
Si2 Tm0 3.119217 1_555
Si2 Tm0 3.119217 1_655
Si3 Tm0 2.940743 1_555
Si3 Tm0 2.940743 1_655
Si3 Tm3 3.048307 1_566
Si3 Tm2 3.116475 1_556
Si3 Tm1 3.119217 1_655
Si3 Tm1 3.119217 1_555
Pt0 Si2 2.477981 1_555
Pt0 Si2 2.477981 1_455
Pt0 Si1 2.533468 1_555
Pt0 Si0 2.677251 1_545
Pt0 Tm0 2.936431 1_555
Pt0 Tm3 2.971144 1_555
Pt0 Tm3 2.971144 1_455
Pt0 Tm2 3.097440 1_555
Pt0 Tm2 3.097440 1_455
Pt0 Tm1 3.154751 1_545
Pt1 Si3 2.477981 1_454
Pt1 Si3 2.477981 1_554
Pt1 Si0 2.533468 1_555
Pt1 Si1 2.677251 1_555
Pt1 Tm1 2.936431 1_554
Pt1 Tm2 2.971144 1_455
Pt1 Tm2 2.971144 1_555
Pt1 Tm3 3.097440 1_565
Pt1 Tm3 3.097440 1_465
Pt1 Tm0 3.154751 1_554
Pt2 Si0 2.477981 1_655
Pt2 Si0 2.477981 1_555
Pt2 Si3 2.533468 1_555
Pt2 Si2 2.677251 1_565
Pt2 Tm2 2.936431 1_555
Pt2 Tm1 2.971144 1_655
Pt2 Tm1 2.971144 1_555
Pt2 Tm0 3.097440 1_555
Pt2 Tm0 3.097440 1_655
Pt2 Tm3 3.154751 1_565
Pt3 Si1 2.477981 1_656
Pt3 Si1 2.477981 1_556
Pt3 Si2 2.533468 1_555
Pt3 Si3 2.677251 1_555
Pt3 Tm3 2.936431 1_556
Pt3 Tm0 2.971144 1_555
Pt3 Tm0 2.971144 1_655
Pt3 Tm1 3.097440 1_545
Pt3 Tm1 3.097440 1_645
Pt3 Tm2 3.154751 1_556
