# generated using pymatgen
data_YSi2Rh3
_symmetry_space_group_name_H-M   'P 1'
_cell_length_a   5.52597194
_cell_length_b   6.57887193
_cell_length_c   6.57887193
_cell_angle_alpha   65.68790015
_cell_angle_beta   65.16675342
_cell_angle_gamma   65.16675342
_symmetry_Int_Tables_number   1
_chemical_formula_structural   YSi2Rh3
_chemical_formula_sum   'Y2 Si4 Rh6'
_cell_volume   188.77506802
_cell_formula_units_Z   2
loop_
 _symmetry_equiv_pos_site_id
 _symmetry_equiv_pos_as_xyz
  1  'x, y, z'
loop_
 _atom_site_type_symbol
 _atom_site_label
 _atom_site_symmetry_multiplicity
 _atom_site_fract_x
 _atom_site_fract_y
 _atom_site_fract_z
 _atom_site_occupancy
  Y  Y0  1  0.95955273  0.75000000  0.75000000  1
  Y  Y1  1  0.04044727  0.25000000  0.25000000  1
  Si  Si0  1  0.61778579  0.57806402  0.57806402  1
  Si  Si1  1  0.38221421  0.42193598  0.42193598  1
  Si  Si2  1  0.72608416  0.07806402  0.07806402  1
  Si  Si3  1  0.27391584  0.92193598  0.92193598  1
  Rh  Rh0  1  0.50000000  0.78463255  0.21536745  1
  Rh  Rh1  1  0.00000000  0.28463255  0.71536745  1
  Rh  Rh2  1  0.50000000  0.21536745  0.78463255  1
  Rh  Rh3  1  -0.00000000  0.71536745  0.28463255  1
  Rh  Rh4  1  0.50000000  0.00000000  0.50000000  1
  Rh  Rh5  1  0.50000000  0.50000000  0.00000000  1
loop_
_geom_bond_atom_site_label_1
_geom_bond_atom_site_label_2
_geom_bond_distance
_geom_bond_site_symmetry_2
Y0 Y1 3.595963 1_665
Y0 Y1 3.595963 1_656
Si0 Y0 3.151380 1_455
Si0 Y1 3.184154 1_655
Si0 Y0 3.281474 1_555
Si1 Y1 3.151380 1_655
Si1 Y0 3.184154 1_455
Si1 Y1 3.281474 1_555
Si2 Y1 3.151390 1_655
Si2 Y0 3.184152 1_544
Si2 Y1 3.281464 1_555
Si3 Y0 3.151390 1_455
Si3 Y1 3.184152 1_566
Si3 Y0 3.281464 1_555
Rh0 Si2 2.396966 1_565
Rh0 Si3 2.396966 1_554
Rh0 Si0 2.419830 1_555
Rh0 Si1 2.419830 1_555
Rh0 Y0 3.071164 1_554
Rh0 Y1 3.071164 1_565
Rh0 Y1 3.525734 1_655
Rh0 Y0 3.525734 1_455
Rh1 Si1 2.396974 1_555
Rh1 Si0 2.396974 1_455
Rh1 Si2 2.419835 1_456
Rh1 Si3 2.419835 1_545
Rh1 Y1 3.071164 1_555
Rh1 Y0 3.071164 1_455
Rh1 Y1 3.525735 1_556
Rh1 Y0 3.525735 1_445
Rh2 Si2 2.396966 1_556
Rh2 Si3 2.396966 1_545
Rh2 Si0 2.419830 1_555
Rh2 Si1 2.419830 1_555
Rh2 Y0 3.071164 1_545
Rh2 Y1 3.071164 1_556
Rh2 Y1 3.525734 1_655
Rh2 Y0 3.525734 1_455
Rh3 Si1 2.396974 1_555
Rh3 Si0 2.396974 1_455
Rh3 Si2 2.419835 1_465
Rh3 Si3 2.419835 1_554
Rh3 Y1 3.071164 1_555
Rh3 Y0 3.071164 1_455
Rh3 Y1 3.525735 1_565
Rh3 Y0 3.525735 1_454
Rh4 Si2 2.445838 1_555
Rh4 Si3 2.445838 1_545
Rh4 Si0 2.445839 1_545
Rh4 Si1 2.445839 1_555
Rh4 Y0 3.103501 1_545
Rh4 Y1 3.103501 1_555
Rh4 Y1 3.478784 1_655
Rh4 Y0 3.478784 1_445
Rh5 Si2 2.445838 1_555
Rh5 Si3 2.445838 1_554
Rh5 Si0 2.445839 1_554
Rh5 Si1 2.445839 1_555
Rh5 Y0 3.103501 1_554
Rh5 Y1 3.103501 1_555
Rh5 Y1 3.478784 1_655
Rh5 Y0 3.478784 1_454
