# generated using pymatgen
data_Cs2Te5
_symmetry_space_group_name_H-M   'P 1'
_cell_length_a   7.91805483
_cell_length_b   7.91805483
_cell_length_c   10.35716100
_cell_angle_alpha   90.00000000
_cell_angle_beta   90.00000000
_cell_angle_gamma   104.31667067
_symmetry_Int_Tables_number   1
_chemical_formula_structural   Cs2Te5
_chemical_formula_sum   'Cs4 Te10'
_cell_volume   629.18206620
_cell_formula_units_Z   2
loop_
 _symmetry_equiv_pos_site_id
 _symmetry_equiv_pos_as_xyz
  1  'x, y, z'
loop_
 _atom_site_type_symbol
 _atom_site_label
 _atom_site_symmetry_multiplicity
 _atom_site_fract_x
 _atom_site_fract_y
 _atom_site_fract_z
 _atom_site_occupancy
  Cs  Cs0  1  0.42977300  0.57022700  0.25000000  1
  Cs  Cs1  1  0.57022700  0.42977300  0.75000000  1
  Cs  Cs2  1  0.79174800  0.20825200  0.25000000  1
  Cs  Cs3  1  0.20825200  0.79174800  0.75000000  1
  Te  Te0  1  0.12019100  0.33265000  0.54190300  1
  Te  Te1  1  0.33265000  0.12019100  0.45809700  1
  Te  Te2  1  0.12019100  0.33265000  0.95809700  1
  Te  Te3  1  0.33265000  0.12019100  0.04190300  1
  Te  Te4  1  0.87980900  0.66735000  0.45809700  1
  Te  Te5  1  0.66735000  0.87980900  0.54190300  1
  Te  Te6  1  0.87980900  0.66735000  0.04190300  1
  Te  Te7  1  0.66735000  0.87980900  0.95809700  1
  Te  Te8  1  0.10952300  0.89047700  0.25000000  1
  Te  Te9  1  0.89047700  0.10952300  0.75000000  1
loop_
_geom_bond_atom_site_label_1
_geom_bond_atom_site_label_2
_geom_bond_distance
_geom_bond_site_symmetry_2
Cs0 Te8 4.005021 1_555
Cs0 Te7 4.050586 1_554
Cs0 Te0 4.050586 1_555
Cs0 Te2 4.050586 1_554
Cs0 Te5 4.050586 1_555
Cs0 Te4 4.071770 1_555
Cs0 Te6 4.071770 1_555
Cs0 Te3 4.071770 1_555
Cs0 Te1 4.071770 1_555
Cs1 Te9 4.005021 1_555
Cs1 Te6 4.050586 1_556
Cs1 Te3 4.050586 1_556
Cs1 Te4 4.050586 1_555
Cs1 Te1 4.050586 1_555
Cs1 Te7 4.071770 1_555
Cs1 Te5 4.071770 1_555
Cs1 Te2 4.071770 1_555
Cs1 Te0 4.071770 1_555
Cs2 Te2 3.950554 1_654
Cs2 Te0 3.950554 1_655
Cs2 Te7 3.950554 1_544
Cs2 Te5 3.950554 1_545
Cs2 Te8 3.974069 1_645
Cs2 Te4 4.134287 1_555
Cs2 Te6 4.134287 1_555
Cs2 Te3 4.134287 1_555
Cs2 Te1 4.134287 1_555
Cs3 Te3 3.950554 1_566
Cs3 Te1 3.950554 1_565
Cs3 Te4 3.950554 1_455
Cs3 Te6 3.950554 1_456
Cs3 Te9 3.974069 1_465
Cs3 Te0 4.134287 1_555
Cs3 Te7 4.134287 1_555
Cs3 Te5 4.134287 1_555
Cs3 Te2 4.134287 1_555
Te0 Te1 2.795181 1_555
Te0 Te9 3.079890 1_455
Te1 Te8 3.079890 1_545
Te2 Te3 2.795181 1_556
Te2 Te9 3.079890 1_455
Te3 Te8 3.079890 1_545
Te4 Te5 2.795181 1_555
Te4 Te8 3.079890 1_655
Te5 Te9 3.079890 1_565
Te6 Te7 2.795181 1_554
Te6 Te8 3.079890 1_655
Te7 Te9 3.079890 1_565
