# generated using pymatgen
data_Li3Mn4O8
_symmetry_space_group_name_H-M   'P 1'
_cell_length_a   5.72149200
_cell_length_b   8.71311100
_cell_length_c   13.01368287
_cell_angle_alpha   86.95548605
_cell_angle_beta   90.00000000
_cell_angle_gamma   90.00000000
_symmetry_Int_Tables_number   1
_chemical_formula_structural   Li3Mn4O8
_chemical_formula_sum   'Li12 Mn16 O32'
_cell_volume   647.84237686
_cell_formula_units_Z   4
loop_
 _symmetry_equiv_pos_site_id
 _symmetry_equiv_pos_as_xyz
  1  'x, y, z'
loop_
 _atom_site_type_symbol
 _atom_site_label
 _atom_site_symmetry_multiplicity
 _atom_site_fract_x
 _atom_site_fract_y
 _atom_site_fract_z
 _atom_site_occupancy
  Li  Li0  1  0.25696600  0.42080600  0.95804800  1
  Li  Li1  1  0.49441400  0.46676500  0.19903200  1
  Li  Li2  1  0.01827500  0.46563000  0.20071300  1
  Li  Li3  1  0.29868400  0.95995100  0.47480400  1
  Li  Li4  1  0.75195500  0.96462400  0.71235000  1
  Li  Li5  1  0.25979400  0.99402000  0.67970300  1
  Li  Li6  1  0.75696600  0.57919400  0.04195200  1
  Li  Li7  1  0.99441400  0.53323500  0.80096800  1
  Li  Li8  1  0.51827500  0.53437000  0.79928700  1
  Li  Li9  1  0.75979400  0.00598000  0.32029700  1
  Li  Li10  1  0.25195500  0.03537600  0.28765000  1
  Li  Li11  1  0.79868400  0.04004900  0.52519600  1
  Mn  Mn0  1  0.50750300  0.20877100  0.09580000  1
  Mn  Mn1  1  0.00614600  0.20745400  0.09629700  1
  Mn  Mn2  1  0.51192600  0.33619400  0.65571300  1
  Mn  Mn3  1  0.00813100  0.33545400  0.65999600  1
  Mn  Mn4  1  0.01192600  0.66380600  0.34428700  1
  Mn  Mn5  1  0.50813100  0.66454600  0.34000400  1
  Mn  Mn6  1  0.00750300  0.79122900  0.90420000  1
  Mn  Mn7  1  0.50614600  0.79254600  0.90370300  1
  Mn  Mn8  1  0.75578700  0.71384100  0.59153000  1
  Mn  Mn9  1  0.25716400  0.71229200  0.59746800  1
  Mn  Mn10  1  0.75600900  0.83563900  0.15996200  1
  Mn  Mn11  1  0.25334800  0.82654300  0.15339700  1
  Mn  Mn12  1  0.75334800  0.17345700  0.84660300  1
  Mn  Mn13  1  0.25600900  0.16436100  0.84003800  1
  Mn  Mn14  1  0.75716400  0.28770800  0.40253200  1
  Mn  Mn15  1  0.25578700  0.28615900  0.40847000  1
  O  O0  1  0.76023400  0.93140500  0.86875700  1
  O  O1  1  0.25542700  0.94095400  0.87494000  1
  O  O2  1  0.75638300  0.71368200  0.43047800  1
  O  O3  1  0.27031800  0.72458600  0.43406700  1
  O  O4  1  0.77031800  0.27541400  0.56593300  1
  O  O5  1  0.25638300  0.28631800  0.56952200  1
  O  O6  1  0.75542700  0.05904600  0.12506000  1
  O  O7  1  0.26023400  0.06859500  0.13124300  1
  O  O8  1  0.00586200  0.42285900  0.36574000  1
  O  O9  1  0.50687200  0.43209200  0.36712400  1
  O  O10  1  0.01444900  0.22702800  0.93206600  1
  O  O11  1  0.49099100  0.22945000  0.93354800  1
  O  O12  1  0.51444900  0.77297200  0.06793400  1
  O  O13  1  0.99099100  0.77055000  0.06645200  1
  O  O14  1  0.50586200  0.57714100  0.63426000  1
  O  O15  1  0.00687200  0.56790800  0.63287600  1
  O  O16  1  0.50791000  0.87338700  0.60010100  1
  O  O17  1  0.00589900  0.87075100  0.60037800  1
  O  O18  1  0.00797400  0.87734000  0.25338300  1
  O  O19  1  0.50858000  0.86935100  0.26399500  1
  O  O20  1  0.00791000  0.12661300  0.39989900  1
  O  O21  1  0.50589900  0.12924900  0.39962200  1
  O  O22  1  0.50797400  0.12266000  0.74661700  1
  O  O23  1  0.00858000  0.13064900  0.73600500  1
  O  O24  1  0.75778600  0.36221000  0.11226400  1
  O  O25  1  0.25569300  0.36115200  0.10787600  1
  O  O26  1  0.75795600  0.38208600  0.75374500  1
  O  O27  1  0.25312400  0.37171300  0.76663500  1
  O  O28  1  0.75569300  0.63884800  0.89212400  1
  O  O29  1  0.25778600  0.63779000  0.88773600  1
  O  O30  1  0.75312400  0.62828700  0.23336500  1
  O  O31  1  0.25795600  0.61791400  0.24625500  1
loop_
_geom_bond_atom_site_label_1
_geom_bond_atom_site_label_2
_geom_bond_distance
_geom_bond_site_symmetry_2
Li0 O25 1.991064 1_556
Li0 O29 2.056188 1_555
Li0 O11 2.175059 1_555
Li0 O10 2.225087 1_555
Li0 O27 2.549836 1_555
Li1 O31 2.007084 1_555
Li1 O25 2.058039 1_555
Li1 O30 2.106679 1_555
Li1 O24 2.117760 1_555
Li1 O9 2.193465 1_555
Li2 O31 2.018891 1_555
Li2 O25 2.061641 1_555
Li2 O24 2.113844 1_455
Li2 O30 2.134149 1_455
Li2 O8 2.161281 1_555
Li3 O21 2.094159 1_565
Li3 O16 2.128387 1_555
Li3 O3 2.151393 1_555
Li3 O20 2.382508 1_565
Li3 O17 2.438415 1_555
Li4 O22 2.027021 1_565
Li4 O0 2.041181 1_555
Li4 O23 2.095362 1_665
Li4 O16 2.199733 1_555
Li4 O17 2.242761 1_655
Li5 O23 2.027951 1_565
Li5 O22 2.033364 1_565
Li5 O16 2.075768 1_555
Li5 O17 2.108851 1_555
Li5 O1 2.558329 1_555
Li6 O28 1.991064 1_554
Li6 O24 2.056188 1_555
Li6 O13 2.175059 1_555
Li6 O12 2.225087 1_555
Li6 O30 2.549836 1_555
Li7 O26 2.007084 1_555
Li7 O28 2.058039 1_555
Li7 O27 2.106679 1_655
Li7 O29 2.117760 1_655
Li7 O15 2.193465 1_655
Li8 O26 2.018891 1_555
Li8 O28 2.061641 1_555
Li8 O29 2.113844 1_555
Li8 O27 2.134149 1_555
Li8 O14 2.161281 1_555
Li9 O19 2.027951 1_545
Li9 O18 2.033364 1_645
Li9 O20 2.075768 1_655
Li9 O21 2.108851 1_555
Li9 O6 2.558329 1_555
Li10 O18 2.027021 1_545
Li10 O7 2.041181 1_555
Li10 O19 2.095362 1_545
Li10 O20 2.199733 1_555
Li10 O21 2.242761 1_555
Li11 O17 2.094159 1_645
Li11 O20 2.128387 1_655
Li11 O4 2.151393 1_555
Li11 O16 2.382508 1_545
Li11 O21 2.438415 1_555
Mn0 O7 1.909492 1_555
Mn0 O6 1.950964 1_555
Mn0 O25 1.971137 1_555
Mn0 O24 1.978464 1_555
Mn0 O11 2.111727 1_554
Mn1 O7 1.930192 1_555
Mn1 O6 1.954109 1_455
Mn1 O25 1.968788 1_555
Mn1 O24 1.977460 1_455
Mn1 O10 2.135524 1_554
Mn2 O5 1.906950 1_555
Mn2 O26 1.955284 1_555
Mn2 O4 1.974056 1_555
Mn2 O27 2.102262 1_555
Mn2 O14 2.103416 1_555
Mn2 O22 2.151237 1_555
Mn3 O5 1.908026 1_555
Mn3 O4 1.921324 1_455
Mn3 O26 1.937788 1_455
Mn3 O23 1.993825 1_555
Mn3 O27 2.009257 1_555
Mn3 O15 2.037380 1_555
Mn4 O2 1.906950 1_455
Mn4 O31 1.955284 1_555
Mn4 O3 1.974056 1_555
Mn4 O30 2.102262 1_455
Mn4 O8 2.103416 1_555
Mn4 O18 2.151237 1_555
Mn5 O2 1.908026 1_555
Mn5 O3 1.921324 1_555
Mn5 O31 1.937788 1_555
Mn5 O19 1.993825 1_555
Mn5 O30 2.009257 1_555
Mn5 O9 2.037380 1_555
Mn6 O0 1.909492 1_455
Mn6 O1 1.950964 1_555
Mn6 O28 1.971137 1_455
Mn6 O29 1.978464 1_555
Mn6 O13 2.111727 1_456
Mn7 O0 1.930192 1_555
Mn7 O1 1.954109 1_555
Mn7 O28 1.968788 1_555
Mn7 O29 1.977460 1_555
Mn7 O12 2.135524 1_556
Mn8 O14 1.924131 1_555
Mn8 O15 1.974181 1_655
Mn8 O17 1.986692 1_655
Mn8 O16 1.993181 1_555
Mn8 O2 2.095956 1_555
Mn9 O14 1.892294 1_555
Mn9 O15 1.945289 1_555
Mn9 O17 1.994985 1_555
Mn9 O16 2.008651 1_555
Mn9 O3 2.124789 1_555
Mn10 O13 1.919206 1_555
Mn10 O12 1.926671 1_555
Mn10 O18 1.932679 1_655
Mn10 O6 1.975229 1_565
Mn10 O19 1.991367 1_555
Mn10 O30 1.998383 1_555
Mn11 O12 1.934343 1_555
Mn11 O13 1.957068 1_455
Mn11 O18 1.980178 1_555
Mn11 O19 2.097664 1_555
Mn11 O7 2.113782 1_565
Mn11 O31 2.128866 1_555
Mn12 O10 1.934343 1_655
Mn12 O11 1.957068 1_555
Mn12 O22 1.980178 1_555
Mn12 O23 2.097664 1_655
Mn12 O0 2.113782 1_545
Mn12 O26 2.128866 1_555
Mn13 O11 1.919206 1_555
Mn13 O10 1.926671 1_555
Mn13 O22 1.932679 1_555
Mn13 O1 1.975229 1_545
Mn13 O23 1.991367 1_555
Mn13 O27 1.998383 1_555
Mn14 O8 1.892294 1_655
Mn14 O9 1.945289 1_555
Mn14 O21 1.994985 1_555
Mn14 O20 2.008651 1_655
Mn14 O4 2.124789 1_555
Mn15 O8 1.924131 1_555
Mn15 O9 1.974181 1_555
Mn15 O21 1.986692 1_555
Mn15 O20 1.993181 1_555
Mn15 O5 2.095956 1_555
