# generated using pymatgen
data_Rb2U3MnO11
_symmetry_space_group_name_H-M   'P 1'
_cell_length_a   13.42389133
_cell_length_b   13.42389133
_cell_length_c   13.42389112
_cell_angle_alpha   29.76553503
_cell_angle_beta   29.76553503
_cell_angle_gamma   29.76553633
_symmetry_Int_Tables_number   1
_chemical_formula_structural   Rb2U3MnO11
_chemical_formula_sum   'Rb4 U6 Mn2 O22'
_cell_volume   527.91749642
_cell_formula_units_Z   2
loop_
 _symmetry_equiv_pos_site_id
 _symmetry_equiv_pos_as_xyz
  1  'x, y, z'
loop_
 _atom_site_type_symbol
 _atom_site_label
 _atom_site_symmetry_multiplicity
 _atom_site_fract_x
 _atom_site_fract_y
 _atom_site_fract_z
 _atom_site_occupancy
  Rb  Rb0  1  0.82698400  0.82698400  0.82698400  1
  Rb  Rb1  1  0.32698400  0.32698400  0.32698400  1
  Rb  Rb2  1  0.17301600  0.17301600  0.17301600  1
  Rb  Rb3  1  0.67301600  0.67301600  0.67301600  1
  U  U0  1  0.38362200  0.11637800  0.75000000  1
  U  U1  1  0.75000000  0.38362200  0.11637800  1
  U  U2  1  0.11637800  0.75000000  0.38362200  1
  U  U3  1  0.25000000  0.61637800  0.88362200  1
  U  U4  1  0.88362200  0.25000000  0.61637800  1
  U  U5  1  0.61637800  0.88362200  0.25000000  1
  Mn  Mn0  1  0.00000000  0.00000000  0.00000000  1
  Mn  Mn1  1  0.50000000  0.50000000  0.50000000  1
  O  O0  1  0.71571000  0.94209000  0.24020100  1
  O  O1  1  0.24020100  0.71571000  0.94209000  1
  O  O2  1  0.94209000  0.24020100  0.71571000  1
  O  O3  1  0.74020100  0.44209000  0.21571000  1
  O  O4  1  0.21571000  0.74020100  0.44209000  1
  O  O5  1  0.44209000  0.21571000  0.74020100  1
  O  O6  1  0.28429000  0.05791000  0.75979900  1
  O  O7  1  0.75979900  0.28429000  0.05791000  1
  O  O8  1  0.05791000  0.75979900  0.28429000  1
  O  O9  1  0.25979900  0.55791000  0.78429000  1
  O  O10  1  0.78429000  0.25979900  0.55791000  1
  O  O11  1  0.55791000  0.78429000  0.25979900  1
  O  O12  1  0.00142300  0.49857700  0.75000000  1
  O  O13  1  0.75000000  0.00142300  0.49857700  1
  O  O14  1  0.49857700  0.75000000  0.00142300  1
  O  O15  1  0.25000000  0.99857700  0.50142300  1
  O  O16  1  0.50142300  0.25000000  0.99857700  1
  O  O17  1  0.99857700  0.50142300  0.25000000  1
  O  O18  1  0.90524700  0.90524700  0.90524700  1
  O  O19  1  0.40524700  0.40524700  0.40524700  1
  O  O20  1  0.09475300  0.09475300  0.09475300  1
  O  O21  1  0.59475300  0.59475300  0.59475300  1
loop_
_geom_bond_atom_site_label_1
_geom_bond_atom_site_label_2
_geom_bond_distance
_geom_bond_site_symmetry_2
Mn0 O8 2.236156 1_545
Mn0 O2 2.236156 1_454
Mn0 O6 2.236156 1_554
Mn0 O0 2.236156 1_445
Mn0 O7 2.236156 1_455
Mn0 O1 2.236156 1_544
Mn1 O3 2.236156 1_555
Mn1 O9 2.236156 1_555
Mn1 O5 2.236156 1_555
Mn1 O11 2.236156 1_555
Mn1 O4 2.236156 1_555
Mn1 O10 2.236156 1_555
O0 U5 1.935082 1_555
O0 Rb1 2.893110 1_565
O0 Rb3 2.917260 1_555
O1 U3 1.935082 1_555
O1 Rb1 2.893110 1_556
O1 Rb3 2.917260 1_555
O2 U4 1.935082 1_555
O2 Rb1 2.893110 1_655
O2 Rb3 2.917260 1_555
O3 U1 1.935082 1_555
O3 Rb0 2.893110 1_554
O3 Rb2 2.917260 1_655
O4 U2 1.935082 1_555
O4 Rb0 2.893110 1_455
O4 Rb2 2.917260 1_565
O5 U0 1.935082 1_555
O5 Rb0 2.893110 1_545
O5 Rb2 2.917260 1_556
O6 U0 1.935082 1_555
O6 Rb3 2.893110 1_545
O6 Rb1 2.917260 1_555
O7 U1 1.935082 1_555
O7 Rb3 2.893110 1_554
O7 Rb1 2.917260 1_555
O8 U2 1.935082 1_555
O8 Rb3 2.893110 1_455
O8 Rb1 2.917260 1_555
O9 U3 1.935082 1_555
O9 Rb2 2.893110 1_556
O9 Rb0 2.917260 1_455
O10 U4 1.935082 1_555
O10 Rb2 2.893110 1_655
O10 Rb0 2.917260 1_545
O11 U5 1.935082 1_555
O11 Rb2 2.893110 1_565
O11 Rb0 2.917260 1_554
O12 U2 2.237957 1_555
O12 U1 2.237957 1_456
O12 U0 2.635507 1_555
O12 Rb3 3.431046 1_455
O12 Rb0 3.431046 1_455
O13 U0 2.237957 1_555
O13 U2 2.237957 1_645
O13 U1 2.635507 1_555
O13 Rb0 3.431046 1_545
O13 Rb3 3.431046 1_545
O14 U0 2.237957 1_564
O14 U1 2.237957 1_555
O14 U2 2.635507 1_555
O14 Rb3 3.431046 1_554
O14 Rb0 3.431046 1_554
O15 U5 2.237957 1_555
O15 U4 2.237957 1_465
O15 U3 2.635507 1_555
O15 Rb2 3.431046 1_565
O15 Rb1 3.431046 1_565
O16 U5 2.237957 1_546
O16 U3 2.237957 1_555
O16 U4 2.635507 1_555
O16 Rb1 3.431046 1_556
O16 Rb2 3.431046 1_556
O17 U4 2.237957 1_555
O17 U3 2.237957 1_654
O17 U5 2.635507 1_555
O17 Rb1 3.431046 1_655
O17 Rb2 3.431046 1_655
O18 U5 2.237047 1_556
O18 U4 2.237047 1_565
O18 U3 2.237047 1_655
O18 Rb0 3.009981 1_555
O19 U0 2.237047 1_555
O19 U1 2.237047 1_555
O19 U2 2.237047 1_555
O19 Rb1 3.009981 1_555
O20 U0 2.237047 1_554
O20 U2 2.237047 1_545
O20 U1 2.237047 1_455
O20 Rb2 3.009981 1_555
O21 U5 2.237047 1_555
O21 U3 2.237047 1_555
O21 U4 2.237047 1_555
O21 Rb3 3.009981 1_555
