# generated using pymatgen
data_Mg2CrIrO6
_symmetry_space_group_name_H-M   'P 1'
_cell_length_a   5.30098200
_cell_length_b   5.14074000
_cell_length_c   9.12906954
_cell_angle_alpha   55.60881589
_cell_angle_beta   90.00000000
_cell_angle_gamma   90.00000000
_symmetry_Int_Tables_number   1
_chemical_formula_structural   Mg2CrIrO6
_chemical_formula_sum   'Mg4 Cr2 Ir2 O12'
_cell_volume   205.29006087
_cell_formula_units_Z   2
loop_
 _symmetry_equiv_pos_site_id
 _symmetry_equiv_pos_as_xyz
  1  'x, y, z'
loop_
 _atom_site_type_symbol
 _atom_site_label
 _atom_site_symmetry_multiplicity
 _atom_site_fract_x
 _atom_site_fract_y
 _atom_site_fract_z
 _atom_site_occupancy
  Mg  Mg0  1  0.94231300  0.24277100  0.75079800  1
  Mg  Mg1  1  0.44231300  0.75722900  0.74920200  1
  Mg  Mg2  1  0.55768700  0.24277100  0.25079800  1
  Mg  Mg3  1  0.05768700  0.75722900  0.24920200  1
  Cr  Cr0  1  0.50000000  0.00000000  0.00000000  1
  Cr  Cr1  1  0.00000000  0.00000000  0.50000000  1
  Ir  Ir0  1  0.50000000  0.50000000  0.50000000  1
  Ir  Ir1  1  0.00000000  0.50000000  0.00000000  1
  O  O0  1  0.42897900  0.61698500  0.25092400  1
  O  O1  1  0.18185300  0.88786300  0.93225300  1
  O  O2  1  0.18314000  0.25339700  0.57008300  1
  O  O3  1  0.68314000  0.74660300  0.92991700  1
  O  O4  1  0.68185300  0.11213700  0.56774700  1
  O  O5  1  0.92897900  0.38301500  0.24907600  1
  O  O6  1  0.07102100  0.61698500  0.75092400  1
  O  O7  1  0.31814700  0.88786300  0.43225300  1
  O  O8  1  0.31686000  0.25339700  0.07008300  1
  O  O9  1  0.81814700  0.11213700  0.06774700  1
  O  O10  1  0.81686000  0.74660300  0.42991700  1
  O  O11  1  0.57102100  0.38301500  0.74907600  1
loop_
_geom_bond_atom_site_label_1
_geom_bond_atom_site_label_2
_geom_bond_distance
_geom_bond_site_symmetry_2
Mg0 O6 2.041756 1_655
Mg0 O2 2.062194 1_655
Mg0 O1 2.066631 1_645
Mg0 O11 2.093104 1_555
Mg0 O3 2.521029 1_545
Mg0 O4 2.533295 1_555
Mg0 O9 2.657286 1_556
Mg0 O10 2.675941 1_555
Mg1 O11 2.041756 1_555
Mg1 O3 2.062194 1_555
Mg1 O4 2.066631 1_565
Mg1 O6 2.093104 1_555
Mg1 O2 2.521029 1_565
Mg1 O1 2.533295 1_555
Mg1 O7 2.657286 1_555
Mg1 O8 2.675941 1_556
Mg2 O0 2.041756 1_555
Mg2 O8 2.062194 1_555
Mg2 O7 2.066631 1_545
Mg2 O5 2.093104 1_555
Mg2 O10 2.521029 1_545
Mg2 O9 2.533295 1_555
Mg2 O4 2.657286 1_555
Mg2 O3 2.675941 1_554
Mg3 O5 2.041756 1_455
Mg3 O10 2.062194 1_455
Mg3 O9 2.066631 1_465
Mg3 O0 2.093104 1_555
Mg3 O8 2.521029 1_565
Mg3 O7 2.533295 1_555
Mg3 O1 2.657286 1_554
Mg3 O2 2.675941 1_555
Cr0 O9 1.990435 1_555
Cr0 O1 1.990435 1_544
Cr0 O8 1.997555 1_555
Cr0 O3 1.997555 1_544
Cr0 O11 2.042227 1_554
Cr0 O0 2.042227 1_545
Cr1 O7 1.990435 1_545
Cr1 O4 1.990435 1_455
Cr1 O10 1.997555 1_445
Cr1 O2 1.997555 1_555
Cr1 O6 2.042227 1_545
Cr1 O5 2.042227 1_455
Ir0 O4 1.973415 1_555
Ir0 O7 1.973415 1_555
Ir0 O2 1.980273 1_555
Ir0 O10 1.980273 1_555
Ir0 O11 2.031977 1_555
Ir0 O0 2.031977 1_555
Ir1 O1 1.973415 1_554
Ir1 O9 1.973415 1_455
Ir1 O3 1.980273 1_454
Ir1 O8 1.980273 1_555
Ir1 O5 2.031977 1_455
Ir1 O6 2.031977 1_554
