# generated using pymatgen
data_LiFePO4
_symmetry_space_group_name_H-M   'P 1'
_cell_length_a   4.79676200
_cell_length_b   7.44643800
_cell_length_c   17.97976489
_cell_angle_alpha   88.99499348
_cell_angle_beta   90.00000000
_cell_angle_gamma   90.00000000
_symmetry_Int_Tables_number   1
_chemical_formula_structural   LiFePO4
_chemical_formula_sum   'Li8 Fe8 P8 O32'
_cell_volume   642.11666710
_cell_formula_units_Z   8
loop_
 _symmetry_equiv_pos_site_id
 _symmetry_equiv_pos_as_xyz
  1  'x, y, z'
loop_
 _atom_site_type_symbol
 _atom_site_label
 _atom_site_symmetry_multiplicity
 _atom_site_fract_x
 _atom_site_fract_y
 _atom_site_fract_z
 _atom_site_occupancy
  Li  Li0  1  0.77661000  0.14131300  0.77265700  1
  Li  Li1  1  0.72339000  0.14131300  0.27265700  1
  Li  Li2  1  0.22393300  0.33777900  0.51763700  1
  Li  Li3  1  0.27606700  0.33777900  0.01763700  1
  Li  Li4  1  0.72393300  0.66222100  0.98236300  1
  Li  Li5  1  0.77606700  0.66222100  0.48236300  1
  Li  Li6  1  0.27661000  0.85868700  0.72734300  1
  Li  Li7  1  0.22339000  0.85868700  0.22734300  1
  Fe  Fe0  1  0.74337400  0.03279400  0.60020100  1
  Fe  Fe1  1  0.75662600  0.03279400  0.10020100  1
  Fe  Fe2  1  0.33260700  0.49251500  0.83142000  1
  Fe  Fe3  1  0.16739300  0.49251500  0.33142000  1
  Fe  Fe4  1  0.83260700  0.50748500  0.66858000  1
  Fe  Fe5  1  0.66739300  0.50748500  0.16858000  1
  Fe  Fe6  1  0.24337400  0.96720600  0.89979900  1
  Fe  Fe7  1  0.25662600  0.96720600  0.39979900  1
  P  P0  1  0.34521500  0.24358200  0.67887300  1
  P  P1  1  0.15478500  0.24358200  0.17887300  1
  P  P2  1  0.70511000  0.24619700  0.93106300  1
  P  P3  1  0.79489000  0.24619700  0.43106300  1
  P  P4  1  0.20511000  0.75380300  0.56893700  1
  P  P5  1  0.29489000  0.75380300  0.06893700  1
  P  P6  1  0.84521500  0.75641800  0.82112700  1
  P  P7  1  0.65478500  0.75641800  0.32112700  1
  O  O0  1  0.47539000  0.07070400  0.71114900  1
  O  O1  1  0.02461000  0.07070400  0.21114900  1
  O  O2  1  0.60571100  0.17900400  0.00812900  1
  O  O3  1  0.56548100  0.13488900  0.86848800  1
  O  O4  1  0.45431200  0.25325200  0.59775700  1
  O  O5  1  0.02264900  0.25096400  0.68557100  1
  O  O6  1  0.89428900  0.17900400  0.50812900  1
  O  O7  1  0.93451900  0.13488900  0.36848800  1
  O  O8  1  0.04568800  0.25325200  0.09775700  1
  O  O9  1  0.47735100  0.25096400  0.18557100  1
  O  O10  1  0.02773400  0.24024700  0.92237900  1
  O  O11  1  0.47226600  0.24024700  0.42237900  1
  O  O12  1  0.47045500  0.40992800  0.72209600  1
  O  O13  1  0.02954500  0.40992800  0.22209600  1
  O  O14  1  0.58678100  0.44274500  0.92061400  1
  O  O15  1  0.91321900  0.44274500  0.42061400  1
  O  O16  1  0.08678100  0.55725500  0.57938600  1
  O  O17  1  0.41321900  0.55725500  0.07938600  1
  O  O18  1  0.97045500  0.59007200  0.77790400  1
  O  O19  1  0.52954500  0.59007200  0.27790400  1
  O  O20  1  0.52773400  0.75975300  0.57762100  1
  O  O21  1  0.97226600  0.75975300  0.07762100  1
  O  O22  1  0.52264900  0.74903600  0.81442900  1
  O  O23  1  0.95431200  0.74674800  0.90224300  1
  O  O24  1  0.06548100  0.86511100  0.63151200  1
  O  O25  1  0.10571100  0.82099600  0.49187100  1
  O  O26  1  0.97735100  0.74903600  0.31442900  1
  O  O27  1  0.54568800  0.74674800  0.40224300  1
  O  O28  1  0.43451900  0.86511100  0.13151200  1
  O  O29  1  0.39428900  0.82099600  0.99187100  1
  O  O30  1  0.97539000  0.92929600  0.78885100  1
  O  O31  1  0.52461000  0.92929600  0.28885100  1
loop_
_geom_bond_atom_site_label_1
_geom_bond_atom_site_label_2
_geom_bond_distance
_geom_bond_site_symmetry_2
Li0 O30 1.862883 1_545
Li0 O0 1.899353 1_555
Li0 O3 1.998455 1_555
Li0 O5 2.113380 1_655
Li1 O31 1.862883 1_545
Li1 O1 1.899353 1_655
Li1 O7 1.998455 1_555
Li1 O9 2.113380 1_555
Li2 O4 1.913298 1_555
Li2 O6 1.983541 1_455
Li2 O16 2.097633 1_555
Li2 O11 2.218882 1_555
Li2 O15 2.414035 1_455
Li3 O8 1.913298 1_555
Li3 O2 1.983541 1_555
Li3 O17 2.097633 1_555
Li3 O10 2.218882 1_554
Li3 O14 2.414035 1_554
Li4 O23 1.913298 1_555
Li4 O29 1.983541 1_555
Li4 O14 2.097633 1_555
Li4 O21 2.218882 1_556
Li4 O17 2.414035 1_556
Li5 O27 1.913298 1_555
Li5 O25 1.983541 1_655
Li5 O15 2.097633 1_555
Li5 O20 2.218882 1_555
Li5 O16 2.414035 1_655
Li6 O0 1.862883 1_565
Li6 O30 1.899353 1_455
Li6 O24 1.998455 1_555
Li6 O22 2.113380 1_555
Li7 O1 1.862883 1_565
Li7 O31 1.899353 1_555
Li7 O28 1.998455 1_555
Li7 O26 2.113380 1_455
Fe0 O24 2.058790 1_645
Fe0 O6 2.094429 1_555
Fe0 O4 2.148695 1_555
Fe0 O20 2.323261 1_545
Fe0 O0 2.393981 1_555
Fe0 O5 2.622471 1_655
Fe1 O28 2.058790 1_545
Fe1 O2 2.094429 1_555
Fe1 O8 2.148695 1_655
Fe1 O21 2.323261 1_545
Fe1 O1 2.393981 1_655
Fe1 O9 2.622471 1_555
Fe2 O14 2.043231 1_555
Fe2 O18 2.108735 1_455
Fe2 O22 2.133679 1_555
Fe2 O12 2.172897 1_555
Fe3 O15 2.043231 1_455
Fe3 O19 2.108735 1_555
Fe3 O26 2.133679 1_455
Fe3 O13 2.172897 1_555
Fe4 O16 2.043231 1_655
Fe4 O12 2.108735 1_555
Fe4 O5 2.133679 1_655
Fe4 O18 2.172897 1_555
Fe5 O17 2.043231 1_555
Fe5 O13 2.108735 1_655
Fe5 O9 2.133679 1_555
Fe5 O19 2.172897 1_555
Fe6 O3 2.058790 1_565
Fe6 O29 2.094429 1_555
Fe6 O23 2.148695 1_455
Fe6 O10 2.323261 1_565
Fe6 O30 2.393981 1_455
Fe6 O22 2.622471 1_555
Fe7 O7 2.058790 1_465
Fe7 O25 2.094429 1_555
Fe7 O27 2.148695 1_555
Fe7 O11 2.323261 1_565
Fe7 O31 2.393981 1_555
Fe7 O26 2.622471 1_455
O0 P0 1.535469 1_555
O1 P1 1.535469 1_555
O2 P2 1.540560 1_554
O3 P2 1.560161 1_555
O4 P0 1.549975 1_555
O5 P0 1.553000 1_555
O6 P3 1.540560 1_555
O7 P3 1.560161 1_555
O8 P1 1.549975 1_555
O9 P1 1.553000 1_555
O10 P2 1.556116 1_455
O11 P3 1.556116 1_555
O12 P0 1.591525 1_555
O13 P1 1.591525 1_555
O14 P2 1.577938 1_555
O15 P3 1.577938 1_555
O16 P4 1.577938 1_555
O17 P5 1.577938 1_555
O18 P6 1.591525 1_555
O19 P7 1.591525 1_555
O20 P4 1.556116 1_555
O21 P5 1.556116 1_655
O22 P6 1.553000 1_555
O23 P6 1.549975 1_555
O24 P4 1.560161 1_555
O25 P4 1.540560 1_555
O26 P7 1.553000 1_555
O27 P7 1.549975 1_555
O28 P5 1.560161 1_555
O29 P5 1.540560 1_556
O30 P6 1.535469 1_555
O31 P7 1.535469 1_555
