# generated using pymatgen
data_K2Mn2Be3F12
_symmetry_space_group_name_H-M   'P 1'
_cell_length_a   10.31269700
_cell_length_b   10.31269700
_cell_length_c   10.31269700
_cell_angle_alpha   90.00000000
_cell_angle_beta   90.00000000
_cell_angle_gamma   90.00000000
_symmetry_Int_Tables_number   1
_chemical_formula_structural   K2Mn2Be3F12
_chemical_formula_sum   'K8 Mn8 Be12 F48'
_cell_volume   1096.77305774
_cell_formula_units_Z   4
loop_
 _symmetry_equiv_pos_site_id
 _symmetry_equiv_pos_as_xyz
  1  'x, y, z'
loop_
 _atom_site_type_symbol
 _atom_site_label
 _atom_site_symmetry_multiplicity
 _atom_site_fract_x
 _atom_site_fract_y
 _atom_site_fract_z
 _atom_site_occupancy
  K  K0  1  0.19155200  0.30844800  0.69155200  1
  K  K1  1  0.69155200  0.19155200  0.30844800  1
  K  K2  1  0.30844800  0.69155200  0.19155200  1
  K  K3  1  0.80844800  0.80844800  0.80844800  1
  K  K4  1  0.44900400  0.94900400  0.55099600  1
  K  K5  1  0.55099600  0.44900400  0.94900400  1
  K  K6  1  0.94900400  0.55099600  0.44900400  1
  K  K7  1  0.05099600  0.05099600  0.05099600  1
  Mn  Mn0  1  0.33110100  0.33110100  0.33110100  1
  Mn  Mn1  1  0.16889900  0.66889900  0.83110100  1
  Mn  Mn2  1  0.83110100  0.16889900  0.66889900  1
  Mn  Mn3  1  0.66889900  0.83110100  0.16889900  1
  Mn  Mn4  1  0.59279400  0.59279400  0.59279400  1
  Mn  Mn5  1  0.90720600  0.40720600  0.09279400  1
  Mn  Mn6  1  0.09279400  0.90720600  0.40720600  1
  Mn  Mn7  1  0.40720600  0.09279400  0.90720600  1
  Be  Be0  1  0.27901500  0.62503600  0.51418500  1
  Be  Be1  1  0.22098500  0.37496400  0.01418500  1
  Be  Be2  1  0.72098500  0.12503600  0.98581500  1
  Be  Be3  1  0.77901500  0.87496400  0.48581500  1
  Be  Be4  1  0.12503600  0.98581500  0.72098500  1
  Be  Be5  1  0.48581500  0.77901500  0.87496400  1
  Be  Be6  1  0.98581500  0.72098500  0.12503600  1
  Be  Be7  1  0.37496400  0.01418500  0.22098500  1
  Be  Be8  1  0.01418500  0.22098500  0.37496400  1
  Be  Be9  1  0.87496400  0.48581500  0.77901500  1
  Be  Be10  1  0.62503600  0.51418500  0.27901500  1
  Be  Be11  1  0.51418500  0.27901500  0.62503600  1
  F  F0  1  0.45572800  0.18282700  0.72659300  1
  F  F1  1  0.72894300  0.00753100  0.08009900  1
  F  F2  1  0.77105700  0.99246900  0.58009900  1
  F  F3  1  0.00753100  0.08009900  0.72894300  1
  F  F4  1  0.26339100  0.41571900  0.15314100  1
  F  F5  1  0.23660900  0.58428100  0.65314100  1
  F  F6  1  0.65314100  0.23660900  0.58428100  1
  F  F7  1  0.58428100  0.65314100  0.23660900  1
  F  F8  1  0.91571900  0.34685900  0.73660900  1
  F  F9  1  0.15314100  0.26339100  0.41571900  1
  F  F10  1  0.41571900  0.15314100  0.26339100  1
  F  F11  1  0.84685900  0.76339100  0.08428100  1
  F  F12  1  0.34685900  0.73660900  0.91571900  1
  F  F13  1  0.08428100  0.84685900  0.76339100  1
  F  F14  1  0.73660900  0.91571900  0.34685900  1
  F  F15  1  0.76339100  0.08428100  0.84685900  1
  F  F16  1  0.18282700  0.72659300  0.45572800  1
  F  F17  1  0.22894300  0.49246900  0.91990100  1
  F  F18  1  0.72659300  0.45572800  0.18282700  1
  F  F19  1  0.77340700  0.54427200  0.68282700  1
  F  F20  1  0.95572800  0.31717300  0.27340700  1
  F  F21  1  0.27340700  0.95572800  0.31717300  1
  F  F22  1  0.04427200  0.81717300  0.22659300  1
  F  F23  1  0.54427200  0.68282700  0.77340700  1
  F  F24  1  0.22659300  0.04427200  0.81717300  1
  F  F25  1  0.68282700  0.77340700  0.54427200  1
  F  F26  1  0.81717300  0.22659300  0.04427200  1
  F  F27  1  0.31717300  0.27340700  0.95572800  1
  F  F28  1  0.42016600  0.68079400  0.51588300  1
  F  F29  1  0.51588300  0.42016600  0.68079400  1
  F  F30  1  0.68079400  0.51588300  0.42016600  1
  F  F31  1  0.81920600  0.48411700  0.92016600  1
  F  F32  1  0.01588300  0.07983400  0.31920600  1
  F  F33  1  0.31920600  0.01588300  0.07983400  1
  F  F34  1  0.98411700  0.57983400  0.18079400  1
  F  F35  1  0.48411700  0.92016600  0.81920600  1
  F  F36  1  0.18079400  0.98411700  0.57983400  1
  F  F37  1  0.92016600  0.81920600  0.48411700  1
  F  F38  1  0.57983400  0.18079400  0.98411700  1
  F  F39  1  0.07983400  0.31920600  0.01588300  1
  F  F40  1  0.27105700  0.50753100  0.41990100  1
  F  F41  1  0.41990100  0.27105700  0.50753100  1
  F  F42  1  0.50753100  0.41990100  0.27105700  1
  F  F43  1  0.99246900  0.58009900  0.77105700  1
  F  F44  1  0.91990100  0.22894300  0.49246900  1
  F  F45  1  0.58009900  0.77105700  0.99246900  1
  F  F46  1  0.08009900  0.72894300  0.00753100  1
  F  F47  1  0.49246900  0.91990100  0.22894300  1
loop_
_geom_bond_atom_site_label_1
_geom_bond_atom_site_label_2
_geom_bond_distance
_geom_bond_site_symmetry_2
Be0 F40 1.555824 1_555
Be0 F5 1.556090 1_555
Be0 F16 1.563426 1_555
Be0 F28 1.565203 1_555
Be1 F17 1.555824 1_554
Be1 F4 1.556090 1_555
Be1 F27 1.563426 1_554
Be1 F39 1.565203 1_555
Be2 F1 1.555824 1_556
Be2 F15 1.556090 1_555
Be2 F26 1.563426 1_556
Be2 F38 1.565203 1_555
Be3 F2 1.555824 1_555
Be3 F14 1.556090 1_555
Be3 F25 1.563426 1_555
Be3 F37 1.565203 1_555
Be4 F3 1.555824 1_565
Be4 F13 1.556090 1_555
Be4 F24 1.563426 1_565
Be4 F36 1.565203 1_555
Be5 F45 1.555824 1_555
Be5 F12 1.556090 1_555
Be5 F23 1.563426 1_555
Be5 F35 1.565203 1_555
Be6 F46 1.555824 1_655
Be6 F11 1.556090 1_555
Be6 F22 1.563426 1_655
Be6 F34 1.565203 1_555
Be7 F47 1.555824 1_545
Be7 F10 1.556090 1_555
Be7 F21 1.563426 1_545
Be7 F33 1.565203 1_555
Be8 F44 1.555824 1_455
Be8 F9 1.556090 1_555
Be8 F20 1.563426 1_455
Be8 F32 1.565203 1_555
Be9 F43 1.555824 1_555
Be9 F8 1.556090 1_555
Be9 F19 1.563426 1_555
Be9 F31 1.565203 1_555
Be10 F42 1.555824 1_555
Be10 F7 1.556090 1_555
Be10 F18 1.563426 1_555
Be10 F30 1.565203 1_555
Be11 F41 1.555824 1_555
Be11 F6 1.556090 1_555
Be11 F0 1.563426 1_555
Be11 F29 1.565203 1_555
F0 Mn7 2.140509 1_555
F0 K4 3.016402 1_545
F0 K0 3.038266 1_555
F1 Mn3 2.128973 1_545
F1 K1 3.048882 1_555
F2 Mn2 2.128973 1_565
F2 K3 3.048882 1_555
F3 Mn2 2.128973 1_455
F3 K0 3.048882 1_555
F4 Mn0 2.148771 1_555
F4 K2 2.909376 1_555
F5 Mn1 2.148771 1_555
F5 K0 2.909376 1_555
F6 Mn2 2.148771 1_555
F6 K1 2.909376 1_555
F7 Mn3 2.148771 1_555
F7 K2 2.909376 1_555
F8 Mn2 2.148771 1_555
F8 K0 2.909376 1_655
F9 Mn0 2.148771 1_555
F9 K0 2.909376 1_555
F10 Mn0 2.148771 1_555
F10 K1 2.909376 1_555
F11 Mn3 2.148771 1_555
F11 K3 2.909376 1_554
F12 Mn1 2.148771 1_555
F12 K2 2.909376 1_556
F13 Mn1 2.148771 1_555
F13 K3 2.909376 1_455
F14 Mn3 2.148771 1_555
F14 K1 2.909376 1_565
F15 Mn2 2.148771 1_555
F15 K3 2.909376 1_545
F16 Mn6 2.140509 1_555
F16 K6 3.016402 1_455
F16 K2 3.038266 1_555
F17 Mn1 2.128973 1_555
F17 K0 3.048882 1_555
F18 Mn5 2.140509 1_555
F18 K5 3.016402 1_554
F18 K1 3.038266 1_555
F19 Mn4 2.140509 1_555
F19 K6 3.016402 1_555
F19 K3 3.038266 1_555
F20 Mn5 2.140509 1_555
F20 K6 3.016402 1_555
F20 K1 3.038266 1_555
F21 Mn6 2.140509 1_555
F21 K4 3.016402 1_555
F21 K2 3.038266 1_555
F22 Mn6 2.140509 1_555
F22 K7 3.016402 1_565
F22 K2 3.038266 1_555
F23 Mn4 2.140509 1_555
F23 K5 3.016402 1_555
F23 K3 3.038266 1_555
F24 Mn7 2.140509 1_555
F24 K7 3.016402 1_556
F24 K0 3.038266 1_555
F25 Mn4 2.140509 1_555
F25 K4 3.016402 1_555
F25 K3 3.038266 1_555
F26 Mn5 2.140509 1_555
F26 K7 3.016402 1_655
F26 K1 3.038266 1_555
F27 Mn7 2.140509 1_555
F27 K5 3.016402 1_555
F27 K0 3.038266 1_555
F28 Mn4 2.149888 1_555
F28 K4 2.805379 1_555
F29 Mn4 2.149888 1_555
F29 K5 2.805379 1_555
F30 Mn4 2.149888 1_555
F30 K6 2.805379 1_555
F31 Mn5 2.149888 1_556
F31 K5 2.805379 1_555
F32 Mn6 2.149888 1_545
F32 K7 2.805379 1_555
F33 Mn7 2.149888 1_554
F33 K7 2.805379 1_555
F34 Mn5 2.149888 1_555
F34 K6 2.805379 1_555
F35 Mn7 2.149888 1_565
F35 K4 2.805379 1_555
F36 Mn6 2.149888 1_555
F36 K4 2.805379 1_555
F37 Mn6 2.149888 1_655
F37 K6 2.805379 1_555
F38 Mn7 2.149888 1_555
F38 K5 2.805379 1_555
F39 Mn5 2.149888 1_455
F39 K7 2.805379 1_555
F40 Mn0 2.128973 1_555
F40 K2 3.048882 1_555
F41 Mn0 2.128973 1_555
F41 K0 3.048882 1_555
F42 Mn0 2.128973 1_555
F42 K1 3.048882 1_555
F43 Mn1 2.128973 1_655
F43 K3 3.048882 1_555
F44 Mn2 2.128973 1_555
F44 K1 3.048882 1_555
F45 Mn3 2.128973 1_556
F45 K3 3.048882 1_555
F46 Mn1 2.128973 1_554
F46 K2 3.048882 1_555
F47 Mn3 2.128973 1_555
F47 K2 3.048882 1_555
