# generated using pymatgen
data_Al2O3
_symmetry_space_group_name_H-M   'P 1'
_cell_length_a   10.14585779
_cell_length_b   10.99536699
_cell_length_c   10.43612980
_cell_angle_alpha   88.88291195
_cell_angle_beta   89.86006902
_cell_angle_gamma   89.29244227
_symmetry_Int_Tables_number   1
_chemical_formula_structural   Al2O3
_chemical_formula_sum   'Al40 O60'
_cell_volume   1163.91496909
_cell_formula_units_Z   20
loop_
 _symmetry_equiv_pos_site_id
 _symmetry_equiv_pos_as_xyz
  1  'x, y, z'
loop_
 _atom_site_type_symbol
 _atom_site_label
 _atom_site_symmetry_multiplicity
 _atom_site_fract_x
 _atom_site_fract_y
 _atom_site_fract_z
 _atom_site_occupancy
  Al  Al0  1  0.20145700  0.42813600  0.35831200  1
  Al  Al1  1  0.74222400  0.10695200  0.74365300  1
  Al  Al2  1  0.10345900  0.68708400  0.41323100  1
  Al  Al3  1  0.32410900  0.67342900  0.87297200  1
  Al  Al4  1  0.60698500  0.96236700  0.54686800  1
  Al  Al5  1  0.03024400  0.18865800  0.71437000  1
  Al  Al6  1  0.19236000  0.13528700  0.44266800  1
  Al  Al7  1  0.34592600  0.03768800  0.66772100  1
  Al  Al8  1  0.13711700  0.22544000  0.19985800  1
  Al  Al9  1  0.87922500  0.48141400  0.69774200  1
  Al  Al10  1  0.77010600  0.65992700  0.90553400  1
  Al  Al11  1  0.65899600  0.13199400  0.99339800  1
  Al  Al12  1  0.72426100  0.12049800  0.40433700  1
  Al  Al13  1  0.56819100  0.87135900  0.81758500  1
  Al  Al14  1  0.05891700  0.62031700  0.92902800  1
  Al  Al15  1  0.92167000  0.27908400  0.92366400  1
  Al  Al16  1  0.28791600  0.40492700  0.87615000  1
  Al  Al17  1  0.17702600  0.92067300  0.21549500  1
  Al  Al18  1  0.41690600  0.94376700  0.07773200  1
  Al  Al19  1  0.14721000  0.79064900  0.66262800  1
  Al  Al20  1  0.43071400  0.27421200  0.45586500  1
  Al  Al21  1  0.25331300  0.51102500  0.09919300  1
  Al  Al22  1  0.56922800  0.66532800  0.47713200  1
  Al  Al23  1  0.90985400  0.04491300  0.20645800  1
  Al  Al24  1  0.31885000  0.81772100  0.47181900  1
  Al  Al25  1  0.92740700  0.99430300  0.55476200  1
  Al  Al26  1  0.70452300  0.88757800  0.06379300  1
  Al  Al27  1  0.56795700  0.43896100  0.01276600  1
  Al  Al28  1  0.65270200  0.43415300  0.56757800  1
  Al  Al29  1  0.56343200  0.60547200  0.76319200  1
  Al  Al30  1  0.48962600  0.53137100  0.27990100  1
  Al  Al31  1  0.83272600  0.75054300  0.60787400  1
  Al  Al32  1  0.56333700  0.85259500  0.30652800  1
  Al  Al33  1  0.89097200  0.55647100  0.43726600  1
  Al  Al34  1  0.20482400  0.09868000  0.95563800  1
  Al  Al35  1  0.71063200  0.39706700  0.28283900  1
  Al  Al36  1  0.43627000  0.23078200  0.12197300  1
  Al  Al37  1  0.96296900  0.47298800  0.14734400  1
  Al  Al38  1  0.90055500  0.75965200  0.18662700  1
  Al  Al39  1  0.38178000  0.43030500  0.64059200  1
  O  O0  1  0.26168200  0.20788600  0.07358900  1
  O  O1  1  0.45494400  0.74531500  0.79535600  1
  O  O2  1  0.94273400  0.61500900  0.60593100  1
  O  O3  1  0.70182500  0.74267600  0.76469900  1
  O  O4  1  0.88290800  0.39101500  0.03220000  1
  O  O5  1  0.82641700  0.42369700  0.53118800  1
  O  O6  1  0.15286800  0.27286700  0.36343900  1
  O  O7  1  0.95585800  0.33811400  0.75353800  1
  O  O8  1  0.94230500  0.70910800  0.34825400  1
  O  O9  1  0.51715800  0.68203200  0.31689000  1
  O  O10  1  0.58500800  0.28007700  0.02684400  1
  O  O11  1  0.08377100  0.11365800  0.57046100  1
  O  O12  1  0.90397900  0.07405700  0.70301400  1
  O  O13  1  0.38555100  0.52714700  0.79858500  1
  O  O14  1  0.76658600  0.90037400  0.57678300  1
  O  O15  1  0.38603100  0.41256600  0.02356700  1
  O  O16  1  0.15861700  0.72005000  0.81831300  1
  O  O17  1  0.49596800  0.08482000  0.06403100  1
  O  O18  1  0.69761300  0.49045700  0.72309100  1
  O  O19  1  0.12536700  0.40907500  0.17899700  1
  O  O20  1  0.43505800  0.26185800  0.28759900  1
  O  O21  1  0.99585200  0.84523500  0.60177300  1
  O  O22  1  0.20182600  0.80625100  0.34043300  1
  O  O23  1  0.77094800  0.20578200  0.87750900  1
  O  O24  1  0.66796600  0.00563600  0.86036500  1
  O  O25  1  0.49871800  0.82227300  0.48756000  1
  O  O26  1  0.73719800  0.66454900  0.49367100  1
  O  O27  1  0.07874100  0.52845500  0.40889400  1
  O  O28  1  0.25907300  0.91032200  0.60179300  1
  O  O29  1  0.54338700  0.85789200  0.99590300  1
  O  O30  1  0.60890000  0.00053000  0.37961800  1
  O  O31  1  0.32039300  0.51533500  0.25906600  1
  O  O32  1  0.85322200  0.48662100  0.27952900  1
  O  O33  1  0.81808700  0.77393000  0.01260400  1
  O  O34  1  0.00060700  0.63047700  0.09722900  1
  O  O35  1  0.59825300  0.46306200  0.40147100  1
  O  O36  1  0.99801200  0.90078100  0.18081500  1
  O  O37  1  0.50235800  0.57115800  0.59836400  1
  O  O38  1  0.06252700  0.17341800  0.88585200  1
  O  O39  1  0.71818300  0.82295700  0.22293100  1
  O  O40  1  0.28835400  0.65842200  0.03492500  1
  O  O41  1  0.99207600  0.16837800  0.13760300  1
  O  O42  1  0.35134200  0.13618200  0.52218000  1
  O  O43  1  0.72370800  0.24389100  0.30572000  1
  O  O44  1  0.68158100  0.12054700  0.57660900  1
  O  O45  1  0.23983700  0.95930600  0.05433200  1
  O  O46  1  0.41243000  0.89733000  0.23667200  1
  O  O47  1  0.88469700  0.04755400  0.38612200  1
  O  O48  1  0.15345600  0.48307100  0.94231200  1
  O  O49  1  0.17803600  0.06034400  0.29605900  1
  O  O50  1  0.22296400  0.69385200  0.54564000  1
  O  O51  1  0.29441200  0.06350800  0.82091000  1
  O  O52  1  0.60413400  0.47556600  0.16908400  1
  O  O53  1  0.50466400  0.96651700  0.68408800  1
  O  O54  1  0.28003400  0.32827400  0.73576700  1
  O  O55  1  0.91155400  0.58570100  0.84712600  1
  O  O56  1  0.62062700  0.57372300  0.93237600  1
  O  O57  1  0.52349600  0.32664300  0.59647100  1
  O  O58  1  0.32082600  0.40482200  0.48400500  1
  O  O59  1  0.76359100  0.03710000  0.10159800  1
loop_
_geom_bond_atom_site_label_1
_geom_bond_atom_site_label_2
_geom_bond_distance
_geom_bond_site_symmetry_2
Al0 O27 1.741009 1_555
Al0 O6 1.782597 1_555
Al0 O58 1.800040 1_555
Al0 O31 1.852546 1_555
Al0 O19 2.041622 1_555
Al1 O12 1.729730 1_555
Al1 O24 1.804316 1_555
Al1 O23 1.812795 1_555
Al1 O44 1.852778 1_555
Al2 O27 1.766651 1_555
Al2 O8 1.783559 1_455
Al2 O22 1.811037 1_555
Al2 O50 1.843785 1_555
Al3 O40 1.732941 1_556
Al3 O1 1.743171 1_555
Al3 O16 1.838320 1_555
Al3 O13 1.897328 1_555
Al4 O53 1.767675 1_555
Al4 O14 1.775134 1_555
Al4 O30 1.787317 1_565
Al4 O44 1.936190 1_565
Al4 O25 2.011165 1_555
Al5 O11 1.806597 1_555
Al5 O12 1.813674 1_455
Al5 O38 1.824246 1_555
Al5 O7 1.852361 1_455
Al6 O11 1.742398 1_555
Al6 O6 1.752280 1_555
Al6 O49 1.759072 1_555
Al6 O42 1.815959 1_555
Al7 O51 1.708672 1_555
Al7 O53 1.788962 1_545
Al7 O28 1.811665 1_545
Al7 O42 1.849269 1_555
Al8 O41 1.739148 1_455
Al8 O6 1.802762 1_555
Al8 O0 1.834868 1_555
Al8 O19 2.028683 1_555
Al8 O49 2.094743 1_555
Al9 O7 1.833683 1_555
Al9 O2 1.859159 1_555
Al9 O18 1.862579 1_555
Al9 O5 1.940884 1_555
Al9 O55 1.983530 1_555
Al10 O55 1.755957 1_555
Al10 O33 1.768947 1_556
Al10 O56 1.816593 1_555
Al10 O3 1.845335 1_555
Al11 O10 1.824050 1_556
Al11 O23 1.840902 1_555
Al11 O59 1.849991 1_556
Al11 O17 1.883786 1_556
Al11 O24 1.984331 1_555
Al12 O43 1.686835 1_555
Al12 O30 1.797039 1_555
Al12 O47 1.816923 1_555
Al12 O44 1.848247 1_555
Al13 O1 1.829720 1_555
Al13 O53 1.839033 1_555
Al13 O24 1.862454 1_565
Al13 O29 1.880500 1_555
Al13 O3 2.030838 1_555
Al14 O55 1.773084 1_455
Al14 O48 1.781370 1_555
Al14 O34 1.855999 1_556
Al14 O16 1.879645 1_555
Al15 O4 1.729904 1_556
Al15 O23 1.808110 1_555
Al15 O38 1.876717 1_655
Al15 O7 1.910879 1_555
Al16 O54 1.706905 1_555
Al16 O48 1.750907 1_555
Al16 O15 1.838328 1_556
Al16 O13 1.851760 1_555
Al17 O49 1.765295 1_565
Al17 O22 1.809987 1_555
Al17 O45 1.840923 1_555
Al17 O36 1.869145 1_455
Al17 O46 2.409208 1_555
Al18 O46 1.726643 1_555
Al18 O17 1.758065 1_565
Al18 O29 1.806587 1_554
Al18 O45 1.819131 1_555
Al19 O21 1.757541 1_455
Al19 O16 1.790338 1_555
Al19 O50 1.799996 1_555
Al19 O28 1.850250 1_555
Al20 O20 1.764332 1_555
Al20 O58 1.834928 1_555
Al20 O42 1.848610 1_555
Al20 O57 1.850633 1_555
Al21 O40 1.781445 1_555
Al21 O31 1.805162 1_555
Al21 O15 1.897418 1_555
Al21 O19 1.905150 1_555
Al21 O48 1.958789 1_554
Al22 O26 1.713237 1_555
Al22 O37 1.759322 1_555
Al22 O9 1.760506 1_555
Al22 O25 1.864940 1_555
Al23 O41 1.744189 1_555
Al23 O36 1.833995 1_545
Al23 O59 1.849821 1_555
Al23 O47 1.892407 1_555
Al24 O28 1.810799 1_555
Al24 O22 1.823207 1_555
Al24 O25 1.834079 1_555
Al24 O50 1.839323 1_555
Al25 O12 1.806989 1_565
Al25 O21 1.830750 1_555
Al25 O47 1.893489 1_565
Al25 O14 1.952518 1_555
Al25 O11 2.080144 1_665
Al26 O33 1.778181 1_555
Al26 O39 1.798597 1_555
Al26 O59 1.807898 1_565
Al26 O29 1.819109 1_554
Al27 O52 1.729223 1_555
Al27 O10 1.756739 1_555
Al27 O56 1.775928 1_554
Al27 O15 1.874789 1_555
Al28 O57 1.797005 1_555
Al28 O5 1.804781 1_555
Al28 O18 1.809593 1_555
Al28 O35 1.841235 1_555
Al28 O37 2.158472 1_555
Al29 O37 1.876586 1_555
Al29 O56 1.884677 1_555
Al29 O18 1.898191 1_555
Al29 O1 1.914427 1_555
Al29 O13 2.039114 1_555
Al29 O3 2.073894 1_555
Al30 O9 1.734406 1_555
Al30 O31 1.742785 1_555
Al30 O52 1.751351 1_555
Al30 O35 1.826927 1_555
Al31 O14 1.795155 1_555
Al31 O26 1.823761 1_555
Al31 O2 1.851207 1_555
Al31 O21 1.966407 1_555
Al31 O3 2.106336 1_555
Al32 O46 1.757982 1_555
Al32 O39 1.824078 1_555
Al32 O30 1.873506 1_565
Al32 O9 1.939560 1_555
Al32 O25 2.021171 1_555
Al33 O5 1.867010 1_555
Al33 O32 1.872446 1_555
Al33 O27 1.948895 1_655
Al33 O2 1.960985 1_555
Al33 O8 1.977197 1_555
Al33 O26 2.042016 1_555
Al34 O51 1.720165 1_555
Al34 O38 1.800712 1_555
Al34 O0 1.835227 1_556
Al34 O45 1.860730 1_546
Al35 O43 1.700057 1_555
Al35 O32 1.759924 1_555
Al35 O52 1.806966 1_555
Al35 O35 1.834954 1_555
Al36 O20 1.768451 1_555
Al36 O17 1.822162 1_555
Al36 O0 1.864496 1_555
Al36 O10 1.883773 1_555
Al36 O15 2.281881 1_555
Al37 O4 1.726632 1_555
Al37 O32 1.778134 1_555
Al37 O19 1.811847 1_655
Al37 O34 1.843370 1_655
Al38 O8 1.815095 1_555
Al38 O36 1.850211 1_555
Al38 O34 1.982334 1_655
Al38 O33 2.004022 1_555
Al38 O39 2.006684 1_555
Al39 O58 1.777223 1_555
Al39 O54 1.814095 1_555
Al39 O57 1.885544 1_555
Al39 O13 1.980838 1_555
Al39 O37 2.026562 1_555
