# generated using pymatgen
data_Dy6Mg(Sb5O12)2
_symmetry_space_group_name_H-M   'P 1'
_cell_length_a   9.48799991
_cell_length_b   9.48799991
_cell_length_c   9.48799991
_cell_angle_alpha   109.76941220
_cell_angle_beta   109.32233092
_cell_angle_gamma   109.32233092
_symmetry_Int_Tables_number   1
_chemical_formula_structural   Dy6Mg(Sb5O12)2
_chemical_formula_sum   'Dy6 Mg1 Sb10 O24'
_cell_volume   657.49627595
_cell_formula_units_Z   1
loop_
 _symmetry_equiv_pos_site_id
 _symmetry_equiv_pos_as_xyz
  1  'x, y, z'
loop_
 _atom_site_type_symbol
 _atom_site_label
 _atom_site_symmetry_multiplicity
 _atom_site_fract_x
 _atom_site_fract_y
 _atom_site_fract_z
 _atom_site_occupancy
  Dy  Dy0  1  0.73694202  0.23694202  0.50000000  1
  Dy  Dy1  1  0.73694202  0.50000000  0.23694202  1
  Dy  Dy2  1  0.50000000  0.25000000  0.75000000  1
  Dy  Dy3  1  0.50000000  0.75000000  0.25000000  1
  Dy  Dy4  1  0.26305798  0.76305798  0.50000000  1
  Dy  Dy5  1  0.26305798  0.50000000  0.76305798  1
  Mg  Mg0  1  0.00000000  0.50000000  0.50000000  1
  Sb  Sb0  1  0.51181847  0.00503990  0.00503990  1
  Sb  Sb1  1  0.28082048  0.00000000  0.28082048  1
  Sb  Sb2  1  0.28082048  0.28082048  0.00000000  1
  Sb  Sb3  1  0.71917952  0.00000000  0.71917952  1
  Sb  Sb4  1  0.71917952  0.71917952  0.00000000  1
  Sb  Sb5  1  0.00000000  0.50677857  0.99496010  1
  Sb  Sb6  1  0.00000000  0.99496010  0.50677857  1
  Sb  Sb7  1  0.48818153  0.49322143  0.49322143  1
  Sb  Sb8  1  0.00000000  0.24500827  0.24500827  1
  Sb  Sb9  1  0.00000000  0.75499173  0.75499173  1
  O  O0  1  0.48434137  0.00930922  0.21220584  1
  O  O1  1  0.48434137  0.21220584  0.00930922  1
  O  O2  1  0.70500542  0.50085136  0.99427018  1
  O  O3  1  0.70500542  0.99427018  0.50085136  1
  O  O4  1  0.79907040  0.30165970  0.30165970  1
  O  O5  1  0.49341882  0.49914864  0.20415506  1
  O  O6  1  0.49341882  0.20415506  0.49914864  1
  O  O7  1  0.50658118  0.71073524  0.00572982  1
  O  O8  1  0.50658118  0.00572982  0.71073524  1
  O  O9  1  0.73217865  0.54516128  0.54516128  1
  O  O10  1  0.79710338  0.27213453  0.78779416  1
  O  O11  1  0.79710338  0.78779416  0.27213453  1
  O  O12  1  0.20289662  0.47503215  0.99069078  1
  O  O13  1  0.20289662  0.99069078  0.47503215  1
  O  O14  1  0.51565863  0.72786547  0.52496785  1
  O  O15  1  0.51565863  0.52496785  0.72786547  1
  O  O16  1  0.00000000  0.45483872  0.18701637  1
  O  O17  1  0.00000000  0.18701637  0.45483872  1
  O  O18  1  0.29499458  0.79584494  0.28926476  1
  O  O19  1  0.29499458  0.28926476  0.79584494  1
  O  O20  1  0.20092960  0.50258831  0.50258831  1
  O  O21  1  0.00000000  0.69834030  0.49741169  1
  O  O22  1  0.00000000  0.49741169  0.69834030  1
  O  O23  1  0.26782135  0.81298363  0.81298363  1
loop_
_geom_bond_atom_site_label_1
_geom_bond_atom_site_label_2
_geom_bond_distance
_geom_bond_site_symmetry_2
Dy0 O3 2.223905 1_545
Dy0 O6 2.223907 1_555
Dy0 O4 2.354176 1_555
Dy0 O22 2.354181 1_655
Dy0 O0 2.473673 1_555
Dy0 O10 2.473676 1_555
Dy0 O9 2.826709 1_555
Dy0 O17 2.826713 1_655
Dy1 O2 2.223905 1_554
Dy1 O5 2.223907 1_555
Dy1 O4 2.354176 1_555
Dy1 O21 2.354181 1_655
Dy1 O1 2.473673 1_555
Dy1 O11 2.473676 1_555
Dy1 O9 2.826709 1_555
Dy1 O16 2.826713 1_655
Dy2 O19 2.245259 1_555
Dy2 O8 2.245263 1_555
Dy2 O2 2.245263 1_555
Dy2 O6 2.245265 1_555
Dy2 O15 2.647130 1_555
Dy2 O13 2.647134 1_545
Dy2 O1 2.647134 1_556
Dy2 O10 2.647137 1_555
Dy3 O18 2.245259 1_555
Dy3 O7 2.245263 1_555
Dy3 O3 2.245263 1_555
Dy3 O5 2.245265 1_555
Dy3 O14 2.647130 1_555
Dy3 O12 2.647134 1_554
Dy3 O0 2.647134 1_565
Dy3 O11 2.647137 1_555
Dy4 O18 2.223901 1_555
Dy4 O8 2.223905 1_565
Dy4 O21 2.354181 1_555
Dy4 O20 2.354181 1_555
Dy4 O14 2.473669 1_555
Dy4 O13 2.473673 1_555
Dy4 O16 2.826713 1_555
Dy4 O23 2.826716 1_555
Dy5 O19 2.223901 1_555
Dy5 O7 2.223905 1_556
Dy5 O22 2.354181 1_555
Dy5 O20 2.354181 1_555
Dy5 O15 2.473669 1_555
Dy5 O12 2.473673 1_555
Dy5 O17 2.826713 1_555
Dy5 O23 2.826716 1_555
Mg0 O21 1.890300 1_555
Mg0 O22 1.890300 1_555
Mg0 O4 1.890304 1_455
Mg0 O20 1.890310 1_555
O0 Sb0 2.055576 1_555
O0 Sb1 2.217736 1_555
O1 Sb0 2.055576 1_555
O1 Sb2 2.217736 1_555
O2 Sb4 2.011658 1_556
O3 Sb3 2.011658 1_565
O4 Sb8 2.317988 1_655
O5 Sb2 2.011661 1_555
O6 Sb1 2.011661 1_555
O7 Sb4 2.011658 1_555
O8 Sb3 2.011658 1_555
O9 Sb7 2.042276 1_555
O9 Sb9 2.237705 1_655
O10 Sb5 2.055580 1_655
O10 Sb3 2.217727 1_555
O11 Sb6 2.055580 1_655
O11 Sb4 2.217727 1_555
O12 Sb5 2.055576 1_555
O12 Sb2 2.217736 1_556
O13 Sb6 2.055576 1_555
O13 Sb1 2.217736 1_565
O14 Sb7 2.055585 1_555
O14 Sb3 2.217730 1_565
O15 Sb7 2.055585 1_555
O15 Sb4 2.217730 1_556
O16 Sb5 2.042267 1_554
O16 Sb8 2.237710 1_555
O17 Sb6 2.042267 1_545
O17 Sb8 2.237710 1_555
O18 Sb1 2.011667 1_565
O19 Sb2 2.011667 1_556
O20 Sb8 2.317980 1_555
O21 Sb9 2.317979 1_555
O22 Sb9 2.317979 1_555
O23 Sb0 2.042272 1_566
O23 Sb9 2.237701 1_555
