# generated using pymatgen
data_Ti13Pt42
_symmetry_space_group_name_H-M   'P 1'
_cell_length_a   10.86818700
_cell_length_b   11.79014494
_cell_length_c   11.98574792
_cell_angle_alpha   90.74861675
_cell_angle_beta   90.14351031
_cell_angle_gamma   94.77182328
_symmetry_Int_Tables_number   1
_chemical_formula_structural   Ti13Pt42
_chemical_formula_sum   'Ti13 Pt42'
_cell_volume   1530.35985927
_cell_formula_units_Z   1
loop_
 _symmetry_equiv_pos_site_id
 _symmetry_equiv_pos_as_xyz
  1  'x, y, z'
loop_
 _atom_site_type_symbol
 _atom_site_label
 _atom_site_symmetry_multiplicity
 _atom_site_fract_x
 _atom_site_fract_y
 _atom_site_fract_z
 _atom_site_occupancy
  Ti  Ti0  1  0.60291700  0.65163700  0.33302400  1
  Ti  Ti1  1  0.71677000  0.42896800  0.38755900  1
  Ti  Ti2  1  0.46631100  0.43137500  0.27334000  1
  Ti  Ti3  1  0.50432400  0.25518600  0.45624800  1
  Ti  Ti4  1  0.66723300  0.37547900  0.62795300  1
  Ti  Ti5  1  0.39708300  0.34836300  0.66697600  1
  Ti  Ti6  1  0.53368900  0.56862500  0.72666000  1
  Ti  Ti7  1  0.28323000  0.57103200  0.61244100  1
  Ti  Ti8  1  0.33276700  0.62452100  0.37204700  1
  Ti  Ti9  1  0.26870400  0.38580000  0.44468000  1
  Ti  Ti10  1  0.50000000  0.50000000  0.50000000  1
  Ti  Ti11  1  0.73129600  0.61420000  0.55532000  1
  Ti  Ti12  1  0.49567600  0.74481400  0.54375200  1
  Pt  Pt0  1  0.60927800  0.86611700  0.39178800  1
  Pt  Pt1  1  0.51951200  0.95605500  0.60488500  1
  Pt  Pt2  1  0.33860500  0.84342600  0.42767200  1
  Pt  Pt3  1  0.71683500  0.82773800  0.59649600  1
  Pt  Pt4  1  0.68508300  0.77784400  0.18584100  1
  Pt  Pt5  1  0.30157400  0.78587200  0.64881400  1
  Pt  Pt6  1  0.52706000  0.78700400  0.75558000  1
  Pt  Pt7  1  0.43879100  0.76170500  0.22841800  1
  Pt  Pt8  1  0.81163100  0.75205700  0.39684500  1
  Pt  Pt9  1  0.18543200  0.72492100  0.26432600  1
  Pt  Pt10  1  0.93147600  0.71940000  0.60491600  1
  Pt  Pt11  1  0.14271300  0.69339100  0.48550600  1
  Pt  Pt12  1  0.74430900  0.67545300  0.76508400  1
  Pt  Pt13  1  0.10131200  0.62336500  0.72022300  1
  Pt  Pt14  1  0.33360400  0.63066900  0.81751100  1
  Pt  Pt15  1  0.56535300  0.64010800  0.92472800  1
  Pt  Pt16  1  0.57192500  0.56948100  0.12863900  1
  Pt  Pt17  1  0.79525700  0.57777700  0.23559600  1
  Pt  Pt18  1  0.31846300  0.55176100  0.16709600  1
  Pt  Pt19  1  0.91977800  0.55596100  0.43385000  1
  Pt  Pt20  1  0.12711500  0.50226600  0.31315300  1
  Pt  Pt21  1  0.87288500  0.49773400  0.68684700  1
  Pt  Pt22  1  0.08022200  0.44403900  0.56615000  1
  Pt  Pt23  1  0.68153700  0.44823900  0.83290400  1
  Pt  Pt24  1  0.20474300  0.42222300  0.76440400  1
  Pt  Pt25  1  0.42807500  0.43051900  0.87136100  1
  Pt  Pt26  1  0.43464700  0.35989200  0.07527200  1
  Pt  Pt27  1  0.66639600  0.36933100  0.18248900  1
  Pt  Pt28  1  0.89868800  0.37663500  0.27977700  1
  Pt  Pt29  1  0.25569100  0.32454700  0.23491600  1
  Pt  Pt30  1  0.85728700  0.30660900  0.51449400  1
  Pt  Pt31  1  0.06852400  0.28060000  0.39508400  1
  Pt  Pt32  1  0.81456800  0.27507900  0.73567400  1
  Pt  Pt33  1  0.18836900  0.24794300  0.60315500  1
  Pt  Pt34  1  0.31491700  0.22215600  0.81415900  1
  Pt  Pt35  1  0.69842600  0.21412800  0.35118600  1
  Pt  Pt36  1  0.56120900  0.23829500  0.77158200  1
  Pt  Pt37  1  0.47294000  0.21299600  0.24442000  1
  Pt  Pt38  1  0.28316500  0.17226200  0.40350400  1
  Pt  Pt39  1  0.66139500  0.15657400  0.57232800  1
  Pt  Pt40  1  0.48048800  0.04394500  0.39511500  1
  Pt  Pt41  1  0.39072200  0.13388300  0.60821200  1
loop_
_geom_bond_atom_site_label_1
_geom_bond_atom_site_label_2
_geom_bond_distance
_geom_bond_site_symmetry_2
Ti0 Ti10 2.867880 1_555
Ti1 Ti10 2.895265 1_555
Ti10 Ti9 2.824315 1_555
Ti10 Ti11 2.824315 1_555
Ti10 Ti6 2.838555 1_555
Ti10 Ti2 2.838555 1_555
Ti10 Ti5 2.867880 1_555
Ti10 Ti4 2.880892 1_555
Ti10 Ti8 2.880892 1_555
Ti10 Ti7 2.895265 1_555
Ti10 Ti12 2.931144 1_555
Ti10 Ti3 2.931144 1_555
Pt0 Ti12 2.583182 1_555
Pt0 Ti0 2.611430 1_555
Pt1 Ti12 2.578936 1_555
Pt2 Ti12 2.561675 1_555
Pt2 Ti8 2.652783 1_555
Pt3 Ti11 2.576927 1_555
Pt3 Ti12 2.591922 1_555
Pt4 Ti0 2.445206 1_555
Pt5 Ti12 2.537215 1_555
Pt5 Ti7 2.555887 1_555
Pt6 Ti12 2.596980 1_555
Pt6 Ti6 2.600421 1_555
Pt7 Ti8 2.584569 1_555
Pt7 Ti0 2.618062 1_555
Pt8 Ti0 2.579362 1_555
Pt8 Ti11 2.620082 1_555
Pt9 Ti8 2.444829 1_555
Pt10 Ti11 2.479975 1_555
Pt11 Ti8 2.653178 1_555
Pt11 Ti7 2.672147 1_555
Pt12 Ti6 2.556981 1_555
Pt12 Ti11 2.606995 1_555
Pt13 Ti7 2.480626 1_555
Pt14 Ti6 2.589452 1_555
Pt14 Ti7 2.592205 1_555
Pt15 Ti6 2.521893 1_555
Pt16 Ti2 2.598004 1_555
Pt16 Ti0 2.632934 1_555
Pt17 Ti0 2.603881 1_555
Pt17 Ti1 2.639239 1_555
Pt18 Ti2 2.575763 1_555
Pt18 Ti8 2.591381 1_555
Pt19 Ti1 2.615354 1_555
Pt19 Ti11 2.647672 1_555
Pt20 Ti8 2.645930 1_555
Pt20 Ti9 2.671078 1_555
Pt21 Ti4 2.645930 1_555
Pt21 Ti11 2.671078 1_555
Pt22 Ti7 2.615354 1_555
Pt22 Ti9 2.647672 1_555
Pt23 Ti6 2.575763 1_555
Pt23 Ti4 2.591381 1_555
Pt24 Ti5 2.603881 1_555
Pt24 Ti7 2.639239 1_555
Pt25 Ti6 2.598004 1_555
Pt25 Ti5 2.632934 1_555
Pt26 Ti2 2.521893 1_555
Pt27 Ti2 2.589452 1_555
Pt27 Ti1 2.592205 1_555
Pt28 Ti1 2.480626 1_555
Pt29 Ti2 2.556981 1_555
Pt29 Ti9 2.606995 1_555
Pt30 Ti4 2.653178 1_555
Pt30 Ti1 2.672147 1_555
Pt31 Ti9 2.479975 1_555
Pt32 Ti4 2.444829 1_555
Pt33 Ti5 2.579362 1_555
Pt33 Ti9 2.620082 1_555
Pt34 Ti5 2.445206 1_555
Pt35 Ti3 2.537215 1_555
Pt35 Ti1 2.555887 1_555
Pt36 Ti4 2.584569 1_555
Pt36 Ti5 2.618062 1_555
Pt37 Ti3 2.596980 1_555
Pt37 Ti2 2.600421 1_555
Pt38 Ti9 2.576927 1_555
Pt38 Ti3 2.591922 1_555
Pt39 Ti3 2.561675 1_555
Pt39 Ti4 2.652783 1_555
Pt40 Ti3 2.578936 1_555
Pt41 Ti3 2.583182 1_555
Pt41 Ti5 2.611430 1_555
