# generated using pymatgen
data_AlInO3
_symmetry_space_group_name_H-M   'P 1'
_cell_length_a   5.11989200
_cell_length_b   5.29657500
_cell_length_c   7.48331900
_cell_angle_alpha   90.00000000
_cell_angle_beta   90.00000000
_cell_angle_gamma   90.00000000
_symmetry_Int_Tables_number   1
_chemical_formula_structural   AlInO3
_chemical_formula_sum   'Al4 In4 O12'
_cell_volume   202.93183622
_cell_formula_units_Z   4
loop_
 _symmetry_equiv_pos_site_id
 _symmetry_equiv_pos_as_xyz
  1  'x, y, z'
loop_
 _atom_site_type_symbol
 _atom_site_label
 _atom_site_symmetry_multiplicity
 _atom_site_fract_x
 _atom_site_fract_y
 _atom_site_fract_z
 _atom_site_occupancy
  Al  Al0  1  0.00000000  0.50000000  0.00000000  1
  Al  Al1  1  0.00000000  0.50000000  0.50000000  1
  Al  Al2  1  0.50000000  0.00000000  0.00000000  1
  Al  Al3  1  0.50000000  0.00000000  0.50000000  1
  In  In0  1  0.01761300  0.94517000  0.75000000  1
  In  In1  1  0.48238700  0.44517000  0.75000000  1
  In  In2  1  0.51761300  0.55483000  0.25000000  1
  In  In3  1  0.98238700  0.05483000  0.25000000  1
  O  O0  1  0.10989900  0.45748700  0.25000000  1
  O  O1  1  0.19840400  0.20104600  0.55830400  1
  O  O2  1  0.19840400  0.20104600  0.94169600  1
  O  O3  1  0.30159600  0.70104600  0.55830400  1
  O  O4  1  0.30159600  0.70104600  0.94169600  1
  O  O5  1  0.39010100  0.95748700  0.25000000  1
  O  O6  1  0.60989900  0.04251300  0.75000000  1
  O  O7  1  0.69840400  0.29895400  0.05830400  1
  O  O8  1  0.69840400  0.29895400  0.44169600  1
  O  O9  1  0.80159600  0.79895400  0.05830400  1
  O  O10  1  0.80159600  0.79895400  0.44169600  1
  O  O11  1  0.89010100  0.54251300  0.75000000  1
loop_
_geom_bond_atom_site_label_1
_geom_bond_atom_site_label_2
_geom_bond_distance
_geom_bond_site_symmetry_2
Al0 O7 1.925784 1_455
Al0 O4 1.925784 1_554
Al0 O2 1.931188 1_554
Al0 O9 1.931188 1_455
Al0 O0 1.966547 1_555
Al0 O11 1.966547 1_454
Al1 O8 1.925784 1_455
Al1 O3 1.925784 1_555
Al1 O1 1.931188 1_555
Al1 O10 1.931188 1_455
Al1 O0 1.966547 1_555
Al1 O11 1.966547 1_455
Al2 O2 1.925784 1_554
Al2 O9 1.925784 1_545
Al2 O7 1.931188 1_555
Al2 O4 1.931188 1_544
Al2 O6 1.966547 1_554
Al2 O5 1.966547 1_545
Al3 O1 1.925784 1_555
Al3 O10 1.925784 1_545
Al3 O8 1.931188 1_555
Al3 O3 1.931188 1_545
Al3 O6 1.966547 1_555
Al3 O5 1.966547 1_545
In0 O6 2.150182 1_465
In0 O2 2.179769 1_565
In0 O1 2.179769 1_565
In0 O11 2.230388 1_455
In0 O3 2.417388 1_555
In0 O4 2.417388 1_555
In0 O9 2.673171 1_456
In0 O10 2.673171 1_455
In1 O11 2.150182 1_555
In1 O3 2.179769 1_555
In1 O4 2.179769 1_555
In1 O6 2.230388 1_555
In1 O2 2.417388 1_555
In1 O1 2.417388 1_555
In1 O7 2.673171 1_556
In1 O8 2.673171 1_555
In2 O0 2.150182 1_555
In2 O8 2.179769 1_555
In2 O7 2.179769 1_555
In2 O5 2.230388 1_555
In2 O10 2.417388 1_555
In2 O9 2.417388 1_555
In2 O3 2.673171 1_555
In2 O4 2.673171 1_554
In3 O5 2.150182 1_645
In3 O10 2.179769 1_545
In3 O9 2.179769 1_545
In3 O0 2.230388 1_655
In3 O8 2.417388 1_555
In3 O7 2.417388 1_555
In3 O2 2.673171 1_654
In3 O1 2.673171 1_655
