# generated using pymatgen
data_CoRh
_symmetry_space_group_name_H-M   'P 1'
_cell_length_a   9.05153145
_cell_length_b   9.05153145
_cell_length_c   9.05153190
_cell_angle_alpha   34.14340762
_cell_angle_beta   34.14340762
_cell_angle_gamma   34.14340317
_symmetry_Int_Tables_number   1
_chemical_formula_structural   CoRh
_chemical_formula_sum   'Co8 Rh8'
_cell_volume   208.29017083
_cell_formula_units_Z   8
loop_
 _symmetry_equiv_pos_site_id
 _symmetry_equiv_pos_as_xyz
  1  'x, y, z'
loop_
 _atom_site_type_symbol
 _atom_site_label
 _atom_site_symmetry_multiplicity
 _atom_site_fract_x
 _atom_site_fract_y
 _atom_site_fract_z
 _atom_site_occupancy
  Co  Co0_0  1  0.00000000  0.00000000  0.00000000  1
  Co  Co0_1  1  0.00000000  0.00000000  0.50000000  1
  Co  Co0_2  1  0.00000000  0.50000000  0.00000000  1
  Co  Co0_3  1  0.00000000  0.50000000  0.50000000  1
  Co  Co0_4  1  0.50000000  0.00000000  0.00000000  1
  Co  Co0_5  1  0.50000000  0.00000000  0.50000000  1
  Co  Co0_6  1  0.50000000  0.50000000  0.00000000  1
  Co  Co0_7  1  0.50000000  0.50000000  0.50000000  1
  Rh  Rh0_0  1  0.25000000  0.25000000  0.25000000  1
  Rh  Rh0_1  1  0.25000000  0.25000000  0.75000000  1
  Rh  Rh0_2  1  0.25000000  0.75000000  0.25000000  1
  Rh  Rh0_3  1  0.25000000  0.75000000  0.75000000  1
  Rh  Rh0_4  1  0.75000000  0.25000000  0.25000000  1
  Rh  Rh0_5  1  0.75000000  0.25000000  0.75000000  1
  Rh  Rh0_6  1  0.75000000  0.75000000  0.25000000  1
  Rh  Rh0_7  1  0.75000000  0.75000000  0.75000000  1
loop_
_geom_bond_atom_site_label_1
_geom_bond_atom_site_label_2
_geom_bond_distance
_geom_bond_site_symmetry_2
Co0_0 Rh0_5 2.624095 1_454
Co0_0 Rh0_3 2.624095 1_544
Co0_0 Rh0_4 2.624095 1_455
Co0_0 Rh0_2 2.624095 1_545
Co0_0 Rh0_6 2.624095 1_445
Co0_0 Rh0_1 2.624095 1_554
Co0_0 Co0_6 2.657242 1_545
Co0_0 Co0_6 2.657242 1_455
Co0_0 Co0_3 2.657242 1_545
Co0_0 Co0_5 2.657242 1_554
Co0_0 Co0_5 2.657242 1_455
Co0_0 Co0_3 2.657242 1_554
Co0_1 Rh0_4 2.624095 1_455
Co0_1 Rh0_2 2.624095 1_545
Co0_1 Rh0_3 2.624095 1_545
Co0_1 Rh0_5 2.624095 1_455
Co0_1 Rh0_0 2.624095 1_555
Co0_1 Rh0_7 2.624095 1_445
Co0_1 Co0_7 2.657242 1_545
Co0_1 Co0_7 2.657242 1_455
Co0_1 Co0_4 2.657242 1_555
Co0_1 Co0_4 2.657242 1_456
Co0_1 Co0_2 2.657242 1_546
Co0_1 Co0_2 2.657242 1_555
Co0_2 Rh0_1 2.624095 1_554
Co0_2 Rh0_6 2.624095 1_455
Co0_2 Rh0_0 2.624095 1_555
Co0_2 Rh0_7 2.624095 1_454
Co0_2 Rh0_4 2.624095 1_455
Co0_2 Rh0_3 2.624095 1_554
Co0_2 Co0_4 2.657242 1_555
Co0_2 Co0_4 2.657242 1_465
Co0_2 Co0_7 2.657242 1_554
Co0_2 Co0_7 2.657242 1_455
Co0_3 Rh0_7 2.624095 1_455
Co0_3 Rh0_1 2.624095 1_555
Co0_3 Rh0_0 2.624095 1_555
Co0_3 Rh0_6 2.624095 1_455
Co0_3 Rh0_5 2.624095 1_455
Co0_3 Rh0_2 2.624095 1_555
Co0_3 Co0_5 2.657242 1_555
Co0_3 Co0_5 2.657242 1_465
Co0_3 Co0_6 2.657242 1_555
Co0_3 Co0_6 2.657242 1_456
Co0_4 Rh0_1 2.624095 1_554
Co0_4 Rh0_0 2.624095 1_555
Co0_4 Rh0_6 2.624095 1_545
Co0_4 Rh0_7 2.624095 1_544
Co0_4 Rh0_2 2.624095 1_545
Co0_4 Rh0_5 2.624095 1_554
Co0_4 Co0_7 2.657242 1_554
Co0_4 Co0_7 2.657242 1_545
Co0_5 Rh0_7 2.624095 1_545
Co0_5 Rh0_0 2.624095 1_555
Co0_5 Rh0_6 2.624095 1_545
Co0_5 Rh0_1 2.624095 1_555
Co0_5 Rh0_3 2.624095 1_545
Co0_5 Rh0_4 2.624095 1_555
Co0_5 Co0_6 2.657242 1_555
Co0_5 Co0_6 2.657242 1_546
Co0_6 Rh0_5 2.624095 1_554
Co0_6 Rh0_3 2.624095 1_554
Co0_6 Rh0_2 2.624095 1_555
Co0_6 Rh0_4 2.624095 1_555
Co0_6 Rh0_7 2.624095 1_554
Co0_6 Rh0_0 2.624095 1_555
Co0_7 Rh0_2 2.624095 1_555
Co0_7 Rh0_4 2.624095 1_555
Co0_7 Rh0_5 2.624095 1_555
Co0_7 Rh0_3 2.624095 1_555
Co0_7 Rh0_1 2.624095 1_555
Co0_7 Rh0_6 2.624095 1_555
Rh0_0 Rh0_6 2.657242 1_545
Rh0_0 Rh0_6 2.657242 1_455
Rh0_0 Rh0_5 2.657242 1_455
Rh0_0 Rh0_3 2.657242 1_545
Rh0_0 Rh0_5 2.657242 1_554
Rh0_0 Rh0_3 2.657242 1_554
Rh0_1 Rh0_7 2.657242 1_545
Rh0_1 Rh0_7 2.657242 1_455
Rh0_1 Rh0_4 2.657242 1_555
Rh0_1 Rh0_2 2.657242 1_555
Rh0_1 Rh0_4 2.657242 1_456
Rh0_1 Rh0_2 2.657242 1_546
Rh0_2 Rh0_4 2.657242 1_555
Rh0_2 Rh0_4 2.657242 1_465
Rh0_2 Rh0_7 2.657242 1_554
Rh0_2 Rh0_7 2.657242 1_455
Rh0_3 Rh0_5 2.657242 1_465
Rh0_3 Rh0_5 2.657242 1_555
Rh0_3 Rh0_6 2.657242 1_555
Rh0_3 Rh0_6 2.657242 1_456
Rh0_4 Rh0_7 2.657242 1_554
Rh0_4 Rh0_7 2.657242 1_545
Rh0_5 Rh0_6 2.657242 1_555
Rh0_5 Rh0_6 2.657242 1_546
