# generated using pymatgen
data_Pr5Fe2Sb
_symmetry_space_group_name_H-M   'P 1'
_cell_length_a   9.01761163
_cell_length_b   9.01761163
_cell_length_c   9.01761163
_cell_angle_alpha   127.70581766
_cell_angle_beta   127.70581766
_cell_angle_gamma   77.10207870
_symmetry_Int_Tables_number   1
_chemical_formula_structural   Pr5Fe2Sb
_chemical_formula_sum   'Pr10 Fe4 Sb2'
_cell_volume   445.46327763
_cell_formula_units_Z   2
loop_
 _symmetry_equiv_pos_site_id
 _symmetry_equiv_pos_as_xyz
  1  'x, y, z'
loop_
 _atom_site_type_symbol
 _atom_site_label
 _atom_site_symmetry_multiplicity
 _atom_site_fract_x
 _atom_site_fract_y
 _atom_site_fract_z
 _atom_site_occupancy
  Pr  Pr0  1  0.00000000  0.00000000  0.00000000  1
  Pr  Pr1  1  0.50000000  0.50000000  0.00000000  1
  Pr  Pr2  1  0.80477800  0.30477800  0.83339200  1
  Pr  Pr3  1  0.19522200  0.69522200  0.16660800  1
  Pr  Pr4  1  0.47138600  0.97138600  0.16660800  1
  Pr  Pr5  1  0.30477800  0.47138600  0.50000000  1
  Pr  Pr6  1  0.02861400  0.19522200  0.50000000  1
  Pr  Pr7  1  0.52861400  0.02861400  0.83339200  1
  Pr  Pr8  1  0.69522200  0.52861400  0.50000000  1
  Pr  Pr9  1  0.97138600  0.80477800  0.50000000  1
  Fe  Fe0  1  0.09966000  0.59966000  0.69931900  1
  Fe  Fe1  1  0.90034000  0.40034000  0.30068100  1
  Fe  Fe2  1  0.59966000  0.90034000  0.50000000  1
  Fe  Fe3  1  0.40034000  0.09966000  0.50000000  1
  Sb  Sb0  1  0.25000000  0.25000000  0.00000000  1
  Sb  Sb1  1  0.75000000  0.75000000  0.00000000  1
loop_
_geom_bond_atom_site_label_1
_geom_bond_atom_site_label_2
_geom_bond_distance
_geom_bond_site_symmetry_2
Pr0 Sb0 3.526127 1_555
Pr0 Sb1 3.526127 1_445
Pr1 Sb0 3.526127 1_555
Pr1 Sb1 3.526127 1_555
Pr2 Sb0 3.356228 1_656
Pr2 Sb1 3.356228 1_556
Pr3 Sb0 3.356228 1_555
Pr3 Sb1 3.356228 1_455
Pr4 Sb1 3.356228 1_555
Pr4 Sb0 3.356228 1_565
Pr5 Sb0 3.356228 1_555
Pr5 Sb1 3.356228 1_556
Pr6 Sb0 3.356228 1_556
Pr6 Sb1 3.356228 1_445
Pr7 Sb0 3.356228 1_556
Pr7 Sb1 3.356228 1_546
Pr8 Sb1 3.356228 1_556
Pr8 Sb0 3.356228 1_555
Pr9 Sb1 3.356228 1_555
Pr9 Sb0 3.356228 1_666
Fe0 Fe1 2.240298 1_455
Fe0 Pr5 2.925445 1_555
Fe0 Pr9 2.925445 1_455
Fe0 Pr8 2.925455 1_455
Fe0 Pr6 2.925455 1_555
Fe0 Pr4 3.269477 1_556
Fe0 Pr3 3.269485 1_556
Fe0 Pr1 3.278895 1_556
Fe0 Pr0 3.278895 1_566
Fe1 Pr6 2.925445 1_655
Fe1 Pr8 2.925445 1_555
Fe1 Pr5 2.925455 1_655
Fe1 Pr9 2.925455 1_555
Fe1 Pr7 3.269477 1_554
Fe1 Pr2 3.269485 1_554
Fe1 Pr0 3.278895 1_655
Fe1 Pr1 3.278895 1_555
Fe2 Fe3 2.240309 1_565
Fe2 Pr2 2.925452 1_565
Fe2 Pr3 2.925452 1_555
Fe2 Pr4 2.925452 1_555
Fe2 Pr7 2.925452 1_565
Fe2 Pr9 3.269476 1_555
Fe2 Pr8 3.269476 1_555
Fe2 Pr1 3.278893 1_555
Fe2 Pr0 3.278893 1_666
Fe3 Pr2 2.925452 1_555
Fe3 Pr3 2.925452 1_545
Fe3 Pr7 2.925452 1_555
Fe3 Pr4 2.925452 1_545
Fe3 Pr5 3.269476 1_555
Fe3 Pr6 3.269476 1_555
Fe3 Pr1 3.278893 1_556
Fe3 Pr0 3.278893 1_555
