# generated using pymatgen
data_Cu2I4N2O
_symmetry_space_group_name_H-M   'P 1'
_cell_length_a   7.06120700
_cell_length_b   10.93920600
_cell_length_c   13.18971400
_cell_angle_alpha   90.00000000
_cell_angle_beta   90.00000000
_cell_angle_gamma   90.00000000
_symmetry_Int_Tables_number   1
_chemical_formula_structural   Cu2I4N2O
_chemical_formula_sum   'Cu8 I16 N8 O4'
_cell_volume   1018.82624159
_cell_formula_units_Z   4
loop_
 _symmetry_equiv_pos_site_id
 _symmetry_equiv_pos_as_xyz
  1  'x, y, z'
loop_
 _atom_site_type_symbol
 _atom_site_label
 _atom_site_symmetry_multiplicity
 _atom_site_fract_x
 _atom_site_fract_y
 _atom_site_fract_z
 _atom_site_occupancy
  Cu  Cu0  1  0.93948900  0.02015600  0.72342500  1
  Cu  Cu1  1  0.56051100  0.97984400  0.22342500  1
  Cu  Cu2  1  0.43948900  0.47984400  0.27657500  1
  Cu  Cu3  1  0.06051100  0.52015600  0.77657500  1
  Cu  Cu4  1  0.93115100  0.26919100  0.74454100  1
  Cu  Cu5  1  0.56884900  0.73080900  0.24454100  1
  Cu  Cu6  1  0.43115100  0.23080900  0.25545900  1
  Cu  Cu7  1  0.06884900  0.76919100  0.75545900  1
  I  I0  1  0.72256600  0.45743100  0.70331900  1
  I  I1  1  0.77743400  0.54256900  0.20331900  1
  I  I2  1  0.22256600  0.04256900  0.29668100  1
  I  I3  1  0.27743400  0.95743100  0.79668100  1
  I  I4  1  0.73287500  0.12704500  0.85981600  1
  I  I5  1  0.76712500  0.87295500  0.35981600  1
  I  I6  1  0.23287500  0.37295500  0.14018400  1
  I  I7  1  0.26712500  0.62704500  0.64018400  1
  I  I8  1  0.73900900  0.17211200  0.15943300  1
  I  I9  1  0.76099100  0.82788800  0.65943300  1
  I  I10  1  0.23900900  0.32788800  0.84056700  1
  I  I11  1  0.26099100  0.67211200  0.34056700  1
  I  I12  1  0.00875000  0.16295100  0.56929100  1
  I  I13  1  0.49125000  0.83704900  0.06929100  1
  I  I14  1  0.50875000  0.33704900  0.43070900  1
  I  I15  1  0.99125000  0.66295100  0.93070900  1
  N  N0  1  0.96199800  0.29463600  0.34496400  1
  N  N1  1  0.53800200  0.70536400  0.84496400  1
  N  N2  1  0.46199800  0.20536400  0.65503600  1
  N  N3  1  0.03800200  0.79463600  0.15503600  1
  N  N4  1  0.24326200  0.02936100  0.99158100  1
  N  N5  1  0.25673800  0.97063900  0.49158100  1
  N  N6  1  0.74326200  0.47063900  0.00841900  1
  N  N7  1  0.75673800  0.52936100  0.50841900  1
  O  O0  1  0.40926400  0.97336600  0.52190800  1
  O  O1  1  0.09073600  0.02663400  0.02190800  1
  O  O2  1  0.90926400  0.52663400  0.47809200  1
  O  O3  1  0.59073600  0.47336600  0.97809200  1
loop_
_geom_bond_atom_site_label_1
_geom_bond_atom_site_label_2
_geom_bond_distance
_geom_bond_site_symmetry_2
Cu0 I9 2.593209 1_545
Cu0 I4 2.594607 1_555
Cu0 I12 2.610029 1_655
Cu0 I3 2.664364 1_645
Cu1 I8 2.593209 1_565
Cu1 I5 2.594607 1_555
Cu1 I13 2.610029 1_555
Cu1 I2 2.664364 1_565
Cu2 I11 2.593209 1_555
Cu2 I6 2.594607 1_555
Cu2 I14 2.610029 1_555
Cu2 I1 2.664364 1_555
Cu3 I10 2.593209 1_555
Cu3 I7 2.594607 1_555
Cu3 I15 2.610029 1_455
Cu3 I0 2.664364 1_455
Cu4 I4 2.586475 1_555
Cu4 I0 2.589445 1_555
Cu4 I10 2.596550 1_655
Cu4 I12 2.644603 1_655
Cu5 I5 2.586475 1_555
Cu5 I1 2.589445 1_555
Cu5 I11 2.596550 1_555
Cu5 I13 2.644603 1_555
Cu6 I6 2.586475 1_555
Cu6 I2 2.589445 1_555
Cu6 I8 2.596550 1_555
Cu6 I14 2.644603 1_555
Cu7 I7 2.586475 1_555
Cu7 I3 2.589445 1_555
Cu7 I9 2.596550 1_455
Cu7 I15 2.644603 1_455
I0 N7 2.699211 1_555
I1 N6 2.699211 1_555
I2 N5 2.699211 1_545
I3 N4 2.699211 1_565
N4 O1 1.149287 1_556
N5 O0 1.149287 1_555
N6 O3 1.149287 1_554
N7 O2 1.149287 1_555
