# generated using pymatgen
data_GdZrF7
_symmetry_space_group_name_H-M   'P 1'
_cell_length_a   5.75087570
_cell_length_b   6.10730183
_cell_length_c   8.28511356
_cell_angle_alpha   102.25463777
_cell_angle_beta   90.00000000
_cell_angle_gamma   90.00000000
_symmetry_Int_Tables_number   1
_chemical_formula_structural   GdZrF7
_chemical_formula_sum   'Gd2 Zr2 F14'
_cell_volume   284.36194682
_cell_formula_units_Z   2
loop_
 _symmetry_equiv_pos_site_id
 _symmetry_equiv_pos_as_xyz
  1  'x, y, z'
loop_
 _atom_site_type_symbol
 _atom_site_label
 _atom_site_symmetry_multiplicity
 _atom_site_fract_x
 _atom_site_fract_y
 _atom_site_fract_z
 _atom_site_occupancy
  Gd  Gd0  1  0.69921715  0.65638722  0.68675492  1
  Gd  Gd1  1  0.19921715  0.34361278  0.31324508  1
  Zr  Zr0  1  0.70851369  0.81103186  0.22464896  1
  Zr  Zr1  1  0.20851369  0.18896814  0.77535104  1
  F  F0  1  0.88870343  0.45238011  0.47468005  1
  F  F1  1  0.38870343  0.54761989  0.52531995  1
  F  F2  1  0.42826592  0.93088702  0.77115361  1
  F  F3  1  0.92826592  0.06911298  0.22884639  1
  F  F4  1  0.95105024  0.95921679  0.76013875  1
  F  F5  1  0.45105024  0.04078321  0.23986125  1
  F  F6  1  0.99505349  0.45396811  0.78816647  1
  F  F7  1  0.49505349  0.54603189  0.21183353  1
  F  F8  1  0.69930007  0.75565365  0.97732515  1
  F  F9  1  0.19930007  0.24434635  0.02267485  1
  F  F10  1  0.70741510  0.86335348  0.47337487  1
  F  F11  1  0.20741510  0.13664652  0.52662513  1
  F  F12  1  0.49884191  0.37901179  0.78411677  1
  F  F13  1  0.99884191  0.62098821  0.21588323  1
loop_
_geom_bond_atom_site_label_1
_geom_bond_atom_site_label_2
_geom_bond_distance
_geom_bond_site_symmetry_2
F0 Gd0 2.213088 1_555
F0 Gd1 2.245403 1_655
F1 Gd1 2.213088 1_555
F1 Gd0 2.245403 1_555
F2 Zr1 2.014793 1_565
F2 Gd0 2.286879 1_555
F3 Zr0 2.014793 1_545
F3 Gd1 2.286879 1_655
F4 Zr1 2.025331 1_665
F4 Gd0 2.326007 1_555
F5 Zr0 2.025331 1_545
F5 Gd1 2.326007 1_555
F6 Zr1 2.016089 1_655
F6 Gd0 2.360009 1_555
F7 Zr0 2.016089 1_555
F7 Gd1 2.360009 1_555
F8 Zr0 2.005450 1_556
F8 Gd0 2.354480 1_555
F9 Zr1 2.005450 1_554
F9 Gd1 2.354480 1_555
F10 Zr0 2.017222 1_555
F10 Gd0 2.382005 1_555
F11 Zr1 2.017222 1_555
F11 Gd1 2.382005 1_555
F12 Zr1 2.025910 1_555
F12 Gd0 2.329880 1_555
F13 Zr0 2.025910 1_555
F13 Gd1 2.329880 1_655
