# generated using pymatgen
data_FeCu2SnSe4
_symmetry_space_group_name_H-M   'P 1'
_cell_length_a   14.35150126
_cell_length_b   14.35150126
_cell_length_c   14.35150142
_cell_angle_alpha   15.93541146
_cell_angle_beta   15.93541146
_cell_angle_gamma   15.93540952
_symmetry_Int_Tables_number   1
_chemical_formula_structural   FeCu2SnSe4
_chemical_formula_sum   'Fe1 Cu2 Sn1 Se4'
_cell_volume   194.20795621
_cell_formula_units_Z   1
loop_
 _symmetry_equiv_pos_site_id
 _symmetry_equiv_pos_as_xyz
  1  'x, y, z'
loop_
 _atom_site_type_symbol
 _atom_site_label
 _atom_site_symmetry_multiplicity
 _atom_site_fract_x
 _atom_site_fract_y
 _atom_site_fract_z
 _atom_site_occupancy
  Fe  Fe0  1  0.26269200  0.26269200  0.26269200  1
  Cu  Cu0  1  0.00096300  0.00096300  0.00096300  1
  Cu  Cu1  1  0.73747200  0.73747200  0.73747200  1
  Sn  Sn0  1  0.49955500  0.49955500  0.49955500  1
  Se  Se0  1  0.05713200  0.05713200  0.05713200  1
  Se  Se1  1  0.79622700  0.79622700  0.79622700  1
  Se  Se2  1  0.57884100  0.57884100  0.57884100  1
  Se  Se3  1  0.31711800  0.31711800  0.31711800  1
loop_
_geom_bond_atom_site_label_1
_geom_bond_atom_site_label_2
_geom_bond_distance
_geom_bond_site_symmetry_2
Fe0 Se3 2.313074 1_555
Fe0 Se2 2.410386 1_455
Fe0 Se2 2.410386 1_545
Fe0 Se2 2.410387 1_554
Cu0 Se0 2.387150 1_555
Cu0 Se3 2.410309 1_545
Cu0 Se3 2.410309 1_455
Cu0 Se3 2.410310 1_554
Cu1 Se0 2.369447 1_656
Cu1 Se0 2.369447 1_566
Cu1 Se0 2.369447 1_665
Cu1 Se1 2.497054 1_555
Se1 Sn0 2.775648 1_655
Se1 Sn0 2.775648 1_565
Se1 Sn0 2.775648 1_556
