# generated using pymatgen
data_CdGa4As4S
_symmetry_space_group_name_H-M   'P 1'
_cell_length_a   4.08587087
_cell_length_b   4.08587087
_cell_length_c   16.90742654
_cell_angle_alpha   96.94004449
_cell_angle_beta   83.05995551
_cell_angle_gamma   120.00000000
_symmetry_Int_Tables_number   1
_chemical_formula_structural   CdGa4As4S
_chemical_formula_sum   'Cd1 Ga4 As4 S1'
_cell_volume   242.05194806
_cell_formula_units_Z   1
loop_
 _symmetry_equiv_pos_site_id
 _symmetry_equiv_pos_as_xyz
  1  'x, y, z'
loop_
 _atom_site_type_symbol
 _atom_site_label
 _atom_site_symmetry_multiplicity
 _atom_site_fract_x
 _atom_site_fract_y
 _atom_site_fract_z
 _atom_site_occupancy
  Cd  Cd0  1  0.99991500  0.00008500  0.00025600  1
  Ga  Ga0  1  0.59859900  0.40140100  0.20420300  1
  Ga  Ga1  1  0.19942500  0.80057500  0.40172500  1
  Ga  Ga2  1  0.79994900  0.20005100  0.60015400  1
  Ga  Ga3  1  0.40086900  0.59913100  0.79739200  1
  As  As0  1  0.94795600  0.05204400  0.15613100  1
  As  As1  1  0.54899300  0.45100700  0.35302000  1
  As  As2  1  0.14962800  0.85037200  0.55111700  1
  As  As3  1  0.75013800  0.24986200  0.74958700  1
  S  S0  1  0.35452800  0.64547200  0.93641600  1
loop_
_geom_bond_atom_site_label_1
_geom_bond_atom_site_label_2
_geom_bond_distance
_geom_bond_site_symmetry_2
Cd0 S0 2.589813 1_644
Cd0 S0 2.589816 1_544
Cd0 S0 2.589816 1_654
Ga3 S0 2.327547 1_555
As0 Ga0 2.492491 1_555
As0 Ga0 2.492494 1_545
As0 Ga0 2.492494 1_655
As0 Cd0 2.609667 1_555
As1 Ga0 2.491502 1_555
As1 Ga1 2.495933 1_555
As1 Ga1 2.495936 1_545
As1 Ga1 2.495936 1_655
As2 Ga2 2.497757 1_465
As2 Ga2 2.497757 1_455
As2 Ga2 2.497757 1_565
As2 Ga1 2.501129 1_555
As3 Ga3 2.491051 1_655
As3 Ga3 2.491051 1_545
As3 Ga3 2.491058 1_555
As3 Ga2 2.501815 1_555
