# generated using pymatgen
data_MgFe3Co2Sb(PO4)6
_symmetry_space_group_name_H-M   'P 1'
_cell_length_a   8.67016974
_cell_length_b   8.78493656
_cell_length_c   8.78328195
_cell_angle_alpha   60.07479332
_cell_angle_beta   58.34955423
_cell_angle_gamma   59.11740265
_symmetry_Int_Tables_number   1
_chemical_formula_structural   MgFe3Co2Sb(PO4)6
_chemical_formula_sum   'Mg1 Fe3 Co2 Sb1 P6 O24'
_cell_volume   464.00146023
_cell_formula_units_Z   1
loop_
 _symmetry_equiv_pos_site_id
 _symmetry_equiv_pos_as_xyz
  1  'x, y, z'
loop_
 _atom_site_type_symbol
 _atom_site_label
 _atom_site_symmetry_multiplicity
 _atom_site_fract_x
 _atom_site_fract_y
 _atom_site_fract_z
 _atom_site_occupancy
  Mg  Mg0  1  0.74952600  0.37931000  0.72907700  1
  Fe  Fe0  1  0.06824200  0.64564300  0.64442000  1
  Fe  Fe1  1  0.43433600  0.86292300  0.85504900  1
  Fe  Fe2  1  0.93441800  0.35698600  0.34788400  1
  Co  Co0  1  0.03509800  0.96865600  0.01242500  1
  Co  Co1  1  0.49626700  0.49822200  0.48799000  1
  Sb  Sb0  1  0.56688100  0.13714200  0.14889800  1
  P  P0  1  0.22388800  0.25956800  0.56293400  1
  P  P1  1  0.24657500  0.94673300  0.26402300  1
  P  P2  1  0.26127300  0.54267800  0.93983900  1
  P  P3  1  0.74950900  0.45838500  0.04231300  1
  P  P4  1  0.74151000  0.04664800  0.75212500  1
  P  P5  1  0.74496600  0.76668900  0.45808500  1
  O  O0  1  0.07828500  0.09477600  0.34663000  1
  O  O1  1  0.10432400  0.47348700  0.10363800  1
  O  O2  1  0.02649300  0.33255300  0.55066600  1
  O  O3  1  0.22240400  0.09437300  0.74414100  1
  O  O4  1  0.38491400  0.21659300  0.37148100  1
  O  O5  1  0.26941800  0.41140500  0.55833300  1
  O  O6  1  0.22525200  0.94008200  0.10388200  1
  O  O7  1  0.27936900  0.74780700  0.41100100  1
  O  O8  1  0.58479800  0.59584700  0.97376800  1
  O  O9  1  0.28572900  0.55839500  0.74471400  1
  O  O10  1  0.77100600  0.25150400  0.06257000  1
  O  O11  1  0.55393800  0.02008600  0.83492100  1
  O  O12  1  0.44551400  0.97536700  0.19302900  1
  O  O13  1  0.23941600  0.72953700  0.93606000  1
  O  O14  1  0.71409300  0.45132600  0.23697700  1
  O  O15  1  0.46986300  0.38139600  0.95290000  1
  O  O16  1  0.72396000  0.24797600  0.60258700  1
  O  O17  1  0.77416900  0.08001400  0.90160000  1
  O  O18  1  0.71515000  0.59343500  0.47978100  1
  O  O19  1  0.56509300  0.87564100  0.57949300  1
  O  O20  1  0.77880300  0.90416800  0.24068800  1
  O  O21  1  0.92938600  0.70642500  0.48743900  1
  O  O22  1  0.94242200  0.47837100  0.88864800  1
  O  O23  1  0.92152700  0.88391500  0.69999100  1
loop_
_geom_bond_atom_site_label_1
_geom_bond_atom_site_label_2
_geom_bond_distance
_geom_bond_site_symmetry_2
Mg0 O2 2.017743 1_655
Mg0 O16 2.101077 1_555
Mg0 O18 2.102757 1_555
Mg0 O15 2.175348 1_555
Mg0 O17 2.245643 1_555
Mg0 O10 2.636627 1_556
Fe0 O23 1.967802 1_455
Fe0 O21 1.995796 1_455
Fe0 O22 1.998903 1_455
Fe0 O7 2.066792 1_555
Fe0 O5 2.081399 1_555
Fe0 O9 2.122516 1_555
Fe1 O11 2.011618 1_565
Fe1 O19 2.033754 1_555
Fe1 O8 2.034336 1_555
Fe1 O3 2.127548 1_565
Fe1 O6 2.140351 1_556
Fe1 O13 2.162053 1_555
Fe2 O1 1.964752 1_655
Fe2 O0 1.980762 1_655
Fe2 O16 2.150265 1_555
Fe2 O2 2.188724 1_655
Fe2 O14 2.192495 1_555
Fe2 O18 2.303639 1_555
Co0 O6 2.047009 1_555
Co0 O13 2.083136 1_554
Co0 O3 2.153660 1_564
Co0 O20 2.182184 1_455
Co0 O10 2.409145 1_465
Co0 O17 2.472161 1_464
Co1 O14 2.082066 1_555
Co1 O7 2.103243 1_555
Co1 O9 2.138930 1_555
Co1 O5 2.150869 1_555
Co1 O16 2.272807 1_555
Co1 O18 2.394168 1_555
O0 P1 1.493070 1_545
O1 P2 1.487619 1_554
O2 P0 1.532937 1_555
O3 P0 1.527263 1_555
O4 P0 1.596218 1_555
O4 Sb0 1.947400 1_555
O5 P0 1.551357 1_555
O6 P1 1.543373 1_555
O7 P1 1.557424 1_555
O8 P3 1.505563 1_556
O9 P2 1.553655 1_555
O10 P3 1.653452 1_555
O10 Sb0 2.091259 1_555
O11 P4 1.485655 1_555
O12 P1 1.608513 1_555
O12 Sb0 1.958264 1_565
O13 P2 1.537719 1_555
O14 P3 1.544113 1_555
O15 P2 1.648166 1_555
O15 Sb0 2.063168 1_556
O16 P4 1.578643 1_555
O17 P4 1.658030 1_555
O17 Sb0 2.065116 1_556
O18 P5 1.575604 1_555
O19 P5 1.492008 1_555
O20 P5 1.632685 1_555
O20 Sb0 2.064639 1_565
O21 P5 1.526717 1_555
O22 P3 1.531636 1_556
O23 P4 1.517235 1_565
