# generated using pymatgen
data_Mg3Si3(NiO6)2
_symmetry_space_group_name_H-M   'P 1'
_cell_length_a   10.08861225
_cell_length_b   10.08861225
_cell_length_c   10.08861225
_cell_angle_alpha   109.47122063
_cell_angle_beta   109.47122063
_cell_angle_gamma   109.47122063
_symmetry_Int_Tables_number   1
_chemical_formula_structural   Mg3Si3(NiO6)2
_chemical_formula_sum   'Mg12 Si12 Ni8 O48'
_cell_volume   790.44635499
_cell_formula_units_Z   4
loop_
 _symmetry_equiv_pos_site_id
 _symmetry_equiv_pos_as_xyz
  1  'x, y, z'
loop_
 _atom_site_type_symbol
 _atom_site_label
 _atom_site_symmetry_multiplicity
 _atom_site_fract_x
 _atom_site_fract_y
 _atom_site_fract_z
 _atom_site_occupancy
  Mg  Mg0  1  0.25000000  0.37500000  0.12500000  1
  Mg  Mg1  1  0.75000000  0.12500000  0.37500000  1
  Mg  Mg2  1  0.37500000  0.12500000  0.25000000  1
  Mg  Mg3  1  0.12500000  0.37500000  0.75000000  1
  Mg  Mg4  1  0.25000000  0.87500000  0.62500000  1
  Mg  Mg5  1  0.12500000  0.25000000  0.37500000  1
  Mg  Mg6  1  0.62500000  0.25000000  0.87500000  1
  Mg  Mg7  1  0.75000000  0.62500000  0.87500000  1
  Mg  Mg8  1  0.87500000  0.75000000  0.62500000  1
  Mg  Mg9  1  0.87500000  0.62500000  0.25000000  1
  Mg  Mg10  1  0.62500000  0.87500000  0.75000000  1
  Mg  Mg11  1  0.37500000  0.75000000  0.12500000  1
  Si  Si0  1  0.12500000  0.75000000  0.87500000  1
  Si  Si1  1  0.87500000  0.25000000  0.12500000  1
  Si  Si2  1  0.75000000  0.37500000  0.62500000  1
  Si  Si3  1  0.12500000  0.87500000  0.25000000  1
  Si  Si4  1  0.25000000  0.12500000  0.87500000  1
  Si  Si5  1  0.37500000  0.62500000  0.75000000  1
  Si  Si6  1  0.37500000  0.25000000  0.62500000  1
  Si  Si7  1  0.87500000  0.12500000  0.75000000  1
  Si  Si8  1  0.62500000  0.37500000  0.25000000  1
  Si  Si9  1  0.75000000  0.87500000  0.12500000  1
  Si  Si10  1  0.25000000  0.62500000  0.37500000  1
  Si  Si11  1  0.62500000  0.75000000  0.37500000  1
  Ni  Ni0  1  0.50000000  0.00000000  0.00000000  1
  Ni  Ni1  1  0.50000000  0.50000000  0.00000000  1
  Ni  Ni2  1  0.00000000  0.50000000  0.50000000  1
  Ni  Ni3  1  0.00000000  0.00000000  0.50000000  1
  Ni  Ni4  1  0.50000000  0.50000000  0.50000000  1
  Ni  Ni5  1  0.00000000  0.50000000  0.00000000  1
  Ni  Ni6  1  0.50000000  0.00000000  0.50000000  1
  Ni  Ni7  1  0.00000000  0.00000000  0.00000000  1
  O  O0  1  0.58761100  0.89723700  0.37464300  1
  O  O1  1  0.37464300  0.58761100  0.89723700  1
  O  O2  1  0.28703200  0.30962600  0.91238900  1
  O  O3  1  0.47740600  0.60276300  0.19037400  1
  O  O4  1  0.30962600  0.89723700  0.02259400  1
  O  O5  1  0.12535700  0.02259400  0.21296800  1
  O  O6  1  0.37464300  0.28703200  0.47740600  1
  O  O7  1  0.89723700  0.37464300  0.58761100  1
  O  O8  1  0.19037400  0.21296800  0.58761100  1
  O  O9  1  0.47740600  0.37464300  0.28703200  1
  O  O10  1  0.89723700  0.02259400  0.30962600  1
  O  O11  1  0.60276300  0.91238900  0.12535700  1
  O  O12  1  0.91238900  0.12535700  0.60276300  1
  O  O13  1  0.28703200  0.47740600  0.37464300  1
  O  O14  1  0.58761100  0.19037400  0.21296800  1
  O  O15  1  0.21296800  0.58761100  0.19037400  1
  O  O16  1  0.02259400  0.30962600  0.89723700  1
  O  O17  1  0.91238900  0.28703200  0.30962600  1
  O  O18  1  0.02259400  0.21296800  0.12535700  1
  O  O19  1  0.80962600  0.78703200  0.41238900  1
  O  O20  1  0.19037400  0.47740600  0.60276300  1
  O  O21  1  0.60276300  0.19037400  0.47740600  1
  O  O22  1  0.21296800  0.12535700  0.02259400  1
  O  O23  1  0.12535700  0.60276300  0.91238900  1
  O  O24  1  0.41238900  0.10276300  0.62535700  1
  O  O25  1  0.62535700  0.41238900  0.10276300  1
  O  O26  1  0.71296800  0.69037400  0.08761100  1
  O  O27  1  0.52259400  0.39723700  0.80962600  1
  O  O28  1  0.69037400  0.10276300  0.97740600  1
  O  O29  1  0.87464300  0.97740600  0.78703200  1
  O  O30  1  0.62535700  0.71296800  0.52259400  1
  O  O31  1  0.10276300  0.62535700  0.41238900  1
  O  O32  1  0.87464300  0.39723700  0.08761100  1
  O  O33  1  0.78703200  0.87464300  0.97740600  1
  O  O34  1  0.39723700  0.80962600  0.52259400  1
  O  O35  1  0.69037400  0.08761100  0.71296800  1
  O  O36  1  0.80962600  0.52259400  0.39723700  1
  O  O37  1  0.97740600  0.78703200  0.87464300  1
  O  O38  1  0.08761100  0.71296800  0.69037400  1
  O  O39  1  0.97740600  0.69037400  0.10276300  1
  O  O40  1  0.78703200  0.41238900  0.80962600  1
  O  O41  1  0.41238900  0.80962600  0.78703200  1
  O  O42  1  0.71296800  0.52259400  0.62535700  1
  O  O43  1  0.08761100  0.87464300  0.39723700  1
  O  O44  1  0.39723700  0.08761100  0.87464300  1
  O  O45  1  0.10276300  0.97740600  0.69037400  1
  O  O46  1  0.52259400  0.62535700  0.71296800  1
  O  O47  1  0.30962600  0.91238900  0.28703200  1
loop_
_geom_bond_atom_site_label_1
_geom_bond_atom_site_label_2
_geom_bond_distance
_geom_bond_site_symmetry_2
Mg0 O2 2.220533 1_554
Mg0 O15 2.220533 1_555
Mg0 O13 2.220533 1_555
Mg0 O22 2.220533 1_555
Mg0 O9 2.333415 1_555
Mg0 O18 2.333415 1_555
Mg0 O3 2.333415 1_555
Mg0 O16 2.333415 1_554
Mg1 O21 2.220533 1_555
Mg1 O7 2.220533 1_555
Mg1 O11 2.220533 1_545
Mg1 O10 2.220533 1_555
Mg1 O14 2.333415 1_555
Mg1 O17 2.333415 1_555
Mg1 O0 2.333415 1_545
Mg1 O12 2.333415 1_555
Mg2 O47 2.220533 1_545
Mg2 O14 2.220533 1_555
Mg2 O5 2.220533 1_555
Mg2 O9 2.220533 1_555
Mg2 O22 2.333415 1_555
Mg2 O6 2.333415 1_555
Mg2 O21 2.333415 1_555
Mg2 O4 2.333415 1_545
Mg3 O16 2.220533 1_555
Mg3 O20 2.220533 1_555
Mg3 O12 2.220533 1_455
Mg3 O1 2.220533 1_555
Mg3 O8 2.333415 1_555
Mg3 O2 2.333415 1_555
Mg3 O23 2.333415 1_555
Mg3 O7 2.333415 1_455
Mg4 O44 2.220533 1_565
Mg4 O31 2.220533 1_555
Mg4 O45 2.220533 1_555
Mg4 O34 2.220533 1_555
Mg4 O24 2.333415 1_565
Mg4 O43 2.333415 1_555
Mg4 O41 2.333415 1_555
Mg4 O38 2.333415 1_555
Mg5 O8 2.220533 1_555
Mg5 O18 2.220533 1_555
Mg5 O6 2.220533 1_555
Mg5 O17 2.220533 1_455
Mg5 O13 2.333415 1_555
Mg5 O5 2.333415 1_555
Mg5 O10 2.333415 1_455
Mg5 O20 2.333415 1_555
Mg6 O32 2.220533 1_556
Mg6 O24 2.220533 1_555
Mg6 O27 2.220533 1_555
Mg6 O28 2.220533 1_555
Mg6 O25 2.333415 1_556
Mg6 O44 2.333415 1_555
Mg6 O40 2.333415 1_555
Mg6 O35 2.333415 1_555
Mg7 O26 2.220533 1_556
Mg7 O42 2.220533 1_555
Mg7 O33 2.220533 1_555
Mg7 O40 2.220533 1_555
Mg7 O27 2.333415 1_555
Mg7 O39 2.333415 1_556
Mg7 O46 2.333415 1_555
Mg7 O37 2.333415 1_555
Mg8 O38 2.220533 1_655
Mg8 O30 2.220533 1_555
Mg8 O37 2.220533 1_555
Mg8 O19 2.220533 1_555
Mg8 O36 2.333415 1_555
Mg8 O45 2.333415 1_655
Mg8 O42 2.333415 1_555
Mg8 O29 2.333415 1_555
Mg9 O43 2.220533 1_655
Mg9 O25 2.220533 1_555
Mg9 O39 2.220533 1_555
Mg9 O36 2.220533 1_555
Mg9 O32 2.333415 1_555
Mg9 O31 2.333415 1_655
Mg9 O26 2.333415 1_555
Mg9 O19 2.333415 1_555
Mg10 O35 2.220533 1_565
Mg10 O41 2.220533 1_555
Mg10 O46 2.220533 1_555
Mg10 O29 2.220533 1_555
Mg10 O28 2.333415 1_565
Mg10 O34 2.333415 1_555
Mg10 O33 2.333415 1_555
Mg10 O30 2.333415 1_555
Mg11 O3 2.220533 1_555
Mg11 O4 2.220533 1_555
Mg11 O0 2.220533 1_555
Mg11 O23 2.220533 1_554
Mg11 O47 2.333415 1_555
Mg11 O15 2.333415 1_555
Mg11 O1 2.333415 1_554
Mg11 O11 2.333415 1_555
Ni0 O14 1.984308 1_555
Ni0 O11 1.984308 1_545
Ni0 O4 1.984308 1_545
Ni0 O44 1.984308 1_554
Ni0 O41 1.984308 1_544
Ni0 O28 1.984308 1_554
Ni1 O2 1.984308 1_554
Ni1 O3 1.984308 1_555
Ni1 O1 1.984308 1_554
Ni1 O25 1.984308 1_555
Ni1 O27 1.984308 1_554
Ni1 O26 1.984308 1_555
Ni2 O17 1.984308 1_455
Ni2 O31 1.984308 1_555
Ni2 O7 1.984308 1_455
Ni2 O20 1.984308 1_555
Ni2 O36 1.984308 1_455
Ni2 O38 1.984308 1_555
Ni3 O8 1.984308 1_555
Ni3 O10 1.984308 1_455
Ni3 O12 1.984308 1_455
Ni3 O43 1.984308 1_545
Ni3 O45 1.984308 1_545
Ni3 O19 1.984308 1_445
Ni4 O9 1.984308 1_555
Ni4 O6 1.984308 1_555
Ni4 O13 1.984308 1_555
Ni4 O30 1.984308 1_555
Ni4 O42 1.984308 1_555
Ni4 O46 1.984308 1_555
Ni5 O15 1.984308 1_555
Ni5 O16 1.984308 1_554
Ni5 O32 1.984308 1_455
Ni5 O23 1.984308 1_554
Ni5 O39 1.984308 1_455
Ni5 O40 1.984308 1_454
Ni6 O47 1.984308 1_545
Ni6 O21 1.984308 1_555
Ni6 O24 1.984308 1_555
Ni6 O0 1.984308 1_545
Ni6 O34 1.984308 1_545
Ni6 O35 1.984308 1_555
Ni7 O5 1.984308 1_555
Ni7 O18 1.984308 1_555
Ni7 O22 1.984308 1_555
Ni7 O29 1.984308 1_444
Ni7 O33 1.984308 1_444
Ni7 O37 1.984308 1_444
O0 Si11 1.650744 1_555
O1 Si5 1.650744 1_555
O2 Si4 1.650744 1_555
O3 Si11 1.650744 1_555
O4 Si0 1.650744 1_554
O5 Si3 1.650744 1_545
O6 Si6 1.650744 1_555
O7 Si2 1.650744 1_555
O8 Si6 1.650744 1_555
O9 Si8 1.650744 1_555
O10 Si9 1.650744 1_545
O11 Si9 1.650744 1_555
O12 Si7 1.650744 1_555
O13 Si10 1.650744 1_555
O14 Si8 1.650744 1_555
O15 Si10 1.650744 1_555
O16 Si7 1.650744 1_455
O17 Si1 1.650744 1_555
O18 Si1 1.650744 1_455
O19 Si11 1.650744 1_555
O20 Si5 1.650744 1_555
O21 Si2 1.650744 1_555
O22 Si4 1.650744 1_554
O23 Si0 1.650744 1_555
O24 Si6 1.650744 1_555
O25 Si8 1.650744 1_555
O26 Si9 1.650744 1_555
O27 Si6 1.650744 1_555
O28 Si1 1.650744 1_556
O29 Si7 1.650744 1_565
O30 Si11 1.650744 1_555
O31 Si10 1.650744 1_555
O32 Si1 1.650744 1_555
O33 Si9 1.650744 1_556
O34 Si10 1.650744 1_555
O35 Si7 1.650744 1_555
O36 Si8 1.650744 1_555
O37 Si0 1.650744 1_655
O38 Si0 1.650744 1_555
O39 Si3 1.650744 1_655
O40 Si2 1.650744 1_555
O41 Si5 1.650744 1_555
O42 Si2 1.650744 1_555
O43 Si3 1.650744 1_555
O44 Si4 1.650744 1_555
O45 Si4 1.650744 1_565
O46 Si5 1.650744 1_555
O47 Si3 1.650744 1_555
