# generated using pymatgen
data_ZnS
_symmetry_space_group_name_H-M   'P 1'
_cell_length_a   13.38728953
_cell_length_b   14.09399096
_cell_length_c   12.61785104
_cell_angle_alpha   88.28016196
_cell_angle_beta   82.70308814
_cell_angle_gamma   86.97231284
_symmetry_Int_Tables_number   1
_chemical_formula_structural   ZnS
_chemical_formula_sum   'Zn50 S50'
_cell_volume   2357.51044038
_cell_formula_units_Z   50
loop_
 _symmetry_equiv_pos_site_id
 _symmetry_equiv_pos_as_xyz
  1  'x, y, z'
loop_
 _atom_site_type_symbol
 _atom_site_label
 _atom_site_symmetry_multiplicity
 _atom_site_fract_x
 _atom_site_fract_y
 _atom_site_fract_z
 _atom_site_occupancy
  Zn  Zn0  1  0.47219952  0.50431897  0.86601483  1
  Zn  Zn1  1  0.38543585  0.14067577  0.77684982  1
  Zn  Zn2  1  0.67446729  0.33044392  0.85053870  1
  Zn  Zn3  1  0.47145744  0.09226454  0.59597886  1
  Zn  Zn4  1  0.94847908  0.88996169  0.30101173  1
  Zn  Zn5  1  0.86030498  0.60829590  0.54460190  1
  Zn  Zn6  1  0.95766465  0.15977329  0.87921681  1
  Zn  Zn7  1  0.65673783  0.70946236  0.94952793  1
  Zn  Zn8  1  0.98805990  0.35239786  0.07092107  1
  Zn  Zn9  1  0.10254190  0.16985811  0.71900081  1
  Zn  Zn10  1  0.52048431  0.32659357  0.32594582  1
  Zn  Zn11  1  0.79109838  0.54593464  0.82688372  1
  Zn  Zn12  1  0.47766639  0.07012580  0.97218750  1
  Zn  Zn13  1  0.04381593  0.10977396  0.21865277  1
  Zn  Zn14  1  0.14093629  0.65276744  0.40429929  1
  Zn  Zn15  1  0.56974069  0.31133456  0.12342551  1
  Zn  Zn16  1  0.36699269  0.25570266  0.59672157  1
  Zn  Zn17  1  0.78821348  0.13444867  0.25368689  1
  Zn  Zn18  1  0.58602628  0.08210322  0.12608759  1
  Zn  Zn19  1  0.08089078  0.90176977  0.62018944  1
  Zn  Zn20  1  0.36699731  0.80614601  0.38684164  1
  Zn  Zn21  1  0.62306513  0.87757178  0.28803960  1
  Zn  Zn22  1  0.94270798  0.05901920  0.52830324  1
  Zn  Zn23  1  0.54095205  0.92362871  0.54355025  1
  Zn  Zn24  1  0.26499118  0.36709637  0.29794300  1
  Zn  Zn25  1  0.14639441  0.11610451  0.91660692  1
  Zn  Zn26  1  0.11349871  0.82584448  0.88765021  1
  Zn  Zn27  1  0.66428838  0.46716992  0.67521982  1
  Zn  Zn28  1  0.55726460  0.26013378  0.58121726  1
  Zn  Zn29  1  0.61420918  0.95182561  0.91022685  1
  Zn  Zn30  1  0.25952036  0.69194144  0.18417618  1
  Zn  Zn31  1  0.30600721  0.64135029  0.62372132  1
  Zn  Zn32  1  0.48819457  0.98564294  0.76492779  1
  Zn  Zn33  1  0.86902509  0.52531773  0.13400228  1
  Zn  Zn34  1  0.44648981  0.19431916  0.20256061  1
  Zn  Zn35  1  0.63370660  0.76398436  0.72123759  1
  Zn  Zn36  1  0.69563879  0.43707954  0.38352657  1
  Zn  Zn37  1  0.03949042  0.57621638  0.71950539  1
  Zn  Zn38  1  0.19211121  0.41516021  0.53294504  1
  Zn  Zn39  1  0.61974947  0.54355940  0.10047164  1
  Zn  Zn40  1  0.40648734  0.54453791  0.36747103  1
  Zn  Zn41  1  0.00234731  0.25804935  0.45529621  1
  Zn  Zn42  1  0.23356532  0.43254338  0.79576008  1
  Zn  Zn43  1  0.81288196  0.79675625  0.36922100  1
  Zn  Zn44  1  0.25254231  0.22543058  0.11306438  1
  Zn  Zn45  1  0.61132780  0.68893008  0.45901744  1
  Zn  Zn46  1  0.98238662  0.49121910  0.32098377  1
  Zn  Zn47  1  0.15612510  0.55308834  0.98818993  1
  Zn  Zn48  1  0.30476616  0.80293676  0.97221376  1
  Zn  Zn49  1  0.29752878  0.88840603  0.72244391  1
  S  S0  1  0.61290880  0.60901521  0.80527182  1
  S  S1  1  0.92214107  0.14632969  0.35545197  1
  S  S2  1  0.47227630  0.92868426  0.37397626  1
  S  S3  1  0.95722472  0.87137806  0.97229792  1
  S  S4  1  0.33204394  0.36561489  0.10883725  1
  S  S5  1  0.28753997  0.19138856  0.28515864  1
  S  S6  1  0.56508810  0.48962118  0.27632229  1
  S  S7  1  0.16371565  0.70943155  0.03147113  1
  S  S8  1  0.62581314  0.17495509  0.86338449  1
  S  S9  1  0.16305043  0.57527003  0.57084767  1
  S  S10  1  0.46627766  0.83264841  0.70715325  1
  S  S11  1  0.73169304  0.08080934  0.92463112  1
  S  S12  1  0.37113635  0.38038834  0.44638530  1
  S  S13  1  0.24152524  0.93679916  0.89887010  1
  S  S14  1  0.34200452  0.55458955  0.76721977  1
  S  S15  1  0.68416004  0.81118816  0.54259584  1
  S  S16  1  0.07747669  0.95403564  0.17187582  1
  S  S17  1  0.84423545  0.41796025  0.27226240  1
  S  S18  1  0.32130336  0.15108782  0.95525101  1
  S  S19  1  0.96583300  0.64124535  0.39143694  1
  S  S20  1  0.85801664  0.28474306  0.99238095  1
  S  S21  1  0.72034946  0.83171669  0.84795207  1
  S  S22  1  0.85323005  0.06024134  0.81131936  1
  S  S23  1  0.04275537  0.49055206  0.13013967  1
  S  S24  1  0.57861951  0.42310522  0.98858830  1
  S  S25  1  0.16195227  0.05259017  0.59144282  1
  S  S26  1  0.65332460  0.27512542  0.42037492  1
  S  S27  1  0.09550235  0.37931678  0.39625230  1
  S  S28  1  0.80466787  0.39994042  0.74958939  1
  S  S29  1  0.70358360  0.54889492  0.51613121  1
  S  S30  1  0.74984384  0.24729115  0.12077188  1
  S  S31  1  0.77881422  0.58989168  0.01132937  1
  S  S32  1  0.69113028  0.72634463  0.28586758  1
  S  S33  1  0.43013071  0.67125140  0.47805056  1
  S  S34  1  0.21335271  0.79455673  0.32912926  1
  S  S35  1  0.08840032  0.21207464  0.08101506  1
  S  S36  1  0.53990557  0.70644828  0.10272761  1
  S  S37  1  0.20864970  0.30856239  0.67808021  1
  S  S38  1  0.95769564  0.19499444  0.61778350  1
  S  S39  1  0.99386634  0.99200212  0.03763859  1
  S  S40  1  0.25764215  0.55104526  0.28961445  1
  S  S41  1  0.16865919  0.78442867  0.70491802  1
  S  S42  1  0.31160881  -0.00000653  0.58127341  1
  S  S43  1  0.71360700  0.00276710  0.20242938  1
  S  S44  1  0.88768801  0.64981549  0.71041367  1
  S  S45  1  0.53894745  0.36070077  0.72439572  1
  S  S46  1  0.07054248  0.48168112  0.86140579  1
  S  S47  1  0.94472355  0.90368186  0.53774835  1
  S  S48  1  0.31071186  0.45345438  0.97656265  1
  S  S49  1  0.40134318  0.68826050  0.04546168  1
loop_
_geom_bond_atom_site_label_1
_geom_bond_atom_site_label_2
_geom_bond_distance
_geom_bond_site_symmetry_2
S0 Zn35 2.412986 1_555
S0 Zn0 2.484387 1_555
S0 Zn7 2.485024 1_555
S0 Zn11 2.545964 1_555
S0 Zn27 2.632018 1_555
S1 Zn13 2.269079 1_655
S1 Zn17 2.349652 1_555
S1 Zn41 2.420879 1_655
S1 Zn22 2.510485 1_555
S2 Zn21 2.259853 1_555
S2 Zn20 2.275447 1_555
S2 Zn23 2.431484 1_555
S3 S39 2.021279 1_556
S3 Zn26 2.293718 1_655
S4 S48 2.087955 1_554
S4 Zn44 2.289237 1_555
S4 Zn24 2.440625 1_555
S5 Zn34 2.249277 1_555
S5 Zn44 2.310217 1_555
S5 Zn24 2.486456 1_555
S6 Zn39 2.362580 1_555
S6 Zn40 2.385257 1_555
S6 Zn36 2.415855 1_555
S6 Zn10 2.447792 1_555
S7 Zn47 2.296511 1_554
S7 Zn48 2.388832 1_554
S7 Zn30 2.446259 1_555
S7 Zn26 2.540030 1_554
S8 Zn2 2.314230 1_555
S8 Zn12 2.738102 1_555
S9 Zn38 2.323152 1_555
S9 Zn37 2.337894 1_555
S9 Zn31 2.350540 1_555
S9 Zn14 2.383900 1_555
S10 Zn49 2.338614 1_555
S10 Zn32 2.341513 1_555
S10 Zn35 2.419464 1_555
S10 Zn23 2.521373 1_555
S11 S22 2.039520 1_555
S11 S8 2.094047 1_555
S11 Zn29 2.491170 1_545
S11 Zn18 3.000748 1_556
S12 Zn10 2.453355 1_555
S12 Zn24 2.507552 1_555
S12 Zn38 2.533806 1_555
S12 Zn40 2.534859 1_555
S12 Zn16 2.544215 1_555
S13 Zn48 2.249038 1_555
S13 Zn49 2.365600 1_555
S13 Zn26 2.400230 1_555
S13 Zn25 2.771271 1_565
S14 Zn31 2.243304 1_555
S14 Zn42 2.299945 1_555
S14 Zn0 2.337160 1_555
S15 Zn35 2.355926 1_555
S15 Zn45 2.362129 1_555
S15 Zn23 2.421032 1_555
S15 Zn43 2.613172 1_555
S16 S39 2.184498 1_455
S16 Zn13 2.296749 1_565
S16 Zn4 2.411312 1_455
S17 Zn33 2.278281 1_555
S17 Zn36 2.292940 1_555
S17 Zn46 2.322323 1_555
S18 Zn1 2.311152 1_555
S18 Zn44 2.338393 1_556
S18 Zn12 2.361400 1_555
S18 Zn25 2.527879 1_555
S19 Zn5 2.295289 1_555
S19 Zn46 2.307301 1_555
S19 Zn14 2.384581 1_655
S20 S30 2.105628 1_556
S20 Zn8 2.364841 1_556
S20 Zn6 2.517858 1_555
S21 Zn29 2.245936 1_555
S21 Zn7 2.254324 1_555
S21 Zn35 2.343660 1_555
S22 Zn6 2.289122 1_555
S23 Zn8 2.294073 1_455
S23 Zn33 2.346052 1_455
S23 Zn47 2.375786 1_554
S23 Zn46 2.440922 1_455
S24 Zn15 2.279875 1_556
S24 Zn39 2.370303 1_556
S24 Zn2 2.403736 1_555
S24 Zn0 2.452157 1_555
S25 S42 2.088898 1_555
S25 Zn9 2.377053 1_555
S25 Zn19 2.434144 1_545
S26 Zn28 2.270947 1_555
S26 Zn10 2.336354 1_555
S26 Zn36 2.398587 1_555
S27 Zn41 2.223548 1_555
S27 Zn38 2.364466 1_555
S27 Zn46 2.388652 1_455
S27 Zn24 2.444034 1_555
S28 Zn2 2.271894 1_555
S28 Zn11 2.292169 1_555
S28 Zn27 2.348754 1_555
S29 Zn27 2.299981 1_555
S29 Zn36 2.348529 1_555
S29 Zn5 2.372115 1_555
S29 Zn45 2.413137 1_555
S30 Zn17 2.361849 1_555
S30 Zn15 2.525992 1_555
S31 Zn33 2.226401 1_555
S31 Zn39 2.391752 1_555
S31 Zn11 2.409520 1_554
S31 Zn7 2.464313 1_554
S32 Zn21 2.272860 1_555
S32 Zn43 2.327362 1_555
S32 Zn45 2.364344 1_555
S33 Zn40 2.357517 1_555
S33 Zn31 2.359839 1_555
S33 Zn20 2.366305 1_555
S33 Zn45 2.432331 1_555
S34 Zn20 2.282729 1_555
S34 Zn30 2.365605 1_555
S34 Zn14 2.385433 1_555
S35 Zn13 2.264619 1_555
S35 Zn44 2.302521 1_555
S35 Zn8 2.340875 1_455
S35 Zn25 2.526683 1_554
S36 S49 2.104895 1_555
S36 Zn7 2.327847 1_554
S36 Zn39 2.480081 1_555
S37 Zn16 2.329949 1_555
S37 Zn38 2.358504 1_555
S37 Zn42 2.390099 1_555
S37 Zn9 2.480418 1_555
S38 Zn41 2.232939 1_655
S38 Zn22 2.283806 1_555
S38 Zn9 2.458876 1_655
S39 Zn25 2.997647 1_664
S40 Zn40 2.327363 1_555
S40 Zn30 2.356303 1_555
S40 Zn14 2.429826 1_555
S40 Zn24 2.588724 1_555
S41 Zn19 2.294842 1_555
S41 Zn49 2.357174 1_555
S41 Zn26 2.409350 1_555
S41 Zn31 2.784024 1_555
S42 Zn49 2.336609 1_545
S42 Zn3 2.591200 1_555
S43 Zn18 2.290596 1_555
S43 Zn17 2.300488 1_555
S43 Zn21 2.351269 1_545
S44 Zn37 2.246883 1_655
S44 Zn5 2.268269 1_555
S44 Zn11 2.358700 1_555
S45 Zn28 2.310281 1_555
S45 Zn27 2.323350 1_555
S45 Zn2 2.572498 1_555
S45 Zn0 2.776548 1_555
S46 Zn37 2.267426 1_555
S46 Zn42 2.311774 1_555
S46 Zn47 2.359820 1_555
S47 Zn22 2.187917 1_565
S47 Zn19 2.209213 1_655
S48 Zn47 2.429915 1_555
S48 Zn0 2.543819 1_555
S48 Zn42 2.651232 1_555
S49 Zn48 2.265213 1_554
S49 Zn30 2.412848 1_555
