# generated using pymatgen
data_Zr2Cu3Sb
_symmetry_space_group_name_H-M   'P 1'
_cell_length_a   5.59065000
_cell_length_b   5.59065000
_cell_length_c   32.22358000
_cell_angle_alpha   90.00000000
_cell_angle_beta   90.00000000
_cell_angle_gamma   90.00000000
_symmetry_Int_Tables_number   1
_chemical_formula_structural   Zr2Cu3Sb
_chemical_formula_sum   'Zr16 Cu24 Sb8'
_cell_volume   1007.15983257
_cell_formula_units_Z   8
loop_
 _symmetry_equiv_pos_site_id
 _symmetry_equiv_pos_as_xyz
  1  'x, y, z'
loop_
 _atom_site_type_symbol
 _atom_site_label
 _atom_site_symmetry_multiplicity
 _atom_site_fract_x
 _atom_site_fract_y
 _atom_site_fract_z
 _atom_site_occupancy
  Zr  Zr0_0  1  0.25000000  0.25000000  0.08597500  1
  Zr  Zr0_1  1  0.25000000  0.25000000  0.58597500  1
  Zr  Zr0_2  1  0.25000000  0.75000000  0.08597500  1
  Zr  Zr0_3  1  0.25000000  0.75000000  0.58597500  1
  Zr  Zr0_4  1  0.75000000  0.25000000  0.08597500  1
  Zr  Zr0_5  1  0.75000000  0.25000000  0.58597500  1
  Zr  Zr0_6  1  0.75000000  0.75000000  0.08597500  1
  Zr  Zr0_7  1  0.75000000  0.75000000  0.58597500  1
  Zr  Zr1_0  1  0.25000000  0.25000000  0.41402500  1
  Zr  Zr1_1  1  0.25000000  0.25000000  0.91402500  1
  Zr  Zr1_2  1  0.25000000  0.75000000  0.41402500  1
  Zr  Zr1_3  1  0.25000000  0.75000000  0.91402500  1
  Zr  Zr1_4  1  0.75000000  0.25000000  0.41402500  1
  Zr  Zr1_5  1  0.75000000  0.25000000  0.91402500  1
  Zr  Zr1_6  1  0.75000000  0.75000000  0.41402500  1
  Zr  Zr1_7  1  0.75000000  0.75000000  0.91402500  1
  Cu  Cu0_0  1  0.25000000  0.25000000  0.33251300  1
  Cu  Cu0_1  1  0.25000000  0.25000000  0.83251300  1
  Cu  Cu0_2  1  0.25000000  0.75000000  0.33251300  1
  Cu  Cu0_3  1  0.25000000  0.75000000  0.83251300  1
  Cu  Cu0_4  1  0.75000000  0.25000000  0.33251300  1
  Cu  Cu0_5  1  0.75000000  0.25000000  0.83251300  1
  Cu  Cu0_6  1  0.75000000  0.75000000  0.33251300  1
  Cu  Cu0_7  1  0.75000000  0.75000000  0.83251300  1
  Cu  Cu1_0  1  0.25000000  0.25000000  0.16748700  1
  Cu  Cu1_1  1  0.25000000  0.25000000  0.66748700  1
  Cu  Cu1_2  1  0.25000000  0.75000000  0.16748700  1
  Cu  Cu1_3  1  0.25000000  0.75000000  0.66748700  1
  Cu  Cu1_4  1  0.75000000  0.25000000  0.16748700  1
  Cu  Cu1_5  1  0.75000000  0.25000000  0.66748700  1
  Cu  Cu1_6  1  0.75000000  0.75000000  0.16748700  1
  Cu  Cu1_7  1  0.75000000  0.75000000  0.66748700  1
  Cu  Cu2_0  1  0.25000000  0.25000000  0.00000000  1
  Cu  Cu2_1  1  0.25000000  0.25000000  0.50000000  1
  Cu  Cu2_2  1  0.25000000  0.75000000  0.00000000  1
  Cu  Cu2_3  1  0.25000000  0.75000000  0.50000000  1
  Cu  Cu2_4  1  0.75000000  0.25000000  0.00000000  1
  Cu  Cu2_5  1  0.75000000  0.25000000  0.50000000  1
  Cu  Cu2_6  1  0.75000000  0.75000000  0.00000000  1
  Cu  Cu2_7  1  0.75000000  0.75000000  0.50000000  1
  Sb  Sb0_0  1  0.25000000  0.25000000  0.25000000  1
  Sb  Sb0_1  1  0.25000000  0.25000000  0.75000000  1
  Sb  Sb0_2  1  0.25000000  0.75000000  0.25000000  1
  Sb  Sb0_3  1  0.25000000  0.75000000  0.75000000  1
  Sb  Sb0_4  1  0.75000000  0.25000000  0.25000000  1
  Sb  Sb0_5  1  0.75000000  0.25000000  0.75000000  1
  Sb  Sb0_6  1  0.75000000  0.75000000  0.25000000  1
  Sb  Sb0_7  1  0.75000000  0.75000000  0.75000000  1
loop_
_geom_bond_atom_site_label_1
_geom_bond_atom_site_label_2
_geom_bond_distance
_geom_bond_site_symmetry_2
Zr0_0 Zr0_2 2.795325 1_555
Zr0_0 Zr0_2 2.795325 1_545
Zr0_0 Zr0_4 2.795325 1_455
Zr0_0 Zr0_4 2.795325 1_555
Zr0_1 Zr0_5 2.795325 1_555
Zr0_1 Zr0_3 2.795325 1_555
Zr0_1 Zr0_3 2.795325 1_545
Zr0_1 Zr0_5 2.795325 1_455
Zr0_2 Zr0_6 2.795325 1_455
Zr0_2 Zr0_6 2.795325 1_555
Zr0_3 Zr0_7 2.795325 1_455
Zr0_3 Zr0_7 2.795325 1_555
Zr0_4 Zr0_6 2.795325 1_545
Zr0_4 Zr0_6 2.795325 1_555
Zr0_5 Zr0_7 2.795325 1_545
Zr0_5 Zr0_7 2.795325 1_555
Zr1_0 Zr1_2 2.795325 1_545
Zr1_0 Zr1_4 2.795325 1_455
Zr1_0 Zr1_4 2.795325 1_555
Zr1_0 Zr1_2 2.795325 1_555
Zr1_1 Zr1_3 2.795325 1_555
Zr1_1 Zr1_3 2.795325 1_545
Zr1_1 Zr1_5 2.795325 1_455
Zr1_1 Zr1_5 2.795325 1_555
Zr1_2 Zr1_6 2.795325 1_555
Zr1_2 Zr1_6 2.795325 1_455
Zr1_3 Zr1_7 2.795325 1_455
Zr1_3 Zr1_7 2.795325 1_555
Zr1_4 Zr1_6 2.795325 1_555
Zr1_4 Zr1_6 2.795325 1_545
Zr1_5 Zr1_7 2.795325 1_555
Zr1_5 Zr1_7 2.795325 1_545
Cu0_0 Zr1_0 2.626608 1_555
Cu0_0 Sb0_0 2.658864 1_555
Cu0_0 Cu0_4 2.795325 1_455
Cu0_0 Cu0_2 2.795325 1_545
Cu0_0 Cu0_2 2.795325 1_555
Cu0_0 Cu0_4 2.795325 1_555
Cu0_1 Zr1_1 2.626608 1_555
Cu0_1 Sb0_1 2.658864 1_555
Cu0_1 Cu0_5 2.795325 1_555
Cu0_1 Cu0_5 2.795325 1_455
Cu0_1 Cu0_3 2.795325 1_545
Cu0_1 Cu0_3 2.795325 1_555
Cu0_2 Zr1_2 2.626608 1_555
Cu0_2 Sb0_2 2.658864 1_555
Cu0_2 Cu0_6 2.795325 1_455
Cu0_2 Cu0_6 2.795325 1_555
Cu0_3 Zr1_3 2.626608 1_555
Cu0_3 Sb0_3 2.658864 1_555
Cu0_3 Cu0_7 2.795325 1_455
Cu0_3 Cu0_7 2.795325 1_555
Cu0_4 Zr1_4 2.626608 1_555
Cu0_4 Sb0_4 2.658864 1_555
Cu0_4 Cu0_6 2.795325 1_545
Cu0_4 Cu0_6 2.795325 1_555
Cu0_5 Zr1_5 2.626608 1_555
Cu0_5 Sb0_5 2.658864 1_555
Cu0_5 Cu0_7 2.795325 1_545
Cu0_5 Cu0_7 2.795325 1_555
Cu0_6 Zr1_6 2.626608 1_555
Cu0_6 Sb0_6 2.658864 1_555
Cu0_7 Zr1_7 2.626608 1_555
Cu0_7 Sb0_7 2.658864 1_555
Cu1_0 Zr0_0 2.626608 1_555
Cu1_0 Sb0_0 2.658864 1_555
Cu1_0 Cu1_2 2.795325 1_545
Cu1_0 Cu1_4 2.795325 1_455
Cu1_0 Cu1_2 2.795325 1_555
Cu1_0 Cu1_4 2.795325 1_555
Cu1_1 Zr0_1 2.626608 1_555
Cu1_1 Sb0_1 2.658864 1_555
Cu1_1 Cu1_5 2.795325 1_455
Cu1_1 Cu1_5 2.795325 1_555
Cu1_1 Cu1_3 2.795325 1_545
Cu1_1 Cu1_3 2.795325 1_555
Cu1_2 Zr0_2 2.626608 1_555
Cu1_2 Sb0_2 2.658864 1_555
Cu1_2 Cu1_6 2.795325 1_455
Cu1_2 Cu1_6 2.795325 1_555
Cu1_3 Zr0_3 2.626608 1_555
Cu1_3 Sb0_3 2.658864 1_555
Cu1_3 Cu1_7 2.795325 1_555
Cu1_3 Cu1_7 2.795325 1_455
Cu1_4 Zr0_4 2.626608 1_555
Cu1_4 Sb0_4 2.658864 1_555
Cu1_4 Cu1_6 2.795325 1_545
Cu1_4 Cu1_6 2.795325 1_555
Cu1_5 Zr0_5 2.626608 1_555
Cu1_5 Sb0_5 2.658864 1_555
Cu1_5 Cu1_7 2.795325 1_555
Cu1_5 Cu1_7 2.795325 1_545
Cu1_6 Zr0_6 2.626608 1_555
Cu1_6 Sb0_6 2.658864 1_555
Cu1_7 Zr0_7 2.626608 1_555
Cu1_7 Sb0_7 2.658864 1_555
Cu2_0 Zr0_0 2.770422 1_555
Cu2_0 Zr1_1 2.770422 1_554
Cu2_0 Cu2_4 2.795325 1_455
Cu2_0 Cu2_2 2.795325 1_545
Cu2_0 Cu2_2 2.795325 1_555
Cu2_0 Cu2_4 2.795325 1_555
Cu2_1 Zr1_0 2.770422 1_555
Cu2_1 Zr0_1 2.770422 1_555
Cu2_1 Cu2_5 2.795325 1_555
Cu2_1 Cu2_3 2.795325 1_545
Cu2_1 Cu2_3 2.795325 1_555
Cu2_1 Cu2_5 2.795325 1_455
Cu2_2 Zr0_2 2.770422 1_555
Cu2_2 Zr1_3 2.770422 1_554
Cu2_2 Cu2_6 2.795325 1_555
Cu2_2 Cu2_6 2.795325 1_455
Cu2_3 Zr0_3 2.770422 1_555
Cu2_3 Zr1_2 2.770422 1_555
Cu2_3 Cu2_7 2.795325 1_455
Cu2_3 Cu2_7 2.795325 1_555
Cu2_4 Zr0_4 2.770422 1_555
Cu2_4 Zr1_5 2.770422 1_554
Cu2_4 Cu2_6 2.795325 1_555
Cu2_4 Cu2_6 2.795325 1_545
Cu2_5 Zr1_4 2.770422 1_555
Cu2_5 Zr0_5 2.770422 1_555
Cu2_5 Cu2_7 2.795325 1_545
Cu2_5 Cu2_7 2.795325 1_555
Cu2_6 Zr0_6 2.770422 1_555
Cu2_6 Zr1_7 2.770422 1_554
Cu2_7 Zr0_7 2.770422 1_555
Cu2_7 Zr1_6 2.770422 1_555
Sb0_0 Sb0_4 2.795325 1_455
Sb0_0 Sb0_4 2.795325 1_555
Sb0_0 Sb0_2 2.795325 1_555
Sb0_0 Sb0_2 2.795325 1_545
Sb0_1 Sb0_3 2.795325 1_555
Sb0_1 Sb0_3 2.795325 1_545
Sb0_1 Sb0_5 2.795325 1_455
Sb0_1 Sb0_5 2.795325 1_555
Sb0_2 Sb0_6 2.795325 1_555
Sb0_2 Sb0_6 2.795325 1_455
Sb0_3 Sb0_7 2.795325 1_455
Sb0_3 Sb0_7 2.795325 1_555
Sb0_4 Sb0_6 2.795325 1_555
Sb0_4 Sb0_6 2.795325 1_545
Sb0_5 Sb0_7 2.795325 1_545
Sb0_5 Sb0_7 2.795325 1_555
