# generated using pymatgen
data_Mg2BiWO6
_symmetry_space_group_name_H-M   'P 1'
_cell_length_a   5.60647200
_cell_length_b   5.51520300
_cell_length_c   9.78610241
_cell_angle_alpha   56.05803142
_cell_angle_beta   90.00000000
_cell_angle_gamma   90.00000000
_symmetry_Int_Tables_number   1
_chemical_formula_structural   Mg2BiWO6
_chemical_formula_sum   'Mg4 Bi2 W2 O12'
_cell_volume   251.03339632
_cell_formula_units_Z   2
loop_
 _symmetry_equiv_pos_site_id
 _symmetry_equiv_pos_as_xyz
  1  'x, y, z'
loop_
 _atom_site_type_symbol
 _atom_site_label
 _atom_site_symmetry_multiplicity
 _atom_site_fract_x
 _atom_site_fract_y
 _atom_site_fract_z
 _atom_site_occupancy
  Mg  Mg0  1  0.47950800  0.21221300  0.76288000  1
  Mg  Mg1  1  0.97950800  0.78778700  0.73712000  1
  Mg  Mg2  1  0.52049200  0.78778700  0.23712000  1
  Mg  Mg3  1  0.02049200  0.21221300  0.26288000  1
  Bi  Bi0  1  0.50000000  0.00000000  0.50000000  1
  Bi  Bi1  1  0.00000000  0.00000000  0.00000000  1
  W  W0  1  0.50000000  0.50000000  0.00000000  1
  W  W1  1  0.00000000  0.50000000  0.50000000  1
  O  O0  1  0.18819900  0.46130800  0.90882600  1
  O  O1  1  0.68819900  0.53869200  0.59117400  1
  O  O2  1  0.81180100  0.53869200  0.09117400  1
  O  O3  1  0.31180100  0.46130800  0.40882600  1
  O  O4  1  0.36539600  0.76096700  0.05705100  1
  O  O5  1  0.86539600  0.23903300  0.44294900  1
  O  O6  1  0.63460400  0.23903300  0.94294900  1
  O  O7  1  0.13460400  0.76096700  0.55705100  1
  O  O8  1  0.12457300  0.14309200  0.72518900  1
  O  O9  1  0.62457300  0.85690800  0.77481100  1
  O  O10  1  0.37542700  0.14309200  0.22518900  1
  O  O11  1  0.87542700  0.85690800  0.27481100  1
loop_
_geom_bond_atom_site_label_1
_geom_bond_atom_site_label_2
_geom_bond_distance
_geom_bond_site_symmetry_2
Mg0 O1 2.013929 1_555
Mg0 O6 2.043114 1_555
Mg0 O9 2.063867 1_545
Mg0 O8 2.097196 1_555
Mg0 O4 2.624843 1_546
Mg1 O0 2.013929 1_655
Mg1 O7 2.043114 1_655
Mg1 O8 2.063867 1_665
Mg1 O9 2.097196 1_555
Mg1 O5 2.624843 1_565
Mg2 O3 2.013929 1_555
Mg2 O4 2.043114 1_555
Mg2 O10 2.063867 1_565
Mg2 O11 2.097196 1_555
Mg2 O6 2.624843 1_564
Mg3 O2 2.013929 1_455
Mg3 O5 2.043114 1_455
Mg3 O11 2.063867 1_445
Mg3 O10 2.097196 1_555
Mg3 O7 2.624843 1_545
Bi0 O7 2.329040 1_545
Bi0 O5 2.329040 1_555
Bi0 O3 2.418144 1_555
Bi0 O1 2.418144 1_545
Bi0 O9 2.443976 1_545
Bi0 O10 2.443976 1_555
Bi1 O4 2.329040 1_545
Bi1 O6 2.329040 1_454
Bi1 O0 2.418144 1_554
Bi1 O2 2.418144 1_445
Bi1 O11 2.443976 1_445
Bi1 O8 2.443976 1_554
O0 W0 2.027341 1_556
O1 W1 2.027341 1_655
O2 W0 2.027341 1_555
O3 W1 2.027341 1_555
O4 W0 1.962166 1_555
O5 W1 1.962166 1_655
O6 W0 1.962166 1_556
O7 W1 1.962166 1_555
O8 W1 2.091590 1_555
O9 W0 2.091590 1_556
O10 W0 2.091590 1_555
O11 W1 2.091590 1_655
