# generated using pymatgen
data_SiO2
_symmetry_space_group_name_H-M   'P 1'
_cell_length_a   9.87047800
_cell_length_b   9.87047800
_cell_length_c   9.84524200
_cell_angle_alpha   90.00000000
_cell_angle_beta   90.00000000
_cell_angle_gamma   90.00000000
_symmetry_Int_Tables_number   1
_chemical_formula_structural   SiO2
_chemical_formula_sum   'Si12 O24'
_cell_volume   959.18585459
_cell_formula_units_Z   12
loop_
 _symmetry_equiv_pos_site_id
 _symmetry_equiv_pos_as_xyz
  1  'x, y, z'
loop_
 _atom_site_type_symbol
 _atom_site_label
 _atom_site_symmetry_multiplicity
 _atom_site_fract_x
 _atom_site_fract_y
 _atom_site_fract_z
 _atom_site_occupancy
  Si  Si0  1  0.50426700  0.12686600  0.12605000  1
  Si  Si1  1  0.24001700  0.75998300  0.75000000  1
  Si  Si2  1  0.12686600  0.50426700  0.87395000  1
  Si  Si3  1  0.37313400  0.00426700  0.87605000  1
  Si  Si4  1  0.62686600  0.99573300  0.37605000  1
  Si  Si5  1  0.87313400  0.49573300  0.37395000  1
  Si  Si6  1  0.00426700  0.37313400  0.12395000  1
  Si  Si7  1  0.74001700  0.74001700  0.50000000  1
  Si  Si8  1  0.49573300  0.87313400  0.62605000  1
  Si  Si9  1  0.99573300  0.62686600  0.62395000  1
  Si  Si10  1  0.75998300  0.24001700  0.25000000  1
  Si  Si11  1  0.25998300  0.25998300  0.00000000  1
  O  O0  1  0.74270900  0.11350500  0.35613800  1
  O  O1  1  0.77446500  0.36334600  0.36107700  1
  O  O2  1  0.24270900  0.38649500  0.89386200  1
  O  O3  1  0.75729100  0.61350500  0.39386200  1
  O  O4  1  0.36334600  0.77446500  0.63892300  1
  O  O5  1  0.11350500  0.74270900  0.64386200  1
  O  O6  1  0.61350500  0.75729100  0.60613800  1
  O  O7  1  0.51592000  0.02259600  0.25490600  1
  O  O8  1  0.88649500  0.25729100  0.14386200  1
  O  O9  1  0.27446500  0.13665400  0.88892300  1
  O  O10  1  0.48408000  0.97740400  0.75490600  1
  O  O11  1  0.13665400  0.27446500  0.11107700  1
  O  O12  1  0.63665400  0.22553500  0.13892300  1
  O  O13  1  0.01592000  0.47740400  0.99509400  1
  O  O14  1  0.47740400  0.01592000  0.00490600  1
  O  O15  1  0.86334600  0.72553500  0.61107700  1
  O  O16  1  0.02259600  0.51592000  0.74509400  1
  O  O17  1  0.38649500  0.24270900  0.10613800  1
  O  O18  1  0.52259600  0.98408000  0.50490600  1
  O  O19  1  0.72553500  0.86334600  0.38892300  1
  O  O20  1  0.22553500  0.63665400  0.86107700  1
  O  O21  1  0.98408000  0.52259600  0.49509400  1
  O  O22  1  0.25729100  0.88649500  0.85613800  1
  O  O23  1  0.97740400  0.48408000  0.24509400  1
loop_
_geom_bond_atom_site_label_1
_geom_bond_atom_site_label_2
_geom_bond_distance
_geom_bond_site_symmetry_2
O0 Si10 1.637173 1_555
O0 Si4 1.642310 1_545
O1 Si5 1.634652 1_555
O1 Si10 1.642623 1_555
O2 Si11 1.637173 1_556
O2 Si2 1.642310 1_555
O3 Si7 1.637173 1_555
O3 Si5 1.642310 1_555
O4 Si8 1.634652 1_555
O4 Si1 1.642623 1_555
O5 Si1 1.637173 1_555
O5 Si9 1.642310 1_455
O6 Si7 1.637173 1_555
O6 Si8 1.642310 1_555
O7 Si0 1.637640 1_555
O7 Si4 1.640744 1_545
O8 Si10 1.637173 1_555
O8 Si6 1.642310 1_655
O9 Si3 1.634652 1_555
O9 Si11 1.642623 1_556
O10 Si8 1.637640 1_555
O10 Si3 1.640744 1_565
O11 Si6 1.634652 1_555
O11 Si11 1.642623 1_555
O12 Si0 1.634652 1_555
O12 Si10 1.642623 1_555
O13 Si6 1.637640 1_556
O13 Si2 1.640744 1_555
O14 Si3 1.637640 1_554
O14 Si0 1.640744 1_555
O15 Si9 1.634652 1_555
O15 Si7 1.642623 1_555
O16 Si2 1.637640 1_555
O16 Si9 1.640744 1_455
O17 Si11 1.637173 1_555
O17 Si0 1.642310 1_555
O18 Si4 1.637640 1_555
O18 Si8 1.640744 1_555
O19 Si4 1.634652 1_555
O19 Si7 1.642623 1_555
O20 Si2 1.634652 1_555
O20 Si1 1.642623 1_555
O21 Si9 1.637640 1_555
O21 Si5 1.640744 1_555
O22 Si1 1.637173 1_555
O22 Si3 1.642310 1_565
O23 Si5 1.637640 1_555
O23 Si6 1.640744 1_655
