# generated using pymatgen
data_Tm8Rh5C12
_symmetry_space_group_name_H-M   'P 1'
_cell_length_a   3.48149400
_cell_length_b   7.34560019
_cell_length_c   13.99141715
_cell_angle_alpha   94.38897585
_cell_angle_beta   97.14699399
_cell_angle_gamma   90.00000000
_symmetry_Int_Tables_number   1
_chemical_formula_structural   Tm8Rh5C12
_chemical_formula_sum   'Tm8 Rh5 C12'
_cell_volume   353.97414456
_cell_formula_units_Z   1
loop_
 _symmetry_equiv_pos_site_id
 _symmetry_equiv_pos_as_xyz
  1  'x, y, z'
loop_
 _atom_site_type_symbol
 _atom_site_label
 _atom_site_symmetry_multiplicity
 _atom_site_fract_x
 _atom_site_fract_y
 _atom_site_fract_z
 _atom_site_occupancy
  Tm  Tm0  1  0.29315500  0.88454100  0.58631100  1
  Tm  Tm1  1  0.70684500  0.11545900  0.41368900  1
  Tm  Tm2  1  0.29992200  0.39066100  0.59984500  1
  Tm  Tm3  1  0.70007800  0.60933900  0.40015500  1
  Tm  Tm4  1  0.41198700  0.17209300  0.82397500  1
  Tm  Tm5  1  0.58801300  0.82790700  0.17602500  1
  Tm  Tm6  1  0.45303800  0.70374100  0.90607600  1
  Tm  Tm7  1  0.54696200  0.29625900  0.09392400  1
  Rh  Rh0  1  0.00000000  0.00000000  0.00000000  1
  Rh  Rh1  1  0.11046400  0.49464800  0.22092700  1
  Rh  Rh2  1  0.88953600  0.50535200  0.77907300  1
  Rh  Rh3  1  0.11628700  0.12622800  0.23257400  1
  Rh  Rh4  1  0.88371300  0.87377200  0.76742600  1
  C  C0  1  0.02272200  0.75442800  0.04544400  1
  C  C1  1  0.97727800  0.24557200  0.95455600  1
  C  C2  1  0.04775800  0.61253200  0.09551600  1
  C  C3  1  0.95224200  0.38746800  0.90448400  1
  C  C4  1  0.16858000  0.34666000  0.33716100  1
  C  C5  1  0.83142000  0.65334000  0.66283900  1
  C  C6  1  0.21694700  0.36522900  0.43389300  1
  C  C7  1  0.78305300  0.63477100  0.56610700  1
  C  C8  1  0.15849400  0.87232900  0.31698800  1
  C  C9  1  0.84150600  0.12767100  0.68301200  1
  C  C10  1  0.20743400  0.86879200  0.41486900  1
  C  C11  1  0.79256600  0.13120800  0.58513100  1
loop_
_geom_bond_atom_site_label_1
_geom_bond_atom_site_label_2
_geom_bond_distance
_geom_bond_site_symmetry_2
Rh0 Tm7 3.004754 1_455
Rh0 Tm7 3.004754 1_555
Rh0 Tm6 3.004754 1_544
Rh0 Tm6 3.004754 1_444
Rh1 Tm7 2.804678 1_555
Rh1 Tm7 2.804681 1_455
Rh1 Tm3 3.099614 1_455
Rh1 Tm3 3.099614 1_555
Rh2 Tm6 2.804678 1_555
Rh2 Tm6 2.804681 1_655
Rh2 Tm2 3.099614 1_655
Rh2 Tm2 3.099614 1_555
Rh3 Tm5 2.860619 1_445
Rh3 Tm5 2.860621 1_545
Rh3 Tm7 2.943805 1_555
Rh3 Tm7 2.943805 1_455
Rh4 Tm4 2.860619 1_665
Rh4 Tm4 2.860621 1_565
Rh4 Tm6 2.943805 1_655
Rh4 Tm6 2.943805 1_555
C0 C2 1.296684 1_555
C0 Rh0 1.956406 1_565
C0 Tm5 2.541043 1_455
C0 Tm5 2.541045 1_555
C0 Tm6 2.607907 1_554
C0 Tm6 2.607907 1_454
C1 C3 1.296684 1_555
C1 Rh0 1.956406 1_656
C1 Tm4 2.541043 1_655
C1 Tm4 2.541045 1_555
C1 Tm7 2.607907 1_556
C1 Tm7 2.607907 1_656
C2 Rh1 2.003403 1_555
C2 Tm5 2.551384 1_455
C2 Tm5 2.551387 1_555
C2 Tm7 2.901740 1_455
C2 Tm7 2.901740 1_555
C3 Rh2 2.003403 1_555
C3 Tm4 2.551384 1_655
C3 Tm4 2.551387 1_555
C3 Tm6 2.901740 1_555
C3 Tm6 2.901740 1_655
C4 C6 1.339304 1_555
C4 Rh1 2.013982 1_555
C4 Rh3 2.089818 1_555
C4 Tm3 2.694030 1_455
C4 Tm3 2.694035 1_555
C4 Tm1 2.705826 1_455
C4 Tm1 2.705830 1_555
C5 C7 1.339304 1_555
C5 Rh2 2.013982 1_555
C5 Rh4 2.089818 1_555
C5 Tm2 2.694030 1_655
C5 Tm2 2.694035 1_555
C5 Tm0 2.705826 1_655
C5 Tm0 2.705830 1_555
C6 Tm2 2.297019 1_555
C6 Tm1 2.528963 1_455
C6 Tm1 2.528963 1_555
C6 Tm3 2.567967 1_555
C6 Tm3 2.567967 1_455
C7 Tm3 2.297019 1_555
C7 Tm0 2.528963 1_555
C7 Tm0 2.528963 1_655
C7 Tm2 2.567967 1_655
C7 Tm2 2.567967 1_555
C8 Rh3 2.277906 1_565
C8 Tm5 2.620652 1_455
C8 Tm5 2.620654 1_555
C8 Tm3 2.905036 1_455
C8 Tm3 2.905038 1_555
C9 Rh4 2.277906 1_545
C9 Tm4 2.620652 1_655
C9 Tm4 2.620654 1_555
C9 Tm2 2.905036 1_655
C9 Tm2 2.905038 1_555
C10 C8 1.361104 1_555
C10 Tm0 2.373960 1_555
C10 Tm1 2.513579 1_465
C10 Tm1 2.513584 1_565
C10 Tm3 2.577612 1_455
C10 Tm3 2.577616 1_555
C11 C9 1.361104 1_555
C11 Tm1 2.373960 1_555
C11 Tm0 2.513579 1_645
C11 Tm0 2.513584 1_545
C11 Tm2 2.577612 1_655
C11 Tm2 2.577616 1_555
