# generated using pymatgen
data_CsCaH2N9O
_symmetry_space_group_name_H-M   'P 1'
_cell_length_a   6.93498900
_cell_length_b   7.63670864
_cell_length_c   8.98841355
_cell_angle_alpha   71.85279549
_cell_angle_beta   83.31698129
_cell_angle_gamma   81.36403005
_symmetry_Int_Tables_number   1
_chemical_formula_structural   CsCaH2N9O
_chemical_formula_sum   'Cs2 Ca2 H4 N18 O2'
_cell_volume   445.99486846
_cell_formula_units_Z   2
loop_
 _symmetry_equiv_pos_site_id
 _symmetry_equiv_pos_as_xyz
  1  'x, y, z'
loop_
 _atom_site_type_symbol
 _atom_site_label
 _atom_site_symmetry_multiplicity
 _atom_site_fract_x
 _atom_site_fract_y
 _atom_site_fract_z
 _atom_site_occupancy
  Cs  Cs0  1  0.75216400  0.81607200  0.90599700  1
  Cs  Cs1  1  0.24783600  0.18392800  0.09400300  1
  Ca  Ca0  1  0.30874900  0.18671900  0.60065200  1
  Ca  Ca1  1  0.69125100  0.81328100  0.39934800  1
  H  H0  1  0.97080500  0.44668000  0.70357800  1
  H  H1  1  0.02919500  0.55332000  0.29642200  1
  H  H2  1  0.15579400  0.49549600  0.76049300  1
  H  H3  1  0.84420600  0.50450400  0.23950700  1
  N  N0  1  0.52575100  0.29982700  0.75498300  1
  N  N1  1  0.47424900  0.70017300  0.24501700  1
  N  N2  1  0.60578300  0.43461900  0.70604000  1
  N  N3  1  0.39421700  0.56538100  0.29396000  1
  N  N4  1  0.68853700  0.56921900  0.65826000  1
  N  N5  1  0.31146300  0.43078100  0.34174000  1
  N  N6  1  0.66830600  0.07912200  0.52124300  1
  N  N7  1  0.33169400  0.92087800  0.47875700  1
  N  N8  1  0.81700300  0.13134600  0.53607800  1
  N  N9  1  0.18299700  0.86865400  0.46392200  1
  N  N10  1  0.96300400  0.18115700  0.55195700  1
  N  N11  1  0.03699600  0.81884300  0.44804300  1
  N  N12  1  0.27839400  0.93567100  0.84686500  1
  N  N13  1  0.72160600  0.06432900  0.15313500  1
  N  N14  1  0.25080600  0.77814600  0.87284600  1
  N  N15  1  0.74919400  0.22185400  0.12715400  1
  N  N16  1  0.22217400  0.62234000  0.90084500  1
  N  N17  1  0.77782600  0.37766000  0.09915500  1
  O  O0  1  0.10896100  0.40179700  0.72313600  1
  O  O1  1  0.89103900  0.59820300  0.27686400  1
loop_
_geom_bond_atom_site_label_1
_geom_bond_atom_site_label_2
_geom_bond_distance
_geom_bond_site_symmetry_2
Cs0 N17 3.244590 1_556
Cs0 H3 3.255968 1_556
Cs0 N13 3.311631 1_566
Cs0 N12 3.333865 1_555
Cs0 N1 3.353953 1_556
Cs0 N16 3.372648 1_655
Cs0 O1 3.408694 1_556
Cs0 N14 3.412347 1_655
Cs0 N4 3.435159 1_555
Cs0 N8 3.470581 1_565
Cs0 N6 3.481865 1_565
Cs0 N14 3.585932 1_555
Cs0 N0 3.685937 1_565
Cs1 N16 3.244590 1_554
Cs1 H2 3.255968 1_554
Cs1 N12 3.311631 1_544
Cs1 N13 3.333865 1_555
Cs1 N0 3.353953 1_554
Cs1 N17 3.372648 1_455
Cs1 O0 3.408694 1_554
Cs1 N15 3.412347 1_455
Cs1 N5 3.435159 1_555
Cs1 N9 3.470581 1_545
Cs1 N7 3.481865 1_545
Cs1 N15 3.585932 1_555
Cs1 N1 3.685937 1_545
Ca0 O0 2.432584 1_555
Ca0 N12 2.446910 1_545
Ca0 N5 2.487676 1_555
Ca0 N10 2.495788 1_455
Ca0 N0 2.560821 1_555
Ca0 N7 2.568120 1_545
Ca0 N6 2.595778 1_555
Ca1 O1 2.432584 1_555
Ca1 N13 2.446910 1_565
Ca1 N4 2.487676 1_555
Ca1 N11 2.495788 1_655
Ca1 N1 2.560821 1_555
Ca1 N6 2.568120 1_565
Ca1 N7 2.595778 1_555
H0 O0 0.984586 1_655
H1 O1 0.984586 1_455
H2 O0 0.987468 1_555
H3 O1 0.987468 1_555
N0 N2 1.180609 1_555
N1 N3 1.180609 1_555
N2 N4 1.189615 1_555
N3 N5 1.189615 1_555
N6 N8 1.195356 1_555
N7 N9 1.195356 1_555
N10 N8 1.171912 1_555
N11 N9 1.171912 1_555
N12 N14 1.192479 1_555
N13 N15 1.192479 1_555
N14 N16 1.179528 1_555
N15 N17 1.179528 1_555
