# generated using pymatgen
data_Pu3Zr
_symmetry_space_group_name_H-M   'P 1'
_cell_length_a   6.53337772
_cell_length_b   6.53337772
_cell_length_c   5.39304700
_cell_angle_alpha   90.00000000
_cell_angle_beta   90.00000000
_cell_angle_gamma   119.99999719
_symmetry_Int_Tables_number   1
_chemical_formula_structural   Pu3Zr
_chemical_formula_sum   'Pu6 Zr2'
_cell_volume   199.36108281
_cell_formula_units_Z   2
loop_
 _symmetry_equiv_pos_site_id
 _symmetry_equiv_pos_as_xyz
  1  'x, y, z'
loop_
 _atom_site_type_symbol
 _atom_site_label
 _atom_site_symmetry_multiplicity
 _atom_site_fract_x
 _atom_site_fract_y
 _atom_site_fract_z
 _atom_site_occupancy
  Pu  Pu0  1  0.16903900  0.33807800  0.25000000  1
  Pu  Pu1  1  0.66192200  0.83096100  0.25000000  1
  Pu  Pu2  1  0.16903900  0.83096100  0.25000000  1
  Pu  Pu3  1  0.83096100  0.66192200  0.75000000  1
  Pu  Pu4  1  0.33807800  0.16903900  0.75000000  1
  Pu  Pu5  1  0.83096100  0.16903900  0.75000000  1
  Zr  Zr0  1  0.33333300  0.66666700  0.75000000  1
  Zr  Zr1  1  0.66666700  0.33333300  0.25000000  1
loop_
_geom_bond_atom_site_label_1
_geom_bond_atom_site_label_2
_geom_bond_distance
_geom_bond_site_symmetry_2
Pu0 Pu2 3.220191 1_555
Pu0 Pu1 3.220191 1_555
Pu0 Zr1 3.266796 1_455
Pu0 Zr1 3.266802 1_555
Pu0 Zr0 3.275330 1_554
Pu0 Zr0 3.275330 1_555
Pu0 Pu4 3.306102 1_554
Pu0 Pu4 3.306102 1_555
Pu0 Pu5 3.306102 1_455
Pu0 Pu5 3.306102 1_454
Pu0 Pu2 3.313187 1_545
Pu0 Pu1 3.313187 1_445
Pu1 Pu2 3.220191 1_555
Pu1 Zr1 3.266796 1_565
Pu1 Zr1 3.266802 1_555
Pu1 Zr0 3.275330 1_554
Pu1 Zr0 3.275330 1_555
Pu1 Pu3 3.306102 1_554
Pu1 Pu3 3.306102 1_555
Pu1 Pu5 3.306102 1_565
Pu1 Pu5 3.306102 1_564
Pu1 Pu2 3.313187 1_655
Pu2 Zr1 3.266799 1_455
Pu2 Zr1 3.266799 1_565
Pu2 Zr0 3.275327 1_554
Pu2 Zr0 3.275327 1_555
Pu2 Pu4 3.306102 1_564
Pu2 Pu4 3.306102 1_565
Pu2 Pu3 3.306102 1_455
Pu2 Pu3 3.306102 1_454
Pu3 Pu5 3.220191 1_555
Pu3 Pu4 3.220191 1_555
Pu3 Zr0 3.266796 1_655
Pu3 Zr0 3.266802 1_555
Pu3 Zr1 3.275330 1_555
Pu3 Zr1 3.275330 1_556
Pu3 Pu5 3.313187 1_565
Pu3 Pu4 3.313187 1_665
Pu4 Pu5 3.220191 1_555
Pu4 Zr0 3.266796 1_545
Pu4 Zr0 3.266802 1_555
Pu4 Zr1 3.275330 1_555
Pu4 Zr1 3.275330 1_556
Pu4 Pu5 3.313187 1_455
Pu5 Zr0 3.266799 1_545
Pu5 Zr0 3.266799 1_655
Pu5 Zr1 3.275327 1_555
Pu5 Zr1 3.275327 1_556
