# generated using pymatgen
data_BaH2Br2O7
_symmetry_space_group_name_H-M   'P 1'
_cell_length_a   7.78554892
_cell_length_b   7.78554892
_cell_length_c   8.00392464
_cell_angle_alpha   103.52821426
_cell_angle_beta   108.88480441
_cell_angle_gamma   115.26272278
_symmetry_Int_Tables_number   1
_chemical_formula_structural   BaH2Br2O7
_chemical_formula_sum   'Ba2 H4 Br4 O14'
_cell_volume   373.84190574
_cell_formula_units_Z   2
loop_
 _symmetry_equiv_pos_site_id
 _symmetry_equiv_pos_as_xyz
  1  'x, y, z'
loop_
 _atom_site_type_symbol
 _atom_site_label
 _atom_site_symmetry_multiplicity
 _atom_site_fract_x
 _atom_site_fract_y
 _atom_site_fract_z
 _atom_site_occupancy
  Ba  Ba0  1  0.60605200  0.85605200  0.25000000  1
  Ba  Ba1  1  0.39394800  0.14394800  0.75000000  1
  H  H0  1  0.07072400  0.29117100  0.36515600  1
  H  H1  1  0.07398500  0.79443300  0.86515600  1
  H  H2  1  0.92927600  0.70882900  0.63484400  1
  H  H3  1  0.92601500  0.20556700  0.13484400  1
  Br  Br0  1  0.97947000  0.67014600  0.19327800  1
  Br  Br1  1  0.52313200  0.71380800  0.69327800  1
  Br  Br2  1  0.02053000  0.32985400  0.80672200  1
  Br  Br3  1  0.47686800  0.28619200  0.30672200  1
  O  O0  1  0.93036800  0.18036800  0.25000000  1
  O  O1  1  0.06963200  0.81963200  0.75000000  1
  O  O2  1  0.73557900  0.59733900  0.02010200  1
  O  O3  1  0.42276400  0.78452300  0.52010200  1
  O  O4  1  0.26442100  0.40266100  0.97989800  1
  O  O5  1  0.57723600  0.21547700  0.47989800  1
  O  O6  1  0.15169700  0.75836000  0.10245600  1
  O  O7  1  0.34409700  0.45076000  0.60245600  1
  O  O8  1  0.84830300  0.24164000  0.89754400  1
  O  O9  1  0.65590300  0.54924000  0.39754400  1
  O  O10  1  0.04718900  0.88601800  0.37487400  1
  O  O11  1  0.48885600  0.82768600  0.87487400  1
  O  O12  1  0.95281100  0.11398200  0.62512600  1
  O  O13  1  0.51114400  0.17231400  0.12512600  1
loop_
_geom_bond_atom_site_label_1
_geom_bond_atom_site_label_2
_geom_bond_distance
_geom_bond_site_symmetry_2
Ba0 O0 2.703568 1_565
Ba0 O12 2.764155 1_565
Ba0 O11 2.764158 1_554
Ba0 O3 2.983646 1_555
Ba0 O4 2.983650 1_554
Ba0 O6 3.010889 1_555
Ba0 O9 3.010894 1_555
Ba0 O2 3.108195 1_555
Ba0 O5 3.108201 1_565
Ba0 O13 3.135917 1_565
Ba0 O10 3.135924 1_655
Ba1 O1 2.703568 1_545
Ba1 O10 2.764155 1_545
Ba1 O13 2.764158 1_556
Ba1 O5 2.983646 1_555
Ba1 O2 2.983650 1_556
Ba1 O8 3.010889 1_555
Ba1 O7 3.010894 1_555
Ba1 O4 3.108195 1_555
Ba1 O3 3.108201 1_545
Ba1 O11 3.135917 1_545
Ba1 O12 3.135924 1_455
H0 O0 0.979403 1_455
H1 O1 0.979399 1_555
H2 O1 0.979403 1_655
H3 O0 0.979399 1_555
Br0 O10 1.679286 1_655
Br0 O2 1.690582 1_555
Br0 O6 1.696054 1_655
Br1 O11 1.679289 1_555
Br1 O3 1.690579 1_555
Br1 O7 1.696047 1_555
Br2 O12 1.679286 1_455
Br2 O4 1.690582 1_555
Br2 O8 1.696054 1_455
Br3 O13 1.679289 1_555
Br3 O5 1.690579 1_555
Br3 O9 1.696047 1_555
