# generated using pymatgen
data_Na7I2O5
_symmetry_space_group_name_H-M   'P 1'
_cell_length_a   7.68915500
_cell_length_b   7.68915500
_cell_length_c   10.46085000
_cell_angle_alpha   90.00000000
_cell_angle_beta   90.00000000
_cell_angle_gamma   90.00000000
_symmetry_Int_Tables_number   1
_chemical_formula_structural   Na7I2O5
_chemical_formula_sum   'Na14 I4 O10'
_cell_volume   618.47792890
_cell_formula_units_Z   2
loop_
 _symmetry_equiv_pos_site_id
 _symmetry_equiv_pos_as_xyz
  1  'x, y, z'
loop_
 _atom_site_type_symbol
 _atom_site_label
 _atom_site_symmetry_multiplicity
 _atom_site_fract_x
 _atom_site_fract_y
 _atom_site_fract_z
 _atom_site_occupancy
  Na  Na0  1  0.50000000  0.00000000  0.89799700  1
  Na  Na1  1  0.00000000  0.50000000  0.10200300  1
  Na  Na2  1  0.75000000  0.25000000  0.00000000  1
  Na  Na3  1  0.25000000  0.25000000  0.00000000  1
  Na  Na4  1  0.75000000  0.75000000  0.00000000  1
  Na  Na5  1  0.25000000  0.75000000  0.00000000  1
  Na  Na6  1  0.71323800  0.21323800  0.69138900  1
  Na  Na7  1  0.28676200  0.21323800  0.69138900  1
  Na  Na8  1  0.71323800  0.78676200  0.69138900  1
  Na  Na9  1  0.28676200  0.78676200  0.69138900  1
  Na  Na10  1  0.78676200  0.28676200  0.30861100  1
  Na  Na11  1  0.21323800  0.28676200  0.30861100  1
  Na  Na12  1  0.78676200  0.71323800  0.30861100  1
  Na  Na13  1  0.21323800  0.71323800  0.30861100  1
  I  I0  1  0.50000000  0.50000000  0.50000000  1
  I  I1  1  0.00000000  0.00000000  0.50000000  1
  I  I2  1  0.00000000  0.50000000  0.79338200  1
  I  I3  1  0.50000000  0.00000000  0.20661800  1
  O  O0  1  0.50000000  0.00000000  0.66425000  1
  O  O1  1  0.00000000  0.50000000  0.33575000  1
  O  O2  1  0.77797800  0.00000000  0.85475600  1
  O  O3  1  0.22202200  0.00000000  0.85475600  1
  O  O4  1  0.50000000  0.27797800  0.85475600  1
  O  O5  1  0.50000000  0.72202200  0.85475600  1
  O  O6  1  0.72202200  0.50000000  0.14524400  1
  O  O7  1  0.27797800  0.50000000  0.14524400  1
  O  O8  1  0.00000000  0.22202200  0.14524400  1
  O  O9  1  0.00000000  0.77797800  0.14524400  1
loop_
_geom_bond_atom_site_label_1
_geom_bond_atom_site_label_2
_geom_bond_distance
_geom_bond_site_symmetry_2
Na0 O2 2.184755 1_555
Na0 O3 2.184755 1_555
Na0 O4 2.184755 1_555
Na0 O5 2.184755 1_545
Na0 O0 2.445192 1_555
Na1 O9 2.184755 1_555
Na1 O7 2.184755 1_555
Na1 O8 2.184755 1_555
Na1 O6 2.184755 1_455
Na1 O1 2.445192 1_555
Na2 O8 2.459670 1_655
Na2 O6 2.459670 1_555
Na2 O4 2.459670 1_554
Na2 O2 2.459670 1_554
Na3 O7 2.459670 1_555
Na3 O8 2.459670 1_555
Na3 O3 2.459670 1_554
Na3 O4 2.459670 1_554
Na4 O9 2.459670 1_655
Na4 O6 2.459670 1_555
Na4 O2 2.459670 1_564
Na4 O5 2.459670 1_554
Na5 O7 2.459670 1_555
Na5 O9 2.459670 1_555
Na5 O3 2.459670 1_564
Na5 O5 2.459670 1_554
Na6 O0 2.336088 1_555
Na6 O2 2.420060 1_555
Na6 O4 2.420060 1_555
Na7 O0 2.336088 1_555
Na7 O3 2.420060 1_555
Na7 O4 2.420060 1_555
Na8 O0 2.336088 1_565
Na8 O5 2.420060 1_555
Na8 O2 2.420060 1_565
Na9 O0 2.336088 1_565
Na9 O3 2.420060 1_565
Na9 O5 2.420060 1_555
Na10 O1 2.336088 1_655
Na10 O8 2.420060 1_655
Na10 O6 2.420060 1_555
Na11 O1 2.336088 1_555
Na11 O8 2.420060 1_555
Na11 O7 2.420060 1_555
Na12 O1 2.336088 1_655
Na12 O6 2.420060 1_555
Na12 O9 2.420060 1_655
Na13 O1 2.336088 1_555
Na13 O7 2.420060 1_555
Na13 O9 2.420060 1_555
I0 Na8 3.399789 1_555
I0 Na6 3.399789 1_555
I0 Na9 3.399789 1_555
I0 Na12 3.399789 1_555
I0 Na7 3.399789 1_555
I0 Na13 3.399789 1_555
I0 Na10 3.399789 1_555
I0 Na11 3.399789 1_555
I1 Na7 3.399789 1_555
I1 Na9 3.399789 1_545
I1 Na6 3.399789 1_455
I1 Na11 3.399789 1_555
I1 Na8 3.399789 1_445
I1 Na10 3.399789 1_455
I1 Na13 3.399789 1_545
I1 Na12 3.399789 1_445
I2 Na1 3.228438 1_556
I2 Na9 3.295758 1_555
I2 Na7 3.295758 1_555
I2 Na8 3.295758 1_455
I2 Na6 3.295758 1_455
I2 Na5 3.473044 1_556
I2 Na4 3.473044 1_456
I2 Na2 3.473044 1_456
I2 Na3 3.473044 1_556
I3 Na0 3.228438 1_554
I3 Na10 3.295758 1_555
I3 Na11 3.295758 1_555
I3 Na12 3.295758 1_545
I3 Na13 3.295758 1_545
I3 Na4 3.473044 1_545
I3 Na5 3.473044 1_545
I3 Na2 3.473044 1_555
I3 Na3 3.473044 1_555
