# generated using pymatgen
data_EuAgGe
_symmetry_space_group_name_H-M   'P 1'
_cell_length_a   5.90320953
_cell_length_b   5.90320953
_cell_length_c   7.64100895
_cell_angle_alpha   50.83508531
_cell_angle_beta   50.83508531
_cell_angle_gamma   46.73758527
_symmetry_Int_Tables_number   1
_chemical_formula_structural   EuAgGe
_chemical_formula_sum   'Eu2 Ag2 Ge2'
_cell_volume   140.72149453
_cell_formula_units_Z   2
loop_
 _symmetry_equiv_pos_site_id
 _symmetry_equiv_pos_as_xyz
  1  'x, y, z'
loop_
 _atom_site_type_symbol
 _atom_site_label
 _atom_site_symmetry_multiplicity
 _atom_site_fract_x
 _atom_site_fract_y
 _atom_site_fract_z
 _atom_site_occupancy
  Eu  Eu0  1  0.53785400  0.53785400  0.70779300  1
  Eu  Eu1  1  0.46214600  0.46214600  0.29220700  1
  Ag  Ag0  1  0.17365900  0.17365900  0.27282500  1
  Ag  Ag1  1  0.82634100  0.82634100  0.72717500  1
  Ge  Ge0  1  0.84482400  0.84482400  0.10727000  1
  Ge  Ge1  1  0.15517600  0.15517600  0.89273000  1
loop_
_geom_bond_atom_site_label_1
_geom_bond_atom_site_label_2
_geom_bond_distance
_geom_bond_site_symmetry_2
Eu0 Ge0 3.223314 1_546
Eu0 Ge0 3.223314 1_456
Eu0 Ge0 3.334378 1_555
Eu0 Ge1 3.336743 1_555
Eu0 Ge1 3.401268 1_565
Eu0 Ge1 3.401268 1_655
Eu1 Ge1 3.223314 1_564
Eu1 Ge1 3.223314 1_654
Eu1 Ge1 3.334378 1_555
Eu1 Ge0 3.336743 1_555
Eu1 Ge0 3.401268 1_545
Eu1 Ge0 3.401268 1_455
Ag0 Ge0 2.700956 1_455
Ag0 Ge0 2.700956 1_545
Ag0 Ag1 2.870607 1_445
Ag0 Ge1 3.045597 1_554
Ag0 Eu1 3.208168 1_545
Ag0 Eu1 3.208168 1_455
Ag0 Eu1 3.230286 1_555
Ag0 Eu0 3.281963 1_554
Ag0 Eu0 3.458926 1_455
Ag0 Eu0 3.458926 1_545
Ag1 Ge1 2.700956 1_565
Ag1 Ge1 2.700956 1_655
Ag1 Ge0 3.045597 1_556
Ag1 Eu0 3.208168 1_655
Ag1 Eu0 3.208168 1_565
Ag1 Eu0 3.230286 1_555
Ag1 Eu1 3.281963 1_556
Ag1 Eu1 3.458926 1_565
Ag1 Eu1 3.458926 1_655
Ge0 Ge1 2.532574 1_664
