# generated using pymatgen
data_Tb7Co6Sn23
_symmetry_space_group_name_H-M   'P 1'
_cell_length_a   10.36421106
_cell_length_b   10.36421106
_cell_length_c   10.46363438
_cell_angle_alpha   89.98659986
_cell_angle_beta   89.98659986
_cell_angle_gamma   60.08543500
_symmetry_Int_Tables_number   1
_chemical_formula_structural   Tb7Co6Sn23
_chemical_formula_sum   'Tb7 Co6 Sn23'
_cell_volume   974.22419220
_cell_formula_units_Z   1
loop_
 _symmetry_equiv_pos_site_id
 _symmetry_equiv_pos_as_xyz
  1  'x, y, z'
loop_
 _atom_site_type_symbol
 _atom_site_label
 _atom_site_symmetry_multiplicity
 _atom_site_fract_x
 _atom_site_fract_y
 _atom_site_fract_z
 _atom_site_occupancy
  Tb  Tb0  1  0.00000000  0.00000000  0.00000000  1
  Tb  Tb1  1  0.47189200  0.47189200  0.30329800  1
  Tb  Tb2  1  0.05454100  0.47435500  0.30435100  1
  Tb  Tb3  1  0.47435500  0.05454100  0.30435100  1
  Tb  Tb4  1  0.52810800  0.52810800  0.69670200  1
  Tb  Tb5  1  0.94545900  0.52564500  0.69564900  1
  Tb  Tb6  1  0.52564500  0.94545900  0.69564900  1
  Co  Co0  1  0.20246600  0.20246600  0.15188800  1
  Co  Co1  1  0.60112100  0.19754200  0.14879400  1
  Co  Co2  1  0.19754200  0.60112100  0.14879400  1
  Co  Co3  1  0.79753400  0.79753400  0.84811200  1
  Co  Co4  1  0.39887900  0.80245800  0.85120600  1
  Co  Co5  1  0.80245800  0.39887900  0.85120600  1
  Sn  Sn0  1  0.33242700  0.33242700  0.79277500  1
  Sn  Sn1  1  0.66757300  0.66757300  0.20722500  1
  Sn  Sn2  1  0.23065000  0.23065000  0.54650500  1
  Sn  Sn3  1  0.54080300  0.23008000  0.54960200  1
  Sn  Sn4  1  0.23008000  0.54080300  0.54960200  1
  Sn  Sn5  1  0.76935000  0.76935000  0.45349500  1
  Sn  Sn6  1  0.45919700  0.76992000  0.45039800  1
  Sn  Sn7  1  0.76992000  0.45919700  0.45039800  1
  Sn  Sn8  1  0.11627100  0.11627100  0.32040500  1
  Sn  Sn9  1  0.76703000  0.11847200  0.32099800  1
  Sn  Sn10  1  0.11847200  0.76703000  0.32099800  1
  Sn  Sn11  1  0.88372900  0.88372900  0.67959500  1
  Sn  Sn12  1  0.23297000  0.88152800  0.67900200  1
  Sn  Sn13  1  0.88152800  0.23297000  0.67900200  1
  Sn  Sn14  1  0.00000000  0.00000000  0.50000000  1
  Sn  Sn15  1  0.00144100  0.34747500  0.00145900  1
  Sn  Sn16  1  0.65252500  0.99855900  0.99854100  1
  Sn  Sn17  1  0.34923700  0.65076300  0.00000000  1
  Sn  Sn18  1  0.34747500  0.00144100  0.00145900  1
  Sn  Sn19  1  0.65076300  0.34923700  0.00000000  1
  Sn  Sn20  1  0.99855900  0.65252500  0.99854100  1
  Sn  Sn21  1  0.33490900  0.33490900  0.07855500  1
  Sn  Sn22  1  0.66509100  0.66509100  0.92144500  1
loop_
_geom_bond_atom_site_label_1
_geom_bond_atom_site_label_2
_geom_bond_distance
_geom_bond_site_symmetry_2
Co0 Sn8 2.345182 1_555
Co0 Sn15 2.440164 1_555
Co0 Sn18 2.440164 1_555
Co0 Sn21 2.497116 1_555
Co0 Tb3 2.920284 1_555
Co0 Tb2 2.920284 1_555
Co1 Sn9 2.338876 1_555
Co1 Sn16 2.431864 1_544
Co1 Sn19 2.442504 1_555
Co1 Sn21 2.502419 1_555
Co1 Tb3 2.917565 1_555
Co1 Tb1 2.948758 1_555
Co2 Sn10 2.338876 1_555
Co2 Sn20 2.431864 1_454
Co2 Sn17 2.442504 1_555
Co2 Sn21 2.502419 1_555
Co2 Tb2 2.917565 1_555
Co2 Tb1 2.948758 1_555
Co3 Sn11 2.345182 1_555
Co3 Sn16 2.440164 1_555
Co3 Sn20 2.440164 1_555
Co3 Sn22 2.497116 1_555
Co3 Tb5 2.920284 1_555
Co3 Tb6 2.920284 1_555
Co4 Sn12 2.338876 1_555
Co4 Sn18 2.431864 1_566
Co4 Sn17 2.442504 1_556
Co4 Sn22 2.502419 1_555
Co4 Tb6 2.917565 1_555
Co4 Tb4 2.948758 1_555
Co5 Sn13 2.338876 1_555
Co5 Sn15 2.431864 1_656
Co5 Sn19 2.442504 1_556
Co5 Sn22 2.502419 1_555
Co5 Tb5 2.917565 1_555
Co5 Tb4 2.948758 1_555
Sn0 Sn21 2.990641 1_556
Sn0 Sn4 3.158702 1_555
Sn0 Sn3 3.158702 1_555
Sn0 Sn2 3.158801 1_555
Sn0 Tb6 3.621927 1_545
Sn0 Tb5 3.621927 1_455
Sn0 Tb4 3.652034 1_555
Sn1 Sn22 2.990641 1_554
Sn1 Sn7 3.158702 1_555
Sn1 Sn6 3.158702 1_555
Sn1 Sn5 3.158801 1_555
Sn1 Tb2 3.621927 1_655
Sn1 Tb3 3.621927 1_565
Sn1 Tb1 3.652034 1_555
Sn2 Sn8 3.132410 1_555
Sn2 Sn3 3.211720 1_555
Sn2 Sn4 3.211720 1_555
Sn2 Tb5 3.392073 1_455
Sn2 Tb6 3.392073 1_545
Sn2 Tb2 3.395921 1_555
Sn2 Tb3 3.395921 1_555
Sn3 Sn9 3.138600 1_555
Sn3 Sn4 3.224557 1_555
Sn3 Tb6 3.394374 1_545
Sn3 Tb4 3.394711 1_555
Sn3 Tb3 3.409163 1_555
Sn3 Tb1 3.412587 1_555
Sn4 Tb5 3.394374 1_455
Sn4 Tb4 3.394711 1_555
Sn4 Tb2 3.409163 1_555
Sn4 Tb1 3.412587 1_555
Sn5 Sn6 3.211720 1_555
Sn5 Sn7 3.211720 1_555
Sn5 Tb3 3.392073 1_565
Sn5 Tb2 3.392073 1_655
Sn5 Tb5 3.395921 1_555
Sn5 Tb6 3.395921 1_555
Sn6 Sn7 3.224557 1_555
Sn6 Tb3 3.394374 1_565
Sn6 Tb1 3.394711 1_555
Sn6 Tb6 3.409163 1_555
Sn6 Tb4 3.412587 1_555
Sn7 Tb2 3.394374 1_655
Sn7 Tb1 3.394711 1_555
Sn7 Tb5 3.409163 1_555
Sn7 Tb4 3.412587 1_555
Sn8 Tb3 3.441289 1_555
Sn8 Tb2 3.441289 1_555
Sn8 Tb0 3.949234 1_555
Sn9 Tb1 3.410642 1_555
Sn9 Tb3 3.416949 1_555
Sn9 Tb0 3.957314 1_655
Sn10 Sn14 2.808885 1_565
Sn10 Sn4 3.138600 1_555
Sn10 Tb1 3.410642 1_555
Sn10 Tb2 3.416949 1_555
Sn10 Tb0 3.957314 1_565
Sn11 Sn14 2.807503 1_665
Sn11 Sn5 3.132410 1_555
Sn11 Tb5 3.441289 1_555
Sn11 Tb6 3.441289 1_555
Sn11 Tb0 3.949234 1_666
Sn12 Sn14 2.808885 1_565
Sn12 Sn6 3.138600 1_555
Sn12 Tb4 3.410642 1_555
Sn12 Tb6 3.416949 1_555
Sn12 Tb0 3.957314 1_566
Sn13 Sn14 2.808885 1_655
Sn13 Sn7 3.138600 1_555
Sn13 Tb4 3.410642 1_555
Sn13 Tb5 3.416949 1_555
Sn13 Tb0 3.957314 1_656
Sn14 Sn8 2.807503 1_555
Sn14 Sn9 2.808885 1_455
Sn15 Tb2 3.577920 1_555
Sn15 Tb5 3.593781 1_454
Sn15 Tb0 3.608811 1_555
Sn16 Tb6 3.577920 1_555
Sn16 Tb3 3.593781 1_566
Sn16 Tb0 3.608811 1_666
Sn17 Tb4 3.573945 1_554
Sn17 Tb1 3.573945 1_555
Sn17 Tb0 3.624239 1_565
Sn18 Tb3 3.577920 1_555
Sn18 Tb6 3.593781 1_544
Sn18 Tb0 3.608811 1_555
Sn19 Tb4 3.573945 1_554
Sn19 Tb1 3.573945 1_555
Sn19 Tb0 3.624239 1_655
Sn20 Tb5 3.577920 1_555
Sn20 Tb2 3.593781 1_656
Sn20 Tb0 3.608811 1_666
Sn21 Tb1 3.402189 1_555
Sn21 Tb3 3.453132 1_555
Sn21 Tb2 3.453132 1_555
Sn22 Tb4 3.402189 1_555
Sn22 Tb6 3.453132 1_555
Sn22 Tb5 3.453132 1_555
