# generated using pymatgen
data_Mn7(PbO5)3
_symmetry_space_group_name_H-M   'P 1'
_cell_length_a   10.17535740
_cell_length_b   10.17535740
_cell_length_c   13.82721800
_cell_angle_alpha   90.00000000
_cell_angle_beta   90.00000000
_cell_angle_gamma   118.43293360
_symmetry_Int_Tables_number   1
_chemical_formula_structural   Mn7(PbO5)3
_chemical_formula_sum   'Mn28 Pb12 O60'
_cell_volume   1258.94943934
_cell_formula_units_Z   4
loop_
 _symmetry_equiv_pos_site_id
 _symmetry_equiv_pos_as_xyz
  1  'x, y, z'
loop_
 _atom_site_type_symbol
 _atom_site_label
 _atom_site_symmetry_multiplicity
 _atom_site_fract_x
 _atom_site_fract_y
 _atom_site_fract_z
 _atom_site_occupancy
  Mn  Mn0  1  0.16553700  0.83066100  0.50422400  1
  Mn  Mn1  1  0.83066100  0.16553700  0.50422400  1
  Mn  Mn2  1  0.83446300  0.16933900  0.00422400  1
  Mn  Mn3  1  0.16933900  0.83446300  0.00422400  1
  Mn  Mn4  1  0.83478500  0.66641900  0.50719600  1
  Mn  Mn5  1  0.66641900  0.83478500  0.50719600  1
  Mn  Mn6  1  0.16521500  0.33358100  0.00719600  1
  Mn  Mn7  1  0.33358100  0.16521500  0.00719600  1
  Mn  Mn8  1  0.67870900  0.34193200  0.65543600  1
  Mn  Mn9  1  0.34193200  0.67870900  0.65543600  1
  Mn  Mn10  1  0.32129100  0.65806800  0.15543600  1
  Mn  Mn11  1  0.65806800  0.32129100  0.15543600  1
  Mn  Mn12  1  0.00197500  0.50027700  0.50529200  1
  Mn  Mn13  1  0.50027700  0.00197500  0.50529200  1
  Mn  Mn14  1  0.99802500  0.49972300  0.00529200  1
  Mn  Mn15  1  0.49972300  0.99802500  0.00529200  1
  Mn  Mn16  1  0.99709200  0.99709200  0.49965300  1
  Mn  Mn17  1  0.00290800  0.00290800  0.99965300  1
  Mn  Mn18  1  0.50858700  0.50858700  0.51257100  1
  Mn  Mn19  1  0.49141300  0.49141300  0.01257100  1
  Mn  Mn20  1  0.82976500  0.66123900  0.00492900  1
  Mn  Mn21  1  0.66123900  0.82976500  0.00492900  1
  Mn  Mn22  1  0.17023500  0.33876100  0.50492900  1
  Mn  Mn23  1  0.33876100  0.17023500  0.50492900  1
  Mn  Mn24  1  0.67170500  0.33418300  0.86027300  1
  Mn  Mn25  1  0.33418300  0.67170500  0.86027300  1
  Mn  Mn26  1  0.32829500  0.66581700  0.36027300  1
  Mn  Mn27  1  0.66581700  0.32829500  0.36027300  1
  Pb  Pb0  1  0.00635600  0.61634100  0.75530800  1
  Pb  Pb1  1  0.61634100  0.00635600  0.75530800  1
  Pb  Pb2  1  0.99364400  0.38365900  0.25530800  1
  Pb  Pb3  1  0.38365900  0.99364400  0.25530800  1
  Pb  Pb4  1  0.99219700  0.72821700  0.25623500  1
  Pb  Pb5  1  0.72821700  0.99219700  0.25623500  1
  Pb  Pb6  1  0.00780300  0.27178300  0.75623500  1
  Pb  Pb7  1  0.27178300  0.00780300  0.75623500  1
  Pb  Pb8  1  0.72811800  0.72811800  0.76672700  1
  Pb  Pb9  1  0.27188200  0.27188200  0.26672700  1
  Pb  Pb10  1  0.60656700  0.60656700  0.24654300  1
  Pb  Pb11  1  0.39343300  0.39343300  0.74654300  1
  O  O0  1  0.16854800  0.67701700  0.58696900  1
  O  O1  1  0.67701700  0.16854800  0.58696900  1
  O  O2  1  0.83145200  0.32298300  0.08696900  1
  O  O3  1  0.32298300  0.83145200  0.08696900  1
  O  O4  1  0.83678100  0.35507700  0.74689400  1
  O  O5  1  0.35507700  0.83678100  0.74689400  1
  O  O6  1  0.16321900  0.64492300  0.24689400  1
  O  O7  1  0.64492300  0.16321900  0.24689400  1
  O  O8  1  0.67064400  0.51352700  0.43601700  1
  O  O9  1  0.51352700  0.67064400  0.43601700  1
  O  O10  1  0.32935600  0.48647300  0.93601700  1
  O  O11  1  0.48647300  0.32935600  0.93601700  1
  O  O12  1  0.16855700  0.68266000  0.92276100  1
  O  O13  1  0.68266000  0.16855700  0.92276100  1
  O  O14  1  0.83144300  0.31734000  0.42276100  1
  O  O15  1  0.31734000  0.83144300  0.42276100  1
  O  O16  1  0.83003500  0.83003500  0.43400500  1
  O  O17  1  0.16996500  0.16996500  0.93400500  1
  O  O18  1  0.65326000  0.65326000  0.93728500  1
  O  O19  1  0.34674000  0.34674000  0.43728500  1
  O  O20  1  0.83802500  0.83802500  0.07002100  1
  O  O21  1  0.16197500  0.16197500  0.57002100  1
  O  O22  1  0.67270600  0.67270600  0.58287300  1
  O  O23  1  0.32729400  0.32729400  0.08287300  1
  O  O24  1  0.15519300  0.48969500  0.42452400  1
  O  O25  1  0.48969500  0.15519300  0.42452400  1
  O  O26  1  0.84480700  0.51030500  0.92452400  1
  O  O27  1  0.51030500  0.84480700  0.92452400  1
  O  O28  1  0.99992500  0.83529600  0.57698900  1
  O  O29  1  0.83529600  0.99992500  0.57698900  1
  O  O30  1  0.00007500  0.16470400  0.07698900  1
  O  O31  1  0.16470400  0.00007500  0.07698900  1
  O  O32  1  0.01917700  0.85323000  0.92562200  1
  O  O33  1  0.85323000  0.01917700  0.92562200  1
  O  O34  1  0.98082300  0.14677000  0.42562200  1
  O  O35  1  0.14677000  0.98082300  0.42562200  1
  O  O36  1  0.65328800  0.49587300  0.09402800  1
  O  O37  1  0.49587300  0.65328800  0.09402800  1
  O  O38  1  0.34671200  0.50412700  0.59402800  1
  O  O39  1  0.50412700  0.34671200  0.59402800  1
  O  O40  1  0.65666800  0.47570400  0.76145600  1
  O  O41  1  0.47570400  0.65666800  0.76145600  1
  O  O42  1  0.34333200  0.52429600  0.26145600  1
  O  O43  1  0.52429600  0.34333200  0.26145600  1
  O  O44  1  0.14620100  0.47910900  0.08344900  1
  O  O45  1  0.47910900  0.14620100  0.08344900  1
  O  O46  1  0.85379900  0.52089100  0.58344900  1
  O  O47  1  0.52089100  0.85379900  0.58344900  1
  O  O48  1  0.82341600  0.47372000  0.26622700  1
  O  O49  1  0.47372000  0.82341600  0.26622700  1
  O  O50  1  0.17658400  0.52628000  0.76622700  1
  O  O51  1  0.52628000  0.17658400  0.76622700  1
  O  O52  1  0.99904700  0.67004700  0.43318100  1
  O  O53  1  0.67004700  0.99904700  0.43318100  1
  O  O54  1  0.00095300  0.32995300  0.93318100  1
  O  O55  1  0.32995300  0.00095300  0.93318100  1
  O  O56  1  0.00422900  0.67587500  0.07420100  1
  O  O57  1  0.67587500  0.00422900  0.07420100  1
  O  O58  1  0.99577100  0.32412500  0.57420100  1
  O  O59  1  0.32412500  0.99577100  0.57420100  1
loop_
_geom_bond_atom_site_label_1
_geom_bond_atom_site_label_2
_geom_bond_distance
_geom_bond_site_symmetry_2
Mn0 O15 1.908689 1_555
Mn0 O59 1.944516 1_555
Mn0 O0 1.949296 1_555
Mn0 O35 1.957087 1_555
Mn0 O52 1.967076 1_455
Mn0 O28 1.982420 1_455
Mn1 O14 1.908689 1_555
Mn1 O58 1.944516 1_555
Mn1 O1 1.949296 1_555
Mn1 O34 1.957087 1_555
Mn1 O53 1.967076 1_545
Mn1 O29 1.982420 1_545
Mn2 O13 1.908689 1_554
Mn2 O57 1.944516 1_555
Mn2 O2 1.949296 1_555
Mn2 O33 1.957087 1_554
Mn2 O54 1.967076 1_654
Mn2 O30 1.982420 1_655
Mn3 O12 1.908689 1_554
Mn3 O56 1.944516 1_555
Mn3 O3 1.949296 1_555
Mn3 O32 1.957087 1_554
Mn3 O55 1.967076 1_564
Mn3 O31 1.982420 1_565
Mn4 O46 1.901238 1_555
Mn4 O8 1.924626 1_555
Mn4 O52 1.945163 1_555
Mn4 O16 1.968475 1_555
Mn4 O22 1.979752 1_555
Mn4 O28 1.989499 1_555
Mn5 O47 1.901238 1_555
Mn5 O9 1.924626 1_555
Mn5 O53 1.945163 1_555
Mn5 O16 1.968475 1_555
Mn5 O22 1.979752 1_555
Mn5 O29 1.989499 1_555
Mn6 O44 1.901238 1_555
Mn6 O10 1.924626 1_554
Mn6 O54 1.945163 1_554
Mn6 O17 1.968475 1_554
Mn6 O23 1.979752 1_555
Mn6 O30 1.989499 1_555
Mn7 O45 1.901238 1_555
Mn7 O11 1.924626 1_554
Mn7 O55 1.945163 1_554
Mn7 O17 1.968475 1_554
Mn7 O23 1.979752 1_555
Mn7 O31 1.989499 1_555
Mn8 O39 1.990310 1_555
Mn8 O1 1.995040 1_555
Mn8 O4 1.999835 1_555
Mn8 O40 2.083951 1_555
Mn8 O46 2.095582 1_555
Mn8 O51 2.257925 1_555
Mn9 O38 1.990310 1_555
Mn9 O0 1.995040 1_555
Mn9 O5 1.999835 1_555
Mn9 O41 2.083951 1_555
Mn9 O47 2.095582 1_555
Mn9 O50 2.257925 1_555
Mn10 O37 1.990310 1_555
Mn10 O3 1.995040 1_555
Mn10 O6 1.999835 1_555
Mn10 O42 2.083951 1_555
Mn10 O44 2.095582 1_555
Mn10 O49 2.257925 1_555
Mn11 O36 1.990310 1_555
Mn11 O2 1.995040 1_555
Mn11 O7 1.999835 1_555
Mn11 O43 2.083951 1_555
Mn11 O45 2.095582 1_555
Mn11 O48 2.257925 1_555
Mn12 O46 1.945854 1_455
Mn12 O24 1.961968 1_555
Mn12 O58 2.004204 1_455
Mn12 O52 2.007050 1_455
Mn12 O0 2.116567 1_555
Mn12 O14 2.168512 1_455
Mn13 O47 1.945854 1_545
Mn13 O25 1.961968 1_555
Mn13 O59 2.004204 1_545
Mn13 O53 2.007050 1_545
Mn13 O1 2.116567 1_555
Mn13 O15 2.168512 1_545
Mn14 O44 1.945854 1_655
Mn14 O26 1.961968 1_554
Mn14 O56 2.004204 1_655
Mn14 O54 2.007050 1_654
Mn14 O2 2.116567 1_555
Mn14 O12 2.168512 1_654
Mn15 O45 1.945854 1_565
Mn15 O27 1.961968 1_554
Mn15 O57 2.004204 1_565
Mn15 O55 2.007050 1_564
Mn15 O3 2.116567 1_555
Mn15 O13 2.168512 1_564
Mn16 O34 1.906555 1_565
Mn16 O35 1.906555 1_655
Mn16 O16 1.962514 1_555
Mn16 O21 1.973809 1_665
Mn16 O28 1.974823 1_555
Mn16 O29 1.974823 1_555
Mn17 O33 1.906555 1_455
Mn17 O32 1.906555 1_545
Mn17 O17 1.962514 1_555
Mn17 O20 1.973809 1_446
Mn17 O31 1.974823 1_556
Mn17 O30 1.974823 1_556
Mn18 O9 1.939907 1_555
Mn18 O8 1.939907 1_555
Mn18 O22 1.966438 1_555
Mn18 O38 1.978014 1_555
Mn18 O39 1.978014 1_555
Mn18 O19 1.981229 1_555
Mn19 O10 1.939907 1_554
Mn19 O11 1.939907 1_554
Mn19 O23 1.966438 1_555
Mn19 O37 1.978014 1_555
Mn19 O36 1.978014 1_555
Mn19 O18 1.981229 1_554
Mn20 O56 1.959421 1_655
Mn20 O26 1.960108 1_554
Mn20 O20 1.977136 1_555
Mn20 O18 1.992033 1_554
Mn20 O36 2.167121 1_555
Mn20 O32 2.268955 1_654
Mn21 O57 1.959421 1_565
Mn21 O27 1.960108 1_554
Mn21 O20 1.977136 1_555
Mn21 O18 1.992033 1_554
Mn21 O37 2.167121 1_555
Mn21 O33 2.268955 1_564
Mn22 O58 1.959421 1_455
Mn22 O24 1.960108 1_555
Mn22 O21 1.977136 1_555
Mn22 O19 1.992033 1_555
Mn22 O38 2.167121 1_555
Mn22 O34 2.268955 1_455
Mn23 O59 1.959421 1_545
Mn23 O25 1.960108 1_555
Mn23 O21 1.977136 1_555
Mn23 O19 1.992033 1_555
Mn23 O39 2.167121 1_555
Mn23 O35 2.268955 1_545
Mn24 O13 1.943740 1_555
Mn24 O26 2.024224 1_555
Mn24 O40 2.043001 1_555
Mn24 O51 2.047590 1_555
Mn24 O11 2.136266 1_555
Mn24 O4 2.232552 1_555
Mn25 O12 1.943740 1_555
Mn25 O27 2.024224 1_555
Mn25 O41 2.043001 1_555
Mn25 O50 2.047590 1_555
Mn25 O10 2.136266 1_555
Mn25 O5 2.232552 1_555
Mn26 O15 1.943740 1_555
Mn26 O24 2.024224 1_555
Mn26 O42 2.043001 1_555
Mn26 O49 2.047590 1_555
Mn26 O9 2.136266 1_555
Mn26 O6 2.232552 1_555
Mn27 O14 1.943740 1_555
Mn27 O25 2.024224 1_555
Mn27 O43 2.043001 1_555
Mn27 O48 2.047590 1_555
Mn27 O8 2.136266 1_555
Mn27 O7 2.232552 1_555
O0 Pb0 2.748197 1_555
O1 Pb1 2.748197 1_555
O2 Pb2 2.748197 1_555
O3 Pb3 2.748197 1_555
O4 Pb6 2.273289 1_655
O4 Pb0 2.385390 1_655
O5 Pb7 2.273289 1_565
O5 Pb1 2.385390 1_565
O6 Pb4 2.273289 1_455
O6 Pb2 2.385390 1_455
O7 Pb5 2.273289 1_545
O7 Pb3 2.385390 1_545
O12 Pb0 2.734942 1_555
O13 Pb1 2.734942 1_555
O14 Pb2 2.734942 1_555
O15 Pb3 2.734942 1_555
O18 Pb8 2.483883 1_555
O19 Pb9 2.483883 1_555
O22 Pb8 2.606879 1_555
O23 Pb9 2.606879 1_555
O24 Pb2 2.766216 1_455
O25 Pb3 2.766216 1_545
O26 Pb0 2.766216 1_655
O27 Pb1 2.766216 1_565
O36 Pb10 2.540052 1_555
O37 Pb10 2.540052 1_555
O38 Pb11 2.540052 1_555
O39 Pb11 2.540052 1_555
O40 Pb8 2.313529 1_555
O40 Pb11 2.404684 1_555
O41 Pb8 2.313529 1_555
O41 Pb11 2.404684 1_555
O42 Pb9 2.313529 1_555
O42 Pb10 2.404684 1_555
O43 Pb9 2.313529 1_555
O43 Pb10 2.404684 1_555
O44 Pb2 2.750321 1_455
O45 Pb3 2.750321 1_545
O46 Pb0 2.750321 1_655
O47 Pb1 2.750321 1_565
O48 Pb2 2.318279 1_555
O48 Pb4 2.332278 1_555
O49 Pb3 2.318279 1_555
O49 Pb5 2.332278 1_555
O50 Pb0 2.318279 1_555
O50 Pb6 2.332278 1_555
O51 Pb1 2.318279 1_555
O51 Pb7 2.332278 1_555
O52 Pb4 2.526003 1_555
O53 Pb5 2.526003 1_555
O54 Pb6 2.526003 1_555
O55 Pb7 2.526003 1_555
O56 Pb4 2.587692 1_455
O57 Pb5 2.587692 1_545
O58 Pb6 2.587692 1_655
O59 Pb7 2.587692 1_565
