# generated using pymatgen
data_La2Fe2S2O3
_symmetry_space_group_name_H-M   'P 1'
_cell_length_a   9.53208566
_cell_length_b   9.53208566
_cell_length_c   9.53208566
_cell_angle_alpha   155.48300788
_cell_angle_beta   155.48300788
_cell_angle_gamma   34.94757755
_symmetry_Int_Tables_number   1
_chemical_formula_structural   La2Fe2S2O3
_chemical_formula_sum   'La2 Fe2 S2 O3'
_cell_volume   148.96980606
_cell_formula_units_Z   1
loop_
 _symmetry_equiv_pos_site_id
 _symmetry_equiv_pos_as_xyz
  1  'x, y, z'
loop_
 _atom_site_type_symbol
 _atom_site_label
 _atom_site_symmetry_multiplicity
 _atom_site_fract_x
 _atom_site_fract_y
 _atom_site_fract_z
 _atom_site_occupancy
  La  La0  1  0.18180100  0.18180100  0.00000000  1
  La  La1  1  0.81819900  0.81819900  0.00000000  1
  Fe  Fe0  1  0.50000000  0.00000000  0.50000000  1
  Fe  Fe1  1  0.00000000  0.50000000  0.50000000  1
  S  S0  1  0.40491500  0.40491500  0.00000000  1
  S  S1  1  0.59508500  0.59508500  0.00000000  1
  O  O0  1  0.75000000  0.25000000  0.50000000  1
  O  O1  1  0.25000000  0.75000000  0.50000000  1
  O  O2  1  0.00000000  0.00000000  0.00000000  1
loop_
_geom_bond_atom_site_label_1
_geom_bond_atom_site_label_2
_geom_bond_distance
_geom_bond_site_symmetry_2
La0 O1 2.373621 1_544
La0 O0 2.373621 1_454
La0 O1 2.373621 1_555
La0 O0 2.373621 1_555
La0 S1 3.267830 1_455
La0 S1 3.267830 1_556
La0 S1 3.267830 1_444
La0 S1 3.267830 1_545
La1 O0 2.373621 1_565
La1 O1 2.373621 1_655
La1 O0 2.373621 1_554
La1 O1 2.373621 1_554
La1 S0 3.267830 1_565
La1 S0 3.267830 1_554
La1 S0 3.267830 1_655
La1 S0 3.267830 1_666
Fe0 O2 2.023877 1_555
Fe0 O2 2.023877 1_656
Fe0 S1 2.661908 1_556
Fe0 S1 2.661908 1_545
Fe0 S0 2.661908 1_556
Fe0 S0 2.661908 1_545
Fe1 O2 2.023877 1_566
Fe1 O2 2.023877 1_555
Fe1 S1 2.661908 1_556
Fe1 S1 2.661908 1_455
Fe1 S0 2.661908 1_556
Fe1 S0 2.661908 1_455
