# generated using pymatgen
data_CaZn2(PO5)2
_symmetry_space_group_name_H-M   'P 1'
_cell_length_a   16.69606971
_cell_length_b   22.80552191
_cell_length_c   6.71686001
_cell_angle_alpha   90.00000000
_cell_angle_beta   90.00000000
_cell_angle_gamma   90.00000000
_symmetry_Int_Tables_number   1
_chemical_formula_structural   CaZn2(PO5)2
_chemical_formula_sum   'Ca12 Zn24 P24 O120'
_cell_volume   2557.52897097
_cell_formula_units_Z   12
loop_
 _symmetry_equiv_pos_site_id
 _symmetry_equiv_pos_as_xyz
  1  'x, y, z'
loop_
 _atom_site_type_symbol
 _atom_site_label
 _atom_site_symmetry_multiplicity
 _atom_site_fract_x
 _atom_site_fract_y
 _atom_site_fract_z
 _atom_site_occupancy
  Ca  Ca0  1  0.73793201  0.54498768  0.25632351  1
  Ca  Ca1  1  0.26206799  0.45501232  0.75632351  1
  Ca  Ca2  1  0.73793201  0.95501232  0.75632351  1
  Ca  Ca3  1  0.26206799  0.04498768  0.25632351  1
  Ca  Ca4  1  0.75426694  0.62077881  0.75206003  1
  Ca  Ca5  1  0.24573306  0.37922119  0.25206003  1
  Ca  Ca6  1  0.75426694  0.87922119  0.25206003  1
  Ca  Ca7  1  0.24573306  0.12077881  0.75206003  1
  Ca  Ca8  1  0.75763473  0.28864084  0.76684227  1
  Ca  Ca9  1  0.24236527  0.71135916  0.26684227  1
  Ca  Ca10  1  0.75763473  0.21135916  0.26684227  1
  Ca  Ca11  1  0.24236527  0.78864084  0.76684227  1
  Zn  Zn0  1  0.54115693  0.41972872  0.19958958  1
  Zn  Zn1  1  0.45884307  0.58027128  0.69958958  1
  Zn  Zn2  1  0.54115693  0.08027128  0.69958958  1
  Zn  Zn3  1  0.45884307  0.91972872  0.19958958  1
  Zn  Zn4  1  0.97226560  0.41701416  0.32192241  1
  Zn  Zn5  1  0.02773440  0.58298584  0.82192241  1
  Zn  Zn6  1  0.97226560  0.08298584  0.82192241  1
  Zn  Zn7  1  0.02773440  0.91701416  0.32192241  1
  Zn  Zn8  1  0.46361687  0.58573879  0.20119727  1
  Zn  Zn9  1  0.53638313  0.41426121  0.70119727  1
  Zn  Zn10  1  0.46361687  0.91426121  0.70119727  1
  Zn  Zn11  1  0.53638313  0.08573879  0.20119727  1
  Zn  Zn12  1  0.03121757  0.58435640  0.31996279  1
  Zn  Zn13  1  0.96878243  0.41564360  0.81996279  1
  Zn  Zn14  1  0.03121757  0.91564360  0.81996279  1
  Zn  Zn15  1  0.96878243  0.08435640  0.31996279  1
  Zn  Zn16  1  0.47421352  0.24876608  0.19193328  1
  Zn  Zn17  1  0.52578648  0.75123392  0.69193328  1
  Zn  Zn18  1  0.47421352  0.25123392  0.69193328  1
  Zn  Zn19  1  0.52578648  0.74876608  0.19193328  1
  Zn  Zn20  1  0.95698173  0.74581591  0.81353371  1
  Zn  Zn21  1  0.04301827  0.25418409  0.31353371  1
  Zn  Zn22  1  0.95698173  0.75418409  0.31353371  1
  Zn  Zn23  1  0.04301827  0.24581591  0.81353371  1
  P  P0  1  0.59950474  0.52519620  0.94242722  1
  P  P1  1  0.40049526  0.47480380  0.44242722  1
  P  P2  1  0.59950474  0.97480380  0.44242722  1
  P  P3  1  0.40049526  0.02519620  0.94242722  1
  P  P4  1  0.89755915  0.52057906  0.56448766  1
  P  P5  1  0.10244085  0.47942094  0.06448766  1
  P  P6  1  0.89755915  0.97942094  0.06448766  1
  P  P7  1  0.10244085  0.02057906  0.56448766  1
  P  P8  1  0.59554297  0.64474023  0.45243395  1
  P  P9  1  0.40445703  0.35525977  0.95243395  1
  P  P10  1  0.59554297  0.85525977  0.95243395  1
  P  P11  1  0.40445703  0.14474023  0.45243395  1
  P  P12  1  0.89190174  0.64337050  0.07191172  1
  P  P13  1  0.10809826  0.35662950  0.57191172  1
  P  P14  1  0.89190174  0.85662950  0.57191172  1
  P  P15  1  0.10809826  0.14337050  0.07191172  1
  P  P16  1  0.60915124  0.31226524  0.44731128  1
  P  P17  1  0.39084876  0.68773476  0.94731128  1
  P  P18  1  0.60915124  0.18773476  0.94731128  1
  P  P19  1  0.39084876  0.81226524  0.44731128  1
  P  P20  1  0.90670354  0.30889993  0.06826659  1
  P  P21  1  0.09329646  0.69110007  0.56826659  1
  P  P22  1  0.90670354  0.19110007  0.56826659  1
  P  P23  1  0.09329646  0.80889993  0.06826659  1
  O  O0  1  0.60562426  0.49047236  0.14337883  1
  O  O1  1  0.39437574  0.50952764  0.64337883  1
  O  O2  1  0.60562426  0.00952764  0.64337883  1
  O  O3  1  0.39437574  0.99047236  0.14337883  1
  O  O4  1  0.59617581  0.48597974  0.75768608  1
  O  O5  1  0.40382419  0.51402026  0.25768608  1
  O  O6  1  0.59617581  0.01402026  0.25768608  1
  O  O7  1  0.40382419  0.98597974  0.75768608  1
  O  O8  1  0.52096347  0.56430944  0.94882057  1
  O  O9  1  0.47903653  0.43569056  0.44882057  1
  O  O10  1  0.52096347  0.93569056  0.44882057  1
  O  O11  1  0.47903653  0.06430944  0.94882057  1
  O  O12  1  0.67398712  0.56484023  0.94177524  1
  O  O13  1  0.32601288  0.43515977  0.44177524  1
  O  O14  1  0.67398712  0.93515977  0.44177524  1
  O  O15  1  0.32601288  0.06484023  0.94177524  1
  O  O16  1  0.90289525  0.48375169  0.75598313  1
  O  O17  1  0.09710475  0.51624831  0.25598313  1
  O  O18  1  0.90289525  0.01624831  0.25598313  1
  O  O19  1  0.09710475  0.98375169  0.75598313  1
  O  O20  1  0.90407171  0.48479263  0.36933976  1
  O  O21  1  0.09592829  0.51520737  0.86933976  1
  O  O22  1  0.90407171  0.01520737  0.86933976  1
  O  O23  1  0.09592829  0.98479263  0.36933976  1
  O  O24  1  0.96893221  0.56685714  0.56794186  1
  O  O25  1  0.03106779  0.43314286  0.06794186  1
  O  O26  1  0.96893221  0.93314286  0.06794186  1
  O  O27  1  0.03106779  0.06685714  0.56794186  1
  O  O28  1  0.81716238  0.55414948  0.55493872  1
  O  O29  1  0.18283762  0.44585052  0.05493872  1
  O  O30  1  0.81716238  0.94585052  0.05493872  1
  O  O31  1  0.18283762  0.05414948  0.55493872  1
  O  O32  1  0.59320282  0.68243818  0.64366971  1
  O  O33  1  0.40679718  0.31756182  0.14366971  1
  O  O34  1  0.59320282  0.81756182  0.14366971  1
  O  O35  1  0.40679718  0.18243818  0.64366971  1
  O  O36  1  0.58904244  0.67976925  0.25761502  1
  O  O37  1  0.41095756  0.32023075  0.75761502  1
  O  O38  1  0.58904244  0.82023075  0.75761502  1
  O  O39  1  0.41095756  0.17976925  0.25761502  1
  O  O40  1  0.52214921  0.59994416  0.45628702  1
  O  O41  1  0.47785079  0.40005584  0.95628702  1
  O  O42  1  0.52214921  0.90005584  0.95628702  1
  O  O43  1  0.47785079  0.09994416  0.45628702  1
  O  O44  1  0.67442057  0.60934932  0.45849595  1
  O  O45  1  0.32557943  0.39065068  0.95849595  1
  O  O46  1  0.67442057  0.89065068  0.95849595  1
  O  O47  1  0.32557943  0.10934932  0.45849595  1
  O  O48  1  0.89524886  0.68375601  0.25353129  1
  O  O49  1  0.10475114  0.31624399  0.75353129  1
  O  O50  1  0.89524886  0.81624399  0.75353129  1
  O  O51  1  0.10475114  0.18375601  0.25353129  1
  O  O52  1  0.88888538  0.67686703  0.86811003  1
  O  O53  1  0.11111462  0.32313297  0.36811003  1
  O  O54  1  0.88888538  0.82313297  0.36811003  1
  O  O55  1  0.11111462  0.17686703  0.86811003  1
  O  O56  1  0.96895544  0.60259943  0.07216421  1
  O  O57  1  0.03104456  0.39740057  0.57216421  1
  O  O58  1  0.96895544  0.89740057  0.57216421  1
  O  O59  1  0.03104456  0.10259943  0.07216421  1
  O  O60  1  0.81632867  0.60481224  0.07222260  1
  O  O61  1  0.18367133  0.39518776  0.57222260  1
  O  O62  1  0.81632867  0.89518776  0.57222260  1
  O  O63  1  0.18367133  0.10481224  0.07222260  1
  O  O64  1  0.60587446  0.34665574  0.64760574  1
  O  O65  1  0.39412554  0.65334426  0.14760574  1
  O  O66  1  0.60587446  0.15334426  0.14760574  1
  O  O67  1  0.39412554  0.84665574  0.64760574  1
  O  O68  1  0.60689870  0.35153127  0.26142503  1
  O  O69  1  0.39310130  0.64846873  0.76142503  1
  O  O70  1  0.60689870  0.14846873  0.76142503  1
  O  O71  1  0.39310130  0.85153127  0.26142503  1
  O  O72  1  0.53466837  0.26889951  0.44125292  1
  O  O73  1  0.46533163  0.73110049  0.94125292  1
  O  O74  1  0.53466837  0.23110049  0.94125292  1
  O  O75  1  0.46533163  0.76889951  0.44125292  1
  O  O76  1  0.68696648  0.27582476  0.45499276  1
  O  O77  1  0.31303352  0.72417524  0.95499276  1
  O  O78  1  0.68696648  0.22417524  0.95499276  1
  O  O79  1  0.31303352  0.77582476  0.45499276  1
  O  O80  1  0.90291551  0.34532459  0.87216938  1
  O  O81  1  0.09708449  0.65467541  0.37216938  1
  O  O82  1  0.90291551  0.15467541  0.37216938  1
  O  O83  1  0.09708449  0.84532459  0.87216938  1
  O  O84  1  0.91411889  0.34557396  0.25847277  1
  O  O85  1  0.08588111  0.65442604  0.75847277  1
  O  O86  1  0.91411889  0.15442604  0.75847277  1
  O  O87  1  0.08588111  0.84557396  0.25847277  1
  O  O88  1  0.82943724  0.27187513  0.07040701  1
  O  O89  1  0.17056276  0.72812487  0.57040701  1
  O  O90  1  0.82943724  0.22812487  0.57040701  1
  O  O91  1  0.17056276  0.77187513  0.07040701  1
  O  O92  1  0.98245893  0.26673003  0.05983424  1
  O  O93  1  0.01754107  0.73326997  0.55983424  1
  O  O94  1  0.98245893  0.23326997  0.55983424  1
  O  O95  1  0.01754107  0.76673003  0.05983424  1
  O  O96  1  0.73060137  0.43659278  0.50225720  1
  O  O97  1  0.26939863  0.56340722  0.00225720  1
  O  O98  1  0.73060137  0.06340722  0.00225720  1
  O  O99  1  0.26939863  0.93659278  0.50225720  1
  O  O100  1  0.78307010  0.43868076  0.06715601  1
  O  O101  1  0.21692990  0.56131924  0.56715601  1
  O  O102  1  0.78307010  0.06131924  0.56715601  1
  O  O103  1  0.21692990  0.93868076  0.06715601  1
  O  O104  1  0.71942966  0.72754155  0.96547510  1
  O  O105  1  0.28057034  0.27245845  0.46547510  1
  O  O106  1  0.71942966  0.77245845  0.46547510  1
  O  O107  1  0.28057034  0.22754155  0.96547510  1
  O  O108  1  0.76374254  0.73252919  0.52178350  1
  O  O109  1  0.23625746  0.26747081  0.02178350  1
  O  O110  1  0.76374254  0.76747081  0.02178350  1
  O  O111  1  0.23625746  0.23252919  0.52178350  1
  O  O112  1  0.74334583  0.39760142  0.00072183  1
  O  O113  1  0.25665417  0.60239858  0.50072183  1
  O  O114  1  0.74334583  0.10239858  0.50072183  1
  O  O115  1  0.25665417  0.89760142  0.00072183  1
  O  O116  1  0.77997875  0.39900556  0.55038326  1
  O  O117  1  0.22002125  0.60099444  0.05038326  1
  O  O118  1  0.77997875  0.10099444  0.05038326  1
  O  O119  1  0.22002125  0.89900556  0.55038326  1
loop_
_geom_bond_atom_site_label_1
_geom_bond_atom_site_label_2
_geom_bond_distance
_geom_bond_site_symmetry_2
Ca0 O60 2.259157 1_555
Ca0 O44 2.263390 1_555
Ca0 O12 2.410111 1_554
Ca0 O28 2.411765 1_555
Ca0 O0 2.645933 1_555
Ca0 O100 2.839023 1_555
Ca0 O96 2.975661 1_555
Ca1 O61 2.259157 1_555
Ca1 O45 2.263390 1_555
Ca1 O13 2.410111 1_555
Ca1 O29 2.411765 1_556
Ca1 O1 2.645933 1_555
Ca1 O101 2.839023 1_555
Ca1 O97 2.975661 1_556
Ca2 O62 2.259157 1_555
Ca2 O46 2.263390 1_555
Ca2 O14 2.410111 1_555
Ca2 O30 2.411765 1_556
Ca2 O2 2.645933 1_565
Ca2 O102 2.839023 1_565
Ca2 O98 2.975661 1_566
Ca3 O63 2.259157 1_555
Ca3 O47 2.263390 1_555
Ca3 O15 2.410111 1_554
Ca3 O31 2.411765 1_555
Ca3 O3 2.645933 1_545
Ca3 O103 2.839023 1_545
Ca3 O99 2.975661 1_545
Ca4 O12 2.246732 1_555
Ca4 O28 2.272604 1_555
Ca4 O44 2.394423 1_555
Ca4 O60 2.414719 1_556
Ca4 O52 2.701011 1_555
Ca4 O104 2.884671 1_555
Ca4 O108 2.985365 1_555
Ca5 O13 2.246732 1_555
Ca5 O29 2.272604 1_555
Ca5 O45 2.394423 1_554
Ca5 O61 2.414719 1_555
Ca5 O53 2.701011 1_555
Ca5 O105 2.884671 1_555
Ca5 O109 2.985365 1_555
Ca6 O14 2.246732 1_555
Ca6 O30 2.272604 1_555
Ca6 O46 2.394423 1_554
Ca6 O62 2.414719 1_555
Ca6 O54 2.701011 1_555
Ca6 O106 2.884671 1_555
Ca6 O110 2.985365 1_555
Ca7 O15 2.246732 1_555
Ca7 O31 2.272604 1_555
Ca7 O47 2.394423 1_555
Ca7 O63 2.414719 1_556
Ca7 O55 2.701011 1_555
Ca7 O107 2.884671 1_555
Ca7 O111 2.985365 1_555
Ca8 O90 2.254491 1_555
Ca8 O78 2.269508 1_555
Ca8 O88 2.396015 1_556
Ca8 O76 2.421798 1_555
Ca8 O80 2.838171 1_555
Ca8 O116 2.930526 1_555
Ca8 O112 2.949491 1_556
Ca8 O64 2.968512 1_555
Ca9 O91 2.254491 1_555
Ca9 O79 2.269508 1_555
Ca9 O89 2.396015 1_555
Ca9 O77 2.421798 1_554
Ca9 O81 2.838171 1_555
Ca9 O117 2.930526 1_555
Ca9 O113 2.949491 1_555
Ca9 O65 2.968512 1_555
Ca10 O88 2.254491 1_555
Ca10 O76 2.269508 1_555
Ca10 O90 2.396015 1_555
Ca10 O78 2.421798 1_554
Ca10 O82 2.838171 1_555
Ca10 O118 2.930526 1_555
Ca10 O114 2.949491 1_555
Ca10 O66 2.968512 1_555
Ca11 O89 2.254491 1_555
Ca11 O77 2.269508 1_555
Ca11 O91 2.396015 1_556
Ca11 O79 2.421798 1_555
Ca11 O83 2.838171 1_555
Ca11 O119 2.930526 1_555
Ca11 O115 2.949491 1_556
Ca11 O67 2.968512 1_555
O0 P0 1.568247 1_554
O0 Zn0 1.975846 1_555
O1 P1 1.568247 1_555
O1 Zn1 1.975846 1_555
O2 P2 1.568247 1_545
O2 Zn2 1.975846 1_555
O3 P3 1.568247 1_564
O3 Zn3 1.975846 1_555
O4 P0 1.530601 1_555
O4 Zn9 1.953379 1_555
O5 P1 1.530601 1_555
O5 Zn8 1.953379 1_555
O6 P2 1.530601 1_545
O6 Zn11 1.953379 1_555
O7 P3 1.530601 1_565
O7 Zn10 1.953379 1_555
O8 P0 1.586535 1_555
O8 Zn1 2.002665 1_555
O8 Zn8 2.007287 1_556
O9 P1 1.586535 1_555
O9 Zn0 2.002665 1_555
O9 Zn9 2.007287 1_555
O10 P2 1.586535 1_555
O10 Zn3 2.002665 1_555
O10 Zn10 2.007287 1_555
O11 P3 1.586535 1_555
O11 Zn2 2.002665 1_555
O11 Zn11 2.007287 1_556
O12 P0 1.537488 1_555
O13 P1 1.537488 1_555
O14 P2 1.537488 1_555
O15 P3 1.537488 1_555
O16 P4 1.538749 1_555
O16 Zn13 1.951246 1_555
O17 P5 1.538749 1_555
O17 Zn12 1.951246 1_555
O18 P6 1.538749 1_545
O18 Zn15 1.951246 1_555
O19 P7 1.538749 1_565
O19 Zn14 1.951246 1_555
O20 P4 1.547913 1_555
O20 Zn4 1.946032 1_555
O21 P5 1.547913 1_556
O21 Zn5 1.946032 1_555
O22 P6 1.547913 1_546
O22 Zn6 1.946032 1_555
O23 P7 1.547913 1_565
O23 Zn7 1.946032 1_555
O24 P4 1.591988 1_555
O24 Zn5 2.002356 1_655
O24 Zn12 2.003761 1_655
O25 P5 1.591988 1_555
O25 Zn4 2.002356 1_455
O25 Zn13 2.003761 1_454
O26 P6 1.591988 1_555
O26 Zn7 2.002356 1_655
O26 Zn14 2.003761 1_654
O27 P7 1.591988 1_555
O27 Zn6 2.002356 1_455
O27 Zn15 2.003761 1_455
O28 P4 1.546622 1_555
O29 P5 1.546622 1_555
O30 P6 1.546622 1_555
O31 P7 1.546622 1_555
O32 P8 1.546156 1_555
O32 Zn17 1.957948 1_555
O33 P9 1.546156 1_554
O33 Zn16 1.957948 1_555
O34 P10 1.546156 1_554
O34 Zn19 1.957948 1_555
O35 P11 1.546156 1_555
O35 Zn18 1.957948 1_555
O36 P8 1.536980 1_555
O36 Zn19 1.945756 1_555
O37 P9 1.536980 1_555
O37 Zn18 1.945756 1_555
O38 P10 1.536980 1_555
O38 Zn17 1.945756 1_555
O39 P11 1.536980 1_555
O39 Zn16 1.945756 1_555
O40 P8 1.595590 1_555
O40 Zn1 1.997289 1_555
O40 Zn8 1.998933 1_555
O41 P9 1.595590 1_555
O41 Zn0 1.997289 1_556
O41 Zn9 1.998933 1_555
O42 P10 1.595590 1_555
O42 Zn3 1.997289 1_556
O42 Zn10 1.998933 1_555
O43 P11 1.595590 1_555
O43 Zn2 1.997289 1_555
O43 Zn11 1.998933 1_555
O44 P8 1.545130 1_555
O45 P9 1.545130 1_555
O46 P10 1.545130 1_555
O47 P11 1.545130 1_555
O48 P12 1.529567 1_555
O48 Zn22 1.950508 1_555
O49 P13 1.529567 1_555
O49 Zn23 1.950508 1_555
O50 P14 1.529567 1_555
O50 Zn20 1.950508 1_555
O51 P15 1.529567 1_555
O51 Zn21 1.950508 1_555
O52 P12 1.568437 1_556
O52 Zn20 1.974717 1_555
O53 P13 1.568437 1_555
O53 Zn21 1.974717 1_555
O54 P14 1.568437 1_555
O54 Zn22 1.974717 1_555
O55 P15 1.568437 1_556
O55 Zn23 1.974717 1_555
O56 P12 1.587327 1_555
O56 Zn5 1.997097 1_654
O56 Zn12 2.006001 1_655
O57 P13 1.587327 1_555
O57 Zn4 1.997097 1_455
O57 Zn13 2.006001 1_455
O58 P14 1.587327 1_555
O58 Zn7 1.997097 1_655
O58 Zn14 2.006001 1_655
O59 P15 1.587327 1_555
O59 Zn6 1.997097 1_454
O59 Zn15 2.006001 1_455
O60 P12 1.537959 1_555
O61 P13 1.537959 1_555
O62 P14 1.537959 1_555
O63 P15 1.537959 1_555
O64 P16 1.558228 1_555
O64 Zn9 1.962854 1_555
O65 P17 1.558228 1_554
O65 Zn8 1.962854 1_555
O66 P18 1.558228 1_554
O66 Zn11 1.962854 1_555
O67 P19 1.558228 1_555
O67 Zn10 1.962854 1_555
O68 P16 1.536956 1_555
O68 Zn0 1.948381 1_555
O69 P17 1.536956 1_555
O69 Zn1 1.948381 1_555
O70 P18 1.536956 1_555
O70 Zn2 1.948381 1_555
O71 P19 1.536956 1_555
O71 Zn3 1.948381 1_555
O72 P16 1.589403 1_555
O72 Zn18 2.004057 1_555
O72 Zn16 2.008498 1_555
O73 P17 1.589403 1_555
O73 Zn19 2.004057 1_556
O73 Zn17 2.008498 1_555
O74 P18 1.589403 1_555
O74 Zn16 2.004057 1_556
O74 Zn18 2.008498 1_555
O75 P19 1.589403 1_555
O75 Zn17 2.004057 1_555
O75 Zn19 2.008498 1_555
O76 P16 1.543127 1_555
O77 P17 1.543127 1_555
O78 P18 1.543127 1_555
O79 P19 1.543127 1_555
O80 P20 1.558505 1_556
O80 Zn13 1.975874 1_555
O81 P21 1.558505 1_555
O81 Zn12 1.975874 1_555
O82 P22 1.558505 1_555
O82 Zn15 1.975874 1_555
O83 P23 1.558505 1_556
O83 Zn14 1.975874 1_555
O84 P20 1.532017 1_555
O84 Zn4 1.943841 1_555
O85 P21 1.532017 1_555
O85 Zn5 1.943841 1_555
O86 P22 1.532017 1_555
O86 Zn6 1.943841 1_555
O87 P23 1.532017 1_555
O87 Zn7 1.943841 1_555
O88 P20 1.541875 1_555
O89 P21 1.541875 1_555
O90 P22 1.541875 1_555
O91 P23 1.541875 1_555
O92 P20 1.589921 1_555
O92 Zn23 1.996684 1_654
O92 Zn21 2.002005 1_655
O93 P21 1.589921 1_555
O93 Zn22 1.996684 1_455
O93 Zn20 2.002005 1_455
O94 P22 1.589921 1_555
O94 Zn21 1.996684 1_655
O94 Zn23 2.002005 1_655
O95 P23 1.589921 1_555
O95 Zn20 1.996684 1_454
O95 Zn22 2.002005 1_455
O100 O112 1.231531 1_555
O101 O113 1.231531 1_555
O102 O114 1.231531 1_555
O103 O115 1.231531 1_555
O104 O110 1.232734 1_556
O105 O111 1.232734 1_555
O106 O108 1.232734 1_555
O107 O109 1.232734 1_556
O116 O96 1.232448 1_555
O117 O97 1.232448 1_555
O118 O98 1.232448 1_555
O119 O99 1.232448 1_555
