# generated using pymatgen
data_Li7Mn4CoO12
_symmetry_space_group_name_H-M   'P 1'
_cell_length_a   2.85925800
_cell_length_b   5.31439798
_cell_length_c   14.57998260
_cell_angle_alpha   87.64659563
_cell_angle_beta   90.00000000
_cell_angle_gamma   90.00000000
_symmetry_Int_Tables_number   1
_chemical_formula_structural   Li7Mn4CoO12
_chemical_formula_sum   'Li7 Mn4 Co1 O12'
_cell_volume   221.35939893
_cell_formula_units_Z   1
loop_
 _symmetry_equiv_pos_site_id
 _symmetry_equiv_pos_as_xyz
  1  'x, y, z'
loop_
 _atom_site_type_symbol
 _atom_site_label
 _atom_site_symmetry_multiplicity
 _atom_site_fract_x
 _atom_site_fract_y
 _atom_site_fract_z
 _atom_site_occupancy
  Li  Li0  1  0.50000000  0.16184600  0.15921400  1
  Li  Li1  1  0.50000000  0.50060300  0.50051600  1
  Li  Li2  1  0.50000000  0.83753600  0.84053800  1
  Li  Li3  1  0.00000000  0.66025400  0.15705100  1
  Li  Li4  1  0.00000000  0.00081000  0.50187400  1
  Li  Li5  1  0.00000000  0.33871800  0.84126700  1
  Li  Li6  1  0.50000000  0.50015600  0.99967800  1
  Mn  Mn0  1  0.00000000  0.00076300  0.99936900  1
  Mn  Mn1  1  0.00000000  0.66827000  0.66777200  1
  Mn  Mn2  1  0.00000000  0.33129400  0.33245700  1
  Mn  Mn3  1  0.50000000  0.83037900  0.33390200  1
  Co  Co0  1  0.50000000  0.16928700  0.66672300  1
  O  O0  1  0.50000000  0.84897200  0.07527100  1
  O  O1  1  0.50000000  0.18952500  0.41141000  1
  O  O2  1  0.50000000  0.51717400  0.74307700  1
  O  O3  1  0.00000000  0.29250700  0.07449600  1
  O  O4  1  0.00000000  0.68629000  0.41193700  1
  O  O5  1  0.00000000  0.02100300  0.73799100  1
  O  O6  1  0.50000000  0.47916300  0.25625800  1
  O  O7  1  0.50000000  0.81348300  0.59014000  1
  O  O8  1  0.50000000  0.15073100  0.92402000  1
  O  O9  1  0.00000000  0.97745400  0.25860000  1
  O  O10  1  0.00000000  0.31500800  0.59204400  1
  O  O11  1  0.00000000  0.70877600  0.92439600  1
loop_
_geom_bond_atom_site_label_1
_geom_bond_atom_site_label_2
_geom_bond_distance
_geom_bond_site_symmetry_2
Li0 O3 1.995309 1_555
Li0 O3 1.995309 1_655
Li0 O0 2.104690 1_545
Li0 O9 2.233210 1_545
Li0 O9 2.233210 1_645
Li0 O6 2.245366 1_555
Li1 O4 2.140303 1_655
Li1 O4 2.140303 1_555
Li1 O1 2.144122 1_555
Li1 O7 2.156560 1_555
Li1 O10 2.165504 1_655
Li1 O10 2.165504 1_555
Li2 O11 1.984500 1_655
Li2 O11 1.984500 1_555
Li2 O8 2.101962 1_565
Li2 O5 2.260575 1_665
Li2 O5 2.260575 1_565
Li2 O2 2.261964 1_555
Li3 O0 2.091216 1_455
Li3 O0 2.091216 1_555
Li3 O6 2.224385 1_555
Li3 O6 2.224385 1_455
Li3 O9 2.288837 1_555
Li3 O3 2.336978 1_555
Li4 O7 2.141461 1_445
Li4 O7 2.141461 1_545
Li4 O1 2.163490 1_555
Li4 O1 2.163490 1_455
Li4 O4 2.166407 1_545
Li4 O10 2.167211 1_555
Li5 O8 2.097297 1_455
Li5 O8 2.097297 1_555
Li5 O2 2.209361 1_455
Li5 O2 2.209361 1_555
Li5 O5 2.308036 1_555
Li5 O11 2.352106 1_555
Li6 O3 2.086312 1_556
Li6 O3 2.086312 1_656
Li6 O11 2.092329 1_555
Li6 O11 2.092329 1_655
Li6 O0 2.195198 1_556
Li6 O8 2.198506 1_555
Mn0 O11 1.934441 1_545
Mn0 O3 1.934720 1_556
Mn0 O8 1.952951 1_555
Mn0 O8 1.952951 1_455
Mn0 O0 1.961104 1_546
Mn0 O0 1.961104 1_446
Mn1 O2 1.954917 1_455
Mn1 O2 1.954917 1_555
Mn1 O7 1.961834 1_455
Mn1 O7 1.961834 1_555
Mn1 O5 2.172499 1_565
Mn1 O10 2.216717 1_555
Mn2 O6 1.955493 1_555
Mn2 O6 1.955493 1_455
Mn2 O1 1.966051 1_555
Mn2 O1 1.966051 1_455
Mn2 O9 2.204983 1_545
Mn2 O4 2.254246 1_555
Mn3 O9 1.946709 1_555
Mn3 O9 1.946709 1_655
Mn3 O4 1.962939 1_555
Mn3 O4 1.962939 1_655
Mn3 O6 2.222362 1_555
Mn3 O1 2.257678 1_565
Co0 O5 1.917628 1_655
Co0 O5 1.917628 1_555
Co0 O10 1.939031 1_555
Co0 O10 1.939031 1_655
Co0 O2 2.196914 1_555
Co0 O7 2.235081 1_545
