# generated using pymatgen
data_Er6Al43Mo4
_symmetry_space_group_name_H-M   'P 1'
_cell_length_a   11.04262991
_cell_length_b   11.04262991
_cell_length_c   17.61554300
_cell_angle_alpha   90.00000000
_cell_angle_beta   90.00000000
_cell_angle_gamma   119.99999946
_symmetry_Int_Tables_number   1
_chemical_formula_structural   Er6Al43Mo4
_chemical_formula_sum   'Er12 Al86 Mo8'
_cell_volume   1860.25167071
_cell_formula_units_Z   2
loop_
 _symmetry_equiv_pos_site_id
 _symmetry_equiv_pos_as_xyz
  1  'x, y, z'
loop_
 _atom_site_type_symbol
 _atom_site_label
 _atom_site_symmetry_multiplicity
 _atom_site_fract_x
 _atom_site_fract_y
 _atom_site_fract_z
 _atom_site_occupancy
  Er  Er0  1  0.46898200  0.46898200  0.90472400  1
  Er  Er1  1  0.53101800  0.00000000  0.90472400  1
  Er  Er2  1  0.00000000  0.53101800  0.90472400  1
  Er  Er3  1  0.53101800  0.53101800  0.09527600  1
  Er  Er4  1  0.46898200  0.00000000  0.09527600  1
  Er  Er5  1  0.00000000  0.46898200  0.09527600  1
  Er  Er6  1  0.53101800  0.53101800  0.40472400  1
  Er  Er7  1  0.46898200  0.00000000  0.40472400  1
  Er  Er8  1  0.00000000  0.46898200  0.40472400  1
  Er  Er9  1  0.46898200  0.46898200  0.59527600  1
  Er  Er10  1  0.53101800  0.00000000  0.59527600  1
  Er  Er11  1  0.00000000  0.53101800  0.59527600  1
  Al  Al0  1  0.84180600  0.23659100  0.83670200  1
  Al  Al1  1  0.76340900  0.60521500  0.83670200  1
  Al  Al2  1  0.39478500  0.15819400  0.83670200  1
  Al  Al3  1  0.23659100  0.84180600  0.83670200  1
  Al  Al4  1  0.60521500  0.76340900  0.83670200  1
  Al  Al5  1  0.15819400  0.39478500  0.83670200  1
  Al  Al6  1  0.15819400  0.76340900  0.16329800  1
  Al  Al7  1  0.23659100  0.39478500  0.16329800  1
  Al  Al8  1  0.60521500  0.84180600  0.16329800  1
  Al  Al9  1  0.76340900  0.15819400  0.16329800  1
  Al  Al10  1  0.39478500  0.23659100  0.16329800  1
  Al  Al11  1  0.84180600  0.60521500  0.16329800  1
  Al  Al12  1  0.15819400  0.76340900  0.33670200  1
  Al  Al13  1  0.23659100  0.39478500  0.33670200  1
  Al  Al14  1  0.60521500  0.84180600  0.33670200  1
  Al  Al15  1  0.76340900  0.15819400  0.33670200  1
  Al  Al16  1  0.39478500  0.23659100  0.33670200  1
  Al  Al17  1  0.84180600  0.60521500  0.33670200  1
  Al  Al18  1  0.84180600  0.23659100  0.66329800  1
  Al  Al19  1  0.76340900  0.60521500  0.66329800  1
  Al  Al20  1  0.39478500  0.15819400  0.66329800  1
  Al  Al21  1  0.23659100  0.84180600  0.66329800  1
  Al  Al22  1  0.60521500  0.76340900  0.66329800  1
  Al  Al23  1  0.15819400  0.39478500  0.66329800  1
  Al  Al24  1  0.84052300  0.84052300  0.38549400  1
  Al  Al25  1  0.15947700  0.00000000  0.38549400  1
  Al  Al26  1  0.00000000  0.15947700  0.38549400  1
  Al  Al27  1  0.15947700  0.15947700  0.61450600  1
  Al  Al28  1  0.84052300  0.00000000  0.61450600  1
  Al  Al29  1  0.00000000  0.84052300  0.61450600  1
  Al  Al30  1  0.15947700  0.15947700  0.88549400  1
  Al  Al31  1  0.84052300  0.00000000  0.88549400  1
  Al  Al32  1  0.00000000  0.84052300  0.88549400  1
  Al  Al33  1  0.84052300  0.84052300  0.11450600  1
  Al  Al34  1  0.15947700  0.00000000  0.11450600  1
  Al  Al35  1  0.00000000  0.15947700  0.11450600  1
  Al  Al36  1  0.74546600  0.74546600  0.96968000  1
  Al  Al37  1  0.25453400  0.00000000  0.96968000  1
  Al  Al38  1  0.00000000  0.25453400  0.96968000  1
  Al  Al39  1  0.25453400  0.25453400  0.03032000  1
  Al  Al40  1  0.74546600  0.00000000  0.03032000  1
  Al  Al41  1  0.00000000  0.74546600  0.03032000  1
  Al  Al42  1  0.25453400  0.25453400  0.46968000  1
  Al  Al43  1  0.74546600  0.00000000  0.46968000  1
  Al  Al44  1  0.00000000  0.74546600  0.46968000  1
  Al  Al45  1  0.74546600  0.74546600  0.53032000  1
  Al  Al46  1  0.25453400  0.00000000  0.53032000  1
  Al  Al47  1  0.00000000  0.25453400  0.53032000  1
  Al  Al48  1  0.85290100  0.44892900  0.75000000  1
  Al  Al49  1  0.55107100  0.40397200  0.75000000  1
  Al  Al50  1  0.59602800  0.14709900  0.75000000  1
  Al  Al51  1  0.44892900  0.85290100  0.75000000  1
  Al  Al52  1  0.40397200  0.55107100  0.75000000  1
  Al  Al53  1  0.14709900  0.59602800  0.75000000  1
  Al  Al54  1  0.14709900  0.55107100  0.25000000  1
  Al  Al55  1  0.44892900  0.59602800  0.25000000  1
  Al  Al56  1  0.40397200  0.85290100  0.25000000  1
  Al  Al57  1  0.55107100  0.14709900  0.25000000  1
  Al  Al58  1  0.59602800  0.44892900  0.25000000  1
  Al  Al59  1  0.85290100  0.40397200  0.25000000  1
  Al  Al60  1  0.75294800  0.24705200  0.00000000  1
  Al  Al61  1  0.75294800  0.50589500  0.00000000  1
  Al  Al62  1  0.49410500  0.24705200  0.00000000  1
  Al  Al63  1  0.24705200  0.75294800  0.00000000  1
  Al  Al64  1  0.50589500  0.75294800  0.00000000  1
  Al  Al65  1  0.24705200  0.49410500  0.00000000  1
  Al  Al66  1  0.24705200  0.75294800  0.50000000  1
  Al  Al67  1  0.24705200  0.49410500  0.50000000  1
  Al  Al68  1  0.50589500  0.75294800  0.50000000  1
  Al  Al69  1  0.75294800  0.24705200  0.50000000  1
  Al  Al70  1  0.49410500  0.24705200  0.50000000  1
  Al  Al71  1  0.75294800  0.50589500  0.50000000  1
  Al  Al72  1  0.66666700  0.33333300  0.87391500  1
  Al  Al73  1  0.33333300  0.66666700  0.87391500  1
  Al  Al74  1  0.33333300  0.66666700  0.12608500  1
  Al  Al75  1  0.66666700  0.33333300  0.12608500  1
  Al  Al76  1  0.33333300  0.66666700  0.37391500  1
  Al  Al77  1  0.66666700  0.33333300  0.37391500  1
  Al  Al78  1  0.66666700  0.33333300  0.62608500  1
  Al  Al79  1  0.33333300  0.66666700  0.62608500  1
  Al  Al80  1  0.85260500  0.85260500  0.75000000  1
  Al  Al81  1  0.14739500  0.00000000  0.75000000  1
  Al  Al82  1  0.00000000  0.14739500  0.75000000  1
  Al  Al83  1  0.14739500  0.14739500  0.25000000  1
  Al  Al84  1  0.85260500  0.00000000  0.25000000  1
  Al  Al85  1  0.00000000  0.85260500  0.25000000  1
  Mo  Mo0  1  0.27048700  0.27048700  0.75000000  1
  Mo  Mo1  1  0.72951300  0.00000000  0.75000000  1
  Mo  Mo2  1  0.00000000  0.72951300  0.75000000  1
  Mo  Mo3  1  0.72951300  0.72951300  0.25000000  1
  Mo  Mo4  1  0.27048700  0.00000000  0.25000000  1
  Mo  Mo5  1  0.00000000  0.27048700  0.25000000  1
  Mo  Mo6  1  0.00000000  0.00000000  0.00000000  1
  Mo  Mo7  1  0.00000000  0.00000000  0.50000000  1
loop_
_geom_bond_atom_site_label_1
_geom_bond_atom_site_label_2
_geom_bond_distance
_geom_bond_site_symmetry_2
Er0 Er3 3.425866 1_556
Er0 Mo0 3.497580 1_555
Er1 Er4 3.425866 1_556
Er1 Mo1 3.497580 1_555
Er2 Er5 3.425866 1_556
Er2 Mo2 3.497580 1_555
Er3 Mo3 3.497580 1_555
Er4 Mo4 3.497580 1_555
Er5 Mo5 3.497580 1_555
Er6 Er9 3.425866 1_555
Er6 Mo3 3.497580 1_555
Er7 Mo4 3.497580 1_555
Er8 Mo5 3.497580 1_555
Er9 Mo0 3.497580 1_555
Er10 Er7 3.425866 1_555
Er10 Mo1 3.497580 1_555
Er11 Er8 3.425866 1_555
Er11 Mo2 3.497580 1_555
Al0 Al72 2.716127 1_555
Al0 Mo1 2.730614 1_555
Al0 Al31 2.743635 1_555
Al0 Al48 2.749242 1_555
Al0 Al50 2.827216 1_555
Al0 Al82 2.841651 1_655
Al0 Al38 2.869134 1_655
Al0 Al5 3.025681 1_655
Al0 Al18 3.054606 1_555
Al0 Al60 3.060102 1_556
Al0 Er2 3.062426 1_655
Al0 Er1 3.327653 1_555
Al1 Al72 2.716138 1_555
Al1 Mo2 2.730614 1_655
Al1 Al32 2.743635 1_655
Al1 Al49 2.749242 1_555
Al1 Al48 2.827216 1_555
Al1 Al80 2.841651 1_555
Al1 Al36 2.869134 1_555
Al1 Al4 3.025681 1_555
Al1 Al19 3.054606 1_555
Al1 Al61 3.060106 1_556
Al1 Er0 3.062426 1_555
Al1 Er2 3.327653 1_655
Al2 Al72 2.716136 1_555
Al2 Mo0 2.730614 1_555
Al2 Al30 2.743635 1_555
Al2 Al50 2.749242 1_555
Al2 Al49 2.827216 1_555
Al2 Al81 2.841651 1_555
Al2 Al37 2.869134 1_555
Al2 Al3 3.025681 1_545
Al2 Al20 3.054606 1_555
Al2 Al62 3.060105 1_556
Al2 Er1 3.062426 1_555
Al2 Er0 3.327653 1_555
Al3 Al73 2.716127 1_555
Al3 Mo2 2.730614 1_555
Al3 Al32 2.743635 1_555
Al3 Al51 2.749242 1_555
Al3 Al53 2.827216 1_555
Al3 Al81 2.841651 1_565
Al3 Al37 2.869134 1_565
Al3 Al63 3.060102 1_556
Al3 Er1 3.062426 1_565
Al3 Er2 3.327653 1_555
Al4 Al73 2.716138 1_555
Al4 Mo1 2.730614 1_565
Al4 Al52 2.749242 1_555
Al4 Al51 2.827216 1_555
Al4 Al80 2.841651 1_555
Al4 Al64 3.060106 1_556
Al4 Er0 3.062426 1_555
Al4 Er1 3.327653 1_565
Al5 Al73 2.716136 1_555
Al5 Mo0 2.730614 1_555
Al5 Al53 2.749242 1_555
Al5 Al52 2.827216 1_555
Al5 Al82 2.841651 1_555
Al5 Al65 3.060105 1_556
Al5 Er2 3.062426 1_555
Al5 Er0 3.327653 1_555
Al6 Al74 2.716127 1_555
Al6 Mo4 2.730614 1_565
Al6 Al85 2.841651 1_555
Al6 Al63 3.060102 1_555
Al6 Er5 3.062426 1_555
Al6 Er4 3.327653 1_565
Al7 Al74 2.716138 1_555
Al7 Mo5 2.730614 1_555
Al7 Al83 2.841651 1_555
Al7 Er3 3.062426 1_555
Al7 Er5 3.327653 1_555
Al8 Mo3 2.730614 1_555
Al8 Al84 2.841651 1_565
Al8 Al9 3.025681 1_565
Al8 Er4 3.062426 1_565
Al8 Er3 3.327653 1_555
Al9 Mo5 2.730614 1_655
Al9 Er4 3.062426 1_555
Al9 Er5 3.327653 1_655
Al10 Al75 2.716138 1_555
Al10 Mo4 2.730614 1_555
Al10 Al34 2.743635 1_555
Al10 Al58 2.749242 1_555
Al10 Al57 2.827216 1_555
Al10 Al83 2.841651 1_555
Al10 Al39 2.869134 1_555
Al10 Al7 3.025681 1_555
Al10 Al16 3.054606 1_555
Al10 Al62 3.060106 1_555
Al10 Er3 3.062426 1_555
Al10 Er4 3.327653 1_555
Al11 Al75 2.716136 1_555
Al11 Mo3 2.730614 1_555
Al11 Al33 2.743635 1_555
Al11 Al59 2.749242 1_555
Al11 Al58 2.827216 1_555
Al11 Al85 2.841651 1_655
Al11 Al41 2.869134 1_655
Al11 Al6 3.025681 1_655
Al11 Al17 3.054606 1_555
Al11 Al61 3.060105 1_555
Al11 Er5 3.062426 1_655
Al11 Er3 3.327653 1_555
Al12 Al76 2.716127 1_555
Al12 Mo4 2.730614 1_565
Al12 Al25 2.743635 1_565
Al12 Al54 2.749242 1_555
Al12 Al56 2.827216 1_555
Al12 Al85 2.841651 1_555
Al12 Al44 2.869134 1_555
Al12 Al17 3.025681 1_455
Al12 Al6 3.054606 1_555
Al12 Al66 3.060102 1_555
Al12 Er8 3.062426 1_555
Al12 Er7 3.327653 1_565
Al13 Al76 2.716138 1_555
Al13 Mo5 2.730614 1_555
Al13 Al26 2.743635 1_555
Al13 Al55 2.749242 1_555
Al13 Al54 2.827216 1_555
Al13 Al83 2.841651 1_555
Al13 Al42 2.869134 1_555
Al13 Al16 3.025681 1_555
Al13 Al7 3.054606 1_555
Al13 Al67 3.060106 1_555
Al13 Er6 3.062426 1_555
Al13 Er8 3.327653 1_555
Al14 Al76 2.716136 1_555
Al14 Mo3 2.730614 1_555
Al14 Al24 2.743635 1_555
Al14 Al56 2.749242 1_555
Al14 Al55 2.827216 1_555
Al14 Al84 2.841651 1_565
Al14 Al43 2.869134 1_565
Al14 Al15 3.025681 1_565
Al14 Al8 3.054606 1_555
Al14 Al68 3.060105 1_555
Al14 Er7 3.062426 1_565
Al14 Er6 3.327653 1_555
Al15 Al77 2.716127 1_555
Al15 Mo5 2.730614 1_655
Al15 Al26 2.743635 1_655
Al15 Al57 2.749242 1_555
Al15 Al59 2.827216 1_555
Al15 Al84 2.841651 1_555
Al15 Al43 2.869134 1_555
Al15 Al9 3.054606 1_555
Al15 Al69 3.060102 1_555
Al15 Er7 3.062426 1_555
Al15 Er8 3.327653 1_655
Al16 Al77 2.716138 1_555
Al16 Mo4 2.730614 1_555
Al16 Al25 2.743635 1_555
Al16 Al58 2.749242 1_555
Al16 Al57 2.827216 1_555
Al16 Al83 2.841651 1_555
Al16 Al42 2.869134 1_555
Al16 Al70 3.060106 1_555
Al16 Er6 3.062426 1_555
Al16 Er7 3.327653 1_555
Al17 Al77 2.716136 1_555
Al17 Mo3 2.730614 1_555
Al17 Al24 2.743635 1_555
Al17 Al59 2.749242 1_555
Al17 Al58 2.827216 1_555
Al17 Al85 2.841651 1_655
Al17 Al44 2.869134 1_655
Al17 Al71 3.060105 1_555
Al17 Er8 3.062426 1_655
Al17 Er6 3.327653 1_555
Al18 Al78 2.716127 1_555
Al18 Mo1 2.730614 1_555
Al18 Al28 2.743635 1_555
Al18 Al48 2.749242 1_555
Al18 Al50 2.827216 1_555
Al18 Al82 2.841651 1_655
Al18 Al47 2.869134 1_655
Al18 Al23 3.025681 1_655
Al18 Al69 3.060102 1_555
Al18 Er11 3.062426 1_655
Al18 Er10 3.327653 1_555
Al19 Al78 2.716138 1_555
Al19 Mo2 2.730614 1_655
Al19 Al29 2.743635 1_655
Al19 Al49 2.749242 1_555
Al19 Al48 2.827216 1_555
Al19 Al80 2.841651 1_555
Al19 Al45 2.869134 1_555
Al19 Al22 3.025681 1_555
Al19 Al71 3.060106 1_555
Al19 Er9 3.062426 1_555
Al19 Er11 3.327653 1_655
Al20 Al78 2.716136 1_555
Al20 Mo0 2.730614 1_555
Al20 Al27 2.743635 1_555
Al20 Al50 2.749242 1_555
Al20 Al49 2.827216 1_555
Al20 Al81 2.841651 1_555
Al20 Al46 2.869134 1_555
Al20 Al21 3.025681 1_545
Al20 Al70 3.060105 1_555
Al20 Er10 3.062426 1_555
Al20 Er9 3.327653 1_555
Al21 Al79 2.716127 1_555
Al21 Mo2 2.730614 1_555
Al21 Al29 2.743635 1_555
Al21 Al51 2.749242 1_555
Al21 Al53 2.827216 1_555
Al21 Al81 2.841651 1_565
Al21 Al46 2.869134 1_565
Al21 Al3 3.054606 1_555
Al21 Al66 3.060102 1_555
Al21 Er10 3.062426 1_565
Al21 Er11 3.327653 1_555
Al22 Al79 2.716138 1_555
Al22 Mo1 2.730614 1_565
Al22 Al28 2.743635 1_565
Al22 Al52 2.749242 1_555
Al22 Al51 2.827216 1_555
Al22 Al80 2.841651 1_555
Al22 Al45 2.869134 1_555
Al22 Al4 3.054606 1_555
Al22 Al68 3.060106 1_555
Al22 Er9 3.062426 1_555
Al22 Er10 3.327653 1_565
Al23 Al79 2.716136 1_555
Al23 Mo0 2.730614 1_555
Al23 Al27 2.743635 1_555
Al23 Al53 2.749242 1_555
Al23 Al52 2.827216 1_555
Al23 Al82 2.841651 1_555
Al23 Al47 2.869134 1_555
Al23 Al5 3.054606 1_555
Al23 Al67 3.060105 1_555
Al23 Er11 3.062426 1_555
Al23 Er9 3.327653 1_555
Al24 Mo7 2.677670 1_665
Al24 Mo3 2.683189 1_555
Al24 Al45 2.758694 1_555
Al24 Al43 2.872434 1_565
Al24 Al44 2.872434 1_655
Al24 Al84 2.929325 1_565
Al24 Al85 2.929325 1_655
Al24 Al25 3.050220 1_665
Al24 Al26 3.050220 1_665
Al24 Er6 3.434495 1_555
Al25 Mo7 2.677670 1_555
Al25 Mo4 2.683189 1_555
Al25 Al46 2.758694 1_555
Al25 Al42 2.872434 1_555
Al25 Al44 2.872434 1_545
Al25 Al83 2.929325 1_555
Al25 Al85 2.929325 1_545
Al25 Al26 3.050220 1_555
Al25 Er7 3.434495 1_555
Al26 Mo7 2.677670 1_555
Al26 Mo5 2.683189 1_555
Al26 Al47 2.758694 1_555
Al26 Al42 2.872434 1_555
Al26 Al43 2.872434 1_455
Al26 Al83 2.929325 1_555
Al26 Al84 2.929325 1_455
Al26 Er8 3.434495 1_555
Al27 Mo7 2.677670 1_555
Al27 Mo0 2.683189 1_555
Al27 Al42 2.758694 1_555
Al27 Al47 2.872434 1_555
Al27 Al46 2.872434 1_555
Al27 Al82 2.929325 1_555
Al27 Al81 2.929325 1_555
Al27 Al29 3.050220 1_545
Al27 Al28 3.050220 1_455
Al27 Er9 3.434495 1_555
Al28 Mo7 2.677670 1_655
Al28 Mo1 2.683189 1_555
Al28 Al43 2.758694 1_555
Al28 Al45 2.872434 1_545
Al28 Al47 2.872434 1_655
Al28 Al80 2.929325 1_545
Al28 Al82 2.929325 1_655
Al28 Al29 3.050220 1_645
Al28 Er10 3.434495 1_555
Al29 Mo7 2.677670 1_565
Al29 Mo2 2.683189 1_555
Al29 Al44 2.758694 1_555
Al29 Al45 2.872434 1_455
Al29 Al46 2.872434 1_565
Al29 Al80 2.929325 1_455
Al29 Al81 2.929325 1_565
Al29 Er11 3.434495 1_555
Al30 Mo6 2.677670 1_556
Al30 Mo0 2.683189 1_555
Al30 Al5 2.743635 1_555
Al30 Al39 2.758694 1_556
Al30 Al38 2.872434 1_555
Al30 Al37 2.872434 1_555
Al30 Al82 2.929325 1_555
Al30 Al81 2.929325 1_555
Al30 Al31 3.050220 1_455
Al30 Al32 3.050220 1_545
Al30 Er0 3.434495 1_555
Al31 Mo6 2.677670 1_656
Al31 Mo1 2.683189 1_555
Al31 Al4 2.743635 1_545
Al31 Al40 2.758694 1_556
Al31 Al36 2.872434 1_545
Al31 Al38 2.872434 1_655
Al31 Al80 2.929325 1_545
Al31 Al82 2.929325 1_655
Al31 Al32 3.050220 1_645
Al31 Er1 3.434495 1_555
Al32 Mo6 2.677670 1_566
Al32 Mo2 2.683189 1_555
Al32 Al41 2.758694 1_556
Al32 Al36 2.872434 1_455
Al32 Al37 2.872434 1_565
Al32 Al80 2.929325 1_455
Al32 Al81 2.929325 1_565
Al32 Er2 3.434495 1_555
Al33 Mo6 2.677670 1_665
Al33 Mo3 2.683189 1_555
Al33 Al8 2.743635 1_555
Al33 Al36 2.758694 1_554
Al33 Al40 2.872434 1_565
Al33 Al41 2.872434 1_655
Al33 Al84 2.929325 1_565
Al33 Al85 2.929325 1_655
Al33 Al34 3.050220 1_665
Al33 Al35 3.050220 1_665
Al33 Er3 3.434495 1_555
Al34 Mo6 2.677670 1_555
Al34 Mo4 2.683189 1_555
Al34 Al6 2.743635 1_545
Al34 Al37 2.758694 1_554
Al34 Al39 2.872434 1_555
Al34 Al41 2.872434 1_545
Al34 Al83 2.929325 1_555
Al34 Al85 2.929325 1_545
Al34 Al35 3.050220 1_555
Al34 Er4 3.434495 1_555
Al35 Mo6 2.677670 1_555
Al35 Mo5 2.683189 1_555
Al35 Al9 2.743635 1_455
Al35 Al7 2.743635 1_555
Al35 Al38 2.758694 1_554
Al35 Al39 2.872434 1_555
Al35 Al40 2.872434 1_455
Al35 Al83 2.929325 1_555
Al35 Al84 2.929325 1_455
Al35 Er5 3.434495 1_555
Al36 Al61 2.740311 1_556
Al36 Al64 2.740311 1_556
Al36 Mo6 2.861021 1_666
Al36 Al4 2.869134 1_555
Al36 Al41 3.006865 1_656
Al36 Al40 3.006865 1_566
Al36 Er3 3.240780 1_556
Al36 Er0 3.260484 1_555
Al37 Al63 2.740300 1_546
Al37 Al62 2.740305 1_556
Al37 Mo6 2.861021 1_556
Al37 Al39 3.006865 1_556
Al37 Al41 3.006865 1_546
Al37 Er4 3.240780 1_556
Al37 Er1 3.260484 1_555
Al38 Al60 2.740300 1_456
Al38 Al65 2.740305 1_556
Al38 Mo6 2.861021 1_556
Al38 Al5 2.869134 1_555
Al38 Al39 3.006865 1_556
Al38 Al40 3.006865 1_456
Al38 Er5 3.240780 1_556
Al38 Er2 3.260484 1_555
Al39 Al62 2.740311 1_555
Al39 Al65 2.740311 1_555
Al39 Mo6 2.861021 1_555
Al39 Al7 2.869134 1_555
Al39 Er0 3.240780 1_554
Al39 Er3 3.260484 1_555
Al40 Al60 2.740300 1_555
Al40 Al64 2.740305 1_545
Al40 Mo6 2.861021 1_655
Al40 Al9 2.869134 1_555
Al40 Al8 2.869134 1_545
Al40 Er1 3.240780 1_554
Al40 Er4 3.260484 1_555
Al41 Al63 2.740300 1_555
Al41 Al61 2.740305 1_455
Al41 Mo6 2.861021 1_565
Al41 Al6 2.869134 1_555
Al41 Er2 3.240780 1_554
Al41 Er5 3.260484 1_555
Al42 Al67 2.740311 1_555
Al42 Al70 2.740311 1_555
Al42 Mo7 2.861021 1_555
Al42 Al46 3.006865 1_555
Al42 Al47 3.006865 1_555
Al42 Er9 3.240780 1_555
Al42 Er6 3.260484 1_555
Al43 Al69 2.740300 1_555
Al43 Al68 2.740305 1_545
Al43 Mo7 2.861021 1_655
Al43 Al45 3.006865 1_545
Al43 Al47 3.006865 1_655
Al43 Er10 3.240780 1_555
Al43 Er7 3.260484 1_555
Al44 Al66 2.740300 1_555
Al44 Al71 2.740305 1_455
Al44 Mo7 2.861021 1_565
Al44 Al45 3.006865 1_455
Al44 Al46 3.006865 1_565
Al44 Er11 3.240780 1_555
Al44 Er8 3.260484 1_555
Al45 Al71 2.740311 1_555
Al45 Al68 2.740311 1_555
Al45 Mo7 2.861021 1_665
Al45 Er6 3.240780 1_555
Al45 Er9 3.260484 1_555
Al46 Al66 2.740300 1_545
Al46 Al70 2.740305 1_555
Al46 Mo7 2.861021 1_555
Al46 Er7 3.240780 1_555
Al46 Er10 3.260484 1_555
Al47 Al69 2.740300 1_455
Al47 Al67 2.740305 1_555
Al47 Mo7 2.861021 1_555
Al47 Er8 3.240780 1_555
Al47 Er11 3.260484 1_555
Al48 Mo2 2.684333 1_655
Al48 Al53 2.813474 1_655
Al48 Al78 2.828126 1_555
Al48 Al72 2.828126 1_555
Al48 Er2 3.068617 1_655
Al48 Er11 3.068617 1_655
Al48 Al49 3.114592 1_555
Al48 Al50 3.114592 1_555
Al49 Mo0 2.684333 1_555
Al49 Al52 2.813474 1_555
Al49 Al78 2.828132 1_555
Al49 Al72 2.828132 1_555
Al49 Er9 3.068617 1_555
Al49 Er0 3.068617 1_555
Al49 Al50 3.114592 1_555
Al50 Mo1 2.684333 1_555
Al50 Al51 2.813474 1_545
Al50 Al78 2.828125 1_555
Al50 Al72 2.828125 1_555
Al50 Er1 3.068617 1_555
Al50 Er10 3.068617 1_555
Al51 Mo1 2.684333 1_565
Al51 Al73 2.828126 1_555
Al51 Al79 2.828126 1_555
Al51 Er1 3.068617 1_565
Al51 Er10 3.068617 1_565
Al51 Al52 3.114592 1_555
Al51 Al53 3.114592 1_555
Al52 Mo0 2.684333 1_555
Al52 Al79 2.828132 1_555
Al52 Al73 2.828132 1_555
Al52 Er9 3.068617 1_555
Al52 Er0 3.068617 1_555
Al52 Al53 3.114592 1_555
Al53 Mo2 2.684333 1_555
Al53 Al73 2.828125 1_555
Al53 Al79 2.828125 1_555
Al53 Er2 3.068617 1_555
Al53 Er11 3.068617 1_555
Al54 Mo5 2.684333 1_555
Al54 Al6 2.749242 1_555
Al54 Al59 2.813474 1_455
Al54 Al7 2.827216 1_555
Al54 Al76 2.828126 1_555
Al54 Al74 2.828126 1_555
Al54 Er8 3.068617 1_555
Al54 Er5 3.068617 1_555
Al54 Al55 3.114592 1_555
Al54 Al56 3.114592 1_555
Al55 Mo3 2.684333 1_555
Al55 Al7 2.749242 1_555
Al55 Al58 2.813474 1_555
Al55 Al8 2.827216 1_555
Al55 Al76 2.828132 1_555
Al55 Al74 2.828132 1_555
Al55 Er6 3.068617 1_555
Al55 Er3 3.068617 1_555
Al55 Al56 3.114592 1_555
Al56 Mo4 2.684333 1_565
Al56 Al8 2.749242 1_555
Al56 Al57 2.813474 1_565
Al56 Al6 2.827216 1_555
Al56 Al76 2.828125 1_555
Al56 Al74 2.828125 1_555
Al56 Er7 3.068617 1_565
Al56 Er4 3.068617 1_565
Al57 Mo4 2.684333 1_555
Al57 Al9 2.749242 1_555
Al57 Al77 2.828126 1_555
Al57 Al75 2.828126 1_555
Al57 Er7 3.068617 1_555
Al57 Er4 3.068617 1_555
Al57 Al58 3.114592 1_555
Al57 Al59 3.114592 1_555
Al58 Mo3 2.684333 1_555
Al58 Al77 2.828132 1_555
Al58 Al75 2.828132 1_555
Al58 Er6 3.068617 1_555
Al58 Er3 3.068617 1_555
Al58 Al59 3.114592 1_555
Al59 Mo5 2.684333 1_655
Al59 Al9 2.827216 1_555
Al59 Al77 2.828125 1_555
Al59 Al75 2.828125 1_555
Al59 Er8 3.068617 1_655
Al59 Er5 3.068617 1_655
Al60 Al75 2.767019 1_555
Al60 Al72 2.767019 1_554
Al60 Al61 2.858307 1_555
Al60 Al62 2.858307 1_555
Al60 Al9 3.060102 1_555
Al60 Er5 3.095080 1_655
Al60 Er1 3.095080 1_554
Al60 Er2 3.396702 1_654
Al60 Er4 3.396702 1_555
Al61 Al75 2.767019 1_555
Al61 Al72 2.767019 1_554
Al61 Al62 2.858307 1_555
Al61 Er2 3.095076 1_654
Al61 Er3 3.095085 1_555
Al61 Er5 3.396696 1_655
Al61 Er0 3.396705 1_554
Al62 Al75 2.767019 1_555
Al62 Al72 2.767019 1_554
Al62 Er4 3.095076 1_555
Al62 Er0 3.095085 1_554
Al62 Er1 3.396696 1_554
Al62 Er3 3.396705 1_555
Al63 Al73 2.767019 1_554
Al63 Al74 2.767019 1_555
Al63 Al64 2.858307 1_555
Al63 Al65 2.858307 1_555
Al63 Er4 3.095080 1_565
Al63 Er2 3.095080 1_554
Al63 Er1 3.396702 1_564
Al63 Er5 3.396702 1_555
Al64 Al73 2.767019 1_554
Al64 Al74 2.767019 1_555
Al64 Al65 2.858307 1_555
Al64 Al8 3.060105 1_555
Al64 Er1 3.095076 1_564
Al64 Er3 3.095085 1_555
Al64 Er4 3.396696 1_565
Al64 Er0 3.396705 1_554
Al65 Al74 2.767019 1_555
Al65 Al73 2.767019 1_554
Al65 Al7 3.060106 1_555
Al65 Er5 3.095076 1_555
Al65 Er0 3.095085 1_554
Al65 Er2 3.396696 1_554
Al65 Er3 3.396705 1_555
Al66 Al76 2.767019 1_555
Al66 Al79 2.767019 1_555
Al66 Al68 2.858307 1_555
Al66 Al67 2.858307 1_555
Al66 Er7 3.095080 1_565
Al66 Er11 3.095080 1_555
Al66 Er10 3.396702 1_565
Al66 Er8 3.396702 1_555
Al67 Al76 2.767019 1_555
Al67 Al79 2.767019 1_555
Al67 Al68 2.858307 1_555
Al67 Er8 3.095076 1_555
Al67 Er9 3.095085 1_555
Al67 Er11 3.396696 1_555
Al67 Er6 3.396705 1_555
Al68 Al79 2.767019 1_555
Al68 Al76 2.767019 1_555
Al68 Er10 3.095076 1_565
Al68 Er6 3.095085 1_555
Al68 Er7 3.396696 1_565
Al68 Er9 3.396705 1_555
Al69 Al78 2.767019 1_555
Al69 Al77 2.767019 1_555
Al69 Al71 2.858307 1_555
Al69 Al70 2.858307 1_555
Al69 Er8 3.095080 1_655
Al69 Er10 3.095080 1_555
Al69 Er11 3.396702 1_655
Al69 Er7 3.396702 1_555
Al70 Al78 2.767019 1_555
Al70 Al77 2.767019 1_555
Al70 Al71 2.858307 1_555
Al70 Er7 3.095076 1_555
Al70 Er9 3.095085 1_555
Al70 Er10 3.396696 1_555
Al70 Er6 3.396705 1_555
Al71 Al78 2.767019 1_555
Al71 Al77 2.767019 1_555
Al71 Er11 3.095076 1_655
Al71 Er6 3.095085 1_555
Al71 Er8 3.396696 1_655
Al71 Er9 3.396705 1_555
Al72 Er1 3.251688 1_555
Al72 Er2 3.251690 1_655
Al72 Er0 3.251698 1_555
Al73 Er2 3.251688 1_555
Al73 Er1 3.251690 1_565
Al73 Er0 3.251698 1_555
Al74 Al8 2.716136 1_555
Al74 Er4 3.251688 1_565
Al74 Er5 3.251690 1_555
Al74 Er3 3.251698 1_555
Al75 Al9 2.716127 1_555
Al75 Er5 3.251688 1_655
Al75 Er4 3.251690 1_555
Al75 Er3 3.251698 1_555
Al76 Er7 3.251688 1_565
Al76 Er8 3.251690 1_555
Al76 Er6 3.251698 1_555
Al77 Er8 3.251688 1_655
Al77 Er7 3.251690 1_555
Al77 Er6 3.251698 1_555
Al78 Er10 3.251688 1_555
Al78 Er11 3.251690 1_655
Al78 Er9 3.251698 1_555
Al79 Er11 3.251688 1_555
Al79 Er10 3.251690 1_565
Al79 Er9 3.251698 1_555
Al80 Mo1 2.590199 1_565
Al80 Mo2 2.590199 1_655
Al80 Al81 2.819135 1_665
Al80 Al82 2.819135 1_665
Al81 Mo0 2.590199 1_555
Al81 Mo2 2.590199 1_545
Al81 Al82 2.819135 1_555
Al82 Mo0 2.590199 1_555
Al82 Mo1 2.590199 1_455
Al83 Mo4 2.590199 1_555
Al83 Mo5 2.590199 1_555
Al83 Al84 2.819135 1_455
Al83 Al85 2.819135 1_545
Al84 Mo3 2.590199 1_545
Al84 Mo5 2.590199 1_655
Al84 Al85 2.819135 1_645
Al84 Al9 2.841651 1_555
Al85 Mo3 2.590199 1_455
Al85 Mo4 2.590199 1_565
