# generated using pymatgen
data_Ba(PIr)2
_symmetry_space_group_name_H-M   'P 1'
_cell_length_a   3.96720318
_cell_length_b   3.96720354
_cell_length_c   6.99160286
_cell_angle_alpha   106.48188392
_cell_angle_beta   106.48187580
_cell_angle_gamma   89.99998783
_symmetry_Int_Tables_number   1
_chemical_formula_structural   Ba(PIr)2
_chemical_formula_sum   'Ba1 P2 Ir2'
_cell_volume   100.79303468
_cell_formula_units_Z   1
loop_
 _symmetry_equiv_pos_site_id
 _symmetry_equiv_pos_as_xyz
  1  'x, y, z'
loop_
 _atom_site_type_symbol
 _atom_site_label
 _atom_site_symmetry_multiplicity
 _atom_site_fract_x
 _atom_site_fract_y
 _atom_site_fract_z
 _atom_site_occupancy
  Ba  Ba0  1  0.00000000  -0.00000000  0.00000000  1
  P  P0  1  0.64993889  0.64993889  0.29987677  1
  P  P1  1  0.35006111  0.35006111  0.70012323  1
  Ir  Ir0  1  0.75000000  0.25000000  0.50000000  1
  Ir  Ir1  1  0.25000000  0.75000000  0.50000000  1
loop_
_geom_bond_atom_site_label_1
_geom_bond_atom_site_label_2
_geom_bond_distance
_geom_bond_site_symmetry_2
Ba0 P0 3.399631 1_445
Ba0 P1 3.399631 1_554
Ba0 P0 3.399632 1_455
Ba0 P1 3.399632 1_544
Ba0 P1 3.399633 1_454
Ba0 P0 3.399633 1_545
Ba0 P1 3.399635 1_444
Ba0 P0 3.399635 1_555
Ir0 P1 2.361613 1_655
Ir0 P0 2.361613 1_545
Ir0 P1 2.361616 1_555
Ir0 P0 2.361617 1_555
Ir1 P0 2.361613 1_455
Ir1 P1 2.361613 1_565
Ir1 P0 2.361616 1_555
Ir1 P1 2.361617 1_555
