# generated using pymatgen
data_Na3V3O8
_symmetry_space_group_name_H-M   'P 1'
_cell_length_a   5.62345902
_cell_length_b   8.89571282
_cell_length_c   8.89954048
_cell_angle_alpha   66.41165600
_cell_angle_beta   71.59105578
_cell_angle_gamma   71.57284011
_symmetry_Int_Tables_number   1
_chemical_formula_structural   Na3V3O8
_chemical_formula_sum   'Na6 V6 O16'
_cell_volume   377.79191680
_cell_formula_units_Z   2
loop_
 _symmetry_equiv_pos_site_id
 _symmetry_equiv_pos_as_xyz
  1  'x, y, z'
loop_
 _atom_site_type_symbol
 _atom_site_label
 _atom_site_symmetry_multiplicity
 _atom_site_fract_x
 _atom_site_fract_y
 _atom_site_fract_z
 _atom_site_occupancy
  Na  Na0  1  0.50055600  0.50038800  0.49974600  1
  Na  Na1  1  0.99972300  0.99951000  0.00038500  1
  Na  Na2  1  0.83110700  0.50215600  0.83578000  1
  Na  Na3  1  0.33114600  0.00180900  0.33630300  1
  Na  Na4  1  0.16882700  0.49818400  0.16371300  1
  Na  Na5  1  0.66887700  0.99780800  0.66425000  1
  V  V0  1  0.24994500  0.75000500  0.74999900  1
  V  V1  1  0.74998000  0.24998400  0.24998400  1
  V  V2  1  0.61294800  0.72020100  0.05346300  1
  V  V3  1  0.11337200  0.22007700  0.55328800  1
  V  V4  1  0.38659200  0.27993800  0.94666500  1
  V  V5  1  0.88696500  0.77980300  0.44656900  1
  O  O0  1  0.99190600  0.34210400  0.67494700  1
  O  O1  1  0.49074600  0.84250900  0.17493900  1
  O  O2  1  0.00907800  0.65746400  0.32511600  1
  O  O3  1  0.50794900  0.15801000  0.82491200  1
  O  O4  1  0.40993700  0.75525000  0.92153100  1
  O  O5  1  0.91022700  0.25531200  0.42144600  1
  O  O6  1  0.66097000  0.50469100  0.17269700  1
  O  O7  1  0.16160000  0.00425200  0.67233500  1
  O  O8  1  0.08688900  0.24499100  0.07856400  1
  O  O9  1  0.58750100  0.74417200  0.57843900  1
  O  O10  1  0.91235000  0.75590000  0.92161700  1
  O  O11  1  0.41307400  0.25493100  0.42138400  1
  O  O12  1  0.33824900  0.49577900  0.82769800  1
  O  O13  1  0.83899900  0.99535000  0.32721800  1
  O  O14  1  0.58989600  0.24468100  0.07846100  1
  O  O15  1  0.08998900  0.74474600  0.57855300  1
loop_
_geom_bond_atom_site_label_1
_geom_bond_atom_site_label_2
_geom_bond_distance
_geom_bond_site_symmetry_2
Na0 O9 2.744919 1_555
Na0 O6 2.749743 1_555
Na0 O15 2.751760 1_555
Na0 O5 2.751831 1_555
Na0 O12 2.756535 1_555
Na0 O11 2.758728 1_555
Na1 O10 2.745095 1_554
Na1 O13 2.748305 1_555
Na1 O4 2.750332 1_654
Na1 O14 2.752198 1_565
Na1 O7 2.757000 1_664
Na1 O8 2.757009 1_665
Na2 O0 2.212045 1_555
Na3 O1 2.210547 1_545
Na4 O2 2.210678 1_555
Na5 O3 2.211898 1_565
O0 V3 1.679864 1_655
O1 V2 1.680542 1_555
O2 V5 1.680597 1_455
O3 V4 1.679830 1_555
O4 V2 1.762867 1_556
O4 V0 2.023125 1_555
O5 V3 1.762345 1_655
O5 V1 2.023896 1_555
O6 V2 1.760634 1_555
O6 V1 2.027478 1_555
O7 V3 1.762517 1_555
O7 V0 2.023681 1_545
O8 V4 1.762009 1_554
O8 V1 2.023441 1_455
O9 V5 1.762156 1_555
O9 V0 2.026756 1_555
O10 V2 1.761945 1_556
O10 V0 2.027167 1_655
O11 V3 1.761842 1_555
O11 V1 2.023335 1_555
O12 V4 1.762479 1_555
O12 V0 2.023504 1_555
O13 V5 1.761122 1_555
O13 V1 2.026905 1_565
O14 V4 1.762678 1_554
O14 V1 2.023650 1_555
O15 V5 1.763275 1_455
O15 V0 2.022351 1_555
