# generated using pymatgen
data_Nd(CoP3)4
_symmetry_space_group_name_H-M   'P 1'
_cell_length_a   6.77289023
_cell_length_b   6.77289023
_cell_length_c   6.77289023
_cell_angle_alpha   109.47122063
_cell_angle_beta   109.47122063
_cell_angle_gamma   109.47122063
_symmetry_Int_Tables_number   1
_chemical_formula_structural   Nd(CoP3)4
_chemical_formula_sum   'Nd1 Co4 P12'
_cell_volume   239.16642999
_cell_formula_units_Z   1
loop_
 _symmetry_equiv_pos_site_id
 _symmetry_equiv_pos_as_xyz
  1  'x, y, z'
loop_
 _atom_site_type_symbol
 _atom_site_label
 _atom_site_symmetry_multiplicity
 _atom_site_fract_x
 _atom_site_fract_y
 _atom_site_fract_z
 _atom_site_occupancy
  Nd  Nd0  1  0.00000000  0.00000000  0.00000000  1
  Co  Co0  1  0.00000000  0.00000000  0.50000000  1
  Co  Co1  1  0.50000000  0.00000000  0.00000000  1
  Co  Co2  1  0.00000000  0.50000000  0.00000000  1
  Co  Co3  1  0.50000000  0.50000000  0.50000000  1
  P  P0  1  0.35276200  0.20552400  0.85276100  1
  P  P1  1  0.64723800  0.79447600  0.14723900  1
  P  P2  1  0.64723800  0.49999900  0.85276100  1
  P  P3  1  0.35276200  0.50000100  0.14723900  1
  P  P4  1  0.20552400  0.85276100  0.35276200  1
  P  P5  1  0.79447600  0.14723900  0.64723800  1
  P  P6  1  0.49999900  0.85276100  0.64723800  1
  P  P7  1  0.50000100  0.14723900  0.35276200  1
  P  P8  1  0.85276100  0.35276200  0.20552400  1
  P  P9  1  0.14723900  0.64723800  0.79447600  1
  P  P10  1  0.85276100  0.64723800  0.49999900  1
  P  P11  1  0.14723900  0.35276200  0.50000100  1
loop_
_geom_bond_atom_site_label_1
_geom_bond_atom_site_label_2
_geom_bond_distance
_geom_bond_site_symmetry_2
Nd0 P2 2.989501 1_444
Nd0 P6 2.989501 1_444
Nd0 P10 2.989501 1_444
Nd0 P3 2.989501 1_555
Nd0 P7 2.989501 1_555
Nd0 P11 2.989501 1_555
Nd0 P0 2.989503 1_554
Nd0 P1 2.989503 1_445
Nd0 P5 2.989503 1_454
Nd0 P4 2.989503 1_545
Nd0 P9 2.989503 1_544
Nd0 P8 2.989503 1_455
Co0 P1 2.261507 1_445
Co0 P0 2.261507 1_555
Co0 P10 2.261508 1_445
Co0 P11 2.261508 1_555
Co0 P4 2.261514 1_545
Co0 P5 2.261514 1_455
Co1 P9 2.261507 1_544
Co1 P8 2.261507 1_555
Co1 P7 2.261508 1_555
Co1 P6 2.261508 1_544
Co1 P1 2.261514 1_545
Co1 P0 2.261514 1_554
Co2 P4 2.261507 1_555
Co2 P5 2.261507 1_454
Co2 P3 2.261508 1_555
Co2 P2 2.261508 1_454
Co2 P8 2.261514 1_455
Co2 P9 2.261514 1_554
Co3 P2 2.261508 1_555
Co3 P6 2.261508 1_555
Co3 P10 2.261508 1_555
Co3 P3 2.261508 1_555
Co3 P7 2.261508 1_555
Co3 P11 2.261508 1_555
P0 P2 2.302993 1_555
P0 P3 2.303008 1_556
P1 P3 2.302993 1_555
P1 P2 2.303008 1_554
P4 P6 2.302993 1_555
P4 P7 2.303008 1_565
P5 P7 2.302993 1_555
P5 P6 2.303008 1_545
P10 P8 2.302993 1_555
P10 P9 2.303008 1_655
P11 P9 2.302993 1_555
P11 P8 2.303008 1_455
