# generated using pymatgen
data_Rb2LiNb2(TeO6)2
_symmetry_space_group_name_H-M   'P 1'
_cell_length_a   7.49642462
_cell_length_b   7.60802084
_cell_length_c   7.48306274
_cell_angle_alpha   90.29024560
_cell_angle_beta   59.68391475
_cell_angle_gamma   120.31051023
_symmetry_Int_Tables_number   1
_chemical_formula_structural   Rb2LiNb2(TeO6)2
_chemical_formula_sum   'Rb2 Li1 Nb2 Te2 O12'
_cell_volume   299.67656171
_cell_formula_units_Z   1
loop_
 _symmetry_equiv_pos_site_id
 _symmetry_equiv_pos_as_xyz
  1  'x, y, z'
loop_
 _atom_site_type_symbol
 _atom_site_label
 _atom_site_symmetry_multiplicity
 _atom_site_fract_x
 _atom_site_fract_y
 _atom_site_fract_z
 _atom_site_occupancy
  Rb  Rb0  1  0.74082000  0.41927600  0.38190500  1
  Rb  Rb1  1  0.34604400  0.77231000  0.56966900  1
  Li  Li0  1  0.95357900  0.27420200  0.77815100  1
  Nb  Nb0  1  0.51920700  0.47267800  0.98991000  1
  Nb  Nb1  1  0.46020300  0.94780900  0.01858700  1
  Te  Te0  1  0.99508000  0.99346300  0.50198100  1
  Te  Te1  1  0.99169700  0.99015900  0.00595100  1
  O  O0  1  0.85350000  0.91503700  0.33039000  1
  O  O1  1  0.66093800  0.31444500  0.91697900  1
  O  O2  1  0.24702600  0.92149900  0.92947900  1
  O  O3  1  0.24941700  0.29645100  0.31537700  1
  O  O4  1  0.26451200  0.30457600  0.92351500  1
  O  O5  1  0.23779900  0.92573700  0.32360200  1
  O  O6  1  0.13782900  0.08145100  0.67516300  1
  O  O7  1  0.36632700  0.66950400  0.06964000  1
  O  O8  1  0.74558800  0.06071200  0.06885700  1
  O  O9  1  0.75978600  0.68928600  0.68281500  1
  O  O10  1  0.74169400  0.67511200  0.07558500  1
  O  O11  1  0.75573800  0.06200700  0.68318600  1
loop_
_geom_bond_atom_site_label_1
_geom_bond_atom_site_label_2
_geom_bond_distance
_geom_bond_site_symmetry_2
Li0 O8 1.963887 1_556
Li0 O11 1.986567 1_555
Li0 O1 2.087951 1_555
Li0 O6 2.368667 1_655
Li0 Rb1 3.102138 1_655
Nb0 O1 1.890749 1_555
Nb0 O4 2.003601 1_555
Nb0 O10 2.010336 1_556
Nb0 O9 2.025749 1_555
Nb0 O3 2.035422 1_556
Nb0 O7 2.223665 1_556
Nb1 O7 1.832246 1_555
Nb1 O2 1.946800 1_554
Nb1 O5 1.974093 1_555
Nb1 O8 2.100126 1_565
Nb1 O11 2.104302 1_564
Nb1 O1 2.291893 1_564
O0 Te0 1.964692 1_555
O0 Te1 2.042393 1_555
O0 Rb1 2.798250 1_555
O2 Te1 2.040676 1_456
O2 Rb1 2.809010 1_555
O3 Te0 1.951247 1_445
O4 Te1 2.022013 1_446
O5 Te0 1.960956 1_455
O5 Rb1 2.810293 1_555
O6 Te0 1.985158 1_445
O6 Te1 2.078831 1_446
O6 Rb0 3.189125 1_555
O6 Rb1 3.321733 1_545
O7 Rb0 3.323388 1_455
O8 Te1 2.008426 1_545
O8 Rb1 3.154043 1_545
O9 Te0 1.949293 1_555
O9 Rb0 3.048268 1_555
O10 Te1 2.005377 1_555
O10 Rb0 3.009974 1_555
O11 Te0 1.952163 1_545
O11 Rb1 3.285435 1_545
