# generated using pymatgen
data_CoO2
_symmetry_space_group_name_H-M   'P 1'
_cell_length_a   5.65306620
_cell_length_b   5.65306620
_cell_length_c   13.99383900
_cell_angle_alpha   90.00000000
_cell_angle_beta   90.00000000
_cell_angle_gamma   120.00000238
_symmetry_Int_Tables_number   1
_chemical_formula_structural   CoO2
_chemical_formula_sum   'Co12 O24'
_cell_volume   387.28942384
_cell_formula_units_Z   12
loop_
 _symmetry_equiv_pos_site_id
 _symmetry_equiv_pos_as_xyz
  1  'x, y, z'
loop_
 _atom_site_type_symbol
 _atom_site_label
 _atom_site_symmetry_multiplicity
 _atom_site_fract_x
 _atom_site_fract_y
 _atom_site_fract_z
 _atom_site_occupancy
  Co  Co0  1  0.83896800  0.16103200  0.83330400  1
  Co  Co1  1  0.83896800  0.67793600  0.83330400  1
  Co  Co2  1  0.50566500  0.49433500  0.49960200  1
  Co  Co3  1  0.32206400  0.16103200  0.83330400  1
  Co  Co4  1  0.50566500  0.01133000  0.49960200  1
  Co  Co5  1  0.33333300  0.66666700  0.33665100  1
  Co  Co6  1  0.33333300  0.66666700  0.71150000  1
  Co  Co7  1  0.16770000  0.83230000  0.16943300  1
  Co  Co8  1  0.98867000  0.49433500  0.49960200  1
  Co  Co9  1  0.16770000  0.33540000  0.16943300  1
  Co  Co10  1  0.66460000  0.83230000  0.16943300  1
  Co  Co11  1  0.66666700  0.33333300  0.04312700  1
  O  O0  1  0.14870200  0.85129800  0.90104000  1
  O  O1  1  0.00000000  0.00000000  0.76119600  1
  O  O2  1  0.14870200  0.29740500  0.90104000  1
  O  O3  1  0.70259500  0.85129800  0.90104000  1
  O  O4  1  0.81918900  0.18081100  0.56545500  1
  O  O5  1  0.99375900  0.49687900  0.76188700  1
  O  O6  1  0.66666700  0.33333300  0.42913900  1
  O  O7  1  0.50312100  0.00624100  0.76188700  1
  O  O8  1  0.66666700  0.33333300  0.90697400  1
  O  O9  1  0.81918900  0.63837700  0.56545500  1
  O  O10  1  0.36162300  0.18081100  0.56545500  1
  O  O11  1  0.50312100  0.49687900  0.76188700  1
  O  O12  1  0.47936800  0.52063200  0.24579300  1
  O  O13  1  0.62671700  0.81335900  0.42162100  1
  O  O14  1  0.18664100  0.37328300  0.42162100  1
  O  O15  1  0.33333300  0.66666700  0.09958700  1
  O  O16  1  0.33333300  0.66666700  0.57489300  1
  O  O17  1  0.47936800  0.95873600  0.24579300  1
  O  O18  1  0.04126400  0.52063200  0.24579300  1
  O  O19  1  0.18664100  0.81335900  0.42162100  1
  O  O20  1  0.32324400  0.16162200  0.09833900  1
  O  O21  1  0.83837800  0.67675600  0.09833900  1
  O  O22  1  0.00000000  0.00000000  0.23582900  1
  O  O23  1  0.83837800  0.16162200  0.09833900  1
loop_
_geom_bond_atom_site_label_1
_geom_bond_atom_site_label_2
_geom_bond_distance
_geom_bond_site_symmetry_2
Co0 O3 1.791307 1_545
Co0 O2 1.791307 1_655
Co0 O1 1.871975 1_655
Co0 O7 1.925544 1_555
Co0 O5 1.925544 1_555
Co0 O8 1.977121 1_555
Co1 O0 1.791307 1_655
Co1 O3 1.791311 1_555
Co1 O1 1.871975 1_665
Co1 O11 1.925544 1_555
Co1 O5 1.925549 1_555
Co1 O8 1.977125 1_555
Co2 O9 1.791752 1_555
Co2 O10 1.791752 1_555
Co2 O6 1.859418 1_555
Co2 O14 1.917672 1_555
Co2 O13 1.917672 1_555
Co2 O16 1.989300 1_555
Co3 O0 1.791307 1_545
Co3 O2 1.791311 1_555
Co3 O1 1.871975 1_555
Co3 O11 1.925544 1_555
Co3 O7 1.925549 1_555
Co3 O8 1.977125 1_555
Co4 O10 1.791748 1_555
Co4 O4 1.791752 1_555
Co4 O6 1.859414 1_555
Co4 O13 1.917668 1_545
Co4 O19 1.917671 1_545
Co4 O16 1.989296 1_545
Co5 O13 1.864637 1_555
Co5 O14 1.864637 1_555
Co5 O19 1.864637 1_555
Co5 O18 1.913414 1_555
Co5 O17 1.913414 1_555
Co5 O12 1.913418 1_555
Co6 O7 1.805803 1_565
Co6 O5 1.805803 1_455
Co6 O11 1.805812 1_555
Co6 O16 1.911656 1_555
Co7 O18 1.870194 1_555
Co7 O17 1.870194 1_555
Co7 O22 1.886667 1_565
Co7 O15 1.893543 1_555
Co7 O20 1.895211 1_565
Co7 O21 1.895211 1_455
Co8 O9 1.791748 1_555
Co8 O4 1.791752 1_555
Co8 O6 1.859414 1_555
Co8 O14 1.917668 1_655
Co8 O19 1.917671 1_655
Co8 O16 1.989296 1_655
Co9 O12 1.870194 1_555
Co9 O18 1.870194 1_555
Co9 O22 1.886667 1_555
Co9 O15 1.893547 1_555
Co9 O23 1.895211 1_455
Co9 O20 1.895211 1_555
Co10 O12 1.870194 1_555
Co10 O17 1.870194 1_555
Co10 O22 1.886667 1_665
Co10 O15 1.893547 1_555
Co10 O23 1.895211 1_565
Co10 O21 1.895211 1_555
Co11 O23 1.850322 1_555
Co11 O21 1.850327 1_555
Co11 O20 1.850327 1_555
Co11 O8 1.905303 1_554
