# generated using pymatgen
data_Ba2HoTaO6
_symmetry_space_group_name_H-M   'P 1'
_cell_length_a   6.01417200
_cell_length_b   6.02332338
_cell_length_c   6.01417200
_cell_angle_alpha   60.05024615
_cell_angle_beta   90.00000000
_cell_angle_gamma   119.94975385
_symmetry_Int_Tables_number   1
_chemical_formula_structural   Ba2HoTaO6
_chemical_formula_sum   'Ba2 Ho1 Ta1 O6'
_cell_volume   154.28766470
_cell_formula_units_Z   1
loop_
 _symmetry_equiv_pos_site_id
 _symmetry_equiv_pos_as_xyz
  1  'x, y, z'
loop_
 _atom_site_type_symbol
 _atom_site_label
 _atom_site_symmetry_multiplicity
 _atom_site_fract_x
 _atom_site_fract_y
 _atom_site_fract_z
 _atom_site_occupancy
  Ba  Ba0  1  0.75000000  0.50000000  0.75000000  1
  Ba  Ba1  1  0.25000000  0.50000000  0.25000000  1
  Ho  Ho0  1  0.00000000  0.00000000  0.00000000  1
  Ta  Ta0  1  0.50000000  0.00000000  0.50000000  1
  O  O0  1  0.28369100  0.99999900  0.24388400  1
  O  O1  1  0.75611700  0.00000000  0.28369100  1
  O  O2  1  0.24388300  0.00000000  0.71630900  1
  O  O3  1  0.71630900  0.00000100  0.75611600  1
  O  O4  1  0.73636400  0.47272800  0.26363600  1
  O  O5  1  0.26363600  0.52727200  0.73636400  1
loop_
_geom_bond_atom_site_label_1
_geom_bond_atom_site_label_2
_geom_bond_distance
_geom_bond_site_symmetry_2
Ba0 O3 2.896993 1_555
Ba0 O2 2.896995 1_665
Ba0 O1 2.896995 1_565
Ba0 O0 2.896999 1_546
Ba0 O5 3.009335 1_655
Ba0 O5 3.009335 1_555
Ba0 O4 3.009335 1_555
Ba0 O4 3.009335 1_556
Ba0 O0 3.135671 1_655
Ba0 O1 3.135674 1_556
Ba0 O2 3.135674 1_555
Ba0 O3 3.135677 1_565
Ba1 O0 2.896993 1_555
Ba1 O2 2.896995 1_555
Ba1 O1 2.896995 1_455
Ba1 O3 2.896999 1_564
Ba1 O4 3.009335 1_455
Ba1 O5 3.009335 1_555
Ba1 O5 3.009335 1_554
Ba1 O4 3.009335 1_555
Ba1 O3 3.135671 1_455
Ba1 O1 3.135674 1_565
Ba1 O2 3.135674 1_564
Ba1 O0 3.135677 1_545
Ho0 O4 2.249128 1_445
Ho0 O5 2.249128 1_554
Ho0 O1 2.249972 1_455
Ho0 O2 2.249972 1_554
Ho0 O0 2.249976 1_545
Ho0 O3 2.249976 1_454
O0 Ta0 2.016184 1_565
O1 Ta0 2.016188 1_555
O2 Ta0 2.016188 1_555
O3 Ta0 2.016184 1_555
O4 Ta0 2.016466 1_555
O5 Ta0 2.016466 1_565
