# generated using pymatgen
data_K4H5(SeO4)4
_symmetry_space_group_name_H-M   'P 1'
_cell_length_a   7.66135300
_cell_length_b   7.93003378
_cell_length_c   7.96790268
_cell_angle_alpha   72.23318446
_cell_angle_beta   86.78595100
_cell_angle_gamma   85.20907133
_symmetry_Int_Tables_number   1
_chemical_formula_structural   K4H5(SeO4)4
_chemical_formula_sum   'K4 H5 Se4 O16'
_cell_volume   459.15099549
_cell_formula_units_Z   1
loop_
 _symmetry_equiv_pos_site_id
 _symmetry_equiv_pos_as_xyz
  1  'x, y, z'
loop_
 _atom_site_type_symbol
 _atom_site_label
 _atom_site_symmetry_multiplicity
 _atom_site_fract_x
 _atom_site_fract_y
 _atom_site_fract_z
 _atom_site_occupancy
  K  K0  1  0.66504300  0.18840000  0.33672300  1
  K  K1  1  0.33495700  0.81160000  0.66327700  1
  K  K2  1  0.03252900  0.74687700  0.21668000  1
  K  K3  1  0.96747100  0.25312300  0.78332000  1
  H  H0  1  0.25170800  0.42458100  0.03135000  1
  H  H1  1  0.74829200  0.57541900  0.96865000  1
  H  H2  1  0.64281400  0.01231400  0.08070500  1
  H  H3  1  0.35718600  0.98768600  0.91929500  1
  H  H4  1  0.50000000  0.50000000  0.50000000  1
  Se  Se0  1  0.12933000  0.21814100  0.27885200  1
  Se  Se1  1  0.87067000  0.78185900  0.72114800  1
  Se  Se2  1  0.52961800  0.72104700  0.19934700  1
  Se  Se3  1  0.47038200  0.27895300  0.80065300  1
  O  O0  1  0.00546200  0.26978200  0.43525900  1
  O  O1  1  0.99453800  0.73021800  0.56474100  1
  O  O2  1  0.32318900  0.09805000  0.81556100  1
  O  O3  1  0.67681100  0.90195000  0.18443900  1
  O  O4  1  0.31145800  0.09553700  0.34820000  1
  O  O5  1  0.68854200  0.90446300  0.65180000  1
  O  O6  1  0.43254200  0.64106000  0.41094200  1
  O  O7  1  0.56745800  0.35894000  0.58905800  1
  O  O8  1  0.36936000  0.79765400  0.05055400  1
  O  O9  1  0.63064000  0.20234600  0.94944600  1
  O  O10  1  0.66403800  0.55567000  0.16277600  1
  O  O11  1  0.33596200  0.44433000  0.83722400  1
  O  O12  1  0.01449600  0.13695900  0.15376100  1
  O  O13  1  0.98550400  0.86304100  0.84623900  1
  O  O14  1  0.19118100  0.43129700  0.14722300  1
  O  O15  1  0.80881900  0.56870300  0.85277700  1
loop_
_geom_bond_atom_site_label_1
_geom_bond_atom_site_label_2
_geom_bond_distance
_geom_bond_site_symmetry_2
K0 O7 2.784299 1_555
K0 O10 2.817341 1_555
K0 O5 2.817456 1_545
K0 O4 2.855409 1_555
K0 O3 2.876812 1_545
K0 O0 2.941927 1_655
K0 O12 3.033536 1_655
K0 O9 3.079259 1_554
K1 O6 2.784299 1_555
K1 O11 2.817341 1_555
K1 O4 2.817456 1_565
K1 O5 2.855409 1_555
K1 O2 2.876812 1_565
K1 O1 2.941927 1_455
K1 O13 3.033536 1_455
K1 O8 3.079259 1_556
K2 O1 2.736013 1_455
K2 O8 2.835299 1_555
K2 O13 2.845167 1_454
K2 O14 2.882395 1_555
K2 O3 2.886398 1_455
K2 O12 2.971407 1_565
K3 O0 2.736013 1_655
K3 O9 2.835299 1_555
K3 O12 2.845167 1_656
K3 O15 2.882395 1_555
K3 O2 2.886398 1_655
K3 O13 2.971407 1_545
H0 O14 1.023799 1_555
H0 O11 1.609599 1_554
H1 O15 1.023799 1_555
H1 O10 1.609599 1_556
H2 O3 1.030322 1_545
H2 O9 1.548888 1_554
H2 K0 2.820855 1_555
H3 O2 1.030322 1_565
H3 O8 1.548888 1_556
H3 K1 2.820855 1_555
H4 O6 1.217398 1_555
H4 O7 1.217398 1_555
O0 Se0 1.653883 1_555
O1 Se1 1.653883 1_555
O2 Se3 1.869494 1_555
O3 Se2 1.869494 1_555
O4 Se0 1.652142 1_555
O5 Se1 1.652142 1_555
O6 Se2 1.755994 1_555
O7 Se3 1.755994 1_555
O8 Se2 1.697405 1_555
O9 Se3 1.697405 1_555
O10 Se2 1.685033 1_555
O11 Se3 1.685033 1_555
O12 Se0 1.663261 1_555
O13 Se1 1.663261 1_555
O14 Se0 1.782667 1_555
O15 Se1 1.782667 1_555
