# generated using pymatgen
data_KSr2Nb4FeO15
_symmetry_space_group_name_H-M   'P 1'
_cell_length_a   12.49589900
_cell_length_b   12.49589900
_cell_length_c   4.03950900
_cell_angle_alpha   90.00000000
_cell_angle_beta   90.00000000
_cell_angle_gamma   90.00000000
_symmetry_Int_Tables_number   1
_chemical_formula_structural   KSr2Nb4FeO15
_chemical_formula_sum   'K2 Sr4 Nb8 Fe2 O30'
_cell_volume   630.75919853
_cell_formula_units_Z   2
loop_
 _symmetry_equiv_pos_site_id
 _symmetry_equiv_pos_as_xyz
  1  'x, y, z'
loop_
 _atom_site_type_symbol
 _atom_site_label
 _atom_site_symmetry_multiplicity
 _atom_site_fract_x
 _atom_site_fract_y
 _atom_site_fract_z
 _atom_site_occupancy
  K  K0  1  0.50000000  0.50000000  0.01210200  1
  K  K1  1  0.00000000  0.00000000  0.01210200  1
  Sr  Sr0  1  0.35053200  0.85053200  0.00713800  1
  Sr  Sr1  1  0.64946800  0.14946800  0.00713800  1
  Sr  Sr2  1  0.85053200  0.64946800  0.00713800  1
  Sr  Sr3  1  0.14946800  0.35053200  0.00713800  1
  Nb  Nb0  1  0.42004900  0.28893200  0.53118600  1
  Nb  Nb1  1  0.57995100  0.71106800  0.53118600  1
  Nb  Nb2  1  0.92004900  0.21106800  0.53118600  1
  Nb  Nb3  1  0.07995100  0.78893200  0.53118600  1
  Nb  Nb4  1  0.71106800  0.42004900  0.53118600  1
  Nb  Nb5  1  0.28893200  0.57995100  0.53118600  1
  Nb  Nb6  1  0.78893200  0.92004900  0.53118600  1
  Nb  Nb7  1  0.21106800  0.07995100  0.53118600  1
  Fe  Fe0  1  0.50000000  0.00000000  0.49559700  1
  Fe  Fe1  1  0.00000000  0.50000000  0.49559700  1
  O  O0  1  0.22765300  0.72765300  0.48517200  1
  O  O1  1  0.77234700  0.27234700  0.48517200  1
  O  O2  1  0.72765300  0.77234700  0.48517200  1
  O  O3  1  0.27234700  0.22765300  0.48517200  1
  O  O4  1  0.35738300  0.43304200  0.48808400  1
  O  O5  1  0.64261700  0.56695800  0.48808400  1
  O  O6  1  0.85738300  0.06695800  0.48808400  1
  O  O7  1  0.14261700  0.93304200  0.48808400  1
  O  O8  1  0.56695800  0.35738300  0.48808400  1
  O  O9  1  0.43304200  0.64261700  0.48808400  1
  O  O10  1  0.93304200  0.85738300  0.48808400  1
  O  O11  1  0.06695800  0.14261700  0.48808400  1
  O  O12  1  0.50000000  0.00000000  0.99106100  1
  O  O13  1  0.00000000  0.50000000  0.99106100  1
  O  O14  1  0.15161300  0.49145700  0.48981200  1
  O  O15  1  0.84838700  0.50854300  0.48981200  1
  O  O16  1  0.65161300  0.00854300  0.48981200  1
  O  O17  1  0.34838700  0.99145700  0.48981200  1
  O  O18  1  0.50854300  0.15161300  0.48981200  1
  O  O19  1  0.49145700  0.84838700  0.48981200  1
  O  O20  1  0.99145700  0.65161300  0.48981200  1
  O  O21  1  0.00854300  0.34838700  0.48981200  1
  O  O22  1  0.42367000  0.28681300  0.99207300  1
  O  O23  1  0.57633000  0.71318700  0.99207300  1
  O  O24  1  0.92367000  0.21318700  0.99207300  1
  O  O25  1  0.07633000  0.78681300  0.99207300  1
  O  O26  1  0.71318700  0.42367000  0.99207300  1
  O  O27  1  0.28681300  0.57633000  0.99207300  1
  O  O28  1  0.78681300  0.92367000  0.99207300  1
  O  O29  1  0.21318700  0.07633000  0.99207300  1
loop_
_geom_bond_atom_site_label_1
_geom_bond_atom_site_label_2
_geom_bond_distance
_geom_bond_site_symmetry_2
K0 O5 2.751899 1_555
K0 O9 2.751899 1_555
K0 O4 2.751899 1_555
K0 O8 2.751899 1_555
K0 O22 2.830725 1_554
K0 O23 2.830725 1_554
K0 O27 2.830725 1_554
K0 O26 2.830725 1_554
K0 O9 2.890810 1_554
K0 O4 2.890810 1_554
K0 O8 2.890810 1_554
K0 O5 2.890810 1_554
K1 O11 2.751899 1_555
K1 O6 2.751899 1_455
K1 O7 2.751899 1_545
K1 O10 2.751899 1_445
K1 O24 2.830725 1_454
K1 O28 2.830725 1_444
K1 O29 2.830725 1_554
K1 O25 2.830725 1_544
K1 O6 2.890810 1_454
K1 O11 2.890810 1_554
K1 O10 2.890810 1_444
K1 O7 2.890810 1_544
Nb0 O22 1.862495 1_555
Nb0 O4 1.971378 1_555
Nb0 O3 2.006837 1_555
Nb0 O8 2.032723 1_555
Nb0 O18 2.048206 1_555
Nb0 O22 2.178383 1_554
Nb1 O23 1.862495 1_555
Nb1 O5 1.971378 1_555
Nb1 O2 2.006837 1_555
Nb1 O9 2.032723 1_555
Nb1 O19 2.048206 1_555
Nb1 O23 2.178383 1_554
Nb2 O24 1.862495 1_555
Nb2 O6 1.971378 1_555
Nb2 O1 2.006837 1_555
Nb2 O11 2.032723 1_655
Nb2 O21 2.048206 1_655
Nb2 O24 2.178383 1_554
Nb3 O25 1.862495 1_555
Nb3 O7 1.971378 1_555
Nb3 O0 2.006837 1_555
Nb3 O10 2.032723 1_455
Nb3 O20 2.048206 1_455
Nb3 O25 2.178383 1_554
Nb4 O26 1.862495 1_555
Nb4 O8 1.971378 1_555
Nb4 O1 2.006837 1_555
Nb4 O5 2.032723 1_555
Nb4 O15 2.048206 1_555
Nb4 O26 2.178383 1_554
Nb5 O27 1.862495 1_555
Nb5 O9 1.971378 1_555
Nb5 O0 2.006837 1_555
Nb5 O4 2.032723 1_555
Nb5 O14 2.048206 1_555
Nb5 O27 2.178383 1_554
Nb6 O28 1.862495 1_555
Nb6 O10 1.971378 1_555
Nb6 O2 2.006837 1_555
Nb6 O6 2.032723 1_565
Nb6 O16 2.048206 1_565
Nb6 O28 2.178383 1_554
Nb7 O29 1.862495 1_555
Nb7 O11 1.971378 1_555
Nb7 O3 2.006837 1_555
Nb7 O7 2.032723 1_545
Nb7 O17 2.048206 1_545
Nb7 O29 2.178383 1_554
Fe0 O16 1.897690 1_555
Fe0 O18 1.897690 1_555
Fe0 O19 1.897690 1_545
Fe0 O17 1.897690 1_545
Fe0 O12 2.001431 1_555
Fe0 O12 2.038078 1_554
Fe1 O15 1.897690 1_455
Fe1 O21 1.897690 1_555
Fe1 O14 1.897690 1_555
Fe1 O20 1.897690 1_455
Fe1 O13 2.001431 1_555
Fe1 O13 2.038078 1_554
O0 Sr0 2.905902 1_555
O0 Sr0 3.026737 1_556
O1 Sr1 2.905902 1_555
O1 Sr1 3.026737 1_556
O2 Sr2 2.905902 1_555
O2 Sr2 3.026737 1_556
O3 Sr3 2.905902 1_555
O3 Sr3 3.026737 1_556
O12 Sr1 2.642177 1_556
O12 Sr0 2.642177 1_546
O13 Sr2 2.642177 1_456
O13 Sr3 2.642177 1_556
O14 Sr3 2.627427 1_555
O14 Sr3 2.732913 1_556
O15 Sr2 2.627427 1_555
O15 Sr2 2.732913 1_556
O16 Sr1 2.627427 1_555
O16 Sr1 2.732913 1_556
O17 Sr0 2.627427 1_555
O17 Sr0 2.732913 1_556
O18 Sr1 2.627427 1_555
O18 Sr1 2.732913 1_556
O19 Sr0 2.627427 1_555
O19 Sr0 2.732913 1_556
O20 Sr2 2.627427 1_555
O20 Sr2 2.732913 1_556
O21 Sr3 2.627427 1_555
O21 Sr3 2.732913 1_556
