# generated using pymatgen
data_BaVCdF7
_symmetry_space_group_name_H-M   'P 1'
_cell_length_a   7.60038597
_cell_length_b   7.60038597
_cell_length_c   15.37822554
_cell_angle_alpha   88.28378064
_cell_angle_beta   88.28378064
_cell_angle_gamma   42.64289387
_symmetry_Int_Tables_number   1
_chemical_formula_structural   BaVCdF7
_chemical_formula_sum   'Ba4 V4 Cd4 F28'
_cell_volume   601.47193572
_cell_formula_units_Z   4
loop_
 _symmetry_equiv_pos_site_id
 _symmetry_equiv_pos_as_xyz
  1  'x, y, z'
loop_
 _atom_site_type_symbol
 _atom_site_label
 _atom_site_symmetry_multiplicity
 _atom_site_fract_x
 _atom_site_fract_y
 _atom_site_fract_z
 _atom_site_occupancy
  Ba  Ba0  1  0.64788900  0.73144300  0.87569100  1
  Ba  Ba1  1  0.35211100  0.26855700  0.12430900  1
  Ba  Ba2  1  0.26855700  0.35211100  0.62430900  1
  Ba  Ba3  1  0.73144300  0.64788900  0.37569100  1
  V  V0  1  0.38496900  0.37067500  0.87517600  1
  V  V1  1  0.61503100  0.62932500  0.12482400  1
  V  V2  1  0.62932500  0.61503100  0.62482400  1
  V  V3  1  0.37067500  0.38496900  0.37517600  1
  Cd  Cd0  1  0.00000000  0.00000000  0.50000000  1
  Cd  Cd1  1  0.00000000  0.00000000  0.00000000  1
  Cd  Cd2  1  0.95452500  0.04547500  0.75000000  1
  Cd  Cd3  1  0.04547500  0.95452500  0.25000000  1
  F  F0  1  0.42352300  0.74733000  0.51657800  1
  F  F1  1  0.57647700  0.25267000  0.48342200  1
  F  F2  1  0.25267000  0.57647700  0.98342200  1
  F  F3  1  0.74733000  0.42352300  0.01657800  1
  F  F4  1  0.68564400  0.81686400  0.59067700  1
  F  F5  1  0.31435600  0.18313600  0.40932300  1
  F  F6  1  0.18313600  0.31435600  0.90932300  1
  F  F7  1  0.81686400  0.68564400  0.09067700  1
  F  F8  1  0.54620000  0.12163100  0.77693400  1
  F  F9  1  0.45380000  0.87836900  0.22306600  1
  F  F10  1  0.87836900  0.45380000  0.72306600  1
  F  F11  1  0.12163100  0.54620000  0.27693400  1
  F  F12  1  0.60305400  0.38316300  0.65726200  1
  F  F13  1  0.39694600  0.61683700  0.34273800  1
  F  F14  1  0.61683700  0.39694600  0.84273800  1
  F  F15  1  0.38316300  0.60305400  0.15726200  1
  F  F16  1  0.34554900  0.89872400  0.70248000  1
  F  F17  1  0.65445100  0.10127600  0.29752000  1
  F  F18  1  0.10127600  0.65445100  0.79752000  1
  F  F19  1  0.89872400  0.34554900  0.20248000  1
  F  F20  1  0.66374800  0.06480700  0.95206300  1
  F  F21  1  0.33625200  0.93519300  0.04793700  1
  F  F22  1  0.93519300  0.33625200  0.54793700  1
  F  F23  1  0.06480700  0.66374800  0.45206300  1
  F  F24  1  0.84245600  0.03409700  0.12883200  1
  F  F25  1  0.15754400  0.96590300  0.87116800  1
  F  F26  1  0.96590300  0.15754400  0.37116800  1
  F  F27  1  0.03409700  0.84245600  0.62883200  1
loop_
_geom_bond_atom_site_label_1
_geom_bond_atom_site_label_2
_geom_bond_distance
_geom_bond_site_symmetry_2
Ba0 F25 2.703191 1_555
Ba0 F10 2.764517 1_555
Ba0 F14 2.782601 1_555
Ba0 F6 2.814507 1_655
Ba0 F3 2.816836 1_556
Ba0 F8 2.850793 1_565
Ba0 F20 2.906807 1_565
Ba0 F6 3.062276 1_565
Ba0 F21 3.081927 1_556
Ba0 F16 3.139687 1_555
Ba0 F18 3.238725 1_655
Ba1 F24 2.703191 1_555
Ba1 F11 2.764517 1_555
Ba1 F15 2.782601 1_555
Ba1 F7 2.814507 1_455
Ba1 F2 2.816836 1_554
Ba1 F9 2.850793 1_545
Ba1 F21 2.906807 1_545
Ba1 F7 3.062276 1_545
Ba1 F20 3.081927 1_554
Ba1 F17 3.139687 1_555
Ba1 F19 3.238725 1_455
Ba2 F27 2.703191 1_555
Ba2 F8 2.764517 1_555
Ba2 F12 2.782601 1_555
Ba2 F4 2.814507 1_545
Ba2 F1 2.816836 1_555
Ba2 F10 2.850793 1_455
Ba2 F22 2.906807 1_455
Ba2 F4 3.062276 1_455
Ba2 F23 3.081927 1_555
Ba2 F18 3.139687 1_555
Ba2 F16 3.238725 1_545
Ba3 F26 2.703191 1_555
Ba3 F9 2.764517 1_555
Ba3 F13 2.782601 1_555
Ba3 F5 2.814507 1_565
Ba3 F0 2.816836 1_555
Ba3 F11 2.850793 1_655
Ba3 F23 2.906807 1_655
Ba3 F5 3.062276 1_655
Ba3 F22 3.081927 1_555
Ba3 F19 3.139687 1_555
Ba3 F17 3.238725 1_565
Cd0 F26 2.204142 1_455
Cd0 F27 2.204142 1_545
Cd0 F0 2.244997 1_545
Cd0 F1 2.244997 1_455
Cd0 F22 2.357233 1_455
Cd0 F23 2.357233 1_545
Cd1 F24 2.204142 1_455
Cd1 F25 2.204142 1_544
Cd1 F3 2.244997 1_455
Cd1 F2 2.244997 1_544
Cd1 F21 2.357233 1_545
Cd1 F20 2.357233 1_454
Cd2 F25 2.224990 1_645
Cd2 F27 2.224990 1_645
Cd2 F18 2.377507 1_645
Cd2 F16 2.377507 1_645
Cd2 F14 2.383160 1_555
Cd2 F12 2.383160 1_555
Cd3 F24 2.224990 1_465
Cd3 F26 2.224990 1_465
Cd3 F17 2.377507 1_465
Cd3 F19 2.377507 1_465
Cd3 F13 2.383160 1_555
Cd3 F15 2.383160 1_555
F0 V2 1.992618 1_555
F1 V3 1.992618 1_555
F2 V0 1.992618 1_555
F3 V1 1.992618 1_555
F4 V2 1.927812 1_555
F5 V3 1.927812 1_555
F6 V0 1.927812 1_555
F7 V1 1.927812 1_555
F8 V0 2.003726 1_555
F9 V1 2.003726 1_555
F10 V2 2.003726 1_555
F11 V3 2.003726 1_555
F12 V2 1.963011 1_555
F13 V3 1.963011 1_555
F14 V0 1.963011 1_555
F15 V1 1.963011 1_555
F16 V2 1.971129 1_555
F17 V3 1.971129 1_555
F18 V0 1.971129 1_555
F19 V1 1.971129 1_555
F20 V0 2.007644 1_555
F21 V1 2.007644 1_555
F22 V2 2.007644 1_555
F23 V3 2.007644 1_555
