# generated using pymatgen
data_Zn3P2(HO2)4
_symmetry_space_group_name_H-M   'P 1'
_cell_length_a   5.34134000
_cell_length_b   5.82829130
_cell_length_c   7.23088810
_cell_angle_alpha   93.59602717
_cell_angle_beta   94.63193769
_cell_angle_gamma   91.71551459
_symmetry_Int_Tables_number   1
_chemical_formula_structural   Zn3P2(HO2)4
_chemical_formula_sum   'Zn3 P2 H4 O8'
_cell_volume   223.78834046
_cell_formula_units_Z   1
loop_
 _symmetry_equiv_pos_site_id
 _symmetry_equiv_pos_as_xyz
  1  'x, y, z'
loop_
 _atom_site_type_symbol
 _atom_site_label
 _atom_site_symmetry_multiplicity
 _atom_site_fract_x
 _atom_site_fract_y
 _atom_site_fract_z
 _atom_site_occupancy
  Zn  Zn0  1  0.00000000  0.00000000  0.00000000  1
  Zn  Zn1  1  0.17828500  0.74372800  0.40219500  1
  Zn  Zn2  1  0.82171500  0.25627200  0.59780500  1
  P  P0  1  0.29384700  0.25276000  0.35542800  1
  P  P1  1  0.70615300  0.74724000  0.64457200  1
  H  H0  1  0.24990800  0.21127200  0.89350100  1
  H  H1  1  0.75009200  0.78872800  0.10649900  1
  H  H2  1  0.78532100  0.24804400  0.06466400  1
  H  H3  1  0.21467900  0.75195600  0.93533600  1
  O  O0  1  0.18973400  0.01828400  0.23483800  1
  O  O1  1  0.81026600  0.98171600  0.76516200  1
  O  O2  1  0.17103200  0.24622200  0.53987300  1
  O  O3  1  0.82896800  0.75377800  0.46012700  1
  O  O4  1  0.57902900  0.22746500  0.38237600  1
  O  O5  1  0.42097100  0.77253500  0.61762400  1
  O  O6  1  0.21684200  0.45939200  0.24306200  1
  O  O7  1  0.78315800  0.54060800  0.75693800  1
loop_
_geom_bond_atom_site_label_1
_geom_bond_atom_site_label_2
_geom_bond_distance
_geom_bond_site_symmetry_2
H0 Zn0 2.019314 1_556
H1 Zn0 2.019314 1_665
H2 Zn0 1.929900 1_655
H3 Zn0 1.929900 1_566
O0 P0 1.632136 1_555
O0 Zn0 1.901262 1_555
O0 Zn1 2.068285 1_545
O1 P1 1.632136 1_555
O1 Zn0 1.901262 1_666
O1 Zn2 2.068285 1_565
O2 P0 1.535163 1_555
O2 Zn2 1.946765 1_455
O3 P1 1.535163 1_555
O3 Zn1 1.946765 1_655
O4 P0 1.532683 1_555
O4 Zn2 1.939870 1_555
O5 P1 1.532683 1_555
O5 Zn1 1.939870 1_555
O6 P0 1.542121 1_555
O6 Zn1 1.982991 1_555
O7 P1 1.542121 1_555
O7 Zn2 1.982991 1_555
