# generated using pymatgen
data_Rb3Zr6BeCl15
_symmetry_space_group_name_H-M   'P 1'
_cell_length_a   10.23541585
_cell_length_b   10.23541585
_cell_length_c   14.37871315
_cell_angle_alpha   87.54005522
_cell_angle_beta   87.54005522
_cell_angle_gamma   69.60324908
_symmetry_Int_Tables_number   1
_chemical_formula_structural   Rb3Zr6BeCl15
_chemical_formula_sum   'Rb6 Zr12 Be2 Cl30'
_cell_volume   1409.99097762
_cell_formula_units_Z   2
loop_
 _symmetry_equiv_pos_site_id
 _symmetry_equiv_pos_as_xyz
  1  'x, y, z'
loop_
 _atom_site_type_symbol
 _atom_site_label
 _atom_site_symmetry_multiplicity
 _atom_site_fract_x
 _atom_site_fract_y
 _atom_site_fract_z
 _atom_site_occupancy
  Rb  Rb0  1  0.93873800  0.06126200  0.25000000  1
  Rb  Rb1  1  0.06126200  0.93873800  0.75000000  1
  Rb  Rb2  1  0.64124500  0.13010300  0.56636300  1
  Rb  Rb3  1  0.35875500  0.86989700  0.43363700  1
  Rb  Rb4  1  0.86989700  0.35875500  0.93363700  1
  Rb  Rb5  1  0.13010300  0.64124500  0.06636300  1
  Zr  Zr0  1  0.54647600  0.84963300  0.13373800  1
  Zr  Zr1  1  0.45352400  0.15036700  0.86626200  1
  Zr  Zr2  1  0.15036700  0.45352400  0.36626200  1
  Zr  Zr3  1  0.84963300  0.54647600  0.63373800  1
  Zr  Zr4  1  0.27225000  0.99890300  0.00139700  1
  Zr  Zr5  1  0.72775000  0.00109700  0.99860300  1
  Zr  Zr6  1  0.00109700  0.72775000  0.49860300  1
  Zr  Zr7  1  0.99890300  0.27225000  0.50139700  1
  Zr  Zr8  1  0.42554400  0.19563600  0.09663200  1
  Zr  Zr9  1  0.57445600  0.80436400  0.90336800  1
  Zr  Zr10  1  0.80436400  0.57445600  0.40336800  1
  Zr  Zr11  1  0.19563600  0.42554400  0.59663200  1
  Be  Be0  1  0.50000000  0.00000000  0.00000000  1
  Be  Be1  1  0.00000000  0.50000000  0.50000000  1
  Cl  Cl0  1  0.29265300  0.84402800  0.15071100  1
  Cl  Cl1  1  0.70734700  0.15597200  0.84928900  1
  Cl  Cl2  1  0.15597200  0.70734700  0.34928900  1
  Cl  Cl3  1  0.84402800  0.29265300  0.65071100  1
  Cl  Cl4  1  0.58300300  0.67060400  0.28786800  1
  Cl  Cl5  1  0.41699700  0.32939600  0.71213200  1
  Cl  Cl6  1  0.32939600  0.41699700  0.21213200  1
  Cl  Cl7  1  0.67060400  0.58300300  0.78786800  1
  Cl  Cl8  1  0.67284100  0.21898600  0.10090100  1
  Cl  Cl9  1  0.32715900  0.78101400  0.89909900  1
  Cl  Cl10  1  0.78101400  0.32715900  0.39909900  1
  Cl  Cl11  1  0.21898600  0.67284100  0.60090100  1
  Cl  Cl12  1  0.48126400  0.04802500  0.25036500  1
  Cl  Cl13  1  0.51873600  0.95197500  0.74963500  1
  Cl  Cl14  1  0.95197500  0.51873600  0.24963500  1
  Cl  Cl15  1  0.04802500  0.48126400  0.75036500  1
  Cl  Cl16  1  0.62241700  0.62996900  0.54077800  1
  Cl  Cl17  1  0.37758300  0.37003100  0.45922200  1
  Cl  Cl18  1  0.37003100  0.37758300  0.95922200  1
  Cl  Cl19  1  0.62996900  0.62241700  0.04077800  1
  Cl  Cl20  1  0.80279100  0.84233600  0.14492700  1
  Cl  Cl21  1  0.19720900  0.15766400  0.85507300  1
  Cl  Cl22  1  0.15766400  0.19720900  0.35507300  1
  Cl  Cl23  1  0.84233600  0.80279100  0.64492700  1
  Cl  Cl24  1  0.78268600  0.83742500  0.39942200  1
  Cl  Cl25  1  0.21731400  0.16257500  0.60057800  1
  Cl  Cl26  1  0.16257500  0.21731400  0.10057800  1
  Cl  Cl27  1  0.83742500  0.78268600  0.89942200  1
  Cl  Cl28  1  0.00000000  0.00000000  0.00000000  1
  Cl  Cl29  1  0.00000000  0.00000000  0.50000000  1
loop_
_geom_bond_atom_site_label_1
_geom_bond_atom_site_label_2
_geom_bond_distance
_geom_bond_site_symmetry_2
Be0 Zr5 2.334274 1_554
Be0 Zr4 2.334274 1_545
Be0 Zr8 2.367540 1_555
Be0 Zr9 2.367540 1_544
Be0 Zr0 2.367914 1_545
Be0 Zr1 2.367914 1_554
Be1 Zr6 2.334274 1_555
Be1 Zr7 2.334274 1_455
Be1 Zr10 2.367540 1_455
Be1 Zr11 2.367540 1_555
Be1 Zr2 2.367914 1_555
Be1 Zr3 2.367914 1_455
Cl0 Zr4 2.584851 1_555
Cl0 Zr0 2.619281 1_555
Cl0 Rb5 3.367994 1_555
Cl0 Rb0 3.783990 1_465
Cl1 Zr5 2.584851 1_555
Cl1 Zr1 2.619281 1_555
Cl1 Rb4 3.367994 1_555
Cl1 Rb1 3.783990 1_645
Cl2 Zr6 2.584851 1_555
Cl2 Zr2 2.619281 1_555
Cl2 Rb3 3.367994 1_555
Cl2 Rb0 3.783990 1_465
Cl3 Zr7 2.584851 1_555
Cl3 Zr3 2.619281 1_555
Cl3 Rb2 3.367994 1_555
Cl3 Rb1 3.783990 1_645
Cl4 Zr10 2.736520 1_555
Cl4 Zr0 2.766602 1_555
Cl4 Rb3 3.242353 1_555
Cl5 Zr11 2.736520 1_555
Cl5 Zr1 2.766602 1_555
Cl5 Rb2 3.242353 1_555
Cl6 Zr8 2.736520 1_555
Cl6 Zr2 2.766602 1_555
Cl6 Rb5 3.242353 1_555
Cl7 Zr9 2.736520 1_555
Cl7 Zr3 2.766602 1_555
Cl7 Rb4 3.242353 1_555
Cl8 Zr5 2.605789 1_554
Cl8 Zr8 2.627559 1_555
Cl8 Rb0 3.427894 1_555
Cl8 Rb4 3.632962 1_554
Cl9 Zr4 2.605789 1_556
Cl9 Zr9 2.627559 1_555
Cl9 Rb1 3.427894 1_555
Cl9 Rb5 3.632962 1_556
Cl10 Zr7 2.605789 1_555
Cl10 Zr10 2.627559 1_555
Cl10 Rb0 3.427894 1_555
Cl10 Rb2 3.632962 1_555
Cl11 Zr6 2.605789 1_555
Cl11 Zr11 2.627559 1_555
Cl11 Rb1 3.427894 1_555
Cl11 Rb3 3.632962 1_555
Cl12 Zr0 2.575379 1_545
Cl12 Zr8 2.591352 1_555
Cl12 Rb3 3.569073 1_545
Cl13 Zr1 2.575379 1_565
Cl13 Zr9 2.591352 1_555
Cl13 Rb2 3.569073 1_565
Cl14 Zr2 2.575379 1_655
Cl14 Zr10 2.591352 1_555
Cl14 Rb5 3.569073 1_655
Cl15 Zr3 2.575379 1_455
Cl15 Zr11 2.591352 1_555
Cl15 Rb4 3.569073 1_455
Cl16 Zr3 2.590181 1_555
Cl16 Zr10 2.595701 1_555
Cl16 Rb3 3.331608 1_555
Cl17 Zr2 2.590181 1_555
Cl17 Zr11 2.595701 1_555
Cl17 Rb2 3.331608 1_555
Cl18 Zr1 2.590181 1_555
Cl18 Zr8 2.595701 1_556
Cl18 Rb5 3.331608 1_556
Cl19 Zr0 2.590181 1_555
Cl19 Zr9 2.595701 1_554
Cl19 Rb4 3.331608 1_554
Cl20 Zr5 2.575341 1_564
Cl20 Zr0 2.610131 1_555
Cl20 Rb5 3.435763 1_655
Cl20 Rb0 3.447374 1_565
Cl21 Zr4 2.575341 1_546
Cl21 Zr1 2.610131 1_555
Cl21 Rb4 3.435763 1_455
Cl21 Rb1 3.447374 1_545
Cl22 Zr7 2.575341 1_455
Cl22 Zr2 2.610131 1_555
Cl22 Rb3 3.435763 1_545
Cl22 Rb0 3.447374 1_455
Cl23 Zr6 2.575341 1_655
Cl23 Zr3 2.610131 1_555
Cl23 Rb2 3.435763 1_565
Cl23 Rb1 3.447374 1_655
Cl24 Zr6 2.584279 1_655
Cl24 Zr10 2.620846 1_555
Cl24 Rb2 3.758706 1_565
Cl24 Rb0 3.774900 1_565
Cl25 Zr7 2.584279 1_455
Cl25 Zr11 2.620846 1_555
Cl25 Rb3 3.758706 1_545
Cl25 Rb1 3.774900 1_545
Cl26 Zr4 2.584279 1_545
Cl26 Zr8 2.620846 1_555
Cl26 Rb4 3.758706 1_454
Cl26 Rb0 3.774900 1_455
Cl27 Zr5 2.584279 1_565
Cl27 Zr9 2.620846 1_555
Cl27 Rb5 3.758706 1_656
Cl27 Rb1 3.774900 1_655
Cl28 Zr5 2.783631 1_454
Cl28 Zr4 2.783631 1_545
Cl28 Rb4 3.545046 1_454
Cl28 Rb5 3.545046 1_545
Cl28 Rb1 3.665244 1_544
Cl28 Rb0 3.665244 1_455
Cl29 Zr6 2.783631 1_545
Cl29 Zr7 2.783631 1_455
Cl29 Rb3 3.545046 1_545
Cl29 Rb2 3.545046 1_455
Cl29 Rb1 3.665244 1_545
Cl29 Rb0 3.665244 1_455
