# generated using pymatgen
data_LiTm2Br5
_symmetry_space_group_name_H-M   'P 1'
_cell_length_a   9.75719293
_cell_length_b   9.75719293
_cell_length_c   7.98867554
_cell_angle_alpha   74.81801798
_cell_angle_beta   74.81801798
_cell_angle_gamma   39.91328149
_symmetry_Int_Tables_number   1
_chemical_formula_structural   LiTm2Br5
_chemical_formula_sum   'Li2 Tm4 Br10'
_cell_volume   468.66312644
_cell_formula_units_Z   2
loop_
 _symmetry_equiv_pos_site_id
 _symmetry_equiv_pos_as_xyz
  1  'x, y, z'
loop_
 _atom_site_type_symbol
 _atom_site_label
 _atom_site_symmetry_multiplicity
 _atom_site_fract_x
 _atom_site_fract_y
 _atom_site_fract_z
 _atom_site_occupancy
  Li  Li0  1  0.00000000  0.50000000  0.50000000  1
  Li  Li1  1  0.50000000  0.00000000  0.00000000  1
  Tm  Tm0  1  0.17271100  0.72526100  0.96864600  1
  Tm  Tm1  1  0.82728900  0.27473900  0.03135400  1
  Tm  Tm2  1  0.27473900  0.82728900  0.53135400  1
  Tm  Tm3  1  0.72526100  0.17271100  0.46864600  1
  Br  Br0  1  0.11119800  0.88880200  0.25000000  1
  Br  Br1  1  0.88880200  0.11119800  0.75000000  1
  Br  Br2  1  0.87083100  0.74271800  0.10848800  1
  Br  Br3  1  0.12916900  0.25728200  0.89151200  1
  Br  Br4  1  0.25728200  0.12916900  0.39151200  1
  Br  Br5  1  0.74271800  0.87083100  0.60848800  1
  Br  Br6  1  0.67229900  0.51094200  0.32106000  1
  Br  Br7  1  0.32770100  0.48905800  0.67894000  1
  Br  Br8  1  0.48905800  0.32770100  0.17894000  1
  Br  Br9  1  0.51094200  0.67229900  0.82106000  1
loop_
_geom_bond_atom_site_label_1
_geom_bond_atom_site_label_2
_geom_bond_distance
_geom_bond_site_symmetry_2
Br0 Tm0 2.767884 1_554
Br0 Tm2 2.767884 1_555
Br0 Tm3 2.827000 1_465
Br0 Tm1 2.827000 1_465
Br1 Tm1 2.767884 1_556
Br1 Tm3 2.767884 1_555
Br1 Tm0 2.827000 1_645
Br1 Tm2 2.827000 1_645
Br2 Li1 2.591134 1_565
Br2 Tm0 2.749461 1_654
Br3 Li1 2.591134 1_556
Br3 Tm1 2.749461 1_456
Br4 Li0 2.591134 1_555
Br4 Tm2 2.749461 1_545
Br5 Li0 2.591134 1_655
Br5 Tm3 2.749461 1_565
Br6 Tm3 2.865891 1_555
Br6 Tm2 2.886547 1_555
Br6 Tm1 2.927251 1_555
Br7 Tm2 2.865891 1_555
Br7 Tm3 2.886547 1_555
Br7 Tm0 2.927251 1_555
Br8 Tm1 2.865891 1_555
Br8 Tm0 2.886547 1_554
Br8 Tm3 2.927251 1_555
Br9 Tm0 2.865891 1_555
Br9 Tm1 2.886547 1_556
Br9 Tm2 2.927251 1_555
