# generated using pymatgen
data_AgPPd5
_symmetry_space_group_name_H-M   'P 1'
_cell_length_a   3.96877500
_cell_length_b   3.96877500
_cell_length_c   7.00522500
_cell_angle_alpha   90.00000000
_cell_angle_beta   90.00000000
_cell_angle_gamma   90.00000000
_symmetry_Int_Tables_number   1
_chemical_formula_structural   AgPPd5
_chemical_formula_sum   'Ag1 P1 Pd5'
_cell_volume   110.34052489
_cell_formula_units_Z   1
loop_
 _symmetry_equiv_pos_site_id
 _symmetry_equiv_pos_as_xyz
  1  'x, y, z'
loop_
 _atom_site_type_symbol
 _atom_site_label
 _atom_site_symmetry_multiplicity
 _atom_site_fract_x
 _atom_site_fract_y
 _atom_site_fract_z
 _atom_site_occupancy
  Ag  Ag0  1  0.50000000  0.50000000  0.00000000  1
  P  P0  1  0.00000000  0.00000000  0.50000000  1
  Pd  Pd0  1  0.00000000  0.00000000  0.00000000  1
  Pd  Pd1  1  0.50000000  0.00000000  0.69953000  1
  Pd  Pd2  1  0.00000000  0.50000000  0.69953000  1
  Pd  Pd3  1  0.50000000  0.00000000  0.30047000  1
  Pd  Pd4  1  0.00000000  0.50000000  0.30047000  1
loop_
_geom_bond_atom_site_label_1
_geom_bond_atom_site_label_2
_geom_bond_distance
_geom_bond_site_symmetry_2
Ag0 Pd0 2.806348 1_565
Ag0 Pd0 2.806348 1_655
Ag0 Pd0 2.806348 1_555
Ag0 Pd0 2.806348 1_665
Ag0 Pd2 2.892789 1_654
Ag0 Pd1 2.892789 1_564
Ag0 Pd2 2.892789 1_554
Ag0 Pd1 2.892789 1_554
Ag0 Pd3 2.892789 1_565
Ag0 Pd4 2.892789 1_655
Ag0 Pd3 2.892789 1_555
Ag0 Pd4 2.892789 1_555
P0 Pd3 2.427242 1_555
P0 Pd4 2.427242 1_545
P0 Pd3 2.427242 1_455
P0 Pd4 2.427242 1_555
P0 Pd2 2.427242 1_545
P0 Pd1 2.427242 1_455
P0 Pd1 2.427242 1_555
P0 Pd2 2.427242 1_555
Pd0 Pd1 2.892789 1_454
Pd0 Pd2 2.892789 1_554
Pd0 Pd1 2.892789 1_554
Pd0 Pd2 2.892789 1_544
Pd0 Pd3 2.892789 1_555
Pd0 Pd4 2.892789 1_545
Pd0 Pd3 2.892789 1_455
Pd0 Pd4 2.892789 1_555
Pd1 Pd3 2.795505 1_555
Pd1 Pd2 2.806348 1_655
Pd1 Pd2 2.806348 1_545
Pd1 Pd2 2.806348 1_645
Pd1 Pd2 2.806348 1_555
Pd2 Pd4 2.795505 1_555
Pd3 Pd4 2.806348 1_545
Pd3 Pd4 2.806348 1_555
Pd3 Pd4 2.806348 1_645
Pd3 Pd4 2.806348 1_655
