# generated using pymatgen
data_CaMnSb2
_symmetry_space_group_name_H-M   'P 1'
_cell_length_a   4.39400200
_cell_length_b   4.39400200
_cell_length_c   10.57328200
_cell_angle_alpha   90.00000000
_cell_angle_beta   90.00000000
_cell_angle_gamma   90.00000000
_symmetry_Int_Tables_number   1
_chemical_formula_structural   CaMnSb2
_chemical_formula_sum   'Ca2 Mn2 Sb4'
_cell_volume   204.14103670
_cell_formula_units_Z   2
loop_
 _symmetry_equiv_pos_site_id
 _symmetry_equiv_pos_as_xyz
  1  'x, y, z'
loop_
 _atom_site_type_symbol
 _atom_site_label
 _atom_site_symmetry_multiplicity
 _atom_site_fract_x
 _atom_site_fract_y
 _atom_site_fract_z
 _atom_site_occupancy
  Ca  Ca0  1  0.00000000  0.50000000  0.23586300  1
  Ca  Ca1  1  0.50000000  0.00000000  0.76413700  1
  Mn  Mn0  1  0.00000000  0.00000000  0.50000000  1
  Mn  Mn1  1  0.50000000  0.50000000  0.50000000  1
  Sb  Sb0  1  0.00000000  0.00000000  0.00000000  1
  Sb  Sb1  1  0.50000000  0.50000000  0.00000000  1
  Sb  Sb2  1  0.00000000  0.50000000  0.64955700  1
  Sb  Sb3  1  0.50000000  0.00000000  0.35044300  1
loop_
_geom_bond_atom_site_label_1
_geom_bond_atom_site_label_2
_geom_bond_distance
_geom_bond_site_symmetry_2
Ca0 Sb0 3.323565 1_555
Ca0 Sb1 3.323565 1_455
Ca0 Sb0 3.323565 1_565
Ca0 Sb1 3.323565 1_555
Ca0 Sb3 3.334865 1_465
Ca0 Sb3 3.334865 1_555
Ca0 Sb3 3.334865 1_455
Ca0 Sb3 3.334865 1_565
Ca0 Mn0 3.553381 1_555
Ca0 Mn0 3.553381 1_565
Ca0 Mn1 3.553381 1_555
Ca0 Mn1 3.553381 1_455
Ca1 Sb1 3.323565 1_556
Ca1 Sb0 3.323565 1_656
Ca1 Sb1 3.323565 1_546
Ca1 Sb0 3.323565 1_556
Ca1 Sb2 3.334865 1_645
Ca1 Sb2 3.334865 1_545
Ca1 Sb2 3.334865 1_555
Ca1 Sb2 3.334865 1_655
Ca1 Mn0 3.553381 1_655
Ca1 Mn1 3.553381 1_545
Ca1 Mn0 3.553381 1_555
Ca1 Mn1 3.553381 1_555
Mn0 Sb3 2.706908 1_555
Mn0 Sb3 2.706908 1_455
Mn0 Sb2 2.706908 1_545
Mn0 Sb2 2.706908 1_555
Mn1 Sb3 2.706908 1_555
Mn1 Sb2 2.706908 1_655
Mn1 Sb3 2.706908 1_565
Mn1 Sb2 2.706908 1_555
Sb0 Sb1 3.107029 1_555
Sb0 Sb1 3.107029 1_545
Sb0 Sb1 3.107029 1_445
Sb0 Sb1 3.107029 1_455
