# generated using pymatgen
data_Co2Ge
_symmetry_space_group_name_H-M   'P 1'
_cell_length_a   3.81633100
_cell_length_b   4.98848386
_cell_length_c   7.14423424
_cell_angle_alpha   90.00000000
_cell_angle_beta   90.00000000
_cell_angle_gamma   90.00000000
_symmetry_Int_Tables_number   1
_chemical_formula_structural   Co2Ge
_chemical_formula_sum   'Co8 Ge4'
_cell_volume   136.00982818
_cell_formula_units_Z   4
loop_
 _symmetry_equiv_pos_site_id
 _symmetry_equiv_pos_as_xyz
  1  'x, y, z'
loop_
 _atom_site_type_symbol
 _atom_site_label
 _atom_site_symmetry_multiplicity
 _atom_site_fract_x
 _atom_site_fract_y
 _atom_site_fract_z
 _atom_site_occupancy
  Co  Co0  1  0.75000000  0.17424203  0.56249512  1
  Co  Co1  1  0.75000000  0.67424203  0.93750488  1
  Co  Co2  1  0.25000000  0.82575797  0.43750488  1
  Co  Co3  1  0.25000000  0.32575797  0.06249512  1
  Co  Co4  1  0.75000000  0.53753099  0.27643912  1
  Co  Co5  1  0.75000000  0.03753099  0.22356088  1
  Co  Co6  1  0.25000000  0.46246901  0.72356088  1
  Co  Co7  1  0.25000000  0.96246901  0.77643912  1
  Ge  Ge0  1  0.75000000  0.20365207  0.89495446  1
  Ge  Ge1  1  0.75000000  0.70365207  0.60504554  1
  Ge  Ge2  1  0.25000000  0.79634793  0.10504554  1
  Ge  Ge3  1  0.25000000  0.29634793  0.39495446  1
loop_
_geom_bond_atom_site_label_1
_geom_bond_atom_site_label_2
_geom_bond_distance
_geom_bond_site_symmetry_2
Co0 Ge3 2.333413 1_555
Co0 Ge3 2.333413 1_655
Co0 Ge1 2.367131 1_545
Co0 Ge0 2.379694 1_555
Co0 Co5 2.515631 1_555
Co0 Co6 2.651886 1_655
Co0 Co6 2.651886 1_555
Co0 Ge1 2.658391 1_555
Co0 Co7 2.663333 1_645
Co0 Co7 2.663333 1_545
Co0 Co2 2.731397 1_645
Co0 Co2 2.731397 1_545
Co0 Co4 2.731447 1_555
Co1 Ge2 2.333413 1_556
Co1 Ge2 2.333413 1_656
Co1 Ge0 2.367131 1_555
Co1 Ge1 2.379694 1_555
Co1 Co4 2.515631 1_556
Co1 Co7 2.651886 1_555
Co1 Co7 2.651886 1_655
Co1 Ge0 2.658391 1_565
Co1 Co6 2.663333 1_655
Co1 Co6 2.663333 1_555
Co1 Co3 2.731397 1_556
Co1 Co3 2.731397 1_656
Co1 Co5 2.731447 1_566
Co2 Ge1 2.333413 1_555
Co2 Ge1 2.333413 1_455
Co2 Ge3 2.367131 1_565
Co2 Ge2 2.379694 1_555
Co2 Co7 2.515631 1_555
Co2 Co4 2.651886 1_455
Co2 Co4 2.651886 1_555
Co2 Ge3 2.658391 1_555
Co2 Co5 2.663333 1_465
Co2 Co5 2.663333 1_565
Co2 Co6 2.731447 1_555
Co3 Ge0 2.333413 1_554
Co3 Ge0 2.333413 1_454
Co3 Ge2 2.367131 1_555
Co3 Ge3 2.379694 1_555
Co3 Co6 2.515631 1_554
Co3 Co5 2.651886 1_555
Co3 Co5 2.651886 1_455
Co3 Ge2 2.658391 1_545
Co3 Co4 2.663333 1_455
Co3 Co4 2.663333 1_555
Co3 Co7 2.731447 1_544
Co4 Ge3 2.409469 1_655
Co4 Ge3 2.409469 1_555
Co4 Ge1 2.489608 1_555
Co4 Co5 2.522688 1_555
Co4 Co5 2.522688 1_565
Co4 Ge2 2.609097 1_555
Co4 Ge2 2.609097 1_655
Co5 Ge2 2.409469 1_645
Co5 Ge2 2.409469 1_545
Co5 Ge0 2.489608 1_554
Co5 Ge3 2.609097 1_655
Co5 Ge3 2.609097 1_555
Co6 Ge1 2.409469 1_455
Co6 Ge1 2.409469 1_555
Co6 Ge3 2.489608 1_555
Co6 Co7 2.522688 1_545
Co6 Co7 2.522688 1_555
Co6 Ge0 2.609097 1_555
Co6 Ge0 2.609097 1_455
Co7 Ge0 2.409469 1_565
Co7 Ge0 2.409469 1_465
Co7 Ge2 2.489608 1_556
Co7 Ge1 2.609097 1_555
Co7 Ge1 2.609097 1_455
