# generated using pymatgen
data_MgFe3Co2Sb(PO4)6
_symmetry_space_group_name_H-M   'P 1'
_cell_length_a   8.80349400
_cell_length_b   8.71087835
_cell_length_c   8.72068863
_cell_angle_alpha   60.06025880
_cell_angle_beta   60.77336949
_cell_angle_gamma   60.57872557
_symmetry_Int_Tables_number   1
_chemical_formula_structural   MgFe3Co2Sb(PO4)6
_chemical_formula_sum   'Mg1 Fe3 Co2 Sb1 P6 O24'
_cell_volume   477.87540634
_cell_formula_units_Z   1
loop_
 _symmetry_equiv_pos_site_id
 _symmetry_equiv_pos_as_xyz
  1  'x, y, z'
loop_
 _atom_site_type_symbol
 _atom_site_label
 _atom_site_symmetry_multiplicity
 _atom_site_fract_x
 _atom_site_fract_y
 _atom_site_fract_z
 _atom_site_occupancy
  Mg  Mg0  1  0.23052600  0.25722500  0.25560300  1
  Fe  Fe0  1  0.05923100  0.64723500  0.64705400  1
  Fe  Fe1  1  0.44926100  0.84884800  0.85034000  1
  Fe  Fe2  1  0.87743300  0.37404000  0.37487100  1
  Co  Co0  1  0.04343700  0.99086200  0.98350500  1
  Co  Co1  1  0.47899200  0.50761300  0.50942000  1
  Sb  Sb0  1  0.62004000  0.12628400  0.12625300  1
  P  P0  1  0.24574300  0.25296000  0.55355000  1
  P  P1  1  0.24449400  0.94769200  0.25299100  1
  P  P2  1  0.24424300  0.55565500  0.94797800  1
  P  P3  1  0.75175800  0.46513800  0.03701300  1
  P  P4  1  0.74939600  0.03773000  0.74649600  1
  P  P5  1  0.74778100  0.74618500  0.46743900  1
  O  O0  1  0.07698500  0.11547200  0.30032000  1
  O  O1  1  0.07661700  0.50803200  0.11537000  1
  O  O2  1  0.07688700  0.30167900  0.50542900  1
  O  O3  1  0.24387700  0.08611100  0.74121800  1
  O  O4  1  0.41230400  0.20565400  0.37959800  1
  O  O5  1  0.26286300  0.41316200  0.56866600  1
  O  O6  1  0.24240600  0.92783300  0.08667900  1
  O  O7  1  0.26123100  0.75637200  0.41389000  1
  O  O8  1  0.58362400  0.59265000  0.97174900  1
  O  O9  1  0.25956800  0.57042900  0.75689900  1
  O  O10  1  0.80524500  0.25529200  0.04246500  1
  O  O11  1  0.58183500  0.97226700  0.85178100  1
  O  O12  1  0.41288100  0.00196900  0.20533900  1
  O  O13  1  0.24451900  0.74267700  0.92774700  1
  O  O14  1  0.70195100  0.45295900  0.23780000  1
  O  O15  1  0.41193600  0.37935900  0.00218800  1
  O  O16  1  0.69808500  0.23986300  0.60801900  1
  O  O17  1  0.80431300  0.04252600  0.89703700  1
  O  O18  1  0.69571200  0.60701900  0.45619200  1
  O  O19  1  0.58134800  0.85123800  0.59452200  1
  O  O20  1  0.80150300  0.89592900  0.25841300  1
  O  O21  1  0.92285500  0.65933400  0.51693100  1
  O  O22  1  0.92591400  0.51432800  0.89890600  1
  O  O23  1  0.92320400  0.90038200  0.66032300  1
loop_
_geom_bond_atom_site_label_1
_geom_bond_atom_site_label_2
_geom_bond_distance
_geom_bond_site_symmetry_2
Mg0 O1 2.036531 1_555
Mg0 O0 2.036729 1_555
Mg0 O2 2.043489 1_555
Mg0 O4 2.104903 1_555
Mg0 O15 2.107641 1_555
Mg0 O12 2.119455 1_555
Fe0 O22 1.954799 1_455
Fe0 O21 1.956249 1_455
Fe0 O23 1.958336 1_455
Fe0 O9 2.080040 1_555
Fe0 O7 2.097860 1_555
Fe0 O5 2.107589 1_555
Fe1 O8 1.942067 1_555
Fe1 O19 1.942602 1_555
Fe1 O11 1.943880 1_555
Fe1 O13 2.094329 1_555
Fe1 O3 2.119439 1_565
Fe1 O6 2.134674 1_556
Fe2 O14 2.056140 1_555
Fe2 O16 2.073402 1_555
Fe2 O18 2.078438 1_555
Fe2 O2 2.219305 1_655
Fe2 O0 2.245195 1_655
Fe2 O1 2.248893 1_655
Co0 O6 2.068882 1_556
Co0 O3 2.077046 1_565
Co0 O13 2.119625 1_555
Co0 O10 2.313259 1_466
Co0 O17 2.341652 1_465
Co0 O20 2.394336 1_456
Co1 O5 2.172043 1_555
Co1 O7 2.177406 1_555
Co1 O9 2.181247 1_555
Co1 O18 2.227638 1_555
Co1 O16 2.257751 1_555
Co1 O14 2.314619 1_555
O0 P1 1.539915 1_545
O1 P2 1.540795 1_554
O2 P0 1.541939 1_555
O3 P0 1.553704 1_555
O4 P0 1.574578 1_555
O4 Sb0 2.245128 1_555
O5 P0 1.548280 1_555
O6 P1 1.553509 1_555
O7 P1 1.547399 1_555
O8 P3 1.524785 1_556
O9 P2 1.547552 1_555
O10 P3 1.629368 1_555
O10 Sb0 2.066937 1_555
O11 P4 1.524914 1_565
O12 P1 1.576267 1_545
O12 Sb0 2.222783 1_555
O13 P2 1.549759 1_555
O14 P3 1.542739 1_555
O15 P2 1.578219 1_554
O15 Sb0 2.230193 1_555
O16 P4 1.546445 1_555
O17 P4 1.628917 1_555
O17 Sb0 2.070263 1_556
O18 P5 1.548494 1_555
O19 P5 1.523736 1_555
O20 P5 1.624419 1_555
O20 Sb0 2.060821 1_565
O21 P5 1.520601 1_555
O22 P3 1.520489 1_556
O23 P4 1.521004 1_565
