# generated using pymatgen
data_CeSe2
_symmetry_space_group_name_H-M   'P 1'
_cell_length_a   14.12713258
_cell_length_b   16.44876036
_cell_length_c   16.47984025
_cell_angle_alpha   90.00000000
_cell_angle_beta   90.00000000
_cell_angle_gamma   90.00000000
_symmetry_Int_Tables_number   1
_chemical_formula_structural   CeSe2
_chemical_formula_sum   'Ce16 Se32'
_cell_volume   3829.48340522
_cell_formula_units_Z   16
loop_
 _symmetry_equiv_pos_site_id
 _symmetry_equiv_pos_as_xyz
  1  'x, y, z'
loop_
 _atom_site_type_symbol
 _atom_site_label
 _atom_site_symmetry_multiplicity
 _atom_site_fract_x
 _atom_site_fract_y
 _atom_site_fract_z
 _atom_site_occupancy
  Ce  Ce0  1  0.31260251  0.66951750  0.37935611  1
  Ce  Ce1  1  0.31260251  0.33048250  0.62064389  1
  Ce  Ce2  1  0.68739749  0.16951750  0.12064389  1
  Ce  Ce3  1  0.68739749  0.83048250  0.87935611  1
  Ce  Ce4  1  0.68739749  0.33048250  0.62064389  1
  Ce  Ce5  1  0.68739749  0.66951750  0.37935611  1
  Ce  Ce6  1  0.31260251  0.83048250  0.87935611  1
  Ce  Ce7  1  0.31260251  0.16951750  0.12064389  1
  Ce  Ce8  1  0.18743881  0.87878657  0.16971534  1
  Ce  Ce9  1  0.18743881  0.12121343  0.83028466  1
  Ce  Ce10  1  0.81256119  0.37878657  0.33028466  1
  Ce  Ce11  1  0.81256119  0.62121343  0.66971534  1
  Ce  Ce12  1  0.81256119  0.12121343  0.83028466  1
  Ce  Ce13  1  0.81256119  0.87878657  0.16971534  1
  Ce  Ce14  1  0.18743881  0.62121343  0.66971534  1
  Ce  Ce15  1  0.18743881  0.37878657  0.33028466  1
  Se  Se0  1  0.50000000  0.35099395  0.64559141  1
  Se  Se1  1  0.50000000  0.64900605  0.35440859  1
  Se  Se2  1  0.50000000  0.85099395  0.85440859  1
  Se  Se3  1  0.50000000  0.14900605  0.14559141  1
  Se  Se4  1  -0.00000000  0.14744375  0.84877882  1
  Se  Se5  1  -0.00000000  0.85255625  0.15122118  1
  Se  Se6  1  -0.00000000  0.64744375  0.65122118  1
  Se  Se7  1  -0.00000000  0.35255625  0.34877882  1
  Se  Se8  1  0.25115140  0.80639464  0.30610487  1
  Se  Se9  1  0.25115140  0.19360536  0.69389513  1
  Se  Se10  1  0.74884860  0.30639464  0.19389513  1
  Se  Se11  1  0.74884860  0.69360536  0.80610487  1
  Se  Se12  1  0.74884860  0.19360536  0.69389513  1
  Se  Se13  1  0.74884860  0.80639464  0.30610487  1
  Se  Se14  1  0.25115140  0.69360536  0.80610487  1
  Se  Se15  1  0.25115140  0.30639464  0.19389513  1
  Se  Se16  1  0.22007658  0.53998985  0.31724452  1
  Se  Se17  1  0.22007658  0.46001015  0.68275548  1
  Se  Se18  1  0.77992342  0.03998985  0.18275548  1
  Se  Se19  1  0.77992342  0.96001015  0.81724452  1
  Se  Se20  1  0.77992342  0.46001015  0.68275548  1
  Se  Se21  1  0.77992342  0.53998985  0.31724452  1
  Se  Se22  1  0.22007658  0.96001015  0.81724452  1
  Se  Se23  1  0.22007658  0.03998985  0.18275548  1
  Se  Se24  1  0.27881161  0.81630283  0.03999120  1
  Se  Se25  1  0.27881161  0.18369717  0.96000880  1
  Se  Se26  1  0.72118839  0.31630283  0.46000880  1
  Se  Se27  1  0.72118839  0.68369717  0.53999120  1
  Se  Se28  1  0.72118839  0.18369717  0.96000880  1
  Se  Se29  1  0.72118839  0.81630283  0.03999120  1
  Se  Se30  1  0.27881161  0.68369717  0.53999120  1
  Se  Se31  1  0.27881161  0.31630283  0.46000880  1
loop_
_geom_bond_atom_site_label_1
_geom_bond_atom_site_label_2
_geom_bond_distance
_geom_bond_site_symmetry_2
Ce0 Se8 2.698142 1_555
Ce0 Se30 2.700030 1_555
Ce0 Se1 2.700283 1_555
Ce0 Se16 2.701044 1_555
Ce1 Se9 2.698142 1_555
Ce1 Se31 2.700030 1_555
Ce1 Se0 2.700283 1_555
Ce1 Se17 2.701044 1_555
Ce2 Se10 2.698142 1_555
Ce2 Se28 2.700030 1_554
Ce2 Se3 2.700283 1_555
Ce2 Se18 2.701044 1_555
Ce3 Se11 2.698142 1_555
Ce3 Se29 2.700030 1_556
Ce3 Se2 2.700283 1_555
Ce3 Se19 2.701044 1_555
Ce4 Se12 2.698142 1_555
Ce4 Se26 2.700030 1_555
Ce4 Se0 2.700283 1_555
Ce4 Se20 2.701044 1_555
Ce5 Se13 2.698142 1_555
Ce5 Se27 2.700030 1_555
Ce5 Se1 2.700283 1_555
Ce5 Se21 2.701044 1_555
Ce6 Se14 2.698142 1_555
Ce6 Se24 2.700030 1_556
Ce6 Se2 2.700283 1_555
Ce6 Se22 2.701044 1_555
Ce7 Se15 2.698142 1_555
Ce7 Se25 2.700030 1_554
Ce7 Se3 2.700283 1_555
Ce7 Se23 2.701044 1_555
Ce8 Se8 2.698165 1_555
Ce8 Se23 2.699949 1_565
Ce8 Se5 2.700149 1_555
Ce8 Se24 2.700540 1_555
Ce9 Se9 2.698165 1_555
Ce9 Se22 2.699949 1_545
Ce9 Se4 2.700149 1_555
Ce9 Se25 2.700540 1_555
Ce10 Se10 2.698165 1_555
Ce10 Se21 2.699949 1_555
Ce10 Se7 2.700149 1_655
Ce10 Se26 2.700540 1_555
Ce11 Se11 2.698165 1_555
Ce11 Se20 2.699949 1_555
Ce11 Se6 2.700149 1_655
Ce11 Se27 2.700540 1_555
Ce12 Se12 2.698165 1_555
Ce12 Se19 2.699949 1_545
Ce12 Se4 2.700149 1_655
Ce12 Se28 2.700540 1_555
Ce13 Se13 2.698165 1_555
Ce13 Se18 2.699949 1_565
Ce13 Se5 2.700149 1_655
Ce13 Se29 2.700540 1_555
Ce14 Se14 2.698165 1_555
Ce14 Se17 2.699949 1_555
Ce14 Se6 2.700149 1_555
Ce14 Se30 2.700540 1_555
Ce15 Se15 2.698165 1_555
Ce15 Se16 2.699949 1_555
Ce15 Se7 2.700149 1_555
Ce15 Se31 2.700540 1_555
