# generated using pymatgen
data_BaTlCuO4
_symmetry_space_group_name_H-M   'P 1'
_cell_length_a   16.06361062
_cell_length_b   16.06361062
_cell_length_c   16.06361062
_cell_angle_alpha   166.65848160
_cell_angle_beta   166.65848160
_cell_angle_gamma   18.91088020
_symmetry_Int_Tables_number   1
_chemical_formula_structural   BaTlCuO4
_chemical_formula_sum   'Ba2 Tl2 Cu2 O8'
_cell_volume   220.69405688
_cell_formula_units_Z   2
loop_
 _symmetry_equiv_pos_site_id
 _symmetry_equiv_pos_as_xyz
  1  'x, y, z'
loop_
 _atom_site_type_symbol
 _atom_site_label
 _atom_site_symmetry_multiplicity
 _atom_site_fract_x
 _atom_site_fract_y
 _atom_site_fract_z
 _atom_site_occupancy
  Ba  Ba0  1  0.11684400  0.11684400  0.00000000  1
  Ba  Ba1  1  0.88315600  0.88315600  0.00000000  1
  Tl  Tl0  1  0.28800300  0.28800300  0.00000000  1
  Tl  Tl1  1  0.71199700  0.71199700  0.00000000  1
  Cu  Cu0  1  0.54363900  0.54363900  0.00000000  1
  Cu  Cu1  1  0.45636100  0.45636100  0.00000000  1
  O  O0  1  0.77856300  0.77856300  0.00000000  1
  O  O1  1  0.44417500  0.94417500  0.50000000  1
  O  O2  1  0.05582500  0.55582500  0.50000000  1
  O  O3  1  0.64822200  0.64822200  0.00000000  1
  O  O4  1  0.55582500  0.05582500  0.50000000  1
  O  O5  1  0.94417500  0.44417500  0.50000000  1
  O  O6  1  0.35177800  0.35177800  0.00000000  1
  O  O7  1  0.22143700  0.22143700  0.00000000  1
loop_
_geom_bond_atom_site_label_1
_geom_bond_atom_site_label_2
_geom_bond_distance
_geom_bond_site_symmetry_2
Ba0 O4 2.687254 1_555
Ba0 O2 2.687254 1_555
Ba0 O2 2.687254 1_544
Ba0 O4 2.687254 1_454
Ba0 O3 2.820073 1_444
Ba0 O3 2.820073 1_556
Ba0 O3 2.820073 1_545
Ba0 O3 2.820073 1_455
Ba0 O7 3.314629 1_555
Ba1 O1 2.687254 1_655
Ba1 O5 2.687254 1_565
Ba1 O1 2.687254 1_554
Ba1 O5 2.687254 1_554
Ba1 O6 2.820073 1_554
Ba1 O6 2.820073 1_655
Ba1 O6 2.820073 1_565
Ba1 O6 2.820073 1_666
Ba1 O0 3.314629 1_555
Cu0 O2 1.905554 1_554
Cu0 O4 1.905554 1_554
Cu0 O4 1.905554 1_565
Cu0 O2 1.905554 1_655
Cu1 O5 1.905554 1_555
Cu1 O5 1.905554 1_454
Cu1 O1 1.905554 1_544
Cu1 O1 1.905554 1_555
O0 Tl1 2.109525 1_555
O0 Tl0 2.655841 1_655
O0 Tl0 2.655841 1_666
O0 Tl0 2.655841 1_554
O0 Tl0 2.655841 1_565
O3 Tl1 2.021076 1_555
O6 Tl0 2.021076 1_555
O7 Tl0 2.109525 1_555
O7 Tl1 2.655841 1_545
O7 Tl1 2.655841 1_444
O7 Tl1 2.655841 1_455
O7 Tl1 2.655841 1_556
