# generated using pymatgen
data_Pr3S4
_symmetry_space_group_name_H-M   'P 1'
_cell_length_a   7.49356135
_cell_length_b   7.49356266
_cell_length_c   7.49356183
_cell_angle_alpha   109.47121557
_cell_angle_beta   109.47121907
_cell_angle_gamma   109.47122658
_symmetry_Int_Tables_number   1
_chemical_formula_structural   Pr3S4
_chemical_formula_sum   'Pr6 S8'
_cell_volume   323.92391931
_cell_formula_units_Z   2
loop_
 _symmetry_equiv_pos_site_id
 _symmetry_equiv_pos_as_xyz
  1  'x, y, z'
loop_
 _atom_site_type_symbol
 _atom_site_label
 _atom_site_symmetry_multiplicity
 _atom_site_fract_x
 _atom_site_fract_y
 _atom_site_fract_z
 _atom_site_occupancy
  Pr  Pr0  1  0.75000000  0.87500000  0.12500000  1
  Pr  Pr1  1  0.62500000  0.37500000  0.25000000  1
  Pr  Pr2  1  0.87500000  0.12500000  0.75000000  1
  Pr  Pr3  1  0.12500000  0.75000000  0.87500000  1
  Pr  Pr4  1  0.37500000  0.25000000  0.62500000  1
  Pr  Pr5  1  0.25000000  0.62500000  0.37500000  1
  S  S0  1  0.64861486  0.64861486  0.64861486  1
  S  S1  1  0.35138514  0.50000000  -0.00000000  1
  S  S2  1  0.50000000  0.00000000  0.35138514  1
  S  S3  1  0.00000000  0.35138514  0.50000000  1
  S  S4  1  0.50000000  0.00000000  0.85138514  1
  S  S5  1  0.00000000  0.85138514  0.50000000  1
  S  S6  1  0.14861486  0.14861486  0.14861486  1
  S  S7  1  0.85138514  0.50000000  -0.00000000  1
loop_
_geom_bond_atom_site_label_1
_geom_bond_atom_site_label_2
_geom_bond_distance
_geom_bond_site_symmetry_2
Pr0 S6 2.912116 1_665
Pr0 S1 2.912116 1_555
Pr0 S5 2.912116 1_655
Pr0 S4 2.912116 1_564
Pr0 S2 3.081248 1_565
Pr0 S0 3.081248 1_554
Pr0 S3 3.081249 1_665
Pr0 S7 3.081249 1_555
Pr1 S3 2.912116 1_655
Pr1 S1 2.912116 1_555
Pr1 S0 2.912116 1_555
Pr1 S4 2.912116 1_554
Pr1 S6 3.081248 1_555
Pr1 S7 3.081248 1_555
Pr1 S5 3.081248 1_655
Pr1 S2 3.081248 1_555
Pr2 S2 2.912116 1_555
Pr2 S6 2.912116 1_656
Pr2 S5 2.912116 1_645
Pr2 S7 2.912116 1_556
Pr2 S4 3.081248 1_555
Pr2 S1 3.081248 1_656
Pr2 S3 3.081248 1_655
Pr2 S0 3.081249 1_545
Pr3 S4 2.912116 1_565
Pr3 S7 2.912116 1_456
Pr3 S3 2.912116 1_555
Pr3 S6 2.912116 1_566
Pr3 S0 3.081248 1_455
Pr3 S2 3.081248 1_566
Pr3 S5 3.081248 1_555
Pr3 S1 3.081249 1_556
Pr4 S5 2.912116 1_545
Pr4 S0 2.912116 1_555
Pr4 S2 2.912116 1_555
Pr4 S1 2.912116 1_556
Pr4 S7 3.081248 1_556
Pr4 S3 3.081248 1_555
Pr4 S6 3.081248 1_555
Pr4 S4 3.081248 1_555
Pr5 S3 2.912116 1_555
Pr5 S0 2.912116 1_555
Pr5 S7 2.912116 1_455
Pr5 S2 2.912116 1_565
Pr5 S1 3.081248 1_555
Pr5 S5 3.081248 1_555
Pr5 S4 3.081249 1_565
Pr5 S6 3.081249 1_555
