# generated using pymatgen
data_Ba4PrTm(Cu3O7)2
_symmetry_space_group_name_H-M   'P 1'
_cell_length_a   3.86232300
_cell_length_b   3.93779100
_cell_length_c   23.74873700
_cell_angle_alpha   90.00000000
_cell_angle_beta   90.00000000
_cell_angle_gamma   90.00000000
_symmetry_Int_Tables_number   1
_chemical_formula_structural   Ba4PrTm(Cu3O7)2
_chemical_formula_sum   'Ba4 Pr1 Tm1 Cu6 O14'
_cell_volume   361.19503378
_cell_formula_units_Z   1
loop_
 _symmetry_equiv_pos_site_id
 _symmetry_equiv_pos_as_xyz
  1  'x, y, z'
loop_
 _atom_site_type_symbol
 _atom_site_label
 _atom_site_symmetry_multiplicity
 _atom_site_fract_x
 _atom_site_fract_y
 _atom_site_fract_z
 _atom_site_occupancy
  Ba  Ba0  1  0.50000000  0.50000000  0.83949200  1
  Ba  Ba1  1  0.50000000  0.50000000  0.34076600  1
  Ba  Ba2  1  0.50000000  0.50000000  0.16050800  1
  Ba  Ba3  1  0.50000000  0.50000000  0.65923400  1
  Pr  Pr0  1  0.50000000  0.50000000  0.00000000  1
  Tm  Tm0  1  0.50000000  0.50000000  0.50000000  1
  Cu  Cu0  1  0.00000000  0.00000000  0.92296300  1
  Cu  Cu1  1  0.00000000  0.00000000  0.42766900  1
  Cu  Cu2  1  0.00000000  0.00000000  0.07703700  1
  Cu  Cu3  1  0.00000000  0.00000000  0.57233100  1
  Cu  Cu4  1  0.00000000  0.00000000  0.74958400  1
  Cu  Cu5  1  0.00000000  0.00000000  0.25041600  1
  O  O0  1  0.00000000  0.00000000  0.82859100  1
  O  O1  1  0.00000000  0.00000000  0.32970600  1
  O  O2  1  0.00000000  0.00000000  0.17140900  1
  O  O3  1  0.00000000  0.00000000  0.67029400  1
  O  O4  1  0.00000000  0.50000000  0.74926000  1
  O  O5  1  0.00000000  0.50000000  0.25074000  1
  O  O6  1  0.00000000  0.50000000  0.93457800  1
  O  O7  1  0.00000000  0.50000000  0.44085400  1
  O  O8  1  0.00000000  0.50000000  0.06542200  1
  O  O9  1  0.00000000  0.50000000  0.55914600  1
  O  O10  1  0.50000000  0.00000000  0.93544200  1
  O  O11  1  0.50000000  0.00000000  0.44161900  1
  O  O12  1  0.50000000  0.00000000  0.06455800  1
  O  O13  1  0.50000000  0.00000000  0.55838100  1
loop_
_geom_bond_atom_site_label_1
_geom_bond_atom_site_label_2
_geom_bond_distance
_geom_bond_site_symmetry_2
Ba0 O0 2.770010 1_555
Ba0 O0 2.770010 1_655
Ba0 O0 2.770010 1_565
Ba0 O0 2.770010 1_665
Ba0 O4 2.884682 1_555
Ba0 O4 2.884682 1_655
Ba0 O6 2.971317 1_655
Ba0 O6 2.971317 1_555
Ba0 O10 3.011475 1_565
Ba0 O10 3.011475 1_555
Ba1 O1 2.770366 1_655
Ba1 O1 2.770366 1_555
Ba1 O1 2.770366 1_565
Ba1 O1 2.770366 1_665
Ba1 O5 2.881049 1_655
Ba1 O5 2.881049 1_555
Ba1 O7 3.062571 1_655
Ba1 O7 3.062571 1_555
Ba1 O11 3.100517 1_555
Ba1 O11 3.100517 1_565
Ba2 O2 2.770010 1_565
Ba2 O2 2.770010 1_665
Ba2 O2 2.770010 1_655
Ba2 O2 2.770010 1_555
Ba2 O5 2.884682 1_555
Ba2 O5 2.884682 1_655
Ba2 O8 2.971317 1_555
Ba2 O8 2.971317 1_655
Ba2 O12 3.011475 1_555
Ba2 O12 3.011475 1_565
Ba3 O3 2.770366 1_655
Ba3 O3 2.770366 1_665
Ba3 O3 2.770366 1_565
Ba3 O3 2.770366 1_555
Ba3 O4 2.881049 1_555
Ba3 O4 2.881049 1_655
Ba3 O9 3.062571 1_555
Ba3 O9 3.062571 1_655
Ba3 O13 3.100517 1_555
Ba3 O13 3.100517 1_565
Cu0 O10 1.953769 1_555
Cu0 O10 1.953769 1_455
Cu0 O6 1.988124 1_545
Cu0 O6 1.988124 1_555
Cu0 O0 2.241216 1_555
Cu1 O11 1.959373 1_555
Cu1 O11 1.959373 1_455
Cu1 O7 1.993639 1_555
Cu1 O7 1.993639 1_545
Cu1 O1 2.326498 1_555
Cu2 O12 1.953769 1_455
Cu2 O12 1.953769 1_555
Cu2 O8 1.988124 1_545
Cu2 O8 1.988124 1_555
Cu2 O2 2.241216 1_555
Cu3 O13 1.959373 1_455
Cu3 O13 1.959373 1_555
Cu3 O9 1.993639 1_555
Cu3 O9 1.993639 1_545
Cu3 O3 2.326498 1_555
Cu4 O0 1.876316 1_555
Cu4 O3 1.883037 1_555
Cu4 O4 1.968911 1_555
Cu4 O4 1.968911 1_545
Cu5 O2 1.876316 1_555
Cu5 O1 1.883037 1_555
Cu5 O5 1.968911 1_545
Cu5 O5 1.968911 1_555
O6 Pr0 2.478576 1_556
O6 Pr0 2.478576 1_456
O7 Tm0 2.387971 1_455
O7 Tm0 2.387971 1_555
O8 Pr0 2.478576 1_455
O8 Pr0 2.478576 1_555
O9 Tm0 2.387971 1_555
O9 Tm0 2.387971 1_455
O10 Pr0 2.495428 1_556
O10 Pr0 2.495428 1_546
O11 Tm0 2.408083 1_555
O11 Tm0 2.408083 1_545
O12 Pr0 2.495428 1_555
O12 Pr0 2.495428 1_545
O13 Tm0 2.408083 1_555
O13 Tm0 2.408083 1_545
