# generated using pymatgen
data_BaSrSmCu3O7
_symmetry_space_group_name_H-M   'P 1'
_cell_length_a   3.79360800
_cell_length_b   3.92789100
_cell_length_c   11.72654300
_cell_angle_alpha   90.00000000
_cell_angle_beta   90.00000000
_cell_angle_gamma   90.00000000
_symmetry_Int_Tables_number   1
_chemical_formula_structural   BaSrSmCu3O7
_chemical_formula_sum   'Ba1 Sr1 Sm1 Cu3 O7'
_cell_volume   174.73579506
_cell_formula_units_Z   1
loop_
 _symmetry_equiv_pos_site_id
 _symmetry_equiv_pos_as_xyz
  1  'x, y, z'
loop_
 _atom_site_type_symbol
 _atom_site_label
 _atom_site_symmetry_multiplicity
 _atom_site_fract_x
 _atom_site_fract_y
 _atom_site_fract_z
 _atom_site_occupancy
  Ba  Ba0  1  0.50000000  0.50000000  0.17703100  1
  Sr  Sr0  1  0.50000000  0.50000000  0.82059200  1
  Sm  Sm0  1  0.50000000  0.50000000  0.50366200  1
  Cu  Cu0  1  0.00000000  0.00000000  0.34904900  1
  Cu  Cu1  1  0.00000000  0.00000000  0.65843600  1
  Cu  Cu2  1  0.00000000  0.00000000  0.99553700  1
  O  O0  1  0.00000000  0.50000000  0.37419300  1
  O  O1  1  0.50000000  0.00000000  0.37786000  1
  O  O2  1  0.00000000  0.50000000  0.63535800  1
  O  O3  1  0.50000000  0.00000000  0.62937200  1
  O  O4  1  0.00000000  0.00000000  0.15504200  1
  O  O5  1  0.00000000  0.00000000  0.83729100  1
  O  O6  1  0.00000000  0.50000000  0.98657700  1
loop_
_geom_bond_atom_site_label_1
_geom_bond_atom_site_label_2
_geom_bond_distance
_geom_bond_site_symmetry_2
Ba0 O4 2.742524 1_655
Ba0 O4 2.742524 1_565
Ba0 O4 2.742524 1_665
Ba0 O4 2.742524 1_555
Ba0 O6 2.930152 1_654
Ba0 O6 2.930152 1_554
Ba0 O0 2.990542 1_655
Ba0 O0 2.990542 1_555
Ba0 O1 3.066472 1_555
Ba0 O1 3.066472 1_565
Cu0 O1 1.926658 1_455
Cu0 O1 1.926658 1_555
Cu0 O0 1.985956 1_555
Cu0 O0 1.985956 1_545
Cu0 O4 2.275031 1_555
Cu1 O3 1.927180 1_555
Cu1 O3 1.927180 1_455
Cu1 O2 1.982503 1_545
Cu1 O2 1.982503 1_555
Cu1 O5 2.097351 1_555
Cu2 O5 1.855679 1_555
Cu2 O4 1.870442 1_556
Cu2 O6 1.966754 1_555
Cu2 O6 1.966754 1_545
O0 Sm0 2.429582 1_555
O0 Sm0 2.429582 1_455
O1 Sm0 2.456291 1_555
O1 Sm0 2.456291 1_545
O2 Sm0 2.445986 1_555
O2 Sm0 2.445986 1_455
O2 Sr0 2.883768 1_555
O2 Sr0 2.883768 1_455
O3 Sm0 2.455643 1_545
O3 Sm0 2.455643 1_555
O3 Sr0 2.980808 1_555
O3 Sr0 2.980808 1_545
O5 Sr0 2.737388 1_545
O5 Sr0 2.737388 1_455
O5 Sr0 2.737388 1_555
O5 Sr0 2.737388 1_445
O6 Sr0 2.717804 1_555
O6 Sr0 2.717804 1_455
