# generated using pymatgen
data_Sr3CaCo3CuO12
_symmetry_space_group_name_H-M   'P 1'
_cell_length_a   7.70581000
_cell_length_b   7.71041500
_cell_length_c   7.75498200
_cell_angle_alpha   90.00000000
_cell_angle_beta   90.00000000
_cell_angle_gamma   90.00000000
_symmetry_Int_Tables_number   1
_chemical_formula_structural   Sr3CaCo3CuO12
_chemical_formula_sum   'Sr6 Ca2 Co6 Cu2 O24'
_cell_volume   460.76220133
_cell_formula_units_Z   2
loop_
 _symmetry_equiv_pos_site_id
 _symmetry_equiv_pos_as_xyz
  1  'x, y, z'
loop_
 _atom_site_type_symbol
 _atom_site_label
 _atom_site_symmetry_multiplicity
 _atom_site_fract_x
 _atom_site_fract_y
 _atom_site_fract_z
 _atom_site_occupancy
  Sr  Sr0  1  0.75077000  0.75038900  0.25000000  1
  Sr  Sr1  1  0.75054900  0.75058700  0.75000000  1
  Sr  Sr2  1  0.24940100  0.75079800  0.75000000  1
  Sr  Sr3  1  0.75054900  0.24941300  0.25000000  1
  Sr  Sr4  1  0.75077000  0.24961100  0.75000000  1
  Sr  Sr5  1  0.24940100  0.24920200  0.25000000  1
  Ca  Ca0  1  0.24833200  0.75094900  0.25000000  1
  Ca  Ca1  1  0.24833200  0.24905100  0.75000000  1
  Co  Co0  1  0.49817400  0.00000000  0.00000000  1
  Co  Co1  1  0.49817400  0.00000000  0.50000000  1
  Co  Co2  1  0.00144400  0.50000000  0.00000000  1
  Co  Co3  1  0.00144400  0.50000000  0.50000000  1
  Co  Co4  1  0.49833300  0.50000000  0.00000000  1
  Co  Co5  1  0.49833300  0.50000000  0.50000000  1
  Cu  Cu0  1  0.99992900  0.00000000  0.00000000  1
  Cu  Cu1  1  0.99992900  0.00000000  0.50000000  1
  O  O0  1  0.00388500  0.74321300  0.00287900  1
  O  O1  1  0.00388500  0.74321300  0.49712100  1
  O  O2  1  0.49609200  0.74708700  0.00197300  1
  O  O3  1  0.49609200  0.74708700  0.49802700  1
  O  O4  1  0.00388500  0.25678700  0.99712100  1
  O  O5  1  0.00388500  0.25678700  0.50287900  1
  O  O6  1  0.49609200  0.25291300  0.99802700  1
  O  O7  1  0.49609200  0.25291300  0.50197300  1
  O  O8  1  0.74237200  0.00000000  0.00000000  1
  O  O9  1  0.74237200  0.00000000  0.50000000  1
  O  O10  1  0.25671400  0.00000000  0.00000000  1
  O  O11  1  0.25671400  0.00000000  0.50000000  1
  O  O12  1  0.74812500  0.50000000  0.00000000  1
  O  O13  1  0.74812500  0.50000000  0.50000000  1
  O  O14  1  0.25232300  0.50000000  0.00000000  1
  O  O15  1  0.25232300  0.50000000  0.50000000  1
  O  O16  1  0.00606700  0.99575600  0.25000000  1
  O  O17  1  0.00606700  0.00424400  0.75000000  1
  O  O18  1  0.49607700  0.99675700  0.25000000  1
  O  O19  1  0.49607700  0.00324300  0.75000000  1
  O  O20  1  0.00456900  0.50188700  0.25000000  1
  O  O21  1  0.00456900  0.49811300  0.75000000  1
  O  O22  1  0.49686600  0.50082000  0.25000000  1
  O  O23  1  0.49686600  0.49918000  0.75000000  1
loop_
_geom_bond_atom_site_label_1
_geom_bond_atom_site_label_2
_geom_bond_distance
_geom_bond_site_symmetry_2
Ca0 O16 2.654810 1_555
Ca0 O20 2.686295 1_555
Ca0 O0 2.687825 1_555
Ca0 O1 2.687825 1_555
Ca0 O18 2.690105 1_555
Ca0 O2 2.710266 1_555
Ca0 O3 2.710266 1_555
Ca0 O22 2.717961 1_555
Ca0 O10 2.729543 1_565
Ca0 O11 2.729543 1_565
Ca0 O14 2.739270 1_555
Ca0 O15 2.739270 1_555
Ca1 O17 2.654810 1_555
Ca1 O21 2.686295 1_555
Ca1 O5 2.687825 1_555
Ca1 O4 2.687825 1_555
Ca1 O19 2.690105 1_555
Ca1 O6 2.710266 1_555
Ca1 O7 2.710266 1_555
Ca1 O23 2.717961 1_555
Ca1 O11 2.729543 1_555
Ca1 O10 2.729543 1_556
Ca1 O14 2.739270 1_556
Ca1 O15 2.739270 1_555
Co0 O10 1.860645 1_555
Co0 O8 1.881743 1_555
Co0 O19 1.938974 1_554
Co0 O18 1.938974 1_545
Co0 O6 1.950190 1_554
Co0 O2 1.950190 1_545
Co1 O11 1.860645 1_555
Co1 O9 1.881743 1_555
Co1 O19 1.938974 1_555
Co1 O18 1.938974 1_545
Co1 O7 1.950190 1_555
Co1 O3 1.950190 1_545
Co2 O4 1.875500 1_554
Co2 O0 1.875500 1_555
Co2 O14 1.933226 1_555
Co2 O20 1.938950 1_555
Co2 O21 1.938950 1_554
Co2 O12 1.952028 1_455
Co3 O1 1.875500 1_555
Co3 O5 1.875500 1_555
Co3 O15 1.933226 1_555
Co3 O20 1.938950 1_555
Co3 O21 1.938950 1_555
Co3 O13 1.952028 1_455
Co4 O14 1.895706 1_555
Co4 O2 1.905283 1_555
Co4 O6 1.905283 1_554
Co4 O12 1.924850 1_555
Co4 O22 1.938789 1_555
Co4 O23 1.938789 1_554
Co5 O15 1.895706 1_555
Co5 O3 1.905283 1_555
Co5 O7 1.905283 1_555
Co5 O13 1.924850 1_555
Co5 O22 1.938789 1_555
Co5 O23 1.938789 1_555
Cu0 O17 1.939598 1_654
Cu0 O16 1.939598 1_645
Cu0 O10 1.978736 1_655
Cu0 O4 1.980295 1_654
Cu0 O0 1.980295 1_645
Cu0 O8 1.984685 1_555
Cu1 O17 1.939598 1_655
Cu1 O16 1.939598 1_645
Cu1 O11 1.978736 1_655
Cu1 O5 1.980295 1_655
Cu1 O1 1.980295 1_645
Cu1 O9 1.984685 1_555
O0 Sr2 2.725529 1_554
O0 Sr0 2.734959 1_455
O0 Sr1 2.767664 1_454
O1 Sr2 2.725529 1_555
O1 Sr0 2.734959 1_455
O1 Sr1 2.767664 1_455
O2 Sr2 2.726305 1_554
O2 Sr0 2.748035 1_555
O2 Sr1 2.768348 1_554
O3 Sr2 2.726305 1_555
O3 Sr0 2.748035 1_555
O3 Sr1 2.768348 1_555
O4 Sr5 2.725529 1_556
O4 Sr4 2.734959 1_455
O4 Sr3 2.767664 1_456
O5 Sr5 2.725529 1_555
O5 Sr4 2.734959 1_455
O5 Sr3 2.767664 1_455
O6 Sr5 2.726305 1_556
O6 Sr4 2.748035 1_555
O6 Sr3 2.768348 1_556
O7 Sr5 2.726305 1_555
O7 Sr4 2.748035 1_555
O7 Sr3 2.768348 1_555
O8 Sr3 2.731471 1_555
O8 Sr1 2.731471 1_544
O8 Sr4 2.732586 1_554
O8 Sr0 2.732586 1_545
O9 Sr3 2.731471 1_555
O9 Sr1 2.731471 1_545
O9 Sr4 2.732586 1_555
O9 Sr0 2.732586 1_545
O10 Sr2 2.730180 1_544
O10 Sr5 2.730180 1_555
O11 Sr2 2.730180 1_545
O11 Sr5 2.730180 1_555
O12 Sr4 2.736125 1_554
O12 Sr0 2.736125 1_555
O12 Sr3 2.737190 1_555
O12 Sr1 2.737190 1_554
O13 Sr4 2.736125 1_555
O13 Sr0 2.736125 1_555
O13 Sr3 2.737190 1_555
O13 Sr1 2.737190 1_555
O14 Sr5 2.738367 1_555
O14 Sr2 2.738367 1_554
O15 Sr5 2.738367 1_555
O15 Sr2 2.738367 1_555
O16 Sr5 2.708273 1_565
O16 Sr0 2.729353 1_455
O16 Sr3 2.775250 1_465
O17 Sr2 2.708273 1_545
O17 Sr4 2.729353 1_455
O17 Sr1 2.775250 1_445
O18 Sr5 2.720639 1_565
O18 Sr0 2.731362 1_555
O18 Sr3 2.764092 1_565
O19 Sr2 2.720639 1_545
O19 Sr4 2.731362 1_555
O19 Sr1 2.764092 1_545
O20 Sr5 2.712059 1_555
O20 Sr0 2.737906 1_455
O20 Sr3 2.760633 1_455
O21 Sr2 2.712059 1_555
O21 Sr4 2.737906 1_455
O21 Sr1 2.760633 1_455
O22 Sr5 2.720339 1_555
O22 Sr0 2.744246 1_555
O22 Sr3 2.752993 1_555
O23 Sr2 2.720339 1_555
O23 Sr4 2.744246 1_555
O23 Sr1 2.752993 1_555
