# generated using pymatgen
data_GdAlGe
_symmetry_space_group_name_H-M   'P 1'
_cell_length_a   7.92431465
_cell_length_b   7.92431465
_cell_length_c   7.92431465
_cell_angle_alpha   149.30039669
_cell_angle_beta   149.30039669
_cell_angle_gamma   43.96932422
_symmetry_Int_Tables_number   1
_chemical_formula_structural   GdAlGe
_chemical_formula_sum   'Gd2 Al2 Ge2'
_cell_volume   129.33112479
_cell_formula_units_Z   2
loop_
 _symmetry_equiv_pos_site_id
 _symmetry_equiv_pos_as_xyz
  1  'x, y, z'
loop_
 _atom_site_type_symbol
 _atom_site_label
 _atom_site_symmetry_multiplicity
 _atom_site_fract_x
 _atom_site_fract_y
 _atom_site_fract_z
 _atom_site_occupancy
  Gd  Gd0  1  0.58139800  0.58139800  0.00000000  1
  Gd  Gd1  1  0.33139800  0.83139800  0.50000000  1
  Al  Al0  1  0.16530800  0.16530800  0.00000000  1
  Al  Al1  1  0.91530800  0.41530800  0.50000000  1
  Ge  Ge0  1  0.00029400  0.00029400  0.00000000  1
  Ge  Ge1  1  0.75029400  0.25029400  0.50000000  1
loop_
_geom_bond_atom_site_label_1
_geom_bond_atom_site_label_2
_geom_bond_distance
_geom_bond_site_symmetry_2
Gd0 Ge0 3.197029 1_666
Gd0 Ge0 3.197029 1_554
Gd0 Ge0 3.197029 1_565
Gd0 Ge0 3.197029 1_655
Gd0 Ge1 3.249786 1_565
Gd0 Ge1 3.249786 1_554
Gd1 Ge1 3.197029 1_566
Gd1 Ge1 3.197029 1_555
Gd1 Ge1 3.197029 1_454
Gd1 Ge1 3.197029 1_465
Gd1 Ge0 3.249786 1_666
Gd1 Ge0 3.249786 1_565
Al0 Ge0 2.425076 1_555
Al0 Ge1 2.441329 1_555
Al0 Ge1 2.441329 1_454
Al0 Gd0 3.212631 1_444
Al0 Gd0 3.212631 1_455
Al0 Gd0 3.212631 1_556
Al0 Gd0 3.212631 1_545
Al0 Gd1 3.218400 1_555
Al0 Gd1 3.218400 1_544
Al1 Ge1 2.425076 1_555
Al1 Ge0 2.441329 1_655
Al1 Ge0 2.441329 1_666
Al1 Gd1 3.212631 1_656
Al1 Gd1 3.212631 1_555
Al1 Gd1 3.212631 1_544
Al1 Gd1 3.212631 1_645
Al1 Gd0 3.218400 1_555
Al1 Gd0 3.218400 1_656
