# generated using pymatgen
data_CeH12N5F4
_symmetry_space_group_name_H-M   'P 1'
_cell_length_a   9.50462600
_cell_length_b   9.50462600
_cell_length_c   11.26895700
_cell_angle_alpha   90.00000000
_cell_angle_beta   90.00000000
_cell_angle_gamma   90.00000000
_symmetry_Int_Tables_number   1
_chemical_formula_structural   CeH12N5F4
_chemical_formula_sum   'Ce4 H48 N20 F16'
_cell_volume   1018.01408411
_cell_formula_units_Z   4
loop_
 _symmetry_equiv_pos_site_id
 _symmetry_equiv_pos_as_xyz
  1  'x, y, z'
loop_
 _atom_site_type_symbol
 _atom_site_label
 _atom_site_symmetry_multiplicity
 _atom_site_fract_x
 _atom_site_fract_y
 _atom_site_fract_z
 _atom_site_occupancy
  Ce  Ce0  1  0.75000000  0.25000000  0.25000000  1
  Ce  Ce1  1  0.75000000  0.25000000  0.75000000  1
  Ce  Ce2  1  0.25000000  0.75000000  0.75000000  1
  Ce  Ce3  1  0.25000000  0.75000000  0.25000000  1
  H  H0  1  0.53695000  0.17647400  0.45042500  1
  H  H1  1  0.96305000  0.17647400  0.95042500  1
  H  H2  1  0.53695000  0.32352600  0.95042500  1
  H  H3  1  0.96305000  0.32352600  0.45042500  1
  H  H4  1  0.17647400  0.53695000  0.95042500  1
  H  H5  1  0.32352600  0.53695000  0.45042500  1
  H  H6  1  0.17647400  0.96305000  0.45042500  1
  H  H7  1  0.32352600  0.96305000  0.95042500  1
  H  H8  1  0.46305000  0.82352600  0.54957500  1
  H  H9  1  0.03695000  0.82352600  0.04957500  1
  H  H10  1  0.46305000  0.67647400  0.04957500  1
  H  H11  1  0.03695000  0.67647400  0.54957500  1
  H  H12  1  0.82352600  0.46305000  0.04957500  1
  H  H13  1  0.67647400  0.46305000  0.54957500  1
  H  H14  1  0.82352600  0.03695000  0.54957500  1
  H  H15  1  0.67647400  0.03695000  0.04957500  1
  H  H16  1  0.50109100  0.04545400  0.35777000  1
  H  H17  1  0.99890900  0.04545400  0.85777000  1
  H  H18  1  0.50109100  0.45454600  0.85777000  1
  H  H19  1  0.99890900  0.45454600  0.35777000  1
  H  H20  1  0.04545400  0.50109100  0.85777000  1
  H  H21  1  0.45454600  0.50109100  0.35777000  1
  H  H22  1  0.04545400  0.99890900  0.35777000  1
  H  H23  1  0.45454600  0.99890900  0.85777000  1
  H  H24  1  0.49890900  0.95454600  0.64223000  1
  H  H25  1  0.00109100  0.95454600  0.14223000  1
  H  H26  1  0.49890900  0.54545400  0.14223000  1
  H  H27  1  0.00109100  0.54545400  0.64223000  1
  H  H28  1  0.95454600  0.49890900  0.14223000  1
  H  H29  1  0.54545400  0.49890900  0.64223000  1
  H  H30  1  0.95454600  0.00109100  0.64223000  1
  H  H31  1  0.54545400  0.00109100  0.14223000  1
  H  H32  1  0.44368200  0.20685600  0.32870800  1
  H  H33  1  0.05631800  0.20685600  0.82870800  1
  H  H34  1  0.44368200  0.29314400  0.82870800  1
  H  H35  1  0.05631800  0.29314400  0.32870800  1
  H  H36  1  0.20685600  0.44368200  0.82870800  1
  H  H37  1  0.29314400  0.44368200  0.32870800  1
  H  H38  1  0.20685600  0.05631800  0.32870800  1
  H  H39  1  0.29314400  0.05631800  0.82870800  1
  H  H40  1  0.55631800  0.79314400  0.67129200  1
  H  H41  1  0.94368200  0.79314400  0.17129200  1
  H  H42  1  0.55631800  0.70685600  0.17129200  1
  H  H43  1  0.94368200  0.70685600  0.67129200  1
  H  H44  1  0.79314400  0.55631800  0.17129200  1
  H  H45  1  0.70685600  0.55631800  0.67129200  1
  H  H46  1  0.79314400  0.94368200  0.67129200  1
  H  H47  1  0.70685600  0.94368200  0.17129200  1
  N  N0  1  0.52573400  0.15032500  0.36236100  1
  N  N1  1  0.97426600  0.15032500  0.86236100  1
  N  N2  1  0.52573400  0.34967500  0.86236100  1
  N  N3  1  0.97426600  0.34967500  0.36236100  1
  N  N4  1  0.15032500  0.52573400  0.86236100  1
  N  N5  1  0.34967500  0.52573400  0.36236100  1
  N  N6  1  0.15032500  0.97426600  0.36236100  1
  N  N7  1  0.34967500  0.97426600  0.86236100  1
  N  N8  1  0.47426600  0.84967500  0.63763900  1
  N  N9  1  0.02573400  0.84967500  0.13763900  1
  N  N10  1  0.47426600  0.65032500  0.13763900  1
  N  N11  1  0.02573400  0.65032500  0.63763900  1
  N  N12  1  0.84967500  0.47426600  0.13763900  1
  N  N13  1  0.65032500  0.47426600  0.63763900  1
  N  N14  1  0.84967500  0.02573400  0.63763900  1
  N  N15  1  0.65032500  0.02573400  0.13763900  1
  N  N16  1  0.75000000  0.75000000  0.32603500  1
  N  N17  1  0.75000000  0.75000000  0.82603500  1
  N  N18  1  0.25000000  0.25000000  0.67396500  1
  N  N19  1  0.25000000  0.25000000  0.17396500  1
  F  F0  1  0.67006100  0.41267100  0.36909100  1
  F  F1  1  0.82993900  0.41267100  0.86909100  1
  F  F2  1  0.67006100  0.08732900  0.86909100  1
  F  F3  1  0.82993900  0.08732900  0.36909100  1
  F  F4  1  0.41267100  0.67006100  0.86909100  1
  F  F5  1  0.08732900  0.67006100  0.36909100  1
  F  F6  1  0.41267100  0.82993900  0.36909100  1
  F  F7  1  0.08732900  0.82993900  0.86909100  1
  F  F8  1  0.32993900  0.58732900  0.63090900  1
  F  F9  1  0.17006100  0.58732900  0.13090900  1
  F  F10  1  0.32993900  0.91267100  0.13090900  1
  F  F11  1  0.17006100  0.91267100  0.63090900  1
  F  F12  1  0.58732900  0.32993900  0.13090900  1
  F  F13  1  0.91267100  0.32993900  0.63090900  1
  F  F14  1  0.58732900  0.17006100  0.63090900  1
  F  F15  1  0.91267100  0.17006100  0.13090900  1
loop_
_geom_bond_atom_site_label_1
_geom_bond_atom_site_label_2
_geom_bond_distance
_geom_bond_site_symmetry_2
Ce0 F3 2.183767 1_555
Ce0 F15 2.183767 1_555
Ce0 F12 2.183767 1_555
Ce0 F0 2.183767 1_555
Ce0 N3 2.654115 1_555
Ce0 N15 2.654115 1_555
Ce0 N0 2.654115 1_555
Ce0 N12 2.654115 1_555
Ce1 F2 2.183767 1_555
Ce1 F13 2.183767 1_555
Ce1 F1 2.183767 1_555
Ce1 F14 2.183767 1_555
Ce1 N1 2.654115 1_555
Ce1 N14 2.654115 1_555
Ce1 N2 2.654115 1_555
Ce1 N13 2.654115 1_555
Ce2 F11 2.183767 1_555
Ce2 F8 2.183767 1_555
Ce2 F4 2.183767 1_555
Ce2 F7 2.183767 1_555
Ce2 N7 2.654115 1_555
Ce2 N11 2.654115 1_555
Ce2 N4 2.654115 1_555
Ce2 N8 2.654115 1_555
Ce3 F5 2.183767 1_555
Ce3 F9 2.183767 1_555
Ce3 F6 2.183767 1_555
Ce3 F10 2.183767 1_555
Ce3 N6 2.654115 1_555
Ce3 N5 2.654115 1_555
Ce3 N9 2.654115 1_555
Ce3 N10 2.654115 1_555
H0 N0 1.028577 1_555
H1 N1 1.028577 1_555
H2 N2 1.028577 1_555
H3 N3 1.028577 1_555
H4 N4 1.028577 1_555
H5 N5 1.028577 1_555
H6 N6 1.028577 1_555
H7 N7 1.028577 1_555
H8 N8 1.028577 1_555
H9 N9 1.028577 1_555
H10 N10 1.028577 1_555
H11 N11 1.028577 1_555
H12 N12 1.028577 1_555
H13 N13 1.028577 1_555
H14 N14 1.028577 1_555
H15 N15 1.028577 1_555
H16 N0 1.025215 1_555
H17 N1 1.025215 1_555
H18 N2 1.025215 1_555
H19 N3 1.025215 1_555
H20 N4 1.025215 1_555
H21 N5 1.025215 1_555
H22 N6 1.025215 1_555
H23 N7 1.025215 1_555
H24 N8 1.025215 1_555
H25 N9 1.025215 1_555
H26 N10 1.025215 1_555
H27 N11 1.025215 1_555
H28 N12 1.025215 1_555
H29 N13 1.025215 1_555
H30 N14 1.025215 1_555
H31 N15 1.025215 1_555
H32 N0 1.020156 1_555
H33 N1 1.020156 1_455
H34 N2 1.020156 1_555
H35 N3 1.020156 1_455
H36 N4 1.020156 1_555
H37 N5 1.020156 1_555
H38 N6 1.020156 1_545
H39 N7 1.020156 1_545
H40 N8 1.020156 1_555
H41 N9 1.020156 1_655
H42 N10 1.020156 1_555
H43 N11 1.020156 1_655
H44 N12 1.020156 1_555
H45 N13 1.020156 1_555
H46 N14 1.020156 1_565
H47 N15 1.020156 1_565
