# generated using pymatgen
data_Li3Ce2(BO3)3
_symmetry_space_group_name_H-M   'P 1'
_cell_length_a   5.88468254
_cell_length_b   8.93594504
_cell_length_c   14.33382262
_cell_angle_alpha   90.00000000
_cell_angle_beta   90.00000000
_cell_angle_gamma   103.75261100
_symmetry_Int_Tables_number   1
_chemical_formula_structural   Li3Ce2(BO3)3
_chemical_formula_sum   'Li12 Ce8 B12 O36'
_cell_volume   732.13793325
_cell_formula_units_Z   4
loop_
 _symmetry_equiv_pos_site_id
 _symmetry_equiv_pos_as_xyz
  1  'x, y, z'
loop_
 _atom_site_type_symbol
 _atom_site_label
 _atom_site_symmetry_multiplicity
 _atom_site_fract_x
 _atom_site_fract_y
 _atom_site_fract_z
 _atom_site_occupancy
  Li  Li0  1  0.07691570  0.98181388  0.66502666  1
  Li  Li1  1  0.92308430  0.01818612  0.33497334  1
  Li  Li2  1  0.42308430  0.51818612  0.16502666  1
  Li  Li3  1  0.57691570  0.48181388  0.83497334  1
  Li  Li4  1  0.80039624  0.70772565  0.21792228  1
  Li  Li5  1  0.19960376  0.29227435  0.78207772  1
  Li  Li6  1  0.69960376  0.79227435  0.71792228  1
  Li  Li7  1  0.30039624  0.20772565  0.28207772  1
  Li  Li8  1  0.14460003  0.70799642  0.10204850  1
  Li  Li9  1  0.85539997  0.29200358  0.89795150  1
  Li  Li10  1  0.35539997  0.79200358  0.60204850  1
  Li  Li11  1  0.64460003  0.20799642  0.39795150  1
  Ce  Ce0  1  0.36434538  0.80787282  0.33480676  1
  Ce  Ce1  1  0.63565462  0.19212718  0.66519324  1
  Ce  Ce2  1  0.13565462  0.69212718  0.83480676  1
  Ce  Ce3  1  0.86434538  0.30787282  0.16519324  1
  Ce  Ce4  1  0.81180242  0.66019806  0.49550320  1
  Ce  Ce5  1  0.18819758  0.33980194  0.50449680  1
  Ce  Ce6  1  0.68819758  0.83980194  0.99550320  1
  Ce  Ce7  1  0.31180242  0.16019806  0.00449680  1
  B  B0  1  0.74978217  0.51393208  0.01549232  1
  B  B1  1  0.25021783  0.48606792  0.98450768  1
  B  B2  1  0.75021783  0.98606792  0.51549232  1
  B  B3  1  0.24978217  0.01393208  0.48450768  1
  B  B4  1  0.08430293  0.97231817  0.16390797  1
  B  B5  1  0.91569707  0.02768183  0.83609203  1
  B  B6  1  0.41569707  0.52768183  0.66390797  1
  B  B7  1  0.58430293  0.47231817  0.33609203  1
  B  B8  1  0.59086813  0.97918185  0.17559211  1
  B  B9  1  0.40913187  0.02081815  0.82440789  1
  B  B10  1  0.90913187  0.52081815  0.67559211  1
  B  B11  1  0.09086813  0.47918185  0.32440789  1
  O  O0  1  0.77198873  0.58491997  0.10145006  1
  O  O1  1  0.22801127  0.41508003  0.89854994  1
  O  O2  1  0.72801127  0.91508003  0.60145006  1
  O  O3  1  0.27198873  0.08491997  0.39854994  1
  O  O4  1  0.11046968  0.56601457  0.40576283  1
  O  O5  1  0.88953032  0.43398543  0.59423717  1
  O  O6  1  0.38953032  0.93398543  0.90576283  1
  O  O7  1  0.61046968  0.06601457  0.09423717  1
  O  O8  1  0.06008073  0.88242396  0.24319089  1
  O  O9  1  0.93991927  0.11757604  0.75680911  1
  O  O10  1  0.43991927  0.61757604  0.74319089  1
  O  O11  1  0.56008073  0.38242396  0.25680911  1
  O  O12  1  0.71548941  0.89813954  0.43474071  1
  O  O13  1  0.28451059  0.10186046  0.56525929  1
  O  O14  1  0.78451059  0.60186046  0.93474071  1
  O  O15  1  0.21548941  0.39813954  0.06525929  1
  O  O16  1  0.06621475  0.90698986  0.07568186  1
  O  O17  1  0.93378525  0.09301014  0.92431814  1
  O  O18  1  0.43378525  0.59301014  0.57568186  1
  O  O19  1  0.56621475  0.40698986  0.42431814  1
  O  O20  1  0.53072869  0.81989527  0.16867115  1
  O  O21  1  0.46927131  0.18010473  0.83132885  1
  O  O22  1  0.96927131  0.68010473  0.66867115  1
  O  O23  1  0.03072869  0.31989527  0.33132885  1
  O  O24  1  0.19589717  0.85446924  0.49054705  1
  O  O25  1  0.80410283  0.14553076  0.50945295  1
  O  O26  1  0.30410283  0.64553076  0.99054705  1
  O  O27  1  0.69589717  0.35446924  0.00945295  1
  O  O28  1  0.13723792  0.55192977  0.23903099  1
  O  O29  1  0.86276208  0.44807023  0.76096901  1
  O  O30  1  0.36276208  0.94807023  0.73903099  1
  O  O31  1  0.63723792  0.05192977  0.26096901  1
  O  O32  1  0.63228068  0.63146421  0.33151816  1
  O  O33  1  0.36771932  0.36853579  0.66848184  1
  O  O34  1  0.86771932  0.86853579  0.83151816  1
  O  O35  1  0.13228068  0.13146421  0.16848184  1
loop_
_geom_bond_atom_site_label_1
_geom_bond_atom_site_label_2
_geom_bond_distance
_geom_bond_site_symmetry_2
Li0 O13 2.016206 1_565
Li0 O30 2.070462 1_555
Li0 O9 2.077857 1_465
Li0 O2 2.195341 1_455
Li1 O12 2.016206 1_545
Li1 O31 2.070462 1_555
Li1 O8 2.077857 1_645
Li1 O3 2.195341 1_655
Li2 O15 2.016206 1_555
Li2 O28 2.070462 1_555
Li2 O11 2.077857 1_555
Li2 O0 2.195341 1_555
Li3 O14 2.016206 1_555
Li3 O29 2.070462 1_555
Li3 O10 2.077857 1_555
Li3 O1 2.195341 1_555
Li4 O8 1.941447 1_655
Li4 O32 1.942633 1_555
Li4 O0 1.982973 1_555
Li4 O20 2.185777 1_555
Li5 O9 1.941447 1_455
Li5 O33 1.942633 1_555
Li5 O1 1.982973 1_555
Li5 O21 2.185777 1_555
Li6 O10 1.941447 1_555
Li6 O34 1.942633 1_555
Li6 O2 1.982973 1_555
Li6 O22 2.185777 1_555
Li7 O11 1.941447 1_555
Li7 O35 1.942633 1_555
Li7 O3 1.982973 1_555
Li7 O23 2.185777 1_555
Li8 O16 1.976758 1_555
Li8 O26 1.999018 1_554
Li8 O0 2.207030 1_455
Li8 O28 2.402776 1_555
Li8 O20 2.448388 1_555
Li9 O17 1.976758 1_555
Li9 O27 1.999018 1_556
Li9 O1 2.207030 1_655
Li9 O29 2.402776 1_555
Li9 O21 2.448388 1_555
Li10 O18 1.976758 1_555
Li10 O24 1.999018 1_555
Li10 O2 2.207030 1_555
Li10 O30 2.402776 1_555
Li10 O22 2.448388 1_455
Li11 O19 1.976758 1_555
Li11 O25 1.999018 1_555
Li11 O3 2.207030 1_555
Li11 O31 2.402776 1_555
Li11 O23 2.448388 1_655
Ce0 O8 2.437486 1_555
Ce0 O32 2.480921 1_555
Ce0 O12 2.485942 1_555
Ce0 O24 2.517067 1_555
Ce0 O4 2.530246 1_555
Ce0 O20 2.567306 1_555
Ce0 O31 2.605780 1_565
Ce0 O28 2.729155 1_555
Ce0 O3 2.810501 1_565
Ce1 O9 2.437486 1_555
Ce1 O33 2.480921 1_555
Ce1 O13 2.485942 1_555
Ce1 O25 2.517067 1_555
Ce1 O5 2.530246 1_555
Ce1 O21 2.567306 1_555
Ce1 O30 2.605780 1_545
Ce1 O29 2.729155 1_555
Ce1 O2 2.810501 1_545
Ce2 O10 2.437486 1_555
Ce2 O34 2.480921 1_455
Ce2 O14 2.485942 1_455
Ce2 O26 2.517067 1_555
Ce2 O6 2.530246 1_555
Ce2 O22 2.567306 1_455
Ce2 O29 2.605780 1_455
Ce2 O30 2.729155 1_555
Ce2 O1 2.810501 1_555
Ce3 O11 2.437486 1_555
Ce3 O35 2.480921 1_655
Ce3 O15 2.485942 1_655
Ce3 O27 2.517067 1_555
Ce3 O7 2.530246 1_555
Ce3 O23 2.567306 1_655
Ce3 O28 2.605780 1_655
Ce3 O31 2.729155 1_555
Ce3 O0 2.810501 1_555
Ce4 O18 2.448411 1_555
Ce4 O4 2.480982 1_655
Ce4 O12 2.484680 1_555
Ce4 O24 2.502389 1_655
Ce4 O32 2.564762 1_555
Ce4 O19 2.587391 1_555
Ce4 O5 2.595742 1_555
Ce4 O22 2.640657 1_555
Ce4 O2 2.875905 1_555
Ce5 O19 2.448411 1_555
Ce5 O5 2.480982 1_455
Ce5 O13 2.484680 1_555
Ce5 O25 2.502389 1_455
Ce5 O33 2.564762 1_555
Ce5 O18 2.587391 1_555
Ce5 O4 2.595742 1_555
Ce5 O23 2.640657 1_555
Ce5 O3 2.875905 1_555
Ce6 O16 2.448411 1_656
Ce6 O6 2.480982 1_555
Ce6 O14 2.484680 1_555
Ce6 O26 2.502389 1_555
Ce6 O34 2.564762 1_555
Ce6 O17 2.587391 1_565
Ce6 O7 2.595742 1_566
Ce6 O20 2.640657 1_556
Ce6 O0 2.875905 1_556
Ce7 O17 2.448411 1_454
Ce7 O7 2.480982 1_555
Ce7 O15 2.484680 1_555
Ce7 O27 2.502389 1_555
Ce7 O35 2.564762 1_555
Ce7 O16 2.587391 1_545
Ce7 O6 2.595742 1_544
Ce7 O21 2.640657 1_554
Ce7 O1 2.875905 1_554
B0 O0 1.377728 1_555
B0 O14 1.386556 1_554
B0 O27 1.386973 1_555
B1 O1 1.377728 1_555
B1 O15 1.386556 1_556
B1 O26 1.386973 1_555
B2 O2 1.377728 1_555
B2 O12 1.386556 1_555
B2 O25 1.386973 1_565
B3 O3 1.377728 1_555
B3 O13 1.386556 1_555
B3 O24 1.386973 1_545
B4 O8 1.379354 1_555
B4 O35 1.384028 1_565
B4 O16 1.386301 1_555
B5 O9 1.379354 1_555
B5 O34 1.384028 1_545
B5 O17 1.386301 1_555
B6 O10 1.379354 1_555
B6 O33 1.384028 1_555
B6 O18 1.386301 1_555
B7 O11 1.379354 1_555
B7 O32 1.384028 1_555
B7 O19 1.386301 1_555
B8 O31 1.382151 1_565
B8 O20 1.386211 1_555
B8 O7 1.390207 1_565
B9 O30 1.382151 1_545
B9 O21 1.386211 1_555
B9 O6 1.390207 1_545
B10 O29 1.382151 1_555
B10 O22 1.386211 1_555
B10 O5 1.390207 1_555
B11 O28 1.382151 1_555
B11 O23 1.386211 1_555
B11 O4 1.390207 1_555
