# generated using pymatgen
data_GdErCo4
_symmetry_space_group_name_H-M   'P 1'
_cell_length_a   5.05733347
_cell_length_b   5.05720213
_cell_length_c   5.05728867
_cell_angle_alpha   59.99912169
_cell_angle_beta   59.99858378
_cell_angle_gamma   60.00208437
_symmetry_Int_Tables_number   1
_chemical_formula_structural   GdErCo4
_chemical_formula_sum   'Gd1 Er1 Co4'
_cell_volume   91.46058153
_cell_formula_units_Z   1
loop_
 _symmetry_equiv_pos_site_id
 _symmetry_equiv_pos_as_xyz
  1  'x, y, z'
loop_
 _atom_site_type_symbol
 _atom_site_label
 _atom_site_symmetry_multiplicity
 _atom_site_fract_x
 _atom_site_fract_y
 _atom_site_fract_z
 _atom_site_occupancy
  Gd  Gd0  1  0.49998046  0.50000038  0.50003487  1
  Er  Er0  1  0.24999516  0.24999742  0.24998350  1
  Co  Co0  1  0.87520285  0.37441784  0.87518885  1
  Co  Co1  1  0.87519358  0.87519220  0.87518875  1
  Co  Co2  1  0.87520935  0.87519357  0.37440528  1
  Co  Co3  1  0.37441660  0.87519759  0.87519775  1
loop_
_geom_bond_atom_site_label_1
_geom_bond_atom_site_label_2
_geom_bond_distance
_geom_bond_site_symmetry_2
Er0 Gd0 3.096662 1_554
Er0 Gd0 3.096918 1_545
Er0 Gd0 3.097055 1_455
Er0 Gd0 3.097101 1_555
Co0 Co2 2.524646 1_546
Co0 Co1 2.524709 1_545
Co0 Co3 2.524754 1_645
Co0 Co1 2.532493 1_555
Co0 Co2 2.532532 1_555
Co0 Co3 2.532674 1_555
Co0 Er0 2.964620 1_656
Co0 Er0 2.964695 1_556
Co0 Er0 2.964709 1_655
Co0 Gd0 2.965346 1_655
Co0 Gd0 2.965519 1_555
Co0 Gd0 2.965665 1_556
Co1 Co2 2.524725 1_556
Co1 Co3 2.524774 1_655
Co1 Co3 2.532560 1_555
Co1 Co2 2.532563 1_555
Co1 Er0 2.964579 1_665
Co1 Er0 2.964696 1_656
Co1 Er0 2.964699 1_566
Co1 Gd0 2.965420 1_655
Co1 Gd0 2.965524 1_565
Co1 Gd0 2.965525 1_556
Co2 Co3 2.524593 1_654
Co2 Co3 2.532610 1_555
Co2 Er0 2.964511 1_665
Co2 Er0 2.964716 1_655
Co2 Er0 2.964873 1_565
Co2 Gd0 2.965496 1_555
Co2 Gd0 2.965567 1_655
Co2 Gd0 2.965642 1_565
Co3 Er0 2.964550 1_566
Co3 Er0 2.964615 1_556
Co3 Er0 2.964778 1_565
Co3 Gd0 2.965364 1_565
Co3 Gd0 2.965426 1_555
Co3 Gd0 2.965615 1_556
