# generated using pymatgen
data_Li2FeF4
_symmetry_space_group_name_H-M   'P 1'
_cell_length_a   8.62819800
_cell_length_b   8.62819800
_cell_length_c   6.51544800
_cell_angle_alpha   90.00000000
_cell_angle_beta   90.00000000
_cell_angle_gamma   90.00000000
_symmetry_Int_Tables_number   1
_chemical_formula_structural   Li2FeF4
_chemical_formula_sum   'Li8 Fe4 F16'
_cell_volume   485.04774346
_cell_formula_units_Z   4
loop_
 _symmetry_equiv_pos_site_id
 _symmetry_equiv_pos_as_xyz
  1  'x, y, z'
loop_
 _atom_site_type_symbol
 _atom_site_label
 _atom_site_symmetry_multiplicity
 _atom_site_fract_x
 _atom_site_fract_y
 _atom_site_fract_z
 _atom_site_occupancy
  Li  Li0  1  0.77320200  0.25150500  0.50000000  1
  Li  Li1  1  0.25150500  0.22679800  0.00000000  1
  Li  Li2  1  0.75150500  0.27320200  0.00000000  1
  Li  Li3  1  0.27320200  0.24849500  0.50000000  1
  Li  Li4  1  0.72679800  0.75150500  0.50000000  1
  Li  Li5  1  0.24849500  0.72679800  0.00000000  1
  Li  Li6  1  0.74849500  0.77320200  0.00000000  1
  Li  Li7  1  0.22679800  0.74849500  0.50000000  1
  Fe  Fe0  1  0.50000000  0.00000000  0.25000000  1
  Fe  Fe1  1  0.50000000  0.00000000  0.75000000  1
  Fe  Fe2  1  0.00000000  0.50000000  0.75000000  1
  Fe  Fe3  1  0.00000000  0.50000000  0.25000000  1
  F  F0  1  0.61409200  0.11249500  0.00000000  1
  F  F1  1  0.61249500  0.11409200  0.50000000  1
  F  F2  1  0.33195500  0.16804500  0.25000000  1
  F  F3  1  0.33195500  0.16804500  0.75000000  1
  F  F4  1  0.83195500  0.33195500  0.25000000  1
  F  F5  1  0.83195500  0.33195500  0.75000000  1
  F  F6  1  0.11249500  0.38590800  0.50000000  1
  F  F7  1  0.11409200  0.38750500  0.00000000  1
  F  F8  1  0.88590800  0.61249500  0.00000000  1
  F  F9  1  0.88750500  0.61409200  0.50000000  1
  F  F10  1  0.16804500  0.66804500  0.25000000  1
  F  F11  1  0.16804500  0.66804500  0.75000000  1
  F  F12  1  0.66804500  0.83195500  0.25000000  1
  F  F13  1  0.66804500  0.83195500  0.75000000  1
  F  F14  1  0.38750500  0.88590800  0.50000000  1
  F  F15  1  0.38590800  0.88750500  0.00000000  1
loop_
_geom_bond_atom_site_label_1
_geom_bond_atom_site_label_2
_geom_bond_distance
_geom_bond_site_symmetry_2
F0 Li2 1.824391 1_555
F0 Fe0 2.136439 1_555
F0 Fe1 2.136439 1_554
F1 Li0 1.824391 1_555
F1 Fe0 2.136439 1_555
F1 Fe1 2.136439 1_555
F2 Li3 1.841738 1_555
F2 Li1 1.841738 1_555
F2 Fe0 2.050504 1_555
F3 Li3 1.841738 1_555
F3 Li1 1.841738 1_556
F3 Fe1 2.050504 1_555
F4 Li0 1.841738 1_555
F4 Li2 1.841738 1_555
F4 Fe3 2.050504 1_655
F5 Li2 1.841738 1_556
F5 Li0 1.841738 1_555
F5 Fe2 2.050504 1_655
F6 Li3 1.824391 1_555
F6 Fe3 2.136439 1_555
F6 Fe2 2.136439 1_555
F7 Li1 1.824391 1_555
F7 Fe3 2.136439 1_555
F7 Fe2 2.136439 1_554
F8 Li6 1.824391 1_555
F8 Fe2 2.136439 1_654
F8 Fe3 2.136439 1_655
F9 Li4 1.824391 1_555
F9 Fe2 2.136439 1_655
F9 Fe3 2.136439 1_655
F10 Li5 1.841738 1_555
F10 Li7 1.841738 1_555
F10 Fe3 2.050504 1_555
F11 Li5 1.841738 1_556
F11 Li7 1.841738 1_555
F11 Fe2 2.050504 1_555
F12 Li4 1.841738 1_555
F12 Li6 1.841738 1_555
F12 Fe0 2.050504 1_565
F13 Li4 1.841738 1_555
F13 Li6 1.841738 1_556
F13 Fe1 2.050504 1_565
F14 Li7 1.824391 1_555
F14 Fe1 2.136439 1_565
F14 Fe0 2.136439 1_565
F15 Li5 1.824391 1_555
F15 Fe1 2.136439 1_564
F15 Fe0 2.136439 1_565
