# generated using pymatgen
data_Zr11Os4
_symmetry_space_group_name_H-M   'P 1'
_cell_length_a   9.53129486
_cell_length_b   9.53129413
_cell_length_c   9.53129704
_cell_angle_alpha   59.99998986
_cell_angle_beta   59.99999239
_cell_angle_gamma   60.00000753
_symmetry_Int_Tables_number   1
_chemical_formula_structural   Zr11Os4
_chemical_formula_sum   'Zr22 Os8'
_cell_volume   612.26685580
_cell_formula_units_Z   2
loop_
 _symmetry_equiv_pos_site_id
 _symmetry_equiv_pos_as_xyz
  1  'x, y, z'
loop_
 _atom_site_type_symbol
 _atom_site_label
 _atom_site_symmetry_multiplicity
 _atom_site_fract_x
 _atom_site_fract_y
 _atom_site_fract_z
 _atom_site_occupancy
  Zr  Zr0  1  0.80011807  0.19988193  0.19988193  1
  Zr  Zr1  1  0.80011807  0.19988193  0.80011807  1
  Zr  Zr2  1  0.80011807  0.80011807  0.19988193  1
  Zr  Zr3  1  0.19988193  0.80011807  0.80011807  1
  Zr  Zr4  1  0.19988193  0.80011807  0.19988193  1
  Zr  Zr5  1  0.19988193  0.19988193  0.80011807  1
  Zr  Zr6  1  0.85024872  0.38325076  0.38325076  1
  Zr  Zr7  1  0.38325076  0.85024872  0.38325076  1
  Zr  Zr8  1  0.38325076  0.38325076  0.85024872  1
  Zr  Zr9  1  0.38325076  0.38325076  0.38325176  1
  Zr  Zr10  1  0.14975128  0.61674924  0.61674924  1
  Zr  Zr11  1  0.61674924  0.14975128  0.61674924  1
  Zr  Zr12  1  0.61674924  0.61674924  0.14975128  1
  Zr  Zr13  1  0.61674924  0.61674924  0.61674824  1
  Zr  Zr14  1  0.51076619  0.16307760  0.16307760  1
  Zr  Zr15  1  0.16307660  0.51076619  0.16307760  1
  Zr  Zr16  1  0.16307760  0.16307760  0.51076619  1
  Zr  Zr17  1  0.16307760  0.16307760  0.16307760  1
  Zr  Zr18  1  0.48923381  0.83692240  0.83692240  1
  Zr  Zr19  1  0.83692340  0.48923381  0.83692240  1
  Zr  Zr20  1  0.83692240  0.83692240  0.48923381  1
  Zr  Zr21  1  0.83692240  0.83692240  0.83692240  1
  Os  Os0  1  0.00000000  -0.00000000  0.00000000  1
  Os  Os1  1  0.50000000  0.50000000  0.50000000  1
  Os  Os2  1  0.50000000  -0.00000000  0.00000000  1
  Os  Os3  1  0.50000000  -0.00000000  0.50000000  1
  Os  Os4  1  0.50000000  0.50000000  0.00000000  1
  Os  Os5  1  0.00000000  0.50000000  0.50000000  1
  Os  Os6  1  0.00000000  0.50000000  0.00000000  1
  Os  Os7  1  0.00000000  -0.00000000  0.50000000  1
loop_
_geom_bond_atom_site_label_1
_geom_bond_atom_site_label_2
_geom_bond_distance
_geom_bond_site_symmetry_2
Zr0 Zr17 3.148017 1_655
Zr0 Zr20 3.148020 1_545
Zr0 Zr19 3.148021 1_554
Zr0 Zr14 3.148027 1_555
Zr0 Zr12 3.325994 1_555
Zr0 Zr11 3.325994 1_555
Zr0 Zr9 3.325998 1_555
Zr0 Zr6 3.326003 1_555
Zr1 Zr21 3.148017 1_545
Zr1 Zr16 3.148021 1_655
Zr1 Zr14 3.148021 1_556
Zr1 Zr19 3.148032 1_555
Zr1 Zr8 3.325994 1_555
Zr1 Zr6 3.325994 1_555
Zr1 Zr13 3.325997 1_555
Zr1 Zr11 3.326003 1_555
Zr2 Zr21 3.148018 1_554
Zr2 Zr20 3.148027 1_555
Zr2 Zr6 3.325993 1_555
Zr2 Zr7 3.325994 1_555
Zr3 Zr8 3.325994 1_555
Zr3 Zr7 3.325994 1_555
Zr4 Zr9 3.325997 1_555
Zr4 Zr7 3.326003 1_555
Zr5 Zr9 3.325989 1_555
Zr5 Zr8 3.326002 1_555
Zr10 Zr19 3.096369 1_455
Zr10 Zr20 3.096378 1_455
Zr10 Zr21 3.096388 1_455
Zr10 Zr9 3.147387 1_555
Zr10 Zr7 3.147406 1_555
Zr10 Zr8 3.147407 1_555
Zr10 Zr5 3.325993 1_555
Zr10 Zr4 3.325994 1_555
Zr10 Zr3 3.326003 1_555
Zr11 Zr18 3.096377 1_545
Zr11 Zr20 3.096378 1_545
Zr11 Zr21 3.096388 1_545
Zr11 Zr9 3.147387 1_555
Zr11 Zr6 3.147406 1_555
Zr11 Zr8 3.147407 1_555
Zr11 Zr5 3.325994 1_555
Zr12 Zr18 3.096378 1_554
Zr12 Zr19 3.096378 1_554
Zr12 Zr21 3.096387 1_554
Zr12 Zr9 3.147392 1_555
Zr12 Zr7 3.147407 1_555
Zr12 Zr6 3.147407 1_555
Zr12 Zr4 3.325994 1_555
Zr12 Zr2 3.326002 1_555
Zr13 Zr20 3.096395 1_555
Zr13 Zr18 3.096402 1_555
Zr13 Zr19 3.096409 1_555
Zr13 Zr7 3.147387 1_555
Zr13 Zr6 3.147387 1_555
Zr13 Zr8 3.147392 1_555
Zr13 Zr2 3.325989 1_555
Zr13 Zr3 3.325998 1_555
Zr14 Zr7 3.096377 1_545
Zr14 Zr8 3.096378 1_554
Zr14 Zr9 3.096402 1_555
Zr14 Zr2 3.148021 1_545
Zr14 Zr16 3.313922 1_555
Zr14 Zr17 3.313922 1_555
Zr14 Zr15 3.313927 1_555
Zr15 Zr6 3.096369 1_455
Zr15 Zr8 3.096378 1_554
Zr15 Zr9 3.096409 1_555
Zr15 Zr2 3.148015 1_455
Zr15 Zr3 3.148021 1_554
Zr15 Zr4 3.148032 1_555
Zr15 Zr17 3.313917 1_555
Zr15 Zr16 3.313922 1_555
Zr16 Zr7 3.096378 1_545
Zr16 Zr6 3.096378 1_455
Zr16 Zr9 3.096395 1_555
Zr16 Zr3 3.148020 1_545
Zr16 Zr5 3.148027 1_555
Zr16 Zr17 3.313923 1_555
Zr17 Zr8 3.096387 1_554
Zr17 Zr7 3.096388 1_545
Zr17 Zr6 3.096388 1_455
Zr17 Zr4 3.148017 1_545
Zr17 Zr5 3.148018 1_554
Zr18 Zr4 3.148021 1_556
Zr18 Zr5 3.148021 1_565
Zr18 Zr3 3.148027 1_555
Zr18 Zr20 3.313922 1_555
Zr18 Zr21 3.313922 1_555
Zr18 Zr19 3.313927 1_555
Zr19 Zr5 3.148015 1_655
Zr19 Zr21 3.313917 1_555
Zr19 Zr20 3.313922 1_555
Zr20 Zr4 3.148021 1_655
Zr20 Zr21 3.313923 1_555
Zr21 Zr3 3.148017 1_655
Os0 Zr2 2.694265 1_445
Os0 Zr5 2.694265 1_554
Os0 Zr1 2.694266 1_454
Os0 Zr3 2.694266 1_544
Os0 Zr4 2.694266 1_545
Os0 Zr0 2.694266 1_455
Os1 Zr9 2.725715 1_555
Os1 Zr13 2.725715 1_555
Os1 Zr11 2.725730 1_555
Os1 Zr7 2.725730 1_555
Os1 Zr10 2.725730 1_555
Os1 Zr6 2.725730 1_555
Os1 Zr12 2.725730 1_555
Os1 Zr8 2.725730 1_555
Os2 Zr14 2.752718 1_555
Os2 Zr18 2.752718 1_544
Os2 Zr17 2.752724 1_555
Os2 Zr21 2.752724 1_544
Os2 Zr12 2.988084 1_545
Os2 Zr8 2.988084 1_554
Os2 Zr11 2.988085 1_554
Os2 Zr7 2.988085 1_545
Os3 Zr20 2.752726 1_545
Os3 Zr16 2.752726 1_555
Os3 Zr18 2.752726 1_545
Os3 Zr14 2.752726 1_555
Os3 Zr7 2.988077 1_545
Os3 Zr11 2.988077 1_555
Os3 Zr13 2.988085 1_545
Os3 Zr9 2.988085 1_555
Os4 Zr18 2.752726 1_554
Os4 Zr14 2.752726 1_555
Os4 Zr15 2.752734 1_555
Os4 Zr19 2.752734 1_554
Os4 Zr8 2.988077 1_554
Os4 Zr12 2.988077 1_555
Os4 Zr13 2.988093 1_554
Os4 Zr9 2.988093 1_555
Os5 Zr20 2.752726 1_455
Os5 Zr16 2.752726 1_555
Os5 Zr19 2.752726 1_455
Os5 Zr15 2.752726 1_555
Os5 Zr6 2.988077 1_455
Os5 Zr10 2.988077 1_555
Os5 Zr9 2.988086 1_555
Os5 Zr13 2.988086 1_455
Os6 Zr15 2.752710 1_555
Os6 Zr19 2.752710 1_454
Os6 Zr21 2.752723 1_454
Os6 Zr17 2.752723 1_555
Os6 Zr8 2.988085 1_554
Os6 Zr12 2.988085 1_455
Os6 Zr6 2.988085 1_455
Os6 Zr10 2.988085 1_554
Os7 Zr16 2.752717 1_555
Os7 Zr20 2.752717 1_445
Os7 Zr21 2.752723 1_445
Os7 Zr17 2.752723 1_555
Os7 Zr10 2.988084 1_545
Os7 Zr6 2.988084 1_455
Os7 Zr11 2.988085 1_455
Os7 Zr7 2.988085 1_545
