# generated using pymatgen
data_Hf(Ni2As)2
_symmetry_space_group_name_H-M   'P 1'
_cell_length_a   3.71988238
_cell_length_b   6.98781224
_cell_length_c   6.98792689
_cell_angle_alpha   90.00294093
_cell_angle_beta   90.00000000
_cell_angle_gamma   90.00000000
_symmetry_Int_Tables_number   1
_chemical_formula_structural   Hf(Ni2As)2
_chemical_formula_sum   'Hf2 Ni8 As4'
_cell_volume   181.64305078
_cell_formula_units_Z   2
loop_
 _symmetry_equiv_pos_site_id
 _symmetry_equiv_pos_as_xyz
  1  'x, y, z'
loop_
 _atom_site_type_symbol
 _atom_site_label
 _atom_site_symmetry_multiplicity
 _atom_site_fract_x
 _atom_site_fract_y
 _atom_site_fract_z
 _atom_site_occupancy
  Hf  Hf0  1  0.00000000  0.50000000  0.50000000  1
  Hf  Hf1  1  0.50000000  -0.00000000  -0.00000000  1
  Ni  Ni0  1  0.50000000  0.15598405  0.59065485  1
  Ni  Ni1  1  0.50000000  0.84401595  0.40934515  1
  Ni  Ni2  1  0.00000000  0.34409995  0.09056338  1
  Ni  Ni3  1  -0.00000000  0.65590005  0.90943662  1
  Ni  Ni4  1  0.50000000  0.59057303  0.15578343  1
  Ni  Ni5  1  0.50000000  0.40942697  0.84421657  1
  Ni  Ni6  1  -0.00000000  0.09064943  0.34393031  1
  Ni  Ni7  1  0.00000000  0.90935057  0.65606969  1
  As  As0  1  0.50000000  0.71643436  0.71643202  1
  As  As1  1  0.50000000  0.28356564  0.28356798  1
  As  As2  1  0.00000000  0.78353606  0.21646332  1
  As  As3  1  0.00000000  0.21646394  0.78353668  1
loop_
_geom_bond_atom_site_label_1
_geom_bond_atom_site_label_2
_geom_bond_distance
_geom_bond_site_symmetry_2
Hf0 Ni6 3.061267 1_555
Hf0 Ni7 3.061267 1_555
Hf0 Ni2 3.061444 1_555
Hf0 Ni3 3.061444 1_555
Hf0 Ni0 3.104782 1_455
Hf0 Ni0 3.104782 1_555
Hf0 Ni1 3.104782 1_555
Hf0 Ni1 3.104782 1_455
Hf0 Ni5 3.105780 1_455
Hf0 Ni5 3.105780 1_555
Hf0 Ni4 3.105780 1_455
Hf0 Ni4 3.105780 1_555
Hf1 Ni4 3.061158 1_545
Hf1 Ni5 3.061158 1_554
Hf1 Ni0 3.061161 1_554
Hf1 Ni1 3.061161 1_545
Hf1 Ni7 3.104289 1_644
Hf1 Ni7 3.104289 1_544
Hf1 Ni6 3.104289 1_555
Hf1 Ni6 3.104289 1_655
Hf1 Ni2 3.105056 1_555
Hf1 Ni2 3.105056 1_655
Hf1 Ni3 3.105056 1_544
Hf1 Ni3 3.105056 1_644
As0 Ni1 2.323766 1_555
As0 Ni5 2.323771 1_555
As0 Ni7 2.335516 1_655
As0 Ni7 2.335516 1_555
As0 Ni3 2.336101 1_555
As0 Ni3 2.336101 1_655
As0 Hf1 2.802232 1_566
As0 Hf0 2.834413 1_555
As0 Hf0 2.834413 1_655
As1 Ni0 2.323766 1_555
As1 Ni4 2.323771 1_555
As1 Ni6 2.335516 1_555
As1 Ni6 2.335516 1_655
As1 Ni2 2.336101 1_655
As1 Ni2 2.336101 1_555
As1 Hf1 2.802232 1_555
As1 Hf0 2.834413 1_655
As1 Hf0 2.834413 1_555
As2 Ni3 2.323439 1_554
As2 Ni6 2.323518 1_565
As2 Ni1 2.335512 1_455
As2 Ni1 2.335512 1_555
As2 Ni4 2.336081 1_555
As2 Ni4 2.336081 1_455
As2 Hf0 2.802075 1_555
As2 Hf1 2.834723 1_565
As2 Hf1 2.834723 1_465
As3 Ni2 2.323439 1_556
As3 Ni7 2.323518 1_545
As3 Ni0 2.335512 1_455
As3 Ni0 2.335512 1_555
As3 Ni5 2.336081 1_555
As3 Ni5 2.336081 1_455
As3 Hf0 2.802075 1_555
As3 Hf1 2.834723 1_556
As3 Hf1 2.834723 1_456
