# generated using pymatgen
data_HfMg14Ti
_symmetry_space_group_name_H-M   'P 1'
_cell_length_a   6.36931269
_cell_length_b   6.36931217
_cell_length_c   10.10130202
_cell_angle_alpha   90.00000000
_cell_angle_beta   90.00000000
_cell_angle_gamma   120.00000263
_symmetry_Int_Tables_number   1
_chemical_formula_structural   HfMg14Ti
_chemical_formula_sum   'Hf1 Mg14 Ti1'
_cell_volume   354.88944416
_cell_formula_units_Z   1
loop_
 _symmetry_equiv_pos_site_id
 _symmetry_equiv_pos_as_xyz
  1  'x, y, z'
loop_
 _atom_site_type_symbol
 _atom_site_label
 _atom_site_symmetry_multiplicity
 _atom_site_fract_x
 _atom_site_fract_y
 _atom_site_fract_z
 _atom_site_occupancy
  Hf  Hf0  1  0.16666700  0.33333300  0.62500000  1
  Mg  Mg0  1  0.16850048  0.83424974  0.12500000  1
  Mg  Mg1  1  0.17054379  0.83527139  0.62500000  1
  Mg  Mg2  1  0.66575026  0.33149952  0.12500000  1
  Mg  Mg3  1  0.66472861  0.32945621  0.62500000  1
  Mg  Mg4  1  0.66575026  0.83424974  0.12500000  1
  Mg  Mg5  1  0.66472861  0.83527139  0.62500000  1
  Mg  Mg6  1  0.33044879  0.16955121  0.37372613  1
  Mg  Mg7  1  0.33044879  0.16955121  0.87627387  1
  Mg  Mg8  1  0.33044879  0.66089858  0.37372613  1
  Mg  Mg9  1  0.33044879  0.66089858  0.87627387  1
  Mg  Mg10  1  0.83910142  0.16955121  0.37372613  1
  Mg  Mg11  1  0.83910142  0.16955121  0.87627387  1
  Mg  Mg12  1  0.83333300  0.66666700  0.37578495  1
  Mg  Mg13  1  0.83333300  0.66666700  0.87421505  1
  Ti  Ti0  1  0.16666700  0.33333300  0.12500000  1
loop_
_geom_bond_atom_site_label_1
_geom_bond_atom_site_label_2
_geom_bond_distance
_geom_bond_site_symmetry_2
Hf0 Mg6 3.115619 1_555
Hf0 Mg7 3.115619 1_555
Hf0 Mg8 3.115625 1_555
Hf0 Mg9 3.115625 1_555
Hf0 Mg11 3.115625 1_455
Hf0 Mg10 3.115625 1_455
Hf0 Mg1 3.184728 1_555
Hf0 Mg5 3.184728 1_555
Hf0 Mg5 3.184728 1_445
Hf0 Mg1 3.184728 1_545
Hf0 Mg3 3.184728 1_455
Hf0 Mg3 3.184728 1_555
Mg0 Mg9 3.120006 1_554
Mg0 Mg8 3.120006 1_555
Mg0 Mg6 3.120013 1_565
Mg0 Mg7 3.120013 1_564
Mg0 Mg12 3.136138 1_455
Mg0 Mg13 3.136138 1_454
Mg0 Mg2 3.167139 1_565
Mg0 Mg4 3.167139 1_555
Mg0 Ti0 3.184672 1_555
Mg0 Ti0 3.184672 1_565
Mg0 Mg2 3.202173 1_455
Mg0 Mg4 3.202173 1_455
Mg1 Mg12 3.130027 1_455
Mg1 Mg13 3.130027 1_455
Mg1 Mg9 3.137580 1_555
Mg1 Mg8 3.137580 1_555
Mg1 Mg7 3.137587 1_565
Mg1 Mg6 3.137587 1_565
Mg1 Mg3 3.147617 1_565
Mg1 Mg5 3.147618 1_555
Mg1 Mg3 3.221695 1_455
Mg1 Mg5 3.221695 1_455
Mg2 Mg7 3.120013 1_554
Mg2 Mg6 3.120013 1_555
Mg2 Mg4 3.167139 1_545
Mg2 Ti0 3.184672 1_555
Mg2 Ti0 3.184672 1_655
Mg2 Mg4 3.202173 1_555
Mg3 Mg6 3.137587 1_555
Mg3 Mg7 3.137587 1_555
Mg3 Mg5 3.147617 1_545
Mg3 Mg5 3.221695 1_555
Mg4 Mg9 3.120013 1_554
Mg4 Mg8 3.120013 1_555
Mg4 Ti0 3.184672 1_555
Mg4 Ti0 3.184672 1_665
Mg5 Mg8 3.137587 1_555
Mg5 Mg9 3.137587 1_555
Mg6 Ti0 3.094689 1_555
Mg6 Mg8 3.129545 1_555
Mg6 Mg8 3.239767 1_545
Mg7 Ti0 3.094689 1_556
Mg7 Mg9 3.129545 1_555
Mg7 Mg9 3.239767 1_545
Mg8 Ti0 3.094696 1_555
Mg9 Ti0 3.094696 1_556
Mg10 Ti0 3.094696 1_655
Mg10 Mg2 3.120006 1_555
Mg10 Mg4 3.120013 1_545
Mg10 Mg8 3.129545 1_655
Mg10 Mg6 3.129545 1_655
Mg10 Mg3 3.137580 1_555
Mg10 Mg5 3.137587 1_545
Mg10 Mg12 3.184883 1_545
Mg10 Mg12 3.184883 1_555
Mg10 Mg8 3.239767 1_545
Mg10 Mg6 3.239768 1_555
Mg11 Ti0 3.094696 1_656
Mg11 Mg2 3.120006 1_556
Mg11 Mg4 3.120013 1_546
Mg11 Mg9 3.129545 1_655
Mg11 Mg7 3.129545 1_655
Mg11 Mg3 3.137580 1_555
Mg11 Mg5 3.137587 1_545
Mg11 Mg13 3.184883 1_545
Mg11 Mg13 3.184883 1_555
Mg11 Mg9 3.239767 1_545
Mg11 Mg7 3.239768 1_555
Mg12 Mg5 3.130021 1_555
Mg12 Mg3 3.130027 1_555
Mg12 Mg4 3.136132 1_555
Mg12 Mg2 3.136138 1_555
Mg12 Mg6 3.184883 1_665
Mg12 Mg6 3.184883 1_555
Mg12 Mg8 3.184883 1_655
Mg12 Mg8 3.184883 1_555
Mg13 Mg5 3.130021 1_555
Mg13 Mg3 3.130027 1_555
Mg13 Mg4 3.136132 1_556
Mg13 Mg2 3.136138 1_556
Mg13 Mg7 3.184883 1_665
Mg13 Mg7 3.184883 1_555
Mg13 Mg9 3.184883 1_655
Mg13 Mg9 3.184883 1_555
