# generated using pymatgen
data_TlZnCu3Se4
_symmetry_space_group_name_H-M   'P 1'
_cell_length_a   5.92056600
_cell_length_b   5.92056600
_cell_length_c   5.92056600
_cell_angle_alpha   90.00000000
_cell_angle_beta   90.00000000
_cell_angle_gamma   90.00000000
_symmetry_Int_Tables_number   1
_chemical_formula_structural   TlZnCu3Se4
_chemical_formula_sum   'Tl1 Zn1 Cu3 Se4'
_cell_volume   207.53420248
_cell_formula_units_Z   1
loop_
 _symmetry_equiv_pos_site_id
 _symmetry_equiv_pos_as_xyz
  1  'x, y, z'
loop_
 _atom_site_type_symbol
 _atom_site_label
 _atom_site_symmetry_multiplicity
 _atom_site_fract_x
 _atom_site_fract_y
 _atom_site_fract_z
 _atom_site_occupancy
  Tl  Tl0  1  0.00000000  0.00000000  0.00000000  1
  Zn  Zn0  1  0.50000000  0.50000000  0.50000000  1
  Cu  Cu0  1  0.00000000  0.50000000  0.00000000  1
  Cu  Cu1  1  0.00000000  0.00000000  0.50000000  1
  Cu  Cu2  1  0.50000000  0.00000000  0.00000000  1
  Se  Se0  1  0.26241700  0.26241700  0.26241700  1
  Se  Se1  1  0.73758300  0.73758300  0.26241700  1
  Se  Se2  1  0.26241700  0.73758300  0.73758300  1
  Se  Se3  1  0.73758300  0.26241700  0.73758300  1
loop_
_geom_bond_atom_site_label_1
_geom_bond_atom_site_label_2
_geom_bond_distance
_geom_bond_site_symmetry_2
Cu0 Se3 2.608888 1_454
Cu0 Se0 2.608888 1_555
Cu0 Se1 2.608888 1_455
Cu0 Se2 2.608888 1_554
Cu0 Tl0 2.960283 1_565
Cu0 Tl0 2.960283 1_555
Cu1 Se2 2.608888 1_545
Cu1 Se3 2.608888 1_455
Cu1 Se0 2.608888 1_555
Cu1 Se1 2.608888 1_445
Cu1 Tl0 2.960283 1_556
Cu1 Tl0 2.960283 1_555
Cu2 Se2 2.608888 1_544
Cu2 Se1 2.608888 1_545
Cu2 Se0 2.608888 1_555
Cu2 Se3 2.608888 1_554
Cu2 Tl0 2.960283 1_655
Cu2 Tl0 2.960283 1_555
Se0 Zn0 2.436347 1_555
Se0 Tl0 2.691013 1_555
Se1 Zn0 2.436347 1_555
Se1 Tl0 2.691013 1_665
Se2 Zn0 2.436347 1_555
Se2 Tl0 2.691013 1_566
Se3 Zn0 2.436347 1_555
Se3 Tl0 2.691013 1_656
