# generated using pymatgen
data_Li7Mn5O12
_symmetry_space_group_name_H-M   'P 1'
_cell_length_a   6.02359590
_cell_length_b   10.09205250
_cell_length_c   8.20870062
_cell_angle_alpha   66.79377922
_cell_angle_beta   89.37225155
_cell_angle_gamma   103.69877328
_symmetry_Int_Tables_number   1
_chemical_formula_structural   Li7Mn5O12
_chemical_formula_sum   'Li14 Mn10 O24'
_cell_volume   442.54217384
_cell_formula_units_Z   2
loop_
 _symmetry_equiv_pos_site_id
 _symmetry_equiv_pos_as_xyz
  1  'x, y, z'
loop_
 _atom_site_type_symbol
 _atom_site_label
 _atom_site_symmetry_multiplicity
 _atom_site_fract_x
 _atom_site_fract_y
 _atom_site_fract_z
 _atom_site_occupancy
  Li  Li0  1  0.16672400  0.33329100  0.83333100  1
  Li  Li1  1  0.16665800  0.83327000  0.33332500  1
  Li  Li2  1  0.66674400  0.33326900  0.83335000  1
  Li  Li3  1  0.66676200  0.83328600  0.33335700  1
  Li  Li4  1  0.16659900  0.33335300  0.33333300  1
  Li  Li5  1  0.16657200  0.83334100  0.83334700  1
  Li  Li6  1  0.51420200  0.51173900  0.00038900  1
  Li  Li7  1  0.49640400  0.99979700  0.50403000  1
  Li  Li8  1  0.83700400  0.66689800  0.16250300  1
  Li  Li9  1  0.81925500  0.15493400  0.66618700  1
  Li  Li10  1  0.00283100  0.49822600  0.00791400  1
  Li  Li11  1  0.00709200  0.99258300  0.51152800  1
  Li  Li12  1  0.32632300  0.67401300  0.15518200  1
  Li  Li13  1  0.33057600  0.16841200  0.65871300  1
  Mn  Mn0  1  0.66684700  0.83325200  0.83338600  1
  Mn  Mn1  1  0.66674000  0.33340200  0.33314600  1
  Mn  Mn2  1  0.99751900  0.99479300  0.00158400  1
  Mn  Mn3  1  0.99537600  0.49596100  0.50062800  1
  Mn  Mn4  1  0.33799800  0.17075000  0.16611700  1
  Mn  Mn5  1  0.33575500  0.67187300  0.66504300  1
  Mn  Mn6  1  0.49183100  0.99651300  0.99714000  1
  Mn  Mn7  1  0.48845900  0.49642600  0.50022500  1
  Mn  Mn8  1  0.84489900  0.17036500  0.16637600  1
  Mn  Mn9  1  0.84148400  0.67012600  0.66959400  1
  O  O0  1  0.84797600  0.16252000  0.93353800  1
  O  O1  1  0.80314200  0.64284100  0.43938700  1
  O  O2  1  0.48536900  0.50414700  0.73312000  1
  O  O3  1  0.53026400  0.02386900  0.22733800  1
  O  O4  1  0.34795400  0.16139000  0.92960800  1
  O  O5  1  0.34756000  0.65971000  0.42590900  1
  O  O6  1  0.98538600  0.50530300  0.73713100  1
  O  O7  1  0.98580800  0.00694400  0.24074400  1
  O  O8  1  0.14501800  0.31019700  0.09520900  1
  O  O9  1  0.18120900  0.82650300  0.57785000  1
  O  O10  1  0.15209000  0.84016200  0.08877500  1
  O  O11  1  0.18827500  0.35647300  0.57146500  1
  O  O12  1  0.68919000  0.33272200  0.09740500  1
  O  O13  1  0.68803800  0.83203400  0.59839600  1
  O  O14  1  0.64513300  0.83463700  0.06829200  1
  O  O15  1  0.64414100  0.33394100  0.56933700  1
  O  O16  1  0.50863700  0.49075800  0.26739300  1
  O  O17  1  0.50994700  0.99199600  0.76231200  1
  O  O18  1  0.82314100  0.67474100  0.90435600  1
  O  O19  1  0.82472200  0.17592000  0.39930300  1
  O  O20  1  0.96572700  0.48380500  0.27192500  1
  O  O21  1  0.96698600  0.98567500  0.76800300  1
  O  O22  1  0.36607900  0.68095800  0.89866800  1
  O  O23  1  0.36755400  0.18288200  0.39480500  1
loop_
_geom_bond_atom_site_label_1
_geom_bond_atom_site_label_2
_geom_bond_distance
_geom_bond_site_symmetry_2
Li0 O11 2.067716 1_555
Li0 O8 2.068114 1_556
Li0 O2 2.148010 1_555
Li0 O0 2.148065 1_455
Li0 O4 2.159013 1_555
Li0 O6 2.160307 1_455
Li1 O10 1.984706 1_555
Li1 O9 1.984940 1_555
Li1 O5 2.169351 1_555
Li1 O7 2.170038 1_465
Li1 O1 2.427455 1_455
Li1 O3 2.428568 1_565
Li2 O4 2.151648 1_555
Li2 O6 2.151719 1_555
Li2 O0 2.152056 1_555
Li2 O2 2.153688 1_555
Li2 O15 2.170409 1_555
Li2 O12 2.171157 1_556
Li3 O1 2.138123 1_555
Li3 O3 2.139701 1_565
Li3 O7 2.159978 1_565
Li3 O5 2.160237 1_555
Li3 O14 2.176031 1_555
Li3 O13 2.176039 1_555
Li4 O11 2.059894 1_555
Li4 O8 2.059973 1_555
Li4 O20 2.074587 1_455
Li4 O23 2.075094 1_555
Li4 O19 2.192318 1_455
Li4 O16 2.192958 1_555
Li5 O21 2.082354 1_455
Li5 O22 2.082383 1_555
Li5 O10 2.126315 1_556
Li5 O9 2.126990 1_555
Li5 O17 2.202502 1_555
Li5 O18 2.202544 1_455
Li6 O22 2.005989 1_554
Li6 O18 2.070394 1_554
Li6 O16 2.116375 1_555
Li6 O12 2.189909 1_555
Li6 O2 2.232463 1_554
Li6 O8 2.502062 1_555
Li7 O23 2.051631 1_565
Li7 O17 2.093614 1_555
Li7 O9 2.144166 1_555
Li7 O13 2.170411 1_555
Li7 O3 2.188806 1_565
Li7 O19 2.214293 1_565
Li8 O20 2.051381 1_555
Li8 O18 2.092473 1_554
Li8 O10 2.143600 1_655
Li8 O14 2.171184 1_555
Li8 O1 2.190421 1_555
Li8 O16 2.214658 1_555
Li9 O21 2.004840 1_545
Li9 O17 2.071730 1_545
Li9 O19 2.115389 1_555
Li9 O15 2.190286 1_555
Li9 O0 2.233055 1_555
Li9 O11 2.501379 1_655
Li10 O12 2.099226 1_455
Li10 O20 2.119728 1_455
Li10 O8 2.135304 1_555
Li10 O18 2.192611 1_454
Li10 O6 2.200100 1_454
Li10 O22 2.394826 1_554
Li11 O9 2.081264 1_555
Li11 O21 2.088260 1_455
Li11 O13 2.100439 1_455
Li11 O7 2.177011 1_465
Li11 O19 2.262828 1_465
Li11 O23 2.418686 1_565
Li12 O10 2.082288 1_555
Li12 O22 2.088229 1_554
Li12 O14 2.099692 1_555
Li12 O5 2.176709 1_555
Li12 O16 2.261948 1_555
Li12 O20 2.418877 1_455
Li13 O15 2.098989 1_555
Li13 O23 2.118651 1_555
Li13 O11 2.136005 1_555
Li13 O17 2.190534 1_545
Li13 O4 2.201188 1_555
Li13 O21 2.396367 1_445
Mn0 O13 1.936847 1_555
Mn0 O14 1.937039 1_556
Mn0 O18 1.943103 1_555
Mn0 O17 1.947508 1_555
Mn0 O21 1.983371 1_555
Mn0 O22 1.985569 1_555
Mn1 O12 1.941191 1_555
Mn1 O16 1.942230 1_555
Mn1 O19 1.942651 1_555
Mn1 O15 1.944342 1_555
Mn1 O20 1.970857 1_555
Mn1 O23 1.972058 1_555
Mn2 O10 1.907096 1_655
Mn2 O21 1.964042 1_554
Mn2 O0 1.994182 1_564
Mn2 O7 2.016167 1_565
Mn2 O14 2.251648 1_555
Mn2 O4 2.267278 1_664
Mn3 O20 1.936461 1_555
Mn3 O11 1.953035 1_655
Mn3 O6 1.981375 1_555
Mn3 O1 2.007305 1_555
Mn3 O15 2.253099 1_555
Mn3 O5 2.262696 1_655
Mn4 O23 1.936186 1_555
Mn4 O8 1.953114 1_555
Mn4 O4 1.981498 1_554
Mn4 O3 2.007464 1_555
Mn4 O12 2.252703 1_555
Mn4 O7 2.262976 1_455
Mn5 O9 1.906986 1_555
Mn5 O22 1.964149 1_555
Mn5 O2 1.994441 1_555
Mn5 O5 2.016031 1_555
Mn5 O13 2.251216 1_555
Mn5 O6 2.266827 1_455
Mn6 O4 1.947749 1_565
Mn6 O17 1.948526 1_555
Mn6 O14 1.958844 1_556
Mn6 O3 2.022609 1_566
Mn6 O10 2.178317 1_556
Mn6 O0 2.294652 1_565
Mn7 O5 1.920801 1_555
Mn7 O11 1.929433 1_555
Mn7 O16 1.937853 1_555
Mn7 O2 1.943854 1_555
Mn7 O15 1.974098 1_555
Mn7 O1 2.024082 1_555
Mn8 O7 1.921991 1_555
Mn8 O8 1.928656 1_655
Mn8 O19 1.938137 1_555
Mn8 O0 1.943924 1_554
Mn8 O12 1.973177 1_555
Mn8 O3 2.024146 1_555
Mn9 O6 1.947383 1_555
Mn9 O18 1.948477 1_555
Mn9 O13 1.959685 1_555
Mn9 O1 2.022289 1_555
Mn9 O9 2.178383 1_655
Mn9 O2 2.294440 1_555
