# generated using pymatgen
data_K3Pt2(SO4)6
_symmetry_space_group_name_H-M   'P 1'
_cell_length_a   10.46763863
_cell_length_b   10.46763863
_cell_length_c   12.89974724
_cell_angle_alpha   74.86394502
_cell_angle_beta   74.86394502
_cell_angle_gamma   55.96406388
_symmetry_Int_Tables_number   1
_chemical_formula_structural   K3Pt2(SO4)6
_chemical_formula_sum   'K6 Pt4 S12 O48'
_cell_volume   1118.93052703
_cell_formula_units_Z   2
loop_
 _symmetry_equiv_pos_site_id
 _symmetry_equiv_pos_as_xyz
  1  'x, y, z'
loop_
 _atom_site_type_symbol
 _atom_site_label
 _atom_site_symmetry_multiplicity
 _atom_site_fract_x
 _atom_site_fract_y
 _atom_site_fract_z
 _atom_site_occupancy
  K  K0  1  0.89191800  0.45389900  0.41035100  1
  K  K1  1  0.54610100  0.10808200  0.08964900  1
  K  K2  1  0.10808200  0.54610100  0.58964900  1
  K  K3  1  0.45389900  0.89191800  0.91035100  1
  K  K4  1  0.30482200  0.69517800  0.75000000  1
  K  K5  1  0.69517800  0.30482200  0.25000000  1
  Pt  Pt0  1  0.05778000  0.55006000  0.04141000  1
  Pt  Pt1  1  0.44994000  0.94222000  0.45859000  1
  Pt  Pt2  1  0.94222000  0.44994000  0.95859000  1
  Pt  Pt3  1  0.55006000  0.05778000  0.54141000  1
  S  S0  1  0.23031800  0.72202800  0.08040100  1
  S  S1  1  0.27797200  0.76968200  0.41959900  1
  S  S2  1  0.76968200  0.27797200  0.91959900  1
  S  S3  1  0.72202800  0.23031800  0.58040100  1
  S  S4  1  0.70649600  0.67282000  0.12906400  1
  S  S5  1  0.32718000  0.29350400  0.37093600  1
  S  S6  1  0.29350400  0.32718000  0.87093600  1
  S  S7  1  0.67282000  0.70649600  0.62906400  1
  S  S8  1  0.91167700  0.76281100  0.83327000  1
  S  S9  1  0.23718900  0.08832300  0.66673000  1
  S  S10  1  0.08832300  0.23718900  0.16673000  1
  S  S11  1  0.76281100  0.91167700  0.33327000  1
  O  O0  1  0.28931600  0.72201600  0.96399500  1
  O  O1  1  0.27798400  0.71068400  0.53600500  1
  O  O2  1  0.71068400  0.27798400  0.03600500  1
  O  O3  1  0.72201600  0.28931600  0.46399500  1
  O  O4  1  0.36006400  0.65740100  0.14296400  1
  O  O5  1  0.34259900  0.63993600  0.35703600  1
  O  O6  1  0.63993600  0.34259900  0.85703600  1
  O  O7  1  0.65740100  0.36006400  0.64296400  1
  O  O8  1  0.11797100  0.88099500  0.10897000  1
  O  O9  1  0.11900500  0.88202900  0.39103000  1
  O  O10  1  0.88202900  0.11900500  0.89103000  1
  O  O11  1  0.88099500  0.11797100  0.60897000  1
  O  O12  1  0.15848500  0.62321500  0.12207400  1
  O  O13  1  0.37678500  0.84151500  0.37792600  1
  O  O14  1  0.84151500  0.37678500  0.87792600  1
  O  O15  1  0.62321500  0.15848500  0.62207400  1
  O  O16  1  0.84209400  0.70183400  0.11129100  1
  O  O17  1  0.29816600  0.15790600  0.38870900  1
  O  O18  1  0.15790600  0.29816600  0.88870900  1
  O  O19  1  0.70183400  0.84209400  0.61129100  1
  O  O20  1  0.72710300  0.60113900  0.02881200  1
  O  O21  1  0.39886100  0.27289700  0.47118800  1
  O  O22  1  0.27289700  0.39886100  0.97118800  1
  O  O23  1  0.60113900  0.72710300  0.52881200  1
  O  O24  1  0.56396900  0.82385000  0.12303700  1
  O  O25  1  0.17615000  0.43603100  0.37696300  1
  O  O26  1  0.43603100  0.17615000  0.87696300  1
  O  O27  1  0.82385000  0.56396900  0.62303700  1
  O  O28  1  0.71709000  0.56339400  0.22717500  1
  O  O29  1  0.43660600  0.28291000  0.27282500  1
  O  O30  1  0.28291000  0.43660600  0.77282500  1
  O  O31  1  0.56339400  0.71709000  0.72717500  1
  O  O32  1  0.91941500  0.61085800  0.82558100  1
  O  O33  1  0.38914200  0.08058500  0.67441900  1
  O  O34  1  0.08058500  0.38914200  0.17441900  1
  O  O35  1  0.61085800  0.91941500  0.32558200  1
  O  O36  1  0.03247200  0.71181300  0.90934100  1
  O  O37  1  0.28818700  0.96752800  0.59065900  1
  O  O38  1  0.96752800  0.28818700  0.09065900  1
  O  O39  1  0.71181300  0.03247200  0.40934100  1
  O  O40  1  0.97313100  0.80890900  0.72688000  1
  O  O41  1  0.19109100  0.02686900  0.77312000  1
  O  O42  1  0.02686900  0.19109100  0.27312000  1
  O  O43  1  0.80890900  0.97313100  0.22688000  1
  O  O44  1  0.75646000  0.87142500  0.88143600  1
  O  O45  1  0.12857500  0.24354000  0.61856400  1
  O  O46  1  0.24354000  0.12857500  0.11856400  1
  O  O47  1  0.87142500  0.75646000  0.38143600  1
loop_
_geom_bond_atom_site_label_1
_geom_bond_atom_site_label_2
_geom_bond_distance
_geom_bond_site_symmetry_2
K0 O25 2.796867 1_655
K0 O28 2.956689 1_555
K0 O3 2.962166 1_555
K0 O47 2.979935 1_555
K0 O27 3.012217 1_555
K0 O42 3.095841 1_655
K0 O23 3.144392 1_555
K0 O34 3.172117 1_655
K1 O24 2.796867 1_545
K1 O29 2.956689 1_555
K1 O2 2.962166 1_555
K1 O46 2.979935 1_555
K1 O26 3.012217 1_554
K1 O43 3.095841 1_545
K1 O22 3.144392 1_554
K1 O35 3.172128 1_545
K2 O27 2.796867 1_455
K2 O30 2.956689 1_555
K2 O1 2.962166 1_555
K2 O45 2.979935 1_555
K2 O25 3.012217 1_555
K2 O40 3.095841 1_455
K2 O21 3.144392 1_555
K2 O32 3.172117 1_455
K3 O26 2.796867 1_565
K3 O31 2.956689 1_555
K3 O0 2.962166 1_555
K3 O44 2.979935 1_555
K3 O24 3.012217 1_556
K3 O41 3.095841 1_565
K3 O20 3.144392 1_556
K3 O33 3.172117 1_565
K4 O31 2.776455 1_555
K4 O30 2.776455 1_555
K4 O1 2.800979 1_555
K4 O0 2.800979 1_555
K4 O36 2.992275 1_555
K4 O37 2.992275 1_555
K4 O40 3.047859 1_455
K4 O41 3.047859 1_565
K5 O28 2.776455 1_555
K5 O29 2.776455 1_555
K5 O2 2.800979 1_555
K5 O3 2.800979 1_555
K5 O39 2.992275 1_555
K5 O38 2.992275 1_555
K5 O42 3.047859 1_655
K5 O43 3.047859 1_545
O0 S0 1.466952 1_556
O1 S1 1.466952 1_555
O2 S2 1.466952 1_554
O3 S3 1.466952 1_555
O4 S0 1.487376 1_555
O5 S1 1.487376 1_555
O6 S2 1.487376 1_555
O7 S3 1.487376 1_555
O8 S0 1.480225 1_555
O9 S1 1.480225 1_555
O10 S2 1.480225 1_555
O11 S3 1.480225 1_555
O12 S0 1.514394 1_555
O12 Pt0 2.161688 1_555
O13 S1 1.514394 1_555
O13 Pt1 2.161688 1_555
O14 S2 1.514394 1_555
O14 Pt2 2.161688 1_555
O15 S3 1.514394 1_555
O15 Pt3 2.161688 1_555
O16 S4 1.560683 1_555
O16 Pt0 2.025772 1_655
O17 S5 1.560683 1_555
O17 Pt1 2.025772 1_545
O18 S6 1.560683 1_555
O18 Pt2 2.025772 1_455
O19 S7 1.560683 1_555
O19 Pt3 2.025772 1_565
O20 S4 1.569024 1_555
O20 Pt2 2.022363 1_554
O21 S5 1.569024 1_555
O21 Pt3 2.022363 1_555
O22 S6 1.569024 1_555
O22 Pt0 2.022363 1_556
O23 S7 1.569024 1_555
O23 Pt1 2.022363 1_555
O24 S4 1.444747 1_555
O25 S5 1.444747 1_555
O26 S6 1.444747 1_555
O27 S7 1.444747 1_555
O28 S4 1.449181 1_555
O29 S5 1.449181 1_555
O30 S6 1.449181 1_555
O31 S7 1.449181 1_555
O32 S8 1.574911 1_555
O32 Pt2 2.023040 1_555
O33 S9 1.574911 1_555
O33 Pt3 2.023040 1_555
O34 S10 1.574911 1_555
O34 Pt0 2.023040 1_555
O35 S11 1.574907 1_555
O35 Pt1 2.023031 1_555
O36 S8 1.570198 1_455
O36 Pt0 2.016590 1_556
O37 S9 1.570198 1_565
O37 Pt1 2.016590 1_555
O38 S10 1.570198 1_655
O38 Pt2 2.016590 1_554
O39 S11 1.570198 1_545
O39 Pt3 2.016590 1_555
O40 S8 1.439008 1_555
O41 S9 1.439008 1_555
O42 S10 1.439008 1_555
O43 S11 1.439008 1_555
O44 S8 1.446501 1_555
O45 S9 1.446501 1_555
O46 S10 1.446501 1_555
O47 S11 1.446501 1_555
