# generated using pymatgen
data_BaU2S5
_symmetry_space_group_name_H-M   'P 1'
_cell_length_a   7.61123662
_cell_length_b   8.51339145
_cell_length_c   11.88167863
_cell_angle_alpha   89.40482468
_cell_angle_beta   90.00000000
_cell_angle_gamma   90.00000000
_symmetry_Int_Tables_number   1
_chemical_formula_structural   BaU2S5
_chemical_formula_sum   'Ba4 U8 S20'
_cell_volume   769.86078167
_cell_formula_units_Z   4
loop_
 _symmetry_equiv_pos_site_id
 _symmetry_equiv_pos_as_xyz
  1  'x, y, z'
loop_
 _atom_site_type_symbol
 _atom_site_label
 _atom_site_symmetry_multiplicity
 _atom_site_fract_x
 _atom_site_fract_y
 _atom_site_fract_z
 _atom_site_occupancy
  Ba  Ba0  1  0.05461850  0.49111705  0.33156600  1
  Ba  Ba1  1  0.55461850  0.50888295  0.16843400  1
  Ba  Ba2  1  0.94538150  0.50888295  0.66843400  1
  Ba  Ba3  1  0.44538150  0.49111705  0.83156600  1
  U  U0  1  0.01757595  -0.00294637  0.32153752  1
  U  U1  1  0.51757595  0.00294637  0.17846248  1
  U  U2  1  0.98242405  0.00294637  0.67846248  1
  U  U3  1  0.48242405  -0.00294637  0.82153752  1
  U  U4  1  0.06385550  0.75486210  0.00666805  1
  U  U5  1  0.56385550  0.24513790  0.49333195  1
  U  U6  1  0.93614450  0.24513790  0.99333195  1
  U  U7  1  0.43614450  0.75486210  0.50666805  1
  S  S0  1  0.65826418  0.96029908  0.39936155  1
  S  S1  1  0.15826418  0.03970092  0.10063845  1
  S  S2  1  0.34173582  0.03970092  0.60063845  1
  S  S3  1  0.84173582  0.96029908  0.89936155  1
  S  S4  1  0.45109030  0.79527291  0.00234942  1
  S  S5  1  0.95109030  0.20472709  0.49765058  1
  S  S6  1  0.54890970  0.20472709  0.99765058  1
  S  S7  1  0.04890970  0.79527291  0.50234942  1
  S  S8  1  0.84201750  0.78342242  0.18875195  1
  S  S9  1  0.34201750  0.21657758  0.31124805  1
  S  S10  1  0.15798250  0.21657758  0.81124805  1
  S  S11  1  0.65798250  0.78342242  0.68875195  1
  S  S12  1  0.31234284  0.77711183  0.28638505  1
  S  S13  1  0.81234284  0.22288817  0.21361495  1
  S  S14  1  0.68765716  0.22288817  0.71361495  1
  S  S15  1  0.18765716  0.77711183  0.78638505  1
  S  S16  1  0.17643989  0.46664347  0.07150501  1
  S  S17  1  0.67643989  0.53335653  0.42849499  1
  S  S18  1  0.82356011  0.53335653  0.92849499  1
  S  S19  1  0.32356011  0.46664347  0.57150501  1
loop_
_geom_bond_atom_site_label_1
_geom_bond_atom_site_label_2
_geom_bond_distance
_geom_bond_site_symmetry_2
Ba0 S17 3.122420 1_455
Ba0 S12 3.168136 1_555
Ba0 S9 3.212131 1_555
Ba0 S5 3.218647 1_455
Ba0 S16 3.234867 1_555
Ba0 S13 3.262746 1_455
Ba0 S7 3.306608 1_555
Ba0 S8 3.406282 1_455
Ba0 S19 3.514071 1_555
Ba1 S16 3.122420 1_555
Ba1 S13 3.168136 1_555
Ba1 S8 3.212131 1_555
Ba1 S4 3.218647 1_555
Ba1 S17 3.234867 1_555
Ba1 S12 3.262746 1_555
Ba1 S6 3.306608 1_554
Ba1 S9 3.406282 1_555
Ba1 S18 3.514071 1_554
Ba2 S19 3.122420 1_655
Ba2 S14 3.168136 1_555
Ba2 S11 3.212131 1_555
Ba2 S7 3.218647 1_655
Ba2 S18 3.234867 1_555
Ba2 S15 3.262746 1_655
Ba2 S5 3.306608 1_555
Ba2 S10 3.406282 1_655
Ba2 S17 3.514071 1_555
Ba3 S18 3.122420 1_555
Ba3 S15 3.168136 1_555
Ba3 S10 3.212131 1_555
Ba3 S6 3.218647 1_555
Ba3 S19 3.234867 1_555
Ba3 S14 3.262746 1_555
Ba3 S4 3.306608 1_556
Ba3 S11 3.406282 1_555
Ba3 S16 3.514071 1_556
S0 U7 2.737933 1_555
S0 U5 2.774810 1_565
S0 U1 2.854375 1_565
S0 U0 2.902775 1_665
S1 U6 2.737933 1_454
S1 U4 2.774810 1_545
S1 U0 2.854375 1_555
S1 U1 2.902775 1_555
S2 U5 2.737933 1_555
S2 U7 2.774810 1_545
S2 U3 2.854375 1_555
S2 U2 2.902775 1_455
S3 U4 2.737933 1_656
S3 U6 2.774810 1_565
S3 U2 2.854375 1_565
S3 U3 2.902775 1_565
S4 U3 2.747103 1_564
S4 U1 2.799538 1_565
S4 U4 2.967729 1_555
S5 U2 2.747103 1_555
S5 U0 2.799538 1_655
S5 U5 2.967729 1_555
S6 U1 2.747103 1_556
S6 U3 2.799538 1_555
S6 U6 2.967729 1_555
S7 U0 2.747103 1_565
S7 U2 2.799538 1_465
S7 U7 2.967729 1_555
S8 U4 2.757085 1_655
S8 U0 2.764424 1_665
S8 U1 3.098533 1_565
S9 U5 2.757085 1_555
S9 U1 2.764424 1_555
S9 U0 3.098533 1_555
S10 U6 2.757085 1_455
S10 U2 2.764424 1_455
S10 U3 3.098533 1_555
S11 U7 2.757085 1_555
S11 U3 2.764424 1_565
S11 U2 3.098533 1_565
S12 U1 2.780220 1_565
S12 U7 2.786378 1_555
S12 U0 2.954698 1_565
S13 U0 2.780220 1_655
S13 U6 2.786378 1_554
S13 U1 2.954698 1_555
S14 U3 2.780220 1_555
S14 U5 2.786378 1_555
S14 U2 2.954698 1_555
S15 U2 2.780220 1_465
S15 U4 2.786378 1_556
S15 U3 2.954698 1_565
S16 U4 2.703557 1_555
S16 U6 2.792893 1_454
S17 U5 2.703557 1_555
S17 U7 2.792893 1_555
S18 U6 2.703557 1_555
S18 U4 2.792893 1_656
S19 U7 2.703557 1_555
S19 U5 2.792893 1_555
