# generated using pymatgen
data_Li7Mn2(CoO4)3
_symmetry_space_group_name_H-M   'P 1'
_cell_length_a   8.82791700
_cell_length_b   5.03413000
_cell_length_c   5.11530665
_cell_angle_alpha   71.31264959
_cell_angle_beta   90.00000000
_cell_angle_gamma   90.00000000
_symmetry_Int_Tables_number   1
_chemical_formula_structural   Li7Mn2(CoO4)3
_chemical_formula_sum   'Li7 Mn2 Co3 O12'
_cell_volume   215.34420343
_cell_formula_units_Z   1
loop_
 _symmetry_equiv_pos_site_id
 _symmetry_equiv_pos_as_xyz
  1  'x, y, z'
loop_
 _atom_site_type_symbol
 _atom_site_label
 _atom_site_symmetry_multiplicity
 _atom_site_fract_x
 _atom_site_fract_y
 _atom_site_fract_z
 _atom_site_occupancy
  Li  Li0  1  0.99234900  0.50000000  0.50000000  1
  Li  Li1  1  0.83550600  0.00000000  0.50000000  1
  Li  Li2  1  0.67457100  0.50000000  0.50000000  1
  Li  Li3  1  0.50389600  0.00000000  0.50000000  1
  Li  Li4  1  0.16225800  0.00000000  0.50000000  1
  Li  Li5  1  0.33246300  0.50000000  0.50000000  1
  Li  Li6  1  0.83286200  0.50000000  0.00000000  1
  Mn  Mn0  1  0.99677400  0.00000000  0.00000000  1
  Mn  Mn1  1  0.50340400  0.50000000  0.00000000  1
  Co  Co0  1  0.67517800  0.00000000  0.00000000  1
  Co  Co1  1  0.33238300  0.00000000  0.00000000  1
  Co  Co2  1  0.15317100  0.50000000  0.00000000  1
  O  O0  1  0.00926400  0.75744200  0.77309000  1
  O  O1  1  0.84244900  0.22347700  0.76623500  1
  O  O2  1  0.65329900  0.74674900  0.77689700  1
  O  O3  1  0.49884600  0.26030000  0.77175400  1
  O  O4  1  0.15920900  0.23523800  0.77089900  1
  O  O5  1  0.33952500  0.74239600  0.78100900  1
  O  O6  1  0.00926400  0.24255800  0.22691000  1
  O  O7  1  0.84244900  0.77652300  0.23376500  1
  O  O8  1  0.65329900  0.25325100  0.22310300  1
  O  O9  1  0.49884600  0.73970000  0.22824600  1
  O  O10  1  0.15920900  0.76476200  0.22910100  1
  O  O11  1  0.33952500  0.25760400  0.21899100  1
loop_
_geom_bond_atom_site_label_1
_geom_bond_atom_site_label_2
_geom_bond_distance
_geom_bond_site_symmetry_2
Li0 O7 2.080578 1_555
Li0 O1 2.080578 1_555
Li0 O10 2.164021 1_655
Li0 O4 2.164021 1_655
Li0 O6 2.193964 1_655
Li0 O0 2.193964 1_655
Li1 O1 2.026304 1_555
Li1 O7 2.026304 1_545
Li1 O0 2.168478 1_645
Li1 O6 2.168478 1_655
Li1 O8 2.249829 1_555
Li1 O2 2.249829 1_545
Li2 O2 2.170695 1_555
Li2 O8 2.170695 1_555
Li2 O3 2.172570 1_555
Li2 O9 2.172570 1_555
Li2 O7 2.184955 1_555
Li2 O1 2.184955 1_555
Li3 O2 2.052797 1_545
Li3 O8 2.052797 1_555
Li3 O11 2.158472 1_555
Li3 O5 2.158472 1_545
Li3 O3 2.195168 1_555
Li3 O9 2.195168 1_545
Li4 O6 2.042928 1_555
Li4 O0 2.042928 1_545
Li4 O4 2.091631 1_555
Li4 O10 2.091631 1_545
Li4 O11 2.236594 1_555
Li4 O5 2.236594 1_545
Li5 O3 2.114472 1_555
Li5 O9 2.114472 1_555
Li5 O5 2.164063 1_555
Li5 O11 2.164063 1_555
Li5 O10 2.202831 1_555
Li5 O4 2.202831 1_555
Li6 O7 2.107497 1_555
Li6 O1 2.107497 1_554
Li6 O2 2.109442 1_554
Li6 O8 2.109442 1_555
Li6 O0 2.118484 1_654
Li6 O6 2.118484 1_655
Mn0 O1 1.920815 1_554
Mn0 O7 1.920815 1_545
Mn0 O0 1.938723 1_644
Mn0 O6 1.938723 1_655
Mn0 O4 1.985624 1_654
Mn0 O10 1.985624 1_645
Mn1 O8 1.920419 1_555
Mn1 O2 1.920419 1_554
Mn1 O9 1.929682 1_555
Mn1 O3 1.929682 1_554
Mn1 O11 1.990203 1_555
Mn1 O5 1.990203 1_554
Co0 O8 1.974197 1_555
Co0 O2 1.974197 1_544
Co0 O1 2.003495 1_554
Co0 O7 2.003495 1_545
Co0 O9 2.126740 1_545
Co0 O3 2.126740 1_554
Co1 O11 1.967602 1_555
Co1 O5 1.967602 1_544
Co1 O4 2.055135 1_554
Co1 O10 2.055135 1_545
Co1 O9 2.063825 1_545
Co1 O3 2.063825 1_554
Co2 O0 1.917504 1_554
Co2 O6 1.917504 1_555
Co2 O10 2.038052 1_555
Co2 O4 2.038052 1_554
Co2 O11 2.138773 1_555
Co2 O5 2.138773 1_554
