# generated using pymatgen
data_Ba3YRu2O9
_symmetry_space_group_name_H-M   'P 1'
_cell_length_a   5.96212277
_cell_length_b   5.96212277
_cell_length_c   14.61735600
_cell_angle_alpha   90.00000000
_cell_angle_beta   90.00000000
_cell_angle_gamma   120.00000853
_symmetry_Int_Tables_number   1
_chemical_formula_structural   Ba3YRu2O9
_chemical_formula_sum   'Ba6 Y2 Ru4 O18'
_cell_volume   449.98832655
_cell_formula_units_Z   2
loop_
 _symmetry_equiv_pos_site_id
 _symmetry_equiv_pos_as_xyz
  1  'x, y, z'
loop_
 _atom_site_type_symbol
 _atom_site_label
 _atom_site_symmetry_multiplicity
 _atom_site_fract_x
 _atom_site_fract_y
 _atom_site_fract_z
 _atom_site_occupancy
  Ba  Ba0  1  0.33333300  0.66666700  0.59463500  1
  Ba  Ba1  1  0.66666700  0.33333300  0.09463500  1
  Ba  Ba2  1  0.66666700  0.33333300  0.40536500  1
  Ba  Ba3  1  0.33333300  0.66666700  0.90536500  1
  Ba  Ba4  1  0.00000000  0.00000000  0.75000000  1
  Ba  Ba5  1  0.00000000  0.00000000  0.25000000  1
  Y  Y0  1  0.00000000  0.00000000  0.00000000  1
  Y  Y1  1  0.00000000  0.00000000  0.50000000  1
  Ru  Ru0  1  0.66666700  0.33333300  0.66439900  1
  Ru  Ru1  1  0.33333300  0.66666700  0.16439900  1
  Ru  Ru2  1  0.66666700  0.33333300  0.83560100  1
  Ru  Ru3  1  0.33333300  0.66666700  0.33560100  1
  O  O0  1  0.17622600  0.82377400  0.08834800  1
  O  O1  1  0.17622600  0.35245300  0.08834800  1
  O  O2  1  0.64754700  0.82377400  0.08834800  1
  O  O3  1  0.35245300  0.17622600  0.58834800  1
  O  O4  1  0.82377400  0.64754700  0.91165200  1
  O  O5  1  0.82377400  0.17622600  0.58834800  1
  O  O6  1  0.82377400  0.64754700  0.58834800  1
  O  O7  1  0.17622600  0.82377400  0.41165200  1
  O  O8  1  0.64754700  0.82377400  0.41165200  1
  O  O9  1  0.35245300  0.17622600  0.91165200  1
  O  O10  1  0.82377400  0.17622600  0.91165200  1
  O  O11  1  0.17622600  0.35245300  0.41165200  1
  O  O12  1  0.49011100  0.98022200  0.25000000  1
  O  O13  1  0.50988900  0.49011100  0.75000000  1
  O  O14  1  0.98022200  0.49011100  0.75000000  1
  O  O15  1  0.01977800  0.50988900  0.25000000  1
  O  O16  1  0.49011100  0.50988900  0.25000000  1
  O  O17  1  0.50988900  0.01977800  0.75000000  1
loop_
_geom_bond_atom_site_label_1
_geom_bond_atom_site_label_2
_geom_bond_distance
_geom_bond_site_symmetry_2
Ba0 O17 2.912343 1_565
Ba0 O14 2.912343 1_455
Ba0 O13 2.912347 1_555
Ba0 O6 2.984105 1_455
Ba0 O3 2.984105 1_565
Ba0 O5 2.984110 1_565
Ba0 O5 2.984110 1_455
Ba0 O6 2.984117 1_555
Ba0 O3 2.984117 1_555
Ba0 O8 3.128312 1_555
Ba0 O11 3.128312 1_555
Ba0 O7 3.128313 1_555
Ba1 O12 2.912343 1_545
Ba1 O15 2.912343 1_655
Ba1 O16 2.912347 1_555
Ba1 O1 2.984105 1_655
Ba1 O2 2.984105 1_545
Ba1 O0 2.984110 1_545
Ba1 O0 2.984110 1_655
Ba1 O1 2.984117 1_555
Ba1 O2 2.984117 1_555
Ba1 O4 3.128312 1_554
Ba1 O9 3.128312 1_554
Ba1 O10 3.128313 1_554
Ba2 O15 2.912343 1_655
Ba2 O12 2.912343 1_545
Ba2 O16 2.912347 1_555
Ba2 O8 2.984105 1_545
Ba2 O11 2.984105 1_655
Ba2 O7 2.984110 1_655
Ba2 O7 2.984110 1_545
Ba2 O8 2.984117 1_555
Ba2 O11 2.984117 1_555
Ba2 O6 3.128312 1_555
Ba2 O3 3.128312 1_555
Ba2 O5 3.128313 1_555
Ba3 O17 2.912343 1_565
Ba3 O14 2.912343 1_455
Ba3 O13 2.912347 1_555
Ba3 O4 2.984105 1_455
Ba3 O9 2.984105 1_565
Ba3 O10 2.984110 1_455
Ba3 O10 2.984110 1_565
Ba3 O4 2.984117 1_555
Ba3 O9 2.984117 1_555
Ba3 O2 3.128312 1_556
Ba3 O1 3.128312 1_556
Ba3 O0 3.128313 1_556
Ba4 O10 2.982483 1_455
Ba4 O5 2.982483 1_455
Ba4 O4 2.982486 1_445
Ba4 O9 2.982486 1_555
Ba4 O3 2.982486 1_555
Ba4 O6 2.982486 1_445
Ba4 O13 2.982810 1_555
Ba4 O13 2.982810 1_445
Ba4 O17 2.982810 1_555
Ba4 O14 2.982810 1_445
Ba4 O17 2.982810 1_455
Ba4 O14 2.982810 1_455
Ba5 O7 2.982483 1_545
Ba5 O0 2.982483 1_545
Ba5 O8 2.982486 1_445
Ba5 O2 2.982486 1_445
Ba5 O11 2.982486 1_555
Ba5 O1 2.982486 1_555
Ba5 O16 2.982810 1_555
Ba5 O16 2.982810 1_445
Ba5 O12 2.982810 1_445
Ba5 O15 2.982810 1_555
Ba5 O15 2.982810 1_545
Ba5 O12 2.982810 1_545
O0 Ru1 1.966715 1_555
O0 Y0 2.231489 1_565
O1 Ru1 1.966715 1_555
O1 Y0 2.231493 1_555
O2 Ru1 1.966715 1_555
O2 Y0 2.231493 1_665
O3 Ru0 1.966715 1_555
O3 Y1 2.231493 1_555
O4 Ru2 1.966715 1_555
O4 Y0 2.231493 1_666
O5 Ru0 1.966715 1_555
O5 Y1 2.231489 1_655
O6 Ru0 1.966715 1_555
O6 Y1 2.231493 1_665
O7 Ru3 1.966715 1_555
O7 Y1 2.231489 1_565
O8 Ru3 1.966715 1_555
O8 Y1 2.231493 1_665
O9 Ru2 1.966715 1_555
O9 Y0 2.231493 1_556
O10 Ru2 1.966715 1_555
O10 Y0 2.231489 1_656
O11 Ru3 1.966715 1_555
O11 Y1 2.231493 1_555
O12 Ru1 2.046166 1_555
O12 Ru3 2.046166 1_555
O13 Ru0 2.046170 1_555
O13 Ru2 2.046170 1_555
O14 Ru0 2.046166 1_555
O14 Ru2 2.046166 1_555
O15 Ru3 2.046166 1_555
O15 Ru1 2.046166 1_555
O16 Ru3 2.046170 1_555
O16 Ru1 2.046170 1_555
O17 Ru2 2.046166 1_555
O17 Ru0 2.046166 1_555
