# generated using pymatgen
data_In9Ag17
_symmetry_space_group_name_H-M   'P 1'
_cell_length_a   9.97154360
_cell_length_b   9.97154360
_cell_length_c   10.00815171
_cell_angle_alpha   90.26408201
_cell_angle_beta   90.26408201
_cell_angle_gamma   89.88285705
_symmetry_Int_Tables_number   1
_chemical_formula_structural   In9Ag17
_chemical_formula_sum   'In18 Ag34'
_cell_volume   995.10417925
_cell_formula_units_Z   2
loop_
 _symmetry_equiv_pos_site_id
 _symmetry_equiv_pos_as_xyz
  1  'x, y, z'
loop_
 _atom_site_type_symbol
 _atom_site_label
 _atom_site_symmetry_multiplicity
 _atom_site_fract_x
 _atom_site_fract_y
 _atom_site_fract_z
 _atom_site_occupancy
  In  In0  1  0.54030240  0.80552508  0.19394968  1
  In  In1  1  0.80744920  0.80744920  0.46481989  1
  In  In2  1  0.80552508  0.54030240  0.19394968  1
  In  In3  1  0.53804614  0.19644391  0.82159088  1
  In  In4  1  0.82315840  0.19567647  0.53325179  1
  In  In5  1  0.81004484  0.46853084  0.80979886  1
  In  In6  1  0.46853084  0.81004484  0.80979886  1
  In  In7  1  0.19567647  0.82315840  0.53325179  1
  In  In8  1  0.19644391  0.53804614  0.82159088  1
  In  In9  1  0.47030900  0.19502087  0.17420277  1
  In  In10  1  0.17945172  0.17945172  0.46951212  1
  In  In11  1  0.19502087  0.47030900  0.17420277  1
  In  In12  1  0.49899962  0.13998040  0.50001704  1
  In  In13  1  0.13998040  0.49899962  0.50001704  1
  In  In14  1  0.11052302  0.11052302  0.88634991  1
  In  In15  1  0.11864811  0.87863409  0.11906448  1
  In  In16  1  0.87863409  0.11864811  0.11906448  1
  In  In17  1  0.87497652  0.87497652  0.87833661  1
  Ag  Ag0  1  0.83026141  0.83026141  0.16874586  1
  Ag  Ag1  1  0.82664319  0.17131493  0.82729671  1
  Ag  Ag2  1  0.17131493  0.82664319  0.82729671  1
  Ag  Ag3  1  0.17424967  0.17424967  0.17613921  1
  Ag  Ag4  1  0.60072843  0.60072843  0.39842333  1
  Ag  Ag5  1  0.60506780  0.39483529  0.60586959  1
  Ag  Ag6  1  0.39483529  0.60506680  0.60586959  1
  Ag  Ag7  1  0.39139755  0.39139755  0.39070459  1
  Ag  Ag8  1  0.03764403  0.31780058  0.69849479  1
  Ag  Ag9  1  0.30801524  0.30801524  0.95861734  1
  Ag  Ag10  1  0.31780058  0.03764403  0.69849479  1
  Ag  Ag11  1  0.03187418  0.68567503  0.31469823  1
  Ag  Ag12  1  0.32542155  0.69357909  0.03288408  1
  Ag  Ag13  1  0.32244958  0.96825760  0.30562515  1
  Ag  Ag14  1  0.96825760  0.32244958  0.30562515  1
  Ag  Ag15  1  0.69357909  0.32542155  0.03288408  1
  Ag  Ag16  1  0.68567503  0.03187418  0.31469823  1
  Ag  Ag17  1  0.97134892  0.68356593  0.68235184  1
  Ag  Ag18  1  0.68014160  0.68014160  0.97093827  1
  Ag  Ag19  1  0.68356593  0.97134892  0.68235184  1
  Ag  Ag20  1  0.32798523  0.32798523  0.66881977  1
  Ag  Ag21  1  0.32515428  0.67359416  0.32725880  1
  Ag  Ag22  1  0.67359416  0.32515428  0.32725880  1
  Ag  Ag23  1  0.67480427  0.67480427  0.67420639  1
  Ag  Ag24  1  0.99337104  0.99337104  0.64348105  1
  Ag  Ag25  1  0.99704009  0.35539279  0.00095010  1
  Ag  Ag26  1  0.35539279  0.99704009  0.00095010  1
  Ag  Ag27  1  0.99578288  0.99578288  0.35568321  1
  Ag  Ag28  1  0.99527529  0.64175674  0.99944106  1
  Ag  Ag29  1  0.64175674  0.99527529  0.99944106  1
  Ag  Ag30  1  0.49736176  0.49736176  0.14354071  1
  Ag  Ag31  1  0.49821661  0.85492693  0.50038569  1
  Ag  Ag32  1  0.85492693  0.49821661  0.50038569  1
  Ag  Ag33  1  0.49734965  0.49734965  0.85741270  1
loop_
_geom_bond_atom_site_label_1
_geom_bond_atom_site_label_2
_geom_bond_distance
_geom_bond_site_symmetry_2
In12 In3 3.286195 1_555
In13 In8 3.286195 1_555
Ag0 Ag16 2.869579 1_565
Ag0 Ag11 2.869579 1_655
Ag0 Ag18 2.890548 1_554
Ag0 In0 2.914536 1_555
Ag0 In2 2.914536 1_555
Ag0 In16 2.961482 1_565
Ag0 In15 2.961482 1_655
Ag0 In17 2.978226 1_554
Ag0 In1 2.982684 1_555
Ag0 Ag27 2.983755 1_555
Ag0 Ag28 3.015870 1_554
Ag0 Ag29 3.015870 1_554
Ag1 Ag19 2.842817 1_545
Ag1 Ag8 2.876989 1_655
Ag1 Ag15 2.888447 1_556
Ag1 In3 2.888461 1_555
Ag1 In14 2.951373 1_655
Ag1 In4 2.954010 1_555
Ag1 In5 2.973903 1_555
Ag1 In16 3.011705 1_556
Ag1 In17 3.038219 1_545
Ag1 Ag25 3.038554 1_556
Ag1 Ag24 3.046769 1_545
Ag1 Ag29 3.085263 1_545
Ag2 In8 2.888461 1_555
Ag2 In14 2.951373 1_565
Ag2 In7 2.954010 1_555
Ag2 In6 2.973903 1_555
Ag2 In15 3.011705 1_556
Ag2 In17 3.038219 1_455
Ag2 Ag26 3.038554 1_556
Ag2 Ag24 3.046769 1_455
Ag2 Ag28 3.085263 1_455
Ag3 Ag9 2.891092 1_554
Ag3 In10 2.936561 1_555
Ag3 In11 2.960006 1_555
Ag3 In9 2.960006 1_555
Ag3 In14 3.030966 1_554
Ag3 In16 3.051412 1_455
Ag3 In15 3.051412 1_545
Ag4 Ag6 2.926686 1_555
Ag4 Ag5 2.926686 1_555
Ag4 Ag7 2.955484 1_555
Ag4 In0 2.956903 1_555
Ag4 In2 2.956903 1_555
Ag4 In1 2.988614 1_555
Ag5 In12 2.945333 1_555
Ag5 Ag6 2.961637 1_555
Ag5 In5 2.972719 1_555
Ag5 In3 3.013207 1_555
Ag5 Ag7 3.022449 1_555
Ag5 In4 3.030677 1_555
Ag6 In13 2.945330 1_555
Ag6 In6 2.972726 1_555
Ag6 In8 3.013205 1_555
Ag6 Ag7 3.022442 1_555
Ag6 In7 3.030684 1_555
Ag7 In12 2.938828 1_555
Ag7 In13 2.938828 1_555
Ag7 In9 3.019748 1_555
Ag7 In11 3.019748 1_555
Ag7 In10 3.099067 1_555
Ag8 In13 2.882889 1_555
Ag8 In14 2.889964 1_555
Ag8 In5 2.940162 1_455
Ag8 In4 2.958323 1_455
Ag8 In8 2.969795 1_555
Ag8 In10 3.024448 1_555
Ag9 In14 2.875589 1_555
Ag9 In8 2.895561 1_555
Ag9 In3 2.895561 1_555
Ag9 In9 2.920022 1_556
Ag9 In11 2.920022 1_556
Ag10 Ag2 2.876989 1_545
Ag10 In12 2.882889 1_555
Ag10 In14 2.889964 1_555
Ag10 Ag20 2.913729 1_555
Ag10 In6 2.940162 1_545
Ag10 In7 2.958323 1_545
Ag10 In3 2.969795 1_555
Ag10 In10 3.024448 1_555
Ag10 Ag26 3.076931 1_546
Ag10 Ag31 3.236260 1_545
Ag10 Ag24 3.309208 1_445
Ag11 In13 2.841147 1_555
Ag11 In15 2.888166 1_555
Ag11 Ag21 2.928833 1_555
Ag11 In2 2.937358 1_455
Ag11 In1 2.956838 1_455
Ag11 In11 3.035545 1_555
Ag11 In7 3.046348 1_555
Ag11 Ag27 3.137662 1_455
Ag11 Ag32 3.183815 1_455
Ag11 Ag28 3.202685 1_454
Ag12 Ag30 2.825425 1_555
Ag12 Ag2 2.888447 1_554
Ag12 In15 2.895925 1_555
Ag12 In0 2.897758 1_555
Ag12 In6 2.903441 1_554
Ag12 In8 2.912729 1_554
Ag12 In11 2.950519 1_555
Ag12 Ag21 2.953809 1_555
Ag12 Ag26 3.059653 1_555
Ag12 Ag33 3.135960 1_554
Ag12 Ag28 3.348428 1_454
Ag13 Ag3 2.841983 1_565
Ag13 Ag31 2.851140 1_555
Ag13 In15 2.893407 1_555
Ag13 In0 2.931309 1_555
Ag13 Ag21 2.947270 1_555
Ag13 In7 2.990931 1_555
Ag13 In9 3.012586 1_565
Ag13 In10 3.022562 1_565
Ag13 Ag26 3.083147 1_555
Ag13 In12 3.125127 1_565
Ag13 Ag27 3.308612 1_455
Ag14 Ag3 2.841983 1_655
Ag14 Ag32 2.851140 1_555
Ag14 In16 2.893407 1_555
Ag14 In2 2.931309 1_555
Ag14 Ag22 2.947270 1_555
Ag14 In4 2.990931 1_555
Ag14 In11 3.012586 1_655
Ag14 In10 3.022562 1_655
Ag14 Ag25 3.083147 1_555
Ag14 In13 3.125127 1_655
Ag14 Ag27 3.308612 1_545
Ag15 Ag30 2.825425 1_555
Ag15 In16 2.895925 1_555
Ag15 In2 2.897758 1_555
Ag15 In5 2.903441 1_554
Ag15 In3 2.912729 1_554
Ag15 In9 2.950519 1_555
Ag15 Ag22 2.953809 1_555
Ag15 Ag25 3.059653 1_555
Ag15 Ag33 3.135960 1_554
Ag15 Ag29 3.348428 1_544
Ag16 In12 2.841147 1_555
Ag16 In16 2.888166 1_555
Ag16 Ag22 2.928833 1_555
Ag16 In0 2.937358 1_545
Ag16 In1 2.956838 1_545
Ag16 In9 3.035545 1_555
Ag16 In4 3.046348 1_555
Ag16 Ag27 3.137662 1_545
Ag16 Ag31 3.183815 1_545
Ag16 Ag29 3.202685 1_544
Ag17 Ag32 2.835215 1_555
Ag17 Ag2 2.842817 1_655
Ag17 In17 2.896394 1_555
Ag17 Ag23 2.959213 1_555
Ag17 In5 2.978253 1_555
Ag17 In1 2.986720 1_555
Ag17 In8 3.010307 1_655
Ag17 In7 3.038186 1_655
Ag17 In13 3.086957 1_655
Ag17 Ag24 3.123712 1_555
Ag17 Ag28 3.210373 1_555
Ag18 Ag33 2.812635 1_555
Ag18 In17 2.908009 1_555
Ag18 In2 2.912887 1_556
Ag18 In0 2.912887 1_556
Ag18 In6 2.950914 1_555
Ag18 In5 2.950914 1_555
Ag18 Ag23 2.970203 1_555
Ag18 Ag30 3.114381 1_556
Ag18 Ag29 3.176505 1_555
Ag18 Ag28 3.176505 1_555
Ag19 Ag31 2.835215 1_555
Ag19 In17 2.896394 1_555
Ag19 Ag23 2.959213 1_555
Ag19 In6 2.978253 1_555
Ag19 In1 2.986720 1_555
Ag19 In3 3.010307 1_565
Ag19 In4 3.038186 1_565
Ag19 In12 3.086957 1_565
Ag19 Ag24 3.123712 1_555
Ag19 Ag29 3.210373 1_555
Ag20 In10 2.884562 1_555
Ag20 In8 2.902309 1_555
Ag20 In3 2.902309 1_555
Ag20 Ag8 2.913729 1_555
Ag20 Ag9 2.915832 1_555
Ag20 Ag6 2.915906 1_555
Ag20 Ag5 2.915915 1_555
Ag20 Ag7 2.929361 1_555
Ag20 Ag33 3.036393 1_555
Ag20 In12 3.043163 1_555
Ag20 In13 3.043163 1_555
Ag21 In11 2.846593 1_555
Ag21 In7 2.851264 1_555
Ag21 In0 2.857864 1_555
Ag21 Ag4 2.926552 1_555
Ag21 Ag6 2.953394 1_555
Ag21 Ag7 2.960195 1_555
Ag21 Ag31 3.034139 1_555
Ag21 Ag30 3.066683 1_555
Ag21 In13 3.082236 1_555
Ag22 In9 2.846593 1_555
Ag22 In4 2.851264 1_555
Ag22 In2 2.857864 1_555
Ag22 Ag4 2.926552 1_555
Ag22 Ag5 2.953392 1_555
Ag22 Ag7 2.960195 1_555
Ag22 Ag32 3.034139 1_555
Ag22 Ag30 3.066683 1_555
Ag22 In12 3.082236 1_555
Ag23 In6 2.808620 1_555
Ag23 In5 2.808620 1_555
Ag23 In1 2.819328 1_555
Ag23 Ag4 2.945146 1_555
Ag23 Ag5 2.954823 1_555
Ag23 Ag6 2.954825 1_555
Ag23 Ag31 3.056223 1_555
Ag23 Ag32 3.056223 1_555
Ag23 Ag33 3.113966 1_555
Ag24 In7 2.855966 1_655
Ag24 In4 2.855966 1_565
Ag24 Ag27 2.880747 1_555
Ag24 In17 2.892938 1_555
Ag24 In14 2.930989 1_665
Ag24 In10 3.160845 1_665
Ag24 In1 3.166105 1_555
Ag24 Ag8 3.309208 1_665
Ag25 Ag28 2.855618 1_554
Ag25 In11 2.859433 1_655
Ag25 In5 2.896178 1_554
Ag25 In16 2.900749 1_555
Ag25 In14 2.921108 1_654
Ag25 Ag3 3.073568 1_655
Ag25 Ag8 3.076931 1_654
Ag25 Ag9 3.165842 1_654
Ag25 In8 3.251296 1_654
Ag25 In2 3.280917 1_555
Ag26 Ag29 2.855618 1_554
Ag26 In9 2.859433 1_565
Ag26 In6 2.896178 1_554
Ag26 In15 2.900749 1_555
Ag26 In14 2.921108 1_564
Ag26 Ag3 3.073568 1_565
Ag26 Ag9 3.165842 1_564
Ag26 In3 3.251296 1_564
Ag26 In0 3.280917 1_555
Ag27 In10 2.825167 1_665
Ag27 In1 2.880774 1_555
Ag27 In16 2.910147 1_565
Ag27 In15 2.910147 1_655
Ag27 Ag3 3.103972 1_665
Ag27 In7 3.174231 1_655
Ag27 In4 3.174231 1_565
Ag28 In8 2.875595 1_655
Ag28 In17 2.883988 1_555
Ag28 In2 2.907398 1_556
Ag28 In15 2.915164 1_656
Ag28 In11 3.151278 1_656
Ag28 In5 3.154044 1_555
Ag29 In3 2.875595 1_565
Ag29 In17 2.883988 1_555
Ag29 In0 2.907398 1_556
Ag29 In16 2.915164 1_566
Ag29 In9 3.151278 1_566
Ag29 In6 3.154044 1_555
Ag30 Ag33 2.863611 1_554
Ag30 Ag7 2.899075 1_555
Ag30 Ag4 2.930490 1_555
Ag30 In9 3.044439 1_555
Ag30 In11 3.044439 1_555
Ag30 In2 3.141569 1_555
Ag30 In0 3.141569 1_555
Ag30 Ag9 3.241152 1_554
Ag31 In12 2.842469 1_565
Ag31 Ag6 2.903361 1_555
Ag31 Ag4 2.913137 1_555
Ag31 In7 3.053456 1_555
Ag31 In0 3.133926 1_555
Ag31 In1 3.140312 1_555
Ag31 In6 3.146260 1_555
Ag32 In13 2.842469 1_655
Ag32 Ag5 2.903352 1_555
Ag32 Ag4 2.913137 1_555
Ag32 In4 3.053456 1_555
Ag32 In2 3.133926 1_555
Ag32 In1 3.140312 1_555
Ag32 In5 3.146260 1_555
Ag32 Ag8 3.236260 1_655
Ag33 Ag9 2.864349 1_555
Ag33 Ag6 2.921143 1_555
Ag33 Ag5 2.921147 1_555
Ag33 In8 3.046740 1_555
Ag33 In3 3.046740 1_555
Ag33 In6 3.168704 1_555
Ag33 In5 3.168704 1_555
