# generated using pymatgen
data_Ca2ZnFe(SiO3)4
_symmetry_space_group_name_H-M   'P 1'
_cell_length_a   7.72659488
_cell_length_b   7.71513063
_cell_length_c   9.39397885
_cell_angle_alpha   76.36167751
_cell_angle_beta   109.39737279
_cell_angle_gamma   72.05280866
_symmetry_Int_Tables_number   1
_chemical_formula_structural   Ca2ZnFe(SiO3)4
_chemical_formula_sum   'Ca4 Zn2 Fe2 Si8 O24'
_cell_volume   465.46261057
_cell_formula_units_Z   2
loop_
 _symmetry_equiv_pos_site_id
 _symmetry_equiv_pos_as_xyz
  1  'x, y, z'
loop_
 _atom_site_type_symbol
 _atom_site_label
 _atom_site_symmetry_multiplicity
 _atom_site_fract_x
 _atom_site_fract_y
 _atom_site_fract_z
 _atom_site_occupancy
  Ca  Ca0  1  0.70187000  0.42291100  0.87461500  1
  Ca  Ca1  1  0.70303600  0.92144500  0.37581600  1
  Ca  Ca2  1  0.29739500  0.07739800  0.62462400  1
  Ca  Ca3  1  0.29806000  0.57713300  0.12506800  1
  Zn  Zn0  1  0.09583900  0.02933300  0.87500100  1
  Zn  Zn1  1  0.09567000  0.52949700  0.37492600  1
  Fe  Fe0  1  0.90466900  0.97028400  0.12508600  1
  Fe  Fe1  1  0.90511600  0.47018500  0.62503200  1
  Si  Si0  1  0.62069900  0.72506500  0.07994400  1
  Si  Si1  1  0.62034700  0.22571600  0.57977000  1
  Si  Si2  1  0.19552700  0.70890900  0.67033300  1
  Si  Si3  1  0.19527700  0.20918800  0.17029400  1
  Si  Si4  1  0.37811200  0.77394200  0.42023800  1
  Si  Si5  1  0.37893200  0.27325000  0.92061100  1
  Si  Si6  1  0.80559300  0.79188400  0.82922900  1
  Si  Si7  1  0.80508500  0.29209500  0.32961300  1
  O  O0  1  0.79120200  0.76372700  0.20733800  1
  O  O1  1  0.79131700  0.26393600  0.70741000  1
  O  O2  1  0.02896000  0.66671100  0.54241200  1
  O  O3  1  0.02889100  0.16673700  0.04240800  1
  O  O4  1  0.20488300  0.73486300  0.29437600  1
  O  O5  1  0.20793500  0.23231800  0.79468400  1
  O  O6  1  0.97172100  0.83812200  0.95452000  1
  O  O7  1  0.97011700  0.33948700  0.45515600  1
  O  O8  1  0.39055300  0.83320400  0.05026200  1
  O  O9  1  0.39020900  0.33367000  0.55023000  1
  O  O10  1  0.11706500  0.90960700  0.70019200  1
  O  O11  1  0.11701300  0.40985600  0.20029400  1
  O  O12  1  0.60686400  0.66507200  0.44810300  1
  O  O13  1  0.60865100  0.16514300  0.94967700  1
  O  O14  1  0.88564300  0.59074700  0.80022000  1
  O  O15  1  0.88583000  0.09052200  0.30204500  1
  O  O16  1  0.63374600  0.77036800  0.90001000  1
  O  O17  1  0.63245500  0.27160900  0.39963300  1
  O  O18  1  0.32961800  0.01662000  0.35036400  1
  O  O19  1  0.33005400  0.51609200  0.85028500  1
  O  O20  1  0.36945400  0.72882300  0.60174500  1
  O  O21  1  0.36910500  0.22939200  0.10160200  1
  O  O22  1  0.66883700  0.48233500  0.14839500  1
  O  O23  1  0.66864800  0.98280600  0.64843700  1
loop_
_geom_bond_atom_site_label_1
_geom_bond_atom_site_label_2
_geom_bond_distance
_geom_bond_site_symmetry_2
Ca0 O13 2.351549 1_555
Ca0 O14 2.355178 1_555
Ca0 O1 2.357185 1_555
Ca0 O3 2.362831 1_656
Ca0 O16 2.652433 1_555
Ca0 O19 2.652547 1_555
Ca0 O20 2.788523 1_555
Ca0 O22 2.794616 1_556
Ca1 O12 2.352264 1_555
Ca1 O2 2.352663 1_655
Ca1 O15 2.352850 1_565
Ca1 O0 2.358616 1_555
Ca1 O18 2.659763 1_565
Ca1 O17 2.665337 1_565
Ca1 O23 2.792781 1_555
Ca1 O21 2.803335 1_565
Ca2 O10 2.335884 1_545
Ca2 O9 2.338162 1_555
Ca2 O5 2.362896 1_555
Ca2 O7 2.382092 1_455
Ca2 O23 2.649094 1_545
Ca2 O20 2.649116 1_545
Ca2 O18 2.800627 1_555
Ca2 O16 2.812126 1_545
Ca3 O8 2.335943 1_555
Ca3 O11 2.336864 1_555
Ca3 O6 2.376031 1_454
Ca3 O4 2.379534 1_555
Ca3 O21 2.645632 1_555
Ca3 O22 2.646961 1_555
Ca3 O17 2.799551 1_555
Ca3 O19 2.805605 1_554
Fe0 O13 2.101413 1_564
Fe0 O15 2.109470 1_565
Fe0 O0 2.153037 1_555
Fe0 O3 2.158299 1_665
Fe0 O4 2.190836 1_655
Fe0 O6 2.207201 1_554
Fe1 O14 2.096735 1_555
Fe1 O12 2.115600 1_555
Fe1 O1 2.153498 1_555
Fe1 O2 2.156258 1_655
Fe1 O7 2.189689 1_555
Fe1 O5 2.209049 1_655
O0 Si0 1.618641 1_555
O0 Zn1 2.203803 1_655
O1 Si1 1.620006 1_555
O1 Zn0 2.204979 1_655
O2 Si2 1.619207 1_555
O2 Zn1 2.202202 1_555
O3 Si3 1.619394 1_555
O3 Zn0 2.202971 1_554
O4 Si4 1.626646 1_555
O4 Zn1 2.116073 1_555
O5 Si5 1.624772 1_555
O5 Zn0 2.117718 1_555
O6 Si6 1.623844 1_555
O6 Zn0 2.117079 1_665
O7 Si7 1.625518 1_555
O7 Zn1 2.121126 1_655
O8 Si0 1.607047 1_555
O8 Zn0 2.096907 1_564
O9 Si1 1.607219 1_555
O9 Zn1 2.095726 1_555
O10 Si2 1.607186 1_555
O10 Zn0 2.092282 1_565
O11 Si3 1.607467 1_555
O11 Zn1 2.090549 1_555
O12 Si4 1.603769 1_555
O13 Si5 1.605920 1_555
O14 Si6 1.607722 1_555
O15 Si7 1.604411 1_555
O16 Si0 1.686926 1_556
O16 Si6 1.703795 1_555
O17 Si1 1.685433 1_555
O17 Si7 1.703068 1_555
O18 Si3 1.686498 1_555
O18 Si4 1.703367 1_545
O19 Si2 1.686735 1_555
O19 Si5 1.704055 1_555
O20 Si4 1.686160 1_555
O20 Si2 1.703061 1_555
O21 Si5 1.685617 1_554
O21 Si3 1.703492 1_555
O22 Si7 1.685101 1_555
O22 Si0 1.703761 1_555
O23 Si6 1.685163 1_555
O23 Si1 1.704855 1_565
