# generated using pymatgen
data_Nd6GaFe13
_symmetry_space_group_name_H-M   'P 1'
_cell_length_a   8.13527100
_cell_length_b   8.13527100
_cell_length_c   13.16799561
_cell_angle_alpha   107.99314475
_cell_angle_beta   107.99314475
_cell_angle_gamma   90.00000000
_symmetry_Int_Tables_number   1
_chemical_formula_structural   Nd6GaFe13
_chemical_formula_sum   'Nd12 Ga2 Fe26'
_cell_volume   783.93542046
_cell_formula_units_Z   2
loop_
 _symmetry_equiv_pos_site_id
 _symmetry_equiv_pos_as_xyz
  1  'x, y, z'
loop_
 _atom_site_type_symbol
 _atom_site_label
 _atom_site_symmetry_multiplicity
 _atom_site_fract_x
 _atom_site_fract_y
 _atom_site_fract_z
 _atom_site_occupancy
  Nd  Nd0  1  0.39446900  0.39446900  0.78893800  1
  Nd  Nd1  1  0.89446900  0.89446900  0.78893800  1
  Nd  Nd2  1  0.60553100  0.60553100  0.21106200  1
  Nd  Nd3  1  0.10553100  0.10553100  0.21106200  1
  Nd  Nd4  1  0.97908500  0.47908500  0.62774500  1
  Nd  Nd5  1  0.64866100  0.14866100  0.62774500  1
  Nd  Nd6  1  0.14866100  0.97908500  0.62774500  1
  Nd  Nd7  1  0.47908500  0.64866100  0.62774500  1
  Nd  Nd8  1  0.02091500  0.52091500  0.37225500  1
  Nd  Nd9  1  0.35133900  0.85133900  0.37225500  1
  Nd  Nd10  1  0.85133900  0.02091500  0.37225500  1
  Nd  Nd11  1  0.52091500  0.35133900  0.37225500  1
  Ga  Ga0  1  0.25000000  0.25000000  0.50000000  1
  Ga  Ga1  1  0.75000000  0.75000000  0.50000000  1
  Fe  Fe0  1  0.00000000  0.50000000  0.00000000  1
  Fe  Fe1  1  0.50000000  0.00000000  0.00000000  1
  Fe  Fe2  1  0.71103100  0.56686900  0.00000000  1
  Fe  Fe3  1  0.28896900  0.43313100  0.00000000  1
  Fe  Fe4  1  0.78896900  0.06686900  0.00000000  1
  Fe  Fe5  1  0.21103100  0.93313100  0.00000000  1
  Fe  Fe6  1  0.56686900  0.28896900  0.00000000  1
  Fe  Fe7  1  0.43313100  0.71103100  0.00000000  1
  Fe  Fe8  1  0.06686900  0.21103100  0.00000000  1
  Fe  Fe9  1  0.93313100  0.78896900  0.00000000  1
  Fe  Fe10  1  0.12000100  0.62000100  0.88344700  1
  Fe  Fe11  1  0.76344600  0.26344600  0.88344700  1
  Fe  Fe12  1  0.26344600  0.12000100  0.88344700  1
  Fe  Fe13  1  0.62000100  0.76344600  0.88344700  1
  Fe  Fe14  1  0.87999900  0.37999900  0.11655300  1
  Fe  Fe15  1  0.23655400  0.73655400  0.11655300  1
  Fe  Fe16  1  0.73655400  0.87999900  0.11655300  1
  Fe  Fe17  1  0.37999900  0.23655400  0.11655300  1
  Fe  Fe18  1  0.51858600  0.01858600  0.81328300  1
  Fe  Fe19  1  0.29469700  0.79469700  0.81328300  1
  Fe  Fe20  1  0.79469700  0.51858600  0.81328300  1
  Fe  Fe21  1  0.01858600  0.29469700  0.81328300  1
  Fe  Fe22  1  0.48141400  0.98141400  0.18671700  1
  Fe  Fe23  1  0.70530300  0.20530300  0.18671700  1
  Fe  Fe24  1  0.20530300  0.48141400  0.18671700  1
  Fe  Fe25  1  0.98141400  0.70530300  0.18671700  1
loop_
_geom_bond_atom_site_label_1
_geom_bond_atom_site_label_2
_geom_bond_distance
_geom_bond_site_symmetry_2
Nd0 Nd6 3.587469 1_545
Nd0 Nd4 3.587472 1_455
Nd0 Nd5 3.587475 1_555
Nd0 Nd7 3.587479 1_555
Nd1 Nd7 3.587469 1_555
Nd1 Nd4 3.587472 1_555
Nd1 Nd5 3.587475 1_565
Nd1 Nd6 3.587479 1_655
Nd2 Nd8 3.587472 1_655
Nd2 Nd9 3.587475 1_555
Nd3 Nd8 3.587472 1_555
Nd3 Nd9 3.587475 1_545
Nd4 Nd8 3.600648 1_655
Nd4 Nd5 3.801532 1_555
Nd5 Nd9 3.600661 1_545
Nd6 Nd7 3.801532 1_555
Nd6 Nd9 4.047739 1_555
Nd6 Nd8 4.047750 1_555
Nd7 Nd9 4.047739 1_555
Nd7 Nd8 4.047750 1_555
Nd8 Nd9 3.801532 1_555
Nd10 Nd2 3.587469 1_545
Nd10 Nd3 3.587479 1_655
Nd10 Nd6 3.600654 1_645
Nd10 Nd11 3.801532 1_555
Nd10 Nd5 4.047739 1_555
Nd10 Nd4 4.047750 1_555
Nd11 Nd3 3.587469 1_555
Nd11 Nd2 3.587479 1_555
Nd11 Nd7 3.600654 1_555
Nd11 Nd5 4.047739 1_555
Nd11 Nd4 4.047750 1_555
Ga0 Nd11 3.393225 1_555
Ga0 Nd6 3.393225 1_545
Ga0 Nd4 3.393228 1_455
Ga0 Nd8 3.393228 1_555
Ga0 Nd5 3.393231 1_555
Ga0 Nd9 3.393231 1_545
Ga0 Nd7 3.393234 1_555
Ga0 Nd10 3.393234 1_455
Ga0 Nd0 3.422480 1_555
Ga0 Nd3 3.422480 1_555
Ga1 Nd10 3.393225 1_565
Ga1 Nd7 3.393225 1_555
Ga1 Nd4 3.393228 1_555
Ga1 Nd8 3.393228 1_655
Ga1 Nd5 3.393231 1_565
Ga1 Nd9 3.393231 1_555
Ga1 Nd6 3.393234 1_655
Ga1 Nd11 3.393234 1_555
Ga1 Nd1 3.422480 1_555
Ga1 Nd2 3.422480 1_555
Fe0 Fe9 2.412962 1_455
Fe0 Fe3 2.412962 1_555
Fe0 Fe2 2.412962 1_455
Fe0 Fe8 2.412962 1_555
Fe0 Fe15 2.472434 1_555
Fe0 Fe11 2.472434 1_454
Fe0 Fe14 2.472435 1_455
Fe0 Fe10 2.472435 1_554
Fe0 Fe25 2.559341 1_455
Fe0 Fe24 2.559341 1_555
Fe0 Fe21 2.559341 1_554
Fe0 Fe20 2.559341 1_454
Fe1 Fe4 2.412962 1_555
Fe1 Fe6 2.412962 1_555
Fe1 Fe7 2.412962 1_545
Fe1 Fe5 2.412962 1_545
Fe1 Fe16 2.472434 1_545
Fe1 Fe17 2.472434 1_555
Fe1 Fe12 2.472434 1_554
Fe1 Fe13 2.472434 1_544
Fe1 Fe23 2.559340 1_555
Fe1 Fe19 2.559340 1_544
Fe1 Fe18 2.559341 1_554
Fe1 Fe22 2.559341 1_545
Fe2 Fe7 2.546887 1_555
Fe2 Fe6 2.546887 1_555
Fe2 Fe9 2.555263 1_555
Fe2 Fe25 2.664575 1_555
Fe2 Fe20 2.664575 1_554
Fe2 Nd0 3.081152 1_554
Fe2 Nd2 3.081152 1_555
Fe3 Fe7 2.546887 1_555
Fe3 Fe6 2.546887 1_555
Fe3 Fe8 2.555263 1_555
Fe3 Nd2 3.081152 1_555
Fe3 Nd0 3.081152 1_554
Fe4 Fe9 2.546887 1_545
Fe4 Fe8 2.546887 1_655
Fe4 Fe6 2.555263 1_555
Fe4 Nd3 3.081152 1_655
Fe4 Nd1 3.081152 1_544
Fe5 Fe9 2.546887 1_455
Fe5 Fe8 2.546887 1_565
Fe5 Fe7 2.555263 1_555
Fe5 Nd1 3.081152 1_454
Fe5 Nd3 3.081152 1_565
Fe6 Nd2 3.081152 1_555
Fe6 Nd0 3.081152 1_554
Fe7 Nd0 3.081152 1_554
Fe7 Nd2 3.081152 1_555
Fe8 Nd1 3.081152 1_444
Fe8 Nd3 3.081152 1_555
Fe9 Nd3 3.081152 1_665
Fe9 Nd1 3.081152 1_554
Fe10 Fe5 2.505108 1_556
Fe10 Fe7 2.505108 1_556
Fe10 Fe19 2.552585 1_555
Fe10 Fe21 2.560549 1_555
Fe10 Fe20 2.560549 1_455
Fe10 Fe3 2.587327 1_556
Fe10 Fe9 2.587327 1_456
Fe10 Fe15 2.761148 1_556
Fe10 Nd4 3.032526 1_455
Fe10 Nd0 3.194828 1_555
Fe10 Nd1 3.194828 1_455
Fe11 Fe6 2.505108 1_556
Fe11 Fe4 2.505108 1_556
Fe11 Fe18 2.552585 1_555
Fe11 Fe20 2.560549 1_555
Fe11 Fe21 2.560549 1_655
Fe11 Fe2 2.587327 1_556
Fe11 Fe8 2.587327 1_656
Fe11 Fe14 2.761148 1_556
Fe11 Nd5 3.032527 1_555
Fe11 Nd1 3.194828 1_545
Fe11 Nd0 3.194828 1_555
Fe12 Fe3 2.505108 1_556
Fe12 Fe8 2.505108 1_556
Fe12 Fe21 2.552585 1_555
Fe12 Fe19 2.560549 1_545
Fe12 Fe18 2.560549 1_555
Fe12 Fe6 2.587327 1_556
Fe12 Fe5 2.587327 1_546
Fe12 Fe17 2.761148 1_556
Fe12 Nd6 3.032526 1_545
Fe12 Nd1 3.194828 1_445
Fe12 Nd0 3.194828 1_555
Fe13 Fe9 2.505108 1_556
Fe13 Fe2 2.505108 1_556
Fe13 Fe20 2.552585 1_555
Fe13 Fe19 2.560549 1_555
Fe13 Fe18 2.560549 1_565
Fe13 Fe4 2.587327 1_566
Fe13 Fe7 2.587327 1_556
Fe13 Fe16 2.761148 1_556
Fe13 Nd7 3.032526 1_555
Fe13 Nd0 3.194828 1_555
Fe13 Nd1 3.194828 1_555
Fe14 Fe6 2.505108 1_555
Fe14 Fe4 2.505108 1_555
Fe14 Fe23 2.552585 1_555
Fe14 Fe24 2.560549 1_655
Fe14 Fe25 2.560549 1_555
Fe14 Fe2 2.587327 1_555
Fe14 Fe8 2.587327 1_655
Fe14 Nd8 3.032526 1_655
Fe14 Nd3 3.194828 1_655
Fe14 Nd2 3.194828 1_555
Fe15 Fe5 2.505108 1_555
Fe15 Fe7 2.505108 1_555
Fe15 Fe22 2.552585 1_555
Fe15 Fe25 2.560549 1_455
Fe15 Fe24 2.560549 1_555
Fe15 Fe3 2.587327 1_555
Fe15 Fe9 2.587327 1_455
Fe15 Nd9 3.032527 1_555
Fe15 Nd2 3.194828 1_555
Fe15 Nd3 3.194828 1_565
Fe16 Fe2 2.505108 1_555
Fe16 Fe9 2.505108 1_555
Fe16 Fe25 2.552585 1_555
Fe16 Fe23 2.560549 1_565
Fe16 Fe22 2.560549 1_555
Fe16 Fe7 2.587327 1_555
Fe16 Fe4 2.587327 1_565
Fe16 Nd10 3.032526 1_565
Fe16 Nd3 3.194828 1_665
Fe16 Nd2 3.194828 1_555
Fe17 Fe8 2.505108 1_555
Fe17 Fe3 2.505108 1_555
Fe17 Fe24 2.552585 1_555
Fe17 Fe23 2.560549 1_555
Fe17 Fe22 2.560549 1_545
Fe17 Fe5 2.587327 1_545
Fe17 Fe6 2.587327 1_555
Fe17 Nd11 3.032526 1_555
Fe17 Nd2 3.194828 1_555
Fe17 Nd3 3.194828 1_555
Fe18 Fe19 2.575845 1_545
Fe18 Fe4 2.664575 1_556
Fe18 Fe6 2.664575 1_556
Fe18 Nd6 3.178292 1_545
Fe18 Nd7 3.178292 1_545
Fe18 Nd0 3.298299 1_555
Fe18 Nd1 3.298299 1_545
Fe18 Nd5 3.376846 1_555
Fe19 Fe5 2.664575 1_556
Fe19 Fe7 2.664575 1_556
Fe19 Nd6 3.178297 1_555
Fe19 Nd7 3.178297 1_555
Fe19 Nd1 3.298299 1_455
Fe19 Nd0 3.298299 1_555
Fe19 Nd4 3.376837 1_455
Fe20 Fe21 2.575845 1_655
Fe20 Fe9 2.664575 1_556
Fe20 Nd5 3.178291 1_555
Fe20 Nd4 3.178298 1_555
Fe20 Nd0 3.298299 1_555
Fe20 Nd1 3.298299 1_555
Fe20 Nd7 3.376841 1_555
Fe21 Fe3 2.664575 1_556
Fe21 Fe8 2.664575 1_556
Fe21 Nd5 3.178291 1_455
Fe21 Nd4 3.178298 1_455
Fe21 Nd1 3.298299 1_445
Fe21 Nd0 3.298299 1_555
Fe21 Nd6 3.376841 1_545
Fe22 Fe23 2.575845 1_565
Fe22 Fe5 2.664575 1_555
Fe22 Fe7 2.664575 1_555
Fe22 Nd11 3.178292 1_565
Fe22 Nd10 3.178292 1_565
Fe22 Nd3 3.298299 1_565
Fe22 Nd2 3.298299 1_555
Fe22 Nd9 3.376846 1_555
Fe23 Fe4 2.664575 1_555
Fe23 Fe6 2.664575 1_555
Fe23 Nd10 3.178297 1_555
Fe23 Nd11 3.178297 1_555
Fe23 Nd3 3.298299 1_655
Fe23 Nd2 3.298299 1_555
Fe23 Nd8 3.376837 1_655
Fe24 Fe25 2.575845 1_455
Fe24 Fe8 2.664575 1_555
Fe24 Fe3 2.664575 1_555
Fe24 Nd9 3.178291 1_555
Fe24 Nd8 3.178298 1_555
Fe24 Nd2 3.298299 1_555
Fe24 Nd3 3.298299 1_555
Fe24 Nd11 3.376841 1_555
Fe25 Fe9 2.664575 1_555
Fe25 Nd9 3.178291 1_655
Fe25 Nd8 3.178298 1_655
Fe25 Nd3 3.298299 1_665
Fe25 Nd2 3.298299 1_555
Fe25 Nd10 3.376841 1_565
