# generated using pymatgen
data_CuPb2I3O2
_symmetry_space_group_name_H-M   'P 1'
_cell_length_a   15.25735197
_cell_length_b   14.06010546
_cell_length_c   13.66268141
_cell_angle_alpha   66.76476248
_cell_angle_beta   57.86393206
_cell_angle_gamma   55.37130545
_symmetry_Int_Tables_number   1
_chemical_formula_structural   CuPb2I3O2
_chemical_formula_sum   'Cu8 Pb16 I24 O16'
_cell_volume   2024.23548591
_cell_formula_units_Z   8
loop_
 _symmetry_equiv_pos_site_id
 _symmetry_equiv_pos_as_xyz
  1  'x, y, z'
loop_
 _atom_site_type_symbol
 _atom_site_label
 _atom_site_symmetry_multiplicity
 _atom_site_fract_x
 _atom_site_fract_y
 _atom_site_fract_z
 _atom_site_occupancy
  Cu  Cu0  1  0.44228600  0.05771400  0.44228600  1
  Cu  Cu1  1  0.05771400  0.44228600  0.05771400  1
  Cu  Cu2  1  0.80771400  0.19228600  0.80771400  1
  Cu  Cu3  1  0.19228600  0.80771400  0.19228600  1
  Cu  Cu4  1  0.58453100  0.91546900  0.58453100  1
  Cu  Cu5  1  0.91546900  0.58453100  0.91546900  1
  Cu  Cu6  1  0.66546900  0.33453100  0.66546900  1
  Cu  Cu7  1  0.33453100  0.66546900  0.33453100  1
  Pb  Pb0  1  0.64976500  0.00947200  0.84491700  1
  Pb  Pb1  1  0.49584600  0.84491700  0.00947200  1
  Pb  Pb2  1  0.00947200  0.64976500  0.49584600  1
  Pb  Pb3  1  0.84491700  0.49584600  0.64976500  1
  Pb  Pb4  1  0.60023500  0.24052800  0.40508300  1
  Pb  Pb5  1  0.75415400  0.40508300  0.24052800  1
  Pb  Pb6  1  0.24052800  0.60023500  0.75415400  1
  Pb  Pb7  1  0.40508300  0.75415400  0.60023500  1
  Pb  Pb8  1  0.51887300  0.98644400  0.14670900  1
  Pb  Pb9  1  0.34797500  0.14670900  0.98644400  1
  Pb  Pb10  1  0.98644400  0.51887300  0.34797500  1
  Pb  Pb11  1  0.14670900  0.34797500  0.51887300  1
  Pb  Pb12  1  0.73112700  0.26355600  0.10329100  1
  Pb  Pb13  1  0.90202500  0.10329100  0.26355600  1
  Pb  Pb14  1  0.26355600  0.73112700  0.90202500  1
  Pb  Pb15  1  0.10329100  0.90202500  0.73112700  1
  I  I0  1  0.44792300  0.22961700  0.27719000  1
  I  I1  1  0.04527100  0.27719000  0.22961700  1
  I  I2  1  0.22961700  0.44792300  0.04527100  1
  I  I3  1  0.27719000  0.04527100  0.44792300  1
  I  I4  1  0.80207700  0.02038300  0.97281000  1
  I  I5  1  0.20472900  0.97281000  0.02038300  1
  I  I6  1  0.02038300  0.80207700  0.20472900  1
  I  I7  1  0.97281000  0.20472900  0.80207700  1
  I  I8  1  0.95204300  0.74532500  0.74962900  1
  I  I9  1  0.55300400  0.74962900  0.74532500  1
  I  I10  1  0.74532500  0.95204300  0.55300400  1
  I  I11  1  0.74962900  0.55300400  0.95204300  1
  I  I12  1  0.29795700  0.50467500  0.50037100  1
  I  I13  1  0.69699600  0.50037100  0.50467500  1
  I  I14  1  0.50467500  0.29795700  0.69699600  1
  I  I15  1  0.50037100  0.69699600  0.29795700  1
  I  I16  1  0.60303500  0.36563900  0.87420200  1
  I  I17  1  0.15712400  0.87420200  0.36563900  1
  I  I18  1  0.36563900  0.60303500  0.15712400  1
  I  I19  1  0.87420200  0.15712400  0.60303500  1
  I  I20  1  0.64696500  0.88436100  0.37579800  1
  I  I21  1  0.09287600  0.37579800  0.88436100  1
  I  I22  1  0.88436100  0.64696500  0.09287600  1
  I  I23  1  0.37579800  0.09287600  0.64696500  1
  O  O0  1  0.50553900  0.12597000  0.98997100  1
  O  O1  1  0.37852000  0.98997100  0.12597000  1
  O  O2  1  0.12597000  0.50553900  0.37852000  1
  O  O3  1  0.98997100  0.37852000  0.50553900  1
  O  O4  1  0.74446100  0.12403000  0.26002900  1
  O  O5  1  0.87148000  0.26002900  0.12403000  1
  O  O6  1  0.12403000  0.74446100  0.87148000  1
  O  O7  1  0.26002900  0.87148000  0.74446100  1
  O  O8  1  0.63526000  0.86897100  0.00276000  1
  O  O9  1  0.49300900  0.00276000  0.86897100  1
  O  O10  1  0.86897100  0.63526000  0.49300900  1
  O  O11  1  0.00276000  0.49300900  0.63526000  1
  O  O12  1  0.61474000  0.38102900  0.24724000  1
  O  O13  1  0.75699100  0.24724000  0.38102900  1
  O  O14  1  0.38102900  0.61474000  0.75699100  1
  O  O15  1  0.24724000  0.75699100  0.61474000  1
loop_
_geom_bond_atom_site_label_1
_geom_bond_atom_site_label_2
_geom_bond_distance
_geom_bond_site_symmetry_2
Cu0 I20 2.568376 1_545
Cu0 I23 2.568376 1_555
Cu0 I3 2.581736 1_555
Cu0 I0 2.581745 1_555
Cu1 I21 2.568376 1_554
Cu1 I22 2.568376 1_455
Cu1 I1 2.581743 1_555
Cu1 I2 2.581751 1_555
Cu2 I19 2.568376 1_555
Cu2 I16 2.568376 1_555
Cu2 I7 2.581736 1_555
Cu2 I4 2.581745 1_555
Cu3 I18 2.568376 1_555
Cu3 I17 2.568376 1_555
Cu3 I5 2.581743 1_555
Cu3 I6 2.581751 1_555
Cu4 I9 2.569699 1_555
Cu4 I10 2.569709 1_555
Cu4 I23 2.617695 1_565
Cu4 I20 2.617695 1_555
Cu5 I11 2.569694 1_555
Cu5 I8 2.569703 1_555
Cu5 I22 2.617695 1_556
Cu5 I21 2.617695 1_655
Cu6 I13 2.569699 1_555
Cu6 I14 2.569709 1_555
Cu6 I19 2.617695 1_555
Cu6 I16 2.617695 1_555
Cu7 I15 2.569694 1_555
Cu7 I12 2.569703 1_555
Cu7 I17 2.617695 1_555
Cu7 I18 2.617695 1_555
O0 Pb8 2.273973 1_546
O0 Pb9 2.276419 1_555
O0 Pb0 2.297425 1_555
O1 Pb9 2.273971 1_564
O1 Pb8 2.276434 1_555
O1 Pb1 2.297425 1_555
O2 Pb10 2.273964 1_455
O2 Pb11 2.276426 1_555
O2 Pb2 2.297425 1_555
O3 Pb11 2.273979 1_655
O3 Pb10 2.276425 1_555
O3 Pb3 2.297425 1_555
O4 Pb12 2.273973 1_555
O4 Pb13 2.276419 1_555
O4 Pb4 2.297425 1_555
O5 Pb13 2.273971 1_555
O5 Pb12 2.276434 1_555
O5 Pb5 2.297425 1_555
O6 Pb14 2.273964 1_555
O6 Pb15 2.276426 1_555
O6 Pb6 2.297425 1_555
O7 Pb15 2.273979 1_555
O7 Pb14 2.276425 1_555
O7 Pb7 2.297425 1_555
O8 Pb0 2.286904 1_564
O8 Pb1 2.287552 1_555
O8 Pb8 2.294252 1_555
O9 Pb1 2.286904 1_546
O9 Pb0 2.287552 1_555
O9 Pb9 2.294250 1_555
O10 Pb2 2.286904 1_655
O10 Pb3 2.287552 1_555
O10 Pb10 2.294242 1_555
O11 Pb3 2.286904 1_455
O11 Pb2 2.287552 1_555
O11 Pb11 2.294243 1_555
O12 Pb4 2.286904 1_555
O12 Pb5 2.287552 1_555
O12 Pb12 2.294252 1_555
O13 Pb5 2.286904 1_555
O13 Pb4 2.287552 1_555
O13 Pb13 2.294250 1_555
O14 Pb6 2.286904 1_555
O14 Pb7 2.287552 1_555
O14 Pb14 2.294242 1_555
O15 Pb7 2.286904 1_555
O15 Pb6 2.287552 1_555
O15 Pb15 2.294243 1_555
