# generated using pymatgen
data_CrSiW
_symmetry_space_group_name_H-M   'P 1'
_cell_length_a   4.87555778
_cell_length_b   4.87555778
_cell_length_c   7.66630200
_cell_angle_alpha   90.00000000
_cell_angle_beta   90.00000000
_cell_angle_gamma   120.73176527
_symmetry_Int_Tables_number   1
_chemical_formula_structural   CrSiW
_chemical_formula_sum   'Cr4 Si4 W4'
_cell_volume   156.64456386
_cell_formula_units_Z   4
loop_
 _symmetry_equiv_pos_site_id
 _symmetry_equiv_pos_as_xyz
  1  'x, y, z'
loop_
 _atom_site_type_symbol
 _atom_site_label
 _atom_site_symmetry_multiplicity
 _atom_site_fract_x
 _atom_site_fract_y
 _atom_site_fract_z
 _atom_site_occupancy
  Cr  Cr0  1  0.00309900  0.99690100  0.24806600  1
  Cr  Cr1  1  0.00309900  0.99690100  0.75193400  1
  Cr  Cr2  1  0.82385800  0.66153000  0.00000000  1
  Cr  Cr3  1  0.33847000  0.17614200  0.00000000  1
  Si  Si0  1  0.82636400  0.17363600  0.00000000  1
  Si  Si1  1  0.16922400  0.33621200  0.50000000  1
  Si  Si2  1  0.66378800  0.83077600  0.50000000  1
  Si  Si3  1  0.16872400  0.83127600  0.50000000  1
  W  W0  1  0.33423800  0.66576200  0.18981900  1
  W  W1  1  0.66721000  0.33279000  0.32177600  1
  W  W2  1  0.66721000  0.33279000  0.67822400  1
  W  W3  1  0.33423800  0.66576200  0.81018100  1
loop_
_geom_bond_atom_site_label_1
_geom_bond_atom_site_label_2
_geom_bond_distance
_geom_bond_site_symmetry_2
Cr0 Cr2 2.365068 1_455
Cr0 Cr3 2.365068 1_565
Cr0 Si3 2.387661 1_555
Cr0 Si2 2.398684 1_455
Cr0 Si1 2.398684 1_565
Cr0 Si0 2.420847 1_465
Cr0 W0 2.838936 1_455
Cr0 W0 2.838936 1_565
Cr0 W1 2.840045 1_455
Cr0 W1 2.840045 1_565
Cr0 W0 2.841927 1_555
Cr0 W1 2.902427 1_465
Cr1 Cr2 2.365068 1_456
Cr1 Cr3 2.365068 1_566
Cr1 Si3 2.387661 1_555
Cr1 Si2 2.398684 1_455
Cr1 Si1 2.398684 1_565
Cr1 Si0 2.420847 1_466
Cr1 W3 2.838936 1_455
Cr1 W3 2.838936 1_565
Cr1 W2 2.840045 1_455
Cr1 W2 2.840045 1_565
Cr1 W3 2.841927 1_555
Cr1 W2 2.902427 1_465
Cr2 Cr3 2.340314 1_555
Cr2 Si0 2.385022 1_555
Cr2 Cr3 2.481218 1_665
Cr2 Si0 2.490581 1_565
Cr2 W0 2.804815 1_555
Cr2 W3 2.804815 1_554
Cr2 W1 2.826022 1_555
Cr2 W2 2.826022 1_554
Cr2 W0 2.873614 1_655
Cr2 W3 2.873614 1_654
Cr3 Si0 2.385022 1_555
Cr3 Si0 2.490581 1_455
Cr3 W0 2.804815 1_555
Cr3 W3 2.804815 1_554
Cr3 W1 2.826022 1_555
Cr3 W2 2.826022 1_554
Cr3 W0 2.873614 1_545
Cr3 W3 2.873614 1_544
Si0 W1 2.811564 1_555
Si0 W2 2.811564 1_554
Si0 W0 2.816715 1_545
Si0 W0 2.816715 1_655
Si0 W3 2.816715 1_544
Si0 W3 2.816715 1_654
Si1 Si2 2.384556 1_555
Si1 Si3 2.414960 1_555
Si1 Si2 2.436976 1_445
Si1 Si3 2.460600 1_545
Si1 W3 2.749968 1_555
Si1 W0 2.749968 1_555
Si1 W2 2.793474 1_555
Si1 W1 2.793474 1_555
Si1 W2 2.795730 1_455
Si1 W1 2.795730 1_455
Si2 Si3 2.414960 1_555
Si2 Si3 2.460600 1_655
Si2 W3 2.749968 1_555
Si2 W0 2.749968 1_555
Si2 W2 2.793474 1_555
Si2 W1 2.793474 1_555
Si2 W2 2.795730 1_565
Si2 W1 2.795730 1_565
Si3 W3 2.760901 1_555
Si3 W0 2.760901 1_555
Si3 W2 2.771062 1_455
Si3 W1 2.771062 1_455
Si3 W2 2.771062 1_565
Si3 W1 2.771062 1_565
W0 W1 2.973097 1_455
W0 W1 2.973097 1_565
W0 W1 2.997996 1_555
W1 W2 2.732638 1_555
W2 W3 2.973097 1_655
W2 W3 2.973097 1_545
W2 W3 2.997996 1_555
