# generated using pymatgen
data_MgVAgO4
_symmetry_space_group_name_H-M   'P 1'
_cell_length_a   5.39778500
_cell_length_b   6.81654600
_cell_length_c   9.57968500
_cell_angle_alpha   90.00000000
_cell_angle_beta   90.00000000
_cell_angle_gamma   90.00000000
_symmetry_Int_Tables_number   1
_chemical_formula_structural   MgVAgO4
_chemical_formula_sum   'Mg4 V4 Ag4 O16'
_cell_volume   352.47732242
_cell_formula_units_Z   4
loop_
 _symmetry_equiv_pos_site_id
 _symmetry_equiv_pos_as_xyz
  1  'x, y, z'
loop_
 _atom_site_type_symbol
 _atom_site_label
 _atom_site_symmetry_multiplicity
 _atom_site_fract_x
 _atom_site_fract_y
 _atom_site_fract_z
 _atom_site_occupancy
  Mg  Mg0  1  0.50000000  0.50000000  0.50000000  1
  Mg  Mg1  1  0.00000000  0.00000000  0.00000000  1
  Mg  Mg2  1  0.50000000  0.00000000  0.50000000  1
  Mg  Mg3  1  0.00000000  0.50000000  0.00000000  1
  V  V0  1  0.47527100  0.75000000  0.17947200  1
  V  V1  1  0.02472900  0.75000000  0.67947200  1
  V  V2  1  0.52472900  0.25000000  0.82052800  1
  V  V3  1  0.97527100  0.25000000  0.32052800  1
  Ag  Ag0  1  0.50149500  0.25000000  0.14987100  1
  Ag  Ag1  1  0.99850500  0.25000000  0.64987100  1
  Ag  Ag2  1  0.49850500  0.75000000  0.85012900  1
  Ag  Ag3  1  0.00149500  0.75000000  0.35012900  1
  O  O0  1  0.44018600  0.75000000  0.36736700  1
  O  O1  1  0.05981400  0.75000000  0.86736700  1
  O  O2  1  0.55981400  0.25000000  0.63263300  1
  O  O3  1  0.94018600  0.25000000  0.13263300  1
  O  O4  1  0.78430300  0.75000000  0.11608500  1
  O  O5  1  0.71569700  0.75000000  0.61608500  1
  O  O6  1  0.21569700  0.25000000  0.88391500  1
  O  O7  1  0.28430300  0.25000000  0.38391500  1
  O  O8  1  0.31378700  0.94934800  0.11521900  1
  O  O9  1  0.18621300  0.55065200  0.61521900  1
  O  O10  1  0.68621300  0.44934800  0.88478100  1
  O  O11  1  0.81378700  0.05065200  0.38478100  1
  O  O12  1  0.68621300  0.05065200  0.88478100  1
  O  O13  1  0.81378700  0.44934800  0.38478100  1
  O  O14  1  0.31378700  0.55065200  0.11521900  1
  O  O15  1  0.18621300  0.94934800  0.61521900  1
loop_
_geom_bond_atom_site_label_1
_geom_bond_atom_site_label_2
_geom_bond_distance
_geom_bond_site_symmetry_2
Mg0 O13 2.050928 1_555
Mg0 O9 2.050928 1_555
Mg0 O2 2.150047 1_555
Mg0 O0 2.150047 1_555
Mg0 O5 2.344422 1_555
Mg0 O7 2.344422 1_555
Mg1 O8 2.050928 1_545
Mg1 O12 2.050928 1_454
Mg1 O1 2.150047 1_544
Mg1 O3 2.150047 1_455
Mg1 O4 2.344422 1_445
Mg1 O6 2.344422 1_554
Mg2 O11 2.050928 1_555
Mg2 O15 2.050928 1_545
Mg2 O2 2.150047 1_555
Mg2 O0 2.150047 1_545
Mg2 O5 2.344422 1_545
Mg2 O7 2.344422 1_555
Mg3 O14 2.050928 1_555
Mg3 O10 2.050928 1_454
Mg3 O1 2.150047 1_554
Mg3 O3 2.150047 1_455
Mg3 O6 2.344422 1_554
Mg3 O4 2.344422 1_455
Ag0 O14 2.310164 1_555
Ag0 O8 2.310164 1_545
Ag0 O3 2.373711 1_555
Ag0 O7 2.530076 1_555
Ag1 O9 2.310164 1_655
Ag1 O15 2.310164 1_645
Ag1 O2 2.373711 1_555
Ag1 O6 2.530076 1_655
Ag2 O12 2.310164 1_565
Ag2 O10 2.310164 1_555
Ag2 O1 2.373711 1_555
Ag2 O5 2.530076 1_555
Ag3 O11 2.310164 1_465
Ag3 O13 2.310164 1_455
Ag3 O0 2.373711 1_555
Ag3 O4 2.530076 1_455
O0 V0 1.809910 1_555
O1 V1 1.809910 1_555
O2 V2 1.809910 1_555
O3 V3 1.809910 1_555
O4 V0 1.775174 1_555
O5 V1 1.775174 1_655
O6 V2 1.775174 1_555
O7 V3 1.775174 1_455
O8 V0 1.727764 1_555
O9 V1 1.727764 1_555
O10 V2 1.727764 1_555
O11 V3 1.727764 1_555
O12 V2 1.727764 1_555
O13 V3 1.727764 1_555
O14 V0 1.727764 1_555
O15 V1 1.727764 1_555
