# generated using pymatgen
data_Mg2TlHg
_symmetry_space_group_name_H-M   'P 1'
_cell_length_a   12.84146144
_cell_length_b   12.52297555
_cell_length_c   12.52297626
_cell_angle_alpha   59.45355620
_cell_angle_beta   59.15508411
_cell_angle_gamma   59.15508189
_symmetry_Int_Tables_number   1
_chemical_formula_structural   Mg2TlHg
_chemical_formula_sum   'Mg2 Tl1 Hg1'
_cell_volume   1399.81203243
_cell_formula_units_Z   1
loop_
 _symmetry_equiv_pos_site_id
 _symmetry_equiv_pos_as_xyz
  1  'x, y, z'
loop_
 _atom_site_type_symbol
 _atom_site_label
 _atom_site_symmetry_multiplicity
 _atom_site_fract_x
 _atom_site_fract_y
 _atom_site_fract_z
 _atom_site_occupancy
  Mg  Mg0  1  0.75523666  0.00000000  0.00000000  1
  Mg  Mg1  1  0.24476334  1.00000000  1.00000000  1
  Tl  Tl0  1  0.50000000  0.00000000  0.00000000  1
  Hg  Hg0  1  -0.00000000  0.00000000  0.00000000  1
loop_
_geom_bond_atom_site_label_1
_geom_bond_atom_site_label_2
_geom_bond_distance
_geom_bond_site_symmetry_2
Mg0 Tl0 3.277612 1_555
Mg1 Tl0 3.277612 1_566
Hg0 Mg1 3.143119 1_544
Hg0 Mg0 3.143119 1_455
