# generated using pymatgen
data_Y3Mg2MnS8
_symmetry_space_group_name_H-M   'P 1'
_cell_length_a   7.81025112
_cell_length_b   7.72975310
_cell_length_c   7.81537039
_cell_angle_alpha   59.49770864
_cell_angle_beta   60.07628540
_cell_angle_gamma   59.53385026
_symmetry_Int_Tables_number   1
_chemical_formula_structural   Y3Mg2MnS8
_chemical_formula_sum   'Y3 Mg2 Mn1 S8'
_cell_volume   331.35493021
_cell_formula_units_Z   1
loop_
 _symmetry_equiv_pos_site_id
 _symmetry_equiv_pos_as_xyz
  1  'x, y, z'
loop_
 _atom_site_type_symbol
 _atom_site_label
 _atom_site_symmetry_multiplicity
 _atom_site_fract_x
 _atom_site_fract_y
 _atom_site_fract_z
 _atom_site_occupancy
  Y  Y0  1  0.50001300  0.50002200  0.49996300  1
  Y  Y1  1  0.50000400  0.49999100  0.99998900  1
  Y  Y2  1  0.99999900  0.50000000  0.49998300  1
  Mg  Mg0  1  0.87529000  0.87414500  0.87539500  1
  Mg  Mg1  1  0.12472100  0.12584300  0.12458600  1
  Mn  Mn0  1  0.49994700  0.99999500  0.50017200  1
  S  S0  1  0.73141600  0.76668700  0.73122700  1
  S  S1  1  0.26717600  0.23516800  0.73077600  1
  S  S2  1  0.25447500  0.73637100  0.25423700  1
  S  S3  1  0.73067800  0.23510600  0.26732500  1
  S  S4  1  0.74552600  0.26362600  0.74572300  1
  S  S5  1  0.26932100  0.76489700  0.73265000  1
  S  S6  1  0.26859600  0.23329800  0.26877500  1
  S  S7  1  0.73284100  0.76484600  0.26920200  1
loop_
_geom_bond_atom_site_label_1
_geom_bond_atom_site_label_2
_geom_bond_distance
_geom_bond_site_symmetry_2
Mg0 S4 2.439521 1_565
Mg0 S7 2.514230 1_556
Mg0 S5 2.514806 1_655
Mg0 S0 2.526233 1_555
Mg1 S2 2.439466 1_545
Mg1 S1 2.514238 1_554
Mg1 S3 2.514877 1_455
Mg1 S6 2.526358 1_555
Mn0 S0 2.535038 1_555
Mn0 S6 2.536277 1_565
Mn0 S5 2.559383 1_555
Mn0 S3 2.560033 1_565
Mn0 S1 2.561904 1_565
Mn0 S7 2.563802 1_555
S0 Y1 2.742879 1_555
S0 Y2 2.744188 1_555
S1 Y2 2.733778 1_455
S1 Y0 2.739670 1_555
S2 Y0 2.695054 1_555
S2 Y2 2.699806 1_455
S2 Y1 2.700942 1_554
S3 Y1 2.734140 1_554
S3 Y0 2.741362 1_555
S4 Y0 2.695089 1_555
S4 Y2 2.699804 1_555
S4 Y1 2.700964 1_555
S5 Y1 2.734207 1_555
S5 Y0 2.741387 1_555
S6 Y1 2.742852 1_554
S6 Y2 2.744089 1_455
S7 Y2 2.733614 1_555
S7 Y0 2.739467 1_555
