# generated using pymatgen
data_CuCS
_symmetry_space_group_name_H-M   'P 1'
_cell_length_a   3.60660200
_cell_length_b   8.37673400
_cell_length_c   8.37673400
_cell_angle_alpha   90.00000000
_cell_angle_beta   90.00000000
_cell_angle_gamma   90.00000000
_symmetry_Int_Tables_number   1
_chemical_formula_structural   CuCS
_chemical_formula_sum   'Cu4 C4 S4'
_cell_volume   253.07408120
_cell_formula_units_Z   4
loop_
 _symmetry_equiv_pos_site_id
 _symmetry_equiv_pos_as_xyz
  1  'x, y, z'
loop_
 _atom_site_type_symbol
 _atom_site_label
 _atom_site_symmetry_multiplicity
 _atom_site_fract_x
 _atom_site_fract_y
 _atom_site_fract_z
 _atom_site_occupancy
  Cu  Cu0  1  0.50000000  0.85959200  0.05937200  1
  Cu  Cu1  1  0.50000000  0.14040800  0.94062800  1
  Cu  Cu2  1  0.00000000  0.05937200  0.14040800  1
  Cu  Cu3  1  0.00000000  0.94062800  0.85959200  1
  C  C0  1  0.50000000  0.59620200  0.79311700  1
  C  C1  1  0.50000000  0.40379800  0.20688300  1
  C  C2  1  0.00000000  0.79311700  0.40379800  1
  C  C3  1  0.00000000  0.20688300  0.59620200  1
  S  S0  1  0.50000000  0.78350800  0.75710800  1
  S  S1  1  0.50000000  0.21649200  0.24289200  1
  S  S2  1  0.00000000  0.75710800  0.21649200  1
  S  S3  1  0.00000000  0.24289200  0.78350800  1
loop_
_geom_bond_atom_site_label_1
_geom_bond_atom_site_label_2
_geom_bond_distance
_geom_bond_site_symmetry_2
Cu0 S2 2.391891 1_555
Cu0 S2 2.391891 1_655
Cu0 S0 2.610966 1_554
Cu1 S3 2.391891 1_555
Cu1 S3 2.391891 1_655
Cu1 S1 2.610966 1_556
Cu2 S1 2.391891 1_555
Cu2 S1 2.391891 1_455
Cu2 S2 2.610966 1_545
Cu3 S0 2.391891 1_555
Cu3 S0 2.391891 1_455
Cu3 S3 2.610966 1_565
C0 S0 1.597744 1_555
C1 S1 1.597744 1_555
C2 S2 1.597744 1_555
C3 S3 1.597744 1_555
