# generated using pymatgen
data_TaPRh
_symmetry_space_group_name_H-M   'P 1'
_cell_length_a   3.78194300
_cell_length_b   6.31153200
_cell_length_c   7.21280500
_cell_angle_alpha   90.00000000
_cell_angle_beta   90.00000000
_cell_angle_gamma   90.00000000
_symmetry_Int_Tables_number   1
_chemical_formula_structural   TaPRh
_chemical_formula_sum   'Ta4 P4 Rh4'
_cell_volume   172.16860420
_cell_formula_units_Z   4
loop_
 _symmetry_equiv_pos_site_id
 _symmetry_equiv_pos_as_xyz
  1  'x, y, z'
loop_
 _atom_site_type_symbol
 _atom_site_label
 _atom_site_symmetry_multiplicity
 _atom_site_fract_x
 _atom_site_fract_y
 _atom_site_fract_z
 _atom_site_occupancy
  Ta  Ta0  1  0.25000000  0.03061500  0.83331100  1
  Ta  Ta1  1  0.25000000  0.53061500  0.66668900  1
  Ta  Ta2  1  0.75000000  0.96938500  0.16668900  1
  Ta  Ta3  1  0.75000000  0.46938500  0.33331100  1
  P  P0  1  0.25000000  0.76217200  0.37437400  1
  P  P1  1  0.25000000  0.26217200  0.12562600  1
  P  P2  1  0.75000000  0.23782800  0.62562600  1
  P  P3  1  0.75000000  0.73782800  0.87437400  1
  Rh  Rh0  1  0.25000000  0.14817200  0.43565000  1
  Rh  Rh1  1  0.25000000  0.64817200  0.06435000  1
  Rh  Rh2  1  0.75000000  0.85182800  0.56435000  1
  Rh  Rh3  1  0.75000000  0.35182800  0.93565000  1
loop_
_geom_bond_atom_site_label_1
_geom_bond_atom_site_label_2
_geom_bond_distance
_geom_bond_site_symmetry_2
P0 Rh1 2.349050 1_555
P0 Rh2 2.402830 1_555
P0 Rh2 2.402830 1_455
P0 Rh0 2.476017 1_565
P0 Ta1 2.565408 1_555
P0 Ta3 2.660518 1_455
P0 Ta3 2.660518 1_555
P0 Ta2 2.744116 1_555
P0 Ta2 2.744116 1_455
P1 Rh0 2.349050 1_555
P1 Rh3 2.402830 1_554
P1 Rh3 2.402830 1_454
P1 Rh1 2.476017 1_555
P1 Ta0 2.565408 1_554
P1 Ta2 2.660518 1_445
P1 Ta2 2.660518 1_545
P1 Ta3 2.744116 1_455
P1 Ta3 2.744116 1_555
P2 Rh3 2.349050 1_555
P2 Rh0 2.402830 1_555
P2 Rh0 2.402830 1_655
P2 Rh2 2.476017 1_545
P2 Ta3 2.565408 1_555
P2 Ta1 2.660518 1_555
P2 Ta1 2.660518 1_655
P2 Ta0 2.744116 1_555
P2 Ta0 2.744116 1_655
P3 Rh2 2.349050 1_555
P3 Rh1 2.402830 1_556
P3 Rh1 2.402830 1_656
P3 Rh3 2.476017 1_555
P3 Ta2 2.565408 1_556
P3 Ta0 2.660518 1_665
P3 Ta0 2.660518 1_565
P3 Ta1 2.744116 1_655
P3 Ta1 2.744116 1_555
Rh0 Ta3 2.868932 1_555
Rh0 Ta3 2.868932 1_455
Rh0 Ta1 2.933165 1_555
Rh0 Ta2 2.934717 1_545
Rh0 Ta2 2.934717 1_445
Rh0 Ta0 2.962664 1_555
Rh1 Ta2 2.868932 1_555
Rh1 Ta2 2.868932 1_455
Rh1 Ta0 2.933165 1_564
Rh1 Ta3 2.934717 1_455
Rh1 Ta3 2.934717 1_555
Rh1 Ta1 2.962664 1_554
Rh2 Ta1 2.868932 1_655
Rh2 Ta1 2.868932 1_555
Rh2 Ta3 2.933165 1_555
Rh2 Ta0 2.934717 1_565
Rh2 Ta0 2.934717 1_665
Rh2 Ta2 2.962664 1_555
Rh3 Ta0 2.868932 1_655
Rh3 Ta0 2.868932 1_555
Rh3 Ta2 2.933165 1_546
Rh3 Ta1 2.934717 1_655
Rh3 Ta1 2.934717 1_555
Rh3 Ta3 2.962664 1_556
