# generated using pymatgen
data_Ti6Al16Ir7
_symmetry_space_group_name_H-M   'P 1'
_cell_length_a   8.54101272
_cell_length_b   8.54098343
_cell_length_c   8.54100980
_cell_angle_alpha   60.00023684
_cell_angle_beta   60.00009155
_cell_angle_gamma   60.00001690
_symmetry_Int_Tables_number   1
_chemical_formula_structural   Ti6Al16Ir7
_chemical_formula_sum   'Ti6 Al16 Ir7'
_cell_volume   440.56764923
_cell_formula_units_Z   1
loop_
 _symmetry_equiv_pos_site_id
 _symmetry_equiv_pos_as_xyz
  1  'x, y, z'
loop_
 _atom_site_type_symbol
 _atom_site_label
 _atom_site_symmetry_multiplicity
 _atom_site_fract_x
 _atom_site_fract_y
 _atom_site_fract_z
 _atom_site_occupancy
  Ti  Ti0  1  0.67703409  0.67702899  0.32296348  1
  Ti  Ti1  1  0.32295832  0.67703904  0.32295115  1
  Ti  Ti2  1  0.67702907  0.32296825  0.32296621  1
  Ti  Ti3  1  0.32297134  0.32296532  0.67702653  1
  Ti  Ti4  1  0.67704779  0.32295046  0.67704323  1
  Ti  Ti5  1  0.32296306  0.67703443  0.67703644  1
  Al  Al0  1  0.87972739  0.87973237  0.36081797  1
  Al  Al1  1  0.87972650  0.36081752  0.87973273  1
  Al  Al2  1  0.36081858  0.87972923  0.87973056  1
  Al  Al3  1  0.87972428  0.87972919  0.87972880  1
  Al  Al4  1  0.12027240  0.12027713  0.63918146  1
  Al  Al5  1  0.12027287  0.63918185  0.12027735  1
  Al  Al6  1  0.63918288  0.12027592  0.12027517  1
  Al  Al7  1  0.12026884  0.12027408  0.12027504  1
  Al  Al8  1  0.65840964  0.65839836  0.02478008  1
  Al  Al9  1  0.65840615  0.02477226  0.65840325  1
  Al  Al10  1  0.02476908  0.65840070  0.65840849  1
  Al  Al11  1  0.65841840  0.65840709  0.65840540  1
  Al  Al12  1  0.34158886  0.34158394  0.97522781  1
  Al  Al13  1  0.34159287  0.97523646  0.34157751  1
  Al  Al14  1  0.97522481  0.34159276  0.34158342  1
  Al  Al15  1  0.34159842  0.34159059  0.34159057  1
  Ir  Ir0  1  -0.00000402  0.00000186  0.00000212  1
  Ir  Ir1  1  0.00001109  -0.00000856  0.50000856  1
  Ir  Ir2  1  0.49999569  -0.00001107  0.50000588  1
  Ir  Ir3  1  -0.00000918  0.50000861  0.50000848  1
  Ir  Ir4  1  0.49999604  0.50000659  -0.00001043  1
  Ir  Ir5  1  0.00000915  0.50000975  -0.00000750  1
  Ir  Ir6  1  0.49999659  0.00000689  0.00001023  1
loop_
_geom_bond_atom_site_label_1
_geom_bond_atom_site_label_2
_geom_bond_distance
_geom_bond_site_symmetry_2
Ti0 Ti2 3.024037 1_555
Ti0 Ti5 3.024137 1_555
Ti0 Ti1 3.024175 1_555
Ti0 Ti4 3.024200 1_555
Ti1 Ti2 3.024119 1_555
Ti1 Ti3 3.024160 1_555
Ti1 Ti5 3.024246 1_555
Ti2 Ti3 3.024026 1_555
Ti2 Ti4 3.024179 1_555
Ti3 Ti5 3.024105 1_555
Ti3 Ti4 3.024179 1_555
Ti4 Ti5 3.024235 1_555
Al0 Ir0 2.516230 1_665
Al0 Ir3 2.649722 1_655
Al0 Ir2 2.649781 1_565
Al0 Ir1 2.649787 1_665
Al0 Ti1 3.196026 1_655
Al0 Ti2 3.196081 1_565
Al0 Ti0 3.196192 1_555
Al1 Ir0 2.516219 1_656
Al1 Ir3 2.649736 1_655
Al1 Ir4 2.649772 1_556
Al1 Ir5 2.649796 1_656
Al1 Ti4 3.196054 1_555
Al1 Ti2 3.196081 1_556
Al1 Ti3 3.196158 1_655
Al2 Ir0 2.516272 1_566
Al2 Ir4 2.649710 1_556
Al2 Ir2 2.649735 1_565
Al2 Ir6 2.649797 1_566
Al2 Ti1 3.195969 1_556
Al2 Ti3 3.196097 1_565
Al2 Ti5 3.196137 1_555
Al3 Ir0 2.516232 1_666
Al3 Ir5 2.649686 1_656
Al3 Ir1 2.649702 1_665
Al3 Ir6 2.649748 1_566
Al3 Ti4 3.195967 1_565
Al3 Ti0 3.196104 1_556
Al3 Ti5 3.196111 1_655
Al4 Ir0 2.516263 1_556
Al4 Ir1 2.649689 1_555
Al4 Ir2 2.649720 1_555
Al4 Ir3 2.649771 1_555
Al4 Ti4 3.195989 1_455
Al4 Ti3 3.196070 1_555
Al4 Ti5 3.196125 1_545
Al5 Ir0 2.516249 1_565
Al5 Ir5 2.649694 1_555
Al5 Ir4 2.649719 1_555
Al5 Ir3 2.649778 1_555
Al5 Ti1 3.195934 1_555
Al5 Ti0 3.196123 1_455
Al5 Ti5 3.196130 1_554
Al6 Ir0 2.516206 1_655
Al6 Ir6 2.649696 1_555
Al6 Ir4 2.649768 1_555
Al6 Ir2 2.649779 1_555
Al6 Ti4 3.196044 1_554
Al6 Ti2 3.196045 1_555
Al6 Ti0 3.196169 1_545
Al7 Ir0 2.516234 1_555
Al7 Ir6 2.649756 1_555
Al7 Ir1 2.649799 1_555
Al7 Ir5 2.649804 1_555
Al7 Ti1 3.196049 1_545
Al7 Ti2 3.196113 1_455
Al7 Ti3 3.196186 1_554
Al8 Ir4 2.471620 1_555
Al8 Ir5 2.471658 1_655
Al8 Ir6 2.471751 1_565
Al8 Ti2 2.715199 1_555
Al8 Ti0 2.715223 1_555
Al8 Ti1 2.715242 1_555
Al9 Ir2 2.471602 1_555
Al9 Ir1 2.471713 1_655
Al9 Ir6 2.471758 1_556
Al9 Ti3 2.715240 1_555
Al9 Ti2 2.715271 1_555
Al9 Ti4 2.715297 1_555
Al10 Ir3 2.471453 1_555
Al10 Ir5 2.471602 1_556
Al10 Ir1 2.471648 1_565
Al10 Ti3 2.715276 1_555
Al10 Ti1 2.715340 1_555
Al10 Ti5 2.715345 1_555
Al11 Ir3 2.471477 1_655
Al11 Ir2 2.471581 1_565
Al11 Ir4 2.471602 1_556
Al11 Ti0 2.715320 1_555
Al11 Ti4 2.715324 1_555
Al11 Ti5 2.715356 1_555
Al12 Ir6 2.471494 1_556
Al12 Ir5 2.471557 1_556
Al12 Ir4 2.471645 1_556
Al12 Ti3 2.715285 1_555
Al12 Ti5 2.715315 1_555
Al12 Ti4 2.715329 1_555
Al13 Ir6 2.471456 1_565
Al13 Ir1 2.471593 1_565
Al13 Ir2 2.471607 1_565
Al13 Ti0 2.715325 1_555
Al13 Ti1 2.715362 1_555
Al13 Ti5 2.715397 1_555
Al14 Ir5 2.471605 1_655
Al14 Ir1 2.471670 1_655
Al14 Ir3 2.471747 1_655
Al14 Ti0 2.715237 1_555
Al14 Ti2 2.715266 1_555
Al14 Ti4 2.715306 1_555
Al15 Ir2 2.471669 1_555
Al15 Ir4 2.471675 1_555
Al15 Ir3 2.471747 1_555
Al15 Ti2 2.715190 1_555
Al15 Ti1 2.715209 1_555
Al15 Ti3 2.715214 1_555
Ir1 Ti5 3.145572 1_545
Ir1 Ti4 3.145641 1_455
Ir1 Ti1 3.145668 1_545
Ir1 Ti2 3.145839 1_455
Ir2 Ti5 3.145601 1_545
Ir2 Ti0 3.145676 1_545
Ir2 Ti3 3.145697 1_555
Ir2 Ti2 3.145776 1_555
Ir3 Ti1 3.145644 1_555
Ir3 Ti4 3.145659 1_455
Ir3 Ti3 3.145694 1_555
Ir3 Ti0 3.145711 1_455
Ir4 Ti5 3.145603 1_554
Ir4 Ti4 3.145636 1_554
Ir4 Ti1 3.145636 1_555
Ir4 Ti2 3.145762 1_555
Ir5 Ti5 3.145572 1_554
Ir5 Ti0 3.145671 1_455
Ir5 Ti3 3.145724 1_554
Ir5 Ti2 3.145822 1_455
Ir6 Ti4 3.145638 1_554
Ir6 Ti0 3.145657 1_545
Ir6 Ti1 3.145681 1_545
Ir6 Ti3 3.145750 1_554
