# generated using pymatgen
data_Li6MnV3(PO4)6
_symmetry_space_group_name_H-M   'P 1'
_cell_length_a   9.07256276
_cell_length_b   8.47599437
_cell_length_c   14.66261172
_cell_angle_alpha   90.43285371
_cell_angle_beta   74.42473293
_cell_angle_gamma   61.81878464
_symmetry_Int_Tables_number   1
_chemical_formula_structural   Li6MnV3(PO4)6
_chemical_formula_sum   'Li12 Mn2 V6 P12 O48'
_cell_volume   945.32071304
_cell_formula_units_Z   2
loop_
 _symmetry_equiv_pos_site_id
 _symmetry_equiv_pos_as_xyz
  1  'x, y, z'
loop_
 _atom_site_type_symbol
 _atom_site_label
 _atom_site_symmetry_multiplicity
 _atom_site_fract_x
 _atom_site_fract_y
 _atom_site_fract_z
 _atom_site_occupancy
  Li  Li0  1  0.15124700  0.25343900  0.33133000  1
  Li  Li1  1  0.14943200  0.79578200  0.13173200  1
  Li  Li2  1  0.15026700  0.29558300  0.63210500  1
  Li  Li3  1  0.15049300  0.72622700  0.46064200  1
  Li  Li4  1  0.15018700  0.22603700  0.96172500  1
  Li  Li5  1  0.14918800  0.75458500  0.83211000  1
  Li  Li6  1  0.84989100  0.24455300  0.16794500  1
  Li  Li7  1  0.84928300  0.77555200  0.03908800  1
  Li  Li8  1  0.85245000  0.27233600  0.53909000  1
  Li  Li9  1  0.84890400  0.70468400  0.36865900  1
  Li  Li10  1  0.84909700  0.20387400  0.86827100  1
  Li  Li11  1  0.84935900  0.74788600  0.66867400  1
  Mn  Mn0  1  0.56085900  0.22132800  0.07148600  1
  Mn  Mn1  1  0.95682400  0.02175400  0.67360700  1
  V  V0  1  0.04624300  0.97653100  0.32595000  1
  V  V1  1  0.04498800  0.47762000  0.82602900  1
  V  V2  1  0.43839700  0.28038000  0.42691100  1
  V  V3  1  0.56263400  0.71952700  0.57305600  1
  V  V4  1  0.43672400  0.78147600  0.92798000  1
  V  V5  1  0.95336100  0.52318200  0.17402300  1
  P  P0  1  0.25004700  0.08286900  0.12574600  1
  P  P1  1  0.25246900  0.02128100  0.47849700  1
  P  P2  1  0.25189300  0.51855000  0.26828800  1
  P  P3  1  0.25060100  0.02050000  0.77061600  1
  P  P4  1  0.25098500  0.58410400  0.62528400  1
  P  P5  1  0.24955500  0.52086800  0.97886900  1
  P  P6  1  0.75090900  0.48104400  0.02091100  1
  P  P7  1  0.74908000  0.41546500  0.37470400  1
  P  P8  1  0.75107000  0.97829800  0.22955700  1
  P  P9  1  0.74972000  0.47966300  0.72983800  1
  P  P10  1  0.74994600  0.98028100  0.52012200  1
  P  P11  1  0.74583000  0.91483800  0.87687400  1
  O  O0  1  0.09727800  0.25960400  0.10495500  1
  O  O1  1  0.18908800  0.06699800  0.23356100  1
  O  O2  1  0.09711800  0.61597700  0.07753500  1
  O  O3  1  0.09897800  0.12412200  0.57432600  1
  O  O4  1  0.10004700  0.47620300  0.26746300  1
  O  O5  1  0.41876100  0.08892600  0.10060400  1
  O  O6  1  0.27359400  0.17431000  0.42842300  1
  O  O7  1  0.19428300  0.71729000  0.25220600  1
  O  O8  1  0.19339600  0.21913100  0.75374900  1
  O  O9  1  0.26924000  0.49627000  0.37038300  1
  O  O10  1  0.42480300  0.38770200  0.19186400  1
  O  O11  1  0.09513900  0.75811800  0.60457800  1
  O  O12  1  0.26365100  0.92521700  0.06219300  1
  O  O13  1  0.26844700  0.42480500  0.56153400  1
  O  O14  1  0.58188700  0.10886900  0.30598700  1
  O  O15  1  0.19240600  0.56655800  0.73271800  1
  O  O16  1  0.19485600  0.92440400  0.41608800  1
  O  O17  1  0.19128400  0.42563700  0.91629700  1
  O  O18  1  0.73654700  0.99881400  0.12741300  1
  O  O19  1  0.58093300  0.61441100  0.00334600  1
  O  O20  1  0.57941500  0.11381000  0.50219300  1
  O  O21  1  0.09725900  0.97902200  0.77203200  1
  O  O22  1  0.73939900  0.32389700  0.06849000  1
  O  O23  1  0.58000500  0.40584600  0.40081600  1
  O  O24  1  0.41781400  0.59511500  0.59932100  1
  O  O25  1  0.26476300  0.67838300  0.93166100  1
  O  O26  1  0.90252100  0.02089900  0.23215500  1
  O  O27  1  0.42028100  0.88457600  0.49707700  1
  O  O28  1  0.42021500  0.38568300  0.99438600  1
  O  O29  1  0.26963800  0.99712000  0.87244800  1
  O  O30  1  0.80780500  0.57902300  0.08288900  1
  O  O31  1  0.80419200  0.07891300  0.58242500  1
  O  O32  1  0.80659300  0.43304000  0.26724400  1
  O  O33  1  0.42017100  0.89238900  0.69357000  1
  O  O34  1  0.73245300  0.57386100  0.43795800  1
  O  O35  1  0.72800400  0.07583500  0.94122100  1
  O  O36  1  0.90180900  0.24012800  0.39563500  1
  O  O37  1  0.57869700  0.61048500  0.80667800  1
  O  O38  1  0.73204300  0.50453000  0.62804100  1
  O  O39  1  0.80801600  0.77953200  0.24728700  1
  O  O40  1  0.80460500  0.28184300  0.74713900  1
  O  O41  1  0.73398600  0.82369900  0.56730400  1
  O  O42  1  0.57655000  0.90581100  0.90493100  1
  O  O43  1  0.90186300  0.52191400  0.73097000  1
  O  O44  1  0.90378500  0.88321700  0.42162300  1
  O  O45  1  0.90307000  0.38586400  0.92150600  1
  O  O46  1  0.80093400  0.93169700  0.77073400  1
  O  O47  1  0.90044300  0.74041400  0.89731900  1
loop_
_geom_bond_atom_site_label_1
_geom_bond_atom_site_label_2
_geom_bond_distance
_geom_bond_site_symmetry_2
Li0 O1 1.964493 1_555
Li0 O6 1.966859 1_555
Li0 O4 2.022306 1_555
Li0 O36 2.262747 1_455
Li1 O12 1.959687 1_555
Li1 O7 1.968921 1_555
Li1 O2 2.011684 1_555
Li1 O26 2.230716 1_465
Li2 O3 1.969309 1_555
Li2 O8 1.976632 1_555
Li2 O13 1.987591 1_555
Li2 O43 2.231734 1_455
Li3 O9 1.980702 1_555
Li3 O16 1.980977 1_555
Li3 O11 2.018263 1_555
Li3 O44 2.234695 1_455
Li4 O29 1.966341 1_545
Li4 O17 1.981005 1_555
Li4 O0 2.010600 1_556
Li4 O45 2.250069 1_455
Li5 O25 1.960561 1_555
Li5 O15 1.971130 1_555
Li5 O21 2.004610 1_555
Li5 O47 2.262872 1_455
Li6 O22 1.935666 1_555
Li6 O32 1.972693 1_555
Li6 O26 2.030137 1_555
Li6 O0 2.250738 1_655
Li7 O18 1.930778 1_555
Li7 O30 1.951244 1_555
Li7 O47 1.991758 1_554
Li7 O2 2.241127 1_655
Li8 O31 1.956412 1_555
Li8 O38 1.983226 1_555
Li8 O36 2.017296 1_555
Li8 O3 2.196386 1_655
Li9 O39 1.963788 1_555
Li9 O34 1.981236 1_555
Li9 O44 2.010590 1_555
Li9 O4 2.262070 1_655
Li10 O40 1.976114 1_555
Li10 O35 2.010352 1_555
Li10 O45 2.031997 1_555
Li10 O21 2.211999 1_645
Li11 O46 1.955745 1_555
Li11 O41 1.983029 1_555
Li11 O43 2.031773 1_555
Li11 O11 2.218453 1_655
Mn0 O10 1.943190 1_555
Mn0 O28 1.991560 1_554
Mn0 O35 2.027617 1_554
Mn0 O5 2.044970 1_555
Mn0 O18 2.157788 1_545
Mn0 O22 2.161946 1_555
Mn1 O40 2.053889 1_555
Mn1 O11 2.056136 1_645
Mn1 O31 2.076076 1_555
Mn1 O21 2.096833 1_645
Mn1 O46 2.136729 1_545
Mn1 O3 2.145492 1_655
O0 P0 1.590818 1_555
O0 V5 2.054774 1_455
O1 P0 1.557893 1_555
O1 V0 2.028342 1_545
O2 P5 1.584420 1_554
O2 V5 2.077520 1_455
O3 P1 1.567664 1_555
O4 P2 1.582018 1_555
O4 V5 2.072099 1_455
O5 P0 1.500990 1_555
O6 P1 1.559432 1_555
O6 V2 2.072808 1_555
O7 P2 1.551443 1_555
O7 V0 2.048912 1_555
O8 P3 1.554004 1_555
O8 V1 2.036826 1_555
O9 P2 1.550515 1_555
O9 V2 2.108133 1_555
O10 P2 1.529889 1_555
O11 P4 1.591959 1_555
O12 P0 1.559748 1_565
O12 V4 2.078481 1_554
O13 P4 1.556050 1_555
O13 V2 2.078126 1_555
O14 P8 1.513192 1_545
O14 V2 1.971251 1_555
O15 P4 1.553910 1_555
O15 V1 2.052853 1_555
O16 P1 1.560682 1_565
O16 V0 2.040345 1_555
O17 P5 1.557276 1_555
O17 V1 2.026687 1_555
O18 P8 1.542389 1_555
O19 P6 1.514416 1_555
O19 V4 1.997064 1_554
O20 P10 1.520770 1_545
O20 V2 1.981018 1_555
O21 P3 1.583051 1_565
O22 P6 1.542094 1_555
O23 P7 1.519681 1_555
O23 V2 1.990110 1_555
O24 P4 1.506338 1_555
O24 V3 2.007407 1_555
O25 P5 1.554772 1_555
O25 V4 2.107983 1_555
O26 P8 1.586307 1_545
O26 V0 2.059296 1_645
O27 P1 1.515270 1_565
O27 V3 1.988930 1_555
O28 P5 1.509773 1_555
O29 P3 1.552142 1_565
O29 V4 2.090469 1_555
O30 P6 1.558006 1_555
O30 V5 2.029858 1_555
O31 P10 1.547305 1_545
O32 P7 1.553245 1_555
O32 V5 2.055348 1_555
O33 P3 1.514069 1_565
O33 V3 1.971164 1_555
O34 P7 1.549256 1_555
O34 V3 2.085539 1_555
O35 P11 1.571194 1_545
O36 P7 1.585268 1_555
O36 V0 2.057710 1_645
O37 P9 1.524381 1_555
O37 V4 1.972461 1_555
O38 P9 1.549001 1_555
O38 V3 2.091715 1_555
O39 P8 1.558676 1_555
O39 V5 2.027752 1_555
O40 P9 1.552211 1_555
O41 P10 1.550029 1_555
O41 V3 2.104932 1_555
O42 P11 1.518540 1_555
O42 V4 1.967748 1_555
O43 P9 1.585225 1_555
O43 V1 2.071029 1_655
O44 P10 1.589256 1_555
O44 V0 2.067019 1_655
O45 P6 1.590848 1_556
O45 V1 2.053486 1_655
O46 P11 1.531474 1_555
O47 P11 1.586500 1_555
O47 V1 2.059995 1_655
