# generated using pymatgen
data_Mg7Si4
_symmetry_space_group_name_H-M   'P 1'
_cell_length_a   5.45303200
_cell_length_b   6.20695458
_cell_length_c   13.55967521
_cell_angle_alpha   102.86783954
_cell_angle_beta   95.88464210
_cell_angle_gamma   89.95914403
_symmetry_Int_Tables_number   1
_chemical_formula_structural   Mg7Si4
_chemical_formula_sum   'Mg14 Si8'
_cell_volume   444.95105965
_cell_formula_units_Z   2
loop_
 _symmetry_equiv_pos_site_id
 _symmetry_equiv_pos_as_xyz
  1  'x, y, z'
loop_
 _atom_site_type_symbol
 _atom_site_label
 _atom_site_symmetry_multiplicity
 _atom_site_fract_x
 _atom_site_fract_y
 _atom_site_fract_z
 _atom_site_occupancy
  Mg  Mg0  1  0.00969400  0.72284700  0.80960000  1
  Mg  Mg1  1  0.18104600  0.20102200  0.75697600  1
  Mg  Mg2  1  0.74558300  0.90240500  0.60878900  1
  Mg  Mg3  1  0.56838200  0.41236200  0.65438900  1
  Mg  Mg4  1  0.00857600  0.35113000  0.98729800  1
  Mg  Mg5  1  0.71902900  0.75884300  0.38033400  1
  Mg  Mg6  1  0.23805900  0.69930700  0.23790700  1
  Mg  Mg7  1  0.73491000  0.27025300  0.43557300  1
  Mg  Mg8  1  0.50349900  0.55725800  0.91834900  1
  Mg  Mg9  1  0.48123500  0.08447200  0.96954700  1
  Mg  Mg10  1  0.02313800  0.87649500  0.04575400  1
  Mg  Mg11  1  0.36421400  0.20314200  0.23429400  1
  Mg  Mg12  1  0.24607500  0.52676700  0.43523800  1
  Mg  Mg13  1  0.24936600  0.04047200  0.47577500  1
  Si  Si0  1  0.54872500  0.83355900  0.11385100  1
  Si  Si1  1  0.50948700  0.82053800  0.78210500  1
  Si  Si2  1  0.70568800  0.17705900  0.80328200  1
  Si  Si3  1  0.89767500  0.39020500  0.25683600  1
  Si  Si4  1  0.60955200  0.45303100  0.11828800  1
  Si  Si5  1  0.24008500  0.79418400  0.62587300  1
  Si  Si6  1  0.04662400  0.43346600  0.60571600  1
  Si  Si7  1  0.86945800  0.00228200  0.24792600  1
loop_
_geom_bond_atom_site_label_1
_geom_bond_atom_site_label_2
_geom_bond_distance
_geom_bond_site_symmetry_2
Mg0 Si1 2.799380 1_455
Mg0 Si1 2.871552 1_555
Mg0 Si6 2.968452 1_555
Mg0 Si5 3.019072 1_555
Mg1 Si2 2.740705 1_455
Mg1 Si5 2.785209 1_545
Mg1 Si6 2.798907 1_555
Mg1 Si2 2.876406 1_555
Mg1 Si1 3.021326 1_545
Mg2 Si5 2.777555 1_655
Mg2 Si2 2.832545 1_565
Mg2 Si5 2.882019 1_555
Mg2 Si1 2.931205 1_555
Mg3 Si6 2.765077 1_655
Mg3 Si1 2.771219 1_555
Mg3 Si2 2.787771 1_555
Mg3 Si6 2.863675 1_555
Mg3 Si5 3.038292 1_555
Mg4 Si2 2.842192 1_455
Mg4 Si4 2.929080 1_456
Mg5 Si3 2.759243 1_555
Mg5 Si7 2.773381 1_565
Mg6 Si3 2.741194 1_455
Mg6 Si7 2.744415 1_465
Mg6 Si0 2.757646 1_555
Mg6 Si4 2.938752 1_555
Mg7 Si6 2.719471 1_655
Mg7 Si7 2.876631 1_555
Mg7 Si3 2.908912 1_555
Mg8 Si1 2.727943 1_555
Mg8 Si0 2.805546 1_556
Mg8 Si2 2.815688 1_555
Mg8 Si4 2.926131 1_556
Mg9 Si1 2.718983 1_545
Mg9 Si4 2.729196 1_556
Mg9 Si0 2.756545 1_546
Mg9 Si2 2.838130 1_555
Mg10 Si0 2.866455 1_455
Mg10 Si7 2.888577 1_465
Mg10 Si0 2.950204 1_555
Mg11 Si0 2.758058 1_545
Mg11 Si3 2.812637 1_455
Mg11 Si4 2.862006 1_555
Mg11 Si7 3.012802 1_455
Mg11 Si7 3.028607 1_555
Mg11 Si3 3.093242 1_555
Mg12 Si5 2.746686 1_555
Mg12 Si6 2.823931 1_555
Mg12 Si3 2.885548 1_455
Mg13 Si5 2.808715 1_545
Mg13 Si6 2.959422 1_555
Si0 Si4 2.397997 1_555
Si0 Si7 2.442008 1_565
Si1 Si2 2.404463 1_565
Si1 Si5 2.424992 1_555
Si3 Si7 2.388099 1_555
Si3 Si4 2.422836 1_555
Si5 Si6 2.423270 1_555
