# generated using pymatgen
data_SrZnO5
_symmetry_space_group_name_H-M   'P 1'
_cell_length_a   4.49061500
_cell_length_b   5.37836305
_cell_length_c   5.60042462
_cell_angle_alpha   68.22412157
_cell_angle_beta   88.80905037
_cell_angle_gamma   87.04033117
_symmetry_Int_Tables_number   1
_chemical_formula_structural   SrZnO5
_chemical_formula_sum   'Sr1 Zn1 O5'
_cell_volume   125.44255963
_cell_formula_units_Z   1
loop_
 _symmetry_equiv_pos_site_id
 _symmetry_equiv_pos_as_xyz
  1  'x, y, z'
loop_
 _atom_site_type_symbol
 _atom_site_label
 _atom_site_symmetry_multiplicity
 _atom_site_fract_x
 _atom_site_fract_y
 _atom_site_fract_z
 _atom_site_occupancy
  Sr  Sr0  1  0.97863700  0.10121500  0.20347000  1
  Zn  Zn0  1  0.47508900  0.72134600  0.64416300  1
  O  O0  1  0.48125400  0.02684600  0.34793500  1
  O  O1  1  0.04537100  0.74508200  0.74059900  1
  O  O2  1  0.81588900  0.53554900  0.29955000  1
  O  O3  1  0.83117800  0.54016000  0.83152400  1
  O  O4  1  0.10098200  0.57360200  0.28996000  1
loop_
_geom_bond_atom_site_label_1
_geom_bond_atom_site_label_2
_geom_bond_distance
_geom_bond_site_symmetry_2
O0 Zn0 1.852864 1_545
O0 Sr0 2.362282 1_555
O0 Sr0 2.377282 1_455
O1 O3 1.439410 1_455
O1 Zn0 2.003526 1_555
O1 Sr0 2.917319 1_465
O2 O4 1.303778 1_655
O2 Sr0 2.649634 1_555
O2 Sr0 3.013012 1_565
O3 Zn0 1.938506 1_555
O3 Sr0 2.568699 1_556
O4 Sr0 2.723823 1_465
O4 Sr0 2.838972 1_455
