# generated using pymatgen
data_Ga2Co(SO)2
_symmetry_space_group_name_H-M   'P 1'
_cell_length_a   8.74920014
_cell_length_b   8.74920014
_cell_length_c   8.74920014
_cell_angle_alpha   155.09990136
_cell_angle_beta   155.09990136
_cell_angle_gamma   35.50285525
_symmetry_Int_Tables_number   1
_chemical_formula_structural   Ga2Co(SO)2
_chemical_formula_sum   'Ga2 Co1 S2 O2'
_cell_volume   118.58501251
_cell_formula_units_Z   1
loop_
 _symmetry_equiv_pos_site_id
 _symmetry_equiv_pos_as_xyz
  1  'x, y, z'
loop_
 _atom_site_type_symbol
 _atom_site_label
 _atom_site_symmetry_multiplicity
 _atom_site_fract_x
 _atom_site_fract_y
 _atom_site_fract_z
 _atom_site_occupancy
  Ga  Ga0  1  0.25000000  0.75000000  0.50000000  1
  Ga  Ga1  1  0.75000000  0.25000000  0.50000000  1
  Co  Co0  1  0.00000000  0.00000000  0.00000000  1
  S  S0  1  0.85577900  0.85577900  0.00000000  1
  S  S1  1  0.14422100  0.14422100  0.00000000  1
  O  O0  1  0.00000000  0.50000000  0.50000000  1
  O  O1  1  0.50000000  0.00000000  0.50000000  1
loop_
_geom_bond_atom_site_label_1
_geom_bond_atom_site_label_2
_geom_bond_distance
_geom_bond_site_symmetry_2
Ga0 S0 2.581751 1_455
Ga0 S0 2.581751 1_556
Ga0 S1 2.581751 1_566
Ga0 S1 2.581751 1_555
Ga1 S0 2.581751 1_556
Ga1 S0 2.581751 1_545
Ga1 S1 2.581751 1_555
Ga1 S1 2.581751 1_656
Co0 O0 1.886226 1_544
Co0 O1 1.886226 1_454
Co0 O1 1.886226 1_555
Co0 O0 1.886226 1_555
Co0 S1 2.403482 1_555
Co0 S0 2.403482 1_445
