# generated using pymatgen
data_Na5SrTaP4
_symmetry_space_group_name_H-M   'P 1'
_cell_length_a   9.27545768
_cell_length_b   9.27545768
_cell_length_c   7.34801931
_cell_angle_alpha   90.06249096
_cell_angle_beta   90.06249096
_cell_angle_gamma   119.88959534
_symmetry_Int_Tables_number   1
_chemical_formula_structural   Na5SrTaP4
_chemical_formula_sum   'Na10 Sr2 Ta2 P8'
_cell_volume   548.09099993
_cell_formula_units_Z   2
loop_
 _symmetry_equiv_pos_site_id
 _symmetry_equiv_pos_as_xyz
  1  'x, y, z'
loop_
 _atom_site_type_symbol
 _atom_site_label
 _atom_site_symmetry_multiplicity
 _atom_site_fract_x
 _atom_site_fract_y
 _atom_site_fract_z
 _atom_site_occupancy
  Na  Na0  1  0.53899039  0.47314977  0.61211438  1
  Na  Na1  1  0.93424990  0.47153118  0.61151108  1
  Na  Na2  1  0.47314977  0.53899039  0.11211438  1
  Na  Na3  1  0.47153118  0.93424990  0.11151108  1
  Na  Na4  1  0.13529987  0.85522068  0.77919525  1
  Na  Na5  1  0.71013423  0.84694520  0.79576956  1
  Na  Na6  1  0.14803248  0.28992804  0.77030761  1
  Na  Na7  1  0.85522068  0.13529987  0.27919525  1
  Na  Na8  1  0.28992804  0.14803248  0.27030761  1
  Na  Na9  1  0.84694520  0.71013423  0.29576956  1
  Sr  Sr0  1  0.53301252  0.06276509  0.60775714  1
  Sr  Sr1  1  0.06276509  0.53301252  0.10775714  1
  Ta  Ta0  1  0.33222281  0.66144017  0.50149294  1
  Ta  Ta1  1  0.66144017  0.33222281  0.00149294  1
  P  P0  1  0.80836966  0.19454855  0.89702994  1
  P  P1  1  0.38347353  0.19150863  0.89238224  1
  P  P2  1  0.80892657  0.61489169  0.90365731  1
  P  P3  1  0.19454855  0.80836966  0.39702994  1
  P  P4  1  0.61489169  0.80892657  0.40365731  1
  P  P5  1  0.19150863  0.38347353  0.39238224  1
  P  P6  1  0.33453915  0.67081988  0.82588255  1
  P  P7  1  0.67081988  0.33453915  0.32588255  1
loop_
_geom_bond_atom_site_label_1
_geom_bond_atom_site_label_2
_geom_bond_distance
_geom_bond_site_symmetry_2
Na0 P7 3.022965 1_555
Na0 P2 3.047635 1_555
Na0 P1 3.067384 1_555
Na0 P4 3.220143 1_555
Na0 Ta0 3.275231 1_555
Na0 P5 3.316720 1_555
Na1 P7 2.979684 1_555
Na1 P2 3.044261 1_555
Na1 P0 3.064761 1_555
Na1 P3 3.251986 1_655
Na1 P5 3.301764 1_655
Na2 P6 3.022965 1_554
Na2 P4 3.047635 1_555
Na2 P5 3.067384 1_555
Na2 P2 3.220143 1_554
Na2 Ta1 3.275231 1_555
Na2 P1 3.316720 1_554
Na3 P6 2.979684 1_554
Na3 P4 3.044261 1_555
Na3 P3 3.064761 1_555
Na3 P0 3.251986 1_564
Na3 P1 3.301764 1_564
Na4 P2 2.873089 1_455
Na4 P1 2.924734 1_565
Na4 P3 2.935190 1_555
Na4 P6 3.099778 1_555
Na5 P2 2.840579 1_555
Na5 P0 2.973972 1_565
Na5 P4 2.981295 1_555
Na5 P6 3.030658 1_555
Na6 P5 2.878575 1_555
Na6 P1 2.896809 1_555
Na6 P0 2.967461 1_455
Na6 P6 3.089515 1_555
Na7 P4 2.873089 1_545
Na7 P5 2.924734 1_655
Na7 P0 2.935190 1_554
Na7 P7 3.099778 1_555
Na8 P1 2.878575 1_554
Na8 P5 2.896809 1_555
Na8 P3 2.967461 1_545
Na8 P7 3.089515 1_555
Na9 P4 2.840579 1_555
Na9 P3 2.973972 1_655
Na9 P2 2.981295 1_554
Na9 P7 3.030658 1_555
P0 Ta1 2.410789 1_556
P0 Sr0 3.066991 1_555
P0 Sr1 3.227955 1_656
P1 Ta1 2.373416 1_556
P1 Sr0 3.061971 1_555
P2 Ta1 2.386212 1_556
P2 Sr1 3.185349 1_656
P3 Ta0 2.410789 1_555
P3 Sr1 3.066991 1_555
P3 Sr0 3.227955 1_565
P4 Ta0 2.386212 1_555
P4 Sr0 3.185349 1_565
P5 Ta0 2.373416 1_555
P5 Sr1 3.061971 1_555
P6 Ta0 2.384796 1_555
P6 Sr1 3.013989 1_556
P7 Ta1 2.384796 1_555
P7 Sr0 3.013989 1_555
