# generated using pymatgen
data_Sc3Mn3Al7Si5
_symmetry_space_group_name_H-M   'P 1'
_cell_length_a   8.27620475
_cell_length_b   8.27619962
_cell_length_c   8.91003658
_cell_angle_alpha   89.99999999
_cell_angle_beta   89.99987940
_cell_angle_gamma   119.99997820
_symmetry_Int_Tables_number   1
_chemical_formula_structural   Sc3Mn3Al7Si5
_chemical_formula_sum   'Sc6 Mn6 Al14 Si10'
_cell_volume   528.53335169
_cell_formula_units_Z   2
loop_
 _symmetry_equiv_pos_site_id
 _symmetry_equiv_pos_as_xyz
  1  'x, y, z'
loop_
 _atom_site_type_symbol
 _atom_site_label
 _atom_site_symmetry_multiplicity
 _atom_site_fract_x
 _atom_site_fract_y
 _atom_site_fract_z
 _atom_site_occupancy
  Sc  Sc0  1  0.20011188  0.79988843  0.25000338  1
  Sc  Sc1  1  0.20011188  0.40022346  0.25000338  1
  Sc  Sc2  1  0.59977836  0.79988918  0.24999736  1
  Sc  Sc3  1  0.79988812  0.20011157  0.74999662  1
  Sc  Sc4  1  0.79988812  0.59977654  0.74999662  1
  Sc  Sc5  1  0.40022164  0.20011082  0.75000264  1
  Mn  Mn0  1  0.50000000  0.50000000  0.50000000  1
  Mn  Mn1  1  0.50000000  0.00000000  0.50000000  1
  Mn  Mn2  1  -0.00000000  0.50000000  0.50000000  1
  Mn  Mn3  1  0.50000000  0.50000000  0.00000000  1
  Mn  Mn4  1  0.50000000  0.00000000  0.00000000  1
  Mn  Mn5  1  -0.00000000  0.50000000  0.00000000  1
  Al  Al0  1  0.16440704  0.83559047  0.92009621  1
  Al  Al1  1  0.16440704  0.32881656  0.92009621  1
  Al  Al2  1  0.67118237  0.83559119  0.92009464  1
  Al  Al3  1  0.83559296  0.16440953  0.07990379  1
  Al  Al4  1  0.83559296  0.67118344  0.07990379  1
  Al  Al5  1  0.32881763  0.16440881  0.07990536  1
  Al  Al6  1  0.83558896  0.16440983  0.42009567  1
  Al  Al7  1  0.83558896  0.67117913  0.42009567  1
  Al  Al8  1  0.32882120  0.16441060  0.42009678  1
  Al  Al9  1  0.16441104  0.83559017  0.57990433  1
  Al  Al10  1  0.16441104  0.32882087  0.57990433  1
  Al  Al11  1  0.67117880  0.83558940  0.57990322  1
  Al  Al12  1  0.00000090  0.00000045  0.24999469  1
  Al  Al13  1  -0.00000090  -0.00000045  0.75000531  1
  Si  Si0  1  0.55995793  0.44004288  0.24999998  1
  Si  Si1  1  0.55995793  0.11991506  0.24999998  1
  Si  Si2  1  0.88008658  0.44004329  0.25000086  1
  Si  Si3  1  0.44004207  0.55995712  0.75000002  1
  Si  Si4  1  0.44004207  0.88008494  0.75000002  1
  Si  Si5  1  0.11991342  0.55995671  0.74999914  1
  Si  Si6  1  0.33333456  0.66666778  0.46238597  1
  Si  Si7  1  0.66666544  0.33333222  0.53761403  1
  Si  Si8  1  0.66666761  0.33333330  0.96239247  1
  Si  Si9  1  0.33333239  0.66666670  0.03760753  1
loop_
_geom_bond_atom_site_label_1
_geom_bond_atom_site_label_2
_geom_bond_distance
_geom_bond_site_symmetry_2
Sc0 Si6 2.688480 1_555
Sc0 Si9 2.688554 1_555
Sc0 Si2 2.827813 1_455
Sc0 Si1 2.827822 1_565
Sc1 Si6 2.688485 1_555
Sc1 Si9 2.688559 1_555
Sc1 Si2 2.827813 1_455
Sc1 Si0 2.827822 1_555
Sc2 Si6 2.688516 1_555
Sc2 Si9 2.688541 1_555
Sc2 Si0 2.827819 1_555
Sc2 Si1 2.827819 1_565
Sc3 Si7 2.688480 1_555
Sc3 Si8 2.688554 1_555
Sc3 Si5 2.827813 1_655
Sc3 Si4 2.827822 1_545
Sc4 Si7 2.688485 1_555
Sc4 Si8 2.688559 1_555
Sc4 Si5 2.827813 1_655
Sc4 Si3 2.827822 1_555
Sc5 Si7 2.688516 1_555
Sc5 Si8 2.688541 1_555
Sc5 Si3 2.827819 1_555
Sc5 Si4 2.827819 1_545
Mn0 Si3 2.387571 1_555
Mn0 Si0 2.387571 1_555
Mn0 Si6 2.412525 1_555
Mn0 Si7 2.412525 1_555
Mn1 Si1 2.387572 1_555
Mn1 Si4 2.387572 1_545
Mn1 Si6 2.412518 1_545
Mn1 Si7 2.412518 1_555
Mn2 Si5 2.387563 1_555
Mn2 Si2 2.387563 1_455
Mn2 Si7 2.412535 1_455
Mn2 Si6 2.412535 1_555
Mn3 Si3 2.387573 1_554
Mn3 Si0 2.387573 1_555
Mn3 Si9 2.412524 1_555
Mn3 Si8 2.412524 1_554
Mn4 Si4 2.387573 1_544
Mn4 Si1 2.387573 1_555
Mn4 Si8 2.412517 1_554
Mn4 Si9 2.412517 1_545
Mn5 Si2 2.387573 1_455
Mn5 Si5 2.387573 1_554
Mn5 Si8 2.412513 1_454
Mn5 Si9 2.412513 1_555
Al0 Mn5 2.508619 1_556
Al0 Mn4 2.508640 1_566
Al0 Si4 2.606992 1_555
Al0 Si5 2.606992 1_555
Al0 Si9 2.638170 1_556
Al0 Al4 2.753487 1_456
Al0 Al5 2.753524 1_566
Al0 Al13 2.801987 1_565
Al0 Sc0 2.983709 1_556
Al0 Sc5 3.052755 1_565
Al0 Sc4 3.052779 1_455
Al1 Mn5 2.508619 1_556
Al1 Mn3 2.508640 1_556
Al1 Si3 2.606992 1_555
Al1 Si5 2.606992 1_555
Al1 Si9 2.638177 1_556
Al1 Al3 2.753487 1_456
Al1 Al5 2.753524 1_556
Al1 Al13 2.801987 1_555
Al1 Sc1 2.983709 1_556
Al1 Sc5 3.052755 1_555
Al1 Sc3 3.052779 1_455
Al2 Mn4 2.508628 1_566
Al2 Mn3 2.508628 1_556
Al2 Si4 2.606983 1_555
Al2 Si3 2.606984 1_555
Al2 Si9 2.638179 1_556
Al2 Al4 2.753524 1_556
Al2 Al3 2.753524 1_566
Al2 Sc2 2.983664 1_556
Al2 Sc3 3.052775 1_565
Al2 Sc4 3.052775 1_555
Al3 Mn5 2.508619 1_655
Al3 Mn4 2.508640 1_555
Al3 Si1 2.606992 1_555
Al3 Si2 2.606992 1_555
Al3 Si8 2.638170 1_554
Al3 Sc3 2.983709 1_554
Al3 Sc2 3.052755 1_545
Al3 Sc1 3.052779 1_655
Al4 Mn5 2.508619 1_655
Al4 Mn3 2.508640 1_555
Al4 Si0 2.606992 1_555
Al4 Si2 2.606992 1_555
Al4 Si8 2.638177 1_554
Al4 Sc4 2.983709 1_554
Al4 Sc2 3.052755 1_555
Al4 Sc0 3.052779 1_655
Al5 Mn4 2.508628 1_555
Al5 Mn3 2.508628 1_555
Al5 Si1 2.606983 1_555
Al5 Si0 2.606984 1_555
Al5 Si8 2.638179 1_554
Al5 Sc5 2.983664 1_554
Al5 Sc0 3.052775 1_545
Al5 Sc1 3.052775 1_555
Al6 Mn1 2.508611 1_555
Al6 Mn2 2.508620 1_655
Al6 Si1 2.606967 1_555
Al6 Si2 2.606967 1_555
Al6 Si7 2.638171 1_555
Al6 Sc3 2.983647 1_555
Al6 Sc1 3.052762 1_655
Al6 Sc2 3.052777 1_545
Al7 Mn0 2.508611 1_555
Al7 Mn2 2.508620 1_655
Al7 Si0 2.606967 1_555
Al7 Si2 2.606967 1_555
Al7 Si7 2.638178 1_555
Al7 Al9 2.753547 1_655
Al7 Sc4 2.983647 1_555
Al7 Sc0 3.052762 1_655
Al7 Sc2 3.052777 1_555
Al8 Mn1 2.508612 1_555
Al8 Mn0 2.508612 1_555
Al8 Si1 2.606974 1_555
Al8 Si0 2.606974 1_555
Al8 Si7 2.638161 1_555
Al8 Al9 2.753526 1_545
Al8 Sc5 2.983690 1_555
Al8 Sc0 3.052764 1_545
Al8 Sc1 3.052765 1_555
Al9 Mn1 2.508611 1_565
Al9 Mn2 2.508620 1_555
Al9 Si4 2.606967 1_555
Al9 Si5 2.606967 1_555
Al9 Si6 2.638171 1_555
Al9 Sc0 2.983647 1_555
Al9 Sc4 3.052762 1_455
Al9 Sc5 3.052777 1_565
Al10 Mn0 2.508611 1_555
Al10 Mn2 2.508620 1_555
Al10 Si3 2.606967 1_555
Al10 Si5 2.606967 1_555
Al10 Si6 2.638178 1_555
Al10 Al8 2.753526 1_555
Al10 Al6 2.753547 1_455
Al10 Al13 2.802058 1_555
Al10 Sc1 2.983647 1_555
Al10 Sc3 3.052762 1_455
Al10 Sc5 3.052777 1_555
Al11 Mn1 2.508612 1_565
Al11 Mn0 2.508612 1_555
Al11 Si4 2.606974 1_555
Al11 Si3 2.606974 1_555
Al11 Si6 2.638161 1_555
Al11 Al7 2.753526 1_555
Al11 Al6 2.753526 1_565
Al11 Al13 2.802064 1_665
Al11 Sc2 2.983690 1_555
Al11 Sc3 3.052764 1_565
Al11 Sc4 3.052765 1_555
Al12 Al5 2.801974 1_555
Al12 Al4 2.801987 1_445
Al12 Al3 2.801987 1_455
Al12 Al6 2.802058 1_455
Al12 Al7 2.802058 1_445
Al12 Al8 2.802064 1_555
Al12 Sc2 2.868557 1_445
Al12 Sc0 2.868559 1_545
Al12 Sc1 2.868559 1_555
Al13 Al2 2.801974 1_445
Al13 Al9 2.802058 1_545
Al13 Sc5 2.868557 1_555
Al13 Sc3 2.868559 1_455
Al13 Sc4 2.868559 1_445
