# generated using pymatgen
data_CeGaSi
_symmetry_space_group_name_H-M   'P 1'
_cell_length_a   4.22385274
_cell_length_b   4.28269632
_cell_length_c   7.71241343
_cell_angle_alpha   73.87327487
_cell_angle_beta   74.68075256
_cell_angle_gamma   90.00673005
_symmetry_Int_Tables_number   1
_chemical_formula_structural   CeGaSi
_chemical_formula_sum   'Ce2 Ga2 Si2'
_cell_volume   128.85421569
_cell_formula_units_Z   2
loop_
 _symmetry_equiv_pos_site_id
 _symmetry_equiv_pos_as_xyz
  1  'x, y, z'
loop_
 _atom_site_type_symbol
 _atom_site_label
 _atom_site_symmetry_multiplicity
 _atom_site_fract_x
 _atom_site_fract_y
 _atom_site_fract_z
 _atom_site_occupancy
  Ce  Ce0  1  0.74740784  0.24367947  0.51239485  1
  Ce  Ce1  1  0.00257438  0.00629325  0.98765446  1
  Ga  Ga0  1  0.33300068  0.83357380  0.33286975  1
  Ga  Ga1  1  0.41704339  0.41647646  0.16702729  1
  Si  Si0  1  0.16502851  0.66534647  0.66940938  1
  Si  Si1  1  0.58494520  0.58462954  0.83064427  1
loop_
_geom_bond_atom_site_label_1
_geom_bond_atom_site_label_2
_geom_bond_distance
_geom_bond_site_symmetry_2
Ce0 Si1 3.118157 1_545
Ce0 Si1 3.119090 1_555
Ce0 Si0 3.190014 1_645
Ce0 Si0 3.190922 1_655
Ce0 Si0 3.226528 1_545
Ce0 Si0 3.228084 1_555
Ce0 Ga1 3.234014 1_555
Ce0 Ga1 3.250570 1_655
Ce0 Ga0 3.265302 1_645
Ce0 Ga0 3.265455 1_655
Ce0 Ga0 3.270552 1_545
Ce0 Ga0 3.271355 1_555
Ce1 Si0 3.118151 1_555
Ce1 Si0 3.119051 1_545
Ce1 Si1 3.190037 1_455
Ce1 Si1 3.190913 1_445
Ce1 Si1 3.226515 1_555
Ce1 Si1 3.228040 1_545
Ce1 Ga0 3.233157 1_546
Ce1 Ga0 3.249781 1_446
Ce1 Ga1 3.264913 1_456
Ce1 Ga1 3.265059 1_446
Ce1 Ga1 3.270100 1_556
Ce1 Ga1 3.270895 1_546
Ga0 Si0 2.397342 1_555
Ga0 Ga1 2.445413 1_565
Ga0 Ga1 2.445879 1_555
Ga1 Si1 2.396227 1_554
Si0 Si1 2.395509 1_555
Si0 Si1 2.412530 1_455
