# generated using pymatgen
data_CsK2Fe3P4ClO14
_symmetry_space_group_name_H-M   'P 1'
_cell_length_a   9.42886255
_cell_length_b   9.83596147
_cell_length_c   9.45309418
_cell_angle_alpha   73.99588710
_cell_angle_beta   69.68444095
_cell_angle_gamma   89.62901022
_symmetry_Int_Tables_number   1
_chemical_formula_structural   CsK2Fe3P4ClO14
_chemical_formula_sum   'Cs2 K4 Fe6 P8 Cl2 O28'
_cell_volume   786.41466950
_cell_formula_units_Z   2
loop_
 _symmetry_equiv_pos_site_id
 _symmetry_equiv_pos_as_xyz
  1  'x, y, z'
loop_
 _atom_site_type_symbol
 _atom_site_label
 _atom_site_symmetry_multiplicity
 _atom_site_fract_x
 _atom_site_fract_y
 _atom_site_fract_z
 _atom_site_occupancy
  Cs  Cs0  1  0.25000600  0.99999700  0.25000100  1
  Cs  Cs1  1  0.74999300  0.00000300  0.74999900  1
  K  K0  1  0.97159200  0.67104800  0.11676600  1
  K  K1  1  0.47159700  0.67104200  0.61684100  1
  K  K2  1  0.02839400  0.32897900  0.88314000  1
  K  K3  1  0.52841200  0.32896300  0.38323000  1
  Fe  Fe0  1  0.74999500  0.99995000  0.24997400  1
  Fe  Fe1  1  0.28036000  0.41147500  0.11026300  1
  Fe  Fe2  1  0.21956000  0.58850100  0.38972300  1
  Fe  Fe3  1  0.24995100  0.99995900  0.75001600  1
  Fe  Fe4  1  0.78043300  0.41154100  0.61020300  1
  Fe  Fe5  1  0.71956700  0.58849900  0.88979500  1
  P  P0  1  0.07591100  0.70545500  0.70710300  1
  P  P1  1  0.57581100  0.70554000  0.20711800  1
  P  P2  1  0.92409200  0.29441700  0.29296300  1
  P  P3  1  0.42409800  0.29452000  0.79289100  1
  P  P4  1  0.90971100  0.74575900  0.49332100  1
  P  P5  1  0.40979500  0.74574300  0.99328900  1
  P  P6  1  0.09020100  0.25428900  0.50674500  1
  P  P7  1  0.59028700  0.25427100  0.00668900  1
  Cl  Cl0  1  0.99998800  0.00000900  0.99998000  1
  Cl  Cl1  1  0.50000900  0.99999600  0.50002000  1
  O  O0  1  0.99585900  0.80660600  0.59149300  1
  O  O1  1  0.49582800  0.80671500  0.09143400  1
  O  O2  1  0.00415700  0.19329300  0.40856000  1
  O  O3  1  0.50414900  0.19339500  0.90849300  1
  O  O4  1  0.94342300  0.61964600  0.85491200  1
  O  O5  1  0.44343000  0.61982700  0.35489400  1
  O  O6  1  0.05666200  0.38011100  0.14510200  1
  O  O7  1  0.55657100  0.38036100  0.64509500  1
  O  O8  1  0.16819000  0.80730900  0.74384900  1
  O  O9  1  0.66826800  0.80743100  0.24370700  1
  O  O10  1  0.83173500  0.19257400  0.25629800  1
  O  O11  1  0.33179400  0.19269200  0.75615400  1
  O  O12  1  0.17134400  0.60851500  0.61756000  1
  O  O13  1  0.67122900  0.60854300  0.11756700  1
  O  O14  1  0.82878400  0.39146500  0.38240200  1
  O  O15  1  0.32860100  0.39153700  0.88241000  1
  O  O16  1  0.79278300  0.62186600  0.61873300  1
  O  O17  1  0.29300500  0.62175300  0.11872700  1
  O  O18  1  0.20704500  0.37823700  0.38128700  1
  O  O19  1  0.70724800  0.37816500  0.88124200  1
  O  O20  1  0.03490400  0.69074000  0.37304600  1
  O  O21  1  0.53501600  0.69083400  0.87297500  1
  O  O22  1  0.96499400  0.30917200  0.62702000  1
  O  O23  1  0.46521900  0.30926700  0.12697700  1
  O  O24  1  0.84152000  0.87297600  0.42189600  1
  O  O25  1  0.34143900  0.87285400  0.92185200  1
  O  O26  1  0.15853700  0.12713900  0.57816100  1
  O  O27  1  0.65850100  0.12702100  0.07808400  1
loop_
_geom_bond_atom_site_label_1
_geom_bond_atom_site_label_2
_geom_bond_distance
_geom_bond_site_symmetry_2
Cs0 O1 3.214837 1_555
Cs0 O2 3.215049 1_565
Cs0 O0 3.329141 1_455
Cs0 O3 3.329233 1_564
Cs0 O20 3.348135 1_555
Cs0 O23 3.348776 1_565
Cs0 O25 3.492547 1_554
Cs0 O26 3.492613 1_565
Cs0 O24 3.692277 1_455
Cs0 O27 3.692356 1_565
Cs1 O3 3.215465 1_555
Cs1 O0 3.215658 1_545
Cs1 O1 3.328591 1_546
Cs1 O2 3.328615 1_655
Cs1 O21 3.346923 1_545
Cs1 O22 3.347031 1_555
Cs1 O27 3.491227 1_556
Cs1 O24 3.491413 1_545
Cs1 O26 3.693027 1_655
Cs1 O25 3.693137 1_545
K0 O20 2.743634 1_655
K0 O4 2.757132 1_554
K0 O13 2.898932 1_555
K0 O6 2.932736 1_655
K0 O17 3.071604 1_655
K0 O14 3.094082 1_555
K0 O9 3.142281 1_555
K0 O8 3.247923 1_654
K1 O21 2.743124 1_555
K1 O5 2.757194 1_555
K1 O12 2.898272 1_555
K1 O7 2.930141 1_555
K1 O16 3.069115 1_555
K1 O15 3.093589 1_555
K1 O8 3.142404 1_555
K1 O9 3.249793 1_555
K2 O22 2.742947 1_455
K2 O6 2.757372 1_556
K2 O15 2.897873 1_555
K2 O4 2.930022 1_455
K2 O19 3.068775 1_455
K2 O12 3.093767 1_555
K2 O11 3.142418 1_555
K2 O10 3.249964 1_456
K3 O23 2.742808 1_555
K3 O7 2.757179 1_555
K3 O14 2.898908 1_555
K3 O5 2.931807 1_555
K3 O18 3.071092 1_555
K3 O13 3.094182 1_555
K3 O10 3.142290 1_555
K3 O11 3.248023 1_555
Fe0 O9 2.072567 1_555
Fe0 O10 2.073790 1_565
Fe0 O27 2.187738 1_565
Fe0 O24 2.187799 1_555
Fe1 O6 2.030391 1_555
Fe1 O23 2.038297 1_555
Fe1 O17 2.097497 1_555
Fe1 O15 2.106222 1_554
Fe1 O18 2.336652 1_555
Fe2 O5 2.031966 1_555
Fe2 O20 2.036674 1_555
Fe2 O18 2.097179 1_555
Fe2 O12 2.106387 1_555
Fe2 O17 2.336275 1_555
Fe3 O8 2.073495 1_555
Fe3 O11 2.074437 1_565
Fe3 O26 2.187401 1_565
Fe3 O25 2.187455 1_555
Fe4 O7 2.031586 1_555
Fe4 O22 2.036800 1_555
Fe4 O16 2.097953 1_555
Fe4 O14 2.106106 1_555
Fe4 O19 2.336673 1_555
Fe5 O4 2.031515 1_555
Fe5 O21 2.036568 1_555
Fe5 O19 2.098091 1_555
Fe5 O13 2.105739 1_556
Fe5 O16 2.336871 1_555
Cl0 Fe3 2.696630 1_645
Cl0 Fe0 2.696700 1_546
Cl0 K0 3.097766 1_546
Cl0 K2 3.097866 1_655
Cl0 Cs1 3.874065 1_555
Cl0 Cs0 3.874523 1_646
Cl1 Fe3 2.697112 1_555
Cl1 Fe0 2.697188 1_555
Cl1 K1 3.097709 1_555
Cl1 K3 3.097821 1_565
Cl1 Cs1 3.873966 1_565
Cl1 Cs0 3.874410 1_555
O0 P4 1.647791 1_555
O0 P0 1.648472 1_655
O1 P5 1.647472 1_554
O1 P1 1.648584 1_555
O2 P6 1.647982 1_555
O2 P2 1.648365 1_455
O3 P7 1.648064 1_556
O3 P3 1.648309 1_555
O4 P0 1.541609 1_655
O5 P1 1.540672 1_555
O6 P2 1.541886 1_455
O7 P3 1.541576 1_555
O8 P0 1.514736 1_555
O9 P1 1.515200 1_555
O10 P2 1.514674 1_555
O11 P3 1.514653 1_555
O12 P0 1.529831 1_555
O13 P1 1.530248 1_555
O14 P2 1.529677 1_555
O15 P3 1.530534 1_555
O16 P4 1.555370 1_555
O17 P5 1.555411 1_554
O18 P6 1.555458 1_555
O19 P7 1.555615 1_556
O20 P4 1.542090 1_455
O21 P5 1.541839 1_555
O22 P6 1.541422 1_655
O23 P7 1.541438 1_555
O24 P4 1.503394 1_555
O25 P5 1.503601 1_555
O26 P6 1.503689 1_555
O27 P7 1.503644 1_555
