# generated using pymatgen
data_PW3
_symmetry_space_group_name_H-M   'P 1'
_cell_length_a   7.39944186
_cell_length_b   7.39944186
_cell_length_c   7.39944186
_cell_angle_alpha   96.19611261
_cell_angle_beta   96.19611261
_cell_angle_gamma   141.64085692
_symmetry_Int_Tables_number   1
_chemical_formula_structural   PW3
_chemical_formula_sum   'P4 W12'
_cell_volume   237.46511038
_cell_formula_units_Z   4
loop_
 _symmetry_equiv_pos_site_id
 _symmetry_equiv_pos_as_xyz
  1  'x, y, z'
loop_
 _atom_site_type_symbol
 _atom_site_label
 _atom_site_symmetry_multiplicity
 _atom_site_fract_x
 _atom_site_fract_y
 _atom_site_fract_z
 _atom_site_occupancy
  P  P0  1  0.29238500  0.00000000  0.29238500  1
  P  P1  1  0.70761500  0.00000000  0.70761500  1
  P  P2  1  0.00000000  0.70761500  0.70761500  1
  P  P3  1  0.00000000  0.29238500  0.29238500  1
  W  W0  1  0.36236200  0.36236200  0.18828900  1
  W  W1  1  0.17407200  0.17407200  0.81171100  1
  W  W2  1  0.82592800  0.63763800  0.00000000  1
  W  W3  1  0.63763800  0.82592800  0.00000000  1
  W  W4  1  0.57352100  0.57352100  0.60126600  1
  W  W5  1  0.97225500  0.97225500  0.39873400  1
  W  W6  1  0.02774500  0.42647900  0.00000000  1
  W  W7  1  0.42647900  0.02774500  0.00000000  1
  W  W8  1  0.85414600  0.50000000  0.35414600  1
  W  W9  1  0.14585400  0.50000000  0.64585400  1
  W  W10  1  0.50000000  0.14585400  0.64585400  1
  W  W11  1  0.50000000  0.85414600  0.35414600  1
loop_
_geom_bond_atom_site_label_1
_geom_bond_atom_site_label_2
_geom_bond_distance
_geom_bond_site_symmetry_2
P0 W7 2.438673 1_555
P0 W5 2.438673 1_445
P0 W8 2.506406 1_445
P0 W8 2.506406 1_555
P0 W10 2.507723 1_555
P0 W11 2.507723 1_545
P0 W2 2.530857 1_445
P0 W0 2.530860 1_555
P1 W4 2.438673 1_545
P1 W6 2.438673 1_656
P1 W9 2.506406 1_545
P1 W9 2.506406 1_655
P1 W10 2.507723 1_555
P1 W11 2.507723 1_545
P1 W3 2.530857 1_546
P1 W1 2.530857 1_655
P2 W4 2.438673 1_455
P2 W7 2.438673 1_566
P2 W10 2.506406 1_455
P2 W10 2.506406 1_565
P2 W9 2.507723 1_555
P2 W8 2.507723 1_455
P2 W2 2.530857 1_456
P2 W1 2.530857 1_565
P3 W6 2.438673 1_555
P3 W5 2.438673 1_445
P3 W11 2.506406 1_445
P3 W11 2.506406 1_555
P3 W9 2.507723 1_555
P3 W8 2.507723 1_455
P3 W3 2.530857 1_445
P3 W0 2.530860 1_555
