# generated using pymatgen
data_Tm2InAu2
_symmetry_space_group_name_H-M   'P 1'
_cell_length_a   7.09801900
_cell_length_b   8.27911500
_cell_length_c   8.27911500
_cell_angle_alpha   90.00000000
_cell_angle_beta   90.00000000
_cell_angle_gamma   90.00000000
_symmetry_Int_Tables_number   1
_chemical_formula_structural   Tm2InAu2
_chemical_formula_sum   'Tm8 In4 Au8'
_cell_volume   486.52480564
_cell_formula_units_Z   4
loop_
 _symmetry_equiv_pos_site_id
 _symmetry_equiv_pos_as_xyz
  1  'x, y, z'
loop_
 _atom_site_type_symbol
 _atom_site_label
 _atom_site_symmetry_multiplicity
 _atom_site_fract_x
 _atom_site_fract_y
 _atom_site_fract_z
 _atom_site_occupancy
  Tm  Tm0  1  0.24991800  0.34488100  0.34488100  1
  Tm  Tm1  1  0.75008200  0.65511900  0.65511900  1
  Tm  Tm2  1  0.24991800  0.65511900  0.65511900  1
  Tm  Tm3  1  0.74991800  0.15511900  0.84488100  1
  Tm  Tm4  1  0.25008200  0.15511900  0.84488100  1
  Tm  Tm5  1  0.75008200  0.34488100  0.34488100  1
  Tm  Tm6  1  0.25008200  0.84488100  0.15511900  1
  Tm  Tm7  1  0.74991800  0.84488100  0.15511900  1
  In  In0  1  0.25000000  0.00000000  0.50000000  1
  In  In1  1  0.75000000  0.00000000  0.50000000  1
  In  In2  1  0.25000000  0.50000000  0.00000000  1
  In  In3  1  0.75000000  0.50000000  0.00000000  1
  Au  Au0  1  0.00000000  0.13581800  0.13581800  1
  Au  Au1  1  0.00000000  0.86418200  0.86418200  1
  Au  Au2  1  0.50000000  0.36418200  0.63581800  1
  Au  Au3  1  0.50000000  0.63581800  0.36418200  1
  Au  Au4  1  0.00000000  0.36320400  0.63679600  1
  Au  Au5  1  0.00000000  0.63679600  0.36320400  1
  Au  Au6  1  0.50000000  0.86320400  0.86320400  1
  Au  Au7  1  0.50000000  0.13679600  0.13679600  1
loop_
_geom_bond_atom_site_label_1
_geom_bond_atom_site_label_2
_geom_bond_distance
_geom_bond_site_symmetry_2
In0 Tm4 3.130828 1_555
In0 Tm6 3.130828 1_545
In0 Tm0 3.130828 1_555
In0 Tm2 3.130828 1_545
In1 Tm7 3.130828 1_545
In1 Tm3 3.130828 1_555
In1 Tm1 3.130828 1_545
In1 Tm5 3.130828 1_555
In2 Tm0 3.130828 1_555
In2 Tm2 3.130828 1_554
In2 Tm4 3.130828 1_554
In2 Tm6 3.130828 1_555
In3 Tm1 3.130828 1_554
In3 Tm5 3.130828 1_555
In3 Tm7 3.130828 1_555
In3 Tm3 3.130828 1_554
Au0 Tm3 2.996382 1_454
Au0 Tm4 2.996382 1_554
Au0 Tm7 2.996382 1_445
Au0 Tm6 2.996382 1_545
Au0 Tm0 3.023000 1_555
Au0 Tm5 3.023000 1_455
Au1 Tm6 2.996382 1_556
Au1 Tm7 2.996382 1_456
Au1 Tm3 2.996382 1_465
Au1 Tm4 2.996382 1_565
Au1 Tm2 3.023000 1_555
Au1 Tm1 3.023000 1_455
Au2 Tm2 2.996382 1_555
Au2 Tm1 2.996382 1_555
Au2 Tm5 2.996382 1_555
Au2 Tm0 2.996382 1_555
Au2 Tm3 3.023000 1_555
Au2 Tm4 3.023000 1_555
Au3 Tm2 2.996382 1_555
Au3 Tm5 2.996382 1_555
Au3 Tm1 2.996382 1_555
Au3 Tm0 2.996382 1_555
Au3 Tm6 3.023000 1_555
Au3 Tm7 3.023000 1_555
Au4 Tm1 3.001787 1_455
Au4 Tm2 3.001787 1_555
Au4 Tm0 3.001787 1_555
Au4 Tm5 3.001787 1_455
Au4 Tm3 3.014421 1_455
Au4 Tm4 3.014421 1_555
Au5 Tm1 3.001787 1_455
Au5 Tm2 3.001787 1_555
Au5 Tm0 3.001787 1_555
Au5 Tm5 3.001787 1_455
Au5 Tm7 3.014421 1_455
Au5 Tm6 3.014421 1_555
Au6 Tm4 3.001787 1_565
Au6 Tm3 3.001787 1_565
Au6 Tm6 3.001787 1_556
Au6 Tm7 3.001787 1_556
Au6 Tm1 3.014421 1_555
Au6 Tm2 3.014421 1_555
Au7 Tm3 3.001787 1_554
Au7 Tm4 3.001787 1_554
Au7 Tm6 3.001787 1_545
Au7 Tm7 3.001787 1_545
Au7 Tm0 3.014421 1_555
Au7 Tm5 3.014421 1_555
