# generated using pymatgen
data_K2Al11Si13(Ag3O16)3
_symmetry_space_group_name_H-M   'P 1'
_cell_length_a   12.96013594
_cell_length_b   12.25126266
_cell_length_c   12.25889459
_cell_angle_alpha   89.99064242
_cell_angle_beta   89.46540430
_cell_angle_gamma   89.98750746
_symmetry_Int_Tables_number   1
_chemical_formula_structural   K2Al11Si13(Ag3O16)3
_chemical_formula_sum   'K2 Al11 Si13 Ag9 O48'
_cell_volume   1946.35833140
_cell_formula_units_Z   1
loop_
 _symmetry_equiv_pos_site_id
 _symmetry_equiv_pos_as_xyz
  1  'x, y, z'
loop_
 _atom_site_type_symbol
 _atom_site_label
 _atom_site_symmetry_multiplicity
 _atom_site_fract_x
 _atom_site_fract_y
 _atom_site_fract_z
 _atom_site_occupancy
  K  K0  1  0.50456937  0.99025312  0.00116619  1
  K  K1  1  0.60029464  0.49943372  0.99575064  1
  Al  Al0  1  0.18133942  0.99633489  0.62748613  1
  Al  Al1  1  0.17578109  0.36518455  0.99614989  1
  Al  Al2  1  0.36654402  0.80057878  0.99917271  1
  Al  Al3  1  0.61744277  0.99284081  0.20647867  1
  Al  Al4  1  0.62133117  0.19507020  0.00328487  1
  Al  Al5  1  0.62389096  0.99313790  0.80027618  1
  Al  Al6  1  0.61798898  0.78840911  0.00297788  1
  Al  Al7  1  0.83213912  0.99133912  0.36425743  1
  Al  Al8  1  0.83645956  0.99115181  0.63619886  1
  Al  Al9  1  0.82940122  0.35665973  0.00194619  1
  Al  Al10  1  0.83149285  0.63113386  0.00148075  1
  Si  Si0  1  0.17637033  0.99673708  0.36806217  1
  Si  Si1  1  0.17169391  0.62122095  0.99535671  1
  Si  Si2  1  0.36548635  0.99619224  0.19073689  1
  Si  Si3  1  0.36862410  0.18452290  0.00049494  1
  Si  Si4  1  0.37081607  0.99734161  0.80869311  1
  Si  Si5  1  0.99885926  0.17855983  0.36844358  1
  Si  Si6  1  0.00118974  0.18104013  0.63076772  1
  Si  Si7  1  0.99813671  0.36208710  0.18820845  1
  Si  Si8  1  0.99866381  0.36025403  0.81202438  1
  Si  Si9  1  0.99832101  0.62333006  0.18652498  1
  Si  Si10  1  0.99863640  0.62384753  0.81220818  1
  Si  Si11  1  0.00611594  0.80861223  0.36708298  1
  Si  Si12  1  0.00853238  0.80521951  0.63095286  1
  Ag  Ag0  1  0.20176617  0.20443753  0.19840586  1
  Ag  Ag1  1  0.20120358  0.19226388  0.79831690  1
  Ag  Ag2  1  0.19930835  0.79313663  0.18889042  1
  Ag  Ag3  1  0.20064331  0.80596168  0.80749295  1
  Ag  Ag4  1  0.79928450  0.16151431  0.17231116  1
  Ag  Ag5  1  0.80550214  0.15857991  0.83165173  1
  Ag  Ag6  1  0.79455501  0.82142879  0.17727647  1
  Ag  Ag7  1  0.80121079  0.82441988  0.82645995  1
  Ag  Ag8  1  0.77018098  0.98900476  0.00359603  1
  O  O0  1  0.98832532  0.49351672  0.21541419  1
  O  O1  1  0.00479233  0.30054172  0.69223364  1
  O  O2  1  0.99057778  0.49267918  0.79202806  1
  O  O3  1  0.00717629  0.78318259  0.49776671  1
  O  O4  1  0.01420945  0.68636042  0.69482526  1
  O  O5  1  0.10790986  0.10813139  0.34083806  1
  O  O6  1  0.10487709  0.34000931  0.11812832  1
  O  O7  1  0.10993181  0.11676327  0.65436382  1
  O  O8  1  0.10211437  0.64297471  0.10827775  1
  O  O9  1  0.10637702  0.33276866  0.87693626  1
  O  O10  1  0.11158973  0.88388099  0.33443745  1
  O  O11  1  0.10428027  0.65010534  0.88447125  1
  O  O12  1  0.11470643  0.87306453  0.66022967  1
  O  O13  1  0.21344112  0.99213339  0.49041605  1
  O  O14  1  0.21485360  0.49968547  0.99195752  1
  O  O15  1  0.28898600  0.00700064  0.71133666  1
  O  O16  1  0.26201033  0.71154400  0.99982863  1
  O  O17  1  0.27569018  0.00482386  0.28495730  1
  O  O18  1  0.28350355  0.27955067  0.00181864  1
  O  O19  1  0.34432091  0.10627564  0.11124519  1
  O  O20  1  0.34731835  0.10610263  0.89166558  1
  O  O21  1  0.34170381  0.88748075  0.11676495  1
  O  O22  1  0.34494783  0.88882641  0.88443011  1
  O  O23  1  0.48188300  0.99816484  0.23378099  1
  O  O24  1  0.48660678  0.22536161  0.00185402  1
  O  O25  1  0.48902287  0.74806035  0.00076649  1
  O  O26  1  0.49040320  0.99909321  0.77341702  1
  O  O27  1  0.64087134  0.10864513  0.11872473  1
  O  O28  1  0.64660636  0.10822916  0.88917863  1
  O  O29  1  0.63754268  0.87730604  0.11815478  1
  O  O30  1  0.64349904  0.87831222  0.88974105  1
  O  O31  1  0.72008171  0.98819619  0.70492590  1
  O  O32  1  0.70834553  0.68555827  0.00361583  1
  O  O33  1  0.71452607  0.98885998  0.29994575  1
  O  O34  1  0.70373526  0.30502496  0.00393591  1
  O  O35  1  0.82020657  0.49405613  0.00064643  1
  O  O36  1  0.83569343  0.99515281  0.50002524  1
  O  O37  1  0.90417115  0.11012239  0.31742557  1
  O  O38  1  0.90572821  0.11095124  0.68108411  1
  O  O39  1  0.89916413  0.31524975  0.12209480  1
  O  O40  1  0.90092273  0.31336003  0.88276592  1
  O  O41  1  0.89991100  0.67291482  0.12259793  1
  O  O42  1  0.90165532  0.67380865  0.88090598  1
  O  O43  1  0.90616973  0.87205892  0.32184638  1
  O  O44  1  0.90850012  0.87103713  0.67586334  1
  O  O45  1  0.99260149  0.20285134  0.49862628  1
  O  O46  1  0.01112828  0.29569878  0.30434056  1
  O  O47  1  0.02140257  0.69328261  0.29878452  1
loop_
_geom_bond_atom_site_label_1
_geom_bond_atom_site_label_2
_geom_bond_distance
_geom_bond_site_symmetry_2
K0 O30 2.634808 1_554
K0 O29 2.643088 1_555
K0 O28 2.704759 1_564
K0 O27 2.711178 1_565
K0 O26 2.801767 1_554
K0 O22 2.815763 1_554
K0 O21 2.827293 1_555
K0 O20 2.831771 1_564
K0 O19 2.846359 1_565
K0 O23 2.865641 1_555
K0 O24 2.889725 1_565
K0 O25 2.974052 1_555
K1 O32 2.678407 1_556
K1 O34 2.735155 1_556
K1 O35 2.852027 1_556
K1 O25 3.370159 1_556
Al0 O13 1.728067 1_555
Al0 O15 1.745540 1_565
Al0 O7 1.770792 1_565
Al0 O12 1.783687 1_555
Al1 O14 1.724582 1_555
Al1 O18 1.748063 1_556
Al1 O9 1.768456 1_555
Al1 O6 1.774787 1_556
Al2 O25 1.712937 1_556
Al2 O16 1.739462 1_555
Al2 O22 1.797916 1_555
Al2 O21 1.818488 1_556
Al3 O33 1.710322 1_555
Al3 O23 1.786579 1_555
Al3 O29 1.799661 1_555
Al3 O27 1.804415 1_565
Al4 O34 1.719316 1_555
Al4 O24 1.785215 1_555
Al4 O28 1.785408 1_554
Al4 O27 1.787176 1_555
Al5 O31 1.702025 1_555
Al5 O26 1.765580 1_555
Al5 O30 1.803034 1_555
Al5 O28 1.808104 1_565
Al6 O32 1.720069 1_555
Al6 O25 1.743542 1_555
Al6 O30 1.800146 1_554
Al6 O29 1.803119 1_555
Al7 O36 1.666093 1_555
Al7 O33 1.722895 1_555
Al7 O37 1.819110 1_565
Al7 O43 1.821173 1_555
Al8 O36 1.670172 1_555
Al8 O31 1.721143 1_555
Al8 O38 1.809108 1_565
Al8 O44 1.811425 1_555
Al9 O35 1.687549 1_555
Al9 O34 1.747273 1_555
Al9 O40 1.802760 1_554
Al9 O39 1.807941 1_555
Al10 O35 1.685806 1_555
Al10 O32 1.729526 1_555
Al10 O42 1.805516 1_554
Al10 O41 1.810469 1_555
Ag0 O6 2.307714 1_555
Ag0 O5 2.425026 1_555
Ag0 O19 2.442113 1_555
Ag1 O9 2.319448 1_555
Ag1 O7 2.325720 1_555
Ag1 O20 2.459461 1_555
Ag2 O21 2.343846 1_555
Ag2 O10 2.382046 1_555
Ag2 O8 2.443875 1_555
Ag2 O16 2.645094 1_554
Ag3 O12 2.282975 1_555
Ag3 O22 2.334933 1_555
Ag3 O11 2.464674 1_555
Ag3 O16 2.750202 1_555
Ag4 O27 2.256544 1_555
Ag4 O37 2.335221 1_555
Ag4 O39 2.363849 1_555
Ag5 O28 2.256528 1_555
Ag5 O38 2.321631 1_555
Ag5 O40 2.352363 1_555
Ag6 O29 2.271892 1_555
Ag6 O41 2.367794 1_555
Ag6 O43 2.380495 1_555
Ag7 O30 2.277172 1_555
Ag7 O42 2.357870 1_555
Ag7 O44 2.370651 1_555
Ag8 O30 2.554811 1_554
Ag8 O28 2.589603 1_564
Ag8 O29 2.599084 1_555
Ag8 O27 2.627609 1_565
O0 Si9 1.634183 1_555
O0 Si7 1.649051 1_555
O1 Si8 1.641988 1_455
O1 Si6 1.647551 1_555
O2 Si10 1.629470 1_555
O2 Si8 1.644217 1_555
O3 Si11 1.632183 1_555
O3 Si12 1.655185 1_555
O4 Si10 1.640806 1_455
O4 Si12 1.655176 1_555
O5 Si0 1.663105 1_545
O5 Si5 1.687334 1_455
O6 Si7 1.643979 1_455
O7 Si6 1.642253 1_555
O8 Si9 1.662384 1_455
O8 Si1 1.666485 1_554
O9 Si8 1.647966 1_455
O10 Si0 1.671405 1_555
O10 Si11 1.693895 1_555
O11 Si1 1.660787 1_555
O11 Si10 1.669059 1_455
O12 Si12 1.650137 1_555
O13 Si0 1.580248 1_555
O14 Si1 1.590864 1_555
O15 Si4 1.608304 1_545
O16 Si1 1.612262 1_555
O17 Si2 1.635408 1_545
O17 Si0 1.637116 1_545
O18 Si3 1.603669 1_555
O19 Si2 1.687643 1_545
O19 Si3 1.689137 1_555
O20 Si3 1.669307 1_556
O20 Si4 1.702137 1_545
O21 Si2 1.642235 1_555
O22 Si4 1.654036 1_555
O23 Si2 1.602972 1_555
O24 Si3 1.609185 1_555
O26 Si4 1.605322 1_555
O37 Si5 1.617107 1_555
O38 Si6 1.623114 1_655
O39 Si7 1.628291 1_555
O40 Si8 1.632912 1_555
O41 Si9 1.621109 1_555
O42 Si10 1.625955 1_555
O43 Si11 1.613194 1_655
O44 Si12 1.618769 1_655
O45 Si5 1.624733 1_555
O45 Si6 1.646543 1_655
O46 Si5 1.643085 1_455
O46 Si7 1.649452 1_455
O47 Si9 1.651057 1_455
O47 Si11 1.653424 1_555
