# generated using pymatgen
data_BaHo(CoO3)2
_symmetry_space_group_name_H-M   'P 1'
_cell_length_a   3.81891100
_cell_length_b   3.81891100
_cell_length_c   7.85727800
_cell_angle_alpha   90.00000000
_cell_angle_beta   90.00000000
_cell_angle_gamma   90.00000000
_symmetry_Int_Tables_number   1
_chemical_formula_structural   BaHo(CoO3)2
_chemical_formula_sum   'Ba1 Ho1 Co2 O6'
_cell_volume   114.59118057
_cell_formula_units_Z   1
loop_
 _symmetry_equiv_pos_site_id
 _symmetry_equiv_pos_as_xyz
  1  'x, y, z'
loop_
 _atom_site_type_symbol
 _atom_site_label
 _atom_site_symmetry_multiplicity
 _atom_site_fract_x
 _atom_site_fract_y
 _atom_site_fract_z
 _atom_site_occupancy
  Ba  Ba0  1  0.50000000  0.50000000  0.50000000  1
  Ho  Ho0  1  0.50000000  0.50000000  0.00000000  1
  Co  Co0  1  0.00000000  0.00000000  0.75620800  1
  Co  Co1  1  0.00000000  0.00000000  0.24379200  1
  O  O0  1  0.00000000  0.00000000  0.00000000  1
  O  O1  1  0.00000000  0.00000000  0.50000000  1
  O  O2  1  0.50000000  0.00000000  0.78881200  1
  O  O3  1  0.00000000  0.50000000  0.78881200  1
  O  O4  1  0.50000000  0.00000000  0.21118800  1
  O  O5  1  0.00000000  0.50000000  0.21118800  1
loop_
_geom_bond_atom_site_label_1
_geom_bond_atom_site_label_2
_geom_bond_distance
_geom_bond_site_symmetry_2
Ba0 O1 2.700378 1_655
Ba0 O1 2.700378 1_565
Ba0 O1 2.700378 1_665
Ba0 O1 2.700378 1_555
Ba0 O4 2.965744 1_565
Ba0 O3 2.965744 1_555
Ba0 O2 2.965744 1_555
Ba0 O2 2.965744 1_565
Ba0 O4 2.965744 1_555
Ba0 O3 2.965744 1_655
Ba0 O5 2.965744 1_555
Ba0 O5 2.965744 1_655
Ho0 O4 2.529724 1_565
Ho0 O4 2.529724 1_555
Ho0 O5 2.529724 1_555
Ho0 O5 2.529724 1_655
Ho0 O2 2.529724 1_564
Ho0 O3 2.529724 1_654
Ho0 O2 2.529724 1_554
Ho0 O3 2.529724 1_554
Ho0 O0 2.700378 1_665
Ho0 O0 2.700378 1_565
Ho0 O0 2.700378 1_555
Ho0 O0 2.700378 1_655
Co0 O0 1.915542 1_556
Co0 O2 1.926564 1_555
Co0 O2 1.926564 1_455
Co0 O3 1.926564 1_545
Co0 O3 1.926564 1_555
Co0 O1 2.013097 1_555
Co1 O0 1.915542 1_555
Co1 O4 1.926564 1_455
Co1 O5 1.926564 1_545
Co1 O4 1.926564 1_555
Co1 O5 1.926564 1_555
Co1 O1 2.013097 1_555
