# generated using pymatgen
data_Ba3Sb2S7
_symmetry_space_group_name_H-M   'P 1'
_cell_length_a   11.19649241
_cell_length_b   11.19649241
_cell_length_c   13.40988778
_cell_angle_alpha   73.33607699
_cell_angle_beta   73.33607699
_cell_angle_gamma   67.48368027
_symmetry_Int_Tables_number   1
_chemical_formula_structural   Ba3Sb2S7
_chemical_formula_sum   'Ba12 Sb8 S28'
_cell_volume   1457.67585431
_cell_formula_units_Z   4
loop_
 _symmetry_equiv_pos_site_id
 _symmetry_equiv_pos_as_xyz
  1  'x, y, z'
loop_
 _atom_site_type_symbol
 _atom_site_label
 _atom_site_symmetry_multiplicity
 _atom_site_fract_x
 _atom_site_fract_y
 _atom_site_fract_z
 _atom_site_occupancy
  Ba  Ba0  1  0.39761900  0.40577800  0.67279600  1
  Ba  Ba1  1  0.59422200  0.60238100  0.82720400  1
  Ba  Ba2  1  0.60238100  0.59422200  0.32720400  1
  Ba  Ba3  1  0.40577800  0.39761900  0.17279600  1
  Ba  Ba4  1  0.89490200  0.89217500  0.67702500  1
  Ba  Ba5  1  0.10782500  0.10509800  0.82297500  1
  Ba  Ba6  1  0.10509800  0.10782500  0.32297500  1
  Ba  Ba7  1  0.89217500  0.89490200  0.17702500  1
  Ba  Ba8  1  0.11364100  0.62375800  0.94315400  1
  Ba  Ba9  1  0.37624200  0.88635900  0.55684600  1
  Ba  Ba10  1  0.88635900  0.37624200  0.05684600  1
  Ba  Ba11  1  0.62375800  0.11364100  0.44315400  1
  Sb  Sb0  1  0.75679800  0.70205500  0.51088200  1
  Sb  Sb1  1  0.29794500  0.24320200  0.98911800  1
  Sb  Sb2  1  0.24320200  0.29794500  0.48911800  1
  Sb  Sb3  1  0.70205500  0.75679800  0.01088200  1
  Sb  Sb4  1  0.86068900  0.30486600  0.59096200  1
  Sb  Sb5  1  0.69513400  0.13931100  0.90903800  1
  Sb  Sb6  1  0.13931100  0.69513400  0.40903800  1
  Sb  Sb7  1  0.30486600  0.86068900  0.09096200  1
  S  S0  1  0.19180600  0.70001200  0.68038000  1
  S  S1  1  0.29998800  0.80819400  0.81962000  1
  S  S2  1  0.80819400  0.29998800  0.31962000  1
  S  S3  1  0.70001200  0.19180600  0.18038000  1
  S  S4  1  0.10749400  0.61126600  0.61342100  1
  S  S5  1  0.38873400  0.89250600  0.88657900  1
  S  S6  1  0.89250600  0.38873400  0.38657900  1
  S  S7  1  0.61126600  0.10749400  0.11342100  1
  S  S8  1  0.15010000  0.35530000  0.86257300  1
  S  S9  1  0.64470000  0.84990000  0.63742700  1
  S  S10  1  0.84990000  0.64470000  0.13742700  1
  S  S11  1  0.35530000  0.15010000  0.36257300  1
  S  S12  1  0.84590300  0.64492400  0.86632600  1
  S  S13  1  0.35507600  0.15409700  0.63367400  1
  S  S14  1  0.15409700  0.35507600  0.13367400  1
  S  S15  1  0.64492400  0.84590300  0.36632600  1
  S  S16  1  0.59361100  0.57820100  0.58461900  1
  S  S17  1  0.42179900  0.40638900  0.91538100  1
  S  S18  1  0.40638900  0.42179900  0.41538100  1
  S  S19  1  0.57820100  0.59361100  0.08461900  1
  S  S20  1  0.05728100  0.10019700  0.58776700  1
  S  S21  1  0.89980300  0.94271900  0.91223300  1
  S  S22  1  0.94271900  0.89980300  0.41223300  1
  S  S23  1  0.10019700  0.05728100  0.08776700  1
  S  S24  1  0.69883400  0.19641400  0.62786100  1
  S  S25  1  0.80358600  0.30116600  0.87213900  1
  S  S26  1  0.30116600  0.80358600  0.37213900  1
  S  S27  1  0.19641400  0.69883400  0.12786100  1
loop_
_geom_bond_atom_site_label_1
_geom_bond_atom_site_label_2
_geom_bond_distance
_geom_bond_site_symmetry_2
Ba0 S16 3.223030 1_555
Ba0 S0 3.227532 1_555
Ba0 S13 3.234525 1_555
Ba0 S8 3.287262 1_555
Ba0 S24 3.289658 1_555
Ba0 S17 3.342884 1_555
Ba0 S4 3.344853 1_555
Ba0 S18 3.379564 1_555
Ba1 S17 3.223030 1_555
Ba1 S1 3.227532 1_555
Ba1 S12 3.234525 1_555
Ba1 S9 3.287262 1_555
Ba1 S25 3.289658 1_555
Ba1 S16 3.342884 1_555
Ba1 S5 3.344853 1_555
Ba1 S19 3.379564 1_556
Ba2 S18 3.223030 1_555
Ba2 S2 3.227532 1_555
Ba2 S15 3.234525 1_555
Ba2 S10 3.287262 1_555
Ba2 S26 3.289658 1_555
Ba2 S19 3.342884 1_555
Ba2 S6 3.344853 1_555
Ba2 S16 3.379564 1_555
Ba3 S19 3.223030 1_555
Ba3 S3 3.227532 1_555
Ba3 S14 3.234525 1_555
Ba3 S11 3.287262 1_555
Ba3 S27 3.289658 1_555
Ba3 S18 3.342884 1_555
Ba3 S7 3.344853 1_555
Ba3 S17 3.379564 1_554
Ba4 S0 3.199120 1_655
Ba4 S9 3.219722 1_555
Ba4 S20 3.249483 1_665
Ba4 S24 3.266836 1_565
Ba4 S12 3.277630 1_555
Ba4 S4 3.305423 1_655
Ba4 S21 3.379119 1_555
Ba4 S22 3.416598 1_555
Ba5 S1 3.199120 1_545
Ba5 S8 3.219722 1_555
Ba5 S21 3.249483 1_445
Ba5 S25 3.266836 1_455
Ba5 S13 3.277630 1_555
Ba5 S5 3.305423 1_545
Ba5 S20 3.379119 1_555
Ba5 S23 3.416598 1_556
Ba6 S2 3.199120 1_455
Ba6 S11 3.219722 1_555
Ba6 S22 3.249483 1_445
Ba6 S26 3.266836 1_545
Ba6 S14 3.277630 1_555
Ba6 S6 3.305423 1_455
Ba6 S23 3.379119 1_555
Ba6 S20 3.416598 1_555
Ba7 S3 3.199120 1_565
Ba7 S10 3.219722 1_555
Ba7 S23 3.249483 1_665
Ba7 S27 3.266836 1_655
Ba7 S15 3.277630 1_555
Ba7 S7 3.305423 1_565
Ba7 S22 3.379119 1_555
Ba7 S21 3.416598 1_554
Ba8 S1 3.273764 1_555
Ba8 S27 3.287517 1_556
Ba8 S10 3.312092 1_456
Ba8 S0 3.315117 1_555
Ba8 S14 3.315789 1_556
Ba8 S8 3.322514 1_555
Ba8 S12 3.345307 1_455
Ba8 S17 3.364216 1_555
Ba8 S21 3.439403 1_455
Ba9 S0 3.273764 1_555
Ba9 S26 3.287517 1_555
Ba9 S11 3.312092 1_565
Ba9 S1 3.315117 1_555
Ba9 S15 3.315789 1_555
Ba9 S9 3.322514 1_555
Ba9 S13 3.345307 1_565
Ba9 S16 3.364216 1_555
Ba9 S20 3.439403 1_565
Ba10 S3 3.273764 1_555
Ba10 S25 3.287517 1_554
Ba10 S8 3.312092 1_654
Ba10 S2 3.315117 1_555
Ba10 S12 3.315789 1_554
Ba10 S10 3.322514 1_555
Ba10 S14 3.345307 1_655
Ba10 S19 3.364216 1_555
Ba10 S23 3.439403 1_655
Ba11 S2 3.273764 1_555
Ba11 S24 3.287517 1_555
Ba11 S9 3.312092 1_545
Ba11 S3 3.315117 1_555
Ba11 S13 3.315789 1_555
Ba11 S11 3.322514 1_555
Ba11 S15 3.345307 1_545
Ba11 S18 3.364216 1_555
Ba11 S22 3.439403 1_545
S0 S4 2.097841 1_555
S1 S5 2.097841 1_555
S2 S6 2.097841 1_555
S3 S7 2.097841 1_555
S4 Sb6 2.596273 1_555
S5 Sb7 2.596273 1_556
S6 Sb4 2.596273 1_555
S7 Sb5 2.596273 1_554
S8 Sb1 2.448140 1_555
S9 Sb0 2.448140 1_555
S10 Sb3 2.448140 1_555
S11 Sb2 2.448140 1_555
S12 Sb3 2.444909 1_556
S13 Sb2 2.444909 1_555
S14 Sb1 2.444909 1_554
S15 Sb0 2.444909 1_555
S16 Sb0 2.521336 1_555
S17 Sb1 2.521336 1_555
S18 Sb2 2.521336 1_555
S19 Sb3 2.521336 1_555
S20 Sb4 2.497432 1_455
S21 Sb5 2.497432 1_565
S22 Sb6 2.497432 1_655
S23 Sb7 2.497432 1_545
S24 Sb4 2.414524 1_555
S25 Sb5 2.414524 1_555
S26 Sb6 2.414524 1_555
S27 Sb7 2.414524 1_555
