# generated using pymatgen
data_TaVCu
_symmetry_space_group_name_H-M   'P 1'
_cell_length_a   5.01041163
_cell_length_b   5.01041163
_cell_length_c   5.01041163
_cell_angle_alpha   122.87355640
_cell_angle_beta   119.44603481
_cell_angle_gamma   88.02918295
_symmetry_Int_Tables_number   1
_chemical_formula_structural   TaVCu
_chemical_formula_sum   'Ta2 V2 Cu2'
_cell_volume   87.22441264
_cell_formula_units_Z   2
loop_
 _symmetry_equiv_pos_site_id
 _symmetry_equiv_pos_as_xyz
  1  'x, y, z'
loop_
 _atom_site_type_symbol
 _atom_site_label
 _atom_site_symmetry_multiplicity
 _atom_site_fract_x
 _atom_site_fract_y
 _atom_site_fract_z
 _atom_site_occupancy
  Ta  Ta0  1  0.12948600  0.87948600  0.25000000  1
  Ta  Ta1  1  0.87051400  0.12051400  0.75000000  1
  V  V0  1  0.50000000  0.00000000  0.00000000  1
  V  V1  1  0.50000000  0.50000000  0.50000000  1
  Cu  Cu0  1  0.00000000  0.50000000  0.50000000  1
  Cu  Cu1  1  0.50000000  0.50000000  0.00000000  1
loop_
_geom_bond_atom_site_label_1
_geom_bond_atom_site_label_2
_geom_bond_distance
_geom_bond_site_symmetry_2
Ta0 V0 2.926506 1_565
Ta0 V1 2.926506 1_565
Ta0 V1 2.947367 1_555
Ta0 V1 2.947367 1_454
Ta0 V0 2.947367 1_566
Ta0 V0 2.947367 1_465
Ta0 Ta1 3.036791 1_454
Ta0 Ta1 3.036791 1_465
Ta0 Ta1 3.065713 1_565
Ta0 Ta1 3.065713 1_464
Ta1 V0 2.926506 1_556
Ta1 V1 2.926506 1_545
Ta1 V1 2.947367 1_555
Ta1 V0 2.947367 1_656
Ta1 V1 2.947367 1_656
Ta1 V0 2.947367 1_555
V0 V1 2.395619 1_555
V0 V1 2.395619 1_544
Cu0 V0 2.505206 1_455
Cu0 V1 2.505206 1_555
Cu0 V1 2.505206 1_455
Cu0 V0 2.505206 1_566
Cu0 Cu1 2.526153 1_455
Cu0 Cu1 2.526153 1_556
Cu0 Ta1 2.844053 1_454
Cu0 Ta1 2.844053 1_465
Cu0 Ta0 2.844053 1_545
Cu0 Ta0 2.844053 1_556
Cu0 Ta0 3.012395 1_555
Cu0 Ta1 3.012395 1_455
Cu1 V1 2.505206 1_555
Cu1 V0 2.505206 1_565
Cu1 V1 2.505206 1_554
Cu1 V0 2.505206 1_555
Cu1 Ta1 2.844053 1_565
Cu1 Ta1 2.844053 1_554
Cu1 Ta0 2.844053 1_544
Cu1 Ta0 2.844053 1_555
Cu1 Ta1 3.012395 1_454
Cu1 Ta0 3.012395 1_655
