# generated using pymatgen
data_CoH9C4(NO2)3
_symmetry_space_group_name_H-M   'P 1'
_cell_length_a   8.24064801
_cell_length_b   11.58041295
_cell_length_c   8.92253894
_cell_angle_alpha   90.00000000
_cell_angle_beta   90.00000000
_cell_angle_gamma   90.00000000
_symmetry_Int_Tables_number   1
_chemical_formula_structural   CoH9C4(NO2)3
_chemical_formula_sum   'Co4 H36 C16 N12 O24'
_cell_volume   851.47884541
_cell_formula_units_Z   4
loop_
 _symmetry_equiv_pos_site_id
 _symmetry_equiv_pos_as_xyz
  1  'x, y, z'
loop_
 _atom_site_type_symbol
 _atom_site_label
 _atom_site_symmetry_multiplicity
 _atom_site_fract_x
 _atom_site_fract_y
 _atom_site_fract_z
 _atom_site_occupancy
  Co  Co0  1  0.25991102  0.25000000  0.25000000  1
  Co  Co1  1  0.24008898  0.75000000  0.25000000  1
  Co  Co2  1  0.74008898  0.75000000  0.75000000  1
  Co  Co3  1  0.75991102  0.25000000  0.75000000  1
  H  H0  1  0.25000000  0.50000000  0.18023118  1
  H  H1  1  0.25000000  0.00000000  0.31976882  1
  H  H2  1  0.75000000  0.50000000  0.81976882  1
  H  H3  1  0.75000000  0.00000000  0.68023118  1
  H  H4  1  0.32959547  0.41729887  0.57147982  1
  H  H5  1  0.17040453  0.58270113  0.57147982  1
  H  H6  1  0.32959547  0.08270113  0.92852018  1
  H  H7  1  0.17040453  0.91729887  0.92852018  1
  H  H8  1  0.67040453  0.58270113  0.42852018  1
  H  H9  1  0.82959547  0.41729887  0.42852018  1
  H  H10  1  0.67040453  0.91729887  0.07147982  1
  H  H11  1  0.82959547  0.08270113  0.07147982  1
  H  H12  1  0.42342993  0.37622405  0.74324275  1
  H  H13  1  0.07657007  0.62377595  0.74324275  1
  H  H14  1  0.42342993  0.12377595  0.75675725  1
  H  H15  1  0.07657007  0.87622405  0.75675725  1
  H  H16  1  0.57657007  0.62377595  0.25675725  1
  H  H17  1  0.92342993  0.37622405  0.25675725  1
  H  H18  1  0.57657007  0.87622405  0.24324275  1
  H  H19  1  0.92342993  0.12377595  0.24324275  1
  H  H20  1  0.60798117  0.28220279  0.42372912  1
  H  H21  1  0.89201883  0.71779721  0.42372912  1
  H  H22  1  0.60798117  0.21779721  0.07627088  1
  H  H23  1  0.89201883  0.78220279  0.07627088  1
  H  H24  1  0.39201883  0.71779721  0.57627088  1
  H  H25  1  0.10798117  0.28220279  0.57627088  1
  H  H26  1  0.39201883  0.78220279  0.92372912  1
  H  H27  1  0.10798117  0.21779721  0.92372912  1
  H  H28  1  0.31142078  0.43737824  0.96490073  1
  H  H29  1  0.18857922  0.56262176  0.96490073  1
  H  H30  1  0.31142078  0.06262176  0.53509927  1
  H  H31  1  0.18857922  0.93737824  0.53509927  1
  H  H32  1  0.68857922  0.56262176  0.03509927  1
  H  H33  1  0.81142078  0.43737824  0.03509927  1
  H  H34  1  0.68857922  0.93737824  0.46490073  1
  H  H35  1  0.81142078  0.06262176  0.46490073  1
  C  C0  1  0.25000000  0.50000000  0.30270448  1
  C  C1  1  0.25000000  0.00000000  0.19729552  1
  C  C2  1  0.75000000  0.50000000  0.69729552  1
  C  C3  1  0.75000000  0.00000000  0.80270448  1
  C  C4  1  0.53109911  0.21895559  0.48282985  1
  C  C5  1  0.96890089  0.78104441  0.48282985  1
  C  C6  1  0.53109911  0.28104441  0.01717015  1
  C  C7  1  0.96890089  0.71895559  0.01717015  1
  C  C8  1  0.46890089  0.78104441  0.51717015  1
  C  C9  1  0.03109911  0.21895559  0.51717015  1
  C  C10  1  0.46890089  0.71895559  0.98282985  1
  C  C11  1  0.03109911  0.28104441  0.98282985  1
  C  C12  1  0.25000000  0.50000000  0.75896833  1
  C  C13  1  0.25000000  0.00000000  0.74103167  1
  C  C14  1  0.75000000  0.50000000  0.24103167  1
  C  C15  1  0.75000000  0.00000000  0.25896833  1
  N  N0  1  0.34303685  0.42519809  0.68446033  1
  N  N1  1  0.15696315  0.57480191  0.68446033  1
  N  N2  1  0.34303685  0.07480191  0.81553967  1
  N  N3  1  0.15696315  0.92519809  0.81553967  1
  N  N4  1  0.65696315  0.57480191  0.31553967  1
  N  N5  1  0.84303685  0.42519809  0.31553967  1
  N  N6  1  0.65696315  0.92519809  0.18446033  1
  N  N7  1  0.84303685  0.07480191  0.18446033  1
  N  N8  1  0.25000000  0.50000000  0.90775339  1
  N  N9  1  0.25000000  0.00000000  0.59224661  1
  N  N10  1  0.75000000  0.50000000  0.09224661  1
  N  N11  1  0.75000000  0.00000000  0.40775339  1
  O  O0  1  0.26506333  0.40422818  0.36932538  1
  O  O1  1  0.23493667  0.59577182  0.36932538  1
  O  O2  1  0.26506333  0.09577182  0.13067462  1
  O  O3  1  0.23493667  0.90422818  0.13067462  1
  O  O4  1  0.73493667  0.59577182  0.63067462  1
  O  O5  1  0.76506333  0.40422818  0.63067462  1
  O  O6  1  0.73493667  0.90422818  0.86932538  1
  O  O7  1  0.76506333  0.09577182  0.86932538  1
  O  O8  1  0.40790212  0.17935020  0.41610365  1
  O  O9  1  0.09209788  0.82064980  0.41610365  1
  O  O10  1  0.40790212  0.32064980  0.08389635  1
  O  O11  1  0.09209788  0.67935020  0.08389635  1
  O  O12  1  0.59209788  0.82064980  0.58389635  1
  O  O13  1  0.90790212  0.17935020  0.58389635  1
  O  O14  1  0.59209788  0.67935020  0.91610365  1
  O  O15  1  0.90790212  0.32064980  0.91610365  1
  O  O16  1  0.57010225  0.19038961  0.61467183  1
  O  O17  1  0.92989775  0.80961039  0.61467183  1
  O  O18  1  0.57010225  0.30961039  0.88532817  1
  O  O19  1  0.92989775  0.69038961  0.88532817  1
  O  O20  1  0.42989775  0.80961039  0.38532817  1
  O  O21  1  0.07010225  0.19038961  0.38532817  1
  O  O22  1  0.42989775  0.69038961  0.11467183  1
  O  O23  1  0.07010225  0.30961039  0.11467183  1
loop_
_geom_bond_atom_site_label_1
_geom_bond_atom_site_label_2
_geom_bond_distance
_geom_bond_site_symmetry_2
Co0 O0 2.079723 1_555
Co0 O2 2.079723 1_555
Co0 O8 2.086428 1_555
Co0 O10 2.086428 1_555
Co0 O21 2.093102 1_555
Co0 O23 2.093102 1_555
Co1 O3 2.079723 1_555
Co1 O1 2.079723 1_555
Co1 O9 2.086428 1_555
Co1 O11 2.086428 1_555
Co1 O20 2.093102 1_555
Co1 O22 2.093102 1_555
Co2 O6 2.079723 1_555
Co2 O4 2.079723 1_555
Co2 O14 2.086428 1_555
Co2 O12 2.086428 1_555
Co2 O19 2.093102 1_555
Co2 O17 2.093102 1_555
Co3 O5 2.079723 1_555
Co3 O7 2.079723 1_555
Co3 O15 2.086428 1_555
Co3 O13 2.086428 1_555
Co3 O18 2.093102 1_555
Co3 O16 2.093102 1_555
H4 N0 1.018257 1_555
H5 N1 1.018257 1_555
H6 N2 1.018257 1_555
H7 N3 1.018257 1_555
H8 N4 1.018257 1_555
H9 N5 1.018257 1_555
H10 N6 1.018257 1_555
H11 N7 1.018257 1_555
H12 N0 1.017659 1_555
H13 N1 1.017659 1_555
H14 N2 1.017659 1_555
H15 N3 1.017659 1_555
H16 N4 1.017659 1_555
H17 N5 1.017659 1_555
H18 N6 1.017659 1_555
H19 N7 1.017659 1_555
H28 N8 1.020822 1_555
H29 N8 1.020822 1_555
H30 N9 1.020822 1_555
H31 N9 1.020822 1_565
H32 N10 1.020822 1_555
H33 N10 1.020822 1_555
H34 N11 1.020822 1_565
H35 N11 1.020822 1_555
C0 H0 1.092773 1_555
C0 O1 1.264439 1_555
C0 O0 1.264439 1_555
C1 H1 1.092773 1_555
C1 O2 1.264439 1_555
C1 O3 1.264439 1_545
C2 H2 1.092773 1_555
C2 O4 1.264439 1_555
C2 O5 1.264439 1_555
C3 H3 1.092773 1_555
C3 O7 1.264439 1_555
C3 O6 1.264439 1_545
C4 H20 1.102689 1_555
C4 O8 1.263130 1_555
C4 O16 1.263556 1_555
C5 H21 1.102689 1_555
C5 O9 1.263130 1_655
C5 O17 1.263556 1_555
C6 H22 1.102689 1_555
C6 O10 1.263130 1_555
C6 O18 1.263556 1_554
C7 H23 1.102689 1_555
C7 O11 1.263130 1_655
C7 O19 1.263556 1_554
C8 H24 1.102689 1_555
C8 O12 1.263130 1_555
C8 O20 1.263556 1_555
C9 H25 1.102689 1_555
C9 O13 1.263130 1_455
C9 O21 1.263556 1_555
C10 H26 1.102689 1_555
C10 O14 1.263130 1_555
C10 O22 1.263556 1_556
C11 H27 1.102689 1_555
C11 O15 1.263130 1_455
C11 O23 1.263556 1_556
C12 N8 1.327541 1_555
C12 N1 1.334215 1_555
C12 N0 1.334215 1_555
C13 N9 1.327541 1_555
C13 N3 1.334215 1_545
C13 N2 1.334215 1_555
C14 N10 1.327541 1_555
C14 N4 1.334215 1_555
C14 N5 1.334215 1_555
C15 N11 1.327541 1_555
C15 N6 1.334215 1_545
C15 N7 1.334215 1_555
