# generated using pymatgen
data_V2I3NO13
_symmetry_space_group_name_H-M   'P 1'
_cell_length_a   9.65689047
_cell_length_b   9.65689047
_cell_length_c   9.65689047
_cell_angle_alpha   131.60602129
_cell_angle_beta   112.70566994
_cell_angle_gamma   87.13389382
_symmetry_Int_Tables_number   1
_chemical_formula_structural   V2I3NO13
_chemical_formula_sum   'V4 I6 N2 O26'
_cell_volume   592.75288000
_cell_formula_units_Z   2
loop_
 _symmetry_equiv_pos_site_id
 _symmetry_equiv_pos_as_xyz
  1  'x, y, z'
loop_
 _atom_site_type_symbol
 _atom_site_label
 _atom_site_symmetry_multiplicity
 _atom_site_fract_x
 _atom_site_fract_y
 _atom_site_fract_z
 _atom_site_occupancy
  V  V0  1  0.85093600  0.65371500  0.76246900  1
  V  V1  1  0.14906400  0.91153200  0.80277900  1
  V  V2  1  0.60875300  0.41153200  0.76246900  1
  V  V3  1  0.39124700  0.15371500  0.80277900  1
  I  I0  1  0.24975500  0.55671100  0.78768100  1
  I  I1  1  0.75024500  0.53792600  0.30695600  1
  I  I2  1  0.73097100  0.03792600  0.78768100  1
  I  I3  1  0.26902900  0.05671100  0.30695600  1
  I  I4  1  0.97188300  0.77468500  0.24656700  1
  I  I5  1  0.02811700  0.27468500  0.80280200  1
  N  N0  1  0.33234400  0.54797500  0.38031900  1
  N  N1  1  0.66765600  0.04797500  0.21563000  1
  O  O0  1  0.34386300  0.76788600  0.07303100  1
  O  O1  1  0.65613700  0.72916800  0.42402400  1
  O  O2  1  0.80514500  0.22916800  0.07303100  1
  O  O3  1  0.19485500  0.26788600  0.42402400  1
  O  O4  1  0.00000000  0.82818300  0.82818300  1
  O  O5  1  0.50000000  0.32818300  0.82818300  1
  O  O6  1  0.90830300  0.98902900  0.39733200  1
  O  O7  1  0.09169700  0.48902900  0.08072600  1
  O  O8  1  0.97662400  0.79793500  0.06945700  1
  O  O9  1  0.02337600  0.09283300  0.82131100  1
  O  O10  1  0.77152200  0.59283300  0.06945700  1
  O  O11  1  0.22847800  0.29793500  0.82131100  1
  O  O12  1  0.71429100  0.76412800  0.77780900  1
  O  O13  1  0.28570900  0.06351800  0.04983700  1
  O  O14  1  0.51368100  0.56351800  0.77780900  1
  O  O15  1  0.48631900  0.26412800  0.04983700  1
  O  O16  1  0.76430800  0.45424200  0.71854900  1
  O  O17  1  0.23569200  0.95424200  0.68993400  1
  O  O18  1  0.21403000  0.67796700  0.69254700  1
  O  O19  1  0.78597000  0.47851700  0.46393700  1
  O  O20  1  0.51458000  0.97851700  0.69254700  1
  O  O21  1  0.48542000  0.17796700  0.46393700  1
  O  O22  1  0.04875600  0.48937000  0.73725500  1
  O  O23  1  0.95124400  0.68850000  0.44061500  1
  O  O24  1  0.74788500  0.18850000  0.73725500  1
  O  O25  1  0.25211500  0.98937000  0.44061500  1
loop_
_geom_bond_atom_site_label_1
_geom_bond_atom_site_label_2
_geom_bond_distance
_geom_bond_site_symmetry_2
I0 O0 1.835014 1_556
I0 O22 1.844886 1_555
I0 O18 1.864859 1_555
I0 O3 2.468997 1_555
I1 O1 1.835015 1_555
I1 O23 1.844887 1_555
I1 O19 1.864859 1_555
I1 O2 2.469002 1_555
I2 O2 1.835015 1_556
I2 O24 1.844893 1_555
I2 O20 1.864869 1_545
I2 O1 2.468996 1_545
I3 O3 1.835009 1_555
I3 O25 1.844892 1_545
I3 O21 1.864867 1_555
I3 O0 2.469008 1_545
I4 O6 1.828130 1_555
I4 O8 1.883929 1_555
I4 O10 1.883939 1_555
I4 O25 2.572922 1_655
I4 O23 2.572937 1_555
I4 O7 2.599524 1_655
I5 O7 1.828129 1_556
I5 O9 1.883938 1_555
I5 O11 1.883938 1_555
I5 O24 2.572924 1_455
I5 O22 2.572926 1_555
I5 O6 2.599524 1_445
O4 V1 1.852269 1_555
O4 V0 1.852274 1_455
O5 V2 1.852261 1_555
O5 V3 1.852269 1_555
O8 V0 2.027212 1_554
O9 V1 2.027219 1_545
O10 V2 2.027214 1_554
O11 V3 2.027219 1_555
O12 V0 1.643327 1_555
O13 V1 1.643326 1_544
O14 V2 1.643329 1_555
O15 V3 1.643326 1_554
O16 V0 1.841891 1_555
O16 V2 1.841917 1_555
O17 V1 1.841904 1_555
O17 V3 1.841904 1_565
O18 V1 1.949256 1_555
O19 V0 1.949264 1_555
O20 V3 1.949256 1_565
O21 V2 1.949261 1_555
O22 V0 2.402105 1_455
O23 V1 2.402100 1_655
O24 V2 2.402094 1_555
O25 V3 2.402097 1_565
