# generated using pymatgen
data_Li9Mn2Co5O16
_symmetry_space_group_name_H-M   'P 1'
_cell_length_a   2.90288000
_cell_length_b   9.80567300
_cell_length_c   10.40226651
_cell_angle_alpha   81.09690952
_cell_angle_beta   90.00000000
_cell_angle_gamma   90.00000000
_symmetry_Int_Tables_number   1
_chemical_formula_structural   Li9Mn2Co5O16
_chemical_formula_sum   'Li9 Mn2 Co5 O16'
_cell_volume   292.52978987
_cell_formula_units_Z   1
loop_
 _symmetry_equiv_pos_site_id
 _symmetry_equiv_pos_as_xyz
  1  'x, y, z'
loop_
 _atom_site_type_symbol
 _atom_site_label
 _atom_site_symmetry_multiplicity
 _atom_site_fract_x
 _atom_site_fract_y
 _atom_site_fract_z
 _atom_site_occupancy
  Li  Li0  1  0.50000000  0.00383200  0.25656800  1
  Li  Li1  1  0.50000000  0.00526800  0.73471200  1
  Li  Li2  1  0.00000000  0.74635900  0.37950900  1
  Li  Li3  1  0.00000000  0.74562300  0.87073900  1
  Li  Li4  1  0.50000000  0.49700100  0.50576300  1
  Li  Li5  1  0.50000000  0.49014000  0.00442300  1
  Li  Li6  1  0.00000000  0.25055400  0.13811700  1
  Li  Li7  1  0.00000000  0.25560500  0.61318000  1
  Li  Li8  1  0.50000000  0.24953700  0.37534100  1
  Mn  Mn0  1  0.00000000  0.00288300  0.99942800  1
  Mn  Mn1  1  0.50000000  0.74310700  0.12884900  1
  Co  Co0  1  0.00000000  0.01584500  0.48157500  1
  Co  Co1  1  0.50000000  0.75646600  0.62771300  1
  Co  Co2  1  0.00000000  0.47837900  0.26957400  1
  Co  Co3  1  0.00000000  0.50343200  0.74825400  1
  Co  Co4  1  0.50000000  0.25366200  0.86718200  1
  O  O0  1  0.50000000  0.11626700  0.05386300  1
  O  O1  1  0.50000000  0.11195500  0.55393600  1
  O  O2  1  0.00000000  0.85301800  0.18662000  1
  O  O3  1  0.00000000  0.86644300  0.68780700  1
  O  O4  1  0.50000000  0.62429600  0.29199300  1
  O  O5  1  0.50000000  0.61865800  0.80604200  1
  O  O6  1  0.00000000  0.36911800  0.92646200  1
  O  O7  1  0.00000000  0.38584500  0.43114400  1
  O  O8  1  0.50000000  0.88473900  0.45029700  1
  O  O9  1  0.50000000  0.87730400  0.95960400  1
  O  O10  1  0.00000000  0.63490500  0.57070200  1
  O  O11  1  0.00000000  0.64148500  0.06493800  1
  O  O12  1  0.50000000  0.38341800  0.69308700  1
  O  O13  1  0.50000000  0.38544200  0.19018400  1
  O  O14  1  0.00000000  0.11433400  0.31926600  1
  O  O15  1  0.00000000  0.13508000  0.81312600  1
loop_
_geom_bond_atom_site_label_1
_geom_bond_atom_site_label_2
_geom_bond_distance
_geom_bond_site_symmetry_2
Li0 O14 1.981125 1_555
Li0 O14 1.981125 1_655
Li0 O8 2.167121 1_545
Li0 O0 2.223084 1_555
Li0 O2 2.270707 1_545
Li0 O2 2.270707 1_645
Li1 O1 2.005416 1_555
Li1 O3 2.098426 1_545
Li1 O3 2.098426 1_645
Li1 O15 2.171095 1_555
Li1 O15 2.171095 1_655
Li1 O9 2.477620 1_545
Li2 O2 2.114298 1_555
Li2 O10 2.115915 1_555
Li2 O4 2.169171 1_455
Li2 O4 2.169171 1_555
Li2 O8 2.190746 1_555
Li2 O8 2.190746 1_455
Li3 O3 2.080101 1_555
Li3 O5 2.090194 1_455
Li3 O5 2.090194 1_555
Li3 O11 2.117800 1_556
Li3 O9 2.235597 1_555
Li3 O9 2.235597 1_455
Li4 O7 2.039377 1_655
Li4 O7 2.039377 1_555
Li4 O12 2.089431 1_555
Li4 O10 2.162011 1_655
Li4 O10 2.162011 1_555
Li4 O4 2.375649 1_555
Li5 O13 2.043002 1_555
Li5 O6 2.114355 1_654
Li5 O6 2.114355 1_554
Li5 O11 2.234831 1_555
Li5 O11 2.234831 1_655
Li5 O5 2.245365 1_554
Li6 O13 2.090744 1_455
Li6 O13 2.090744 1_555
Li6 O14 2.134457 1_555
Li6 O0 2.228435 1_455
Li6 O0 2.228435 1_555
Li6 O6 2.325251 1_554
Li7 O7 2.113790 1_555
Li7 O12 2.165823 1_555
Li7 O12 2.165823 1_455
Li7 O1 2.176987 1_555
Li7 O1 2.176987 1_455
Li7 O15 2.227516 1_555
Li8 O14 2.108061 1_555
Li8 O14 2.108061 1_655
Li8 O7 2.114299 1_555
Li8 O7 2.114299 1_655
Li8 O1 2.120294 1_555
Li8 O13 2.165902 1_555
Mn0 O0 1.964254 1_556
Mn0 O0 1.964254 1_456
Mn0 O9 1.988089 1_545
Mn0 O9 1.988089 1_445
Mn0 O15 2.158348 1_555
Mn0 O2 2.250660 1_546
Mn1 O4 1.904033 1_555
Mn1 O11 1.935632 1_555
Mn1 O11 1.935632 1_655
Mn1 O2 1.956997 1_655
Mn1 O2 1.956997 1_555
Mn1 O9 2.028293 1_554
Co0 O14 1.810692 1_555
Co0 O1 1.944479 1_455
Co0 O1 1.944479 1_555
Co0 O8 1.998682 1_545
Co0 O8 1.998682 1_445
Co0 O3 2.403254 1_545
Co1 O3 1.966990 1_655
Co1 O3 1.966990 1_555
Co1 O10 2.024356 1_655
Co1 O10 2.024356 1_555
Co1 O8 2.066285 1_555
Co1 O5 2.119255 1_555
Co2 O7 1.782135 1_555
Co2 O13 1.962681 1_455
Co2 O13 1.962681 1_555
Co2 O4 2.076434 1_555
Co2 O4 2.076434 1_455
Co2 O11 2.456713 1_555
Co3 O5 1.988684 1_555
Co3 O5 1.988684 1_455
Co3 O12 2.007468 1_455
Co3 O12 2.007468 1_555
Co3 O10 2.082352 1_555
Co3 O6 2.101271 1_555
Co4 O15 1.994315 1_555
Co4 O15 1.994315 1_655
Co4 O6 1.996177 1_555
Co4 O6 1.996177 1_655
Co4 O12 2.045803 1_555
Co4 O0 2.185471 1_556
