# generated using pymatgen
data_K2ZrHF7
_symmetry_space_group_name_H-M   'P 1'
_cell_length_a   8.71644100
_cell_length_b   13.64255300
_cell_length_c   11.75484500
_cell_angle_alpha   90.00000000
_cell_angle_beta   90.00000000
_cell_angle_gamma   90.00000000
_symmetry_Int_Tables_number   1
_chemical_formula_structural   K2ZrHF7
_chemical_formula_sum   'K16 Zr8 H8 F56'
_cell_volume   1397.82161348
_cell_formula_units_Z   8
loop_
 _symmetry_equiv_pos_site_id
 _symmetry_equiv_pos_as_xyz
  1  'x, y, z'
loop_
 _atom_site_type_symbol
 _atom_site_label
 _atom_site_symmetry_multiplicity
 _atom_site_fract_x
 _atom_site_fract_y
 _atom_site_fract_z
 _atom_site_occupancy
  K  K0  1  0.34827200  0.67128500  0.25766300  1
  K  K1  1  0.65172800  0.17128500  0.24233700  1
  K  K2  1  0.15172800  0.32871500  0.75766300  1
  K  K3  1  0.84827200  0.82871500  0.74233700  1
  K  K4  1  0.65172800  0.32871500  0.74233700  1
  K  K5  1  0.34827200  0.82871500  0.75766300  1
  K  K6  1  0.84827200  0.67128500  0.24233700  1
  K  K7  1  0.15172800  0.17128500  0.25766300  1
  K  K8  1  0.11669900  0.60781300  0.93223700  1
  K  K9  1  0.88330100  0.10781300  0.56776300  1
  K  K10  1  0.38330100  0.39218700  0.43223700  1
  K  K11  1  0.61669900  0.89218700  0.06776300  1
  K  K12  1  0.88330100  0.39218700  0.06776300  1
  K  K13  1  0.11669900  0.89218700  0.43223700  1
  K  K14  1  0.61669900  0.60781300  0.56776300  1
  K  K15  1  0.38330100  0.10781300  0.93223700  1
  Zr  Zr0  1  0.59502100  0.61795300  0.96070300  1
  Zr  Zr1  1  0.40497900  0.11795300  0.53929700  1
  Zr  Zr2  1  0.90497900  0.38204700  0.46070300  1
  Zr  Zr3  1  0.09502100  0.88204700  0.03929700  1
  Zr  Zr4  1  0.40497900  0.38204700  0.03929700  1
  Zr  Zr5  1  0.59502100  0.88204700  0.46070300  1
  Zr  Zr6  1  0.09502100  0.61795300  0.53929700  1
  Zr  Zr7  1  0.90497900  0.11795300  0.96070300  1
  H  H0  1  0.82373400  0.51731400  0.80849300  1
  H  H1  1  0.17626600  0.01731400  0.69150700  1
  H  H2  1  0.67626600  0.48268600  0.30849300  1
  H  H3  1  0.32373400  0.98268600  0.19150700  1
  H  H4  1  0.17626600  0.48268600  0.19150700  1
  H  H5  1  0.82373400  0.98268600  0.30849300  1
  H  H6  1  0.32373400  0.51731400  0.69150700  1
  H  H7  1  0.67626600  0.01731400  0.80849300  1
  F  F0  1  0.80377500  0.57933700  0.03098900  1
  F  F1  1  0.19622500  0.07933700  0.46901100  1
  F  F2  1  0.69622500  0.42066300  0.53098900  1
  F  F3  1  0.30377500  0.92066300  0.96901100  1
  F  F4  1  0.19622500  0.42066300  0.96901100  1
  F  F5  1  0.80377500  0.92066300  0.53098900  1
  F  F6  1  0.30377500  0.57933700  0.46901100  1
  F  F7  1  0.69622500  0.07933700  0.03098900  1
  F  F8  1  0.57451400  0.70045500  0.10681400  1
  F  F9  1  0.42548600  0.20045500  0.39318600  1
  F  F10  1  0.92548600  0.29954500  0.60681400  1
  F  F11  1  0.07451400  0.79954500  0.89318600  1
  F  F12  1  0.42548600  0.29954500  0.89318600  1
  F  F13  1  0.57451400  0.79954500  0.60681400  1
  F  F14  1  0.07451400  0.70045500  0.39318600  1
  F  F15  1  0.92548600  0.20045500  0.10681400  1
  F  F16  1  0.41872700  0.54384900  0.06318700  1
  F  F17  1  0.58127300  0.04384900  0.43681300  1
  F  F18  1  0.08127300  0.45615100  0.56318700  1
  F  F19  1  0.91872700  0.95615100  0.93681300  1
  F  F20  1  0.58127300  0.45615100  0.93681300  1
  F  F21  1  0.41872700  0.95615100  0.56318700  1
  F  F22  1  0.91872700  0.54384900  0.43681300  1
  F  F23  1  0.08127300  0.04384900  0.06318700  1
  F  F24  1  0.67027000  0.75167400  0.90625100  1
  F  F25  1  0.32973000  0.25167400  0.59374900  1
  F  F26  1  0.82973000  0.24832600  0.40625100  1
  F  F27  1  0.17027000  0.74832600  0.09374900  1
  F  F28  1  0.32973000  0.24832600  0.09374900  1
  F  F29  1  0.67027000  0.74832600  0.40625100  1
  F  F30  1  0.17027000  0.75167400  0.59374900  1
  F  F31  1  0.82973000  0.25167400  0.90625100  1
  F  F32  1  0.40400700  0.65317000  0.87188100  1
  F  F33  1  0.59599300  0.15317000  0.62811900  1
  F  F34  1  0.09599300  0.34683000  0.37188100  1
  F  F35  1  0.90400700  0.84683000  0.12811900  1
  F  F36  1  0.59599300  0.34683000  0.12811900  1
  F  F37  1  0.40400700  0.84683000  0.37188100  1
  F  F38  1  0.90400700  0.65317000  0.62811900  1
  F  F39  1  0.09599300  0.15317000  0.87188100  1
  F  F40  1  0.70443200  0.58221700  0.80391600  1
  F  F41  1  0.29556800  0.08221700  0.69608400  1
  F  F42  1  0.79556800  0.41778300  0.30391600  1
  F  F43  1  0.20443200  0.91778300  0.19608400  1
  F  F44  1  0.29556800  0.41778300  0.19608400  1
  F  F45  1  0.70443200  0.91778300  0.30391600  1
  F  F46  1  0.20443200  0.58221700  0.69608400  1
  F  F47  1  0.79556800  0.08221700  0.80391600  1
  F  F48  1  0.90941300  0.46743700  0.81486600  1
  F  F49  1  0.09058700  0.96743700  0.68513400  1
  F  F50  1  0.59058700  0.53256300  0.31486600  1
  F  F51  1  0.40941300  0.03256300  0.18513400  1
  F  F52  1  0.09058700  0.53256300  0.18513400  1
  F  F53  1  0.90941300  0.03256300  0.31486600  1
  F  F54  1  0.40941300  0.46743700  0.68513400  1
  F  F55  1  0.59058700  0.96743700  0.81486600  1
loop_
_geom_bond_atom_site_label_1
_geom_bond_atom_site_label_2
_geom_bond_distance
_geom_bond_site_symmetry_2
F0 Zr0 2.066655 1_554
F0 K12 2.680711 1_555
F0 K6 2.809987 1_555
F0 K8 2.989669 1_654
F1 Zr1 2.066655 1_555
F1 K13 2.680711 1_545
F1 K7 2.809987 1_555
F1 K9 2.989669 1_455
F2 Zr2 2.066655 1_555
F2 K14 2.680711 1_555
F2 K4 2.809987 1_555
F2 K10 2.989669 1_555
F3 Zr3 2.066655 1_556
F3 K15 2.680711 1_565
F3 K5 2.809987 1_555
F3 K11 2.989669 1_556
F4 Zr4 2.066655 1_556
F4 K8 2.680711 1_555
F4 K2 2.809987 1_555
F4 K12 2.989669 1_456
F5 Zr5 2.066655 1_555
F5 K9 2.680711 1_565
F5 K3 2.809987 1_555
F5 K13 2.989669 1_655
F6 Zr6 2.066655 1_555
F6 K10 2.680711 1_555
F6 K0 2.809987 1_555
F6 K14 2.989669 1_555
F7 Zr7 2.066655 1_554
F7 K11 2.680711 1_545
F7 K1 2.809987 1_555
F7 K15 2.989669 1_554
F8 Zr0 2.061222 1_554
F8 K11 2.681022 1_555
F8 K0 2.681699 1_555
F8 K6 2.896569 1_555
F9 Zr1 2.061222 1_555
F9 K10 2.681022 1_555
F9 K1 2.681699 1_555
F9 K7 2.896569 1_555
F10 Zr2 2.061222 1_555
F10 K9 2.681022 1_555
F10 K2 2.681699 1_655
F10 K4 2.896569 1_555
F11 Zr3 2.061222 1_556
F11 K8 2.681022 1_555
F11 K3 2.681699 1_455
F11 K5 2.896569 1_555
F12 Zr4 2.061222 1_556
F12 K15 2.681022 1_555
F12 K4 2.681699 1_555
F12 K2 2.896569 1_555
F13 Zr5 2.061222 1_555
F13 K14 2.681022 1_555
F13 K5 2.681699 1_555
F13 K3 2.896569 1_555
F14 Zr6 2.061222 1_555
F14 K13 2.681022 1_555
F14 K6 2.681699 1_455
F14 K0 2.896569 1_555
F15 Zr7 2.061222 1_554
F15 K12 2.681022 1_555
F15 K7 2.681699 1_655
F15 K1 2.896569 1_555
F16 Zr0 2.198779 1_554
F16 Zr4 2.228408 1_555
F16 K0 2.936948 1_555
F16 K8 3.171995 1_554
F17 Zr1 2.198779 1_555
F17 Zr5 2.228408 1_545
F17 K1 2.936948 1_555
F17 K9 3.171995 1_555
F18 Zr2 2.198779 1_455
F18 Zr6 2.228408 1_555
F18 K2 2.936948 1_555
F18 K10 3.171995 1_555
F19 Zr3 2.198779 1_656
F19 Zr7 2.228408 1_565
F19 K3 2.936948 1_555
F19 K11 3.171995 1_556
F20 Zr4 2.198779 1_556
F20 Zr0 2.228408 1_555
F20 K4 2.936948 1_555
F20 K12 3.171995 1_556
F21 Zr5 2.198779 1_555
F21 Zr1 2.228408 1_565
F21 K5 2.936948 1_555
F21 K13 3.171995 1_555
F22 Zr6 2.198779 1_655
F22 Zr2 2.228408 1_555
F22 K6 2.936948 1_555
F22 K14 3.171995 1_555
F23 Zr7 2.198779 1_454
F23 Zr3 2.228408 1_545
F23 K7 2.936948 1_555
F23 K15 3.171995 1_554
F24 Zr0 2.041558 1_555
F24 K3 2.687836 1_555
F24 K11 2.738110 1_556
F25 Zr1 2.041558 1_555
F25 K2 2.687836 1_555
F25 K10 2.738110 1_555
F26 Zr2 2.041558 1_555
F26 K1 2.687836 1_555
F26 K9 2.738110 1_555
F27 Zr3 2.041558 1_555
F27 K0 2.687836 1_555
F27 K8 2.738110 1_554
F28 Zr4 2.041558 1_555
F28 K7 2.687836 1_555
F28 K15 2.738110 1_554
F29 Zr5 2.041558 1_555
F29 K6 2.687836 1_555
F29 K14 2.738110 1_555
F30 Zr6 2.041558 1_555
F30 K5 2.687836 1_555
F30 K13 2.738110 1_555
F31 Zr7 2.041558 1_555
F31 K4 2.687836 1_555
F31 K12 2.738110 1_556
F32 Zr0 2.023129 1_555
F32 K8 2.675404 1_555
F32 K5 2.788205 1_555
F33 Zr1 2.023129 1_555
F33 K9 2.675404 1_555
F33 K4 2.788205 1_555
F34 Zr2 2.023129 1_455
F34 K10 2.675404 1_555
F34 K7 2.788205 1_555
F35 Zr3 2.023129 1_655
F35 K11 2.675404 1_555
F35 K6 2.788205 1_555
F36 Zr4 2.023129 1_555
F36 K12 2.675404 1_555
F36 K1 2.788205 1_555
F37 Zr5 2.023129 1_555
F37 K13 2.675404 1_555
F37 K0 2.788205 1_555
F38 Zr6 2.023129 1_655
F38 K14 2.675404 1_555
F38 K3 2.788205 1_555
F39 Zr7 2.023129 1_455
F39 K15 2.675404 1_555
F39 K2 2.788205 1_555
F40 H0 1.366847 1_555
F40 Zr0 2.131632 1_555
F40 K14 2.900446 1_555
F41 H1 1.366847 1_555
F41 Zr1 2.131632 1_555
F41 K15 2.900446 1_555
F42 H2 1.366847 1_555
F42 Zr2 2.131632 1_555
F42 K12 2.900446 1_555
F43 H3 1.366847 1_555
F43 Zr3 2.131632 1_555
F43 K13 2.900446 1_555
F44 H4 1.366847 1_555
F44 Zr4 2.131632 1_555
F44 K10 2.900446 1_555
F45 H5 1.366847 1_555
F45 Zr5 2.131632 1_555
F45 K11 2.900446 1_555
F46 H6 1.366847 1_555
F46 Zr6 2.131632 1_555
F46 K8 2.900446 1_555
F47 H7 1.366847 1_555
F47 Zr7 2.131632 1_555
F47 K9 2.900446 1_555
F48 H0 1.013093 1_555
F48 K2 2.914592 1_655
F48 K8 2.972471 1_655
F48 K4 3.058343 1_555
F48 K12 3.153260 1_556
F49 H1 1.013093 1_565
F49 K3 2.914592 1_455
F49 K9 2.972471 1_465
F49 K5 3.058343 1_555
F49 K13 3.153260 1_555
F50 H2 1.013093 1_555
F50 K0 2.914592 1_555
F50 K10 2.972471 1_555
F50 K6 3.058343 1_555
F50 K14 3.153260 1_555
F51 H3 1.013093 1_545
F51 K1 2.914592 1_555
F51 K11 2.972471 1_545
F51 K7 3.058343 1_555
F51 K15 3.153260 1_554
F52 H4 1.013093 1_555
F52 K6 2.914592 1_455
F52 K12 2.972471 1_455
F52 K0 3.058343 1_555
F52 K8 3.153260 1_554
F53 H5 1.013093 1_545
F53 K7 2.914592 1_655
F53 K13 2.972471 1_645
F53 K1 3.058343 1_555
F53 K9 3.153260 1_555
F54 H6 1.013093 1_555
F54 K4 2.914592 1_555
F54 K14 2.972471 1_555
F54 K2 3.058343 1_555
F54 K10 3.153260 1_555
F55 H7 1.013093 1_565
F55 K5 2.914592 1_555
F55 K15 2.972471 1_565
F55 K3 3.058343 1_555
F55 K11 3.153260 1_556
