# generated using pymatgen
data_SrCaMnO4
_symmetry_space_group_name_H-M   'P 1'
_cell_length_a   5.37614771
_cell_length_b   6.70519774
_cell_length_c   5.37627499
_cell_angle_alpha   66.36444933
_cell_angle_beta   90.00022608
_cell_angle_gamma   90.00008761
_symmetry_Int_Tables_number   1
_chemical_formula_structural   SrCaMnO4
_chemical_formula_sum   'Sr2 Ca2 Mn2 O8'
_cell_volume   177.54720718
_cell_formula_units_Z   2
loop_
 _symmetry_equiv_pos_site_id
 _symmetry_equiv_pos_as_xyz
  1  'x, y, z'
loop_
 _atom_site_type_symbol
 _atom_site_label
 _atom_site_symmetry_multiplicity
 _atom_site_fract_x
 _atom_site_fract_y
 _atom_site_fract_z
 _atom_site_occupancy
  Sr  Sr0  1  0.50000100  0.70620400  0.14688000  1
  Sr  Sr1  1  0.99999800  0.70621900  0.64686900  1
  Ca  Ca0  1  0.99999800  0.28402500  0.35796900  1
  Ca  Ca1  1  0.50000100  0.28403800  0.85796500  1
  Mn  Mn0  1  0.50000600  0.00174500  0.49910700  1
  Mn  Mn1  1  0.99999700  0.00174400  0.99913700  1
  O  O0  1  0.00000100  0.67518900  0.16241000  1
  O  O1  1  0.49999900  0.67519500  0.66240900  1
  O  O2  1  0.49999900  0.31541100  0.34230900  1
  O  O3  1  0.00000100  0.31542800  0.84229800  1
  O  O4  1  0.74999400  0.00870000  0.74565700  1
  O  O5  1  0.25000400  0.00870100  0.24566500  1
  O  O6  1  0.74999500  0.00870100  0.24566700  1
  O  O7  1  0.25000600  0.00870100  0.74565800  1
loop_
_geom_bond_atom_site_label_1
_geom_bond_atom_site_label_2
_geom_bond_distance
_geom_bond_site_symmetry_2
Ca0 O0 2.402813 1_655
Ca0 O6 2.544175 1_555
Ca0 O5 2.544195 1_655
Ca0 O4 2.544335 1_555
Ca0 O7 2.544341 1_655
Ca0 O3 2.694883 1_654
Ca0 O2 2.694974 1_555
Ca0 O2 2.694984 1_655
Ca0 O3 2.695216 1_655
Ca1 O1 2.402770 1_555
Ca1 O7 2.544238 1_555
Ca1 O4 2.544246 1_555
Ca1 O6 2.544373 1_556
Ca1 O5 2.544381 1_556
Ca1 O2 2.694870 1_555
Ca1 O3 2.694981 1_555
Ca1 O3 2.694981 1_655
Ca1 O2 2.695203 1_556
Mn0 O6 1.901075 1_555
Mn0 O5 1.901125 1_555
Mn0 O4 1.901313 1_555
Mn0 O7 1.901372 1_555
Mn0 O2 1.926764 1_555
Mn0 O1 2.005907 1_545
Mn1 O4 1.901273 1_555
Mn1 O7 1.901297 1_655
Mn1 O6 1.901302 1_556
Mn1 O5 1.901306 1_656
Mn1 O3 1.926875 1_655
Mn1 O0 2.005938 1_646
O0 Sr1 2.694750 1_455
O0 Sr0 2.694817 1_455
O0 Sr0 2.694817 1_555
O0 Sr1 2.695023 1_454
O1 Sr0 2.694749 1_556
O1 Sr1 2.694815 1_555
O1 Sr1 2.694826 1_455
O1 Sr0 2.695006 1_555
O2 Sr0 2.400535 1_555
O3 Sr1 2.400522 1_455
O4 Sr0 2.658036 1_546
O4 Sr1 2.658175 1_545
O5 Sr1 2.657978 1_445
O5 Sr0 2.658239 1_545
O6 Sr1 2.657959 1_545
O6 Sr0 2.658231 1_545
O7 Sr0 2.658036 1_546
O7 Sr1 2.658189 1_445
