# generated using pymatgen
data_TiCr
_symmetry_space_group_name_H-M   'P 1'
_cell_length_a   5.44415064
_cell_length_b   5.44415064
_cell_length_c   8.07647749
_cell_angle_alpha   90.00000000
_cell_angle_beta   90.00000000
_cell_angle_gamma   111.35751263
_symmetry_Int_Tables_number   1
_chemical_formula_structural   TiCr
_chemical_formula_sum   'Ti8 Cr8'
_cell_volume   222.93797028
_cell_formula_units_Z   8
loop_
 _symmetry_equiv_pos_site_id
 _symmetry_equiv_pos_as_xyz
  1  'x, y, z'
loop_
 _atom_site_type_symbol
 _atom_site_label
 _atom_site_symmetry_multiplicity
 _atom_site_fract_x
 _atom_site_fract_y
 _atom_site_fract_z
 _atom_site_occupancy
  Ti  Ti0_0  1  0.25000000  0.25000000  0.25000000  1
  Ti  Ti0_1  1  0.25000000  0.25000000  0.75000000  1
  Ti  Ti0_2  1  0.25000000  0.75000000  0.25000000  1
  Ti  Ti0_3  1  0.25000000  0.75000000  0.75000000  1
  Ti  Ti0_4  1  0.75000000  0.25000000  0.25000000  1
  Ti  Ti0_5  1  0.75000000  0.25000000  0.75000000  1
  Ti  Ti0_6  1  0.75000000  0.75000000  0.25000000  1
  Ti  Ti0_7  1  0.75000000  0.75000000  0.75000000  1
  Cr  Cr0_0  1  0.00000000  0.00000000  0.00000000  1
  Cr  Cr0_1  1  0.00000000  1.00000000  0.50000000  1
  Cr  Cr0_2  1  0.00000000  0.50000000  0.00000000  1
  Cr  Cr0_3  1  0.00000000  0.50000000  0.50000000  1
  Cr  Cr0_4  1  0.50000000  0.00000000  0.00000000  1
  Cr  Cr0_5  1  0.50000000  1.00000000  0.50000000  1
  Cr  Cr0_6  1  0.50000000  0.50000000  0.00000000  1
  Cr  Cr0_7  1  0.50000000  0.50000000  0.50000000  1
loop_
_geom_bond_atom_site_label_1
_geom_bond_atom_site_label_2
_geom_bond_distance
_geom_bond_site_symmetry_2
Ti0_0 Ti0_4 2.722075 1_555
Ti0_0 Ti0_2 2.722075 1_555
Ti0_0 Ti0_4 2.722075 1_455
Ti0_0 Ti0_2 2.722075 1_545
Ti0_1 Ti0_3 2.722075 1_555
Ti0_1 Ti0_3 2.722075 1_545
Ti0_1 Ti0_5 2.722075 1_455
Ti0_1 Ti0_5 2.722075 1_555
Ti0_2 Ti0_6 2.722075 1_555
Ti0_2 Ti0_6 2.722075 1_455
Ti0_3 Ti0_7 2.722075 1_455
Ti0_3 Ti0_7 2.722075 1_555
Ti0_4 Ti0_6 2.722075 1_555
Ti0_4 Ti0_6 2.722075 1_545
Ti0_5 Ti0_7 2.722075 1_555
Ti0_5 Ti0_7 2.722075 1_545
Cr0_0 Ti0_1 2.536225 1_554
Cr0_0 Ti0_0 2.536225 1_555
Cr0_0 Ti0_6 2.536225 1_445
Cr0_0 Ti0_7 2.536225 1_444
Cr0_0 Cr0_4 2.722075 1_555
Cr0_0 Cr0_2 2.722075 1_555
Cr0_0 Cr0_4 2.722075 1_455
Cr0_0 Cr0_2 2.722075 1_545
Cr0_1 Ti0_1 2.536225 1_565
Cr0_1 Ti0_6 2.536225 1_455
Cr0_1 Ti0_7 2.536225 1_455
Cr0_1 Ti0_0 2.536225 1_565
Cr0_1 Cr0_3 2.722075 1_565
Cr0_1 Cr0_5 2.722075 1_555
Cr0_1 Cr0_3 2.722075 1_555
Cr0_1 Cr0_5 2.722075 1_455
Cr0_2 Ti0_2 2.536225 1_555
Cr0_2 Ti0_4 2.536225 1_455
Cr0_2 Ti0_3 2.536225 1_554
Cr0_2 Ti0_5 2.536225 1_454
Cr0_2 Cr0_6 2.722075 1_555
Cr0_2 Cr0_6 2.722075 1_455
Cr0_3 Ti0_5 2.536225 1_455
Cr0_3 Ti0_3 2.536225 1_555
Cr0_3 Ti0_2 2.536225 1_555
Cr0_3 Ti0_4 2.536225 1_455
Cr0_3 Cr0_7 2.722075 1_555
Cr0_3 Cr0_7 2.722075 1_455
Cr0_4 Ti0_4 2.536225 1_555
Cr0_4 Ti0_3 2.536225 1_544
Cr0_4 Ti0_2 2.536225 1_545
Cr0_4 Ti0_5 2.536225 1_554
Cr0_4 Cr0_6 2.722075 1_555
Cr0_4 Cr0_6 2.722075 1_545
Cr0_5 Ti0_5 2.536225 1_565
Cr0_5 Ti0_4 2.536225 1_565
Cr0_5 Ti0_2 2.536225 1_555
Cr0_5 Ti0_3 2.536225 1_555
Cr0_5 Cr0_7 2.722075 1_565
Cr0_5 Cr0_7 2.722075 1_555
Cr0_6 Ti0_0 2.536225 1_555
Cr0_6 Ti0_6 2.536225 1_555
Cr0_6 Ti0_1 2.536225 1_554
Cr0_6 Ti0_7 2.536225 1_554
Cr0_7 Ti0_0 2.536225 1_555
Cr0_7 Ti0_6 2.536225 1_555
Cr0_7 Ti0_1 2.536225 1_555
Cr0_7 Ti0_7 2.536225 1_555
