# generated using pymatgen
data_K2SrTh2(MoO4)6
_symmetry_space_group_name_H-M   'P 1'
_cell_length_a   8.08223395
_cell_length_b   8.46004041
_cell_length_c   16.17886357
_cell_angle_alpha   101.55243475
_cell_angle_beta   102.48325368
_cell_angle_gamma   97.01157423
_symmetry_Int_Tables_number   1
_chemical_formula_structural   K2SrTh2(MoO4)6
_chemical_formula_sum   'K4 Sr2 Th4 Mo12 O48'
_cell_volume   1042.28257136
_cell_formula_units_Z   2
loop_
 _symmetry_equiv_pos_site_id
 _symmetry_equiv_pos_as_xyz
  1  'x, y, z'
loop_
 _atom_site_type_symbol
 _atom_site_label
 _atom_site_symmetry_multiplicity
 _atom_site_fract_x
 _atom_site_fract_y
 _atom_site_fract_z
 _atom_site_occupancy
  K  K0  1  0.80703100  0.28518600  0.56447800  1
  K  K1  1  0.19296900  0.71481400  0.43552200  1
  K  K2  1  0.14517600  0.49633800  0.15840000  1
  K  K3  1  0.85482400  0.50366200  0.84160000  1
  Sr  Sr0  1  0.33710300  0.37071800  0.84054800  1
  Sr  Sr1  1  0.66289700  0.62928200  0.15945200  1
  Th  Th0  1  0.68974300  0.69416100  0.49633500  1
  Th  Th1  1  0.31025700  0.30583900  0.50366500  1
  Th  Th2  1  0.93313600  0.99753900  0.83854100  1
  Th  Th3  1  0.06686400  0.00246100  0.16145900  1
  Mo  Mo0  1  0.47376100  0.00280600  0.66080100  1
  Mo  Mo1  1  0.52623900  0.99719400  0.33919900  1
  Mo  Mo2  1  0.08635700  0.05135200  0.65082900  1
  Mo  Mo3  1  0.91364300  0.94864800  0.34917100  1
  Mo  Mo4  1  0.14084600  0.67805100  0.66518200  1
  Mo  Mo5  1  0.85915400  0.32194900  0.33481800  1
  Mo  Mo6  1  0.53784300  0.62940500  0.68216500  1
  Mo  Mo7  1  0.46215700  0.37059500  0.31783500  1
  Mo  Mo8  1  0.38660100  0.16538500  0.01182800  1
  Mo  Mo9  1  0.61339900  0.83461500  0.98817200  1
  Mo  Mo10  1  0.77398000  0.23676500  0.00430400  1
  Mo  Mo11  1  0.22602000  0.76323500  0.99569600  1
  O  O0  1  0.27554300  0.54665500  0.59626800  1
  O  O1  1  0.72445700  0.45334500  0.40373200  1
  O  O2  1  0.40226900  0.78563300  0.72580600  1
  O  O3  1  0.59773100  0.21436700  0.27419400  1
  O  O4  1  0.34318500  0.11544800  0.72842000  1
  O  O5  1  0.65681500  0.88455200  0.27158000  1
  O  O6  1  0.07848900  0.86848100  0.72876900  1
  O  O7  1  0.92151100  0.13151900  0.27123100  1
  O  O8  1  0.48270400  0.13573000  0.58655500  1
  O  O9  1  0.51729600  0.86427000  0.41344500  1
  O  O10  1  0.02808900  0.17412900  0.74510900  1
  O  O11  1  0.97191100  0.82587100  0.25489100  1
  O  O12  1  0.87189900  0.24721000  0.91247900  1
  O  O13  1  0.12810100  0.75279000  0.08752100  1
  O  O14  1  0.59014100  0.50077800  0.58205500  1
  O  O15  1  0.40985900  0.49922200  0.41794500  1
  O  O16  1  0.87681100  0.94718400  0.58313200  1
  O  O17  1  0.12318900  0.05281600  0.41686800  1
  O  O18  1  0.95543600  0.17537600  0.07842600  1
  O  O19  1  0.04456400  0.82462400  0.92157400  1
  O  O20  1  0.50450800  0.47194900  0.73716400  1
  O  O21  1  0.49549200  0.52805100  0.26283600  1
  O  O22  1  0.21373900  0.88409200  0.59816600  1
  O  O23  1  0.78626100  0.11590800  0.40183400  1
  O  O24  1  0.53269200  0.80608500  0.59254100  1
  O  O25  1  0.46730800  0.19391500  0.40745900  1
  O  O26  1  0.61428200  0.11113800  0.06108600  1
  O  O27  1  0.38571800  0.88886200  0.93891400  1
  O  O28  1  0.13669800  0.20799000  0.59355300  1
  O  O29  1  0.86330200  0.79201000  0.40644600  1
  O  O30  1  0.20281700  0.15184000  0.91675500  1
  O  O31  1  0.79718300  0.84816000  0.08324500  1
  O  O32  1  0.80239800  0.44364800  0.06231600  1
  O  O33  1  0.19760200  0.55635200  0.93768400  1
  O  O34  1  0.10983200  0.54582100  0.73331800  1
  O  O35  1  0.89016800  0.45417900  0.26668200  1
  O  O36  1  0.74703200  0.73828100  0.74512900  1
  O  O37  1  0.25296800  0.26171900  0.25487100  1
  O  O38  1  0.53743500  0.23319100  0.93457500  1
  O  O39  1  0.46256500  0.76680900  0.06542500  1
  O  O40  1  0.67478200  0.05741100  0.73953500  1
  O  O41  1  0.32521800  0.94258900  0.26046500  1
  O  O42  1  0.40499900  0.36590100  0.07476000  1
  O  O43  1  0.59500100  0.63409900  0.92524000  1
  O  O44  1  0.26893600  0.03944700  0.07137200  1
  O  O45  1  0.73106400  0.96055300  0.92862800  1
  O  O46  1  0.94561500  0.62115200  0.57682100  1
  O  O47  1  0.05438500  0.37884800  0.42317900  1
loop_
_geom_bond_atom_site_label_1
_geom_bond_atom_site_label_2
_geom_bond_distance
_geom_bond_site_symmetry_2
K0 O23 2.691526 1_555
K0 O14 2.696058 1_555
K0 O28 2.784439 1_655
K0 O46 2.876066 1_555
K0 O8 2.893772 1_555
K0 O16 3.041670 1_545
K1 O22 2.691526 1_555
K1 O15 2.696058 1_555
K1 O29 2.784439 1_455
K1 O47 2.876066 1_555
K1 O9 2.893772 1_555
K1 O17 3.041670 1_565
K2 O13 2.653750 1_555
K2 O32 2.801711 1_455
K2 O18 2.849100 1_455
K2 O37 2.865311 1_555
K2 O21 2.916882 1_555
K2 O42 2.941901 1_555
K2 O35 3.012621 1_455
K3 O12 2.653750 1_555
K3 O33 2.801711 1_655
K3 O19 2.849100 1_655
K3 O36 2.865311 1_555
K3 O20 2.916882 1_555
K3 O43 2.941901 1_555
K3 O34 3.012621 1_655
Mo0 O40 1.778217 1_555
Mo0 O8 1.808721 1_555
Mo0 O4 1.883029 1_555
Mo0 O24 1.975104 1_545
Mo0 O22 2.146749 1_545
Mo0 O2 2.364967 1_545
Mo1 O41 1.778217 1_555
Mo1 O9 1.808721 1_555
Mo1 O5 1.883029 1_555
Mo1 O25 1.975104 1_565
Mo1 O23 2.146749 1_565
Mo1 O3 2.364967 1_565
Mo2 O16 1.814283 1_445
Mo2 O28 1.817554 1_555
Mo2 O10 1.850061 1_555
Mo2 O22 2.010018 1_545
Mo2 O4 2.122424 1_555
Mo2 O6 2.186240 1_545
Mo3 O17 1.814283 1_665
Mo3 O29 1.817542 1_555
Mo3 O11 1.850061 1_555
Mo3 O23 2.010018 1_565
Mo3 O5 2.122424 1_555
Mo3 O7 2.186240 1_565
Mo4 O34 1.753392 1_555
Mo4 O46 1.824542 1_455
Mo4 O6 1.914775 1_555
Mo4 O0 1.996931 1_555
Mo4 O2 2.128783 1_555
Mo4 O22 2.311608 1_555
Mo5 O35 1.753392 1_555
Mo5 O47 1.824542 1_655
Mo5 O7 1.914775 1_555
Mo5 O1 1.996931 1_555
Mo5 O3 2.128783 1_555
Mo5 O23 2.311608 1_555
Mo6 O20 1.769065 1_555
Mo6 O36 1.801129 1_555
Mo6 O14 1.920536 1_555
Mo6 O2 1.939151 1_555
Mo6 O0 2.211340 1_555
Mo6 O24 2.279397 1_555
Mo7 O21 1.769065 1_555
Mo7 O37 1.801129 1_555
Mo7 O15 1.920536 1_555
Mo7 O3 1.939151 1_555
Mo7 O1 2.211340 1_555
Mo7 O25 2.279397 1_555
Mo8 O42 1.765682 1_555
Mo8 O30 1.866975 1_554
Mo8 O44 1.878137 1_555
Mo8 O26 1.987623 1_555
Mo8 O38 2.037772 1_554
Mo8 O27 2.398203 1_544
Mo9 O43 1.765682 1_555
Mo9 O31 1.866975 1_556
Mo9 O45 1.878137 1_555
Mo9 O27 1.987623 1_555
Mo9 O39 2.037772 1_556
Mo9 O26 2.398203 1_566
Mo10 O32 1.774177 1_555
Mo10 O12 1.839835 1_554
Mo10 O18 1.879829 1_555
Mo10 O38 1.992099 1_554
Mo10 O26 2.051396 1_555
Mo10 O45 2.356358 1_544
Mo11 O33 1.774177 1_555
Mo11 O13 1.839835 1_556
Mo11 O19 1.879829 1_555
Mo11 O39 1.992099 1_556
Mo11 O27 2.051396 1_555
Mo11 O44 2.356358 1_566
O0 Th1 2.360662 1_555
O1 Th0 2.360662 1_555
O4 Sr0 2.540185 1_555
O5 Sr1 2.540185 1_555
O6 Th2 2.482899 1_455
O7 Th3 2.482899 1_655
O8 Th1 2.503353 1_555
O9 Th0 2.503353 1_555
O10 Th2 2.496394 1_445
O10 Sr0 2.770935 1_555
O11 Th3 2.496394 1_665
O11 Sr1 2.770935 1_555
O12 Th2 2.374149 1_545
O13 Th3 2.374149 1_565
O14 Th0 2.513535 1_555
O14 Th1 2.540977 1_555
O15 Th1 2.513535 1_555
O15 Th0 2.540977 1_555
O16 Th0 2.434757 1_555
O17 Th1 2.434757 1_555
O18 Th3 2.311156 1_655
O19 Th2 2.311156 1_455
O20 Sr0 2.575072 1_555
O21 Sr1 2.575072 1_555
O24 Th0 2.342585 1_555
O25 Th1 2.342585 1_555
O28 Th1 2.418367 1_555
O29 Th0 2.418379 1_555
O30 Th2 2.346799 1_445
O30 Sr0 2.670060 1_555
O31 Th3 2.346799 1_665
O31 Sr1 2.670060 1_555
O32 Sr1 2.533203 1_555
O33 Sr0 2.533203 1_555
O34 Sr0 2.982333 1_555
O35 Sr1 2.982333 1_555
O36 Th2 2.498267 1_555
O37 Th3 2.498267 1_555
O38 Sr0 2.528536 1_555
O39 Sr1 2.528536 1_555
O40 Th2 2.513892 1_545
O41 Th3 2.513892 1_565
O42 Sr1 2.756021 1_555
O43 Sr0 2.756021 1_555
O44 Th3 2.444691 1_555
O45 Th2 2.444691 1_555
O46 Th0 2.413229 1_555
O47 Th1 2.413229 1_555
