# generated using pymatgen
data_Mn2ZnO4
_symmetry_space_group_name_H-M   'P 1'
_cell_length_a   6.07916319
_cell_length_b   6.07916319
_cell_length_c   14.86591277
_cell_angle_alpha   89.22228102
_cell_angle_beta   89.22228102
_cell_angle_gamma   59.71481790
_symmetry_Int_Tables_number   1
_chemical_formula_structural   Mn2ZnO4
_chemical_formula_sum   'Mn12 Zn6 O24'
_cell_volume   474.35273410
_cell_formula_units_Z   6
loop_
 _symmetry_equiv_pos_site_id
 _symmetry_equiv_pos_as_xyz
  1  'x, y, z'
loop_
 _atom_site_type_symbol
 _atom_site_label
 _atom_site_symmetry_multiplicity
 _atom_site_fract_x
 _atom_site_fract_y
 _atom_site_fract_z
 _atom_site_occupancy
  Mn  Mn0  1  0.83436700  0.33610700  0.16579800  1
  Mn  Mn1  1  0.00803500  0.00803500  0.37812400  1
  Mn  Mn2  1  0.00070300  0.00070300  0.00024300  1
  Mn  Mn3  1  0.33610700  0.83436700  0.16579800  1
  Mn  Mn4  1  0.49998000  0.00140800  0.49980500  1
  Mn  Mn5  1  0.67499500  0.67499500  0.70976500  1
  Mn  Mn6  1  0.00140800  0.49998000  0.49980500  1
  Mn  Mn7  1  0.16604700  0.66632100  0.83457000  1
  Mn  Mn8  1  0.32634400  0.32634400  0.28919100  1
  Mn  Mn9  1  0.66632100  0.16604700  0.83457000  1
  Mn  Mn10  1  0.99331200  0.99331200  0.62201000  1
  Mn  Mn11  1  0.66071300  0.66071300  0.95736900  1
  Zn  Zn0  1  0.34285700  0.34285700  0.04267000  1
  Zn  Zn1  1  0.66567900  0.66567900  0.33310800  1
  Zn  Zn2  1  0.83406800  0.83406800  0.16835900  1
  Zn  Zn3  1  0.33555800  0.33555800  0.66690100  1
  Zn  Zn4  1  0.50061600  0.50061600  0.49986500  1
  Zn  Zn5  1  0.16763000  0.16763000  0.83170600  1
  O  O0  1  0.70714000  0.16460600  0.08505600  1
  O  O1  1  0.01086200  0.01086200  0.23706500  1
  O  O2  1  0.16460600  0.70714000  0.08505600  1
  O  O3  1  0.15966700  0.15966700  0.08665600  1
  O  O4  1  0.36740400  0.83554400  0.42472900  1
  O  O5  1  0.50710900  0.50710900  0.23859000  1
  O  O6  1  0.67846200  0.67846200  0.57226100  1
  O  O7  1  0.49746300  0.96966400  0.24050300  1
  O  O8  1  0.83554400  0.36740400  0.42472900  1
  O  O9  1  0.65685800  0.65685800  0.09480900  1
  O  O10  1  0.82382200  0.82382200  0.42722300  1
  O  O11  1  0.96966400  0.49746300  0.24050300  1
  O  O12  1  0.03162600  0.50342300  0.76001700  1
  O  O13  1  0.17754300  0.17754300  0.57247600  1
  O  O14  1  0.16560400  0.63427200  0.57516900  1
  O  O15  1  0.50342300  0.03162700  0.76001700  1
  O  O16  1  0.34347300  0.34347300  0.90741400  1
  O  O17  1  0.32288000  0.32288000  0.42710900  1
  O  O18  1  0.49409100  0.49409100  0.76182500  1
  O  O19  1  0.63427200  0.16560400  0.57516900  1
  O  O20  1  0.84488400  0.84488400  0.91229300  1
  O  O21  1  0.83787900  0.29074300  0.91476300  1
  O  O22  1  0.99042600  0.99042600  0.76243300  1
  O  O23  1  0.29074300  0.83787900  0.91476300  1
loop_
_geom_bond_atom_site_label_1
_geom_bond_atom_site_label_2
_geom_bond_distance
_geom_bond_site_symmetry_2
Mn0 O11 1.933939 1_555
Mn0 O9 1.983193 1_555
Mn0 O0 1.999598 1_555
Mn0 O1 2.004324 1_655
Mn0 O5 2.023791 1_555
Mn0 O3 2.068113 1_655
Mn1 O4 2.015721 1_545
Mn1 O8 2.015721 1_455
Mn1 O10 2.064325 1_445
Mn1 O1 2.096716 1_555
Mn2 O21 1.979001 1_454
Mn2 O23 1.979001 1_544
Mn2 O2 1.986672 1_545
Mn2 O0 1.986672 1_455
Mn2 O20 2.115716 1_444
Mn2 O3 2.127736 1_555
Mn3 O7 1.933939 1_555
Mn3 O9 1.983193 1_555
Mn3 O2 1.999598 1_555
Mn3 O1 2.004324 1_565
Mn3 O5 2.023791 1_555
Mn3 O3 2.068113 1_565
Mn4 O4 1.945891 1_545
Mn4 O19 1.948108 1_555
Mn4 O17 1.999585 1_555
Mn4 O13 2.003197 1_555
Mn4 O6 2.004398 1_545
Mn4 O10 2.008922 1_545
Mn5 O12 2.021961 1_655
Mn5 O15 2.021966 1_565
Mn5 O6 2.043877 1_555
Mn5 O18 2.047308 1_555
Mn6 O8 1.945891 1_455
Mn6 O14 1.948108 1_555
Mn6 O17 1.999585 1_555
Mn6 O13 2.003197 1_555
Mn6 O6 2.004398 1_455
Mn6 O10 2.008922 1_455
Mn7 O12 1.935800 1_555
Mn7 O23 1.984747 1_555
Mn7 O22 2.005977 1_455
Mn7 O16 2.006712 1_555
Mn7 O18 2.027043 1_555
Mn7 O20 2.039711 1_455
Mn8 O11 2.013639 1_455
Mn8 O7 2.013639 1_545
Mn8 O5 2.038163 1_555
Mn8 O17 2.050031 1_555
Mn9 O15 1.935796 1_555
Mn9 O21 1.984747 1_555
Mn9 O22 2.005977 1_545
Mn9 O16 2.006712 1_555
Mn9 O18 2.027043 1_555
Mn9 O20 2.039711 1_545
Mn10 O19 2.015342 1_565
Mn10 O14 2.015342 1_655
Mn10 O13 2.066703 1_665
Mn10 O22 2.087262 1_555
Mn11 O9 2.042939 1_556
Mn11 O20 2.044416 1_555
Mn11 O21 2.048558 1_555
Mn11 O23 2.048558 1_555
O0 Zn0 2.018516 1_555
O0 Zn2 2.135694 1_545
O1 Zn2 2.139645 1_445
O2 Zn0 2.018516 1_555
O2 Zn2 2.135694 1_455
O3 Zn0 2.029608 1_555
O4 Zn1 2.071705 1_555
O4 Zn4 2.085381 1_555
O5 Zn1 2.200810 1_555
O6 Zn4 2.176741 1_555
O7 Zn2 2.068840 1_555
O7 Zn1 2.102155 1_555
O8 Zn1 2.071705 1_555
O8 Zn4 2.085381 1_555
O9 Zn2 2.179700 1_555
O10 Zn1 2.193449 1_555
O11 Zn2 2.068840 1_555
O11 Zn1 2.102155 1_555
O12 Zn5 2.061308 1_555
O12 Zn3 2.106787 1_555
O13 Zn3 2.195408 1_555
O14 Zn3 2.074458 1_555
O14 Zn4 2.086835 1_555
O15 Zn5 2.061308 1_555
O15 Zn3 2.106783 1_555
O16 Zn0 2.010613 1_556
O16 Zn5 2.184029 1_555
O17 Zn4 2.178457 1_555
O18 Zn3 2.204440 1_555
O19 Zn3 2.074458 1_555
O19 Zn4 2.086835 1_555
O21 Zn5 2.132559 1_655
O22 Zn5 2.147589 1_665
O23 Zn5 2.132559 1_565
