# generated using pymatgen
data_Sr6Ca2Mn5Fe3O20
_symmetry_space_group_name_H-M   'P 1'
_cell_length_a   11.10778978
_cell_length_b   11.18915078
_cell_length_c   17.82484229
_cell_angle_alpha   108.23582104
_cell_angle_beta   108.29714733
_cell_angle_gamma   89.99357078
_symmetry_Int_Tables_number   1
_chemical_formula_structural   Sr6Ca2Mn5Fe3O20
_chemical_formula_sum   'Sr24 Ca8 Mn20 Fe12 O80'
_cell_volume   1985.88069404
_cell_formula_units_Z   4
loop_
 _symmetry_equiv_pos_site_id
 _symmetry_equiv_pos_as_xyz
  1  'x, y, z'
loop_
 _atom_site_type_symbol
 _atom_site_label
 _atom_site_symmetry_multiplicity
 _atom_site_fract_x
 _atom_site_fract_y
 _atom_site_fract_z
 _atom_site_occupancy
  Sr  Sr0  1  0.30807600  0.05932700  0.60967400  1
  Sr  Sr1  1  0.30790000  0.55805600  0.60985100  1
  Sr  Sr2  1  0.80835500  0.05881800  0.60992800  1
  Sr  Sr3  1  0.81054800  0.55830700  0.61053500  1
  Sr  Sr4  1  0.19637300  0.43983200  0.38854300  1
  Sr  Sr5  1  0.19934200  0.44235100  0.89358500  1
  Sr  Sr6  1  0.19663900  0.94143500  0.38841400  1
  Sr  Sr7  1  0.69859700  0.44123000  0.38880700  1
  Sr  Sr8  1  0.70108800  0.44297700  0.89313600  1
  Sr  Sr9  1  0.69904900  0.94087300  0.38968800  1
  Sr  Sr10  1  0.70006300  0.94124700  0.89251800  1
  Sr  Sr11  1  0.05833400  0.29941300  0.11017200  1
  Sr  Sr12  1  0.06080300  0.30191600  0.61041300  1
  Sr  Sr13  1  0.05885300  0.80065100  0.61095900  1
  Sr  Sr14  1  0.55738500  0.30083900  0.60869400  1
  Sr  Sr15  1  0.55655200  0.79939600  0.10959700  1
  Sr  Sr16  1  0.55791900  0.80087000  0.60873100  1
  Sr  Sr17  1  0.44769600  0.19742000  0.38768500  1
  Sr  Sr18  1  0.45081600  0.20030400  0.89286300  1
  Sr  Sr19  1  0.44710600  0.69782100  0.38829600  1
  Sr  Sr20  1  0.45046200  0.70156200  0.89382700  1
  Sr  Sr21  1  0.94828700  0.19694200  0.38653800  1
  Sr  Sr22  1  0.94856300  0.20016300  0.89251700  1
  Sr  Sr23  1  0.94716400  0.69647300  0.38696300  1
  Ca  Ca0  1  0.30437500  0.06133500  0.10411900  1
  Ca  Ca1  1  0.30490000  0.56280800  0.10552500  1
  Ca  Ca2  1  0.80400200  0.06116800  0.10327200  1
  Ca  Ca3  1  0.80465000  0.56210000  0.10444600  1
  Ca  Ca4  1  0.20270600  0.93850900  0.89774600  1
  Ca  Ca5  1  0.05688500  0.79162900  0.10338300  1
  Ca  Ca6  1  0.55656700  0.29260900  0.10507700  1
  Ca  Ca7  1  0.95337200  0.70824000  0.89777300  1
  Mn  Mn0  1  0.00368300  0.00004300  0.49979000  1
  Mn  Mn1  1  0.00283700  0.49949600  0.49902900  1
  Mn  Mn2  1  0.25666300  0.25060300  0.00308200  1
  Mn  Mn3  1  0.25235000  0.24929900  0.49890700  1
  Mn  Mn4  1  0.10496000  0.08904000  0.24230300  1
  Mn  Mn5  1  0.11375100  0.09412900  0.75545600  1
  Mn  Mn6  1  0.10913600  0.59853900  0.24645700  1
  Mn  Mn7  1  0.11089800  0.60452200  0.75614800  1
  Mn  Mn8  1  0.60787700  0.09803100  0.24672900  1
  Mn  Mn9  1  0.61363200  0.09690800  0.75137200  1
  Mn  Mn10  1  0.60708900  0.59147100  0.24566500  1
  Mn  Mn11  1  0.61506400  0.59850500  0.75159000  1
  Mn  Mn12  1  0.36293000  0.40257500  0.24672900  1
  Mn  Mn13  1  0.36288100  0.40628500  0.75449700  1
  Mn  Mn14  1  0.35401000  0.90090200  0.24491000  1
  Mn  Mn15  1  0.35988800  0.90359400  0.75303500  1
  Mn  Mn16  1  0.85414400  0.40063800  0.24293800  1
  Mn  Mn17  1  0.86374700  0.40730400  0.75302500  1
  Mn  Mn18  1  0.86010900  0.90108600  0.24474900  1
  Mn  Mn19  1  0.86676000  0.89843800  0.75203300  1
  Fe  Fe0  1  0.00697900  0.00036100  0.00244900  1
  Fe  Fe1  1  0.00622100  0.50245200  0.00304800  1
  Fe  Fe2  1  0.50535500  0.00212200  0.00281700  1
  Fe  Fe3  1  0.50258300  0.00037300  0.49943100  1
  Fe  Fe4  1  0.50660400  0.50090500  0.00485900  1
  Fe  Fe5  1  0.50285900  0.49903600  0.49838400  1
  Fe  Fe6  1  0.25460700  0.75162600  0.00206000  1
  Fe  Fe7  1  0.25113300  0.74964300  0.49926200  1
  Fe  Fe8  1  0.75611400  0.25218000  0.00418100  1
  Fe  Fe9  1  0.75410500  0.25014000  0.49925600  1
  Fe  Fe10  1  0.75803700  0.75191500  0.00388200  1
  Fe  Fe11  1  0.75396200  0.74933700  0.49983700  1
  O  O0  1  0.12483700  0.12310900  0.49463400  1
  O  O1  1  0.13014200  0.11998600  0.99194000  1
  O  O2  1  0.12322400  0.62179200  0.49538800  1
  O  O3  1  0.12237600  0.62468900  0.99252500  1
  O  O4  1  0.62577300  0.12378300  0.49529200  1
  O  O5  1  0.62499200  0.12497200  0.99712200  1
  O  O6  1  0.62579300  0.62356800  0.49536300  1
  O  O7  1  0.62810600  0.62271600  0.99619200  1
  O  O8  1  0.13742800  0.37955200  0.01037800  1
  O  O9  1  0.12982900  0.37634700  0.50390100  1
  O  O10  1  0.13388300  0.87882700  0.01005300  1
  O  O11  1  0.12759500  0.87777100  0.50403600  1
  O  O12  1  0.63416000  0.37972100  0.01358800  1
  O  O13  1  0.63080000  0.37644200  0.50465700  1
  O  O14  1  0.63587900  0.88129100  0.01039700  1
  O  O15  1  0.62932300  0.87607100  0.50269500  1
  O  O16  1  0.37373200  0.12398900  0.49490400  1
  O  O17  1  0.37337200  0.12197400  0.99510200  1
  O  O18  1  0.37367500  0.62135000  0.49489800  1
  O  O19  1  0.37481300  0.62014400  0.99700000  1
  O  O20  1  0.87731200  0.12150400  0.49584100  1
  O  O21  1  0.87625900  0.11962500  0.99444500  1
  O  O22  1  0.87644300  0.62118300  0.49516700  1
  O  O23  1  0.87938200  0.62421800  0.99390400  1
  O  O24  1  0.38452500  0.37972900  0.01437700  1
  O  O25  1  0.37762900  0.37503100  0.50262100  1
  O  O26  1  0.38037700  0.88603500  0.01037500  1
  O  O27  1  0.37807400  0.87782700  0.50309000  1
  O  O28  1  0.88213800  0.38534600  0.01109700  1
  O  O29  1  0.88094800  0.37744100  0.50245800  1
  O  O30  1  0.88683000  0.88085100  0.01199600  1
  O  O31  1  0.88031300  0.87849400  0.50326400  1
  O  O32  1  0.08496700  0.08637400  0.13259800  1
  O  O33  1  0.08084700  0.08288700  0.64307600  1
  O  O34  1  0.08328500  0.59194900  0.13411800  1
  O  O35  1  0.07271500  0.58437600  0.64213300  1
  O  O36  1  0.58002900  0.09176100  0.13540700  1
  O  O37  1  0.57447900  0.08114300  0.63547100  1
  O  O38  1  0.58062100  0.58769800  0.13531000  1
  O  O39  1  0.57420600  0.58093000  0.63615100  1
  O  O40  1  0.44159900  0.41961300  0.36414100  1
  O  O41  1  0.44108700  0.41757300  0.86884200  1
  O  O42  1  0.43396800  0.92291900  0.36135000  1
  O  O43  1  0.44204000  0.91796900  0.86738600  1
  O  O44  1  0.93264800  0.41849700  0.35675300  1
  O  O45  1  0.94027500  0.41298200  0.86551100  1
  O  O46  1  0.93776200  0.91911500  0.35812500  1
  O  O47  1  0.94599200  0.90883600  0.86670400  1
  O  O48  1  0.32637800  0.28800600  0.13333000  1
  O  O49  1  0.32620800  0.30709700  0.64181500  1
  O  O50  1  0.32499400  0.79087000  0.13471200  1
  O  O51  1  0.31950000  0.80536200  0.63654900  1
  O  O52  1  0.82730100  0.28739600  0.13322400  1
  O  O53  1  0.82999500  0.30969600  0.63749700  1
  O  O54  1  0.83028000  0.78914700  0.13427000  1
  O  O55  1  0.82580800  0.80374400  0.63510100  1
  O  O56  1  0.18103500  0.18683400  0.35590300  1
  O  O57  1  0.19307000  0.20358600  0.86856600  1
  O  O58  1  0.18164100  0.69469700  0.36356600  1
  O  O59  1  0.19477700  0.70894700  0.86938700  1
  O  O60  1  0.68467800  0.19339900  0.36297000  1
  O  O61  1  0.68932800  0.19868700  0.86631400  1
  O  O62  1  0.68647000  0.69004000  0.36183700  1
  O  O63  1  0.69559500  0.69862100  0.86551800  1
  O  O64  1  0.43144400  0.06149700  0.23928700  1
  O  O65  1  0.43957100  0.06254600  0.75146700  1
  O  O66  1  0.43034200  0.56837600  0.24027900  1
  O  O67  1  0.44470500  0.56680900  0.75312000  1
  O  O68  1  0.92997400  0.06493400  0.23795300  1
  O  O69  1  0.93977800  0.06494100  0.75217400  1
  O  O70  1  0.92829100  0.56161000  0.23822800  1
  O  O71  1  0.94005500  0.57824600  0.76065200  1
  O  O72  1  0.18888600  0.44032600  0.24846300  1
  O  O73  1  0.19182300  0.44244900  0.75368600  1
  O  O74  1  0.17856000  0.92200200  0.23995700  1
  O  O75  1  0.18811300  0.93113400  0.76026900  1
  O  O76  1  0.67707100  0.42277600  0.24048200  1
  O  O77  1  0.69140800  0.43433700  0.75088100  1
  O  O78  1  0.69062700  0.93788200  0.24793400  1
  O  O79  1  0.69341800  0.93588300  0.75164500  1
loop_
_geom_bond_atom_site_label_1
_geom_bond_atom_site_label_2
_geom_bond_distance
_geom_bond_site_symmetry_2
Ca0 O64 2.378903 1_555
Ca0 O48 2.420161 1_555
Ca0 O26 2.487219 1_545
Ca0 O10 2.536170 1_545
Ca0 O1 2.562353 1_554
Ca0 O17 2.565970 1_554
Ca0 O32 2.638839 1_555
Ca0 O36 2.934519 1_555
Ca1 O66 2.349415 1_555
Ca1 O50 2.434872 1_555
Ca1 O8 2.526808 1_555
Ca1 O24 2.537152 1_555
Ca1 O19 2.544951 1_554
Ca1 O3 2.637303 1_554
Ca1 O34 2.666343 1_555
Ca1 O38 2.936999 1_555
Ca2 O68 2.355937 1_555
Ca2 O52 2.413934 1_555
Ca2 O14 2.500657 1_545
Ca2 O30 2.539537 1_545
Ca2 O5 2.554660 1_554
Ca2 O21 2.570356 1_554
Ca2 O36 2.721491 1_555
Ca2 O32 2.996064 1_655
Ca3 O70 2.350436 1_555
Ca3 O54 2.424356 1_555
Ca3 O28 2.502041 1_555
Ca3 O12 2.525918 1_555
Ca3 O7 2.543981 1_554
Ca3 O23 2.634174 1_554
Ca3 O38 2.708871 1_555
Ca3 O34 2.971914 1_655
Ca4 O75 2.379517 1_555
Ca4 O59 2.453667 1_555
Ca4 O1 2.511482 1_565
Ca4 O26 2.553375 1_556
Ca4 O17 2.554411 1_565
Ca4 O10 2.614470 1_556
Ca4 O47 2.728029 1_455
Ca4 O43 2.870278 1_555
Ca5 O74 2.364952 1_555
Ca5 O34 2.458261 1_555
Ca5 O30 2.510690 1_455
Ca5 O10 2.521981 1_555
Ca5 O23 2.549828 1_454
Ca5 O3 2.552488 1_554
Ca5 O54 2.742132 1_455
Ca5 O50 2.853021 1_555
Ca6 O76 2.347374 1_555
Ca6 O36 2.466259 1_555
Ca6 O12 2.495973 1_555
Ca6 O24 2.502390 1_555
Ca6 O5 2.541234 1_554
Ca6 O17 2.604347 1_554
Ca6 O48 2.760206 1_555
Ca6 O52 2.893032 1_555
Ca7 O71 2.378969 1_555
Ca7 O47 2.469937 1_555
Ca7 O3 2.499522 1_655
Ca7 O23 2.527470 1_555
Ca7 O10 2.599891 1_656
Ca7 O30 2.627807 1_556
Ca7 O63 2.732855 1_555
Ca7 O59 2.881110 1_655
Mn0 O11 1.941880 1_545
Mn0 O20 1.954416 1_455
Mn0 O31 1.959039 1_445
Mn0 O0 1.967973 1_555
Mn0 O46 2.267300 1_445
Mn0 O33 2.293689 1_555
Mn1 O2 1.943033 1_555
Mn1 O29 1.951041 1_455
Mn1 O22 1.956341 1_455
Mn1 O9 1.973214 1_555
Mn1 O44 2.276173 1_455
Mn1 O35 2.291699 1_555
Mn2 O17 1.938945 1_554
Mn2 O24 1.945258 1_555
Mn2 O1 1.947823 1_554
Mn2 O8 1.960380 1_555
Mn2 O48 2.104281 1_555
Mn2 O57 2.161479 1_554
Mn3 O16 1.945830 1_555
Mn3 O25 1.950473 1_555
Mn3 O0 1.967483 1_555
Mn3 O9 1.969096 1_555
Mn3 O56 2.287092 1_555
Mn3 O49 2.288452 1_555
Mn4 O56 1.884343 1_555
Mn4 O32 1.888097 1_555
Mn4 O68 1.936275 1_455
Mn4 O74 2.033600 1_545
Mn5 O33 1.882724 1_555
Mn5 O57 1.918499 1_555
Mn5 O69 1.939502 1_455
Mn5 O75 2.017147 1_545
Mn6 O34 1.908968 1_555
Mn6 O58 1.924227 1_555
Mn6 O72 1.984750 1_555
Mn6 O70 2.001182 1_455
Mn7 O35 1.879636 1_555
Mn7 O59 1.910730 1_555
Mn7 O71 1.950555 1_455
Mn7 O73 2.018210 1_555
Mn8 O36 1.888259 1_555
Mn8 O60 1.914713 1_555
Mn8 O64 1.956643 1_555
Mn8 O78 2.016848 1_545
Mn9 O61 1.913071 1_555
Mn9 O37 1.922516 1_555
Mn9 O65 1.971959 1_555
Mn9 O79 2.008512 1_545
Mn10 O38 1.882141 1_555
Mn10 O62 1.925171 1_555
Mn10 O66 1.948502 1_555
Mn10 O76 2.027630 1_555
Mn11 O63 1.901282 1_555
Mn11 O39 1.907644 1_555
Mn11 O67 1.935452 1_555
Mn11 O77 2.021222 1_555
Mn12 O48 1.938305 1_555
Mn12 O40 1.944736 1_555
Mn12 O72 1.986448 1_555
Mn12 O66 2.050229 1_555
Mn13 O49 1.877002 1_555
Mn13 O41 1.911011 1_555
Mn13 O73 1.939195 1_555
Mn13 O67 2.023539 1_555
Mn14 O50 1.888656 1_555
Mn14 O42 1.918309 1_555
Mn14 O74 1.940748 1_555
Mn14 O64 2.036167 1_565
Mn15 O43 1.907924 1_555
Mn15 O51 1.925481 1_555
Mn15 O75 1.970199 1_555
Mn15 O65 1.998595 1_565
Mn16 O44 1.884576 1_555
Mn16 O52 1.897900 1_555
Mn16 O76 1.970924 1_555
Mn16 O70 2.016897 1_555
Mn17 O45 1.896562 1_555
Mn17 O53 1.918775 1_555
Mn17 O77 1.928390 1_555
Mn17 O71 2.039756 1_555
Mn18 O46 1.875942 1_555
Mn18 O54 1.898233 1_555
Mn18 O78 1.941419 1_555
Mn18 O68 2.043605 1_565
Mn19 O47 1.920333 1_555
Mn19 O55 1.922626 1_555
Mn19 O79 1.968808 1_555
Mn19 O69 2.030970 1_565
Fe0 O10 1.962038 1_545
Fe0 O30 1.970699 1_445
Fe0 O21 1.974368 1_454
Fe0 O1 2.004128 1_554
Fe0 O32 2.097507 1_555
Fe0 O47 2.186877 1_444
Fe1 O23 1.965254 1_454
Fe1 O28 1.969624 1_455
Fe1 O3 1.970649 1_554
Fe1 O8 2.006142 1_555
Fe1 O34 2.115206 1_555
Fe1 O45 2.210331 1_454
Fe2 O5 1.959138 1_554
Fe2 O26 1.964654 1_545
Fe2 O14 1.984705 1_545
Fe2 O17 1.988710 1_554
Fe2 O36 2.136672 1_555
Fe2 O43 2.172631 1_544
Fe3 O27 1.977418 1_545
Fe3 O4 1.977929 1_555
Fe3 O15 1.979516 1_545
Fe3 O16 1.991232 1_555
Fe3 O37 2.178830 1_555
Fe3 O42 2.208424 1_545
Fe4 O12 1.965577 1_555
Fe4 O19 1.982540 1_554
Fe4 O7 1.991510 1_554
Fe4 O24 1.998693 1_555
Fe4 O38 2.100586 1_555
Fe4 O41 2.180503 1_554
Fe5 O6 1.975525 1_555
Fe5 O13 1.977258 1_555
Fe5 O18 1.983122 1_555
Fe5 O25 1.999458 1_555
Fe5 O40 2.150687 1_555
Fe5 O39 2.206345 1_555
Fe6 O10 1.958785 1_555
Fe6 O3 1.973876 1_554
Fe6 O19 1.986815 1_554
Fe6 O26 1.991580 1_555
Fe6 O59 2.137475 1_554
Fe6 O50 2.141137 1_555
Fe7 O18 1.978794 1_555
Fe7 O27 1.982114 1_555
Fe7 O11 1.985479 1_555
Fe7 O2 1.986678 1_555
Fe7 O58 2.172863 1_555
Fe7 O51 2.198226 1_555
Fe8 O12 1.972849 1_555
Fe8 O5 1.984033 1_554
Fe8 O28 1.993005 1_555
Fe8 O21 1.998707 1_554
Fe8 O52 2.088567 1_555
Fe8 O61 2.209647 1_554
Fe9 O13 1.969664 1_555
Fe9 O4 1.977523 1_555
Fe9 O29 1.978977 1_555
Fe9 O20 1.986291 1_555
Fe9 O60 2.181222 1_555
Fe9 O53 2.212412 1_555
Fe10 O23 1.970019 1_554
Fe10 O30 1.972016 1_555
Fe10 O14 1.985833 1_555
Fe10 O7 1.985906 1_554
Fe10 O54 2.107656 1_555
Fe10 O63 2.219221 1_554
Fe11 O6 1.967862 1_555
Fe11 O22 1.977373 1_555
Fe11 O15 1.982125 1_555
Fe11 O31 1.988301 1_555
Fe11 O55 2.166570 1_555
Fe11 O62 2.207664 1_555
O0 Sr21 2.619958 1_455
O0 Sr6 2.625280 1_545
O0 Sr12 2.665516 1_555
O0 Sr0 2.674300 1_555
O1 Sr22 2.600736 1_455
O1 Sr11 2.741408 1_556
O2 Sr23 2.625862 1_455
O2 Sr4 2.641399 1_555
O2 Sr13 2.665414 1_555
O2 Sr1 2.676143 1_555
O3 Sr5 2.588049 1_555
O4 Sr17 2.622408 1_555
O4 Sr9 2.635329 1_545
O4 Sr14 2.654298 1_555
O4 Sr2 2.672842 1_555
O5 Sr18 2.574818 1_555
O5 Sr10 2.640993 1_545
O6 Sr19 2.624033 1_555
O6 Sr7 2.638705 1_555
O6 Sr16 2.652331 1_555
O6 Sr3 2.692926 1_555
O7 Sr8 2.588195 1_555
O7 Sr20 2.597626 1_555
O7 Sr15 2.670848 1_556
O8 Sr11 2.592257 1_555
O8 Sr5 2.667446 1_554
O8 Sr22 2.727275 1_454
O9 Sr12 2.605708 1_555
O9 Sr1 2.620126 1_555
O9 Sr4 2.673507 1_555
O9 Sr21 2.682587 1_455
O11 Sr13 2.627402 1_555
O11 Sr0 2.632129 1_565
O11 Sr23 2.685533 1_455
O11 Sr6 2.693416 1_555
O12 Sr18 2.711804 1_554
O12 Sr8 2.759856 1_554
O13 Sr14 2.598280 1_555
O13 Sr3 2.630675 1_555
O13 Sr17 2.687139 1_555
O13 Sr7 2.696357 1_555
O14 Sr15 2.595237 1_555
O14 Sr10 2.682567 1_554
O14 Sr20 2.702249 1_554
O15 Sr16 2.616531 1_555
O15 Sr2 2.637701 1_565
O15 Sr9 2.660249 1_555
O15 Sr19 2.663973 1_555
O16 Sr6 2.621964 1_545
O16 Sr17 2.640343 1_555
O16 Sr14 2.661221 1_555
O16 Sr0 2.665280 1_555
O17 Sr18 2.610252 1_555
O18 Sr4 2.616203 1_555
O18 Sr19 2.645547 1_555
O18 Sr1 2.661227 1_555
O18 Sr16 2.680102 1_555
O19 Sr5 2.569888 1_555
O19 Sr20 2.633837 1_555
O19 Sr15 2.657762 1_556
O20 Sr9 2.615516 1_545
O20 Sr2 2.661760 1_555
O20 Sr21 2.669038 1_555
O20 Sr12 2.684602 1_655
O21 Sr10 2.571701 1_545
O21 Sr22 2.588264 1_555
O21 Sr11 2.678920 1_656
O22 Sr7 2.609833 1_555
O22 Sr23 2.648607 1_555
O22 Sr3 2.666499 1_555
O22 Sr13 2.679354 1_655
O23 Sr8 2.597805 1_555
O24 Sr5 2.742438 1_554
O24 Sr18 2.746585 1_554
O25 Sr14 2.619607 1_555
O25 Sr1 2.631820 1_555
O25 Sr4 2.658187 1_555
O25 Sr17 2.684227 1_555
O26 Sr15 2.607060 1_555
O26 Sr20 2.741119 1_554
O27 Sr0 2.617374 1_565
O27 Sr16 2.632581 1_555
O27 Sr6 2.658946 1_555
O27 Sr19 2.690167 1_555
O28 Sr11 2.601116 1_655
O28 Sr8 2.659796 1_554
O28 Sr22 2.746492 1_554
O29 Sr3 2.631311 1_555
O29 Sr12 2.647961 1_655
O29 Sr7 2.654099 1_555
O29 Sr21 2.695578 1_555
O30 Sr10 2.724395 1_554
O31 Sr2 2.622527 1_565
O31 Sr9 2.638988 1_555
O31 Sr13 2.651860 1_655
O31 Sr23 2.705680 1_555
O32 Sr11 2.539962 1_555
O33 Sr12 2.684438 1_555
O33 Sr0 2.764019 1_555
O33 Sr2 2.891494 1_455
O33 Sr13 3.023432 1_545
O34 Sr11 3.166158 1_555
O35 Sr13 2.641275 1_555
O35 Sr3 2.783906 1_455
O35 Sr1 2.842539 1_555
O35 Sr12 3.026650 1_555
O36 Sr15 3.156599 1_545
O37 Sr14 2.642721 1_555
O37 Sr2 2.773056 1_555
O37 Sr0 2.846600 1_555
O37 Sr16 3.017483 1_545
O38 Sr15 2.548483 1_555
O39 Sr16 2.650474 1_555
O39 Sr3 2.800819 1_555
O39 Sr1 2.844262 1_555
O39 Sr14 3.013143 1_555
O40 Sr17 2.645140 1_555
O40 Sr7 2.747096 1_555
O40 Sr4 2.888305 1_555
O40 Sr19 3.004000 1_555
O41 Sr18 2.593721 1_555
O41 Sr8 2.783337 1_555
O41 Sr5 2.854625 1_555
O41 Sr20 3.064567 1_555
O42 Sr19 2.703450 1_555
O42 Sr6 2.821530 1_555
O42 Sr9 2.822788 1_555
O42 Sr17 2.954677 1_565
O43 Sr20 2.603963 1_555
O43 Sr10 2.757504 1_555
O43 Sr18 3.044664 1_565
O44 Sr21 2.687612 1_555
O44 Sr4 2.798697 1_655
O44 Sr7 2.826946 1_555
O44 Sr23 2.981174 1_555
O45 Sr22 2.569077 1_555
O45 Sr5 2.762690 1_655
O45 Sr8 2.851616 1_555
O46 Sr23 2.692353 1_555
O46 Sr6 2.750205 1_655
O46 Sr9 2.873578 1_555
O46 Sr21 2.985200 1_565
O47 Sr10 2.913785 1_555
O47 Sr22 3.145038 1_565
O48 Sr11 2.883167 1_555
O49 Sr0 2.643532 1_555
O49 Sr14 2.805950 1_555
O49 Sr12 2.819817 1_555
O49 Sr1 3.029745 1_555
O50 Sr15 2.752266 1_555
O51 Sr1 2.652843 1_555
O51 Sr13 2.783681 1_555
O51 Sr16 2.840920 1_555
O51 Sr0 3.022298 1_565
O52 Sr11 2.733018 1_655
O53 Sr2 2.691057 1_555
O53 Sr12 2.750333 1_655
O53 Sr14 2.904280 1_555
O53 Sr3 2.964309 1_555
O54 Sr15 2.939926 1_555
O55 Sr3 2.638778 1_555
O55 Sr13 2.752709 1_655
O55 Sr16 2.861614 1_555
O55 Sr2 3.021810 1_565
O56 Sr4 2.699672 1_555
O56 Sr21 2.800454 1_455
O56 Sr17 2.830719 1_555
O56 Sr6 2.972879 1_545
O57 Sr5 2.564359 1_555
O57 Sr18 2.759893 1_555
O57 Sr22 2.880679 1_455
O58 Sr6 2.652237 1_555
O58 Sr23 2.763092 1_455
O58 Sr19 2.839854 1_555
O58 Sr4 3.017626 1_555
O59 Sr20 2.740140 1_555
O59 Sr5 3.142974 1_555
O60 Sr7 2.661155 1_555
O60 Sr17 2.800188 1_555
O60 Sr21 2.822967 1_555
O60 Sr9 3.005060 1_545
O61 Sr8 2.619175 1_555
O61 Sr22 2.767819 1_555
O61 Sr18 2.832867 1_555
O61 Sr10 3.055630 1_545
O62 Sr9 2.688409 1_555
O62 Sr23 2.785067 1_555
O62 Sr19 2.839165 1_555
O62 Sr7 2.965912 1_555
O63 Sr10 2.602197 1_555
O63 Sr20 2.919265 1_555
O63 Sr8 3.048046 1_555
O64 Sr17 2.554405 1_555
O65 Sr18 2.472796 1_555
O65 Sr0 2.479466 1_555
O66 Sr19 2.528531 1_555
O67 Sr20 2.469918 1_555
O67 Sr1 2.499453 1_555
O68 Sr21 2.539900 1_555
O69 Sr22 2.456548 1_555
O69 Sr2 2.476253 1_555
O70 Sr23 2.548932 1_555
O71 Sr3 2.547287 1_555
O72 Sr11 2.447199 1_555
O72 Sr4 2.473809 1_555
O73 Sr5 2.469078 1_555
O73 Sr12 2.503230 1_555
O74 Sr6 2.529097 1_555
O75 Sr13 2.538807 1_555
O76 Sr7 2.520172 1_555
O77 Sr8 2.475063 1_555
O77 Sr14 2.476492 1_555
O78 Sr15 2.450046 1_555
O78 Sr9 2.488566 1_555
O79 Sr10 2.470561 1_555
O79 Sr16 2.494276 1_555
