# generated using pymatgen
data_SrNdCoRuO6
_symmetry_space_group_name_H-M   'P 1'
_cell_length_a   7.77614300
_cell_length_b   7.84313005
_cell_length_c   8.03277400
_cell_angle_alpha   90.00000000
_cell_angle_beta   90.00000000
_cell_angle_gamma   90.08252775
_symmetry_Int_Tables_number   1
_chemical_formula_structural   SrNdCoRuO6
_chemical_formula_sum   'Sr4 Nd4 Co4 Ru4 O24'
_cell_volume   489.91276188
_cell_formula_units_Z   4
loop_
 _symmetry_equiv_pos_site_id
 _symmetry_equiv_pos_as_xyz
  1  'x, y, z'
loop_
 _atom_site_type_symbol
 _atom_site_label
 _atom_site_symmetry_multiplicity
 _atom_site_fract_x
 _atom_site_fract_y
 _atom_site_fract_z
 _atom_site_occupancy
  Sr  Sr0  1  0.25000000  0.25000000  0.24977500  1
  Sr  Sr1  1  0.75000000  0.75000000  0.75022500  1
  Sr  Sr2  1  0.25000000  0.75000000  0.72639400  1
  Sr  Sr3  1  0.75000000  0.25000000  0.27360600  1
  Nd  Nd0  1  0.25000000  0.75000000  0.22400900  1
  Nd  Nd1  1  0.75000000  0.25000000  0.77599100  1
  Nd  Nd2  1  0.75000000  0.75000000  0.25404600  1
  Nd  Nd3  1  0.25000000  0.25000000  0.74595400  1
  Co  Co0  1  0.00000000  0.50000000  0.00000000  1
  Co  Co1  1  0.50000000  0.00000000  0.00000000  1
  Co  Co2  1  0.00000000  0.00000000  0.50000000  1
  Co  Co3  1  0.50000000  0.50000000  0.50000000  1
  Ru  Ru0  1  0.50000000  0.00000000  0.50000000  1
  Ru  Ru1  1  0.00000000  0.50000000  0.50000000  1
  Ru  Ru2  1  0.50000000  0.50000000  0.00000000  1
  Ru  Ru3  1  0.00000000  0.00000000  0.00000000  1
  O  O0  1  0.55078600  0.24469700  0.53846000  1
  O  O1  1  0.94921400  0.25530300  0.53846000  1
  O  O2  1  0.74735100  0.45062000  0.01928000  1
  O  O3  1  0.75264900  0.04938000  0.01928000  1
  O  O4  1  0.44921400  0.75530300  0.46154000  1
  O  O5  1  0.05078600  0.74469700  0.46154000  1
  O  O6  1  0.25264900  0.54938000  0.98072000  1
  O  O7  1  0.24735100  0.95062000  0.98072000  1
  O  O8  1  0.47474500  0.02376500  0.25818600  1
  O  O9  1  0.02525500  0.47623500  0.25818600  1
  O  O10  1  0.52971100  0.51274600  0.75625200  1
  O  O11  1  0.97028900  0.98725400  0.75625200  1
  O  O12  1  0.52525500  0.97623500  0.74181400  1
  O  O13  1  0.97474500  0.52376500  0.74181400  1
  O  O14  1  0.47028900  0.48725400  0.24374800  1
  O  O15  1  0.02971100  0.01274600  0.24374800  1
  O  O16  1  0.24966400  0.04776400  0.53365800  1
  O  O17  1  0.25033600  0.45223600  0.53365800  1
  O  O18  1  0.54172600  0.74968600  0.03817300  1
  O  O19  1  0.95827400  0.75031400  0.03817300  1
  O  O20  1  0.75033600  0.95223600  0.46634200  1
  O  O21  1  0.74966400  0.54776400  0.46634200  1
  O  O22  1  0.45827400  0.25031400  0.96182700  1
  O  O23  1  0.04172600  0.24968600  0.96182700  1
loop_
_geom_bond_atom_site_label_1
_geom_bond_atom_site_label_2
_geom_bond_distance
_geom_bond_site_symmetry_2
Nd0 O5 2.458027 1_555
Nd0 O4 2.458027 1_555
Nd0 O7 2.509107 1_554
Nd0 O6 2.509107 1_554
Nd0 O15 2.686330 1_565
Nd0 O14 2.686330 1_555
Nd0 O18 2.715606 1_555
Nd0 O19 2.715606 1_455
Nd0 O9 2.780143 1_555
Nd0 O8 2.780143 1_565
Nd1 O0 2.458027 1_555
Nd1 O1 2.458027 1_555
Nd1 O2 2.509107 1_556
Nd1 O3 2.509107 1_556
Nd1 O11 2.686330 1_545
Nd1 O10 2.686330 1_555
Nd1 O23 2.715606 1_655
Nd1 O22 2.715606 1_555
Nd1 O13 2.780143 1_555
Nd1 O12 2.780143 1_545
Nd2 O21 2.328958 1_555
Nd2 O20 2.328958 1_555
Nd2 O18 2.372753 1_555
Nd2 O19 2.372753 1_555
Nd2 O5 2.872418 1_655
Nd2 O4 2.872418 1_555
Nd2 O15 2.995257 1_665
Nd2 O14 2.995257 1_555
Nd2 O9 3.034157 1_655
Nd2 O8 3.034157 1_565
Nd3 O16 2.328958 1_555
Nd3 O17 2.328958 1_555
Nd3 O22 2.372753 1_555
Nd3 O23 2.372753 1_555
Nd3 O1 2.872418 1_455
Nd3 O0 2.872418 1_555
Nd3 O11 2.995257 1_445
Nd3 O10 2.995257 1_555
Nd3 O13 3.034157 1_455
Nd3 O12 3.034157 1_545
Co0 O6 2.007879 1_554
Co0 O2 2.007879 1_455
Co0 O19 2.013820 1_455
Co0 O23 2.013820 1_554
Co0 O13 2.091574 1_454
Co0 O9 2.091574 1_555
Co1 O7 2.007879 1_544
Co1 O3 2.007879 1_555
Co1 O22 2.013820 1_554
Co1 O18 2.013820 1_545
Co1 O8 2.091574 1_555
Co1 O12 2.091574 1_544
Co2 O20 1.995111 1_445
Co2 O16 1.995111 1_555
Co2 O5 2.064749 1_545
Co2 O1 2.064749 1_455
Co2 O15 2.073735 1_555
Co2 O11 2.073735 1_445
Co3 O17 1.995111 1_555
Co3 O21 1.995111 1_555
Co3 O4 2.064749 1_555
Co3 O0 2.064749 1_555
Co3 O14 2.073735 1_555
Co3 O10 2.073735 1_555
O0 Ru0 1.983057 1_555
O0 Sr3 2.632036 1_555
O1 Ru1 1.983057 1_655
O1 Sr3 2.632036 1_555
O2 Ru2 1.968689 1_555
O2 Sr3 2.578760 1_555
O3 Ru3 1.968689 1_655
O3 Sr3 2.578760 1_555
O4 Ru0 1.983057 1_565
O4 Sr2 2.632036 1_555
O5 Ru1 1.983057 1_555
O5 Sr2 2.632036 1_555
O6 Ru2 1.968689 1_556
O6 Sr2 2.578760 1_555
O7 Ru3 1.968689 1_566
O7 Sr2 2.578760 1_555
O8 Ru0 1.961244 1_555
O8 Sr0 2.493238 1_555
O8 Sr3 2.781056 1_555
O9 Ru1 1.961244 1_555
O9 Sr0 2.493238 1_555
O9 Sr3 2.781056 1_455
O10 Ru2 1.974072 1_556
O10 Sr1 2.527876 1_555
O10 Sr2 2.874501 1_555
O11 Ru3 1.974072 1_666
O11 Sr1 2.527876 1_555
O11 Sr2 2.874501 1_655
O12 Ru0 1.961244 1_565
O12 Sr1 2.493238 1_555
O12 Sr2 2.781056 1_555
O13 Ru1 1.961244 1_655
O13 Sr1 2.493238 1_555
O13 Sr2 2.781056 1_655
O14 Ru2 1.974072 1_555
O14 Sr0 2.527876 1_555
O14 Sr3 2.874501 1_555
O15 Ru3 1.974072 1_555
O15 Sr0 2.527876 1_555
O15 Sr3 2.874501 1_455
O16 Ru0 2.001244 1_555
O16 Sr0 2.777767 1_555
O16 Sr2 2.801975 1_545
O17 Ru1 2.001244 1_555
O17 Sr0 2.777767 1_555
O17 Sr2 2.801975 1_555
O18 Ru2 2.008106 1_555
O18 Sr1 2.823661 1_554
O19 Ru3 2.008106 1_665
O19 Sr1 2.823661 1_554
O20 Ru0 2.001244 1_565
O20 Sr1 2.777767 1_555
O20 Sr3 2.801975 1_565
O21 Ru1 2.001244 1_655
O21 Sr1 2.777767 1_555
O21 Sr3 2.801975 1_555
O22 Ru2 2.008106 1_556
O22 Sr0 2.823661 1_556
O23 Ru3 2.008106 1_556
O23 Sr0 2.823661 1_556
