# generated using pymatgen
data_DyB2Rh3
_symmetry_space_group_name_H-M   'P 1'
_cell_length_a   6.29184165
_cell_length_b   10.73114747
_cell_length_c   10.73348817
_cell_angle_alpha   60.00721986
_cell_angle_beta   90.00256445
_cell_angle_gamma   90.00511932
_symmetry_Int_Tables_number   1
_chemical_formula_structural   DyB2Rh3
_chemical_formula_sum   'Dy8 B16 Rh24'
_cell_volume   627.66375504
_cell_formula_units_Z   8
loop_
 _symmetry_equiv_pos_site_id
 _symmetry_equiv_pos_as_xyz
  1  'x, y, z'
loop_
 _atom_site_type_symbol
 _atom_site_label
 _atom_site_symmetry_multiplicity
 _atom_site_fract_x
 _atom_site_fract_y
 _atom_site_fract_z
 _atom_site_occupancy
  Dy  Dy0_0  1  0.25000000  0.25000000  0.00000000  1
  Dy  Dy0_1  1  0.25000000  0.25000000  0.50000000  1
  Dy  Dy0_2  1  0.25000000  0.75000000  0.00000000  1
  Dy  Dy0_3  1  0.25000000  0.75000000  0.50000000  1
  Dy  Dy0_4  1  0.75000000  0.25000000  0.00000000  1
  Dy  Dy0_5  1  0.75000000  0.25000000  0.50000000  1
  Dy  Dy0_6  1  0.75000000  0.75000000  0.00000000  1
  Dy  Dy0_7  1  0.75000000  0.75000000  0.50000000  1
  B  B0_0  1  0.25000000  0.08333354  0.33333192  1
  B  B0_1  1  0.25000000  0.08333354  0.83333192  1
  B  B0_2  1  0.25000000  0.58333354  0.33333192  1
  B  B0_3  1  0.25000000  0.58333354  0.83333192  1
  B  B0_4  1  0.75000000  0.08333354  0.33333192  1
  B  B0_5  1  0.75000000  0.08333354  0.83333192  1
  B  B0_6  1  0.75000000  0.58333354  0.33333192  1
  B  B0_7  1  0.75000000  0.58333354  0.83333192  1
  B  B1_0  1  0.25000000  0.41666646  0.16666807  1
  B  B1_1  1  0.25000000  0.41666646  0.66666808  1
  B  B1_2  1  0.25000000  0.91666646  0.16666807  1
  B  B1_3  1  0.25000000  0.91666646  0.66666808  1
  B  B1_4  1  0.75000000  0.41666646  0.16666807  1
  B  B1_5  1  0.75000000  0.41666646  0.66666808  1
  B  B1_6  1  0.75000000  0.91666646  0.16666807  1
  B  B1_7  1  0.75000000  0.91666646  0.66666808  1
  Rh  Rh0_0  1  0.00000000  0.00000000  0.25000000  1
  Rh  Rh0_1  1  0.00000000  0.00000000  0.75000000  1
  Rh  Rh0_2  1  0.00000000  0.50000000  0.25000000  1
  Rh  Rh0_3  1  0.00000000  0.50000000  0.75000000  1
  Rh  Rh0_4  1  0.50000000  0.00000000  0.25000000  1
  Rh  Rh0_5  1  0.50000000  0.00000000  0.75000000  1
  Rh  Rh0_6  1  0.50000000  0.50000000  0.25000000  1
  Rh  Rh0_7  1  0.50000000  0.50000000  0.75000000  1
  Rh  Rh1_0  1  0.00000000  0.25000000  0.25000000  1
  Rh  Rh1_1  1  0.00000000  0.25000000  0.75000000  1
  Rh  Rh1_2  1  0.00000000  0.75000000  0.25000000  1
  Rh  Rh1_3  1  0.00000000  0.75000000  0.75000000  1
  Rh  Rh1_4  1  0.50000000  0.25000000  0.25000000  1
  Rh  Rh1_5  1  0.50000000  0.25000000  0.75000000  1
  Rh  Rh1_6  1  0.50000000  0.75000000  0.25000000  1
  Rh  Rh1_7  1  0.50000000  0.75000000  0.75000000  1
  Rh  Rh2_0  1  0.00000000  0.00000000  0.00000000  1
  Rh  Rh2_1  1  0.00000000  0.00000000  0.50000000  1
  Rh  Rh2_2  1  0.00000000  0.50000000  0.00000000  1
  Rh  Rh2_3  1  0.00000000  0.50000000  0.50000000  1
  Rh  Rh2_4  1  0.50000000  0.00000000  0.00000000  1
  Rh  Rh2_5  1  0.50000000  0.00000000  0.50000000  1
  Rh  Rh2_6  1  0.50000000  0.50000000  0.00000000  1
  Rh  Rh2_7  1  0.50000000  0.50000000  0.50000000  1
loop_
_geom_bond_atom_site_label_1
_geom_bond_atom_site_label_2
_geom_bond_distance
_geom_bond_site_symmetry_2
Dy0_0 Rh2_0 3.109790 1_555
Dy0_0 Rh2_6 3.109790 1_555
Dy0_0 Rh2_2 3.110033 1_555
Dy0_0 Rh2_4 3.110033 1_555
Dy0_0 Rh1_4 3.110356 1_555
Dy0_0 Rh1_1 3.110356 1_554
Dy0_0 Rh0_7 3.110356 1_554
Dy0_0 Rh0_0 3.110356 1_555
Dy0_0 Rh0_3 3.110477 1_554
Dy0_0 Rh0_4 3.110477 1_555
Dy0_0 Rh1_0 3.110477 1_555
Dy0_0 Rh1_5 3.110477 1_554
Dy0_0 Dy0_4 3.145921 1_555
Dy0_0 Dy0_4 3.145921 1_455
Dy0_1 Rh2_1 3.109790 1_555
Dy0_1 Rh2_7 3.109790 1_555
Dy0_1 Rh2_3 3.110033 1_555
Dy0_1 Rh2_5 3.110033 1_555
Dy0_1 Rh1_5 3.110356 1_555
Dy0_1 Rh1_0 3.110356 1_555
Dy0_1 Rh0_6 3.110356 1_555
Dy0_1 Rh0_1 3.110356 1_555
Dy0_1 Rh0_2 3.110477 1_555
Dy0_1 Rh0_5 3.110477 1_555
Dy0_1 Rh1_1 3.110477 1_555
Dy0_1 Rh1_4 3.110477 1_555
Dy0_1 Dy0_5 3.145921 1_455
Dy0_1 Dy0_5 3.145921 1_555
Dy0_2 Rh2_4 3.109790 1_565
Dy0_2 Rh2_2 3.109790 1_555
Dy0_2 Rh2_0 3.110033 1_565
Dy0_2 Rh2_6 3.110033 1_555
Dy0_2 Rh1_6 3.110356 1_555
Dy0_2 Rh1_3 3.110356 1_554
Dy0_2 Rh0_5 3.110356 1_564
Dy0_2 Rh0_2 3.110356 1_555
Dy0_2 Rh0_1 3.110477 1_564
Dy0_2 Rh0_6 3.110477 1_555
Dy0_2 Rh1_2 3.110477 1_555
Dy0_2 Rh1_7 3.110477 1_554
Dy0_2 Dy0_6 3.145921 1_555
Dy0_2 Dy0_6 3.145921 1_455
Dy0_3 Rh2_5 3.109790 1_565
Dy0_3 Rh2_3 3.109790 1_555
Dy0_3 Rh2_7 3.110033 1_555
Dy0_3 Rh2_1 3.110033 1_565
Dy0_3 Rh1_7 3.110356 1_555
Dy0_3 Rh1_2 3.110356 1_555
Dy0_3 Rh0_4 3.110356 1_565
Dy0_3 Rh0_3 3.110356 1_555
Dy0_3 Rh0_7 3.110477 1_555
Dy0_3 Rh0_0 3.110477 1_565
Dy0_3 Rh1_3 3.110477 1_555
Dy0_3 Rh1_6 3.110477 1_555
Dy0_3 Dy0_7 3.145921 1_555
Dy0_3 Dy0_7 3.145921 1_455
Dy0_4 Rh2_2 3.109790 1_655
Dy0_4 Rh2_4 3.109790 1_555
Dy0_4 Rh2_6 3.110033 1_555
Dy0_4 Rh2_0 3.110033 1_655
Dy0_4 Rh1_0 3.110356 1_655
Dy0_4 Rh1_5 3.110356 1_554
Dy0_4 Rh0_3 3.110356 1_654
Dy0_4 Rh0_4 3.110356 1_555
Dy0_4 Rh0_7 3.110477 1_554
Dy0_4 Rh0_0 3.110477 1_655
Dy0_4 Rh1_4 3.110477 1_555
Dy0_4 Rh1_1 3.110477 1_654
Dy0_5 Rh2_3 3.109790 1_655
Dy0_5 Rh2_5 3.109790 1_555
Dy0_5 Rh2_1 3.110033 1_655
Dy0_5 Rh2_7 3.110033 1_555
Dy0_5 Rh1_1 3.110356 1_655
Dy0_5 Rh1_4 3.110356 1_555
Dy0_5 Rh0_2 3.110356 1_655
Dy0_5 Rh0_5 3.110356 1_555
Dy0_5 Rh0_1 3.110477 1_655
Dy0_5 Rh0_6 3.110477 1_555
Dy0_5 Rh1_0 3.110477 1_655
Dy0_5 Rh1_5 3.110477 1_555
Dy0_6 Rh2_6 3.109790 1_555
Dy0_6 Rh2_0 3.109790 1_665
Dy0_6 Rh2_2 3.110033 1_655
Dy0_6 Rh2_4 3.110033 1_565
Dy0_6 Rh1_7 3.110356 1_554
Dy0_6 Rh1_2 3.110356 1_655
Dy0_6 Rh0_6 3.110356 1_555
Dy0_6 Rh0_1 3.110356 1_664
Dy0_6 Rh0_2 3.110477 1_655
Dy0_6 Rh0_5 3.110477 1_564
Dy0_6 Rh1_3 3.110477 1_654
Dy0_6 Rh1_6 3.110477 1_555
Dy0_7 Rh2_1 3.109790 1_665
Dy0_7 Rh2_7 3.109790 1_555
Dy0_7 Rh2_5 3.110033 1_565
Dy0_7 Rh2_3 3.110033 1_655
Dy0_7 Rh1_3 3.110356 1_655
Dy0_7 Rh1_6 3.110356 1_555
Dy0_7 Rh0_0 3.110356 1_665
Dy0_7 Rh0_7 3.110356 1_555
Dy0_7 Rh0_4 3.110477 1_565
Dy0_7 Rh0_3 3.110477 1_655
Dy0_7 Rh1_7 3.110477 1_555
Dy0_7 Rh1_2 3.110477 1_655
B0_0 Rh0_0 2.207545 1_555
B0_0 Rh1_4 2.207552 1_555
B0_0 Rh0_4 2.207716 1_555
B0_0 Rh1_0 2.207723 1_555
B0_0 Rh2_5 2.207885 1_555
B0_0 Rh2_1 2.207885 1_555
B0_0 Dy0_3 3.098043 1_545
B0_0 Dy0_1 3.098052 1_555
B0_0 Dy0_0 3.098703 1_555
B0_1 Rh0_1 2.207545 1_555
B0_1 Rh1_5 2.207552 1_555
B0_1 Rh0_5 2.207716 1_555
B0_1 Rh1_1 2.207723 1_555
B0_1 Rh2_4 2.207885 1_556
B0_1 Rh2_0 2.207885 1_556
B0_1 Dy0_2 3.098043 1_546
B0_1 Dy0_0 3.098052 1_556
B0_1 Dy0_1 3.098703 1_555
B0_2 Rh0_2 2.207545 1_555
B0_2 Rh1_6 2.207552 1_555
B0_2 Rh0_6 2.207716 1_555
B0_2 Rh1_2 2.207723 1_555
B0_2 Rh2_7 2.207885 1_555
B0_2 Rh2_3 2.207885 1_555
B0_2 Dy0_1 3.098043 1_555
B0_2 Dy0_3 3.098052 1_555
B0_2 Dy0_2 3.098703 1_555
B0_3 Rh0_3 2.207545 1_555
B0_3 Rh1_7 2.207552 1_555
B0_3 Rh0_7 2.207716 1_555
B0_3 Rh1_3 2.207723 1_555
B0_3 Rh2_6 2.207885 1_556
B0_3 Rh2_2 2.207885 1_556
B0_3 Dy0_0 3.098043 1_556
B0_3 Dy0_2 3.098052 1_556
B0_3 Dy0_3 3.098703 1_555
B0_4 Rh0_4 2.207545 1_555
B0_4 Rh1_0 2.207552 1_655
B0_4 Rh0_0 2.207716 1_655
B0_4 Rh1_4 2.207723 1_555
B0_4 Rh2_1 2.207885 1_655
B0_4 Rh2_5 2.207885 1_555
B0_4 Dy0_7 3.098043 1_545
B0_4 Dy0_5 3.098052 1_555
B0_4 Dy0_4 3.098703 1_555
B0_5 Rh0_5 2.207545 1_555
B0_5 Rh1_1 2.207552 1_655
B0_5 Rh0_1 2.207716 1_655
B0_5 Rh1_5 2.207723 1_555
B0_5 Rh2_0 2.207885 1_656
B0_5 Rh2_4 2.207885 1_556
B0_5 Dy0_6 3.098043 1_546
B0_5 Dy0_4 3.098052 1_556
B0_5 Dy0_5 3.098703 1_555
B0_6 Rh0_6 2.207545 1_555
B0_6 Rh1_2 2.207552 1_655
B0_6 Rh0_2 2.207716 1_655
B0_6 Rh1_6 2.207723 1_555
B0_6 Rh2_3 2.207885 1_655
B0_6 Rh2_7 2.207885 1_555
B0_6 Dy0_5 3.098043 1_555
B0_6 Dy0_7 3.098052 1_555
B0_6 Dy0_6 3.098703 1_555
B0_7 Rh0_7 2.207545 1_555
B0_7 Rh1_3 2.207552 1_655
B0_7 Rh0_3 2.207716 1_655
B0_7 Rh1_7 2.207723 1_555
B0_7 Rh2_2 2.207885 1_656
B0_7 Rh2_6 2.207885 1_556
B0_7 Dy0_4 3.098043 1_556
B0_7 Dy0_6 3.098052 1_556
B0_7 Dy0_7 3.098703 1_555
B1_0 Rh0_6 2.207545 1_555
B1_0 Rh1_0 2.207552 1_555
B1_0 Rh0_2 2.207716 1_555
B1_0 Rh1_4 2.207723 1_555
B1_0 Rh2_2 2.207885 1_555
B1_0 Rh2_6 2.207885 1_555
B1_0 Dy0_2 3.098043 1_555
B1_0 Dy0_0 3.098052 1_555
B1_0 Dy0_1 3.098703 1_555
B1_1 Rh0_7 2.207545 1_555
B1_1 Rh1_1 2.207552 1_555
B1_1 Rh0_3 2.207716 1_555
B1_1 Rh1_5 2.207723 1_555
B1_1 Rh2_3 2.207885 1_555
B1_1 Rh2_7 2.207885 1_555
B1_1 Dy0_3 3.098043 1_555
B1_1 Dy0_1 3.098052 1_555
B1_1 Dy0_0 3.098703 1_556
B1_2 Rh0_4 2.207545 1_565
B1_2 Rh1_2 2.207552 1_555
B1_2 Rh0_0 2.207716 1_565
B1_2 Rh1_6 2.207723 1_555
B1_2 Rh2_0 2.207885 1_565
B1_2 Rh2_4 2.207885 1_565
B1_2 Dy0_0 3.098043 1_565
B1_2 Dy0_2 3.098052 1_555
B1_2 Dy0_3 3.098703 1_555
B1_3 Rh0_5 2.207545 1_565
B1_3 Rh1_3 2.207552 1_555
B1_3 Rh0_1 2.207716 1_565
B1_3 Rh1_7 2.207723 1_555
B1_3 Rh2_1 2.207885 1_565
B1_3 Rh2_5 2.207885 1_565
B1_3 Dy0_1 3.098043 1_565
B1_3 Dy0_3 3.098052 1_555
B1_3 Dy0_2 3.098703 1_556
B1_4 Rh0_2 2.207545 1_655
B1_4 Rh1_4 2.207552 1_555
B1_4 Rh0_6 2.207716 1_555
B1_4 Rh1_0 2.207723 1_655
B1_4 Rh2_6 2.207885 1_555
B1_4 Rh2_2 2.207885 1_655
B1_4 Dy0_6 3.098043 1_555
B1_4 Dy0_4 3.098052 1_555
B1_4 Dy0_5 3.098703 1_555
B1_5 Rh0_3 2.207545 1_655
B1_5 Rh1_5 2.207552 1_555
B1_5 Rh0_7 2.207716 1_555
B1_5 Rh1_1 2.207723 1_655
B1_5 Rh2_7 2.207885 1_555
B1_5 Rh2_3 2.207885 1_655
B1_5 Dy0_7 3.098043 1_555
B1_5 Dy0_5 3.098052 1_555
B1_5 Dy0_4 3.098703 1_556
B1_6 Rh0_0 2.207545 1_665
B1_6 Rh1_6 2.207552 1_555
B1_6 Rh0_4 2.207716 1_565
B1_6 Rh1_2 2.207723 1_655
B1_6 Rh2_4 2.207885 1_565
B1_6 Rh2_0 2.207885 1_665
B1_6 Dy0_4 3.098043 1_565
B1_6 Dy0_6 3.098052 1_555
B1_6 Dy0_7 3.098703 1_555
B1_7 Rh0_1 2.207545 1_665
B1_7 Rh1_7 2.207552 1_555
B1_7 Rh0_5 2.207716 1_565
B1_7 Rh1_3 2.207723 1_655
B1_7 Rh2_5 2.207885 1_565
B1_7 Rh2_1 2.207885 1_665
B1_7 Dy0_5 3.098043 1_565
B1_7 Dy0_7 3.098052 1_555
B1_7 Dy0_6 3.098703 1_556
