# generated using pymatgen
data_PrP3(H5O7)2
_symmetry_space_group_name_H-M   'P 1'
_cell_length_a   7.71702700
_cell_length_b   8.99669498
_cell_length_c   9.79989610
_cell_angle_alpha   78.17375965
_cell_angle_beta   79.09054905
_cell_angle_gamma   66.58237612
_symmetry_Int_Tables_number   1
_chemical_formula_structural   PrP3(H5O7)2
_chemical_formula_sum   'Pr2 P6 H20 O28'
_cell_volume   606.67235677
_cell_formula_units_Z   2
loop_
 _symmetry_equiv_pos_site_id
 _symmetry_equiv_pos_as_xyz
  1  'x, y, z'
loop_
 _atom_site_type_symbol
 _atom_site_label
 _atom_site_symmetry_multiplicity
 _atom_site_fract_x
 _atom_site_fract_y
 _atom_site_fract_z
 _atom_site_occupancy
  Pr  Pr0  1  0.56985800  0.75522300  0.27151100  1
  Pr  Pr1  1  0.43014200  0.24477700  0.72848900  1
  P  P0  1  0.37176900  0.21817000  0.12696000  1
  P  P1  1  0.62823100  0.78183000  0.87304000  1
  P  P2  1  0.63544000  0.57655300  0.66308000  1
  P  P3  1  0.36456000  0.42344700  0.33692000  1
  P  P4  1  0.02371700  0.36951500  0.30772500  1
  P  P5  1  0.97628300  0.63048500  0.69227500  1
  H  H0  1  0.77607400  0.85141900  0.46585300  1
  H  H1  1  0.22392600  0.14858100  0.53414700  1
  H  H2  1  0.75241100  0.98501000  0.33275300  1
  H  H3  1  0.24758900  0.01499000  0.66724700  1
  H  H4  1  0.86961700  0.90921500  0.13141900  1
  H  H5  1  0.13038300  0.09078500  0.86858100  1
  H  H6  1  0.97213600  0.73563200  0.08024600  1
  H  H7  1  0.02786400  0.26436800  0.91975400  1
  H  H8  1  0.15027100  0.82790300  0.45112900  1
  H  H9  1  0.84972900  0.17209700  0.54887100  1
  H  H10  1  0.16312900  0.00010600  0.39163900  1
  H  H11  1  0.83687100  0.99989400  0.60836100  1
  H  H12  1  0.83926400  0.18138500  0.12403200  1
  H  H13  1  0.16073600  0.81861500  0.87596800  1
  H  H14  1  0.02678100  0.04752300  0.18286400  1
  H  H15  1  0.97321900  0.95247700  0.81713600  1
  H  H16  1  0.31270400  0.64199500  0.05564300  1
  H  H17  1  0.68729600  0.35800500  0.94435700  1
  H  H18  1  0.26965500  0.54025200  0.96382400  1
  H  H19  1  0.73034500  0.45974800  0.03617600  1
  O  O0  1  0.42815500  0.28774800  0.98011100  1
  O  O1  1  0.57184500  0.71225200  0.01988900  1
  O  O2  1  0.42696000  0.03709800  0.16575900  1
  O  O3  1  0.57304000  0.96290200  0.83424100  1
  O  O4  1  0.59225600  0.42999300  0.73837700  1
  O  O5  1  0.40774400  0.57000700  0.26162300  1
  O  O6  1  0.57553100  0.64889200  0.52059000  1
  O  O7  1  0.42446900  0.35110800  0.47941000  1
  O  O8  1  0.04241000  0.22240700  0.41892100  1
  O  O9  1  0.95759000  0.77759300  0.58107900  1
  O  O10  1  0.83131600  0.48748100  0.27400200  1
  O  O11  1  0.16868400  0.51251900  0.72599800  1
  O  O12  1  0.14329900  0.30876800  0.16075100  1
  O  O13  1  0.85670100  0.69123200  0.83924900  1
  O  O14  1  0.45051700  0.28011000  0.23786900  1
  O  O15  1  0.54948300  0.71989000  0.76213100  1
  O  O16  1  0.86311300  0.52721800  0.65796200  1
  O  O17  1  0.13688700  0.47278200  0.34203800  1
  O  O18  1  0.69441500  0.90926900  0.38992500  1
  O  O19  1  0.30558500  0.09073100  0.61007500  1
  O  O20  1  0.84663500  0.81347700  0.11431300  1
  O  O21  1  0.15336500  0.18652300  0.88568700  1
  O  O22  1  0.22009200  0.88383300  0.37825000  1
  O  O23  1  0.77990800  0.11616700  0.62175000  1
  O  O24  1  0.89207800  0.07168200  0.18191500  1
  O  O25  1  0.10792200  0.92831800  0.81808500  1
  O  O26  1  0.21826900  0.64639700  0.99863200  1
  O  O27  1  0.78173100  0.35360300  0.00136800  1
loop_
_geom_bond_atom_site_label_1
_geom_bond_atom_site_label_2
_geom_bond_distance
_geom_bond_site_symmetry_2
H0 O18 0.989800 1_555
H1 O19 0.989800 1_555
H2 O18 0.984662 1_555
H3 O19 0.984662 1_555
H4 O20 0.996643 1_555
H5 O21 0.996643 1_555
H6 O20 0.987034 1_555
H7 O21 0.987034 1_555
H8 O22 0.987998 1_555
H9 O23 0.987998 1_555
H10 O22 0.986732 1_545
H11 O23 0.986732 1_565
H12 O24 1.000138 1_555
H13 O25 1.000138 1_555
H14 O24 0.975266 1_455
H15 O25 0.975266 1_655
H16 O26 0.983315 1_554
H17 O27 0.983315 1_556
H18 O26 0.983293 1_555
H19 O27 0.983293 1_555
O0 P0 1.504140 1_556
O0 Pr1 2.569421 1_555
O1 P1 1.504140 1_554
O1 Pr0 2.569421 1_555
O2 P0 1.495221 1_555
O2 Pr0 2.419422 1_545
O3 P1 1.495221 1_555
O3 Pr1 2.419422 1_565
O4 P2 1.500510 1_555
O4 Pr1 2.473908 1_555
O5 P3 1.500510 1_555
O5 Pr0 2.473908 1_555
O6 P2 1.489930 1_555
O6 Pr0 2.434198 1_555
O7 P3 1.489930 1_555
O7 Pr1 2.434198 1_555
O8 P4 1.508804 1_555
O9 P5 1.508804 1_555
O10 P4 1.493166 1_655
O10 Pr0 2.450570 1_555
O11 P5 1.493166 1_455
O11 Pr1 2.450570 1_555
O12 P0 1.621707 1_555
O12 P4 1.625883 1_555
O13 P1 1.621707 1_555
O13 P5 1.625883 1_555
O14 P0 1.621304 1_555
O14 P3 1.623158 1_555
O15 P1 1.621304 1_555
O15 P2 1.623158 1_555
O16 P5 1.619597 1_555
O16 P2 1.625527 1_555
O17 P4 1.619597 1_555
O17 P3 1.625527 1_555
O18 Pr0 2.516262 1_555
O19 Pr1 2.516262 1_555
O20 Pr0 2.554078 1_555
O21 Pr1 2.554078 1_555
O22 Pr0 2.581354 1_555
O23 Pr1 2.581354 1_555
