# generated using pymatgen
data_Ba3B3N5
_symmetry_space_group_name_H-M   'P 1'
_cell_length_a   7.38808946
_cell_length_b   6.67294860
_cell_length_c   11.77835545
_cell_angle_alpha   96.20148198
_cell_angle_beta   139.34680952
_cell_angle_gamma   91.33290500
_symmetry_Int_Tables_number   1
_chemical_formula_structural   Ba3B3N5
_chemical_formula_sum   'Ba6 B6 N10'
_cell_volume   371.08906370
_cell_formula_units_Z   2
loop_
 _symmetry_equiv_pos_site_id
 _symmetry_equiv_pos_as_xyz
  1  'x, y, z'
loop_
 _atom_site_type_symbol
 _atom_site_label
 _atom_site_symmetry_multiplicity
 _atom_site_fract_x
 _atom_site_fract_y
 _atom_site_fract_z
 _atom_site_occupancy
  Ba  Ba0  1  0.69701400  0.28351200  0.63514700  1
  Ba  Ba1  1  0.30298600  0.71648800  0.36485300  1
  Ba  Ba2  1  0.56657800  0.88591200  0.85971900  1
  Ba  Ba3  1  0.43342200  0.11408800  0.14028100  1
  Ba  Ba4  1  0.74438000  0.66827100  0.29846800  1
  Ba  Ba5  1  0.25562000  0.33172900  0.70153200  1
  B  B0  1  0.93023900  0.41389400  0.02464100  1
  B  B1  1  0.06976100  0.58610600  0.97535900  1
  B  B2  1  0.88907000  0.90647800  0.59274900  1
  B  B3  1  0.11093000  0.09352200  0.40725100  1
  B  B4  1  0.07542100  0.78752400  0.79391800  1
  B  B5  1  0.92457900  0.21247600  0.20608200  1
  N  N0  1  0.10056200  0.01017500  0.78576600  1
  N  N1  1  0.89943800  0.98982500  0.21423400  1
  N  N2  1  0.92889100  0.68013800  0.61680800  1
  N  N3  1  0.07110900  0.31986200  0.38319200  1
  N  N4  1  0.77598000  0.53931600  0.88186800  1
  N  N5  1  0.22402000  0.46068400  0.11813200  1
  N  N6  1  0.31847400  0.01436500  0.56474500  1
  N  N7  1  0.68152600  0.98563500  0.43525500  1
  N  N8  1  0.17762100  0.70506900  0.93886700  1
  N  N9  1  0.82237900  0.29493100  0.06113300  1
loop_
_geom_bond_atom_site_label_1
_geom_bond_atom_site_label_2
_geom_bond_distance
_geom_bond_site_symmetry_2
Ba0 N6 2.767753 1_555
Ba0 N4 2.829893 1_555
Ba0 N7 2.841982 1_545
Ba0 N0 2.879182 1_655
Ba0 N3 3.103960 1_555
Ba0 N2 3.234247 1_555
Ba1 N7 2.767753 1_555
Ba1 N5 2.829893 1_555
Ba1 N6 2.841982 1_565
Ba1 N1 2.879182 1_455
Ba1 N2 3.103960 1_555
Ba1 N3 3.234247 1_555
Ba2 N6 2.686803 1_565
Ba2 N4 2.737712 1_555
Ba2 N1 2.770975 1_556
Ba2 N9 2.864835 1_566
Ba2 N0 3.006449 1_565
Ba3 N7 2.686803 1_545
Ba3 N5 2.737712 1_555
Ba3 N0 2.770975 1_554
Ba3 N8 2.864835 1_544
Ba3 N1 3.006449 1_545
Ba4 N7 2.782095 1_555
Ba4 N5 2.817194 1_555
Ba4 N2 2.845831 1_555
Ba4 N8 2.982506 1_554
Ba4 N1 2.995150 1_555
Ba4 N3 3.055370 1_655
Ba5 N6 2.782095 1_555
Ba5 N4 2.817194 1_555
Ba5 N3 2.845831 1_555
Ba5 N9 2.982506 1_556
Ba5 N0 2.995150 1_555
Ba5 N2 3.055370 1_455
B0 N9 1.419127 1_555
B0 N4 1.505875 1_554
B0 N5 1.512847 1_655
B1 N8 1.419127 1_555
B1 N5 1.505875 1_556
B1 N4 1.512847 1_455
B2 N7 1.415891 1_555
B2 N0 1.519402 1_665
B2 N2 1.560343 1_555
B3 N6 1.415891 1_555
B3 N1 1.519402 1_445
B3 N3 1.560343 1_555
B4 N8 1.433143 1_555
B4 N2 1.500481 1_455
B4 N0 1.515316 1_565
B5 N9 1.433143 1_555
B5 N3 1.500481 1_655
B5 N1 1.515316 1_545
