# generated using pymatgen
data_Ba3CaTa2O9
_symmetry_space_group_name_H-M   'P 1'
_cell_length_a   5.97325785
_cell_length_b   5.97325785
_cell_length_c   7.36804600
_cell_angle_alpha   90.00000000
_cell_angle_beta   90.00000000
_cell_angle_gamma   119.99999836
_symmetry_Int_Tables_number   1
_chemical_formula_structural   Ba3CaTa2O9
_chemical_formula_sum   'Ba3 Ca1 Ta2 O9'
_cell_volume   227.66983496
_cell_formula_units_Z   1
loop_
 _symmetry_equiv_pos_site_id
 _symmetry_equiv_pos_as_xyz
  1  'x, y, z'
loop_
 _atom_site_type_symbol
 _atom_site_label
 _atom_site_symmetry_multiplicity
 _atom_site_fract_x
 _atom_site_fract_y
 _atom_site_fract_z
 _atom_site_occupancy
  Ba  Ba0  1  0.66666700  0.33333300  0.33232300  1
  Ba  Ba1  1  0.33333300  0.66666700  0.66767700  1
  Ba  Ba2  1  0.00000000  0.00000000  0.00000000  1
  Ca  Ca0  1  0.00000000  0.00000000  0.50000000  1
  Ta  Ta0  1  0.66666700  0.33333300  0.83168900  1
  Ta  Ta1  1  0.33333300  0.66666700  0.16831100  1
  O  O0  1  0.17724800  0.82275200  0.31317000  1
  O  O1  1  0.82275200  0.17724800  0.68683000  1
  O  O2  1  0.50000000  0.50000000  0.00000000  1
  O  O3  1  0.00000000  0.50000000  0.00000000  1
  O  O4  1  0.64550400  0.82275200  0.31317000  1
  O  O5  1  0.35449600  0.17724800  0.68683000  1
  O  O6  1  0.17724800  0.35449600  0.31317000  1
  O  O7  1  0.82275200  0.64550400  0.68683000  1
  O  O8  1  0.50000000  0.00000000  0.00000000  1
loop_
_geom_bond_atom_site_label_1
_geom_bond_atom_site_label_2
_geom_bond_distance
_geom_bond_site_symmetry_2
Ba0 O4 2.991962 1_545
Ba0 O6 2.991962 1_655
Ba0 O0 2.991964 1_545
Ba0 O0 2.991964 1_655
Ba0 O4 2.991968 1_555
Ba0 O6 2.991968 1_555
Ba0 O3 2.994798 1_655
Ba0 O8 2.994798 1_555
Ba0 O2 2.994800 1_555
Ba0 O1 3.070899 1_555
Ba0 O7 3.070902 1_555
Ba0 O5 3.070902 1_555
Ba1 O7 2.991962 1_455
Ba1 O5 2.991962 1_565
Ba1 O1 2.991964 1_455
Ba1 O1 2.991964 1_565
Ba1 O7 2.991968 1_555
Ba1 O5 2.991968 1_555
Ba1 O8 2.994798 1_566
Ba1 O3 2.994798 1_556
Ba1 O2 2.994800 1_556
Ba1 O0 3.070899 1_555
Ba1 O4 3.070902 1_555
Ba1 O6 3.070902 1_555
Ba2 O1 2.947401 1_454
Ba2 O0 2.947401 1_545
Ba2 O7 2.947401 1_444
Ba2 O5 2.947401 1_554
Ba2 O4 2.947401 1_445
Ba2 O6 2.947401 1_555
Ba2 O8 2.986629 1_455
Ba2 O8 2.986629 1_555
Ba2 O3 2.986629 1_545
Ba2 O3 2.986629 1_555
Ba2 O2 2.986629 1_555
Ba2 O2 2.986629 1_445
Ca0 O1 2.292988 1_455
Ca0 O0 2.292988 1_545
Ca0 O4 2.292988 1_445
Ca0 O7 2.292988 1_445
Ca0 O5 2.292988 1_555
Ca0 O6 2.292988 1_555
O0 Ta1 1.935701 1_555
O1 Ta0 1.935701 1_555
O2 Ta1 2.123967 1_555
O2 Ta0 2.123967 1_554
O3 Ta0 2.123963 1_454
O3 Ta1 2.123963 1_555
O4 Ta1 1.935706 1_555
O5 Ta0 1.935706 1_555
O6 Ta1 1.935706 1_555
O7 Ta0 1.935706 1_555
O8 Ta0 2.123963 1_554
O8 Ta1 2.123963 1_545
