# generated using pymatgen
data_Sr4TlCu2BiO10
_symmetry_space_group_name_H-M   'P 1'
_cell_length_a   9.86869807
_cell_length_b   9.86869807
_cell_length_c   9.86869807
_cell_angle_alpha   148.91466421
_cell_angle_beta   148.91466421
_cell_angle_gamma   44.53693123
_symmetry_Int_Tables_number   1
_chemical_formula_structural   Sr4TlCu2BiO10
_chemical_formula_sum   'Sr4 Tl1 Cu2 Bi1 O10'
_cell_volume   255.44911831
_cell_formula_units_Z   1
loop_
 _symmetry_equiv_pos_site_id
 _symmetry_equiv_pos_as_xyz
  1  'x, y, z'
loop_
 _atom_site_type_symbol
 _atom_site_label
 _atom_site_symmetry_multiplicity
 _atom_site_fract_x
 _atom_site_fract_y
 _atom_site_fract_z
 _atom_site_occupancy
  Sr  Sr0  1  0.35202700  0.85202700  0.50000000  1
  Sr  Sr1  1  0.85202700  0.35202700  0.50000000  1
  Sr  Sr2  1  0.14797300  0.64797300  0.50000000  1
  Sr  Sr3  1  0.64797300  0.14797300  0.50000000  1
  Tl  Tl0  1  0.50000000  0.50000000  0.00000000  1
  Cu  Cu0  1  0.75285500  0.75285500  0.00000000  1
  Cu  Cu1  1  0.24714500  0.24714500  0.00000000  1
  Bi  Bi0  1  0.00000000  0.00000000  0.00000000  1
  O  O0  1  0.00000000  0.00000000  0.50000000  1
  O  O1  1  0.50000000  0.50000000  0.50000000  1
  O  O2  1  0.00000000  0.50000000  0.00000000  1
  O  O3  1  0.50000000  0.00000000  0.00000000  1
  O  O4  1  0.87959300  0.87959300  0.00000000  1
  O  O5  1  0.38594800  0.38594800  0.00000000  1
  O  O6  1  0.61405200  0.61405200  0.00000000  1
  O  O7  1  0.12040700  0.12040700  0.00000000  1
  O  O8  1  0.00000000  0.50000000  0.50000000  1
  O  O9  1  0.50000000  0.00000000  0.50000000  1
loop_
_geom_bond_atom_site_label_1
_geom_bond_atom_site_label_2
_geom_bond_distance
_geom_bond_site_symmetry_2
Cu0 O0 1.870583 1_665
Cu0 O3 1.870583 1_565
Cu0 O2 1.870583 1_655
Cu0 O1 1.870583 1_554
Cu0 O4 2.314914 1_555
Cu0 O6 2.535285 1_555
Cu1 O2 1.870583 1_555
Cu1 O3 1.870583 1_555
Cu1 O0 1.870583 1_554
Cu1 O1 1.870583 1_555
Cu1 O7 2.314914 1_555
Cu1 O5 2.535285 1_555
Bi0 O7 2.199276 1_555
Bi0 O4 2.199276 1_445
Bi0 O9 2.644376 1_555
Bi0 O9 2.644376 1_454
Bi0 O8 2.644376 1_544
Bi0 O8 2.644376 1_555
O0 Sr0 2.639927 1_545
O0 Sr2 2.639927 1_545
O0 Sr3 2.639927 1_455
O0 Sr1 2.639927 1_455
O1 Sr2 2.639927 1_555
O1 Sr3 2.639927 1_555
O1 Sr0 2.639927 1_555
O1 Sr1 2.639927 1_555
O2 Sr2 2.639927 1_555
O2 Sr1 2.639927 1_454
O2 Sr3 2.639927 1_454
O2 Sr0 2.639927 1_555
O3 Sr2 2.639927 1_544
O3 Sr3 2.639927 1_555
O3 Sr1 2.639927 1_555
O3 Sr0 2.639927 1_544
O4 Sr1 2.691884 1_554
O4 Sr1 2.691884 1_565
O4 Sr0 2.691884 1_655
O4 Sr0 2.691884 1_554
O5 Tl0 2.083200 1_555
O5 Sr1 2.715990 1_454
O5 Sr0 2.715990 1_555
O5 Sr1 2.715990 1_555
O5 Sr0 2.715990 1_544
O6 Tl0 2.083200 1_555
O6 Sr2 2.715990 1_655
O6 Sr3 2.715990 1_565
O6 Sr2 2.715990 1_554
O6 Sr3 2.715990 1_554
O7 Sr2 2.691884 1_555
O7 Sr3 2.691884 1_555
O7 Sr3 2.691884 1_454
O7 Sr2 2.691884 1_544
O8 Tl0 2.644376 1_556
O8 Tl0 2.644376 1_455
O8 Sr1 2.702779 1_455
O8 Sr2 2.702779 1_555
O9 Tl0 2.644376 1_556
O9 Tl0 2.644376 1_545
O9 Sr3 2.702779 1_555
O9 Sr0 2.702779 1_545
