# generated using pymatgen
data_HgCN2Cl2O
_symmetry_space_group_name_H-M   'P 1'
_cell_length_a   7.40741400
_cell_length_b   9.31943404
_cell_length_c   11.06435331
_cell_angle_alpha   74.69711123
_cell_angle_beta   76.86375363
_cell_angle_gamma   81.76566100
_symmetry_Int_Tables_number   1
_chemical_formula_structural   HgCN2Cl2O
_chemical_formula_sum   'Hg4 C4 N8 Cl8 O4'
_cell_volume   714.62202298
_cell_formula_units_Z   4
loop_
 _symmetry_equiv_pos_site_id
 _symmetry_equiv_pos_as_xyz
  1  'x, y, z'
loop_
 _atom_site_type_symbol
 _atom_site_label
 _atom_site_symmetry_multiplicity
 _atom_site_fract_x
 _atom_site_fract_y
 _atom_site_fract_z
 _atom_site_occupancy
  Hg  Hg0  1  0.71341900  0.15805200  0.48721300  1
  Hg  Hg1  1  0.28658100  0.84194800  0.51278700  1
  Hg  Hg2  1  0.70843400  0.40474200  0.12209700  1
  Hg  Hg3  1  0.29156600  0.59525800  0.87790300  1
  C  C0  1  0.16886600  0.20626100  0.03848800  1
  C  C1  1  0.83113400  0.79373900  0.96151200  1
  C  C2  1  0.19841700  0.25822900  0.37702300  1
  C  C3  1  0.80158300  0.74177100  0.62297700  1
  N  N0  1  0.19871300  0.05403700  0.08965600  1
  N  N1  1  0.80128700  0.94596300  0.91034400  1
  N  N2  1  0.29435200  0.37971600  0.30489900  1
  N  N3  1  0.70564800  0.62028400  0.69510100  1
  N  N4  1  0.22279900  0.10358800  0.96349000  1
  N  N5  1  0.77720100  0.89641200  0.03651000  1
  N  N6  1  0.27622300  0.34670100  0.43113700  1
  N  N7  1  0.72377700  0.65329900  0.56886300  1
  Cl  Cl0  1  0.66805700  0.04805600  0.33138700  1
  Cl  Cl1  1  0.33194300  0.95194400  0.66861300  1
  Cl  Cl2  1  0.34245700  0.70382200  0.03117300  1
  Cl  Cl3  1  0.65754300  0.29617800  0.96882700  1
  Cl  Cl4  1  0.23439600  0.50095500  0.71791000  1
  Cl  Cl5  1  0.76560400  0.49904500  0.28209000  1
  Cl  Cl6  1  0.23905100  0.73292700  0.36055000  1
  Cl  Cl7  1  0.76094900  0.26707300  0.63945000  1
  O  O0  1  0.11604700  0.15250000  0.38485900  1
  O  O1  1  0.88395300  0.84750000  0.61514100  1
  O  O2  1  0.12563700  0.33161700  0.05191700  1
  O  O3  1  0.87436300  0.66838300  0.94808300  1
loop_
_geom_bond_atom_site_label_1
_geom_bond_atom_site_label_2
_geom_bond_distance
_geom_bond_site_symmetry_2
C0 O2 1.205097 1_555
C0 N4 1.386606 1_554
C0 N0 1.387463 1_555
C1 O3 1.205097 1_555
C1 N5 1.386606 1_556
C1 N1 1.387463 1_555
C2 O0 1.205718 1_555
C2 N2 1.385447 1_555
C2 N6 1.387088 1_555
C3 O1 1.205718 1_555
C3 N3 1.385447 1_555
C3 N7 1.387088 1_555
N0 N4 1.328109 1_554
N1 N5 1.328109 1_556
N2 N6 1.327903 1_555
N3 N7 1.327903 1_555
Cl0 Hg0 2.330494 1_555
Cl1 Hg1 2.330494 1_555
Cl2 Hg3 2.312377 1_554
Cl3 Hg2 2.312377 1_556
Cl4 Hg3 2.313858 1_555
Cl5 Hg2 2.313858 1_555
Cl6 Hg1 2.295390 1_555
Cl7 Hg0 2.295390 1_555
