# generated using pymatgen
data_Mg3Si4
_symmetry_space_group_name_H-M   'P 1'
_cell_length_a   3.61008100
_cell_length_b   7.07352700
_cell_length_c   9.73660607
_cell_angle_alpha   83.94391276
_cell_angle_beta   90.00000000
_cell_angle_gamma   90.00000000
_symmetry_Int_Tables_number   1
_chemical_formula_structural   Mg3Si4
_chemical_formula_sum   'Mg6 Si8'
_cell_volume   247.24642264
_cell_formula_units_Z   2
loop_
 _symmetry_equiv_pos_site_id
 _symmetry_equiv_pos_as_xyz
  1  'x, y, z'
loop_
 _atom_site_type_symbol
 _atom_site_label
 _atom_site_symmetry_multiplicity
 _atom_site_fract_x
 _atom_site_fract_y
 _atom_site_fract_z
 _atom_site_occupancy
  Mg  Mg0  1  0.00000000  0.31649800  0.32919100  1
  Mg  Mg1  1  0.50000000  0.87407300  0.98404900  1
  Mg  Mg2  1  0.50000000  0.74281600  0.70262600  1
  Mg  Mg3  1  0.00000000  0.20257500  0.04882100  1
  Mg  Mg4  1  0.50000000  0.14791500  0.56321000  1
  Mg  Mg5  1  0.50000000  0.61050600  0.42491300  1
  Si  Si0  1  0.00000000  0.90943100  0.42887200  1
  Si  Si1  1  0.00000000  0.43352100  0.63539900  1
  Si  Si2  1  0.50000000  0.51935600  0.13657900  1
  Si  Si3  1  0.00000000  0.56515500  0.92404500  1
  Si  Si4  1  0.00000000  0.07030900  0.78557400  1
  Si  Si5  1  0.50000000  0.02512600  0.25845700  1
  Si  Si6  1  0.50000000  0.33795700  0.82121500  1
  Si  Si7  1  0.00000000  0.74463300  0.20378300  1
loop_
_geom_bond_atom_site_label_1
_geom_bond_atom_site_label_2
_geom_bond_distance
_geom_bond_site_symmetry_2
Mg0 Si2 2.875140 1_455
Mg0 Si2 2.875140 1_555
Mg0 Si5 2.877470 1_455
Mg0 Si5 2.877470 1_555
Mg0 Mg3 2.926711 1_555
Mg0 Si0 2.939939 1_545
Mg0 Mg5 2.976715 1_555
Mg0 Mg5 2.976715 1_455
Mg0 Mg4 3.049368 1_555
Mg0 Mg4 3.049368 1_455
Mg0 Si7 3.143573 1_555
Mg0 Si1 3.177238 1_555
Mg1 Si2 2.777573 1_556
Mg1 Si7 2.874102 1_656
Mg1 Si7 2.874102 1_556
Mg1 Si4 2.890223 1_665
Mg1 Si4 2.890223 1_565
Mg1 Si3 2.940019 1_655
Mg1 Si3 2.940019 1_555
Mg1 Si5 2.980359 1_566
Mg1 Mg3 3.060155 1_566
Mg1 Mg3 3.060155 1_666
Mg2 Si1 2.962312 1_655
Mg2 Si1 2.962312 1_555
Mg2 Si6 2.972667 1_555
Mg2 Si3 2.985557 1_655
Mg2 Si3 2.985557 1_555
Mg2 Si4 3.109907 1_665
Mg2 Si4 3.109907 1_565
Mg3 Si3 2.719613 1_554
Mg3 Si4 2.819746 1_554
Mg3 Si5 2.908495 1_455
Mg3 Si5 2.908495 1_555
Mg3 Si6 2.939145 1_554
Mg3 Si6 2.939145 1_454
Mg3 Si2 3.068107 1_455
Mg3 Si2 3.068107 1_555
Mg4 Si4 2.827767 1_655
Mg4 Si4 2.827767 1_555
Mg4 Si1 2.851877 1_655
Mg4 Si1 2.851877 1_555
Mg4 Si0 2.877553 1_545
Mg4 Si0 2.877553 1_645
Mg4 Si6 2.971567 1_555
Mg4 Si5 3.178493 1_555
Mg5 Si0 2.783482 1_555
Mg5 Si0 2.783482 1_655
Mg5 Si7 2.891873 1_555
Mg5 Si7 2.891873 1_655
Mg5 Si1 2.912764 1_555
Mg5 Si1 2.912764 1_655
Mg5 Si2 2.946032 1_555
Mg5 Si5 3.197691 1_565
Si0 Si5 2.528742 1_565
Si0 Si5 2.528742 1_465
Si0 Si7 2.588639 1_555
Si1 Si6 2.594287 1_555
Si1 Si6 2.594287 1_455
Si1 Si4 2.818879 1_555
Si2 Si7 2.538817 1_555
Si2 Si7 2.538817 1_655
Si2 Si3 2.739328 1_654
Si2 Si3 2.739328 1_554
Si3 Si6 2.680086 1_555
Si3 Si6 2.680086 1_455
Si4 Si6 2.664862 1_455
Si4 Si6 2.664862 1_555
Si5 Si7 2.775062 1_645
Si5 Si7 2.775062 1_545
