# generated using pymatgen
data_ScMo3O8
_symmetry_space_group_name_H-M   'P 1'
_cell_length_a   5.86103817
_cell_length_b   5.86103817
_cell_length_c   10.21313600
_cell_angle_alpha   90.00000000
_cell_angle_beta   90.00000000
_cell_angle_gamma   120.00000195
_symmetry_Int_Tables_number   1
_chemical_formula_structural   ScMo3O8
_chemical_formula_sum   'Sc2 Mo6 O16'
_cell_volume   303.83572588
_cell_formula_units_Z   2
loop_
 _symmetry_equiv_pos_site_id
 _symmetry_equiv_pos_as_xyz
  1  'x, y, z'
loop_
 _atom_site_type_symbol
 _atom_site_label
 _atom_site_symmetry_multiplicity
 _atom_site_fract_x
 _atom_site_fract_y
 _atom_site_fract_z
 _atom_site_occupancy
  Sc  Sc0  1  0.66666700  0.33333300  0.00635100  1
  Sc  Sc1  1  0.33333300  0.66666700  0.50635100  1
  Mo  Mo0  1  0.30229000  0.15114500  0.75090100  1
  Mo  Mo1  1  0.15114500  0.84885500  0.25090100  1
  Mo  Mo2  1  0.84885500  0.69771000  0.75090100  1
  Mo  Mo3  1  0.15114500  0.30229000  0.25090100  1
  Mo  Mo4  1  0.69771000  0.84885500  0.25090100  1
  Mo  Mo5  1  0.84885500  0.15114500  0.75090100  1
  O  O0  1  0.83138800  0.16861200  0.13606300  1
  O  O1  1  0.66277600  0.83138800  0.63606300  1
  O  O2  1  0.16861200  0.33722400  0.63606300  1
  O  O3  1  0.83138800  0.66277600  0.13606300  1
  O  O4  1  0.33722400  0.16861200  0.13606300  1
  O  O5  1  0.16861200  0.83138800  0.63606300  1
  O  O6  1  0.51568200  0.48431800  0.86059700  1
  O  O7  1  0.03136400  0.51568200  0.36059700  1
  O  O8  1  0.48431800  0.96863600  0.36059700  1
  O  O9  1  0.51568200  0.03136400  0.86059700  1
  O  O10  1  0.00000000  0.00000000  0.38853500  1
  O  O11  1  0.00000000  0.00000000  0.88853500  1
  O  O12  1  0.33333300  0.66666700  0.15443900  1
  O  O13  1  0.66666700  0.33333300  0.65443900  1
  O  O14  1  0.48431800  0.51568200  0.36059700  1
  O  O15  1  0.96863600  0.48431800  0.86059700  1
loop_
_geom_bond_atom_site_label_1
_geom_bond_atom_site_label_2
_geom_bond_distance
_geom_bond_site_symmetry_2
Mo0 O5 2.008328 1_545
Mo0 O2 2.008329 1_555
Mo0 O6 2.047025 1_555
Mo0 O9 2.047025 1_555
Mo0 O11 2.080913 1_555
Mo0 O13 2.095533 1_555
Mo1 O4 2.008328 1_565
Mo1 O3 2.008328 1_455
Mo1 O7 2.047025 1_555
Mo1 O8 2.047025 1_555
Mo1 O10 2.080913 1_565
Mo1 O12 2.095528 1_555
Mo2 O5 2.008328 1_655
Mo2 O1 2.008329 1_555
Mo2 O6 2.047025 1_555
Mo2 O15 2.047025 1_555
Mo2 O11 2.080913 1_665
Mo2 O13 2.095533 1_555
Mo3 O0 2.008328 1_455
Mo3 O4 2.008329 1_555
Mo3 O14 2.047025 1_555
Mo3 O7 2.047025 1_555
Mo3 O10 2.080913 1_555
Mo3 O12 2.095533 1_555
Mo4 O0 2.008328 1_565
Mo4 O3 2.008329 1_555
Mo4 O14 2.047025 1_555
Mo4 O8 2.047025 1_555
Mo4 O10 2.080913 1_665
Mo4 O12 2.095533 1_555
Mo5 O1 2.008328 1_545
Mo5 O2 2.008328 1_655
Mo5 O9 2.047025 1_555
Mo5 O15 2.047025 1_555
Mo5 O11 2.080913 1_655
Mo5 O13 2.095528 1_555
O0 Sc0 2.133356 1_555
O1 Sc1 2.133360 1_555
O2 Sc1 2.133360 1_555
O3 Sc0 2.133360 1_555
O4 Sc0 2.133360 1_555
O5 Sc1 2.133356 1_555
O6 Sc0 2.136643 1_556
O7 Sc1 2.136639 1_555
O8 Sc1 2.136639 1_555
O9 Sc0 2.136639 1_556
O14 Sc1 2.136643 1_555
O15 Sc0 2.136639 1_556
