# generated using pymatgen
data_Y9Ga5S21
_symmetry_space_group_name_H-M   'P 1'
_cell_length_a   11.50173182
_cell_length_b   11.50173182
_cell_length_c   11.50173173
_cell_angle_alpha   94.22756074
_cell_angle_beta   94.22756074
_cell_angle_gamma   94.22756354
_symmetry_Int_Tables_number   1
_chemical_formula_structural   Y9Ga5S21
_chemical_formula_sum   'Y18 Ga10 S42'
_cell_volume   1508.49349959
_cell_formula_units_Z   2
loop_
 _symmetry_equiv_pos_site_id
 _symmetry_equiv_pos_as_xyz
  1  'x, y, z'
loop_
 _atom_site_type_symbol
 _atom_site_label
 _atom_site_symmetry_multiplicity
 _atom_site_fract_x
 _atom_site_fract_y
 _atom_site_fract_z
 _atom_site_occupancy
  Y  Y0  1  0.11553500  0.88046000  0.74001600  1
  Y  Y1  1  0.45652300  0.22665000  0.07842300  1
  Y  Y2  1  0.77245500  0.54850100  0.39587600  1
  Y  Y3  1  0.39587600  0.77245500  0.54850100  1
  Y  Y4  1  0.74001600  0.11553500  0.88046000  1
  Y  Y5  1  0.07842300  0.45652300  0.22665000  1
  Y  Y6  1  0.22665000  0.07842300  0.45652300  1
  Y  Y7  1  0.54850100  0.39587600  0.77245500  1
  Y  Y8  1  0.88046000  0.74001600  0.11553500  1
  Y  Y9  1  0.20912300  0.43743600  0.58438600  1
  Y  Y10  1  0.55161900  0.78193500  0.93012100  1
  Y  Y11  1  0.87073300  0.10169100  0.24727300  1
  Y  Y12  1  0.93012100  0.55161900  0.78193500  1
  Y  Y13  1  0.24727300  0.87073300  0.10169100  1
  Y  Y14  1  0.58438600  0.20912300  0.43743600  1
  Y  Y15  1  0.10169100  0.24727300  0.87073300  1
  Y  Y16  1  0.43743600  0.58438600  0.20912300  1
  Y  Y17  1  0.78193500  0.93012100  0.55161900  1
  Ga  Ga0  1  0.72250400  0.39048800  0.05001600  1
  Ga  Ga1  1  0.05001600  0.72250400  0.39048800  1
  Ga  Ga2  1  0.39048800  0.05001600  0.72250400  1
  Ga  Ga3  1  0.88586200  0.22592500  0.55122600  1
  Ga  Ga4  1  0.22592500  0.55122600  0.88586200  1
  Ga  Ga5  1  0.55122600  0.88586200  0.22592500  1
  Ga  Ga6  1  0.85833600  0.85833600  0.85833600  1
  Ga  Ga7  1  0.15749200  0.15749200  0.15749200  1
  Ga  Ga8  1  0.65683800  0.65683800  0.65683800  1
  Ga  Ga9  1  0.35827000  0.35827000  0.35827000  1
  S  S0  1  0.53861600  0.44716000  0.01132200  1
  S  S1  1  0.86721500  0.78111700  0.35587700  1
  S  S2  1  0.20300600  0.10585600  0.69247000  1
  S  S3  1  0.69247000  0.20300600  0.10585600  1
  S  S4  1  0.01132200  0.53861600  0.44716000  1
  S  S5  1  0.35587700  0.86721500  0.78111700  1
  S  S6  1  0.78111700  0.35587700  0.86721500  1
  S  S7  1  0.10585600  0.69247000  0.20300600  1
  S  S8  1  0.44716000  0.01132200  0.53861600  1
  S  S9  1  0.96515100  0.06389500  0.47495100  1
  S  S10  1  0.29799800  0.38476900  0.81075700  1
  S  S11  1  0.63054800  0.71937200  0.15586200  1
  S  S12  1  0.81075700  0.29799800  0.38476900  1
  S  S13  1  0.15586200  0.63054800  0.71937200  1
  S  S14  1  0.47495100  0.96515100  0.06389500  1
  S  S15  1  0.71937200  0.15586200  0.63054800  1
  S  S16  1  0.06389500  0.47495100  0.96515100  1
  S  S17  1  0.38476900  0.81075700  0.29799800  1
  S  S18  1  0.84667800  0.51121900  0.17565100  1
  S  S19  1  0.17565100  0.84667800  0.51121900  1
  S  S20  1  0.51121900  0.17565100  0.84667800  1
  S  S21  1  0.67704900  0.00998500  0.34650000  1
  S  S22  1  0.00998500  0.34650000  0.67704900  1
  S  S23  1  0.34650000  0.67704900  0.00998500  1
  S  S24  1  0.56097500  0.41343000  0.31161100  1
  S  S25  1  0.89986300  0.76338800  0.66624900  1
  S  S26  1  0.24130600  0.09976200  0.99360300  1
  S  S27  1  0.99360300  0.24130600  0.09976200  1
  S  S28  1  0.31161100  0.56097500  0.41343000  1
  S  S29  1  0.66624900  0.89986300  0.76338800  1
  S  S30  1  0.76338800  0.66624900  0.89986300  1
  S  S31  1  0.09976200  0.99360300  0.24130600  1
  S  S32  1  0.41343000  0.31161100  0.56097500  1
  S  S33  1  0.15256800  0.28896300  0.38559300  1
  S  S34  1  0.48273700  0.62151200  0.73068500  1
  S  S35  1  0.79611900  0.94625600  0.04576400  1
  S  S36  1  0.73068500  0.48273700  0.62151200  1
  S  S37  1  0.04576400  0.79611900  0.94625600  1
  S  S38  1  0.38559300  0.15256800  0.28896300  1
  S  S39  1  0.94625600  0.04576400  0.79611900  1
  S  S40  1  0.28896300  0.38559300  0.15256800  1
  S  S41  1  0.62151200  0.73068500  0.48273700  1
loop_
_geom_bond_atom_site_label_1
_geom_bond_atom_site_label_2
_geom_bond_distance
_geom_bond_site_symmetry_2
Ga0 S6 2.271282 1_554
Ga0 S18 2.272359 1_555
Ga0 S0 2.281129 1_555
Ga0 S3 2.304088 1_555
Ga1 S1 2.271282 1_455
Ga1 S19 2.272359 1_555
Ga1 S4 2.281129 1_555
Ga1 S7 2.304088 1_555
Ga2 S5 2.271282 1_545
Ga2 S20 2.272359 1_555
Ga2 S8 2.281129 1_555
Ga2 S2 2.304088 1_555
Ga3 S22 2.272295 1_655
Ga3 S12 2.279168 1_555
Ga3 S9 2.280768 1_555
Ga3 S15 2.299379 1_555
Ga4 S23 2.272295 1_556
Ga4 S10 2.279168 1_555
Ga4 S16 2.280768 1_555
Ga4 S13 2.299379 1_555
Ga5 S21 2.272295 1_565
Ga5 S17 2.279168 1_555
Ga5 S14 2.280768 1_555
Ga5 S11 2.299379 1_555
Ga6 S30 2.485690 1_555
Ga6 S25 2.485690 1_555
Ga6 S29 2.485690 1_555
Ga6 S39 2.488906 1_565
Ga6 S35 2.488906 1_556
Ga6 S37 2.488906 1_655
Ga7 S31 2.258584 1_545
Ga7 S26 2.258584 1_554
Ga7 S27 2.258584 1_455
Ga7 S40 2.936403 1_555
Ga7 S33 2.936403 1_555
Ga7 S38 2.936403 1_555
Ga8 S34 2.253455 1_555
Ga8 S41 2.253455 1_555
Ga8 S36 2.253455 1_555
Ga8 S25 2.959318 1_555
Ga8 S30 2.959318 1_555
Ga8 S29 2.959318 1_555
Ga9 S24 2.478467 1_555
Ga9 S32 2.478467 1_555
Ga9 S28 2.478467 1_555
Ga9 S33 2.490045 1_555
Ga9 S40 2.490045 1_555
Ga9 S38 2.490045 1_555
S0 Y7 2.779566 1_554
S0 Y1 2.821823 1_555
S0 Y16 3.025403 1_555
S1 Y8 2.787176 1_555
S1 Y2 2.895384 1_555
S1 Y17 2.995406 1_555
S2 Y6 2.744710 1_555
S2 Y0 2.817374 1_545
S2 Y15 2.889194 1_555
S3 Y1 2.744710 1_555
S3 Y4 2.817374 1_554
S3 Y11 2.889194 1_555
S4 Y2 2.779566 1_455
S4 Y5 2.821823 1_555
S4 Y9 3.025403 1_555
S5 Y0 2.787176 1_555
S5 Y3 2.895384 1_555
S5 Y10 2.995406 1_555
S6 Y4 2.787176 1_555
S6 Y7 2.895384 1_555
S6 Y12 2.995406 1_555
S7 Y5 2.744710 1_555
S7 Y8 2.817374 1_455
S7 Y13 2.889194 1_555
S8 Y3 2.779566 1_545
S8 Y6 2.821823 1_555
S8 Y14 3.025403 1_555
S9 Y17 2.753485 1_545
S9 Y11 2.836198 1_555
S9 Y6 3.023932 1_655
S10 Y15 2.817593 1_555
S10 Y9 2.849972 1_555
S10 Y7 2.941595 1_555
S11 Y16 2.748008 1_555
S11 Y10 2.847376 1_554
S11 Y8 2.940407 1_555
S12 Y11 2.817593 1_555
S12 Y14 2.849972 1_555
S12 Y2 2.941595 1_555
S13 Y9 2.748008 1_555
S13 Y12 2.847376 1_455
S13 Y0 2.940407 1_555
S14 Y10 2.753485 1_554
S14 Y13 2.836198 1_555
S14 Y1 3.023932 1_565
S15 Y14 2.748008 1_555
S15 Y17 2.847376 1_545
S15 Y4 2.940407 1_555
S16 Y12 2.753485 1_455
S16 Y15 2.836198 1_555
S16 Y5 3.023932 1_556
S17 Y13 2.817593 1_555
S17 Y16 2.849972 1_555
S17 Y3 2.941595 1_555
S18 Y2 2.746133 1_555
S18 Y8 2.776923 1_555
S18 Y5 2.813482 1_655
S19 Y3 2.746133 1_555
S19 Y0 2.776923 1_555
S19 Y6 2.813481 1_565
S20 Y7 2.746133 1_555
S20 Y4 2.776923 1_555
S20 Y1 2.813481 1_556
S21 Y11 2.753839 1_555
S21 Y14 2.765318 1_555
S21 Y17 2.815727 1_545
S22 Y15 2.753839 1_555
S22 Y9 2.765318 1_555
S22 Y12 2.815727 1_455
S23 Y13 2.753839 1_555
S23 Y16 2.765318 1_555
S23 Y10 2.815727 1_554
S24 Y16 2.789542 1_555
S24 Y2 2.853534 1_555
S24 Y14 2.868117 1_555
S24 Y1 3.398068 1_555
S25 Y0 2.777622 1_655
S25 Y17 2.783579 1_555
S25 Y12 2.891160 1_555
S26 Y15 2.806242 1_555
S26 Y1 2.847902 1_556
S26 Y13 2.997721 1_546
S27 Y11 2.806242 1_555
S27 Y5 2.847902 1_655
S27 Y15 2.997721 1_654
S28 Y9 2.789542 1_555
S28 Y3 2.853534 1_555
S28 Y16 2.868117 1_555
S28 Y5 3.398068 1_555
S29 Y4 2.777622 1_565
S29 Y10 2.783579 1_555
S29 Y17 2.891160 1_555
S30 Y8 2.777622 1_556
S30 Y12 2.783579 1_555
S30 Y10 2.891160 1_555
S31 Y13 2.806242 1_555
S31 Y6 2.847902 1_565
S31 Y11 2.997721 1_465
S32 Y14 2.789542 1_555
S32 Y7 2.853534 1_555
S32 Y9 2.868117 1_555
S32 Y6 3.398068 1_555
S33 Y9 2.758358 1_555
S33 Y6 2.783631 1_555
S33 Y5 2.883645 1_555
S34 Y7 2.820940 1_555
S34 Y10 2.861211 1_555
S34 Y3 2.981012 1_555
S35 Y8 2.777968 1_555
S35 Y11 2.859021 1_565
S35 Y4 2.893476 1_564
S35 Y10 3.397611 1_554
S36 Y2 2.820940 1_555
S36 Y12 2.861211 1_555
S36 Y7 2.981012 1_555
S37 Y0 2.777968 1_555
S37 Y13 2.859021 1_556
S37 Y8 2.893476 1_456
S37 Y12 3.397611 1_455
S38 Y14 2.758358 1_555
S38 Y1 2.783631 1_555
S38 Y6 2.883645 1_555
S39 Y4 2.777968 1_555
S39 Y15 2.859021 1_655
S39 Y0 2.893476 1_645
S39 Y17 3.397611 1_545
S40 Y16 2.758358 1_555
S40 Y5 2.783631 1_555
S40 Y1 2.883645 1_555
S41 Y3 2.820940 1_555
S41 Y17 2.861211 1_555
S41 Y2 2.981012 1_555
