# generated using pymatgen
data_TaNiTe2
_symmetry_space_group_name_H-M   'P 1'
_cell_length_a   6.27564489
_cell_length_b   7.55408332
_cell_length_c   7.94022577
_cell_angle_alpha   90.00000000
_cell_angle_beta   90.00000000
_cell_angle_gamma   90.00000000
_symmetry_Int_Tables_number   1
_chemical_formula_structural   TaNiTe2
_chemical_formula_sum   'Ta4 Ni4 Te8'
_cell_volume   376.42025344
_cell_formula_units_Z   4
loop_
 _symmetry_equiv_pos_site_id
 _symmetry_equiv_pos_as_xyz
  1  'x, y, z'
loop_
 _atom_site_type_symbol
 _atom_site_label
 _atom_site_symmetry_multiplicity
 _atom_site_fract_x
 _atom_site_fract_y
 _atom_site_fract_z
 _atom_site_occupancy
  Ta  Ta0  1  0.74992955  0.46410007  0.95705521  1
  Ta  Ta1  1  0.25007045  0.46410007  0.04294479  1
  Ta  Ta2  1  0.25007045  0.46410007  0.45705521  1
  Ta  Ta3  1  0.74992955  0.46410007  0.54294479  1
  Ni  Ni0  1  0.10830974  0.34974269  0.75000000  1
  Ni  Ni1  1  0.89169026  0.34974269  0.25000000  1
  Ni  Ni2  1  0.60793382  0.57877952  0.25000000  1
  Ni  Ni3  1  0.39206618  0.57877952  0.75000000  1
  Te  Te0  1  0.50307702  0.24896588  0.75000000  1
  Te  Te1  1  0.00000000  0.15641689  0.50000000  1
  Te  Te2  1  0.00314341  0.67923499  0.25000000  1
  Te  Te3  1  0.99685659  0.67923499  0.75000000  1
  Te  Te4  1  0.50000000  0.77186087  0.50000000  1
  Te  Te5  1  0.50000000  0.77186087  -0.00000000  1
  Te  Te6  1  0.00000000  0.15641689  -0.00000000  1
  Te  Te7  1  0.49692298  0.24896588  0.25000000  1
loop_
_geom_bond_atom_site_label_1
_geom_bond_atom_site_label_2
_geom_bond_distance
_geom_bond_site_symmetry_2
Ta0 Te0 2.782791 1_555
Ta0 Te3 2.783055 1_555
Ta0 Te5 2.825120 1_556
Ta0 Te6 2.825128 1_656
Ta1 Te7 2.782791 1_555
Ta1 Te2 2.783055 1_555
Ta1 Te5 2.825120 1_555
Ta1 Te6 2.825128 1_555
Ta2 Te7 2.782791 1_555
Ta2 Te2 2.783055 1_555
Ta2 Te4 2.825120 1_555
Ta2 Te1 2.825128 1_555
Ta3 Te0 2.782791 1_555
Ta3 Te3 2.783055 1_555
Ta3 Te4 2.825120 1_555
Ta3 Te1 2.825128 1_655
Ni0 Ni3 2.482852 1_555
Ni0 Te6 2.556409 1_556
Ni0 Te1 2.556409 1_555
Ni0 Te3 2.585420 1_455
Ni0 Te0 2.591746 1_555
Ni0 Ta1 2.635948 1_556
Ni0 Ta2 2.635948 1_555
Ni0 Ta3 2.916764 1_455
Ni0 Ta0 2.916764 1_455
Ni1 Ni2 2.482852 1_555
Ni1 Te6 2.556409 1_655
Ni1 Te1 2.556409 1_655
Ni1 Te2 2.585420 1_655
Ni1 Te7 2.591746 1_555
Ni1 Ta0 2.635948 1_554
Ni1 Ta3 2.635948 1_555
Ni1 Ta2 2.916764 1_655
Ni1 Ta1 2.916764 1_655
Ni2 Te4 2.554728 1_555
Ni2 Te5 2.554728 1_555
Ni2 Te7 2.587009 1_555
Ni2 Te2 2.593688 1_655
Ni2 Ta3 2.637244 1_555
Ni2 Ta0 2.637244 1_554
Ni2 Ta1 2.914986 1_555
Ni2 Ta2 2.914986 1_555
Ni3 Te4 2.554728 1_555
Ni3 Te5 2.554728 1_556
Ni3 Te0 2.587009 1_555
Ni3 Te3 2.593688 1_455
Ni3 Ta1 2.637244 1_556
Ni3 Ta2 2.637244 1_555
Ni3 Ta3 2.914986 1_555
Ni3 Ta0 2.914986 1_555
