# generated using pymatgen
data_YV3Se2ClO8
_symmetry_space_group_name_H-M   'P 1'
_cell_length_a   6.68630600
_cell_length_b   7.24622900
_cell_length_c   9.74425582
_cell_angle_alpha   89.78623376
_cell_angle_beta   90.00000000
_cell_angle_gamma   90.00000000
_symmetry_Int_Tables_number   1
_chemical_formula_structural   YV3Se2ClO8
_chemical_formula_sum   'Y2 V6 Se4 Cl2 O16'
_cell_volume   472.11082396
_cell_formula_units_Z   2
loop_
 _symmetry_equiv_pos_site_id
 _symmetry_equiv_pos_as_xyz
  1  'x, y, z'
loop_
 _atom_site_type_symbol
 _atom_site_label
 _atom_site_symmetry_multiplicity
 _atom_site_fract_x
 _atom_site_fract_y
 _atom_site_fract_z
 _atom_site_occupancy
  Y  Y0  1  0.75000000  0.26905400  0.25066400  1
  Y  Y1  1  0.25000000  0.73094600  0.74933600  1
  V  V0  1  0.50000000  0.00000000  0.00000000  1
  V  V1  1  0.50000000  0.00000000  0.50000000  1
  V  V2  1  0.00000000  0.00000000  0.00000000  1
  V  V3  1  0.25000000  0.20103000  0.75081000  1
  V  V4  1  0.75000000  0.79897000  0.24919000  1
  V  V5  1  0.00000000  0.00000000  0.50000000  1
  Se  Se0  1  0.25000000  0.41107700  0.06476600  1
  Se  Se1  1  0.75000000  0.58892300  0.93523400  1
  Se  Se2  1  0.25000000  0.41313100  0.43620700  1
  Se  Se3  1  0.75000000  0.58686900  0.56379300  1
  Cl  Cl0  1  0.75000000  0.11884500  0.74215800  1
  Cl  Cl1  1  0.25000000  0.88115500  0.25784200  1
  O  O0  1  0.75000000  0.01455800  0.11637900  1
  O  O1  1  0.75000000  0.56941300  0.11377100  1
  O  O2  1  0.25000000  0.42617400  0.61525300  1
  O  O3  1  0.45487800  0.26521300  0.09106100  1
  O  O4  1  0.54520500  0.73003300  0.58940900  1
  O  O5  1  0.95479500  0.73003300  0.58940900  1
  O  O6  1  0.25000000  0.98544200  0.88362100  1
  O  O7  1  0.04512200  0.26521300  0.09106100  1
  O  O8  1  0.04520500  0.26996700  0.41059100  1
  O  O9  1  0.95487800  0.73478700  0.90893900  1
  O  O10  1  0.75000000  0.01760500  0.38113000  1
  O  O11  1  0.25000000  0.98239500  0.61887000  1
  O  O12  1  0.54512200  0.73478700  0.90893900  1
  O  O13  1  0.45479500  0.26996700  0.41059100  1
  O  O14  1  0.25000000  0.43058700  0.88622900  1
  O  O15  1  0.75000000  0.57382600  0.38474700  1
loop_
_geom_bond_atom_site_label_1
_geom_bond_atom_site_label_2
_geom_bond_distance
_geom_bond_site_symmetry_2
Cl0 V5 3.019752 1_655
Cl0 V1 3.019752 1_555
Cl0 V2 3.135634 1_656
Cl0 V0 3.135634 1_556
Cl1 V1 3.019752 1_565
Cl1 V5 3.019752 1_565
Cl1 V0 3.135634 1_565
Cl1 V2 3.135634 1_565
O0 V2 2.022920 1_655
O0 V0 2.022920 1_555
O0 V4 2.024893 1_545
O0 Y0 2.265179 1_555
O1 Se1 1.744919 1_554
O1 V4 2.127107 1_555
O1 Y0 2.548471 1_555
O2 Se2 1.747580 1_555
O2 V3 2.095308 1_555
O2 Y1 2.570178 1_555
O3 Se0 1.748533 1_555
O3 V0 2.141116 1_555
O3 Y0 2.512688 1_555
O4 Se3 1.736513 1_555
O4 V1 2.159759 1_565
O4 Y1 2.514885 1_555
O5 Se3 1.736513 1_555
O5 V5 2.159759 1_665
O5 Y1 2.514885 1_655
O6 V0 2.022920 1_566
O6 V2 2.022920 1_566
O6 V3 2.024893 1_565
O6 Y1 2.265179 1_555
O7 Se0 1.748533 1_555
O7 V2 2.141116 1_555
O7 Y0 2.512688 1_455
O8 Se2 1.736513 1_555
O8 V5 2.159759 1_555
O8 Y0 2.514885 1_455
O9 Se1 1.748533 1_555
O9 V2 2.141116 1_666
O9 Y1 2.512688 1_655
O10 V5 2.037400 1_655
O10 V1 2.037400 1_555
O10 V4 2.044029 1_545
O10 Y0 2.217836 1_555
O11 V5 2.037400 1_565
O11 V1 2.037400 1_565
O11 V3 2.044029 1_565
O11 Y1 2.217836 1_555
O12 Se1 1.748533 1_555
O12 V0 2.141116 1_566
O12 Y1 2.512688 1_555
O13 Se2 1.736513 1_555
O13 V1 2.159759 1_555
O13 Y0 2.514885 1_555
O14 Se0 1.744919 1_556
O14 V3 2.127107 1_555
O14 Y1 2.548471 1_555
O15 Se3 1.747580 1_555
O15 V4 2.095308 1_555
O15 Y0 2.570178 1_555
