# generated using pymatgen
data_SrEu(GeO3)4
_symmetry_space_group_name_H-M   'P 1'
_cell_length_a   5.37322438
_cell_length_b   5.37322438
_cell_length_c   7.63446709
_cell_angle_alpha   90.00000000
_cell_angle_beta   90.00000000
_cell_angle_gamma   90.00000000
_symmetry_Int_Tables_number   1
_chemical_formula_structural   SrEu(GeO3)4
_chemical_formula_sum   'Sr1 Eu1 Ge4 O12'
_cell_volume   220.41882378
_cell_formula_units_Z   1
loop_
 _symmetry_equiv_pos_site_id
 _symmetry_equiv_pos_as_xyz
  1  'x, y, z'
loop_
 _atom_site_type_symbol
 _atom_site_label
 _atom_site_symmetry_multiplicity
 _atom_site_fract_x
 _atom_site_fract_y
 _atom_site_fract_z
 _atom_site_occupancy
  Sr  Sr0  1  0.00000000  0.00000000  0.00000000  1
  Eu  Eu0  1  0.50000000  0.50000000  0.50000000  1
  Ge  Ge0  1  0.00000000  0.50000000  0.75418184  1
  Ge  Ge1  1  0.00000000  0.50000000  0.24581816  1
  Ge  Ge2  1  0.50000000  0.00000000  0.75418184  1
  Ge  Ge3  1  0.50000000  0.00000000  0.24581816  1
  O  O0  1  0.25543654  0.25543654  0.74306188  1
  O  O1  1  0.25543654  0.25543654  0.25693812  1
  O  O2  1  0.74456346  0.74456346  0.25693812  1
  O  O3  1  0.74456346  0.74456346  0.74306188  1
  O  O4  1  0.74456346  0.25543654  0.74306188  1
  O  O5  1  0.74456346  0.25543654  0.25693812  1
  O  O6  1  0.25543654  0.74456346  0.25693812  1
  O  O7  1  0.25543654  0.74456346  0.74306188  1
  O  O8  1  0.00000000  0.50000000  0.50000000  1
  O  O9  1  0.00000000  0.50000000  0.00000000  1
  O  O10  1  0.50000000  0.00000000  0.50000000  1
  O  O11  1  0.50000000  0.00000000  0.00000000  1
loop_
_geom_bond_atom_site_label_1
_geom_bond_atom_site_label_2
_geom_bond_distance
_geom_bond_site_symmetry_2
Eu0 O5 2.626236 1_555
Eu0 O6 2.626236 1_555
Eu0 O1 2.626236 1_555
Eu0 O0 2.626236 1_555
Eu0 O7 2.626236 1_555
Eu0 O4 2.626236 1_555
Eu0 O2 2.626236 1_555
Eu0 O3 2.626236 1_555
Eu0 O8 2.686612 1_655
Eu0 O10 2.686612 1_555
Eu0 O10 2.686612 1_565
Eu0 O8 2.686612 1_555
Ge0 O9 1.876691 1_556
Ge0 O4 1.902066 1_455
Ge0 O0 1.902066 1_555
Ge0 O3 1.902066 1_455
Ge0 O7 1.902066 1_555
Ge0 O8 1.940543 1_555
Ge1 O9 1.876691 1_555
Ge1 O5 1.902066 1_455
Ge1 O1 1.902066 1_555
Ge1 O2 1.902066 1_455
Ge1 O6 1.902066 1_555
Ge1 O8 1.940543 1_555
Ge2 O11 1.876691 1_556
Ge2 O7 1.902066 1_545
Ge2 O0 1.902066 1_555
Ge2 O3 1.902066 1_545
Ge2 O4 1.902066 1_555
Ge2 O10 1.940543 1_555
Ge3 O11 1.876691 1_555
Ge3 O6 1.902066 1_545
Ge3 O2 1.902066 1_545
Ge3 O1 1.902066 1_555
Ge3 O5 1.902066 1_555
Ge3 O10 1.940543 1_555
O0 Sr0 2.759607 1_556
O1 Sr0 2.759607 1_555
O2 Sr0 2.759607 1_665
O3 Sr0 2.759607 1_666
O4 Sr0 2.759607 1_656
O5 Sr0 2.759607 1_655
O6 Sr0 2.759607 1_565
O7 Sr0 2.759607 1_566
O9 Sr0 2.686612 1_565
O9 Sr0 2.686612 1_555
O11 Sr0 2.686612 1_555
O11 Sr0 2.686612 1_655
