# generated using pymatgen
data_Nb5Ir7
_symmetry_space_group_name_H-M   'P 1'
_cell_length_a   5.70734600
_cell_length_b   9.72571000
_cell_length_c   27.54787000
_cell_angle_alpha   90.00000000
_cell_angle_beta   90.00000000
_cell_angle_gamma   90.00000000
_symmetry_Int_Tables_number   1
_chemical_formula_structural   Nb5Ir7
_chemical_formula_sum   'Nb40 Ir56'
_cell_volume   1529.12694939
_cell_formula_units_Z   8
loop_
 _symmetry_equiv_pos_site_id
 _symmetry_equiv_pos_as_xyz
  1  'x, y, z'
loop_
 _atom_site_type_symbol
 _atom_site_label
 _atom_site_symmetry_multiplicity
 _atom_site_fract_x
 _atom_site_fract_y
 _atom_site_fract_z
 _atom_site_occupancy
  Nb  Nb0_0  1  0.00000000  0.34587800  0.17023100  1
  Nb  Nb0_1  1  0.00000000  0.34587800  0.67023100  1
  Nb  Nb0_2  1  0.00000000  0.84587800  0.17023100  1
  Nb  Nb0_3  1  0.00000000  0.84587800  0.67023100  1
  Nb  Nb0_4  1  0.50000000  0.34587800  0.17023100  1
  Nb  Nb0_5  1  0.50000000  0.34587800  0.67023100  1
  Nb  Nb0_6  1  0.50000000  0.84587800  0.17023100  1
  Nb  Nb0_7  1  0.50000000  0.84587800  0.67023100  1
  Nb  Nb1_0  1  0.00000000  0.16499750  0.08306200  1
  Nb  Nb1_1  1  0.00000000  0.16499750  0.58306200  1
  Nb  Nb1_2  1  0.00000000  0.66499750  0.08306200  1
  Nb  Nb1_3  1  0.00000000  0.66499750  0.58306200  1
  Nb  Nb1_4  1  0.50000000  0.16499750  0.08306200  1
  Nb  Nb1_5  1  0.50000000  0.16499750  0.58306200  1
  Nb  Nb1_6  1  0.50000000  0.66499750  0.08306200  1
  Nb  Nb1_7  1  0.50000000  0.66499750  0.58306200  1
  Nb  Nb2_0  1  0.00000000  0.34587800  0.32976900  1
  Nb  Nb2_1  1  0.00000000  0.34587800  0.82976900  1
  Nb  Nb2_2  1  0.00000000  0.84587800  0.32976900  1
  Nb  Nb2_3  1  0.00000000  0.84587800  0.82976900  1
  Nb  Nb2_4  1  0.50000000  0.34587800  0.32976900  1
  Nb  Nb2_5  1  0.50000000  0.34587800  0.82976900  1
  Nb  Nb2_6  1  0.50000000  0.84587800  0.32976900  1
  Nb  Nb2_7  1  0.50000000  0.84587800  0.82976900  1
  Nb  Nb3_0  1  0.00000000  0.16499750  0.41693800  1
  Nb  Nb3_1  1  0.00000000  0.16499750  0.91693800  1
  Nb  Nb3_2  1  0.00000000  0.66499750  0.41693800  1
  Nb  Nb3_3  1  0.00000000  0.66499750  0.91693800  1
  Nb  Nb3_4  1  0.50000000  0.16499750  0.41693800  1
  Nb  Nb3_5  1  0.50000000  0.16499750  0.91693800  1
  Nb  Nb3_6  1  0.50000000  0.66499750  0.41693800  1
  Nb  Nb3_7  1  0.50000000  0.66499750  0.91693800  1
  Nb  Nb4_0  1  0.00000000  0.47665900  0.00000000  1
  Nb  Nb4_1  1  0.00000000  0.47665900  0.50000000  1
  Nb  Nb4_2  1  0.00000000  0.97665900  0.00000000  1
  Nb  Nb4_3  1  0.00000000  0.97665900  0.50000000  1
  Nb  Nb4_4  1  0.50000000  0.47665900  0.00000000  1
  Nb  Nb4_5  1  0.50000000  0.47665900  0.50000000  1
  Nb  Nb4_6  1  0.50000000  0.97665900  0.00000000  1
  Nb  Nb4_7  1  0.50000000  0.97665900  0.50000000  1
  Ir  Ir0_0  1  0.25000000  0.23144450  0.00000000  1
  Ir  Ir0_1  1  0.25000000  0.23144450  0.50000000  1
  Ir  Ir0_2  1  0.25000000  0.73144450  0.00000000  1
  Ir  Ir0_3  1  0.25000000  0.73144450  0.50000000  1
  Ir  Ir0_4  1  0.75000000  0.23144450  0.00000000  1
  Ir  Ir0_5  1  0.75000000  0.23144450  0.50000000  1
  Ir  Ir0_6  1  0.75000000  0.73144450  0.00000000  1
  Ir  Ir0_7  1  0.75000000  0.73144450  0.50000000  1
  Ir  Ir1_0  1  0.25000000  0.25481950  0.25000000  1
  Ir  Ir1_1  1  0.25000000  0.25481950  0.75000000  1
  Ir  Ir1_2  1  0.25000000  0.75481950  0.25000000  1
  Ir  Ir1_3  1  0.25000000  0.75481950  0.75000000  1
  Ir  Ir1_4  1  0.75000000  0.25481950  0.25000000  1
  Ir  Ir1_5  1  0.75000000  0.25481950  0.75000000  1
  Ir  Ir1_6  1  0.75000000  0.75481950  0.25000000  1
  Ir  Ir1_7  1  0.75000000  0.75481950  0.75000000  1
  Ir  Ir2_0  1  0.25000000  0.08902500  0.16797850  1
  Ir  Ir2_1  1  0.25000000  0.08902500  0.66797850  1
  Ir  Ir2_2  1  0.25000000  0.58902500  0.16797850  1
  Ir  Ir2_3  1  0.25000000  0.58902500  0.66797850  1
  Ir  Ir2_4  1  0.75000000  0.08902500  0.16797850  1
  Ir  Ir2_5  1  0.75000000  0.08902500  0.66797850  1
  Ir  Ir2_6  1  0.75000000  0.58902500  0.16797850  1
  Ir  Ir2_7  1  0.75000000  0.58902500  0.66797850  1
  Ir  Ir3_0  1  0.25000000  0.41314800  0.08506850  1
  Ir  Ir3_1  1  0.25000000  0.41314800  0.58506850  1
  Ir  Ir3_2  1  0.25000000  0.91314800  0.08506850  1
  Ir  Ir3_3  1  0.25000000  0.91314800  0.58506850  1
  Ir  Ir3_4  1  0.75000000  0.41314800  0.08506850  1
  Ir  Ir3_5  1  0.75000000  0.41314800  0.58506850  1
  Ir  Ir3_6  1  0.75000000  0.91314800  0.08506850  1
  Ir  Ir3_7  1  0.75000000  0.91314800  0.58506850  1
  Ir  Ir4_0  1  0.25000000  0.08902500  0.33202150  1
  Ir  Ir4_1  1  0.25000000  0.08902500  0.83202150  1
  Ir  Ir4_2  1  0.25000000  0.58902500  0.33202150  1
  Ir  Ir4_3  1  0.25000000  0.58902500  0.83202150  1
  Ir  Ir4_4  1  0.75000000  0.08902500  0.33202150  1
  Ir  Ir4_5  1  0.75000000  0.08902500  0.83202150  1
  Ir  Ir4_6  1  0.75000000  0.58902500  0.33202150  1
  Ir  Ir4_7  1  0.75000000  0.58902500  0.83202150  1
  Ir  Ir5_0  1  0.25000000  0.41314800  0.41493150  1
  Ir  Ir5_1  1  0.25000000  0.41314800  0.91493150  1
  Ir  Ir5_2  1  0.25000000  0.91314800  0.41493150  1
  Ir  Ir5_3  1  0.25000000  0.91314800  0.91493150  1
  Ir  Ir5_4  1  0.75000000  0.41314800  0.41493150  1
  Ir  Ir5_5  1  0.75000000  0.41314800  0.91493150  1
  Ir  Ir5_6  1  0.75000000  0.91314800  0.41493150  1
  Ir  Ir5_7  1  0.75000000  0.91314800  0.91493150  1
  Ir  Ir6_0  1  0.00000000  0.01098000  0.25000000  1
  Ir  Ir6_1  1  0.00000000  0.01098000  0.75000000  1
  Ir  Ir6_2  1  0.00000000  0.51098000  0.25000000  1
  Ir  Ir6_3  1  0.00000000  0.51098000  0.75000000  1
  Ir  Ir6_4  1  0.50000000  0.01098000  0.25000000  1
  Ir  Ir6_5  1  0.50000000  0.01098000  0.75000000  1
  Ir  Ir6_6  1  0.50000000  0.51098000  0.25000000  1
  Ir  Ir6_7  1  0.50000000  0.51098000  0.75000000  1
loop_
_geom_bond_atom_site_label_1
_geom_bond_atom_site_label_2
_geom_bond_distance
_geom_bond_site_symmetry_2
Ir0_0 Nb3_1 2.772953 1_554
Ir0_0 Nb3_5 2.772953 1_554
Ir0_0 Nb1_0 2.772953 1_555
Ir0_0 Nb1_4 2.772953 1_555
Ir0_0 Nb4_4 2.779126 1_555
Ir0_0 Nb4_0 2.779126 1_555
Ir0_0 Nb4_6 2.859405 1_545
Ir0_0 Nb4_2 2.859405 1_545
Ir0_1 Nb1_5 2.772953 1_555
Ir0_1 Nb1_1 2.772953 1_555
Ir0_1 Nb3_0 2.772953 1_555
Ir0_1 Nb3_4 2.772953 1_555
Ir0_1 Nb4_1 2.779126 1_555
Ir0_1 Nb4_5 2.779126 1_555
Ir0_1 Nb4_3 2.859405 1_545
Ir0_1 Nb4_7 2.859405 1_545
Ir0_2 Nb3_3 2.772953 1_554
Ir0_2 Nb3_7 2.772953 1_554
Ir0_2 Nb1_2 2.772953 1_555
Ir0_2 Nb1_6 2.772953 1_555
Ir0_2 Nb4_2 2.779126 1_555
Ir0_2 Nb4_6 2.779126 1_555
Ir0_2 Nb4_0 2.859405 1_555
Ir0_2 Nb4_4 2.859405 1_555
Ir0_3 Nb1_3 2.772953 1_555
Ir0_3 Nb1_7 2.772953 1_555
Ir0_3 Nb3_2 2.772953 1_555
Ir0_3 Nb3_6 2.772953 1_555
Ir0_3 Nb4_3 2.779126 1_555
Ir0_3 Nb4_7 2.779126 1_555
Ir0_3 Nb4_1 2.859405 1_555
Ir0_3 Nb4_5 2.859405 1_555
Ir0_4 Nb3_1 2.772953 1_654
Ir0_4 Nb3_5 2.772953 1_554
Ir0_4 Nb1_0 2.772953 1_655
Ir0_4 Nb1_4 2.772953 1_555
Ir0_4 Nb4_0 2.779126 1_655
Ir0_4 Nb4_4 2.779126 1_555
Ir0_4 Nb4_6 2.859405 1_545
Ir0_4 Nb4_2 2.859405 1_645
Ir0_5 Nb1_1 2.772953 1_655
Ir0_5 Nb1_5 2.772953 1_555
Ir0_5 Nb3_0 2.772953 1_655
Ir0_5 Nb3_4 2.772953 1_555
Ir0_5 Nb4_1 2.779126 1_655
Ir0_5 Nb4_5 2.779126 1_555
Ir0_5 Nb4_3 2.859405 1_645
Ir0_5 Nb4_7 2.859405 1_545
Ir0_6 Nb3_3 2.772953 1_654
Ir0_6 Nb3_7 2.772953 1_554
Ir0_6 Nb1_2 2.772953 1_655
Ir0_6 Nb1_6 2.772953 1_555
Ir0_6 Nb4_6 2.779126 1_555
Ir0_6 Nb4_2 2.779126 1_655
Ir0_6 Nb4_0 2.859405 1_655
Ir0_6 Nb4_4 2.859405 1_555
Ir0_7 Nb1_3 2.772953 1_655
Ir0_7 Nb1_7 2.772953 1_555
Ir0_7 Nb3_2 2.772953 1_655
Ir0_7 Nb3_6 2.772953 1_555
Ir0_7 Nb4_3 2.779126 1_655
Ir0_7 Nb4_7 2.779126 1_555
Ir0_7 Nb4_1 2.859405 1_655
Ir0_7 Nb4_5 2.859405 1_555
Ir1_0 Nb2_0 2.765687 1_555
Ir1_0 Nb2_4 2.765687 1_555
Ir1_0 Nb0_0 2.765687 1_555
Ir1_0 Nb0_4 2.765687 1_555
Ir1_0 Ir2_0 2.775874 1_555
Ir1_0 Ir4_0 2.775874 1_555
Ir1_1 Nb2_5 2.765687 1_555
Ir1_1 Nb2_1 2.765687 1_555
Ir1_1 Nb0_1 2.765687 1_555
Ir1_1 Nb0_5 2.765687 1_555
Ir1_1 Ir2_1 2.775874 1_555
Ir1_1 Ir4_1 2.775874 1_555
Ir1_2 Nb2_6 2.765687 1_555
Ir1_2 Nb2_2 2.765687 1_555
Ir1_2 Nb0_6 2.765687 1_555
Ir1_2 Nb0_2 2.765687 1_555
Ir1_2 Ir2_2 2.775874 1_555
Ir1_2 Ir4_2 2.775874 1_555
Ir1_3 Nb2_3 2.765687 1_555
Ir1_3 Nb2_7 2.765687 1_555
Ir1_3 Nb0_3 2.765687 1_555
Ir1_3 Nb0_7 2.765687 1_555
Ir1_3 Ir2_3 2.775874 1_555
Ir1_3 Ir4_3 2.775874 1_555
Ir1_4 Nb2_0 2.765687 1_655
Ir1_4 Nb2_4 2.765687 1_555
Ir1_4 Nb0_0 2.765687 1_655
Ir1_4 Nb0_4 2.765687 1_555
Ir1_4 Ir2_4 2.775874 1_555
Ir1_4 Ir4_4 2.775874 1_555
Ir1_5 Nb2_5 2.765687 1_555
Ir1_5 Nb2_1 2.765687 1_655
Ir1_5 Nb0_5 2.765687 1_555
Ir1_5 Nb0_1 2.765687 1_655
Ir1_5 Ir4_5 2.775874 1_555
Ir1_5 Ir2_5 2.775874 1_555
Ir1_6 Nb2_6 2.765687 1_555
Ir1_6 Nb2_2 2.765687 1_655
Ir1_6 Nb0_2 2.765687 1_655
Ir1_6 Nb0_6 2.765687 1_555
Ir1_6 Ir2_6 2.775874 1_555
Ir1_6 Ir4_6 2.775874 1_555
Ir1_7 Nb2_7 2.765687 1_555
Ir1_7 Nb2_3 2.765687 1_655
Ir1_7 Nb0_7 2.765687 1_555
Ir1_7 Nb0_3 2.765687 1_655
Ir1_7 Ir2_7 2.775874 1_555
Ir1_7 Ir4_7 2.775874 1_555
Ir2_0 Nb0_2 2.762586 1_545
Ir2_0 Nb0_6 2.762586 1_545
Ir2_0 Ir6_4 2.778026 1_555
Ir2_0 Ir6_0 2.778026 1_555
Ir2_0 Nb1_0 2.837956 1_555
Ir2_0 Nb1_4 2.837956 1_555
Ir2_0 Ir3_2 2.853513 1_545
Ir2_0 Ir2_4 2.853673 1_555
Ir2_0 Ir2_4 2.853673 1_455
Ir2_0 Nb0_4 2.877517 1_555
Ir2_0 Nb0_0 2.877517 1_555
Ir2_1 Nb0_7 2.762586 1_545
Ir2_1 Nb0_3 2.762586 1_545
Ir2_1 Ir6_5 2.778026 1_555
Ir2_1 Ir6_1 2.778026 1_555
Ir2_1 Nb1_1 2.837956 1_555
Ir2_1 Nb1_5 2.837956 1_555
Ir2_1 Ir3_3 2.853513 1_545
Ir2_1 Ir2_5 2.853673 1_455
Ir2_1 Ir2_5 2.853673 1_555
Ir2_1 Nb0_1 2.877517 1_555
Ir2_1 Nb0_5 2.877517 1_555
Ir2_2 Nb0_0 2.762586 1_555
Ir2_2 Nb0_4 2.762586 1_555
Ir2_2 Ir6_2 2.778026 1_555
Ir2_2 Ir6_6 2.778026 1_555
Ir2_2 Nb1_2 2.837956 1_555
Ir2_2 Nb1_6 2.837956 1_555
Ir2_2 Ir3_0 2.853513 1_555
Ir2_2 Ir2_6 2.853673 1_455
Ir2_2 Ir2_6 2.853673 1_555
Ir2_2 Nb0_2 2.877517 1_555
Ir2_2 Nb0_6 2.877517 1_555
Ir2_3 Nb0_5 2.762586 1_555
Ir2_3 Nb0_1 2.762586 1_555
Ir2_3 Ir6_7 2.778026 1_555
Ir2_3 Ir6_3 2.778026 1_555
Ir2_3 Nb1_7 2.837956 1_555
Ir2_3 Nb1_3 2.837956 1_555
Ir2_3 Ir3_1 2.853513 1_555
Ir2_3 Ir2_7 2.853673 1_555
Ir2_3 Ir2_7 2.853673 1_455
Ir2_3 Nb0_3 2.877517 1_555
Ir2_3 Nb0_7 2.877517 1_555
Ir2_4 Nb0_2 2.762586 1_645
Ir2_4 Nb0_6 2.762586 1_545
Ir2_4 Ir6_0 2.778026 1_655
Ir2_4 Ir6_4 2.778026 1_555
Ir2_4 Nb1_0 2.837956 1_655
Ir2_4 Nb1_4 2.837956 1_555
Ir2_4 Ir3_6 2.853513 1_545
Ir2_4 Nb0_4 2.877517 1_555
Ir2_4 Nb0_0 2.877517 1_655
Ir2_5 Nb0_7 2.762586 1_545
Ir2_5 Nb0_3 2.762586 1_645
Ir2_5 Ir6_5 2.778026 1_555
Ir2_5 Ir6_1 2.778026 1_655
Ir2_5 Nb1_1 2.837956 1_655
Ir2_5 Nb1_5 2.837956 1_555
Ir2_5 Ir3_7 2.853513 1_545
Ir2_5 Nb0_1 2.877517 1_655
Ir2_5 Nb0_5 2.877517 1_555
Ir2_6 Nb0_0 2.762586 1_655
Ir2_6 Nb0_4 2.762586 1_555
Ir2_6 Ir6_2 2.778026 1_655
Ir2_6 Ir6_6 2.778026 1_555
Ir2_6 Nb1_2 2.837956 1_655
Ir2_6 Nb1_6 2.837956 1_555
Ir2_6 Ir3_4 2.853513 1_555
Ir2_6 Nb0_2 2.877517 1_655
Ir2_6 Nb0_6 2.877517 1_555
Ir2_7 Nb0_1 2.762586 1_655
Ir2_7 Nb0_5 2.762586 1_555
Ir2_7 Ir6_7 2.778026 1_555
Ir2_7 Ir6_3 2.778026 1_655
Ir2_7 Nb1_7 2.837956 1_555
Ir2_7 Nb1_3 2.837956 1_655
Ir2_7 Ir3_5 2.853513 1_555
Ir2_7 Nb0_3 2.877517 1_655
Ir2_7 Nb0_7 2.877517 1_555
Ir3_0 Nb1_0 2.804213 1_555
Ir3_0 Nb1_4 2.804213 1_555
Ir3_0 Nb4_4 2.812328 1_555
Ir3_0 Nb4_0 2.812328 1_555
Ir3_0 Nb0_4 2.822735 1_555
Ir3_0 Nb0_0 2.822735 1_555
Ir3_0 Nb1_2 2.835234 1_555
Ir3_0 Nb1_6 2.835234 1_555
Ir3_1 Nb1_1 2.804213 1_555
Ir3_1 Nb1_5 2.804213 1_555
Ir3_1 Nb4_1 2.812328 1_555
Ir3_1 Nb4_5 2.812328 1_555
Ir3_1 Nb0_1 2.822735 1_555
Ir3_1 Nb0_5 2.822735 1_555
Ir3_1 Nb1_3 2.835234 1_555
Ir3_1 Nb1_7 2.835234 1_555
Ir3_2 Nb1_6 2.804213 1_555
Ir3_2 Nb1_2 2.804213 1_555
Ir3_2 Nb4_2 2.812328 1_555
Ir3_2 Nb4_6 2.812328 1_555
Ir3_2 Nb0_6 2.822735 1_555
Ir3_2 Nb0_2 2.822735 1_555
Ir3_2 Nb1_0 2.835234 1_565
Ir3_2 Nb1_4 2.835234 1_565
Ir3_3 Nb1_3 2.804213 1_555
Ir3_3 Nb1_7 2.804213 1_555
Ir3_3 Nb4_3 2.812328 1_555
Ir3_3 Nb4_7 2.812328 1_555
Ir3_3 Nb0_3 2.822735 1_555
Ir3_3 Nb0_7 2.822735 1_555
Ir3_3 Nb1_5 2.835234 1_565
Ir3_3 Nb1_1 2.835234 1_565
Ir3_4 Nb1_0 2.804213 1_655
Ir3_4 Nb1_4 2.804213 1_555
Ir3_4 Nb4_0 2.812328 1_655
Ir3_4 Nb4_4 2.812328 1_555
Ir3_4 Nb0_4 2.822735 1_555
Ir3_4 Nb0_0 2.822735 1_655
Ir3_4 Nb1_2 2.835234 1_655
Ir3_4 Nb1_6 2.835234 1_555
Ir3_5 Nb1_1 2.804213 1_655
Ir3_5 Nb1_5 2.804213 1_555
Ir3_5 Nb4_1 2.812328 1_655
Ir3_5 Nb4_5 2.812328 1_555
Ir3_5 Nb0_5 2.822735 1_555
Ir3_5 Nb0_1 2.822735 1_655
Ir3_5 Nb1_3 2.835234 1_655
Ir3_5 Nb1_7 2.835234 1_555
Ir3_6 Nb1_2 2.804213 1_655
Ir3_6 Nb1_6 2.804213 1_555
Ir3_6 Nb4_6 2.812328 1_555
Ir3_6 Nb4_2 2.812328 1_655
Ir3_6 Nb0_2 2.822735 1_655
Ir3_6 Nb0_6 2.822735 1_555
Ir3_6 Nb1_0 2.835234 1_665
Ir3_6 Nb1_4 2.835234 1_565
Ir3_7 Nb1_3 2.804213 1_655
Ir3_7 Nb1_7 2.804213 1_555
Ir3_7 Nb4_3 2.812328 1_655
Ir3_7 Nb4_7 2.812328 1_555
Ir3_7 Nb0_3 2.822735 1_655
Ir3_7 Nb0_7 2.822735 1_555
Ir3_7 Nb1_1 2.835234 1_665
Ir3_7 Nb1_5 2.835234 1_565
Ir4_0 Nb2_6 2.762586 1_545
Ir4_0 Nb2_2 2.762586 1_545
Ir4_0 Ir6_4 2.778026 1_555
Ir4_0 Ir6_0 2.778026 1_555
Ir4_0 Nb3_0 2.837956 1_555
Ir4_0 Nb3_4 2.837956 1_555
Ir4_0 Ir5_2 2.853513 1_545
Ir4_0 Ir4_4 2.853673 1_555
Ir4_0 Ir4_4 2.853673 1_455
Ir4_0 Nb2_0 2.877517 1_555
Ir4_0 Nb2_4 2.877517 1_555
Ir4_1 Nb2_3 2.762586 1_545
Ir4_1 Nb2_7 2.762586 1_545
Ir4_1 Ir6_5 2.778026 1_555
Ir4_1 Ir6_1 2.778026 1_555
Ir4_1 Nb3_1 2.837956 1_555
Ir4_1 Nb3_5 2.837956 1_555
Ir4_1 Ir5_3 2.853513 1_545
Ir4_1 Ir4_5 2.853673 1_455
Ir4_1 Ir4_5 2.853673 1_555
Ir4_1 Nb2_1 2.877517 1_555
Ir4_1 Nb2_5 2.877517 1_555
Ir4_2 Nb2_0 2.762586 1_555
Ir4_2 Nb2_4 2.762586 1_555
Ir4_2 Ir6_6 2.778026 1_555
Ir4_2 Ir6_2 2.778026 1_555
Ir4_2 Nb3_2 2.837956 1_555
Ir4_2 Nb3_6 2.837956 1_555
Ir4_2 Ir5_0 2.853513 1_555
Ir4_2 Ir4_6 2.853673 1_555
Ir4_2 Ir4_6 2.853673 1_455
Ir4_2 Nb2_6 2.877517 1_555
Ir4_2 Nb2_2 2.877517 1_555
Ir4_3 Nb2_1 2.762586 1_555
Ir4_3 Nb2_5 2.762586 1_555
Ir4_3 Ir6_7 2.778026 1_555
Ir4_3 Ir6_3 2.778026 1_555
Ir4_3 Nb3_7 2.837956 1_555
Ir4_3 Nb3_3 2.837956 1_555
Ir4_3 Ir5_1 2.853513 1_555
Ir4_3 Ir4_7 2.853673 1_455
Ir4_3 Ir4_7 2.853673 1_555
Ir4_3 Nb2_3 2.877517 1_555
Ir4_3 Nb2_7 2.877517 1_555
Ir4_4 Nb2_2 2.762586 1_645
Ir4_4 Nb2_6 2.762586 1_545
Ir4_4 Ir6_4 2.778026 1_555
Ir4_4 Ir6_0 2.778026 1_655
Ir4_4 Nb3_0 2.837956 1_655
Ir4_4 Nb3_4 2.837956 1_555
Ir4_4 Ir5_6 2.853513 1_545
Ir4_4 Nb2_0 2.877517 1_655
Ir4_4 Nb2_4 2.877517 1_555
Ir4_5 Nb2_3 2.762586 1_645
Ir4_5 Nb2_7 2.762586 1_545
Ir4_5 Ir6_5 2.778026 1_555
Ir4_5 Ir6_1 2.778026 1_655
Ir4_5 Nb3_5 2.837956 1_555
Ir4_5 Nb3_1 2.837956 1_655
Ir4_5 Ir5_7 2.853513 1_545
Ir4_5 Nb2_1 2.877517 1_655
Ir4_5 Nb2_5 2.877517 1_555
Ir4_6 Nb2_0 2.762586 1_655
Ir4_6 Nb2_4 2.762586 1_555
Ir4_6 Ir6_2 2.778026 1_655
Ir4_6 Ir6_6 2.778026 1_555
Ir4_6 Nb3_2 2.837956 1_655
Ir4_6 Nb3_6 2.837956 1_555
Ir4_6 Ir5_4 2.853513 1_555
Ir4_6 Nb2_2 2.877517 1_655
Ir4_6 Nb2_6 2.877517 1_555
Ir4_7 Nb2_1 2.762586 1_655
Ir4_7 Nb2_5 2.762586 1_555
Ir4_7 Ir6_7 2.778026 1_555
Ir4_7 Ir6_3 2.778026 1_655
Ir4_7 Nb3_7 2.837956 1_555
Ir4_7 Nb3_3 2.837956 1_655
Ir4_7 Ir5_5 2.853513 1_555
Ir4_7 Nb2_3 2.877517 1_655
Ir4_7 Nb2_7 2.877517 1_555
Ir5_0 Nb3_0 2.804213 1_555
Ir5_0 Nb3_4 2.804213 1_555
Ir5_0 Nb4_1 2.812328 1_555
Ir5_0 Nb4_5 2.812328 1_555
Ir5_0 Nb2_0 2.822735 1_555
Ir5_0 Nb2_4 2.822735 1_555
Ir5_0 Nb3_2 2.835234 1_555
Ir5_0 Nb3_6 2.835234 1_555
Ir5_1 Nb3_5 2.804213 1_555
Ir5_1 Nb3_1 2.804213 1_555
Ir5_1 Nb4_0 2.812328 1_556
Ir5_1 Nb4_4 2.812328 1_556
Ir5_1 Nb2_5 2.822735 1_555
Ir5_1 Nb2_1 2.822735 1_555
Ir5_1 Nb3_3 2.835234 1_555
Ir5_1 Nb3_7 2.835234 1_555
Ir5_2 Nb3_6 2.804213 1_555
Ir5_2 Nb3_2 2.804213 1_555
Ir5_2 Nb4_3 2.812328 1_555
Ir5_2 Nb4_7 2.812328 1_555
Ir5_2 Nb2_2 2.822735 1_555
Ir5_2 Nb2_6 2.822735 1_555
Ir5_2 Nb3_4 2.835234 1_565
Ir5_2 Nb3_0 2.835234 1_565
Ir5_3 Nb3_3 2.804213 1_555
Ir5_3 Nb3_7 2.804213 1_555
Ir5_3 Nb4_2 2.812328 1_556
Ir5_3 Nb4_6 2.812328 1_556
Ir5_3 Nb2_3 2.822735 1_555
Ir5_3 Nb2_7 2.822735 1_555
Ir5_3 Nb3_1 2.835234 1_565
Ir5_3 Nb3_5 2.835234 1_565
Ir5_4 Nb3_0 2.804213 1_655
Ir5_4 Nb3_4 2.804213 1_555
Ir5_4 Nb4_1 2.812328 1_655
Ir5_4 Nb4_5 2.812328 1_555
Ir5_4 Nb2_4 2.822735 1_555
Ir5_4 Nb2_0 2.822735 1_655
Ir5_4 Nb3_2 2.835234 1_655
Ir5_4 Nb3_6 2.835234 1_555
Ir5_5 Nb3_1 2.804213 1_655
Ir5_5 Nb3_5 2.804213 1_555
Ir5_5 Nb4_0 2.812328 1_656
Ir5_5 Nb4_4 2.812328 1_556
Ir5_5 Nb2_5 2.822735 1_555
Ir5_5 Nb2_1 2.822735 1_655
Ir5_5 Nb3_7 2.835234 1_555
Ir5_5 Nb3_3 2.835234 1_655
Ir5_6 Nb3_6 2.804213 1_555
Ir5_6 Nb3_2 2.804213 1_655
Ir5_6 Nb4_3 2.812328 1_655
Ir5_6 Nb4_7 2.812328 1_555
Ir5_6 Nb2_6 2.822735 1_555
Ir5_6 Nb2_2 2.822735 1_655
Ir5_6 Nb3_4 2.835234 1_565
Ir5_6 Nb3_0 2.835234 1_665
Ir5_7 Nb3_7 2.804213 1_555
Ir5_7 Nb3_3 2.804213 1_655
Ir5_7 Nb4_2 2.812328 1_656
Ir5_7 Nb4_6 2.812328 1_556
Ir5_7 Nb2_3 2.822735 1_655
Ir5_7 Nb2_7 2.822735 1_555
Ir5_7 Nb3_5 2.835234 1_565
Ir5_7 Nb3_1 2.835234 1_665
Ir6_0 Nb2_2 2.721624 1_545
Ir6_0 Nb0_2 2.721624 1_545
Ir6_1 Nb2_3 2.721624 1_545
Ir6_1 Nb0_3 2.721624 1_545
Ir6_2 Nb2_0 2.721624 1_555
Ir6_2 Nb0_0 2.721624 1_555
Ir6_3 Nb2_1 2.721624 1_555
Ir6_3 Nb0_1 2.721624 1_555
Ir6_4 Nb2_6 2.721624 1_545
Ir6_4 Nb0_6 2.721624 1_545
Ir6_5 Nb2_7 2.721624 1_545
Ir6_5 Nb0_7 2.721624 1_545
Ir6_6 Nb2_4 2.721624 1_555
Ir6_6 Nb0_4 2.721624 1_555
Ir6_7 Nb2_5 2.721624 1_555
Ir6_7 Nb0_5 2.721624 1_555
