# generated using pymatgen
data_MnCoSn
_symmetry_space_group_name_H-M   'P 1'
_cell_length_a   4.36136535
_cell_length_b   4.36136535
_cell_length_c   5.15732400
_cell_angle_alpha   90.00000000
_cell_angle_beta   90.00000000
_cell_angle_gamma   119.99999013
_symmetry_Int_Tables_number   1
_chemical_formula_structural   MnCoSn
_chemical_formula_sum   'Mn2 Co2 Sn2'
_cell_volume   84.95716831
_cell_formula_units_Z   2
loop_
 _symmetry_equiv_pos_site_id
 _symmetry_equiv_pos_as_xyz
  1  'x, y, z'
loop_
 _atom_site_type_symbol
 _atom_site_label
 _atom_site_symmetry_multiplicity
 _atom_site_fract_x
 _atom_site_fract_y
 _atom_site_fract_z
 _atom_site_occupancy
  Mn  Mn0  1  0.33333300  0.66666700  0.75000000  1
  Mn  Mn1  1  0.66666700  0.33333300  0.25000000  1
  Co  Co0  1  0.00000000  0.00000000  0.00000000  1
  Co  Co1  1  0.00000000  0.00000000  0.50000000  1
  Sn  Sn0  1  0.33333300  0.66666700  0.25000000  1
  Sn  Sn1  1  0.66666700  0.33333300  0.75000000  1
loop_
_geom_bond_atom_site_label_1
_geom_bond_atom_site_label_2
_geom_bond_distance
_geom_bond_site_symmetry_2
Mn0 Sn1 2.518033 1_455
Mn0 Sn1 2.518033 1_565
Mn0 Sn1 2.518040 1_555
Mn0 Sn0 2.578662 1_555
Mn0 Sn0 2.578662 1_556
Mn1 Sn0 2.518033 1_545
Mn1 Sn0 2.518033 1_655
Mn1 Sn0 2.518040 1_555
Mn1 Sn1 2.578662 1_554
Mn1 Sn1 2.578662 1_555
Co0 Co1 2.578662 1_554
Co0 Co1 2.578662 1_555
Co0 Sn1 2.828933 1_454
Co0 Sn0 2.828933 1_545
Co0 Mn0 2.828933 1_544
Co0 Mn1 2.828933 1_455
Co0 Sn0 2.828937 1_555
Co0 Sn1 2.828937 1_444
Co0 Mn1 2.828937 1_445
Co0 Mn0 2.828937 1_554
Co0 Sn1 2.828937 1_554
Co0 Mn0 2.828937 1_444
Co0 Sn0 2.828937 1_445
Co0 Mn1 2.828937 1_555
Co1 Mn0 2.828933 1_545
Co1 Sn0 2.828933 1_545
Co1 Sn1 2.828933 1_455
Co1 Mn1 2.828933 1_455
Co1 Sn0 2.828937 1_555
Co1 Sn1 2.828937 1_445
Co1 Mn1 2.828937 1_445
Co1 Mn0 2.828937 1_555
Co1 Sn1 2.828937 1_555
Co1 Mn0 2.828937 1_445
Co1 Sn0 2.828937 1_445
Co1 Mn1 2.828937 1_555
