# generated using pymatgen
data_Sr2GdRuO6
_symmetry_space_group_name_H-M   'P 1'
_cell_length_a   5.83494300
_cell_length_b   5.90342121
_cell_length_c   5.90342121
_cell_angle_alpha   59.23402779
_cell_angle_beta   60.38298610
_cell_angle_gamma   60.38298610
_symmetry_Int_Tables_number   1
_chemical_formula_structural   Sr2GdRuO6
_chemical_formula_sum   'Sr2 Gd1 Ru1 O6'
_cell_volume   143.75190495
_cell_formula_units_Z   1
loop_
 _symmetry_equiv_pos_site_id
 _symmetry_equiv_pos_as_xyz
  1  'x, y, z'
loop_
 _atom_site_type_symbol
 _atom_site_label
 _atom_site_symmetry_multiplicity
 _atom_site_fract_x
 _atom_site_fract_y
 _atom_site_fract_z
 _atom_site_occupancy
  Sr  Sr0  1  0.75000000  0.75000000  0.75000000  1
  Sr  Sr1  1  0.25000000  0.25000000  0.25000000  1
  Gd  Gd0  1  0.00000000  0.00000000  0.00000000  1
  Ru  Ru0  1  0.50000000  0.50000000  0.50000000  1
  O  O0  1  0.26555600  0.73444400  0.73444400  1
  O  O1  1  0.73444400  0.26555600  0.26555600  1
  O  O2  1  0.32671700  0.79184000  0.20816000  1
  O  O3  1  0.67328300  0.20816000  0.79184000  1
  O  O4  1  0.79184000  0.67328300  0.32671700  1
  O  O5  1  0.20816000  0.32671700  0.67328300  1
loop_
_geom_bond_atom_site_label_1
_geom_bond_atom_site_label_2
_geom_bond_distance
_geom_bond_site_symmetry_2
Gd0 O1 2.242470 1_455
Gd0 O0 2.242470 1_544
Gd0 O4 2.260425 1_445
Gd0 O5 2.260425 1_554
Gd0 O3 2.260425 1_454
Gd0 O2 2.260425 1_545
O0 Ru0 1.979746 1_555
O0 Sr1 2.920427 1_556
O0 Sr1 2.920427 1_565
O0 Sr0 2.920427 1_555
O0 Sr0 2.920427 1_455
O1 Ru0 1.979746 1_555
O1 Sr0 2.920427 1_554
O1 Sr0 2.920427 1_545
O1 Sr1 2.920427 1_555
O1 Sr1 2.920427 1_655
O2 Ru0 1.980424 1_555
O2 Sr1 2.637110 1_565
O2 Sr0 2.637110 1_554
O3 Ru0 1.980424 1_555
O3 Sr0 2.637110 1_545
O3 Sr1 2.637110 1_556
O4 Ru0 1.980424 1_555
O4 Sr0 2.637110 1_555
O4 Sr1 2.637110 1_655
O5 Ru0 1.980424 1_555
O5 Sr1 2.637110 1_555
O5 Sr0 2.637110 1_455
