# generated using pymatgen
data_SmCoSi
_symmetry_space_group_name_H-M   'P 1'
_cell_length_a   4.02764459
_cell_length_b   4.02764459
_cell_length_c   6.79635232
_cell_angle_alpha   90.00000000
_cell_angle_beta   90.00000000
_cell_angle_gamma   90.00000000
_symmetry_Int_Tables_number   1
_chemical_formula_structural   SmCoSi
_chemical_formula_sum   'Sm2 Co2 Si2'
_cell_volume   110.24989004
_cell_formula_units_Z   2
loop_
 _symmetry_equiv_pos_site_id
 _symmetry_equiv_pos_as_xyz
  1  'x, y, z'
loop_
 _atom_site_type_symbol
 _atom_site_label
 _atom_site_symmetry_multiplicity
 _atom_site_fract_x
 _atom_site_fract_y
 _atom_site_fract_z
 _atom_site_occupancy
  Sm  Sm0  1  0.75000000  0.75000000  0.31163392  1
  Sm  Sm1  1  0.25000000  0.25000000  0.68836608  1
  Co  Co0  1  0.75000000  0.25000000  -0.00000000  1
  Co  Co1  1  0.25000000  0.75000000  -0.00000000  1
  Si  Si0  1  0.75000000  0.75000000  0.82911682  1
  Si  Si1  1  0.25000000  0.25000000  0.17088318  1
loop_
_geom_bond_atom_site_label_1
_geom_bond_atom_site_label_2
_geom_bond_distance
_geom_bond_site_symmetry_2
Co0 Si1 2.324713 1_555
Co0 Si0 2.324713 1_554
Co0 Si0 2.324713 1_544
Co0 Si1 2.324713 1_655
Co0 Sm0 2.922549 1_545
Co0 Sm1 2.922549 1_554
Co0 Sm1 2.922549 1_654
Co0 Sm0 2.922549 1_555
Co1 Si1 2.324713 1_555
Co1 Si0 2.324713 1_554
Co1 Si0 2.324713 1_454
Co1 Si1 2.324713 1_565
Co1 Sm1 2.922549 1_564
Co1 Sm1 2.922549 1_554
Co1 Sm0 2.922549 1_455
Co1 Sm0 2.922549 1_555
Si0 Sm1 3.004335 1_565
Si0 Sm1 3.004335 1_665
Si0 Sm1 3.004335 1_555
Si0 Sm1 3.004335 1_655
Si0 Sm0 3.516996 1_555
Si1 Sm0 3.004335 1_455
Si1 Sm0 3.004335 1_555
Si1 Sm0 3.004335 1_445
Si1 Sm0 3.004335 1_545
Si1 Sm1 3.516996 1_555
