# generated using pymatgen
data_KNbWO6
_symmetry_space_group_name_H-M   'P 1'
_cell_length_a   7.48925602
_cell_length_b   7.48925602
_cell_length_c   7.48925602
_cell_angle_alpha   120.25487197
_cell_angle_beta   119.66494681
_cell_angle_gamma   90.07021132
_symmetry_Int_Tables_number   1
_chemical_formula_structural   KNbWO6
_chemical_formula_sum   'K2 Nb2 W2 O12'
_cell_volume   297.20041035
_cell_formula_units_Z   2
loop_
 _symmetry_equiv_pos_site_id
 _symmetry_equiv_pos_as_xyz
  1  'x, y, z'
loop_
 _atom_site_type_symbol
 _atom_site_label
 _atom_site_symmetry_multiplicity
 _atom_site_fract_x
 _atom_site_fract_y
 _atom_site_fract_z
 _atom_site_occupancy
  K  K0  1  0.01833500  0.05164200  0.53330700  1
  K  K1  1  0.98166500  0.51497200  0.03330700  1
  Nb  Nb0  1  0.50000000  0.99766000  0.49766000  1
  Nb  Nb1  1  0.00000000  0.99766000  0.99766000  1
  W  W0  1  0.49966100  0.49772000  0.49805800  1
  W  W1  1  0.50033900  0.99839700  0.99805800  1
  O  O0  1  0.18541300  0.93756100  0.25214800  1
  O  O1  1  0.55583400  0.30563300  0.24979800  1
  O  O2  1  0.19538200  0.94055500  0.87958300  1
  O  O3  1  0.55861300  0.31483200  0.61905300  1
  O  O4  1  0.19577900  0.31483200  0.25621900  1
  O  O5  1  0.56097200  0.94055500  0.24517300  1
  O  O6  1  0.81458700  0.06673500  0.75214800  1
  O  O7  1  0.44416600  0.69396400  0.74979800  1
  O  O8  1  0.80422100  0.06044000  0.11905300  1
  O  O9  1  0.43902800  0.68420100  0.37958300  1
  O  O10  1  0.80461800  0.68420100  0.74517300  1
  O  O11  1  0.44138700  0.06044000  0.75621900  1
loop_
_geom_bond_atom_site_label_1
_geom_bond_atom_site_label_2
_geom_bond_distance
_geom_bond_site_symmetry_2
K0 O6 2.704935 1_455
K0 O11 2.735457 1_555
K0 O8 2.735457 1_455
K0 O0 2.743602 1_545
K0 O5 2.819373 1_445
K0 O2 2.819373 1_545
K1 O0 2.704935 1_655
K1 O3 2.735457 1_554
K1 O4 2.735457 1_655
K1 O6 2.743602 1_554
K1 O10 2.819373 1_554
K1 O9 2.819373 1_655
Nb0 O5 2.001832 1_555
Nb0 O9 2.001832 1_555
Nb0 O6 2.002404 1_565
Nb0 O0 2.002404 1_555
Nb0 O3 2.021857 1_565
Nb0 O11 2.021857 1_565
Nb1 O2 2.001832 1_555
Nb1 O10 2.001832 1_455
Nb1 O0 2.002404 1_556
Nb1 O6 2.002404 1_465
Nb1 O8 2.021857 1_466
Nb1 O4 2.021857 1_566
O1 W0 1.945216 1_555
O1 W1 1.967802 1_544
O2 W1 1.948197 1_555
O3 W0 1.936054 1_555
O4 W0 1.936049 1_555
O5 W1 1.948197 1_554
O7 W1 1.945216 1_555
O7 W0 1.967795 1_555
O8 W1 1.936047 1_544
O9 W0 1.948190 1_555
O10 W0 1.948195 1_555
O11 W1 1.936047 1_545
