# generated using pymatgen
data_NaSn2F5
_symmetry_space_group_name_H-M   'P 1'
_cell_length_a   8.94123872
_cell_length_b   8.94123872
_cell_length_c   13.51341043
_cell_angle_alpha   90.00000000
_cell_angle_beta   90.00000000
_cell_angle_gamma   90.00000000
_symmetry_Int_Tables_number   1
_chemical_formula_structural   NaSn2F5
_chemical_formula_sum   'Na8 Sn16 F40'
_cell_volume   1080.33972983
_cell_formula_units_Z   8
loop_
 _symmetry_equiv_pos_site_id
 _symmetry_equiv_pos_as_xyz
  1  'x, y, z'
loop_
 _atom_site_type_symbol
 _atom_site_label
 _atom_site_symmetry_multiplicity
 _atom_site_fract_x
 _atom_site_fract_y
 _atom_site_fract_z
 _atom_site_occupancy
  Na  Na0  1  0.50000000  -0.00000000  0.75000000  1
  Na  Na1  1  0.50000000  -0.00000000  0.25000000  1
  Na  Na2  1  -0.00000000  0.50000000  0.75000000  1
  Na  Na3  1  -0.00000000  0.50000000  0.25000000  1
  Na  Na4  1  0.50000000  -0.00000000  0.00000000  1
  Na  Na5  1  0.50000000  -0.00000000  0.50000000  1
  Na  Na6  1  -0.00000000  0.50000000  0.50000000  1
  Na  Na7  1  -0.00000000  0.50000000  0.00000000  1
  Sn  Sn0  1  0.67825174  0.66252186  0.86757240  1
  Sn  Sn1  1  0.83747814  0.17825174  0.36757240  1
  Sn  Sn2  1  0.32174826  0.66252186  0.63242760  1
  Sn  Sn3  1  0.32174826  0.33747814  0.86757240  1
  Sn  Sn4  1  0.16252186  0.82174826  0.36757240  1
  Sn  Sn5  1  0.83747814  0.82174826  0.13242760  1
  Sn  Sn6  1  0.16252186  0.17825174  0.13242760  1
  Sn  Sn7  1  0.67825174  0.33747814  0.63242760  1
  Sn  Sn8  1  0.33747814  0.67825174  0.13242760  1
  Sn  Sn9  1  0.66252186  0.32174826  0.13242760  1
  Sn  Sn10  1  0.17825174  0.83747814  0.86757240  1
  Sn  Sn11  1  0.17825174  0.16252186  0.63242760  1
  Sn  Sn12  1  0.82174826  0.83747814  0.63242760  1
  Sn  Sn13  1  0.66252186  0.67825174  0.36757240  1
  Sn  Sn14  1  0.33747814  0.32174826  0.36757240  1
  Sn  Sn15  1  0.82174826  0.16252186  0.86757240  1
  F  F0  1  0.80884148  0.30884148  0.00000000  1
  F  F1  1  0.84936677  0.40868567  0.38545151  1
  F  F2  1  0.09131433  0.65063323  0.61454849  1
  F  F3  1  0.09131433  0.34936677  0.88545151  1
  F  F4  1  0.90868567  0.65063323  0.88545151  1
  F  F5  1  0.84936677  0.59131433  0.11454849  1
  F  F6  1  0.15063323  0.40868567  0.11454849  1
  F  F7  1  0.90868567  0.34936677  0.61454849  1
  F  F8  1  0.30884148  0.80884148  0.50000000  1
  F  F9  1  0.69115852  0.80884148  0.00000000  1
  F  F10  1  0.30884148  0.19115852  0.00000000  1
  F  F11  1  0.69115852  0.19115852  0.50000000  1
  F  F12  1  0.19115852  0.69115852  0.00000000  1
  F  F13  1  0.80884148  0.69115852  0.50000000  1
  F  F14  1  0.19115852  0.30884148  0.50000000  1
  F  F15  1  0.15063323  0.59131433  0.38545151  1
  F  F16  1  0.36945169  0.78517476  0.29942944  1
  F  F17  1  0.36945169  0.21482524  0.20057056  1
  F  F18  1  0.63054831  0.78517476  0.20057056  1
  F  F19  1  0.71482524  0.86945169  0.79942944  1
  F  F20  1  0.28517476  0.13054831  0.79942944  1
  F  F21  1  0.28517476  0.86945169  0.70057056  1
  F  F22  1  0.63054831  0.21482524  0.29942944  1
  F  F23  1  0.34936677  0.90868567  0.11454849  1
  F  F24  1  0.78517476  0.36945169  0.79942944  1
  F  F25  1  0.13054831  0.28517476  0.29942944  1
  F  F26  1  0.86945169  0.71482524  0.29942944  1
  F  F27  1  0.78517476  0.63054831  0.70057056  1
  F  F28  1  0.21482524  0.36945169  0.70057056  1
  F  F29  1  0.21482524  0.63054831  0.79942944  1
  F  F30  1  0.86945169  0.28517476  0.20057056  1
  F  F31  1  0.13054831  0.71482524  0.20057056  1
  F  F32  1  0.59131433  0.15063323  0.88545151  1
  F  F33  1  0.34936677  0.09131433  0.38545151  1
  F  F34  1  0.65063323  0.90868567  0.38545151  1
  F  F35  1  0.59131433  0.84936677  0.61454849  1
  F  F36  1  0.40868567  0.15063323  0.61454849  1
  F  F37  1  0.40868567  0.84936677  0.88545151  1
  F  F38  1  0.65063323  0.09131433  0.11454849  1
  F  F39  1  0.71482524  0.13054831  0.70057056  1
loop_
_geom_bond_atom_site_label_1
_geom_bond_atom_site_label_2
_geom_bond_distance
_geom_bond_site_symmetry_2
F0 Sn9 2.219774 1_555
F0 Sn15 2.219774 1_554
F0 Na7 2.417165 1_655
F1 Sn1 2.077204 1_555
F1 Na6 2.208332 1_655
F1 Na3 2.414750 1_655
F2 Sn2 2.077204 1_555
F2 Na6 2.208332 1_555
F2 Na2 2.414750 1_555
F3 Sn3 2.077204 1_555
F3 Na7 2.208332 1_556
F3 Na2 2.414750 1_555
F4 Sn0 2.077204 1_555
F4 Na7 2.208332 1_656
F4 Na2 2.414750 1_655
F5 Sn5 2.077204 1_555
F5 Na7 2.208332 1_655
F5 Na3 2.414750 1_655
F6 Sn6 2.077204 1_555
F6 Na7 2.208332 1_555
F6 Na3 2.414750 1_555
F7 Sn7 2.077204 1_555
F7 Na6 2.208332 1_655
F7 Na2 2.414750 1_655
F8 Sn2 2.219774 1_555
F8 Sn4 2.219774 1_555
F8 Na5 2.417165 1_565
F9 Sn5 2.219774 1_555
F9 Sn0 2.219774 1_554
F9 Na4 2.417165 1_565
F10 Sn6 2.219774 1_555
F10 Sn3 2.219774 1_554
F10 Na4 2.417165 1_555
F11 Sn7 2.219774 1_555
F11 Sn1 2.219774 1_555
F11 Na5 2.417165 1_555
F12 Sn8 2.219774 1_555
F12 Sn10 2.219774 1_554
F12 Na7 2.417165 1_555
F13 Sn12 2.219774 1_555
F13 Sn13 2.219774 1_555
F13 Na6 2.417165 1_655
F14 Sn11 2.219774 1_555
F14 Sn14 2.219774 1_555
F14 Na6 2.417165 1_555
F15 Sn4 2.077204 1_555
F15 Na6 2.208332 1_555
F15 Na3 2.414750 1_555
F16 Sn4 2.092406 1_555
F16 Na1 2.344816 1_565
F16 Sn8 2.467529 1_555
F17 Sn6 2.092406 1_555
F17 Na1 2.344816 1_555
F17 Sn14 2.467529 1_555
F18 Sn5 2.092406 1_555
F18 Na1 2.344816 1_565
F18 Sn13 2.467529 1_555
F19 Sn0 2.092406 1_555
F19 Na0 2.344816 1_565
F19 Sn12 2.467529 1_555
F20 Sn3 2.092406 1_555
F20 Na0 2.344816 1_555
F20 Sn11 2.467529 1_555
F21 Sn2 2.092406 1_555
F21 Na0 2.344816 1_565
F21 Sn10 2.467529 1_555
F22 Sn1 2.092406 1_555
F22 Na1 2.344816 1_555
F22 Sn9 2.467529 1_555
F23 Sn8 2.077204 1_555
F23 Na4 2.208332 1_565
F23 Na1 2.414750 1_565
F24 Sn15 2.092406 1_555
F24 Na2 2.344816 1_655
F24 Sn7 2.467529 1_555
F25 Sn14 2.092406 1_555
F25 Na3 2.344816 1_555
F25 Sn6 2.467529 1_555
F26 Sn13 2.092406 1_555
F26 Na3 2.344816 1_655
F26 Sn5 2.467529 1_555
F27 Sn12 2.092406 1_555
F27 Na2 2.344816 1_655
F27 Sn0 2.467529 1_555
F28 Sn11 2.092406 1_555
F28 Na2 2.344816 1_555
F28 Sn3 2.467529 1_555
F29 Sn10 2.092406 1_555
F29 Na2 2.344816 1_555
F29 Sn2 2.467529 1_555
F30 Sn9 2.092406 1_555
F30 Na3 2.344816 1_655
F30 Sn1 2.467529 1_555
F31 Sn8 2.092406 1_555
F31 Na3 2.344816 1_555
F31 Sn4 2.467529 1_555
F32 Sn15 2.077204 1_555
F32 Na4 2.208332 1_556
F32 Na0 2.414750 1_555
F33 Sn14 2.077204 1_555
F33 Na5 2.208332 1_555
F33 Na1 2.414750 1_555
F34 Sn13 2.077204 1_555
F34 Na5 2.208332 1_565
F34 Na1 2.414750 1_565
F35 Sn12 2.077204 1_555
F35 Na5 2.208332 1_565
F35 Na0 2.414750 1_565
F36 Sn11 2.077204 1_555
F36 Na5 2.208332 1_555
F36 Na0 2.414750 1_555
F37 Sn10 2.077204 1_555
F37 Na4 2.208332 1_566
F37 Na0 2.414750 1_565
F38 Sn9 2.077204 1_555
F38 Na4 2.208332 1_555
F38 Na1 2.414750 1_555
F39 Sn7 2.092406 1_555
F39 Na0 2.344816 1_555
F39 Sn15 2.467529 1_555
