# generated using pymatgen
data_ErAgPb
_symmetry_space_group_name_H-M   'P 1'
_cell_length_a   7.45611789
_cell_length_b   7.45611762
_cell_length_c   4.49570181
_cell_angle_alpha   90.00000000
_cell_angle_beta   90.00000000
_cell_angle_gamma   119.99999187
_symmetry_Int_Tables_number   1
_chemical_formula_structural   ErAgPb
_chemical_formula_sum   'Er3 Ag3 Pb3'
_cell_volume   216.44805190
_cell_formula_units_Z   3
loop_
 _symmetry_equiv_pos_site_id
 _symmetry_equiv_pos_as_xyz
  1  'x, y, z'
loop_
 _atom_site_type_symbol
 _atom_site_label
 _atom_site_symmetry_multiplicity
 _atom_site_fract_x
 _atom_site_fract_y
 _atom_site_fract_z
 _atom_site_occupancy
  Er  Er0  1  0.57304742  -0.00000000  0.50000000  1
  Er  Er1  1  0.42695258  0.42695258  0.50000000  1
  Er  Er2  1  -0.00000000  0.57304742  0.50000000  1
  Ag  Ag0  1  0.75275133  0.75275133  -0.00000000  1
  Ag  Ag1  1  -0.00000000  0.24724867  0.00000000  1
  Ag  Ag2  1  0.24724867  -0.00000000  -0.00000000  1
  Pb  Pb0  1  0.00000000  0.00000000  0.50000000  1
  Pb  Pb1  1  0.33333300  0.66666700  -0.00000000  1
  Pb  Pb2  1  0.66666700  0.33333300  0.00000000  1
loop_
_geom_bond_atom_site_label_1
_geom_bond_atom_site_label_2
_geom_bond_distance
_geom_bond_site_symmetry_2
Er0 Pb2 3.159473 1_556
Er0 Pb2 3.159473 1_555
Er0 Pb1 3.159475 1_546
Er0 Pb1 3.159475 1_545
Er0 Pb0 3.183409 1_655
Er0 Er1 3.845563 1_555
Er0 Er1 3.845563 1_545
Er0 Er2 3.845563 1_655
Er0 Er2 3.845563 1_545
Er1 Pb1 3.159478 1_556
Er1 Pb1 3.159478 1_555
Er1 Pb2 3.159478 1_556
Er1 Pb2 3.159478 1_555
Er1 Pb0 3.183409 1_555
Er1 Er2 3.845563 1_555
Er1 Er2 3.845563 1_655
Er2 Pb1 3.159473 1_555
Er2 Pb1 3.159473 1_556
Er2 Pb2 3.159475 1_455
Er2 Pb2 3.159475 1_456
Er2 Pb0 3.183409 1_565
Ag0 Pb2 2.860827 1_555
Ag0 Pb1 2.860827 1_555
Ag0 Pb0 2.907126 1_665
Ag0 Pb0 2.907126 1_664
Ag0 Ag1 3.193062 1_665
Ag0 Ag2 3.193062 1_665
Ag0 Er1 3.309655 1_554
Ag0 Er1 3.309655 1_555
Ag0 Er0 3.566064 1_564
Ag0 Er0 3.566064 1_565
Ag0 Er2 3.566064 1_655
Ag0 Er2 3.566064 1_654
Ag1 Pb2 2.860820 1_455
Ag1 Pb1 2.860825 1_555
Ag1 Pb0 2.907126 1_554
Ag1 Pb0 2.907126 1_555
Ag1 Ag2 3.193062 1_555
Ag1 Er2 3.309655 1_554
Ag1 Er2 3.309655 1_555
Ag1 Er1 3.566064 1_554
Ag1 Er1 3.566064 1_555
Ag1 Er0 3.566064 1_455
Ag1 Er0 3.566064 1_454
Ag2 Pb1 2.860820 1_545
Ag2 Pb2 2.860825 1_555
Ag2 Pb0 2.907126 1_554
Ag2 Pb0 2.907126 1_555
Ag2 Er0 3.309655 1_555
Ag2 Er0 3.309655 1_554
Ag2 Er1 3.566064 1_554
Ag2 Er1 3.566064 1_555
Ag2 Er2 3.566064 1_545
Ag2 Er2 3.566064 1_544
