# generated using pymatgen
data_Li3Co2NiO6
_symmetry_space_group_name_H-M   'P 1'
_cell_length_a   2.95451510
_cell_length_b   9.81459511
_cell_length_c   7.68095928
_cell_angle_alpha   91.77959167
_cell_angle_beta   78.52541000
_cell_angle_gamma   80.97020599
_symmetry_Int_Tables_number   1
_chemical_formula_structural   Li3Co2NiO6
_chemical_formula_sum   'Li6 Co4 Ni2 O12'
_cell_volume   215.12412115
_cell_formula_units_Z   2
loop_
 _symmetry_equiv_pos_site_id
 _symmetry_equiv_pos_as_xyz
  1  'x, y, z'
loop_
 _atom_site_type_symbol
 _atom_site_label
 _atom_site_symmetry_multiplicity
 _atom_site_fract_x
 _atom_site_fract_y
 _atom_site_fract_z
 _atom_site_occupancy
  Li  Li0  1  0.08399200  0.25128400  0.58820500  1
  Li  Li1  1  0.58193500  0.74927900  0.08280800  1
  Li  Li2  1  0.24370600  0.75007200  0.75089100  1
  Li  Li3  1  0.75931100  0.24545700  0.23849900  1
  Li  Li4  1  0.92216700  0.74641900  0.41108800  1
  Li  Li5  1  0.40535200  0.25367700  0.92482800  1
  Co  Co0  1  0.49819000  0.49948400  0.49684200  1
  Co  Co1  1  0.66196700  0.99660000  0.66362900  1
  Co  Co2  1  0.00084400  0.00499000  0.00880800  1
  Co  Co3  1  0.17210900  0.50231800  0.15142100  1
  Ni  Ni0  1  0.33375200  0.99482200  0.33169200  1
  Ni  Ni1  1  0.83317800  0.49726500  0.83070100  1
  O  O0  1  0.89526200  0.60575700  0.60333000  1
  O  O1  1  0.38380100  0.12056500  0.12267700  1
  O  O2  1  0.24366400  0.88050500  0.55043600  1
  O  O3  1  0.78700400  0.37992900  0.04966000  1
  O  O4  1  0.70229300  0.10891100  0.47880800  1
  O  O5  1  0.20158000  0.62077300  0.96349100  1
  O  O6  1  0.96182000  0.88188100  0.19299000  1
  O  O7  1  0.46391400  0.38870700  0.69021200  1
  O  O8  1  0.08234100  0.11033000  0.79075400  1
  O  O9  1  0.54122800  0.60885100  0.29854600  1
  O  O10  1  0.62934900  0.89168000  0.85800700  1
  O  O11  1  0.10307000  0.39605900  0.38484600  1
loop_
_geom_bond_atom_site_label_1
_geom_bond_atom_site_label_2
_geom_bond_distance
_geom_bond_site_symmetry_2
Li0 O7 2.092126 1_455
Li0 O7 2.110094 1_555
Li0 O8 2.113536 1_555
Li0 O4 2.123869 1_555
Li0 O11 2.142414 1_555
Li0 O4 2.174656 1_455
Li1 O5 2.078015 1_654
Li1 O6 2.081567 1_455
Li1 O6 2.106588 1_555
Li1 O5 2.115736 1_554
Li1 O9 2.185064 1_555
Li1 O10 2.251552 1_554
Li2 O2 2.032697 1_555
Li2 O5 2.095212 1_555
Li2 O10 2.108592 1_455
Li2 O10 2.169278 1_555
Li2 O0 2.274393 1_455
Li2 O0 2.274395 1_555
Li3 O3 1.989462 1_555
Li3 O1 2.065790 1_655
Li3 O1 2.068006 1_555
Li3 O11 2.302635 1_655
Li3 O4 2.309143 1_555
Li3 O11 2.310339 1_555
Li4 O0 2.051079 1_555
Li4 O9 2.106854 1_655
Li4 O2 2.118748 1_655
Li4 O9 2.151403 1_555
Li4 O6 2.167198 1_555
Li4 O2 2.264247 1_555
Li5 O1 2.032526 1_556
Li5 O3 2.076310 1_456
Li5 O3 2.126307 1_556
Li5 O8 2.161741 1_555
Li5 O7 2.264949 1_555
Li5 O8 2.290794 1_655
Co0 O7 1.863695 1_555
Co0 O9 1.885607 1_555
Co0 O0 1.927238 1_455
Co0 O11 1.931031 1_655
Co0 O0 1.961145 1_555
Co0 O11 1.962258 1_555
Co1 O4 1.820885 1_565
Co1 O10 1.835248 1_555
Co1 O2 1.933178 1_655
Co1 O8 1.949117 1_565
Co1 O2 2.095141 1_555
Co1 O8 2.142877 1_665
Co2 O6 1.886679 1_445
Co2 O8 1.989289 1_554
Co2 O1 2.007505 1_455
Co2 O1 2.016633 1_555
Co2 O10 2.107746 1_544
Co2 O10 2.142909 1_444
Co3 O5 1.878519 1_554
Co3 O3 2.011466 1_555
Co3 O3 2.018149 1_455
Co3 O9 2.078792 1_455
Co3 O9 2.081943 1_555
Co3 O11 2.093135 1_555
Ni0 O2 2.045854 1_555
Ni0 O1 2.051395 1_565
Ni0 O6 2.074014 1_555
Ni0 O6 2.084713 1_455
Ni0 O4 2.106718 1_465
Ni0 O4 2.123670 1_565
Ni1 O3 2.061948 1_556
Ni1 O7 2.061981 1_555
Ni1 O0 2.065628 1_555
Ni1 O7 2.068238 1_655
Ni1 O5 2.108982 1_555
Ni1 O5 2.115059 1_655
