# generated using pymatgen
data_LaMn3Cr4O12
_symmetry_space_group_name_H-M   'P 1'
_cell_length_a   6.52457131
_cell_length_b   6.52457131
_cell_length_c   6.52457131
_cell_angle_alpha   109.47122063
_cell_angle_beta   109.47122063
_cell_angle_gamma   109.47122063
_symmetry_Int_Tables_number   1
_chemical_formula_structural   LaMn3Cr4O12
_chemical_formula_sum   'La1 Mn3 Cr4 O12'
_cell_volume   213.81297423
_cell_formula_units_Z   1
loop_
 _symmetry_equiv_pos_site_id
 _symmetry_equiv_pos_as_xyz
  1  'x, y, z'
loop_
 _atom_site_type_symbol
 _atom_site_label
 _atom_site_symmetry_multiplicity
 _atom_site_fract_x
 _atom_site_fract_y
 _atom_site_fract_z
 _atom_site_occupancy
  La  La0  1  0.00000000  0.00000000  0.00000000  1
  Mn  Mn0  1  0.50000000  0.50000000  0.00000000  1
  Mn  Mn1  1  0.50000000  0.00000000  0.50000000  1
  Mn  Mn2  1  0.00000000  0.50000000  0.50000000  1
  Cr  Cr0  1  0.50000000  0.50000000  0.50000000  1
  Cr  Cr1  1  0.50000000  0.00000000  0.00000000  1
  Cr  Cr2  1  0.00000000  0.50000000  0.00000000  1
  Cr  Cr3  1  0.00000000  0.00000000  0.50000000  1
  O  O0  1  0.82453700  0.69052400  0.51506100  1
  O  O1  1  0.17546300  0.30947600  0.48493900  1
  O  O2  1  0.17546300  0.69052400  0.86598700  1
  O  O3  1  0.82453700  0.30947600  0.13401300  1
  O  O4  1  0.69052400  0.51506100  0.82453700  1
  O  O5  1  0.30947600  0.48493900  0.17546300  1
  O  O6  1  0.69052400  0.86598700  0.17546300  1
  O  O7  1  0.30947600  0.13401300  0.82453700  1
  O  O8  1  0.51506100  0.82453700  0.69052400  1
  O  O9  1  0.48493900  0.17546300  0.30947600  1
  O  O10  1  0.13401300  0.82453700  0.30947600  1
  O  O11  1  0.86598700  0.17546300  0.69052400  1
loop_
_geom_bond_atom_site_label_1
_geom_bond_atom_site_label_2
_geom_bond_distance
_geom_bond_site_symmetry_2
La0 O9 2.680243 1_555
La0 O1 2.680243 1_555
La0 O5 2.680243 1_555
La0 O11 2.680243 1_454
La0 O3 2.680243 1_455
La0 O10 2.680243 1_545
La0 O7 2.680243 1_554
La0 O6 2.680243 1_445
La0 O2 2.680243 1_544
La0 O8 2.680243 1_444
La0 O0 2.680243 1_444
La0 O4 2.680243 1_444
Mn0 O4 1.951369 1_554
Mn0 O5 1.951369 1_555
Mn0 O6 1.951369 1_555
Mn0 O7 1.951369 1_554
Mn1 O8 1.951369 1_545
Mn1 O9 1.951369 1_555
Mn1 O11 1.951369 1_555
Mn1 O10 1.951369 1_545
Mn2 O1 1.951369 1_555
Mn2 O0 1.951369 1_455
Mn2 O2 1.951369 1_555
Mn2 O3 1.951369 1_455
Cr0 O8 2.015845 1_555
Cr0 O0 2.015845 1_555
Cr0 O4 2.015845 1_555
Cr0 O1 2.015845 1_555
Cr0 O5 2.015845 1_555
Cr0 O9 2.015845 1_555
Cr1 O6 2.015845 1_545
Cr1 O3 2.015845 1_555
Cr1 O7 2.015845 1_554
Cr1 O9 2.015845 1_555
Cr1 O8 2.015845 1_544
Cr1 O2 2.015845 1_544
Cr2 O2 2.015845 1_554
Cr2 O10 2.015845 1_555
Cr2 O3 2.015845 1_455
Cr2 O5 2.015845 1_555
Cr2 O4 2.015845 1_454
Cr2 O11 2.015845 1_454
Cr3 O11 2.015845 1_455
Cr3 O10 2.015845 1_545
Cr3 O7 2.015845 1_555
Cr3 O1 2.015845 1_555
Cr3 O0 2.015845 1_445
Cr3 O6 2.015845 1_445
