# generated using pymatgen
data_Ce(In2Ni)3
_symmetry_space_group_name_H-M   'P 1'
_cell_length_a   4.41109700
_cell_length_b   7.70492100
_cell_length_c   11.87064600
_cell_angle_alpha   90.00000000
_cell_angle_beta   90.00000000
_cell_angle_gamma   90.00000000
_symmetry_Int_Tables_number   1
_chemical_formula_structural   Ce(In2Ni)3
_chemical_formula_sum   'Ce2 In12 Ni6'
_cell_volume   403.44947259
_cell_formula_units_Z   2
loop_
 _symmetry_equiv_pos_site_id
 _symmetry_equiv_pos_as_xyz
  1  'x, y, z'
loop_
 _atom_site_type_symbol
 _atom_site_label
 _atom_site_symmetry_multiplicity
 _atom_site_fract_x
 _atom_site_fract_y
 _atom_site_fract_z
 _atom_site_occupancy
  Ce  Ce0  1  0.75000000  0.75000000  0.67599500  1
  Ce  Ce1  1  0.25000000  0.25000000  0.32400500  1
  In  In0  1  0.25000000  0.75000000  0.25141300  1
  In  In1  1  0.75000000  0.25000000  0.74858700  1
  In  In2  1  0.75000000  0.75000000  0.98789000  1
  In  In3  1  0.25000000  0.25000000  0.01211000  1
  In  In4  1  0.75000000  0.94994000  0.41568600  1
  In  In5  1  0.75000000  0.55006000  0.41568600  1
  In  In6  1  0.25000000  0.05006000  0.58431400  1
  In  In7  1  0.25000000  0.44994000  0.58431400  1
  In  In8  1  0.75000000  0.04957300  0.16403500  1
  In  In9  1  0.75000000  0.45042700  0.16403500  1
  In  In10  1  0.25000000  0.95042700  0.83596500  1
  In  In11  1  0.25000000  0.54957300  0.83596500  1
  Ni  Ni0  1  0.75000000  0.25000000  0.52961200  1
  Ni  Ni1  1  0.25000000  0.75000000  0.47038800  1
  Ni  Ni2  1  0.75000000  0.07442400  0.93474100  1
  Ni  Ni3  1  0.75000000  0.42557600  0.93474100  1
  Ni  Ni4  1  0.25000000  0.92557600  0.06525900  1
  Ni  Ni5  1  0.25000000  0.57442400  0.06525900  1
loop_
_geom_bond_atom_site_label_1
_geom_bond_atom_site_label_2
_geom_bond_distance
_geom_bond_site_symmetry_2
Ce0 Ni1 3.289590 1_655
Ce0 Ni1 3.289590 1_555
Ce0 In10 3.294727 1_555
Ce0 In10 3.294727 1_655
Ce0 In11 3.294727 1_555
Ce0 In11 3.294727 1_655
Ce0 In7 3.375489 1_555
Ce0 In7 3.375489 1_655
Ce0 In6 3.375489 1_565
Ce0 In6 3.375489 1_665
Ce0 In5 3.452757 1_555
Ce0 In4 3.452757 1_555
Ce0 In2 3.702395 1_555
Ce0 In1 3.947658 1_565
Ce0 In1 3.947658 1_555
Ce1 Ni0 3.289590 1_455
Ce1 Ni0 3.289590 1_555
Ce1 In9 3.294727 1_455
Ce1 In9 3.294727 1_555
Ce1 In8 3.294727 1_455
Ce1 In8 3.294727 1_555
Ce1 In4 3.375489 1_545
Ce1 In4 3.375489 1_445
Ce1 In5 3.375489 1_555
Ce1 In5 3.375489 1_455
Ce1 In6 3.452757 1_555
Ce1 In7 3.452757 1_555
Ce1 In3 3.702395 1_555
Ce1 In0 3.947658 1_545
Ce1 In0 3.947658 1_555
In0 Ni4 2.590973 1_555
In0 Ni5 2.590973 1_555
In0 Ni1 2.599375 1_555
In0 In5 3.322688 1_555
In0 In5 3.322688 1_455
In0 In4 3.322688 1_455
In0 In4 3.322688 1_555
In1 Ni3 2.590973 1_555
In1 Ni2 2.590973 1_555
In1 Ni0 2.599375 1_555
In1 In6 3.322688 1_655
In1 In6 3.322688 1_555
In1 In7 3.322688 1_655
In1 In7 3.322688 1_555
In2 Ni2 2.578053 1_565
In2 Ni3 2.578053 1_555
In2 Ni4 2.745543 1_556
In2 Ni4 2.745543 1_656
In2 Ni5 2.745543 1_556
In2 Ni5 2.745543 1_656
In3 Ni5 2.578053 1_555
In3 Ni4 2.578053 1_545
In3 Ni3 2.745543 1_554
In3 Ni3 2.745543 1_454
In3 Ni2 2.745543 1_554
In3 Ni2 2.745543 1_454
In4 Ni0 2.678428 1_565
In4 Ni1 2.767545 1_655
In4 Ni1 2.767545 1_555
In4 In6 3.076755 1_565
In4 In6 3.076755 1_665
In4 In5 3.081044 1_555
In4 In8 3.084320 1_565
In5 Ni0 2.678428 1_555
In5 Ni1 2.767545 1_555
In5 Ni1 2.767545 1_655
In5 In7 3.076755 1_655
In5 In7 3.076755 1_555
In5 In9 3.084320 1_555
In6 Ni1 2.678428 1_545
In6 Ni0 2.767545 1_555
In6 Ni0 2.767545 1_455
In6 In7 3.081044 1_555
In7 Ni1 2.678428 1_555
In7 Ni0 2.767545 1_555
In7 Ni0 2.767545 1_455
In8 Ni4 2.674331 1_645
In8 Ni4 2.674331 1_545
In8 Ni2 2.728594 1_554
In9 Ni5 2.674331 1_655
In9 Ni5 2.674331 1_555
In9 Ni3 2.728594 1_554
In10 Ni2 2.674331 1_565
In10 Ni2 2.674331 1_465
In10 Ni4 2.728594 1_556
In10 In6 3.084320 1_565
In11 Ni3 2.674331 1_455
In11 Ni3 2.674331 1_555
In11 Ni5 2.728594 1_556
In11 In7 3.084320 1_555
