# generated using pymatgen
data_NaV2O5
_symmetry_space_group_name_H-M   'P 1'
_cell_length_a   3.59690907
_cell_length_b   4.76538925
_cell_length_c   11.28834457
_cell_angle_alpha   90.00340092
_cell_angle_beta   90.00008413
_cell_angle_gamma   90.00005100
_symmetry_Int_Tables_number   1
_chemical_formula_structural   NaV2O5
_chemical_formula_sum   'Na2 V4 O10'
_cell_volume   193.48980914
_cell_formula_units_Z   2
loop_
 _symmetry_equiv_pos_site_id
 _symmetry_equiv_pos_as_xyz
  1  'x, y, z'
loop_
 _atom_site_type_symbol
 _atom_site_label
 _atom_site_symmetry_multiplicity
 _atom_site_fract_x
 _atom_site_fract_y
 _atom_site_fract_z
 _atom_site_occupancy
  Na  Na0  1  0.99999298  0.86202036  0.99997048  1
  Na  Na1  1  0.50001766  0.14007673  0.50007741  1
  V  V0  1  0.49999787  0.39106467  0.15121280  1
  V  V1  1  0.00000301  0.61097717  0.34878599  1
  V  V2  1  0.49999514  0.39114601  0.84876839  1
  V  V3  1  -0.00000464  0.61108254  0.65123460  1
  O  O0  1  0.49999799  0.51877540  -0.00001790  1
  O  O1  1  0.00000038  0.48347969  0.50000858  1
  O  O2  1  -0.00000374  0.51295497  0.82150733  1
  O  O3  1  -0.00000100  0.51281299  0.17851890  1
  O  O4  1  0.49999569  0.48927091  0.67852534  1
  O  O5  1  0.50000124  0.48920182  0.32149623  1
  O  O6  1  0.49999641  0.05190085  0.86553973  1
  O  O7  1  0.50000258  0.05177576  0.13438797  1
  O  O8  1  0.00000248  0.95032239  0.63442395  1
  O  O9  1  0.00000497  0.95023876  0.36556020  1
loop_
_geom_bond_atom_site_label_1
_geom_bond_atom_site_label_2
_geom_bond_distance
_geom_bond_site_symmetry_2
Na0 O0 2.431022 1_556
Na0 O0 2.431051 1_656
Na0 O7 2.520754 1_566
Na0 O7 2.520799 1_666
Na0 O6 2.521135 1_565
Na0 O6 2.521155 1_665
Na0 O2 2.612477 1_655
Na0 O3 2.613802 1_656
Na1 O1 2.431497 1_655
Na1 O1 2.431591 1_555
Na1 O8 2.520317 1_645
Na1 O8 2.520397 1_545
Na1 O9 2.521565 1_645
Na1 O9 2.521625 1_545
Na1 O4 2.612735 1_555
Na1 O5 2.613838 1_555
O0 V2 1.812036 1_554
O0 V0 1.812415 1_555
O1 V1 1.811988 1_555
O1 V3 1.812125 1_555
O2 V2 1.914703 1_555
O2 V2 1.914710 1_455
O2 V3 1.978188 1_555
O3 V0 1.914687 1_555
O3 V0 1.914693 1_455
O3 V1 1.978114 1_555
O4 V3 1.914763 1_655
O4 V3 1.914765 1_555
O4 V2 1.977860 1_555
O5 V1 1.914694 1_555
O5 V1 1.914704 1_655
O5 V0 1.978263 1_555
O6 V2 1.627694 1_555
O7 V0 1.627949 1_555
O8 V3 1.627721 1_555
O9 V1 1.627753 1_555
