# generated using pymatgen
data_Te7As5I
_symmetry_space_group_name_H-M   'P 1'
_cell_length_a   6.82256100
_cell_length_b   7.43053978
_cell_length_c   8.51445711
_cell_angle_alpha   105.00391338
_cell_angle_beta   101.53059644
_cell_angle_gamma   91.12753788
_symmetry_Int_Tables_number   1
_chemical_formula_structural   Te7As5I
_chemical_formula_sum   'Te7 As5 I1'
_cell_volume   407.34806911
_cell_formula_units_Z   1
loop_
 _symmetry_equiv_pos_site_id
 _symmetry_equiv_pos_as_xyz
  1  'x, y, z'
loop_
 _atom_site_type_symbol
 _atom_site_label
 _atom_site_symmetry_multiplicity
 _atom_site_fract_x
 _atom_site_fract_y
 _atom_site_fract_z
 _atom_site_occupancy
  Te  Te0  1  0.64567400  0.15128000  0.44779600  1
  Te  Te1  1  0.36914200  0.15706000  0.94771600  1
  Te  Te2  1  0.07909600  0.22541600  0.33193000  1
  Te  Te3  1  0.16481700  0.44225600  0.80603900  1
  Te  Te4  1  0.86031800  0.51500800  0.19950600  1
  Te  Te5  1  0.61426700  0.83087900  0.06376900  1
  Te  Te6  1  0.31719300  0.92561700  0.48252900  1
  As  As0  1  0.01563500  0.97128900  0.02796600  1
  As  As1  1  0.77086900  0.33667300  0.87172200  1
  As  As2  1  0.44971400  0.36890300  0.27083400  1
  As  As3  1  0.56526000  0.57347700  0.77229400  1
  As  As4  1  0.22052300  0.72425600  0.14464300  1
  I  I0  1  0.92749200  0.77788500  0.63325700  1
loop_
_geom_bond_atom_site_label_1
_geom_bond_atom_site_label_2
_geom_bond_distance
_geom_bond_site_symmetry_2
Te0 Te6 2.880170 1_545
Te0 Te2 3.377037 1_655
Te1 Te3 2.942258 1_555
Te1 Te5 3.222805 1_546
Te2 Te4 2.973112 1_455
Te2 Te6 3.167677 1_545
Te4 Te5 3.232107 1_555
As0 As4 2.607741 1_555
As0 Te2 2.727783 1_565
As0 Te5 3.010983 1_455
As0 Te1 3.034036 1_564
As0 I0 3.221608 1_454
As1 As3 2.484807 1_555
As1 Te4 2.699985 1_556
As1 Te3 2.982833 1_655
As1 Te1 3.274761 1_555
As2 Te0 2.685859 1_555
As2 Te1 2.732767 1_554
As2 Te2 2.916834 1_555
As2 Te4 3.208890 1_555
As3 Te5 2.667296 1_556
As3 Te3 2.975126 1_555
As4 Te6 2.814991 1_555
As4 Te3 3.041339 1_554
As4 Te5 3.042453 1_555
As4 Te4 3.059366 1_455
I0 Te6 3.449598 1_655
I0 Te3 3.480200 1_655
