# generated using pymatgen
data_Mg30ZnNiO32
_symmetry_space_group_name_H-M   'P 1'
_cell_length_a   8.51421200
_cell_length_b   8.51421200
_cell_length_c   8.51656900
_cell_angle_alpha   90.00000000
_cell_angle_beta   90.00000000
_cell_angle_gamma   90.00000000
_symmetry_Int_Tables_number   1
_chemical_formula_structural   Mg30ZnNiO32
_chemical_formula_sum   'Mg30 Zn1 Ni1 O32'
_cell_volume   617.38146757
_cell_formula_units_Z   1
loop_
 _symmetry_equiv_pos_site_id
 _symmetry_equiv_pos_as_xyz
  1  'x, y, z'
loop_
 _atom_site_type_symbol
 _atom_site_label
 _atom_site_symmetry_multiplicity
 _atom_site_fract_x
 _atom_site_fract_y
 _atom_site_fract_z
 _atom_site_occupancy
  Mg  Mg0  1  0.00000000  0.50000000  0.00000000  1
  Mg  Mg1  1  0.00000000  0.50000000  0.50000000  1
  Mg  Mg2  1  0.50000000  0.00000000  0.00000000  1
  Mg  Mg3  1  0.50000000  0.00000000  0.50000000  1
  Mg  Mg4  1  0.50000000  0.50000000  0.00000000  1
  Mg  Mg5  1  0.50000000  0.50000000  0.50000000  1
  Mg  Mg6  1  0.00000000  0.24932900  0.25045700  1
  Mg  Mg7  1  0.00000000  0.24932900  0.74954300  1
  Mg  Mg8  1  0.00000000  0.75067100  0.25045700  1
  Mg  Mg9  1  0.00000000  0.75067100  0.74954300  1
  Mg  Mg10  1  0.50000000  0.24983400  0.25004600  1
  Mg  Mg11  1  0.50000000  0.24983400  0.74995400  1
  Mg  Mg12  1  0.50000000  0.75016600  0.25004600  1
  Mg  Mg13  1  0.50000000  0.75016600  0.74995400  1
  Mg  Mg14  1  0.24932900  0.00000000  0.25045700  1
  Mg  Mg15  1  0.24932900  0.00000000  0.74954300  1
  Mg  Mg16  1  0.24983400  0.50000000  0.25004600  1
  Mg  Mg17  1  0.24983400  0.50000000  0.74995400  1
  Mg  Mg18  1  0.75067100  0.00000000  0.25045700  1
  Mg  Mg19  1  0.75067100  0.00000000  0.74954300  1
  Mg  Mg20  1  0.75016600  0.50000000  0.25004600  1
  Mg  Mg21  1  0.75016600  0.50000000  0.74995400  1
  Mg  Mg22  1  0.24980500  0.24980500  0.00000000  1
  Mg  Mg23  1  0.24939700  0.24939700  0.50000000  1
  Mg  Mg24  1  0.24980500  0.75019500  0.00000000  1
  Mg  Mg25  1  0.24939700  0.75060300  0.50000000  1
  Mg  Mg26  1  0.75019500  0.24980500  0.00000000  1
  Mg  Mg27  1  0.75060300  0.24939700  0.50000000  1
  Mg  Mg28  1  0.75019500  0.75019500  0.00000000  1
  Mg  Mg29  1  0.75060300  0.75060300  0.50000000  1
  Zn  Zn0  1  0.00000000  0.00000000  0.00000000  1
  Ni  Ni0  1  0.00000000  0.00000000  0.50000000  1
  O  O0  1  0.25291500  0.00000000  0.00000000  1
  O  O1  1  0.25104000  0.00000000  0.50000000  1
  O  O2  1  0.25009700  0.50000000  0.00000000  1
  O  O3  1  0.24983300  0.50000000  0.50000000  1
  O  O4  1  0.74708500  0.00000000  0.00000000  1
  O  O5  1  0.74896000  0.00000000  0.50000000  1
  O  O6  1  0.74990300  0.50000000  0.00000000  1
  O  O7  1  0.75016700  0.50000000  0.50000000  1
  O  O8  1  0.24962800  0.24962800  0.25000600  1
  O  O9  1  0.24962800  0.24962800  0.74999400  1
  O  O10  1  0.24962800  0.75037200  0.25000600  1
  O  O11  1  0.24962800  0.75037200  0.74999400  1
  O  O12  1  0.75037200  0.24962800  0.25000600  1
  O  O13  1  0.75037200  0.24962800  0.74999400  1
  O  O14  1  0.75037200  0.75037200  0.25000600  1
  O  O15  1  0.75037200  0.75037200  0.74999400  1
  O  O16  1  0.00000000  0.00000000  0.25227400  1
  O  O17  1  0.00000000  0.00000000  0.74772600  1
  O  O18  1  0.00000000  0.50000000  0.25028600  1
  O  O19  1  0.00000000  0.50000000  0.74971400  1
  O  O20  1  0.50000000  0.00000000  0.25028600  1
  O  O21  1  0.50000000  0.00000000  0.74971400  1
  O  O22  1  0.50000000  0.50000000  0.25002300  1
  O  O23  1  0.50000000  0.50000000  0.74997700  1
  O  O24  1  0.00000000  0.25291500  0.00000000  1
  O  O25  1  0.00000000  0.25104000  0.50000000  1
  O  O26  1  0.00000000  0.74708500  0.00000000  1
  O  O27  1  0.00000000  0.74896000  0.50000000  1
  O  O28  1  0.50000000  0.25009700  0.00000000  1
  O  O29  1  0.50000000  0.24983300  0.50000000  1
  O  O30  1  0.50000000  0.74990300  0.00000000  1
  O  O31  1  0.50000000  0.75016700  0.50000000  1
loop_
_geom_bond_atom_site_label_1
_geom_bond_atom_site_label_2
_geom_bond_distance
_geom_bond_site_symmetry_2
Mg0 O24 2.103734 1_555
Mg0 O26 2.103734 1_555
Mg0 O2 2.129379 1_555
Mg0 O6 2.129379 1_455
Mg0 O18 2.131578 1_555
Mg0 O19 2.131578 1_554
Mg1 O27 2.119698 1_555
Mg1 O25 2.119698 1_555
Mg1 O18 2.126707 1_555
Mg1 O19 2.126707 1_555
Mg1 O7 2.127131 1_455
Mg1 O3 2.127131 1_555
Mg2 O0 2.103734 1_555
Mg2 O4 2.103734 1_555
Mg2 O28 2.129379 1_555
Mg2 O30 2.129379 1_545
Mg2 O21 2.131578 1_554
Mg2 O20 2.131578 1_555
Mg3 O5 2.119698 1_555
Mg3 O1 2.119698 1_555
Mg3 O21 2.126707 1_555
Mg3 O20 2.126707 1_555
Mg3 O31 2.127131 1_545
Mg3 O29 2.127131 1_555
Mg4 O30 2.127727 1_555
Mg4 O2 2.127727 1_555
Mg4 O28 2.127727 1_555
Mg4 O6 2.127727 1_555
Mg4 O22 2.129338 1_555
Mg4 O23 2.129338 1_554
Mg5 O23 2.128946 1_555
Mg5 O22 2.128946 1_555
Mg5 O29 2.129975 1_555
Mg5 O7 2.129975 1_555
Mg5 O31 2.129975 1_555
Mg5 O3 2.129975 1_555
Mg6 O16 2.122896 1_555
Mg6 O25 2.125300 1_555
Mg6 O12 2.125391 1_455
Mg6 O8 2.125391 1_555
Mg6 O24 2.133253 1_555
Mg6 O18 2.134267 1_555
Mg7 O17 2.122896 1_555
Mg7 O25 2.125300 1_555
Mg7 O13 2.125391 1_455
Mg7 O9 2.125391 1_555
Mg7 O24 2.133253 1_556
Mg7 O19 2.134267 1_555
Mg8 O16 2.122896 1_565
Mg8 O27 2.125300 1_555
Mg8 O14 2.125391 1_455
Mg8 O10 2.125391 1_555
Mg8 O26 2.133253 1_555
Mg8 O18 2.134267 1_555
Mg9 O17 2.122896 1_565
Mg9 O27 2.125300 1_555
Mg9 O15 2.125391 1_455
Mg9 O11 2.125391 1_555
Mg9 O26 2.133253 1_556
Mg9 O19 2.134267 1_555
Mg10 O20 2.127141 1_555
Mg10 O29 2.128750 1_555
Mg10 O28 2.129535 1_555
Mg10 O22 2.129966 1_555
Mg10 O12 2.131721 1_555
Mg10 O8 2.131721 1_555
Mg11 O21 2.127141 1_555
Mg11 O29 2.128750 1_555
Mg11 O28 2.129535 1_556
Mg11 O23 2.129966 1_555
Mg11 O9 2.131721 1_555
Mg11 O13 2.131721 1_555
Mg12 O20 2.127141 1_565
Mg12 O31 2.128750 1_555
Mg12 O30 2.129535 1_555
Mg12 O22 2.129966 1_555
Mg12 O10 2.131721 1_555
Mg12 O14 2.131721 1_555
Mg13 O21 2.127141 1_565
Mg13 O31 2.128750 1_555
Mg13 O30 2.129535 1_556
Mg13 O23 2.129966 1_555
Mg13 O15 2.131721 1_555
Mg13 O11 2.131721 1_555
Mg14 O16 2.122896 1_555
Mg14 O1 2.125300 1_555
Mg14 O10 2.125391 1_545
Mg14 O8 2.125391 1_555
Mg14 O0 2.133253 1_555
Mg14 O20 2.134267 1_555
Mg15 O17 2.122896 1_555
Mg15 O1 2.125300 1_555
Mg15 O11 2.125391 1_545
Mg15 O9 2.125391 1_555
Mg15 O0 2.133253 1_556
Mg15 O21 2.134267 1_555
Mg16 O18 2.127141 1_555
Mg16 O3 2.128750 1_555
Mg16 O2 2.129535 1_555
Mg16 O22 2.129966 1_555
Mg16 O10 2.131721 1_555
Mg16 O8 2.131721 1_555
Mg17 O19 2.127141 1_555
Mg17 O3 2.128750 1_555
Mg17 O2 2.129535 1_556
Mg17 O23 2.129966 1_555
Mg17 O9 2.131721 1_555
Mg17 O11 2.131721 1_555
Mg18 O16 2.122896 1_655
Mg18 O5 2.125300 1_555
Mg18 O14 2.125391 1_545
Mg18 O12 2.125391 1_555
Mg18 O4 2.133253 1_555
Mg18 O20 2.134267 1_555
Mg19 O17 2.122896 1_655
Mg19 O5 2.125300 1_555
Mg19 O15 2.125391 1_545
Mg19 O13 2.125391 1_555
Mg19 O4 2.133253 1_556
Mg19 O21 2.134267 1_555
Mg20 O18 2.127141 1_655
Mg20 O7 2.128750 1_555
Mg20 O6 2.129535 1_555
Mg20 O22 2.129966 1_555
Mg20 O12 2.131721 1_555
Mg20 O14 2.131721 1_555
Mg21 O19 2.127141 1_655
Mg21 O7 2.128750 1_555
Mg21 O6 2.129535 1_556
Mg21 O23 2.129966 1_555
Mg21 O15 2.131721 1_555
Mg21 O13 2.131721 1_555
Mg22 O24 2.127058 1_555
Mg22 O0 2.127058 1_555
Mg22 O9 2.129194 1_554
Mg22 O8 2.129194 1_555
Mg22 O28 2.130215 1_555
Mg22 O2 2.130215 1_555
Mg23 O25 2.123465 1_555
Mg23 O1 2.123465 1_555
Mg23 O8 2.129093 1_555
Mg23 O9 2.129093 1_555
Mg23 O3 2.133690 1_555
Mg23 O29 2.133690 1_555
Mg24 O26 2.127058 1_555
Mg24 O0 2.127058 1_565
Mg24 O11 2.129194 1_554
Mg24 O10 2.129194 1_555
Mg24 O2 2.130215 1_555
Mg24 O30 2.130215 1_555
Mg25 O27 2.123465 1_555
Mg25 O1 2.123465 1_565
Mg25 O10 2.129093 1_555
Mg25 O11 2.129093 1_555
Mg25 O31 2.133690 1_555
Mg25 O3 2.133690 1_555
Mg26 O4 2.127058 1_555
Mg26 O24 2.127058 1_655
Mg26 O13 2.129194 1_554
Mg26 O12 2.129194 1_555
Mg26 O28 2.130215 1_555
Mg26 O6 2.130215 1_555
Mg27 O25 2.123465 1_655
Mg27 O5 2.123465 1_555
Mg27 O12 2.129093 1_555
Mg27 O13 2.129093 1_555
Mg27 O7 2.133690 1_555
Mg27 O29 2.133690 1_555
Mg28 O26 2.127058 1_655
Mg28 O4 2.127058 1_565
Mg28 O15 2.129194 1_554
Mg28 O14 2.129194 1_555
Mg28 O30 2.130215 1_555
Mg28 O6 2.130215 1_555
Mg29 O27 2.123465 1_655
Mg29 O5 2.123465 1_565
Mg29 O14 2.129093 1_555
Mg29 O15 2.129093 1_555
Mg29 O31 2.133690 1_555
Mg29 O7 2.133690 1_555
Ni0 O16 2.109776 1_555
Ni0 O17 2.109776 1_555
Ni0 O25 2.137408 1_555
Ni0 O1 2.137408 1_555
Ni0 O27 2.137408 1_545
Ni0 O5 2.137408 1_455
O0 Zn0 2.153372 1_555
O4 Zn0 2.153372 1_655
O16 Zn0 2.148509 1_555
O17 Zn0 2.148509 1_556
O24 Zn0 2.153372 1_555
O26 Zn0 2.153372 1_565
