# generated using pymatgen
data_Li9Mn2Co5O16
_symmetry_space_group_name_H-M   'P 1'
_cell_length_a   10.58162425
_cell_length_b   10.58162425
_cell_length_c   10.12880174
_cell_angle_alpha   66.96858131
_cell_angle_beta   66.96858131
_cell_angle_gamma   15.78012895
_symmetry_Int_Tables_number   1
_chemical_formula_structural   Li9Mn2Co5O16
_chemical_formula_sum   'Li9 Mn2 Co5 O16'
_cell_volume   283.34537476
_cell_formula_units_Z   1
loop_
 _symmetry_equiv_pos_site_id
 _symmetry_equiv_pos_as_xyz
  1  'x, y, z'
loop_
 _atom_site_type_symbol
 _atom_site_label
 _atom_site_symmetry_multiplicity
 _atom_site_fract_x
 _atom_site_fract_y
 _atom_site_fract_z
 _atom_site_occupancy
  Li  Li0  1  0.62479600  0.62479600  0.56339000  1
  Li  Li1  1  0.87791200  0.87791200  0.17866700  1
  Li  Li2  1  0.12208800  0.12208800  0.82133300  1
  Li  Li3  1  0.12569200  0.12569200  0.31286600  1
  Li  Li4  1  0.37767300  0.37767300  0.94003900  1
  Li  Li5  1  0.62232700  0.62232700  0.05996100  1
  Li  Li6  1  0.87430800  0.87430800  0.68713400  1
  Li  Li7  1  0.37520400  0.37520400  0.43661000  1
  Li  Li8  1  0.50000000  0.50000000  0.00000000  1
  Mn  Mn0  1  0.99896200  0.99896200  0.75635800  1
  Mn  Mn1  1  0.00103800  0.00103800  0.24364200  1
  Co  Co0  1  0.25034000  0.25034000  0.37466400  1
  Co  Co1  1  0.74966000  0.74966000  0.62533600  1
  Co  Co2  1  0.24948100  0.24948100  0.87546200  1
  Co  Co3  1  0.50000000  0.50000000  0.50000000  1
  Co  Co4  1  0.75051900  0.75051900  0.12453800  1
  O  O0  1  0.55619000  0.55619000  0.77394200  1
  O  O1  1  0.80800300  0.80800300  0.40632200  1
  O  O2  1  0.05851000  0.05851000  0.05269700  1
  O  O3  1  0.05322800  0.05322800  0.53623900  1
  O  O4  1  0.30857500  0.30857500  0.15722700  1
  O  O5  1  0.55358000  0.55358000  0.29192900  1
  O  O6  1  0.80708300  0.80708300  0.90538500  1
  O  O7  1  0.30843400  0.30843400  0.65580400  1
  O  O8  1  0.69156600  0.69156600  0.34419600  1
  O  O9  1  0.94149000  0.94149000  0.94730300  1
  O  O10  1  0.19199700  0.19199700  0.59367800  1
  O  O11  1  0.19291700  0.19291700  0.09461500  1
  O  O12  1  0.44642000  0.44642000  0.70807100  1
  O  O13  1  0.69142500  0.69142500  0.84277300  1
  O  O14  1  0.94677200  0.94677200  0.46376100  1
  O  O15  1  0.44381000  0.44381000  0.22605800  1
loop_
_geom_bond_atom_site_label_1
_geom_bond_atom_site_label_2
_geom_bond_distance
_geom_bond_site_symmetry_2
Li0 O0 2.047839 1_555
Li0 O8 2.105585 1_555
Li0 O10 2.128375 1_565
Li0 O10 2.128375 1_655
Li0 O3 2.182276 1_565
Li0 O3 2.182276 1_655
Li1 O4 2.125826 1_565
Li1 O4 2.125826 1_655
Li1 O15 2.184602 1_655
Li1 O15 2.184602 1_565
Li1 O1 2.189815 1_555
Li1 O9 2.191066 1_554
Li2 O13 2.125826 1_545
Li2 O13 2.125826 1_455
Li2 O0 2.184602 1_545
Li2 O0 2.184602 1_455
Li2 O10 2.189815 1_555
Li2 O2 2.191066 1_556
Li3 O11 2.100444 1_555
Li3 O8 2.112756 1_545
Li3 O8 2.112756 1_455
Li3 O5 2.166411 1_545
Li3 O5 2.166411 1_455
Li3 O3 2.170597 1_555
Li4 O9 1.995697 1_545
Li4 O9 1.995697 1_455
Li4 O4 2.102460 1_556
Li4 O6 2.198451 1_545
Li4 O6 2.198451 1_455
Li4 O12 2.218671 1_555
Li5 O2 1.995697 1_565
Li5 O2 1.995697 1_655
Li5 O13 2.102460 1_554
Li5 O11 2.198451 1_565
Li5 O11 2.198451 1_655
Li5 O5 2.218671 1_555
Li6 O6 2.100444 1_555
Li6 O7 2.112756 1_655
Li6 O7 2.112756 1_565
Li6 O12 2.166411 1_655
Li6 O12 2.166411 1_565
Li6 O14 2.170597 1_555
Li7 O15 2.047839 1_555
Li7 O7 2.105585 1_555
Li7 O1 2.128375 1_455
Li7 O1 2.128375 1_545
Li7 O14 2.182276 1_545
Li7 O14 2.182276 1_455
Li8 O9 2.101526 1_544
Li8 O9 2.101526 1_454
Li8 O2 2.101526 1_565
Li8 O2 2.101526 1_655
Li8 O15 2.121236 1_555
Li8 O0 2.121236 1_554
Mn0 O9 1.830672 1_555
Mn0 O0 1.936404 1_655
Mn0 O0 1.936404 1_565
Mn0 O12 1.996964 1_655
Mn0 O12 1.996964 1_565
Mn0 O3 2.064317 1_665
Mn1 O2 1.830672 1_555
Mn1 O15 1.936404 1_455
Mn1 O15 1.936404 1_545
Mn1 O5 1.996964 1_545
Mn1 O5 1.996964 1_455
Mn1 O14 2.064317 1_445
Co0 O1 1.995025 1_545
Co0 O1 1.995025 1_455
Co0 O8 2.005880 1_545
Co0 O8 2.005880 1_455
Co0 O4 2.053506 1_555
Co0 O10 2.067284 1_555
Co1 O10 1.995025 1_655
Co1 O10 1.995025 1_565
Co1 O7 2.005880 1_565
Co1 O7 2.005880 1_655
Co1 O13 2.053506 1_555
Co1 O1 2.067284 1_555
Co2 O6 1.987206 1_455
Co2 O6 1.987206 1_545
Co2 O13 2.004755 1_455
Co2 O13 2.004755 1_545
Co2 O11 2.062550 1_556
Co2 O7 2.074925 1_555
Co3 O3 1.952758 1_565
Co3 O3 1.952758 1_655
Co3 O14 1.952758 1_545
Co3 O14 1.952758 1_455
Co3 O12 1.957866 1_555
Co3 O5 1.957866 1_555
Co4 O11 1.987206 1_655
Co4 O11 1.987206 1_565
Co4 O4 2.004755 1_655
Co4 O4 2.004755 1_565
Co4 O6 2.062550 1_554
Co4 O8 2.074925 1_555
