# generated using pymatgen
data_BaMnVF7
_symmetry_space_group_name_H-M   'P 1'
_cell_length_a   7.49271381
_cell_length_b   7.49271381
_cell_length_c   15.20900551
_cell_angle_alpha   89.98607958
_cell_angle_beta   89.98607958
_cell_angle_gamma   41.61878446
_symmetry_Int_Tables_number   1
_chemical_formula_structural   BaMnVF7
_chemical_formula_sum   'Ba4 Mn4 V4 F28'
_cell_volume   567.09944850
_cell_formula_units_Z   4
loop_
 _symmetry_equiv_pos_site_id
 _symmetry_equiv_pos_as_xyz
  1  'x, y, z'
loop_
 _atom_site_type_symbol
 _atom_site_label
 _atom_site_symmetry_multiplicity
 _atom_site_fract_x
 _atom_site_fract_y
 _atom_site_fract_z
 _atom_site_occupancy
  Ba  Ba0  1  0.35124100  0.26120300  0.37654200  1
  Ba  Ba1  1  0.64876000  0.73879700  0.62345800  1
  Ba  Ba2  1  0.73879700  0.64876000  0.12345800  1
  Ba  Ba3  1  0.26120300  0.35124100  0.87654200  1
  Mn  Mn0  1  0.62922100  0.59759900  0.37263700  1
  Mn  Mn1  1  0.37077900  0.40240100  0.62736300  1
  Mn  Mn2  1  0.40240100  0.37077900  0.12736300  1
  Mn  Mn3  1  0.59759900  0.62922100  0.87263700  1
  V  V0  1  0.00000000  0.00000000  0.00000000  1
  V  V1  1  0.00000000  0.00000000  0.50000000  1
  V  V2  1  0.05643900  0.94356100  0.25000000  1
  V  V3  1  0.94356100  0.05643900  0.75000000  1
  F  F0  1  0.61750300  0.23469700  0.00570500  1
  F  F1  1  0.38249700  0.76530300  0.99429500  1
  F  F2  1  0.76530300  0.38249700  0.49429500  1
  F  F3  1  0.23469700  0.61750300  0.50570500  1
  F  F4  1  0.31608800  0.18035300  0.08599500  1
  F  F5  1  0.68391200  0.81964700  0.91400500  1
  F  F6  1  0.81964700  0.68391200  0.41400500  1
  F  F7  1  0.18035300  0.31608800  0.58599500  1
  F  F8  1  0.44485500  0.88978400  0.27395400  1
  F  F9  1  0.55514500  0.11021600  0.72604600  1
  F  F10  1  0.11021600  0.55514500  0.22604600  1
  F  F11  1  0.88978400  0.44485500  0.77395400  1
  F  F12  1  0.36404400  0.66902400  0.16695900  1
  F  F13  1  0.63595600  0.33097600  0.83304100  1
  F  F14  1  0.33097600  0.63595600  0.33304100  1
  F  F15  1  0.66902400  0.36404400  0.66695900  1
  F  F16  1  0.71055000  0.07905500  0.21981300  1
  F  F17  1  0.28945000  0.92094500  0.78018700  1
  F  F18  1  0.92094500  0.28945000  0.28018700  1
  F  F19  1  0.07905500  0.71055000  0.71981300  1
  F  F20  1  0.29812600  0.93293100  0.46193400  1
  F  F21  1  0.70187400  0.06706900  0.53806600  1
  F  F22  1  0.06706900  0.70187400  0.03806600  1
  F  F23  1  0.93293100  0.29812600  0.96193400  1
  F  F24  1  0.13947800  0.94356100  0.62489100  1
  F  F25  1  0.86052200  0.05643900  0.37510900  1
  F  F26  1  0.05643900  0.86052200  0.87510900  1
  F  F27  1  0.94356100  0.13947800  0.12489100  1
loop_
_geom_bond_atom_site_label_1
_geom_bond_atom_site_label_2
_geom_bond_distance
_geom_bond_site_symmetry_2
Ba0 F6 2.712702 1_455
Ba0 F10 2.720986 1_555
Ba0 F14 2.776122 1_555
Ba0 F8 2.784627 1_545
Ba0 F25 2.856921 1_555
Ba0 F3 2.874852 1_555
Ba0 F6 2.941751 1_545
Ba0 F16 3.049164 1_555
Ba0 F21 3.056242 1_555
Ba0 F20 3.058877 1_545
Ba1 F7 2.712697 1_655
Ba1 F11 2.720985 1_555
Ba1 F15 2.776128 1_555
Ba1 F9 2.784623 1_565
Ba1 F24 2.856928 1_555
Ba1 F2 2.874855 1_555
Ba1 F7 2.941752 1_565
Ba1 F17 3.049168 1_555
Ba1 F20 3.056245 1_555
Ba1 F21 3.058871 1_565
Ba2 F4 2.712697 1_565
Ba2 F8 2.720985 1_555
Ba2 F12 2.776128 1_555
Ba2 F10 2.784623 1_655
Ba2 F27 2.856928 1_555
Ba2 F1 2.874855 1_554
Ba2 F4 2.941752 1_655
Ba2 F18 3.049168 1_555
Ba2 F23 3.056245 1_554
Ba2 F22 3.058871 1_655
Ba3 F5 2.712702 1_545
Ba3 F9 2.720986 1_555
Ba3 F13 2.776122 1_555
Ba3 F11 2.784627 1_455
Ba3 F26 2.856921 1_555
Ba3 F0 2.874852 1_556
Ba3 F5 2.941751 1_455
Ba3 F19 3.049164 1_555
Ba3 F22 3.056242 1_556
Ba3 F23 3.058877 1_455
F0 V0 1.943749 1_655
F0 Mn2 2.145515 1_555
F1 V0 1.943749 1_566
F1 Mn3 2.145515 1_555
F2 V1 1.943749 1_655
F2 Mn0 2.145515 1_555
F3 V1 1.943749 1_565
F3 Mn1 2.145515 1_555
F4 Mn2 2.056735 1_555
F5 Mn3 2.056735 1_555
F6 Mn0 2.056735 1_555
F7 Mn1 2.056735 1_555
F8 Mn0 2.105092 1_555
F8 V2 2.648018 1_555
F9 Mn1 2.105092 1_555
F9 V3 2.648018 1_555
F10 Mn2 2.105092 1_555
F10 V2 2.648018 1_555
F11 Mn3 2.105092 1_555
F11 V3 2.648018 1_555
F12 V2 2.012409 1_555
F12 Mn2 2.116437 1_555
F13 V3 2.012409 1_555
F13 Mn3 2.116437 1_555
F14 V2 2.012409 1_555
F14 Mn0 2.116437 1_555
F15 V3 2.012409 1_555
F15 Mn1 2.116437 1_555
F16 V2 2.006126 1_645
F16 Mn2 2.130743 1_555
F17 V3 2.006126 1_465
F17 Mn3 2.130743 1_555
F18 V2 2.006126 1_645
F18 Mn0 2.130743 1_555
F19 V3 2.006126 1_465
F19 Mn1 2.130743 1_555
F20 V1 1.974487 1_565
F20 Mn0 2.234332 1_555
F21 V1 1.974487 1_655
F21 Mn1 2.234332 1_555
F22 V0 1.974487 1_565
F22 Mn2 2.234332 1_555
F23 V0 1.974487 1_656
F23 Mn3 2.234332 1_555
F24 V1 2.053967 1_565
F24 V3 2.152650 1_465
F25 V1 2.053967 1_655
F25 V2 2.152650 1_645
F26 V0 2.053967 1_566
F26 V3 2.152650 1_465
F27 V0 2.053967 1_655
F27 V2 2.152650 1_645
