# generated using pymatgen
data_Gd(Ni2B)6
_symmetry_space_group_name_H-M   'P 1'
_cell_length_a   6.03278664
_cell_length_b   6.03278664
_cell_length_c   10.97341100
_cell_angle_alpha   90.00000000
_cell_angle_beta   90.00000000
_cell_angle_gamma   104.80948391
_symmetry_Int_Tables_number   1
_chemical_formula_structural   Gd(Ni2B)6
_chemical_formula_sum   'Gd2 Ni24 B12'
_cell_volume   386.10526722
_cell_formula_units_Z   2
loop_
 _symmetry_equiv_pos_site_id
 _symmetry_equiv_pos_as_xyz
  1  'x, y, z'
loop_
 _atom_site_type_symbol
 _atom_site_label
 _atom_site_symmetry_multiplicity
 _atom_site_fract_x
 _atom_site_fract_y
 _atom_site_fract_z
 _atom_site_occupancy
  Gd  Gd0  1  0.83422000  0.83422000  0.49734900  1
  Gd  Gd1  1  0.16578000  0.16578000  0.99734900  1
  Ni  Ni0  1  0.56505600  0.56505600  0.91885000  1
  Ni  Ni1  1  0.43494400  0.43494400  0.41885000  1
  Ni  Ni2  1  0.78235900  0.78235900  0.09926800  1
  Ni  Ni3  1  0.21764100  0.21764100  0.59926800  1
  Ni  Ni4  1  0.54338800  0.80493500  0.73396400  1
  Ni  Ni5  1  0.80493500  0.54338800  0.73396400  1
  Ni  Ni6  1  0.45661200  0.19506500  0.23396400  1
  Ni  Ni7  1  0.19506500  0.45661200  0.23396400  1
  Ni  Ni8  1  0.14537500  0.88155700  0.75539800  1
  Ni  Ni9  1  0.88155700  0.14537500  0.75539800  1
  Ni  Ni10  1  0.85462500  0.11844300  0.25539800  1
  Ni  Ni11  1  0.11844300  0.85462500  0.25539800  1
  Ni  Ni12  1  0.65890500  0.27129700  0.56793500  1
  Ni  Ni13  1  0.27129700  0.65890500  0.56793500  1
  Ni  Ni14  1  0.34109500  0.72870300  0.06793500  1
  Ni  Ni15  1  0.72870300  0.34109500  0.06793500  1
  Ni  Ni16  1  0.63036500  0.99568000  0.93689300  1
  Ni  Ni17  1  0.99568000  0.63036500  0.93689300  1
  Ni  Ni18  1  0.36963500  0.00432000  0.43689300  1
  Ni  Ni19  1  0.00432000  0.36963500  0.43689300  1
  Ni  Ni20  1  0.47374100  0.21250700  0.77599000  1
  Ni  Ni21  1  0.21250700  0.47374100  0.77599000  1
  Ni  Ni22  1  0.52625900  0.78749300  0.27599000  1
  Ni  Ni23  1  0.78749300  0.52625900  0.27599000  1
  B  B0  1  0.83605100  0.83605100  0.83806300  1
  B  B1  1  0.16394900  0.16394900  0.33806300  1
  B  B2  1  0.48816200  0.48816200  0.65393500  1
  B  B3  1  0.51183800  0.51183800  0.15393500  1
  B  B4  1  0.32586600  0.75631200  0.88515500  1
  B  B5  1  0.75631200  0.32586600  0.88515500  1
  B  B6  1  0.67413400  0.24368800  0.38515500  1
  B  B7  1  0.24368800  0.67413400  0.38515500  1
  B  B8  1  0.40170900  0.98847500  0.62243200  1
  B  B9  1  0.98847500  0.40170900  0.62243200  1
  B  B10  1  0.59829100  0.01152500  0.12243200  1
  B  B11  1  0.01152500  0.59829100  0.12243200  1
loop_
_geom_bond_atom_site_label_1
_geom_bond_atom_site_label_2
_geom_bond_distance
_geom_bond_site_symmetry_2
Gd0 Ni22 3.027166 1_555
Gd0 Ni23 3.027166 1_555
Gd0 Ni3 3.035862 1_665
Gd0 Ni1 3.062688 1_555
Gd0 Ni4 3.113325 1_555
Gd0 Ni5 3.113325 1_555
Gd0 Ni10 3.145866 1_565
Gd0 Ni11 3.145866 1_655
Gd0 Ni13 3.177559 1_655
Gd0 Ni12 3.177559 1_565
Gd0 Ni19 3.198730 1_665
Gd0 Ni18 3.198730 1_665
Gd0 Ni18 3.289197 1_565
Gd0 Ni19 3.289197 1_655
Gd0 Ni8 3.368907 1_655
Gd0 Ni9 3.368907 1_565
Gd0 Ni12 3.378638 1_555
Gd0 Ni13 3.378638 1_555
Gd1 Ni21 3.027166 1_555
Gd1 Ni20 3.027166 1_555
Gd1 Ni2 3.035862 1_446
Gd1 Ni0 3.062688 1_555
Gd1 Ni6 3.113325 1_556
Gd1 Ni7 3.113325 1_556
Gd1 Ni8 3.145866 1_545
Gd1 Ni9 3.145866 1_455
Gd1 Ni14 3.177559 1_546
Gd1 Ni15 3.177559 1_456
Gd1 Ni16 3.198730 1_445
Gd1 Ni17 3.198730 1_445
Gd1 Ni16 3.289197 1_545
Gd1 Ni17 3.289197 1_455
Gd1 Ni11 3.368907 1_546
Gd1 Ni10 3.368907 1_456
Gd1 Ni15 3.378638 1_556
Gd1 Ni14 3.378638 1_556
B0 Ni8 2.029437 1_655
B0 Ni9 2.029437 1_565
B0 Ni17 2.062556 1_555
B0 Ni16 2.062556 1_555
B0 Ni4 2.070738 1_555
B0 Ni5 2.070738 1_555
B0 Ni0 2.182901 1_555
B0 Gd1 2.991005 1_665
B1 Ni10 2.029437 1_455
B1 Ni11 2.029437 1_545
B1 Ni18 2.062556 1_555
B1 Ni19 2.062556 1_555
B1 Ni7 2.070738 1_555
B1 Ni6 2.070738 1_555
B1 Ni1 2.182901 1_555
B1 Gd0 2.991005 1_445
B2 Ni5 2.051524 1_555
B2 Ni4 2.051524 1_555
B2 Ni3 2.079691 1_555
B2 Ni12 2.086188 1_555
B2 Ni13 2.086188 1_555
B2 Ni21 2.119659 1_555
B2 Ni20 2.119659 1_555
B2 Gd0 3.072675 1_555
B3 Ni6 2.051524 1_555
B3 Ni7 2.051524 1_555
B3 Ni2 2.079691 1_555
B3 Ni14 2.086188 1_555
B3 Ni15 2.086188 1_555
B3 Ni22 2.119659 1_555
B3 Ni23 2.119659 1_555
B3 Gd1 3.072675 1_554
B4 Ni14 2.016660 1_556
B4 Ni17 2.023304 1_455
B4 Ni8 2.050495 1_555
B4 Ni21 2.052481 1_555
B4 Ni4 2.088983 1_555
B4 Ni0 2.097930 1_555
B4 Ni16 2.103812 1_555
B4 Gd1 3.125710 1_565
B5 Ni15 2.016660 1_556
B5 Ni16 2.023304 1_545
B5 Ni9 2.050495 1_555
B5 Ni20 2.052481 1_555
B5 Ni5 2.088983 1_555
B5 Ni0 2.097930 1_555
B5 Ni17 2.103812 1_555
B5 Gd1 3.125710 1_655
B6 Ni12 2.016660 1_555
B6 Ni19 2.023304 1_655
B6 Ni10 2.050495 1_555
B6 Ni23 2.052481 1_555
B6 Ni6 2.088983 1_555
B6 Ni1 2.097930 1_555
B6 Ni18 2.103812 1_555
B6 Gd0 3.125710 1_545
B7 Ni13 2.016660 1_555
B7 Ni18 2.023304 1_565
B7 Ni11 2.050495 1_555
B7 Ni22 2.052481 1_555
B7 Ni7 2.088983 1_555
B7 Ni1 2.097930 1_555
B7 Ni19 2.103812 1_555
B7 Gd0 3.125710 1_455
B8 Ni4 1.984508 1_555
B8 Ni3 1.998459 1_565
B8 Ni13 2.032236 1_555
B8 Ni18 2.049710 1_565
B8 Ni12 2.079155 1_565
B8 Ni8 2.103915 1_555
B8 Ni20 2.134164 1_565
B8 Gd0 3.286251 1_555
B9 Ni5 1.984508 1_555
B9 Ni3 1.998459 1_655
B9 Ni12 2.032236 1_555
B9 Ni19 2.049710 1_655
B9 Ni13 2.079155 1_655
B9 Ni9 2.103915 1_555
B9 Ni21 2.134164 1_655
B9 Gd0 3.286251 1_555
B10 Ni6 1.984508 1_555
B10 Ni2 1.998459 1_545
B10 Ni15 2.032236 1_555
B10 Ni16 2.049710 1_544
B10 Ni14 2.079155 1_545
B10 Ni10 2.103915 1_555
B10 Ni22 2.134164 1_545
B10 Gd1 3.286251 1_554
B11 Ni7 1.984508 1_555
B11 Ni2 1.998459 1_455
B11 Ni14 2.032236 1_555
B11 Ni17 2.049710 1_454
B11 Ni15 2.079155 1_455
B11 Ni11 2.103915 1_555
B11 Ni23 2.134164 1_455
B11 Gd1 3.286251 1_554
