# generated using pymatgen
data_SnP2O7
_symmetry_space_group_name_H-M   'P 1'
_cell_length_a   8.35033200
_cell_length_b   8.35033200
_cell_length_c   8.35033200
_cell_angle_alpha   90.00000000
_cell_angle_beta   90.00000000
_cell_angle_gamma   90.00000000
_symmetry_Int_Tables_number   1
_chemical_formula_structural   SnP2O7
_chemical_formula_sum   'Sn4 P8 O28'
_cell_volume   582.25232137
_cell_formula_units_Z   4
loop_
 _symmetry_equiv_pos_site_id
 _symmetry_equiv_pos_as_xyz
  1  'x, y, z'
loop_
 _atom_site_type_symbol
 _atom_site_label
 _atom_site_symmetry_multiplicity
 _atom_site_fract_x
 _atom_site_fract_y
 _atom_site_fract_z
 _atom_site_occupancy
  Sn  Sn0  1  0.00000000  0.50000000  0.50000000  1
  Sn  Sn1  1  0.50000000  0.50000000  0.00000000  1
  Sn  Sn2  1  0.50000000  0.00000000  0.50000000  1
  Sn  Sn3  1  0.00000000  0.00000000  0.00000000  1
  P  P0  1  0.38996600  0.11003400  0.88996600  1
  P  P1  1  0.11003400  0.88996600  0.38996600  1
  P  P2  1  0.88996600  0.38996600  0.11003400  1
  P  P3  1  0.61003400  0.61003400  0.61003400  1
  P  P4  1  0.61003400  0.88996600  0.11003400  1
  P  P5  1  0.88996600  0.11003400  0.61003400  1
  P  P6  1  0.11003400  0.61003400  0.88996600  1
  P  P7  1  0.38996600  0.38996600  0.38996600  1
  O  O0  1  0.50000000  0.00000000  0.00000000  1
  O  O1  1  0.00000000  0.00000000  0.50000000  1
  O  O2  1  0.00000000  0.50000000  0.00000000  1
  O  O3  1  0.50000000  0.50000000  0.50000000  1
  O  O4  1  0.94812600  0.21866300  0.09399200  1
  O  O5  1  0.44812600  0.28133700  0.90600800  1
  O  O6  1  0.05187400  0.71866300  0.40600800  1
  O  O7  1  0.28133700  0.90600800  0.44812600  1
  O  O8  1  0.40600800  0.05187400  0.71866300  1
  O  O9  1  0.90600800  0.44812600  0.28133700  1
  O  O10  1  0.21866300  0.09399200  0.94812600  1
  O  O11  1  0.09399200  0.94812600  0.21866300  1
  O  O12  1  0.44812600  0.21866300  0.40600800  1
  O  O13  1  0.40600800  0.44812600  0.21866300  1
  O  O14  1  0.21866300  0.40600800  0.44812600  1
  O  O15  1  0.28133700  0.59399200  0.94812600  1
  O  O16  1  0.90600800  0.05187400  0.78133700  1
  O  O17  1  0.78133700  0.90600800  0.05187400  1
  O  O18  1  0.09399200  0.55187400  0.71866300  1
  O  O19  1  0.59399200  0.94812600  0.28133700  1
  O  O20  1  0.71866300  0.09399200  0.55187400  1
  O  O21  1  0.94812600  0.28133700  0.59399200  1
  O  O22  1  0.55187400  0.71866300  0.09399200  1
  O  O23  1  0.05187400  0.78133700  0.90600800  1
  O  O24  1  0.55187400  0.78133700  0.59399200  1
  O  O25  1  0.59399200  0.55187400  0.78133700  1
  O  O26  1  0.78133700  0.59399200  0.55187400  1
  O  O27  1  0.71866300  0.40600800  0.05187400  1
loop_
_geom_bond_atom_site_label_1
_geom_bond_atom_site_label_2
_geom_bond_distance
_geom_bond_site_symmetry_2
O0 P4 1.591444 1_545
O0 P0 1.591444 1_554
O1 P5 1.591444 1_455
O1 P1 1.591444 1_545
O2 P6 1.591444 1_554
O2 P2 1.591444 1_455
O3 P3 1.591444 1_555
O3 P7 1.591444 1_555
O4 P2 1.516560 1_555
O4 Sn3 2.034106 1_655
O5 P0 1.516560 1_555
O5 Sn1 2.034106 1_556
O6 P1 1.516560 1_555
O6 Sn0 2.034106 1_555
O7 P1 1.516560 1_555
O7 Sn2 2.034106 1_565
O8 P0 1.516560 1_555
O8 Sn2 2.034106 1_555
O9 P2 1.516560 1_555
O9 Sn0 2.034106 1_655
O10 P0 1.516560 1_555
O10 Sn3 2.034106 1_556
O11 P1 1.516560 1_555
O11 Sn3 2.034106 1_565
O12 P7 1.516560 1_555
O12 Sn2 2.034106 1_555
O13 P7 1.516560 1_555
O13 Sn1 2.034106 1_555
O14 P7 1.516560 1_555
O14 Sn0 2.034106 1_555
O15 P6 1.516560 1_555
O15 Sn1 2.034106 1_556
O16 P5 1.516560 1_555
O16 Sn3 2.034106 1_656
O17 P4 1.516560 1_555
O17 Sn3 2.034106 1_665
O18 P6 1.516560 1_555
O18 Sn0 2.034106 1_555
O19 P4 1.516560 1_555
O19 Sn2 2.034106 1_565
O20 P5 1.516560 1_555
O20 Sn2 2.034106 1_555
O21 P5 1.516560 1_555
O21 Sn0 2.034106 1_655
O22 P4 1.516560 1_555
O22 Sn1 2.034106 1_555
O23 P6 1.516560 1_555
O23 Sn3 2.034106 1_566
O24 P3 1.516560 1_555
O24 Sn2 2.034106 1_565
O25 P3 1.516560 1_555
O25 Sn1 2.034106 1_556
O26 P3 1.516560 1_555
O26 Sn0 2.034106 1_655
O27 P2 1.516560 1_555
O27 Sn1 2.034106 1_555
