# generated using pymatgen
data_Fe5(O4F)2
_symmetry_space_group_name_H-M   'P 1'
_cell_length_a   4.65275800
_cell_length_b   5.55023431
_cell_length_c   12.93419160
_cell_angle_alpha   102.08363715
_cell_angle_beta   90.69916258
_cell_angle_gamma   91.28154771
_symmetry_Int_Tables_number   1
_chemical_formula_structural   Fe5(O4F)2
_chemical_formula_sum   'Fe10 O16 F4'
_cell_volume   326.48016468
_cell_formula_units_Z   2
loop_
 _symmetry_equiv_pos_site_id
 _symmetry_equiv_pos_as_xyz
  1  'x, y, z'
loop_
 _atom_site_type_symbol
 _atom_site_label
 _atom_site_symmetry_multiplicity
 _atom_site_fract_x
 _atom_site_fract_y
 _atom_site_fract_z
 _atom_site_occupancy
  Fe  Fe0  1  0.48976300  0.49011100  0.00207400  1
  Fe  Fe1  1  0.51104200  0.89111700  0.59667000  1
  Fe  Fe2  1  0.48112100  0.69562200  0.79443800  1
  Fe  Fe3  1  0.51513600  0.08787200  0.39633000  1
  Fe  Fe4  1  0.52620900  0.28941900  0.19926600  1
  Fe  Fe5  1  0.97375000  0.41523700  0.60614500  1
  Fe  Fe6  1  0.00022300  0.80669900  0.19536900  1
  Fe  Fe7  1  0.98254300  0.20482900  0.80773700  1
  Fe  Fe8  1  0.98532500  0.61590300  0.40248400  1
  Fe  Fe9  1  0.01762700  0.00975700  0.00198700  1
  O  O0  1  0.80245900  0.45451700  0.74423800  1
  O  O1  1  0.81563800  0.05379300  0.13160800  1
  O  O2  1  0.81778500  0.85482000  0.33177300  1
  O  O3  1  0.80082500  0.25451200  0.94633100  1
  O  O4  1  0.80304700  0.65204400  0.53668200  1
  O  O5  1  0.69329800  0.15443900  0.53780200  1
  O  O6  1  0.69720200  0.35423000  0.33827600  1
  O  O7  1  0.69559800  0.55755500  0.14156400  1
  O  O8  1  0.69247400  0.95650300  0.73614100  1
  O  O9  1  0.29768900  0.64460800  0.65532600  1
  O  O10  1  0.31332200  0.04316100  0.25988200  1
  O  O11  1  0.30242500  0.44242600  0.86309900  1
  O  O12  1  0.31077700  0.24777900  0.07015000  1
  O  O13  1  0.30804500  0.84573200  0.45968000  1
  O  O14  1  0.18735800  0.94949000  0.86553300  1
  O  O15  1  0.19287300  0.74519300  0.05845500  1
  F  F0  1  0.69495600  0.75770600  0.93942100  1
  F  F1  1  0.19487400  0.34058500  0.45957500  1
  F  F2  1  0.19428700  0.14490000  0.66026100  1
  F  F3  1  0.20233300  0.53944400  0.26170400  1
loop_
_geom_bond_atom_site_label_1
_geom_bond_atom_site_label_2
_geom_bond_distance
_geom_bond_site_symmetry_2
Fe0 O12 1.934287 1_555
Fe0 O11 1.952735 1_554
Fe0 O7 1.992850 1_555
Fe0 O3 2.009921 1_554
Fe0 O15 2.030797 1_555
Fe1 O8 1.942566 1_555
Fe1 O9 1.955794 1_555
Fe1 O13 1.963834 1_555
Fe1 O5 1.964954 1_565
Fe1 O4 1.970761 1_555
Fe2 O9 1.945372 1_555
Fe2 O11 1.985719 1_555
Fe2 O8 2.010884 1_555
Fe2 O0 2.048680 1_555
Fe2 O14 2.067233 1_555
Fe3 O10 1.955437 1_555
Fe3 O13 1.956617 1_545
Fe3 O5 1.959119 1_555
Fe3 O6 1.972613 1_555
Fe3 O2 2.002799 1_545
Fe4 O12 1.906372 1_555
Fe4 O6 1.917446 1_555
Fe4 O7 1.954445 1_555
Fe4 O10 1.967475 1_555
Fe4 O1 1.979374 1_555
Fe5 O4 1.920724 1_555
Fe5 O0 1.937113 1_555
Fe5 O9 1.961819 1_655
Fe5 O5 1.982667 1_555
Fe6 O2 1.937507 1_455
Fe6 O1 1.951272 1_465
Fe6 O15 1.963491 1_555
Fe6 O7 1.972483 1_455
Fe6 O10 1.991786 1_565
Fe7 O0 1.951615 1_555
Fe7 O3 1.960809 1_555
Fe7 O8 1.982565 1_545
Fe7 O11 1.989409 1_655
Fe7 O14 1.990466 1_645
Fe8 O4 1.915742 1_555
Fe8 O2 1.933684 1_555
Fe8 O13 1.980198 1_655
Fe8 O6 1.994211 1_555
Fe9 O1 1.905501 1_455
Fe9 O14 1.910275 1_544
Fe9 O12 1.945589 1_555
Fe9 O3 1.958090 1_454
Fe9 O15 1.960228 1_545
F0 Fe0 2.057522 1_556
F0 Fe9 2.065979 1_666
F0 Fe2 2.072129 1_555
F1 Fe8 2.086237 1_455
F1 Fe3 2.121262 1_555
F1 Fe5 2.135862 1_455
F2 Fe5 2.070064 1_455
F2 Fe1 2.114227 1_545
F2 Fe7 2.124763 1_455
F3 Fe8 2.062923 1_455
F3 Fe6 2.096723 1_555
F3 Fe4 2.121963 1_555
