# generated using pymatgen
data_U(Al2Cu)4
_symmetry_space_group_name_H-M   'P 1'
_cell_length_a   6.71333477
_cell_length_b   6.71333477
_cell_length_c   6.71333477
_cell_angle_alpha   99.30534725
_cell_angle_beta   99.30534725
_cell_angle_gamma   132.57915779
_symmetry_Int_Tables_number   1
_chemical_formula_structural   U(Al2Cu)4
_chemical_formula_sum   'U1 Al8 Cu4'
_cell_volume   203.98396094
_cell_formula_units_Z   1
loop_
 _symmetry_equiv_pos_site_id
 _symmetry_equiv_pos_as_xyz
  1  'x, y, z'
loop_
 _atom_site_type_symbol
 _atom_site_label
 _atom_site_symmetry_multiplicity
 _atom_site_fract_x
 _atom_site_fract_y
 _atom_site_fract_z
 _atom_site_occupancy
  U  U0  1  0.00000000  0.00000000  0.00000000  1
  Al  Al0  1  0.00000000  0.00000000  0.50000000  1
  Al  Al1  1  0.50000000  0.50000000  0.50000000  1
  Al  Al2  1  0.50000000  0.00000000  0.00000000  1
  Al  Al3  1  0.00000000  0.50000000  0.00000000  1
  Al  Al4  1  0.50000000  0.27622700  0.77622700  1
  Al  Al5  1  0.50000000  0.72377300  0.22377300  1
  Al  Al6  1  0.72377300  0.50000000  0.22377300  1
  Al  Al7  1  0.27622700  0.50000000  0.77622700  1
  Cu  Cu0  1  0.00000000  0.34919300  0.34919300  1
  Cu  Cu1  1  0.00000000  0.65080700  0.65080700  1
  Cu  Cu2  1  0.65080700  0.00000000  0.65080700  1
  Cu  Cu3  1  0.34919300  0.00000000  0.34919300  1
loop_
_geom_bond_atom_site_label_1
_geom_bond_atom_site_label_2
_geom_bond_distance
_geom_bond_site_symmetry_2
Al0 Al5 2.568368 1_445
Al0 Al6 2.568368 1_445
Al0 Al7 2.568368 1_555
Al0 Al4 2.568368 1_555
Al0 Al1 2.699528 1_445
Al0 Al1 2.699528 1_555
Al0 Cu3 2.699633 1_555
Al0 Cu0 2.699633 1_555
Al0 Cu2 2.699633 1_455
Al0 Cu1 2.699633 1_545
Al0 U0 3.356667 1_556
Al0 U0 3.356667 1_555
Al1 Al5 2.568368 1_555
Al1 Al6 2.568368 1_555
Al1 Al7 2.568368 1_555
Al1 Al4 2.568368 1_555
Al1 Cu3 2.699633 1_555
Al1 Cu1 2.699633 1_655
Al1 Cu0 2.699633 1_555
Al1 Cu2 2.699633 1_565
Al1 U0 3.356667 1_666
Al1 U0 3.356667 1_555
Al2 Al5 2.568368 1_545
Al2 Al4 2.568368 1_554
Al2 Al6 2.568368 1_555
Al2 Al7 2.568368 1_544
Al2 Al3 2.699528 1_545
Al2 Al3 2.699528 1_655
Al2 Cu3 2.699633 1_555
Al2 Cu0 2.699633 1_655
Al2 Cu2 2.699633 1_554
Al2 Cu1 2.699633 1_544
Al2 U0 3.356667 1_555
Al2 U0 3.356667 1_655
Al3 Al4 2.568368 1_454
Al3 Al5 2.568368 1_555
Al3 Al7 2.568368 1_554
Al3 Al6 2.568368 1_455
Al3 Cu1 2.699633 1_554
Al3 Cu3 2.699633 1_565
Al3 Cu0 2.699633 1_555
Al3 Cu2 2.699633 1_454
Al3 U0 3.356667 1_555
Al3 U0 3.356667 1_565
Al4 Cu2 2.735700 1_555
Al4 Cu3 2.735700 1_555
Al4 Al7 2.750912 1_555
Al4 Al6 2.750912 1_556
Al4 Cu1 2.911369 1_655
Al4 Cu1 2.911369 1_545
Al4 U0 3.327343 1_556
Al4 U0 3.327343 1_666
Al5 Cu2 2.735700 1_565
Al5 Cu3 2.735700 1_565
Al5 Al7 2.750912 1_554
Al5 Al6 2.750912 1_555
Al5 Cu0 2.911369 1_555
Al5 Cu0 2.911369 1_665
Al5 U0 3.327343 1_555
Al5 U0 3.327343 1_665
Al6 Cu1 2.735700 1_655
Al6 Cu0 2.735700 1_655
Al6 Cu3 2.911369 1_555
Al6 Cu3 2.911369 1_665
Al6 U0 3.327343 1_555
Al6 U0 3.327343 1_665
Al7 Cu0 2.735700 1_555
Al7 Cu1 2.735700 1_555
Al7 Cu2 2.911369 1_455
Al7 Cu2 2.911369 1_565
Al7 U0 3.327343 1_556
Al7 U0 3.327343 1_666
Cu0 Cu1 2.621836 1_555
Cu0 U0 3.035426 1_555
Cu1 U0 3.035426 1_566
Cu2 Cu3 2.621836 1_555
Cu2 U0 3.035426 1_656
Cu3 U0 3.035426 1_555
