# generated using pymatgen
data_CsCeMg14O16
_symmetry_space_group_name_H-M   'P 1'
_cell_length_a   8.91977244
_cell_length_b   8.91977244
_cell_length_c   4.60131751
_cell_angle_alpha   90.00000000
_cell_angle_beta   90.00000000
_cell_angle_gamma   90.00000000
_symmetry_Int_Tables_number   1
_chemical_formula_structural   CsCeMg14O16
_chemical_formula_sum   'Cs1 Ce1 Mg14 O16'
_cell_volume   366.09158993
_cell_formula_units_Z   1
loop_
 _symmetry_equiv_pos_site_id
 _symmetry_equiv_pos_as_xyz
  1  'x, y, z'
loop_
 _atom_site_type_symbol
 _atom_site_label
 _atom_site_symmetry_multiplicity
 _atom_site_fract_x
 _atom_site_fract_y
 _atom_site_fract_z
 _atom_site_occupancy
  Cs  Cs0  1  0.50000000  0.50000000  -0.00000000  1
  Ce  Ce0  1  0.00000000  0.00000000  -0.00000000  1
  Mg  Mg0  1  0.00000000  0.50000000  -0.00000000  1
  Mg  Mg1  1  0.50000000  0.00000000  -0.00000000  1
  Mg  Mg2  1  0.00000000  0.26667735  0.50000000  1
  Mg  Mg3  1  0.00000000  0.73332265  0.50000000  1
  Mg  Mg4  1  0.50000000  0.24309179  0.50000000  1
  Mg  Mg5  1  0.50000000  0.75690821  0.50000000  1
  Mg  Mg6  1  0.26667735  0.00000000  0.50000000  1
  Mg  Mg7  1  0.24309179  0.50000000  0.50000000  1
  Mg  Mg8  1  0.73332265  0.00000000  0.50000000  1
  Mg  Mg9  1  0.75690821  0.50000000  0.50000000  1
  Mg  Mg10  1  0.25686197  0.25686197  0.00000000  1
  Mg  Mg11  1  0.25686197  0.74313803  -0.00000000  1
  Mg  Mg12  1  0.74313803  0.25686197  0.00000000  1
  Mg  Mg13  1  0.74313803  0.74313803  -0.00000000  1
  O  O0  1  0.25881149  0.00000000  0.00000000  1
  O  O1  1  0.21403659  0.50000000  0.00000000  1
  O  O2  1  0.74118851  0.00000000  -0.00000000  1
  O  O3  1  0.78596341  0.50000000  -0.00000000  1
  O  O4  1  0.24885015  0.24885015  0.50000000  1
  O  O5  1  0.24885015  0.75114985  0.50000000  1
  O  O6  1  0.75114985  0.24885015  0.50000000  1
  O  O7  1  0.75114985  0.75114985  0.50000000  1
  O  O8  1  0.00000000  0.00000000  0.50000000  1
  O  O9  1  0.00000000  0.50000000  0.50000000  1
  O  O10  1  0.50000000  0.00000000  0.50000000  1
  O  O11  1  0.50000000  0.50000000  0.50000000  1
  O  O12  1  0.00000000  0.25881149  0.00000000  1
  O  O13  1  0.00000000  0.74118851  -0.00000000  1
  O  O14  1  0.50000000  0.21403659  0.00000000  1
  O  O15  1  0.50000000  0.78596341  -0.00000000  1
loop_
_geom_bond_atom_site_label_1
_geom_bond_atom_site_label_2
_geom_bond_distance
_geom_bond_site_symmetry_2
Cs0 O11 2.300659 1_555
Cs0 O11 2.300659 1_554
Cs0 O14 2.550729 1_555
Cs0 O15 2.550729 1_555
Cs0 O3 2.550729 1_555
Cs0 O1 2.550729 1_555
Ce0 O8 2.300659 1_555
Ce0 O8 2.300659 1_554
Ce0 O0 2.308540 1_555
Ce0 O12 2.308540 1_555
Ce0 O2 2.308540 1_455
Ce0 O13 2.308540 1_545
Mg0 O3 1.909158 1_455
Mg0 O1 1.909158 1_555
Mg0 O12 2.151347 1_555
Mg0 O13 2.151347 1_555
Mg0 O9 2.300659 1_554
Mg0 O9 2.300659 1_555
Mg1 O15 1.909158 1_545
Mg1 O14 1.909158 1_555
Mg1 O2 2.151347 1_555
Mg1 O0 2.151347 1_555
Mg1 O10 2.300659 1_555
Mg1 O10 2.300659 1_554
Mg2 O9 2.081185 1_555
Mg2 O6 2.225375 1_455
Mg2 O4 2.225375 1_555
Mg2 O12 2.301728 1_556
Mg2 O12 2.301728 1_555
Mg2 O8 2.378701 1_555
Mg3 O9 2.081185 1_555
Mg3 O5 2.225375 1_555
Mg3 O7 2.225375 1_455
Mg3 O13 2.301728 1_555
Mg3 O13 2.301728 1_556
Mg3 O8 2.378701 1_565
Mg4 O10 2.168323 1_555
Mg4 O4 2.240788 1_555
Mg4 O6 2.240788 1_555
Mg4 O11 2.291563 1_555
Mg4 O14 2.315210 1_555
Mg4 O14 2.315210 1_556
Mg5 O10 2.168323 1_565
Mg5 O5 2.240788 1_555
Mg5 O7 2.240788 1_555
Mg5 O11 2.291563 1_555
Mg5 O15 2.315210 1_556
Mg5 O15 2.315210 1_555
Mg6 O10 2.081185 1_555
Mg6 O5 2.225375 1_545
Mg6 O4 2.225375 1_555
Mg6 O0 2.301728 1_555
Mg6 O0 2.301728 1_556
Mg6 O8 2.378701 1_555
Mg7 O9 2.168323 1_555
Mg7 O4 2.240788 1_555
Mg7 O5 2.240788 1_555
Mg7 O11 2.291563 1_555
Mg7 O1 2.315210 1_556
Mg7 O1 2.315210 1_555
Mg8 O10 2.081185 1_555
Mg8 O6 2.225375 1_555
Mg8 O7 2.225375 1_545
Mg8 O2 2.301728 1_556
Mg8 O2 2.301728 1_555
Mg8 O8 2.378701 1_655
Mg9 O9 2.168323 1_655
Mg9 O6 2.240788 1_555
Mg9 O7 2.240788 1_555
Mg9 O11 2.291563 1_555
Mg9 O3 2.315210 1_556
Mg9 O3 2.315210 1_555
Mg10 O1 2.202120 1_555
Mg10 O14 2.202120 1_555
Mg10 O0 2.291216 1_555
Mg10 O12 2.291216 1_555
Mg10 O4 2.302878 1_554
Mg10 O4 2.302878 1_555
Mg11 O1 2.202120 1_555
Mg11 O15 2.202120 1_555
Mg11 O13 2.291216 1_555
Mg11 O0 2.291216 1_565
Mg11 O5 2.302878 1_554
Mg11 O5 2.302878 1_555
Mg12 O14 2.202120 1_555
Mg12 O3 2.202120 1_555
Mg12 O12 2.291216 1_655
Mg12 O2 2.291216 1_555
Mg12 O6 2.302878 1_554
Mg12 O6 2.302878 1_555
Mg13 O15 2.202120 1_555
Mg13 O3 2.202120 1_555
Mg13 O13 2.291216 1_655
Mg13 O2 2.291216 1_565
Mg13 O7 2.302878 1_554
Mg13 O7 2.302878 1_555
