# generated using pymatgen
data_Er6GaCo2
_symmetry_space_group_name_H-M   'P 1'
_cell_length_a   8.23161407
_cell_length_b   8.23161407
_cell_length_c   8.23161407
_cell_angle_alpha   106.38451040
_cell_angle_beta   110.18560616
_cell_angle_gamma   111.89183021
_symmetry_Int_Tables_number   1
_chemical_formula_structural   Er6GaCo2
_chemical_formula_sum   'Er12 Ga2 Co4'
_cell_volume   428.34249563
_cell_formula_units_Z   2
loop_
 _symmetry_equiv_pos_site_id
 _symmetry_equiv_pos_as_xyz
  1  'x, y, z'
loop_
 _atom_site_type_symbol
 _atom_site_label
 _atom_site_symmetry_multiplicity
 _atom_site_fract_x
 _atom_site_fract_y
 _atom_site_fract_z
 _atom_site_occupancy
  Er  Er0  1  0.70036900  0.26719900  0.96756800  1
  Er  Er1  1  0.29963100  0.73280100  0.03243200  1
  Er  Er2  1  0.70036900  0.73280100  0.43317100  1
  Er  Er3  1  0.29963100  0.26719900  0.56682900  1
  Er  Er4  1  0.80426000  0.12309300  0.31883300  1
  Er  Er5  1  0.80426000  0.48542700  0.68116700  1
  Er  Er6  1  0.19574000  0.87690700  0.68116700  1
  Er  Er7  1  0.19574000  0.51457300  0.31883300  1
  Er  Er8  1  0.59985300  0.78314000  0.81671300  1
  Er  Er9  1  0.96642600  0.78314000  0.18328700  1
  Er  Er10  1  0.03357400  0.21686000  0.81671300  1
  Er  Er11  1  0.40014700  0.21686000  0.18328700  1
  Ga  Ga0  1  0.50000000  0.50000000  0.00000000  1
  Ga  Ga1  1  0.50000000  0.00000000  0.50000000  1
  Co  Co0  1  0.87468500  0.50000000  0.37468500  1
  Co  Co1  1  0.12531500  0.50000000  0.62531500  1
  Co  Co2  1  0.00000000  0.11378200  0.11378200  1
  Co  Co3  1  0.00000000  0.88621800  0.88621800  1
loop_
_geom_bond_atom_site_label_1
_geom_bond_atom_site_label_2
_geom_bond_distance
_geom_bond_site_symmetry_2
Er0 Ga0 2.972576 1_556
Er0 Ga1 3.241840 1_555
Er1 Ga0 2.972576 1_555
Er1 Ga1 3.241840 1_565
Er2 Ga0 2.972583 1_555
Er2 Ga1 3.241838 1_565
Er3 Ga0 2.972583 1_556
Er3 Ga1 3.241838 1_555
Er4 Ga1 3.325827 1_555
Er5 Ga1 3.325827 1_555
Er6 Ga1 3.325827 1_565
Er7 Ga1 3.325827 1_565
Er8 Ga0 3.129727 1_556
Er8 Ga1 3.591634 1_565
Er9 Ga0 3.129721 1_555
Er9 Ga1 3.591640 1_665
Er10 Ga0 3.129721 1_556
Er10 Ga1 3.591640 1_455
Er11 Ga0 3.129727 1_555
Er11 Ga1 3.591634 1_555
Co0 Co1 2.361201 1_655
Co0 Er5 2.800605 1_555
Co0 Er6 2.800605 1_655
Co0 Er4 2.800605 1_555
Co0 Er7 2.800605 1_655
Co0 Er0 2.823083 1_554
Co0 Er2 2.823084 1_555
Co0 Er9 3.172526 1_555
Co0 Er11 3.172527 1_555
Co1 Er5 2.800605 1_455
Co1 Er6 2.800605 1_555
Co1 Er4 2.800605 1_455
Co1 Er7 2.800605 1_555
Co1 Er1 2.823083 1_556
Co1 Er3 2.823084 1_555
Co1 Er10 3.172526 1_555
Co1 Er8 3.172527 1_555
Co2 Co3 2.244610 1_544
Co2 Er4 2.710540 1_455
Co2 Er7 2.710540 1_555
Co2 Er9 2.870224 1_445
Co2 Er11 2.870225 1_555
Co2 Er8 2.870225 1_444
Co2 Er10 2.870228 1_554
Co2 Er3 3.202862 1_555
Co2 Er0 3.202869 1_454
Co3 Er5 2.710540 1_455
Co3 Er6 2.710540 1_555
Co3 Er10 2.870224 1_565
Co3 Er8 2.870225 1_455
Co3 Er11 2.870225 1_566
Co3 Er9 2.870228 1_456
Co3 Er2 3.202862 1_455
Co3 Er1 3.202869 1_556
