# generated using pymatgen
data_LiCo3NiO8
_symmetry_space_group_name_H-M   'P 1'
_cell_length_a   5.62609584
_cell_length_b   5.70151860
_cell_length_c   10.52423901
_cell_angle_alpha   89.43228933
_cell_angle_beta   105.50451113
_cell_angle_gamma   61.06649126
_symmetry_Int_Tables_number   1
_chemical_formula_structural   LiCo3NiO8
_chemical_formula_sum   'Li2 Co6 Ni2 O16'
_cell_volume   280.79318868
_cell_formula_units_Z   2
loop_
 _symmetry_equiv_pos_site_id
 _symmetry_equiv_pos_as_xyz
  1  'x, y, z'
loop_
 _atom_site_type_symbol
 _atom_site_label
 _atom_site_symmetry_multiplicity
 _atom_site_fract_x
 _atom_site_fract_y
 _atom_site_fract_z
 _atom_site_occupancy
  Li  Li0  1  0.49906100  0.25005300  0.24974800  1
  Li  Li1  1  0.50094500  0.74995900  0.75025200  1
  Co  Co0  1  0.49996700  0.49994500  0.00001300  1
  Co  Co1  1  0.49999100  0.99997500  0.49998700  1
  Co  Co2  1  0.50002600  0.00002200  0.99998700  1
  Co  Co3  1  0.49996200  0.50005200  0.50000800  1
  Co  Co4  1  0.00003400  0.50003000  0.99999100  1
  Co  Co5  1  0.00002500  0.99995900  0.49999300  1
  Ni  Ni0  1  0.00002100  0.49974700  0.49991200  1
  Ni  Ni1  1  0.00009500  0.00006300  0.00000600  1
  O  O0  1  0.72901400  0.63802700  0.09548300  1
  O  O1  1  0.72800100  0.13557500  0.59568900  1
  O  O2  1  0.27201400  0.86440500  0.40427100  1
  O  O3  1  0.27101500  0.36196900  0.90455600  1
  O  O4  1  0.23077200  0.13955400  0.09498200  1
  O  O5  1  0.23306500  0.63987200  0.59480900  1
  O  O6  1  0.72322300  0.14060200  0.09560000  1
  O  O7  1  0.71890700  0.64138600  0.59608400  1
  O  O8  1  0.25122400  0.60116300  0.10299100  1
  O  O9  1  0.24554000  0.10631400  0.60111900  1
  O  O10  1  0.75443600  0.89377000  0.39887700  1
  O  O11  1  0.74880900  0.39878700  0.89700800  1
  O  O12  1  0.28092000  0.35873200  0.40396900  1
  O  O13  1  0.27671800  0.85939400  0.90439800  1
  O  O14  1  0.76710900  0.36030600  0.40525000  1
  O  O15  1  0.76910400  0.86034000  0.90501800  1
loop_
_geom_bond_atom_site_label_1
_geom_bond_atom_site_label_2
_geom_bond_distance
_geom_bond_site_symmetry_2
Li0 O8 2.103258 1_555
Li0 O10 2.135697 1_545
Li0 O12 2.207612 1_555
Li0 O4 2.225825 1_555
Li0 O6 2.228039 1_555
Li0 O14 2.228418 1_555
Li1 O11 2.103474 1_555
Li1 O9 2.135976 1_565
Li1 O7 2.206485 1_555
Li1 O15 2.224956 1_555
Li1 O5 2.226906 1_555
Li1 O13 2.228247 1_555
Co0 O8 1.872929 1_555
Co0 O11 1.873587 1_554
Co0 O6 1.892320 1_555
Co0 O13 1.892878 1_554
Co0 O3 1.895156 1_554
Co0 O0 1.896052 1_555
Co1 O10 1.880612 1_555
Co1 O9 1.880785 1_565
Co1 O2 1.881821 1_555
Co1 O1 1.882033 1_565
Co1 O7 1.891126 1_555
Co1 O12 1.891551 1_565
Co2 O6 1.883119 1_556
Co2 O13 1.883690 1_545
Co2 O15 1.892912 1_545
Co2 O4 1.893813 1_556
Co2 O3 1.903105 1_555
Co2 O0 1.903540 1_546
Co3 O7 1.870766 1_555
Co3 O12 1.870957 1_555
Co3 O5 1.882594 1_555
Co3 O14 1.883271 1_555
Co3 O2 1.914481 1_555
Co3 O1 1.914819 1_555
Co4 O8 1.867233 1_556
Co4 O11 1.867740 1_455
Co4 O15 1.894667 1_455
Co4 O4 1.895416 1_556
Co4 O3 1.904162 1_555
Co4 O0 1.904761 1_456
Co5 O10 1.855860 1_455
Co5 O9 1.856243 1_565
Co5 O5 1.893449 1_555
Co5 O14 1.894280 1_465
Co5 O1 1.910202 1_465
Co5 O2 1.910251 1_555
Ni0 O14 1.915061 1_455
Ni0 O5 1.919391 1_555
Ni0 O12 1.950205 1_555
Ni0 O7 1.952984 1_455
Ni0 O9 2.059683 1_555
Ni0 O10 2.061650 1_455
Ni1 O4 1.907055 1_555
Ni1 O15 1.909405 1_444
Ni1 O13 1.929569 1_544
Ni1 O6 1.930481 1_455
Ni1 O11 2.088981 1_454
Ni1 O8 2.089685 1_545
