# generated using pymatgen
data_Y4Te3N2
_symmetry_space_group_name_H-M   'P 1'
_cell_length_a   7.18449284
_cell_length_b   11.00590215
_cell_length_c   11.64344326
_cell_angle_alpha   90.00000000
_cell_angle_beta   90.00000000
_cell_angle_gamma   90.00000000
_symmetry_Int_Tables_number   1
_chemical_formula_structural   Y4Te3N2
_chemical_formula_sum   'Y16 Te12 N8'
_cell_volume   920.66831012
_cell_formula_units_Z   4
loop_
 _symmetry_equiv_pos_site_id
 _symmetry_equiv_pos_as_xyz
  1  'x, y, z'
loop_
 _atom_site_type_symbol
 _atom_site_label
 _atom_site_symmetry_multiplicity
 _atom_site_fract_x
 _atom_site_fract_y
 _atom_site_fract_z
 _atom_site_occupancy
  Y  Y0  1  0.59590536  0.85503363  0.25000000  1
  Y  Y1  1  0.09590536  0.64496637  0.25000000  1
  Y  Y2  1  0.40409464  0.14496637  0.75000000  1
  Y  Y3  1  0.90409464  0.35503363  0.75000000  1
  Y  Y4  1  0.74257677  0.46025284  0.25000000  1
  Y  Y5  1  0.24257677  0.03974716  0.25000000  1
  Y  Y6  1  0.25742323  0.53974716  0.75000000  1
  Y  Y7  1  0.75742323  0.96025284  0.75000000  1
  Y  Y8  1  0.64528631  0.10774324  0.46057815  1
  Y  Y9  1  0.14528631  0.39225676  0.03942185  1
  Y  Y10  1  0.35471369  0.89225676  0.96057815  1
  Y  Y11  1  0.85471369  0.60774324  0.53942185  1
  Y  Y12  1  0.35471369  0.89225676  0.53942185  1
  Y  Y13  1  0.85471369  0.60774324  0.96057815  1
  Y  Y14  1  0.64528631  0.10774324  0.03942185  1
  Y  Y15  1  0.14528631  0.39225676  0.46057815  1
  Te  Te0  1  0.88654959  0.20098440  0.25000000  1
  Te  Te1  1  0.38654959  0.29901560  0.25000000  1
  Te  Te2  1  0.11345041  0.79901560  0.75000000  1
  Te  Te3  1  0.61345041  0.70098440  0.75000000  1
  Te  Te4  1  0.55656547  0.35788964  0.58279740  1
  Te  Te5  1  0.05656547  0.14211036  0.91720260  1
  Te  Te6  1  0.44343453  0.64211036  0.08279740  1
  Te  Te7  1  0.94343453  0.85788964  0.41720260  1
  Te  Te8  1  0.44343453  0.64211036  0.41720260  1
  Te  Te9  1  0.94343453  0.85788964  0.08279740  1
  Te  Te10  1  0.55656547  0.35788964  0.91720260  1
  Te  Te11  1  0.05656547  0.14211036  0.58279740  1
  N  N0  1  0.54994333  0.02349752  0.62327230  1
  N  N1  1  0.04994333  0.47650248  0.87672770  1
  N  N2  1  0.45005667  0.97650248  0.12327230  1
  N  N3  1  0.95005667  0.52349752  0.37672770  1
  N  N4  1  0.45005667  0.97650248  0.37672770  1
  N  N5  1  0.95005667  0.52349752  0.12327230  1
  N  N6  1  0.54994333  0.02349752  0.87672770  1
  N  N7  1  0.04994333  0.47650248  0.62327230  1
loop_
_geom_bond_atom_site_label_1
_geom_bond_atom_site_label_2
_geom_bond_distance
_geom_bond_site_symmetry_2
Te0 Y4 3.035176 1_555
Te0 Y5 3.113164 1_655
Te0 Y14 3.173201 1_555
Te0 Y8 3.173201 1_555
Te0 Y15 3.728086 1_655
Te0 Y9 3.728086 1_655
Te1 Y5 3.035176 1_555
Te1 Y4 3.113164 1_555
Te1 Y15 3.173201 1_555
Te1 Y9 3.173201 1_555
Te1 Y14 3.728086 1_555
Te1 Y8 3.728086 1_555
Te2 Y6 3.035176 1_555
Te2 Y7 3.113164 1_455
Te2 Y12 3.173201 1_555
Te2 Y10 3.173201 1_555
Te2 Y13 3.728086 1_455
Te2 Y11 3.728086 1_455
Te3 Y7 3.035176 1_555
Te3 Y6 3.113164 1_555
Te3 Y13 3.173201 1_555
Te3 Y11 3.173201 1_555
Te3 Y10 3.728086 1_555
Te3 Y12 3.728086 1_555
Te4 Y8 3.163995 1_555
Te4 Y3 3.166258 1_555
Te4 Y2 3.237534 1_555
Te4 Y15 3.301390 1_555
Te4 Y11 3.522098 1_555
Te4 Y6 3.523508 1_555
Te5 Y9 3.163995 1_556
Te5 Y2 3.166258 1_555
Te5 Y3 3.237534 1_455
Te5 Y14 3.301390 1_456
Te5 Y10 3.522098 1_545
Te5 Y7 3.523508 1_445
Te6 Y10 3.163995 1_554
Te6 Y1 3.166258 1_555
Te6 Y0 3.237534 1_555
Te6 Y13 3.301390 1_554
Te6 Y9 3.522098 1_555
Te6 Y4 3.523508 1_555
Te7 Y11 3.163995 1_555
Te7 Y0 3.166258 1_555
Te7 Y1 3.237534 1_655
Te7 Y12 3.301390 1_655
Te7 Y8 3.522098 1_565
Te7 Y5 3.523508 1_665
Te8 Y12 3.163995 1_555
Te8 Y1 3.166258 1_555
Te8 Y0 3.237534 1_555
Te8 Y11 3.301390 1_555
Te8 Y15 3.522098 1_555
Te8 Y4 3.523508 1_555
Te9 Y13 3.163995 1_554
Te9 Y0 3.166258 1_555
Te9 Y1 3.237534 1_655
Te9 Y10 3.301390 1_654
Te9 Y14 3.522098 1_565
Te9 Y5 3.523508 1_665
Te10 Y14 3.163995 1_556
Te10 Y3 3.166258 1_555
Te10 Y2 3.237534 1_555
Te10 Y9 3.301390 1_556
Te10 Y13 3.522098 1_555
Te10 Y6 3.523508 1_555
Te11 Y15 3.163995 1_555
Te11 Y2 3.166258 1_555
Te11 Y3 3.237534 1_455
Te11 Y8 3.301390 1_455
Te11 Y12 3.522098 1_545
Te11 Y7 3.523508 1_445
N0 Y7 2.209920 1_545
N0 Y8 2.217512 1_555
N0 Y12 2.237609 1_545
N0 Y2 2.249991 1_555
N1 Y6 2.209920 1_555
N1 Y9 2.217512 1_556
N1 Y13 2.237609 1_455
N1 Y3 2.249991 1_455
N2 Y5 2.209920 1_565
N2 Y10 2.217512 1_554
N2 Y14 2.237609 1_565
N2 Y0 2.249991 1_555
N3 Y4 2.209920 1_555
N3 Y11 2.217512 1_555
N3 Y15 2.237609 1_655
N3 Y1 2.249991 1_655
N4 Y5 2.209920 1_565
N4 Y12 2.217512 1_555
N4 Y8 2.237609 1_565
N4 Y0 2.249991 1_555
N5 Y4 2.209920 1_555
N5 Y13 2.217512 1_554
N5 Y9 2.237609 1_655
N5 Y1 2.249991 1_655
N6 Y7 2.209920 1_545
N6 Y14 2.217512 1_556
N6 Y10 2.237609 1_545
N6 Y2 2.249991 1_555
N7 Y6 2.209920 1_555
N7 Y15 2.217512 1_555
N7 Y11 2.237609 1_455
N7 Y3 2.249991 1_455
