# generated using pymatgen
data_Li6V3P8O29
_symmetry_space_group_name_H-M   'P 1'
_cell_length_a   9.82954800
_cell_length_b   9.84160627
_cell_length_c   13.92284695
_cell_angle_alpha   89.99928748
_cell_angle_beta   90.15200048
_cell_angle_gamma   119.94856570
_symmetry_Int_Tables_number   1
_chemical_formula_structural   Li6V3P8O29
_chemical_formula_sum   'Li12 V6 P16 O58'
_cell_volume   1167.02737739
_cell_formula_units_Z   2
loop_
 _symmetry_equiv_pos_site_id
 _symmetry_equiv_pos_as_xyz
  1  'x, y, z'
loop_
 _atom_site_type_symbol
 _atom_site_label
 _atom_site_symmetry_multiplicity
 _atom_site_fract_x
 _atom_site_fract_y
 _atom_site_fract_z
 _atom_site_occupancy
  Li  Li0  1  0.09439500  0.77568700  0.93741500  1
  Li  Li1  1  0.09416200  0.32141000  0.44015800  1
  Li  Li2  1  0.33371500  0.66722300  0.11772100  1
  Li  Li3  1  0.22579000  0.31891300  0.93700900  1
  Li  Li4  1  0.68059900  0.90720300  0.93712400  1
  Li  Li5  1  0.32225700  0.22452500  0.55848700  1
  Li  Li6  1  0.68029600  0.77190700  0.43978200  1
  Li  Li7  1  0.32469400  0.09626700  0.06121500  1
  Li  Li8  1  0.77351100  0.67806100  0.06009400  1
  Li  Li9  1  0.91034600  0.68169600  0.55949200  1
  Li  Li10  1  0.77138700  0.09508800  0.56044000  1
  Li  Li11  1  0.90459400  0.22626400  0.05943200  1
  V  V0  1  0.43241400  0.43127400  0.74921200  1
  V  V1  1  0.56604400  0.56548000  0.25029900  1
  V  V2  1  0.42974700  0.00032300  0.25526600  1
  V  V3  1  0.56601400  0.00024000  0.74789500  1
  V  V4  1  0.00058500  0.56876100  0.74912300  1
  V  V5  1  0.99779600  0.43452300  0.25110100  1
  P  P0  1  0.08947600  0.77037200  0.15958000  1
  P  P1  1  0.23052700  0.91449800  0.65800800  1
  P  P2  1  0.08782300  0.32020800  0.65841500  1
  P  P3  1  0.33389200  0.66651600  0.87464700  1
  P  P4  1  0.33232800  0.66551600  0.37241900  1
  P  P5  1  0.22825800  0.31830300  0.15723300  1
  P  P6  1  0.31976000  0.23201800  0.34146500  1
  P  P7  1  0.67899900  0.91081300  0.15756400  1
  P  P8  1  0.32070600  0.08774300  0.84294300  1
  P  P9  1  0.67940200  0.76716600  0.65862200  1
  P  P10  1  0.76763500  0.67894200  0.84214300  1
  P  P11  1  0.66718300  0.33399400  0.62723700  1
  P  P12  1  0.66559500  0.33321400  0.12733200  1
  P  P13  1  0.91262900  0.68218200  0.34444200  1
  P  P14  1  0.76871000  0.08752700  0.34248000  1
  P  P15  1  0.91105400  0.23254900  0.84133900  1
  O  O0  1  0.99605000  0.75765900  0.43501300  1
  O  O1  1  0.08516800  0.74723500  0.65947200  1
  O  O2  1  0.24160800  0.00306700  0.93425700  1
  O  O3  1  0.25460800  0.91905000  0.15885900  1
  O  O4  1  0.11141000  0.62557100  0.17358700  1
  O  O5  1  0.18775700  0.67534300  0.83612600  1
  O  O6  1  0.09857400  0.47972600  0.67648200  1
  O  O7  1  0.99838800  0.23856200  0.93181200  1
  O  O8  1  0.07901200  0.33186300  0.15612800  1
  O  O9  1  0.32797200  0.80780000  0.32707100  1
  O  O10  1  0.38188900  0.90427600  0.67664000  1
  O  O11  1  0.18240100  0.51208200  0.33075700  1
  O  O12  1  0.33302200  0.66568000  0.98345400  1
  O  O13  1  0.33610000  0.66083400  0.47916200  1
  O  O14  1  0.32469500  0.51189700  0.83611400  1
  O  O15  1  0.51464300  0.89199800  0.17310900  1
  O  O16  1  0.48744500  0.81228200  0.83639700  1
  O  O17  1  0.25239500  0.33627700  0.65867800  1
  O  O18  1  0.20990300  0.21117600  0.24904300  1
  O  O19  1  0.24031900  0.24248200  0.43083000  1
  O  O20  1  0.24458200  0.24206400  0.06758600  1
  O  O21  1  0.37208800  0.48469100  0.17357500  1
  O  O22  1  0.48386600  0.66597300  0.32995300  1
  O  O23  1  0.33579700  0.25293500  0.83938600  1
  O  O24  1  0.51973600  0.61813100  0.67730900  1
  O  O25  1  0.66387000  0.91573400  0.65853200  1
  O  O26  1  0.20714100  0.99420800  0.75428800  1
  O  O27  1  0.23929700  0.00757100  0.57245400  1
  O  O28  1  0.75575800  0.99666500  0.43221300  1
  O  O29  1  0.34004400  0.08678500  0.33833700  1
  O  O30  1  0.47882900  0.38176800  0.32574200  1
  O  O31  1  0.66416400  0.74706900  0.15629000  1
  O  O32  1  0.51248500  0.32580100  0.66747000  1
  O  O33  1  0.62020800  0.52065000  0.82556100  1
  O  O34  1  0.76145600  0.76050900  0.93226700  1
  O  O35  1  0.75678200  0.75535200  0.56859200  1
  O  O36  1  0.78940500  0.78948400  0.75053300  1
  O  O37  1  0.74851700  0.66737600  0.33846800  1
  O  O38  1  0.51558500  0.18671100  0.16714500  1
  O  O39  1  0.47949400  0.10001000  0.82557700  1
  O  O40  1  0.66900800  0.48649000  0.16757300  1
  O  O41  1  0.67149300  0.33663600  0.02014600  1
  O  O42  1  0.66691100  0.33379000  0.51987300  1
  O  O43  1  0.81347900  0.48841100  0.66775900  1
  O  O44  1  0.62135800  0.09993100  0.32273400  1
  O  O45  1  0.67481100  0.18658900  0.66677200  1
  O  O46  1  0.91748800  0.66395300  0.84031700  1
  O  O47  1  0.00177800  0.78963300  0.25036300  1
  O  O48  1  0.99971400  0.75727200  0.06882900  1
  O  O49  1  0.90113600  0.52179200  0.32556000  1
  O  O50  1  0.81796600  0.33408200  0.16895200  1
  O  O51  1  0.90121900  0.38066100  0.82461600  1
  O  O52  1  0.74618600  0.08323500  0.83872600  1
  O  O53  1  0.75826000  0.00210500  0.06811300  1
  O  O54  1  0.78713800  0.99820000  0.24980000  1
  O  O55  1  0.91734200  0.25009100  0.34227100  1
  O  O56  1  0.99856800  0.24165800  0.56818800  1
  O  O57  1  0.00030100  0.21055800  0.75006500  1
loop_
_geom_bond_atom_site_label_1
_geom_bond_atom_site_label_2
_geom_bond_distance
_geom_bond_site_symmetry_2
Li0 O2 1.967420 1_565
Li0 O48 2.021697 1_456
Li0 O46 2.034447 1_455
Li0 O5 2.172085 1_555
Li1 O19 1.949219 1_555
Li1 O56 1.987190 1_455
Li1 O55 2.034781 1_455
Li1 O11 2.230593 1_555
Li2 O12 1.869407 1_554
Li2 O21 2.156161 1_555
Li2 O4 2.159306 1_555
Li2 O15 2.171599 1_555
Li3 O7 1.965005 1_455
Li3 O20 2.012199 1_556
Li3 O23 2.036452 1_555
Li3 O14 2.165479 1_555
Li4 O34 1.966338 1_555
Li4 O53 2.015411 1_566
Li4 O52 2.045309 1_565
Li4 O16 2.158517 1_555
Li5 O27 1.877273 1_555
Li5 O19 1.993340 1_555
Li5 O17 2.094337 1_555
Li5 O32 2.217280 1_555
Li6 O28 1.953554 1_555
Li6 O35 1.980711 1_555
Li6 O37 2.047338 1_555
Li6 O22 2.264453 1_555
Li7 O20 1.953298 1_555
Li7 O2 1.969068 1_554
Li7 O3 2.042039 1_545
Li7 O38 2.192262 1_555
Li8 O48 1.958129 1_555
Li8 O34 1.983602 1_554
Li8 O31 2.036366 1_555
Li8 O40 2.218885 1_555
Li9 O0 1.910793 1_555
Li9 O35 1.978263 1_555
Li9 O1 2.046301 1_655
Li9 O43 2.235273 1_555
Li10 O56 1.965100 1_555
Li10 O28 1.999780 1_545
Li10 O25 2.059813 1_545
Li10 O45 2.182850 1_555
Li11 O53 1.945001 1_555
Li11 O7 1.979661 1_554
Li11 O8 2.010145 1_655
Li11 O50 2.255036 1_555
O0 P13 1.483468 1_555
O1 P1 1.550316 1_555
O1 V4 1.970229 1_555
O2 P8 1.507848 1_555
O3 P0 1.550657 1_555
O3 V2 2.004507 1_565
O4 P0 1.556243 1_555
O4 V5 1.963911 1_455
O5 P3 1.574501 1_555
O5 V4 2.003464 1_555
O6 P2 1.540549 1_555
O6 V4 1.888459 1_555
O7 P15 1.506879 1_555
O8 P5 1.538034 1_555
O8 V5 2.053657 1_455
O9 P4 1.555961 1_555
O9 V2 1.924317 1_565
O10 P1 1.561543 1_555
O10 V3 1.853546 1_565
O11 P4 1.600654 1_555
O11 V5 1.926585 1_455
O12 P3 1.514949 1_555
O13 P4 1.487817 1_555
O14 P3 1.572887 1_555
O14 V0 2.015010 1_555
O15 P7 1.547348 1_555
O15 V2 2.008654 1_565
O16 P3 1.569106 1_555
O16 V3 2.028587 1_565
O17 P2 1.544803 1_555
O17 V0 1.982545 1_555
O18 P5 1.609134 1_555
O18 P6 1.623397 1_555
O19 P6 1.501294 1_555
O20 P5 1.505944 1_555
O21 P5 1.555262 1_555
O21 V1 1.970718 1_555
O22 P4 1.601979 1_555
O22 V1 1.913892 1_555
O23 P8 1.557815 1_555
O23 V0 1.975016 1_555
O24 P9 1.544652 1_555
O24 V0 1.883949 1_555
O25 P9 1.544043 1_555
O25 V3 1.992486 1_565
O26 P8 1.607418 1_565
O26 P1 1.626921 1_555
O27 P1 1.478849 1_545
O28 P14 1.504608 1_565
O29 P6 1.539224 1_555
O29 V2 1.895729 1_555
O30 P6 1.538098 1_555
O30 V1 1.887944 1_555
O31 P7 1.543983 1_555
O31 V1 2.030484 1_555
O32 P11 1.585760 1_555
O32 V0 1.952611 1_555
O33 P10 1.524599 1_555
O33 V0 1.918221 1_555
O34 P10 1.507212 1_555
O35 P9 1.502200 1_555
O36 P9 1.615699 1_555
O36 P10 1.620230 1_555
O37 P13 1.547575 1_555
O37 V1 1.980434 1_555
O38 P12 1.562680 1_555
O38 V2 2.010512 1_555
O39 P8 1.524152 1_555
O39 V3 1.922451 1_555
O40 P12 1.593718 1_555
O40 V1 1.935724 1_555
O41 P12 1.493340 1_555
O42 P11 1.494807 1_555
O43 P11 1.584131 1_555
O43 V4 1.956528 1_655
O44 P14 1.537134 1_555
O44 V2 1.880932 1_555
O45 P11 1.587926 1_555
O45 V3 1.957275 1_555
O46 P10 1.552175 1_555
O46 V4 1.981538 1_655
O47 P0 1.595481 1_555
O47 P13 1.637896 1_455
O48 P0 1.507344 1_655
O49 P13 1.547685 1_555
O49 V5 1.880188 1_555
O50 P12 1.600530 1_555
O50 V5 1.911693 1_555
O51 P15 1.526073 1_555
O51 V4 1.919847 1_655
O52 P15 1.552084 1_555
O52 V3 1.986642 1_555
O53 P7 1.507149 1_545
O54 P7 1.612048 1_555
O54 P14 1.622030 1_565
O55 P14 1.536352 1_555
O55 V5 2.025667 1_555
O56 P2 1.504134 1_655
O57 P2 1.616091 1_555
O57 P15 1.620749 1_455
