# generated using pymatgen
data_NdGePd2
_symmetry_space_group_name_H-M   'P 1'
_cell_length_a   5.73758105
_cell_length_b   7.61818496
_cell_length_c   7.03674758
_cell_angle_alpha   90.00000000
_cell_angle_beta   90.00000000
_cell_angle_gamma   90.00000000
_symmetry_Int_Tables_number   1
_chemical_formula_structural   NdGePd2
_chemical_formula_sum   'Nd4 Ge4 Pd8'
_cell_volume   307.57591065
_cell_formula_units_Z   4
loop_
 _symmetry_equiv_pos_site_id
 _symmetry_equiv_pos_as_xyz
  1  'x, y, z'
loop_
 _atom_site_type_symbol
 _atom_site_label
 _atom_site_symmetry_multiplicity
 _atom_site_fract_x
 _atom_site_fract_y
 _atom_site_fract_z
 _atom_site_occupancy
  Nd  Nd0  1  0.85037542  0.53232358  0.25000000  1
  Nd  Nd1  1  0.64962458  0.03232358  0.25000000  1
  Nd  Nd2  1  0.14962458  0.46767642  0.75000000  1
  Nd  Nd3  1  0.35037542  0.96767642  0.75000000  1
  Ge  Ge0  1  0.15038075  0.87703619  0.25000000  1
  Ge  Ge1  1  0.34961925  0.37703619  0.25000000  1
  Ge  Ge2  1  0.84961925  0.12296381  0.75000000  1
  Ge  Ge3  1  0.65038075  0.62296381  0.75000000  1
  Pd  Pd0  1  0.41162391  0.67763674  0.05231584  1
  Pd  Pd1  1  0.08837609  0.17763674  0.44768416  1
  Pd  Pd2  1  0.58837609  0.32236326  0.55231584  1
  Pd  Pd3  1  0.91162391  0.82236326  0.94768416  1
  Pd  Pd4  1  0.58837609  0.32236326  0.94768416  1
  Pd  Pd5  1  0.91162391  0.82236326  0.55231584  1
  Pd  Pd6  1  0.41162391  0.67763674  0.44768416  1
  Pd  Pd7  1  0.08837609  0.17763674  0.05231584  1
loop_
_geom_bond_atom_site_label_1
_geom_bond_atom_site_label_2
_geom_bond_distance
_geom_bond_site_symmetry_2
Nd0 Pd4 3.056744 1_554
Nd0 Pd2 3.056744 1_555
Nd0 Pd0 3.081833 1_555
Nd0 Pd6 3.081833 1_555
Nd0 Pd5 3.087266 1_555
Nd0 Pd3 3.087266 1_554
Nd0 Pd7 3.331806 1_655
Nd0 Pd1 3.331806 1_655
Nd0 Pd0 3.678352 1_655
Nd0 Pd6 3.678352 1_655
Nd1 Pd3 3.056744 1_544
Nd1 Pd5 3.056744 1_545
Nd1 Pd1 3.081833 1_655
Nd1 Pd7 3.081833 1_655
Nd1 Pd4 3.087266 1_554
Nd1 Pd2 3.087266 1_555
Nd1 Pd0 3.331806 1_545
Nd1 Pd6 3.331806 1_545
Nd1 Pd1 3.678352 1_555
Nd1 Pd7 3.678352 1_555
Nd2 Pd0 3.056744 1_556
Nd2 Pd6 3.056744 1_555
Nd2 Pd4 3.081833 1_555
Nd2 Pd2 3.081833 1_555
Nd2 Pd7 3.087266 1_556
Nd2 Pd1 3.087266 1_555
Nd2 Pd3 3.331806 1_455
Nd2 Pd5 3.331806 1_455
Nd2 Pd4 3.678352 1_455
Nd2 Pd2 3.678352 1_455
Nd3 Pd7 3.056744 1_566
Nd3 Pd1 3.056744 1_565
Nd3 Pd5 3.081833 1_455
Nd3 Pd3 3.081833 1_455
Nd3 Pd0 3.087266 1_556
Nd3 Pd6 3.087266 1_555
Nd3 Pd4 3.331806 1_565
Nd3 Pd2 3.331806 1_565
Nd3 Pd5 3.678352 1_555
Nd3 Pd3 3.678352 1_555
Ge0 Pd6 2.547409 1_555
Ge0 Pd0 2.547409 1_555
Ge0 Pd3 2.564286 1_454
Ge0 Pd5 2.564286 1_455
Ge0 Pd7 2.702930 1_565
Ge0 Pd1 2.702930 1_565
Ge0 Nd1 3.099128 1_565
Ge0 Nd1 3.107150 1_465
Ge0 Nd0 3.139938 1_455
Ge1 Pd1 2.547409 1_555
Ge1 Pd7 2.547409 1_555
Ge1 Pd4 2.564286 1_554
Ge1 Pd2 2.564286 1_555
Ge1 Pd0 2.702930 1_555
Ge1 Pd6 2.702930 1_555
Ge1 Nd0 3.099128 1_455
Ge1 Nd0 3.107150 1_555
Ge1 Nd1 3.139938 1_555
Ge2 Pd4 2.547409 1_555
Ge2 Pd2 2.547409 1_555
Ge2 Pd7 2.564286 1_656
Ge2 Pd1 2.564286 1_655
Ge2 Pd3 2.702930 1_545
Ge2 Pd5 2.702930 1_545
Ge2 Nd3 3.099128 1_545
Ge2 Nd3 3.107150 1_645
Ge2 Nd2 3.139938 1_655
Ge3 Pd5 2.547409 1_555
Ge3 Pd3 2.547409 1_555
Ge3 Pd0 2.564286 1_556
Ge3 Pd6 2.564286 1_555
Ge3 Pd2 2.702930 1_555
Ge3 Pd4 2.702930 1_555
Ge3 Nd2 3.099128 1_655
Ge3 Nd2 3.107150 1_555
Ge3 Nd3 3.139938 1_555
Pd0 Pd6 2.782107 1_555
Pd0 Pd4 2.982600 1_554
Pd0 Pd3 3.160328 1_554
Pd0 Pd3 3.160328 1_454
Pd1 Pd7 2.782107 1_555
Pd1 Pd5 2.982600 1_445
Pd1 Pd2 3.160328 1_455
Pd1 Pd2 3.160328 1_555
Pd2 Pd4 2.782107 1_555
Pd2 Pd6 2.982600 1_555
Pd3 Pd5 2.782107 1_555
Pd3 Pd7 2.982600 1_666
Pd4 Pd7 3.160328 1_656
Pd4 Pd7 3.160328 1_556
Pd5 Pd6 3.160328 1_655
Pd5 Pd6 3.160328 1_555
