# generated using pymatgen
data_Li6V3P8O29
_symmetry_space_group_name_H-M   'P 1'
_cell_length_a   9.77236500
_cell_length_b   9.79924723
_cell_length_c   14.00852486
_cell_angle_alpha   89.90562059
_cell_angle_beta   89.88595664
_cell_angle_gamma   60.49732091
_symmetry_Int_Tables_number   1
_chemical_formula_structural   Li6V3P8O29
_chemical_formula_sum   'Li12 V6 P16 O58'
_cell_volume   1167.53282005
_cell_formula_units_Z   2
loop_
 _symmetry_equiv_pos_site_id
 _symmetry_equiv_pos_as_xyz
  1  'x, y, z'
loop_
 _atom_site_type_symbol
 _atom_site_label
 _atom_site_symmetry_multiplicity
 _atom_site_fract_x
 _atom_site_fract_y
 _atom_site_fract_z
 _atom_site_occupancy
  Li  Li0  1  0.23840500  0.09682200  0.55933200  1
  Li  Li1  1  0.09979800  0.66343000  0.56304600  1
  Li  Li2  1  0.23481500  0.66508200  0.06003500  1
  Li  Li3  1  0.66948200  0.09572700  0.05773400  1
  Li  Li4  1  0.67044300  0.23416700  0.55925500  1
  Li  Li5  1  0.32295000  0.91038700  0.93902100  1
  Li  Li6  1  0.76588400  0.32355600  0.93775500  1
  Li  Li7  1  0.67426900  0.66169100  0.11017900  1
  Li  Li8  1  0.90684400  0.33196500  0.43692400  1
  Li  Li9  1  0.76516600  0.90383100  0.44165100  1
  Li  Li10  1  0.99908000  0.99979200  0.99812700  1
  Li  Li11  1  0.05605100  0.95713600  0.49210300  1
  V  V0  1  0.43628200  0.56502600  0.25626700  1
  V  V1  1  0.55972800  0.44100000  0.74800900  1
  V  V2  1  0.43348700  0.00201700  0.75137300  1
  V  V3  1  0.56076100  0.99934900  0.25001600  1
  V  V4  1  0.00466000  0.43639100  0.24431900  1
  V  V5  1  0.99777000  0.56574600  0.75390500  1
  P  P0  1  0.08266700  0.22072900  0.84095600  1
  P  P1  1  0.22108900  0.08766100  0.34111100  1
  P  P2  1  0.08237000  0.69039200  0.34485900  1
  P  P3  1  0.33943500  0.33282700  0.13083200  1
  P  P4  1  0.33235100  0.33452300  0.63114900  1
  P  P5  1  0.22588200  0.68768300  0.84342900  1
  P  P6  1  0.30527300  0.78096500  0.65986200  1
  P  P7  1  0.68800300  0.08959300  0.84412500  1
  P  P8  1  0.31023700  0.90792000  0.15726300  1
  P  P9  1  0.68669100  0.22609500  0.34286500  1
  P  P10  1  0.77465200  0.31660700  0.15787600  1
  P  P11  1  0.67274400  0.66375200  0.36833600  1
  P  P12  1  0.66279600  0.66773200  0.86981300  1
  P  P13  1  0.91607300  0.31226900  0.65482900  1
  P  P14  1  0.77379800  0.91257800  0.66086800  1
  P  P15  1  0.91142700  0.78326500  0.15907800  1
  O  O0  1  0.00173600  0.22984900  0.56427700  1
  O  O1  1  0.08158900  0.25619300  0.33544200  1
  O  O2  1  0.22952700  0.98841000  0.06686600  1
  O  O3  1  0.25488700  0.08100100  0.84009200  1
  O  O4  1  0.08149700  0.37690200  0.83308700  1
  O  O5  1  0.19086100  0.33460000  0.17458100  1
  O  O6  1  0.07625000  0.53766100  0.33221300  1
  O  O7  1  0.01115500  0.78836600  0.07962600  1
  O  O8  1  0.08628700  0.65618900  0.83453900  1
  O  O9  1  0.32310300  0.18972300  0.67242100  1
  O  O10  1  0.38041800  0.08396400  0.33108900  1
  O  O11  1  0.18823500  0.48828900  0.66870100  1
  O  O12  1  0.34715900  0.33491200  0.02506400  1
  O  O13  1  0.34166000  0.32778600  0.52452300  1
  O  O14  1  0.34014600  0.47992900  0.17458200  1
  O  O15  1  0.53282300  0.08756700  0.83062100  1
  O  O16  1  0.48720900  0.18075200  0.17235800  1
  O  O17  1  0.25016900  0.66082200  0.33868300  1
  O  O18  1  0.20725500  0.80424700  0.75775000  1
  O  O19  1  0.19873100  0.79321000  0.57920900  1
  O  O20  1  0.21909700  0.77365300  0.93438400  1
  O  O21  1  0.38054900  0.53281300  0.83170100  1
  O  O22  1  0.48697000  0.32805400  0.67330900  1
  O  O23  1  0.33281100  0.74086100  0.16140700  1
  O  O24  1  0.52867900  0.37785000  0.33252400  1
  O  O25  1  0.66577900  0.08023500  0.34209700  1
  O  O26  1  0.20419500  0.99824300  0.24889800  1
  O  O27  1  0.20908800  0.01122100  0.43156200  1
  O  O28  1  0.77204700  0.00045200  0.57121600  1
  O  O29  1  0.33620000  0.92155200  0.65880000  1
  O  O30  1  0.46004100  0.62486500  0.66669100  1
  O  O31  1  0.66198500  0.25784200  0.83709100  1
  O  O32  1  0.52283900  0.66699400  0.32386800  1
  O  O33  1  0.62371500  0.47834100  0.16870200  1
  O  O34  1  0.77237800  0.22761100  0.07030900  1
  O  O35  1  0.77657800  0.22651500  0.43077700  1
  O  O36  1  0.79184600  0.20930800  0.24967400  1
  O  O37  1  0.74713300  0.33964500  0.65558000  1
  O  O38  1  0.50701900  0.81259200  0.83453800  1
  O  O39  1  0.47627300  0.89348100  0.17097400  1
  O  O40  1  0.66782500  0.51501300  0.82676500  1
  O  O41  1  0.66207700  0.65682700  0.97705200  1
  O  O42  1  0.67726800  0.66462500  0.47434900  1
  O  O43  1  0.81572500  0.51318900  0.32517900  1
  O  O44  1  0.61739100  0.91068400  0.67420600  1
  O  O45  1  0.67509400  0.81299100  0.32590000  1
  O  O46  1  0.91632300  0.34341400  0.15817300  1
  O  O47  1  0.00841600  0.19808100  0.74218700  1
  O  O48  1  0.99185500  0.20182300  0.92129900  1
  O  O49  1  0.91764200  0.46742900  0.67204600  1
  O  O50  1  0.80417600  0.67426500  0.82589500  1
  O  O51  1  0.89884000  0.63057200  0.16654300  1
  O  O52  1  0.74156200  0.92239100  0.15515900  1
  O  O53  1  0.77512600  0.01396200  0.93435300  1
  O  O54  1  0.79677700  0.99794900  0.75217400  1
  O  O55  1  0.91646900  0.74520900  0.66013500  1
  O  O56  1  0.00144000  0.77780100  0.43593700  1
  O  O57  1  0.98181400  0.80492800  0.25857700  1
loop_
_geom_bond_atom_site_label_1
_geom_bond_atom_site_label_2
_geom_bond_distance
_geom_bond_site_symmetry_2
Li0 O0 2.020740 1_555
Li0 O29 2.045851 1_545
Li0 O27 2.057432 1_555
Li0 O9 2.185334 1_555
Li1 O19 1.953497 1_555
Li1 O55 2.069179 1_455
Li1 O56 2.071173 1_555
Li1 O11 2.102109 1_555
Li2 O7 1.926142 1_555
Li2 O20 2.021808 1_554
Li2 O23 2.048030 1_555
Li2 O14 2.254735 1_555
Li3 O53 1.969230 1_554
Li3 O34 1.998432 1_555
Li3 O52 2.015360 1_545
Li3 O16 2.230832 1_555
Li4 O28 2.004690 1_555
Li4 O37 2.054843 1_555
Li4 O35 2.058405 1_555
Li4 O22 2.232181 1_555
Li5 O2 1.983925 1_556
Li5 O3 2.014686 1_565
Li5 O20 2.041916 1_555
Li5 O38 2.143036 1_555
Li6 O48 1.938284 1_555
Li6 O31 2.021578 1_555
Li6 O34 2.066872 1_556
Li6 O40 2.254142 1_555
Li7 O41 1.871133 1_554
Li7 O51 2.208984 1_555
Li7 O33 2.238762 1_555
Li7 O39 2.302046 1_555
Li8 O35 1.998018 1_555
Li8 O0 2.032426 1_655
Li8 O1 2.057525 1_655
Li8 O43 2.199070 1_555
Li9 O56 2.013434 1_655
Li9 O25 2.054318 1_565
Li9 O28 2.064972 1_565
Li9 O45 2.231278 1_555
Li10 O48 2.222233 1_565
Li10 O53 2.305486 1_565
Li10 O7 2.315541 1_656
Li10 O20 2.374227 1_655
Li10 O2 2.402524 1_656
Li10 O34 2.457970 1_566
Li11 O19 1.951346 1_555
Li11 O27 2.002727 1_565
Li11 O56 2.218579 1_555
O0 P13 1.515061 1_455
O1 P1 1.541007 1_555
O1 V4 2.000399 1_555
O2 P8 1.495243 1_555
O3 P0 1.561316 1_555
O3 V2 1.963138 1_555
O4 P0 1.528579 1_555
O4 V5 1.957000 1_455
O5 P3 1.567040 1_555
O5 V4 1.862480 1_555
O6 P2 1.537528 1_555
O6 V4 1.918727 1_555
O7 P15 1.494845 1_455
O8 P5 1.545053 1_555
O8 V5 1.889956 1_455
O9 P4 1.574546 1_555
O9 V2 1.952936 1_555
O10 P1 1.545615 1_555
O10 V3 1.907666 1_545
O11 P4 1.562100 1_555
O11 V5 2.016888 1_455
O12 P3 1.484044 1_555
O13 P4 1.495848 1_555
O14 P3 1.570460 1_555
O14 V0 1.914786 1_555
O15 P7 1.538404 1_555
O15 V2 1.920016 1_555
O16 P3 1.589174 1_555
O16 V3 1.896921 1_545
O17 P2 1.520492 1_555
O17 V0 1.958485 1_555
O18 P5 1.603115 1_555
O18 P6 1.621880 1_555
O19 P6 1.502042 1_555
O20 P5 1.511864 1_555
O21 P5 1.534680 1_555
O21 V1 1.921891 1_555
O22 P4 1.595311 1_555
O22 V1 1.899319 1_555
O23 P8 1.541435 1_555
O23 V0 2.009719 1_555
O24 P9 1.534703 1_555
O24 V0 1.920123 1_555
O25 P9 1.540319 1_555
O25 V3 2.038432 1_545
O26 P8 1.612498 1_555
O26 P1 1.615784 1_565
O27 P1 1.504376 1_555
O28 P14 1.516925 1_545
O29 P6 1.549026 1_555
O29 V2 1.988452 1_565
O30 P6 1.535561 1_555
O30 V1 1.939544 1_555
O31 P7 1.542497 1_555
O31 V1 2.002069 1_555
O32 P11 1.578858 1_555
O32 V0 1.857274 1_555
O33 P10 1.551743 1_555
O33 V0 2.010790 1_555
O34 P10 1.512785 1_555
O35 P9 1.515301 1_555
O36 P10 1.615505 1_555
O36 P9 1.617458 1_555
O37 P13 1.536690 1_555
O37 V1 2.054313 1_555
O38 P12 1.564912 1_555
O38 V2 2.000414 1_565
O39 P8 1.569923 1_555
O39 V3 1.958326 1_555
O40 P12 1.592512 1_555
O40 V1 1.902886 1_555
O41 P12 1.506128 1_555
O42 P11 1.485996 1_555
O43 P11 1.569643 1_555
O43 V4 1.970873 1_655
O44 P14 1.548631 1_555
O44 V2 1.900170 1_565
O45 P11 1.588326 1_555
O45 V3 1.924052 1_555
O46 P10 1.531007 1_555
O46 V4 1.952968 1_655
O47 P13 1.602914 1_455
O47 P0 1.629033 1_555
O48 P0 1.498626 1_655
O49 P13 1.547372 1_555
O49 V5 1.899100 1_555
O50 P12 1.541126 1_555
O50 V5 1.934285 1_555
O51 P15 1.563847 1_555
O51 V4 1.984133 1_655
O52 P15 1.545427 1_555
O52 V3 2.034161 1_555
O53 P7 1.500486 1_555
O54 P14 1.604985 1_555
O54 P7 1.629033 1_565
O55 P14 1.543270 1_555
O55 V5 2.017373 1_555
O56 P2 1.522946 1_555
O57 P2 1.612522 1_655
O57 P15 1.615419 1_555
