# generated using pymatgen
data_UTeO5
_symmetry_space_group_name_H-M   'P 1'
_cell_length_a   10.43071200
_cell_length_b   5.55952100
_cell_length_c   7.85257000
_cell_angle_alpha   90.00000000
_cell_angle_beta   90.00000000
_cell_angle_gamma   90.00000000
_symmetry_Int_Tables_number   1
_chemical_formula_structural   UTeO5
_chemical_formula_sum   'U4 Te4 O20'
_cell_volume   455.36866860
_cell_formula_units_Z   4
loop_
 _symmetry_equiv_pos_site_id
 _symmetry_equiv_pos_as_xyz
  1  'x, y, z'
loop_
 _atom_site_type_symbol
 _atom_site_label
 _atom_site_symmetry_multiplicity
 _atom_site_fract_x
 _atom_site_fract_y
 _atom_site_fract_z
 _atom_site_occupancy
  U  U0  1  0.51493600  0.96792000  0.00687900  1
  U  U1  1  0.48506400  0.03208000  0.50687900  1
  U  U2  1  0.98506400  0.96792000  0.50687900  1
  U  U3  1  0.01493600  0.03208000  0.00687900  1
  Te  Te0  1  0.74915400  0.64347600  0.25207700  1
  Te  Te1  1  0.25084600  0.35652400  0.75207700  1
  Te  Te2  1  0.75084600  0.64347600  0.75207700  1
  Te  Te3  1  0.24915400  0.35652400  0.25207700  1
  O  O0  1  0.70716000  0.73433600  0.00516100  1
  O  O1  1  0.29284000  0.26566400  0.50516100  1
  O  O2  1  0.79284000  0.73433600  0.50516100  1
  O  O3  1  0.20716000  0.26566400  0.00516100  1
  O  O4  1  0.60300100  0.85258700  0.28415600  1
  O  O5  1  0.39699900  0.14741300  0.78415600  1
  O  O6  1  0.89699900  0.85258700  0.78415600  1
  O  O7  1  0.10300100  0.14741300  0.28415600  1
  O  O8  1  0.89209200  0.86321900  0.22925900  1
  O  O9  1  0.10790800  0.13678100  0.72925900  1
  O  O10  1  0.60790800  0.86321900  0.72925900  1
  O  O11  1  0.39209200  0.13678100  0.22925900  1
  O  O12  1  0.11323500  0.76358900  0.01462500  1
  O  O13  1  0.88676500  0.23641100  0.51462500  1
  O  O14  1  0.38676500  0.76358900  0.51462500  1
  O  O15  1  0.61323500  0.23641100  0.01462500  1
  O  O16  1  0.08484600  0.69758200  0.50384400  1
  O  O17  1  0.91515400  0.30241800  0.00384400  1
  O  O18  1  0.41515400  0.69758200  0.00384400  1
  O  O19  1  0.58484600  0.30241800  0.50384400  1
loop_
_geom_bond_atom_site_label_1
_geom_bond_atom_site_label_2
_geom_bond_distance
_geom_bond_site_symmetry_2
O0 Te0 2.050966 1_555
O0 Te2 2.100572 1_554
O0 U0 2.388879 1_555
O1 Te1 2.050966 1_555
O1 Te3 2.100572 1_555
O1 U1 2.388879 1_555
O2 Te2 2.050966 1_555
O2 Te0 2.100572 1_555
O2 U2 2.388879 1_555
O3 Te3 2.050966 1_555
O3 Te1 2.100572 1_554
O3 U3 2.388879 1_555
O4 Te0 1.933658 1_555
O4 U1 2.359645 1_565
O4 U0 2.448616 1_555
O5 Te1 1.933658 1_555
O5 U0 2.359645 1_546
O5 U1 2.448616 1_555
O6 Te2 1.933658 1_555
O6 U3 2.359645 1_666
O6 U2 2.448616 1_555
O7 Te3 1.933658 1_555
O7 U2 2.359645 1_445
O7 U3 2.448616 1_555
O8 Te0 1.935844 1_555
O8 U3 2.360632 1_665
O8 U2 2.455973 1_555
O9 Te1 1.935844 1_555
O9 U2 2.360632 1_445
O9 U3 2.455973 1_556
O10 Te2 1.935844 1_555
O10 U1 2.360632 1_565
O10 U0 2.455973 1_556
O11 Te3 1.935844 1_555
O11 U0 2.360632 1_545
O11 U1 2.455973 1_555
O12 U3 1.811932 1_565
O13 U2 1.811932 1_545
O14 U1 1.811932 1_565
O15 U0 1.811932 1_545
O16 U2 1.828301 1_455
O17 U3 1.828301 1_655
O18 U0 1.828301 1_555
O19 U1 1.828301 1_555
