# generated using pymatgen
data_HfZrFe4
_symmetry_space_group_name_H-M   'P 1'
_cell_length_a   4.98955962
_cell_length_b   4.98927295
_cell_length_c   4.98955962
_cell_angle_alpha   90.00000000
_cell_angle_beta   60.00000000
_cell_angle_gamma   120.00190070
_symmetry_Int_Tables_number   1
_chemical_formula_structural   HfZrFe4
_chemical_formula_sum   'Hf1 Zr1 Fe4'
_cell_volume   87.82824812
_cell_formula_units_Z   1
loop_
 _symmetry_equiv_pos_site_id
 _symmetry_equiv_pos_as_xyz
  1  'x, y, z'
loop_
 _atom_site_type_symbol
 _atom_site_label
 _atom_site_symmetry_multiplicity
 _atom_site_fract_x
 _atom_site_fract_y
 _atom_site_fract_z
 _atom_site_occupancy
  Hf  Hf0  1  0.49999556  0.74999383  0.75000172  1
  Zr  Zr0  1  0.00000709  0.00001113  0.99999596  1
  Fe  Fe0  1  0.75035395  0.37517646  0.87446755  1
  Fe  Fe1  1  0.24964402  0.37517646  0.37517849  1
  Fe  Fe2  1  0.24964443  0.87446564  0.37517879  1
  Fe  Fe3  1  0.75035395  0.37517646  0.37517849  1
loop_
_geom_bond_atom_site_label_1
_geom_bond_atom_site_label_2
_geom_bond_distance
_geom_bond_site_symmetry_2
Hf0 Zr0 3.055135 1_555
Hf0 Zr0 3.055463 1_664
Hf0 Zr0 3.055463 1_565
Hf0 Zr0 3.055463 1_665
Fe0 Fe2 2.491089 1_655
Fe0 Fe3 2.491233 1_555
Fe0 Fe1 2.491235 1_655
Fe0 Fe2 2.498184 1_546
Fe0 Fe1 2.498325 1_556
Fe0 Fe3 2.498327 1_556
Fe0 Hf0 2.924839 1_545
Fe0 Hf0 2.924932 1_555
Fe0 Hf0 2.924932 1_655
Fe0 Zr0 2.925619 1_665
Fe0 Zr0 2.925672 1_555
Fe0 Zr0 2.925672 1_655
Fe1 Fe2 2.491089 1_555
Fe1 Fe3 2.491238 1_455
Fe1 Fe2 2.498184 1_545
Fe1 Fe3 2.498322 1_555
Fe1 Hf0 2.924839 1_445
Fe1 Hf0 2.924928 1_555
Fe1 Hf0 2.924936 1_554
Fe1 Zr0 2.925619 1_664
Fe1 Zr0 2.925668 1_555
Fe1 Zr0 2.925677 1_554
Fe2 Fe3 2.491094 1_455
Fe2 Fe3 2.498179 1_565
Fe2 Hf0 2.924999 1_555
Fe2 Hf0 2.925011 1_455
Fe2 Hf0 2.925012 1_554
Fe2 Zr0 2.925764 1_565
Fe2 Zr0 2.925764 1_664
Fe2 Zr0 2.925777 1_564
Fe3 Hf0 2.924837 1_545
Fe3 Hf0 2.924930 1_555
Fe3 Hf0 2.924934 1_654
Fe3 Zr0 2.925621 1_664
Fe3 Zr0 2.925670 1_555
Fe3 Zr0 2.925674 1_654
