# generated using pymatgen
data_Sc4Si7Ni
_symmetry_space_group_name_H-M   'P 1'
_cell_length_a   3.66006900
_cell_length_b   3.84392900
_cell_length_c   13.97263600
_cell_angle_alpha   90.00000000
_cell_angle_beta   90.00000000
_cell_angle_gamma   90.00000000
_symmetry_Int_Tables_number   1
_chemical_formula_structural   Sc4Si7Ni
_chemical_formula_sum   'Sc4 Si7 Ni1'
_cell_volume   196.58164984
_cell_formula_units_Z   1
loop_
 _symmetry_equiv_pos_site_id
 _symmetry_equiv_pos_as_xyz
  1  'x, y, z'
loop_
 _atom_site_type_symbol
 _atom_site_label
 _atom_site_symmetry_multiplicity
 _atom_site_fract_x
 _atom_site_fract_y
 _atom_site_fract_z
 _atom_site_occupancy
  Sc  Sc0  1  0.00000000  0.00000000  0.10894200  1
  Sc  Sc1  1  0.00000000  0.50000000  0.59455900  1
  Sc  Sc2  1  0.50000000  0.50000000  0.41462100  1
  Sc  Sc3  1  0.50000000  0.00000000  0.89850000  1
  Si  Si0  1  0.00000000  0.50000000  0.26749100  1
  Si  Si1  1  0.00000000  0.00000000  0.74203900  1
  Si  Si2  1  0.50000000  0.00000000  0.26910600  1
  Si  Si3  1  0.50000000  0.50000000  0.75080500  1
  Si  Si4  1  0.00000000  0.50000000  0.94403900  1
  Si  Si5  1  0.50000000  0.50000000  0.05562500  1
  Si  Si6  1  0.50000000  0.00000000  0.54663500  1
  Ni  Ni0  1  0.00000000  0.00000000  0.40763900  1
loop_
_geom_bond_atom_site_label_1
_geom_bond_atom_site_label_2
_geom_bond_distance
_geom_bond_site_symmetry_2
Sc0 Si5 2.756441 1_545
Sc0 Si5 2.756441 1_445
Sc0 Si5 2.756441 1_555
Sc0 Si5 2.756441 1_455
Sc0 Si2 2.890896 1_455
Sc0 Si2 2.890896 1_555
Sc0 Si0 2.932868 1_545
Sc0 Si0 2.932868 1_555
Sc0 Si4 3.000493 1_554
Sc0 Si4 3.000493 1_544
Sc1 Si6 2.737037 1_455
Sc1 Si6 2.737037 1_555
Sc1 Si6 2.737037 1_565
Sc1 Si6 2.737037 1_465
Sc1 Si1 2.817866 1_555
Sc1 Si1 2.817866 1_565
Sc1 Si3 2.848728 1_555
Sc1 Si3 2.848728 1_455
Sc2 Si6 2.663914 1_555
Sc2 Si6 2.663914 1_565
Sc2 Si0 2.752329 1_555
Sc2 Si0 2.752329 1_655
Sc2 Si2 2.797850 1_555
Sc2 Si2 2.797850 1_565
Sc3 Si4 2.729075 1_545
Sc3 Si4 2.729075 1_655
Sc3 Si4 2.729075 1_555
Sc3 Si4 2.729075 1_645
Sc3 Si3 2.820063 1_545
Sc3 Si3 2.820063 1_555
Sc3 Si1 2.851031 1_655
Sc3 Si1 2.851031 1_555
Sc3 Si5 2.917867 1_546
Sc3 Si5 2.917867 1_556
Si0 Si2 2.653956 1_555
Si0 Si2 2.653956 1_465
Si0 Si2 2.653956 1_455
Si0 Si2 2.653956 1_565
Si1 Si3 2.656685 1_545
Si1 Si3 2.656685 1_445
Si1 Si3 2.656685 1_555
Si1 Si3 2.656685 1_455
Si4 Si5 2.404158 1_456
Si4 Si5 2.404158 1_556
Ni0 Sc2 2.655653 1_455
Ni0 Sc2 2.655653 1_445
Ni0 Sc2 2.655653 1_545
Ni0 Sc2 2.655653 1_555
Ni0 Si2 2.663804 1_555
Ni0 Si2 2.663804 1_455
Ni0 Si6 2.668508 1_555
Ni0 Si6 2.668508 1_455
Ni0 Si0 2.743837 1_545
Ni0 Si0 2.743837 1_555
Ni0 Sc1 3.242725 1_545
Ni0 Sc1 3.242725 1_555
