# generated using pymatgen
data_Tc3Sn
_symmetry_space_group_name_H-M   'P 1'
_cell_length_a   5.65335744
_cell_length_b   5.65335744
_cell_length_c   4.60313600
_cell_angle_alpha   90.00000000
_cell_angle_beta   90.00000000
_cell_angle_gamma   119.99999347
_symmetry_Int_Tables_number   1
_chemical_formula_structural   Tc3Sn
_chemical_formula_sum   'Tc6 Sn2'
_cell_volume   127.40819324
_cell_formula_units_Z   2
loop_
 _symmetry_equiv_pos_site_id
 _symmetry_equiv_pos_as_xyz
  1  'x, y, z'
loop_
 _atom_site_type_symbol
 _atom_site_label
 _atom_site_symmetry_multiplicity
 _atom_site_fract_x
 _atom_site_fract_y
 _atom_site_fract_z
 _atom_site_occupancy
  Tc  Tc0  1  0.16491900  0.32983900  0.25000000  1
  Tc  Tc1  1  0.67016100  0.83508100  0.25000000  1
  Tc  Tc2  1  0.16491900  0.83508100  0.25000000  1
  Tc  Tc3  1  0.83508100  0.67016100  0.75000000  1
  Tc  Tc4  1  0.32983900  0.16491900  0.75000000  1
  Tc  Tc5  1  0.83508100  0.16491900  0.75000000  1
  Sn  Sn0  1  0.33333300  0.66666700  0.75000000  1
  Sn  Sn1  1  0.66666700  0.33333300  0.25000000  1
loop_
_geom_bond_atom_site_label_1
_geom_bond_atom_site_label_2
_geom_bond_distance
_geom_bond_site_symmetry_2
Tc0 Tc2 2.797044 1_545
Tc0 Tc1 2.797044 1_445
Tc0 Tc5 2.811587 1_455
Tc0 Tc5 2.811587 1_454
Tc0 Tc4 2.811593 1_555
Tc0 Tc4 2.811593 1_554
Tc0 Tc2 2.856314 1_555
Tc0 Tc1 2.856314 1_555
Tc1 Tc2 2.797044 1_655
Tc1 Tc5 2.811587 1_565
Tc1 Tc5 2.811587 1_564
Tc1 Tc3 2.811593 1_555
Tc1 Tc3 2.811593 1_554
Tc1 Tc2 2.856314 1_555
Tc2 Tc4 2.811587 1_565
Tc2 Tc4 2.811587 1_564
Tc2 Tc3 2.811587 1_455
Tc2 Tc3 2.811587 1_454
Tc3 Tc5 2.797044 1_565
Tc3 Tc4 2.797044 1_665
Tc3 Tc5 2.856314 1_555
Tc3 Tc4 2.856314 1_555
Tc4 Tc5 2.797044 1_455
Tc4 Tc5 2.856314 1_555
Sn0 Tc4 2.826725 1_565
Sn0 Tc3 2.826725 1_455
Sn0 Tc5 2.826731 1_565
Sn0 Tc5 2.826731 1_455
Sn0 Tc3 2.826736 1_555
Sn0 Tc4 2.826736 1_555
Sn0 Tc2 2.831382 1_556
Sn0 Tc2 2.831382 1_555
Sn0 Tc1 2.831382 1_555
Sn0 Tc0 2.831382 1_555
Sn0 Tc0 2.831382 1_556
Sn0 Tc1 2.831382 1_556
Sn1 Tc0 2.826725 1_655
Sn1 Tc1 2.826725 1_545
Sn1 Tc2 2.826731 1_655
Sn1 Tc2 2.826731 1_545
Sn1 Tc1 2.826736 1_555
Sn1 Tc0 2.826736 1_555
Sn1 Tc5 2.831382 1_554
Sn1 Tc5 2.831382 1_555
Sn1 Tc4 2.831382 1_555
Sn1 Tc3 2.831382 1_555
Sn1 Tc3 2.831382 1_554
Sn1 Tc4 2.831382 1_554
