# generated using pymatgen
data_CaTiN2
_symmetry_space_group_name_H-M   'P 1'
_cell_length_a   4.99694000
_cell_length_b   10.06523100
_cell_length_c   17.15265800
_cell_angle_alpha   90.00000000
_cell_angle_beta   90.00000000
_cell_angle_gamma   90.00000000
_symmetry_Int_Tables_number   1
_chemical_formula_structural   CaTiN2
_chemical_formula_sum   'Ca16 Ti16 N32'
_cell_volume   862.69903005
_cell_formula_units_Z   16
loop_
 _symmetry_equiv_pos_site_id
 _symmetry_equiv_pos_as_xyz
  1  'x, y, z'
loop_
 _atom_site_type_symbol
 _atom_site_label
 _atom_site_symmetry_multiplicity
 _atom_site_fract_x
 _atom_site_fract_y
 _atom_site_fract_z
 _atom_site_occupancy
  Ca  Ca0  1  0.74075300  0.99662500  0.43741600  1
  Ca  Ca1  1  0.24075300  0.50337500  0.56258400  1
  Ca  Ca2  1  0.25924700  0.49662500  0.06258400  1
  Ca  Ca3  1  0.75924700  0.00337500  0.93741600  1
  Ca  Ca4  1  0.25924700  0.00337500  0.56258400  1
  Ca  Ca5  1  0.75924700  0.49662500  0.43741600  1
  Ca  Ca6  1  0.74075300  0.50337500  0.93741600  1
  Ca  Ca7  1  0.24075300  0.99662500  0.06258400  1
  Ca  Ca8  1  0.75165500  0.25263200  0.31256900  1
  Ca  Ca9  1  0.25165500  0.24736800  0.68743100  1
  Ca  Ca10  1  0.24834500  0.75263200  0.18743100  1
  Ca  Ca11  1  0.74834500  0.74736800  0.81256900  1
  Ca  Ca12  1  0.24834500  0.74736800  0.68743100  1
  Ca  Ca13  1  0.74834500  0.75263200  0.31256900  1
  Ca  Ca14  1  0.75165500  0.24736800  0.81256900  1
  Ca  Ca15  1  0.25165500  0.25263200  0.18743100  1
  Ti  Ti0  1  0.70143700  0.02272800  0.18741900  1
  Ti  Ti1  1  0.20143700  0.47727200  0.81258100  1
  Ti  Ti2  1  0.29856300  0.52272800  0.31258100  1
  Ti  Ti3  1  0.79856300  0.97727200  0.68741900  1
  Ti  Ti4  1  0.29856300  0.97727200  0.81258100  1
  Ti  Ti5  1  0.79856300  0.52272800  0.18741900  1
  Ti  Ti6  1  0.70143700  0.47727200  0.68741900  1
  Ti  Ti7  1  0.20143700  0.02272800  0.31258100  1
  Ti  Ti8  1  0.78927200  0.27274800  0.06213000  1
  Ti  Ti9  1  0.28927200  0.22725200  0.93787000  1
  Ti  Ti10  1  0.21072800  0.77274800  0.43787000  1
  Ti  Ti11  1  0.71072800  0.72725200  0.56213000  1
  Ti  Ti12  1  0.21072800  0.72725200  0.93787000  1
  Ti  Ti13  1  0.71072800  0.77274800  0.06213000  1
  Ti  Ti14  1  0.78927200  0.22725200  0.56213000  1
  Ti  Ti15  1  0.28927200  0.27274800  0.43787000  1
  N  N0  1  0.67489900  0.49887100  0.29825900  1
  N  N1  1  0.17489900  0.00112900  0.70174100  1
  N  N2  1  0.32510100  0.99887100  0.20174100  1
  N  N3  1  0.82510100  0.50112900  0.79825900  1
  N  N4  1  0.32510100  0.50112900  0.70174100  1
  N  N5  1  0.82510100  0.99887100  0.29825900  1
  N  N6  1  0.67489900  0.00112900  0.79825900  1
  N  N7  1  0.17489900  0.49887100  0.20174100  1
  N  N8  1  0.66829800  0.25588200  0.45191200  1
  N  N9  1  0.16829800  0.24411800  0.54808800  1
  N  N10  1  0.33170200  0.75588200  0.04808800  1
  N  N11  1  0.83170200  0.74411800  0.95191200  1
  N  N12  1  0.33170200  0.74411800  0.54808800  1
  N  N13  1  0.83170200  0.75588200  0.45191200  1
  N  N14  1  0.66829800  0.24411800  0.95191200  1
  N  N15  1  0.16829800  0.25588200  0.04808800  1
  N  N16  1  0.74625900  0.45970600  0.07691000  1
  N  N17  1  0.24625900  0.04029400  0.92309000  1
  N  N18  1  0.25374100  0.95970600  0.42309000  1
  N  N19  1  0.75374100  0.54029400  0.57691000  1
  N  N20  1  0.25374100  0.54029400  0.92309000  1
  N  N21  1  0.75374100  0.95970600  0.07691000  1
  N  N22  1  0.74625900  0.04029400  0.57691000  1
  N  N23  1  0.24625900  0.45970600  0.42309000  1
  N  N24  1  0.73341600  0.21000600  0.17261200  1
  N  N25  1  0.23341600  0.28999400  0.82738800  1
  N  N26  1  0.26658400  0.71000600  0.32738800  1
  N  N27  1  0.76658400  0.78999400  0.67261200  1
  N  N28  1  0.26658400  0.78999400  0.82738800  1
  N  N29  1  0.76658400  0.71000600  0.17261200  1
  N  N30  1  0.73341600  0.28999400  0.67261200  1
  N  N31  1  0.23341600  0.21000600  0.32738800  1
loop_
_geom_bond_atom_site_label_1
_geom_bond_atom_site_label_2
_geom_bond_distance
_geom_bond_site_symmetry_2
Ca0 N5 2.423945 1_555
Ca0 N22 2.432885 1_565
Ca0 N18 2.474011 1_555
Ca0 N13 2.477891 1_555
Ca0 N18 2.601795 1_655
Ca0 N8 2.646186 1_565
Ca1 N4 2.423945 1_555
Ca1 N23 2.432885 1_555
Ca1 N19 2.474011 1_455
Ca1 N12 2.477891 1_555
Ca1 N19 2.601795 1_555
Ca1 N9 2.646186 1_555
Ca2 N7 2.423945 1_555
Ca2 N20 2.432885 1_554
Ca2 N16 2.474011 1_555
Ca2 N15 2.477891 1_555
Ca2 N16 2.601795 1_455
Ca2 N10 2.646186 1_555
Ca3 N6 2.423945 1_555
Ca3 N21 2.432885 1_546
Ca3 N17 2.474011 1_655
Ca3 N14 2.477891 1_555
Ca3 N17 2.601795 1_555
Ca3 N11 2.646186 1_545
Ca4 N1 2.423945 1_555
Ca4 N18 2.432885 1_545
Ca4 N22 2.474011 1_555
Ca4 N9 2.477891 1_555
Ca4 N22 2.601795 1_455
Ca4 N12 2.646186 1_545
Ca5 N0 2.423945 1_555
Ca5 N19 2.432885 1_555
Ca5 N23 2.474011 1_655
Ca5 N8 2.477891 1_555
Ca5 N23 2.601795 1_555
Ca5 N13 2.646186 1_555
Ca6 N3 2.423945 1_555
Ca6 N16 2.432885 1_556
Ca6 N20 2.474011 1_555
Ca6 N11 2.477891 1_555
Ca6 N20 2.601795 1_655
Ca6 N14 2.646186 1_555
Ca7 N2 2.423945 1_555
Ca7 N17 2.432885 1_564
Ca7 N21 2.474011 1_455
Ca7 N10 2.477891 1_555
Ca7 N21 2.601795 1_555
Ca7 N15 2.646186 1_565
Ca8 N8 2.426347 1_555
Ca8 N24 2.440375 1_555
Ca8 N31 2.458440 1_655
Ca8 N0 2.519937 1_555
Ca8 N5 2.592044 1_545
Ca8 N31 2.637188 1_555
Ca9 N9 2.426347 1_555
Ca9 N25 2.440375 1_555
Ca9 N30 2.458440 1_555
Ca9 N1 2.519937 1_555
Ca9 N4 2.592044 1_555
Ca9 N30 2.637188 1_455
Ca10 N10 2.426347 1_555
Ca10 N26 2.440375 1_555
Ca10 N29 2.458440 1_455
Ca10 N2 2.519937 1_555
Ca10 N7 2.592044 1_555
Ca10 N29 2.637188 1_555
Ca11 N11 2.426347 1_555
Ca11 N27 2.440375 1_555
Ca11 N28 2.458440 1_555
Ca11 N3 2.519937 1_555
Ca11 N6 2.592044 1_565
Ca11 N28 2.637188 1_655
Ca12 N12 2.426347 1_555
Ca12 N28 2.440375 1_555
Ca12 N27 2.458440 1_455
Ca12 N4 2.519937 1_555
Ca12 N1 2.592044 1_565
Ca12 N27 2.637188 1_555
Ca13 N13 2.426347 1_555
Ca13 N29 2.440375 1_555
Ca13 N26 2.458440 1_555
Ca13 N5 2.519937 1_555
Ca13 N0 2.592044 1_555
Ca13 N26 2.637188 1_655
Ca14 N14 2.426347 1_555
Ca14 N30 2.440375 1_555
Ca14 N25 2.458440 1_655
Ca14 N6 2.519937 1_555
Ca14 N3 2.592044 1_555
Ca14 N25 2.637188 1_555
Ca15 N15 2.426347 1_555
Ca15 N31 2.440375 1_555
Ca15 N24 2.458440 1_555
Ca15 N7 2.519937 1_555
Ca15 N2 2.592044 1_545
Ca15 N24 2.637188 1_455
N0 Ti2 1.911648 1_555
N0 Ti5 2.013474 1_555
N1 Ti3 1.911648 1_445
N1 Ti4 2.013474 1_545
N2 Ti0 1.911648 1_565
N2 Ti7 2.013474 1_565
N3 Ti1 1.911648 1_655
N3 Ti6 2.013474 1_555
N4 Ti6 1.911648 1_555
N4 Ti1 2.013474 1_555
N5 Ti7 1.911648 1_665
N5 Ti0 2.013474 1_565
N6 Ti4 1.911648 1_545
N6 Ti3 2.013474 1_545
N7 Ti5 1.911648 1_455
N7 Ti2 2.013474 1_555
N8 Ti15 1.916756 1_555
N8 Ti14 2.005635 1_555
N9 Ti14 1.916756 1_455
N9 Ti15 2.005635 1_555
N10 Ti13 1.916756 1_555
N10 Ti12 2.005635 1_554
N11 Ti12 1.916756 1_655
N11 Ti13 2.005635 1_556
N12 Ti11 1.916756 1_555
N12 Ti10 2.005635 1_555
N13 Ti10 1.916756 1_655
N13 Ti11 2.005635 1_555
N14 Ti9 1.916756 1_555
N14 Ti8 2.005635 1_556
N15 Ti8 1.916756 1_455
N15 Ti9 2.005635 1_554
N16 Ti8 1.910902 1_555
N16 Ti5 2.015860 1_555
N17 Ti9 1.910902 1_555
N17 Ti4 2.015860 1_545
N18 Ti10 1.910902 1_555
N18 Ti7 2.015860 1_565
N19 Ti11 1.910902 1_555
N19 Ti6 2.015860 1_555
N20 Ti12 1.910902 1_555
N20 Ti1 2.015860 1_555
N21 Ti13 1.910902 1_555
N21 Ti0 2.015860 1_565
N22 Ti14 1.910902 1_555
N22 Ti3 2.015860 1_545
N23 Ti15 1.910902 1_555
N23 Ti2 2.015860 1_555
N24 Ti0 1.908730 1_555
N24 Ti8 2.016919 1_555
N25 Ti1 1.908730 1_555
N25 Ti9 2.016919 1_555
N26 Ti2 1.908730 1_555
N26 Ti10 2.016919 1_555
N27 Ti3 1.908730 1_555
N27 Ti11 2.016919 1_555
N28 Ti4 1.908730 1_555
N28 Ti12 2.016919 1_555
N29 Ti5 1.908730 1_555
N29 Ti13 2.016919 1_555
N30 Ti6 1.908730 1_555
N30 Ti14 2.016919 1_555
N31 Ti7 1.908730 1_555
N31 Ti15 2.016919 1_555
