# generated using pymatgen
data_Gd3Y13O24
_symmetry_space_group_name_H-M   'P 1'
_cell_length_a   9.22182444
_cell_length_b   9.22182391
_cell_length_c   10.64584401
_cell_angle_alpha   54.69543048
_cell_angle_beta   54.69543069
_cell_angle_gamma   70.50955917
_symmetry_Int_Tables_number   1
_chemical_formula_structural   Gd3Y13O24
_chemical_formula_sum   'Gd3 Y13 O24'
_cell_volume   602.96406097
_cell_formula_units_Z   1
loop_
 _symmetry_equiv_pos_site_id
 _symmetry_equiv_pos_as_xyz
  1  'x, y, z'
loop_
 _atom_site_type_symbol
 _atom_site_label
 _atom_site_symmetry_multiplicity
 _atom_site_fract_x
 _atom_site_fract_y
 _atom_site_fract_z
 _atom_site_occupancy
  Gd  Gd0  1  0.75021268  0.75031404  0.46750963  1
  Gd  Gd1  1  0.24968572  0.24978777  0.53249008  1
  Gd  Gd2  1  0.46830540  0.53169411  0.00000009  1
  Y  Y0  1  0.00179202  0.50027377  0.75041138  1
  Y  Y1  1  0.49934392  0.00055435  0.75121854  1
  Y  Y2  1  0.49972614  0.99820766  0.24958868  1
  Y  Y3  1  0.99944598  0.50065530  0.24878195  1
  Y  Y4  1  0.03257343  0.96742649  0.49999990  1
  Y  Y5  1  0.78385123  0.28266319  0.21727377  1
  Y  Y6  1  0.71733665  0.21614859  0.78272646  1
  Y  Y7  1  0.24973250  0.24909514  0.03258283  1
  Y  Y8  1  0.75090493  0.75026758  0.96741726  1
  Y  Y9  1  0.53294835  0.46705205  0.49999982  1
  Y  Y10  1  0.96683298  0.03316667  -0.00000002  1
  Y  Y11  1  0.21783518  0.71872930  0.28203568  1
  Y  Y12  1  0.28127015  0.78216460  0.71796443  1
  O  O0  1  0.03139806  0.72913078  0.76076645  1
  O  O1  1  0.46953691  0.77374800  0.02146433  1
  O  O2  1  0.27086951  0.96860211  0.23923360  1
  O  O3  1  0.22625205  0.53046306  0.97853569  1
  O  O4  1  0.73974474  0.95684813  0.02157721  1
  O  O5  1  0.04315203  0.26025477  0.97842290  1
  O  O6  1  0.45735172  0.23914385  0.78166490  1
  O  O7  1  0.76085629  0.54264819  0.21833503  1
  O  O8  1  0.22832305  0.98714902  0.79466129  1
  O  O9  1  0.48703078  0.72824033  0.49004943  1
  O  O10  1  0.27175957  0.51296920  0.50995053  1
  O  O11  1  0.01285096  0.77167648  0.20533883  1
  O  O12  1  0.96509285  0.27284303  0.74226819  1
  O  O13  1  0.53457461  0.22776678  0.47975276  1
  O  O14  1  0.72715704  0.03490692  0.25773179  1
  O  O15  1  0.77223316  0.46542519  0.52024726  1
  O  O16  1  0.26150666  0.03987052  0.47750101  1
  O  O17  1  0.96012971  0.73849308  0.52249920  1
  O  O18  1  0.53927519  0.76463019  0.71870671  1
  O  O19  1  0.23536975  0.46072487  0.28129354  1
  O  O20  1  0.77077843  0.01035883  0.70762926  1
  O  O21  1  0.51052716  0.26721308  0.01117469  1
  O  O22  1  0.73278733  0.48947243  0.98882432  1
  O  O23  1  0.98964121  0.22922155  0.29237060  1
loop_
_geom_bond_atom_site_label_1
_geom_bond_atom_site_label_2
_geom_bond_distance
_geom_bond_site_symmetry_2
Gd0 O18 2.275254 1_555
Gd0 O17 2.279750 1_555
Gd0 O14 2.307034 1_565
Gd0 O15 2.308571 1_555
Gd0 O11 2.358865 1_655
Gd0 O9 2.364214 1_555
Gd1 O19 2.275248 1_555
Gd1 O16 2.279748 1_555
Gd1 O12 2.307034 1_455
Gd1 O13 2.308572 1_555
Gd1 O8 2.358869 1_545
Gd1 O10 2.364212 1_555
Gd2 O21 2.280116 1_555
Gd2 O22 2.280119 1_554
Gd2 O18 2.290833 1_554
Gd2 O19 2.290833 1_555
Gd2 O3 2.375797 1_554
Gd2 O1 2.375802 1_555
O0 Y12 2.244400 1_555
O0 Y8 2.269460 1_455
O0 Y0 2.286705 1_555
O0 Y4 2.337889 1_555
O1 Y11 2.248773 1_555
O1 Y8 2.270247 1_554
O1 Y1 2.289471 1_564
O2 Y11 2.244408 1_555
O2 Y7 2.269460 1_565
O2 Y2 2.286700 1_555
O2 Y4 2.337887 1_555
O3 Y12 2.248772 1_555
O3 Y7 2.270246 1_556
O3 Y3 2.289472 1_456
O4 Y8 2.245533 1_554
O4 Y10 2.274701 1_565
O4 Y2 2.287678 1_555
O4 Y6 2.340086 1_564
O5 Y7 2.245535 1_556
O5 Y10 2.274704 1_456
O5 Y0 2.287682 1_555
O5 Y5 2.340089 1_456
O6 Y7 2.250406 1_556
O6 Y9 2.274169 1_555
O6 Y1 2.281818 1_555
O6 Y6 2.341485 1_555
O7 Y8 2.250405 1_554
O7 Y9 2.274167 1_555
O7 Y3 2.281822 1_555
O7 Y5 2.341485 1_555
O8 Y10 2.251693 1_466
O8 Y12 2.277217 1_555
O8 Y1 2.297775 1_565
O9 Y9 2.251306 1_555
O9 Y12 2.275610 1_555
O9 Y2 2.290555 1_555
O10 Y9 2.251310 1_555
O10 Y11 2.275609 1_555
O10 Y0 2.290556 1_555
O11 Y10 2.251695 1_465
O11 Y11 2.277215 1_555
O11 Y3 2.297775 1_455
O12 Y6 2.253530 1_555
O12 Y0 2.288788 1_655
O12 Y10 2.330545 1_556
O13 Y5 2.250728 1_555
O13 Y1 2.284243 1_555
O13 Y9 2.332363 1_555
O14 Y5 2.253531 1_555
O14 Y2 2.288789 1_545
O14 Y10 2.330545 1_555
O15 Y6 2.250729 1_555
O15 Y3 2.284242 1_555
O15 Y9 2.332359 1_555
O16 Y4 2.265504 1_545
O16 Y2 2.283430 1_545
O16 Y12 2.335105 1_545
O17 Y4 2.265501 1_655
O17 Y0 2.283426 1_655
O17 Y11 2.335105 1_655
O18 Y1 2.275370 1_565
O18 Y12 2.334672 1_555
O19 Y3 2.275367 1_455
O19 Y11 2.334665 1_555
O20 Y4 2.253157 1_645
O20 Y6 2.271048 1_555
O20 Y1 2.291086 1_555
O20 Y8 2.339988 1_545
O21 Y6 2.266515 1_554
O21 Y2 2.280569 1_545
O21 Y7 2.335483 1_555
O22 Y5 2.266520 1_556
O22 Y0 2.280560 1_655
O22 Y8 2.335493 1_555
O23 Y4 2.253157 1_645
O23 Y5 2.271048 1_555
O23 Y3 2.291082 1_555
O23 Y7 2.339987 1_655
