# generated using pymatgen
data_EuTmCuS3
_symmetry_space_group_name_H-M   'P 1'
_cell_length_a   6.69374767
_cell_length_b   6.69374767
_cell_length_c   10.07571100
_cell_angle_alpha   90.00000000
_cell_angle_beta   90.00000000
_cell_angle_gamma   146.28043564
_symmetry_Int_Tables_number   1
_chemical_formula_structural   EuTmCuS3
_chemical_formula_sum   'Eu2 Tm2 Cu2 S6'
_cell_volume   250.61547333
_cell_formula_units_Z   2
loop_
 _symmetry_equiv_pos_site_id
 _symmetry_equiv_pos_as_xyz
  1  'x, y, z'
loop_
 _atom_site_type_symbol
 _atom_site_label
 _atom_site_symmetry_multiplicity
 _atom_site_fract_x
 _atom_site_fract_y
 _atom_site_fract_z
 _atom_site_occupancy
  Eu  Eu0  1  0.75105600  0.24894400  0.25000000  1
  Eu  Eu1  1  0.24894400  0.75105600  0.75000000  1
  Tm  Tm0  1  0.00000000  0.00000000  0.50000000  1
  Tm  Tm1  1  0.00000000  0.00000000  0.00000000  1
  Cu  Cu0  1  0.52584000  0.47416000  0.75000000  1
  Cu  Cu1  1  0.47416000  0.52584000  0.25000000  1
  S  S0  1  0.07964200  0.92035800  0.25000000  1
  S  S1  1  0.92035800  0.07964200  0.75000000  1
  S  S2  1  0.63782300  0.36217700  0.56831700  1
  S  S3  1  0.63782300  0.36217700  0.93168300  1
  S  S4  1  0.36217700  0.63782300  0.06831700  1
  S  S5  1  0.36217700  0.63782300  0.43168300  1
loop_
_geom_bond_atom_site_label_1
_geom_bond_atom_site_label_2
_geom_bond_distance
_geom_bond_site_symmetry_2
Eu0 S0 2.931237 1_655
Eu0 S0 2.931237 1_545
Eu0 S5 3.024390 1_545
Eu0 S4 3.024390 1_655
Eu0 S4 3.024390 1_545
Eu0 S5 3.024390 1_655
Eu0 S3 3.520121 1_554
Eu0 S2 3.520121 1_555
Eu1 S1 2.931237 1_565
Eu1 S1 2.931237 1_455
Eu1 S3 3.024390 1_565
Eu1 S2 3.024390 1_565
Eu1 S2 3.024390 1_455
Eu1 S3 3.024390 1_455
Eu1 S4 3.520121 1_556
Eu1 S5 3.520121 1_555
Cu0 S3 2.325834 1_555
Cu0 S2 2.325834 1_555
Cu0 S1 2.365459 1_565
Cu0 S1 2.365459 1_455
Cu1 S5 2.325834 1_555
Cu1 S4 2.325834 1_555
Cu1 S0 2.365459 1_655
Cu1 S0 2.365459 1_545
S0 Tm0 2.717751 1_565
S0 Tm1 2.717751 1_565
S1 Tm0 2.717751 1_655
S1 Tm1 2.717751 1_656
S2 Tm0 2.713089 1_555
S2 Tm0 2.713089 1_665
S3 Tm1 2.713089 1_666
S3 Tm1 2.713089 1_556
S4 Tm1 2.713089 1_665
S4 Tm1 2.713089 1_555
S5 Tm0 2.713089 1_555
S5 Tm0 2.713089 1_665
