# generated using pymatgen
data_SmSi2Ru3
_symmetry_space_group_name_H-M   'P 1'
_cell_length_a   5.61905356
_cell_length_b   5.61905356
_cell_length_c   3.61783200
_cell_angle_alpha   90.00000000
_cell_angle_beta   90.00000000
_cell_angle_gamma   119.99999481
_symmetry_Int_Tables_number   1
_chemical_formula_structural   SmSi2Ru3
_chemical_formula_sum   'Sm1 Si2 Ru3'
_cell_volume   98.92484844
_cell_formula_units_Z   1
loop_
 _symmetry_equiv_pos_site_id
 _symmetry_equiv_pos_as_xyz
  1  'x, y, z'
loop_
 _atom_site_type_symbol
 _atom_site_label
 _atom_site_symmetry_multiplicity
 _atom_site_fract_x
 _atom_site_fract_y
 _atom_site_fract_z
 _atom_site_occupancy
  Sm  Sm0  1  0.00000000  0.00000000  0.00000000  1
  Si  Si0  1  0.33333300  0.66666700  0.00000000  1
  Si  Si1  1  0.66666700  0.33333300  0.00000000  1
  Ru  Ru0  1  0.00000000  0.50000000  0.50000000  1
  Ru  Ru1  1  0.50000000  0.50000000  0.50000000  1
  Ru  Ru2  1  0.50000000  0.00000000  0.50000000  1
loop_
_geom_bond_atom_site_label_1
_geom_bond_atom_site_label_2
_geom_bond_distance
_geom_bond_site_symmetry_2
Si0 Sm0 3.244159 1_565
Si0 Sm0 3.244164 1_555
Si0 Sm0 3.244164 1_665
Si1 Sm0 3.244159 1_655
Si1 Sm0 3.244164 1_555
Si1 Sm0 3.244164 1_665
Ru0 Si1 2.429675 1_455
Ru0 Si1 2.429675 1_456
Ru0 Si0 2.429675 1_556
Ru0 Si0 2.429675 1_555
Ru0 Sm0 3.341499 1_565
Ru0 Sm0 3.341499 1_566
Ru0 Sm0 3.341499 1_556
Ru0 Sm0 3.341499 1_555
Ru1 Si1 2.429678 1_555
Ru1 Si1 2.429678 1_556
Ru1 Si0 2.429678 1_556
Ru1 Si0 2.429678 1_555
Ru1 Sm0 3.341500 1_556
Ru1 Sm0 3.341500 1_555
Ru1 Sm0 3.341500 1_665
Ru1 Sm0 3.341500 1_666
Ru2 Si0 2.429675 1_545
Ru2 Si1 2.429675 1_555
Ru2 Si0 2.429675 1_546
Ru2 Si1 2.429675 1_556
Ru2 Sm0 3.341499 1_656
Ru2 Sm0 3.341499 1_655
Ru2 Sm0 3.341499 1_556
Ru2 Sm0 3.341499 1_555
