# generated using pymatgen
data_Ca6Ge2O
_symmetry_space_group_name_H-M   'P 1'
_cell_length_a   6.80541628
_cell_length_b   6.80541628
_cell_length_c   6.80541628
_cell_angle_alpha   60.00000000
_cell_angle_beta   60.00000000
_cell_angle_gamma   60.00000000
_symmetry_Int_Tables_number   1
_chemical_formula_structural   Ca6Ge2O
_chemical_formula_sum   'Ca6 Ge2 O1'
_cell_volume   222.86870476
_cell_formula_units_Z   1
loop_
 _symmetry_equiv_pos_site_id
 _symmetry_equiv_pos_as_xyz
  1  'x, y, z'
loop_
 _atom_site_type_symbol
 _atom_site_label
 _atom_site_symmetry_multiplicity
 _atom_site_fract_x
 _atom_site_fract_y
 _atom_site_fract_z
 _atom_site_occupancy
  Ca  Ca0  1  0.24647700  0.75352300  0.24647700  1
  Ca  Ca1  1  0.75352300  0.75352300  0.24647700  1
  Ca  Ca2  1  0.75352300  0.24647700  0.24647700  1
  Ca  Ca3  1  0.75352300  0.24647700  0.75352300  1
  Ca  Ca4  1  0.24647700  0.24647700  0.75352300  1
  Ca  Ca5  1  0.24647700  0.75352300  0.75352300  1
  Ge  Ge0  1  0.75000000  0.75000000  0.75000000  1
  Ge  Ge1  1  0.25000000  0.25000000  0.25000000  1
  O  O0  1  0.00000000  0.00000000  0.00000000  1
loop_
_geom_bond_atom_site_label_1
_geom_bond_atom_site_label_2
_geom_bond_distance
_geom_bond_site_symmetry_2
Ca0 O0 2.372172 1_565
Ca0 Ge1 3.402877 1_565
Ca0 Ge0 3.402877 1_455
Ca0 Ge0 3.402877 1_554
Ca0 Ge1 3.402877 1_555
Ca1 O0 2.372172 1_665
Ca1 Ge0 3.402877 1_555
Ca1 Ge1 3.402877 1_565
Ca1 Ge1 3.402877 1_655
Ca1 Ge0 3.402877 1_554
Ca2 O0 2.372172 1_655
Ca2 Ge1 3.402877 1_655
Ca2 Ge0 3.402877 1_554
Ca2 Ge0 3.402877 1_545
Ca2 Ge1 3.402877 1_555
Ca3 O0 2.372172 1_656
Ca3 Ge0 3.402877 1_555
Ca3 Ge1 3.402877 1_655
Ca3 Ge1 3.402877 1_556
Ca3 Ge0 3.402877 1_545
Ca4 O0 2.372172 1_556
Ca4 Ge1 3.402877 1_556
Ca4 Ge0 3.402877 1_455
Ca4 Ge0 3.402877 1_545
Ca4 Ge1 3.402877 1_555
Ca5 O0 2.372172 1_566
Ca5 Ge0 3.402877 1_555
Ca5 Ge1 3.402877 1_565
Ca5 Ge1 3.402877 1_556
Ca5 Ge0 3.402877 1_455
