# generated using pymatgen
data_MgZn(FeO2)4
_symmetry_space_group_name_H-M   'P 1'
_cell_length_a   6.03556941
_cell_length_b   6.03556941
_cell_length_c   6.03556870
_cell_angle_alpha   59.57422804
_cell_angle_beta   59.57422804
_cell_angle_gamma   59.57423153
_symmetry_Int_Tables_number   1
_chemical_formula_structural   MgZn(FeO2)4
_chemical_formula_sum   'Mg1 Zn1 Fe4 O8'
_cell_volume   153.96279047
_cell_formula_units_Z   1
loop_
 _symmetry_equiv_pos_site_id
 _symmetry_equiv_pos_as_xyz
  1  'x, y, z'
loop_
 _atom_site_type_symbol
 _atom_site_label
 _atom_site_symmetry_multiplicity
 _atom_site_fract_x
 _atom_site_fract_y
 _atom_site_fract_z
 _atom_site_occupancy
  Mg  Mg0  1  0.62615400  0.62615400  0.62615400  1
  Zn  Zn0  1  0.00193800  0.00193800  0.00193800  1
  Fe  Fe0  1  0.62576700  0.11901400  0.62576700  1
  Fe  Fe1  1  0.11901400  0.62576700  0.62576700  1
  Fe  Fe2  1  0.62576700  0.62576700  0.11901400  1
  Fe  Fe3  1  0.24652600  0.24652600  0.24652600  1
  O  O0  1  0.86574200  0.86574200  0.86574200  1
  O  O1  1  0.86813200  0.40558100  0.86813200  1
  O  O2  1  0.40558100  0.86813200  0.86813200  1
  O  O3  1  0.86813200  0.86813200  0.40558100  1
  O  O4  1  0.38273800  0.38273800  0.38273800  1
  O  O5  1  0.37784600  0.85881800  0.37784600  1
  O  O6  1  0.85881800  0.37784600  0.37784600  1
  O  O7  1  0.37784600  0.37784600  0.85881800  1
loop_
_geom_bond_atom_site_label_1
_geom_bond_atom_site_label_2
_geom_bond_distance
_geom_bond_site_symmetry_2
Mg0 O1 2.064005 1_555
Mg0 O2 2.064005 1_555
Mg0 O3 2.064005 1_555
Mg0 O5 2.115606 1_555
Mg0 O6 2.115606 1_555
Mg0 O7 2.115606 1_555
Fe0 O2 2.006116 1_545
Fe0 O3 2.006116 1_545
Fe0 O0 2.042585 1_545
Fe0 O4 2.070356 1_555
Fe0 O7 2.093856 1_555
Fe0 O6 2.093856 1_555
Fe1 O1 2.006116 1_455
Fe1 O3 2.006116 1_455
Fe1 O0 2.042585 1_455
Fe1 O4 2.070356 1_555
Fe1 O7 2.093856 1_555
Fe1 O5 2.093856 1_555
Fe2 O1 2.006116 1_554
Fe2 O2 2.006116 1_554
Fe2 O0 2.042585 1_554
Fe2 O4 2.070356 1_555
Fe2 O6 2.093856 1_555
Fe2 O5 2.093856 1_555
Fe3 O7 1.900374 1_554
Fe3 O6 1.900374 1_455
Fe3 O5 1.900374 1_545
Fe3 O4 2.020223 1_555
O0 Zn0 2.019985 1_666
O1 Zn0 1.978551 1_656
O2 Zn0 1.978551 1_566
O3 Zn0 1.978550 1_665
