# generated using pymatgen
data_Tb3Ge3Ir2
_symmetry_space_group_name_H-M   'P 1'
_cell_length_a   5.66803599
_cell_length_b   5.66803599
_cell_length_c   14.30484897
_cell_angle_alpha   90.00000000
_cell_angle_beta   90.00000000
_cell_angle_gamma   135.28506557
_symmetry_Int_Tables_number   1
_chemical_formula_structural   Tb3Ge3Ir2
_chemical_formula_sum   'Tb6 Ge6 Ir4'
_cell_volume   323.34185974
_cell_formula_units_Z   2
loop_
 _symmetry_equiv_pos_site_id
 _symmetry_equiv_pos_as_xyz
  1  'x, y, z'
loop_
 _atom_site_type_symbol
 _atom_site_label
 _atom_site_symmetry_multiplicity
 _atom_site_fract_x
 _atom_site_fract_y
 _atom_site_fract_z
 _atom_site_occupancy
  Tb  Tb0  1  0.91469176  0.08530824  0.39031491  1
  Tb  Tb1  1  0.08530824  0.91469176  0.60968509  1
  Tb  Tb2  1  0.91469176  0.08530824  0.10968509  1
  Tb  Tb3  1  0.08530824  0.91469176  0.89031491  1
  Tb  Tb4  1  0.64182937  0.35817063  0.25000000  1
  Tb  Tb5  1  0.35817063  0.64182937  0.75000000  1
  Ge  Ge0  1  0.62547923  0.37452077  0.46424511  1
  Ge  Ge1  1  0.37452077  0.62547923  0.53575489  1
  Ge  Ge2  1  0.62547923  0.37452077  0.03575489  1
  Ge  Ge3  1  0.37452077  0.62547923  0.96424511  1
  Ge  Ge4  1  0.34142938  0.65857062  0.25000000  1
  Ge  Ge5  1  0.65857062  0.34142938  0.75000000  1
  Ir  Ir0  1  0.80024157  0.19975843  0.89794532  1
  Ir  Ir1  1  0.19975843  0.80024157  0.10205468  1
  Ir  Ir2  1  0.80024157  0.19975843  0.60205468  1
  Ir  Ir3  1  0.19975843  0.80024157  0.39794532  1
loop_
_geom_bond_atom_site_label_1
_geom_bond_atom_site_label_2
_geom_bond_distance
_geom_bond_site_symmetry_2
Ge0 Ir3 2.480801 1_655
Ge0 Ir3 2.480801 1_545
Ge0 Ir2 2.691308 1_555
Ge0 Ge1 2.822891 1_555
Ge0 Tb1 3.025607 1_655
Ge0 Tb1 3.025607 1_545
Ge0 Tb4 3.069534 1_555
Ge0 Tb0 3.211224 1_555
Ge0 Tb0 3.263505 1_455
Ge0 Tb0 3.263505 1_565
Ge1 Ir2 2.480801 1_565
Ge1 Ir2 2.480801 1_455
Ge1 Ir3 2.691308 1_555
Ge1 Tb0 3.025607 1_565
Ge1 Tb0 3.025607 1_455
Ge1 Tb5 3.069534 1_555
Ge1 Tb1 3.211224 1_555
Ge1 Tb1 3.263505 1_655
Ge1 Tb1 3.263505 1_545
Ge2 Ir1 2.480801 1_655
Ge2 Ir1 2.480801 1_545
Ge2 Ir0 2.691308 1_554
Ge2 Ge3 2.822891 1_554
Ge2 Tb3 3.025607 1_544
Ge2 Tb3 3.025607 1_654
Ge2 Tb4 3.069534 1_555
Ge2 Tb2 3.211224 1_555
Ge2 Tb2 3.263505 1_565
Ge2 Tb2 3.263505 1_455
Ge3 Ir0 2.480801 1_565
Ge3 Ir0 2.480801 1_455
Ge3 Ir1 2.691308 1_556
Ge3 Tb2 3.025607 1_566
Ge3 Tb2 3.025607 1_456
Ge3 Tb5 3.069534 1_555
Ge3 Tb3 3.211224 1_555
Ge3 Tb3 3.263505 1_545
Ge3 Tb3 3.263505 1_655
Ge4 Ir3 2.585516 1_555
Ge4 Ir1 2.585516 1_555
Ge4 Tb4 3.004564 1_455
Ge4 Tb4 3.004564 1_565
Ge4 Tb0 3.044207 1_455
Ge4 Tb2 3.044207 1_565
Ge4 Tb0 3.044207 1_565
Ge4 Tb2 3.044207 1_455
Ge4 Tb4 3.149371 1_555
Ge5 Ir2 2.585516 1_555
Ge5 Ir0 2.585516 1_555
Ge5 Tb5 3.004564 1_655
Ge5 Tb5 3.004564 1_545
Ge5 Tb3 3.044207 1_655
Ge5 Tb1 3.044207 1_655
Ge5 Tb1 3.044207 1_545
Ge5 Tb3 3.044207 1_545
Ge5 Tb5 3.149371 1_555
Ir0 Tb3 2.990610 1_645
Ir0 Tb5 3.081588 1_655
Ir0 Tb5 3.081588 1_545
Ir0 Tb3 3.120568 1_545
Ir0 Tb3 3.120568 1_655
Ir0 Tb2 3.257913 1_556
Ir1 Tb2 2.990610 1_465
Ir1 Tb4 3.081588 1_455
Ir1 Tb4 3.081588 1_565
Ir1 Tb2 3.120568 1_455
Ir1 Tb2 3.120568 1_565
Ir1 Tb3 3.257913 1_554
Ir2 Tb1 2.990610 1_645
Ir2 Tb5 3.081588 1_655
Ir2 Tb5 3.081588 1_545
Ir2 Tb1 3.120568 1_545
Ir2 Tb1 3.120568 1_655
Ir2 Tb0 3.257913 1_555
Ir3 Tb0 2.990610 1_465
Ir3 Tb4 3.081588 1_455
Ir3 Tb4 3.081588 1_565
Ir3 Tb0 3.120568 1_455
Ir3 Tb0 3.120568 1_565
Ir3 Tb1 3.257913 1_555
