# generated using pymatgen
data_MnSi(OF)6
_symmetry_space_group_name_H-M   'P 1'
_cell_length_a   9.09653354
_cell_length_b   9.09653354
_cell_length_c   8.18801400
_cell_angle_alpha   90.00000000
_cell_angle_beta   90.00000000
_cell_angle_gamma   119.99999666
_symmetry_Int_Tables_number   1
_chemical_formula_structural   MnSi(OF)6
_chemical_formula_sum   'Mn3 Si3 O18 F18'
_cell_volume   586.76077461
_cell_formula_units_Z   3
loop_
 _symmetry_equiv_pos_site_id
 _symmetry_equiv_pos_as_xyz
  1  'x, y, z'
loop_
 _atom_site_type_symbol
 _atom_site_label
 _atom_site_symmetry_multiplicity
 _atom_site_fract_x
 _atom_site_fract_y
 _atom_site_fract_z
 _atom_site_occupancy
  Mn  Mn0  1  0.00000000  0.00000000  0.50000000  1
  Mn  Mn1  1  0.66666700  0.33333300  0.85555000  1
  Mn  Mn2  1  0.33333300  0.66666700  0.14445000  1
  Si  Si0  1  0.66666700  0.33333300  0.32653000  1
  Si  Si1  1  0.33333300  0.66666700  0.67347000  1
  Si  Si2  1  0.00000000  0.00000000  0.00000000  1
  O  O0  1  0.71514400  0.19123700  0.93822000  1
  O  O1  1  0.28485600  0.80876300  0.06178000  1
  O  O2  1  0.47609300  0.28485600  0.93822000  1
  O  O3  1  0.52390700  0.71514400  0.06178000  1
  O  O4  1  0.80876300  0.52390700  0.93822000  1
  O  O5  1  0.19123700  0.47609300  0.06178000  1
  O  O6  1  0.85873400  0.42505200  0.70053600  1
  O  O7  1  0.14126600  0.57494800  0.29946400  1
  O  O8  1  0.56631700  0.14126600  0.70053600  1
  O  O9  1  0.43368300  0.85873400  0.29946400  1
  O  O10  1  0.57494800  0.43368300  0.70053600  1
  O  O11  1  0.42505200  0.56631700  0.29946400  1
  O  O12  1  0.80832800  0.86264700  0.62175200  1
  O  O13  1  0.19167200  0.13735300  0.37824800  1
  O  O14  1  0.05431800  0.19167200  0.62175200  1
  O  O15  1  0.94568200  0.80832800  0.37824800  1
  O  O16  1  0.13735300  0.94568200  0.62175200  1
  O  O17  1  0.86264700  0.05431800  0.37824800  1
  F  F0  1  0.96850400  0.13647700  0.87866500  1
  F  F1  1  0.03149600  0.86352300  0.12133500  1
  F  F2  1  0.16797300  0.03149600  0.87866500  1
  F  F3  1  0.83202700  0.96850400  0.12133500  1
  F  F4  1  0.86352300  0.83202700  0.87866500  1
  F  F5  1  0.13647700  0.16797300  0.12133500  1
  F  F6  1  0.46484900  0.62732900  0.79215400  1
  F  F7  1  0.53515100  0.37267100  0.20784600  1
  F  F8  1  0.16248000  0.53515100  0.79215400  1
  F  F9  1  0.83752000  0.46484900  0.20784600  1
  F  F10  1  0.37267100  0.83752000  0.79215400  1
  F  F11  1  0.62732900  0.16248000  0.20784600  1
  F  F12  1  0.50372700  0.79804000  0.55096700  1
  F  F13  1  0.49627300  0.20196000  0.44903300  1
  F  F14  1  0.29431400  0.49627300  0.55096700  1
  F  F15  1  0.70568600  0.50372700  0.44903300  1
  F  F16  1  0.20196000  0.70568600  0.55096700  1
  F  F17  1  0.79804000  0.29431400  0.44903300  1
loop_
_geom_bond_atom_site_label_1
_geom_bond_atom_site_label_2
_geom_bond_distance
_geom_bond_site_symmetry_2
Mn0 O16 1.848353 1_545
Mn0 O17 1.848353 1_455
Mn0 O13 1.848358 1_555
Mn0 O12 1.848358 1_445
Mn0 O14 1.848360 1_555
Mn0 O15 1.848360 1_445
Mn1 O0 1.701004 1_555
Mn1 O4 1.701010 1_555
Mn1 O2 1.701012 1_555
Mn1 O6 1.975332 1_555
Mn1 O8 1.975333 1_555
Mn1 O10 1.975344 1_555
Mn2 O1 1.701004 1_555
Mn2 O5 1.701010 1_555
Mn2 O3 1.701012 1_555
Mn2 O7 1.975332 1_555
Mn2 O9 1.975333 1_555
Mn2 O11 1.975344 1_555
F0 Si2 1.722220 1_656
F1 Si2 1.722220 1_565
F2 Si2 1.722220 1_556
F3 Si2 1.722220 1_665
F4 Si2 1.722220 1_666
F5 Si2 1.722220 1_555
F6 Si1 1.712234 1_555
F7 Si0 1.712234 1_555
F8 Si1 1.712229 1_555
F9 Si0 1.712229 1_555
F10 Si1 1.712226 1_555
F11 Si0 1.712226 1_555
F12 Si1 1.727547 1_555
F13 Si0 1.727547 1_555
F14 Si1 1.727552 1_555
F15 Si0 1.727552 1_555
F16 Si1 1.727537 1_555
F17 Si0 1.727537 1_555
