# generated using pymatgen
data_VCo3AsO8
_symmetry_space_group_name_H-M   'P 1'
_cell_length_a   6.46330882
_cell_length_b   6.46330882
_cell_length_c   8.22013934
_cell_angle_alpha   89.98489850
_cell_angle_beta   89.98489850
_cell_angle_gamma   54.84720709
_symmetry_Int_Tables_number   1
_chemical_formula_structural   VCo3AsO8
_chemical_formula_sum   'V2 Co6 As2 O16'
_cell_volume   280.76323898
_cell_formula_units_Z   2
loop_
 _symmetry_equiv_pos_site_id
 _symmetry_equiv_pos_as_xyz
  1  'x, y, z'
loop_
 _atom_site_type_symbol
 _atom_site_label
 _atom_site_symmetry_multiplicity
 _atom_site_fract_x
 _atom_site_fract_y
 _atom_site_fract_z
 _atom_site_occupancy
  V  V0  1  0.62198637  0.62198637  0.88309932  1
  V  V1  1  0.37801363  0.37801363  0.11690068  1
  Co  Co0  1  0.50000000  0.50000000  0.50000000  1
  Co  Co1  1  -0.00000000  0.00000000  0.00000000  1
  Co  Co2  1  0.88567649  0.38279299  0.25066707  1
  Co  Co3  1  0.61720701  0.11432351  0.74933293  1
  Co  Co4  1  0.11432351  0.61720701  0.74933293  1
  Co  Co5  1  0.38279299  0.88567649  0.25066707  1
  As  As0  1  0.87516360  0.87516360  0.38441785  1
  As  As1  1  0.12483640  0.12483640  0.61558215  1
  O  O0  1  0.75274795  0.75274795  0.26711455  1
  O  O1  1  0.24725205  0.24725205  0.73288545  1
  O  O2  1  0.74901824  0.74901824  0.77111320  1
  O  O3  1  0.25098176  0.25098176  0.22888680  1
  O  O4  1  0.50025104  0.50025104  0.25233215  1
  O  O5  1  0.49974896  0.49974896  0.74766785  1
  O  O6  1  0.00532028  0.00532028  0.74648162  1
  O  O7  1  0.99467972  0.99467972  0.25351838  1
  O  O8  1  0.88429956  0.35731375  0.49866018  1
  O  O9  1  0.64268625  0.11570044  0.50133982  1
  O  O10  1  0.14693110  0.61974192  0.99517774  1
  O  O11  1  0.38025808  0.85306890  0.00482226  1
  O  O12  1  0.11570044  0.64268625  0.50133982  1
  O  O13  1  0.35731375  0.88429956  0.49866018  1
  O  O14  1  0.85306890  0.38025808  0.00482226  1
  O  O15  1  0.61974192  0.14693110  0.99517774  1
loop_
_geom_bond_atom_site_label_1
_geom_bond_atom_site_label_2
_geom_bond_distance
_geom_bond_site_symmetry_2
Co0 O4 2.035865 1_555
Co0 O5 2.035865 1_555
Co0 O12 2.093410 1_555
Co0 O13 2.093410 1_555
Co0 O8 2.093410 1_555
Co0 O9 2.093410 1_555
Co1 O14 2.063062 1_455
Co1 O11 2.063062 1_545
Co1 O10 2.063062 1_544
Co1 O15 2.063062 1_454
Co1 O6 2.084832 1_554
Co1 O7 2.084832 1_445
Co2 O3 2.004032 1_655
Co2 O0 2.026925 1_555
Co2 O14 2.032942 1_555
Co2 O8 2.045565 1_555
Co2 O4 2.145805 1_555
Co2 O7 2.180450 1_545
Co3 O2 2.004032 1_545
Co3 O1 2.026925 1_555
Co3 O15 2.032942 1_555
Co3 O9 2.045565 1_555
Co3 O5 2.145805 1_555
Co3 O6 2.180450 1_655
Co4 O2 2.004032 1_455
Co4 O1 2.026925 1_555
Co4 O10 2.032942 1_555
Co4 O12 2.045565 1_555
Co4 O5 2.145805 1_555
Co4 O6 2.180450 1_565
Co5 O3 2.004032 1_565
Co5 O0 2.026925 1_555
Co5 O11 2.032942 1_555
Co5 O13 2.045565 1_555
Co5 O4 2.145805 1_555
Co5 O7 2.180450 1_455
As0 O0 1.703958 1_555
As0 O9 1.705442 1_565
As0 O12 1.705442 1_655
As0 O7 1.742832 1_555
As1 O1 1.703958 1_555
As1 O13 1.705442 1_545
As1 O8 1.705442 1_455
As1 O6 1.742832 1_555
O2 V0 1.723685 1_555
O3 V1 1.723685 1_555
O4 V1 1.790932 1_555
O5 V0 1.790932 1_555
O10 V1 1.727940 1_556
O11 V0 1.727940 1_554
O14 V0 1.727940 1_554
O15 V1 1.727940 1_556
