# generated using pymatgen
data_BaO4
_symmetry_space_group_name_H-M   'P 1'
_cell_length_a   8.58857200
_cell_length_b   4.80148800
_cell_length_c   8.73147829
_cell_angle_alpha   89.73514445
_cell_angle_beta   90.00000000
_cell_angle_gamma   90.00000000
_symmetry_Int_Tables_number   1
_chemical_formula_structural   BaO4
_chemical_formula_sum   'Ba4 O16'
_cell_volume   360.06420323
_cell_formula_units_Z   4
loop_
 _symmetry_equiv_pos_site_id
 _symmetry_equiv_pos_as_xyz
  1  'x, y, z'
loop_
 _atom_site_type_symbol
 _atom_site_label
 _atom_site_symmetry_multiplicity
 _atom_site_fract_x
 _atom_site_fract_y
 _atom_site_fract_z
 _atom_site_occupancy
  Ba  Ba0  1  0.36378300  0.23474200  0.67055500  1
  Ba  Ba1  1  0.86378300  0.76525800  0.82944500  1
  Ba  Ba2  1  0.63621700  0.76525800  0.32944500  1
  Ba  Ba3  1  0.13621700  0.23474200  0.17055500  1
  O  O0  1  0.49092300  0.72956600  0.62075200  1
  O  O1  1  0.99092300  0.27043400  0.87924800  1
  O  O2  1  0.50907700  0.27043400  0.37924800  1
  O  O3  1  0.00907700  0.72956600  0.12075200  1
  O  O4  1  0.70680400  0.23072600  0.66528300  1
  O  O5  1  0.20680400  0.76927400  0.83471700  1
  O  O6  1  0.29319600  0.76927400  0.33471700  1
  O  O7  1  0.79319600  0.23072600  0.16528300  1
  O  O8  1  0.79462100  0.08601300  0.56980600  1
  O  O9  1  0.29462100  0.91398700  0.93019400  1
  O  O10  1  0.20537900  0.91398700  0.43019400  1
  O  O11  1  0.70537900  0.08601300  0.06980600  1
  O  O12  1  0.04895800  0.28846300  0.73203300  1
  O  O13  1  0.54895800  0.71153700  0.76796700  1
  O  O14  1  0.95104200  0.71153700  0.26796700  1
  O  O15  1  0.45104200  0.28846300  0.23203300  1
loop_
_geom_bond_atom_site_label_1
_geom_bond_atom_site_label_2
_geom_bond_distance
_geom_bond_site_symmetry_2
Ba0 O0 2.648917 1_555
Ba0 O0 2.697170 1_545
Ba0 O12 2.768939 1_555
Ba0 O9 2.798555 1_545
Ba0 O2 2.837625 1_555
Ba0 O13 2.917497 1_555
Ba0 O10 2.942317 1_545
Ba0 O4 2.946485 1_555
Ba0 O5 2.972813 1_545
Ba0 O13 3.089333 1_545
Ba0 O5 3.239362 1_555
Ba1 O1 2.648917 1_555
Ba1 O1 2.697170 1_565
Ba1 O13 2.768939 1_555
Ba1 O8 2.798555 1_565
Ba1 O3 2.837625 1_656
Ba1 O12 2.917497 1_655
Ba1 O11 2.942317 1_566
Ba1 O5 2.946485 1_655
Ba1 O4 2.972813 1_565
Ba1 O12 3.089333 1_665
Ba1 O4 3.239362 1_555
Ba2 O2 2.648917 1_555
Ba2 O2 2.697170 1_565
Ba2 O14 2.768939 1_555
Ba2 O11 2.798555 1_565
Ba2 O0 2.837625 1_555
Ba2 O15 2.917497 1_555
Ba2 O8 2.942317 1_565
Ba2 O6 2.946485 1_555
Ba2 O7 2.972813 1_565
Ba2 O15 3.089333 1_565
Ba2 O7 3.239362 1_555
Ba3 O3 2.648917 1_555
Ba3 O3 2.697170 1_545
Ba3 O15 2.768939 1_555
Ba3 O10 2.798555 1_545
Ba3 O1 2.837625 1_454
Ba3 O14 2.917497 1_455
Ba3 O9 2.942317 1_544
Ba3 O7 2.946485 1_455
Ba3 O6 2.972813 1_545
Ba3 O14 3.089333 1_445
Ba3 O6 3.239362 1_555
O0 O13 1.381003 1_555
O1 O12 1.381003 1_655
O4 O8 1.323627 1_555
O5 O9 1.323627 1_555
O10 O6 1.323627 1_555
O11 O7 1.323627 1_555
O14 O3 1.381003 1_655
O15 O2 1.381003 1_555
