# generated using pymatgen
data_Ca3Fe2Br2O5
_symmetry_space_group_name_H-M   'P 1'
_cell_length_a   5.53791331
_cell_length_b   5.53790545
_cell_length_c   13.43118382
_cell_angle_alpha   90.00045094
_cell_angle_beta   78.20210823
_cell_angle_gamma   90.00051195
_symmetry_Int_Tables_number   1
_chemical_formula_structural   Ca3Fe2Br2O5
_chemical_formula_sum   'Ca6 Fe4 Br4 O10'
_cell_volume   403.21175157
_cell_formula_units_Z   2
loop_
 _symmetry_equiv_pos_site_id
 _symmetry_equiv_pos_as_xyz
  1  'x, y, z'
loop_
 _atom_site_type_symbol
 _atom_site_label
 _atom_site_symmetry_multiplicity
 _atom_site_fract_x
 _atom_site_fract_y
 _atom_site_fract_z
 _atom_site_occupancy
  Ca  Ca0  1  0.49999300  0.00000000  0.99998300  1
  Ca  Ca1  1  0.00001200  0.50000700  0.00000800  1
  Ca  Ca2  1  0.13566000  0.49999600  0.72829800  1
  Ca  Ca3  1  0.63566000  0.99999300  0.72829500  1
  Ca  Ca4  1  0.36433700  0.99999800  0.27171000  1
  Ca  Ca5  1  0.86434200  0.50001200  0.27170600  1
  Fe  Fe0  1  0.42700200  0.50001100  0.14545000  1
  Fe  Fe1  1  0.07300100  0.99999900  0.85453700  1
  Fe  Fe2  1  0.92703000  0.99999700  0.14542200  1
  Fe  Fe3  1  0.57298900  0.49999300  0.85455100  1
  Br  Br0  1  0.31252900  0.49999800  0.37896700  1
  Br  Br1  1  0.81252500  0.00000400  0.37897200  1
  Br  Br2  1  0.18747100  0.99999900  0.62105600  1
  Br  Br3  1  0.68746900  0.49999100  0.62106700  1
  O  O0  1  0.49999700  0.50001300  0.99995700  1
  O  O1  1  0.00000200  0.99998500  0.00002900  1
  O  O2  1  0.66741000  0.24978300  0.16428800  1
  O  O3  1  0.16738500  0.74978500  0.16429800  1
  O  O4  1  0.83258800  0.25021700  0.83571100  1
  O  O5  1  0.33260400  0.75022100  0.83570200  1
  O  O6  1  0.16739400  0.25022000  0.16429400  1
  O  O7  1  0.66739400  0.75023000  0.16429400  1
  O  O8  1  0.33260300  0.24977300  0.83570400  1
  O  O9  1  0.83260400  0.74977400  0.83570100  1
loop_
_geom_bond_atom_site_label_1
_geom_bond_atom_site_label_2
_geom_bond_distance
_geom_bond_site_symmetry_2
Ca0 O1 2.768781 1_546
Ca0 O0 2.768881 1_545
Ca0 O0 2.769025 1_555
Ca0 O1 2.769133 1_646
Ca0 O8 2.911622 1_555
Ca0 O5 2.911633 1_545
Ca0 O2 2.911982 1_556
Ca0 O7 2.911997 1_546
Ca0 O4 2.918715 1_555
Ca0 O9 2.918864 1_545
Ca0 O6 2.919061 1_556
Ca0 O3 2.919106 1_546
Ca1 O0 2.768734 1_554
Ca1 O1 2.768831 1_555
Ca1 O1 2.769075 1_545
Ca1 O0 2.769180 1_454
Ca1 O3 2.911688 1_555
Ca1 O6 2.911716 1_555
Ca1 O4 2.911931 1_454
Ca1 O9 2.911963 1_454
Ca1 O2 2.918819 1_455
Ca1 O7 2.918908 1_455
Ca1 O5 2.918985 1_554
Ca1 O8 2.919018 1_554
Ca2 O9 2.412677 1_455
Ca2 O4 2.412788 1_455
Ca2 O5 2.415381 1_555
Ca2 O8 2.415414 1_555
Ca3 O5 2.412678 1_555
Ca3 O8 2.412723 1_565
Ca3 O9 2.415404 1_555
Ca3 O4 2.415438 1_565
Ca4 O7 2.412728 1_555
Ca4 O2 2.412865 1_565
Ca4 O3 2.415442 1_555
Ca4 O6 2.415503 1_565
Ca5 O3 2.412646 1_655
Ca5 O6 2.412763 1_655
Ca5 O7 2.415470 1_555
Ca5 O2 2.415485 1_555
Fe0 O0 1.912868 1_554
Fe0 O7 1.973377 1_555
Fe0 O2 1.973472 1_555
Fe0 O3 1.973748 1_555
Fe0 O6 1.973765 1_555
Fe1 O1 1.912854 1_556
Fe1 O9 1.973391 1_455
Fe1 O4 1.973410 1_465
Fe1 O8 1.973678 1_565
Fe1 O5 1.973712 1_555
Fe2 O1 1.911553 1_655
Fe2 O3 1.973340 1_655
Fe2 O6 1.973384 1_665
Fe2 O7 1.973773 1_555
Fe2 O2 1.973801 1_565
Fe3 O0 1.911724 1_555
Fe3 O8 1.973368 1_555
Fe3 O5 1.973422 1_555
Fe3 O4 1.973688 1_555
Fe3 O9 1.973751 1_555
Br0 Fe0 3.070162 1_555
Br0 Ca5 3.100593 1_555
Br0 Ca4 3.107354 1_545
Br0 Ca4 3.107370 1_555
Br0 Ca5 3.114170 1_455
Br1 Fe2 3.070595 1_545
Br1 Ca4 3.100592 1_645
Br1 Ca5 3.107368 1_545
Br1 Ca5 3.107463 1_555
Br1 Ca4 3.114183 1_545
Br2 Fe1 3.069688 1_555
Br2 Ca3 3.100506 1_455
Br2 Ca2 3.107250 1_565
Br2 Ca2 3.107295 1_555
Br2 Ca3 3.113995 1_555
Br3 Fe3 3.069727 1_555
Br3 Ca2 3.100468 1_555
Br3 Ca3 3.107187 1_545
Br3 Ca3 3.107191 1_555
Br3 Ca2 3.113938 1_655
