# generated using pymatgen
data_SmNiGe
_symmetry_space_group_name_H-M   'P 1'
_cell_length_a   4.27355760
_cell_length_b   7.12351670
_cell_length_c   7.26891413
_cell_angle_alpha   89.97642715
_cell_angle_beta   90.00001239
_cell_angle_gamma   90.00000043
_symmetry_Int_Tables_number   1
_chemical_formula_structural   SmNiGe
_chemical_formula_sum   'Sm4 Ni4 Ge4'
_cell_volume   221.28578197
_cell_formula_units_Z   4
loop_
 _symmetry_equiv_pos_site_id
 _symmetry_equiv_pos_as_xyz
  1  'x, y, z'
loop_
 _atom_site_type_symbol
 _atom_site_label
 _atom_site_symmetry_multiplicity
 _atom_site_fract_x
 _atom_site_fract_y
 _atom_site_fract_z
 _atom_site_occupancy
  Sm  Sm0  1  0.25000014  0.48911887  0.20500878  1
  Sm  Sm1  1  0.24999992  0.98944452  0.29496228  1
  Sm  Sm2  1  0.74999998  0.51081439  0.79497398  1
  Sm  Sm3  1  0.75000004  0.01065967  0.70497355  1
  Ni  Ni0  1  0.25000014  0.18864603  0.91838013  1
  Ni  Ni1  1  0.25000006  0.68889788  0.58168773  1
  Ni  Ni2  1  0.74999958  0.81120282  0.08166547  1
  Ni  Ni3  1  0.75000015  0.31122861  0.41832698  1
  Ge  Ge0  1  0.25000010  0.30551347  0.58877280  1
  Ge  Ge1  1  0.24999977  0.80559890  0.91107163  1
  Ge  Ge2  1  0.74999998  0.69443599  0.41121171  1
  Ge  Ge3  1  0.75000014  0.19443784  0.08896497  1
loop_
_geom_bond_atom_site_label_1
_geom_bond_atom_site_label_2
_geom_bond_distance
_geom_bond_site_symmetry_2
Ni0 Sm3 2.929387 1_555
Ni0 Sm3 2.929388 1_455
Ni0 Sm0 2.987636 1_556
Ni0 Sm1 3.082768 1_546
Ni0 Sm2 3.261240 1_555
Ni0 Sm2 3.261240 1_455
Ni1 Sm2 2.928671 1_555
Ni1 Sm2 2.928672 1_455
Ni1 Sm1 2.987274 1_555
Ni1 Sm0 3.086325 1_555
Ni1 Sm3 3.259481 1_565
Ni1 Sm3 3.259481 1_465
Ni2 Sm1 2.929752 1_555
Ni2 Sm1 2.929754 1_655
Ni2 Sm2 2.987523 1_554
Ni2 Sm3 3.084313 1_564
Ni2 Sm0 3.260690 1_555
Ni2 Sm0 3.260693 1_655
Ni3 Sm0 2.928199 1_555
Ni3 Sm0 2.928199 1_655
Ni3 Sm3 2.986988 1_555
Ni3 Sm2 3.085484 1_555
Ni3 Sm1 3.259750 1_645
Ni3 Sm1 3.259751 1_545
Ge0 Ni3 2.470314 1_455
Ge0 Ni3 2.470314 1_555
Ge0 Ni0 2.536080 1_555
Ge0 Ni1 2.731510 1_555
Ge0 Sm2 2.992157 1_555
Ge0 Sm2 2.992158 1_455
Ge0 Sm0 3.080458 1_555
Ge0 Sm1 3.103942 1_545
Ge0 Sm3 3.112790 1_555
Ge0 Sm3 3.112791 1_455
Ge1 Ni2 2.470857 1_556
Ge1 Ni2 2.470859 1_456
Ge1 Ni1 2.534804 1_555
Ge1 Ni0 2.729182 1_565
Ge1 Sm3 2.990343 1_465
Ge1 Sm3 2.990345 1_565
Ge1 Sm1 3.082993 1_556
Ge1 Sm0 3.105424 1_556
Ge1 Sm2 3.112722 1_455
Ge1 Sm2 3.112724 1_555
Ge2 Ni1 2.470404 1_555
Ge2 Ni1 2.470404 1_655
Ge2 Ni2 2.535426 1_555
Ge2 Ni3 2.730253 1_555
Ge2 Sm0 2.992220 1_555
Ge2 Sm0 2.992221 1_655
Ge2 Sm2 3.080495 1_555
Ge2 Sm3 3.104498 1_565
Ge2 Sm1 3.113630 1_655
Ge2 Sm1 3.113630 1_555
Ge3 Ni0 2.470847 1_554
Ge3 Ni0 2.470847 1_654
Ge3 Ni3 2.534863 1_555
Ge3 Ni2 2.730518 1_545
Ge3 Sm1 2.989742 1_645
Ge3 Sm1 2.989743 1_545
Ge3 Sm3 3.083452 1_554
Ge3 Sm2 3.105159 1_554
Ge3 Sm0 3.112120 1_655
Ge3 Sm0 3.112120 1_555
