# generated using pymatgen
data_In3Ni7
_symmetry_space_group_name_H-M   'P 1'
_cell_length_a   6.54707200
_cell_length_b   8.94152497
_cell_length_c   9.81127025
_cell_angle_alpha   106.83305604
_cell_angle_beta   96.98001918
_cell_angle_gamma   90.28802039
_symmetry_Int_Tables_number   1
_chemical_formula_structural   In3Ni7
_chemical_formula_sum   'In12 Ni28'
_cell_volume   545.18628894
_cell_formula_units_Z   4
loop_
 _symmetry_equiv_pos_site_id
 _symmetry_equiv_pos_as_xyz
  1  'x, y, z'
loop_
 _atom_site_type_symbol
 _atom_site_label
 _atom_site_symmetry_multiplicity
 _atom_site_fract_x
 _atom_site_fract_y
 _atom_site_fract_z
 _atom_site_occupancy
  In  In0  1  0.32431200  0.83686800  0.39551600  1
  In  In1  1  0.67568800  0.16313200  0.60448400  1
  In  In2  1  0.06454300  0.71222700  0.01483800  1
  In  In3  1  0.93545700  0.28777300  0.98516200  1
  In  In4  1  0.78961200  0.52854600  0.55445900  1
  In  In5  1  0.21038800  0.47145400  0.44554100  1
  In  In6  1  0.47296300  0.36493600  0.12441100  1
  In  In7  1  0.52703700  0.63506400  0.87558900  1
  In  In8  1  0.62010400  0.99677400  0.86586000  1
  In  In9  1  0.37989600  0.00322600  0.13414000  1
  In  In10  1  0.84744400  0.73274800  0.31356000  1
  In  In11  1  0.15255600  0.26725200  0.68644000  1
  Ni  Ni0  1  0.85969200  0.76403300  0.78399100  1
  Ni  Ni1  1  0.14030800  0.23596700  0.21600900  1
  Ni  Ni2  1  0.02785700  0.98344700  0.25033100  1
  Ni  Ni3  1  0.97214300  0.01655300  0.74966900  1
  Ni  Ni4  1  0.75759400  0.54208900  0.06244300  1
  Ni  Ni5  1  0.24240600  0.45791100  0.93755700  1
  Ni  Ni6  1  0.52414400  0.58560800  0.36366200  1
  Ni  Ni7  1  0.47585600  0.41439200  0.63633800  1
  Ni  Ni8  1  0.44388600  0.71099600  0.63615300  1
  Ni  Ni9  1  0.55611400  0.28900400  0.36384700  1
  Ni  Ni10  1  0.84563700  0.42313100  0.27361700  1
  Ni  Ni11  1  0.15436300  0.57686900  0.72638300  1
  Ni  Ni12  1  0.66893900  0.00171500  0.33736800  1
  Ni  Ni13  1  0.33106100  0.99828500  0.66263200  1
  Ni  Ni14  1  0.72603200  0.85418100  0.08142400  1
  Ni  Ni15  1  0.27396800  0.14581900  0.91857600  1
  Ni  Ni16  1  0.00000000  0.00000000  0.50000000  1
  Ni  Ni17  1  0.14896600  0.54432200  0.20050800  1
  Ni  Ni18  1  0.85103400  0.45567800  0.79949200  1
  Ni  Ni19  1  0.92860700  0.23388100  0.41640600  1
  Ni  Ni20  1  0.07139300  0.76611900  0.58359400  1
  Ni  Ni21  1  0.45304300  0.69936900  0.15136800  1
  Ni  Ni22  1  0.54695700  0.30063100  0.84863200  1
  Ni  Ni23  1  0.75775800  0.14385800  0.16447100  1
  Ni  Ni24  1  0.24224200  0.85614200  0.83552900  1
  Ni  Ni25  1  0.00000000  0.00000000  0.00000000  1
  Ni  Ni26  1  0.70115400  0.85564800  0.56261100  1
  Ni  Ni27  1  0.29884600  0.14435200  0.43738900  1
loop_
_geom_bond_atom_site_label_1
_geom_bond_atom_site_label_2
_geom_bond_distance
_geom_bond_site_symmetry_2
In0 Ni6 2.564967 1_555
In0 Ni13 2.594976 1_555
In0 Ni21 2.599088 1_555
In0 Ni27 2.668842 1_565
In0 Ni16 2.716807 1_565
In0 Ni26 2.767008 1_555
In0 Ni2 2.819373 1_555
In0 Ni20 2.820530 1_555
In0 Ni12 2.890577 1_565
In0 Ni17 2.891082 1_555
In0 Ni8 2.924434 1_555
In1 Ni7 2.564967 1_555
In1 Ni12 2.594976 1_555
In1 Ni22 2.599088 1_555
In1 Ni26 2.668842 1_545
In1 Ni16 2.716807 1_655
In1 Ni27 2.767008 1_555
In1 Ni3 2.819373 1_555
In1 Ni19 2.820530 1_555
In1 Ni13 2.890577 1_545
In1 Ni18 2.891082 1_555
In1 Ni9 2.924434 1_555
In2 Ni5 2.518829 1_554
In2 Ni14 2.617173 1_455
In2 Ni0 2.649285 1_454
In2 Ni25 2.652110 1_565
In2 Ni4 2.679545 1_455
In2 Ni17 2.688033 1_555
In2 Ni21 2.746122 1_555
In2 Ni24 2.810324 1_554
In2 Ni18 2.850100 1_454
In2 Ni2 2.858807 1_555
In2 Ni11 2.871934 1_554
In2 In9 3.161928 1_565
In3 Ni4 2.518829 1_556
In3 Ni15 2.617173 1_655
In3 Ni1 2.649285 1_656
In3 Ni25 2.652110 1_656
In3 Ni5 2.679545 1_655
In3 Ni18 2.688033 1_555
In3 Ni22 2.746122 1_555
In3 Ni23 2.810324 1_556
In3 Ni17 2.850100 1_656
In3 Ni3 2.858807 1_555
In3 Ni10 2.871934 1_556
In3 In8 3.161928 1_545
In4 Ni6 2.560599 1_555
In4 Ni0 2.590070 1_555
In4 Ni7 2.600340 1_555
In4 Ni18 2.653436 1_555
In4 Ni11 2.706148 1_655
In4 Ni10 2.712973 1_555
In4 Ni9 2.715579 1_555
In4 Ni20 2.734665 1_655
In4 Ni19 2.803828 1_555
In4 Ni8 2.854470 1_555
In4 Ni26 2.964626 1_555
In4 In5 3.066831 1_655
In5 Ni7 2.560599 1_555
In5 Ni1 2.590070 1_555
In5 Ni6 2.600340 1_555
In5 Ni17 2.653436 1_555
In5 Ni10 2.706148 1_455
In5 Ni11 2.712973 1_555
In5 Ni8 2.715579 1_555
In5 Ni19 2.734665 1_455
In5 Ni20 2.803828 1_555
In5 Ni9 2.854470 1_555
In5 Ni27 2.964626 1_555
In6 Ni5 2.559934 1_554
In6 Ni6 2.575913 1_555
In6 Ni15 2.580245 1_554
In6 Ni9 2.625373 1_555
In6 Ni10 2.654231 1_555
In6 Ni4 2.674856 1_555
In6 Ni22 2.703085 1_554
In6 Ni17 2.712076 1_555
In6 Ni23 2.801370 1_555
In6 Ni1 2.816287 1_555
In6 Ni21 2.929734 1_555
In7 Ni4 2.559934 1_556
In7 Ni7 2.575913 1_555
In7 Ni14 2.580245 1_556
In7 Ni8 2.625373 1_555
In7 Ni11 2.654231 1_555
In7 Ni5 2.674856 1_555
In7 Ni21 2.703085 1_556
In7 Ni18 2.712076 1_555
In7 Ni24 2.801370 1_555
In7 Ni0 2.816287 1_555
In7 Ni22 2.929734 1_555
In8 Ni13 2.579888 1_555
In8 Ni0 2.609104 1_555
In8 Ni15 2.663673 1_565
In8 Ni25 2.664735 1_666
In8 Ni24 2.713480 1_555
In8 Ni3 2.719249 1_565
In8 Ni14 2.791737 1_556
In8 Ni22 2.810532 1_565
In8 Ni23 2.870552 1_566
In8 Ni26 2.990333 1_555
In8 Ni8 2.990458 1_555
In9 Ni12 2.579888 1_555
In9 Ni1 2.609104 1_555
In9 Ni14 2.663673 1_545
In9 Ni25 2.664735 1_555
In9 Ni23 2.713480 1_555
In9 Ni2 2.719249 1_545
In9 Ni15 2.791737 1_554
In9 Ni21 2.810532 1_545
In9 Ni24 2.870552 1_544
In9 Ni27 2.990333 1_555
In9 Ni9 2.990458 1_555
In10 Ni4 2.554909 1_555
In10 Ni12 2.640746 1_565
In10 Ni6 2.655621 1_555
In10 Ni16 2.655996 1_665
In10 Ni26 2.668308 1_555
In10 Ni10 2.681084 1_555
In10 Ni17 2.729322 1_655
In10 Ni2 2.786001 1_655
In10 Ni20 2.802075 1_655
In10 Ni14 2.828243 1_555
In10 Ni21 2.829744 1_555
In11 Ni5 2.554909 1_555
In11 Ni13 2.640746 1_545
In11 Ni7 2.655621 1_555
In11 Ni16 2.655996 1_555
In11 Ni27 2.668308 1_555
In11 Ni11 2.681084 1_555
In11 Ni18 2.729322 1_455
In11 Ni3 2.786001 1_455
In11 Ni19 2.802075 1_455
In11 Ni15 2.828243 1_555
In11 Ni22 2.829744 1_555
Ni0 Ni3 2.497499 1_565
Ni0 Ni20 2.543710 1_655
Ni0 Ni11 2.567441 1_655
Ni0 Ni24 2.576274 1_655
Ni0 Ni25 2.589328 1_666
Ni0 Ni26 2.637647 1_555
Ni0 Ni18 2.805651 1_555
Ni0 Ni8 2.892869 1_555
Ni0 Ni14 3.032618 1_556
Ni1 Ni2 2.497499 1_545
Ni1 Ni19 2.543710 1_455
Ni1 Ni10 2.567441 1_455
Ni1 Ni23 2.576274 1_455
Ni1 Ni25 2.589328 1_555
Ni1 Ni27 2.637647 1_555
Ni1 Ni17 2.805651 1_555
Ni1 Ni9 2.892869 1_555
Ni1 Ni15 3.032618 1_554
Ni2 Ni25 2.487844 1_565
Ni2 Ni27 2.497919 1_565
Ni2 Ni23 2.501444 1_465
Ni6 Ni9 2.661895 1_555
Ni6 Ni8 2.700364 1_555
Ni7 Ni8 2.661895 1_555
Ni7 Ni9 2.700364 1_555
Ni10 Ni23 2.449588 1_555
Ni10 Ni19 2.513660 1_555
Ni10 Ni17 2.531282 1_655
Ni10 Ni4 2.597811 1_555
Ni10 Ni9 2.610545 1_555
Ni10 Ni6 2.657214 1_555
Ni11 Ni24 2.449588 1_555
Ni11 Ni20 2.513660 1_555
Ni11 Ni18 2.531282 1_455
Ni11 Ni5 2.597811 1_555
Ni11 Ni8 2.610545 1_555
Ni11 Ni7 2.657214 1_555
Ni12 Ni23 2.512389 1_555
Ni12 Ni16 2.533409 1_655
Ni12 Ni14 2.549563 1_545
Ni12 Ni19 2.552011 1_555
Ni12 Ni2 2.586220 1_645
Ni12 Ni9 2.625087 1_555
Ni12 Ni26 2.862719 1_545
Ni12 Ni27 2.888737 1_555
Ni12 Ni21 3.018954 1_545
Ni13 Ni24 2.512389 1_555
Ni13 Ni16 2.533409 1_565
Ni13 Ni15 2.549563 1_565
Ni13 Ni20 2.552011 1_555
Ni13 Ni3 2.586220 1_465
Ni13 Ni8 2.625087 1_555
Ni13 Ni27 2.862719 1_565
Ni13 Ni26 2.888737 1_555
Ni13 Ni22 3.018954 1_565
Ni14 Ni2 2.461475 1_655
Ni14 Ni23 2.479332 1_565
Ni14 Ni21 2.530780 1_555
Ni14 Ni25 2.546281 1_665
Ni14 Ni4 2.752976 1_555
Ni15 Ni3 2.461475 1_455
Ni15 Ni24 2.479332 1_545
Ni15 Ni22 2.530780 1_555
Ni15 Ni25 2.546281 1_556
Ni15 Ni5 2.752976 1_555
Ni16 Ni3 2.440171 1_455
Ni16 Ni2 2.440171 1_545
Ni16 Ni19 2.484856 1_455
Ni16 Ni20 2.484856 1_545
Ni16 Ni27 2.568546 1_555
Ni16 Ni26 2.568546 1_445
Ni17 Ni21 2.590448 1_555
Ni17 Ni5 2.619331 1_554
Ni17 Ni6 2.724914 1_555
Ni17 Ni4 2.746113 1_455
Ni18 Ni22 2.590448 1_555
Ni18 Ni4 2.619331 1_556
Ni18 Ni7 2.724914 1_555
Ni18 Ni5 2.746113 1_655
Ni19 Ni23 2.485061 1_555
Ni19 Ni2 2.500053 1_645
Ni19 Ni9 2.511958 1_555
Ni19 Ni27 2.559801 1_655
Ni20 Ni24 2.485061 1_555
Ni20 Ni3 2.500053 1_465
Ni20 Ni8 2.511958 1_555
Ni20 Ni26 2.559801 1_455
Ni21 Ni4 2.540675 1_555
Ni21 Ni6 2.566307 1_555
Ni21 Ni5 2.758176 1_554
Ni22 Ni5 2.540675 1_555
Ni22 Ni7 2.566307 1_555
Ni22 Ni4 2.758176 1_556
Ni23 Ni25 2.492829 1_655
Ni23 Ni9 2.535391 1_555
Ni24 Ni25 2.492829 1_566
Ni24 Ni3 2.501444 1_465
Ni24 Ni8 2.535391 1_555
Ni25 Ni3 2.487844 1_454
Ni26 Ni8 2.417552 1_555
Ni26 Ni3 2.497919 1_565
Ni26 Ni6 2.770498 1_555
Ni27 Ni9 2.417552 1_555
Ni27 Ni7 2.770498 1_555
