# generated using pymatgen
data_Nd5Sb3
_symmetry_space_group_name_H-M   'P 1'
_cell_length_a   6.53555470
_cell_length_b   9.34463707
_cell_length_c   9.34441266
_cell_angle_alpha   120.00251903
_cell_angle_beta   89.99951298
_cell_angle_gamma   90.00022855
_symmetry_Int_Tables_number   1
_chemical_formula_structural   Nd5Sb3
_chemical_formula_sum   'Nd10 Sb6'
_cell_volume   494.21566730
_cell_formula_units_Z   2
loop_
 _symmetry_equiv_pos_site_id
 _symmetry_equiv_pos_as_xyz
  1  'x, y, z'
loop_
 _atom_site_type_symbol
 _atom_site_label
 _atom_site_symmetry_multiplicity
 _atom_site_fract_x
 _atom_site_fract_y
 _atom_site_fract_z
 _atom_site_occupancy
  Nd  Nd0  1  0.50000089  0.33333774  0.66667268  1
  Nd  Nd1  1  0.50000377  0.66665675  0.33332246  1
  Nd  Nd2  1  -0.00000346  0.66665908  0.33332262  1
  Nd  Nd3  1  0.00000094  0.33334015  0.66667280  1
  Nd  Nd4  1  0.74998841  0.25101120  -0.00000455  1
  Nd  Nd5  1  0.74998978  0.74903651  0.74902290  1
  Nd  Nd6  1  0.74998840  0.00002185  0.25096725  1
  Nd  Nd7  1  0.25001247  0.74898582  -0.00000088  1
  Nd  Nd8  1  0.25001213  0.25094718  0.25097940  1
  Nd  Nd9  1  0.25001245  0.99999007  0.74903467  1
  Sb  Sb0  1  0.74997962  0.61462601  0.00005967  1
  Sb  Sb1  1  0.74998684  0.38554441  0.38545678  1
  Sb  Sb2  1  0.74998621  -0.00006828  0.61448363  1
  Sb  Sb3  1  0.24999794  0.38545329  0.00007934  1
  Sb  Sb4  1  0.25002188  0.61453964  0.61446671  1
  Sb  Sb5  1  0.25002273  -0.00008343  0.38546353  1
loop_
_geom_bond_atom_site_label_1
_geom_bond_atom_site_label_2
_geom_bond_distance
_geom_bond_site_symmetry_2
Nd0 Sb5 3.330747 1_555
Nd0 Sb4 3.330785 1_555
Nd0 Sb0 3.330797 1_556
Nd0 Sb2 3.330816 1_555
Nd0 Sb1 3.330857 1_555
Nd0 Sb3 3.331014 1_556
Nd1 Sb1 3.329715 1_555
Nd1 Sb5 3.329769 1_565
Nd1 Sb4 3.329814 1_555
Nd1 Sb2 3.329878 1_565
Nd1 Sb3 3.329902 1_555
Nd1 Sb0 3.330023 1_555
Nd2 Sb1 3.329804 1_455
Nd2 Sb3 3.329880 1_555
Nd2 Sb5 3.329887 1_565
Nd2 Sb2 3.329945 1_465
Nd2 Sb4 3.329988 1_555
Nd2 Sb0 3.330173 1_455
Nd3 Sb4 3.330887 1_555
Nd3 Sb5 3.330890 1_555
Nd3 Sb0 3.330910 1_456
Nd3 Sb2 3.330922 1_455
Nd3 Sb1 3.330960 1_455
Nd3 Sb3 3.331026 1_556
Nd4 Sb1 3.166335 1_555
Nd4 Sb2 3.166908 1_554
Nd4 Sb0 3.397548 1_555
Nd4 Sb3 3.500762 1_555
Nd4 Sb3 3.500868 1_655
Nd5 Sb2 3.166238 1_565
Nd5 Sb0 3.166527 1_556
Nd5 Sb1 3.396878 1_555
Nd5 Sb4 3.501026 1_555
Nd5 Sb4 3.501407 1_655
Nd6 Sb0 3.165857 1_545
Nd6 Sb1 3.167029 1_555
Nd6 Sb2 3.397268 1_555
Nd6 Sb5 3.501084 1_555
Nd6 Sb5 3.501523 1_655
Nd7 Sb5 3.166329 1_565
Nd7 Sb4 3.167099 1_554
Nd7 Sb3 3.397454 1_555
Nd7 Sb0 3.500586 1_555
Nd7 Sb0 3.500977 1_455
Nd8 Sb3 3.166013 1_555
Nd8 Sb5 3.167031 1_555
Nd8 Sb4 3.396978 1_555
Nd8 Sb1 3.501104 1_555
Nd8 Sb1 3.501401 1_455
Nd9 Sb4 3.166270 1_555
Nd9 Sb3 3.166560 1_566
Nd9 Sb5 3.397015 1_565
Nd9 Sb2 3.501042 1_565
Nd9 Sb2 3.501382 1_465
