# generated using pymatgen
data_HoZn(SnO3)2
_symmetry_space_group_name_H-M   'P 1'
_cell_length_a   5.50024500
_cell_length_b   5.97712300
_cell_length_c   8.07416600
_cell_angle_alpha   90.00000000
_cell_angle_beta   90.00000000
_cell_angle_gamma   90.00000000
_symmetry_Int_Tables_number   1
_chemical_formula_structural   HoZn(SnO3)2
_chemical_formula_sum   'Ho2 Zn2 Sn4 O12'
_cell_volume   265.44338194
_cell_formula_units_Z   2
loop_
 _symmetry_equiv_pos_site_id
 _symmetry_equiv_pos_as_xyz
  1  'x, y, z'
loop_
 _atom_site_type_symbol
 _atom_site_label
 _atom_site_symmetry_multiplicity
 _atom_site_fract_x
 _atom_site_fract_y
 _atom_site_fract_z
 _atom_site_occupancy
  Ho  Ho0  1  0.02791800  0.66790300  0.00000000  1
  Ho  Ho1  1  0.52791800  0.33209700  0.50000000  1
  Zn  Zn0  1  0.51670700  0.33636000  0.00000000  1
  Zn  Zn1  1  0.01670700  0.66364000  0.50000000  1
  Sn  Sn0  1  0.00629100  0.21876200  0.75069100  1
  Sn  Sn1  1  0.00629100  0.21876200  0.24930900  1
  Sn  Sn2  1  0.50629100  0.78123800  0.25069100  1
  Sn  Sn3  1  0.50629100  0.78123800  0.74930900  1
  O  O0  1  0.14132500  0.22621900  0.50000000  1
  O  O1  1  0.16411800  0.91586700  0.81363500  1
  O  O2  1  0.16411800  0.91586700  0.18636500  1
  O  O3  1  0.29987100  0.44840100  0.81934000  1
  O  O4  1  0.29987100  0.44840100  0.18066000  1
  O  O5  1  0.36797700  0.69938200  0.50000000  1
  O  O6  1  0.64132500  0.77378100  0.00000000  1
  O  O7  1  0.66411800  0.08413300  0.31363500  1
  O  O8  1  0.66411800  0.08413300  0.68636500  1
  O  O9  1  0.79987100  0.55159900  0.68066000  1
  O  O10  1  0.79987100  0.55159900  0.31934000  1
  O  O11  1  0.86797700  0.30061800  0.00000000  1
loop_
_geom_bond_atom_site_label_1
_geom_bond_atom_site_label_2
_geom_bond_distance
_geom_bond_site_symmetry_2
Ho0 O6 2.218532 1_455
Ho0 O1 2.241005 1_554
Ho0 O2 2.241005 1_555
Ho0 O11 2.365010 1_455
Ho0 O3 2.467084 1_554
Ho0 O4 2.467084 1_555
Ho1 O0 2.218532 1_555
Ho1 O7 2.241005 1_555
Ho1 O8 2.241005 1_555
Ho1 O5 2.365010 1_555
Ho1 O10 2.467084 1_555
Ho1 O9 2.467084 1_555
O0 Sn1 2.156545 1_555
O0 Sn0 2.156545 1_555
O1 Sn0 2.071125 1_565
O1 Sn3 2.111716 1_555
O2 Sn1 2.071125 1_565
O2 Sn2 2.111716 1_555
O3 Zn0 1.999659 1_556
O3 Sn0 2.190585 1_555
O3 Sn3 2.359345 1_555
O4 Zn0 1.999659 1_555
O4 Sn1 2.190585 1_555
O4 Sn2 2.359345 1_555
O5 Zn1 1.943846 1_555
O5 Sn2 2.206842 1_555
O5 Sn3 2.206842 1_555
O6 Sn2 2.156545 1_555
O6 Sn3 2.156545 1_554
O7 Sn2 2.071125 1_545
O7 Sn1 2.111716 1_655
O8 Sn3 2.071125 1_545
O8 Sn0 2.111716 1_655
O9 Zn1 1.999659 1_655
O9 Sn3 2.190585 1_555
O9 Sn0 2.359345 1_655
O10 Zn1 1.999659 1_655
O10 Sn2 2.190585 1_555
O10 Sn1 2.359345 1_655
O11 Zn0 1.943846 1_555
O11 Sn1 2.206842 1_655
O11 Sn0 2.206842 1_654
