# generated using pymatgen
data_K
_symmetry_space_group_name_H-M   'P 1'
_cell_length_a   9.57285711
_cell_length_b   9.57285670
_cell_length_c   23.92429800
_cell_angle_alpha   78.45920648
_cell_angle_beta   101.54079073
_cell_angle_gamma   119.99999864
_symmetry_Int_Tables_number   1
_chemical_formula_structural   K
_chemical_formula_sum   K24
_cell_volume   1847.32580729
_cell_formula_units_Z   24
loop_
 _symmetry_equiv_pos_site_id
 _symmetry_equiv_pos_as_xyz
  1  'x, y, z'
loop_
 _atom_site_type_symbol
 _atom_site_label
 _atom_site_symmetry_multiplicity
 _atom_site_fract_x
 _atom_site_fract_y
 _atom_site_fract_z
 _atom_site_occupancy
  K  K0_0  1  0.00000000  0.00000000  0.00000000  1
  K  K0_1  1  0.00000000  0.00000000  0.50000000  1
  K  K0_2  1  0.00000000  0.50000000  0.00000000  1
  K  K0_3  1  0.00000000  0.50000000  0.50000000  1
  K  K0_4  1  0.50000000  0.00000000  0.00000000  1
  K  K0_5  1  0.50000000  0.00000000  0.50000000  1
  K  K0_6  1  0.50000000  0.50000000  0.00000000  1
  K  K0_7  1  0.50000000  0.50000000  0.50000000  1
  K  K1_0  1  0.38887097  0.11112953  0.16661241  1
  K  K1_1  1  0.38887097  0.11112953  0.66661241  1
  K  K1_2  1  0.38887097  0.61112953  0.16661241  1
  K  K1_3  1  0.38887097  0.61112953  0.66661241  1
  K  K1_4  1  0.88887097  0.11112953  0.16661241  1
  K  K1_5  1  0.88887097  0.11112953  0.66661241  1
  K  K1_6  1  0.88887097  0.61112953  0.16661241  1
  K  K1_7  1  0.88887097  0.61112953  0.66661241  1
  K  K2_0  1  0.11112953  0.38887097  0.33338809  1
  K  K2_1  1  0.11112953  0.38887097  0.83338809  1
  K  K2_2  1  0.11112953  0.88887097  0.33338809  1
  K  K2_3  1  0.11112953  0.88887097  0.83338809  1
  K  K2_4  1  0.61112953  0.38887097  0.33338809  1
  K  K2_5  1  0.61112953  0.38887097  0.83338809  1
  K  K2_6  1  0.61112953  0.88887097  0.33338809  1
  K  K2_7  1  0.61112953  0.88887097  0.83338809  1
loop_
_geom_bond_atom_site_label_1
_geom_bond_atom_site_label_2
_geom_bond_distance
_geom_bond_site_symmetry_2
K0_0 K2_3 4.762084 1_544
K0_0 K2_7 4.762084 1_444
K0_0 K2_1 4.762086 1_554
K0_0 K1_6 4.762093 1_445
K0_0 K1_4 4.762095 1_455
K0_0 K1_0 4.762095 1_555
K0_0 K0_2 4.786428 1_545
K0_0 K0_2 4.786428 1_555
K0_0 K0_6 4.786429 1_445
K0_0 K0_6 4.786429 1_555
K0_0 K0_4 4.786429 1_455
K0_0 K0_4 4.786429 1_555
K0_1 K2_2 4.762084 1_545
K0_1 K2_6 4.762084 1_445
K0_1 K2_0 4.762086 1_555
K0_1 K1_7 4.762093 1_445
K0_1 K1_5 4.762095 1_455
K0_1 K1_1 4.762095 1_555
K0_1 K0_3 4.786428 1_555
K0_1 K0_3 4.786428 1_545
K0_1 K0_7 4.786429 1_555
K0_1 K0_7 4.786429 1_445
K0_1 K0_5 4.786429 1_555
K0_1 K0_5 4.786429 1_455
K0_2 K2_1 4.762084 1_554
K0_2 K2_5 4.762084 1_454
K0_2 K2_3 4.762086 1_554
K0_2 K1_4 4.762093 1_455
K0_2 K1_6 4.762095 1_455
K0_2 K1_2 4.762095 1_555
K0_2 K0_4 4.786429 1_565
K0_2 K0_4 4.786429 1_455
K0_2 K0_6 4.786429 1_455
K0_2 K0_6 4.786429 1_555
K0_3 K2_0 4.762084 1_555
K0_3 K2_4 4.762084 1_455
K0_3 K2_2 4.762086 1_555
K0_3 K1_5 4.762093 1_455
K0_3 K1_7 4.762095 1_455
K0_3 K1_3 4.762095 1_555
K0_3 K0_5 4.786429 1_565
K0_3 K0_5 4.786429 1_455
K0_3 K0_7 4.786429 1_555
K0_3 K0_7 4.786429 1_455
K0_4 K2_7 4.762084 1_544
K0_4 K2_3 4.762084 1_544
K0_4 K2_5 4.762086 1_554
K0_4 K1_2 4.762093 1_545
K0_4 K1_0 4.762095 1_555
K0_4 K1_4 4.762095 1_555
K0_4 K0_6 4.786428 1_545
K0_4 K0_6 4.786428 1_555
K0_5 K2_6 4.762084 1_545
K0_5 K2_2 4.762084 1_545
K0_5 K2_4 4.762086 1_555
K0_5 K1_3 4.762093 1_545
K0_5 K1_1 4.762095 1_555
K0_5 K1_5 4.762095 1_555
K0_5 K0_7 4.786428 1_555
K0_5 K0_7 4.786428 1_545
K0_6 K2_5 4.762084 1_554
K0_6 K2_1 4.762084 1_554
K0_6 K2_7 4.762086 1_554
K0_6 K1_0 4.762093 1_555
K0_6 K1_2 4.762095 1_555
K0_6 K1_6 4.762095 1_555
K0_7 K2_4 4.762084 1_555
K0_7 K2_0 4.762084 1_555
K0_7 K2_6 4.762086 1_555
K0_7 K1_1 4.762093 1_555
K0_7 K1_3 4.762095 1_555
K0_7 K1_7 4.762095 1_555
K1_0 K2_2 4.765190 1_545
K1_0 K2_4 4.765190 1_555
K1_0 K2_6 4.765190 1_545
K1_0 K1_2 4.786428 1_555
K1_0 K1_2 4.786428 1_545
K1_0 K1_6 4.786429 1_445
K1_0 K1_6 4.786429 1_555
K1_0 K1_4 4.786429 1_455
K1_0 K1_4 4.786429 1_555
K1_1 K2_3 4.765190 1_545
K1_1 K2_5 4.765190 1_555
K1_1 K2_7 4.765190 1_545
K1_1 K1_3 4.786428 1_545
K1_1 K1_3 4.786428 1_555
K1_1 K1_7 4.786429 1_555
K1_1 K1_7 4.786429 1_445
K1_1 K1_5 4.786429 1_555
K1_1 K1_5 4.786429 1_455
K1_2 K2_0 4.765190 1_555
K1_2 K2_6 4.765190 1_555
K1_2 K2_4 4.765190 1_555
K1_2 K1_4 4.786429 1_455
K1_2 K1_4 4.786429 1_565
K1_2 K1_6 4.786429 1_455
K1_2 K1_6 4.786429 1_555
K1_3 K2_1 4.765190 1_555
K1_3 K2_7 4.765190 1_555
K1_3 K2_5 4.765190 1_555
K1_3 K1_5 4.786429 1_565
K1_3 K1_5 4.786429 1_455
K1_3 K1_7 4.786429 1_555
K1_3 K1_7 4.786429 1_455
K1_4 K2_6 4.765190 1_545
K1_4 K2_0 4.765190 1_655
K1_4 K2_2 4.765190 1_645
K1_4 K1_6 4.786428 1_555
K1_4 K1_6 4.786428 1_545
K1_5 K2_7 4.765190 1_545
K1_5 K2_1 4.765190 1_655
K1_5 K2_3 4.765190 1_645
K1_5 K1_7 4.786428 1_555
K1_5 K1_7 4.786428 1_545
K1_6 K2_4 4.765190 1_555
K1_6 K2_2 4.765190 1_655
K1_6 K2_0 4.765190 1_655
K1_7 K2_5 4.765190 1_555
K1_7 K2_3 4.765190 1_655
K1_7 K2_1 4.765190 1_655
K2_0 K2_2 4.786428 1_545
K2_0 K2_2 4.786428 1_555
K2_0 K2_6 4.786429 1_445
K2_0 K2_6 4.786429 1_555
K2_0 K2_4 4.786429 1_455
K2_0 K2_4 4.786429 1_555
K2_1 K2_3 4.786428 1_555
K2_1 K2_3 4.786428 1_545
K2_1 K2_7 4.786429 1_555
K2_1 K2_7 4.786429 1_445
K2_1 K2_5 4.786429 1_555
K2_1 K2_5 4.786429 1_455
K2_2 K2_4 4.786429 1_455
K2_2 K2_4 4.786429 1_565
K2_2 K2_6 4.786429 1_455
K2_2 K2_6 4.786429 1_555
K2_3 K2_5 4.786429 1_455
K2_3 K2_5 4.786429 1_565
K2_3 K2_7 4.786429 1_555
K2_3 K2_7 4.786429 1_455
K2_4 K2_6 4.786428 1_545
K2_4 K2_6 4.786428 1_555
K2_5 K2_7 4.786428 1_545
K2_5 K2_7 4.786428 1_555
