# generated using pymatgen
data_Ca12FeCo7O24
_symmetry_space_group_name_H-M   'P 1'
_cell_length_a   9.23235800
_cell_length_b   6.37158500
_cell_length_c   8.78316069
_cell_angle_alpha   86.43139460
_cell_angle_beta   90.00000000
_cell_angle_gamma   90.00000000
_symmetry_Int_Tables_number   1
_chemical_formula_structural   Ca12FeCo7O24
_chemical_formula_sum   'Ca12 Fe1 Co7 O24'
_cell_volume   515.66543857
_cell_formula_units_Z   1
loop_
 _symmetry_equiv_pos_site_id
 _symmetry_equiv_pos_as_xyz
  1  'x, y, z'
loop_
 _atom_site_type_symbol
 _atom_site_label
 _atom_site_symmetry_multiplicity
 _atom_site_fract_x
 _atom_site_fract_y
 _atom_site_fract_z
 _atom_site_occupancy
  Ca  Ca0  1  0.68627700  0.63200500  0.31452800  1
  Ca  Ca1  1  0.18167100  0.62932600  0.81563200  1
  Ca  Ca2  1  0.18167100  0.37067400  0.18436800  1
  Ca  Ca3  1  0.68627700  0.36799500  0.68547200  1
  Ca  Ca4  1  0.12977700  0.00000000  0.50000000  1
  Ca  Ca5  1  0.63338400  0.00000000  0.00000000  1
  Ca  Ca6  1  0.81826000  0.13053400  0.31683500  1
  Ca  Ca7  1  0.31447600  0.13210500  0.81404500  1
  Ca  Ca8  1  0.86975400  0.50000000  0.00000000  1
  Ca  Ca9  1  0.36597200  0.50000000  0.50000000  1
  Ca  Ca10  1  0.31447600  0.86789500  0.18595500  1
  Ca  Ca11  1  0.81826000  0.86946600  0.68316500  1
  Fe  Fe0  1  0.00006400  0.00000000  0.00000000  1
  Co  Co0  1  0.99991100  0.75010800  0.25002600  1
  Co  Co1  1  0.49996200  0.74996700  0.74982400  1
  Co  Co2  1  0.99991100  0.24989200  0.74997400  1
  Co  Co3  1  0.49996200  0.25003300  0.25017600  1
  Co  Co4  1  0.49776100  0.00000000  0.50000000  1
  Co  Co5  1  0.00000500  0.50000000  0.50000000  1
  Co  Co6  1  0.50246300  0.50000000  0.00000000  1
  O  O0  1  0.09909300  0.71186400  0.05896200  1
  O  O1  1  0.60032700  0.71200800  0.55486900  1
  O  O2  1  0.06466000  0.04072500  0.22310500  1
  O  O3  1  0.56841500  0.04768000  0.72025800  1
  O  O4  1  0.83654500  0.84340000  0.12447600  1
  O  O5  1  0.33117700  0.84640700  0.61772100  1
  O  O6  1  0.90200800  0.21304600  0.55853700  1
  O  O7  1  0.39988500  0.21199700  0.05498700  1
  O  O8  1  0.66907900  0.34656900  0.11816000  1
  O  O9  1  0.16217400  0.34497500  0.62391100  1
  O  O10  1  0.43136000  0.54752100  0.22053100  1
  O  O11  1  0.93513000  0.53958800  0.72135500  1
  O  O12  1  0.90200800  0.78695400  0.44146300  1
  O  O13  1  0.39988500  0.78800300  0.94501300  1
  O  O14  1  0.93513000  0.46041200  0.27864500  1
  O  O15  1  0.43136000  0.45247900  0.77946900  1
  O  O16  1  0.16217400  0.65502500  0.37608900  1
  O  O17  1  0.66907900  0.65343100  0.88184000  1
  O  O18  1  0.09909300  0.28813600  0.94103800  1
  O  O19  1  0.60032700  0.28799200  0.44513100  1
  O  O20  1  0.33117700  0.15359300  0.38227900  1
  O  O21  1  0.83654500  0.15660000  0.87552400  1
  O  O22  1  0.56841500  0.95232000  0.27974200  1
  O  O23  1  0.06466000  0.95927500  0.77689500  1
loop_
_geom_bond_atom_site_label_1
_geom_bond_atom_site_label_2
_geom_bond_distance
_geom_bond_site_symmetry_2
Ca0 O22 2.316271 1_555
Ca0 O1 2.340854 1_555
Ca0 O4 2.499081 1_555
Ca0 O12 2.514279 1_555
Ca0 O19 2.537122 1_555
Ca0 O10 2.562339 1_555
Ca0 O14 2.572174 1_555
Ca0 O8 2.588047 1_555
Ca1 O0 2.359105 1_556
Ca1 O23 2.369260 1_555
Ca1 O18 2.494455 1_555
Ca1 O11 2.500482 1_455
Ca1 O13 2.552503 1_555
Ca1 O9 2.555439 1_555
Ca1 O5 2.557467 1_555
Ca1 O15 2.594058 1_555
Ca2 O18 2.359105 1_554
Ca2 O2 2.369260 1_555
Ca2 O0 2.494455 1_555
Ca2 O14 2.500482 1_455
Ca2 O7 2.552503 1_555
Ca2 O16 2.555439 1_555
Ca2 O20 2.557467 1_555
Ca2 O10 2.594058 1_555
Ca3 O3 2.316271 1_555
Ca3 O19 2.340854 1_555
Ca3 O21 2.499081 1_555
Ca3 O6 2.514279 1_555
Ca3 O1 2.537122 1_555
Ca3 O15 2.562339 1_555
Ca3 O11 2.572174 1_555
Ca3 O17 2.588047 1_555
Ca4 O20 2.314776 1_555
Ca4 O5 2.314776 1_545
Ca4 O23 2.502975 1_545
Ca4 O2 2.502975 1_555
Ca4 O9 2.530433 1_555
Ca4 O16 2.530433 1_545
Ca4 O6 2.572124 1_455
Ca4 O12 2.572124 1_445
Ca5 O4 2.360753 1_545
Ca5 O21 2.360753 1_554
Ca5 O8 2.519341 1_555
Ca5 O17 2.519341 1_544
Ca5 O22 2.529050 1_545
Ca5 O3 2.529050 1_554
Ca5 O7 2.605043 1_555
Ca5 O13 2.605043 1_544
Ca6 O6 2.349445 1_555
Ca6 O14 2.367850 1_555
Ca6 O2 2.497754 1_655
Ca6 O12 2.508007 1_545
Ca6 O19 2.542700 1_555
Ca6 O8 2.556881 1_555
Ca6 O4 2.571931 1_545
Ca6 O22 2.600431 1_545
Ca7 O15 2.312230 1_555
Ca7 O7 2.343808 1_556
Ca7 O9 2.514676 1_555
Ca7 O18 2.514881 1_555
Ca7 O13 2.537318 1_545
Ca7 O3 2.553341 1_555
Ca7 O23 2.585204 1_545
Ca7 O5 2.588738 1_545
Ca8 O17 2.310622 1_554
Ca8 O8 2.310622 1_555
Ca8 O11 2.518088 1_554
Ca8 O14 2.518088 1_555
Ca8 O4 2.524764 1_555
Ca8 O21 2.524764 1_554
Ca8 O0 2.580814 1_655
Ca8 O18 2.580814 1_654
Ca9 O16 2.359338 1_555
Ca9 O9 2.359338 1_555
Ca9 O5 2.515538 1_555
Ca9 O20 2.515538 1_555
Ca9 O15 2.527599 1_555
Ca9 O10 2.527599 1_555
Ca9 O1 2.611399 1_555
Ca9 O19 2.611399 1_555
Ca10 O10 2.312230 1_555
Ca10 O13 2.343808 1_554
Ca10 O16 2.514676 1_555
Ca10 O0 2.514881 1_555
Ca10 O7 2.537318 1_565
Ca10 O22 2.553341 1_555
Ca10 O2 2.585204 1_565
Ca10 O20 2.588738 1_565
Ca11 O12 2.349445 1_555
Ca11 O11 2.367850 1_555
Ca11 O23 2.497754 1_655
Ca11 O6 2.508007 1_565
Ca11 O1 2.542700 1_555
Ca11 O17 2.556881 1_555
Ca11 O21 2.571931 1_565
Ca11 O3 2.600431 1_565
Fe0 O23 2.079951 1_544
Fe0 O2 2.079951 1_555
Fe0 O4 2.081866 1_445
Fe0 O21 2.081866 1_454
Fe0 O18 2.087150 1_554
Fe0 O0 2.087150 1_545
Co0 O12 1.936085 1_555
Co0 O16 1.937447 1_655
Co0 O4 1.939734 1_555
Co0 O0 1.940344 1_655
Co0 O14 1.941697 1_555
Co0 O2 1.946153 1_665
Co1 O1 1.975017 1_555
Co1 O13 1.975657 1_555
Co1 O15 2.000077 1_555
Co1 O3 2.000940 1_565
Co1 O5 2.015770 1_555
Co1 O17 2.017880 1_555
Co2 O6 1.936085 1_555
Co2 O9 1.937447 1_655
Co2 O21 1.939734 1_555
Co2 O18 1.940344 1_655
Co2 O11 1.941697 1_555
Co2 O23 1.946153 1_645
Co3 O19 1.975017 1_555
Co3 O7 1.975657 1_555
Co3 O10 2.000077 1_555
Co3 O22 2.000940 1_545
Co3 O20 2.015770 1_555
Co3 O8 2.017880 1_555
Co4 O20 2.065469 1_555
Co4 O5 2.065469 1_545
Co4 O3 2.081702 1_555
Co4 O22 2.081702 1_545
Co4 O19 2.094262 1_555
Co4 O1 2.094262 1_545
Co5 O11 2.064779 1_455
Co5 O14 2.064779 1_455
Co5 O9 2.065893 1_555
Co5 O16 2.065893 1_555
Co5 O12 2.075753 1_455
Co5 O6 2.075753 1_455
Co6 O17 2.067052 1_554
Co6 O8 2.067052 1_555
Co6 O10 2.085047 1_555
Co6 O15 2.085047 1_554
Co6 O7 2.094554 1_555
Co6 O13 2.094554 1_554
