# generated using pymatgen
data_CaMn6(OF2)4
_symmetry_space_group_name_H-M   'P 1'
_cell_length_a   5.32777920
_cell_length_b   8.19064965
_cell_length_c   6.00268362
_cell_angle_alpha   96.52787292
_cell_angle_beta   97.02850315
_cell_angle_gamma   84.10365805
_symmetry_Int_Tables_number   1
_chemical_formula_structural   CaMn6(OF2)4
_chemical_formula_sum   'Ca1 Mn6 O4 F8'
_cell_volume   257.24107549
_cell_formula_units_Z   1
loop_
 _symmetry_equiv_pos_site_id
 _symmetry_equiv_pos_as_xyz
  1  'x, y, z'
loop_
 _atom_site_type_symbol
 _atom_site_label
 _atom_site_symmetry_multiplicity
 _atom_site_fract_x
 _atom_site_fract_y
 _atom_site_fract_z
 _atom_site_occupancy
  Ca  Ca0  1  0.05034000  0.81364300  0.34683900  1
  Mn  Mn0  1  0.51432900  0.02012100  0.48817100  1
  Mn  Mn1  1  0.59276000  0.65993800  0.13893900  1
  Mn  Mn2  1  0.47781100  0.33223400  0.82892300  1
  Mn  Mn3  1  0.88564200  0.63041300  0.71196600  1
  Mn  Mn4  1  0.99173700  0.31765800  0.32244500  1
  Mn  Mn5  1  0.02298900  0.00138100  0.94164500  1
  O  O0  1  0.85551700  0.78148400  0.99271400  1
  O  O1  1  0.67496800  0.78449400  0.46812400  1
  O  O2  1  0.69334200  0.41357900  0.09635800  1
  O  O3  1  0.30905000  0.23324800  0.53520400  1
  F  F0  1  0.76326200  0.40195500  0.61552600  1
  F  F1  1  0.84154600  0.08147200  0.31383600  1
  F  F2  1  0.68415500  0.10685500  0.79922800  1
  F  F3  1  0.29596400  0.56442100  0.86919800  1
  F  F4  1  0.33815500  0.92342700  0.17525300  1
  F  F5  1  0.10397700  0.55514100  0.41917800  1
  F  F6  1  0.18693100  0.23128300  0.02347500  1
  F  F7  1  0.23141100  0.92225000  0.67339800  1
loop_
_geom_bond_atom_site_label_1
_geom_bond_atom_site_label_2
_geom_bond_distance
_geom_bond_site_symmetry_2
Ca0 F5 2.192610 1_555
Ca0 F7 2.209418 1_555
Ca0 O0 2.248170 1_454
Ca0 O1 2.254013 1_455
Ca0 F4 2.258577 1_555
Ca0 F1 2.373288 1_465
Mn0 O3 1.973419 1_555
Mn0 O1 2.025995 1_545
Mn1 O2 2.029350 1_555
Mn1 O0 2.122974 1_554
Mn1 O1 2.135140 1_555
Mn2 O2 1.949989 1_556
Mn2 O3 2.002769 1_555
Mn3 O0 1.986992 1_555
Mn3 O1 2.172991 1_555
Mn4 O3 2.097456 1_655
Mn4 O2 2.108143 1_555
Mn5 O0 2.157940 1_445
F0 Mn3 2.042965 1_555
F0 Mn2 2.258619 1_555
F0 Mn4 2.264665 1_555
F1 Mn4 2.161137 1_555
F1 Mn0 2.265587 1_555
F1 Mn5 2.534016 1_654
F2 Mn2 2.050428 1_555
F2 Mn5 2.050815 1_655
F2 Mn0 2.055894 1_555
F3 Mn2 2.046466 1_555
F3 Mn1 2.252496 1_556
F3 Mn3 2.308740 1_455
F4 Mn0 2.102250 1_565
F4 Mn5 2.144903 1_564
F4 Mn1 2.430858 1_555
F5 Mn4 2.091775 1_455
F5 Mn3 2.220065 1_455
F6 Mn5 2.138380 1_554
F6 Mn4 2.195352 1_455
F6 Mn2 2.318401 1_554
F7 Mn5 2.073231 1_565
F7 Mn0 2.238732 1_565
