# generated using pymatgen
data_Li9Mn2Co5O16
_symmetry_space_group_name_H-M   'P 1'
_cell_length_a   2.91285600
_cell_length_b   9.76414200
_cell_length_c   10.29475052
_cell_angle_alpha   79.67842010
_cell_angle_beta   90.00000000
_cell_angle_gamma   90.00000000
_symmetry_Int_Tables_number   1
_chemical_formula_structural   Li9Mn2Co5O16
_chemical_formula_sum   'Li9 Mn2 Co5 O16'
_cell_volume   288.06037849
_cell_formula_units_Z   1
loop_
 _symmetry_equiv_pos_site_id
 _symmetry_equiv_pos_as_xyz
  1  'x, y, z'
loop_
 _atom_site_type_symbol
 _atom_site_label
 _atom_site_symmetry_multiplicity
 _atom_site_fract_x
 _atom_site_fract_y
 _atom_site_fract_z
 _atom_site_occupancy
  Li  Li0  1  0.50000000  0.98785600  0.24576000  1
  Li  Li1  1  0.50000000  0.99738600  0.75451100  1
  Li  Li2  1  0.00000000  0.74950500  0.36308400  1
  Li  Li3  1  0.00000000  0.74165000  0.88677500  1
  Li  Li4  1  0.50000000  0.50809100  0.49524200  1
  Li  Li5  1  0.50000000  0.50476200  0.99915700  1
  Li  Li6  1  0.00000000  0.25493000  0.12603000  1
  Li  Li7  1  0.00000000  0.25083800  0.62667000  1
  Li  Li8  1  0.50000000  0.75222700  0.12746100  1
  Mn  Mn0  1  0.00000000  0.99214100  0.00761400  1
  Mn  Mn1  1  0.50000000  0.25302300  0.37583500  1
  Co  Co0  1  0.00000000  0.99587400  0.50231400  1
  Co  Co1  1  0.50000000  0.75095400  0.62351200  1
  Co  Co2  1  0.00000000  0.52006000  0.23269300  1
  Co  Co3  1  0.00000000  0.50023900  0.74976900  1
  Co  Co4  1  0.50000000  0.24941100  0.87450000  1
  O  O0  1  0.50000000  0.11335700  0.05378200  1
  O  O1  1  0.50000000  0.12456600  0.54938200  1
  O  O2  1  0.00000000  0.88708100  0.17318400  1
  O  O3  1  0.00000000  0.87363000  0.68085000  1
  O  O4  1  0.50000000  0.61475600  0.31007400  1
  O  O5  1  0.50000000  0.61847600  0.80456200  1
  O  O6  1  0.00000000  0.36446300  0.93091000  1
  O  O7  1  0.00000000  0.35982800  0.43168800  1
  O  O8  1  0.50000000  0.88340500  0.44191100  1
  O  O9  1  0.50000000  0.88996700  0.94467700  1
  O  O10  1  0.00000000  0.63083600  0.56973600  1
  O  O11  1  0.00000000  0.61438500  0.06788300  1
  O  O12  1  0.50000000  0.37951800  0.69491000  1
  O  O13  1  0.50000000  0.37070300  0.20654900  1
  O  O14  1  0.00000000  0.13952700  0.32273300  1
  O  O15  1  0.00000000  0.12655600  0.82624000  1
loop_
_geom_bond_atom_site_label_1
_geom_bond_atom_site_label_2
_geom_bond_distance
_geom_bond_site_symmetry_2
Li0 O2 1.977647 1_555
Li0 O2 1.977647 1_655
Li0 O8 2.092802 1_555
Li0 O0 2.130678 1_565
Li0 O14 2.315774 1_665
Li0 O14 2.315774 1_565
Li1 O9 2.048638 1_555
Li1 O3 2.117725 1_655
Li1 O3 2.117725 1_555
Li1 O15 2.142642 1_565
Li1 O15 2.142642 1_665
Li1 O1 2.249856 1_565
Li2 O4 2.099377 1_455
Li2 O4 2.099377 1_555
Li2 O2 2.164565 1_555
Li2 O8 2.206640 1_555
Li2 O8 2.206640 1_455
Li2 O10 2.232758 1_555
Li3 O11 2.046980 1_556
Li3 O5 2.156092 1_455
Li3 O5 2.156092 1_555
Li3 O9 2.209772 1_455
Li3 O9 2.209772 1_555
Li3 O3 2.275056 1_555
Li4 O4 2.001770 1_555
Li4 O10 2.115438 1_655
Li4 O10 2.115438 1_555
Li4 O12 2.208288 1_555
Li4 O7 2.232575 1_655
Li4 O7 2.232575 1_555
Li5 O11 2.009687 1_556
Li5 O11 2.009687 1_656
Li5 O5 2.109260 1_555
Li5 O6 2.199166 1_655
Li5 O6 2.199166 1_555
Li5 O13 2.295727 1_556
Li6 O6 2.099740 1_554
Li6 O13 2.102840 1_555
Li6 O13 2.102840 1_455
Li6 O14 2.133703 1_555
Li6 O0 2.225686 1_455
Li6 O0 2.225686 1_555
Li7 O7 2.096723 1_555
Li7 O12 2.123600 1_555
Li7 O12 2.123600 1_455
Li7 O1 2.150798 1_555
Li7 O1 2.150798 1_455
Li7 O15 2.190946 1_555
Li8 O2 2.073315 1_555
Li8 O2 2.073315 1_655
Li8 O4 2.105161 1_555
Li8 O9 2.107786 1_554
Li8 O11 2.145846 1_655
Li8 O11 2.145846 1_555
Mn0 O2 1.825120 1_555
Mn0 O9 1.941109 1_554
Mn0 O9 1.941109 1_454
Mn0 O0 1.987335 1_465
Mn0 O0 1.987335 1_565
Mn0 O15 2.081055 1_564
Mn1 O13 1.907856 1_555
Mn1 O7 1.937584 1_555
Mn1 O7 1.937584 1_655
Mn1 O14 1.966014 1_655
Mn1 O14 1.966014 1_555
Mn1 O1 1.990528 1_555
Co0 O8 1.989605 1_455
Co0 O8 1.989605 1_555
Co0 O3 2.004179 1_555
Co0 O1 2.037921 1_465
Co0 O1 2.037921 1_565
Co0 O14 2.110931 1_565
Co1 O10 2.008959 1_555
Co1 O10 2.008959 1_655
Co1 O3 2.039061 1_655
Co1 O3 2.039061 1_555
Co1 O5 2.069604 1_555
Co1 O8 2.073958 1_555
Co2 O11 1.779605 1_555
Co2 O4 1.968416 1_455
Co2 O4 1.968416 1_555
Co2 O13 2.112117 1_555
Co2 O13 2.112117 1_455
Co2 O7 2.344353 1_555
Co3 O5 2.001390 1_455
Co3 O5 2.001390 1_555
Co3 O12 2.016955 1_455
Co3 O12 2.016955 1_555
Co3 O10 2.052855 1_555
Co3 O6 2.085461 1_555
Co4 O6 1.988516 1_655
Co4 O6 1.988516 1_555
Co4 O15 2.005133 1_655
Co4 O15 2.005133 1_555
Co4 O12 2.047048 1_555
Co4 O0 2.071868 1_556
