# generated using pymatgen
data_YbAsPt
_symmetry_space_group_name_H-M   'P 1'
_cell_length_a   4.23142370
_cell_length_b   4.23142370
_cell_length_c   15.00862352
_cell_angle_alpha   90.00000000
_cell_angle_beta   90.00000000
_cell_angle_gamma   120.00000378
_symmetry_Int_Tables_number   1
_chemical_formula_structural   YbAsPt
_chemical_formula_sum   'Yb4 As4 Pt4'
_cell_volume   232.72578645
_cell_formula_units_Z   4
loop_
 _symmetry_equiv_pos_site_id
 _symmetry_equiv_pos_as_xyz
  1  'x, y, z'
loop_
 _atom_site_type_symbol
 _atom_site_label
 _atom_site_symmetry_multiplicity
 _atom_site_fract_x
 _atom_site_fract_y
 _atom_site_fract_z
 _atom_site_occupancy
  Yb  Yb0  1  0.00000000  0.00000000  0.50000000  1
  Yb  Yb1  1  0.00000000  0.00000000  0.00000000  1
  Yb  Yb2  1  0.00000000  0.00000000  0.75000000  1
  Yb  Yb3  1  0.00000000  0.00000000  0.25000000  1
  As  As0  1  0.33333300  0.66666700  0.11457369  1
  As  As1  1  0.66666700  0.33333300  0.88542631  1
  As  As2  1  0.66666700  0.33333300  0.61457369  1
  As  As3  1  0.33333300  0.66666700  0.38542631  1
  Pt  Pt0  1  0.33333300  0.66666700  0.63774753  1
  Pt  Pt1  1  0.66666700  0.33333300  0.36225247  1
  Pt  Pt2  1  0.66666700  0.33333300  0.13774753  1
  Pt  Pt3  1  0.33333300  0.66666700  0.86225247  1
loop_
_geom_bond_atom_site_label_1
_geom_bond_atom_site_label_2
_geom_bond_distance
_geom_bond_site_symmetry_2
As0 Pt2 2.467645 1_565
As0 Pt2 2.467645 1_455
As0 Pt2 2.467653 1_555
As0 Yb1 2.987525 1_565
As0 Yb1 2.987528 1_555
As0 Yb1 2.987528 1_665
As0 Yb3 3.177989 1_565
As0 Yb3 3.177992 1_555
As0 Yb3 3.177992 1_665
As1 Pt3 2.467645 1_655
As1 Pt3 2.467645 1_545
As1 Pt3 2.467653 1_555
As1 Yb1 2.987525 1_656
As1 Yb1 2.987528 1_556
As1 Yb1 2.987528 1_666
As1 Yb2 3.177989 1_655
As1 Yb2 3.177992 1_555
As1 Yb2 3.177992 1_665
As2 Pt0 2.467645 1_655
As2 Pt0 2.467645 1_545
As2 Pt0 2.467653 1_555
As2 Yb0 2.987525 1_655
As2 Yb0 2.987528 1_555
As2 Yb0 2.987528 1_665
As2 Yb2 3.177989 1_655
As2 Yb2 3.177992 1_555
As2 Yb2 3.177992 1_665
As3 Pt1 2.467645 1_565
As3 Pt1 2.467645 1_455
As3 Pt1 2.467653 1_555
As3 Yb0 2.987525 1_565
As3 Yb0 2.987528 1_555
As3 Yb0 2.987528 1_665
As3 Yb3 3.177989 1_565
As3 Yb3 3.177992 1_555
As3 Yb3 3.177992 1_665
Pt0 Yb2 2.967609 1_565
Pt0 Yb2 2.967612 1_555
Pt0 Yb2 2.967612 1_665
Pt0 Yb0 3.200383 1_565
Pt0 Yb0 3.200385 1_555
Pt0 Yb0 3.200385 1_665
Pt1 Yb3 2.967609 1_655
Pt1 Yb3 2.967612 1_555
Pt1 Yb3 2.967612 1_665
Pt1 Yb0 3.200383 1_655
Pt1 Yb0 3.200385 1_555
Pt1 Yb0 3.200385 1_665
Pt2 Yb3 2.967609 1_655
Pt2 Yb3 2.967612 1_555
Pt2 Yb3 2.967612 1_665
Pt2 Yb1 3.200383 1_655
Pt2 Yb1 3.200385 1_555
Pt2 Yb1 3.200385 1_665
Pt3 Yb2 2.967609 1_565
Pt3 Yb2 2.967612 1_555
Pt3 Yb2 2.967612 1_665
Pt3 Yb1 3.200383 1_566
Pt3 Yb1 3.200385 1_556
Pt3 Yb1 3.200385 1_666
