# generated using pymatgen
data_LiMg3
_symmetry_space_group_name_H-M   'P 1'
_cell_length_a   6.33971112
_cell_length_b   10.09972372
_cell_length_c   10.81945796
_cell_angle_alpha   90.00000000
_cell_angle_beta   90.00000000
_cell_angle_gamma   90.00000000
_symmetry_Int_Tables_number   1
_chemical_formula_structural   LiMg3
_chemical_formula_sum   'Li8 Mg24'
_cell_volume   692.76265254
_cell_formula_units_Z   8
loop_
 _symmetry_equiv_pos_site_id
 _symmetry_equiv_pos_as_xyz
  1  'x, y, z'
loop_
 _atom_site_type_symbol
 _atom_site_label
 _atom_site_symmetry_multiplicity
 _atom_site_fract_x
 _atom_site_fract_y
 _atom_site_fract_z
 _atom_site_occupancy
  Li  Li0_0  1  0.25000000  0.00000000  0.08389734  1
  Li  Li0_1  1  0.25000000  0.00000000  0.58389735  1
  Li  Li0_2  1  0.25000000  0.50000000  0.08389734  1
  Li  Li0_3  1  0.25000000  0.50000000  0.58389735  1
  Li  Li0_4  1  0.75000000  0.00000000  0.08389734  1
  Li  Li0_5  1  0.75000000  0.00000000  0.58389735  1
  Li  Li0_6  1  0.75000000  0.50000000  0.08389734  1
  Li  Li0_7  1  0.75000000  0.50000000  0.58389735  1
  Mg  Mg0_0  1  0.00000000  0.00000000  0.33417988  1
  Mg  Mg0_1  1  0.00000000  0.00000000  0.83417988  1
  Mg  Mg0_2  1  0.00000000  0.50000000  0.33417988  1
  Mg  Mg0_3  1  0.00000000  0.50000000  0.83417988  1
  Mg  Mg0_4  1  0.50000000  0.00000000  0.33417988  1
  Mg  Mg0_5  1  0.50000000  0.00000000  0.83417988  1
  Mg  Mg0_6  1  0.50000000  0.50000000  0.33417988  1
  Mg  Mg0_7  1  0.50000000  0.50000000  0.83417988  1
  Mg  Mg1_0  1  0.00000000  0.25000000  0.16480188  1
  Mg  Mg1_1  1  0.00000000  0.25000000  0.66480188  1
  Mg  Mg1_2  1  0.00000000  0.75000000  0.16480188  1
  Mg  Mg1_3  1  0.00000000  0.75000000  0.66480188  1
  Mg  Mg1_4  1  0.50000000  0.25000000  0.16480188  1
  Mg  Mg1_5  1  0.50000000  0.25000000  0.66480188  1
  Mg  Mg1_6  1  0.50000000  0.75000000  0.16480188  1
  Mg  Mg1_7  1  0.50000000  0.75000000  0.66480188  1
  Mg  Mg2_0  1  0.25000000  0.25000000  0.41712041  1
  Mg  Mg2_1  1  0.25000000  0.25000000  0.91712041  1
  Mg  Mg2_2  1  0.25000000  0.75000000  0.41712041  1
  Mg  Mg2_3  1  0.25000000  0.75000000  0.91712041  1
  Mg  Mg2_4  1  0.75000000  0.25000000  0.41712041  1
  Mg  Mg2_5  1  0.75000000  0.25000000  0.91712041  1
  Mg  Mg2_6  1  0.75000000  0.75000000  0.41712041  1
  Mg  Mg2_7  1  0.75000000  0.75000000  0.91712041  1
loop_
_geom_bond_atom_site_label_1
_geom_bond_atom_site_label_2
_geom_bond_distance
_geom_bond_site_symmetry_2
Li0_0 Mg2_1 3.103428 1_554
Li0_0 Mg2_3 3.103428 1_544
Li0_0 Mg1_2 3.107008 1_545
Li0_0 Mg1_0 3.107008 1_555
Li0_0 Mg1_6 3.107008 1_545
Li0_0 Mg1_4 3.107008 1_555
Li0_0 Mg0_5 3.132373 1_554
Li0_0 Mg0_1 3.132373 1_554
Li0_0 Mg0_0 3.137648 1_555
Li0_0 Mg0_4 3.137648 1_555
Li0_0 Li0_4 3.169856 1_555
Li0_0 Li0_4 3.169856 1_455
Li0_1 Mg2_2 3.103428 1_545
Li0_1 Mg2_0 3.103428 1_555
Li0_1 Mg1_1 3.107008 1_555
Li0_1 Mg1_7 3.107008 1_545
Li0_1 Mg1_5 3.107008 1_555
Li0_1 Mg1_3 3.107008 1_545
Li0_1 Mg0_4 3.132373 1_555
Li0_1 Mg0_0 3.132373 1_555
Li0_1 Mg0_5 3.137648 1_555
Li0_1 Mg0_1 3.137648 1_555
Li0_1 Li0_5 3.169856 1_455
Li0_1 Li0_5 3.169856 1_555
Li0_2 Mg2_3 3.103428 1_554
Li0_2 Mg2_1 3.103428 1_554
Li0_2 Mg1_0 3.107008 1_555
Li0_2 Mg1_6 3.107008 1_555
Li0_2 Mg1_4 3.107008 1_555
Li0_2 Mg1_2 3.107008 1_555
Li0_2 Mg0_3 3.132373 1_554
Li0_2 Mg0_7 3.132373 1_554
Li0_2 Mg0_6 3.137648 1_555
Li0_2 Mg0_2 3.137648 1_555
Li0_2 Li0_6 3.169856 1_555
Li0_2 Li0_6 3.169856 1_455
Li0_3 Mg2_2 3.103428 1_555
Li0_3 Mg2_0 3.103428 1_555
Li0_3 Mg1_1 3.107008 1_555
Li0_3 Mg1_7 3.107008 1_555
Li0_3 Mg1_3 3.107008 1_555
Li0_3 Mg1_5 3.107008 1_555
Li0_3 Mg0_2 3.132373 1_555
Li0_3 Mg0_6 3.132373 1_555
Li0_3 Mg0_3 3.137648 1_555
Li0_3 Mg0_7 3.137648 1_555
Li0_3 Li0_7 3.169856 1_455
Li0_3 Li0_7 3.169856 1_555
Li0_4 Mg2_5 3.103428 1_554
Li0_4 Mg2_7 3.103428 1_544
Li0_4 Mg1_6 3.107008 1_545
Li0_4 Mg1_2 3.107008 1_645
Li0_4 Mg1_0 3.107008 1_655
Li0_4 Mg1_4 3.107008 1_555
Li0_4 Mg0_5 3.132373 1_554
Li0_4 Mg0_1 3.132373 1_654
Li0_4 Mg0_4 3.137648 1_555
Li0_4 Mg0_0 3.137648 1_655
Li0_5 Mg2_6 3.103428 1_545
Li0_5 Mg2_4 3.103428 1_555
Li0_5 Mg1_7 3.107008 1_545
Li0_5 Mg1_1 3.107008 1_655
Li0_5 Mg1_5 3.107008 1_555
Li0_5 Mg1_3 3.107008 1_645
Li0_5 Mg0_4 3.132373 1_555
Li0_5 Mg0_0 3.132373 1_655
Li0_5 Mg0_1 3.137648 1_655
Li0_5 Mg0_5 3.137648 1_555
Li0_6 Mg2_7 3.103428 1_554
Li0_6 Mg2_5 3.103428 1_554
Li0_6 Mg1_6 3.107008 1_555
Li0_6 Mg1_0 3.107008 1_655
Li0_6 Mg1_4 3.107008 1_555
Li0_6 Mg1_2 3.107008 1_655
Li0_6 Mg0_3 3.132373 1_654
Li0_6 Mg0_7 3.132373 1_554
Li0_6 Mg0_6 3.137648 1_555
Li0_6 Mg0_2 3.137648 1_655
Li0_7 Mg2_6 3.103428 1_555
Li0_7 Mg2_4 3.103428 1_555
Li0_7 Mg1_7 3.107008 1_555
Li0_7 Mg1_1 3.107008 1_655
Li0_7 Mg1_5 3.107008 1_555
Li0_7 Mg1_3 3.107008 1_655
Li0_7 Mg0_6 3.132373 1_555
Li0_7 Mg0_2 3.132373 1_655
Li0_7 Mg0_3 3.137648 1_655
Li0_7 Mg0_7 3.137648 1_555
Mg0_0 Mg2_4 3.113286 1_455
Mg0_0 Mg2_6 3.113286 1_445
Mg0_0 Mg2_2 3.113286 1_545
Mg0_0 Mg2_0 3.113286 1_555
Mg0_0 Mg1_2 3.119875 1_545
Mg0_0 Mg1_0 3.119875 1_555
Mg0_0 Mg0_4 3.169856 1_555
Mg0_0 Mg0_4 3.169856 1_455
Mg0_1 Mg2_1 3.113286 1_555
Mg0_1 Mg2_5 3.113286 1_455
Mg0_1 Mg2_3 3.113286 1_545
Mg0_1 Mg2_7 3.113286 1_445
Mg0_1 Mg1_3 3.119875 1_545
Mg0_1 Mg1_1 3.119875 1_555
Mg0_1 Mg0_5 3.169856 1_455
Mg0_1 Mg0_5 3.169856 1_555
Mg0_2 Mg2_2 3.113286 1_555
Mg0_2 Mg2_4 3.113286 1_455
Mg0_2 Mg2_6 3.113286 1_455
Mg0_2 Mg2_0 3.113286 1_555
Mg0_2 Mg1_2 3.119875 1_555
Mg0_2 Mg1_0 3.119875 1_555
Mg0_2 Mg0_6 3.169856 1_555
Mg0_2 Mg0_6 3.169856 1_455
Mg0_3 Mg2_1 3.113286 1_555
Mg0_3 Mg2_5 3.113286 1_455
Mg0_3 Mg2_7 3.113286 1_455
Mg0_3 Mg2_3 3.113286 1_555
Mg0_3 Mg1_3 3.119875 1_555
Mg0_3 Mg1_1 3.119875 1_555
Mg0_3 Mg0_7 3.169856 1_555
Mg0_3 Mg0_7 3.169856 1_455
Mg0_4 Mg2_2 3.113286 1_545
Mg0_4 Mg2_0 3.113286 1_555
Mg0_4 Mg2_4 3.113286 1_555
Mg0_4 Mg2_6 3.113286 1_545
Mg0_4 Mg1_6 3.119875 1_545
Mg0_4 Mg1_4 3.119875 1_555
Mg0_5 Mg2_1 3.113286 1_555
Mg0_5 Mg2_7 3.113286 1_545
Mg0_5 Mg2_5 3.113286 1_555
Mg0_5 Mg2_3 3.113286 1_545
Mg0_5 Mg1_5 3.119875 1_555
Mg0_5 Mg1_7 3.119875 1_545
Mg0_6 Mg2_2 3.113286 1_555
Mg0_6 Mg2_6 3.113286 1_555
Mg0_6 Mg2_0 3.113286 1_555
Mg0_6 Mg2_4 3.113286 1_555
Mg0_6 Mg1_6 3.119875 1_555
Mg0_6 Mg1_4 3.119875 1_555
Mg0_7 Mg2_1 3.113286 1_555
Mg0_7 Mg2_7 3.113286 1_555
Mg0_7 Mg2_5 3.113286 1_555
Mg0_7 Mg2_3 3.113286 1_555
Mg0_7 Mg1_5 3.119875 1_555
Mg0_7 Mg1_7 3.119875 1_555
Mg1_0 Mg2_5 3.113393 1_454
Mg1_0 Mg2_1 3.113393 1_554
Mg1_0 Mg2_4 3.156679 1_455
Mg1_0 Mg2_0 3.156679 1_555
Mg1_0 Mg1_4 3.169856 1_455
Mg1_0 Mg1_4 3.169856 1_555
Mg1_1 Mg2_0 3.113393 1_555
Mg1_1 Mg2_4 3.113393 1_455
Mg1_1 Mg2_5 3.156679 1_455
Mg1_1 Mg2_1 3.156679 1_555
Mg1_1 Mg1_5 3.169856 1_555
Mg1_1 Mg1_5 3.169856 1_455
Mg1_2 Mg2_3 3.113393 1_554
Mg1_2 Mg2_7 3.113393 1_454
Mg1_2 Mg2_6 3.156679 1_455
Mg1_2 Mg2_2 3.156679 1_555
Mg1_2 Mg1_6 3.169856 1_555
Mg1_2 Mg1_6 3.169856 1_455
Mg1_3 Mg2_2 3.113393 1_555
Mg1_3 Mg2_6 3.113393 1_455
Mg1_3 Mg2_3 3.156679 1_555
Mg1_3 Mg2_7 3.156679 1_455
Mg1_3 Mg1_7 3.169856 1_455
Mg1_3 Mg1_7 3.169856 1_555
Mg1_4 Mg2_1 3.113393 1_554
Mg1_4 Mg2_5 3.113393 1_554
Mg1_4 Mg2_0 3.156679 1_555
Mg1_4 Mg2_4 3.156679 1_555
Mg1_5 Mg2_0 3.113393 1_555
Mg1_5 Mg2_4 3.113393 1_555
Mg1_5 Mg2_5 3.156679 1_555
Mg1_5 Mg2_1 3.156679 1_555
Mg1_6 Mg2_3 3.113393 1_554
Mg1_6 Mg2_7 3.113393 1_554
Mg1_6 Mg2_6 3.156679 1_555
Mg1_6 Mg2_2 3.156679 1_555
Mg1_7 Mg2_6 3.113393 1_555
Mg1_7 Mg2_2 3.113393 1_555
Mg1_7 Mg2_3 3.156679 1_555
Mg1_7 Mg2_7 3.156679 1_555
Mg2_0 Mg2_4 3.169856 1_555
Mg2_0 Mg2_4 3.169856 1_455
Mg2_1 Mg2_5 3.169856 1_555
Mg2_1 Mg2_5 3.169856 1_455
Mg2_2 Mg2_6 3.169856 1_455
Mg2_2 Mg2_6 3.169856 1_555
Mg2_3 Mg2_7 3.169856 1_555
Mg2_3 Mg2_7 3.169856 1_455
