# generated using pymatgen
data_Mg6CrSn
_symmetry_space_group_name_H-M   'P 1'
_cell_length_a   5.03975800
_cell_length_b   6.21628700
_cell_length_c   11.00398700
_cell_angle_alpha   90.00000000
_cell_angle_beta   90.00000000
_cell_angle_gamma   90.00000000
_symmetry_Int_Tables_number   1
_chemical_formula_structural   Mg6CrSn
_chemical_formula_sum   'Mg12 Cr2 Sn2'
_cell_volume   344.73931058
_cell_formula_units_Z   2
loop_
 _symmetry_equiv_pos_site_id
 _symmetry_equiv_pos_as_xyz
  1  'x, y, z'
loop_
 _atom_site_type_symbol
 _atom_site_label
 _atom_site_symmetry_multiplicity
 _atom_site_fract_x
 _atom_site_fract_y
 _atom_site_fract_z
 _atom_site_occupancy
  Mg  Mg0  1  0.50000000  0.25044500  0.41661000  1
  Mg  Mg1  1  0.50000000  0.74955500  0.41661000  1
  Mg  Mg2  1  0.00000000  0.74060500  0.08362300  1
  Mg  Mg3  1  0.00000000  0.25939500  0.08362300  1
  Mg  Mg4  1  0.00000000  0.00000000  0.33566800  1
  Mg  Mg5  1  0.00000000  0.50000000  0.32926900  1
  Mg  Mg6  1  0.50000000  0.75044500  0.91661000  1
  Mg  Mg7  1  0.50000000  0.24955500  0.91661000  1
  Mg  Mg8  1  0.00000000  0.24060500  0.58362300  1
  Mg  Mg9  1  0.00000000  0.75939500  0.58362300  1
  Mg  Mg10  1  0.00000000  0.50000000  0.83566800  1
  Mg  Mg11  1  0.00000000  0.00000000  0.82926900  1
  Cr  Cr0  1  0.50000000  0.50000000  0.16698400  1
  Cr  Cr1  1  0.50000000  0.00000000  0.66698400  1
  Sn  Sn0  1  0.50000000  0.00000000  0.16761000  1
  Sn  Sn1  1  0.50000000  0.50000000  0.66761000  1
loop_
_geom_bond_atom_site_label_1
_geom_bond_atom_site_label_2
_geom_bond_distance
_geom_bond_site_symmetry_2
Mg0 Mg4 3.093033 1_655
Mg0 Mg4 3.093033 1_555
Mg0 Mg1 3.102611 1_555
Mg0 Mg5 3.111278 1_555
Mg0 Mg5 3.111278 1_655
Mg0 Mg1 3.113676 1_545
Mg0 Mg8 3.119467 1_555
Mg0 Mg8 3.119467 1_655
Mg0 Sn0 3.151397 1_555
Mg0 Sn1 3.167838 1_555
Mg1 Mg4 3.093033 1_565
Mg1 Mg4 3.093033 1_665
Mg1 Mg5 3.111278 1_555
Mg1 Mg5 3.111278 1_655
Mg1 Mg9 3.119467 1_555
Mg1 Mg9 3.119467 1_655
Mg1 Sn0 3.151397 1_565
Mg1 Sn1 3.167838 1_555
Mg2 Mg3 2.991339 1_555
Mg2 Mg5 3.089288 1_555
Mg2 Mg6 3.119467 1_554
Mg2 Mg6 3.119467 1_454
Mg2 Sn0 3.131133 1_565
Mg2 Sn0 3.131133 1_465
Mg2 Mg4 3.208173 1_565
Mg2 Mg3 3.224948 1_565
Mg3 Mg5 3.089288 1_555
Mg3 Mg7 3.119467 1_554
Mg3 Mg7 3.119467 1_454
Mg3 Sn0 3.131133 1_555
Mg3 Sn0 3.131133 1_455
Mg3 Mg4 3.208173 1_555
Mg4 Mg5 3.108941 1_545
Mg4 Mg5 3.108941 1_555
Mg4 Mg8 3.111544 1_555
Mg4 Mg9 3.111544 1_545
Mg4 Sn0 3.125657 1_555
Mg4 Sn0 3.125657 1_455
Mg5 Mg9 3.230164 1_555
Mg5 Mg8 3.230164 1_555
Mg6 Mg7 3.102611 1_565
Mg6 Mg7 3.113676 1_555
Mg6 Sn1 3.151397 1_555
Mg6 Sn0 3.167838 1_566
Mg7 Sn1 3.151397 1_555
Mg7 Sn0 3.167838 1_556
Mg8 Mg9 2.991339 1_545
Mg8 Sn1 3.131133 1_555
Mg8 Sn1 3.131133 1_455
Mg8 Mg9 3.224948 1_555
Mg9 Sn1 3.131133 1_455
Mg9 Sn1 3.131133 1_555
Mg10 Mg6 3.093033 1_455
Mg10 Mg6 3.093033 1_555
Mg10 Mg7 3.093033 1_455
Mg10 Mg7 3.093033 1_555
Mg10 Mg11 3.108941 1_555
Mg10 Mg11 3.108941 1_565
Mg10 Mg2 3.111544 1_556
Mg10 Mg3 3.111544 1_556
Mg10 Sn1 3.125657 1_455
Mg10 Sn1 3.125657 1_555
Mg10 Mg9 3.208173 1_555
Mg10 Mg8 3.208173 1_555
Mg11 Mg8 3.089288 1_555
Mg11 Mg9 3.089288 1_545
Mg11 Mg7 3.111278 1_455
Mg11 Mg7 3.111278 1_555
Mg11 Mg6 3.111278 1_445
Mg11 Mg6 3.111278 1_545
Mg11 Mg2 3.230164 1_546
Mg11 Mg3 3.230164 1_556
Cr0 Mg2 3.070548 1_555
Cr0 Mg2 3.070548 1_655
Cr0 Mg3 3.070548 1_555
Cr0 Mg3 3.070548 1_655
Cr0 Mg5 3.088496 1_655
Cr0 Mg5 3.088496 1_555
Cr0 Sn0 3.108151 1_555
Cr0 Sn0 3.108151 1_565
Cr0 Mg1 3.154664 1_555
Cr0 Mg0 3.154664 1_555
Cr0 Mg6 3.164552 1_554
Cr0 Mg7 3.164552 1_554
Cr1 Mg8 3.070548 1_655
Cr1 Mg8 3.070548 1_555
Cr1 Mg9 3.070548 1_545
Cr1 Mg9 3.070548 1_645
Cr1 Mg11 3.088496 1_655
Cr1 Mg11 3.088496 1_555
Cr1 Sn1 3.108151 1_555
Cr1 Sn1 3.108151 1_545
Cr1 Mg7 3.154664 1_555
Cr1 Mg6 3.154664 1_545
Cr1 Mg1 3.164552 1_545
Cr1 Mg0 3.164552 1_555
