# generated using pymatgen
data_Cu5Ge2
_symmetry_space_group_name_H-M   'P 1'
_cell_length_a   7.09081307
_cell_length_b   7.09081307
_cell_length_c   7.09081407
_cell_angle_alpha   33.84135297
_cell_angle_beta   33.84135297
_cell_angle_gamma   33.84135040
_symmetry_Int_Tables_number   1
_chemical_formula_structural   Cu5Ge2
_chemical_formula_sum   'Cu5 Ge2'
_cell_volume   98.53300401
_cell_formula_units_Z   1
loop_
 _symmetry_equiv_pos_site_id
 _symmetry_equiv_pos_as_xyz
  1  'x, y, z'
loop_
 _atom_site_type_symbol
 _atom_site_label
 _atom_site_symmetry_multiplicity
 _atom_site_fract_x
 _atom_site_fract_y
 _atom_site_fract_z
 _atom_site_occupancy
  Cu  Cu0  1  0.37701900  0.37701900  0.37701900  1
  Cu  Cu1  1  0.87347600  0.87347600  0.87347600  1
  Cu  Cu2  1  0.62298100  0.62298100  0.62298100  1
  Cu  Cu3  1  0.12652400  0.12652400  0.12652400  1
  Cu  Cu4  1  0.00000000  0.00000000  0.00000000  1
  Ge  Ge0  1  0.75160200  0.75160200  0.75160200  1
  Ge  Ge1  1  0.24839800  0.24839800  0.24839800  1
loop_
_geom_bond_atom_site_label_1
_geom_bond_atom_site_label_2
_geom_bond_distance
_geom_bond_site_symmetry_2
Cu0 Ge0 2.522267 1_545
Cu0 Ge0 2.522267 1_455
Cu0 Ge0 2.522267 1_554
Cu0 Cu4 2.538678 1_556
Cu0 Cu4 2.538678 1_565
Cu0 Cu4 2.538678 1_655
Cu0 Ge1 2.576941 1_555
Cu0 Cu3 2.904024 1_655
Cu0 Cu3 2.904024 1_565
Cu0 Cu3 2.904025 1_556
Cu1 Ge0 2.441764 1_555
Cu1 Ge1 2.524501 1_656
Cu1 Ge1 2.524501 1_566
Cu1 Ge1 2.524501 1_665
Cu1 Cu4 2.534927 1_666
Cu1 Cu3 2.875098 1_656
Cu1 Cu3 2.875098 1_566
Cu1 Cu3 2.875099 1_665
Cu1 Cu2 2.904024 1_655
Cu1 Cu2 2.904024 1_565
Cu1 Cu2 2.904025 1_556
Cu2 Ge1 2.522267 1_565
Cu2 Ge1 2.522267 1_655
Cu2 Ge1 2.522267 1_556
Cu2 Cu4 2.538678 1_665
Cu2 Cu4 2.538678 1_656
Cu2 Cu4 2.538678 1_566
Cu2 Ge0 2.576941 1_555
Cu3 Ge1 2.441764 1_555
Cu3 Ge0 2.524501 1_454
Cu3 Ge0 2.524501 1_544
Cu3 Ge0 2.524501 1_445
Cu3 Cu4 2.534927 1_555
Cu4 Ge0 2.928238 1_454
Cu4 Ge0 2.928238 1_544
Cu4 Ge1 2.928238 1_545
Cu4 Ge1 2.928238 1_455
Cu4 Ge0 2.928239 1_445
Cu4 Ge1 2.928239 1_554
