# generated using pymatgen
data_Lu5Si3C
_symmetry_space_group_name_H-M   'P 1'
_cell_length_a   8.23999972
_cell_length_b   8.23999972
_cell_length_c   6.23609800
_cell_angle_alpha   90.00000000
_cell_angle_beta   90.00000000
_cell_angle_gamma   119.99999772
_symmetry_Int_Tables_number   1
_chemical_formula_structural   Lu5Si3C
_chemical_formula_sum   'Lu10 Si6 C2'
_cell_volume   366.68907139
_cell_formula_units_Z   2
loop_
 _symmetry_equiv_pos_site_id
 _symmetry_equiv_pos_as_xyz
  1  'x, y, z'
loop_
 _atom_site_type_symbol
 _atom_site_label
 _atom_site_symmetry_multiplicity
 _atom_site_fract_x
 _atom_site_fract_y
 _atom_site_fract_z
 _atom_site_occupancy
  Lu  Lu0  1  0.66666700  0.33333300  0.50000000  1
  Lu  Lu1  1  0.33333300  0.66666700  0.50000000  1
  Lu  Lu2  1  0.33333300  0.66666700  0.00000000  1
  Lu  Lu3  1  0.66666700  0.33333300  0.00000000  1
  Lu  Lu4  1  0.77753300  0.77753300  0.25000000  1
  Lu  Lu5  1  0.22246700  0.00000000  0.25000000  1
  Lu  Lu6  1  0.00000000  0.22246700  0.25000000  1
  Lu  Lu7  1  0.22246700  0.22246700  0.75000000  1
  Lu  Lu8  1  0.77753300  0.00000000  0.75000000  1
  Lu  Lu9  1  0.00000000  0.77753300  0.75000000  1
  Si  Si0  1  0.40720500  0.40720500  0.25000000  1
  Si  Si1  1  0.59279500  0.00000000  0.25000000  1
  Si  Si2  1  0.00000000  0.59279500  0.25000000  1
  Si  Si3  1  0.59279500  0.59279500  0.75000000  1
  Si  Si4  1  0.40720500  0.00000000  0.75000000  1
  Si  Si5  1  0.00000000  0.40720500  0.75000000  1
  C  C0  1  0.00000000  0.00000000  0.50000000  1
  C  C1  1  0.00000000  0.00000000  0.00000000  1
loop_
_geom_bond_atom_site_label_1
_geom_bond_atom_site_label_2
_geom_bond_distance
_geom_bond_site_symmetry_2
Lu0 Si1 2.945052 1_555
Lu0 Si5 2.945052 1_655
Lu0 Si4 2.945054 1_555
Lu0 Si2 2.945054 1_655
Lu0 Si0 2.945059 1_555
Lu0 Si3 2.945059 1_555
Lu1 Si2 2.945052 1_555
Lu1 Si4 2.945052 1_565
Lu1 Si5 2.945054 1_555
Lu1 Si1 2.945054 1_565
Lu1 Si0 2.945059 1_555
Lu1 Si3 2.945059 1_555
Lu2 Si2 2.945052 1_555
Lu2 Si4 2.945052 1_564
Lu2 Si5 2.945054 1_554
Lu2 Si1 2.945054 1_565
Lu2 Si0 2.945059 1_555
Lu2 Si3 2.945059 1_554
Lu3 Si1 2.945052 1_555
Lu3 Si5 2.945052 1_654
Lu3 Si2 2.945054 1_655
Lu3 Si4 2.945054 1_554
Lu3 Si0 2.945059 1_555
Lu3 Si3 2.945059 1_554
Lu4 Si1 2.909989 1_565
Lu4 Si2 2.909989 1_655
Lu4 Si0 3.051503 1_555
Lu4 Si3 3.469791 1_554
Lu4 Si3 3.469791 1_555
Lu5 Si0 2.909990 1_555
Lu5 Si2 2.909990 1_545
Lu5 Si1 3.051503 1_555
Lu5 Si4 3.469791 1_554
Lu5 Si4 3.469791 1_555
Lu6 Si0 2.909990 1_555
Lu6 Si1 2.909990 1_455
Lu6 Si2 3.051503 1_555
Lu6 Si5 3.469791 1_554
Lu6 Si5 3.469791 1_555
Lu7 Si5 2.909989 1_555
Lu7 Si4 2.909989 1_555
Lu7 Si3 3.051503 1_555
Lu7 Si0 3.469791 1_556
Lu7 Si0 3.469791 1_555
Lu8 Si3 2.909990 1_545
Lu8 Si5 2.909990 1_655
Lu8 Si4 3.051503 1_555
Lu8 Si1 3.469791 1_555
Lu8 Si1 3.469791 1_556
Lu9 Si3 2.909990 1_455
Lu9 Si4 2.909990 1_565
Lu9 Si5 3.051503 1_555
Lu9 Si2 3.469791 1_556
Lu9 Si2 3.469791 1_555
C0 Lu6 2.406432 1_555
C0 Lu5 2.406432 1_555
C0 Lu9 2.406432 1_545
C0 Lu8 2.406432 1_455
C0 Lu7 2.406432 1_555
C0 Lu4 2.406432 1_445
C1 Lu6 2.406432 1_555
C1 Lu5 2.406432 1_555
C1 Lu9 2.406432 1_544
C1 Lu8 2.406432 1_454
C1 Lu7 2.406432 1_554
C1 Lu4 2.406432 1_445
