# generated using pymatgen
data_K2SmNb5O15
_symmetry_space_group_name_H-M   'P 1'
_cell_length_a   12.77141300
_cell_length_b   12.77141300
_cell_length_c   3.96380700
_cell_angle_alpha   90.00000000
_cell_angle_beta   90.00000000
_cell_angle_gamma   90.00000000
_symmetry_Int_Tables_number   1
_chemical_formula_structural   K2SmNb5O15
_chemical_formula_sum   'K4 Sm2 Nb10 O30'
_cell_volume   646.53255639
_cell_formula_units_Z   2
loop_
 _symmetry_equiv_pos_site_id
 _symmetry_equiv_pos_as_xyz
  1  'x, y, z'
loop_
 _atom_site_type_symbol
 _atom_site_label
 _atom_site_symmetry_multiplicity
 _atom_site_fract_x
 _atom_site_fract_y
 _atom_site_fract_z
 _atom_site_occupancy
  K  K0  1  0.66990000  0.16990000  0.50000000  1
  K  K1  1  0.33010000  0.83010000  0.50000000  1
  K  K2  1  0.16990000  0.33010000  0.50000000  1
  K  K3  1  0.83010000  0.66990000  0.50000000  1
  Sm  Sm0  1  0.00000000  0.00000000  0.50000000  1
  Sm  Sm1  1  0.50000000  0.50000000  0.50000000  1
  Nb  Nb0  1  0.50000000  0.00000000  0.00000000  1
  Nb  Nb1  1  0.00000000  0.50000000  0.00000000  1
  Nb  Nb2  1  0.21285300  0.07652200  0.00000000  1
  Nb  Nb3  1  0.78714700  0.92347800  0.00000000  1
  Nb  Nb4  1  0.07652200  0.78714700  0.00000000  1
  Nb  Nb5  1  0.71285300  0.42347800  0.00000000  1
  Nb  Nb6  1  0.92347800  0.21285300  0.00000000  1
  Nb  Nb7  1  0.28714700  0.57652200  0.00000000  1
  Nb  Nb8  1  0.57652200  0.71285300  0.00000000  1
  Nb  Nb9  1  0.42347800  0.28714700  0.00000000  1
  O  O0  1  0.18822000  0.07880000  0.50000000  1
  O  O1  1  0.81178000  0.92120000  0.50000000  1
  O  O2  1  0.07880000  0.81178000  0.50000000  1
  O  O3  1  0.68822000  0.42120000  0.50000000  1
  O  O4  1  0.92120000  0.18822000  0.50000000  1
  O  O5  1  0.31178000  0.57880000  0.50000000  1
  O  O6  1  0.57880000  0.68822000  0.50000000  1
  O  O7  1  0.42120000  0.31178000  0.50000000  1
  O  O8  1  0.21803700  0.71803700  0.00000000  1
  O  O9  1  0.78196300  0.28196300  0.00000000  1
  O  O10  1  0.71803700  0.78196300  0.00000000  1
  O  O11  1  0.28196300  0.21803700  0.00000000  1
  O  O12  1  0.50000000  0.00000000  0.50000000  1
  O  O13  1  0.00000000  0.50000000  0.50000000  1
  O  O14  1  0.05782200  0.13079100  0.00000000  1
  O  O15  1  0.94217800  0.86920900  0.00000000  1
  O  O16  1  0.13079100  0.94217800  0.00000000  1
  O  O17  1  0.55782200  0.36920900  0.00000000  1
  O  O18  1  0.86920900  0.05782200  0.00000000  1
  O  O19  1  0.44217800  0.63079100  0.00000000  1
  O  O20  1  0.63079100  0.55782200  0.00000000  1
  O  O21  1  0.36920900  0.44217800  0.00000000  1
  O  O22  1  0.34207200  0.99901400  0.00000000  1
  O  O23  1  0.65792800  0.00098600  0.00000000  1
  O  O24  1  0.99901400  0.65792800  0.00000000  1
  O  O25  1  0.84207200  0.50098600  0.00000000  1
  O  O26  1  0.00098600  0.34207200  0.00000000  1
  O  O27  1  0.15792800  0.49901400  0.00000000  1
  O  O28  1  0.49901400  0.84207200  0.00000000  1
  O  O29  1  0.50098600  0.15792800  0.00000000  1
loop_
_geom_bond_atom_site_label_1
_geom_bond_atom_site_label_2
_geom_bond_distance
_geom_bond_site_symmetry_2
K0 O9 2.832777 1_556
K0 O9 2.832777 1_555
K0 O23 2.933451 1_556
K0 O23 2.933451 1_555
K0 O29 2.933451 1_555
K0 O29 2.933451 1_556
K0 O12 3.068650 1_555
K0 O3 3.217973 1_555
K0 O4 3.217973 1_555
K1 O8 2.832777 1_556
K1 O8 2.832777 1_555
K1 O28 2.933451 1_555
K1 O28 2.933451 1_556
K1 O22 2.933451 1_555
K1 O22 2.933451 1_556
K1 O12 3.068650 1_565
K1 O2 3.217973 1_555
K1 O5 3.217973 1_555
K2 O11 2.832777 1_556
K2 O11 2.832777 1_555
K2 O27 2.933451 1_556
K2 O27 2.933451 1_555
K2 O26 2.933451 1_555
K2 O26 2.933451 1_556
K2 O13 3.068650 1_555
K2 O7 3.217973 1_555
K2 O0 3.217973 1_555
K3 O10 2.832777 1_556
K3 O10 2.832777 1_555
K3 O24 2.933451 1_556
K3 O24 2.933451 1_555
K3 O25 2.933451 1_555
K3 O25 2.933451 1_556
K3 O13 3.068650 1_655
K3 O1 3.217973 1_555
K3 O6 3.217973 1_555
Nb0 O12 1.981904 1_554
Nb0 O12 1.981904 1_555
Nb0 O29 2.017003 1_555
Nb0 O23 2.017003 1_555
Nb0 O22 2.017003 1_545
Nb0 O28 2.017003 1_545
Nb1 O13 1.981904 1_555
Nb1 O13 1.981904 1_554
Nb1 O27 2.017003 1_555
Nb1 O24 2.017003 1_455
Nb1 O26 2.017003 1_555
Nb1 O25 2.017003 1_455
Nb2 O22 1.924421 1_545
Nb2 O0 2.006928 1_555
Nb2 O0 2.006928 1_554
Nb2 O16 2.010534 1_545
Nb2 O11 2.011353 1_555
Nb2 O14 2.097770 1_555
Nb3 O23 1.924421 1_565
Nb3 O1 2.006928 1_554
Nb3 O1 2.006928 1_555
Nb3 O18 2.010534 1_565
Nb3 O10 2.011353 1_555
Nb3 O15 2.097770 1_555
Nb4 O24 1.924421 1_455
Nb4 O2 2.006928 1_554
Nb4 O2 2.006928 1_555
Nb4 O15 2.010534 1_455
Nb4 O8 2.011353 1_555
Nb4 O16 2.097770 1_555
Nb5 O25 1.924421 1_555
Nb5 O3 2.006928 1_555
Nb5 O3 2.006928 1_554
Nb5 O20 2.010534 1_555
Nb5 O9 2.011353 1_555
Nb5 O17 2.097770 1_555
Nb6 O26 1.924421 1_655
Nb6 O4 2.006928 1_554
Nb6 O4 2.006928 1_555
Nb6 O14 2.010534 1_655
Nb6 O9 2.011353 1_555
Nb6 O18 2.097770 1_555
Nb7 O27 1.924421 1_555
Nb7 O5 2.006928 1_555
Nb7 O5 2.006928 1_554
Nb7 O21 2.010534 1_555
Nb7 O8 2.011353 1_555
Nb7 O19 2.097770 1_555
Nb8 O28 1.924421 1_555
Nb8 O6 2.006928 1_555
Nb8 O6 2.006928 1_554
Nb8 O19 2.010534 1_555
Nb8 O10 2.011353 1_555
Nb8 O20 2.097770 1_555
Nb9 O29 1.924421 1_555
Nb9 O7 2.006928 1_555
Nb9 O7 2.006928 1_554
Nb9 O17 2.010534 1_555
Nb9 O11 2.011353 1_555
Nb9 O21 2.097770 1_555
O0 Sm0 2.606001 1_555
O1 Sm0 2.606001 1_665
O2 Sm0 2.606001 1_565
O3 Sm1 2.606001 1_555
O4 Sm0 2.606001 1_655
O5 Sm1 2.606001 1_555
O6 Sm1 2.606001 1_555
O7 Sm1 2.606001 1_555
O14 Sm0 2.695082 1_554
O14 Sm0 2.695082 1_555
O15 Sm0 2.695082 1_664
O15 Sm0 2.695082 1_665
O16 Sm0 2.695082 1_565
O16 Sm0 2.695082 1_564
O17 Sm1 2.695082 1_554
O17 Sm1 2.695082 1_555
O18 Sm0 2.695082 1_654
O18 Sm0 2.695082 1_655
O19 Sm1 2.695082 1_555
O19 Sm1 2.695082 1_554
O20 Sm1 2.695082 1_554
O20 Sm1 2.695082 1_555
O21 Sm1 2.695082 1_555
O21 Sm1 2.695082 1_554
