# generated using pymatgen
data_BaLaMg6
_symmetry_space_group_name_H-M   'P 1'
_cell_length_a   7.05124282
_cell_length_b   7.05124282
_cell_length_c   5.35391800
_cell_angle_alpha   90.00000000
_cell_angle_beta   90.00000000
_cell_angle_gamma   116.27900262
_symmetry_Int_Tables_number   1
_chemical_formula_structural   BaLaMg6
_chemical_formula_sum   'Ba1 La1 Mg6'
_cell_volume   238.68515023
_cell_formula_units_Z   1
loop_
 _symmetry_equiv_pos_site_id
 _symmetry_equiv_pos_as_xyz
  1  'x, y, z'
loop_
 _atom_site_type_symbol
 _atom_site_label
 _atom_site_symmetry_multiplicity
 _atom_site_fract_x
 _atom_site_fract_y
 _atom_site_fract_z
 _atom_site_occupancy
  Ba  Ba0  1  0.59936900  0.40063100  0.50000000  1
  La  La0  1  0.90418900  0.09581100  0.00000000  1
  Mg  Mg0  1  0.95268200  0.62408300  0.00000000  1
  Mg  Mg1  1  0.37591700  0.04731800  0.00000000  1
  Mg  Mg2  1  0.40258300  0.59741700  0.00000000  1
  Mg  Mg3  1  0.56621900  0.88393700  0.50000000  1
  Mg  Mg4  1  0.11606300  0.43378100  0.50000000  1
  Mg  Mg5  1  0.08328900  0.91671100  0.50000000  1
loop_
_geom_bond_atom_site_label_1
_geom_bond_atom_site_label_2
_geom_bond_distance
_geom_bond_site_symmetry_2
Ba0 Mg3 3.517648 1_555
Ba0 Mg4 3.517648 1_555
Ba0 Mg0 3.518439 1_556
Ba0 Mg1 3.518439 1_555
Ba0 Mg0 3.518439 1_555
Ba0 Mg1 3.518439 1_556
Ba0 Mg4 3.546044 1_655
Ba0 Mg3 3.546044 1_545
Ba0 Mg2 3.566764 1_555
Ba0 Mg2 3.566764 1_556
Ba0 Mg5 3.726999 1_655
Ba0 Mg5 3.726999 1_545
La0 Mg5 3.430460 1_644
La0 Mg5 3.430460 1_645
La0 Mg3 3.453213 1_544
La0 Mg3 3.453213 1_545
La0 Mg4 3.453213 1_655
La0 Mg4 3.453213 1_654
La0 Mg0 3.491147 1_545
La0 Mg1 3.491147 1_655
La0 Mg1 3.586713 1_555
La0 Mg0 3.586713 1_555
La0 Mg2 3.722069 1_655
La0 Mg2 3.722069 1_545
Mg0 Mg1 3.150577 1_665
Mg0 Mg5 3.254101 1_655
Mg0 Mg5 3.254101 1_654
Mg0 Mg2 3.259972 1_655
Mg0 Mg4 3.415079 1_654
Mg0 Mg4 3.415079 1_655
Mg1 Mg5 3.254101 1_544
Mg1 Mg5 3.254101 1_545
Mg1 Mg2 3.259972 1_545
Mg1 Mg3 3.415079 1_545
Mg1 Mg3 3.415079 1_544
Mg2 Mg4 3.242680 1_554
Mg2 Mg3 3.242680 1_555
Mg2 Mg4 3.242680 1_555
Mg2 Mg3 3.242680 1_554
Mg3 Mg4 3.350978 1_555
Mg3 Mg5 3.513689 1_555
Mg3 Mg5 3.549723 1_655
Mg4 Mg5 3.513689 1_555
Mg4 Mg5 3.549723 1_545
