# generated using pymatgen
data_Si7PtN10
_symmetry_space_group_name_H-M   'P 1'
_cell_length_a   6.74972842
_cell_length_b   6.95739000
_cell_length_c   9.77253899
_cell_angle_alpha   90.00000000
_cell_angle_beta   103.79604300
_cell_angle_gamma   90.00000000
_symmetry_Int_Tables_number   1
_chemical_formula_structural   Si7PtN10
_chemical_formula_sum   'Si14 Pt2 N20'
_cell_volume   445.68365769
_cell_formula_units_Z   2
loop_
 _symmetry_equiv_pos_site_id
 _symmetry_equiv_pos_as_xyz
  1  'x, y, z'
loop_
 _atom_site_type_symbol
 _atom_site_label
 _atom_site_symmetry_multiplicity
 _atom_site_fract_x
 _atom_site_fract_y
 _atom_site_fract_z
 _atom_site_occupancy
  Si  Si0  1  0.54605400  0.98487300  0.82292700  1
  Si  Si1  1  0.54605400  0.01512700  0.32292700  1
  Si  Si2  1  0.35821700  0.02345500  0.02319800  1
  Si  Si3  1  0.35821700  0.97654500  0.52319800  1
  Si  Si4  1  0.11025400  0.40690300  0.07427900  1
  Si  Si5  1  0.11025400  0.59309700  0.57427900  1
  Si  Si6  1  0.64920600  0.36682800  0.98283600  1
  Si  Si7  1  0.64920600  0.63317200  0.48283600  1
  Si  Si8  1  0.84368500  0.61916500  0.80827300  1
  Si  Si9  1  0.84368500  0.38083500  0.30827300  1
  Si  Si10  1  0.29109000  0.62128000  0.87820200  1
  Si  Si11  1  0.29109000  0.37872000  0.37820200  1
  Si  Si12  1  0.48144800  0.36713900  0.68257600  1
  Si  Si13  1  0.48144800  0.63286100  0.18257600  1
  Pt  Pt0  1  0.00905900  0.88827000  0.70790600  1
  Pt  Pt1  1  0.00905900  0.11173000  0.20790600  1
  N  N0  1  0.75269000  0.84568300  0.82002200  1
  N  N1  1  0.75269000  0.15431700  0.32002200  1
  N  N2  1  0.54743300  0.14311800  0.96290200  1
  N  N3  1  0.54743300  0.85688200  0.46290200  1
  N  N4  1  0.32164200  0.87293200  0.86891800  1
  N  N5  1  0.32164200  0.12706800  0.36891800  1
  N  N6  1  0.17112600  0.16788400  0.05541000  1
  N  N7  1  0.17112600  0.83211600  0.55541000  1
  N  N8  1  0.28243300  0.49888200  0.72222300  1
  N  N9  1  0.28243300  0.50111800  0.22222300  1
  N  N10  1  0.45474400  0.11970200  0.66965500  1
  N  N11  1  0.45474400  0.88029800  0.16965500  1
  N  N12  1  0.86942800  0.38061400  0.12173400  1
  N  N13  1  0.86942800  0.61938600  0.62173400  1
  N  N14  1  0.07169100  0.56468900  0.93268000  1
  N  N15  1  0.07169100  0.43531100  0.43268000  1
  N  N16  1  0.69267400  0.42113000  0.81825700  1
  N  N17  1  0.69267400  0.57887000  0.31825700  1
  N  N18  1  0.48942900  0.54388200  0.01730200  1
  N  N19  1  0.48942900  0.45611800  0.51730200  1
loop_
_geom_bond_atom_site_label_1
_geom_bond_atom_site_label_2
_geom_bond_distance
_geom_bond_site_symmetry_2
N0 Si0 1.703754 1_555
N0 Si8 1.705210 1_555
N0 Pt0 2.277467 1_655
N1 Si1 1.703754 1_555
N1 Si9 1.705210 1_555
N1 Pt1 2.277467 1_655
N2 Si6 1.693668 1_555
N2 Si2 1.740800 1_556
N2 Si0 1.754233 1_545
N3 Si7 1.693668 1_555
N3 Si3 1.740800 1_555
N3 Si1 1.754233 1_565
N4 Si10 1.767802 1_555
N4 Si2 1.803700 1_566
N4 Si0 1.851385 1_555
N4 Pt0 2.314175 1_555
N5 Si11 1.767802 1_555
N5 Si3 1.803700 1_545
N5 Si1 1.851385 1_555
N5 Pt1 2.314175 1_555
N6 Si2 1.700913 1_555
N6 Si4 1.733305 1_555
N6 Pt1 2.085112 1_555
N7 Si3 1.700913 1_555
N7 Si5 1.733305 1_555
N7 Pt0 2.085112 1_555
N8 Si10 1.734829 1_555
N8 Si12 1.744398 1_555
N8 Si5 1.751922 1_555
N9 Si11 1.734829 1_555
N9 Si13 1.744398 1_555
N9 Si4 1.751922 1_555
N10 Si12 1.732395 1_555
N10 Si3 1.737889 1_545
N10 Si0 1.750169 1_545
N11 Si13 1.732395 1_555
N11 Si2 1.737889 1_565
N11 Si1 1.750169 1_565
N12 Si6 1.760370 1_554
N12 Si4 1.802869 1_655
N12 Si9 1.872017 1_555
N12 Pt1 2.172216 1_655
N13 Si7 1.760370 1_555
N13 Si5 1.802869 1_655
N13 Si8 1.872017 1_555
N13 Pt0 2.172216 1_655
N14 Si10 1.734212 1_555
N14 Si4 1.736645 1_556
N14 Si8 1.760069 1_455
N15 Si11 1.734212 1_555
N15 Si5 1.736645 1_555
N15 Si9 1.760069 1_455
N16 Si8 1.730387 1_555
N16 Si12 1.740777 1_555
N16 Si6 1.743754 1_555
N17 Si9 1.730387 1_555
N17 Si13 1.740777 1_555
N17 Si7 1.743754 1_555
N18 Si6 1.722545 1_554
N18 Si13 1.742508 1_555
N18 Si10 1.749888 1_554
N19 Si7 1.722545 1_555
N19 Si12 1.742508 1_555
N19 Si11 1.749888 1_555
