# generated using pymatgen
data_Pr(MoO3)2
_symmetry_space_group_name_H-M   'P 1'
_cell_length_a   5.54787000
_cell_length_b   5.66534906
_cell_length_c   7.96755827
_cell_angle_alpha   90.23367160
_cell_angle_beta   90.13105853
_cell_angle_gamma   90.12766119
_symmetry_Int_Tables_number   1
_chemical_formula_structural   Pr(MoO3)2
_chemical_formula_sum   'Pr2 Mo4 O12'
_cell_volume   250.42193259
_cell_formula_units_Z   2
loop_
 _symmetry_equiv_pos_site_id
 _symmetry_equiv_pos_as_xyz
  1  'x, y, z'
loop_
 _atom_site_type_symbol
 _atom_site_label
 _atom_site_symmetry_multiplicity
 _atom_site_fract_x
 _atom_site_fract_y
 _atom_site_fract_z
 _atom_site_occupancy
  Pr  Pr0  1  0.98236600  0.95654500  0.24954400  1
  Pr  Pr1  1  0.49290800  0.55310100  0.75305700  1
  Mo  Mo0  1  0.00027300  0.49253200  0.00277300  1
  Mo  Mo1  1  0.99784000  0.49195600  0.50116100  1
  Mo  Mo2  1  0.49410600  0.00588600  0.49899200  1
  Mo  Mo3  1  0.49513900  0.00865700  0.99955100  1
  O  O0  1  0.92406500  0.48590000  0.75563300  1
  O  O1  1  0.79250700  0.21050200  0.04223300  1
  O  O2  1  0.79414200  0.20932300  0.45690200  1
  O  O3  1  0.71724100  0.73720700  0.46389600  1
  O  O4  1  0.72743300  0.72669400  0.03203000  1
  O  O5  1  0.56200900  0.97050500  0.74453900  1
  O  O6  1  0.40103100  0.01267200  0.25526600  1
  O  O7  1  0.28948200  0.29430800  0.95713000  1
  O  O8  1  0.30608000  0.28334900  0.54503900  1
  O  O9  1  0.22619200  0.77161000  0.96660700  1
  O  O10  1  0.22388500  0.77037800  0.53177500  1
  O  O11  1  0.05243200  0.51887400  0.24387200  1
loop_
_geom_bond_atom_site_label_1
_geom_bond_atom_site_label_2
_geom_bond_distance
_geom_bond_site_symmetry_2
Mo0 O11 1.947065 1_555
Mo0 O7 1.993782 1_554
Mo0 O1 1.994487 1_455
Mo0 O0 2.013218 1_454
Mo0 O4 2.028177 1_455
Mo0 O9 2.037229 1_554
Mo1 O2 1.987675 1_555
Mo1 O10 2.026546 1_655
Mo1 O0 2.069744 1_555
Mo1 O11 2.079069 1_655
Mo1 O8 2.110200 1_655
Mo1 O3 2.110205 1_555
Mo2 O8 1.923032 1_555
Mo2 O3 1.983464 1_545
Mo2 O5 2.002448 1_545
Mo2 O6 2.008782 1_555
Mo2 O10 2.022766 1_545
Mo2 O2 2.051520 1_555
Mo3 O7 2.011439 1_555
Mo3 O9 2.021172 1_545
Mo3 O1 2.032450 1_556
Mo3 O4 2.071371 1_546
Mo3 O5 2.076747 1_545
Mo3 O6 2.104458 1_556
O0 Pr1 2.423003 1_555
O1 Pr0 2.434334 1_545
O2 Pr0 2.422003 1_545
O3 Pr0 2.577801 1_555
O3 Pr1 2.823434 1_555
O4 Pr0 2.581024 1_555
O4 Pr1 2.750252 1_554
O5 Pr1 2.396029 1_555
O6 Pr0 2.343977 1_445
O7 Pr1 2.467290 1_555
O8 Pr1 2.474111 1_555
O9 Pr1 2.572840 1_555
O9 Pr0 2.830283 1_456
O10 Pr1 2.620134 1_555
O10 Pr0 2.824224 1_455
O11 Pr0 2.510940 1_455
