# generated using pymatgen
data_LiSm2IrO6
_symmetry_space_group_name_H-M   'P 1'
_cell_length_a   5.72816714
_cell_length_b   5.34005152
_cell_length_c   9.22406270
_cell_angle_alpha   56.56343600
_cell_angle_beta   89.99994771
_cell_angle_gamma   90.00036787
_symmetry_Int_Tables_number   1
_chemical_formula_structural   LiSm2IrO6
_chemical_formula_sum   'Li2 Sm4 Ir2 O12'
_cell_volume   235.45495875
_cell_formula_units_Z   2
loop_
 _symmetry_equiv_pos_site_id
 _symmetry_equiv_pos_as_xyz
  1  'x, y, z'
loop_
 _atom_site_type_symbol
 _atom_site_label
 _atom_site_symmetry_multiplicity
 _atom_site_fract_x
 _atom_site_fract_y
 _atom_site_fract_z
 _atom_site_occupancy
  Li  Li0  1  -0.00000000  -0.00000000  -0.00000000  1
  Li  Li1  1  0.50000000  -0.00000000  0.50000000  1
  Sm  Sm0  1  0.07598839  0.77306255  0.74531022  1
  Sm  Sm1  1  0.57594139  0.22685311  0.75475730  1
  Sm  Sm2  1  0.42405861  0.77314689  0.24524270  1
  Sm  Sm3  1  0.92401161  0.22693745  0.25468978  1
  Ir  Ir0  1  0.50000000  0.50000000  -0.00000000  1
  Ir  Ir1  1  -0.00000000  0.50000000  0.50000000  1
  O  O0  1  0.28818101  0.27402663  0.55253197  1
  O  O1  1  0.78810520  0.72586314  0.94751200  1
  O  O2  1  0.71181899  0.72597337  0.44746803  1
  O  O3  1  0.21189480  0.27413686  0.05248800  1
  O  O4  1  0.03207502  0.64874180  0.24928722  1
  O  O5  1  0.53206390  0.35126797  0.25063985  1
  O  O6  1  0.31266558  0.85754041  0.94806683  1
  O  O7  1  0.81259499  0.14234952  0.55197130  1
  O  O8  1  0.68733442  0.14245959  0.05193317  1
  O  O9  1  0.18740501  0.85765048  0.44802870  1
  O  O10  1  0.46793610  0.64873203  0.74936015  1
  O  O11  1  0.96792498  0.35125820  0.75071278  1
loop_
_geom_bond_atom_site_label_1
_geom_bond_atom_site_label_2
_geom_bond_distance
_geom_bond_site_symmetry_2
Li0 O11 2.021479 1_454
Li0 O4 2.021479 1_545
Li0 O6 2.101786 1_544
Li0 O8 2.101786 1_455
Li0 O3 2.152138 1_555
Li0 O1 2.152138 1_444
Li1 O5 2.021908 1_555
Li1 O10 2.021908 1_545
Li1 O7 2.101298 1_555
Li1 O9 2.101298 1_545
Li1 O0 2.151674 1_555
Li1 O2 2.151674 1_545
Ir0 O1 1.941422 1_554
Ir0 O3 1.941422 1_555
Ir0 O10 1.996487 1_554
Ir0 O5 1.996487 1_555
Ir0 O8 2.004606 1_555
Ir0 O6 2.004606 1_554
Ir1 O2 1.942052 1_455
Ir1 O0 1.942052 1_555
Ir1 O4 1.997110 1_555
Ir1 O11 1.997110 1_455
Ir1 O7 2.005191 1_455
Ir1 O9 2.005191 1_555
O0 Sm1 2.396277 1_555
O0 Sm0 2.559990 1_545
O0 Sm2 2.723662 1_555
O1 Sm0 2.396555 1_655
O1 Sm1 2.559995 1_565
O1 Sm3 2.722784 1_556
O2 Sm2 2.396277 1_555
O2 Sm3 2.559990 1_565
O2 Sm1 2.723662 1_555
O3 Sm3 2.396555 1_455
O3 Sm2 2.559995 1_545
O3 Sm0 2.722784 1_554
O4 Sm3 2.309869 1_455
O4 Sm2 2.336018 1_555
O5 Sm2 2.310197 1_555
O5 Sm3 2.335712 1_555
O6 Sm1 2.338329 1_565
O6 Sm0 2.543436 1_555
O6 Sm2 2.600551 1_556
O7 Sm0 2.338804 1_645
O7 Sm1 2.543671 1_555
O7 Sm3 2.601093 1_555
O8 Sm2 2.338329 1_545
O8 Sm3 2.543436 1_555
O8 Sm1 2.600551 1_554
O9 Sm3 2.338804 1_465
O9 Sm2 2.543671 1_555
O9 Sm0 2.601093 1_555
O10 Sm1 2.310197 1_555
O10 Sm0 2.335712 1_555
O11 Sm0 2.309869 1_655
O11 Sm1 2.336018 1_555
