# generated using pymatgen
data_CeAlAu
_symmetry_space_group_name_H-M   'P 1'
_cell_length_a   4.52286127
_cell_length_b   4.52285995
_cell_length_c   7.56358813
_cell_angle_alpha   89.99824753
_cell_angle_beta   90.00179934
_cell_angle_gamma   119.99928080
_symmetry_Int_Tables_number   1
_chemical_formula_structural   CeAlAu
_chemical_formula_sum   'Ce2 Al2 Au2'
_cell_volume   133.99483491
_cell_formula_units_Z   2
loop_
 _symmetry_equiv_pos_site_id
 _symmetry_equiv_pos_as_xyz
  1  'x, y, z'
loop_
 _atom_site_type_symbol
 _atom_site_label
 _atom_site_symmetry_multiplicity
 _atom_site_fract_x
 _atom_site_fract_y
 _atom_site_fract_z
 _atom_site_occupancy
  Ce  Ce0  1  -0.00000005  0.00000005  0.49994175  1
  Ce  Ce1  1  -0.00000039  0.00000039  0.00005790  1
  Al  Al0  1  0.66666630  0.33333370  0.25000926  1
  Al  Al1  1  0.33333383  0.66666617  0.74999089  1
  Au  Au0  1  0.66667986  0.33332114  0.75000932  1
  Au  Au1  1  0.33332144  0.66667956  0.24999087  1
loop_
_geom_bond_atom_site_label_1
_geom_bond_atom_site_label_2
_geom_bond_distance
_geom_bond_site_symmetry_2
Al0 Au1 2.611244 1_545
Al0 Au1 2.611249 1_655
Al0 Au1 2.611360 1_555
Al0 Ce0 3.223651 1_655
Al0 Ce0 3.223752 1_665
Al0 Ce0 3.223755 1_555
Al0 Ce1 3.223783 1_555
Al0 Ce1 3.223784 1_665
Al0 Ce1 3.223842 1_655
Al1 Au0 2.611244 1_455
Al1 Au0 2.611248 1_565
Al1 Au0 2.611361 1_555
Al1 Ce0 3.224170 1_565
Al1 Ce0 3.224269 1_555
Al1 Ce0 3.224272 1_665
Al1 Ce1 3.224293 1_666
Al1 Ce1 3.224294 1_556
Al1 Ce1 3.224361 1_566
Au0 Ce1 3.224081 1_656
Au0 Ce0 3.224277 1_655
Au0 Ce1 3.224308 1_666
Au0 Ce1 3.224314 1_556
Au0 Ce0 3.224338 1_665
Au0 Ce0 3.224340 1_555
Au1 Ce1 3.223575 1_565
Au1 Ce0 3.223762 1_565
Au1 Ce1 3.223794 1_665
Au1 Ce1 3.223795 1_555
Au1 Ce0 3.223818 1_665
Au1 Ce0 3.223823 1_555
