# generated using pymatgen
data_Eu3V2O7
_symmetry_space_group_name_H-M   'P 1'
_cell_length_a   10.62244682
_cell_length_b   10.62244682
_cell_length_c   10.62244682
_cell_angle_alpha   158.98546468
_cell_angle_beta   158.98546468
_cell_angle_gamma   29.89054883
_symmetry_Int_Tables_number   1
_chemical_formula_structural   Eu3V2O7
_chemical_formula_sum   'Eu3 V2 O7'
_cell_volume   154.04540000
_cell_formula_units_Z   1
loop_
 _symmetry_equiv_pos_site_id
 _symmetry_equiv_pos_as_xyz
  1  'x, y, z'
loop_
 _atom_site_type_symbol
 _atom_site_label
 _atom_site_symmetry_multiplicity
 _atom_site_fract_x
 _atom_site_fract_y
 _atom_site_fract_z
 _atom_site_occupancy
  Eu  Eu0  1  0.31490500  0.31490500  0.00000000  1
  Eu  Eu1  1  0.68509500  0.68509500  0.00000000  1
  Eu  Eu2  1  0.50000000  0.50000000  0.00000000  1
  V  V0  1  0.09785600  0.09785600  0.00000000  1
  V  V1  1  0.90214400  0.90214400  0.00000000  1
  O  O0  1  0.59753700  0.09753700  0.50000000  1
  O  O1  1  0.40246300  0.90246300  0.50000000  1
  O  O2  1  0.09753700  0.59753700  0.50000000  1
  O  O3  1  0.90246300  0.40246300  0.50000000  1
  O  O4  1  0.19986000  0.19986000  0.00000000  1
  O  O5  1  0.80014000  0.80014000  0.00000000  1
  O  O6  1  0.00000000  0.00000000  0.00000000  1
loop_
_geom_bond_atom_site_label_1
_geom_bond_atom_site_label_2
_geom_bond_distance
_geom_bond_site_symmetry_2
Eu0 O4 2.361441 1_555
Eu0 O3 2.642435 1_555
Eu0 O1 2.642435 1_544
Eu0 O1 2.642435 1_555
Eu0 O3 2.642435 1_454
Eu0 O5 2.756203 1_545
Eu0 O5 2.756203 1_444
Eu0 O5 2.756203 1_455
Eu0 O5 2.756203 1_556
Eu1 O5 2.361441 1_555
Eu1 O0 2.642435 1_554
Eu1 O2 2.642435 1_655
Eu1 O0 2.642435 1_565
Eu1 O2 2.642435 1_554
Eu1 O4 2.756203 1_565
Eu1 O4 2.756203 1_655
Eu1 O4 2.756203 1_554
Eu1 O4 2.756203 1_666
Eu2 O6 2.739490 1_666
Eu2 O6 2.739490 1_554
Eu2 O6 2.739490 1_655
Eu2 O6 2.739490 1_565
Eu2 O3 2.785799 1_454
Eu2 O2 2.785799 1_655
Eu2 O0 2.785799 1_565
Eu2 O2 2.785799 1_554
Eu2 O1 2.785799 1_544
Eu2 O1 2.785799 1_555
Eu2 O3 2.785799 1_555
Eu2 O0 2.785799 1_554
O0 V0 1.937123 1_555
O0 V0 1.937123 1_656
O1 V1 1.937123 1_455
O1 V1 1.937123 1_556
O2 V0 1.937123 1_555
O2 V0 1.937123 1_566
O3 V1 1.937123 1_545
O3 V1 1.937123 1_556
O4 V0 2.093758 1_555
O5 V1 2.093758 1_555
O6 V0 2.008615 1_555
O6 V1 2.008615 1_445
