# generated using pymatgen
data_BaCaCeSnO6
_symmetry_space_group_name_H-M   'P 1'
_cell_length_a   5.95823629
_cell_length_b   6.01089968
_cell_length_c   8.48060422
_cell_angle_alpha   90.18308200
_cell_angle_beta   90.27667883
_cell_angle_gamma   90.20656771
_symmetry_Int_Tables_number   1
_chemical_formula_structural   BaCaCeSnO6
_chemical_formula_sum   'Ba2 Ca2 Ce2 Sn2 O12'
_cell_volume   303.72033482
_cell_formula_units_Z   2
loop_
 _symmetry_equiv_pos_site_id
 _symmetry_equiv_pos_as_xyz
  1  'x, y, z'
loop_
 _atom_site_type_symbol
 _atom_site_label
 _atom_site_symmetry_multiplicity
 _atom_site_fract_x
 _atom_site_fract_y
 _atom_site_fract_z
 _atom_site_occupancy
  Ba  Ba0  1  0.50586479  0.53010566  0.24999226  1
  Ba  Ba1  1  0.49413521  0.46989434  0.75000774  1
  Ca  Ca0  1  0.99296139  0.03726150  0.25324589  1
  Ca  Ca1  1  0.00703861  0.96273850  0.74675411  1
  Ce  Ce0  1  -0.00000000  0.50000000  -0.00000000  1
  Ce  Ce1  1  0.50000000  0.00000000  0.50000000  1
  Sn  Sn0  1  0.50000000  0.00000000  -0.00000000  1
  Sn  Sn1  1  -0.00000000  0.50000000  0.50000000  1
  O  O0  1  0.21522671  0.19757571  0.94084564  1
  O  O1  1  0.27864126  0.70768381  0.53030295  1
  O  O2  1  0.78477329  0.80242429  0.05915436  1
  O  O3  1  0.72135874  0.29231619  0.46969705  1
  O  O4  1  0.29502652  0.72182812  0.96644474  1
  O  O5  1  0.19371720  0.21131598  0.55434051  1
  O  O6  1  0.70497348  0.27817188  0.03355526  1
  O  O7  1  0.80628280  0.78868402  0.44565949  1
  O  O8  1  0.39487216  0.00051872  0.24081519  1
  O  O9  1  0.06238588  0.44222410  0.25881346  1
  O  O10  1  0.60512784  0.99948128  0.75918481  1
  O  O11  1  0.93761412  0.55777590  0.74118654  1
loop_
_geom_bond_atom_site_label_1
_geom_bond_atom_site_label_2
_geom_bond_distance
_geom_bond_site_symmetry_2
Ba0 O6 2.661952 1_555
Ba0 O3 2.677744 1_555
Ba0 O9 2.694209 1_555
Ba0 O2 2.843157 1_555
Ba0 O7 2.882373 1_555
Ba0 O8 2.907430 1_565
Ba0 O1 2.940859 1_555
Ba0 O4 2.947460 1_554
Ba1 O4 2.661952 1_555
Ba1 O1 2.677744 1_555
Ba1 O11 2.694209 1_555
Ba1 O0 2.843157 1_555
Ba1 O5 2.882373 1_555
Ba1 O10 2.907430 1_545
Ba1 O3 2.940859 1_555
Ba1 O6 2.947460 1_556
Ca0 O8 2.408419 1_655
Ca0 O9 2.467879 1_655
Ca0 O7 2.480637 1_545
Ca0 O2 2.488656 1_545
Ca0 O3 2.892643 1_555
Ca0 O6 2.918344 1_555
Ca0 O5 2.998324 1_655
Ca1 O10 2.408419 1_455
Ca1 O11 2.467879 1_455
Ca1 O5 2.480637 1_565
Ca1 O0 2.488656 1_565
Ca1 O1 2.892643 1_555
Ca1 O4 2.918344 1_555
Ca1 O7 2.998324 1_455
Ce0 O4 2.222442 1_554
Ce0 O6 2.222442 1_455
Ce0 O11 2.252612 1_454
Ce0 O9 2.252612 1_555
Ce0 O2 2.284270 1_455
Ce0 O0 2.284270 1_554
Ce1 O1 2.209604 1_545
Ce1 O3 2.209604 1_555
Ce1 O7 2.275336 1_545
Ce1 O5 2.275336 1_555
Ce1 O8 2.282655 1_555
Ce1 O10 2.282655 1_545
O0 Sn0 2.133341 1_556
O1 Sn1 2.087976 1_555
O2 Sn0 2.133341 1_565
O3 Sn1 2.087976 1_655
O4 Sn0 2.084989 1_566
O5 Sn1 2.137777 1_555
O6 Sn0 2.084989 1_555
O7 Sn1 2.137777 1_655
O8 Sn0 2.139043 1_555
O9 Sn1 2.108602 1_555
O10 Sn0 2.139043 1_566
O11 Sn1 2.108602 1_655
