# generated using pymatgen
data_Te4MoW3Se4
_symmetry_space_group_name_H-M   'P 1'
_cell_length_a   3.43786661
_cell_length_b   3.43786661
_cell_length_c   39.15755000
_cell_angle_alpha   90.00000000
_cell_angle_beta   90.00000000
_cell_angle_gamma   120.00001182
_symmetry_Int_Tables_number   1
_chemical_formula_structural   Te4MoW3Se4
_chemical_formula_sum   'Te4 Mo1 W3 Se4'
_cell_volume   400.79669909
_cell_formula_units_Z   1
loop_
 _symmetry_equiv_pos_site_id
 _symmetry_equiv_pos_as_xyz
  1  'x, y, z'
loop_
 _atom_site_type_symbol
 _atom_site_label
 _atom_site_symmetry_multiplicity
 _atom_site_fract_x
 _atom_site_fract_y
 _atom_site_fract_z
 _atom_site_occupancy
  Te  Te0  1  0.33333300  0.66666700  0.32915000  1
  Te  Te1  1  0.33333300  0.66666700  0.70525900  1
  Te  Te2  1  0.33333300  0.66666700  0.23444600  1
  Te  Te3  1  0.33333300  0.66666700  0.60980200  1
  Mo  Mo0  1  0.66666700  0.33333300  0.28179500  1
  W  W0  1  0.33333300  0.66666700  0.09391300  1
  W  W1  1  0.33333300  0.66666700  0.46966300  1
  W  W2  1  0.66666700  0.33333300  0.65753900  1
  Se  Se0  1  0.66666700  0.33333300  0.05196100  1
  Se  Se1  1  0.66666700  0.33333300  0.42769400  1
  Se  Se2  1  0.66666700  0.33333300  0.13589500  1
  Se  Se3  1  0.66666700  0.33333300  0.51163100  1
loop_
_geom_bond_atom_site_label_1
_geom_bond_atom_site_label_2
_geom_bond_distance
_geom_bond_site_symmetry_2
Te1 W2 2.726040 1_455
Te1 W2 2.726040 1_565
Te1 W2 2.726044 1_555
Te3 W2 2.726496 1_455
Te3 W2 2.726496 1_565
Te3 W2 2.726501 1_555
Mo0 Te2 2.716102 1_545
Mo0 Te2 2.716102 1_655
Mo0 Te2 2.716107 1_555
Mo0 Te0 2.716263 1_545
Mo0 Te0 2.716263 1_655
Mo0 Te0 2.716267 1_555
Se0 W0 2.576474 1_545
Se0 W0 2.576474 1_655
Se0 W0 2.576479 1_555
Se1 W1 2.576899 1_545
Se1 W1 2.576899 1_655
Se1 W1 2.576904 1_555
Se2 W0 2.577224 1_545
Se2 W0 2.577224 1_655
Se2 W0 2.577228 1_555
Se3 W1 2.576874 1_545
Se3 W1 2.576874 1_655
Se3 W1 2.576879 1_555
