# generated using pymatgen
data_BaSrEu4O8
_symmetry_space_group_name_H-M   'P 1'
_cell_length_a   3.58732400
_cell_length_b   10.52631500
_cell_length_c   12.46070000
_cell_angle_alpha   90.00000000
_cell_angle_beta   90.00000000
_cell_angle_gamma   90.00000000
_symmetry_Int_Tables_number   1
_chemical_formula_structural   BaSrEu4O8
_chemical_formula_sum   'Ba2 Sr2 Eu8 O16'
_cell_volume   470.53226120
_cell_formula_units_Z   2
loop_
 _symmetry_equiv_pos_site_id
 _symmetry_equiv_pos_as_xyz
  1  'x, y, z'
loop_
 _atom_site_type_symbol
 _atom_site_label
 _atom_site_symmetry_multiplicity
 _atom_site_fract_x
 _atom_site_fract_y
 _atom_site_fract_z
 _atom_site_occupancy
  Ba  Ba0  1  0.75000000  0.74854400  0.14984100  1
  Ba  Ba1  1  0.75000000  0.24854400  0.35015900  1
  Sr  Sr0  1  0.25000000  0.25559800  0.85152700  1
  Sr  Sr1  1  0.25000000  0.75559800  0.64847300  1
  Eu  Eu0  1  0.75000000  0.07553900  0.61333100  1
  Eu  Eu1  1  0.75000000  0.57553900  0.88666900  1
  Eu  Eu2  1  0.25000000  0.92222800  0.39334900  1
  Eu  Eu3  1  0.25000000  0.42222800  0.10665100  1
  Eu  Eu4  1  0.75000000  0.07945500  0.10773200  1
  Eu  Eu5  1  0.75000000  0.57945500  0.39226800  1
  Eu  Eu6  1  0.25000000  0.92547200  0.88468700  1
  Eu  Eu7  1  0.25000000  0.42547200  0.61531300  1
  O  O0  1  0.75000000  0.28567100  0.67718100  1
  O  O1  1  0.75000000  0.78567100  0.82281900  1
  O  O2  1  0.25000000  0.71448300  0.33173300  1
  O  O3  1  0.25000000  0.21448300  0.16826700  1
  O  O4  1  0.75000000  0.37265100  0.97564300  1
  O  O5  1  0.75000000  0.87265100  0.52435700  1
  O  O6  1  0.25000000  0.61869300  0.01547700  1
  O  O7  1  0.25000000  0.11869300  0.48452300  1
  O  O8  1  0.75000000  0.98832500  0.28542500  1
  O  O9  1  0.75000000  0.48832500  0.21457500  1
  O  O10  1  0.25000000  0.00204500  0.71280200  1
  O  O11  1  0.25000000  0.50204500  0.78719800  1
  O  O12  1  0.75000000  0.08229400  0.91707900  1
  O  O13  1  0.75000000  0.58229400  0.58292100  1
  O  O14  1  0.25000000  0.92900100  0.07245200  1
  O  O15  1  0.25000000  0.42900100  0.42754800  1
loop_
_geom_bond_atom_site_label_1
_geom_bond_atom_site_label_2
_geom_bond_distance
_geom_bond_site_symmetry_2
Ba0 O14 2.784855 1_555
Ba0 O14 2.784855 1_655
Ba0 O6 2.808681 1_555
Ba0 O6 2.808681 1_655
Ba0 O9 2.855448 1_555
Ba0 O2 2.912525 1_555
Ba0 O2 2.912525 1_655
Ba0 O8 3.037259 1_555
Ba1 O15 2.784855 1_555
Ba1 O15 2.784855 1_655
Ba1 O7 2.808681 1_555
Ba1 O7 2.808681 1_655
Ba1 O8 2.855448 1_545
Ba1 O3 2.912525 1_555
Ba1 O3 2.912525 1_655
Ba1 O9 3.037259 1_555
Eu0 O10 2.313443 1_555
Eu0 O10 2.313443 1_655
Eu0 O0 2.350654 1_555
Eu0 O5 2.406288 1_545
Eu0 O7 2.449432 1_655
Eu0 O7 2.449432 1_555
Eu1 O11 2.313443 1_555
Eu1 O11 2.313443 1_655
Eu1 O1 2.350654 1_555
Eu1 O4 2.406288 1_555
Eu1 O6 2.449432 1_556
Eu1 O6 2.449432 1_656
Eu2 O2 2.317656 1_555
Eu2 O8 2.347299 1_455
Eu2 O8 2.347299 1_555
Eu2 O7 2.359565 1_565
Eu2 O5 2.480819 1_455
Eu2 O5 2.480819 1_555
Eu3 O3 2.317656 1_555
Eu3 O9 2.347299 1_455
Eu3 O9 2.347299 1_555
Eu3 O6 2.359565 1_555
Eu3 O4 2.480819 1_554
Eu3 O4 2.480819 1_454
Eu4 O12 2.375858 1_554
Eu4 O3 2.409654 1_655
Eu4 O3 2.409654 1_555
Eu4 O8 2.413043 1_545
Eu4 O14 2.432832 1_545
Eu4 O14 2.432832 1_645
Eu5 O13 2.375858 1_555
Eu5 O2 2.409654 1_555
Eu5 O2 2.409654 1_655
Eu5 O9 2.413043 1_555
Eu5 O15 2.432832 1_555
Eu5 O15 2.432832 1_655
Eu6 O10 2.288455 1_565
Eu6 O14 2.339978 1_556
Eu6 O1 2.444814 1_455
Eu6 O1 2.444814 1_555
Eu6 O12 2.470858 1_565
Eu6 O12 2.470858 1_465
Eu7 O11 2.288455 1_555
Eu7 O15 2.339978 1_555
Eu7 O0 2.444814 1_455
Eu7 O0 2.444814 1_555
Eu7 O13 2.470858 1_455
Eu7 O13 2.470858 1_555
O0 Sr0 2.834973 1_555
O0 Sr0 2.834973 1_655
O1 Sr1 2.834973 1_555
O1 Sr1 2.834973 1_655
O4 Sr0 2.669695 1_555
O4 Sr0 2.669695 1_655
O5 Sr1 2.669695 1_555
O5 Sr1 2.669695 1_655
O10 Sr1 2.715198 1_545
O10 Sr0 3.179865 1_555
O11 Sr0 2.715198 1_555
O11 Sr1 3.179865 1_555
O12 Sr0 2.685577 1_555
O12 Sr0 2.685577 1_655
O13 Sr1 2.685577 1_555
O13 Sr1 2.685577 1_655
