# generated using pymatgen
data_Cs3Zr7MnCl20
_symmetry_space_group_name_H-M   'P 1'
_cell_length_a   14.17370857
_cell_length_b   14.17370857
_cell_length_c   14.17370895
_cell_angle_alpha   55.42994738
_cell_angle_beta   55.42994738
_cell_angle_gamma   55.42994644
_symmetry_Int_Tables_number   1
_chemical_formula_structural   Cs3Zr7MnCl20
_chemical_formula_sum   'Cs6 Zr14 Mn2 Cl40'
_cell_volume   1799.71968134
_cell_formula_units_Z   2
loop_
 _symmetry_equiv_pos_site_id
 _symmetry_equiv_pos_as_xyz
  1  'x, y, z'
loop_
 _atom_site_type_symbol
 _atom_site_label
 _atom_site_symmetry_multiplicity
 _atom_site_fract_x
 _atom_site_fract_y
 _atom_site_fract_z
 _atom_site_occupancy
  Cs  Cs0  1  0.00000000  0.00000000  0.50000000  1
  Cs  Cs1  1  0.50000000  0.00000000  0.00000000  1
  Cs  Cs2  1  0.00000000  0.50000000  0.00000000  1
  Cs  Cs3  1  0.00000000  0.50000000  0.50000000  1
  Cs  Cs4  1  0.50000000  0.00000000  0.50000000  1
  Cs  Cs5  1  0.50000000  0.50000000  0.00000000  1
  Zr  Zr0  1  0.45457500  0.31344800  0.61379800  1
  Zr  Zr1  1  0.61379800  0.45457500  0.31344800  1
  Zr  Zr2  1  0.31344800  0.61379800  0.45457500  1
  Zr  Zr3  1  0.11379800  0.81344800  0.95457500  1
  Zr  Zr4  1  0.95457500  0.11379800  0.81344800  1
  Zr  Zr5  1  0.81344800  0.95457500  0.11379800  1
  Zr  Zr6  1  0.54542500  0.68655200  0.38620200  1
  Zr  Zr7  1  0.38620200  0.54542500  0.68655200  1
  Zr  Zr8  1  0.68655200  0.38620200  0.54542500  1
  Zr  Zr9  1  0.88620200  0.18655200  0.04542500  1
  Zr  Zr10  1  0.04542500  0.88620200  0.18655200  1
  Zr  Zr11  1  0.18655200  0.04542500  0.88620200  1
  Zr  Zr12  1  0.25000000  0.25000000  0.25000000  1
  Zr  Zr13  1  0.75000000  0.75000000  0.75000000  1
  Mn  Mn0  1  0.50000000  0.50000000  0.50000000  1
  Mn  Mn1  1  0.00000000  0.00000000  0.00000000  1
  Cl  Cl0  1  0.25360000  0.42306500  0.57277300  1
  Cl  Cl1  1  0.57277300  0.25360000  0.42306500  1
  Cl  Cl2  1  0.42306500  0.57277300  0.25360000  1
  Cl  Cl3  1  0.07277300  0.92306500  0.75360000  1
  Cl  Cl4  1  0.75360000  0.07277300  0.92306500  1
  Cl  Cl5  1  0.92306500  0.75360000  0.07277300  1
  Cl  Cl6  1  0.74640000  0.57693500  0.42722700  1
  Cl  Cl7  1  0.42722700  0.74640000  0.57693500  1
  Cl  Cl8  1  0.57693500  0.42722700  0.74640000  1
  Cl  Cl9  1  0.92722700  0.07693500  0.24640000  1
  Cl  Cl10  1  0.24640000  0.92722700  0.07693500  1
  Cl  Cl11  1  0.07693500  0.24640000  0.92722700  1
  Cl  Cl12  1  0.17877000  0.66964700  0.65135800  1
  Cl  Cl13  1  0.65135800  0.17877000  0.66964700  1
  Cl  Cl14  1  0.66964700  0.65135800  0.17877000  1
  Cl  Cl15  1  0.15135800  0.16964700  0.67877000  1
  Cl  Cl16  1  0.67877000  0.15135800  0.16964700  1
  Cl  Cl17  1  0.16964700  0.67877000  0.15135800  1
  Cl  Cl18  1  0.82123000  0.33035300  0.34864200  1
  Cl  Cl19  1  0.34864200  0.82123000  0.33035300  1
  Cl  Cl20  1  0.33035300  0.34864200  0.82123000  1
  Cl  Cl21  1  0.84864200  0.83035300  0.32123000  1
  Cl  Cl22  1  0.32123000  0.84864200  0.83035300  1
  Cl  Cl23  1  0.83035300  0.32123000  0.84864200  1
  Cl  Cl24  1  0.59682300  0.90317700  0.25000000  1
  Cl  Cl25  1  0.25000000  0.59682300  0.90317700  1
  Cl  Cl26  1  0.90317700  0.25000000  0.59682300  1
  Cl  Cl27  1  0.75000000  0.40317700  0.09682300  1
  Cl  Cl28  1  0.09682300  0.75000000  0.40317700  1
  Cl  Cl29  1  0.40317700  0.09682300  0.75000000  1
  Cl  Cl30  1  0.06866500  0.43133500  0.25000000  1
  Cl  Cl31  1  0.25000000  0.06866500  0.43133500  1
  Cl  Cl32  1  0.43133500  0.25000000  0.06866500  1
  Cl  Cl33  1  0.75000000  0.93133500  0.56866500  1
  Cl  Cl34  1  0.56866500  0.75000000  0.93133500  1
  Cl  Cl35  1  0.93133500  0.56866500  0.75000000  1
  Cl  Cl36  1  0.31884500  0.31884500  0.31884500  1
  Cl  Cl37  1  0.81884500  0.81884500  0.81884500  1
  Cl  Cl38  1  0.68115500  0.68115500  0.68115500  1
  Cl  Cl39  1  0.18115500  0.18115500  0.18115500  1
loop_
_geom_bond_atom_site_label_1
_geom_bond_atom_site_label_2
_geom_bond_distance
_geom_bond_site_symmetry_2
Mn0 Zr8 2.433341 1_555
Mn0 Zr2 2.433341 1_555
Mn0 Zr6 2.433341 1_555
Mn0 Zr0 2.433341 1_555
Mn0 Zr7 2.433341 1_555
Mn0 Zr1 2.433341 1_555
Mn1 Zr9 2.433341 1_455
Mn1 Zr3 2.433341 1_544
Mn1 Zr11 2.433341 1_554
Mn1 Zr5 2.433341 1_445
Mn1 Zr10 2.433341 1_545
Mn1 Zr4 2.433341 1_454
Cl0 Zr2 2.585456 1_555
Cl0 Zr0 2.588114 1_555
Cl0 Cs3 3.695410 1_555
Cl1 Zr0 2.585456 1_555
Cl1 Zr1 2.588114 1_555
Cl1 Cs4 3.695410 1_555
Cl2 Zr1 2.585456 1_555
Cl2 Zr2 2.588114 1_555
Cl2 Cs5 3.695410 1_555
Cl3 Zr4 2.585456 1_465
Cl3 Zr3 2.588114 1_555
Cl3 Cs0 3.695410 1_565
Cl4 Zr5 2.585456 1_546
Cl4 Zr4 2.588114 1_555
Cl4 Cs1 3.695410 1_556
Cl5 Zr3 2.585456 1_654
Cl5 Zr5 2.588114 1_555
Cl5 Cs2 3.695410 1_655
Cl6 Zr8 2.585456 1_555
Cl6 Zr6 2.588114 1_555
Cl6 Cs3 3.695410 1_655
Cl7 Zr6 2.585456 1_555
Cl7 Zr7 2.588114 1_555
Cl7 Cs4 3.695410 1_565
Cl8 Zr7 2.585456 1_555
Cl8 Zr8 2.588114 1_555
Cl8 Cs5 3.695410 1_556
Cl9 Zr10 2.585456 1_645
Cl9 Zr9 2.588114 1_555
Cl9 Cs0 3.695410 1_655
Cl10 Zr11 2.585456 1_564
Cl10 Zr10 2.588114 1_555
Cl10 Cs1 3.695410 1_565
Cl11 Zr9 2.585456 1_456
Cl11 Zr11 2.588114 1_555
Cl11 Cs2 3.695410 1_556
Cl12 Zr7 2.605007 1_555
Cl12 Zr2 2.607400 1_555
Cl12 Cs0 3.775230 1_565
Cl12 Cs2 3.980170 1_556
Cl13 Zr8 2.605007 1_555
Cl13 Zr0 2.607400 1_555
Cl13 Cs1 3.775230 1_556
Cl13 Cs0 3.980170 1_655
Cl14 Zr6 2.605007 1_555
Cl14 Zr1 2.607400 1_555
Cl14 Cs2 3.775230 1_655
Cl14 Cs1 3.980170 1_565
Cl15 Zr11 2.605007 1_555
Cl15 Zr4 2.607400 1_455
Cl15 Cs3 3.775230 1_555
Cl15 Cs4 3.980170 1_555
Cl16 Zr9 2.605007 1_555
Cl16 Zr5 2.607400 1_545
Cl16 Cs4 3.775230 1_555
Cl16 Cs5 3.980170 1_555
Cl17 Zr10 2.605007 1_555
Cl17 Zr3 2.607400 1_554
Cl17 Cs5 3.775230 1_555
Cl17 Cs3 3.980170 1_555
Cl18 Zr1 2.605007 1_555
Cl18 Zr8 2.607400 1_555
Cl18 Cs0 3.775230 1_655
Cl18 Cs2 3.980170 1_655
Cl19 Zr2 2.605007 1_555
Cl19 Zr6 2.607400 1_555
Cl19 Cs1 3.775230 1_565
Cl19 Cs0 3.980170 1_565
Cl20 Zr0 2.605007 1_555
Cl20 Zr7 2.607400 1_555
Cl20 Cs2 3.775230 1_556
Cl20 Cs1 3.980170 1_556
Cl21 Zr5 2.605007 1_555
Cl21 Zr10 2.607400 1_655
Cl21 Cs3 3.775230 1_655
Cl21 Cs4 3.980170 1_565
Cl22 Zr3 2.605007 1_555
Cl22 Zr11 2.607400 1_565
Cl22 Cs4 3.775230 1_565
Cl22 Cs5 3.980170 1_556
Cl23 Zr4 2.605007 1_555
Cl23 Zr9 2.607400 1_556
Cl23 Cs5 3.775230 1_556
Cl23 Cs3 3.980170 1_655
Cl24 Zr5 2.810802 1_555
Cl24 Zr6 2.810802 1_555
Cl24 Cs4 3.766334 1_565
Cl24 Cs1 3.766334 1_565
Cl25 Zr3 2.810802 1_555
Cl25 Zr7 2.810802 1_555
Cl25 Cs2 3.766334 1_556
Cl25 Cs5 3.766334 1_556
Cl26 Zr8 2.810802 1_555
Cl26 Zr4 2.810802 1_555
Cl26 Cs3 3.766334 1_655
Cl26 Cs0 3.766334 1_655
Cl27 Zr9 2.810802 1_555
Cl27 Zr1 2.810802 1_555
Cl27 Cs2 3.766334 1_655
Cl27 Cs5 3.766334 1_555
Cl28 Zr2 2.810802 1_555
Cl28 Zr10 2.810802 1_555
Cl28 Cs3 3.766334 1_555
Cl28 Cs0 3.766334 1_565
Cl29 Zr11 2.810802 1_555
Cl29 Zr0 2.810802 1_555
Cl29 Cs4 3.766334 1_555
Cl29 Cs1 3.766334 1_556
Cl30 Zr12 2.390654 1_555
Cl30 Cs2 3.657234 1_555
Cl30 Cs3 3.657234 1_555
Cl31 Zr12 2.390654 1_555
Cl31 Cs0 3.657234 1_555
Cl31 Cs4 3.657234 1_555
Cl32 Zr12 2.390654 1_555
Cl32 Cs5 3.657234 1_555
Cl32 Cs1 3.657234 1_555
Cl33 Zr13 2.390654 1_555
Cl33 Cs0 3.657234 1_665
Cl33 Cs4 3.657234 1_565
Cl34 Zr13 2.390654 1_555
Cl34 Cs5 3.657234 1_556
Cl34 Cs1 3.657234 1_566
Cl35 Zr13 2.390654 1_555
Cl35 Cs3 3.657234 1_655
Cl35 Cs2 3.657234 1_656
Cl36 Zr12 2.469437 1_555
Cl36 Cs4 3.841105 1_555
Cl36 Cs3 3.841105 1_555
Cl36 Cs5 3.841105 1_555
Cl37 Zr13 2.469437 1_555
Cl37 Cs2 3.841105 1_656
Cl37 Cs1 3.841105 1_566
Cl37 Cs0 3.841105 1_665
Cl38 Zr13 2.469437 1_555
Cl38 Cs3 3.841105 1_655
Cl38 Cs4 3.841105 1_565
Cl38 Cs5 3.841105 1_556
Cl39 Zr12 2.469437 1_555
Cl39 Cs2 3.841105 1_555
Cl39 Cs1 3.841105 1_555
Cl39 Cs0 3.841105 1_555
