# generated using pymatgen
data_Yb4Ge3Au5
_symmetry_space_group_name_H-M   'P 1'
_cell_length_a   5.63626718
_cell_length_b   5.63626718
_cell_length_c   10.53298728
_cell_angle_alpha   83.39537487
_cell_angle_beta   83.39537487
_cell_angle_gamma   45.93411841
_symmetry_Int_Tables_number   1
_chemical_formula_structural   Yb4Ge3Au5
_chemical_formula_sum   'Yb4 Ge3 Au5'
_cell_volume   238.54521349
_cell_formula_units_Z   1
loop_
 _symmetry_equiv_pos_site_id
 _symmetry_equiv_pos_as_xyz
  1  'x, y, z'
loop_
 _atom_site_type_symbol
 _atom_site_label
 _atom_site_symmetry_multiplicity
 _atom_site_fract_x
 _atom_site_fract_y
 _atom_site_fract_z
 _atom_site_occupancy
  Yb  Yb0  1  0.67812978  0.67812978  0.68455181  1
  Yb  Yb1  1  0.18691292  0.18691292  0.17890882  1
  Yb  Yb2  1  0.39341990  0.39341990  0.90399983  1
  Yb  Yb3  1  0.89497683  0.89497683  0.39688273  1
  Ge  Ge0  1  0.19161433  0.19161433  0.47505503  1
  Ge  Ge1  1  0.98328557  0.98328557  0.66854246  1
  Ge  Ge2  1  0.47565674  0.47565674  0.20389490  1
  Au  Au0  1  0.69020502  0.69020502  0.98014450  1
  Au  Au1  1  0.38234937  0.38234937  0.61339020  1
  Au  Au2  1  0.90248160  0.90248160  0.11051301  1
  Au  Au3  1  0.09545154  0.09545154  0.87147128  1
  Au  Au4  1  0.60671540  0.60671540  0.39384445  1
loop_
_geom_bond_atom_site_label_1
_geom_bond_atom_site_label_2
_geom_bond_distance
_geom_bond_site_symmetry_2
Ge0 Ge1 2.779884 1_445
Ge0 Yb3 3.087980 1_455
Ge0 Yb3 3.087980 1_545
Ge0 Yb0 3.106199 1_455
Ge0 Yb0 3.106199 1_545
Ge0 Yb1 3.125775 1_555
Ge0 Yb3 3.284851 1_445
Ge1 Yb0 3.006673 1_655
Ge1 Yb0 3.006673 1_565
Ge1 Yb3 3.111727 1_555
Ge1 Yb0 3.150578 1_555
Ge1 Yb2 3.358513 1_655
Ge1 Yb2 3.358513 1_565
Ge2 Yb3 3.040525 1_455
Ge2 Yb3 3.040525 1_545
Ge2 Yb1 3.040966 1_555
Ge2 Yb1 3.093462 1_565
Ge2 Yb1 3.093462 1_655
Ge2 Yb2 3.373437 1_554
Au0 Au3 2.719462 1_565
Au0 Au3 2.719462 1_655
Au0 Au2 2.737806 1_556
Au0 Ge2 3.033437 1_556
Au0 Yb1 3.033681 1_566
Au0 Yb1 3.033681 1_656
Au0 Yb2 3.083182 1_655
Au0 Yb2 3.083182 1_565
Au0 Yb0 3.131600 1_555
Au0 Yb2 3.278544 1_555
Au1 Ge1 2.534530 1_545
Au1 Ge1 2.534530 1_455
Au1 Ge0 2.600516 1_555
Au1 Au4 3.070002 1_555
Au1 Yb2 3.077453 1_555
Au1 Yb0 3.081294 1_545
Au1 Yb0 3.081294 1_455
Au1 Yb3 3.159097 1_545
Au1 Yb3 3.159097 1_455
Au1 Yb0 3.249759 1_555
Au2 Ge2 2.562760 1_565
Au2 Ge2 2.562760 1_655
Au2 Yb3 3.007591 1_555
Au2 Au3 3.015106 1_664
Au2 Yb2 3.102950 1_654
Au2 Yb2 3.102950 1_564
Au2 Yb1 3.124936 1_665
Au2 Yb1 3.155787 1_565
Au2 Yb1 3.155787 1_655
Au3 Ge1 2.558446 1_445
Au3 Yb0 3.004556 1_545
Au3 Yb0 3.004556 1_455
Au3 Yb2 3.028470 1_545
Au3 Yb2 3.028470 1_455
Au3 Yb2 3.153774 1_555
Au3 Yb1 3.486444 1_556
Au4 Ge2 2.556007 1_555
Au4 Ge0 2.556031 1_565
Au4 Ge0 2.556031 1_655
Au4 Yb3 2.996018 1_555
Au4 Yb3 3.106420 1_545
Au4 Yb3 3.106420 1_455
Au4 Yb1 3.191267 1_565
Au4 Yb1 3.191267 1_655
Au4 Yb0 3.239192 1_555
