# generated using pymatgen
data_Li4Si2NiO7
_symmetry_space_group_name_H-M   'P 1'
_cell_length_a   4.51027690
_cell_length_b   5.31647485
_cell_length_c   13.54270621
_cell_angle_alpha   81.02059892
_cell_angle_beta   89.96434856
_cell_angle_gamma   115.10873015
_symmetry_Int_Tables_number   1
_chemical_formula_structural   Li4Si2NiO7
_chemical_formula_sum   'Li8 Si4 Ni2 O14'
_cell_volume   289.63492811
_cell_formula_units_Z   2
loop_
 _symmetry_equiv_pos_site_id
 _symmetry_equiv_pos_as_xyz
  1  'x, y, z'
loop_
 _atom_site_type_symbol
 _atom_site_label
 _atom_site_symmetry_multiplicity
 _atom_site_fract_x
 _atom_site_fract_y
 _atom_site_fract_z
 _atom_site_occupancy
  Li  Li0  1  0.87569700  0.69923600  0.22019800  1
  Li  Li1  1  0.85800000  0.70112700  0.71622100  1
  Li  Li2  1  0.29444500  0.56631400  0.07201100  1
  Li  Li3  1  0.29072400  0.57757600  0.57354400  1
  Li  Li4  1  0.72494000  0.42690900  0.42713300  1
  Li  Li5  1  0.70938800  0.41529700  0.92550400  1
  Li  Li6  1  0.17276000  0.29383400  0.27901700  1
  Li  Li7  1  0.15303300  0.29153700  0.78291100  1
  Si  Si0  1  0.42384600  0.84694500  0.35547900  1
  Si  Si1  1  0.40439900  0.84664800  0.85481700  1
  Si  Si2  1  0.57328100  0.14632200  0.14356200  1
  Si  Si3  1  0.55402600  0.14614000  0.64431400  1
  Ni  Ni0  1  0.01017900  0.01855800  0.49602700  1
  Ni  Ni1  1  0.98783900  0.97411500  0.00316200  1
  O  O0  1  0.23769900  0.89238800  0.11417900  1
  O  O1  1  0.22203600  0.89463800  0.61059300  1
  O  O2  1  0.60995900  0.73785600  0.44500300  1
  O  O3  1  0.58993300  0.73230100  0.94296900  1
  O  O4  1  0.09965200  0.58452400  0.32945600  1
  O  O5  1  0.07910200  0.58970700  0.82701500  1
  O  O6  1  0.51193000  0.40889700  0.16963600  1
  O  O7  1  0.48585900  0.40320200  0.67208300  1
  O  O8  1  0.86845300  0.25527700  0.05388900  1
  O  O9  1  0.85444900  0.26070400  0.55612100  1
  O  O10  1  0.34209100  0.10084700  0.38492400  1
  O  O11  1  0.32321300  0.09784900  0.88842900  1
  O  O12  1  0.69096700  0.99672800  0.24949600  1
  O  O13  1  0.67123500  0.99648400  0.74949200  1
loop_
_geom_bond_atom_site_label_1
_geom_bond_atom_site_label_2
_geom_bond_distance
_geom_bond_site_symmetry_2
Li0 O6 1.930134 1_555
Li0 O4 1.955651 1_655
Li0 O0 1.973754 1_655
Li0 O12 2.160313 1_555
Li1 O7 1.929733 1_555
Li1 O5 1.955111 1_655
Li1 O1 1.976026 1_655
Li1 O13 2.172845 1_555
Li2 O6 1.939973 1_555
Li2 O8 1.979175 1_455
Li2 O0 2.020462 1_555
Li2 O3 2.031386 1_554
Li3 O7 1.929404 1_555
Li3 O1 1.973869 1_555
Li3 O9 2.019159 1_455
Li3 O2 2.078987 1_555
Li4 O4 1.938453 1_655
Li4 O2 1.978054 1_555
Li4 O10 2.020803 1_555
Li4 O9 2.032471 1_555
Li5 O5 1.928309 1_655
Li5 O11 1.976115 1_555
Li5 O3 2.020271 1_555
Li5 O8 2.078287 1_556
Li6 O4 1.930145 1_555
Li6 O6 1.956725 1_555
Li6 O10 1.974872 1_555
Li6 O12 2.159180 1_445
Li7 O5 1.929962 1_555
Li7 O7 1.954820 1_555
Li7 O11 1.975943 1_555
Li7 O13 2.171986 1_445
Ni0 O9 1.976539 1_455
Ni0 O10 1.982996 1_555
Ni0 O1 1.992828 1_545
Ni0 O2 2.000060 1_445
Ni1 O3 1.977115 1_554
Ni1 O0 1.983166 1_655
Ni1 O11 1.992135 1_664
Ni1 O8 1.999867 1_565
O0 Si2 1.645027 1_565
O1 Si3 1.652515 1_565
O2 Si0 1.644943 1_555
O3 Si1 1.643608 1_555
O4 Si0 1.622198 1_555
O5 Si1 1.618863 1_555
O6 Si2 1.622214 1_555
O7 Si3 1.618831 1_555
O8 Si2 1.645189 1_555
O9 Si3 1.644383 1_555
O10 Si0 1.645412 1_545
O11 Si1 1.652101 1_545
O12 Si0 1.724113 1_555
O12 Si2 1.724960 1_565
O13 Si3 1.716258 1_565
O13 Si1 1.716714 1_555
