# generated using pymatgen
data_KAgPSe3
_symmetry_space_group_name_H-M   'P 1'
_cell_length_a   11.41990200
_cell_length_b   8.65968900
_cell_length_c   21.32191158
_cell_angle_alpha   86.80816074
_cell_angle_beta   90.00000000
_cell_angle_gamma   90.00000000
_symmetry_Int_Tables_number   1
_chemical_formula_structural   KAgPSe3
_chemical_formula_sum   'K12 Ag12 P12 Se36'
_cell_volume   2105.31249615
_cell_formula_units_Z   12
loop_
 _symmetry_equiv_pos_site_id
 _symmetry_equiv_pos_as_xyz
  1  'x, y, z'
loop_
 _atom_site_type_symbol
 _atom_site_label
 _atom_site_symmetry_multiplicity
 _atom_site_fract_x
 _atom_site_fract_y
 _atom_site_fract_z
 _atom_site_occupancy
  K  K0  1  0.84414200  0.81227300  0.70951800  1
  K  K1  1  0.34414200  0.18772700  0.79048200  1
  K  K2  1  0.15585800  0.18772700  0.29048200  1
  K  K3  1  0.65585800  0.81227300  0.20951800  1
  K  K4  1  0.70793900  0.46811500  0.00926300  1
  K  K5  1  0.20793900  0.53188500  0.49073700  1
  K  K6  1  0.29206100  0.53188500  0.99073700  1
  K  K7  1  0.79206100  0.46811500  0.50926300  1
  K  K8  1  0.52514700  0.13648400  0.60007900  1
  K  K9  1  0.02514700  0.86351600  0.89992100  1
  K  K10  1  0.47485300  0.86351600  0.39992100  1
  K  K11  1  0.97485300  0.13648400  0.10007900  1
  Ag  Ag0  1  0.65706300  0.45998900  0.77797000  1
  Ag  Ag1  1  0.15706300  0.54001100  0.72203000  1
  Ag  Ag2  1  0.34293700  0.54001100  0.22203000  1
  Ag  Ag3  1  0.84293700  0.45998900  0.27797000  1
  Ag  Ag4  1  0.53815500  0.81856000  0.86371300  1
  Ag  Ag5  1  0.03815500  0.18144000  0.63628700  1
  Ag  Ag6  1  0.46184500  0.18144000  0.13628700  1
  Ag  Ag7  1  0.96184500  0.81856000  0.36371300  1
  Ag  Ag8  1  0.71920200  0.13133700  0.89731300  1
  Ag  Ag9  1  0.21920200  0.86866300  0.60268700  1
  Ag  Ag10  1  0.28079800  0.86866300  0.10268700  1
  Ag  Ag11  1  0.78079800  0.13133700  0.39731300  1
  P  P0  1  0.95805700  0.40389600  0.86015600  1
  P  P1  1  0.45805700  0.59610400  0.63984400  1
  P  P2  1  0.04194300  0.59610400  0.13984400  1
  P  P3  1  0.54194300  0.40389600  0.36015600  1
  P  P4  1  0.92669400  0.27166700  0.76988900  1
  P  P5  1  0.42669400  0.72833300  0.73011100  1
  P  P6  1  0.07330600  0.72833300  0.23011100  1
  P  P7  1  0.57330600  0.27166700  0.26988900  1
  P  P8  1  0.57559200  0.92932700  0.02561000  1
  P  P9  1  0.07559200  0.07067300  0.47439000  1
  P  P10  1  0.42440800  0.07067300  0.97439000  1
  P  P11  1  0.92440800  0.92932700  0.52561000  1
  Se  Se0  1  0.92440900  0.23549900  0.94055100  1
  Se  Se1  1  0.42440900  0.76450100  0.55944900  1
  Se  Se2  1  0.07559100  0.76450100  0.05944900  1
  Se  Se3  1  0.57559100  0.23549900  0.44055100  1
  Se  Se4  1  0.74679000  0.17385000  0.77279100  1
  Se  Se5  1  0.24679000  0.82615000  0.72720900  1
  Se  Se6  1  0.25321000  0.82615000  0.22720900  1
  Se  Se7  1  0.75321000  0.17385000  0.27279100  1
  Se  Se8  1  0.44556200  0.55260600  0.81080300  1
  Se  Se9  1  0.94556200  0.44739400  0.68919700  1
  Se  Se10  1  0.55443800  0.44739400  0.18919700  1
  Se  Se11  1  0.05443800  0.55260600  0.31080300  1
  Se  Se12  1  0.14137200  0.48358100  0.85345900  1
  Se  Se13  1  0.64137200  0.51641900  0.64654100  1
  Se  Se14  1  0.85862800  0.51641900  0.14654100  1
  Se  Se15  1  0.35862800  0.48358100  0.35345900  1
  Se  Se16  1  0.69578100  0.84396300  0.95196100  1
  Se  Se17  1  0.19578100  0.15603700  0.54803900  1
  Se  Se18  1  0.30421900  0.15603700  0.04803900  1
  Se  Se19  1  0.80421900  0.84396300  0.45196100  1
  Se  Se20  1  0.48921200  0.73085400  0.07723600  1
  Se  Se21  1  0.98921200  0.26914600  0.42276400  1
  Se  Se22  1  0.51078800  0.26914600  0.92276400  1
  Se  Se23  1  0.01078800  0.73085400  0.57723600  1
  Se  Se24  1  0.82383100  0.59060100  0.85400600  1
  Se  Se25  1  0.32383100  0.40939900  0.64599400  1
  Se  Se26  1  0.17616900  0.40939900  0.14599400  1
  Se  Se27  1  0.67616900  0.59060100  0.35400600  1
  Se  Se28  1  0.66652800  0.08612900  0.08709800  1
  Se  Se29  1  0.16652800  0.91387100  0.41290200  1
  Se  Se30  1  0.33347200  0.91387100  0.91290200  1
  Se  Se31  1  0.83347200  0.08612900  0.58709800  1
  Se  Se32  1  0.06013200  0.08765200  0.76456300  1
  Se  Se33  1  0.56013200  0.91234800  0.73543700  1
  Se  Se34  1  0.93986800  0.91234800  0.23543700  1
  Se  Se35  1  0.43986800  0.08765200  0.26456300  1
loop_
_geom_bond_atom_site_label_1
_geom_bond_atom_site_label_2
_geom_bond_distance
_geom_bond_site_symmetry_2
K0 Se33 3.410161 1_555
K0 Se9 3.415491 1_555
K0 Se31 3.429703 1_565
K0 Se23 3.506499 1_655
K0 Se24 3.545593 1_555
K0 Se4 3.651100 1_565
K0 Se32 3.668785 1_665
K0 Se13 3.756609 1_555
K1 Se32 3.410161 1_555
K1 Se8 3.415491 1_555
K1 Se30 3.429703 1_545
K1 Se22 3.506499 1_555
K1 Se25 3.545593 1_555
K1 Se5 3.651100 1_545
K1 Se33 3.668785 1_545
K1 Se12 3.756609 1_555
K2 Se35 3.410161 1_555
K2 Se11 3.415491 1_555
K2 Se29 3.429703 1_545
K2 Se21 3.506499 1_455
K2 Se26 3.545593 1_555
K2 Se6 3.651100 1_545
K2 Se34 3.668785 1_445
K2 Se15 3.756609 1_555
K3 Se34 3.410161 1_555
K3 Se10 3.415491 1_555
K3 Se28 3.429703 1_565
K3 Se20 3.506499 1_555
K3 Se27 3.545593 1_555
K3 Se7 3.651100 1_565
K3 Se35 3.668785 1_565
K3 Se14 3.756609 1_555
K4 Se16 3.415035 1_554
K4 Se22 3.434119 1_554
K4 Se14 3.440953 1_555
K4 Se0 3.555830 1_554
K4 Se28 3.648099 1_555
K4 Se24 3.666637 1_554
K4 Se20 3.726075 1_555
K5 Se17 3.415035 1_555
K5 Se23 3.434119 1_555
K5 Se15 3.440953 1_555
K5 Se1 3.555830 1_555
K5 Se29 3.648099 1_555
K5 Se25 3.666637 1_555
K5 Se21 3.726075 1_455
K6 Se18 3.415035 1_556
K6 Se20 3.434119 1_556
K6 Se12 3.440953 1_555
K6 Se2 3.555830 1_556
K6 Se30 3.648099 1_555
K6 Se26 3.666637 1_556
K6 Se22 3.726075 1_555
K7 Se19 3.415035 1_555
K7 Se21 3.434119 1_555
K7 Se13 3.440953 1_555
K7 Se3 3.555830 1_555
K7 Se31 3.648099 1_555
K7 Se27 3.666637 1_555
K7 Se23 3.726075 1_655
K8 Se33 3.410663 1_545
K8 Se25 3.476635 1_555
K8 Se3 3.508857 1_555
K8 Se31 3.560608 1_555
K8 Se1 3.572283 1_545
K8 Se13 3.732414 1_555
K9 Se32 3.410663 1_565
K9 Se24 3.476635 1_455
K9 Se2 3.508857 1_556
K9 Se30 3.560608 1_555
K9 Se0 3.572283 1_465
K9 Se12 3.732414 1_555
K10 Se35 3.410663 1_565
K10 Se27 3.476635 1_555
K10 Se1 3.508857 1_555
K10 Se29 3.560608 1_555
K10 Se3 3.572283 1_565
K10 Se15 3.732414 1_555
K11 Se34 3.410663 1_545
K11 Se26 3.476635 1_655
K11 Se0 3.508857 1_554
K11 Se28 3.560608 1_555
K11 Se2 3.572283 1_645
K11 Se14 3.732414 1_555
Ag0 Se8 2.651348 1_555
Ag0 Se4 2.689328 1_555
Ag0 Se24 2.781890 1_555
Ag0 Se13 2.823366 1_555
Ag1 Se9 2.651348 1_455
Ag1 Se5 2.689328 1_555
Ag1 Se25 2.781890 1_555
Ag1 Se12 2.823366 1_555
Ag2 Se10 2.651348 1_555
Ag2 Se6 2.689328 1_555
Ag2 Se26 2.781890 1_555
Ag2 Se15 2.823366 1_555
Ag3 Se11 2.651348 1_655
Ag3 Se7 2.689328 1_555
Ag3 Se27 2.781890 1_555
Ag3 Se14 2.823366 1_555
Ag4 Se16 2.622066 1_555
Ag4 Se30 2.709489 1_555
Ag4 Se33 2.820632 1_555
Ag4 Se8 2.825652 1_555
Ag5 Se17 2.622066 1_555
Ag5 Se31 2.709489 1_455
Ag5 Se32 2.820632 1_555
Ag5 Se9 2.825652 1_455
Ag6 Se18 2.622066 1_555
Ag6 Se28 2.709489 1_555
Ag6 Se35 2.820632 1_555
Ag6 Se10 2.825652 1_555
Ag7 Se19 2.622066 1_555
Ag7 Se29 2.709489 1_655
Ag7 Se34 2.820632 1_555
Ag7 Se11 2.825652 1_655
Ag8 Se4 2.678660 1_555
Ag8 Se0 2.692190 1_555
Ag8 Se16 2.701722 1_545
Ag8 Se22 2.730473 1_555
Ag9 Se5 2.678660 1_555
Ag9 Se1 2.692190 1_555
Ag9 Se17 2.701722 1_565
Ag9 Se23 2.730473 1_555
Ag10 Se6 2.678660 1_555
Ag10 Se2 2.692190 1_555
Ag10 Se18 2.701722 1_565
Ag10 Se20 2.730473 1_555
Ag11 Se7 2.678660 1_555
Ag11 Se3 2.692190 1_555
Ag11 Se19 2.701722 1_545
Ag11 Se21 2.730473 1_555
P0 Se12 2.206370 1_655
P0 Se0 2.221311 1_555
P0 Se24 2.226494 1_555
P0 P4 2.321465 1_555
P1 Se13 2.206370 1_555
P1 Se1 2.221311 1_555
P1 Se25 2.226494 1_555
P1 P5 2.321465 1_555
P2 Se14 2.206370 1_455
P2 Se2 2.221311 1_555
P2 Se26 2.226494 1_555
P2 P6 2.321465 1_555
P3 Se15 2.206370 1_555
P3 Se3 2.221311 1_555
P3 Se27 2.226494 1_555
P3 P7 2.321465 1_555
P4 Se32 2.212339 1_655
P4 Se4 2.221806 1_555
P4 Se9 2.242926 1_555
P5 Se33 2.212339 1_555
P5 Se5 2.221806 1_555
P5 Se8 2.242926 1_555
P6 Se34 2.212339 1_455
P6 Se6 2.221806 1_555
P6 Se11 2.242926 1_555
P7 Se35 2.212339 1_555
P7 Se7 2.221806 1_555
P7 Se10 2.242926 1_555
P8 Se28 2.199838 1_565
P8 Se20 2.219926 1_555
P8 Se16 2.241778 1_554
P9 Se29 2.199838 1_545
P9 Se21 2.219926 1_455
P9 Se17 2.241778 1_555
P10 Se30 2.199838 1_545
P10 Se22 2.219926 1_555
P10 Se18 2.241778 1_556
P10 P8 2.350079 1_546
P11 Se31 2.199838 1_565
P11 Se23 2.219926 1_655
P11 Se19 2.241778 1_555
P11 P9 2.350079 1_665
