# generated using pymatgen
data_Y4Ti6Bi2O21
_symmetry_space_group_name_H-M   'P 1'
_cell_length_a   16.21891203
_cell_length_b   16.21891203
_cell_length_c   7.23303392
_cell_angle_alpha   77.36739002
_cell_angle_beta   77.36739002
_cell_angle_gamma   25.93784440
_symmetry_Int_Tables_number   1
_chemical_formula_structural   Y4Ti6Bi2O21
_chemical_formula_sum   'Y8 Ti12 Bi4 O42'
_cell_volume   810.99239112
_cell_formula_units_Z   2
loop_
 _symmetry_equiv_pos_site_id
 _symmetry_equiv_pos_as_xyz
  1  'x, y, z'
loop_
 _atom_site_type_symbol
 _atom_site_label
 _atom_site_symmetry_multiplicity
 _atom_site_fract_x
 _atom_site_fract_y
 _atom_site_fract_z
 _atom_site_occupancy
  Y  Y0  1  0.16683700  0.16683700  0.33308800  1
  Y  Y1  1  0.83316300  0.83316300  0.66691200  1
  Y  Y2  1  0.16501100  0.66786900  0.33342800  1
  Y  Y3  1  0.83498900  0.33213100  0.66657200  1
  Y  Y4  1  0.50000000  0.00000000  0.00000000  1
  Y  Y5  1  0.00000000  0.50000000  0.00000000  1
  Y  Y6  1  0.66786900  0.16501100  0.33342800  1
  Y  Y7  1  0.33213100  0.83498900  0.66657200  1
  Ti  Ti0  1  0.33319100  0.33319100  0.66641600  1
  Ti  Ti1  1  0.00000000  0.00000000  0.00000000  1
  Ti  Ti2  1  0.66680900  0.66680900  0.33358400  1
  Ti  Ti3  1  0.33340700  0.33340700  0.16669200  1
  Ti  Ti4  1  0.00000000  0.00000000  0.50000000  1
  Ti  Ti5  1  0.66659300  0.66659300  0.83330800  1
  Ti  Ti6  1  0.66701900  0.16558100  0.83197000  1
  Ti  Ti7  1  0.33298100  0.83441900  0.16803000  1
  Ti  Ti8  1  0.00000000  0.50000000  0.50000000  1
  Ti  Ti9  1  0.16558100  0.66701900  0.83197000  1
  Ti  Ti10  1  0.83441900  0.33298100  0.16803000  1
  Ti  Ti11  1  0.50000000  0.00000000  0.50000000  1
  Bi  Bi0  1  0.50000000  0.50000000  0.50000000  1
  Bi  Bi1  1  0.16678200  0.16678200  0.83324100  1
  Bi  Bi2  1  0.83321800  0.83321800  0.16675900  1
  Bi  Bi3  1  0.50000000  0.50000000  0.00000000  1
  O  O0  1  0.79020200  0.79020200  0.95130600  1
  O  O1  1  0.45518500  0.45518500  0.29495500  1
  O  O2  1  0.12383300  0.12383300  0.61714200  1
  O  O3  1  0.54481500  0.54481500  0.70504500  1
  O  O4  1  0.20979800  0.20979800  0.04869400  1
  O  O5  1  0.87616700  0.87616700  0.38285800  1
  O  O6  1  0.02636800  0.02636800  0.72362300  1
  O  O7  1  0.69300300  0.69300300  0.05734200  1
  O  O8  1  0.35937100  0.35937100  0.39099400  1
  O  O9  1  0.89058100  0.89058100  0.85638000  1
  O  O10  1  0.55838500  0.55838500  0.19194000  1
  O  O11  1  0.22409400  0.22409400  0.52312500  1
  O  O12  1  0.75722600  0.15838500  0.99587200  1
  O  O13  1  0.42108500  0.82927200  0.32918000  1
  O  O14  1  0.08790900  0.49553600  0.66235800  1
  O  O15  1  0.15870300  0.75704800  0.58835800  1
  O  O16  1  0.82595300  0.42330000  0.92110700  1
  O  O17  1  0.49256800  0.08979000  0.25468600  1
  O  O18  1  0.75704800  0.15870300  0.58835800  1
  O  O19  1  0.42330000  0.82595300  0.92110700  1
  O  O20  1  0.08979000  0.49256800  0.25468600  1
  O  O21  1  0.15838500  0.75722600  0.99587200  1
  O  O22  1  0.82927200  0.42108500  0.32918000  1
  O  O23  1  0.49553600  0.08790900  0.66235800  1
  O  O24  1  0.30699700  0.30699700  0.94265800  1
  O  O25  1  0.97363200  0.97363200  0.27637700  1
  O  O26  1  0.64062900  0.64062900  0.60900600  1
  O  O27  1  0.44161500  0.44161500  0.80806000  1
  O  O28  1  0.10941900  0.10941900  0.14362000  1
  O  O29  1  0.77590600  0.77590600  0.47687500  1
  O  O30  1  0.57891500  0.17072800  0.67082000  1
  O  O31  1  0.24277400  0.84161500  0.00412800  1
  O  O32  1  0.91209100  0.50446400  0.33764200  1
  O  O33  1  0.17404700  0.57670000  0.07889300  1
  O  O34  1  0.84129700  0.24295200  0.41164200  1
  O  O35  1  0.50743200  0.91021000  0.74531400  1
  O  O36  1  0.57670000  0.17404700  0.07889300  1
  O  O37  1  0.24295200  0.84129700  0.41164200  1
  O  O38  1  0.91021000  0.50743200  0.74531400  1
  O  O39  1  0.17072800  0.57891500  0.67082000  1
  O  O40  1  0.84161500  0.24277400  0.00412800  1
  O  O41  1  0.50446400  0.91209100  0.33764200  1
loop_
_geom_bond_atom_site_label_1
_geom_bond_atom_site_label_2
_geom_bond_distance
_geom_bond_site_symmetry_2
Bi0 O3 2.269231 1_555
Bi0 O1 2.269231 1_555
Bi0 O10 2.554457 1_555
Bi0 O27 2.554457 1_555
Bi0 O37 2.557899 1_555
Bi0 O34 2.557899 1_555
Bi0 O18 2.557899 1_555
Bi0 O15 2.557899 1_555
Bi1 O4 2.286609 1_556
Bi1 O2 2.288838 1_555
Bi1 O11 2.547455 1_555
Bi1 O28 2.549655 1_556
Bi1 O35 2.552749 1_545
Bi1 O38 2.552749 1_455
Bi1 O16 2.554792 1_455
Bi1 O19 2.554792 1_545
Bi2 O0 2.286609 1_554
Bi2 O5 2.288838 1_555
Bi2 O29 2.547455 1_555
Bi2 O9 2.549655 1_554
Bi2 O17 2.552749 1_565
Bi2 O20 2.552749 1_655
Bi2 O36 2.554792 1_565
Bi2 O33 2.554792 1_655
Bi3 O3 2.280738 1_554
Bi3 O1 2.280738 1_555
Bi3 O27 2.546289 1_554
Bi3 O10 2.546289 1_555
Bi3 O40 2.559083 1_555
Bi3 O21 2.559083 1_554
Bi3 O31 2.559083 1_555
Bi3 O12 2.559083 1_554
O0 Y1 2.195846 1_555
O0 Y4 2.202337 1_566
O0 Y5 2.202337 1_656
O1 Y2 2.185094 1_555
O1 Y6 2.185094 1_555
O2 Y0 2.194440 1_555
O2 Y3 2.195136 1_455
O2 Y7 2.195136 1_545
O3 Y3 2.185094 1_555
O3 Y7 2.185094 1_555
O4 Y0 2.195846 1_555
O4 Y5 2.202337 1_555
O4 Y4 2.202337 1_555
O5 Y1 2.194440 1_555
O5 Y6 2.195136 1_565
O5 Y2 2.195136 1_655
O6 Ti4 1.978905 1_555
O6 Ti1 1.985707 1_556
O6 Y7 2.525518 1_545
O6 Y3 2.525518 1_455
O7 Ti5 1.982419 1_554
O7 Ti2 1.983756 1_555
O7 Y4 2.528820 1_565
O7 Y5 2.528820 1_655
O8 Ti3 1.975700 1_555
O8 Ti0 1.978254 1_555
O8 Y6 2.537857 1_555
O8 Y2 2.537857 1_555
O9 Ti6 1.980118 1_565
O9 Ti9 1.980118 1_655
O9 Y1 2.507738 1_555
O10 Ti10 1.984797 1_555
O10 Ti7 1.984797 1_555
O11 Ti8 1.987282 1_555
O11 Ti11 1.987282 1_555
O11 Y0 2.506355 1_555
O12 Ti1 1.982387 1_656
O12 Ti6 1.987616 1_555
O12 Y6 2.521915 1_556
O13 Ti7 1.969498 1_555
O13 Ti2 1.989734 1_555
O13 Y7 2.522670 1_555
O13 Y0 2.528215 1_565
O14 Ti8 1.981591 1_555
O14 Ti0 1.984399 1_555
O14 Y5 2.524081 1_556
O14 Y1 2.526955 1_455
O15 Ti9 1.979146 1_555
O15 Ti4 1.984173 1_565
O15 Y2 2.514044 1_555
O16 Ti5 1.983177 1_555
O16 Ti10 1.988888 1_556
O16 Y3 2.506070 1_555
O17 Ti11 1.982750 1_555
O17 Ti3 1.988697 1_555
O17 Y4 2.507873 1_555
O18 Ti6 1.979146 1_555
O18 Ti4 1.984173 1_655
O18 Y6 2.514044 1_555
O19 Ti5 1.983177 1_555
O19 Ti7 1.988888 1_556
O19 Y7 2.506070 1_555
O20 Ti8 1.982750 1_555
O20 Ti3 1.988697 1_555
O20 Y5 2.507873 1_555
O21 Ti1 1.982387 1_566
O21 Ti9 1.987616 1_555
O21 Y2 2.521915 1_556
O22 Ti10 1.969498 1_555
O22 Ti2 1.989734 1_555
O22 Y3 2.522670 1_555
O22 Y0 2.528215 1_655
O23 Ti11 1.981591 1_555
O23 Ti0 1.984399 1_555
O23 Y4 2.524081 1_556
O23 Y1 2.526955 1_545
O24 Ti3 1.982419 1_556
O24 Ti0 1.983756 1_555
O24 Y4 2.528820 1_556
O24 Y5 2.528820 1_556
O25 Ti4 1.978905 1_665
O25 Ti1 1.985707 1_665
O25 Y6 2.525518 1_565
O25 Y2 2.525518 1_655
O26 Ti5 1.975700 1_555
O26 Ti2 1.978254 1_555
O26 Y7 2.537857 1_555
O26 Y3 2.537857 1_555
O27 Ti6 1.984797 1_555
O27 Ti9 1.984797 1_555
O28 Ti7 1.980118 1_545
O28 Ti10 1.980118 1_455
O28 Y0 2.507738 1_555
O29 Ti11 1.987282 1_565
O29 Ti8 1.987282 1_655
O29 Y1 2.506355 1_555
O30 Ti6 1.969498 1_555
O30 Ti0 1.989734 1_555
O30 Y6 2.522670 1_555
O30 Y1 2.528215 1_545
O31 Ti1 1.982387 1_565
O31 Ti7 1.987616 1_555
O31 Y7 2.521915 1_554
O32 Ti8 1.981591 1_655
O32 Ti2 1.984399 1_555
O32 Y5 2.524081 1_655
O32 Y0 2.526955 1_655
O33 Ti3 1.983177 1_555
O33 Ti9 1.988888 1_554
O33 Y2 2.506070 1_555
O34 Ti10 1.979146 1_555
O34 Ti4 1.984173 1_655
O34 Y3 2.514044 1_555
O35 Ti11 1.982750 1_565
O35 Ti5 1.988697 1_555
O35 Y4 2.507873 1_566
O36 Ti3 1.983177 1_555
O36 Ti6 1.988888 1_554
O36 Y6 2.506070 1_555
O37 Ti7 1.979146 1_555
O37 Ti4 1.984173 1_565
O37 Y7 2.514044 1_555
O38 Ti8 1.982750 1_655
O38 Ti5 1.988697 1_555
O38 Y5 2.507873 1_656
O39 Ti9 1.969498 1_555
O39 Ti0 1.989734 1_555
O39 Y2 2.522670 1_555
O39 Y1 2.528215 1_455
O40 Ti1 1.982387 1_655
O40 Ti10 1.987616 1_555
O40 Y3 2.521915 1_554
O41 Ti11 1.981591 1_565
O41 Ti2 1.984399 1_555
O41 Y4 2.524081 1_565
O41 Y0 2.526955 1_565
