# generated using pymatgen
data_Cs4SiO4
_symmetry_space_group_name_H-M   'P 1'
_cell_length_a   18.84306129
_cell_length_b   7.01500474
_cell_length_c   7.00628796
_cell_angle_alpha   67.33661609
_cell_angle_beta   90.00000000
_cell_angle_gamma   90.00000000
_symmetry_Int_Tables_number   1
_chemical_formula_structural   Cs4SiO4
_chemical_formula_sum   'Cs16 Si4 O16'
_cell_volume   854.60949617
_cell_formula_units_Z   4
loop_
 _symmetry_equiv_pos_site_id
 _symmetry_equiv_pos_as_xyz
  1  'x, y, z'
loop_
 _atom_site_type_symbol
 _atom_site_label
 _atom_site_symmetry_multiplicity
 _atom_site_fract_x
 _atom_site_fract_y
 _atom_site_fract_z
 _atom_site_occupancy
  Cs  Cs0  1  0.80959695  0.85523416  0.70229023  1
  Cs  Cs1  1  0.01049526  0.79289562  0.78850905  1
  Cs  Cs2  1  0.20526213  0.65197596  0.82638446  1
  Cs  Cs3  1  0.42801475  0.66396793  0.81684487  1
  Cs  Cs4  1  0.69040305  0.85523416  0.20229023  1
  Cs  Cs5  1  0.48950474  0.79289562  0.28850905  1
  Cs  Cs6  1  0.29473787  0.65197596  0.32638446  1
  Cs  Cs7  1  0.07198525  0.66396793  0.31684487  1
  Cs  Cs8  1  0.92801475  0.33603207  0.68315513  1
  Cs  Cs9  1  0.70526213  0.34802404  0.67361554  1
  Cs  Cs10  1  0.51049526  0.20710438  0.71149095  1
  Cs  Cs11  1  0.30959695  0.14476584  0.79770977  1
  Cs  Cs12  1  0.57198525  0.33603207  0.18315513  1
  Cs  Cs13  1  0.79473787  0.34802404  0.17361554  1
  Cs  Cs14  1  0.98950474  0.20710438  0.21149095  1
  Cs  Cs15  1  0.19040305  0.14476584  0.29770977  1
  Si  Si0  1  0.62220068  0.75448893  0.76384816  1
  Si  Si1  1  0.87779932  0.75448893  0.26384816  1
  Si  Si2  1  0.12220068  0.24551107  0.73615184  1
  Si  Si3  1  0.37779932  0.24551107  0.23615184  1
  O  O0  1  0.65100367  0.97664600  0.59213742  1
  O  O1  1  0.56605637  0.79219769  0.92799353  1
  O  O2  1  0.84899633  0.97664600  0.09213742  1
  O  O3  1  0.93394363  0.79219769  0.42799353  1
  O  O4  1  0.68919997  0.61422022  0.90426627  1
  O  O5  1  0.58257595  0.61239696  0.65254420  1
  O  O6  1  0.08257595  0.38760304  0.84745580  1
  O  O7  1  0.81080003  0.61422022  0.40426627  1
  O  O8  1  0.18919997  0.38577978  0.59573373  1
  O  O9  1  0.91742405  0.61239696  0.15254420  1
  O  O10  1  0.41742405  0.38760304  0.34745580  1
  O  O11  1  0.31080003  0.38577978  0.09573373  1
  O  O12  1  0.06605637  0.20780231  0.57200647  1
  O  O13  1  0.15100367  0.02335400  0.90786258  1
  O  O14  1  0.43394363  0.20780231  0.07200647  1
  O  O15  1  0.34899633  0.02335400  0.40786258  1
loop_
_geom_bond_atom_site_label_1
_geom_bond_atom_site_label_2
_geom_bond_distance
_geom_bond_site_symmetry_2
Cs0 O4 2.857276 1_555
Cs0 O0 3.121683 1_555
Cs0 O7 3.152697 1_555
Cs0 O3 3.167610 1_555
Cs0 O2 3.244959 1_556
Cs0 O9 3.583346 1_556
Cs1 O12 2.909658 1_565
Cs1 O3 2.910380 1_455
Cs1 O9 2.948791 1_456
Cs1 O6 3.032134 1_555
Cs1 O13 3.371132 1_565
Cs2 O11 2.878787 1_556
Cs2 O8 2.918160 1_555
Cs2 O6 2.931655 1_555
Cs2 O13 3.050317 1_565
Cs3 O1 2.953182 1_555
Cs3 O14 3.006642 1_556
Cs3 O11 3.092907 1_556
Cs3 O5 3.202973 1_555
Cs3 O15 3.349116 1_565
Cs3 O10 3.473445 1_556
Cs4 O7 2.857276 1_555
Cs4 O2 3.121683 1_555
Cs4 O4 3.152697 1_554
Cs4 O1 3.167610 1_554
Cs4 O0 3.244959 1_555
Cs4 O5 3.583346 1_555
Cs5 O14 2.909658 1_565
Cs5 O1 2.910380 1_554
Cs5 O5 2.948791 1_555
Cs5 O10 3.032134 1_555
Cs5 O15 3.371132 1_565
Cs6 O8 2.878787 1_555
Cs6 O11 2.918160 1_555
Cs6 O10 2.931655 1_555
Cs6 O15 3.050317 1_565
Cs7 O3 2.953182 1_455
Cs7 O12 3.006642 1_555
Cs7 O8 3.092907 1_555
Cs7 O9 3.202973 1_455
Cs7 O13 3.349116 1_564
Cs7 O6 3.473445 1_555
Cs8 O12 2.953182 1_655
Cs8 O3 3.006642 1_555
Cs8 O7 3.092907 1_555
Cs8 O6 3.202973 1_655
Cs8 O2 3.349116 1_546
Cs8 O9 3.473445 1_555
Cs9 O7 2.878787 1_555
Cs9 O4 2.918160 1_555
Cs9 O5 2.931655 1_555
Cs9 O0 3.050317 1_545
Cs10 O1 2.909658 1_545
Cs10 O14 2.910380 1_556
Cs10 O10 2.948791 1_555
Cs10 O5 3.032134 1_555
Cs10 O0 3.371132 1_545
Cs11 O8 2.857276 1_555
Cs11 O13 3.121683 1_555
Cs11 O11 3.152697 1_556
Cs11 O14 3.167610 1_556
Cs11 O15 3.244959 1_555
Cs11 O10 3.583346 1_555
Cs12 O14 2.953182 1_555
Cs12 O1 3.006642 1_554
Cs12 O4 3.092907 1_554
Cs12 O10 3.202973 1_555
Cs12 O0 3.349116 1_545
Cs12 O5 3.473445 1_554
Cs13 O4 2.878787 1_554
Cs13 O7 2.918160 1_555
Cs13 O9 2.931655 1_555
Cs13 O2 3.050317 1_545
Cs14 O3 2.909658 1_545
Cs14 O12 2.910380 1_655
Cs14 O6 2.948791 1_654
Cs14 O9 3.032134 1_555
Cs14 O2 3.371132 1_545
Cs15 O11 2.857276 1_555
Cs15 O15 3.121683 1_555
Cs15 O8 3.152697 1_555
Cs15 O12 3.167610 1_555
Cs15 O13 3.244959 1_554
Cs15 O6 3.583346 1_554
O0 Si0 1.650991 1_555
O1 Si0 1.657181 1_555
O2 Si1 1.650991 1_555
O3 Si1 1.657181 1_555
O4 Si0 1.668511 1_555
O5 Si0 1.660784 1_555
O6 Si2 1.660784 1_555
O7 Si1 1.668511 1_555
O8 Si2 1.668511 1_555
O9 Si1 1.660784 1_555
O10 Si3 1.660784 1_555
O11 Si3 1.668511 1_555
O12 Si2 1.657181 1_555
O13 Si2 1.650991 1_555
O14 Si3 1.657181 1_555
O15 Si3 1.650991 1_555
