# generated using pymatgen
data_MgIO12
_symmetry_space_group_name_H-M   'P 1'
_cell_length_a   10.02271700
_cell_length_b   7.00837500
_cell_length_c   8.91130853
_cell_angle_alpha   57.96596792
_cell_angle_beta   90.00000000
_cell_angle_gamma   90.00000000
_symmetry_Int_Tables_number   1
_chemical_formula_structural   MgIO12
_chemical_formula_sum   'Mg2 I2 O24'
_cell_volume   530.64425431
_cell_formula_units_Z   2
loop_
 _symmetry_equiv_pos_site_id
 _symmetry_equiv_pos_as_xyz
  1  'x, y, z'
loop_
 _atom_site_type_symbol
 _atom_site_label
 _atom_site_symmetry_multiplicity
 _atom_site_fract_x
 _atom_site_fract_y
 _atom_site_fract_z
 _atom_site_occupancy
  Mg  Mg0  1  0.57150100  0.56141800  0.34225300  1
  Mg  Mg1  1  0.42849900  0.56141800  0.84225300  1
  I  I0  1  0.70235100  0.53788600  0.73364600  1
  I  I1  1  0.29764900  0.53788600  0.23364600  1
  O  O0  1  0.85191100  0.73103900  0.61450000  1
  O  O1  1  0.14808900  0.73103900  0.11450000  1
  O  O2  1  0.85435300  0.34007000  0.81213400  1
  O  O3  1  0.14564700  0.34007000  0.31213400  1
  O  O4  1  0.58338800  0.32774300  0.89938800  1
  O  O5  1  0.41661200  0.32774300  0.39938800  1
  O  O6  1  0.57836200  0.76165400  0.67834900  1
  O  O7  1  0.42163800  0.76165400  0.17834900  1
  O  O8  1  0.67031700  0.49196800  0.55196400  1
  O  O9  1  0.32968300  0.49196800  0.05196400  1
  O  O10  1  0.79692900  0.57630800  0.90665800  1
  O  O11  1  0.20307100  0.57630800  0.40665800  1
  O  O12  1  0.86369900  0.50699600  0.31799000  1
  O  O13  1  0.13630100  0.50699600  0.81799000  1
  O  O14  1  0.85157700  0.71535400  0.20756400  1
  O  O15  1  0.14842300  0.71535400  0.70756400  1
  O  O16  1  0.62499300  0.39207600  0.19847600  1
  O  O17  1  0.37500700  0.39207600  0.69847600  1
  O  O18  1  0.57244200  0.05641800  0.25899700  1
  O  O19  1  0.42755800  0.05641800  0.75899700  1
  O  O20  1  0.65205700  0.17436400  0.28679900  1
  O  O21  1  0.34794300  0.17436400  0.78679900  1
  O  O22  1  0.72935500  0.79860500  0.17538200  1
  O  O23  1  0.27064500  0.79860500  0.67538200  1
loop_
_geom_bond_atom_site_label_1
_geom_bond_atom_site_label_2
_geom_bond_distance
_geom_bond_site_symmetry_2
Mg0 O8 1.935270 1_555
Mg0 O7 2.045574 1_555
Mg0 O5 2.113445 1_555
Mg0 O22 2.203482 1_555
Mg0 O16 2.225007 1_555
Mg1 O9 1.935270 1_556
Mg1 O6 2.045574 1_555
Mg1 O4 2.113445 1_555
Mg1 O23 2.203482 1_555
Mg1 O17 2.225007 1_555
I0 O8 1.838643 1_555
I0 O6 1.851147 1_555
I0 O4 1.861332 1_555
I0 O0 1.918866 1_555
I0 O2 1.924454 1_555
I0 O10 1.946415 1_555
I1 O9 1.838643 1_555
I1 O7 1.851147 1_555
I1 O5 1.861332 1_555
I1 O1 1.918866 1_555
I1 O3 1.924454 1_555
I1 O11 1.946415 1_555
O12 O14 1.261369 1_555
O13 O15 1.261369 1_555
O14 O22 1.321277 1_555
O15 O23 1.321277 1_555
O16 O20 1.321801 1_555
O17 O21 1.321801 1_555
O18 O20 1.264381 1_555
O19 O21 1.264381 1_555
