# generated using pymatgen
data_NdP2H2CO6
_symmetry_space_group_name_H-M   'P 1'
_cell_length_a   5.36925564
_cell_length_b   8.18715469
_cell_length_c   8.29069297
_cell_angle_alpha   113.55069309
_cell_angle_beta   100.38029761
_cell_angle_gamma   106.91158271
_symmetry_Int_Tables_number   1
_chemical_formula_structural   NdP2H2CO6
_chemical_formula_sum   'Nd2 P4 H4 C2 O12'
_cell_volume   300.83819691
_cell_formula_units_Z   2
loop_
 _symmetry_equiv_pos_site_id
 _symmetry_equiv_pos_as_xyz
  1  'x, y, z'
loop_
 _atom_site_type_symbol
 _atom_site_label
 _atom_site_symmetry_multiplicity
 _atom_site_fract_x
 _atom_site_fract_y
 _atom_site_fract_z
 _atom_site_occupancy
  Nd  Nd0  1  0.27101100  0.77101100  0.54202200  1
  Nd  Nd1  1  0.72898900  0.22898900  0.45797800  1
  P  P0  1  0.24038200  0.36686000  0.22330000  1
  P  P1  1  0.01708200  0.14356000  0.77670000  1
  P  P2  1  0.75961800  0.63314000  0.77670000  1
  P  P3  1  0.98291800  0.85644000  0.22330000  1
  H  H0  1  0.84364000  0.31866100  0.00000000  1
  H  H1  1  0.15636000  0.68133800  0.00000000  1
  H  H2  1  0.82777400  0.09834700  0.00000000  1
  H  H3  1  0.17222600  0.90165300  0.00000000  1
  C  C0  1  0.96208000  0.22892800  0.00000000  1
  C  C1  1  0.03792000  0.77107200  0.00000000  1
  O  O0  1  0.09753700  0.39439900  0.37387700  1
  O  O1  1  0.72365900  0.02052100  0.62612300  1
  O  O2  1  0.90246300  0.60560100  0.62612300  1
  O  O3  1  0.27634100  0.97947900  0.37387700  1
  O  O4  1  0.38678000  0.58061500  0.26301900  1
  O  O5  1  0.12376100  0.31759600  0.73698100  1
  O  O6  1  0.61322000  0.41938500  0.73698100  1
  O  O7  1  0.87623900  0.68240400  0.26301900  1
  O  O8  1  0.43284900  0.26439400  0.23453800  1
  O  O9  1  0.19831200  0.02985600  0.76546300  1
  O  O10  1  0.56715100  0.73560600  0.76546300  1
  O  O11  1  0.80168800  0.97014400  0.23453800  1
loop_
_geom_bond_atom_site_label_1
_geom_bond_atom_site_label_2
_geom_bond_distance
_geom_bond_site_symmetry_2
Nd0 O9 2.383220 1_565
Nd0 O10 2.383226 1_555
Nd0 O1 2.434860 1_565
Nd0 O2 2.434867 1_455
Nd0 O7 2.523344 1_455
Nd0 O4 2.523344 1_555
Nd0 O0 2.597009 1_555
Nd0 O3 2.597016 1_555
Nd1 O11 2.383217 1_545
Nd1 O8 2.383220 1_555
Nd1 O3 2.434860 1_545
Nd1 O0 2.434867 1_655
Nd1 O5 2.523344 1_655
Nd1 O6 2.523344 1_555
Nd1 O2 2.597009 1_555
Nd1 O1 2.597016 1_555
C0 H2 1.102015 1_555
C0 H0 1.102699 1_555
C0 P0 1.812778 1_655
C0 P1 1.812778 1_654
C1 H3 1.102015 1_555
C1 H1 1.102706 1_555
C1 P2 1.812778 1_454
C1 P3 1.812778 1_455
O0 P0 1.555079 1_555
O1 P1 1.555082 1_655
O2 P2 1.555079 1_555
O3 P3 1.555082 1_455
O4 P0 1.560399 1_555
O5 P1 1.560399 1_555
O6 P2 1.560399 1_555
O7 P3 1.560399 1_555
O8 P0 1.520691 1_555
O9 P1 1.520696 1_555
O10 P2 1.520690 1_555
O11 P3 1.520696 1_555
