# generated using pymatgen
data_NaCoP2HO7
_symmetry_space_group_name_H-M   'P 1'
_cell_length_a   7.36695547
_cell_length_b   8.98225076
_cell_length_c   9.46957967
_cell_angle_alpha   105.97845625
_cell_angle_beta   109.39413809
_cell_angle_gamma   67.47321178
_symmetry_Int_Tables_number   1
_chemical_formula_structural   NaCoP2HO7
_chemical_formula_sum   'Na4 Co4 P8 H4 O28'
_cell_volume   538.02487082
_cell_formula_units_Z   4
loop_
 _symmetry_equiv_pos_site_id
 _symmetry_equiv_pos_as_xyz
  1  'x, y, z'
loop_
 _atom_site_type_symbol
 _atom_site_label
 _atom_site_symmetry_multiplicity
 _atom_site_fract_x
 _atom_site_fract_y
 _atom_site_fract_z
 _atom_site_occupancy
  Na  Na0  1  0.31737900  0.93581700  0.55326700  1
  Na  Na1  1  0.81738900  0.43560200  0.05330000  1
  Na  Na2  1  0.20703000  0.55739600  0.89531400  1
  Na  Na3  1  0.70708500  0.05732800  0.39482600  1
  Co  Co0  1  0.74228500  0.87421400  0.02360800  1
  Co  Co1  1  0.76130200  0.62238100  0.47378600  1
  Co  Co2  1  0.24155000  0.37470700  0.52364800  1
  Co  Co3  1  0.26209400  0.12162900  0.97385100  1
  P  P0  1  0.04693300  0.09089700  0.20927500  1
  P  P1  1  0.54707600  0.59096100  0.70917300  1
  P  P2  1  0.45277900  0.41019000  0.29041700  1
  P  P3  1  0.95282700  0.91019700  0.79042400  1
  P  P4  1  0.54947900  0.16753700  0.81101100  1
  P  P5  1  0.04934400  0.66775800  0.31113900  1
  P  P6  1  0.94964400  0.33201900  0.68819400  1
  P  P7  1  0.44967300  0.83222900  0.18825200  1
  H  H0  1  0.02722400  0.17262200  0.45956800  1
  H  H1  1  0.52745300  0.67276200  0.95964000  1
  H  H2  1  0.47256800  0.33086200  0.04385000  1
  H  H3  1  0.97236000  0.83110800  0.54387800  1
  O  O0  1  0.10977500  0.17210200  0.38102600  1
  O  O1  1  0.60983700  0.67239100  0.88092600  1
  O  O2  1  0.39397600  0.32632800  0.11884700  1
  O  O3  1  0.89381200  0.82650900  0.61878700  1
  O  O4  1  0.53916400  0.33032800  0.92093200  1
  O  O5  1  0.03932500  0.83050200  0.42098500  1
  O  O6  1  0.96019000  0.17149200  0.57453500  1
  O  O7  1  0.46043800  0.67178300  0.07444500  1
  O  O8  1  0.50874800  0.04629900  0.87646500  1
  O  O9  1  0.00847200  0.54657900  0.37661600  1
  O  O10  1  0.99669500  0.45391200  0.62788400  1
  O  O11  1  0.49665400  0.95442800  0.12828100  1
  O  O12  1  0.34653300  0.56182000  0.67509900  1
  O  O13  1  0.84675600  0.06125400  0.17561100  1
  O  O14  1  0.15440800  0.93786800  0.82792800  1
  O  O15  1  0.65425100  0.43789000  0.32781000  1
  O  O16  1  0.41860400  0.18335000  0.64953900  1
  O  O17  1  0.91855500  0.68329300  0.14955100  1
  O  O18  1  0.07492500  0.31476900  0.85084300  1
  O  O19  1  0.57493300  0.81492800  0.35090300  1
  O  O20  1  0.78428100  0.08906500  0.80187300  1
  O  O21  1  0.28401700  0.58908800  0.30178300  1
  O  O22  1  0.71445900  0.41104400  0.69576100  1
  O  O23  1  0.21454400  0.91093700  0.19571000  1
  O  O24  1  0.56610200  0.68855800  0.60989500  1
  O  O25  1  0.06562700  0.18852300  0.10990400  1
  O  O26  1  0.93330400  0.80996700  0.88725900  1
  O  O27  1  0.43294200  0.30997900  0.38718200  1
loop_
_geom_bond_atom_site_label_1
_geom_bond_atom_site_label_2
_geom_bond_distance
_geom_bond_site_symmetry_2
Na0 O24 2.337206 1_555
Na0 O5 2.405872 1_555
Na0 O16 2.456363 1_565
Na0 O0 2.695525 1_565
Na0 O6 2.700940 1_465
Na0 O19 2.853397 1_555
Na0 O8 2.978861 1_565
Na1 O25 2.334774 1_655
Na1 O4 2.406810 1_554
Na1 O17 2.457434 1_555
Na1 O1 2.699634 1_554
Na1 O7 2.701282 1_555
Na1 O18 2.854022 1_654
Na1 O9 2.980216 1_655
Na2 O26 2.388883 1_455
Na2 O7 2.413554 1_556
Na2 O4 2.501997 1_555
Na2 O18 2.592618 1_555
Na2 O10 2.622951 1_455
Na2 O12 2.628053 1_555
Na3 O27 2.390737 1_555
Na3 O6 2.412737 1_555
Na3 O5 2.501463 1_645
Na3 O19 2.591935 1_545
Na3 O11 2.615961 1_545
Na3 O13 2.618377 1_555
Co0 O26 2.038299 1_554
Co0 O13 2.100094 1_565
Co0 O17 2.107288 1_555
Co0 O11 2.138954 1_555
Co0 O8 2.201527 1_564
Co0 O1 2.279309 1_554
Co1 O24 2.058322 1_555
Co1 O15 2.072470 1_555
Co1 O9 2.108028 1_655
Co1 O19 2.111354 1_555
Co1 O10 2.225060 1_555
Co1 O3 2.301166 1_555
Co2 O27 2.040676 1_555
Co2 O12 2.100486 1_555
Co2 O16 2.110550 1_555
Co2 O10 2.132330 1_455
Co2 O9 2.198806 1_555
Co2 O0 2.282121 1_555
Co3 O25 2.064375 1_556
Co3 O14 2.069499 1_545
Co3 O8 2.106509 1_555
Co3 O18 2.116769 1_555
Co3 O11 2.218665 1_546
Co3 O2 2.302780 1_556
H0 O0 1.104244 1_555
H0 O6 1.340226 1_455
H0 Na0 2.485235 1_545
H1 O1 1.105213 1_555
H1 O7 1.338194 1_556
H1 Na1 2.486449 1_556
H2 O2 1.071599 1_555
H2 O4 1.403551 1_554
H3 O3 1.070887 1_555
H3 O5 1.404792 1_655
O0 P0 1.580229 1_555
O1 P1 1.580756 1_555
O2 P2 1.582257 1_555
O3 P3 1.582482 1_555
O4 P4 1.535188 1_555
O5 P5 1.534764 1_555
O6 P6 1.535842 1_555
O7 P7 1.535836 1_555
O8 P4 1.551008 1_555
O9 P5 1.551300 1_555
O10 P6 1.552926 1_555
O11 P7 1.553023 1_555
O12 P1 1.512789 1_555
O13 P0 1.512998 1_655
O14 P3 1.509039 1_455
O15 P2 1.508529 1_555
O16 P4 1.524259 1_555
O17 P5 1.524676 1_655
O18 P6 1.525068 1_455
O19 P7 1.525115 1_555
O20 P3 1.612366 1_545
O20 P4 1.621124 1_555
O21 P2 1.613166 1_555
O21 P5 1.620868 1_555
O22 P1 1.616296 1_555
O22 P6 1.619564 1_555
O23 P0 1.617326 1_565
O23 P7 1.618854 1_555
O24 P1 1.519003 1_555
O25 P0 1.518652 1_555
O26 P3 1.520983 1_555
O27 P2 1.521527 1_555
