# generated using pymatgen
data_MnPH15C3N(ClO)3
_symmetry_space_group_name_H-M   'P 1'
_cell_length_a   6.54307195
_cell_length_b   8.74554127
_cell_length_c   11.09060600
_cell_angle_alpha   90.00000000
_cell_angle_beta   90.00000000
_cell_angle_gamma   99.66336295
_symmetry_Int_Tables_number   1
_chemical_formula_structural   MnPH15C3N(ClO)3
_chemical_formula_sum   'Mn2 P2 H30 C6 N2 Cl6 O6'
_cell_volume   625.62965940
_cell_formula_units_Z   2
loop_
 _symmetry_equiv_pos_site_id
 _symmetry_equiv_pos_as_xyz
  1  'x, y, z'
loop_
 _atom_site_type_symbol
 _atom_site_label
 _atom_site_symmetry_multiplicity
 _atom_site_fract_x
 _atom_site_fract_y
 _atom_site_fract_z
 _atom_site_occupancy
  Mn  Mn0  1  0.00683200  0.86643900  0.99858200  1
  Mn  Mn1  1  0.99316800  0.13356100  0.49858200  1
  P  P0  1  0.26961400  0.24648200  0.00072800  1
  P  P1  1  0.73038600  0.75351800  0.50072800  1
  H  H0  1  0.02310300  0.47125400  0.12432200  1
  H  H1  1  0.97689700  0.52874600  0.62432200  1
  H  H2  1  0.12050300  0.45763600  0.26528500  1
  H  H3  1  0.87949700  0.54236400  0.76528500  1
  H  H4  1  0.99819900  0.29914700  0.19997200  1
  H  H5  1  0.00180100  0.70085300  0.69997200  1
  H  H6  1  0.63591100  0.88049900  0.86174100  1
  H  H7  1  0.36408900  0.11950100  0.36174100  1
  H  H8  1  0.80355100  0.00188800  0.79856900  1
  H  H9  1  0.19644900  0.99811200  0.29856900  1
  H  H10  1  0.60942300  0.85567800  0.12541900  1
  H  H11  1  0.39057700  0.14432200  0.62541900  1
  H  H12  1  0.77032800  0.98722300  0.18501400  1
  H  H13  1  0.22967300  0.01277700  0.68501400  1
  H  H14  1  0.21895900  0.29800800  0.79174500  1
  H  H15  1  0.78104100  0.70199200  0.29174500  1
  H  H16  1  0.37627800  0.45845100  0.86858500  1
  H  H17  1  0.62372200  0.54154900  0.36858500  1
  H  H18  1  0.10113900  0.42296400  0.88865800  1
  H  H19  1  0.89886100  0.57703600  0.38865800  1
  H  H20  1  0.54573500  0.11722600  0.06373900  1
  H  H21  1  0.45426500  0.88277400  0.56373900  1
  H  H22  1  0.63615100  0.29675900  0.98519800  1
  H  H23  1  0.36384900  0.70324100  0.48519800  1
  H  H24  1  0.52459400  0.12611400  0.90358100  1
  H  H25  1  0.47540600  0.87388600  0.40358100  1
  H  H26  1  0.38186800  0.32350700  0.20270000  1
  H  H27  1  0.61813200  0.67649300  0.70270000  1
  H  H28  1  0.39259600  0.48914200  0.10634600  1
  H  H29  1  0.60740400  0.51085800  0.60634600  1
  C  C0  1  0.30021200  0.37716000  0.13205700  1
  C  C1  1  0.69978800  0.62284000  0.63205700  1
  C  C2  1  0.23819000  0.36800200  0.87433700  1
  C  C3  1  0.76181000  0.63199800  0.37433700  1
  C  C4  1  0.51884100  0.19092200  0.98760900  1
  C  C5  1  0.48115900  0.80907800  0.48760900  1
  N  N0  1  0.09778200  0.40326000  0.18221700  1
  N  N1  1  0.90221800  0.59674000  0.68221700  1
  Cl  Cl0  1  0.25200900  0.81184300  0.16545700  1
  Cl  Cl1  1  0.74799100  0.18815700  0.66545700  1
  Cl  Cl2  1  0.83446700  0.57727700  0.98270600  1
  Cl  Cl3  1  0.16553300  0.42272300  0.48270600  1
  Cl  Cl4  1  0.25882300  0.83897600  0.81965000  1
  Cl  Cl5  1  0.74117700  0.16102400  0.31965000  1
  O  O0  1  0.08952900  0.11600700  0.02071800  1
  O  O1  1  0.91047100  0.88399300  0.52071800  1
  O  O2  1  0.78571400  0.90566700  0.84717000  1
  O  O3  1  0.21428600  0.09433300  0.34717000  1
  O  O4  1  0.75875000  0.89652300  0.13040700  1
  O  O5  1  0.24125000  0.10347700  0.63040700  1
loop_
_geom_bond_atom_site_label_1
_geom_bond_atom_site_label_2
_geom_bond_distance
_geom_bond_site_symmetry_2
Mn0 O0 2.172636 1_566
Mn0 O4 2.232697 1_456
Mn0 O2 2.279785 1_455
Mn1 O1 2.172636 1_545
Mn1 O5 2.232697 1_655
Mn1 O3 2.279785 1_655
H0 N0 1.049852 1_555
H1 N1 1.049852 1_555
H2 N0 1.035982 1_555
H3 N1 1.035982 1_555
H4 N0 1.045567 1_655
H5 N1 1.045567 1_455
H6 O2 0.981259 1_555
H7 O3 0.981259 1_555
H8 O2 0.989604 1_545
H9 O3 0.989604 1_565
H10 O4 0.983936 1_555
H11 O5 0.983936 1_555
H12 O4 0.990730 1_555
H13 O5 0.990730 1_555
C0 H26 1.097097 1_555
C0 H28 1.098669 1_555
C0 N0 1.489098 1_555
C0 P0 1.841418 1_555
C1 H27 1.097097 1_555
C1 H29 1.098669 1_555
C1 N1 1.489098 1_555
C1 P1 1.841418 1_555
C2 H14 1.097147 1_555
C2 H18 1.097776 1_555
C2 H16 1.098271 1_555
C2 P0 1.791647 1_556
C3 H15 1.097147 1_555
C3 H19 1.097776 1_555
C3 H17 1.098271 1_555
C3 P1 1.791647 1_555
C4 H20 1.094223 1_556
C4 H24 1.094668 1_555
C4 H22 1.099136 1_555
C4 P0 1.783956 1_556
C5 H21 1.094223 1_555
C5 H25 1.094668 1_555
C5 H23 1.099136 1_555
C5 P1 1.783956 1_555
Cl0 Mn0 2.546346 1_554
Cl1 Mn1 2.546346 1_555
Cl2 Mn0 2.596279 1_655
Cl3 Mn1 2.596279 1_455
Cl4 Mn0 2.616726 1_555
Cl5 Mn1 2.616726 1_555
O0 P0 1.512689 1_555
O1 P1 1.512689 1_555
