# generated using pymatgen
data_K4BaV6O18
_symmetry_space_group_name_H-M   'P 1'
_cell_length_a   10.26752767
_cell_length_b   10.26752767
_cell_length_c   10.26752721
_cell_angle_alpha   84.93982103
_cell_angle_beta   84.93982103
_cell_angle_gamma   84.93982531
_symmetry_Int_Tables_number   1
_chemical_formula_structural   K4BaV6O18
_chemical_formula_sum   'K8 Ba2 V12 O36'
_cell_volume   1070.47001774
_cell_formula_units_Z   2
loop_
 _symmetry_equiv_pos_site_id
 _symmetry_equiv_pos_as_xyz
  1  'x, y, z'
loop_
 _atom_site_type_symbol
 _atom_site_label
 _atom_site_symmetry_multiplicity
 _atom_site_fract_x
 _atom_site_fract_y
 _atom_site_fract_z
 _atom_site_occupancy
  K  K0  1  0.50014800  0.50014800  0.50014800  1
  K  K1  1  0.00014800  0.00014800  0.00014800  1
  K  K2  1  0.92285500  0.08497800  0.50413300  1
  K  K3  1  0.50413300  0.92285500  0.08497800  1
  K  K4  1  0.08497800  0.50413300  0.92285500  1
  K  K5  1  0.00413300  0.58497800  0.42285500  1
  K  K6  1  0.42285500  0.00413300  0.58497800  1
  K  K7  1  0.58497800  0.42285500  0.00413300  1
  Ba  Ba0  1  0.25535800  0.25535800  0.25535800  1
  Ba  Ba1  1  0.75535800  0.75535800  0.75535800  1
  V  V0  1  0.79412000  0.66492200  0.10240300  1
  V  V1  1  0.10240300  0.79412000  0.66492200  1
  V  V2  1  0.66492200  0.10240300  0.79412000  1
  V  V3  1  0.60240300  0.16492200  0.29412000  1
  V  V4  1  0.29412000  0.60240300  0.16492200  1
  V  V5  1  0.16492200  0.29412000  0.60240300  1
  V  V6  1  0.70621400  0.82959400  0.39836900  1
  V  V7  1  0.39836900  0.70621400  0.82959400  1
  V  V8  1  0.82959400  0.39836900  0.70621400  1
  V  V9  1  0.89836900  0.32959400  0.20621400  1
  V  V10  1  0.20621400  0.89836900  0.32959400  1
  V  V11  1  0.32959400  0.20621400  0.89836900  1
  O  O0  1  0.99354900  0.33764200  0.64795800  1
  O  O1  1  0.64795800  0.99354900  0.33764200  1
  O  O2  1  0.33764200  0.64795800  0.99354900  1
  O  O3  1  0.14795800  0.83764200  0.49354900  1
  O  O4  1  0.49354900  0.14795800  0.83764200  1
  O  O5  1  0.83764200  0.49354900  0.14795800  1
  O  O6  1  0.18082300  0.15716800  0.52206000  1
  O  O7  1  0.52206000  0.18082300  0.15716800  1
  O  O8  1  0.15716800  0.52206000  0.18082300  1
  O  O9  1  0.02206000  0.65716800  0.68082300  1
  O  O10  1  0.68082300  0.02206000  0.65716800  1
  O  O11  1  0.65716800  0.68082300  0.02206000  1
  O  O12  1  0.76179300  0.74213000  0.25502500  1
  O  O13  1  0.25502500  0.76179300  0.74213000  1
  O  O14  1  0.74213000  0.25502500  0.76179300  1
  O  O15  1  0.75502500  0.24213000  0.26179200  1
  O  O16  1  0.26179300  0.75502500  0.24213000  1
  O  O17  1  0.24213000  0.26179300  0.75502500  1
  O  O18  1  0.91448500  0.72863100  0.00189600  1
  O  O19  1  0.00189600  0.91448500  0.72863100  1
  O  O20  1  0.72863100  0.00189600  0.91448500  1
  O  O21  1  0.50189600  0.22863100  0.41448500  1
  O  O22  1  0.41448500  0.50189600  0.22863100  1
  O  O23  1  0.22863100  0.41448500  0.50189600  1
  O  O24  1  0.99057200  0.32817200  0.33410200  1
  O  O25  1  0.33410200  0.99057200  0.32817200  1
  O  O26  1  0.32817200  0.33410200  0.99057200  1
  O  O27  1  0.83410200  0.82817200  0.49057200  1
  O  O28  1  0.49057200  0.83410200  0.82817200  1
  O  O29  1  0.82817200  0.49057200  0.83410200  1
  O  O30  1  0.58384200  0.76191600  0.49094000  1
  O  O31  1  0.49094000  0.58384200  0.76191600  1
  O  O32  1  0.76191600  0.49094000  0.58384200  1
  O  O33  1  0.99094000  0.26191600  0.08384200  1
  O  O34  1  0.08384200  0.99094000  0.26191600  1
  O  O35  1  0.26191600  0.08384200  0.99094000  1
loop_
_geom_bond_atom_site_label_1
_geom_bond_atom_site_label_2
_geom_bond_distance
_geom_bond_site_symmetry_2
K0 O31 2.884345 1_555
K0 O30 2.884345 1_555
K0 O32 2.884345 1_555
K0 O22 2.994450 1_555
K0 O23 2.994450 1_555
K0 O21 2.994451 1_555
K1 O34 2.884345 1_545
K1 O35 2.884345 1_554
K1 O33 2.884345 1_455
K1 O19 2.994450 1_544
K1 O18 2.994450 1_445
K1 O20 2.994451 1_454
K2 O6 2.838177 1_655
K2 O27 2.883286 1_545
K2 O19 2.898932 1_645
K2 O10 2.911559 1_555
K2 O24 3.014862 1_555
K2 O34 3.044073 1_645
K2 O0 3.261088 1_555
K2 O3 3.282054 1_645
K2 O15 3.364816 1_555
K3 O7 2.838177 1_565
K3 O28 2.883286 1_554
K3 O20 2.898932 1_564
K3 O11 2.911560 1_555
K3 O25 3.014862 1_555
K3 O35 3.044073 1_564
K3 O1 3.261088 1_555
K3 O4 3.282053 1_564
K3 O16 3.364808 1_555
K4 O8 2.838177 1_556
K4 O29 2.883286 1_455
K4 O18 2.898932 1_456
K4 O9 2.911559 1_555
K4 O26 3.014862 1_555
K4 O33 3.044073 1_456
K4 O2 3.261088 1_555
K4 O5 3.282053 1_456
K4 O17 3.364808 1_555
K5 O9 2.838177 1_555
K5 O24 2.883286 1_455
K5 O23 2.898932 1_555
K5 O8 2.911559 1_555
K5 O27 3.014862 1_455
K5 O32 3.044073 1_455
K5 O3 3.261088 1_555
K5 O0 3.282053 1_455
K5 O12 3.364808 1_455
K6 O10 2.838177 1_555
K6 O25 2.883286 1_545
K6 O21 2.898932 1_555
K6 O6 2.911560 1_555
K6 O28 3.014862 1_545
K6 O30 3.044073 1_545
K6 O4 3.261088 1_555
K6 O1 3.282053 1_545
K6 O13 3.364808 1_545
K7 O11 2.838177 1_555
K7 O26 2.883286 1_554
K7 O22 2.898932 1_555
K7 O7 2.911559 1_555
K7 O29 3.014862 1_554
K7 O31 3.044073 1_554
K7 O5 3.261088 1_555
K7 O2 3.282054 1_554
K7 O14 3.364808 1_554
Ba0 O26 2.822102 1_554
Ba0 O24 2.822102 1_455
Ba0 O25 2.822102 1_545
Ba0 O6 2.894851 1_555
Ba0 O7 2.894851 1_555
Ba0 O8 2.894851 1_555
Ba0 O22 3.111325 1_555
Ba0 O23 3.111325 1_555
Ba0 O21 3.111325 1_555
Ba0 O34 3.356611 1_545
Ba0 O35 3.356611 1_554
Ba0 O33 3.356611 1_455
Ba1 O27 2.822102 1_555
Ba1 O29 2.822102 1_555
Ba1 O28 2.822102 1_555
Ba1 O11 2.894851 1_556
Ba1 O10 2.894851 1_565
Ba1 O9 2.894851 1_655
Ba1 O19 3.111325 1_655
Ba1 O18 3.111325 1_556
Ba1 O20 3.111325 1_565
Ba1 O31 3.356611 1_555
Ba1 O30 3.356611 1_555
Ba1 O32 3.356611 1_555
O0 V5 1.807639 1_655
O0 V8 1.812024 1_555
O1 V3 1.807639 1_565
O1 V6 1.812024 1_555
O2 V4 1.807639 1_556
O2 V7 1.812024 1_555
O3 V1 1.807639 1_555
O3 V10 1.812024 1_555
O4 V2 1.807639 1_555
O4 V11 1.812024 1_555
O5 V0 1.807639 1_555
O5 V9 1.812024 1_555
O6 V5 1.680715 1_555
O7 V3 1.680715 1_555
O8 V4 1.680715 1_555
O9 V1 1.680715 1_555
O10 V2 1.680715 1_555
O11 V0 1.680715 1_555
O12 V0 1.809756 1_555
O12 V6 1.814630 1_555
O13 V1 1.809756 1_555
O13 V7 1.814630 1_555
O14 V2 1.809756 1_555
O14 V8 1.814630 1_555
O15 V3 1.809756 1_555
O15 V9 1.814628 1_555
O16 V4 1.809756 1_555
O16 V10 1.814630 1_555
O17 V5 1.809756 1_555
O17 V11 1.814630 1_555
O18 V0 1.678901 1_555
O19 V1 1.678901 1_555
O20 V2 1.678901 1_555
O21 V3 1.678901 1_555
O22 V4 1.678901 1_555
O23 V5 1.678901 1_555
O24 V9 1.683488 1_555
O25 V10 1.683488 1_555
O26 V11 1.683488 1_555
O27 V6 1.683488 1_555
O28 V7 1.683488 1_555
O29 V8 1.683488 1_555
O30 V6 1.670867 1_555
O31 V7 1.670867 1_555
O32 V8 1.670867 1_555
O33 V9 1.670867 1_555
O34 V10 1.670867 1_555
O35 V11 1.670867 1_555
