# generated using pymatgen
data_Hf8Mg(N2O)4
_symmetry_space_group_name_H-M   'P 1'
_cell_length_a   5.50403997
_cell_length_b   5.43951048
_cell_length_c   11.55829086
_cell_angle_alpha   78.56694863
_cell_angle_beta   64.45967761
_cell_angle_gamma   59.32724991
_symmetry_Int_Tables_number   1
_chemical_formula_structural   Hf8Mg(N2O)4
_chemical_formula_sum   'Hf8 Mg1 N8 O4'
_cell_volume   268.44394493
_cell_formula_units_Z   1
loop_
 _symmetry_equiv_pos_site_id
 _symmetry_equiv_pos_as_xyz
  1  'x, y, z'
loop_
 _atom_site_type_symbol
 _atom_site_label
 _atom_site_symmetry_multiplicity
 _atom_site_fract_x
 _atom_site_fract_y
 _atom_site_fract_z
 _atom_site_occupancy
  Hf  Hf0  1  0.05180500  0.43697300  0.27970600  1
  Hf  Hf1  1  0.16003400  0.07534000  0.80250000  1
  Hf  Hf2  1  0.35408800  0.42649200  0.97851300  1
  Hf  Hf3  1  0.53636500  0.05579900  0.50729100  1
  Hf  Hf4  1  0.25165200  0.76715900  0.45239100  1
  Hf  Hf5  1  0.75928000  0.11781300  0.21778600  1
  Hf  Hf6  1  0.62661100  0.76254900  0.04985800  1
  Hf  Hf7  1  0.94111500  0.71281500  0.74648700  1
  Mg  Mg0  1  0.69191700  0.41801800  0.65683700  1
  N  N0  1  0.35590300  0.09953100  0.35963200  1
  N  N1  1  0.50109600  0.43077300  0.12103200  1
  N  N2  1  0.36006100  0.32759900  0.66427200  1
  N  N3  1  0.65251800  0.38911900  0.37715800  1
  N  N4  1  0.49552200  0.69020100  0.83979100  1
  N  N5  1  0.90246100  0.72670100  0.13038600  1
  N  N6  1  0.16456900  0.95850100  0.62982200  1
  N  N7  1  0.73902700  0.03555300  0.89325000  1
  O  O0  1  0.19389600  0.12362800  0.13008900  1
  O  O1  1  0.98485500  0.80117200  0.34882000  1
  O  O2  1  0.02778500  0.43857300  0.91278200  1
  O  O3  1  0.85416100  0.71274100  0.58311800  1
loop_
_geom_bond_atom_site_label_1
_geom_bond_atom_site_label_2
_geom_bond_distance
_geom_bond_site_symmetry_2
Hf0 O1 2.080217 1_455
Hf0 N3 2.121134 1_455
Hf0 N0 2.133218 1_555
Hf0 N5 2.227409 1_455
Hf0 O0 2.269274 1_555
Hf0 N1 2.347053 1_555
Hf1 N4 2.089461 1_545
Hf1 O2 2.188490 1_555
Hf1 N2 2.191567 1_555
Hf1 N6 2.198123 1_545
Hf1 N7 2.200557 1_455
Hf2 N4 2.094202 1_555
Hf2 N7 2.101381 1_555
Hf2 N1 2.133664 1_556
Hf2 O2 2.200785 1_555
Hf2 N5 2.271435 1_456
Hf2 O0 2.359355 1_556
Hf3 N2 2.121592 1_555
Hf3 O3 2.157134 1_545
Hf3 N6 2.186849 1_545
Hf3 O1 2.232820 1_545
Hf3 N0 2.239573 1_555
Hf3 N3 2.287073 1_555
Hf4 N3 2.068406 1_555
Hf4 N0 2.122939 1_565
Hf4 O1 2.185061 1_455
Hf4 O3 2.188627 1_455
Hf4 N6 2.237950 1_555
Hf5 N1 2.077366 1_555
Hf5 N5 2.150023 1_545
Hf5 N0 2.156156 1_555
Hf5 O0 2.173579 1_655
Hf5 N3 2.275080 1_555
Hf5 O1 2.281966 1_545
Hf6 N5 2.013481 1_555
Hf6 O0 2.105935 1_565
Hf6 N1 2.145773 1_555
Hf6 O2 2.147459 1_654
Hf6 N7 2.184184 1_564
Hf7 O3 2.138779 1_555
Hf7 N2 2.140340 1_655
Hf7 N6 2.156253 1_655
Hf7 N7 2.181284 1_565
Hf7 O2 2.252812 1_655
Hf7 N4 2.273262 1_555
Mg0 N2 2.085672 1_555
Mg0 O3 2.087227 1_555
Mg0 N4 2.338685 1_555
Mg0 N6 2.467312 1_645
