# generated using pymatgen
data_TaCr3(AgS4)2
_symmetry_space_group_name_H-M   'P 1'
_cell_length_a   11.84574100
_cell_length_b   3.47819000
_cell_length_c   12.24351000
_cell_angle_alpha   90.00000000
_cell_angle_beta   90.00000000
_cell_angle_gamma   90.00000000
_symmetry_Int_Tables_number   1
_chemical_formula_structural   TaCr3(AgS4)2
_chemical_formula_sum   'Ta2 Cr6 Ag4 S16'
_cell_volume   504.45388986
_cell_formula_units_Z   2
loop_
 _symmetry_equiv_pos_site_id
 _symmetry_equiv_pos_as_xyz
  1  'x, y, z'
loop_
 _atom_site_type_symbol
 _atom_site_label
 _atom_site_symmetry_multiplicity
 _atom_site_fract_x
 _atom_site_fract_y
 _atom_site_fract_z
 _atom_site_occupancy
  Ta  Ta0  1  0.15403200  0.25000000  0.71448600  1
  Ta  Ta1  1  0.65403200  0.25000000  0.78551400  1
  Cr  Cr0  1  0.10444000  0.25000000  0.08286200  1
  Cr  Cr1  1  0.89515400  0.75000000  0.93073400  1
  Cr  Cr2  1  0.39515400  0.75000000  0.56926600  1
  Cr  Cr3  1  0.60444000  0.25000000  0.41713800  1
  Cr  Cr4  1  0.84529600  0.75000000  0.29430000  1
  Cr  Cr5  1  0.34529600  0.75000000  0.20570000  1
  Ag  Ag0  1  0.12997800  0.75000000  0.39827700  1
  Ag  Ag1  1  0.85903900  0.25000000  0.57298500  1
  Ag  Ag2  1  0.35903900  0.25000000  0.92701500  1
  Ag  Ag3  1  0.62997800  0.75000000  0.10172300  1
  S  S0  1  0.04889200  0.75000000  0.62158800  1
  S  S1  1  0.95175600  0.25000000  0.37673800  1
  S  S2  1  0.45175600  0.25000000  0.12326200  1
  S  S3  1  0.54889200  0.75000000  0.87841200  1
  S  S4  1  0.03630100  0.25000000  0.88087800  1
  S  S5  1  0.96606200  0.75000000  0.11590400  1
  S  S6  1  0.46606200  0.75000000  0.38409600  1
  S  S7  1  0.53630100  0.25000000  0.61912200  1
  S  S8  1  0.21095500  0.25000000  0.24801700  1
  S  S9  1  0.79829700  0.75000000  0.74469800  1
  S  S10  1  0.29829700  0.75000000  0.75530200  1
  S  S11  1  0.71095500  0.25000000  0.25198300  1
  S  S12  1  0.23274900  0.75000000  0.04291400  1
  S  S13  1  0.76704900  0.25000000  0.96652300  1
  S  S14  1  0.26704900  0.25000000  0.53347700  1
  S  S15  1  0.73274900  0.75000000  0.45708600  1
loop_
_geom_bond_atom_site_label_1
_geom_bond_atom_site_label_2
_geom_bond_distance
_geom_bond_site_symmetry_2
Cr0 S12 2.360893 1_555
Cr0 S12 2.360893 1_545
Cr0 S8 2.383444 1_555
Cr0 S5 2.423851 1_455
Cr0 S5 2.423851 1_445
Cr0 S4 2.601384 1_554
Cr1 S13 2.349310 1_555
Cr1 S13 2.349310 1_565
Cr1 S5 2.417728 1_556
Cr1 S4 2.488495 1_655
Cr1 S4 2.488495 1_665
Cr1 S9 2.550386 1_555
Cr2 S14 2.349310 1_565
Cr2 S14 2.349310 1_555
Cr2 S6 2.417728 1_555
Cr2 S7 2.488495 1_555
Cr2 S7 2.488495 1_565
Cr2 S10 2.550386 1_555
Cr3 S15 2.360893 1_555
Cr3 S15 2.360893 1_545
Cr3 S11 2.383444 1_555
Cr3 S6 2.423851 1_555
Cr3 S6 2.423851 1_545
Cr3 S7 2.601384 1_555
Cr4 S1 2.373514 1_555
Cr4 S1 2.373514 1_565
Cr4 S15 2.397867 1_555
Cr4 S11 2.413575 1_555
Cr4 S11 2.413575 1_565
Cr4 S5 2.610979 1_555
Cr5 S2 2.373514 1_555
Cr5 S2 2.373514 1_565
Cr5 S12 2.397867 1_555
Cr5 S8 2.413575 1_555
Cr5 S8 2.413575 1_565
Cr5 S6 2.610979 1_555
Ag0 S8 2.707233 1_555
Ag0 S8 2.707233 1_565
Ag0 S1 2.747916 1_455
Ag0 S1 2.747916 1_465
Ag0 S0 2.897924 1_555
Ag0 S14 2.898443 1_565
Ag0 S14 2.898443 1_555
Ag1 S1 2.641871 1_555
Ag1 S15 2.697416 1_545
Ag1 S15 2.697416 1_555
Ag1 S9 2.821726 1_545
Ag1 S9 2.821726 1_555
Ag1 S0 2.904537 1_645
Ag1 S0 2.904537 1_655
Ag2 S2 2.641871 1_556
Ag2 S12 2.697416 1_556
Ag2 S12 2.697416 1_546
Ag2 S10 2.821726 1_555
Ag2 S10 2.821726 1_545
Ag2 S3 2.904537 1_545
Ag2 S3 2.904537 1_555
Ag3 S11 2.707233 1_555
Ag3 S11 2.707233 1_565
Ag3 S2 2.747916 1_555
Ag3 S2 2.747916 1_565
Ag3 S3 2.897924 1_554
Ag3 S13 2.898443 1_554
Ag3 S13 2.898443 1_564
S0 Ta0 2.422663 1_565
S0 Ta0 2.422663 1_555
S3 Ta1 2.422663 1_555
S3 Ta1 2.422663 1_565
S4 Ta0 2.468849 1_555
S7 Ta1 2.468849 1_555
S9 Ta1 2.488897 1_555
S9 Ta1 2.488897 1_565
S10 Ta0 2.488897 1_555
S10 Ta0 2.488897 1_565
S13 Ta1 2.589167 1_555
S14 Ta0 2.589167 1_555
