# generated using pymatgen
data_Mg2ClO3
_symmetry_space_group_name_H-M   'P 1'
_cell_length_a   6.51254600
_cell_length_b   7.47197400
_cell_length_c   8.58556200
_cell_angle_alpha   90.00000000
_cell_angle_beta   90.00000000
_cell_angle_gamma   90.00000000
_symmetry_Int_Tables_number   1
_chemical_formula_structural   Mg2ClO3
_chemical_formula_sum   'Mg8 Cl4 O12'
_cell_volume   417.78696391
_cell_formula_units_Z   4
loop_
 _symmetry_equiv_pos_site_id
 _symmetry_equiv_pos_as_xyz
  1  'x, y, z'
loop_
 _atom_site_type_symbol
 _atom_site_label
 _atom_site_symmetry_multiplicity
 _atom_site_fract_x
 _atom_site_fract_y
 _atom_site_fract_z
 _atom_site_occupancy
  Mg  Mg0  1  0.00000000  0.50000000  0.50000000  1
  Mg  Mg1  1  0.50000000  0.00000000  0.00000000  1
  Mg  Mg2  1  0.50000000  0.50000000  0.50000000  1
  Mg  Mg3  1  0.00000000  0.00000000  0.00000000  1
  Mg  Mg4  1  0.75000000  0.27656200  0.75022600  1
  Mg  Mg5  1  0.75000000  0.77656200  0.74977400  1
  Mg  Mg6  1  0.25000000  0.72343800  0.24977400  1
  Mg  Mg7  1  0.25000000  0.22343800  0.25022600  1
  Cl  Cl0  1  0.25000000  0.24350300  0.55883700  1
  Cl  Cl1  1  0.25000000  0.74350300  0.94116300  1
  Cl  Cl2  1  0.75000000  0.75649700  0.44116300  1
  Cl  Cl3  1  0.75000000  0.25649700  0.05883700  1
  O  O0  1  0.75000000  0.33583200  0.51069100  1
  O  O1  1  0.75000000  0.83583200  0.98930900  1
  O  O2  1  0.25000000  0.66416800  0.48930900  1
  O  O3  1  0.25000000  0.16416800  0.01069100  1
  O  O4  1  0.87177300  0.02814500  0.77308700  1
  O  O5  1  0.62822700  0.52814500  0.72691300  1
  O  O6  1  0.37177300  0.97185500  0.22691300  1
  O  O7  1  0.12822700  0.47185500  0.27308700  1
  O  O8  1  0.12822700  0.97185500  0.22691300  1
  O  O9  1  0.37177300  0.47185500  0.27308700  1
  O  O10  1  0.62822700  0.02814500  0.77308700  1
  O  O11  1  0.87177300  0.52814500  0.72691300  1
loop_
_geom_bond_atom_site_label_1
_geom_bond_atom_site_label_2
_geom_bond_distance
_geom_bond_site_symmetry_2
Mg0 O2 2.040575 1_555
Mg0 O0 2.040575 1_455
Mg0 O11 2.130019 1_455
Mg0 O7 2.130019 1_555
Mg1 O3 2.040575 1_555
Mg1 O1 2.040575 1_544
Mg1 O10 2.130019 1_554
Mg1 O6 2.130019 1_545
Mg2 O2 2.040575 1_555
Mg2 O0 2.040575 1_555
Mg2 O5 2.130019 1_555
Mg2 O9 2.130019 1_555
Mg3 O3 2.040575 1_555
Mg3 O1 2.040575 1_444
Mg3 O8 2.130019 1_545
Mg3 O4 2.130019 1_454
Mg4 O4 2.028005 1_555
Mg4 O10 2.028005 1_555
Mg4 O11 2.050054 1_555
Mg4 O5 2.050054 1_555
Mg4 O0 2.103686 1_555
Mg5 O11 2.028005 1_555
Mg5 O5 2.028005 1_555
Mg5 O4 2.050054 1_565
Mg5 O10 2.050054 1_565
Mg5 O1 2.103686 1_555
Mg6 O6 2.028005 1_555
Mg6 O8 2.028005 1_555
Mg6 O9 2.050054 1_555
Mg6 O7 2.050054 1_555
Mg6 O2 2.103686 1_555
Mg7 O9 2.028005 1_555
Mg7 O7 2.028005 1_555
Mg7 O6 2.050054 1_545
Mg7 O8 2.050054 1_545
Mg7 O3 2.103686 1_555
Cl0 Mg0 2.564981 1_555
Cl0 Mg2 2.564981 1_555
Cl0 Mg7 2.653837 1_555
Cl1 Mg1 2.564981 1_566
Cl1 Mg3 2.564981 1_566
Cl1 Mg6 2.653837 1_556
Cl2 Mg0 2.564981 1_655
Cl2 Mg2 2.564981 1_555
Cl2 Mg5 2.653837 1_555
Cl3 Mg1 2.564981 1_555
Cl3 Mg3 2.564981 1_655
Cl3 Mg4 2.653837 1_554
O6 O8 1.586105 1_555
O7 O9 1.586105 1_555
O10 O4 1.586105 1_555
O11 O5 1.586105 1_555
