# generated using pymatgen
data_BaCo2Sn4O11
_symmetry_space_group_name_H-M   'P 1'
_cell_length_a   6.18815797
_cell_length_b   6.18815797
_cell_length_c   14.28981312
_cell_angle_alpha   89.89667330
_cell_angle_beta   89.89667330
_cell_angle_gamma   120.41133919
_symmetry_Int_Tables_number   1
_chemical_formula_structural   BaCo2Sn4O11
_chemical_formula_sum   'Ba2 Co4 Sn8 O22'
_cell_volume   471.91308744
_cell_formula_units_Z   2
loop_
 _symmetry_equiv_pos_site_id
 _symmetry_equiv_pos_as_xyz
  1  'x, y, z'
loop_
 _atom_site_type_symbol
 _atom_site_label
 _atom_site_symmetry_multiplicity
 _atom_site_fract_x
 _atom_site_fract_y
 _atom_site_fract_z
 _atom_site_occupancy
  Ba  Ba0  1  0.66806100  0.33193900  0.25000000  1
  Ba  Ba1  1  0.33193900  0.66806100  0.75000000  1
  Co  Co0  1  0.33275900  0.66724100  0.25000000  1
  Co  Co1  1  0.66724100  0.33275900  0.75000000  1
  Co  Co2  1  0.50000000  0.00000000  0.00000000  1
  Co  Co3  1  0.00000000  0.50000000  0.50000000  1
  Sn  Sn0  1  0.00463600  0.00931200  0.14594700  1
  Sn  Sn1  1  0.99536400  0.99068800  0.85405300  1
  Sn  Sn2  1  0.00931200  0.00463600  0.64594700  1
  Sn  Sn3  1  0.99068800  0.99536400  0.35405300  1
  Sn  Sn4  1  0.00000000  0.50000000  0.00000000  1
  Sn  Sn5  1  0.50000000  0.50000000  0.00000000  1
  Sn  Sn6  1  0.50000000  0.00000000  0.50000000  1
  Sn  Sn7  1  0.50000000  0.50000000  0.50000000  1
  O  O0  1  0.82661600  0.65300100  0.08354300  1
  O  O1  1  0.34854100  0.17635800  0.08116000  1
  O  O2  1  0.82796900  0.17615800  0.08138500  1
  O  O3  1  0.17338400  0.34699900  0.91645700  1
  O  O4  1  0.65145900  0.82364200  0.91884000  1
  O  O5  1  0.17203100  0.82384200  0.91861500  1
  O  O6  1  0.17635800  0.34854100  0.58116000  1
  O  O7  1  0.65300100  0.82661600  0.58354300  1
  O  O8  1  0.17615800  0.82796900  0.58138500  1
  O  O9  1  0.82364200  0.65145900  0.41884000  1
  O  O10  1  0.34699900  0.17338400  0.41645700  1
  O  O11  1  0.82384200  0.17203100  0.41861500  1
  O  O12  1  0.14680500  0.85319500  0.25000000  1
  O  O13  1  0.14840000  0.29607900  0.25204100  1
  O  O14  1  0.70392100  0.85160000  0.24795900  1
  O  O15  1  0.85319500  0.14680500  0.75000000  1
  O  O16  1  0.85160000  0.70392100  0.74795900  1
  O  O17  1  0.29607900  0.14840000  0.75204100  1
  O  O18  1  0.32867600  0.65715100  0.07689900  1
  O  O19  1  0.67132400  0.34284900  0.92310100  1
  O  O20  1  0.65715100  0.32867600  0.57689900  1
  O  O21  1  0.34284900  0.67132400  0.42310100  1
loop_
_geom_bond_atom_site_label_1
_geom_bond_atom_site_label_2
_geom_bond_distance
_geom_bond_site_symmetry_2
Ba0 O0 2.927269 1_555
Ba0 O10 2.927269 1_555
Ba0 O2 2.946112 1_555
Ba0 O11 2.946112 1_555
Ba0 O9 2.959024 1_555
Ba0 O1 2.959024 1_555
Ba0 O12 3.083286 1_655
Ba0 O12 3.083286 1_545
Ba0 O14 3.090859 1_545
Ba0 O13 3.090859 1_655
Ba0 O14 3.109388 1_555
Ba0 O13 3.109388 1_555
Ba1 O3 2.927269 1_555
Ba1 O7 2.927269 1_555
Ba1 O8 2.946112 1_555
Ba1 O5 2.946112 1_555
Ba1 O4 2.959024 1_555
Ba1 O6 2.959024 1_555
Ba1 O15 3.083286 1_565
Ba1 O15 3.083286 1_455
Ba1 O16 3.090859 1_455
Ba1 O17 3.090859 1_565
Ba1 O16 3.109388 1_555
Ba1 O17 3.109388 1_555
Co0 O13 1.981043 1_555
Co0 O14 1.981043 1_555
Co0 O12 1.997211 1_555
Co0 O21 2.474333 1_555
Co0 O18 2.474333 1_555
Co1 O17 1.981043 1_555
Co1 O16 1.981043 1_555
Co1 O15 1.997211 1_555
Co1 O20 2.474333 1_555
Co1 O19 2.474333 1_555
Co2 O2 2.105480 1_555
Co2 O5 2.105480 1_544
Co2 O4 2.109664 1_544
Co2 O1 2.109664 1_555
Co2 O18 2.131408 1_545
Co2 O19 2.131408 1_554
Co3 O11 2.105480 1_455
Co3 O8 2.105480 1_555
Co3 O9 2.109664 1_455
Co3 O6 2.109664 1_555
Co3 O21 2.131408 1_555
Co3 O20 2.131408 1_455
O0 Sn0 2.102835 1_665
O0 Sn5 2.117093 1_555
O0 Sn4 2.121483 1_655
O1 Sn0 2.053507 1_555
O1 Sn5 2.078898 1_555
O2 Sn0 2.062832 1_655
O2 Sn4 2.080638 1_655
O3 Sn1 2.102835 1_445
O3 Sn5 2.117093 1_556
O3 Sn4 2.121483 1_556
O4 Sn1 2.053507 1_555
O4 Sn5 2.078898 1_556
O5 Sn1 2.062832 1_455
O5 Sn4 2.080638 1_556
O6 Sn2 2.053507 1_555
O6 Sn7 2.078898 1_555
O7 Sn2 2.102835 1_665
O7 Sn7 2.117093 1_555
O7 Sn6 2.121483 1_565
O8 Sn2 2.062832 1_565
O8 Sn6 2.080638 1_565
O9 Sn3 2.053507 1_555
O9 Sn7 2.078898 1_555
O10 Sn3 2.102835 1_445
O10 Sn7 2.117093 1_555
O10 Sn6 2.121483 1_555
O11 Sn3 2.062832 1_545
O11 Sn6 2.080638 1_555
O12 Sn0 2.185900 1_565
O12 Sn3 2.185900 1_455
O13 Sn0 2.157598 1_555
O13 Sn3 2.164887 1_445
O14 Sn3 2.157598 1_555
O14 Sn0 2.164887 1_665
O15 Sn1 2.185900 1_545
O15 Sn2 2.185900 1_655
O16 Sn1 2.157598 1_555
O16 Sn2 2.164887 1_665
O17 Sn2 2.157598 1_555
O17 Sn1 2.164887 1_445
O18 Sn4 2.073506 1_555
O18 Sn5 2.078618 1_555
O19 Sn4 2.073506 1_656
O19 Sn5 2.078618 1_556
O20 Sn6 2.073506 1_555
O20 Sn7 2.078618 1_555
O21 Sn6 2.073506 1_565
O21 Sn7 2.078618 1_555
