# generated using pymatgen
data_ScGeRh
_symmetry_space_group_name_H-M   'P 1'
_cell_length_a   4.13037715
_cell_length_b   6.54834278
_cell_length_c   7.40257833
_cell_angle_alpha   90.00000000
_cell_angle_beta   90.00000000
_cell_angle_gamma   90.00000000
_symmetry_Int_Tables_number   1
_chemical_formula_structural   ScGeRh
_chemical_formula_sum   'Sc4 Ge4 Rh4'
_cell_volume   200.21846429
_cell_formula_units_Z   4
loop_
 _symmetry_equiv_pos_site_id
 _symmetry_equiv_pos_as_xyz
  1  'x, y, z'
loop_
 _atom_site_type_symbol
 _atom_site_label
 _atom_site_symmetry_multiplicity
 _atom_site_fract_x
 _atom_site_fract_y
 _atom_site_fract_z
 _atom_site_occupancy
  Sc  Sc0  1  0.75000000  0.48773315  0.19509611  1
  Sc  Sc1  1  0.75000000  0.98773315  0.30490389  1
  Sc  Sc2  1  0.25000000  0.51226685  0.80490389  1
  Sc  Sc3  1  0.25000000  0.01226685  0.69509611  1
  Ge  Ge0  1  0.75000000  0.22129164  0.88564924  1
  Ge  Ge1  1  0.75000000  0.72129164  0.61435076  1
  Ge  Ge2  1  0.25000000  0.77870836  0.11435076  1
  Ge  Ge3  1  0.25000000  0.27870836  0.38564924  1
  Rh  Rh0  1  0.75000000  0.34389431  0.56181409  1
  Rh  Rh1  1  0.75000000  0.84389431  0.93818591  1
  Rh  Rh2  1  0.25000000  0.65610569  0.43818591  1
  Rh  Rh3  1  0.25000000  0.15610569  0.06181409  1
loop_
_geom_bond_atom_site_label_1
_geom_bond_atom_site_label_2
_geom_bond_distance
_geom_bond_site_symmetry_2
Ge0 Rh3 2.479480 1_656
Ge0 Rh3 2.479480 1_556
Ge0 Rh1 2.501741 1_545
Ge0 Rh0 2.528082 1_555
Ge0 Sc3 2.851013 1_555
Ge0 Sc3 2.851013 1_655
Ge0 Sc2 2.872777 1_555
Ge0 Sc2 2.872777 1_655
Ge0 Sc0 2.879493 1_556
Ge1 Rh2 2.479480 1_655
Ge1 Rh2 2.479480 1_555
Ge1 Rh0 2.501741 1_555
Ge1 Rh1 2.528082 1_555
Ge1 Sc2 2.851013 1_655
Ge1 Sc2 2.851013 1_555
Ge1 Sc3 2.872777 1_565
Ge1 Sc3 2.872777 1_665
Ge1 Sc1 2.879493 1_555
Ge2 Rh1 2.479480 1_554
Ge2 Rh1 2.479480 1_454
Ge2 Rh3 2.501741 1_565
Ge2 Rh2 2.528082 1_555
Ge2 Sc1 2.851013 1_455
Ge2 Sc1 2.851013 1_555
Ge2 Sc0 2.872777 1_455
Ge2 Sc0 2.872777 1_555
Ge2 Sc2 2.879493 1_554
Ge3 Rh0 2.479480 1_555
Ge3 Rh0 2.479480 1_455
Ge3 Rh2 2.501741 1_555
Ge3 Rh3 2.528082 1_555
Ge3 Sc0 2.851013 1_455
Ge3 Sc0 2.851013 1_555
Ge3 Sc1 2.872777 1_445
Ge3 Sc1 2.872777 1_545
Ge3 Sc3 2.879493 1_555
Rh0 Sc0 2.873423 1_555
Rh0 Sc2 2.952764 1_655
Rh0 Sc2 2.952764 1_555
Rh0 Sc1 3.009368 1_545
Rh0 Sc3 3.155049 1_555
Rh0 Sc3 3.155049 1_655
Rh1 Sc1 2.873423 1_556
Rh1 Sc3 2.952764 1_565
Rh1 Sc3 2.952764 1_665
Rh1 Sc0 3.009368 1_556
Rh1 Sc2 3.155049 1_555
Rh1 Sc2 3.155049 1_655
Rh2 Sc2 2.873423 1_555
Rh2 Sc0 2.952764 1_455
Rh2 Sc0 2.952764 1_555
Rh2 Sc3 3.009368 1_565
Rh2 Sc1 3.155049 1_455
Rh2 Sc1 3.155049 1_555
Rh3 Sc3 2.873423 1_554
Rh3 Sc1 2.952764 1_445
Rh3 Sc1 2.952764 1_545
Rh3 Sc2 3.009368 1_554
Rh3 Sc0 3.155049 1_455
Rh3 Sc0 3.155049 1_555
