# generated using pymatgen
data_GaFe2
_symmetry_space_group_name_H-M   'P 1'
_cell_length_a   5.30603156
_cell_length_b   5.30603156
_cell_length_c   12.67818400
_cell_angle_alpha   90.00000000
_cell_angle_beta   90.00000000
_cell_angle_gamma   119.99999454
_symmetry_Int_Tables_number   1
_chemical_formula_structural   GaFe2
_chemical_formula_sum   'Ga8 Fe16'
_cell_volume   309.12018457
_cell_formula_units_Z   8
loop_
 _symmetry_equiv_pos_site_id
 _symmetry_equiv_pos_as_xyz
  1  'x, y, z'
loop_
 _atom_site_type_symbol
 _atom_site_label
 _atom_site_symmetry_multiplicity
 _atom_site_fract_x
 _atom_site_fract_y
 _atom_site_fract_z
 _atom_site_occupancy
  Ga  Ga0_0  1  0.00000000  0.00000000  0.00000000  1
  Ga  Ga0_1  1  0.00000000  0.00000000  0.50000000  1
  Ga  Ga0_2  1  0.00000000  0.50000000  0.00000000  1
  Ga  Ga0_3  1  0.00000000  0.50000000  0.50000000  1
  Ga  Ga0_4  1  0.50000000  0.00000000  0.00000000  1
  Ga  Ga0_5  1  0.50000000  0.00000000  0.50000000  1
  Ga  Ga0_6  1  0.50000000  0.50000000  0.00000000  1
  Ga  Ga0_7  1  0.50000000  0.50000000  0.50000000  1
  Fe  Fe0_0  1  0.16666650  0.33333350  0.33328000  1
  Fe  Fe0_1  1  0.16666650  0.33333350  0.83328000  1
  Fe  Fe0_2  1  0.16666650  0.83333350  0.33328000  1
  Fe  Fe0_3  1  0.16666650  0.83333350  0.83328000  1
  Fe  Fe0_4  1  0.66666650  0.33333350  0.33328000  1
  Fe  Fe0_5  1  0.66666650  0.33333350  0.83328000  1
  Fe  Fe0_6  1  0.66666650  0.83333350  0.33328000  1
  Fe  Fe0_7  1  0.66666650  0.83333350  0.83328000  1
  Fe  Fe1_0  1  0.33333350  0.16666650  0.16672000  1
  Fe  Fe1_1  1  0.33333350  0.16666650  0.66672000  1
  Fe  Fe1_2  1  0.33333350  0.66666650  0.16672000  1
  Fe  Fe1_3  1  0.33333350  0.66666650  0.66672000  1
  Fe  Fe1_4  1  0.83333350  0.16666650  0.16672000  1
  Fe  Fe1_5  1  0.83333350  0.16666650  0.66672000  1
  Fe  Fe1_6  1  0.83333350  0.66666650  0.16672000  1
  Fe  Fe1_7  1  0.83333350  0.66666650  0.66672000  1
loop_
_geom_bond_atom_site_label_1
_geom_bond_atom_site_label_2
_geom_bond_distance
_geom_bond_site_symmetry_2
Ga0_0 Ga0_2 2.653016 1_545
Ga0_0 Ga0_2 2.653016 1_555
Ga0_0 Ga0_4 2.653016 1_555
Ga0_0 Ga0_4 2.653016 1_455
Ga0_0 Ga0_6 2.653016 1_555
Ga0_0 Ga0_6 2.653016 1_445
Ga0_1 Ga0_5 2.653016 1_455
Ga0_1 Ga0_5 2.653016 1_555
Ga0_1 Ga0_3 2.653016 1_555
Ga0_1 Ga0_3 2.653016 1_545
Ga0_1 Ga0_7 2.653016 1_555
Ga0_1 Ga0_7 2.653016 1_445
Ga0_2 Ga0_6 2.653016 1_455
Ga0_2 Ga0_6 2.653016 1_555
Ga0_2 Ga0_4 2.653016 1_455
Ga0_2 Ga0_4 2.653016 1_565
Ga0_3 Ga0_7 2.653016 1_555
Ga0_3 Ga0_7 2.653016 1_455
Ga0_3 Ga0_5 2.653016 1_565
Ga0_3 Ga0_5 2.653016 1_455
Ga0_4 Ga0_6 2.653016 1_555
Ga0_4 Ga0_6 2.653016 1_545
Ga0_5 Ga0_7 2.653016 1_555
Ga0_5 Ga0_7 2.653016 1_545
Fe0_0 Fe1_2 2.608706 1_555
Fe0_0 Fe1_4 2.608706 1_455
Fe0_0 Fe1_0 2.608708 1_555
Fe0_0 Ga0_3 2.610348 1_555
Fe0_0 Ga0_1 2.610349 1_555
Fe0_0 Ga0_7 2.610349 1_555
Fe0_0 Fe0_4 2.653016 1_455
Fe0_0 Fe0_2 2.653016 1_545
Fe0_0 Fe0_4 2.653016 1_555
Fe0_0 Fe0_2 2.653016 1_555
Fe0_0 Fe0_6 2.653016 1_555
Fe0_0 Fe0_6 2.653016 1_445
Fe0_1 Fe1_3 2.608706 1_555
Fe0_1 Fe1_5 2.608706 1_455
Fe0_1 Fe1_1 2.608708 1_555
Fe0_1 Ga0_2 2.610348 1_556
Fe0_1 Ga0_6 2.610349 1_556
Fe0_1 Ga0_0 2.610349 1_556
Fe0_1 Fe0_5 2.653016 1_455
Fe0_1 Fe0_3 2.653016 1_545
Fe0_1 Fe0_3 2.653016 1_555
Fe0_1 Fe0_5 2.653016 1_555
Fe0_1 Fe0_7 2.653016 1_555
Fe0_1 Fe0_7 2.653016 1_445
Fe0_2 Fe1_6 2.608706 1_455
Fe0_2 Fe1_0 2.608706 1_565
Fe0_2 Fe1_2 2.608708 1_555
Fe0_2 Ga0_1 2.610348 1_565
Fe0_2 Ga0_5 2.610349 1_565
Fe0_2 Ga0_3 2.610349 1_555
Fe0_2 Fe0_6 2.653016 1_455
Fe0_2 Fe0_6 2.653016 1_555
Fe0_2 Fe0_4 2.653016 1_455
Fe0_2 Fe0_4 2.653016 1_565
Fe0_3 Fe1_7 2.608706 1_455
Fe0_3 Fe1_1 2.608706 1_565
Fe0_3 Fe1_3 2.608708 1_555
Fe0_3 Ga0_0 2.610348 1_566
Fe0_3 Ga0_2 2.610349 1_556
Fe0_3 Ga0_4 2.610349 1_566
Fe0_3 Fe0_7 2.653016 1_455
Fe0_3 Fe0_7 2.653016 1_555
Fe0_3 Fe0_5 2.653016 1_455
Fe0_3 Fe0_5 2.653016 1_565
Fe0_4 Fe1_6 2.608706 1_555
Fe0_4 Fe1_0 2.608706 1_555
Fe0_4 Fe1_4 2.608708 1_555
Fe0_4 Ga0_7 2.610348 1_555
Fe0_4 Ga0_3 2.610349 1_655
Fe0_4 Ga0_5 2.610349 1_555
Fe0_4 Fe0_6 2.653016 1_555
Fe0_4 Fe0_6 2.653016 1_545
Fe0_5 Fe1_7 2.608706 1_555
Fe0_5 Fe1_1 2.608706 1_555
Fe0_5 Fe1_5 2.608708 1_555
Fe0_5 Ga0_6 2.610348 1_556
Fe0_5 Ga0_2 2.610349 1_656
Fe0_5 Ga0_4 2.610349 1_556
Fe0_5 Fe0_7 2.653016 1_555
Fe0_5 Fe0_7 2.653016 1_545
Fe0_6 Fe1_4 2.608706 1_565
Fe0_6 Fe1_2 2.608706 1_555
Fe0_6 Fe1_6 2.608708 1_555
Fe0_6 Ga0_5 2.610348 1_565
Fe0_6 Ga0_1 2.610349 1_665
Fe0_6 Ga0_7 2.610349 1_555
Fe0_7 Fe1_3 2.608706 1_555
Fe0_7 Fe1_5 2.608706 1_565
Fe0_7 Fe1_7 2.608708 1_555
Fe0_7 Ga0_4 2.610348 1_566
Fe0_7 Ga0_0 2.610349 1_666
Fe0_7 Ga0_6 2.610349 1_556
Fe1_0 Ga0_4 2.610348 1_555
Fe1_0 Ga0_6 2.610349 1_555
Fe1_0 Ga0_0 2.610349 1_555
Fe1_0 Fe1_4 2.653016 1_455
Fe1_0 Fe1_2 2.653016 1_555
Fe1_0 Fe1_2 2.653016 1_545
Fe1_0 Fe1_4 2.653016 1_555
Fe1_0 Fe1_6 2.653016 1_445
Fe1_0 Fe1_6 2.653016 1_555
Fe1_1 Ga0_5 2.610348 1_555
Fe1_1 Ga0_7 2.610349 1_555
Fe1_1 Ga0_1 2.610349 1_555
Fe1_1 Fe1_5 2.653016 1_455
Fe1_1 Fe1_3 2.653016 1_555
Fe1_1 Fe1_5 2.653016 1_555
Fe1_1 Fe1_3 2.653016 1_545
Fe1_1 Fe1_7 2.653016 1_555
Fe1_1 Fe1_7 2.653016 1_445
Fe1_2 Ga0_6 2.610348 1_555
Fe1_2 Ga0_2 2.610349 1_555
Fe1_2 Ga0_4 2.610349 1_565
Fe1_2 Fe1_6 2.653016 1_455
Fe1_2 Fe1_6 2.653016 1_555
Fe1_2 Fe1_4 2.653016 1_455
Fe1_2 Fe1_4 2.653016 1_565
Fe1_3 Ga0_7 2.610348 1_555
Fe1_3 Ga0_5 2.610349 1_565
Fe1_3 Ga0_3 2.610349 1_555
Fe1_3 Fe1_7 2.653016 1_455
Fe1_3 Fe1_7 2.653016 1_555
Fe1_3 Fe1_5 2.653016 1_455
Fe1_3 Fe1_5 2.653016 1_565
Fe1_4 Ga0_0 2.610348 1_655
Fe1_4 Ga0_2 2.610349 1_655
Fe1_4 Ga0_4 2.610349 1_555
Fe1_4 Fe1_6 2.653016 1_555
Fe1_4 Fe1_6 2.653016 1_545
Fe1_5 Ga0_1 2.610348 1_655
Fe1_5 Ga0_5 2.610349 1_555
Fe1_5 Ga0_3 2.610349 1_655
Fe1_5 Fe1_7 2.653016 1_545
Fe1_5 Fe1_7 2.653016 1_555
Fe1_6 Ga0_2 2.610348 1_655
Fe1_6 Ga0_6 2.610349 1_555
Fe1_6 Ga0_0 2.610349 1_665
Fe1_7 Ga0_3 2.610348 1_655
Fe1_7 Ga0_1 2.610349 1_665
Fe1_7 Ga0_7 2.610349 1_555
