# generated using pymatgen
data_Lu5Ge3
_symmetry_space_group_name_H-M   'P 1'
_cell_length_a   6.20392897
_cell_length_b   8.23344428
_cell_length_c   8.23343778
_cell_angle_alpha   119.99972887
_cell_angle_beta   90.00000163
_cell_angle_gamma   90.00000548
_symmetry_Int_Tables_number   1
_chemical_formula_structural   Lu5Ge3
_chemical_formula_sum   'Lu10 Ge6'
_cell_volume   364.21799015
_cell_formula_units_Z   2
loop_
 _symmetry_equiv_pos_site_id
 _symmetry_equiv_pos_as_xyz
  1  'x, y, z'
loop_
 _atom_site_type_symbol
 _atom_site_label
 _atom_site_symmetry_multiplicity
 _atom_site_fract_x
 _atom_site_fract_y
 _atom_site_fract_z
 _atom_site_occupancy
  Lu  Lu0  1  0.49999934  0.33333121  0.66666768  1
  Lu  Lu1  1  0.49999994  0.66666179  0.33333018  1
  Lu  Lu2  1  0.99999841  0.66666651  0.33333189  1
  Lu  Lu3  1  0.99999948  0.33333714  0.66666791  1
  Lu  Lu4  1  0.75000120  0.24109215  0.00001275  1
  Lu  Lu5  1  0.74999368  0.75893052  0.75891628  1
  Lu  Lu6  1  0.75000560  -0.00001535  0.24107465  1
  Lu  Lu7  1  0.24999940  0.75892569  0.00001653  1
  Lu  Lu8  1  0.24999879  0.24109664  0.24107627  1
  Lu  Lu9  1  0.25000279  -0.00001918  0.75890452  1
  Ge  Ge0  1  0.74999430  0.60629309  0.00005787  1
  Ge  Ge1  1  0.74999990  0.39376692  0.39370562  1
  Ge  Ge2  1  0.75000022  -0.00006108  0.60623816  1
  Ge  Ge3  1  0.24999568  0.39376296  0.00005590  1
  Ge  Ge4  1  0.25000411  0.60629608  0.60623847  1
  Ge  Ge5  1  0.25000217  -0.00006208  0.39370430  1
loop_
_geom_bond_atom_site_label_1
_geom_bond_atom_site_label_2
_geom_bond_distance
_geom_bond_site_symmetry_2
Ge0 Lu6 2.830636 1_565
Ge0 Lu5 2.831326 1_554
Ge0 Lu1 2.969518 1_555
Ge0 Lu2 2.969550 1_555
Ge0 Lu0 2.970198 1_554
Ge0 Lu3 2.970216 1_554
Ge0 Lu4 3.006676 1_555
Ge0 Lu7 3.346893 1_555
Ge0 Lu7 3.346951 1_655
Ge1 Lu4 2.830641 1_555
Ge1 Lu6 2.831369 1_555
Ge1 Lu1 2.969504 1_555
Ge1 Lu2 2.969524 1_555
Ge1 Lu3 2.970212 1_555
Ge1 Lu0 2.970240 1_555
Ge1 Lu5 3.006759 1_555
Ge1 Lu8 3.346907 1_655
Ge1 Lu8 3.346919 1_555
Ge2 Lu5 2.830581 1_545
Ge2 Lu4 2.831322 1_556
Ge2 Lu2 2.969545 1_545
Ge2 Lu1 2.969577 1_545
Ge2 Lu0 2.970224 1_555
Ge2 Lu3 2.970259 1_555
Ge2 Lu6 3.006739 1_555
Ge2 Lu9 3.346883 1_555
Ge2 Lu9 3.346912 1_655
Ge3 Lu8 2.830594 1_555
Ge3 Lu9 2.831371 1_554
Ge3 Lu2 2.969551 1_455
Ge3 Lu1 2.969554 1_555
Ge3 Lu3 2.970186 1_454
Ge3 Lu0 2.970197 1_554
Ge3 Lu7 3.006709 1_555
Ge3 Lu4 3.346878 1_455
Ge3 Lu4 3.346941 1_555
Ge4 Lu9 2.830591 1_565
Ge4 Lu7 2.831336 1_556
Ge4 Lu1 2.969538 1_555
Ge4 Lu2 2.969580 1_455
Ge4 Lu3 2.970205 1_455
Ge4 Lu0 2.970215 1_555
Ge4 Lu8 3.006707 1_555
Ge4 Lu5 3.346872 1_555
Ge4 Lu5 3.346993 1_455
Ge5 Lu7 2.830605 1_545
Ge5 Lu8 2.831396 1_555
Ge5 Lu2 2.969535 1_445
Ge5 Lu1 2.969544 1_545
Ge5 Lu0 2.970223 1_555
Ge5 Lu3 2.970269 1_455
Ge5 Lu9 3.006677 1_555
Ge5 Lu6 3.346901 1_455
Ge5 Lu6 3.346941 1_555
