# generated using pymatgen
data_Y3(Ga2Cu)2
_symmetry_space_group_name_H-M   'P 1'
_cell_length_a   4.29039023
_cell_length_b   4.29039023
_cell_length_c   22.29260700
_cell_angle_alpha   90.00000000
_cell_angle_beta   90.00000000
_cell_angle_gamma   120.00000358
_symmetry_Int_Tables_number   1
_chemical_formula_structural   Y3(Ga2Cu)2
_chemical_formula_sum   'Y6 Ga8 Cu4'
_cell_volume   355.37352183
_cell_formula_units_Z   2
loop_
 _symmetry_equiv_pos_site_id
 _symmetry_equiv_pos_as_xyz
  1  'x, y, z'
loop_
 _atom_site_type_symbol
 _atom_site_label
 _atom_site_symmetry_multiplicity
 _atom_site_fract_x
 _atom_site_fract_y
 _atom_site_fract_z
 _atom_site_occupancy
  Y  Y0  1  0.33333300  0.66666700  0.25643400  1
  Y  Y1  1  0.33333300  0.66666700  0.58908300  1
  Y  Y2  1  0.33333300  0.66666700  0.92199900  1
  Y  Y3  1  0.33333300  0.66666700  0.07896700  1
  Y  Y4  1  0.33333300  0.66666700  0.41268200  1
  Y  Y5  1  0.33333300  0.66666700  0.74495000  1
  Ga  Ga0  1  0.00000000  0.00000000  0.33840700  1
  Ga  Ga1  1  0.00000000  0.00000000  0.67114100  1
  Ga  Ga2  1  0.00000000  0.00000000  0.15457600  1
  Ga  Ga3  1  0.00000000  0.00000000  0.48727800  1
  Ga  Ga4  1  0.00000000  0.00000000  0.81942000  1
  Ga  Ga5  1  0.66666700  0.33333300  0.18141600  1
  Ga  Ga6  1  0.66666700  0.33333300  0.51359200  1
  Ga  Ga7  1  0.66666700  0.33333300  0.84544400  1
  Cu  Cu0  1  0.66666700  0.33333300  0.32640900  1
  Cu  Cu1  1  0.66666700  0.33333300  0.65862600  1
  Cu  Cu2  1  0.66666700  0.33333300  0.99475000  1
  Cu  Cu3  1  0.00000000  0.00000000  0.00482300  1
loop_
_geom_bond_atom_site_label_1
_geom_bond_atom_site_label_2
_geom_bond_distance
_geom_bond_site_symmetry_2
Y0 Y4 3.483175 1_555
Y1 Y5 3.474682 1_555
Ga0 Y4 2.979500 1_545
Ga0 Y4 2.979503 1_555
Ga0 Y4 2.979503 1_445
Ga0 Y0 3.078176 1_545
Ga0 Y0 3.078178 1_555
Ga0 Y0 3.078178 1_445
Ga1 Y5 2.973740 1_545
Ga1 Y5 2.973743 1_555
Ga1 Y5 2.973743 1_445
Ga1 Y1 3.079301 1_545
Ga1 Y1 3.079304 1_445
Ga1 Y1 3.079304 1_555
Ga2 Ga5 2.548295 1_455
Ga2 Ga5 2.548298 1_555
Ga2 Ga5 2.548298 1_445
Ga2 Y3 2.996129 1_545
Ga2 Y3 2.996132 1_445
Ga2 Y3 2.996132 1_555
Ga3 Ga6 2.545567 1_455
Ga3 Ga6 2.545571 1_555
Ga3 Ga6 2.545571 1_445
Ga3 Y4 2.983483 1_545
Ga3 Y4 2.983486 1_555
Ga3 Y4 2.983486 1_445
Ga4 Ga7 2.544085 1_455
Ga4 Ga7 2.544089 1_555
Ga4 Ga7 2.544089 1_445
Ga4 Y5 2.981918 1_545
Ga4 Y5 2.981921 1_555
Ga4 Y5 2.981921 1_445
Ga5 Y0 2.988737 1_545
Ga5 Y0 2.988737 1_655
Ga5 Y0 2.988743 1_555
Ga6 Y1 2.994650 1_545
Ga6 Y1 2.994650 1_655
Ga6 Y1 2.994656 1_555
Ga6 Y4 3.346082 1_545
Ga6 Y4 3.346082 1_655
Ga6 Y4 3.346088 1_555
Ga7 Y2 3.008043 1_545
Ga7 Y2 3.008043 1_655
Ga7 Y2 3.008049 1_555
Ga7 Y5 3.339854 1_545
Ga7 Y5 3.339854 1_655
Ga7 Y5 3.339860 1_555
Cu0 Ga0 2.491454 1_655
Cu0 Ga0 2.491457 1_555
Cu0 Ga0 2.491457 1_665
Cu0 Y0 2.927314 1_545
Cu0 Y0 2.927314 1_655
Cu0 Y0 2.927321 1_555
Cu0 Y4 3.136032 1_545
Cu0 Y4 3.136032 1_655
Cu0 Y4 3.136038 1_555
Cu1 Ga1 2.492718 1_655
Cu1 Ga1 2.492721 1_665
Cu1 Ga1 2.492721 1_555
Cu1 Y1 2.922194 1_545
Cu1 Y1 2.922194 1_655
Cu1 Y1 2.922200 1_555
Cu1 Y5 3.136729 1_545
Cu1 Y5 3.136729 1_655
Cu1 Y5 3.136735 1_555
Cu2 Cu3 2.487213 1_656
Cu2 Cu3 2.487217 1_666
Cu2 Cu3 2.487217 1_556
Cu2 Y2 2.960755 1_545
Cu2 Y2 2.960755 1_655
Cu2 Y2 2.960761 1_555
Cu2 Y3 3.108134 1_546
Cu2 Y3 3.108134 1_656
Cu2 Y3 3.108140 1_556
Cu3 Y3 2.977878 1_545
Cu3 Y3 2.977881 1_555
Cu3 Y3 2.977881 1_445
Cu3 Y2 3.089476 1_544
Cu3 Y2 3.089479 1_554
Cu3 Y2 3.089479 1_444
