# generated using pymatgen
data_GaH6N2F3
_symmetry_space_group_name_H-M   'P 1'
_cell_length_a   5.41884549
_cell_length_b   5.41884549
_cell_length_c   7.10089373
_cell_angle_alpha   50.58983914
_cell_angle_beta   50.58983914
_cell_angle_gamma   43.64537450
_symmetry_Int_Tables_number   1
_chemical_formula_structural   GaH6N2F3
_chemical_formula_sum   'Ga1 H6 N2 F3'
_cell_volume   104.99808756
_cell_formula_units_Z   1
loop_
 _symmetry_equiv_pos_site_id
 _symmetry_equiv_pos_as_xyz
  1  'x, y, z'
loop_
 _atom_site_type_symbol
 _atom_site_label
 _atom_site_symmetry_multiplicity
 _atom_site_fract_x
 _atom_site_fract_y
 _atom_site_fract_z
 _atom_site_occupancy
  Ga  Ga0  1  0.50000000  0.50000000  0.50000000  1
  H  H0  1  0.82756400  0.82756400  0.04459200  1
  H  H1  1  0.17243600  0.17243600  0.95540800  1
  H  H2  1  0.37511000  0.96718100  0.75501100  1
  H  H3  1  0.03281900  0.62489000  0.24498900  1
  H  H4  1  0.62489000  0.03281900  0.24498900  1
  H  H5  1  0.96718100  0.37511000  0.75501100  1
  N  N0  1  0.77556100  0.77556100  0.22903400  1
  N  N1  1  0.22443900  0.22443900  0.77096600  1
  F  F0  1  0.49315300  0.49315300  0.23573300  1
  F  F1  1  0.50684700  0.50684700  0.76426700  1
  F  F2  1  0.00000000  0.00000000  0.50000000  1
loop_
_geom_bond_atom_site_label_1
_geom_bond_atom_site_label_2
_geom_bond_distance
_geom_bond_site_symmetry_2
Ga0 N0 2.022960 1_555
Ga0 N1 2.022960 1_555
H0 N0 1.025585 1_555
H1 N1 1.025585 1_555
H2 N1 1.028907 1_565
H3 N0 1.028907 1_455
H4 N0 1.028907 1_545
H5 N1 1.028907 1_655
F0 Ga0 1.924299 1_555
F1 Ga0 1.924299 1_555
F2 Ga0 2.014377 1_545
F2 Ga0 2.014377 1_455
