# generated using pymatgen
data_Nb3(CuSe3)2
_symmetry_space_group_name_H-M   'P 1'
_cell_length_a   3.54428562
_cell_length_b   9.34654614
_cell_length_c   13.59182039
_cell_angle_alpha   90.00773787
_cell_angle_beta   89.99466804
_cell_angle_gamma   79.11619124
_symmetry_Int_Tables_number   1
_chemical_formula_structural   Nb3(CuSe3)2
_chemical_formula_sum   'Nb6 Cu4 Se12'
_cell_volume   442.15478610
_cell_formula_units_Z   2
loop_
 _symmetry_equiv_pos_site_id
 _symmetry_equiv_pos_as_xyz
  1  'x, y, z'
loop_
 _atom_site_type_symbol
 _atom_site_label
 _atom_site_symmetry_multiplicity
 _atom_site_fract_x
 _atom_site_fract_y
 _atom_site_fract_z
 _atom_site_occupancy
  Nb  Nb0  1  0.44506403  0.11005891  0.24757305  1
  Nb  Nb1  1  0.77559926  0.44887657  0.25046935  1
  Nb  Nb2  1  0.11029088  0.77957722  0.25218245  1
  Nb  Nb3  1  0.88828538  0.22332473  0.74758265  1
  Nb  Nb4  1  0.22346387  0.55370970  0.75210093  1
  Nb  Nb5  1  0.55746244  0.88462366  0.75048346  1
  Cu  Cu0  1  0.44429092  0.10619609  0.03880113  1
  Cu  Cu1  1  0.22227044  0.55864335  0.96076718  1
  Cu  Cu2  1  0.88882798  0.22677778  0.53844642  1
  Cu  Cu3  1  0.11079037  0.77445518  0.46056471  1
  Se  Se0  1  0.44880509  0.10238525  0.62584572  1
  Se  Se1  1  0.77424790  0.45256419  0.62795739  1
  Se  Se2  1  0.11216946  0.77460938  0.63104089  1
  Se  Se3  1  0.88946213  0.22278900  0.36740378  1
  Se  Se4  1  0.22560269  0.54933050  0.37360042  1
  Se  Se5  1  0.55053637  0.89896819  0.37467253  1
  Se  Se6  1  0.88415462  0.23094311  0.12583817  1
  Se  Se7  1  0.22107587  0.55884278  0.13106464  1
  Se  Se8  1  0.55993635  0.88071040  0.12803649  1
  Se  Se9  1  0.44390590  0.11083471  0.86751725  1
  Se  Se10  1  0.78303484  0.43450601  0.87461982  1
  Se  Se11  1  0.10739023  0.78394130  0.87343257  1
loop_
_geom_bond_atom_site_label_1
_geom_bond_atom_site_label_2
_geom_bond_distance
_geom_bond_site_symmetry_2
Nb0 Se5 2.595992 1_545
Nb0 Se3 2.618411 1_455
Nb0 Se3 2.621155 1_555
Nb0 Se8 2.658932 1_545
Nb0 Se6 2.664629 1_555
Nb0 Se6 2.668216 1_455
Nb1 Se4 2.605789 1_555
Nb1 Se7 2.606000 1_555
Nb1 Se4 2.606107 1_655
Nb1 Se7 2.606912 1_655
Nb1 Se3 2.614046 1_555
Nb1 Se6 2.620993 1_555
Nb2 Se7 2.610294 1_555
Nb2 Se8 2.617117 1_555
Nb2 Se8 2.617318 1_455
Nb2 Se5 2.666311 1_555
Nb2 Se5 2.667549 1_455
Nb2 Se4 2.681528 1_555
Nb3 Se10 2.595647 1_555
Nb3 Se9 2.619156 1_655
Nb3 Se9 2.620827 1_555
Nb3 Se1 2.659276 1_555
Nb3 Se0 2.665830 1_555
Nb3 Se0 2.667042 1_655
Nb4 Se2 2.611376 1_555
Nb4 Se1 2.616147 1_455
Nb4 Se1 2.617955 1_555
Nb4 Se10 2.666069 1_455
Nb4 Se10 2.667294 1_555
Nb4 Se11 2.680296 1_555
Nb5 Se11 2.604900 1_655
Nb5 Se11 2.605675 1_555
Nb5 Se2 2.606475 1_655
Nb5 Se2 2.607028 1_555
Nb5 Se9 2.615373 1_565
Nb5 Se0 2.620249 1_565
Cu0 Se9 2.328465 1_554
Cu0 Se8 2.399008 1_545
Cu0 Se6 2.413571 1_455
Cu0 Se6 2.424008 1_555
Cu1 Se7 2.314656 1_556
Cu1 Se11 2.384541 1_555
Cu1 Se10 2.407438 1_555
Cu1 Se10 2.413054 1_455
Cu2 Se3 2.325069 1_555
Cu2 Se1 2.402939 1_555
Cu2 Se0 2.414829 1_655
Cu2 Se0 2.424848 1_555
Cu3 Se2 2.317088 1_555
Cu3 Se4 2.380339 1_555
Cu3 Se5 2.405904 1_455
Cu3 Se5 2.414836 1_555
