# generated using pymatgen
data_KHfMg30O31
_symmetry_space_group_name_H-M   'P 1'
_cell_length_a   8.67563700
_cell_length_b   8.67563700
_cell_length_c   8.60270600
_cell_angle_alpha   90.00000000
_cell_angle_beta   90.00000000
_cell_angle_gamma   90.00000000
_symmetry_Int_Tables_number   1
_chemical_formula_structural   KHfMg30O31
_chemical_formula_sum   'K1 Hf1 Mg30 O31'
_cell_volume   647.49709689
_cell_formula_units_Z   1
loop_
 _symmetry_equiv_pos_site_id
 _symmetry_equiv_pos_as_xyz
  1  'x, y, z'
loop_
 _atom_site_type_symbol
 _atom_site_label
 _atom_site_symmetry_multiplicity
 _atom_site_fract_x
 _atom_site_fract_y
 _atom_site_fract_z
 _atom_site_occupancy
  K  K0  1  0.00000000  0.00000000  0.01165700  1
  Hf  Hf0  1  0.50000000  0.50000000  0.99979200  1
  Mg  Mg0  1  0.50000000  0.00000000  0.99910300  1
  Mg  Mg1  1  0.00000000  0.50000000  0.99910300  1
  Mg  Mg2  1  0.00000000  0.00000000  0.49418200  1
  Mg  Mg3  1  0.50000000  0.00000000  0.50134300  1
  Mg  Mg4  1  0.00000000  0.50000000  0.50134300  1
  Mg  Mg5  1  0.50000000  0.50000000  0.50008400  1
  Mg  Mg6  1  0.24398200  0.24398200  0.99997200  1
  Mg  Mg7  1  0.75601800  0.24398200  0.99997200  1
  Mg  Mg8  1  0.24398200  0.75601800  0.99997200  1
  Mg  Mg9  1  0.75601800  0.75601800  0.99997200  1
  Mg  Mg10  1  0.24819100  0.24819100  0.50015300  1
  Mg  Mg11  1  0.75180900  0.24819100  0.50015300  1
  Mg  Mg12  1  0.24819100  0.75180900  0.50015300  1
  Mg  Mg13  1  0.75180900  0.75180900  0.50015300  1
  Mg  Mg14  1  0.25479800  0.00000000  0.25359000  1
  Mg  Mg15  1  0.74520200  0.00000000  0.25359000  1
  Mg  Mg16  1  0.24429000  0.50000000  0.25600800  1
  Mg  Mg17  1  0.75571000  0.50000000  0.25600800  1
  Mg  Mg18  1  0.24890500  0.00000000  0.74859600  1
  Mg  Mg19  1  0.75109500  0.00000000  0.74859600  1
  Mg  Mg20  1  0.24306600  0.50000000  0.74398200  1
  Mg  Mg21  1  0.75693400  0.50000000  0.74398200  1
  Mg  Mg22  1  0.00000000  0.25479800  0.25359000  1
  Mg  Mg23  1  0.50000000  0.24429000  0.25600800  1
  Mg  Mg24  1  0.00000000  0.74520200  0.25359000  1
  Mg  Mg25  1  0.50000000  0.75571000  0.25600800  1
  Mg  Mg26  1  0.00000000  0.24890500  0.74859600  1
  Mg  Mg27  1  0.50000000  0.24306600  0.74398200  1
  Mg  Mg28  1  0.00000000  0.75109500  0.74859600  1
  Mg  Mg29  1  0.50000000  0.75693400  0.74398200  1
  O  O0  1  0.50000000  0.00000000  0.25295300  1
  O  O1  1  0.00000000  0.50000000  0.25295300  1
  O  O2  1  0.50000000  0.50000000  0.24670700  1
  O  O3  1  0.00000000  0.00000000  0.72894100  1
  O  O4  1  0.50000000  0.00000000  0.74770100  1
  O  O5  1  0.00000000  0.50000000  0.74770100  1
  O  O6  1  0.50000000  0.50000000  0.75323500  1
  O  O7  1  0.25279400  0.25279400  0.24838100  1
  O  O8  1  0.74720600  0.25279400  0.24838100  1
  O  O9  1  0.25279400  0.74720600  0.24838100  1
  O  O10  1  0.74720600  0.74720600  0.24838100  1
  O  O11  1  0.25112500  0.25112500  0.75166300  1
  O  O12  1  0.74887500  0.25112500  0.75166300  1
  O  O13  1  0.25112500  0.74887500  0.75166300  1
  O  O14  1  0.74887500  0.74887500  0.75166300  1
  O  O15  1  0.27429900  0.00000000  0.99971300  1
  O  O16  1  0.72570100  0.00000000  0.99971300  1
  O  O17  1  0.25810400  0.50000000  0.99989600  1
  O  O18  1  0.74189600  0.50000000  0.99989600  1
  O  O19  1  0.25602600  0.00000000  0.50134500  1
  O  O20  1  0.74397400  0.00000000  0.50134500  1
  O  O21  1  0.25202100  0.50000000  0.50000000  1
  O  O22  1  0.74797900  0.50000000  0.50000000  1
  O  O23  1  0.00000000  0.27429900  0.99971300  1
  O  O24  1  0.50000000  0.25810400  0.99989600  1
  O  O25  1  0.00000000  0.72570100  0.99971300  1
  O  O26  1  0.50000000  0.74189600  0.99989600  1
  O  O27  1  0.00000000  0.25602600  0.50134500  1
  O  O28  1  0.50000000  0.25202100  0.50000000  1
  O  O29  1  0.00000000  0.74397400  0.50134500  1
  O  O30  1  0.50000000  0.74797900  0.50000000  1
loop_
_geom_bond_atom_site_label_1
_geom_bond_atom_site_label_2
_geom_bond_distance
_geom_bond_site_symmetry_2
K0 O23 2.381936 1_554
K0 O15 2.381936 1_554
K0 O25 2.381936 1_544
K0 O16 2.381936 1_454
K0 O3 2.432123 1_554
Hf0 O24 2.098602 1_555
Hf0 O18 2.098602 1_555
Hf0 O26 2.098602 1_555
Hf0 O17 2.098602 1_555
Hf0 O6 2.121057 1_555
Hf0 O2 2.124137 1_556
Mg0 O16 1.958107 1_555
Mg0 O15 1.958107 1_555
Mg0 O4 2.162737 1_555
Mg0 O0 2.183797 1_556
Mg0 O26 2.239227 1_545
Mg0 O24 2.239227 1_555
Mg1 O25 1.958107 1_555
Mg1 O23 1.958107 1_555
Mg1 O5 2.162737 1_555
Mg1 O1 2.183797 1_556
Mg1 O18 2.239227 1_455
Mg1 O17 2.239227 1_555
Mg2 O3 2.019563 1_555
Mg2 O27 2.222043 1_555
Mg2 O19 2.222043 1_555
Mg2 O29 2.222043 1_545
Mg2 O20 2.222043 1_455
Mg3 O20 2.116630 1_555
Mg3 O19 2.116630 1_555
Mg3 O4 2.119345 1_555
Mg3 O0 2.136826 1_555
Mg3 O28 2.186473 1_555
Mg3 O30 2.186473 1_545
Mg4 O29 2.116630 1_555
Mg4 O27 2.116630 1_555
Mg4 O5 2.119345 1_555
Mg4 O1 2.136826 1_555
Mg4 O21 2.186473 1_555
Mg4 O22 2.186473 1_455
Mg5 O22 2.151376 1_555
Mg5 O30 2.151376 1_555
Mg5 O28 2.151376 1_555
Mg5 O21 2.151376 1_555
Mg5 O6 2.177784 1_555
Mg5 O2 2.179728 1_555
Mg6 O23 2.132979 1_555
Mg6 O15 2.132979 1_555
Mg6 O11 2.137926 1_555
Mg6 O7 2.139723 1_556
Mg6 O24 2.224496 1_555
Mg6 O17 2.224496 1_555
Mg7 O16 2.132979 1_555
Mg7 O23 2.132979 1_655
Mg7 O12 2.137926 1_555
Mg7 O8 2.139723 1_556
Mg7 O24 2.224496 1_555
Mg7 O18 2.224496 1_555
Mg8 O25 2.132979 1_555
Mg8 O15 2.132979 1_565
Mg8 O13 2.137926 1_555
Mg8 O9 2.139723 1_556
Mg8 O17 2.224496 1_555
Mg8 O26 2.224496 1_555
Mg9 O16 2.132979 1_565
Mg9 O25 2.132979 1_655
Mg9 O14 2.137926 1_555
Mg9 O10 2.139723 1_556
Mg9 O18 2.224496 1_555
Mg9 O26 2.224496 1_555
Mg10 O19 2.154312 1_555
Mg10 O27 2.154312 1_555
Mg10 O11 2.163966 1_555
Mg10 O7 2.166657 1_555
Mg10 O28 2.184857 1_555
Mg10 O21 2.184857 1_555
Mg11 O20 2.154312 1_555
Mg11 O27 2.154312 1_655
Mg11 O12 2.163966 1_555
Mg11 O8 2.166657 1_555
Mg11 O28 2.184857 1_555
Mg11 O22 2.184857 1_555
Mg12 O19 2.154312 1_565
Mg12 O29 2.154312 1_555
Mg12 O13 2.163966 1_555
Mg12 O9 2.166657 1_555
Mg12 O21 2.184857 1_555
Mg12 O30 2.184857 1_555
Mg13 O29 2.154312 1_655
Mg13 O20 2.154312 1_565
Mg13 O14 2.163966 1_555
Mg13 O10 2.166657 1_555
Mg13 O22 2.184857 1_555
Mg13 O30 2.184857 1_555
Mg14 O0 2.127291 1_555
Mg14 O19 2.131390 1_555
Mg14 O15 2.190572 1_554
Mg14 O7 2.193676 1_555
Mg14 O9 2.193676 1_545
Mg15 O0 2.127291 1_555
Mg15 O20 2.131390 1_555
Mg15 O16 2.190572 1_554
Mg15 O8 2.193676 1_555
Mg15 O10 2.193676 1_545
Mg16 O21 2.100063 1_555
Mg16 O1 2.119534 1_555
Mg16 O9 2.146941 1_555
Mg16 O7 2.146941 1_555
Mg16 O17 2.206513 1_554
Mg16 O2 2.219890 1_555
Mg17 O22 2.100063 1_555
Mg17 O1 2.119534 1_655
Mg17 O10 2.146941 1_555
Mg17 O8 2.146941 1_555
Mg17 O18 2.206513 1_554
Mg17 O2 2.219890 1_555
Mg18 O19 2.127925 1_555
Mg18 O3 2.166019 1_555
Mg18 O15 2.171490 1_555
Mg18 O4 2.178423 1_555
Mg18 O11 2.178914 1_555
Mg18 O13 2.178914 1_545
Mg19 O20 2.127925 1_555
Mg19 O3 2.166019 1_655
Mg19 O16 2.171490 1_555
Mg19 O4 2.178423 1_555
Mg19 O12 2.178914 1_555
Mg19 O14 2.178914 1_545
Mg20 O21 2.100343 1_555
Mg20 O5 2.108995 1_555
Mg20 O13 2.161291 1_555
Mg20 O11 2.161291 1_555
Mg20 O17 2.205415 1_555
Mg20 O6 2.230487 1_555
Mg21 O22 2.100343 1_555
Mg21 O5 2.108995 1_655
Mg21 O14 2.161291 1_555
Mg21 O12 2.161291 1_555
Mg21 O18 2.205415 1_555
Mg21 O6 2.230487 1_555
Mg22 O1 2.127291 1_555
Mg22 O27 2.131390 1_555
Mg22 O23 2.190572 1_554
Mg22 O7 2.193676 1_555
Mg22 O8 2.193676 1_455
Mg23 O28 2.100063 1_555
Mg23 O0 2.119534 1_555
Mg23 O8 2.146941 1_555
Mg23 O7 2.146941 1_555
Mg23 O24 2.206513 1_554
Mg23 O2 2.219890 1_555
Mg24 O1 2.127291 1_555
Mg24 O29 2.131390 1_555
Mg24 O25 2.190572 1_554
Mg24 O9 2.193676 1_555
Mg24 O10 2.193676 1_455
Mg25 O30 2.100063 1_555
Mg25 O0 2.119534 1_565
Mg25 O10 2.146941 1_555
Mg25 O9 2.146941 1_555
Mg25 O26 2.206513 1_554
Mg25 O2 2.219890 1_555
Mg26 O27 2.127925 1_555
Mg26 O3 2.166019 1_555
Mg26 O23 2.171490 1_555
Mg26 O5 2.178423 1_555
Mg26 O11 2.178914 1_555
Mg26 O12 2.178914 1_455
Mg27 O28 2.100343 1_555
Mg27 O4 2.108995 1_555
Mg27 O12 2.161291 1_555
Mg27 O11 2.161291 1_555
Mg27 O24 2.205415 1_555
Mg27 O6 2.230487 1_555
Mg28 O29 2.127925 1_555
Mg28 O3 2.166019 1_565
Mg28 O25 2.171490 1_555
Mg28 O5 2.178423 1_555
Mg28 O13 2.178914 1_555
Mg28 O14 2.178914 1_455
Mg29 O30 2.100343 1_555
Mg29 O4 2.108995 1_565
Mg29 O14 2.161291 1_555
Mg29 O13 2.161291 1_555
Mg29 O26 2.205415 1_555
Mg29 O6 2.230487 1_555
