# generated using pymatgen
data_CaY4(BiO3)4
_symmetry_space_group_name_H-M   'P 1'
_cell_length_a   6.50355108
_cell_length_b   6.57915914
_cell_length_c   8.38618300
_cell_angle_alpha   90.00009023
_cell_angle_beta   89.99995536
_cell_angle_gamma   84.29274062
_symmetry_Int_Tables_number   1
_chemical_formula_structural   CaY4(BiO3)4
_chemical_formula_sum   'Ca1 Y4 Bi4 O12'
_cell_volume   357.04842483
_cell_formula_units_Z   1
loop_
 _symmetry_equiv_pos_site_id
 _symmetry_equiv_pos_as_xyz
  1  'x, y, z'
loop_
 _atom_site_type_symbol
 _atom_site_label
 _atom_site_symmetry_multiplicity
 _atom_site_fract_x
 _atom_site_fract_y
 _atom_site_fract_z
 _atom_site_occupancy
  Ca  Ca0  1  0.48570400  0.23849200  0.25000000  1
  Y  Y0  1  0.93574300  0.96427600  0.75000100  1
  Y  Y1  1  0.62786600  0.67272600  0.25000000  1
  Y  Y2  1  0.55283200  0.48763500  0.75000000  1
  Y  Y3  1  0.02868200  0.01186100  0.24999900  1
  Bi  Bi0  1  0.00450700  0.48601000  0.49256000  1
  Bi  Bi1  1  0.41524100  0.95744600  0.56981900  1
  Bi  Bi2  1  0.41524100  0.95744600  0.93018100  1
  Bi  Bi3  1  0.00450700  0.48601000  0.00744000  1
  O  O0  1  0.70015400  0.39505500  0.41733400  1
  O  O1  1  0.09537700  0.09556300  0.53901600  1
  O  O2  1  0.86055400  0.79506100  0.08971100  1
  O  O3  1  0.35091100  0.63633700  0.94365000  1
  O  O4  1  0.35091200  0.63633600  0.55635000  1
  O  O5  1  0.86055300  0.79506100  0.41028900  1
  O  O6  1  0.09537600  0.09556200  0.96098400  1
  O  O7  1  0.70015400  0.39505500  0.08266600  1
  O  O8  1  0.13646300  0.36032300  0.25000100  1
  O  O9  1  0.65802300  0.16244400  0.75000000  1
  O  O10  1  0.35571400  0.91671400  0.25000000  1
  O  O11  1  0.82381600  0.65250400  0.75000000  1
loop_
_geom_bond_atom_site_label_1
_geom_bond_atom_site_label_2
_geom_bond_distance
_geom_bond_site_symmetry_2
Ca0 O0 2.293713 1_555
Ca0 O7 2.293714 1_555
Ca0 O8 2.332213 1_555
Ca0 O10 2.356368 1_545
Bi0 O0 2.215758 1_455
Bi0 O5 2.260132 1_455
Bi0 O8 2.327414 1_555
Bi0 O4 2.604396 1_555
Bi0 O1 2.607278 1_555
Bi0 O11 2.643067 1_455
Bi1 O4 2.196998 1_555
Bi1 O1 2.200894 1_565
Bi1 O9 2.649313 1_565
Bi1 O10 2.726861 1_555
Bi2 O3 2.196994 1_555
Bi2 O6 2.200897 1_565
Bi2 O9 2.649314 1_565
Bi2 O10 2.726862 1_556
Bi3 O7 2.215758 1_455
Bi3 O2 2.260128 1_455
Bi3 O8 2.327432 1_555
Bi3 O3 2.604393 1_554
Bi3 O6 2.607282 1_554
Bi3 O11 2.643072 1_454
O0 Y1 2.314475 1_555
O1 Y0 2.265590 1_445
O1 Y3 2.532483 1_555
O2 Y1 2.233166 1_555
O2 Y3 2.312396 1_665
O3 Y2 2.250207 1_555
O4 Y2 2.250205 1_555
O5 Y1 2.233161 1_555
O5 Y3 2.312410 1_665
O6 Y0 2.265570 1_445
O6 Y3 2.532465 1_556
O7 Y1 2.314471 1_555
O8 Y3 2.463112 1_555
O9 Y0 2.119839 1_545
O9 Y2 2.180434 1_555
O10 Y3 2.156532 1_565
O10 Y1 2.268134 1_555
O11 Y2 2.159325 1_555
O11 Y0 2.243714 1_555
