# generated using pymatgen
data_Ga3P3H6CNO13
_symmetry_space_group_name_H-M   'P 1'
_cell_length_a   10.40678740
_cell_length_b   14.38595217
_cell_length_c   17.25211137
_cell_angle_alpha   90.00000000
_cell_angle_beta   90.00000000
_cell_angle_gamma   90.00000000
_symmetry_Int_Tables_number   1
_chemical_formula_structural   Ga3P3H6CNO13
_chemical_formula_sum   'Ga24 P24 H48 C8 N8 O104'
_cell_volume   2582.84026117
_cell_formula_units_Z   8
loop_
 _symmetry_equiv_pos_site_id
 _symmetry_equiv_pos_as_xyz
  1  'x, y, z'
loop_
 _atom_site_type_symbol
 _atom_site_label
 _atom_site_symmetry_multiplicity
 _atom_site_fract_x
 _atom_site_fract_y
 _atom_site_fract_z
 _atom_site_occupancy
  Ga  Ga0  1  0.38317651  0.74309197  0.80554166  1
  Ga  Ga1  1  0.88317651  0.25690803  0.69445834  1
  Ga  Ga2  1  0.61682349  0.75690803  0.30554166  1
  Ga  Ga3  1  0.11682349  0.24309197  0.19445834  1
  Ga  Ga4  1  0.61682349  0.25690803  0.19445834  1
  Ga  Ga5  1  0.11682349  0.74309197  0.30554166  1
  Ga  Ga6  1  0.38317651  0.24309197  0.69445834  1
  Ga  Ga7  1  0.88317651  0.75690803  0.80554166  1
  Ga  Ga8  1  0.37980680  0.56009985  0.10513482  1
  Ga  Ga9  1  0.87980680  0.43990015  0.39486518  1
  Ga  Ga10  1  0.62019320  0.93990015  0.60513482  1
  Ga  Ga11  1  0.12019320  0.06009985  0.89486518  1
  Ga  Ga12  1  0.62019320  0.43990015  0.89486518  1
  Ga  Ga13  1  0.12019320  0.56009985  0.60513482  1
  Ga  Ga14  1  0.37980680  0.06009985  0.39486518  1
  Ga  Ga15  1  0.87980680  0.93990015  0.10513482  1
  Ga  Ga16  1  0.15664434  0.97243959  0.69208222  1
  Ga  Ga17  1  0.65664434  0.02756041  0.80791778  1
  Ga  Ga18  1  0.84335566  0.52756041  0.19208222  1
  Ga  Ga19  1  0.34335566  0.47243959  0.30791778  1
  Ga  Ga20  1  0.84335566  0.02756041  0.30791778  1
  Ga  Ga21  1  0.34335566  0.97243959  0.19208222  1
  Ga  Ga22  1  0.15664434  0.47243959  0.80791778  1
  Ga  Ga23  1  0.65664434  0.52756041  0.69208222  1
  P  P0  1  0.13420718  0.75267051  0.69955296  1
  P  P1  1  0.63420718  0.24732949  0.80044704  1
  P  P2  1  0.86579282  0.74732949  0.19955296  1
  P  P3  1  0.36579282  0.25267051  0.30044704  1
  P  P4  1  0.86579282  0.24732949  0.30044704  1
  P  P5  1  0.36579282  0.75267051  0.19955296  1
  P  P6  1  0.13420718  0.25267051  0.80044704  1
  P  P7  1  0.63420718  0.74732949  0.69955296  1
  P  P8  1  0.36836003  0.56662652  0.91556911  1
  P  P9  1  0.86836003  0.43337348  0.58443089  1
  P  P10  1  0.63163997  0.93337348  0.41556911  1
  P  P11  1  0.13163997  0.06662652  0.08443089  1
  P  P12  1  0.63163997  0.43337348  0.08443089  1
  P  P13  1  0.13163997  0.56662652  0.41556911  1
  P  P14  1  0.36836003  0.06662652  0.58443089  1
  P  P15  1  0.86836003  0.93337348  0.91556911  1
  P  P16  1  0.36732189  0.95480029  0.84401275  1
  P  P17  1  0.86732189  0.04519971  0.65598725  1
  P  P18  1  0.63267811  0.54519971  0.34401275  1
  P  P19  1  0.13267811  0.45480029  0.15598725  1
  P  P20  1  0.63267811  0.04519971  0.15598725  1
  P  P21  1  0.13267811  0.95480029  0.34401275  1
  P  P22  1  0.36732189  0.45480029  0.65598725  1
  P  P23  1  0.86732189  0.54519971  0.84401275  1
  H  H0  1  0.47653701  0.63204055  0.46047254  1
  H  H1  1  0.97653701  0.36795945  0.03952746  1
  H  H2  1  0.52346299  0.86795945  0.96047254  1
  H  H3  1  0.02346299  0.13204055  0.53952746  1
  H  H4  1  0.52346299  0.36795945  0.53952746  1
  H  H5  1  0.02346299  0.63204055  0.96047254  1
  H  H6  1  0.47653701  0.13204055  0.03952746  1
  H  H7  1  0.97653701  0.86795945  0.46047254  1
  H  H8  1  0.49332563  0.62820314  0.55737688  1
  H  H9  1  0.99332563  0.37179686  0.94262312  1
  H  H10  1  0.50667437  0.87179686  0.05737688  1
  H  H11  1  0.00667437  0.12820314  0.44262312  1
  H  H12  1  0.50667437  0.37179686  0.44262312  1
  H  H13  1  0.00667437  0.62820314  0.05737688  1
  H  H14  1  0.49332563  0.12820314  0.94262312  1
  H  H15  1  0.99332563  0.87179686  0.55737688  1
  H  H16  1  0.35146697  0.60603572  0.51725141  1
  H  H17  1  0.85146697  0.39396428  0.98274859  1
  H  H18  1  0.64853303  0.89396428  0.01725141  1
  H  H19  1  0.14853303  0.10603572  0.48274859  1
  H  H20  1  0.64853303  0.39396428  0.48274859  1
  H  H21  1  0.14853303  0.60603572  0.01725141  1
  H  H22  1  0.35146697  0.10603572  0.98274859  1
  H  H23  1  0.85146697  0.89396428  0.51725141  1
  H  H24  1  0.48497004  0.78915442  0.51350698  1
  H  H25  1  0.98497004  0.21084558  0.98649302  1
  H  H26  1  0.51502996  0.71084558  0.01350698  1
  H  H27  1  0.01502996  0.28915442  0.48649302  1
  H  H28  1  0.51502996  0.21084558  0.48649302  1
  H  H29  1  0.01502996  0.78915442  0.01350698  1
  H  H30  1  0.48497004  0.28915442  0.98649302  1
  H  H31  1  0.98497004  0.71084558  0.51350698  1
  H  H32  1  0.33563911  0.76447463  0.46726532  1
  H  H33  1  0.83563911  0.23552537  0.03273468  1
  H  H34  1  0.66436089  0.73552537  0.96726532  1
  H  H35  1  0.16436089  0.26447463  0.53273468  1
  H  H36  1  0.66436089  0.23552537  0.53273468  1
  H  H37  1  0.16436089  0.76447463  0.96726532  1
  H  H38  1  0.33563911  0.26447463  0.03273468  1
  H  H39  1  0.83563911  0.73552537  0.46726532  1
  H  H40  1  0.34572076  0.76076863  0.57034850  1
  H  H41  1  0.84572076  0.23923137  0.92965150  1
  H  H42  1  0.65427924  0.73923137  0.07034850  1
  H  H43  1  0.15427924  0.26076863  0.42965150  1
  H  H44  1  0.65427924  0.23923137  0.42965150  1
  H  H45  1  0.15427924  0.76076863  0.07034850  1
  H  H46  1  0.34572076  0.26076863  0.92965150  1
  H  H47  1  0.84572076  0.73923137  0.57034850  1
  C  C0  1  0.39734910  0.74763717  0.51639140  1
  C  C1  1  0.89734910  0.25236283  0.98360860  1
  C  C2  1  0.60265090  0.75236283  0.01639140  1
  C  C3  1  0.10265090  0.24763717  0.48360860  1
  C  C4  1  0.60265090  0.25236283  0.48360860  1
  C  C5  1  0.10265090  0.74763717  0.01639140  1
  C  C6  1  0.39734910  0.24763717  0.98360860  1
  C  C7  1  0.89734910  0.75236283  0.51639140  1
  N  N0  1  0.43266418  0.64726177  0.51265538  1
  N  N1  1  0.93266418  0.35273823  0.98734462  1
  N  N2  1  0.56733582  0.85273823  0.01265538  1
  N  N3  1  0.06733582  0.14726177  0.48734462  1
  N  N4  1  0.56733582  0.35273823  0.48734462  1
  N  N5  1  0.06733582  0.64726177  0.01265538  1
  N  N6  1  0.43266418  0.14726177  0.98734462  1
  N  N7  1  0.93266418  0.85273823  0.51265538  1
  O  O0  1  0.35145503  0.60421554  0.99864361  1
  O  O1  1  0.85145503  0.39578446  0.50135639  1
  O  O2  1  0.64854497  0.89578446  0.49864361  1
  O  O3  1  0.14854497  0.10421554  0.00135639  1
  O  O4  1  0.64854497  0.39578446  0.00135639  1
  O  O5  1  0.14854497  0.60421554  0.49864361  1
  O  O6  1  0.35145503  0.10421554  0.50135639  1
  O  O7  1  0.85145503  0.89578446  0.99864361  1
  O  O8  1  0.40286763  0.85087901  0.86375540  1
  O  O9  1  0.90286763  0.14912099  0.63624460  1
  O  O10  1  0.59713237  0.64912099  0.36375540  1
  O  O11  1  0.09713237  0.35087901  0.13624460  1
  O  O12  1  0.59713237  0.14912099  0.13624460  1
  O  O13  1  0.09713237  0.85087901  0.36375540  1
  O  O14  1  0.40286763  0.35087901  0.63624460  1
  O  O15  1  0.90286763  0.64912099  0.86375540  1
  O  O16  1  0.31773733  0.96457638  0.75980811  1
  O  O17  1  0.81773733  0.03542362  0.74019189  1
  O  O18  1  0.68226267  0.53542362  0.25980811  1
  O  O19  1  0.18226267  0.46457638  0.24019189  1
  O  O20  1  0.68226267  0.03542362  0.24019189  1
  O  O21  1  0.18226267  0.96457638  0.25980811  1
  O  O22  1  0.31773733  0.46457638  0.74019189  1
  O  O23  1  0.81773733  0.53542362  0.75980811  1
  O  O24  1  0.23225135  0.54490961  0.88495095  1
  O  O25  1  0.73225135  0.45509039  0.61504905  1
  O  O26  1  0.76774865  0.95509039  0.38495095  1
  O  O27  1  0.26774865  0.04490961  0.11504905  1
  O  O28  1  0.76774865  0.45509039  0.11504905  1
  O  O29  1  0.26774865  0.54490961  0.38495095  1
  O  O30  1  0.23225135  0.04490961  0.61504905  1
  O  O31  1  0.73225135  0.95509039  0.88495095  1
  O  O32  1  0.26674674  0.98443760  0.90546091  1
  O  O33  1  0.76674674  0.01556240  0.59453909  1
  O  O34  1  0.73325326  0.51556240  0.40546091  1
  O  O35  1  0.23325326  0.48443760  0.09453909  1
  O  O36  1  0.73325326  0.01556240  0.09453909  1
  O  O37  1  0.23325326  0.98443760  0.40546091  1
  O  O38  1  0.26674674  0.48443760  0.59453909  1
  O  O39  1  0.76674674  0.51556240  0.90546091  1
  O  O40  1  0.16712605  0.84764805  0.66324394  1
  O  O41  1  0.66712605  0.15235195  0.83675606  1
  O  O42  1  0.83287395  0.65235195  0.16324394  1
  O  O43  1  0.33287395  0.34764805  0.33675606  1
  O  O44  1  0.83287395  0.15235195  0.33675606  1
  O  O45  1  0.33287395  0.84764805  0.16324394  1
  O  O46  1  0.16712605  0.34764805  0.83675606  1
  O  O47  1  0.66712605  0.65235195  0.66324394  1
  O  O48  1  0.16439609  0.68219810  0.63511485  1
  O  O49  1  0.66439609  0.31780190  0.86488515  1
  O  O50  1  0.83560391  0.81780190  0.13511485  1
  O  O51  1  0.33560391  0.18219810  0.36488515  1
  O  O52  1  0.83560391  0.31780190  0.36488515  1
  O  O53  1  0.33560391  0.68219810  0.13511485  1
  O  O54  1  0.16439609  0.18219810  0.86488515  1
  O  O55  1  0.66439609  0.81780190  0.63511485  1
  O  O56  1  0.43353808  0.64448695  0.86609500  1
  O  O57  1  0.93353808  0.35551305  0.63390500  1
  O  O58  1  0.56646192  0.85551305  0.36609500  1
  O  O59  1  0.06646192  0.14448695  0.13390500  1
  O  O60  1  0.56646192  0.35551305  0.13390500  1
  O  O61  1  0.06646192  0.64448695  0.36609500  1
  O  O62  1  0.43353808  0.14448695  0.63390500  1
  O  O63  1  0.93353808  0.85551305  0.86609500  1
  O  O64  1  0.48771766  0.01469823  0.85788363  1
  O  O65  1  0.98771766  0.98530177  0.64211637  1
  O  O66  1  0.51228234  0.48530177  0.35788363  1
  O  O67  1  0.01228234  0.51469823  0.14211637  1
  O  O68  1  0.51228234  0.98530177  0.14211637  1
  O  O69  1  0.01228234  0.01469823  0.35788363  1
  O  O70  1  0.48771766  0.51469823  0.64211637  1
  O  O71  1  0.98771766  0.48530177  0.85788363  1
  O  O72  1  0.10105535  0.02332093  0.78491452  1
  O  O73  1  0.60105535  0.97667907  0.71508548  1
  O  O74  1  0.89894465  0.47667907  0.28491452  1
  O  O75  1  0.39894465  0.52332093  0.21508548  1
  O  O76  1  0.89894465  0.97667907  0.21508548  1
  O  O77  1  0.39894465  0.02332093  0.28491452  1
  O  O78  1  0.10105535  0.52332093  0.71508548  1
  O  O79  1  0.60105535  0.47667907  0.78491452  1
  O  O80  1  0.45174615  0.47802660  0.91469739  1
  O  O81  1  0.95174615  0.52197340  0.58530261  1
  O  O82  1  0.54825385  0.02197340  0.41469739  1
  O  O83  1  0.04825385  0.97802660  0.08530261  1
  O  O84  1  0.54825385  0.52197340  0.08530261  1
  O  O85  1  0.04825385  0.47802660  0.41469739  1
  O  O86  1  0.45174615  0.97802660  0.58530261  1
  O  O87  1  0.95174615  0.02197340  0.91469739  1
  O  O88  1  0.21352718  0.73396256  0.77446836  1
  O  O89  1  0.71352718  0.26603744  0.72553164  1
  O  O90  1  0.78647282  0.76603744  0.27446836  1
  O  O91  1  0.28647282  0.23396256  0.22553164  1
  O  O92  1  0.78647282  0.26603744  0.22553164  1
  O  O93  1  0.28647282  0.73396256  0.27446836  1
  O  O94  1  0.21352718  0.23396256  0.72553164  1
  O  O95  1  0.71352718  0.76603744  0.77446836  1
  O  O96  1  0.98933605  0.74850126  0.72033369  1
  O  O97  1  0.48933605  0.25149874  0.77966631  1
  O  O98  1  0.01066395  0.75149874  0.22033369  1
  O  O99  1  0.51066395  0.24850126  0.27966631  1
  O  O100  1  0.01066395  0.25149874  0.27966631  1
  O  O101  1  0.51066395  0.74850126  0.22033369  1
  O  O102  1  0.98933605  0.24850126  0.77966631  1
  O  O103  1  0.48933605  0.75149874  0.72033369  1
loop_
_geom_bond_atom_site_label_1
_geom_bond_atom_site_label_2
_geom_bond_distance
_geom_bond_site_symmetry_2
Ga0 O56 1.838000 1_555
Ga0 O103 1.842855 1_555
Ga0 O88 1.849767 1_555
Ga0 O8 1.858777 1_555
Ga1 O57 1.838000 1_555
Ga1 O102 1.842855 1_555
Ga1 O89 1.849767 1_555
Ga1 O9 1.858777 1_555
Ga2 O58 1.838000 1_555
Ga2 O101 1.842855 1_555
Ga2 O90 1.849767 1_555
Ga2 O10 1.858777 1_555
Ga3 O59 1.838000 1_555
Ga3 O100 1.842855 1_555
Ga3 O91 1.849767 1_555
Ga3 O11 1.858777 1_555
Ga4 O60 1.838000 1_555
Ga4 O99 1.842855 1_555
Ga4 O92 1.849767 1_555
Ga4 O12 1.858777 1_555
Ga5 O61 1.838000 1_555
Ga5 O98 1.842855 1_555
Ga5 O93 1.849767 1_555
Ga5 O13 1.858777 1_555
Ga6 O62 1.838000 1_555
Ga6 O97 1.842855 1_555
Ga6 O94 1.849767 1_555
Ga6 O14 1.858777 1_555
Ga7 O63 1.838000 1_555
Ga7 O96 1.842855 1_555
Ga7 O95 1.849767 1_555
Ga7 O15 1.858777 1_555
Ga8 O84 1.868391 1_555
Ga8 O35 1.882625 1_555
Ga8 O53 1.887966 1_555
Ga8 O0 1.965993 1_554
Ga8 O75 1.979336 1_555
Ga9 O85 1.868391 1_655
Ga9 O34 1.882625 1_555
Ga9 O52 1.887966 1_555
Ga9 O1 1.965993 1_555
Ga9 O74 1.979336 1_555
Ga10 O86 1.868391 1_555
Ga10 O33 1.882625 1_565
Ga10 O55 1.887966 1_555
Ga10 O2 1.965993 1_555
Ga10 O73 1.979336 1_555
Ga11 O87 1.868391 1_455
Ga11 O32 1.882625 1_545
Ga11 O54 1.887966 1_555
Ga11 O3 1.965993 1_556
Ga11 O72 1.979336 1_555
Ga12 O80 1.868391 1_555
Ga12 O39 1.882625 1_555
Ga12 O49 1.887966 1_555
Ga12 O4 1.965993 1_556
Ga12 O79 1.979336 1_555
Ga13 O81 1.868391 1_455
Ga13 O38 1.882625 1_555
Ga13 O48 1.887966 1_555
Ga13 O5 1.965993 1_555
Ga13 O78 1.979336 1_555
Ga14 O82 1.868391 1_555
Ga14 O37 1.882625 1_545
Ga14 O51 1.887966 1_555
Ga14 O6 1.965993 1_555
Ga14 O77 1.979336 1_555
Ga15 O83 1.868391 1_655
Ga15 O36 1.882625 1_565
Ga15 O50 1.887966 1_555
Ga15 O7 1.965993 1_554
Ga15 O76 1.979336 1_555
Ga16 O72 1.853491 1_565
Ga16 O30 1.863386 1_565
Ga16 O40 1.866100 1_555
Ga16 O65 1.966677 1_455
Ga16 O16 2.046585 1_555
Ga17 O73 1.853491 1_545
Ga17 O31 1.863386 1_545
Ga17 O41 1.866100 1_555
Ga17 O64 1.966677 1_555
Ga17 O17 2.046585 1_555
Ga18 O74 1.853491 1_555
Ga18 O28 1.863386 1_555
Ga18 O42 1.866100 1_555
Ga18 O67 1.966677 1_655
Ga18 O18 2.046585 1_555
Ga19 O75 1.853491 1_555
Ga19 O29 1.863386 1_555
Ga19 O43 1.866100 1_555
Ga19 O66 1.966677 1_555
Ga19 O19 2.046585 1_555
Ga20 O76 1.853491 1_545
Ga20 O26 1.863386 1_545
Ga20 O44 1.866100 1_555
Ga20 O69 1.966677 1_655
Ga20 O20 2.046585 1_555
Ga21 O77 1.853491 1_565
Ga21 O27 1.863386 1_565
Ga21 O45 1.866100 1_555
Ga21 O68 1.966677 1_555
Ga21 O21 2.046585 1_555
Ga22 O78 1.853491 1_555
Ga22 O24 1.863386 1_555
Ga22 O46 1.866100 1_555
Ga22 O71 1.966677 1_455
Ga22 O22 2.046585 1_555
Ga23 O79 1.853491 1_555
Ga23 O25 1.863386 1_555
Ga23 O47 1.866100 1_555
Ga23 O70 1.966677 1_555
Ga23 O23 2.046585 1_555
H0 N0 1.032901 1_555
H1 N1 1.032901 1_554
H2 N2 1.032901 1_556
H3 N3 1.032901 1_555
H4 N4 1.032901 1_555
H5 N5 1.032901 1_556
H6 N6 1.032901 1_554
H7 N7 1.032901 1_555
H8 N0 1.033913 1_555
H9 N1 1.033913 1_555
H10 N2 1.033913 1_555
H11 N3 1.033913 1_555
H12 N4 1.033913 1_555
H13 N5 1.033913 1_555
H14 N6 1.033913 1_555
H15 N7 1.033913 1_555
H16 N0 1.035401 1_555
H17 N1 1.035401 1_555
H18 N2 1.035401 1_555
H19 N3 1.035401 1_555
H20 N4 1.035401 1_555
H21 N5 1.035401 1_555
H22 N6 1.035401 1_555
H23 N7 1.035401 1_555
C0 H32 1.090597 1_555
C0 H24 1.091181 1_555
C0 H40 1.091278 1_555
C0 N0 1.491424 1_555
C1 H33 1.090597 1_556
C1 H25 1.091181 1_555
C1 H41 1.091278 1_555
C1 N1 1.491424 1_555
C2 H34 1.090597 1_554
C2 H26 1.091181 1_555
C2 H42 1.091278 1_555
C2 N2 1.491424 1_555
C3 H35 1.090597 1_555
C3 H27 1.091181 1_555
C3 H43 1.091278 1_555
C3 N3 1.491424 1_555
C4 H36 1.090597 1_555
C4 H28 1.091181 1_555
C4 H44 1.091278 1_555
C4 N4 1.491424 1_555
C5 H37 1.090597 1_554
C5 H29 1.091181 1_555
C5 H45 1.091278 1_555
C5 N5 1.491424 1_555
C6 H38 1.090597 1_556
C6 H30 1.091181 1_555
C6 H46 1.091278 1_555
C6 N6 1.491424 1_555
C7 H39 1.090597 1_555
C7 H31 1.091181 1_555
C7 H47 1.091278 1_555
C7 N7 1.491424 1_555
O0 P8 1.541901 1_555
O1 P9 1.541901 1_555
O2 P10 1.541901 1_555
O3 P11 1.541901 1_555
O4 P12 1.541901 1_555
O5 P13 1.541901 1_555
O6 P14 1.541901 1_555
O7 P15 1.541901 1_555
O8 P16 1.577306 1_555
O9 P17 1.577306 1_555
O10 P18 1.577306 1_555
O11 P19 1.577306 1_555
O12 P20 1.577306 1_555
O13 P21 1.577306 1_555
O14 P22 1.577306 1_555
O15 P23 1.577306 1_555
O16 P16 1.548035 1_555
O17 P17 1.548035 1_555
O18 P18 1.548035 1_555
O19 P19 1.548035 1_555
O20 P20 1.548035 1_555
O21 P21 1.548035 1_555
O22 P22 1.548035 1_555
O23 P23 1.548035 1_555
O24 P8 1.543688 1_555
O25 P9 1.543688 1_555
O26 P10 1.543688 1_555
O27 P11 1.543688 1_555
O28 P12 1.543688 1_555
O29 P13 1.543688 1_555
O30 P14 1.543688 1_555
O31 P15 1.543688 1_555
O32 P16 1.549556 1_555
O33 P17 1.549556 1_555
O34 P18 1.549556 1_555
O35 P19 1.549556 1_555
O36 P20 1.549556 1_555
O37 P21 1.549556 1_555
O38 P22 1.549556 1_555
O39 P23 1.549556 1_555
O40 P0 1.541635 1_555
O41 P1 1.541635 1_555
O42 P2 1.541635 1_555
O43 P3 1.541635 1_555
O44 P4 1.541635 1_555
O45 P5 1.541635 1_555
O46 P6 1.541635 1_555
O47 P7 1.541635 1_555
O48 P0 1.537004 1_555
O49 P1 1.537004 1_555
O50 P2 1.537004 1_555
O51 P3 1.537004 1_555
O52 P4 1.537004 1_555
O53 P5 1.537004 1_555
O54 P6 1.537004 1_555
O55 P7 1.537004 1_555
O56 P8 1.563079 1_555
O57 P9 1.563079 1_555
O58 P10 1.563079 1_555
O59 P11 1.563079 1_555
O60 P12 1.563079 1_555
O61 P13 1.563079 1_555
O62 P14 1.563079 1_555
O63 P15 1.563079 1_555
O64 P16 1.539355 1_545
O65 P17 1.539355 1_565
O66 P18 1.539355 1_555
O67 P19 1.539355 1_555
O68 P20 1.539355 1_565
O69 P21 1.539355 1_545
O70 P22 1.539355 1_555
O71 P23 1.539355 1_555
O80 P8 1.542032 1_555
O81 P9 1.542032 1_555
O82 P10 1.542032 1_545
O83 P11 1.542032 1_565
O84 P12 1.542032 1_555
O85 P13 1.542032 1_555
O86 P14 1.542032 1_565
O87 P15 1.542032 1_545
O88 P0 1.557001 1_555
O89 P1 1.557001 1_555
O90 P2 1.557001 1_555
O91 P3 1.557001 1_555
O92 P4 1.557001 1_555
O93 P5 1.557001 1_555
O94 P6 1.557001 1_555
O95 P7 1.557001 1_555
O96 P0 1.550843 1_655
O97 P1 1.550843 1_555
O98 P2 1.550843 1_455
O99 P3 1.550843 1_555
O100 P4 1.550843 1_455
O101 P5 1.550843 1_555
O102 P6 1.550843 1_655
O103 P7 1.550843 1_555
