# generated using pymatgen
data_MgSi2
_symmetry_space_group_name_H-M   'P 1'
_cell_length_a   5.55611000
_cell_length_b   15.41935200
_cell_length_c   18.63033507
_cell_angle_alpha   77.31943918
_cell_angle_beta   90.00000000
_cell_angle_gamma   90.00000000
_symmetry_Int_Tables_number   1
_chemical_formula_structural   MgSi2
_chemical_formula_sum   'Mg32 Si64'
_cell_volume   1557.16077848
_cell_formula_units_Z   32
loop_
 _symmetry_equiv_pos_site_id
 _symmetry_equiv_pos_as_xyz
  1  'x, y, z'
loop_
 _atom_site_type_symbol
 _atom_site_label
 _atom_site_symmetry_multiplicity
 _atom_site_fract_x
 _atom_site_fract_y
 _atom_site_fract_z
 _atom_site_occupancy
  Mg  Mg0_0  1  0.00000000  0.07307200  0.43035800  1
  Mg  Mg0_1  1  0.00000000  0.07307200  0.93035800  1
  Mg  Mg0_2  1  0.00000000  0.57307200  0.43035800  1
  Mg  Mg0_3  1  0.00000000  0.57307200  0.93035800  1
  Mg  Mg0_4  1  0.50000000  0.07307200  0.43035800  1
  Mg  Mg0_5  1  0.50000000  0.07307200  0.93035800  1
  Mg  Mg0_6  1  0.50000000  0.57307200  0.43035800  1
  Mg  Mg0_7  1  0.50000000  0.57307200  0.93035800  1
  Mg  Mg1_0  1  0.00000000  0.14487150  0.18425950  1
  Mg  Mg1_1  1  0.00000000  0.14487150  0.68425950  1
  Mg  Mg1_2  1  0.00000000  0.64487150  0.18425950  1
  Mg  Mg1_3  1  0.00000000  0.64487150  0.68425950  1
  Mg  Mg1_4  1  0.50000000  0.14487150  0.18425950  1
  Mg  Mg1_5  1  0.50000000  0.14487150  0.68425950  1
  Mg  Mg1_6  1  0.50000000  0.64487150  0.18425950  1
  Mg  Mg1_7  1  0.50000000  0.64487150  0.68425950  1
  Mg  Mg2_0  1  0.00000000  0.42692800  0.06964200  1
  Mg  Mg2_1  1  0.00000000  0.42692800  0.56964200  1
  Mg  Mg2_2  1  0.00000000  0.92692800  0.06964200  1
  Mg  Mg2_3  1  0.00000000  0.92692800  0.56964200  1
  Mg  Mg2_4  1  0.50000000  0.42692800  0.06964200  1
  Mg  Mg2_5  1  0.50000000  0.42692800  0.56964200  1
  Mg  Mg2_6  1  0.50000000  0.92692800  0.06964200  1
  Mg  Mg2_7  1  0.50000000  0.92692800  0.56964200  1
  Mg  Mg3_0  1  0.00000000  0.35512850  0.31574050  1
  Mg  Mg3_1  1  0.00000000  0.35512850  0.81574050  1
  Mg  Mg3_2  1  0.00000000  0.85512850  0.31574050  1
  Mg  Mg3_3  1  0.00000000  0.85512850  0.81574050  1
  Mg  Mg3_4  1  0.50000000  0.35512850  0.31574050  1
  Mg  Mg3_5  1  0.50000000  0.35512850  0.81574050  1
  Mg  Mg3_6  1  0.50000000  0.85512850  0.31574050  1
  Mg  Mg3_7  1  0.50000000  0.85512850  0.81574050  1
  Si  Si0_0  1  0.25000000  0.40541350  0.43747200  1
  Si  Si0_1  1  0.25000000  0.40541350  0.93747200  1
  Si  Si0_2  1  0.25000000  0.90541350  0.43747200  1
  Si  Si0_3  1  0.25000000  0.90541350  0.93747200  1
  Si  Si0_4  1  0.75000000  0.40541350  0.43747200  1
  Si  Si0_5  1  0.75000000  0.40541350  0.93747200  1
  Si  Si0_6  1  0.75000000  0.90541350  0.43747200  1
  Si  Si0_7  1  0.75000000  0.90541350  0.93747200  1
  Si  Si1_0  1  0.25000000  0.47761300  0.18930600  1
  Si  Si1_1  1  0.25000000  0.47761300  0.68930600  1
  Si  Si1_2  1  0.25000000  0.97761300  0.18930600  1
  Si  Si1_3  1  0.25000000  0.97761300  0.68930600  1
  Si  Si1_4  1  0.75000000  0.47761300  0.18930600  1
  Si  Si1_5  1  0.75000000  0.47761300  0.68930600  1
  Si  Si1_6  1  0.75000000  0.97761300  0.18930600  1
  Si  Si1_7  1  0.75000000  0.97761300  0.68930600  1
  Si  Si2_0  1  0.25000000  0.26594650  0.06284100  1
  Si  Si2_1  1  0.25000000  0.26594650  0.56284100  1
  Si  Si2_2  1  0.25000000  0.76594650  0.06284100  1
  Si  Si2_3  1  0.25000000  0.76594650  0.56284100  1
  Si  Si2_4  1  0.75000000  0.26594650  0.06284100  1
  Si  Si2_5  1  0.75000000  0.26594650  0.56284100  1
  Si  Si2_6  1  0.75000000  0.76594650  0.06284100  1
  Si  Si2_7  1  0.75000000  0.76594650  0.56284100  1
  Si  Si3_0  1  0.25000000  0.19145800  0.30848400  1
  Si  Si3_1  1  0.25000000  0.19145800  0.80848400  1
  Si  Si3_2  1  0.25000000  0.69145800  0.30848400  1
  Si  Si3_3  1  0.25000000  0.69145800  0.80848400  1
  Si  Si3_4  1  0.75000000  0.19145800  0.30848400  1
  Si  Si3_5  1  0.75000000  0.19145800  0.80848400  1
  Si  Si3_6  1  0.75000000  0.69145800  0.30848400  1
  Si  Si3_7  1  0.75000000  0.69145800  0.80848400  1
  Si  Si4_0  1  0.25000000  0.09458650  0.06252800  1
  Si  Si4_1  1  0.25000000  0.09458650  0.56252800  1
  Si  Si4_2  1  0.25000000  0.59458650  0.06252800  1
  Si  Si4_3  1  0.25000000  0.59458650  0.56252800  1
  Si  Si4_4  1  0.75000000  0.09458650  0.06252800  1
  Si  Si4_5  1  0.75000000  0.09458650  0.56252800  1
  Si  Si4_6  1  0.75000000  0.59458650  0.06252800  1
  Si  Si4_7  1  0.75000000  0.59458650  0.56252800  1
  Si  Si5_0  1  0.25000000  0.02238700  0.31069400  1
  Si  Si5_1  1  0.25000000  0.02238700  0.81069400  1
  Si  Si5_2  1  0.25000000  0.52238700  0.31069400  1
  Si  Si5_3  1  0.25000000  0.52238700  0.81069400  1
  Si  Si5_4  1  0.75000000  0.02238700  0.31069400  1
  Si  Si5_5  1  0.75000000  0.02238700  0.81069400  1
  Si  Si5_6  1  0.75000000  0.52238700  0.31069400  1
  Si  Si5_7  1  0.75000000  0.52238700  0.81069400  1
  Si  Si6_0  1  0.25000000  0.23405350  0.43715900  1
  Si  Si6_1  1  0.25000000  0.23405350  0.93715900  1
  Si  Si6_2  1  0.25000000  0.73405350  0.43715900  1
  Si  Si6_3  1  0.25000000  0.73405350  0.93715900  1
  Si  Si6_4  1  0.75000000  0.23405350  0.43715900  1
  Si  Si6_5  1  0.75000000  0.23405350  0.93715900  1
  Si  Si6_6  1  0.75000000  0.73405350  0.43715900  1
  Si  Si6_7  1  0.75000000  0.73405350  0.93715900  1
  Si  Si7_0  1  0.25000000  0.30854200  0.19151600  1
  Si  Si7_1  1  0.25000000  0.30854200  0.69151600  1
  Si  Si7_2  1  0.25000000  0.80854200  0.19151600  1
  Si  Si7_3  1  0.25000000  0.80854200  0.69151600  1
  Si  Si7_4  1  0.75000000  0.30854200  0.19151600  1
  Si  Si7_5  1  0.75000000  0.30854200  0.69151600  1
  Si  Si7_6  1  0.75000000  0.80854200  0.19151600  1
  Si  Si7_7  1  0.75000000  0.80854200  0.69151600  1
loop_
_geom_bond_atom_site_label_1
_geom_bond_atom_site_label_2
_geom_bond_distance
_geom_bond_site_symmetry_2
Mg0_0 Mg0_4 2.778055 1_555
Mg0_0 Mg0_4 2.778055 1_455
Mg0_0 Si6_4 2.871411 1_455
Mg0_0 Si6_0 2.871411 1_555
Mg0_0 Si5_4 2.876675 1_455
Mg0_0 Si5_0 2.876675 1_555
Mg0_0 Si4_1 2.908840 1_555
Mg0_0 Si4_5 2.908840 1_455
Mg0_0 Si0_6 2.911996 1_445
Mg0_0 Si0_2 2.911996 1_545
Mg0_0 Si3_4 2.932124 1_455
Mg0_0 Si3_0 2.932124 1_555
Mg0_0 Mg2_3 3.040451 1_545
Mg0_1 Mg0_5 2.778055 1_555
Mg0_1 Mg0_5 2.778055 1_455
Mg0_1 Si6_5 2.871411 1_455
Mg0_1 Si6_1 2.871411 1_555
Mg0_1 Si5_1 2.876675 1_555
Mg0_1 Si5_5 2.876675 1_455
Mg0_1 Si4_4 2.908840 1_456
Mg0_1 Si4_0 2.908840 1_556
Mg0_1 Si0_3 2.911996 1_545
Mg0_1 Si0_7 2.911996 1_445
Mg0_1 Si3_5 2.932124 1_455
Mg0_1 Si3_1 2.932124 1_555
Mg0_1 Mg2_2 3.040451 1_546
Mg0_2 Mg0_6 2.778055 1_555
Mg0_2 Mg0_6 2.778055 1_455
Mg0_2 Si6_6 2.871411 1_455
Mg0_2 Si6_2 2.871411 1_555
Mg0_2 Si5_6 2.876675 1_455
Mg0_2 Si5_2 2.876675 1_555
Mg0_2 Si4_3 2.908840 1_555
Mg0_2 Si4_7 2.908840 1_455
Mg0_2 Si0_0 2.911996 1_555
Mg0_2 Si0_4 2.911996 1_455
Mg0_2 Si3_2 2.932124 1_555
Mg0_2 Si3_6 2.932124 1_455
Mg0_2 Mg2_1 3.040451 1_555
Mg0_3 Mg0_7 2.778055 1_455
Mg0_3 Mg0_7 2.778055 1_555
Mg0_3 Si6_3 2.871411 1_555
Mg0_3 Si6_7 2.871411 1_455
Mg0_3 Si5_3 2.876675 1_555
Mg0_3 Si5_7 2.876675 1_455
Mg0_3 Si4_2 2.908840 1_556
Mg0_3 Si4_6 2.908840 1_456
Mg0_3 Si0_5 2.911996 1_455
Mg0_3 Si0_1 2.911996 1_555
Mg0_3 Si3_7 2.932124 1_455
Mg0_3 Si3_3 2.932124 1_555
Mg0_3 Mg2_0 3.040451 1_556
Mg0_4 Si6_4 2.871411 1_555
Mg0_4 Si6_0 2.871411 1_555
Mg0_4 Si5_4 2.876675 1_555
Mg0_4 Si5_0 2.876675 1_555
Mg0_4 Si4_5 2.908840 1_555
Mg0_4 Si4_1 2.908840 1_555
Mg0_4 Si0_6 2.911996 1_545
Mg0_4 Si0_2 2.911996 1_545
Mg0_4 Si3_0 2.932124 1_555
Mg0_4 Si3_4 2.932124 1_555
Mg0_4 Mg2_7 3.040451 1_545
Mg0_5 Si6_1 2.871411 1_555
Mg0_5 Si6_5 2.871411 1_555
Mg0_5 Si5_5 2.876675 1_555
Mg0_5 Si5_1 2.876675 1_555
Mg0_5 Si4_0 2.908840 1_556
Mg0_5 Si4_4 2.908840 1_556
Mg0_5 Si0_3 2.911996 1_545
Mg0_5 Si0_7 2.911996 1_545
Mg0_5 Si3_5 2.932124 1_555
Mg0_5 Si3_1 2.932124 1_555
Mg0_5 Mg2_6 3.040451 1_546
Mg0_6 Si6_2 2.871411 1_555
Mg0_6 Si6_6 2.871411 1_555
Mg0_6 Si5_6 2.876675 1_555
Mg0_6 Si5_2 2.876675 1_555
Mg0_6 Si4_3 2.908840 1_555
Mg0_6 Si4_7 2.908840 1_555
Mg0_6 Si0_0 2.911996 1_555
Mg0_6 Si0_4 2.911996 1_555
Mg0_6 Si3_2 2.932124 1_555
Mg0_6 Si3_6 2.932124 1_555
Mg0_6 Mg2_5 3.040451 1_555
Mg0_7 Si6_3 2.871411 1_555
Mg0_7 Si6_7 2.871411 1_555
Mg0_7 Si5_3 2.876675 1_555
Mg0_7 Si5_7 2.876675 1_555
Mg0_7 Si4_2 2.908840 1_556
Mg0_7 Si4_6 2.908840 1_556
Mg0_7 Si0_1 2.911996 1_555
Mg0_7 Si0_5 2.911996 1_555
Mg0_7 Si3_3 2.932124 1_555
Mg0_7 Si3_7 2.932124 1_555
Mg0_7 Mg2_4 3.040451 1_556
Mg1_0 Mg1_4 2.778055 1_555
Mg1_0 Mg1_4 2.778055 1_455
Mg1_0 Si4_4 2.906193 1_455
Mg1_0 Si4_0 2.906193 1_555
Mg1_0 Si7_0 2.909723 1_555
Mg1_0 Si7_4 2.909723 1_455
Mg1_0 Si1_2 2.912579 1_545
Mg1_0 Si1_6 2.912579 1_445
Mg1_0 Si3_4 2.920867 1_455
Mg1_0 Si3_0 2.920867 1_555
Mg1_0 Si2_0 2.945778 1_555
Mg1_0 Si2_4 2.945778 1_455
Mg1_0 Si5_0 3.015240 1_555
Mg1_0 Si5_4 3.015240 1_455
Mg1_1 Mg1_5 2.778055 1_455
Mg1_1 Mg1_5 2.778055 1_555
Mg1_1 Si4_5 2.906193 1_455
Mg1_1 Si4_1 2.906193 1_555
Mg1_1 Si7_5 2.909723 1_455
Mg1_1 Si7_1 2.909723 1_555
Mg1_1 Si1_7 2.912579 1_445
Mg1_1 Si1_3 2.912579 1_545
Mg1_1 Si3_1 2.920867 1_555
Mg1_1 Si3_5 2.920867 1_455
Mg1_1 Si2_1 2.945778 1_555
Mg1_1 Si2_5 2.945778 1_455
Mg1_1 Si5_5 3.015240 1_455
Mg1_1 Si5_1 3.015240 1_555
Mg1_2 Mg1_6 2.778055 1_455
Mg1_2 Mg1_6 2.778055 1_555
Mg1_2 Si4_6 2.906193 1_455
Mg1_2 Si4_2 2.906193 1_555
Mg1_2 Si7_2 2.909723 1_555
Mg1_2 Si7_6 2.909723 1_455
Mg1_2 Si1_4 2.912579 1_455
Mg1_2 Si1_0 2.912579 1_555
Mg1_2 Si3_6 2.920867 1_455
Mg1_2 Si3_2 2.920867 1_555
Mg1_2 Si2_6 2.945778 1_455
Mg1_2 Si2_2 2.945778 1_555
Mg1_2 Si5_2 3.015240 1_555
Mg1_2 Si5_6 3.015240 1_455
Mg1_3 Mg1_7 2.778055 1_555
Mg1_3 Mg1_7 2.778055 1_455
Mg1_3 Si4_7 2.906193 1_455
Mg1_3 Si4_3 2.906193 1_555
Mg1_3 Si7_3 2.909723 1_555
Mg1_3 Si7_7 2.909723 1_455
Mg1_3 Si1_1 2.912579 1_555
Mg1_3 Si1_5 2.912579 1_455
Mg1_3 Si3_3 2.920867 1_555
Mg1_3 Si3_7 2.920867 1_455
Mg1_3 Si2_7 2.945778 1_455
Mg1_3 Si2_3 2.945778 1_555
Mg1_3 Si5_3 3.015240 1_555
Mg1_3 Si5_7 3.015240 1_455
Mg1_4 Si4_0 2.906193 1_555
Mg1_4 Si4_4 2.906193 1_555
Mg1_4 Si7_0 2.909723 1_555
Mg1_4 Si7_4 2.909723 1_555
Mg1_4 Si1_2 2.912579 1_545
Mg1_4 Si1_6 2.912579 1_545
Mg1_4 Si3_0 2.920867 1_555
Mg1_4 Si3_4 2.920867 1_555
Mg1_4 Si2_0 2.945778 1_555
Mg1_4 Si2_4 2.945778 1_555
Mg1_4 Si5_4 3.015240 1_555
Mg1_4 Si5_0 3.015240 1_555
Mg1_5 Si4_5 2.906193 1_555
Mg1_5 Si4_1 2.906193 1_555
Mg1_5 Si7_1 2.909723 1_555
Mg1_5 Si7_5 2.909723 1_555
Mg1_5 Si1_3 2.912579 1_545
Mg1_5 Si1_7 2.912579 1_545
Mg1_5 Si3_1 2.920867 1_555
Mg1_5 Si3_5 2.920867 1_555
Mg1_5 Si2_1 2.945778 1_555
Mg1_5 Si2_5 2.945778 1_555
Mg1_5 Si5_5 3.015240 1_555
Mg1_5 Si5_1 3.015240 1_555
Mg1_6 Si4_2 2.906193 1_555
Mg1_6 Si4_6 2.906193 1_555
Mg1_6 Si7_6 2.909723 1_555
Mg1_6 Si7_2 2.909723 1_555
Mg1_6 Si1_0 2.912579 1_555
Mg1_6 Si1_4 2.912579 1_555
Mg1_6 Si3_6 2.920867 1_555
Mg1_6 Si3_2 2.920867 1_555
Mg1_6 Si2_6 2.945778 1_555
Mg1_6 Si2_2 2.945778 1_555
Mg1_6 Si5_6 3.015240 1_555
Mg1_6 Si5_2 3.015240 1_555
Mg1_7 Si4_3 2.906193 1_555
Mg1_7 Si4_7 2.906193 1_555
Mg1_7 Si7_3 2.909723 1_555
Mg1_7 Si7_7 2.909723 1_555
Mg1_7 Si1_1 2.912579 1_555
Mg1_7 Si1_5 2.912579 1_555
Mg1_7 Si3_3 2.920867 1_555
Mg1_7 Si3_7 2.920867 1_555
Mg1_7 Si2_3 2.945778 1_555
Mg1_7 Si2_7 2.945778 1_555
Mg1_7 Si5_3 3.015240 1_555
Mg1_7 Si5_7 3.015240 1_555
Mg2_0 Mg2_4 2.778055 1_455
Mg2_0 Mg2_4 2.778055 1_555
Mg2_0 Si2_0 2.871411 1_555
Mg2_0 Si2_4 2.871411 1_455
Mg2_0 Si1_0 2.876675 1_555
Mg2_0 Si1_4 2.876675 1_455
Mg2_0 Si0_1 2.908840 1_554
Mg2_0 Si0_5 2.908840 1_454
Mg2_0 Si4_2 2.911996 1_555
Mg2_0 Si4_6 2.911996 1_455
Mg2_0 Si7_0 2.932124 1_555
Mg2_0 Si7_4 2.932124 1_455
Mg2_1 Mg2_5 2.778055 1_555
Mg2_1 Mg2_5 2.778055 1_455
Mg2_1 Si2_1 2.871411 1_555
Mg2_1 Si2_5 2.871411 1_455
Mg2_1 Si1_5 2.876675 1_455
Mg2_1 Si1_1 2.876675 1_555
Mg2_1 Si0_0 2.908840 1_555
Mg2_1 Si0_4 2.908840 1_455
Mg2_1 Si4_7 2.911996 1_455
Mg2_1 Si4_3 2.911996 1_555
Mg2_1 Si7_1 2.932124 1_555
Mg2_1 Si7_5 2.932124 1_455
Mg2_2 Mg2_6 2.778055 1_555
Mg2_2 Mg2_6 2.778055 1_455
Mg2_2 Si2_2 2.871411 1_555
Mg2_2 Si2_6 2.871411 1_455
Mg2_2 Si1_2 2.876675 1_555
Mg2_2 Si1_6 2.876675 1_455
Mg2_2 Si0_3 2.908840 1_554
Mg2_2 Si0_7 2.908840 1_454
Mg2_2 Si4_0 2.911996 1_565
Mg2_2 Si4_4 2.911996 1_465
Mg2_2 Si7_2 2.932124 1_555
Mg2_2 Si7_6 2.932124 1_455
Mg2_3 Mg2_7 2.778055 1_455
Mg2_3 Mg2_7 2.778055 1_555
Mg2_3 Si2_3 2.871411 1_555
Mg2_3 Si2_7 2.871411 1_455
Mg2_3 Si1_7 2.876675 1_455
Mg2_3 Si1_3 2.876675 1_555
Mg2_3 Si0_2 2.908840 1_555
Mg2_3 Si0_6 2.908840 1_455
Mg2_3 Si4_5 2.911996 1_465
Mg2_3 Si4_1 2.911996 1_565
Mg2_3 Si7_7 2.932124 1_455
Mg2_3 Si7_3 2.932124 1_555
Mg2_4 Si2_0 2.871411 1_555
Mg2_4 Si2_4 2.871411 1_555
Mg2_4 Si1_0 2.876675 1_555
Mg2_4 Si1_4 2.876675 1_555
Mg2_4 Si0_1 2.908840 1_554
Mg2_4 Si0_5 2.908840 1_554
Mg2_4 Si4_2 2.911996 1_555
Mg2_4 Si4_6 2.911996 1_555
Mg2_4 Si7_0 2.932124 1_555
Mg2_4 Si7_4 2.932124 1_555
Mg2_5 Si2_1 2.871411 1_555
Mg2_5 Si2_5 2.871411 1_555
Mg2_5 Si1_1 2.876675 1_555
Mg2_5 Si1_5 2.876675 1_555
Mg2_5 Si0_0 2.908840 1_555
Mg2_5 Si0_4 2.908840 1_555
Mg2_5 Si4_7 2.911996 1_555
Mg2_5 Si4_3 2.911996 1_555
Mg2_5 Si7_1 2.932124 1_555
Mg2_5 Si7_5 2.932124 1_555
Mg2_6 Si2_6 2.871411 1_555
Mg2_6 Si2_2 2.871411 1_555
Mg2_6 Si1_2 2.876675 1_555
Mg2_6 Si1_6 2.876675 1_555
Mg2_6 Si0_3 2.908840 1_554
Mg2_6 Si0_7 2.908840 1_554
Mg2_6 Si4_0 2.911996 1_565
Mg2_6 Si4_4 2.911996 1_565
Mg2_6 Si7_2 2.932124 1_555
Mg2_6 Si7_6 2.932124 1_555
Mg2_7 Si2_3 2.871411 1_555
Mg2_7 Si2_7 2.871411 1_555
Mg2_7 Si1_7 2.876675 1_555
Mg2_7 Si1_3 2.876675 1_555
Mg2_7 Si0_2 2.908840 1_555
Mg2_7 Si0_6 2.908840 1_555
Mg2_7 Si4_5 2.911996 1_565
Mg2_7 Si4_1 2.911996 1_565
Mg2_7 Si7_7 2.932124 1_555
Mg2_7 Si7_3 2.932124 1_555
Mg3_0 Mg3_4 2.778055 1_555
Mg3_0 Mg3_4 2.778055 1_455
Mg3_0 Si0_0 2.906193 1_555
Mg3_0 Si0_4 2.906193 1_455
Mg3_0 Si3_0 2.909723 1_555
Mg3_0 Si3_4 2.909723 1_455
Mg3_0 Si5_2 2.912579 1_555
Mg3_0 Si5_6 2.912579 1_455
Mg3_0 Si7_0 2.920867 1_555
Mg3_0 Si7_4 2.920867 1_455
Mg3_0 Si6_4 2.945778 1_455
Mg3_0 Si6_0 2.945778 1_555
Mg3_0 Si1_4 3.015240 1_455
Mg3_0 Si1_0 3.015240 1_555
Mg3_1 Mg3_5 2.778055 1_455
Mg3_1 Mg3_5 2.778055 1_555
Mg3_1 Si0_1 2.906193 1_555
Mg3_1 Si0_5 2.906193 1_455
Mg3_1 Si3_5 2.909723 1_455
Mg3_1 Si3_1 2.909723 1_555
Mg3_1 Si5_3 2.912579 1_555
Mg3_1 Si5_7 2.912579 1_455
Mg3_1 Si7_5 2.920867 1_455
Mg3_1 Si7_1 2.920867 1_555
Mg3_1 Si6_1 2.945778 1_555
Mg3_1 Si6_5 2.945778 1_455
Mg3_1 Si1_5 3.015240 1_455
Mg3_1 Si1_1 3.015240 1_555
Mg3_2 Mg3_6 2.778055 1_555
Mg3_2 Mg3_6 2.778055 1_455
Mg3_2 Si0_6 2.906193 1_455
Mg3_2 Si0_2 2.906193 1_555
Mg3_2 Si3_2 2.909723 1_555
Mg3_2 Si3_6 2.909723 1_455
Mg3_2 Si5_0 2.912579 1_565
Mg3_2 Si5_4 2.912579 1_465
Mg3_2 Si7_6 2.920867 1_455
Mg3_2 Si7_2 2.920867 1_555
Mg3_2 Si6_2 2.945778 1_555
Mg3_2 Si6_6 2.945778 1_455
Mg3_2 Si1_2 3.015240 1_555
Mg3_2 Si1_6 3.015240 1_455
Mg3_3 Mg3_7 2.778055 1_555
Mg3_3 Mg3_7 2.778055 1_455
Mg3_3 Si0_3 2.906193 1_555
Mg3_3 Si0_7 2.906193 1_455
Mg3_3 Si3_7 2.909723 1_455
Mg3_3 Si3_3 2.909723 1_555
Mg3_3 Si5_1 2.912579 1_565
Mg3_3 Si5_5 2.912579 1_465
Mg3_3 Si7_3 2.920867 1_555
Mg3_3 Si7_7 2.920867 1_455
Mg3_3 Si6_7 2.945778 1_455
Mg3_3 Si6_3 2.945778 1_555
Mg3_3 Si1_3 3.015240 1_555
Mg3_3 Si1_7 3.015240 1_455
Mg3_4 Si0_4 2.906193 1_555
Mg3_4 Si0_0 2.906193 1_555
Mg3_4 Si3_0 2.909723 1_555
Mg3_4 Si3_4 2.909723 1_555
Mg3_4 Si5_2 2.912579 1_555
Mg3_4 Si5_6 2.912579 1_555
Mg3_4 Si7_0 2.920867 1_555
Mg3_4 Si7_4 2.920867 1_555
Mg3_4 Si6_0 2.945778 1_555
Mg3_4 Si6_4 2.945778 1_555
Mg3_4 Si1_4 3.015240 1_555
Mg3_4 Si1_0 3.015240 1_555
Mg3_5 Si0_1 2.906193 1_555
Mg3_5 Si0_5 2.906193 1_555
Mg3_5 Si3_5 2.909723 1_555
Mg3_5 Si3_1 2.909723 1_555
Mg3_5 Si5_3 2.912579 1_555
Mg3_5 Si5_7 2.912579 1_555
Mg3_5 Si7_5 2.920867 1_555
Mg3_5 Si7_1 2.920867 1_555
Mg3_5 Si6_1 2.945778 1_555
Mg3_5 Si6_5 2.945778 1_555
Mg3_5 Si1_1 3.015240 1_555
Mg3_5 Si1_5 3.015240 1_555
Mg3_6 Si0_6 2.906193 1_555
Mg3_6 Si0_2 2.906193 1_555
Mg3_6 Si3_2 2.909723 1_555
Mg3_6 Si3_6 2.909723 1_555
Mg3_6 Si5_4 2.912579 1_565
Mg3_6 Si5_0 2.912579 1_565
Mg3_6 Si7_2 2.920867 1_555
Mg3_6 Si7_6 2.920867 1_555
Mg3_6 Si6_2 2.945778 1_555
Mg3_6 Si6_6 2.945778 1_555
Mg3_6 Si1_2 3.015240 1_555
Mg3_6 Si1_6 3.015240 1_555
Mg3_7 Si0_3 2.906193 1_555
Mg3_7 Si0_7 2.906193 1_555
Mg3_7 Si3_7 2.909723 1_555
Mg3_7 Si3_3 2.909723 1_555
Mg3_7 Si5_1 2.912579 1_565
Mg3_7 Si5_5 2.912579 1_565
Mg3_7 Si7_3 2.920867 1_555
Mg3_7 Si7_7 2.920867 1_555
Mg3_7 Si6_7 2.945778 1_555
Mg3_7 Si6_3 2.945778 1_555
Mg3_7 Si1_3 3.015240 1_555
Mg3_7 Si1_7 3.015240 1_555
Si0_0 Si5_2 2.638469 1_555
Si0_0 Si6_0 2.643546 1_555
Si0_0 Si0_4 2.778055 1_455
Si0_0 Si0_4 2.778055 1_555
Si0_0 Si2_1 2.806203 1_555
Si0_1 Si5_3 2.638469 1_555
Si0_1 Si6_1 2.643546 1_555
Si0_1 Si0_5 2.778055 1_455
Si0_1 Si0_5 2.778055 1_555
Si0_1 Si2_0 2.806203 1_556
Si0_2 Si5_0 2.638469 1_565
Si0_2 Si6_2 2.643546 1_555
Si0_2 Si0_6 2.778055 1_455
Si0_2 Si0_6 2.778055 1_555
Si0_2 Si2_3 2.806203 1_555
Si0_3 Si5_1 2.638469 1_565
Si0_3 Si6_3 2.643546 1_555
Si0_3 Si0_7 2.778055 1_555
Si0_3 Si0_7 2.778055 1_455
Si0_3 Si2_2 2.806203 1_556
Si0_4 Si5_6 2.638469 1_555
Si0_4 Si6_4 2.643546 1_555
Si0_4 Si2_5 2.806203 1_555
Si0_5 Si5_7 2.638469 1_555
Si0_5 Si6_5 2.643546 1_555
Si0_5 Si2_4 2.806203 1_556
Si0_6 Si5_4 2.638469 1_565
Si0_6 Si6_6 2.643546 1_555
Si0_6 Si2_7 2.806203 1_555
Si0_7 Si5_5 2.638469 1_565
Si0_7 Si6_7 2.643546 1_555
Si0_7 Si2_6 2.806203 1_556
Si1_0 Si5_2 2.505289 1_555
Si1_0 Si7_0 2.598238 1_555
Si1_0 Si4_2 2.638469 1_555
Si1_0 Si1_4 2.778055 1_455
Si1_0 Si1_4 2.778055 1_555
Si1_1 Si5_3 2.505289 1_555
Si1_1 Si7_1 2.598238 1_555
Si1_1 Si4_3 2.638469 1_555
Si1_1 Si1_5 2.778055 1_555
Si1_1 Si1_5 2.778055 1_455
Si1_2 Si5_0 2.505289 1_565
Si1_2 Si7_2 2.598238 1_555
Si1_2 Si4_0 2.638469 1_565
Si1_2 Si1_6 2.778055 1_555
Si1_2 Si1_6 2.778055 1_455
Si1_3 Si5_1 2.505289 1_565
Si1_3 Si7_3 2.598238 1_555
Si1_3 Si4_1 2.638469 1_565
Si1_3 Si1_7 2.778055 1_455
Si1_3 Si1_7 2.778055 1_555
Si1_4 Si5_6 2.505289 1_555
Si1_4 Si7_4 2.598238 1_555
Si1_4 Si4_6 2.638469 1_555
Si1_5 Si5_7 2.505289 1_555
Si1_5 Si7_5 2.598238 1_555
Si1_5 Si4_7 2.638469 1_555
Si1_6 Si5_4 2.505289 1_565
Si1_6 Si7_6 2.598238 1_555
Si1_6 Si4_4 2.638469 1_565
Si1_7 Si5_5 2.505289 1_565
Si1_7 Si7_7 2.598238 1_555
Si1_7 Si4_5 2.638469 1_565
Si2_0 Si6_1 2.495993 1_554
Si2_0 Si7_0 2.620970 1_555
Si2_0 Si4_0 2.643546 1_555
Si2_0 Si2_4 2.778055 1_555
Si2_0 Si2_4 2.778055 1_455
Si2_1 Si6_0 2.495993 1_555
Si2_1 Si7_1 2.620970 1_555
Si2_1 Si4_1 2.643546 1_555
Si2_1 Si2_5 2.778055 1_455
Si2_1 Si2_5 2.778055 1_555
Si2_2 Si6_3 2.495993 1_554
Si2_2 Si7_2 2.620970 1_555
Si2_2 Si4_2 2.643546 1_555
Si2_2 Si2_6 2.778055 1_455
Si2_2 Si2_6 2.778055 1_555
Si2_3 Si6_2 2.495993 1_555
Si2_3 Si7_3 2.620970 1_555
Si2_3 Si4_3 2.643546 1_555
Si2_3 Si2_7 2.778055 1_555
Si2_3 Si2_7 2.778055 1_455
Si2_4 Si6_5 2.495993 1_554
Si2_4 Si7_4 2.620970 1_555
Si2_4 Si4_4 2.643546 1_555
Si2_5 Si6_4 2.495993 1_555
Si2_5 Si7_5 2.620970 1_555
Si2_5 Si4_5 2.643546 1_555
Si2_6 Si6_7 2.495993 1_554
Si2_6 Si7_6 2.620970 1_555
Si2_6 Si4_6 2.643546 1_555
Si2_7 Si6_6 2.495993 1_555
Si2_7 Si7_7 2.620970 1_555
Si2_7 Si4_7 2.643546 1_555
Si3_0 Si7_0 2.506156 1_555
Si3_0 Si5_0 2.598238 1_555
Si3_0 Si6_0 2.620970 1_555
Si3_0 Si3_4 2.778055 1_455
Si3_0 Si3_4 2.778055 1_555
Si3_1 Si7_1 2.506156 1_555
Si3_1 Si5_1 2.598238 1_555
Si3_1 Si6_1 2.620970 1_555
Si3_1 Si3_5 2.778055 1_555
Si3_1 Si3_5 2.778055 1_455
Si3_2 Si7_2 2.506156 1_555
Si3_2 Si5_2 2.598238 1_555
Si3_2 Si6_2 2.620970 1_555
Si3_2 Si3_6 2.778055 1_455
Si3_2 Si3_6 2.778055 1_555
Si3_3 Si7_3 2.506156 1_555
Si3_3 Si5_3 2.598238 1_555
Si3_3 Si6_3 2.620970 1_555
Si3_3 Si3_7 2.778055 1_455
Si3_3 Si3_7 2.778055 1_555
Si3_4 Si7_4 2.506156 1_555
Si3_4 Si5_4 2.598238 1_555
Si3_4 Si6_4 2.620970 1_555
Si3_5 Si7_5 2.506156 1_555
Si3_5 Si5_5 2.598238 1_555
Si3_5 Si6_5 2.620970 1_555
Si3_6 Si7_6 2.506156 1_555
Si3_6 Si5_6 2.598238 1_555
Si3_6 Si6_6 2.620970 1_555
Si3_7 Si7_7 2.506156 1_555
Si3_7 Si5_7 2.598238 1_555
Si3_7 Si6_7 2.620970 1_555
Si4_0 Si4_4 2.778055 1_555
Si4_0 Si4_4 2.778055 1_455
Si4_0 Si6_1 2.806203 1_554
Si4_1 Si4_5 2.778055 1_455
Si4_1 Si4_5 2.778055 1_555
Si4_1 Si6_0 2.806203 1_555
Si4_2 Si4_6 2.778055 1_455
Si4_2 Si4_6 2.778055 1_555
Si4_2 Si6_3 2.806203 1_554
Si4_3 Si4_7 2.778055 1_555
Si4_3 Si4_7 2.778055 1_455
Si4_3 Si6_2 2.806203 1_555
Si4_4 Si6_5 2.806203 1_554
Si4_5 Si6_4 2.806203 1_555
Si4_6 Si6_7 2.806203 1_554
Si4_7 Si6_6 2.806203 1_555
Si5_0 Si5_4 2.778055 1_555
Si5_0 Si5_4 2.778055 1_455
Si5_1 Si5_5 2.778055 1_555
Si5_1 Si5_5 2.778055 1_455
Si5_2 Si5_6 2.778055 1_455
Si5_2 Si5_6 2.778055 1_555
Si5_3 Si5_7 2.778055 1_455
Si5_3 Si5_7 2.778055 1_555
Si6_0 Si6_4 2.778055 1_555
Si6_0 Si6_4 2.778055 1_455
Si6_1 Si6_5 2.778055 1_455
Si6_1 Si6_5 2.778055 1_555
Si6_2 Si6_6 2.778055 1_455
Si6_2 Si6_6 2.778055 1_555
Si6_3 Si6_7 2.778055 1_555
Si6_3 Si6_7 2.778055 1_455
Si7_0 Si7_4 2.778055 1_455
Si7_0 Si7_4 2.778055 1_555
Si7_1 Si7_5 2.778055 1_555
Si7_1 Si7_5 2.778055 1_455
Si7_2 Si7_6 2.778055 1_555
Si7_2 Si7_6 2.778055 1_455
Si7_3 Si7_7 2.778055 1_555
Si7_3 Si7_7 2.778055 1_455
