# generated using pymatgen
data_Er9Al5S21
_symmetry_space_group_name_H-M   'P 1'
_cell_length_a   11.33439461
_cell_length_b   11.33439461
_cell_length_c   11.33439384
_cell_angle_alpha   94.65600758
_cell_angle_beta   94.65600758
_cell_angle_gamma   94.65600928
_symmetry_Int_Tables_number   1
_chemical_formula_structural   Er9Al5S21
_chemical_formula_sum   'Er18 Al10 S42'
_cell_volume   1440.86220848
_cell_formula_units_Z   2
loop_
 _symmetry_equiv_pos_site_id
 _symmetry_equiv_pos_as_xyz
  1  'x, y, z'
loop_
 _atom_site_type_symbol
 _atom_site_label
 _atom_site_symmetry_multiplicity
 _atom_site_fract_x
 _atom_site_fract_y
 _atom_site_fract_z
 _atom_site_occupancy
  Er  Er0  1  0.11618600  0.88147000  0.74171200  1
  Er  Er1  1  0.45484900  0.22043800  0.07479400  1
  Er  Er2  1  0.77494400  0.54723800  0.40299700  1
  Er  Er3  1  0.40299700  0.77494400  0.54723800  1
  Er  Er4  1  0.74171200  0.11618600  0.88147000  1
  Er  Er5  1  0.07479400  0.45484900  0.22043800  1
  Er  Er6  1  0.22043800  0.07479400  0.45484900  1
  Er  Er7  1  0.54723800  0.40299700  0.77494400  1
  Er  Er8  1  0.88147000  0.74171200  0.11618600  1
  Er  Er9  1  0.21016700  0.44190700  0.58455400  1
  Er  Er10  1  0.54525100  0.77999400  0.92577800  1
  Er  Er11  1  0.87524100  0.10513400  0.24684900  1
  Er  Er12  1  0.92577800  0.54525100  0.77999400  1
  Er  Er13  1  0.24684900  0.87524100  0.10513400  1
  Er  Er14  1  0.58455400  0.21016700  0.44190700  1
  Er  Er15  1  0.10513400  0.24684900  0.87524100  1
  Er  Er16  1  0.44190700  0.58455400  0.21016700  1
  Er  Er17  1  0.77999400  0.92577800  0.54525100  1
  Al  Al0  1  0.72129100  0.38867800  0.05319500  1
  Al  Al1  1  0.05319500  0.72129100  0.38867800  1
  Al  Al2  1  0.38867800  0.05319500  0.72129100  1
  Al  Al3  1  0.88683900  0.22309100  0.55329400  1
  Al  Al4  1  0.22309100  0.55329400  0.88683900  1
  Al  Al5  1  0.55329400  0.88683900  0.22309100  1
  Al  Al6  1  0.85545100  0.85545100  0.85545100  1
  Al  Al7  1  0.17122400  0.17122400  0.17122400  1
  Al  Al8  1  0.67103800  0.67103800  0.67103800  1
  Al  Al9  1  0.35547700  0.35547700  0.35547700  1
  S  S0  1  0.84403900  0.51304200  0.17724500  1
  S  S1  1  0.17724500  0.84403900  0.51304200  1
  S  S2  1  0.51304200  0.17724500  0.84403900  1
  S  S3  1  0.67748900  0.01288900  0.34393100  1
  S  S4  1  0.01288900  0.34393100  0.67748900  1
  S  S5  1  0.34393100  0.67748900  0.01288900  1
  S  S6  1  0.53813900  0.44679000  0.01542000  1
  S  S7  1  0.87047300  0.78025200  0.35587600  1
  S  S8  1  0.20275600  0.10798800  0.69261600  1
  S  S9  1  0.69261600  0.20275600  0.10798800  1
  S  S10  1  0.01542000  0.53813900  0.44679000  1
  S  S11  1  0.35587600  0.87047300  0.78025200  1
  S  S12  1  0.78025200  0.35587600  0.87047300  1
  S  S13  1  0.10798800  0.69261600  0.20275600  1
  S  S14  1  0.44679000  0.01542000  0.53813900  1
  S  S15  1  0.96585300  0.06203400  0.47619800  1
  S  S16  1  0.29848400  0.38875900  0.81313500  1
  S  S17  1  0.63146700  0.72148300  0.15308800  1
  S  S18  1  0.81313500  0.29848400  0.38875900  1
  S  S19  1  0.15308800  0.63146700  0.72148300  1
  S  S20  1  0.47619800  0.96585300  0.06203400  1
  S  S21  1  0.72148300  0.15308800  0.63146700  1
  S  S22  1  0.06203400  0.47619800  0.96585300  1
  S  S23  1  0.38875900  0.81313500  0.29848400  1
  S  S24  1  0.55614000  0.40636000  0.31109500  1
  S  S25  1  0.89187700  0.75455900  0.66237600  1
  S  S26  1  0.23638100  0.09474700  0.99487500  1
  S  S27  1  0.99487500  0.23638100  0.09474700  1
  S  S28  1  0.31109500  0.55614000  0.40636000  1
  S  S29  1  0.66237600  0.89187700  0.75455900  1
  S  S30  1  0.75455900  0.66237600  0.89187700  1
  S  S31  1  0.09474700  0.99487500  0.23638100  1
  S  S32  1  0.40636000  0.31109500  0.55614000  1
  S  S33  1  0.14730300  0.28491400  0.37641700  1
  S  S34  1  0.48076800  0.62227000  0.72270500  1
  S  S35  1  0.79291700  0.94314300  0.03789200  1
  S  S36  1  0.72270500  0.48076800  0.62227000  1
  S  S37  1  0.03789200  0.79291700  0.94314300  1
  S  S38  1  0.37641700  0.14730300  0.28491400  1
  S  S39  1  0.94314300  0.03789200  0.79291700  1
  S  S40  1  0.28491400  0.37641700  0.14730300  1
  S  S41  1  0.62227000  0.72270500  0.48076800  1
loop_
_geom_bond_atom_site_label_1
_geom_bond_atom_site_label_2
_geom_bond_distance
_geom_bond_site_symmetry_2
Er0 S11 2.730968 1_555
Er0 S1 2.745345 1_555
Er0 S37 2.750235 1_555
Er0 S8 2.788517 1_565
Er0 S39 2.812351 1_465
Er0 S25 2.857749 1_455
Er0 S19 2.891279 1_555
Er1 S9 2.716572 1_555
Er1 S2 2.764057 1_554
Er1 S38 2.773797 1_555
Er1 S26 2.799166 1_554
Er1 S6 2.813619 1_555
Er1 S40 2.843384 1_555
Er1 S20 2.908136 1_545
Er1 S24 3.335268 1_555
Er2 S10 2.742351 1_655
Er2 S0 2.743066 1_555
Er2 S36 2.750545 1_555
Er2 S41 2.872049 1_555
Er2 S7 2.879500 1_555
Er2 S18 2.880708 1_555
Er2 S24 2.907378 1_555
Er3 S14 2.742351 1_565
Er3 S1 2.743066 1_555
Er3 S41 2.750546 1_555
Er3 S34 2.872049 1_555
Er3 S11 2.879500 1_555
Er3 S23 2.880708 1_555
Er3 S28 2.907378 1_555
Er4 S12 2.730968 1_555
Er4 S2 2.745345 1_555
Er4 S39 2.750235 1_555
Er4 S9 2.788517 1_556
Er4 S35 2.812351 1_546
Er4 S29 2.857749 1_545
Er4 S21 2.891279 1_555
Er5 S13 2.716572 1_555
Er5 S0 2.764057 1_455
Er5 S40 2.773797 1_555
Er5 S27 2.799166 1_455
Er5 S10 2.813618 1_555
Er5 S33 2.843384 1_555
Er5 S22 2.908135 1_554
Er5 S28 3.335268 1_555
Er6 S8 2.716572 1_555
Er6 S1 2.764057 1_545
Er6 S33 2.773797 1_555
Er6 S31 2.799166 1_545
Er6 S14 2.813619 1_555
Er6 S38 2.843384 1_555
Er6 S15 2.908136 1_455
Er6 S32 3.335268 1_555
Er7 S6 2.742351 1_556
Er7 S2 2.743066 1_555
Er7 S34 2.750546 1_555
Er7 S36 2.872049 1_555
Er7 S12 2.879500 1_555
Er7 S16 2.880708 1_555
Er7 S32 2.907378 1_555
Er8 S7 2.730968 1_555
Er8 S0 2.745345 1_555
Er8 S35 2.750235 1_555
Er8 S13 2.788517 1_655
Er8 S37 2.812351 1_654
Er8 S30 2.857748 1_554
Er8 S17 2.891279 1_555
Er9 S19 2.700158 1_555
Er9 S4 2.740759 1_555
Er9 S28 2.761069 1_555
Er9 S32 2.796610 1_555
Er9 S16 2.829761 1_555
Er9 S33 2.842390 1_555
Er9 S10 2.933947 1_555
Er10 S20 2.714992 1_556
Er10 S5 2.766425 1_556
Er10 S29 2.771492 1_555
Er10 S34 2.806187 1_555
Er10 S17 2.829587 1_556
Er10 S30 2.851551 1_555
Er10 S11 2.904623 1_555
Er10 S35 3.333321 1_556
Er11 S27 2.737181 1_555
Er11 S3 2.744915 1_555
Er11 S18 2.783411 1_555
Er11 S15 2.811617 1_555
Er11 S9 2.848124 1_555
Er11 S31 2.880015 1_645
Er11 S35 2.916891 1_545
Er12 S22 2.714992 1_655
Er12 S4 2.766425 1_655
Er12 S30 2.771492 1_555
Er12 S36 2.806187 1_555
Er12 S19 2.829587 1_655
Er12 S25 2.851551 1_555
Er12 S12 2.904623 1_555
Er12 S37 3.333321 1_655
Er13 S31 2.737181 1_555
Er13 S5 2.744915 1_555
Er13 S23 2.783411 1_555
Er13 S20 2.811617 1_555
Er13 S13 2.848124 1_555
Er13 S26 2.880015 1_564
Er13 S37 2.916891 1_554
Er14 S21 2.700158 1_555
Er14 S3 2.740759 1_555
Er14 S32 2.761069 1_555
Er14 S24 2.796610 1_555
Er14 S18 2.829761 1_555
Er14 S38 2.842390 1_555
Er14 S14 2.933947 1_555
Er15 S26 2.737181 1_555
Er15 S4 2.744915 1_555
Er15 S16 2.783411 1_555
Er15 S22 2.811617 1_555
Er15 S8 2.848124 1_555
Er15 S27 2.880015 1_456
Er15 S39 2.916891 1_455
Er16 S17 2.700158 1_555
Er16 S5 2.740759 1_555
Er16 S24 2.761069 1_555
Er16 S28 2.796610 1_555
Er16 S23 2.829761 1_555
Er16 S40 2.842390 1_555
Er16 S6 2.933947 1_555
Er17 S15 2.714992 1_565
Er17 S3 2.766425 1_565
Er17 S25 2.771492 1_555
Er17 S41 2.806188 1_555
Er17 S21 2.829587 1_565
Er17 S29 2.851551 1_555
Er17 S7 2.904623 1_555
Er17 S39 3.333321 1_565
Al0 S0 2.223015 1_555
Al0 S12 2.239215 1_554
Al0 S6 2.247233 1_555
Al0 S9 2.250810 1_555
Al1 S1 2.223015 1_555
Al1 S7 2.239215 1_455
Al1 S10 2.247233 1_555
Al1 S13 2.250810 1_555
Al2 S2 2.223015 1_555
Al2 S11 2.239215 1_545
Al2 S14 2.247233 1_555
Al2 S8 2.250810 1_555
Al3 S4 2.222944 1_655
Al3 S18 2.242245 1_555
Al3 S15 2.243107 1_555
Al3 S21 2.251576 1_555
Al4 S5 2.222944 1_556
Al4 S16 2.242245 1_555
Al4 S22 2.243107 1_555
Al4 S19 2.251576 1_555
Al5 S3 2.222944 1_565
Al5 S23 2.242245 1_555
Al5 S20 2.243107 1_555
Al5 S17 2.251576 1_555
Al6 S35 2.405195 1_556
Al6 S39 2.405195 1_565
Al6 S37 2.405196 1_655
Al6 S25 2.466630 1_555
Al6 S30 2.466630 1_555
Al6 S29 2.466630 1_555
Al7 S26 2.313939 1_554
Al7 S31 2.313939 1_545
Al7 S27 2.313939 1_455
Al7 S33 2.610675 1_555
Al7 S40 2.610675 1_555
Al7 S38 2.610675 1_555
Al8 S41 2.315911 1_555
Al8 S34 2.315911 1_555
Al8 S36 2.315911 1_555
Al8 S30 2.615624 1_555
Al8 S25 2.615624 1_555
Al8 S29 2.615624 1_555
Al9 S32 2.403836 1_555
Al9 S24 2.403836 1_555
Al9 S28 2.403836 1_555
Al9 S40 2.465507 1_555
Al9 S33 2.465507 1_555
Al9 S38 2.465507 1_555
