# generated using pymatgen
data_USeS
_symmetry_space_group_name_H-M   'P 1'
_cell_length_a   3.75820900
_cell_length_b   7.16041600
_cell_length_c   10.20393600
_cell_angle_alpha   90.00000000
_cell_angle_beta   90.00000000
_cell_angle_gamma   90.00000000
_symmetry_Int_Tables_number   1
_chemical_formula_structural   USeS
_chemical_formula_sum   'U4 Se4 S4'
_cell_volume   274.59138562
_cell_formula_units_Z   4
loop_
 _symmetry_equiv_pos_site_id
 _symmetry_equiv_pos_as_xyz
  1  'x, y, z'
loop_
 _atom_site_type_symbol
 _atom_site_label
 _atom_site_symmetry_multiplicity
 _atom_site_fract_x
 _atom_site_fract_y
 _atom_site_fract_z
 _atom_site_occupancy
  U  U0  1  0.75000000  0.17396900  0.66870000  1
  U  U1  1  0.75000000  0.67396900  0.83130000  1
  U  U2  1  0.25000000  0.82603100  0.33130000  1
  U  U3  1  0.25000000  0.32603100  0.16870000  1
  Se  Se0  1  0.75000000  0.80195500  0.54382900  1
  Se  Se1  1  0.75000000  0.30195500  0.95617100  1
  Se  Se2  1  0.25000000  0.19804500  0.45617100  1
  Se  Se3  1  0.25000000  0.69804500  0.04382900  1
  S  S0  1  0.75000000  0.04072000  0.21272200  1
  S  S1  1  0.75000000  0.54072000  0.28727800  1
  S  S2  1  0.25000000  0.95928000  0.78727800  1
  S  S3  1  0.25000000  0.45928000  0.71272200  1
loop_
_geom_bond_atom_site_label_1
_geom_bond_atom_site_label_2
_geom_bond_distance
_geom_bond_site_symmetry_2
Se0 U2 2.874669 1_655
Se0 U2 2.874669 1_555
Se0 U0 2.952833 1_565
Se0 U1 3.073159 1_555
Se1 U3 2.874669 1_656
Se1 U3 2.874669 1_556
Se1 U1 2.952833 1_555
Se1 U0 3.073159 1_555
Se2 U0 2.874669 1_555
Se2 U0 2.874669 1_455
Se2 U2 2.952833 1_545
Se2 U3 3.073159 1_555
Se3 U1 2.874669 1_454
Se3 U1 2.874669 1_554
Se3 U3 2.952833 1_555
Se3 U2 3.073159 1_555
S0 U2 2.712604 1_645
S0 U2 2.712604 1_545
S0 U3 2.811839 1_655
S0 U3 2.811839 1_555
S1 U3 2.712604 1_655
S1 U3 2.712604 1_555
S1 U2 2.811839 1_555
S1 U2 2.811839 1_655
S2 U0 2.712604 1_465
S2 U0 2.712604 1_565
S2 U1 2.811839 1_555
S2 U1 2.811839 1_455
S3 U1 2.712604 1_455
S3 U1 2.712604 1_555
S3 U0 2.811839 1_555
S3 U0 2.811839 1_455
