# generated using pymatgen
data_Ce2MnSi4Pd3
_symmetry_space_group_name_H-M   'P 1'
_cell_length_a   4.14375800
_cell_length_b   4.14375800
_cell_length_c   10.21037600
_cell_angle_alpha   90.00000000
_cell_angle_beta   90.00000000
_cell_angle_gamma   90.00000000
_symmetry_Int_Tables_number   1
_chemical_formula_structural   Ce2MnSi4Pd3
_chemical_formula_sum   'Ce2 Mn1 Si4 Pd3'
_cell_volume   175.31961320
_cell_formula_units_Z   1
loop_
 _symmetry_equiv_pos_site_id
 _symmetry_equiv_pos_as_xyz
  1  'x, y, z'
loop_
 _atom_site_type_symbol
 _atom_site_label
 _atom_site_symmetry_multiplicity
 _atom_site_fract_x
 _atom_site_fract_y
 _atom_site_fract_z
 _atom_site_occupancy
  Ce  Ce0  1  0.00000000  0.00000000  0.00164300  1
  Ce  Ce1  1  0.50000000  0.50000000  0.49835700  1
  Mn  Mn0  1  0.00000000  0.50000000  0.25000000  1
  Si  Si0  1  0.50000000  0.50000000  0.11513500  1
  Si  Si1  1  0.00000000  0.00000000  0.61710100  1
  Si  Si2  1  0.00000000  0.00000000  0.38486500  1
  Si  Si3  1  0.50000000  0.50000000  0.88289900  1
  Pd  Pd0  1  0.50000000  0.00000000  0.75000000  1
  Pd  Pd1  1  0.50000000  0.00000000  0.25000000  1
  Pd  Pd2  1  0.00000000  0.50000000  0.75000000  1
loop_
_geom_bond_atom_site_label_1
_geom_bond_atom_site_label_2
_geom_bond_distance
_geom_bond_site_symmetry_2
Ce0 Si0 3.150900 1_455
Ce0 Si0 3.150900 1_445
Ce0 Si0 3.150900 1_555
Ce0 Si0 3.150900 1_545
Ce0 Si3 3.171014 1_544
Ce0 Si3 3.171014 1_554
Ce0 Si3 3.171014 1_454
Ce0 Si3 3.171014 1_444
Ce0 Pd1 3.274608 1_455
Ce0 Mn0 3.274608 1_545
Ce0 Mn0 3.274608 1_555
Ce0 Pd1 3.274608 1_555
Ce0 Pd2 3.300658 1_544
Ce0 Pd0 3.300658 1_554
Ce0 Pd2 3.300658 1_554
Ce0 Pd0 3.300658 1_454
Ce1 Si2 3.150900 1_655
Ce1 Si2 3.150900 1_565
Ce1 Si2 3.150900 1_665
Ce1 Si2 3.150900 1_555
Ce1 Si1 3.171014 1_665
Ce1 Si1 3.171014 1_655
Ce1 Si1 3.171014 1_565
Ce1 Si1 3.171014 1_555
Ce1 Mn0 3.274608 1_655
Ce1 Pd1 3.274608 1_555
Ce1 Pd1 3.274608 1_565
Ce1 Mn0 3.274608 1_555
Ce1 Pd2 3.300658 1_555
Ce1 Pd2 3.300658 1_655
Ce1 Pd0 3.300658 1_555
Ce1 Pd0 3.300658 1_565
Mn0 Si0 2.487745 1_555
Mn0 Si2 2.487745 1_565
Mn0 Si2 2.487745 1_555
Mn0 Si0 2.487745 1_455
Mn0 Pd1 2.930079 1_455
Mn0 Pd1 2.930079 1_465
Mn0 Pd1 2.930079 1_555
Mn0 Pd1 2.930079 1_565
Si0 Si3 2.371217 1_554
Si1 Si2 2.371217 1_555
Pd0 Si3 2.476690 1_555
Pd0 Si3 2.476690 1_545
Pd0 Si1 2.476690 1_655
Pd0 Si1 2.476690 1_555
Pd1 Si0 2.487745 1_555
Pd1 Si0 2.487745 1_545
Pd1 Si2 2.487745 1_655
Pd1 Si2 2.487745 1_555
Pd2 Si1 2.476690 1_565
Pd2 Si3 2.476690 1_455
Pd2 Si3 2.476690 1_555
Pd2 Si1 2.476690 1_555
