# generated using pymatgen
data_CaTi5O7
_symmetry_space_group_name_H-M   'P 1'
_cell_length_a   5.20090376
_cell_length_b   5.20090376
_cell_length_c   17.82222900
_cell_angle_alpha   90.00000000
_cell_angle_beta   90.00000000
_cell_angle_gamma   146.05241401
_symmetry_Int_Tables_number   1
_chemical_formula_structural   CaTi5O7
_chemical_formula_sum   'Ca2 Ti10 O14'
_cell_volume   269.21032711
_cell_formula_units_Z   2
loop_
 _symmetry_equiv_pos_site_id
 _symmetry_equiv_pos_as_xyz
  1  'x, y, z'
loop_
 _atom_site_type_symbol
 _atom_site_label
 _atom_site_symmetry_multiplicity
 _atom_site_fract_x
 _atom_site_fract_y
 _atom_site_fract_z
 _atom_site_occupancy
  Ca  Ca0  1  0.20800600  0.79199400  0.75000000  1
  Ca  Ca1  1  0.79199400  0.20800600  0.25000000  1
  Ti  Ti0  1  0.71545300  0.28454700  0.56903800  1
  Ti  Ti1  1  0.53592500  0.46407500  0.14570000  1
  Ti  Ti2  1  0.00000000  0.00000000  0.50000000  1
  Ti  Ti3  1  0.00000000  0.00000000  0.00000000  1
  Ti  Ti4  1  0.46407500  0.53592500  0.85430000  1
  Ti  Ti5  1  0.28454700  0.71545300  0.43096200  1
  Ti  Ti6  1  0.28454700  0.71545300  0.06903800  1
  Ti  Ti7  1  0.71545300  0.28454700  0.93096200  1
  Ti  Ti8  1  0.46407500  0.53592500  0.64570000  1
  Ti  Ti9  1  0.53592500  0.46407500  0.35430000  1
  O  O0  1  0.36289200  0.63710800  0.95683100  1
  O  O1  1  0.63710800  0.36289200  0.04316900  1
  O  O2  1  0.63710800  0.36289200  0.45683100  1
  O  O3  1  0.36289200  0.63710800  0.54316900  1
  O  O4  1  0.82434100  0.17565900  0.83156700  1
  O  O5  1  0.17565900  0.82434100  0.16843300  1
  O  O6  1  0.17565900  0.82434100  0.33156700  1
  O  O7  1  0.82434100  0.17565900  0.66843300  1
  O  O8  1  0.09657700  0.90342300  0.88598500  1
  O  O9  1  0.90342300  0.09657700  0.11401500  1
  O  O10  1  0.90342300  0.09657700  0.38598500  1
  O  O11  1  0.09657700  0.90342300  0.61401500  1
  O  O12  1  0.52843600  0.47156400  0.75000000  1
  O  O13  1  0.47156400  0.52843600  0.25000000  1
loop_
_geom_bond_atom_site_label_1
_geom_bond_atom_site_label_2
_geom_bond_distance
_geom_bond_site_symmetry_2
Ca0 O12 2.344533 1_565
Ca0 O12 2.344533 1_455
Ca0 O4 2.399602 1_565
Ca0 O4 2.399602 1_455
Ca0 O7 2.399602 1_565
Ca0 O7 2.399602 1_455
Ca0 O8 2.665062 1_555
Ca0 O11 2.665062 1_555
Ca1 O13 2.344533 1_655
Ca1 O13 2.344533 1_545
Ca1 O6 2.399602 1_655
Ca1 O5 2.399602 1_655
Ca1 O5 2.399602 1_545
Ca1 O6 2.399602 1_545
Ca1 O10 2.665062 1_555
Ca1 O9 2.665062 1_555
O0 Ti4 2.086255 1_555
O0 Ti6 2.146305 1_556
O0 Ti7 2.160888 1_565
O0 Ti7 2.160888 1_455
O0 Ti3 2.181249 1_556
O0 Ti3 2.181249 1_666
O1 Ti1 2.086255 1_555
O1 Ti7 2.146305 1_554
O1 Ti6 2.160888 1_655
O1 Ti6 2.160888 1_545
O1 Ti3 2.181249 1_555
O1 Ti3 2.181249 1_665
O2 Ti9 2.086255 1_555
O2 Ti0 2.146305 1_555
O2 Ti5 2.160888 1_655
O2 Ti5 2.160888 1_545
O2 Ti2 2.181249 1_665
O2 Ti2 2.181249 1_555
O3 Ti8 2.086255 1_555
O3 Ti5 2.146305 1_555
O3 Ti0 2.160888 1_565
O3 Ti0 2.160888 1_455
O3 Ti2 2.181249 1_665
O3 Ti2 2.181249 1_555
O4 Ti7 2.076421 1_555
O4 Ti4 2.098100 1_655
O4 Ti4 2.098100 1_545
O5 Ti6 2.076421 1_555
O5 Ti1 2.098100 1_455
O5 Ti1 2.098100 1_565
O6 Ti5 2.076421 1_555
O6 Ti9 2.098100 1_565
O6 Ti9 2.098100 1_455
O7 Ti0 2.076421 1_555
O7 Ti8 2.098100 1_655
O7 Ti8 2.098100 1_545
O8 Ti7 2.084834 1_455
O8 Ti7 2.084834 1_565
O8 Ti4 2.088514 1_565
O8 Ti4 2.088514 1_455
O8 Ti3 2.247709 1_566
O9 Ti6 2.084834 1_655
O9 Ti6 2.084834 1_545
O9 Ti1 2.088514 1_655
O9 Ti1 2.088514 1_545
O9 Ti3 2.247709 1_655
O10 Ti5 2.084834 1_655
O10 Ti5 2.084834 1_545
O10 Ti9 2.088514 1_655
O10 Ti9 2.088514 1_545
O10 Ti2 2.247709 1_655
O11 Ti0 2.084834 1_455
O11 Ti0 2.084834 1_565
O11 Ti8 2.088514 1_565
O11 Ti8 2.088514 1_455
O11 Ti2 2.247709 1_565
O12 Ti8 1.966049 1_555
O12 Ti4 1.966049 1_555
O13 Ti9 1.966049 1_555
O13 Ti1 1.966049 1_555
