# generated using pymatgen
data_CsRb14Tl27
_symmetry_space_group_name_H-M   'P 1'
_cell_length_a   10.64776526
_cell_length_b   10.64776526
_cell_length_c   18.15640500
_cell_angle_alpha   90.00000000
_cell_angle_beta   90.00000000
_cell_angle_gamma   119.99999543
_symmetry_Int_Tables_number   1
_chemical_formula_structural   CsRb14Tl27
_chemical_formula_sum   'Cs1 Rb14 Tl27'
_cell_volume   1782.69665654
_cell_formula_units_Z   1
loop_
 _symmetry_equiv_pos_site_id
 _symmetry_equiv_pos_as_xyz
  1  'x, y, z'
loop_
 _atom_site_type_symbol
 _atom_site_label
 _atom_site_symmetry_multiplicity
 _atom_site_fract_x
 _atom_site_fract_y
 _atom_site_fract_z
 _atom_site_occupancy
  Cs  Cs0  1  0.00000000  0.00000000  0.50000000  1
  Rb  Rb0  1  0.38919300  0.38919300  0.81693300  1
  Rb  Rb1  1  0.61080700  0.00000000  0.81693300  1
  Rb  Rb2  1  0.00000000  0.61080700  0.81693300  1
  Rb  Rb3  1  0.38919300  0.38919300  0.18306700  1
  Rb  Rb4  1  0.61080700  0.00000000  0.18306700  1
  Rb  Rb5  1  0.00000000  0.61080700  0.18306700  1
  Rb  Rb6  1  0.33333300  0.66666700  0.00000000  1
  Rb  Rb7  1  0.66666700  0.33333300  0.00000000  1
  Rb  Rb8  1  0.72777600  0.72777600  0.68874100  1
  Rb  Rb9  1  0.27222400  0.00000000  0.68874100  1
  Rb  Rb10  1  0.00000000  0.27222400  0.68874100  1
  Rb  Rb11  1  0.72777600  0.72777600  0.31125900  1
  Rb  Rb12  1  0.27222400  0.00000000  0.31125900  1
  Rb  Rb13  1  0.00000000  0.27222400  0.31125900  1
  Tl  Tl0  1  0.00000000  0.00000000  0.85041700  1
  Tl  Tl1  1  0.00000000  0.00000000  0.14958300  1
  Tl  Tl2  1  0.21133100  0.21133100  0.00000000  1
  Tl  Tl3  1  0.78866900  0.00000000  0.00000000  1
  Tl  Tl4  1  0.00000000  0.78866900  0.00000000  1
  Tl  Tl5  1  0.71603900  0.71603900  0.90855500  1
  Tl  Tl6  1  0.28396100  0.00000000  0.90855500  1
  Tl  Tl7  1  0.00000000  0.28396100  0.90855500  1
  Tl  Tl8  1  0.71603900  0.71603900  0.09144500  1
  Tl  Tl9  1  0.28396100  0.00000000  0.09144500  1
  Tl  Tl10  1  0.00000000  0.28396100  0.09144500  1
  Tl  Tl11  1  0.82728500  0.29293400  0.50000000  1
  Tl  Tl12  1  0.70706600  0.53435100  0.50000000  1
  Tl  Tl13  1  0.46564900  0.17271500  0.50000000  1
  Tl  Tl14  1  0.29293400  0.82728500  0.50000000  1
  Tl  Tl15  1  0.53435100  0.70706600  0.50000000  1
  Tl  Tl16  1  0.17271500  0.46564900  0.50000000  1
  Tl  Tl17  1  0.38250400  0.38250400  0.60001900  1
  Tl  Tl18  1  0.61749600  0.00000000  0.60001900  1
  Tl  Tl19  1  0.00000000  0.61749600  0.60001900  1
  Tl  Tl20  1  0.38250400  0.38250400  0.39998100  1
  Tl  Tl21  1  0.61749600  0.00000000  0.39998100  1
  Tl  Tl22  1  0.00000000  0.61749600  0.39998100  1
  Tl  Tl23  1  0.66666700  0.33333300  0.65645400  1
  Tl  Tl24  1  0.66666700  0.33333300  0.34354600  1
  Tl  Tl25  1  0.33333300  0.66666700  0.65645400  1
  Tl  Tl26  1  0.33333300  0.66666700  0.34354600  1
loop_
_geom_bond_atom_site_label_1
_geom_bond_atom_site_label_2
_geom_bond_distance
_geom_bond_site_symmetry_2
Cs0 Tl11 4.341298 1_455
Cs0 Tl14 4.341298 1_545
Cs0 Tl16 4.341298 1_555
Cs0 Tl13 4.341298 1_555
Cs0 Tl12 4.341298 1_445
Cs0 Tl15 4.341298 1_445
Cs0 Tl19 4.459328 1_545
Cs0 Tl18 4.459328 1_455
Cs0 Tl22 4.459328 1_545
Cs0 Tl21 4.459328 1_455
Cs0 Tl20 4.459328 1_555
Cs0 Tl17 4.459328 1_555
Cs0 Rb10 4.488330 1_555
Cs0 Rb9 4.488330 1_555
Cs0 Rb12 4.488330 1_555
Cs0 Rb13 4.488330 1_555
Cs0 Rb8 4.488330 1_445
Cs0 Rb11 4.488330 1_445
Rb0 Tl2 3.825507 1_556
Rb0 Tl5 3.857327 1_555
Rb0 Tl17 3.939022 1_555
Rb0 Tl6 4.068477 1_555
Rb0 Tl7 4.068477 1_555
Rb0 Tl0 4.188393 1_555
Rb0 Tl25 4.396562 1_555
Rb0 Tl23 4.396562 1_555
Rb1 Tl3 3.825507 1_556
Rb1 Tl6 3.857327 1_555
Rb1 Tl18 3.939022 1_555
Rb1 Tl5 4.068477 1_545
Rb1 Tl7 4.068477 1_655
Rb1 Tl0 4.188393 1_655
Rb1 Tl23 4.396554 1_555
Rb1 Tl25 4.396557 1_545
Rb2 Tl4 3.825507 1_556
Rb2 Tl7 3.857327 1_555
Rb2 Tl19 3.939022 1_555
Rb2 Tl5 4.068477 1_455
Rb2 Tl6 4.068477 1_565
Rb2 Tl0 4.188393 1_565
Rb2 Tl25 4.396554 1_555
Rb2 Tl23 4.396557 1_455
Rb3 Tl2 3.825507 1_555
Rb3 Tl8 3.857327 1_555
Rb3 Tl20 3.939022 1_555
Rb3 Tl9 4.068477 1_555
Rb3 Tl10 4.068477 1_555
Rb3 Tl1 4.188393 1_555
Rb3 Tl24 4.396562 1_555
Rb3 Tl26 4.396562 1_555
Rb4 Tl3 3.825507 1_555
Rb4 Tl9 3.857327 1_555
Rb4 Tl21 3.939022 1_555
Rb4 Tl8 4.068477 1_545
Rb4 Tl10 4.068477 1_655
Rb4 Tl1 4.188393 1_655
Rb4 Tl24 4.396554 1_555
Rb4 Tl26 4.396557 1_545
Rb5 Tl4 3.825507 1_555
Rb5 Tl10 3.857327 1_555
Rb5 Tl22 3.939022 1_555
Rb5 Tl8 4.068477 1_455
Rb5 Tl9 4.068477 1_565
Rb5 Tl1 4.188393 1_565
Rb5 Tl26 4.396554 1_555
Rb5 Tl24 4.396557 1_455
Rb6 Tl9 4.182826 1_565
Rb6 Tl6 4.182826 1_564
Rb6 Tl7 4.182832 1_554
Rb6 Tl10 4.182832 1_555
Rb6 Tl8 4.182836 1_555
Rb6 Tl5 4.182836 1_554
Rb6 Tl4 4.346880 1_555
Rb6 Tl3 4.346888 1_565
Rb6 Tl2 4.346890 1_555
Rb7 Tl7 4.182826 1_654
Rb7 Tl10 4.182826 1_655
Rb7 Tl6 4.182832 1_554
Rb7 Tl9 4.182832 1_555
Rb7 Tl8 4.182836 1_555
Rb7 Tl5 4.182836 1_554
Rb7 Tl3 4.346880 1_555
Rb7 Tl4 4.346888 1_655
Rb7 Tl2 4.346890 1_555
Rb8 Tl15 3.947093 1_555
Rb8 Tl12 3.947093 1_555
Rb8 Tl25 3.959003 1_555
Rb8 Tl23 3.959003 1_555
Rb8 Tl19 3.972292 1_655
Rb8 Tl18 3.972292 1_565
Rb8 Tl5 3.992988 1_555
Rb8 Tl17 4.013807 1_555
Rb8 Tl0 4.125366 1_665
Rb9 Tl14 3.947093 1_545
Rb9 Tl13 3.947093 1_555
Rb9 Tl25 3.958992 1_545
Rb9 Tl23 3.958999 1_555
Rb9 Tl17 3.972292 1_555
Rb9 Tl19 3.972292 1_545
Rb9 Tl6 3.992988 1_555
Rb9 Tl18 4.013807 1_555
Rb9 Tl0 4.125366 1_555
Rb10 Tl11 3.947093 1_455
Rb10 Tl16 3.947093 1_555
Rb10 Tl23 3.958992 1_455
Rb10 Tl25 3.958999 1_555
Rb10 Tl17 3.972292 1_555
Rb10 Tl18 3.972292 1_455
Rb10 Tl7 3.992988 1_555
Rb10 Tl19 4.013807 1_555
Rb10 Tl0 4.125366 1_555
Rb11 Tl15 3.947093 1_555
Rb11 Tl12 3.947093 1_555
Rb11 Tl26 3.959003 1_555
Rb11 Tl24 3.959003 1_555
Rb11 Tl22 3.972292 1_655
Rb11 Tl21 3.972292 1_565
Rb11 Tl8 3.992988 1_555
Rb11 Tl20 4.013807 1_555
Rb11 Tl1 4.125366 1_665
Rb12 Tl14 3.947093 1_545
Rb12 Tl13 3.947093 1_555
Rb12 Tl26 3.958992 1_545
Rb12 Tl24 3.958999 1_555
Rb12 Tl20 3.972292 1_555
Rb12 Tl22 3.972292 1_545
Rb12 Tl9 3.992988 1_555
Rb12 Tl21 4.013807 1_555
Rb12 Tl1 4.125366 1_555
Rb13 Tl11 3.947093 1_455
Rb13 Tl16 3.947093 1_555
Rb13 Tl24 3.958992 1_455
Rb13 Tl26 3.958999 1_555
Rb13 Tl20 3.972292 1_555
Rb13 Tl21 3.972292 1_455
Rb13 Tl10 3.992988 1_555
Rb13 Tl22 4.013807 1_555
Rb13 Tl1 4.125366 1_555
Tl0 Tl6 3.202514 1_555
Tl0 Tl7 3.202514 1_555
Tl0 Tl5 3.202515 1_445
Tl0 Tl3 3.526963 1_456
Tl0 Tl4 3.526963 1_546
Tl0 Tl2 3.526963 1_556
Tl1 Tl10 3.202514 1_555
Tl1 Tl9 3.202514 1_555
Tl1 Tl8 3.202515 1_445
Tl1 Tl4 3.526963 1_545
Tl1 Tl3 3.526963 1_455
Tl1 Tl2 3.526963 1_555
Tl2 Tl7 3.187209 1_554
Tl2 Tl9 3.187209 1_555
Tl2 Tl6 3.187209 1_554
Tl3 Tl5 3.187210 1_544
Tl3 Tl8 3.187210 1_545
Tl3 Tl7 3.187210 1_654
Tl4 Tl5 3.187210 1_454
Tl4 Tl8 3.187210 1_455
Tl4 Tl9 3.187210 1_565
Tl4 Tl6 3.187210 1_564
Tl5 Tl8 3.320625 1_556
Tl6 Tl9 3.320625 1_556
Tl10 Tl2 3.187209 1_555
Tl10 Tl3 3.187210 1_455
Tl10 Tl7 3.320625 1_554
Tl11 Tl16 3.185291 1_655
Tl11 Tl18 3.323997 1_555
Tl11 Tl21 3.323997 1_555
Tl11 Tl12 3.396582 1_555
Tl11 Tl13 3.396582 1_555
Tl11 Tl23 3.451784 1_555
Tl11 Tl24 3.451784 1_555
Tl11 Tl19 3.502481 1_655
Tl11 Tl22 3.502481 1_655
Tl12 Tl15 3.185291 1_555
Tl12 Tl19 3.323997 1_655
Tl12 Tl22 3.323997 1_655
Tl12 Tl13 3.396582 1_555
Tl12 Tl23 3.451790 1_555
Tl12 Tl24 3.451790 1_555
Tl12 Tl17 3.502481 1_555
Tl12 Tl20 3.502481 1_555
Tl13 Tl14 3.185291 1_545
Tl13 Tl17 3.323997 1_555
Tl13 Tl20 3.323997 1_555
Tl13 Tl23 3.451788 1_555
Tl13 Tl24 3.451788 1_555
Tl13 Tl18 3.502481 1_555
Tl13 Tl21 3.502481 1_555
Tl14 Tl19 3.323997 1_555
Tl14 Tl22 3.323997 1_555
Tl14 Tl15 3.396582 1_555
Tl14 Tl16 3.396582 1_555
Tl14 Tl25 3.451784 1_555
Tl14 Tl26 3.451784 1_555
Tl14 Tl18 3.502481 1_565
Tl14 Tl21 3.502481 1_565
Tl15 Tl18 3.323997 1_565
Tl15 Tl21 3.323997 1_565
Tl15 Tl16 3.396582 1_555
Tl15 Tl25 3.451790 1_555
Tl15 Tl26 3.451790 1_555
Tl15 Tl17 3.502481 1_555
Tl15 Tl20 3.502481 1_555
Tl16 Tl17 3.323997 1_555
Tl16 Tl20 3.323997 1_555
Tl16 Tl25 3.451788 1_555
Tl16 Tl26 3.451788 1_555
Tl16 Tl19 3.502481 1_555
Tl16 Tl22 3.502481 1_555
Tl17 Tl23 3.473189 1_555
Tl17 Tl25 3.473189 1_555
Tl17 Tl20 3.631971 1_555
Tl18 Tl23 3.473179 1_555
Tl18 Tl25 3.473183 1_545
Tl18 Tl21 3.631971 1_555
Tl19 Tl25 3.473179 1_555
Tl19 Tl23 3.473183 1_455
Tl19 Tl22 3.631971 1_555
Tl20 Tl24 3.473189 1_555
Tl20 Tl26 3.473189 1_555
Tl21 Tl24 3.473179 1_555
Tl21 Tl26 3.473183 1_545
Tl22 Tl26 3.473179 1_555
Tl22 Tl24 3.473183 1_455
