# generated using pymatgen
data_TaCr3(AgS4)2
_symmetry_space_group_name_H-M   'P 1'
_cell_length_a   7.24421100
_cell_length_b   7.41327100
_cell_length_c   10.15319500
_cell_angle_alpha   90.00000000
_cell_angle_beta   90.00000000
_cell_angle_gamma   90.00000000
_symmetry_Int_Tables_number   1
_chemical_formula_structural   TaCr3(AgS4)2
_chemical_formula_sum   'Ta2 Cr6 Ag4 S16'
_cell_volume   545.26007018
_cell_formula_units_Z   2
loop_
 _symmetry_equiv_pos_site_id
 _symmetry_equiv_pos_as_xyz
  1  'x, y, z'
loop_
 _atom_site_type_symbol
 _atom_site_label
 _atom_site_symmetry_multiplicity
 _atom_site_fract_x
 _atom_site_fract_y
 _atom_site_fract_z
 _atom_site_occupancy
  Ta  Ta0  1  0.00000000  0.46903300  0.50000000  1
  Ta  Ta1  1  0.50000000  0.53096700  0.50000000  1
  Cr  Cr0  1  0.25595600  0.75354000  0.24867800  1
  Cr  Cr1  1  0.74404400  0.75354000  0.75132200  1
  Cr  Cr2  1  0.24404400  0.24646000  0.24867800  1
  Cr  Cr3  1  0.75595600  0.24646000  0.75132200  1
  Cr  Cr4  1  0.00000000  0.99632200  0.00000000  1
  Cr  Cr5  1  0.50000000  0.00367800  0.00000000  1
  Ag  Ag0  1  0.75000000  0.00000000  0.36389000  1
  Ag  Ag1  1  0.75000000  0.50000000  0.10929100  1
  Ag  Ag2  1  0.25000000  0.00000000  0.63611000  1
  Ag  Ag3  1  0.25000000  0.50000000  0.89070900  1
  S  S0  1  0.74639700  0.78396600  0.98429900  1
  S  S1  1  0.23980700  0.72973600  0.49296000  1
  S  S2  1  0.73980700  0.27026400  0.50704000  1
  S  S3  1  0.24639700  0.21603400  0.01570100  1
  S  S4  1  0.03643000  0.99552500  0.23653600  1
  S  S5  1  0.97284000  0.50442900  0.73990900  1
  S  S6  1  0.53643000  0.00447500  0.76346400  1
  S  S7  1  0.47284000  0.49557100  0.26009100  1
  S  S8  1  0.26019300  0.27026400  0.49296000  1
  S  S9  1  0.75360300  0.21603400  0.98429900  1
  S  S10  1  0.25360300  0.78396600  0.01570100  1
  S  S11  1  0.76019300  0.72973600  0.50704000  1
  S  S12  1  0.52716000  0.49557100  0.73990900  1
  S  S13  1  0.46357000  0.00447500  0.23653600  1
  S  S14  1  0.02716000  0.50442900  0.26009100  1
  S  S15  1  0.96357000  0.99552500  0.76346400  1
loop_
_geom_bond_atom_site_label_1
_geom_bond_atom_site_label_2
_geom_bond_distance
_geom_bond_site_symmetry_2
Cr0 S10 2.376252 1_555
Cr0 S13 2.395358 1_565
Cr0 S4 2.400481 1_555
Cr0 S7 2.477741 1_555
Cr0 S14 2.484141 1_555
Cr0 S1 2.489263 1_555
Cr1 S0 2.376252 1_555
Cr1 S6 2.395358 1_565
Cr1 S15 2.400481 1_555
Cr1 S12 2.477741 1_555
Cr1 S5 2.484141 1_555
Cr1 S11 2.489263 1_555
Cr2 S3 2.376252 1_555
Cr2 S4 2.395358 1_545
Cr2 S13 2.400481 1_555
Cr2 S14 2.477741 1_555
Cr2 S7 2.484141 1_555
Cr2 S8 2.489263 1_555
Cr3 S9 2.376252 1_555
Cr3 S15 2.395358 1_545
Cr3 S6 2.400481 1_555
Cr3 S5 2.477741 1_555
Cr3 S12 2.484141 1_555
Cr3 S2 2.489263 1_555
Cr4 S15 2.416060 1_454
Cr4 S4 2.416060 1_555
Cr4 S9 2.421653 1_464
Cr4 S3 2.421653 1_565
Cr4 S0 2.424627 1_454
Cr4 S10 2.424627 1_555
Cr5 S13 2.416060 1_555
Cr5 S6 2.416060 1_554
Cr5 S0 2.421653 1_544
Cr5 S10 2.421653 1_545
Cr5 S9 2.424627 1_554
Cr5 S3 2.424627 1_555
Ag0 S13 2.445104 1_555
Ag0 S4 2.445104 1_645
Ag0 S11 2.476305 1_545
Ag0 S2 2.476305 1_555
Ag1 S9 2.458197 1_554
Ag1 S0 2.458197 1_554
Ag1 S14 2.525200 1_655
Ag1 S7 2.525200 1_555
Ag2 S15 2.445104 1_445
Ag2 S6 2.445104 1_555
Ag2 S1 2.476305 1_545
Ag2 S8 2.476305 1_555
Ag3 S3 2.458197 1_556
Ag3 S10 2.458197 1_556
Ag3 S12 2.525200 1_555
Ag3 S5 2.525200 1_455
S1 Ta1 2.393578 1_555
S1 Ta0 2.599654 1_555
S2 Ta0 2.393578 1_655
S2 Ta1 2.599654 1_555
S5 Ta0 2.457823 1_655
S7 Ta1 2.457823 1_555
S8 Ta0 2.393578 1_555
S8 Ta1 2.599654 1_555
S11 Ta1 2.393578 1_555
S11 Ta0 2.599654 1_655
S12 Ta1 2.457823 1_555
S14 Ta0 2.457823 1_555
