# generated using pymatgen
data_ZnHCO4
_symmetry_space_group_name_H-M   'P 1'
_cell_length_a   10.83597198
_cell_length_b   10.83597198
_cell_length_c   6.39790700
_cell_angle_alpha   90.00000000
_cell_angle_beta   90.00000000
_cell_angle_gamma   119.99999986
_symmetry_Int_Tables_number   1
_chemical_formula_structural   ZnHCO4
_chemical_formula_sum   'Zn6 H6 C6 O24'
_cell_volume   650.58538313
_cell_formula_units_Z   6
loop_
 _symmetry_equiv_pos_site_id
 _symmetry_equiv_pos_as_xyz
  1  'x, y, z'
loop_
 _atom_site_type_symbol
 _atom_site_label
 _atom_site_symmetry_multiplicity
 _atom_site_fract_x
 _atom_site_fract_y
 _atom_site_fract_z
 _atom_site_occupancy
  Zn  Zn0  1  0.00000000  0.50000000  0.50000000  1
  Zn  Zn1  1  0.00000000  0.50000000  0.00000000  1
  Zn  Zn2  1  0.50000000  0.50000000  0.50000000  1
  Zn  Zn3  1  0.50000000  0.50000000  0.00000000  1
  Zn  Zn4  1  0.50000000  0.00000000  0.50000000  1
  Zn  Zn5  1  0.50000000  0.00000000  0.00000000  1
  H  H0  1  0.18585100  0.63193400  0.75000000  1
  H  H1  1  0.44608300  0.81414900  0.75000000  1
  H  H2  1  0.36806600  0.55391700  0.75000000  1
  H  H3  1  0.63193400  0.44608300  0.25000000  1
  H  H4  1  0.55391700  0.18585100  0.25000000  1
  H  H5  1  0.81414900  0.36806600  0.25000000  1
  C  C0  1  0.20361400  0.76946800  0.25000000  1
  C  C1  1  0.23053200  0.43414600  0.25000000  1
  C  C2  1  0.56585400  0.79638600  0.25000000  1
  C  C3  1  0.43414600  0.20361400  0.75000000  1
  C  C4  1  0.76946800  0.56585400  0.75000000  1
  C  C5  1  0.79638600  0.23053200  0.75000000  1
  O  O0  1  0.14590700  0.71288500  0.42549300  1
  O  O1  1  0.14590700  0.71288500  0.07450700  1
  O  O2  1  0.32308000  0.88725600  0.25000000  1
  O  O3  1  0.11828600  0.52896200  0.75000000  1
  O  O4  1  0.11274400  0.43582400  0.25000000  1
  O  O5  1  0.41067600  0.88171400  0.75000000  1
  O  O6  1  0.28711500  0.43302200  0.42549300  1
  O  O7  1  0.28711500  0.43302200  0.07450700  1
  O  O8  1  0.56697800  0.85409300  0.07450700  1
  O  O9  1  0.56697800  0.85409300  0.42549300  1
  O  O10  1  0.47103800  0.58932400  0.75000000  1
  O  O11  1  0.56417600  0.67692000  0.25000000  1
  O  O12  1  0.43582400  0.32308000  0.75000000  1
  O  O13  1  0.52896200  0.41067600  0.25000000  1
  O  O14  1  0.43302200  0.14590700  0.57450700  1
  O  O15  1  0.43302200  0.14590700  0.92549300  1
  O  O16  1  0.71288500  0.56697800  0.92549300  1
  O  O17  1  0.71288500  0.56697800  0.57450700  1
  O  O18  1  0.58932400  0.11828600  0.25000000  1
  O  O19  1  0.88725600  0.56417600  0.75000000  1
  O  O20  1  0.88171400  0.47103800  0.25000000  1
  O  O21  1  0.67692000  0.11274400  0.75000000  1
  O  O22  1  0.85409300  0.28711500  0.92549300  1
  O  O23  1  0.85409300  0.28711500  0.57450700  1
loop_
_geom_bond_atom_site_label_1
_geom_bond_atom_site_label_2
_geom_bond_distance
_geom_bond_site_symmetry_2
H0 O3 0.981894 1_555
H1 O5 0.981894 1_555
H2 O10 0.981894 1_555
H3 O13 0.981894 1_555
H4 O18 0.981894 1_555
H5 O20 0.981894 1_555
C0 O0 1.282263 1_555
C0 O1 1.282263 1_555
C0 O2 1.285535 1_555
C1 O6 1.282263 1_555
C1 O7 1.282263 1_555
C1 O4 1.285535 1_555
C2 O9 1.282263 1_555
C2 O8 1.282263 1_555
C2 O11 1.285535 1_555
C3 O15 1.282263 1_555
C3 O14 1.282263 1_555
C3 O12 1.285535 1_555
C4 O16 1.282263 1_555
C4 O17 1.282263 1_555
C4 O19 1.285535 1_555
C5 O23 1.282263 1_555
C5 O22 1.282263 1_555
C5 O21 1.285535 1_555
O0 Zn0 2.097893 1_555
O1 Zn1 2.097893 1_555
O2 Zn5 2.320350 1_565
O2 Zn4 2.320350 1_565
O3 Zn1 1.974191 1_556
O3 Zn0 1.974191 1_555
O4 Zn0 2.320350 1_555
O4 Zn1 2.320350 1_555
O5 Zn5 1.974191 1_566
O5 Zn4 1.974191 1_565
O6 Zn2 2.097893 1_555
O7 Zn3 2.097893 1_555
O8 Zn5 2.097893 1_565
O9 Zn4 2.097893 1_565
O10 Zn2 1.974191 1_555
O10 Zn3 1.974191 1_556
O11 Zn3 2.320350 1_555
O11 Zn2 2.320350 1_555
O12 Zn2 2.320350 1_555
O12 Zn3 2.320350 1_556
O13 Zn3 1.974191 1_555
O13 Zn2 1.974191 1_555
O14 Zn4 2.097893 1_555
O15 Zn5 2.097893 1_556
O16 Zn3 2.097893 1_556
O17 Zn2 2.097893 1_555
O18 Zn5 1.974191 1_555
O18 Zn4 1.974191 1_555
O19 Zn0 2.320350 1_655
O19 Zn1 2.320350 1_656
O20 Zn0 1.974191 1_655
O20 Zn1 1.974191 1_655
O21 Zn4 2.320350 1_555
O21 Zn5 2.320350 1_556
O22 Zn1 2.097893 1_656
O23 Zn0 2.097893 1_655
