# generated using pymatgen
data_SrCaV4O12
_symmetry_space_group_name_H-M   'P 1'
_cell_length_a   5.32767783
_cell_length_b   5.32767783
_cell_length_c   7.54561463
_cell_angle_alpha   90.00000000
_cell_angle_beta   90.00000000
_cell_angle_gamma   89.90688660
_symmetry_Int_Tables_number   1
_chemical_formula_structural   SrCaV4O12
_chemical_formula_sum   'Sr1 Ca1 V4 O12'
_cell_volume   214.17558235
_cell_formula_units_Z   1
loop_
 _symmetry_equiv_pos_site_id
 _symmetry_equiv_pos_as_xyz
  1  'x, y, z'
loop_
 _atom_site_type_symbol
 _atom_site_label
 _atom_site_symmetry_multiplicity
 _atom_site_fract_x
 _atom_site_fract_y
 _atom_site_fract_z
 _atom_site_occupancy
  Sr  Sr0  1  0.00000000  -0.00000000  0.00000000  1
  Ca  Ca0  1  0.50000000  0.50000000  0.50000000  1
  V  V0  1  0.00000000  0.50000000  0.25062687  1
  V  V1  1  0.00000000  0.50000000  0.74937313  1
  V  V2  1  0.50000000  -0.00000000  0.25062687  1
  V  V3  1  0.50000000  -0.00000000  0.74937313  1
  O  O0  1  0.23715493  0.23715493  0.25071494  1
  O  O1  1  0.23715493  0.23715493  0.74928506  1
  O  O2  1  0.76284507  0.76284507  0.74928506  1
  O  O3  1  0.76284507  0.76284507  0.25071494  1
  O  O4  1  0.73572917  0.26427083  0.25087235  1
  O  O5  1  0.73572917  0.26427083  0.74912765  1
  O  O6  1  0.26427083  0.73572917  0.74912765  1
  O  O7  1  0.26427083  0.73572917  0.25087235  1
  O  O8  1  0.00000000  0.50000000  0.00000000  1
  O  O9  1  0.00000000  0.50000000  0.50000000  1
  O  O10  1  0.50000000  -0.00000000  0.00000000  1
  O  O11  1  0.50000000  -0.00000000  0.50000000  1
loop_
_geom_bond_atom_site_label_1
_geom_bond_atom_site_label_2
_geom_bond_distance
_geom_bond_site_symmetry_2
Ca0 O7 2.585172 1_555
Ca0 O4 2.585172 1_555
Ca0 O6 2.585172 1_555
Ca0 O5 2.585172 1_555
Ca0 O11 2.663839 1_555
Ca0 O11 2.663839 1_565
Ca0 O9 2.663839 1_555
Ca0 O9 2.663839 1_655
Ca0 O0 2.732499 1_555
Ca0 O3 2.732499 1_555
Ca0 O1 2.732499 1_555
Ca0 O2 2.732499 1_555
O0 V2 1.884578 1_555
O0 V0 1.884578 1_555
O0 Sr0 2.603244 1_555
O1 V3 1.884578 1_555
O1 V1 1.884578 1_555
O1 Sr0 2.603244 1_556
O2 V1 1.884578 1_655
O2 V3 1.884578 1_565
O2 Sr0 2.603244 1_666
O3 V0 1.884578 1_655
O3 V2 1.884578 1_565
O3 Sr0 2.603244 1_665
O4 V0 1.888208 1_655
O4 V2 1.888208 1_555
O4 Sr0 2.746197 1_655
O5 V1 1.888208 1_655
O5 V3 1.888208 1_555
O5 Sr0 2.746197 1_656
O6 V3 1.888208 1_565
O6 V1 1.888208 1_555
O6 Sr0 2.746197 1_566
O7 V2 1.888208 1_565
O7 V0 1.888208 1_555
O7 Sr0 2.746197 1_565
O8 V1 1.891134 1_554
O8 V0 1.891134 1_555
O8 Sr0 2.663839 1_555
O8 Sr0 2.663839 1_565
O9 V0 1.881674 1_555
O9 V1 1.881674 1_555
O10 V3 1.891134 1_554
O10 V2 1.891134 1_555
O10 Sr0 2.663839 1_655
O10 Sr0 2.663839 1_555
O11 V2 1.881674 1_555
O11 V3 1.881674 1_555
