# generated using pymatgen
data_SnBi3Te4
_symmetry_space_group_name_H-M   'P 1'
_cell_length_a   25.06410726
_cell_length_b   25.06410726
_cell_length_c   7.62483620
_cell_angle_alpha   81.55858435
_cell_angle_beta   81.55858435
_cell_angle_gamma   10.16775859
_symmetry_Int_Tables_number   1
_chemical_formula_structural   SnBi3Te4
_chemical_formula_sum   'Sn3 Bi9 Te12'
_cell_volume   836.34841579
_cell_formula_units_Z   3
loop_
 _symmetry_equiv_pos_site_id
 _symmetry_equiv_pos_as_xyz
  1  'x, y, z'
loop_
 _atom_site_type_symbol
 _atom_site_label
 _atom_site_symmetry_multiplicity
 _atom_site_fract_x
 _atom_site_fract_y
 _atom_site_fract_z
 _atom_site_occupancy
  Sn  Sn0  1  0.93764300  0.93764300  0.06027500  1
  Sn  Sn1  1  0.43737500  0.43737500  0.56000400  1
  Sn  Sn2  1  0.56010000  0.56010000  0.43756200  1
  Bi  Bi0  1  0.06023200  0.06023200  0.94020100  1
  Bi  Bi1  1  0.73123200  0.73123200  0.93490000  1
  Bi  Bi2  1  0.23170500  0.23170500  0.43490800  1
  Bi  Bi3  1  0.26605000  0.26605000  0.06442200  1
  Bi  Bi4  1  0.76640000  0.76640000  0.56549000  1
  Bi  Bi5  1  0.85437400  0.85437400  0.80924100  1
  Bi  Bi6  1  0.35444200  0.35444200  0.31053700  1
  Bi  Bi7  1  0.14399900  0.14399900  0.18827100  1
  Bi  Bi8  1  0.64250800  0.64250800  0.69134300  1
  Te  Te0  1  0.10369400  0.10369400  0.56047000  1
  Te  Te1  1  0.60350700  0.60350700  0.06120800  1
  Te  Te2  1  0.89383700  0.89383700  0.43968700  1
  Te  Te3  1  0.39377400  0.39377400  0.93989800  1
  Te  Te4  1  0.47031000  0.47031000  0.19370700  1
  Te  Te5  1  0.96984800  0.96984800  0.69582500  1
  Te  Te6  1  0.52607400  0.52607400  0.80354700  1
  Te  Te7  1  0.02649100  0.02649100  0.30800100  1
  Te  Te8  1  0.31726400  0.31726400  0.68324500  1
  Te  Te9  1  0.81726700  0.81726700  0.18286900  1
  Te  Te10  1  0.18002500  0.18002500  0.81800700  1
  Te  Te11  1  0.67993700  0.67993700  0.31638300  1
loop_
_geom_bond_atom_site_label_1
_geom_bond_atom_site_label_2
_geom_bond_distance
_geom_bond_site_symmetry_2
Sn0 Te5 2.998460 1_554
Sn0 Te4 3.019552 1_565
Sn0 Te4 3.019552 1_655
Sn0 Te3 3.341557 1_654
Sn0 Te3 3.341557 1_564
Sn0 Te2 3.359798 1_555
Sn1 Te5 3.021487 1_545
Sn1 Te5 3.021487 1_455
Sn1 Te4 3.025079 1_555
Sn1 Te2 3.329905 1_455
Sn1 Te2 3.329905 1_545
Sn1 Te3 3.357264 1_555
Sn2 Te7 3.035401 1_655
Sn2 Te7 3.035401 1_565
Sn2 Te6 3.045702 1_555
Sn2 Te1 3.331518 1_555
Sn2 Te0 3.339237 1_655
Sn2 Te0 3.339237 1_565
Bi0 Te7 3.051297 1_556
Bi0 Te6 3.074307 1_455
Bi0 Te6 3.074307 1_545
Bi0 Te1 3.322774 1_456
Bi0 Te1 3.322774 1_546
Bi0 Te0 3.352696 1_555
Bi1 Bi3 3.071929 1_566
Bi1 Bi3 3.071929 1_656
Bi1 Bi4 3.091815 1_555
Bi1 Te11 3.581159 1_556
Bi1 Te10 3.596721 1_655
Bi1 Te10 3.596721 1_565
Bi2 Bi4 3.071450 1_545
Bi2 Bi4 3.071450 1_455
Bi2 Bi3 3.081062 1_555
Bi2 Te10 3.601322 1_555
Bi2 Te11 3.622100 1_545
Bi2 Te11 3.622100 1_455
Bi3 Te8 3.577102 1_554
Bi3 Te9 3.601289 1_455
Bi3 Te9 3.601289 1_545
Bi4 Te9 3.574642 1_555
Bi4 Te8 3.586266 1_655
Bi4 Te8 3.586266 1_565
Bi5 Te8 3.132732 1_655
Bi5 Te8 3.132732 1_565
Bi5 Te9 3.161167 1_556
Bi5 Te2 3.191545 1_555
Bi5 Te3 3.220770 1_565
Bi5 Te3 3.220770 1_655
Bi6 Te9 3.139841 1_545
Bi6 Te9 3.139841 1_455
Bi6 Te8 3.157066 1_555
Bi6 Te3 3.194928 1_554
Bi6 Te2 3.216034 1_455
Bi6 Te2 3.216034 1_545
Bi7 Te11 3.102224 1_545
Bi7 Te11 3.102224 1_455
Bi7 Te10 3.115977 1_554
Bi7 Te0 3.228094 1_555
Bi7 Te1 3.246027 1_455
Bi7 Te1 3.246027 1_545
Bi8 Te10 3.147716 1_565
Bi8 Te10 3.147716 1_655
Bi8 Te11 3.176741 1_555
Bi8 Te1 3.182256 1_556
Bi8 Te0 3.202300 1_565
Bi8 Te0 3.202300 1_655
