# generated using pymatgen
data_LiMg30BO31
_symmetry_space_group_name_H-M   'P 1'
_cell_length_a   8.39421800
_cell_length_b   8.52597600
_cell_length_c   8.59669100
_cell_angle_alpha   90.00000000
_cell_angle_beta   90.00000000
_cell_angle_gamma   90.00000000
_symmetry_Int_Tables_number   1
_chemical_formula_structural   LiMg30BO31
_chemical_formula_sum   'Li1 Mg30 B1 O31'
_cell_volume   615.25572888
_cell_formula_units_Z   1
loop_
 _symmetry_equiv_pos_site_id
 _symmetry_equiv_pos_as_xyz
  1  'x, y, z'
loop_
 _atom_site_type_symbol
 _atom_site_label
 _atom_site_symmetry_multiplicity
 _atom_site_fract_x
 _atom_site_fract_y
 _atom_site_fract_z
 _atom_site_occupancy
  Li  Li0  1  0.00000000  0.00266300  0.00000000  1
  Mg  Mg0  1  0.00000000  0.00158100  0.50000000  1
  Mg  Mg1  1  0.50000000  0.00341600  0.50000000  1
  Mg  Mg2  1  0.00000000  0.50052800  0.00000000  1
  Mg  Mg3  1  0.50000000  0.50216300  0.00000000  1
  Mg  Mg4  1  0.00000000  0.49941700  0.50000000  1
  Mg  Mg5  1  0.50000000  0.49890400  0.50000000  1
  Mg  Mg6  1  0.25597900  0.00039500  0.25374300  1
  Mg  Mg7  1  0.74402100  0.00039500  0.25374300  1
  Mg  Mg8  1  0.25597900  0.00039500  0.74625700  1
  Mg  Mg9  1  0.74402100  0.00039500  0.74625700  1
  Mg  Mg10  1  0.24985500  0.50127500  0.24972600  1
  Mg  Mg11  1  0.75014500  0.50127500  0.24972600  1
  Mg  Mg12  1  0.24985500  0.50127500  0.75027400  1
  Mg  Mg13  1  0.75014500  0.50127500  0.75027400  1
  Mg  Mg14  1  0.24709800  0.75139600  0.00000000  1
  Mg  Mg15  1  0.75290200  0.75139600  0.00000000  1
  Mg  Mg16  1  0.24790500  0.75054700  0.50000000  1
  Mg  Mg17  1  0.75209500  0.75054700  0.50000000  1
  Mg  Mg18  1  0.25930200  0.25308000  0.00000000  1
  Mg  Mg19  1  0.74069800  0.25308000  0.00000000  1
  Mg  Mg20  1  0.25005400  0.25070400  0.50000000  1
  Mg  Mg21  1  0.74994600  0.25070400  0.50000000  1
  Mg  Mg22  1  0.00000000  0.75534000  0.24648100  1
  Mg  Mg23  1  0.50000000  0.75405300  0.26020800  1
  Mg  Mg24  1  0.00000000  0.75534000  0.75351900  1
  Mg  Mg25  1  0.50000000  0.75405300  0.73979200  1
  Mg  Mg26  1  0.00000000  0.24589400  0.24429500  1
  Mg  Mg27  1  0.50000000  0.24578800  0.24267800  1
  Mg  Mg28  1  0.00000000  0.24589400  0.75570500  1
  Mg  Mg29  1  0.50000000  0.24578800  0.75732200  1
  B  B0  1  0.50000000  0.92996100  0.00000000  1
  O  O0  1  0.00000000  0.75565500  0.00000000  1
  O  O1  1  0.00000000  0.75022800  0.50000000  1
  O  O2  1  0.50000000  0.74690900  0.50000000  1
  O  O3  1  0.00000000  0.24861500  0.00000000  1
  O  O4  1  0.50000000  0.27300900  0.00000000  1
  O  O5  1  0.00000000  0.25077800  0.50000000  1
  O  O6  1  0.50000000  0.25429900  0.50000000  1
  O  O7  1  0.25063000  0.75264900  0.24744400  1
  O  O8  1  0.74937000  0.75264900  0.24744400  1
  O  O9  1  0.25063000  0.75264900  0.75255600  1
  O  O10  1  0.74937000  0.75264900  0.75255600  1
  O  O11  1  0.25067500  0.24837500  0.24607000  1
  O  O12  1  0.74932500  0.24837500  0.24607000  1
  O  O13  1  0.25067500  0.24837500  0.75393000  1
  O  O14  1  0.74932500  0.24837500  0.75393000  1
  O  O15  1  0.33701400  0.98876200  0.00000000  1
  O  O16  1  0.66298600  0.98876200  0.00000000  1
  O  O17  1  0.24657500  0.00051700  0.50000000  1
  O  O18  1  0.75342500  0.00051700  0.50000000  1
  O  O19  1  0.25053000  0.50762900  0.00000000  1
  O  O20  1  0.74947000  0.50762900  0.00000000  1
  O  O21  1  0.24938700  0.50053900  0.50000000  1
  O  O22  1  0.75061300  0.50053900  0.50000000  1
  O  O23  1  0.00000000  0.00042700  0.24573200  1
  O  O24  1  0.50000000  0.99826600  0.26913000  1
  O  O25  1  0.00000000  0.00042700  0.75426800  1
  O  O26  1  0.50000000  0.99826600  0.73087000  1
  O  O27  1  0.00000000  0.50096400  0.24887000  1
  O  O28  1  0.50000000  0.50664000  0.24915200  1
  O  O29  1  0.00000000  0.50096400  0.75113000  1
  O  O30  1  0.50000000  0.50664000  0.75084800  1
loop_
_geom_bond_atom_site_label_1
_geom_bond_atom_site_label_2
_geom_bond_distance
_geom_bond_site_symmetry_2
Li0 O3 2.096981 1_555
Li0 O0 2.105984 1_545
Li0 O25 2.112568 1_554
Li0 O23 2.112568 1_555
Mg0 O18 2.069824 1_455
Mg0 O17 2.069824 1_555
Mg0 O5 2.124648 1_555
Mg0 O1 2.143030 1_545
Mg0 O23 2.185886 1_555
Mg0 O25 2.185886 1_555
Mg1 O24 1.985204 1_545
Mg1 O26 1.985204 1_545
Mg1 O17 2.127448 1_555
Mg1 O18 2.127448 1_555
Mg1 O6 2.139022 1_555
Mg1 O2 2.186973 1_545
Mg2 O19 2.103875 1_555
Mg2 O20 2.103875 1_455
Mg2 O27 2.139462 1_555
Mg2 O29 2.139462 1_554
Mg2 O3 2.147804 1_555
Mg2 O0 2.175207 1_555
Mg3 O4 1.953762 1_555
Mg3 O20 2.094624 1_555
Mg3 O19 2.094624 1_555
Mg3 O28 2.142223 1_555
Mg3 O30 2.142223 1_554
Mg4 O21 2.093431 1_555
Mg4 O22 2.093431 1_455
Mg4 O5 2.119890 1_555
Mg4 O1 2.138409 1_555
Mg4 O29 2.158927 1_555
Mg4 O27 2.158927 1_555
Mg5 O6 2.085496 1_555
Mg5 O21 2.103746 1_555
Mg5 O22 2.103746 1_555
Mg5 O2 2.114485 1_555
Mg5 O30 2.157471 1_555
Mg5 O28 2.157471 1_555
Mg6 O24 2.052712 1_545
Mg6 O7 2.113447 1_545
Mg6 O11 2.115769 1_555
Mg6 O17 2.118467 1_555
Mg6 O23 2.149847 1_555
Mg6 O15 2.287101 1_545
Mg7 O24 2.052712 1_545
Mg7 O8 2.113447 1_545
Mg7 O12 2.115769 1_555
Mg7 O18 2.118467 1_555
Mg7 O23 2.149847 1_655
Mg7 O16 2.287101 1_545
Mg8 O26 2.052712 1_545
Mg8 O9 2.113447 1_545
Mg8 O13 2.115769 1_555
Mg8 O17 2.118467 1_555
Mg8 O25 2.149847 1_555
Mg8 O15 2.287101 1_546
Mg9 O26 2.052712 1_545
Mg9 O10 2.113447 1_545
Mg9 O14 2.115769 1_555
Mg9 O18 2.118467 1_555
Mg9 O25 2.149847 1_655
Mg9 O16 2.287101 1_546
Mg10 O27 2.097352 1_555
Mg10 O28 2.100276 1_555
Mg10 O7 2.143308 1_555
Mg10 O19 2.147508 1_555
Mg10 O21 2.151541 1_555
Mg10 O11 2.156459 1_555
Mg11 O27 2.097352 1_655
Mg11 O28 2.100276 1_555
Mg11 O8 2.143308 1_555
Mg11 O20 2.147508 1_555
Mg11 O22 2.151541 1_555
Mg11 O12 2.156459 1_555
Mg12 O29 2.097352 1_555
Mg12 O30 2.100276 1_555
Mg12 O9 2.143308 1_555
Mg12 O19 2.147508 1_556
Mg12 O21 2.151541 1_555
Mg12 O13 2.156459 1_555
Mg13 O29 2.097352 1_655
Mg13 O30 2.100276 1_555
Mg13 O10 2.143308 1_555
Mg13 O20 2.147508 1_556
Mg13 O22 2.151541 1_555
Mg13 O14 2.156459 1_555
Mg14 O0 2.074512 1_555
Mg14 O19 2.078551 1_555
Mg14 O9 2.127433 1_554
Mg14 O7 2.127433 1_555
Mg14 O15 2.159944 1_555
Mg15 O0 2.074512 1_655
Mg15 O20 2.078551 1_555
Mg15 O8 2.127433 1_555
Mg15 O10 2.127433 1_554
Mg15 O16 2.159944 1_555
Mg16 O1 2.080970 1_555
Mg16 O2 2.116368 1_555
Mg16 O17 2.131267 1_565
Mg16 O21 2.131599 1_555
Mg16 O7 2.171340 1_555
Mg16 O9 2.171340 1_555
Mg17 O1 2.080970 1_655
Mg17 O2 2.116368 1_555
Mg17 O18 2.131267 1_565
Mg17 O22 2.131599 1_555
Mg17 O8 2.171340 1_555
Mg17 O10 2.171340 1_555
Mg18 O4 2.027603 1_555
Mg18 O11 2.117007 1_555
Mg18 O13 2.117007 1_554
Mg18 O19 2.171527 1_555
Mg18 O3 2.176970 1_555
Mg18 O15 2.346084 1_545
Mg19 O4 2.027603 1_555
Mg19 O12 2.117007 1_555
Mg19 O14 2.117007 1_554
Mg19 O20 2.171527 1_555
Mg19 O3 2.176970 1_655
Mg19 O16 2.346084 1_545
Mg20 O6 2.098325 1_555
Mg20 O5 2.099008 1_555
Mg20 O21 2.130095 1_555
Mg20 O17 2.133288 1_555
Mg20 O11 2.183054 1_555
Mg20 O13 2.183054 1_555
Mg21 O6 2.098325 1_555
Mg21 O5 2.099008 1_655
Mg21 O22 2.130095 1_555
Mg21 O18 2.133288 1_555
Mg21 O12 2.183054 1_555
Mg21 O14 2.183054 1_555
Mg22 O23 2.089616 1_565
Mg22 O7 2.103984 1_555
Mg22 O8 2.103984 1_455
Mg22 O0 2.118923 1_555
Mg22 O27 2.168901 1_555
Mg22 O1 2.179860 1_555
Mg23 O2 2.062317 1_555
Mg23 O24 2.083566 1_555
Mg23 O7 2.096174 1_555
Mg23 O8 2.096174 1_555
Mg23 O28 2.111577 1_555
Mg24 O25 2.089616 1_565
Mg24 O10 2.103984 1_455
Mg24 O9 2.103984 1_555
Mg24 O0 2.118923 1_556
Mg24 O29 2.168901 1_555
Mg24 O1 2.179860 1_555
Mg25 O2 2.062317 1_555
Mg25 O26 2.083566 1_555
Mg25 O10 2.096174 1_555
Mg25 O9 2.096174 1_555
Mg25 O30 2.111577 1_555
Mg26 O23 2.092882 1_555
Mg26 O3 2.100257 1_555
Mg26 O11 2.104382 1_555
Mg26 O12 2.104382 1_455
Mg26 O27 2.175076 1_555
Mg26 O5 2.198611 1_555
Mg27 O11 2.093208 1_555
Mg27 O12 2.093208 1_555
Mg27 O4 2.099097 1_555
Mg27 O24 2.122583 1_545
Mg27 O6 2.213308 1_555
Mg27 O28 2.224714 1_555
Mg28 O25 2.092882 1_555
Mg28 O3 2.100257 1_556
Mg28 O14 2.104382 1_455
Mg28 O13 2.104382 1_555
Mg28 O29 2.175076 1_555
Mg28 O5 2.198611 1_555
Mg29 O14 2.093208 1_555
Mg29 O13 2.093208 1_555
Mg29 O4 2.099097 1_556
Mg29 O26 2.122583 1_545
Mg29 O6 2.213308 1_555
Mg29 O30 2.224714 1_555
B0 O16 1.457102 1_555
B0 O15 1.457102 1_555
