# generated using pymatgen
data_K4Re2HCl10O
_symmetry_space_group_name_H-M   'P 1'
_cell_length_a   10.35549819
_cell_length_b   10.35549819
_cell_length_c   10.35549819
_cell_angle_alpha   139.07702773
_cell_angle_beta   139.07702773
_cell_angle_gamma   59.25741964
_symmetry_Int_Tables_number   1
_chemical_formula_structural   K4Re2HCl10O
_chemical_formula_sum   'K4 Re2 H1 Cl10 O1'
_cell_volume   471.84974474
_cell_formula_units_Z   1
loop_
 _symmetry_equiv_pos_site_id
 _symmetry_equiv_pos_as_xyz
  1  'x, y, z'
loop_
 _atom_site_type_symbol
 _atom_site_label
 _atom_site_symmetry_multiplicity
 _atom_site_fract_x
 _atom_site_fract_y
 _atom_site_fract_z
 _atom_site_occupancy
  K  K0  1  0.75000000  0.25000000  0.50000000  1
  K  K1  1  0.25000000  0.75000000  0.50000000  1
  K  K2  1  0.50000000  0.00000000  0.50000000  1
  K  K3  1  0.00000000  0.50000000  0.50000000  1
  Re  Re0  1  0.10314200  0.10314200  0.00000000  1
  Re  Re1  1  0.89685800  0.89685800  0.00000000  1
  H  H0  1  0.50000000  0.50000000  0.00000000  1
  Cl  Cl0  1  0.23710000  0.23710000  0.00000000  1
  Cl  Cl1  1  0.76290000  0.76290000  0.00000000  1
  Cl  Cl2  1  0.34619400  0.34619400  0.46920000  1
  Cl  Cl3  1  0.65380600  0.65380600  0.53080000  1
  Cl  Cl4  1  0.87699400  0.87699400  0.53080000  1
  Cl  Cl5  1  0.34619400  0.87699400  0.00000000  1
  Cl  Cl6  1  0.12300600  0.65380600  0.00000000  1
  Cl  Cl7  1  0.12300600  0.12300600  0.46920000  1
  Cl  Cl8  1  0.65380600  0.12300600  0.00000000  1
  Cl  Cl9  1  0.87699400  0.34619400  0.00000000  1
  O  O0  1  0.00000000  0.00000000  0.00000000  1
loop_
_geom_bond_atom_site_label_1
_geom_bond_atom_site_label_2
_geom_bond_distance
_geom_bond_site_symmetry_2
Cl0 Re0 2.411643 1_555
Cl0 K0 3.627493 1_555
Cl0 K0 3.627493 1_454
Cl0 K1 3.627493 1_555
Cl0 K1 3.627493 1_544
Cl1 Re1 2.411643 1_555
Cl1 K0 3.627493 1_554
Cl1 K1 3.627493 1_554
Cl1 K0 3.627493 1_565
Cl1 K1 3.627493 1_655
Cl2 Re0 2.406896 1_555
Cl2 K3 3.257825 1_555
Cl2 K2 3.257825 1_555
Cl2 K1 3.575740 1_555
Cl2 K0 3.575740 1_555
Cl3 Re1 2.406896 1_556
Cl3 K2 3.257825 1_565
Cl3 K3 3.257825 1_655
Cl3 K0 3.575740 1_555
Cl3 K1 3.575740 1_555
Cl4 Re0 2.406896 1_666
Cl4 K3 3.257825 1_655
Cl4 K2 3.257825 1_565
Cl4 K1 3.575740 1_655
Cl4 K0 3.575740 1_565
Cl5 Re0 2.406896 1_565
Cl5 K3 3.257825 1_554
Cl5 K2 3.257825 1_565
Cl5 K1 3.575740 1_554
Cl5 K0 3.575740 1_565
Cl6 Re1 2.406896 1_455
Cl6 K3 3.257825 1_554
Cl6 K2 3.257825 1_565
Cl6 K0 3.575740 1_454
Cl6 K1 3.575740 1_555
Cl7 Re1 2.406896 1_445
Cl7 K2 3.257825 1_555
Cl7 K3 3.257825 1_555
Cl7 K1 3.575740 1_545
Cl7 K0 3.575740 1_455
Cl8 Re1 2.406896 1_545
Cl8 K3 3.257825 1_655
Cl8 K2 3.257825 1_554
Cl8 K0 3.575740 1_555
Cl8 K1 3.575740 1_544
Cl9 Re0 2.406896 1_655
Cl9 K3 3.257825 1_655
Cl9 K2 3.257825 1_554
Cl9 K1 3.575740 1_655
Cl9 K0 3.575740 1_554
O0 Re0 1.856863 1_555
O0 Re1 1.856863 1_445
