# generated using pymatgen
data_LiLa4Ga2(FeO6)2
_symmetry_space_group_name_H-M   'P 1'
_cell_length_a   5.75459558
_cell_length_b   5.59811409
_cell_length_c   8.10421737
_cell_angle_alpha   88.60012074
_cell_angle_beta   90.79146913
_cell_angle_gamma   91.29230924
_symmetry_Int_Tables_number   1
_chemical_formula_structural   LiLa4Ga2(FeO6)2
_chemical_formula_sum   'Li1 La4 Ga2 Fe2 O12'
_cell_volume   260.90913055
_cell_formula_units_Z   1
loop_
 _symmetry_equiv_pos_site_id
 _symmetry_equiv_pos_as_xyz
  1  'x, y, z'
loop_
 _atom_site_type_symbol
 _atom_site_label
 _atom_site_symmetry_multiplicity
 _atom_site_fract_x
 _atom_site_fract_y
 _atom_site_fract_z
 _atom_site_occupancy
  Li  Li0  1  0.10696800  0.82580500  0.56591800  1
  La  La0  1  0.44612100  0.49347300  0.73913500  1
  La  La1  1  0.91830900  0.05132000  0.77857900  1
  La  La2  1  0.55127300  0.52199300  0.24244000  1
  La  La3  1  0.04393500  0.00562000  0.24191900  1
  Ga  Ga0  1  0.00171800  0.52757100  0.99410300  1
  Ga  Ga1  1  0.51632100  0.99819400  0.49100800  1
  Fe  Fe0  1  0.99536000  0.45726700  0.48120000  1
  Fe  Fe1  1  0.48438400  0.01085200  0.99931100  1
  O  O0  1  0.51751400  0.91579200  0.75432600  1
  O  O1  1  0.02832100  0.60625000  0.75197300  1
  O  O2  1  0.47861800  0.09344700  0.24729100  1
  O  O3  1  0.97196900  0.42082900  0.22938100  1
  O  O4  1  0.69172600  0.28695200  0.54985900  1
  O  O5  1  0.20691600  0.22999400  0.95581900  1
  O  O6  1  0.28144400  0.72864000  0.05122300  1
  O  O7  1  0.80345400  0.80726600  0.44766100  1
  O  O8  1  0.32469300  0.68502100  0.45342300  1
  O  O9  1  0.78867300  0.80984500  0.04050300  1
  O  O10  1  0.70107000  0.31014400  0.94995700  1
  O  O11  1  0.20073500  0.15420400  0.54330400  1
loop_
_geom_bond_atom_site_label_1
_geom_bond_atom_site_label_2
_geom_bond_distance
_geom_bond_site_symmetry_2
Li0 O8 1.770119 1_555
Li0 O11 1.909461 1_565
Li0 O1 1.972882 1_555
Li0 O7 1.982502 1_455
La0 O0 2.396320 1_555
La0 O4 2.430517 1_555
La0 O10 2.457209 1_555
La0 O1 2.503700 1_555
La0 O8 2.620557 1_555
La0 O5 2.646277 1_555
La0 O11 2.843303 1_555
La1 O5 2.398201 1_655
La1 O10 2.412300 1_555
La1 O0 2.418602 1_545
La1 O11 2.568748 1_655
La1 O9 2.597646 1_546
La1 O1 2.599284 1_645
La1 O4 2.601406 1_555
La2 O8 2.376579 1_555
La2 O2 2.425365 1_555
La2 O6 2.465306 1_555
La2 O3 2.502939 1_555
La2 O9 2.641008 1_555
La2 O7 2.716801 1_555
La2 O10 2.829845 1_554
La2 O4 2.902371 1_555
La3 O3 2.369668 1_455
La3 O7 2.415000 1_445
La3 O9 2.443752 1_445
La3 O2 2.538369 1_555
La3 O6 2.632818 1_545
La3 O11 2.734289 1_555
La3 O5 2.774523 1_554
Ga0 O3 1.992683 1_456
Ga0 O6 1.998897 1_556
Ga0 O1 2.007731 1_555
Ga0 O9 2.066553 1_456
Ga0 O5 2.095197 1_555
Ga0 O10 2.124145 1_455
Ga1 O4 1.951967 1_565
Ga1 O7 2.027331 1_555
Ga1 O2 2.043158 1_565
Ga1 O8 2.076550 1_555
Ga1 O11 2.085997 1_565
Ga1 O0 2.172183 1_555
Fe0 O4 2.048776 1_555
Fe0 O3 2.058176 1_555
Fe0 O11 2.135594 1_655
Fe0 Li0 2.266626 1_655
Fe0 O8 2.270848 1_655
Fe0 O7 2.279414 1_555
Fe0 O1 2.370183 1_655
Fe1 O6 1.983597 1_546
Fe1 O5 2.056796 1_555
Fe1 O2 2.074044 1_556
Fe1 O0 2.080398 1_545
Fe1 O10 2.099724 1_555
Fe1 O9 2.120905 1_546
