# generated using pymatgen
data_BaMg14Si
_symmetry_space_group_name_H-M   'P 1'
_cell_length_a   6.49768603
_cell_length_b   6.49768549
_cell_length_c   10.66298471
_cell_angle_alpha   90.00000000
_cell_angle_beta   90.00000000
_cell_angle_gamma   120.00000281
_symmetry_Int_Tables_number   1
_chemical_formula_structural   BaMg14Si
_chemical_formula_sum   'Ba1 Mg14 Si1'
_cell_volume   389.87628061
_cell_formula_units_Z   1
loop_
 _symmetry_equiv_pos_site_id
 _symmetry_equiv_pos_as_xyz
  1  'x, y, z'
loop_
 _atom_site_type_symbol
 _atom_site_label
 _atom_site_symmetry_multiplicity
 _atom_site_fract_x
 _atom_site_fract_y
 _atom_site_fract_z
 _atom_site_occupancy
  Ba  Ba0  1  0.16666700  0.33333300  0.62500000  1
  Mg  Mg0  1  0.15833724  0.82916812  0.12500000  1
  Mg  Mg1  1  0.17878318  0.83939109  0.62500000  1
  Mg  Mg2  1  0.67083188  0.34166276  0.12500000  1
  Mg  Mg3  1  0.66060891  0.32121682  0.62500000  1
  Mg  Mg4  1  0.67083188  0.82916812  0.12500000  1
  Mg  Mg5  1  0.66060891  0.83939109  0.62500000  1
  Mg  Mg6  1  0.33375346  0.16624654  0.35459820  1
  Mg  Mg7  1  0.33375346  0.16624654  0.89540180  1
  Mg  Mg8  1  0.33375346  0.66750792  0.35459820  1
  Mg  Mg9  1  0.33375346  0.66750792  0.89540180  1
  Mg  Mg10  1  0.83249208  0.16624654  0.35459820  1
  Mg  Mg11  1  0.83249208  0.16624654  0.89540180  1
  Mg  Mg12  1  0.83333300  0.66666700  0.38421598  1
  Mg  Mg13  1  0.83333300  0.66666700  0.86578402  1
  Si  Si0  1  0.16666700  0.33333300  0.12500000  1
loop_
_geom_bond_atom_site_label_1
_geom_bond_atom_site_label_2
_geom_bond_distance
_geom_bond_site_symmetry_2
Ba0 Mg5 3.249558 1_555
Ba0 Mg1 3.249558 1_555
Ba0 Mg5 3.249558 1_445
Ba0 Mg1 3.249558 1_545
Ba0 Mg3 3.249558 1_455
Ba0 Mg3 3.249558 1_555
Ba0 Mg6 3.442301 1_555
Ba0 Mg7 3.442301 1_555
Ba0 Mg8 3.442307 1_555
Ba0 Mg9 3.442307 1_555
Ba0 Mg11 3.442307 1_455
Ba0 Mg10 3.442307 1_455
Mg0 Mg9 3.097334 1_554
Mg0 Mg8 3.097334 1_555
Mg0 Mg7 3.097341 1_564
Mg0 Mg6 3.097341 1_565
Mg0 Mg2 3.167657 1_455
Mg0 Mg4 3.167657 1_455
Mg0 Si0 3.249181 1_565
Mg0 Si0 3.249181 1_555
Mg0 Mg12 3.314284 1_455
Mg0 Mg13 3.314284 1_454
Mg0 Mg2 3.330029 1_565
Mg0 Mg4 3.330029 1_555
Mg1 Mg3 3.130752 1_565
Mg1 Mg5 3.130752 1_555
Mg1 Mg13 3.220357 1_455
Mg1 Mg12 3.220357 1_455
Mg1 Mg3 3.366933 1_455
Mg1 Mg5 3.366934 1_455
Mg1 Mg8 3.420416 1_555
Mg1 Mg9 3.420416 1_555
Mg1 Mg6 3.420422 1_565
Mg1 Mg7 3.420422 1_565
Mg2 Mg6 3.097341 1_555
Mg2 Mg7 3.097341 1_554
Mg2 Mg4 3.167657 1_555
Mg2 Si0 3.249181 1_555
Mg2 Si0 3.249181 1_655
Mg2 Mg4 3.330029 1_545
Mg3 Mg5 3.130752 1_545
Mg3 Mg5 3.366933 1_555
Mg3 Mg6 3.420423 1_555
Mg3 Mg7 3.420423 1_555
Mg4 Mg9 3.097341 1_554
Mg4 Mg8 3.097341 1_555
Mg4 Si0 3.249181 1_665
Mg4 Si0 3.249181 1_555
Mg5 Mg8 3.420422 1_555
Mg5 Mg9 3.420422 1_555
Mg6 Si0 3.087032 1_555
Mg6 Mg8 3.240647 1_545
Mg6 Mg8 3.257039 1_555
Mg7 Si0 3.087032 1_556
Mg7 Mg9 3.240647 1_545
Mg7 Mg9 3.257039 1_555
Mg8 Si0 3.087039 1_555
Mg9 Si0 3.087039 1_556
Mg10 Si0 3.087039 1_655
Mg10 Mg2 3.097334 1_555
Mg10 Mg4 3.097341 1_545
Mg10 Mg8 3.240647 1_545
Mg10 Mg6 3.240647 1_555
Mg10 Mg8 3.257039 1_655
Mg10 Mg6 3.257039 1_655
Mg10 Mg12 3.264160 1_555
Mg10 Mg12 3.264160 1_545
Mg10 Mg3 3.420416 1_555
Mg10 Mg5 3.420422 1_545
Mg11 Si0 3.087039 1_656
Mg11 Mg2 3.097334 1_556
Mg11 Mg4 3.097341 1_546
Mg11 Mg9 3.240647 1_545
Mg11 Mg7 3.240647 1_555
Mg11 Mg9 3.257039 1_655
Mg11 Mg7 3.257039 1_655
Mg11 Mg13 3.264160 1_555
Mg11 Mg13 3.264160 1_545
Mg11 Mg3 3.420416 1_555
Mg11 Mg5 3.420422 1_545
Mg12 Mg5 3.220350 1_555
Mg12 Mg3 3.220356 1_555
Mg12 Mg6 3.264160 1_555
Mg12 Mg6 3.264160 1_665
Mg12 Mg8 3.264160 1_655
Mg12 Mg8 3.264160 1_555
Mg12 Mg4 3.314278 1_555
Mg12 Mg2 3.314284 1_555
Mg13 Mg5 3.220350 1_555
Mg13 Mg3 3.220356 1_555
Mg13 Mg7 3.264160 1_555
Mg13 Mg7 3.264160 1_665
Mg13 Mg9 3.264160 1_655
Mg13 Mg9 3.264160 1_555
Mg13 Mg4 3.314278 1_556
Mg13 Mg2 3.314284 1_556
