# generated using pymatgen
data_Ba2H14Cl4O15
_symmetry_space_group_name_H-M   'P 1'
_cell_length_a   11.63535599
_cell_length_b   11.63535599
_cell_length_c   6.79362823
_cell_angle_alpha   75.54528369
_cell_angle_beta   75.54528369
_cell_angle_gamma   72.49110649
_symmetry_Int_Tables_number   1
_chemical_formula_structural   Ba2H14Cl4O15
_chemical_formula_sum   'Ba4 H28 Cl8 O30'
_cell_volume   834.05149711
_cell_formula_units_Z   2
loop_
 _symmetry_equiv_pos_site_id
 _symmetry_equiv_pos_as_xyz
  1  'x, y, z'
loop_
 _atom_site_type_symbol
 _atom_site_label
 _atom_site_symmetry_multiplicity
 _atom_site_fract_x
 _atom_site_fract_y
 _atom_site_fract_z
 _atom_site_occupancy
  Ba  Ba0  1  0.86873700  0.61743300  0.75700300  1
  Ba  Ba1  1  0.38256700  0.13126300  0.74299700  1
  Ba  Ba2  1  0.13126300  0.38256700  0.24299700  1
  Ba  Ba3  1  0.61743300  0.86873700  0.25700300  1
  H  H0  1  0.90803400  0.32291900  0.05178900  1
  H  H1  1  0.67708100  0.09196600  0.44821100  1
  H  H2  1  0.09196600  0.67708100  0.94821100  1
  H  H3  1  0.32291900  0.90803400  0.55178900  1
  H  H4  1  0.02473600  0.31908400  0.87069600  1
  H  H5  1  0.68091600  0.97526400  0.62930400  1
  H  H6  1  0.97526400  0.68091600  0.12930400  1
  H  H7  1  0.31908400  0.02473600  0.37069600  1
  H  H8  1  0.72616900  0.38317900  0.84880800  1
  H  H9  1  0.61682100  0.27383100  0.65119200  1
  H  H10  1  0.27383100  0.61682100  0.15119200  1
  H  H11  1  0.38317900  0.72616900  0.34880800  1
  H  H12  1  0.62073700  0.50178300  0.81969200  1
  H  H13  1  0.49821700  0.37926300  0.68030800  1
  H  H14  1  0.37926300  0.49821700  0.18030800  1
  H  H15  1  0.50178300  0.62073700  0.31969200  1
  H  H16  1  0.76220300  0.16947100  0.85463100  1
  H  H17  1  0.83052900  0.23779700  0.64536900  1
  H  H18  1  0.23779700  0.83052900  0.14536900  1
  H  H19  1  0.16947100  0.76220300  0.35463100  1
  H  H20  1  0.59565800  0.46035800  0.13209300  1
  H  H21  1  0.53964200  0.40434200  0.36790700  1
  H  H22  1  0.40434200  0.53964200  0.86790700  1
  H  H23  1  0.46035800  0.59565800  0.63209300  1
  H  H24  1  0.86343700  0.17710700  0.33581800  1
  H  H25  1  0.82289300  0.13656300  0.16418200  1
  H  H26  1  0.13656300  0.82289300  0.66418200  1
  H  H27  1  0.17710700  0.86343700  0.83581800  1
  Cl  Cl0  1  0.77227900  0.51428800  0.34226000  1
  Cl  Cl1  1  0.48571200  0.22772100  0.15774000  1
  Cl  Cl2  1  0.22772100  0.48571200  0.65774000  1
  Cl  Cl3  1  0.51428800  0.77227900  0.84226000  1
  Cl  Cl4  1  0.94155300  0.87113700  0.35674000  1
  Cl  Cl5  1  0.12886300  0.05844700  0.14326000  1
  Cl  Cl6  1  0.05844700  0.12886300  0.64326000  1
  Cl  Cl7  1  0.87113700  0.94155300  0.85674000  1
  O  O0  1  0.89051600  0.49700500  0.43266600  1
  O  O1  1  0.50299500  0.10948400  0.06733400  1
  O  O2  1  0.10948400  0.50299500  0.56733400  1
  O  O3  1  0.49700500  0.89051600  0.93266600  1
  O  O4  1  0.75137500  0.63389100  0.16746400  1
  O  O5  1  0.36610900  0.24862500  0.33253600  1
  O  O6  1  0.24862500  0.36610900  0.83253600  1
  O  O7  1  0.63389100  0.75137500  0.66746400  1
  O  O8  1  0.87859300  0.77558900  0.32457600  1
  O  O9  1  0.22441100  0.12140700  0.17542400  1
  O  O10  1  0.12140700  0.22441100  0.67542400  1
  O  O11  1  0.77558900  0.87859300  0.82457600  1
  O  O12  1  0.03045500  0.80140900  0.51757000  1
  O  O13  1  0.19859100  0.96954500  0.98243000  1
  O  O14  1  0.96954500  0.19859100  0.48243000  1
  O  O15  1  0.80140900  0.03045500  0.01757000  1
  O  O16  1  0.97100400  0.36700300  0.97749600  1
  O  O17  1  0.63299700  0.02899600  0.52250400  1
  O  O18  1  0.02899600  0.63299700  0.02250400  1
  O  O19  1  0.36700300  0.97100400  0.47749600  1
  O  O20  1  0.69467400  0.46632200  0.88508900  1
  O  O21  1  0.53367800  0.30532600  0.61491100  1
  O  O22  1  0.30532600  0.53367800  0.11491100  1
  O  O23  1  0.46632200  0.69467400  0.38508900  1
  O  O24  1  0.75211500  0.24788500  0.75000000  1
  O  O25  1  0.24788500  0.75211500  0.25000000  1
  O  O26  1  0.52547100  0.47452900  0.25000000  1
  O  O27  1  0.47452900  0.52547100  0.75000000  1
  O  O28  1  0.80041400  0.19958600  0.25000000  1
  O  O29  1  0.19958600  0.80041400  0.75000000  1
loop_
_geom_bond_atom_site_label_1
_geom_bond_atom_site_label_2
_geom_bond_distance
_geom_bond_site_symmetry_2
Ba0 O4 2.808109 1_556
Ba0 O0 2.816324 1_555
Ba0 O7 2.838948 1_555
Ba0 O2 2.844332 1_655
Ba0 O20 2.906779 1_555
Ba0 O16 2.962225 1_555
Ba0 O18 2.967913 1_656
Ba0 O11 3.014199 1_555
Ba0 O8 3.047916 1_555
Ba0 O12 3.150567 1_655
Ba1 O5 2.808109 1_555
Ba1 O1 2.816324 1_556
Ba1 O6 2.838948 1_555
Ba1 O3 2.844332 1_545
Ba1 O21 2.906779 1_555
Ba1 O17 2.962225 1_555
Ba1 O19 2.967913 1_545
Ba1 O10 3.014199 1_555
Ba1 O9 3.047916 1_556
Ba1 O13 3.150567 1_545
Ba2 O6 2.808109 1_554
Ba2 O2 2.816324 1_555
Ba2 O5 2.838948 1_555
Ba2 O0 2.844332 1_455
Ba2 O22 2.906779 1_555
Ba2 O18 2.962225 1_555
Ba2 O16 2.967913 1_454
Ba2 O9 3.014199 1_555
Ba2 O10 3.047916 1_555
Ba2 O14 3.150567 1_455
Ba3 O7 2.808109 1_555
Ba3 O3 2.816324 1_554
Ba3 O4 2.838948 1_555
Ba3 O1 2.844332 1_565
Ba3 O23 2.906779 1_555
Ba3 O19 2.962225 1_555
Ba3 O17 2.967913 1_565
Ba3 O8 3.014199 1_555
Ba3 O11 3.047916 1_554
Ba3 O15 3.150567 1_565
H0 O16 0.983327 1_554
H1 O17 0.983327 1_555
H2 O18 0.983327 1_556
H3 O19 0.983327 1_555
H4 O16 0.996958 1_455
H5 O17 0.996958 1_565
H6 O18 0.996958 1_655
H7 O19 0.996958 1_545
H8 O20 0.995760 1_555
H9 O21 0.995760 1_555
H10 O22 0.995760 1_555
H11 O23 0.995760 1_555
H12 O20 0.996710 1_555
H13 O21 0.996710 1_555
H14 O22 0.996710 1_555
H15 O23 0.996710 1_555
H16 O24 1.002458 1_555
H16 O15 1.721623 1_556
H17 O24 1.002458 1_555
H17 O14 1.721623 1_555
H18 O25 1.002458 1_555
H18 O13 1.721623 1_554
H19 O25 1.002458 1_555
H19 O12 1.721623 1_555
H20 O26 0.997033 1_555
H21 O26 0.997033 1_555
H22 O27 0.997033 1_555
H23 O27 0.997033 1_555
H24 O28 0.983839 1_555
H25 O28 0.983839 1_555
H26 O29 0.983839 1_555
H27 O29 0.983839 1_555
Cl0 O0 1.582402 1_555
Cl0 O4 1.587909 1_555
Cl1 O1 1.582402 1_555
Cl1 O5 1.587909 1_555
Cl2 O2 1.582402 1_555
Cl2 O6 1.587909 1_555
Cl3 O3 1.582402 1_555
Cl3 O7 1.587909 1_555
Cl4 O8 1.584795 1_555
Cl4 O12 1.593349 1_655
Cl5 O9 1.584795 1_555
Cl5 O13 1.593349 1_544
Cl6 O10 1.584795 1_555
Cl6 O14 1.593349 1_455
Cl7 O11 1.584795 1_555
Cl7 O15 1.593349 1_566
