# generated using pymatgen
data_Al12ZnS19
_symmetry_space_group_name_H-M   'P 1'
_cell_length_a   7.05849167
_cell_length_b   7.05849167
_cell_length_c   27.51730700
_cell_angle_alpha   90.00000000
_cell_angle_beta   90.00000000
_cell_angle_gamma   119.99999688
_symmetry_Int_Tables_number   1
_chemical_formula_structural   Al12ZnS19
_chemical_formula_sum   'Al24 Zn2 S38'
_cell_volume   1187.29977952
_cell_formula_units_Z   2
loop_
 _symmetry_equiv_pos_site_id
 _symmetry_equiv_pos_as_xyz
  1  'x, y, z'
loop_
 _atom_site_type_symbol
 _atom_site_label
 _atom_site_symmetry_multiplicity
 _atom_site_fract_x
 _atom_site_fract_y
 _atom_site_fract_z
 _atom_site_occupancy
  Al  Al0  1  0.16814200  0.83185800  0.61044500  1
  Al  Al1  1  0.16814200  0.33628400  0.61044500  1
  Al  Al2  1  0.66371600  0.83185800  0.61044500  1
  Al  Al3  1  0.83185800  0.16814200  0.38955500  1
  Al  Al4  1  0.83185800  0.66371600  0.38955500  1
  Al  Al5  1  0.33628400  0.16814200  0.38955500  1
  Al  Al6  1  0.83185800  0.16814200  0.11044500  1
  Al  Al7  1  0.83185800  0.66371600  0.11044500  1
  Al  Al8  1  0.33628400  0.16814200  0.11044500  1
  Al  Al9  1  0.16814200  0.83185800  0.88955500  1
  Al  Al10  1  0.16814200  0.33628400  0.88955500  1
  Al  Al11  1  0.66371600  0.83185800  0.88955500  1
  Al  Al12  1  0.33333300  0.66666700  0.47351300  1
  Al  Al13  1  0.66666700  0.33333300  0.52648700  1
  Al  Al14  1  0.66666700  0.33333300  0.97351300  1
  Al  Al15  1  0.33333300  0.66666700  0.02648700  1
  Al  Al16  1  0.33333300  0.66666700  0.30974600  1
  Al  Al17  1  0.66666700  0.33333300  0.69025400  1
  Al  Al18  1  0.66666700  0.33333300  0.80974600  1
  Al  Al19  1  0.33333300  0.66666700  0.19025400  1
  Al  Al20  1  0.00000000  0.00000000  0.50000000  1
  Al  Al21  1  0.00000000  0.00000000  0.00000000  1
  Al  Al22  1  0.00000000  0.00000000  0.25000000  1
  Al  Al23  1  0.00000000  0.00000000  0.75000000  1
  Zn  Zn0  1  0.33333300  0.66666700  0.75000000  1
  Zn  Zn1  1  0.66666700  0.33333300  0.25000000  1
  S  S0  1  0.15524300  0.84475700  0.44554000  1
  S  S1  1  0.15524300  0.31048600  0.44554000  1
  S  S2  1  0.68951400  0.84475700  0.44554000  1
  S  S3  1  0.84475700  0.15524300  0.55446000  1
  S  S4  1  0.84475700  0.68951400  0.55446000  1
  S  S5  1  0.31048600  0.15524300  0.55446000  1
  S  S6  1  0.84475700  0.15524300  0.94554000  1
  S  S7  1  0.84475700  0.68951400  0.94554000  1
  S  S8  1  0.31048600  0.15524300  0.94554000  1
  S  S9  1  0.15524300  0.84475700  0.05446000  1
  S  S10  1  0.15524300  0.31048600  0.05446000  1
  S  S11  1  0.68951400  0.84475700  0.05446000  1
  S  S12  1  0.51066200  0.48933800  0.34428300  1
  S  S13  1  0.51066200  0.02132500  0.34428300  1
  S  S14  1  0.97867500  0.48933800  0.34428300  1
  S  S15  1  0.48933800  0.51066200  0.65571700  1
  S  S16  1  0.48933800  0.97867500  0.65571700  1
  S  S17  1  0.02132500  0.51066200  0.65571700  1
  S  S18  1  0.48933800  0.51066200  0.84428300  1
  S  S19  1  0.48933800  0.97867500  0.84428300  1
  S  S20  1  0.02132500  0.51066200  0.84428300  1
  S  S21  1  0.51066200  0.48933800  0.15571700  1
  S  S22  1  0.51066200  0.02132500  0.15571700  1
  S  S23  1  0.97867500  0.48933800  0.15571700  1
  S  S24  1  0.33333300  0.66666700  0.55622600  1
  S  S25  1  0.66666700  0.33333300  0.44377400  1
  S  S26  1  0.66666700  0.33333300  0.05622600  1
  S  S27  1  0.33333300  0.66666700  0.94377400  1
  S  S28  1  0.00000000  0.00000000  0.34614200  1
  S  S29  1  0.00000000  0.00000000  0.65385800  1
  S  S30  1  0.00000000  0.00000000  0.84614200  1
  S  S31  1  0.00000000  0.00000000  0.15385800  1
  S  S32  1  0.18373100  0.81626900  0.25000000  1
  S  S33  1  0.18373100  0.36746200  0.25000000  1
  S  S34  1  0.63253800  0.81626900  0.25000000  1
  S  S35  1  0.81626900  0.18373100  0.75000000  1
  S  S36  1  0.81626900  0.63253800  0.75000000  1
  S  S37  1  0.36746200  0.18373100  0.75000000  1
loop_
_geom_bond_atom_site_label_1
_geom_bond_atom_site_label_2
_geom_bond_distance
_geom_bond_site_symmetry_2
Al0 S16 2.327316 1_555
Al0 S17 2.327316 1_555
Al0 S29 2.377557 1_565
Al0 S5 2.509920 1_565
Al0 S4 2.509920 1_455
Al0 S24 2.510898 1_555
Al1 S17 2.327310 1_555
Al1 S15 2.327315 1_555
Al1 S29 2.377557 1_555
Al1 S5 2.509920 1_555
Al1 S3 2.509920 1_455
Al1 S24 2.510903 1_555
Al2 S16 2.327310 1_555
Al2 S15 2.327315 1_555
Al2 S29 2.377557 1_665
Al2 S4 2.509920 1_555
Al2 S3 2.509920 1_565
Al2 S24 2.510903 1_555
Al3 S14 2.327316 1_555
Al3 S13 2.327316 1_555
Al3 S28 2.377557 1_655
Al3 S1 2.509920 1_655
Al3 S2 2.509920 1_545
Al3 S25 2.510898 1_555
Al4 S14 2.327310 1_555
Al4 S12 2.327315 1_555
Al4 S28 2.377557 1_665
Al4 S2 2.509920 1_555
Al4 S0 2.509920 1_655
Al4 S25 2.510903 1_555
Al5 S13 2.327310 1_555
Al5 S12 2.327315 1_555
Al5 S28 2.377557 1_555
Al5 S1 2.509920 1_555
Al5 S0 2.509920 1_545
Al5 S25 2.510903 1_555
Al6 S23 2.327316 1_555
Al6 S22 2.327316 1_555
Al6 S31 2.377557 1_655
Al6 S10 2.509920 1_655
Al6 S11 2.509920 1_545
Al6 S26 2.510898 1_555
Al7 S23 2.327310 1_555
Al7 S21 2.327315 1_555
Al7 S31 2.377557 1_665
Al7 S11 2.509920 1_555
Al7 S9 2.509920 1_655
Al7 S26 2.510903 1_555
Al8 S22 2.327310 1_555
Al8 S21 2.327315 1_555
Al8 S31 2.377557 1_555
Al8 S10 2.509920 1_555
Al8 S9 2.509920 1_545
Al8 S26 2.510903 1_555
Al9 S19 2.327316 1_555
Al9 S20 2.327316 1_555
Al9 S30 2.377557 1_565
Al9 S8 2.509920 1_565
Al9 S7 2.509920 1_455
Al9 S27 2.510898 1_555
Al10 S20 2.327310 1_555
Al10 S18 2.327315 1_555
Al10 S30 2.377557 1_555
Al10 S8 2.509920 1_555
Al10 S6 2.509920 1_455
Al10 S27 2.510903 1_555
Al11 S19 2.327310 1_555
Al11 S18 2.327315 1_555
Al11 S30 2.377557 1_665
Al11 S7 2.509920 1_555
Al11 S6 2.509920 1_565
Al11 S27 2.510903 1_555
Al12 S24 2.276039 1_555
Al12 S0 2.309329 1_555
Al12 S2 2.309335 1_555
Al12 S1 2.309335 1_555
Al13 S25 2.276039 1_555
Al13 S3 2.309329 1_555
Al13 S4 2.309335 1_555
Al13 S5 2.309335 1_555
Al14 S26 2.276039 1_556
Al14 S6 2.309329 1_555
Al14 S7 2.309335 1_555
Al14 S8 2.309335 1_555
Al15 S27 2.276039 1_554
Al15 S9 2.309329 1_555
Al15 S10 2.309335 1_555
Al15 S11 2.309335 1_555
Al16 S12 2.367122 1_555
Al16 S14 2.367122 1_455
Al16 S13 2.367122 1_565
Al16 S32 2.459284 1_555
Al16 S33 2.459289 1_555
Al16 S34 2.459289 1_555
Al17 S15 2.367122 1_555
Al17 S16 2.367122 1_545
Al17 S17 2.367122 1_655
Al17 S35 2.459284 1_555
Al17 S37 2.459289 1_555
Al17 S36 2.459289 1_555
Al18 S18 2.367122 1_555
Al18 S19 2.367122 1_545
Al18 S20 2.367122 1_655
Al18 S35 2.459284 1_555
Al18 S37 2.459289 1_555
Al18 S36 2.459289 1_555
Al19 S21 2.367122 1_555
Al19 S23 2.367122 1_455
Al19 S22 2.367122 1_565
Al19 S32 2.459284 1_555
Al19 S33 2.459289 1_555
Al19 S34 2.459289 1_555
Al20 S3 2.418262 1_455
Al20 S0 2.418262 1_545
Al20 S4 2.418262 1_445
Al20 S5 2.418262 1_555
Al20 S1 2.418262 1_555
Al20 S2 2.418262 1_445
Al21 S6 2.418262 1_454
Al21 S9 2.418262 1_545
Al21 S8 2.418262 1_554
Al21 S7 2.418262 1_444
Al21 S10 2.418262 1_555
Al21 S11 2.418262 1_445
Al22 S32 2.246234 1_545
Al22 S34 2.246234 1_445
Al22 S33 2.246234 1_555
Al22 S28 2.645569 1_555
Al22 S31 2.645569 1_555
Al23 S35 2.246234 1_455
Al23 S36 2.246234 1_445
Al23 S37 2.246234 1_555
Al23 S29 2.645569 1_555
Al23 S30 2.645569 1_555
