# generated using pymatgen
data_Ca2BN2F
_symmetry_space_group_name_H-M   'P 1'
_cell_length_a   3.67843300
_cell_length_b   9.24138700
_cell_length_c   10.02998800
_cell_angle_alpha   90.00000000
_cell_angle_beta   90.00000000
_cell_angle_gamma   90.00000000
_symmetry_Int_Tables_number   1
_chemical_formula_structural   Ca2BN2F
_chemical_formula_sum   'Ca8 B4 N8 F4'
_cell_volume   340.95763583
_cell_formula_units_Z   4
loop_
 _symmetry_equiv_pos_site_id
 _symmetry_equiv_pos_as_xyz
  1  'x, y, z'
loop_
 _atom_site_type_symbol
 _atom_site_label
 _atom_site_symmetry_multiplicity
 _atom_site_fract_x
 _atom_site_fract_y
 _atom_site_fract_z
 _atom_site_occupancy
  Ca  Ca0  1  0.25000000  0.67649600  0.02559000  1
  Ca  Ca1  1  0.75000000  0.82350400  0.52559000  1
  Ca  Ca2  1  0.25000000  0.17649600  0.47441000  1
  Ca  Ca3  1  0.75000000  0.32350400  0.97441000  1
  Ca  Ca4  1  0.25000000  0.52712400  0.65627100  1
  Ca  Ca5  1  0.75000000  0.47287600  0.34372900  1
  Ca  Ca6  1  0.25000000  0.02712400  0.84372900  1
  Ca  Ca7  1  0.75000000  0.97287600  0.15627100  1
  B  B0  1  0.25000000  0.73531100  0.32349900  1
  B  B1  1  0.75000000  0.26468900  0.67650100  1
  B  B2  1  0.25000000  0.23531100  0.17650100  1
  B  B3  1  0.75000000  0.76468900  0.82349900  1
  N  N0  1  0.25000000  0.65355000  0.43563400  1
  N  N1  1  0.75000000  0.34645000  0.56436600  1
  N  N2  1  0.25000000  0.15355000  0.06436600  1
  N  N3  1  0.75000000  0.17917900  0.78334700  1
  N  N4  1  0.25000000  0.32082100  0.28334700  1
  N  N5  1  0.75000000  0.67917900  0.71665300  1
  N  N6  1  0.25000000  0.82082100  0.21665300  1
  N  N7  1  0.75000000  0.84645000  0.93563400  1
  F  F0  1  0.75000000  0.54069000  0.10551600  1
  F  F1  1  0.75000000  0.04069000  0.39448400  1
  F  F2  1  0.25000000  0.45931000  0.89448400  1
  F  F3  1  0.25000000  0.95931000  0.60551600  1
loop_
_geom_bond_atom_site_label_1
_geom_bond_atom_site_label_2
_geom_bond_distance
_geom_bond_site_symmetry_2
Ca0 N6 2.334814 1_555
Ca0 F0 2.366535 1_455
Ca0 F0 2.366535 1_555
Ca0 F2 2.399511 1_554
Ca0 N7 2.581396 1_554
Ca0 N7 2.581396 1_454
Ca1 N5 2.334814 1_555
Ca1 F3 2.366535 1_655
Ca1 F3 2.366535 1_555
Ca1 F1 2.399511 1_565
Ca1 N0 2.581396 1_655
Ca1 N0 2.581396 1_555
Ca2 N4 2.334814 1_555
Ca2 F1 2.366535 1_455
Ca2 F1 2.366535 1_555
Ca2 F3 2.399511 1_545
Ca2 N1 2.581396 1_555
Ca2 N1 2.581396 1_455
Ca3 N3 2.334814 1_555
Ca3 F2 2.366535 1_555
Ca3 F2 2.366535 1_655
Ca3 F0 2.399511 1_556
Ca3 N2 2.581396 1_556
Ca3 N2 2.581396 1_656
Ca4 N5 2.392507 1_455
Ca4 N5 2.392507 1_555
Ca4 F2 2.470096 1_555
Ca4 N0 2.502470 1_555
Ca4 N1 2.649579 1_555
Ca4 N1 2.649579 1_455
Ca5 N4 2.392507 1_555
Ca5 N4 2.392507 1_655
Ca5 F0 2.470096 1_555
Ca5 N1 2.502470 1_555
Ca5 N0 2.649579 1_655
Ca5 N0 2.649579 1_555
Ca6 N3 2.392507 1_555
Ca6 N3 2.392507 1_455
Ca6 F3 2.470096 1_545
Ca6 N2 2.502470 1_556
Ca6 N7 2.649579 1_445
Ca6 N7 2.649579 1_545
Ca7 N6 2.392507 1_655
Ca7 N6 2.392507 1_555
Ca7 F1 2.470096 1_565
Ca7 N7 2.502470 1_554
Ca7 N2 2.649579 1_565
Ca7 N2 2.649579 1_665
B0 N6 1.331514 1_555
B0 N0 1.354949 1_555
B1 N3 1.331514 1_555
B1 N1 1.354949 1_555
B2 N4 1.331514 1_555
B2 N2 1.354949 1_555
B3 N5 1.331514 1_555
B3 N7 1.354949 1_555
