# generated using pymatgen
data_LiCoO2
_symmetry_space_group_name_H-M   'P 1'
_cell_length_a   5.81394161
_cell_length_b   5.84753541
_cell_length_c   5.82480419
_cell_angle_alpha   120.45493023
_cell_angle_beta   91.03751537
_cell_angle_gamma   59.37026190
_symmetry_Int_Tables_number   1
_chemical_formula_structural   LiCoO2
_chemical_formula_sum   'Li4 Co4 O8'
_cell_volume   138.97763487
_cell_formula_units_Z   4
loop_
 _symmetry_equiv_pos_site_id
 _symmetry_equiv_pos_as_xyz
  1  'x, y, z'
loop_
 _atom_site_type_symbol
 _atom_site_label
 _atom_site_symmetry_multiplicity
 _atom_site_fract_x
 _atom_site_fract_y
 _atom_site_fract_z
 _atom_site_occupancy
  Li  Li0  1  0.50001400  0.00000100  0.99998700  1
  Li  Li1  1  0.50001400  0.49999300  0.49997700  1
  Li  Li2  1  0.00002000  0.99999200  0.99998200  1
  Li  Li3  1  0.50001000  0.50000100  0.99998300  1
  Co  Co0  1  0.00001100  0.49999700  0.99998600  1
  Co  Co1  1  0.00001000  0.49999800  0.49998600  1
  Co  Co2  1  0.50001100  0.99999700  0.49998600  1
  Co  Co3  1  0.00001100  0.99999800  0.49998600  1
  O  O0  1  0.74293800  0.99550400  0.26808900  1
  O  O1  1  0.74870500  0.52352600  0.25997700  1
  O  O2  1  0.22692800  0.51258700  0.24624100  1
  O  O3  1  0.75076900  0.98571900  0.72972400  1
  O  O4  1  0.24925300  0.01427500  0.27024800  1
  O  O5  1  0.77309400  0.48740800  0.75373100  1
  O  O6  1  0.25131800  0.47646700  0.73999300  1
  O  O7  1  0.25708600  0.00449000  0.73188300  1
loop_
_geom_bond_atom_site_label_1
_geom_bond_atom_site_label_2
_geom_bond_distance
_geom_bond_site_symmetry_2
Li0 O0 2.087594 1_546
Li0 O7 2.087616 1_555
Li0 O3 2.106263 1_545
Li0 O4 2.106311 1_556
Li0 O2 2.106498 1_556
Li0 O5 2.106525 1_545
Li1 O0 2.075097 1_545
Li1 O7 2.075125 1_565
Li1 O1 2.129487 1_555
Li1 O6 2.129543 1_555
Li1 O2 2.148679 1_555
Li1 O5 2.148726 1_555
Li2 O4 2.119512 1_566
Li2 O3 2.119550 1_455
Li2 O6 2.150030 1_555
Li2 O1 2.150064 1_466
Li2 O7 2.199843 1_565
Li2 O0 2.199900 1_456
Li3 O6 2.077277 1_555
Li3 O1 2.077303 1_556
Li3 O5 2.107102 1_555
Li3 O2 2.107145 1_556
Li3 O4 2.112764 1_566
Li3 O3 2.112795 1_545
Co0 O5 1.930487 1_455
Co0 O2 1.930487 1_556
Co0 O1 2.027596 1_456
Co0 O6 2.027605 1_555
Co0 O0 2.037854 1_456
Co0 O7 2.037854 1_555
Co1 O3 1.995268 1_455
Co1 O4 1.995277 1_555
Co1 O1 2.006055 1_455
Co1 O6 2.006060 1_555
Co1 O5 2.051908 1_455
Co1 O2 2.051912 1_555
Co2 O7 1.953271 1_565
Co2 O0 1.953279 1_555
Co2 O6 1.956402 1_565
Co2 O1 1.956407 1_555
Co2 O3 1.960031 1_555
Co2 O4 1.960031 1_565
Co3 O0 1.997500 1_455
Co3 O7 1.997508 1_565
Co3 O5 2.004277 1_465
Co3 O2 2.004281 1_555
Co3 O4 2.050431 1_565
Co3 O3 2.050440 1_455
