# generated using pymatgen
data_Ca(MnS2)2
_symmetry_space_group_name_H-M   'P 1'
_cell_length_a   7.99474339
_cell_length_b   7.99474339
_cell_length_c   7.99474339
_cell_angle_alpha   127.39749740
_cell_angle_beta   127.39749740
_cell_angle_gamma   77.60311193
_symmetry_Int_Tables_number   1
_chemical_formula_structural   Ca(MnS2)2
_chemical_formula_sum   'Ca2 Mn4 S8'
_cell_volume   312.73416804
_cell_formula_units_Z   2
loop_
 _symmetry_equiv_pos_site_id
 _symmetry_equiv_pos_as_xyz
  1  'x, y, z'
loop_
 _atom_site_type_symbol
 _atom_site_label
 _atom_site_symmetry_multiplicity
 _atom_site_fract_x
 _atom_site_fract_y
 _atom_site_fract_z
 _atom_site_occupancy
  Ca  Ca0  1  0.50000000  0.50000000  0.00000000  1
  Ca  Ca1  1  0.25000000  0.75000000  0.50000000  1
  Mn  Mn0  1  0.87500000  0.12500000  0.25000000  1
  Mn  Mn1  1  0.37500000  0.12500000  0.25000000  1
  Mn  Mn2  1  0.87500000  0.62500000  0.75000000  1
  Mn  Mn3  1  0.87500000  0.12500000  0.75000000  1
  S  S0  1  0.67483400  0.89291800  0.78191600  1
  S  S1  1  0.10708200  0.88899800  0.78191600  1
  S  S2  1  0.10708200  0.32516600  0.21808400  1
  S  S3  1  0.07516600  0.35708200  0.71808400  1
  S  S4  1  0.63899800  0.35708200  0.28191600  1
  S  S5  1  0.64291800  0.36100200  0.71808400  1
  S  S6  1  0.11100200  0.89291800  0.21808400  1
  S  S7  1  0.64291800  0.92483400  0.28191600  1
loop_
_geom_bond_atom_site_label_1
_geom_bond_atom_site_label_2
_geom_bond_distance
_geom_bond_site_symmetry_2
Ca0 S7 2.675977 1_555
Ca0 S3 2.675977 1_554
Ca0 S4 2.675977 1_555
Ca0 S5 2.675977 1_554
Ca1 S1 2.675977 1_555
Ca1 S0 2.675977 1_555
Ca1 S6 2.675977 1_555
Ca1 S2 2.675977 1_555
Mn0 S6 2.360989 1_645
Mn0 S3 2.360989 1_655
Mn0 S4 2.360989 1_555
Mn0 S0 2.360989 1_544
Mn0 S2 2.900787 1_655
Mn0 S7 2.900787 1_545
Mn1 S5 2.360989 1_555
Mn1 S2 2.360989 1_555
Mn1 S1 2.360989 1_544
Mn1 S7 2.360989 1_545
Mn1 S4 2.900787 1_555
Mn1 S6 2.900787 1_545
Mn2 S6 2.360989 1_656
Mn2 S3 2.360989 1_655
Mn2 S4 2.360989 1_555
Mn2 S0 2.360989 1_555
Mn2 S5 2.900787 1_555
Mn2 S1 2.900787 1_655
Mn3 S1 2.360989 1_645
Mn3 S7 2.360989 1_545
Mn3 S2 2.360989 1_656
Mn3 S5 2.360989 1_555
Mn3 S0 2.900787 1_545
Mn3 S3 2.900787 1_655
