# generated using pymatgen
data_CaTeO3
_symmetry_space_group_name_H-M   'P 1'
_cell_length_a   5.69158575
_cell_length_b   8.46303137
_cell_length_c   11.34300822
_cell_angle_alpha   69.75331200
_cell_angle_beta   90.00000000
_cell_angle_gamma   90.00000000
_symmetry_Int_Tables_number   1
_chemical_formula_structural   CaTeO3
_chemical_formula_sum   'Ca6 Te6 O18'
_cell_volume   512.61128120
_cell_formula_units_Z   6
loop_
 _symmetry_equiv_pos_site_id
 _symmetry_equiv_pos_as_xyz
  1  'x, y, z'
loop_
 _atom_site_type_symbol
 _atom_site_label
 _atom_site_symmetry_multiplicity
 _atom_site_fract_x
 _atom_site_fract_y
 _atom_site_fract_z
 _atom_site_occupancy
  Ca  Ca0  1  0.81480414  0.29602127  0.05346200  1
  Ca  Ca1  1  0.31480414  0.70397873  0.94653800  1
  Ca  Ca2  1  0.83242876  0.00200676  0.86724894  1
  Ca  Ca3  1  0.25848955  0.97908534  0.61654041  1
  Ca  Ca4  1  0.75848955  0.02091466  0.38345959  1
  Ca  Ca5  1  0.33242876  0.99799324  0.13275106  1
  Te  Te0  1  0.32626864  0.25652363  0.82864955  1
  Te  Te1  1  0.82626864  0.74347637  0.17135045  1
  Te  Te2  1  0.23626332  0.68894741  0.47450824  1
  Te  Te3  1  0.73626332  0.31105259  0.52549176  1
  Te  Te4  1  0.25307745  0.33109314  0.24814722  1
  Te  Te5  1  0.75307745  0.66890686  0.75185278  1
  O  O0  1  0.22769425  0.07572767  0.78299187  1
  O  O1  1  0.72769425  0.92427233  0.21700813  1
  O  O2  1  0.55825151  0.15295811  0.94801376  1
  O  O3  1  0.05825151  0.84704189  0.05198624  1
  O  O4  1  0.64215482  0.52896880  0.90922226  1
  O  O5  1  0.52487492  0.23672648  0.20589170  1
  O  O6  1  0.70709931  0.24266983  0.69884076  1
  O  O7  1  0.20709931  0.75733017  0.30115924  1
  O  O8  1  0.50501244  0.18425191  0.48324932  1
  O  O9  1  0.00501244  0.81574809  0.51675068  1
  O  O10  1  0.97636570  0.17573983  0.50347376  1
  O  O11  1  0.56541206  0.84806113  0.75603204  1
  O  O12  1  0.09170213  0.20924871  0.95167576  1
  O  O13  1  0.59170213  0.79075129  0.04832424  1
  O  O14  1  0.02487492  0.76327352  0.79410830  1
  O  O15  1  0.47636570  0.82426017  0.49652624  1
  O  O16  1  0.06541206  0.15193887  0.24396796  1
  O  O17  1  0.14215482  0.47103120  0.09077774  1
loop_
_geom_bond_atom_site_label_1
_geom_bond_atom_site_label_2
_geom_bond_distance
_geom_bond_site_symmetry_2
Ca0 O12 2.223255 1_654
Ca0 O4 2.301433 1_554
Ca0 O5 2.315988 1_555
Ca0 O2 2.455819 1_554
Ca0 O17 2.505608 1_655
Ca0 O16 2.523327 1_655
Ca1 O13 2.223255 1_556
Ca1 O17 2.301433 1_556
Ca1 O14 2.315988 1_555
Ca1 O3 2.455819 1_556
Ca1 O4 2.505608 1_555
Ca1 O11 2.523327 1_555
Ca2 O6 2.369254 1_555
Ca2 O2 2.390917 1_555
Ca2 O3 2.420925 1_646
Ca2 O0 2.439480 1_655
Ca2 O11 2.595396 1_545
Ca2 O13 2.598218 1_546
Ca2 O14 2.670246 1_645
Ca2 O12 2.708022 1_655
Ca3 O0 2.309378 1_565
Ca3 O8 2.335058 1_565
Ca3 O10 2.348566 1_465
Ca3 O11 2.360158 1_555
Ca3 O15 2.518406 1_555
Ca3 O9 2.521183 1_555
Ca3 O14 2.571858 1_555
Ca4 O1 2.309378 1_545
Ca4 O9 2.335058 1_645
Ca4 O15 2.348566 1_545
Ca4 O16 2.360158 1_655
Ca4 O10 2.518406 1_555
Ca4 O8 2.521183 1_555
Ca4 O5 2.571858 1_555
Ca5 O7 2.369254 1_555
Ca5 O3 2.390917 1_555
Ca5 O2 2.420925 1_564
Ca5 O1 2.439480 1_555
Ca5 O16 2.595396 1_565
Ca5 O12 2.598218 1_564
Ca5 O5 2.670246 1_565
Ca5 O13 2.708022 1_555
O0 Te0 1.863490 1_555
O1 Te1 1.863490 1_555
O2 Te0 1.877064 1_555
O3 Te1 1.877064 1_455
O4 Te5 1.877324 1_555
O5 Te4 1.877647 1_555
O6 Te3 1.855049 1_555
O6 Te0 2.645647 1_555
O7 Te2 1.855049 1_555
O7 Te1 2.645647 1_455
O8 Te3 1.862632 1_555
O9 Te2 1.862632 1_555
O10 Te3 1.854509 1_555
O11 Te5 1.868606 1_555
O12 Te0 1.871738 1_555
O13 Te1 1.871738 1_555
O14 Te5 1.877647 1_455
O15 Te2 1.854509 1_555
O16 Te4 1.868606 1_555
O17 Te4 1.877324 1_555
