# generated using pymatgen
data_Si9Ni25
_symmetry_space_group_name_H-M   'P 1'
_cell_length_a   6.62217287
_cell_length_b   6.62217374
_cell_length_c   9.51982059
_cell_angle_alpha   90.00000000
_cell_angle_beta   90.00000000
_cell_angle_gamma   119.99999162
_symmetry_Int_Tables_number   1
_chemical_formula_structural   Si9Ni25
_chemical_formula_sum   'Si9 Ni25'
_cell_volume   361.54346514
_cell_formula_units_Z   1
loop_
 _symmetry_equiv_pos_site_id
 _symmetry_equiv_pos_as_xyz
  1  'x, y, z'
loop_
 _atom_site_type_symbol
 _atom_site_label
 _atom_site_symmetry_multiplicity
 _atom_site_fract_x
 _atom_site_fract_y
 _atom_site_fract_z
 _atom_site_occupancy
  Si  Si0  1  0.99243176  0.32903916  0.67744130  1
  Si  Si1  1  0.00756824  0.67096084  0.32255870  1
  Si  Si2  1  0.33660641  0.00756824  0.67744130  1
  Si  Si3  1  0.66339359  0.99243176  0.32255870  1
  Si  Si4  1  0.67096084  0.66339359  0.67744130  1
  Si  Si5  1  0.32903916  0.33660641  0.32255870  1
  Si  Si6  1  0.66666700  0.33333300  0.97541270  1
  Si  Si7  1  0.33333300  0.66666700  0.02458730  1
  Si  Si8  1  -0.00000000  0.00000000  -0.00000000  1
  Ni  Ni0  1  0.65694696  0.70194445  0.92522798  1
  Ni  Ni1  1  0.34305304  0.29805555  0.07477202  1
  Ni  Ni2  1  0.04499649  0.34305304  0.92522798  1
  Ni  Ni3  1  0.95500351  0.65694696  0.07477202  1
  Ni  Ni4  1  0.29805555  0.95500351  0.92522798  1
  Ni  Ni5  1  0.70194445  0.04499649  0.07477202  1
  Ni  Ni6  1  0.66666700  0.33333300  0.61010191  1
  Ni  Ni7  1  0.33333300  0.66666700  0.38989809  1
  Ni  Ni8  1  -0.00000000  0.00000000  0.75553090  1
  Ni  Ni9  1  -0.00000000  0.00000000  0.24446910  1
  Ni  Ni10  1  -0.00000000  0.00000000  0.50000000  1
  Ni  Ni11  1  0.66666700  0.33333300  0.23686406  1
  Ni  Ni12  1  0.33333300  0.66666700  0.76313594  1
  Ni  Ni13  1  0.67215589  0.07201827  0.81192645  1
  Ni  Ni14  1  0.32784411  0.92798173  0.18807355  1
  Ni  Ni15  1  0.39986238  0.32784411  0.81192645  1
  Ni  Ni16  1  0.60013762  0.67215589  0.18807355  1
  Ni  Ni17  1  0.92798173  0.60013762  0.81192645  1
  Ni  Ni18  1  0.07201827  0.39986238  0.18807355  1
  Ni  Ni19  1  0.62151011  0.93553414  0.56717927  1
  Ni  Ni20  1  0.37848989  0.06446586  0.43282073  1
  Ni  Ni21  1  0.31402403  0.37848989  0.56717927  1
  Ni  Ni22  1  0.68597597  0.62151011  0.43282073  1
  Ni  Ni23  1  0.06446586  0.68597597  0.56717927  1
  Ni  Ni24  1  0.93553414  0.31402403  0.43282073  1
loop_
_geom_bond_atom_site_label_1
_geom_bond_atom_site_label_2
_geom_bond_distance
_geom_bond_site_symmetry_2
Ni0 Si7 2.245261 1_556
Ni0 Si8 2.253755 1_666
Ni0 Si4 2.379457 1_555
Ni0 Ni15 2.445704 1_555
Ni0 Ni17 2.459557 1_555
Ni0 Si6 2.519531 1_555
Ni0 Ni16 2.523380 1_556
Ni0 Ni12 2.554921 1_555
Ni0 Ni5 2.568936 1_566
Ni0 Ni3 2.568947 1_556
Ni0 Ni13 2.632986 1_565
Ni0 Ni8 2.680023 1_665
Ni0 Ni1 2.818072 1_556
Ni1 Si6 2.245261 1_554
Ni1 Si8 2.253755 1_555
Ni1 Si5 2.379457 1_555
Ni1 Ni16 2.445704 1_555
Ni1 Ni18 2.459557 1_555
Ni1 Si7 2.519531 1_555
Ni1 Ni15 2.523380 1_554
Ni1 Ni11 2.554921 1_555
Ni1 Ni4 2.568936 1_544
Ni1 Ni2 2.568947 1_554
Ni1 Ni14 2.632986 1_545
Ni1 Ni9 2.680023 1_555
Ni2 Si7 2.245261 1_556
Ni2 Si8 2.253758 1_556
Ni2 Si0 2.379457 1_455
Ni2 Si6 2.519517 1_455
Ni2 Ni5 2.568940 1_456
Ni2 Ni8 2.680025 1_555
Ni2 Ni3 2.818064 1_456
Ni3 Si6 2.245261 1_554
Ni3 Si8 2.253758 1_665
Ni3 Si1 2.379457 1_655
Ni3 Si7 2.519517 1_655
Ni3 Ni4 2.568940 1_654
Ni3 Ni9 2.680025 1_665
Ni4 Si7 2.245261 1_556
Ni4 Si8 2.253751 1_566
Ni4 Si2 2.379457 1_565
Ni4 Si6 2.519524 1_565
Ni4 Ni8 2.680020 1_565
Ni4 Ni5 2.818076 1_566
Ni5 Si6 2.245261 1_554
Ni5 Si8 2.253751 1_655
Ni5 Si3 2.379457 1_545
Ni5 Si7 2.519524 1_545
Ni5 Ni9 2.680020 1_655
Ni6 Si0 2.264271 1_555
Ni6 Si2 2.264278 1_555
Ni6 Si4 2.264284 1_555
Ni7 Si1 2.264271 1_555
Ni7 Si3 2.264278 1_555
Ni7 Si5 2.264284 1_555
Ni8 Si2 2.326407 1_555
Ni8 Si4 2.326411 1_445
Ni8 Si0 2.326414 1_455
Ni8 Si8 2.327302 1_556
Ni9 Si3 2.326407 1_445
Ni9 Si5 2.326411 1_555
Ni9 Si1 2.326414 1_545
Ni9 Si8 2.327302 1_555
Ni10 Ni20 2.409028 1_555
Ni10 Ni19 2.409028 1_445
Ni10 Ni24 2.409028 1_455
Ni10 Ni23 2.409028 1_545
Ni10 Ni22 2.409029 1_445
Ni10 Ni21 2.409029 1_555
Ni10 Ni8 2.432608 1_555
Ni10 Ni9 2.432608 1_555
Ni11 Si5 2.390271 1_555
Ni11 Si3 2.390272 1_545
Ni11 Si1 2.390272 1_655
Ni11 Si6 2.488970 1_554
Ni11 Ni18 2.536280 1_655
Ni11 Ni14 2.536283 1_545
Ni11 Ni16 2.536287 1_555
Ni11 Ni5 2.554921 1_555
Ni11 Ni3 2.554921 1_555
Ni11 Ni24 2.625667 1_555
Ni11 Ni20 2.625670 1_555
Ni11 Ni22 2.625672 1_555
Ni12 Si4 2.390271 1_555
Ni12 Si2 2.390272 1_565
Ni12 Si0 2.390272 1_455
Ni12 Si7 2.488970 1_556
Ni12 Ni17 2.536280 1_455
Ni12 Ni13 2.536283 1_565
Ni12 Ni15 2.536287 1_555
Ni12 Ni4 2.554921 1_555
Ni12 Ni2 2.554921 1_555
Ni12 Ni23 2.625667 1_555
Ni12 Ni19 2.625670 1_555
Ni12 Ni21 2.625672 1_555
Ni13 Si0 2.329046 1_555
Ni13 Si6 2.341155 1_555
Ni13 Si2 2.410490 1_555
Ni13 Ni4 2.445705 1_545
Ni13 Ni2 2.459553 1_655
Ni13 Ni19 2.460673 1_545
Ni13 Ni8 2.502900 1_655
Ni13 Ni5 2.523381 1_556
Ni13 Ni6 2.598129 1_555
Ni14 Si1 2.329046 1_555
Ni14 Si7 2.341155 1_555
Ni14 Si3 2.410490 1_555
Ni14 Ni5 2.445705 1_565
Ni14 Ni3 2.459553 1_455
Ni14 Ni20 2.460673 1_565
Ni14 Ni9 2.502900 1_565
Ni14 Ni4 2.523381 1_554
Ni14 Ni7 2.598129 1_555
Ni15 Si2 2.329044 1_555
Ni15 Si6 2.341160 1_555
Ni15 Si4 2.410489 1_555
Ni15 Ni4 2.459551 1_545
Ni15 Ni21 2.460673 1_555
Ni15 Ni8 2.502900 1_555
Ni15 Ni6 2.598133 1_555
Ni15 Ni2 2.632992 1_555
Ni16 Si3 2.329044 1_555
Ni16 Si7 2.341160 1_555
Ni16 Si5 2.410489 1_555
Ni16 Ni5 2.459551 1_565
Ni16 Ni22 2.460673 1_555
Ni16 Ni9 2.502900 1_665
Ni16 Ni7 2.598133 1_555
Ni16 Ni3 2.632992 1_555
Ni17 Si4 2.329050 1_555
Ni17 Si6 2.341158 1_555
Ni17 Si0 2.410485 1_555
Ni17 Ni2 2.445699 1_655
Ni17 Ni23 2.460673 1_655
Ni17 Ni8 2.502900 1_665
Ni17 Ni3 2.523380 1_556
Ni17 Ni6 2.598131 1_555
Ni17 Ni4 2.632989 1_655
Ni18 Si5 2.329050 1_555
Ni18 Si7 2.341158 1_555
Ni18 Si1 2.410485 1_555
Ni18 Ni3 2.445699 1_455
Ni18 Ni24 2.460673 1_455
Ni18 Ni9 2.502900 1_555
Ni18 Ni2 2.523380 1_554
Ni18 Ni7 2.598131 1_555
Ni18 Ni5 2.632989 1_455
Ni19 Si4 2.246553 1_555
Ni19 Si3 2.353176 1_555
Ni19 Si2 2.406018 1_565
Ni19 Ni7 2.502486 1_555
Ni19 Ni20 2.515746 1_565
Ni19 Ni6 2.531430 1_565
Ni19 Ni22 2.651496 1_555
Ni19 Ni24 2.651496 1_565
Ni19 Si0 2.743169 1_565
Ni20 Si5 2.246553 1_555
Ni20 Si2 2.353176 1_555
Ni20 Si3 2.406018 1_545
Ni20 Ni6 2.502486 1_555
Ni20 Ni7 2.531430 1_545
Ni20 Ni21 2.651496 1_555
Ni20 Ni23 2.651496 1_545
Ni20 Si1 2.743169 1_545
Ni21 Si0 2.246558 1_455
Ni21 Si5 2.353177 1_555
Ni21 Si4 2.406015 1_555
Ni21 Ni7 2.502488 1_555
Ni21 Ni22 2.515746 1_555
Ni21 Ni6 2.531437 1_555
Ni21 Ni24 2.651496 1_455
Ni21 Si2 2.743165 1_555
Ni22 Si1 2.246558 1_655
Ni22 Si4 2.353177 1_555
Ni22 Si5 2.406015 1_555
Ni22 Ni6 2.502488 1_555
Ni22 Ni7 2.531437 1_555
Ni22 Ni23 2.651496 1_655
Ni22 Si3 2.743165 1_555
Ni23 Si2 2.246556 1_565
Ni23 Si1 2.353176 1_555
Ni23 Si0 2.406013 1_455
Ni23 Ni7 2.502483 1_555
Ni23 Ni24 2.515746 1_455
Ni23 Ni6 2.531433 1_455
Ni23 Si4 2.743171 1_455
Ni24 Si3 2.246556 1_545
Ni24 Si0 2.353176 1_555
Ni24 Si1 2.406013 1_655
Ni24 Ni6 2.502483 1_555
Ni24 Ni7 2.531433 1_655
Ni24 Si5 2.743171 1_655
