# generated using pymatgen
data_ZnH9C4(NO2)3
_symmetry_space_group_name_H-M   'P 1'
_cell_length_a   8.56656900
_cell_length_b   11.92000200
_cell_length_c   8.98045000
_cell_angle_alpha   90.00000000
_cell_angle_beta   90.00000000
_cell_angle_gamma   90.00000000
_symmetry_Int_Tables_number   1
_chemical_formula_structural   ZnH9C4(NO2)3
_chemical_formula_sum   'Zn4 H36 C16 N12 O24'
_cell_volume   917.02535721
_cell_formula_units_Z   4
loop_
 _symmetry_equiv_pos_site_id
 _symmetry_equiv_pos_as_xyz
  1  'x, y, z'
loop_
 _atom_site_type_symbol
 _atom_site_label
 _atom_site_symmetry_multiplicity
 _atom_site_fract_x
 _atom_site_fract_y
 _atom_site_fract_z
 _atom_site_occupancy
  Zn  Zn0  1  0.25372200  0.75000000  0.25000000  1
  Zn  Zn1  1  0.24627800  0.25000000  0.25000000  1
  Zn  Zn2  1  0.74627800  0.25000000  0.75000000  1
  Zn  Zn3  1  0.75372200  0.75000000  0.75000000  1
  H  H0  1  0.25000000  0.50000000  0.17633600  1
  H  H1  1  0.25000000  0.00000000  0.32366400  1
  H  H2  1  0.75000000  0.50000000  0.82366400  1
  H  H3  1  0.75000000  0.00000000  0.67633600  1
  H  H4  1  0.59007700  0.71415300  0.42835700  1
  H  H5  1  0.90992300  0.28584700  0.42835700  1
  H  H6  1  0.59007700  0.78584700  0.07164300  1
  H  H7  1  0.90992300  0.21415300  0.07164300  1
  H  H8  1  0.40992300  0.28584700  0.57164300  1
  H  H9  1  0.09007700  0.71415300  0.57164300  1
  H  H10  1  0.40992300  0.21415300  0.92835700  1
  H  H11  1  0.09007700  0.78584700  0.92835700  1
  H  H12  1  0.33151600  0.57722100  0.56858400  1
  H  H13  1  0.16848400  0.42277900  0.56858400  1
  H  H14  1  0.33151600  0.92277900  0.93141600  1
  H  H15  1  0.16848400  0.07722100  0.93141600  1
  H  H16  1  0.66848400  0.42277900  0.43141600  1
  H  H17  1  0.83151600  0.57722100  0.43141600  1
  H  H18  1  0.66848400  0.07722100  0.06858400  1
  H  H19  1  0.83151600  0.92277900  0.06858400  1
  H  H20  1  0.41403500  0.62414900  0.74037600  1
  H  H21  1  0.08596500  0.37585100  0.74037600  1
  H  H22  1  0.41403500  0.87585100  0.75962400  1
  H  H23  1  0.08596500  0.12414900  0.75962400  1
  H  H24  1  0.58596500  0.37585100  0.25962400  1
  H  H25  1  0.91403500  0.62414900  0.25962400  1
  H  H26  1  0.58596500  0.12414900  0.24037600  1
  H  H27  1  0.91403500  0.87585100  0.24037600  1
  H  H28  1  0.31379500  0.55876700  0.96248700  1
  H  H29  1  0.18620500  0.44123300  0.96248700  1
  H  H30  1  0.31379500  0.94123300  0.53751300  1
  H  H31  1  0.18620500  0.05876700  0.53751300  1
  H  H32  1  0.68620500  0.44123300  0.03751300  1
  H  H33  1  0.81379500  0.55876700  0.03751300  1
  H  H34  1  0.68620500  0.05876700  0.46248700  1
  H  H35  1  0.81379500  0.94123300  0.46248700  1
  C  C0  1  0.25000000  0.50000000  0.29884000  1
  C  C1  1  0.25000000  0.00000000  0.20116000  1
  C  C2  1  0.75000000  0.50000000  0.70116000  1
  C  C3  1  0.75000000  0.00000000  0.79884000  1
  C  C4  1  0.51821400  0.77771600  0.48705200  1
  C  C5  1  0.98178600  0.22228400  0.48705200  1
  C  C6  1  0.51821400  0.72228400  0.01294800  1
  C  C7  1  0.98178600  0.27771600  0.01294800  1
  C  C8  1  0.48178600  0.22228400  0.51294800  1
  C  C9  1  0.01821400  0.77771600  0.51294800  1
  C  C10  1  0.48178600  0.27771600  0.98705200  1
  C  C11  1  0.01821400  0.72228400  0.98705200  1
  C  C12  1  0.25000000  0.50000000  0.75680700  1
  C  C13  1  0.25000000  0.00000000  0.74319300  1
  C  C14  1  0.75000000  0.50000000  0.24319300  1
  C  C15  1  0.75000000  0.00000000  0.25680700  1
  N  N0  1  0.33969800  0.57303500  0.68215300  1
  N  N1  1  0.16030200  0.42696500  0.68215300  1
  N  N2  1  0.33969800  0.92696500  0.81784700  1
  N  N3  1  0.16030200  0.07303500  0.81784700  1
  N  N4  1  0.66030200  0.42696500  0.31784700  1
  N  N5  1  0.83969800  0.57303500  0.31784700  1
  N  N6  1  0.66030200  0.07303500  0.18215300  1
  N  N7  1  0.83969800  0.92696500  0.18215300  1
  N  N8  1  0.25000000  0.50000000  0.90518400  1
  N  N9  1  0.25000000  0.00000000  0.59481600  1
  N  N10  1  0.75000000  0.50000000  0.09481600  1
  N  N11  1  0.75000000  0.00000000  0.40518400  1
  O  O0  1  0.25860700  0.59383200  0.36555500  1
  O  O1  1  0.24139300  0.40616800  0.36555500  1
  O  O2  1  0.25860700  0.90616800  0.13444500  1
  O  O3  1  0.24139300  0.09383200  0.13444500  1
  O  O4  1  0.74139300  0.40616800  0.63444500  1
  O  O5  1  0.75860700  0.59383200  0.63444500  1
  O  O6  1  0.74139300  0.09383200  0.86555500  1
  O  O7  1  0.75860700  0.90616800  0.86555500  1
  O  O8  1  0.39763900  0.81605100  0.42194200  1
  O  O9  1  0.10236100  0.18394900  0.42194200  1
  O  O10  1  0.39763900  0.68394900  0.07805800  1
  O  O11  1  0.10236100  0.31605100  0.07805800  1
  O  O12  1  0.60236100  0.18394900  0.57805800  1
  O  O13  1  0.89763900  0.81605100  0.57805800  1
  O  O14  1  0.60236100  0.31605100  0.92194200  1
  O  O15  1  0.89763900  0.68394900  0.92194200  1
  O  O16  1  0.56017100  0.80837400  0.61631400  1
  O  O17  1  0.93982900  0.19162600  0.61631400  1
  O  O18  1  0.56017100  0.69162600  0.88368600  1
  O  O19  1  0.93982900  0.30837400  0.88368600  1
  O  O20  1  0.43982900  0.19162600  0.38368600  1
  O  O21  1  0.06017100  0.80837400  0.38368600  1
  O  O22  1  0.43982900  0.30837400  0.11631400  1
  O  O23  1  0.06017100  0.69162600  0.11631400  1
loop_
_geom_bond_atom_site_label_1
_geom_bond_atom_site_label_2
_geom_bond_distance
_geom_bond_site_symmetry_2
H12 N0 1.023523 1_555
H13 N1 1.023523 1_555
H14 N2 1.023523 1_555
H15 N3 1.023523 1_555
H16 N4 1.023523 1_555
H17 N5 1.023523 1_555
H18 N6 1.023523 1_555
H19 N7 1.023523 1_555
H20 N0 1.024765 1_555
H21 N1 1.024765 1_555
H22 N2 1.024765 1_555
H23 N3 1.024765 1_555
H24 N4 1.024765 1_555
H25 N5 1.024765 1_555
H26 N6 1.024765 1_555
H27 N7 1.024765 1_555
H28 N8 1.026738 1_555
H29 N8 1.026738 1_555
H30 N9 1.026738 1_565
H31 N9 1.026738 1_555
H32 N10 1.026738 1_555
H33 N10 1.026738 1_555
H34 N11 1.026738 1_555
H35 N11 1.026738 1_565
C0 H0 1.100141 1_555
C0 O0 1.270978 1_555
C0 O1 1.270978 1_555
C1 H1 1.100141 1_555
C1 O3 1.270978 1_555
C1 O2 1.270978 1_545
C2 H2 1.100141 1_555
C2 O4 1.270978 1_555
C2 O5 1.270978 1_555
C3 H3 1.100141 1_555
C3 O6 1.270978 1_555
C3 O7 1.270978 1_545
C4 H4 1.109457 1_555
C4 O16 1.268962 1_555
C4 O8 1.271854 1_555
C5 H5 1.109457 1_555
C5 O17 1.268962 1_555
C5 O9 1.271854 1_655
C6 H6 1.109457 1_555
C6 O18 1.268962 1_554
C6 O10 1.271854 1_555
C7 H7 1.109457 1_555
C7 O19 1.268962 1_554
C7 O11 1.271854 1_655
C8 H8 1.109457 1_555
C8 O20 1.268962 1_555
C8 O12 1.271854 1_555
C9 H9 1.109457 1_555
C9 O21 1.268962 1_555
C9 O13 1.271854 1_455
C10 H10 1.109457 1_555
C10 O22 1.268962 1_556
C10 O14 1.271854 1_555
C11 H11 1.109457 1_555
C11 O23 1.268962 1_556
C11 O15 1.271854 1_455
C12 N8 1.332492 1_555
C12 N0 1.340829 1_555
C12 N1 1.340829 1_555
C13 N9 1.332492 1_555
C13 N2 1.340829 1_545
C13 N3 1.340829 1_555
C14 N10 1.332492 1_555
C14 N5 1.340829 1_555
C14 N4 1.340829 1_555
C15 N11 1.332492 1_555
C15 N7 1.340829 1_545
C15 N6 1.340829 1_555
O0 Zn0 2.131646 1_555
O1 Zn1 2.131646 1_555
O2 Zn0 2.131646 1_555
O3 Zn1 2.131646 1_555
O4 Zn2 2.131646 1_555
O5 Zn3 2.131646 1_555
O6 Zn2 2.131646 1_555
O7 Zn3 2.131646 1_555
O8 Zn0 2.127008 1_555
O9 Zn1 2.127008 1_555
O10 Zn0 2.127008 1_555
O11 Zn1 2.127008 1_555
O12 Zn2 2.127008 1_555
O13 Zn3 2.127008 1_555
O14 Zn2 2.127008 1_555
O15 Zn3 2.127008 1_555
O16 Zn3 2.162105 1_555
O17 Zn2 2.162105 1_555
O18 Zn3 2.162105 1_555
O19 Zn2 2.162105 1_555
O20 Zn1 2.162105 1_555
O21 Zn0 2.162105 1_555
O22 Zn1 2.162105 1_555
O23 Zn0 2.162105 1_555
