# generated using pymatgen
data_K3AsS4
_symmetry_space_group_name_H-M   'P 1'
_cell_length_a   9.25560800
_cell_length_b   9.52184800
_cell_length_c   10.81511500
_cell_angle_alpha   90.00000000
_cell_angle_beta   90.00000000
_cell_angle_gamma   90.00000000
_symmetry_Int_Tables_number   1
_chemical_formula_structural   K3AsS4
_chemical_formula_sum   'K12 As4 S16'
_cell_volume   953.14141165
_cell_formula_units_Z   4
loop_
 _symmetry_equiv_pos_site_id
 _symmetry_equiv_pos_as_xyz
  1  'x, y, z'
loop_
 _atom_site_type_symbol
 _atom_site_label
 _atom_site_symmetry_multiplicity
 _atom_site_fract_x
 _atom_site_fract_y
 _atom_site_fract_z
 _atom_site_occupancy
  K  K0  1  0.94187600  0.70354000  0.00837300  1
  K  K1  1  0.05812400  0.29646000  0.50837300  1
  K  K2  1  0.55812400  0.20354000  0.50837300  1
  K  K3  1  0.44187600  0.79646000  0.00837300  1
  K  K4  1  0.94461200  0.70080600  0.41766300  1
  K  K5  1  0.05538800  0.29919400  0.91766300  1
  K  K6  1  0.55538800  0.20080600  0.91766300  1
  K  K7  1  0.44461200  0.79919400  0.41766300  1
  K  K8  1  0.63897600  0.41923400  0.21998100  1
  K  K9  1  0.36102400  0.58076600  0.71998100  1
  K  K10  1  0.86102400  0.91923400  0.71998100  1
  K  K11  1  0.13897600  0.08076600  0.21998100  1
  As  As0  1  0.72085700  0.98127200  0.21137100  1
  As  As1  1  0.27914300  0.01872800  0.71137100  1
  As  As2  1  0.77914300  0.48127200  0.71137100  1
  As  As3  1  0.22085700  0.51872800  0.21137100  1
  S  S0  1  0.69024500  0.75310300  0.21431400  1
  S  S1  1  0.30975500  0.24689700  0.71431400  1
  S  S2  1  0.80975500  0.25310300  0.71431400  1
  S  S3  1  0.19024500  0.74689700  0.21431400  1
  S  S4  1  0.83881400  0.03567200  0.04237900  1
  S  S5  1  0.16118600  0.96432800  0.54237900  1
  S  S6  1  0.66118600  0.53567200  0.54237900  1
  S  S7  1  0.33881400  0.46432800  0.04237900  1
  S  S8  1  0.50933800  0.08759100  0.21248000  1
  S  S9  1  0.49066200  0.91240900  0.71248000  1
  S  S10  1  0.99066200  0.58759100  0.71248000  1
  S  S11  1  0.00933800  0.41240900  0.21248000  1
  S  S12  1  0.83993100  0.04229800  0.37883900  1
  S  S13  1  0.16006900  0.95770200  0.87883900  1
  S  S14  1  0.66006900  0.54229800  0.87883900  1
  S  S15  1  0.33993100  0.45770200  0.37883900  1
loop_
_geom_bond_atom_site_label_1
_geom_bond_atom_site_label_2
_geom_bond_distance
_geom_bond_site_symmetry_2
K0 S3 3.227337 1_655
K0 S0 3.256947 1_555
K0 S4 3.323652 1_565
K0 S14 3.335117 1_554
K0 S10 3.415196 1_554
K0 S13 3.449326 1_654
K0 S11 3.598227 1_655
K1 S2 3.227337 1_455
K1 S1 3.256947 1_555
K1 S5 3.323652 1_545
K1 S15 3.335117 1_555
K1 S11 3.415196 1_555
K1 S12 3.449326 1_455
K1 S10 3.598227 1_455
K2 S1 3.227337 1_555
K2 S2 3.256947 1_555
K2 S6 3.323652 1_555
K2 S12 3.335117 1_555
K2 S8 3.415196 1_555
K2 S15 3.449326 1_555
K2 S9 3.598227 1_545
K3 S0 3.227337 1_555
K3 S3 3.256947 1_555
K3 S7 3.323652 1_555
K3 S13 3.335117 1_554
K3 S9 3.415196 1_554
K3 S14 3.449326 1_554
K3 S8 3.598227 1_565
K4 S3 3.193431 1_655
K4 S0 3.259979 1_555
K4 S6 3.342647 1_555
K4 S10 3.392666 1_555
K4 S12 3.418797 1_565
K4 S5 3.483331 1_655
K4 S11 3.581077 1_655
K5 S2 3.193431 1_455
K5 S1 3.259979 1_555
K5 S7 3.342647 1_556
K5 S11 3.392666 1_556
K5 S13 3.418797 1_545
K5 S4 3.483331 1_456
K5 S10 3.581077 1_455
K6 S1 3.193431 1_555
K6 S2 3.259979 1_555
K6 S4 3.342647 1_556
K6 S8 3.392666 1_556
K6 S14 3.418797 1_555
K6 S7 3.483331 1_556
K6 S9 3.581077 1_545
K7 S0 3.193431 1_555
K7 S3 3.259979 1_555
K7 S5 3.342647 1_555
K7 S9 3.392666 1_555
K7 S15 3.418797 1_555
K7 S6 3.483331 1_555
K7 S8 3.581077 1_565
K8 S0 3.214854 1_555
K8 S15 3.278243 1_555
K8 S8 3.379102 1_555
K8 S7 3.404714 1_555
K8 S11 3.429501 1_655
K8 S6 3.664568 1_555
K9 S1 3.214854 1_555
K9 S14 3.278243 1_555
K9 S9 3.379102 1_555
K9 S6 3.404714 1_555
K9 S10 3.429501 1_455
K9 S7 3.664568 1_556
K10 S2 3.214854 1_565
K10 S13 3.278243 1_655
K10 S10 3.379102 1_555
K10 S5 3.404714 1_655
K10 S9 3.429501 1_555
K10 S4 3.664568 1_566
K11 S3 3.214854 1_545
K11 S12 3.278243 1_455
K11 S11 3.379102 1_555
K11 S4 3.404714 1_455
K11 S8 3.429501 1_555
K11 S5 3.664568 1_545
As0 S4 2.191034 1_565
As0 S0 2.191219 1_555
As0 S12 2.198335 1_565
As0 S8 2.204027 1_565
As1 S5 2.191034 1_545
As1 S1 2.191219 1_555
As1 S13 2.198335 1_545
As1 S9 2.204027 1_545
As2 S6 2.191034 1_555
As2 S2 2.191219 1_555
As2 S14 2.198335 1_555
As2 S10 2.204027 1_555
As3 S7 2.191034 1_555
As3 S3 2.191219 1_555
As3 S15 2.198335 1_555
As3 S11 2.204027 1_555
