# generated using pymatgen
data_Co7SnN6
_symmetry_space_group_name_H-M   'P 1'
_cell_length_a   9.79504131
_cell_length_b   5.86972627
_cell_length_c   10.44371229
_cell_angle_alpha   90.00000000
_cell_angle_beta   90.00000000
_cell_angle_gamma   90.00000000
_symmetry_Int_Tables_number   1
_chemical_formula_structural   Co7SnN6
_chemical_formula_sum   'Co28 Sn4 N24'
_cell_volume   600.45300109
_cell_formula_units_Z   4
loop_
 _symmetry_equiv_pos_site_id
 _symmetry_equiv_pos_as_xyz
  1  'x, y, z'
loop_
 _atom_site_type_symbol
 _atom_site_label
 _atom_site_symmetry_multiplicity
 _atom_site_fract_x
 _atom_site_fract_y
 _atom_site_fract_z
 _atom_site_occupancy
  Co  Co0  1  0.99679823  0.71431224  0.99011719  1
  Co  Co1  1  0.50320177  0.78568776  0.49011719  1
  Co  Co2  1  0.49679823  0.78568776  0.00988281  1
  Co  Co3  1  0.00320177  0.71431224  0.50988281  1
  Co  Co4  1  0.00320177  0.28568776  0.00988281  1
  Co  Co5  1  0.49679823  0.21431224  0.50988281  1
  Co  Co6  1  0.50320177  0.21431224  0.99011719  1
  Co  Co7  1  0.99679823  0.28568776  0.49011719  1
  Co  Co8  1  0.24655880  0.74625317  0.64382373  1
  Co  Co9  1  0.25344120  0.75374683  0.14382373  1
  Co  Co10  1  0.74655880  0.75374683  0.35617627  1
  Co  Co11  1  0.75344120  0.74625317  0.85617627  1
  Co  Co12  1  0.75344120  0.25374683  0.35617627  1
  Co  Co13  1  0.74655880  0.24625317  0.85617627  1
  Co  Co14  1  0.25344120  0.24625317  0.64382373  1
  Co  Co15  1  0.24655880  0.25374683  0.14382373  1
  Co  Co16  1  0.20920929  0.50797662  0.92348575  1
  Co  Co17  1  0.29079071  0.99202338  0.42348575  1
  Co  Co18  1  0.70920929  0.99202338  0.07651425  1
  Co  Co19  1  0.79079071  0.50797662  0.57651425  1
  Co  Co20  1  0.79079071  0.49202338  0.07651425  1
  Co  Co21  1  0.70920929  0.00797662  0.57651425  1
  Co  Co22  1  0.29079071  0.00797662  0.92348575  1
  Co  Co23  1  0.20920929  0.49202338  0.42348575  1
  Co  Co24  1  0.00000000  0.45184324  0.75000000  1
  Co  Co25  1  0.50000000  0.04815676  0.25000000  1
  Co  Co26  1  0.00000000  0.54815676  0.25000000  1
  Co  Co27  1  0.50000000  0.95184324  0.75000000  1
  Sn  Sn0  1  0.00000000  0.90673817  0.75000000  1
  Sn  Sn1  1  0.50000000  0.59326183  0.25000000  1
  Sn  Sn2  1  0.00000000  0.09326183  0.25000000  1
  Sn  Sn3  1  0.50000000  0.40673817  0.75000000  1
  N  N0  1  0.20461117  0.50315451  0.75110596  1
  N  N1  1  0.29538883  0.99684549  0.25110596  1
  N  N2  1  0.70461117  0.99684549  0.24889404  1
  N  N3  1  0.79538883  0.50315451  0.74889404  1
  N  N4  1  0.79538883  0.49684549  0.24889404  1
  N  N5  1  0.70461117  0.00315451  0.74889404  1
  N  N6  1  0.29538883  0.00315451  0.75110596  1
  N  N7  1  0.20461117  0.49684549  0.25110596  1
  N  N8  1  0.17605678  0.78265511  0.48162122  1
  N  N9  1  0.32394322  0.71734489  0.98162122  1
  N  N10  1  0.67605678  0.71734489  0.51837878  1
  N  N11  1  0.82394322  0.78265511  0.01837878  1
  N  N12  1  0.82394322  0.21734489  0.51837878  1
  N  N13  1  0.67605678  0.28265511  0.01837878  1
  N  N14  1  0.32394322  0.28265511  0.48162122  1
  N  N15  1  0.17605678  0.21734489  0.98162122  1
  N  N16  1  0.43746833  0.71467001  0.64254762  1
  N  N17  1  0.06253167  0.78532999  0.14254762  1
  N  N18  1  0.93746833  0.78532999  0.35745238  1
  N  N19  1  0.56253167  0.71467001  0.85745238  1
  N  N20  1  0.56253167  0.28532999  0.35745238  1
  N  N21  1  0.93746833  0.21467001  0.85745238  1
  N  N22  1  0.06253167  0.21467001  0.64254762  1
  N  N23  1  0.43746833  0.28532999  0.14254762  1
loop_
_geom_bond_atom_site_label_1
_geom_bond_atom_site_label_2
_geom_bond_distance
_geom_bond_site_symmetry_2
Co0 N11 1.764852 1_556
Co0 N17 1.767087 1_656
Co1 N10 1.764852 1_555
Co1 N16 1.767087 1_555
Co2 N9 1.764852 1_554
Co2 N19 1.767087 1_554
Co3 N8 1.764852 1_555
Co3 N18 1.767087 1_455
Co4 N15 1.764852 1_554
Co4 N21 1.767087 1_454
Co5 N14 1.764852 1_555
Co5 N20 1.767087 1_555
Co6 N13 1.764852 1_556
Co6 N23 1.767087 1_556
Co7 N12 1.764852 1_555
Co7 N22 1.767087 1_655
Co8 N8 1.841783 1_555
Co8 N0 1.860183 1_555
Co8 N16 1.879181 1_555
Co8 N6 1.938556 1_565
Co9 N9 1.841783 1_554
Co9 N1 1.860183 1_555
Co9 N17 1.879181 1_555
Co9 N7 1.938556 1_555
Co10 N10 1.841783 1_555
Co10 N2 1.860183 1_555
Co10 N18 1.879181 1_555
Co10 N4 1.938556 1_555
Co11 N11 1.841783 1_556
Co11 N3 1.860183 1_555
Co11 N19 1.879181 1_555
Co11 N5 1.938556 1_565
Co12 N12 1.841783 1_555
Co12 N4 1.860183 1_555
Co12 N20 1.879181 1_555
Co12 N2 1.938556 1_545
Co13 N13 1.841783 1_556
Co13 N5 1.860183 1_555
Co13 N21 1.879181 1_555
Co13 N3 1.938556 1_555
Co14 N14 1.841783 1_555
Co14 N6 1.860183 1_555
Co14 N22 1.879181 1_555
Co14 N0 1.938556 1_555
Co15 N15 1.841783 1_554
Co15 N7 1.860183 1_555
Co15 N23 1.879181 1_555
Co15 N1 1.938556 1_545
Co16 N9 1.772538 1_555
Co16 N0 1.801071 1_555
Co16 N15 1.839640 1_555
Co17 N8 1.772538 1_555
Co17 N1 1.801071 1_555
Co17 N14 1.839640 1_565
Co18 N11 1.772538 1_555
Co18 N2 1.801071 1_555
Co18 N13 1.839640 1_565
Co19 N10 1.772538 1_555
Co19 N3 1.801071 1_555
Co19 N12 1.839640 1_555
Co20 N13 1.772538 1_555
Co20 N4 1.801071 1_555
Co20 N11 1.839640 1_555
Co21 N12 1.772538 1_555
Co21 N5 1.801071 1_555
Co21 N10 1.839640 1_545
Co22 N15 1.772538 1_555
Co22 N6 1.801071 1_555
Co22 N9 1.839640 1_545
Co23 N14 1.772538 1_555
Co23 N7 1.801071 1_555
Co23 N8 1.839640 1_555
Co24 N22 1.890120 1_555
Co24 N21 1.890120 1_455
Co24 N3 2.026712 1_455
Co24 N0 2.026712 1_555
Co25 N23 1.890120 1_555
Co25 N20 1.890120 1_555
Co25 N2 2.026712 1_545
Co25 N1 2.026712 1_545
Co26 N17 1.890120 1_555
Co26 N18 1.890120 1_455
Co26 N4 2.026712 1_455
Co26 N7 2.026712 1_555
Co27 N19 1.890120 1_555
Co27 N16 1.890120 1_555
Co27 N5 2.026712 1_565
Co27 N6 2.026712 1_565
N16 Sn3 2.213924 1_555
N17 Sn2 2.213924 1_565
N18 Sn2 2.213924 1_665
N19 Sn3 2.213924 1_555
N20 Sn1 2.213924 1_555
N21 Sn0 2.213924 1_645
N22 Sn0 2.213924 1_545
N23 Sn1 2.213924 1_555
