# generated using pymatgen
data_Ba2GdV3O11
_symmetry_space_group_name_H-M   'P 1'
_cell_length_a   7.82149800
_cell_length_b   12.48276402
_cell_length_c   11.38799756
_cell_angle_alpha   103.14243533
_cell_angle_beta   90.00000000
_cell_angle_gamma   90.00000000
_symmetry_Int_Tables_number   1
_chemical_formula_structural   Ba2GdV3O11
_chemical_formula_sum   'Ba8 Gd4 V12 O44'
_cell_volume   1082.73288833
_cell_formula_units_Z   4
loop_
 _symmetry_equiv_pos_site_id
 _symmetry_equiv_pos_as_xyz
  1  'x, y, z'
loop_
 _atom_site_type_symbol
 _atom_site_label
 _atom_site_symmetry_multiplicity
 _atom_site_fract_x
 _atom_site_fract_y
 _atom_site_fract_z
 _atom_site_occupancy
  Ba  Ba0  1  0.27365100  0.76825600  0.94193500  1
  Ba  Ba1  1  0.72634900  0.23174400  0.05806500  1
  Ba  Ba2  1  0.77365100  0.23174400  0.55806500  1
  Ba  Ba3  1  0.22634900  0.76825600  0.44193500  1
  Ba  Ba4  1  0.74773300  0.55455900  0.88951500  1
  Ba  Ba5  1  0.25226700  0.44544100  0.11048500  1
  Ba  Ba6  1  0.24773300  0.44544100  0.61048500  1
  Ba  Ba7  1  0.75226700  0.55455900  0.38951500  1
  Gd  Gd0  1  0.49960200  0.99779700  0.71497400  1
  Gd  Gd1  1  0.50039800  0.00220300  0.28502600  1
  Gd  Gd2  1  0.99960200  0.00220300  0.78502600  1
  Gd  Gd3  1  0.00039800  0.99779700  0.21497400  1
  V  V0  1  0.75381500  0.90522400  0.97594100  1
  V  V1  1  0.24618500  0.09477600  0.02405900  1
  V  V2  1  0.25381500  0.09477600  0.52405900  1
  V  V3  1  0.74618500  0.90522400  0.47594100  1
  V  V4  1  0.51906900  0.68410700  0.67348000  1
  V  V5  1  0.48093100  0.31589300  0.32652000  1
  V  V6  1  0.01906900  0.31589300  0.82652000  1
  V  V7  1  0.98093100  0.68410700  0.17348000  1
  V  V8  1  0.98149800  0.68748600  0.67095300  1
  V  V9  1  0.01850200  0.31251400  0.32904700  1
  V  V10  1  0.48149800  0.31251400  0.82904700  1
  V  V11  1  0.51850200  0.68748600  0.17095300  1
  O  O0  1  0.44424200  0.81807200  0.71797200  1
  O  O1  1  0.55575800  0.18192800  0.28202800  1
  O  O2  1  0.94424200  0.18192800  0.78202800  1
  O  O3  1  0.05575800  0.81807200  0.21797200  1
  O  O4  1  0.55068500  0.17759100  0.80682300  1
  O  O5  1  0.44931500  0.82240900  0.19317700  1
  O  O6  1  0.05068500  0.82240900  0.69317700  1
  O  O7  1  0.94931500  0.17759100  0.30682300  1
  O  O8  1  0.75036700  0.66606300  0.66735700  1
  O  O9  1  0.24963300  0.33393700  0.33264300  1
  O  O10  1  0.25036700  0.33393700  0.83264300  1
  O  O11  1  0.74963300  0.66606300  0.16735700  1
  O  O12  1  0.94476200  0.37529900  0.96620500  1
  O  O13  1  0.05523800  0.62470100  0.03379500  1
  O  O14  1  0.44476200  0.62470100  0.53379500  1
  O  O15  1  0.55523800  0.37529900  0.46620500  1
  O  O16  1  0.94071700  0.39177500  0.73133500  1
  O  O17  1  0.05928300  0.60822500  0.26866500  1
  O  O18  1  0.44071700  0.60822500  0.76866500  1
  O  O19  1  0.55928300  0.39177500  0.23133500  1
  O  O20  1  0.78266900  0.98687000  0.62379300  1
  O  O21  1  0.21733100  0.01313000  0.37620700  1
  O  O22  1  0.28266900  0.01313000  0.87620700  1
  O  O23  1  0.71733100  0.98687000  0.12379300  1
  O  O24  1  0.97153000  0.88198100  0.97346400  1
  O  O25  1  0.02847000  0.11801900  0.02653600  1
  O  O26  1  0.47153000  0.11801900  0.52653600  1
  O  O27  1  0.52847000  0.88198100  0.47346400  1
  O  O28  1  0.63954500  0.78642300  0.94661900  1
  O  O29  1  0.36045500  0.21357700  0.05338100  1
  O  O30  1  0.13954500  0.21357700  0.55338100  1
  O  O31  1  0.86045500  0.78642300  0.44661900  1
  O  O32  1  0.72087600  0.98354000  0.86463100  1
  O  O33  1  0.27912400  0.01646000  0.13536900  1
  O  O34  1  0.22087600  0.01646000  0.63536900  1
  O  O35  1  0.77912400  0.98354000  0.36463100  1
  O  O36  1  0.55881600  0.37034200  0.71874300  1
  O  O37  1  0.44118400  0.62965800  0.28125700  1
  O  O38  1  0.05881600  0.62965800  0.78125700  1
  O  O39  1  0.94118400  0.37034200  0.21874300  1
  O  O40  1  0.56324000  0.38714600  0.96140500  1
  O  O41  1  0.43676000  0.61285400  0.03859500  1
  O  O42  1  0.06324000  0.61285400  0.53859500  1
  O  O43  1  0.93676000  0.38714600  0.46140500  1
loop_
_geom_bond_atom_site_label_1
_geom_bond_atom_site_label_2
_geom_bond_distance
_geom_bond_site_symmetry_2
Ba0 O24 2.737947 1_455
Ba0 O41 2.751956 1_556
Ba0 O38 2.779441 1_555
Ba0 O18 2.792676 1_555
Ba0 O13 2.841876 1_556
Ba0 O28 2.870347 1_555
Ba0 O0 3.064834 1_555
Ba0 O5 3.106659 1_556
Ba0 O22 3.308947 1_565
Ba0 O33 3.368968 1_566
Ba1 O25 2.737947 1_655
Ba1 O40 2.751956 1_554
Ba1 O39 2.779441 1_555
Ba1 O19 2.792676 1_555
Ba1 O12 2.841876 1_554
Ba1 O29 2.870347 1_555
Ba1 O1 3.064834 1_555
Ba1 O4 3.106659 1_554
Ba1 O23 3.308947 1_545
Ba1 O32 3.368968 1_544
Ba2 O26 2.737947 1_555
Ba2 O43 2.751956 1_555
Ba2 O36 2.779441 1_555
Ba2 O16 2.792676 1_555
Ba2 O15 2.841876 1_555
Ba2 O30 2.870347 1_655
Ba2 O2 3.064834 1_555
Ba2 O7 3.106659 1_555
Ba2 O20 3.308947 1_545
Ba2 O35 3.368968 1_545
Ba3 O27 2.737947 1_555
Ba3 O42 2.751956 1_555
Ba3 O37 2.779441 1_555
Ba3 O17 2.792676 1_555
Ba3 O14 2.841876 1_555
Ba3 O31 2.870347 1_455
Ba3 O3 3.064834 1_555
Ba3 O6 3.106659 1_555
Ba3 O21 3.308947 1_565
Ba3 O34 3.368968 1_565
Ba4 O40 2.810285 1_555
Ba4 O16 2.826254 1_555
Ba4 O18 2.920345 1_555
Ba4 O13 2.932031 1_656
Ba4 O28 2.942791 1_555
Ba4 O41 2.960735 1_556
Ba4 O38 2.973954 1_655
Ba4 O12 3.005564 1_555
Ba4 O36 3.036386 1_555
Ba4 O8 3.152720 1_555
Ba4 O11 3.153752 1_556
Ba5 O41 2.810285 1_555
Ba5 O17 2.826254 1_555
Ba5 O19 2.920345 1_555
Ba5 O12 2.932031 1_454
Ba5 O29 2.942791 1_555
Ba5 O40 2.960735 1_554
Ba5 O39 2.973954 1_455
Ba5 O13 3.005564 1_555
Ba5 O37 3.036386 1_555
Ba5 O9 3.152720 1_555
Ba5 O10 3.153752 1_554
Ba6 O42 2.810285 1_555
Ba6 O18 2.826254 1_555
Ba6 O16 2.920345 1_455
Ba6 O15 2.932031 1_555
Ba6 O30 2.942791 1_555
Ba6 O43 2.960735 1_455
Ba6 O36 2.973954 1_555
Ba6 O14 3.005564 1_555
Ba6 O38 3.036386 1_555
Ba6 O10 3.152720 1_555
Ba6 O9 3.153752 1_555
Ba7 O43 2.810285 1_555
Ba7 O19 2.826254 1_555
Ba7 O17 2.920345 1_655
Ba7 O14 2.932031 1_555
Ba7 O31 2.942791 1_555
Ba7 O42 2.960735 1_655
Ba7 O37 2.973954 1_555
Ba7 O15 3.005564 1_555
Ba7 O39 3.036386 1_555
Ba7 O11 3.152720 1_555
Ba7 O8 3.153752 1_555
Gd0 O4 2.285428 1_565
Gd0 O0 2.292732 1_555
Gd0 O34 2.392649 1_565
Gd0 O20 2.436029 1_555
Gd0 O32 2.463639 1_555
Gd0 O22 2.475296 1_565
Gd0 O27 2.810186 1_555
Gd0 O26 2.893061 1_565
Gd1 O5 2.285428 1_545
Gd1 O1 2.292732 1_555
Gd1 O35 2.392649 1_545
Gd1 O21 2.436029 1_555
Gd1 O33 2.463639 1_555
Gd1 O23 2.475296 1_545
Gd1 O26 2.810186 1_555
Gd1 O27 2.893061 1_545
Gd2 O6 2.285428 1_645
Gd2 O2 2.292732 1_555
Gd2 O32 2.392649 1_545
Gd2 O22 2.436029 1_655
Gd2 O34 2.463639 1_655
Gd2 O20 2.475296 1_545
Gd2 O25 2.810186 1_656
Gd2 O24 2.893061 1_545
Gd3 O7 2.285428 1_465
Gd3 O3 2.292732 1_555
Gd3 O33 2.392649 1_565
Gd3 O23 2.436029 1_455
Gd3 O35 2.463639 1_455
Gd3 O21 2.475296 1_565
Gd3 O24 2.810186 1_454
Gd3 O25 2.893061 1_565
O0 V4 1.735044 1_555
O1 V5 1.735044 1_555
O2 V6 1.735044 1_655
O3 V7 1.735044 1_455
O4 V10 1.731943 1_555
O5 V11 1.731943 1_555
O6 V8 1.731943 1_455
O7 V9 1.731943 1_655
O8 V4 1.822439 1_555
O8 V8 1.826559 1_555
O9 V5 1.822439 1_555
O9 V9 1.826559 1_555
O10 V6 1.822439 1_555
O10 V10 1.826559 1_555
O11 V7 1.822439 1_555
O11 V11 1.826559 1_555
O12 V6 1.697554 1_655
O13 V7 1.697554 1_455
O14 V4 1.697554 1_555
O15 V5 1.697554 1_555
O16 V6 1.707242 1_655
O17 V7 1.707242 1_455
O18 V4 1.707242 1_555
O19 V5 1.707242 1_555
O20 V3 1.781785 1_555
O21 V2 1.781785 1_555
O22 V1 1.781785 1_556
O23 V0 1.781785 1_554
O24 V0 1.726551 1_555
O25 V1 1.726551 1_555
O26 V2 1.726551 1_555
O27 V3 1.726551 1_555
O28 V0 1.698326 1_555
O29 V1 1.698326 1_555
O30 V2 1.698326 1_555
O31 V3 1.698326 1_555
O32 V0 1.786730 1_555
O33 V1 1.786730 1_555
O34 V2 1.786730 1_555
O35 V3 1.786730 1_555
O36 V10 1.696177 1_555
O37 V11 1.696177 1_555
O38 V8 1.696177 1_455
O39 V9 1.696177 1_655
O40 V10 1.705883 1_555
O41 V11 1.705883 1_555
O42 V8 1.705883 1_455
O43 V9 1.705883 1_655
