# generated using pymatgen
data_NaSr2LaTi4O12
_symmetry_space_group_name_H-M   'P 1'
_cell_length_a   8.78097406
_cell_length_b   8.78097406
_cell_length_c   8.78097406
_cell_angle_alpha   143.12031919
_cell_angle_beta   143.12031919
_cell_angle_gamma   53.14477736
_symmetry_Int_Tables_number   1
_chemical_formula_structural   NaSr2LaTi4O12
_chemical_formula_sum   'Na1 Sr2 La1 Ti4 O12'
_cell_volume   242.34144249
_cell_formula_units_Z   1
loop_
 _symmetry_equiv_pos_site_id
 _symmetry_equiv_pos_as_xyz
  1  'x, y, z'
loop_
 _atom_site_type_symbol
 _atom_site_label
 _atom_site_symmetry_multiplicity
 _atom_site_fract_x
 _atom_site_fract_y
 _atom_site_fract_z
 _atom_site_occupancy
  Na  Na0  1  0.50000000  0.50000000  0.00000000  1
  Sr  Sr0  1  0.25131700  0.25131700  0.00000000  1
  Sr  Sr1  1  0.74868300  0.74868300  0.00000000  1
  La  La0  1  0.00000000  0.00000000  0.00000000  1
  Ti  Ti0  1  0.37585900  0.87585900  0.50000000  1
  Ti  Ti1  1  0.12414100  0.62414100  0.50000000  1
  Ti  Ti2  1  0.87585900  0.37585900  0.50000000  1
  Ti  Ti3  1  0.62414100  0.12414100  0.50000000  1
  O  O0  1  0.25000000  0.75000000  0.50000000  1
  O  O1  1  0.00000000  0.50000000  0.50000000  1
  O  O2  1  0.75000000  0.25000000  0.50000000  1
  O  O3  1  0.50000000  0.00000000  0.50000000  1
  O  O4  1  0.36778700  0.36778700  0.48762300  1
  O  O5  1  0.11983600  0.11983600  0.48762300  1
  O  O6  1  0.88016400  0.88016400  0.51237700  1
  O  O7  1  0.63221300  0.63221300  0.51237700  1
  O  O8  1  0.36778700  0.88016400  0.00000000  1
  O  O9  1  0.11983600  0.63221300  0.00000000  1
  O  O10  1  0.88016400  0.36778700  0.00000000  1
  O  O11  1  0.63221300  0.11983600  0.00000000  1
loop_
_geom_bond_atom_site_label_1
_geom_bond_atom_site_label_2
_geom_bond_distance
_geom_bond_site_symmetry_2
Na0 O3 2.777499 1_554
Na0 O3 2.777499 1_565
Na0 O1 2.777499 1_554
Na0 O1 2.777499 1_655
Na0 O10 2.800434 1_555
Na0 O8 2.800434 1_555
Na0 O6 2.800434 1_555
Na0 O7 2.800434 1_555
Na0 O5 2.800434 1_554
Na0 O11 2.800434 1_555
Na0 O9 2.800434 1_555
Na0 O4 2.800434 1_554
La0 O7 2.731392 1_444
La0 O4 2.731392 1_555
La0 O10 2.731392 1_455
La0 O5 2.731392 1_555
La0 O8 2.731392 1_545
La0 O6 2.731392 1_444
La0 O11 2.731392 1_455
La0 O9 2.731392 1_545
La0 O3 2.777499 1_454
La0 O1 2.777499 1_555
La0 O1 2.777499 1_544
La0 O3 2.777499 1_555
O0 Ti1 1.976852 1_555
O0 Ti0 1.976852 1_555
O0 Sr1 2.777576 1_455
O0 Sr1 2.777576 1_556
O0 Sr0 2.777576 1_566
O0 Sr0 2.777576 1_555
O1 Ti2 1.949868 1_455
O1 Ti1 1.949868 1_555
O2 Ti2 1.976852 1_555
O2 Ti3 1.976852 1_555
O2 Sr1 2.777576 1_556
O2 Sr1 2.777576 1_545
O2 Sr0 2.777576 1_555
O2 Sr0 2.777576 1_656
O3 Ti0 1.949868 1_545
O3 Ti3 1.949868 1_555
O4 Ti3 1.964592 1_555
O4 Ti1 1.964592 1_555
O4 Sr0 2.769332 1_555
O4 Sr1 2.808441 1_556
O5 Ti2 1.964592 1_455
O5 Ti0 1.964592 1_545
O5 Sr1 2.769332 1_445
O5 Sr0 2.808441 1_556
O6 Ti1 1.964592 1_655
O6 Ti3 1.964592 1_565
O6 Sr0 2.769332 1_666
O6 Sr1 2.808441 1_555
O7 Ti0 1.964592 1_555
O7 Ti2 1.964592 1_555
O7 Sr1 2.769332 1_556
O7 Sr0 2.808441 1_555
O8 Ti1 1.964592 1_554
O8 Ti3 1.964592 1_565
O8 Sr0 2.769332 1_565
O8 Sr1 2.808441 1_555
O9 Ti2 1.964592 1_454
O9 Ti0 1.964592 1_555
O9 Sr1 2.769332 1_455
O9 Sr0 2.808441 1_555
O10 Ti3 1.964592 1_554
O10 Ti1 1.964592 1_655
O10 Sr0 2.769332 1_655
O10 Sr1 2.808441 1_555
O11 Ti2 1.964592 1_555
O11 Ti0 1.964592 1_544
O11 Sr1 2.769332 1_545
O11 Sr0 2.808441 1_555
