# generated using pymatgen
data_U6Al43Mo4
_symmetry_space_group_name_H-M   'P 1'
_cell_length_a   11.01891225
_cell_length_b   11.01891225
_cell_length_c   17.53590100
_cell_angle_alpha   90.00000000
_cell_angle_beta   90.00000000
_cell_angle_gamma   120.00000149
_symmetry_Int_Tables_number   1
_chemical_formula_structural   U6Al43Mo4
_chemical_formula_sum   'U12 Al86 Mo8'
_cell_volume   1843.89488279
_cell_formula_units_Z   2
loop_
 _symmetry_equiv_pos_site_id
 _symmetry_equiv_pos_as_xyz
  1  'x, y, z'
loop_
 _atom_site_type_symbol
 _atom_site_label
 _atom_site_symmetry_multiplicity
 _atom_site_fract_x
 _atom_site_fract_y
 _atom_site_fract_z
 _atom_site_occupancy
  U  U0  1  0.47570100  0.47570100  0.91196900  1
  U  U1  1  0.52429900  0.00000000  0.91196900  1
  U  U2  1  0.00000000  0.52429900  0.91196900  1
  U  U3  1  0.52429900  0.52429900  0.08803100  1
  U  U4  1  0.47570100  0.00000000  0.08803100  1
  U  U5  1  0.00000000  0.47570100  0.08803100  1
  U  U6  1  0.52429900  0.52429900  0.41196900  1
  U  U7  1  0.47570100  0.00000000  0.41196900  1
  U  U8  1  0.00000000  0.47570100  0.41196900  1
  U  U9  1  0.47570100  0.47570100  0.58803100  1
  U  U10  1  0.52429900  0.00000000  0.58803100  1
  U  U11  1  0.00000000  0.52429900  0.58803100  1
  Al  Al0  1  0.84071200  0.23549300  0.83665800  1
  Al  Al1  1  0.76450700  0.60521900  0.83665800  1
  Al  Al2  1  0.39478100  0.15928800  0.83665800  1
  Al  Al3  1  0.23549300  0.84071200  0.83665800  1
  Al  Al4  1  0.60521900  0.76450700  0.83665800  1
  Al  Al5  1  0.15928800  0.39478100  0.83665800  1
  Al  Al6  1  0.15928800  0.76450700  0.16334200  1
  Al  Al7  1  0.23549300  0.39478100  0.16334200  1
  Al  Al8  1  0.60521900  0.84071200  0.16334200  1
  Al  Al9  1  0.76450700  0.15928800  0.16334200  1
  Al  Al10  1  0.39478100  0.23549300  0.16334200  1
  Al  Al11  1  0.84071200  0.60521900  0.16334200  1
  Al  Al12  1  0.15928800  0.76450700  0.33665800  1
  Al  Al13  1  0.23549300  0.39478100  0.33665800  1
  Al  Al14  1  0.60521900  0.84071200  0.33665800  1
  Al  Al15  1  0.76450700  0.15928800  0.33665800  1
  Al  Al16  1  0.39478100  0.23549300  0.33665800  1
  Al  Al17  1  0.84071200  0.60521900  0.33665800  1
  Al  Al18  1  0.84071200  0.23549300  0.66334200  1
  Al  Al19  1  0.76450700  0.60521900  0.66334200  1
  Al  Al20  1  0.39478100  0.15928800  0.66334200  1
  Al  Al21  1  0.23549300  0.84071200  0.66334200  1
  Al  Al22  1  0.60521900  0.76450700  0.66334200  1
  Al  Al23  1  0.15928800  0.39478100  0.66334200  1
  Al  Al24  1  0.83885200  0.83885200  0.38573300  1
  Al  Al25  1  0.16114800  0.00000000  0.38573300  1
  Al  Al26  1  0.00000000  0.16114800  0.38573300  1
  Al  Al27  1  0.16114800  0.16114800  0.61426700  1
  Al  Al28  1  0.83885200  0.00000000  0.61426700  1
  Al  Al29  1  0.00000000  0.83885200  0.61426700  1
  Al  Al30  1  0.16114800  0.16114800  0.88573300  1
  Al  Al31  1  0.83885200  0.00000000  0.88573300  1
  Al  Al32  1  0.00000000  0.83885200  0.88573300  1
  Al  Al33  1  0.83885200  0.83885200  0.11426700  1
  Al  Al34  1  0.16114800  0.00000000  0.11426700  1
  Al  Al35  1  0.00000000  0.16114800  0.11426700  1
  Al  Al36  1  0.74501600  0.74501600  0.97021600  1
  Al  Al37  1  0.25498400  0.00000000  0.97021600  1
  Al  Al38  1  0.00000000  0.25498400  0.97021600  1
  Al  Al39  1  0.25498400  0.25498400  0.02978400  1
  Al  Al40  1  0.74501600  0.00000000  0.02978400  1
  Al  Al41  1  0.00000000  0.74501600  0.02978400  1
  Al  Al42  1  0.25498400  0.25498400  0.47021600  1
  Al  Al43  1  0.74501600  0.00000000  0.47021600  1
  Al  Al44  1  0.00000000  0.74501600  0.47021600  1
  Al  Al45  1  0.74501600  0.74501600  0.52978400  1
  Al  Al46  1  0.25498400  0.00000000  0.52978400  1
  Al  Al47  1  0.00000000  0.25498400  0.52978400  1
  Al  Al48  1  0.85640100  0.44939800  0.75000000  1
  Al  Al49  1  0.55060200  0.40700300  0.75000000  1
  Al  Al50  1  0.59299700  0.14359900  0.75000000  1
  Al  Al51  1  0.44939800  0.85640100  0.75000000  1
  Al  Al52  1  0.40700300  0.55060200  0.75000000  1
  Al  Al53  1  0.14359900  0.59299700  0.75000000  1
  Al  Al54  1  0.14359900  0.55060200  0.25000000  1
  Al  Al55  1  0.44939800  0.59299700  0.25000000  1
  Al  Al56  1  0.40700300  0.85640100  0.25000000  1
  Al  Al57  1  0.55060200  0.14359900  0.25000000  1
  Al  Al58  1  0.59299700  0.44939800  0.25000000  1
  Al  Al59  1  0.85640100  0.40700300  0.25000000  1
  Al  Al60  1  0.75315500  0.24684500  0.00000000  1
  Al  Al61  1  0.75315500  0.50631000  0.00000000  1
  Al  Al62  1  0.49369000  0.24684500  0.00000000  1
  Al  Al63  1  0.24684500  0.75315500  0.00000000  1
  Al  Al64  1  0.50631000  0.75315500  0.00000000  1
  Al  Al65  1  0.24684500  0.49369000  0.00000000  1
  Al  Al66  1  0.24684500  0.75315500  0.50000000  1
  Al  Al67  1  0.24684500  0.49369000  0.50000000  1
  Al  Al68  1  0.50631000  0.75315500  0.50000000  1
  Al  Al69  1  0.75315500  0.24684500  0.50000000  1
  Al  Al70  1  0.49369000  0.24684500  0.50000000  1
  Al  Al71  1  0.75315500  0.50631000  0.50000000  1
  Al  Al72  1  0.66666700  0.33333300  0.87277900  1
  Al  Al73  1  0.33333300  0.66666700  0.87277900  1
  Al  Al74  1  0.33333300  0.66666700  0.12722100  1
  Al  Al75  1  0.66666700  0.33333300  0.12722100  1
  Al  Al76  1  0.33333300  0.66666700  0.37277900  1
  Al  Al77  1  0.66666700  0.33333300  0.37277900  1
  Al  Al78  1  0.66666700  0.33333300  0.62722100  1
  Al  Al79  1  0.33333300  0.66666700  0.62722100  1
  Al  Al80  1  0.85366600  0.85366600  0.75000000  1
  Al  Al81  1  0.14633400  0.00000000  0.75000000  1
  Al  Al82  1  0.00000000  0.14633400  0.75000000  1
  Al  Al83  1  0.14633400  0.14633400  0.25000000  1
  Al  Al84  1  0.85366600  0.00000000  0.25000000  1
  Al  Al85  1  0.00000000  0.85366600  0.25000000  1
  Mo  Mo0  1  0.26963300  0.26963300  0.75000000  1
  Mo  Mo1  1  0.73036700  0.00000000  0.75000000  1
  Mo  Mo2  1  0.00000000  0.73036700  0.75000000  1
  Mo  Mo3  1  0.73036700  0.73036700  0.25000000  1
  Mo  Mo4  1  0.26963300  0.00000000  0.25000000  1
  Mo  Mo5  1  0.00000000  0.26963300  0.25000000  1
  Mo  Mo6  1  0.00000000  0.00000000  0.00000000  1
  Mo  Mo7  1  0.00000000  0.00000000  0.50000000  1
loop_
_geom_bond_atom_site_label_1
_geom_bond_atom_site_label_2
_geom_bond_distance
_geom_bond_site_symmetry_2
U0 U3 3.133502 1_556
U1 U4 3.133502 1_556
U2 U5 3.133502 1_556
U6 U9 3.133502 1_555
U10 U7 3.133502 1_555
U11 U8 3.133502 1_555
Al0 Al72 2.703506 1_555
Al0 Mo1 2.714029 1_555
Al0 Al31 2.724190 1_555
Al0 Al48 2.736262 1_555
Al0 Al50 2.832162 1_555
Al0 Al82 2.842438 1_655
Al0 Al38 2.869681 1_655
Al0 Al18 3.039252 1_555
Al0 Al5 3.040062 1_655
Al0 Al60 3.044935 1_556
Al0 U2 3.060460 1_655
Al0 U1 3.403859 1_555
Al1 Al72 2.703516 1_555
Al1 Mo2 2.714029 1_655
Al1 Al32 2.724190 1_655
Al1 Al49 2.736262 1_555
Al1 Al48 2.832162 1_555
Al1 Al80 2.842438 1_555
Al1 Al36 2.869681 1_555
Al1 Al19 3.039252 1_555
Al1 Al4 3.040062 1_555
Al1 Al61 3.044935 1_556
Al1 U0 3.060460 1_555
Al1 U2 3.403859 1_655
Al2 Al72 2.703514 1_555
Al2 Mo0 2.714029 1_555
Al2 Al30 2.724190 1_555
Al2 Al50 2.736262 1_555
Al2 Al49 2.832162 1_555
Al2 Al81 2.842438 1_555
Al2 Al37 2.869681 1_555
Al2 Al20 3.039252 1_555
Al2 Al3 3.040062 1_545
Al2 Al62 3.044935 1_556
Al2 U1 3.060460 1_555
Al2 U0 3.403859 1_555
Al3 Al73 2.703506 1_555
Al3 Mo2 2.714029 1_555
Al3 Al32 2.724190 1_555
Al3 Al51 2.736262 1_555
Al3 Al53 2.832162 1_555
Al3 Al81 2.842438 1_565
Al3 Al37 2.869681 1_565
Al3 Al63 3.044935 1_556
Al3 U1 3.060460 1_565
Al3 U2 3.403859 1_555
Al4 Al73 2.703516 1_555
Al4 Mo1 2.714029 1_565
Al4 Al52 2.736262 1_555
Al4 Al51 2.832162 1_555
Al4 Al80 2.842438 1_555
Al4 Al64 3.044935 1_556
Al4 U0 3.060460 1_555
Al4 U1 3.403859 1_565
Al5 Al73 2.703514 1_555
Al5 Mo0 2.714029 1_555
Al5 Al53 2.736262 1_555
Al5 Al52 2.832162 1_555
Al5 Al82 2.842438 1_555
Al5 Al65 3.044935 1_556
Al5 U2 3.060460 1_555
Al5 U0 3.403859 1_555
Al6 Al74 2.703506 1_555
Al6 Mo4 2.714029 1_565
Al6 Al85 2.842438 1_555
Al6 Al63 3.044935 1_555
Al6 U5 3.060460 1_555
Al6 U4 3.403859 1_565
Al7 Al74 2.703516 1_555
Al7 Mo5 2.714029 1_555
Al7 Al83 2.842438 1_555
Al7 U3 3.060460 1_555
Al7 U5 3.403859 1_555
Al8 Mo3 2.714029 1_555
Al8 Al84 2.842438 1_565
Al8 Al9 3.040062 1_565
Al8 U4 3.060460 1_565
Al8 U3 3.403859 1_555
Al9 Mo5 2.714029 1_655
Al9 U4 3.060460 1_555
Al9 U5 3.403859 1_655
Al10 Al75 2.703516 1_555
Al10 Mo4 2.714029 1_555
Al10 Al34 2.724190 1_555
Al10 Al58 2.736262 1_555
Al10 Al57 2.832162 1_555
Al10 Al83 2.842438 1_555
Al10 Al39 2.869681 1_555
Al10 Al16 3.039252 1_555
Al10 Al7 3.040062 1_555
Al10 Al62 3.044935 1_555
Al10 U3 3.060460 1_555
Al10 U4 3.403859 1_555
Al11 Al75 2.703514 1_555
Al11 Mo3 2.714029 1_555
Al11 Al33 2.724190 1_555
Al11 Al59 2.736262 1_555
Al11 Al58 2.832162 1_555
Al11 Al85 2.842438 1_655
Al11 Al41 2.869681 1_655
Al11 Al17 3.039252 1_555
Al11 Al6 3.040062 1_655
Al11 Al61 3.044935 1_555
Al11 U5 3.060460 1_655
Al11 U3 3.403859 1_555
Al12 Al76 2.703506 1_555
Al12 Mo4 2.714029 1_565
Al12 Al25 2.724190 1_565
Al12 Al54 2.736262 1_555
Al12 Al56 2.832162 1_555
Al12 Al85 2.842438 1_555
Al12 Al44 2.869681 1_555
Al12 Al6 3.039252 1_555
Al12 Al17 3.040062 1_455
Al12 Al66 3.044935 1_555
Al12 U8 3.060460 1_555
Al12 U7 3.403859 1_565
Al13 Al76 2.703516 1_555
Al13 Mo5 2.714029 1_555
Al13 Al26 2.724190 1_555
Al13 Al55 2.736262 1_555
Al13 Al54 2.832162 1_555
Al13 Al83 2.842438 1_555
Al13 Al42 2.869681 1_555
Al13 Al7 3.039252 1_555
Al13 Al16 3.040062 1_555
Al13 Al67 3.044935 1_555
Al13 U6 3.060460 1_555
Al13 U8 3.403859 1_555
Al14 Al76 2.703514 1_555
Al14 Mo3 2.714029 1_555
Al14 Al24 2.724190 1_555
Al14 Al56 2.736262 1_555
Al14 Al55 2.832162 1_555
Al14 Al84 2.842438 1_565
Al14 Al43 2.869681 1_565
Al14 Al8 3.039252 1_555
Al14 Al15 3.040062 1_565
Al14 Al68 3.044935 1_555
Al14 U7 3.060460 1_565
Al14 U6 3.403859 1_555
Al15 Al77 2.703506 1_555
Al15 Mo5 2.714029 1_655
Al15 Al26 2.724190 1_655
Al15 Al57 2.736262 1_555
Al15 Al59 2.832162 1_555
Al15 Al84 2.842438 1_555
Al15 Al43 2.869681 1_555
Al15 Al9 3.039252 1_555
Al15 Al69 3.044935 1_555
Al15 U7 3.060460 1_555
Al15 U8 3.403859 1_655
Al16 Al77 2.703516 1_555
Al16 Mo4 2.714029 1_555
Al16 Al25 2.724190 1_555
Al16 Al58 2.736262 1_555
Al16 Al57 2.832162 1_555
Al16 Al83 2.842438 1_555
Al16 Al42 2.869681 1_555
Al16 Al70 3.044935 1_555
Al16 U6 3.060460 1_555
Al16 U7 3.403859 1_555
Al17 Al77 2.703514 1_555
Al17 Mo3 2.714029 1_555
Al17 Al24 2.724190 1_555
Al17 Al59 2.736262 1_555
Al17 Al58 2.832162 1_555
Al17 Al85 2.842438 1_655
Al17 Al44 2.869681 1_655
Al17 Al71 3.044935 1_555
Al17 U8 3.060460 1_655
Al17 U6 3.403859 1_555
Al18 Al78 2.703506 1_555
Al18 Mo1 2.714029 1_555
Al18 Al28 2.724190 1_555
Al18 Al48 2.736262 1_555
Al18 Al50 2.832162 1_555
Al18 Al82 2.842438 1_655
Al18 Al47 2.869681 1_655
Al18 Al23 3.040062 1_655
Al18 Al69 3.044935 1_555
Al18 U11 3.060460 1_655
Al18 U10 3.403859 1_555
Al19 Al78 2.703516 1_555
Al19 Mo2 2.714029 1_655
Al19 Al29 2.724190 1_655
Al19 Al49 2.736262 1_555
Al19 Al48 2.832162 1_555
Al19 Al80 2.842438 1_555
Al19 Al45 2.869681 1_555
Al19 Al22 3.040062 1_555
Al19 Al71 3.044935 1_555
Al19 U9 3.060460 1_555
Al19 U11 3.403859 1_655
Al20 Al78 2.703514 1_555
Al20 Mo0 2.714029 1_555
Al20 Al27 2.724190 1_555
Al20 Al50 2.736262 1_555
Al20 Al49 2.832162 1_555
Al20 Al81 2.842438 1_555
Al20 Al46 2.869681 1_555
Al20 Al21 3.040062 1_545
Al20 Al70 3.044935 1_555
Al20 U10 3.060460 1_555
Al20 U9 3.403859 1_555
Al21 Al79 2.703506 1_555
Al21 Mo2 2.714029 1_555
Al21 Al29 2.724190 1_555
Al21 Al51 2.736262 1_555
Al21 Al53 2.832162 1_555
Al21 Al81 2.842438 1_565
Al21 Al46 2.869681 1_565
Al21 Al3 3.039252 1_555
Al21 Al66 3.044935 1_555
Al21 U10 3.060460 1_565
Al21 U11 3.403859 1_555
Al22 Al79 2.703516 1_555
Al22 Mo1 2.714029 1_565
Al22 Al28 2.724190 1_565
Al22 Al52 2.736262 1_555
Al22 Al51 2.832162 1_555
Al22 Al80 2.842438 1_555
Al22 Al45 2.869681 1_555
Al22 Al4 3.039252 1_555
Al22 Al68 3.044935 1_555
Al22 U9 3.060460 1_555
Al22 U10 3.403859 1_565
Al23 Al79 2.703514 1_555
Al23 Mo0 2.714029 1_555
Al23 Al27 2.724190 1_555
Al23 Al53 2.736262 1_555
Al23 Al52 2.832162 1_555
Al23 Al82 2.842438 1_555
Al23 Al47 2.869681 1_555
Al23 Al5 3.039252 1_555
Al23 Al67 3.044935 1_555
Al23 U11 3.060460 1_555
Al23 U9 3.403859 1_555
Al24 Mo3 2.663513 1_555
Al24 Mo7 2.677338 1_665
Al24 Al45 2.729486 1_555
Al24 Al43 2.872789 1_565
Al24 Al44 2.872789 1_655
Al24 Al84 2.924923 1_565
Al24 Al85 2.924923 1_655
Al24 Al25 3.075560 1_665
Al24 Al26 3.075560 1_665
Al24 U6 3.496433 1_555
Al25 Mo4 2.663513 1_555
Al25 Mo7 2.677338 1_555
Al25 Al46 2.729486 1_555
Al25 Al44 2.872789 1_545
Al25 Al42 2.872789 1_555
Al25 Al85 2.924923 1_545
Al25 Al83 2.924923 1_555
Al25 Al26 3.075561 1_555
Al25 U7 3.496433 1_555
Al26 Mo5 2.663513 1_555
Al26 Mo7 2.677338 1_555
Al26 Al47 2.729486 1_555
Al26 Al43 2.872789 1_455
Al26 Al42 2.872789 1_555
Al26 Al84 2.924923 1_455
Al26 Al83 2.924923 1_555
Al26 U8 3.496433 1_555
Al27 Mo0 2.663513 1_555
Al27 Mo7 2.677338 1_555
Al27 Al42 2.729486 1_555
Al27 Al47 2.872789 1_555
Al27 Al46 2.872789 1_555
Al27 Al81 2.924923 1_555
Al27 Al82 2.924923 1_555
Al27 Al28 3.075560 1_455
Al27 Al29 3.075560 1_545
Al27 U9 3.496433 1_555
Al28 Mo1 2.663513 1_555
Al28 Mo7 2.677338 1_655
Al28 Al43 2.729486 1_555
Al28 Al47 2.872789 1_655
Al28 Al45 2.872789 1_545
Al28 Al82 2.924923 1_655
Al28 Al80 2.924923 1_545
Al28 Al29 3.075561 1_645
Al28 U10 3.496433 1_555
Al29 Mo2 2.663513 1_555
Al29 Mo7 2.677338 1_565
Al29 Al44 2.729486 1_555
Al29 Al46 2.872789 1_565
Al29 Al45 2.872789 1_455
Al29 Al81 2.924923 1_565
Al29 Al80 2.924923 1_455
Al29 U11 3.496433 1_555
Al30 Mo0 2.663513 1_555
Al30 Mo6 2.677338 1_556
Al30 Al5 2.724190 1_555
Al30 Al39 2.729486 1_556
Al30 Al38 2.872789 1_555
Al30 Al37 2.872789 1_555
Al30 Al81 2.924923 1_555
Al30 Al82 2.924923 1_555
Al30 Al31 3.075560 1_455
Al30 Al32 3.075560 1_545
Al30 U0 3.496433 1_555
Al31 Mo1 2.663513 1_555
Al31 Mo6 2.677338 1_656
Al31 Al4 2.724190 1_545
Al31 Al40 2.729486 1_556
Al31 Al38 2.872789 1_655
Al31 Al36 2.872789 1_545
Al31 Al82 2.924923 1_655
Al31 Al80 2.924923 1_545
Al31 Al32 3.075561 1_645
Al31 U1 3.496433 1_555
Al32 Mo2 2.663513 1_555
Al32 Mo6 2.677338 1_566
Al32 Al41 2.729486 1_556
Al32 Al37 2.872789 1_565
Al32 Al36 2.872789 1_455
Al32 Al81 2.924923 1_565
Al32 Al80 2.924923 1_455
Al32 U2 3.496433 1_555
Al33 Mo3 2.663513 1_555
Al33 Mo6 2.677338 1_665
Al33 Al8 2.724190 1_555
Al33 Al36 2.729486 1_554
Al33 Al40 2.872789 1_565
Al33 Al41 2.872789 1_655
Al33 Al84 2.924923 1_565
Al33 Al85 2.924923 1_655
Al33 Al34 3.075560 1_665
Al33 Al35 3.075560 1_665
Al33 U3 3.496433 1_555
Al34 Mo4 2.663513 1_555
Al34 Mo6 2.677338 1_555
Al34 Al6 2.724190 1_545
Al34 Al37 2.729486 1_554
Al34 Al41 2.872789 1_545
Al34 Al39 2.872789 1_555
Al34 Al85 2.924923 1_545
Al34 Al83 2.924923 1_555
Al34 Al35 3.075561 1_555
Al34 U4 3.496433 1_555
Al35 Mo5 2.663513 1_555
Al35 Mo6 2.677338 1_555
Al35 Al7 2.724190 1_555
Al35 Al9 2.724190 1_455
Al35 Al38 2.729486 1_554
Al35 Al40 2.872789 1_455
Al35 Al39 2.872789 1_555
Al35 Al84 2.924923 1_455
Al35 Al83 2.924923 1_555
Al35 U5 3.496433 1_555
Al36 Al64 2.726737 1_556
Al36 Al61 2.726737 1_556
Al36 Mo6 2.857779 1_666
Al36 Al4 2.869681 1_555
Al36 Al40 2.997542 1_566
Al36 Al41 2.997542 1_656
Al36 U0 3.138421 1_555
Al36 U3 3.191120 1_556
Al37 Al62 2.726737 1_556
Al37 Al63 2.726737 1_546
Al37 Mo6 2.857779 1_556
Al37 Al41 2.997542 1_546
Al37 Al39 2.997542 1_556
Al37 U1 3.138421 1_555
Al37 U4 3.191120 1_556
Al38 Al65 2.726737 1_556
Al38 Al60 2.726737 1_456
Al38 Mo6 2.857779 1_556
Al38 Al5 2.869681 1_555
Al38 Al40 2.997542 1_456
Al38 Al39 2.997542 1_556
Al38 U2 3.138421 1_555
Al38 U5 3.191120 1_556
Al39 Al62 2.726737 1_555
Al39 Al65 2.726737 1_555
Al39 Mo6 2.857779 1_555
Al39 Al7 2.869681 1_555
Al39 U3 3.138421 1_555
Al39 U0 3.191120 1_554
Al40 Al64 2.726737 1_545
Al40 Al60 2.726737 1_555
Al40 Mo6 2.857779 1_655
Al40 Al8 2.869681 1_545
Al40 Al9 2.869681 1_555
Al40 U4 3.138421 1_555
Al40 U1 3.191120 1_554
Al41 Al61 2.726737 1_455
Al41 Al63 2.726737 1_555
Al41 Mo6 2.857779 1_565
Al41 Al6 2.869681 1_555
Al41 U5 3.138421 1_555
Al41 U2 3.191120 1_554
Al42 Al67 2.726737 1_555
Al42 Al70 2.726737 1_555
Al42 Mo7 2.857779 1_555
Al42 Al46 2.997542 1_555
Al42 Al47 2.997542 1_555
Al42 U6 3.138421 1_555
Al42 U9 3.191120 1_555
Al43 Al68 2.726737 1_545
Al43 Al69 2.726737 1_555
Al43 Mo7 2.857779 1_655
Al43 Al47 2.997542 1_655
Al43 Al45 2.997542 1_545
Al43 U7 3.138421 1_555
Al43 U10 3.191120 1_555
Al44 Al71 2.726737 1_455
Al44 Al66 2.726737 1_555
Al44 Mo7 2.857779 1_565
Al44 Al46 2.997542 1_565
Al44 Al45 2.997542 1_455
Al44 U8 3.138421 1_555
Al44 U11 3.191120 1_555
Al45 Al71 2.726737 1_555
Al45 Al68 2.726737 1_555
Al45 Mo7 2.857779 1_665
Al45 U9 3.138421 1_555
Al45 U6 3.191120 1_555
Al46 Al70 2.726737 1_555
Al46 Al66 2.726737 1_545
Al46 Mo7 2.857779 1_555
Al46 U10 3.138421 1_555
Al46 U7 3.191120 1_555
Al47 Al67 2.726737 1_555
Al47 Al69 2.726737 1_455
Al47 Mo7 2.857779 1_555
Al47 U11 3.138421 1_555
Al47 U8 3.191120 1_555
Al48 Mo2 2.681411 1_655
Al48 Al53 2.740632 1_655
Al48 Al72 2.822817 1_555
Al48 Al78 2.822817 1_555
Al48 U2 3.153741 1_655
Al48 U11 3.153741 1_655
Al49 Mo0 2.681411 1_555
Al49 Al52 2.740632 1_555
Al49 Al72 2.822822 1_555
Al49 Al78 2.822822 1_555
Al49 U0 3.153741 1_555
Al49 U9 3.153741 1_555
Al50 Mo1 2.681411 1_555
Al50 Al51 2.740632 1_545
Al50 Al72 2.822816 1_555
Al50 Al78 2.822816 1_555
Al50 U1 3.153741 1_555
Al50 U10 3.153741 1_555
Al51 Mo1 2.681411 1_565
Al51 Al73 2.822817 1_555
Al51 Al79 2.822817 1_555
Al51 U1 3.153741 1_565
Al51 U10 3.153741 1_565
Al52 Mo0 2.681411 1_555
Al52 Al73 2.822822 1_555
Al52 Al79 2.822822 1_555
Al52 U0 3.153741 1_555
Al52 U9 3.153741 1_555
Al53 Mo2 2.681411 1_555
Al53 Al73 2.822816 1_555
Al53 Al79 2.822816 1_555
Al53 U2 3.153741 1_555
Al53 U11 3.153741 1_555
Al54 Mo5 2.681411 1_555
Al54 Al6 2.736262 1_555
Al54 Al59 2.740632 1_455
Al54 Al76 2.822817 1_555
Al54 Al74 2.822817 1_555
Al54 Al7 2.832162 1_555
Al54 U8 3.153741 1_555
Al54 U5 3.153741 1_555
Al55 Mo3 2.681411 1_555
Al55 Al7 2.736262 1_555
Al55 Al58 2.740632 1_555
Al55 Al76 2.822822 1_555
Al55 Al74 2.822822 1_555
Al55 Al8 2.832162 1_555
Al55 U3 3.153741 1_555
Al55 U6 3.153741 1_555
Al56 Mo4 2.681411 1_565
Al56 Al8 2.736262 1_555
Al56 Al57 2.740632 1_565
Al56 Al76 2.822816 1_555
Al56 Al74 2.822816 1_555
Al56 Al6 2.832162 1_555
Al56 U7 3.153741 1_565
Al56 U4 3.153741 1_565
Al57 Mo4 2.681411 1_555
Al57 Al9 2.736262 1_555
Al57 Al77 2.822817 1_555
Al57 Al75 2.822817 1_555
Al57 U7 3.153741 1_555
Al57 U4 3.153741 1_555
Al58 Mo3 2.681411 1_555
Al58 Al77 2.822822 1_555
Al58 Al75 2.822822 1_555
Al58 U3 3.153741 1_555
Al58 U6 3.153741 1_555
Al59 Mo5 2.681411 1_655
Al59 Al77 2.822816 1_555
Al59 Al75 2.822816 1_555
Al59 Al9 2.832162 1_555
Al59 U8 3.153741 1_655
Al59 U5 3.153741 1_655
Al60 Al72 2.775197 1_554
Al60 Al75 2.775197 1_555
Al60 Al62 2.859022 1_555
Al60 Al61 2.859022 1_555
Al60 Al9 3.044935 1_555
Al60 U1 3.046533 1_554
Al60 U5 3.046533 1_655
Al60 U4 3.288215 1_555
Al60 U2 3.288215 1_654
Al61 Al75 2.775203 1_555
Al61 Al72 2.775203 1_554
Al61 Al62 2.859022 1_555
Al61 U2 3.046533 1_654
Al61 U3 3.046533 1_555
Al61 U0 3.288215 1_554
Al61 U5 3.288215 1_655
Al62 Al75 2.775203 1_555
Al62 Al72 2.775203 1_554
Al62 U4 3.046533 1_555
Al62 U0 3.046533 1_554
Al62 U3 3.288215 1_555
Al62 U1 3.288215 1_554
Al63 Al73 2.775197 1_554
Al63 Al74 2.775197 1_555
Al63 Al65 2.859022 1_555
Al63 Al64 2.859022 1_555
Al63 U2 3.046533 1_554
Al63 U4 3.046533 1_565
Al63 U5 3.288215 1_555
Al63 U1 3.288215 1_564
Al64 Al74 2.775203 1_555
Al64 Al73 2.775203 1_554
Al64 Al65 2.859022 1_555
Al64 Al8 3.044935 1_555
Al64 U1 3.046533 1_564
Al64 U3 3.046533 1_555
Al64 U0 3.288215 1_554
Al64 U4 3.288215 1_565
Al65 Al74 2.775203 1_555
Al65 Al73 2.775203 1_554
Al65 Al7 3.044935 1_555
Al65 U5 3.046533 1_555
Al65 U0 3.046533 1_554
Al65 U3 3.288215 1_555
Al65 U2 3.288215 1_554
Al66 Al79 2.775197 1_555
Al66 Al76 2.775197 1_555
Al66 Al67 2.859022 1_555
Al66 Al68 2.859022 1_555
Al66 U11 3.046533 1_555
Al66 U7 3.046533 1_565
Al66 U8 3.288215 1_555
Al66 U10 3.288215 1_565
Al67 Al79 2.775203 1_555
Al67 Al76 2.775203 1_555
Al67 Al68 2.859022 1_555
Al67 U8 3.046533 1_555
Al67 U9 3.046533 1_555
Al67 U6 3.288215 1_555
Al67 U11 3.288215 1_555
Al68 Al79 2.775203 1_555
Al68 Al76 2.775203 1_555
Al68 U10 3.046533 1_565
Al68 U6 3.046533 1_555
Al68 U9 3.288215 1_555
Al68 U7 3.288215 1_565
Al69 Al78 2.775197 1_555
Al69 Al77 2.775197 1_555
Al69 Al70 2.859022 1_555
Al69 Al71 2.859022 1_555
Al69 U10 3.046533 1_555
Al69 U8 3.046533 1_655
Al69 U7 3.288215 1_555
Al69 U11 3.288215 1_655
Al70 Al78 2.775203 1_555
Al70 Al77 2.775203 1_555
Al70 Al71 2.859022 1_555
Al70 U7 3.046533 1_555
Al70 U9 3.046533 1_555
Al70 U6 3.288215 1_555
Al70 U10 3.288215 1_555
Al71 Al78 2.775203 1_555
Al71 Al77 2.775203 1_555
Al71 U11 3.046533 1_655
Al71 U6 3.046533 1_555
Al71 U9 3.288215 1_555
Al71 U8 3.288215 1_655
Al72 U1 3.265270 1_555
Al72 U2 3.265271 1_655
Al72 U0 3.265280 1_555
Al73 U2 3.265270 1_555
Al73 U1 3.265271 1_565
Al73 U0 3.265280 1_555
Al74 Al8 2.703514 1_555
Al74 U4 3.265270 1_565
Al74 U5 3.265271 1_555
Al74 U3 3.265280 1_555
Al75 Al9 2.703506 1_555
Al75 U5 3.265270 1_655
Al75 U4 3.265271 1_555
Al75 U3 3.265280 1_555
Al76 U7 3.265270 1_565
Al76 U8 3.265271 1_555
Al76 U6 3.265280 1_555
Al77 U8 3.265270 1_655
Al77 U7 3.265271 1_555
Al77 U6 3.265280 1_555
Al78 U10 3.265270 1_555
Al78 U11 3.265271 1_655
Al78 U9 3.265280 1_555
Al79 U11 3.265270 1_555
Al79 U10 3.265271 1_565
Al79 U9 3.265280 1_555
Al80 Mo1 2.576143 1_565
Al80 Mo2 2.576143 1_655
Al80 Al82 2.792831 1_665
Al80 Al81 2.792831 1_665
Al81 Mo2 2.576143 1_545
Al81 Mo0 2.576143 1_555
Al81 Al82 2.792831 1_555
Al82 Mo1 2.576143 1_455
Al82 Mo0 2.576143 1_555
Al83 Mo4 2.576143 1_555
Al83 Mo5 2.576143 1_555
Al83 Al84 2.792831 1_455
Al83 Al85 2.792831 1_545
Al84 Mo5 2.576143 1_655
Al84 Mo3 2.576143 1_545
Al84 Al85 2.792831 1_645
Al84 Al9 2.842438 1_555
Al85 Mo4 2.576143 1_565
Al85 Mo3 2.576143 1_455
Mo0 U0 3.636341 1_555
Mo0 U9 3.636341 1_555
Mo1 U1 3.636341 1_555
Mo1 U10 3.636341 1_555
Mo2 U2 3.636341 1_555
Mo2 U11 3.636341 1_555
Mo3 U6 3.636341 1_555
Mo3 U3 3.636341 1_555
Mo4 U7 3.636341 1_555
Mo4 U4 3.636341 1_555
Mo5 U8 3.636341 1_555
Mo5 U5 3.636341 1_555
