# generated using pymatgen
data_GdB4Mo
_symmetry_space_group_name_H-M   'P 1'
_cell_length_a   6.06883600
_cell_length_b   11.73624500
_cell_length_c   3.65599500
_cell_angle_alpha   90.00000000
_cell_angle_beta   90.00000000
_cell_angle_gamma   90.00000000
_symmetry_Int_Tables_number   1
_chemical_formula_structural   GdB4Mo
_chemical_formula_sum   'Gd4 B16 Mo4'
_cell_volume   260.39950944
_cell_formula_units_Z   4
loop_
 _symmetry_equiv_pos_site_id
 _symmetry_equiv_pos_as_xyz
  1  'x, y, z'
loop_
 _atom_site_type_symbol
 _atom_site_label
 _atom_site_symmetry_multiplicity
 _atom_site_fract_x
 _atom_site_fract_y
 _atom_site_fract_z
 _atom_site_occupancy
  Gd  Gd0  1  0.62626100  0.34981600  0.00000000  1
  Gd  Gd1  1  0.37373900  0.65018400  0.00000000  1
  Gd  Gd2  1  0.12626100  0.15018400  0.00000000  1
  Gd  Gd3  1  0.87373900  0.84981600  0.00000000  1
  B  B0  1  0.78537500  0.18591500  0.50000000  1
  B  B1  1  0.21462500  0.81408500  0.50000000  1
  B  B2  1  0.28537500  0.31408500  0.50000000  1
  B  B3  1  0.71462500  0.68591500  0.50000000  1
  B  B4  1  0.86580200  0.03231800  0.50000000  1
  B  B5  1  0.13419800  0.96768200  0.50000000  1
  B  B6  1  0.36580200  0.46768200  0.50000000  1
  B  B7  1  0.63419800  0.53231800  0.50000000  1
  B  B8  1  0.88589500  0.45283300  0.50000000  1
  B  B9  1  0.11410500  0.54716700  0.50000000  1
  B  B10  1  0.38589500  0.04716700  0.50000000  1
  B  B11  1  0.61410500  0.95283300  0.50000000  1
  B  B12  1  0.97565500  0.30728000  0.50000000  1
  B  B13  1  0.02434500  0.69272000  0.50000000  1
  B  B14  1  0.47565500  0.19272000  0.50000000  1
  B  B15  1  0.52434500  0.80728000  0.50000000  1
  Mo  Mo0  1  0.62888900  0.08330600  0.00000000  1
  Mo  Mo1  1  0.37111100  0.91669400  0.00000000  1
  Mo  Mo2  1  0.12888900  0.41669400  0.00000000  1
  Mo  Mo3  1  0.87111100  0.58330600  0.00000000  1
loop_
_geom_bond_atom_site_label_1
_geom_bond_atom_site_label_2
_geom_bond_distance
_geom_bond_site_symmetry_2
Gd0 Mo3 3.117256 1_555
Gd0 Mo2 3.118849 1_555
Gd0 Mo0 3.127867 1_555
Gd0 Mo2 3.149730 1_655
Gd1 Mo2 3.117256 1_555
Gd1 Mo3 3.118849 1_555
Gd1 Mo1 3.127867 1_555
Gd1 Mo3 3.149730 1_455
Gd2 Mo1 3.117256 1_545
Gd2 Mo0 3.118849 1_455
Gd2 Mo2 3.127867 1_555
Gd2 Mo0 3.149730 1_555
Gd3 Mo0 3.117256 1_565
Gd3 Mo1 3.118849 1_655
Gd3 Mo3 3.127867 1_555
Gd3 Mo1 3.149730 1_555
B0 B12 1.833669 1_555
B0 B4 1.867564 1_555
B0 B14 1.881336 1_555
B0 Mo0 2.386145 1_555
B0 Mo0 2.386145 1_556
B0 Gd2 2.792362 1_655
B0 Gd2 2.792362 1_656
B0 Gd0 2.823862 1_556
B0 Gd0 2.823862 1_555
B1 B13 1.833669 1_555
B1 B5 1.867564 1_555
B1 B15 1.881336 1_555
B1 Mo1 2.386145 1_555
B1 Mo1 2.386145 1_556
B1 Gd3 2.792362 1_455
B1 Gd3 2.792362 1_456
B1 Gd1 2.823862 1_555
B1 Gd1 2.823862 1_556
B2 B6 1.867564 1_555
B2 Mo2 2.386145 1_556
B2 Mo2 2.386145 1_555
B2 Gd0 2.792362 1_555
B2 Gd0 2.792362 1_556
B2 Gd2 2.823862 1_555
B2 Gd2 2.823862 1_556
B3 B7 1.867564 1_555
B3 Mo3 2.386145 1_555
B3 Mo3 2.386145 1_556
B3 Gd1 2.792362 1_556
B3 Gd1 2.792362 1_555
B3 Gd3 2.823862 1_555
B3 Gd3 2.823862 1_556
B4 B5 1.796832 1_645
B4 Mo0 2.401436 1_555
B4 Mo0 2.401436 1_556
B4 Gd2 2.784540 1_655
B4 Gd2 2.784540 1_656
B4 Gd3 2.816306 1_545
B4 Gd3 2.816306 1_546
B5 Mo1 2.401436 1_556
B5 Mo1 2.401436 1_555
B5 Gd3 2.784540 1_455
B5 Gd3 2.784540 1_456
B5 Gd2 2.816306 1_565
B5 Gd2 2.816306 1_566
B6 B9 1.789832 1_555
B6 B7 1.796832 1_555
B6 Mo2 2.401436 1_556
B6 Mo2 2.401436 1_555
B6 Gd0 2.784540 1_555
B6 Gd0 2.784540 1_556
B6 Gd1 2.816306 1_555
B6 Gd1 2.816306 1_556
B7 B8 1.789832 1_555
B7 Mo3 2.401436 1_555
B7 Mo3 2.401436 1_556
B7 Gd1 2.784540 1_555
B7 Gd1 2.784540 1_556
B7 Gd0 2.816306 1_556
B7 Gd0 2.816306 1_555
B8 B9 1.773096 1_655
B8 Mo3 2.386292 1_556
B8 Mo3 2.386292 1_555
B8 Mo2 2.386667 1_656
B8 Mo2 2.386667 1_655
B8 Gd0 2.699276 1_555
B8 Gd0 2.699276 1_556
B9 Mo2 2.386292 1_556
B9 Mo2 2.386292 1_555
B9 Mo3 2.386667 1_455
B9 Mo3 2.386667 1_456
B9 Gd1 2.699276 1_556
B9 Gd1 2.699276 1_555
B10 B11 1.773096 1_545
B10 B5 1.789832 1_545
B10 B14 1.792998 1_555
B10 Mo1 2.386292 1_545
B10 Mo1 2.386292 1_546
B10 Mo0 2.386667 1_555
B10 Mo0 2.386667 1_556
B10 Gd2 2.699276 1_556
B10 Gd2 2.699276 1_555
B11 B4 1.789832 1_565
B11 B15 1.792998 1_555
B11 Mo0 2.386292 1_566
B11 Mo0 2.386292 1_565
B11 Mo1 2.386667 1_556
B11 Mo1 2.386667 1_555
B11 Gd3 2.699276 1_556
B11 Gd3 2.699276 1_555
B12 B8 1.792998 1_555
B12 B2 1.881336 1_655
B12 Mo2 2.419777 1_656
B12 Mo2 2.419777 1_655
B12 Gd2 2.752502 1_655
B12 Gd2 2.752502 1_656
B12 Gd0 2.843756 1_555
B12 Gd0 2.843756 1_556
B13 B9 1.792998 1_555
B13 B3 1.881336 1_455
B13 Mo3 2.419777 1_455
B13 Mo3 2.419777 1_456
B13 Gd3 2.752502 1_455
B13 Gd3 2.752502 1_456
B13 Gd1 2.843756 1_555
B13 Gd1 2.843756 1_556
B14 B2 1.833669 1_555
B14 Mo0 2.419777 1_556
B14 Mo0 2.419777 1_555
B14 Gd0 2.752502 1_555
B14 Gd0 2.752502 1_556
B14 Gd2 2.843756 1_555
B14 Gd2 2.843756 1_556
B15 B3 1.833669 1_555
B15 Mo1 2.419777 1_555
B15 Mo1 2.419777 1_556
B15 Gd1 2.752502 1_556
B15 Gd1 2.752502 1_555
B15 Gd3 2.843756 1_556
B15 Gd3 2.843756 1_555
Mo0 Mo1 2.504191 1_545
Mo2 Mo3 2.504191 1_455
