# generated using pymatgen
data_TmZnPd
_symmetry_space_group_name_H-M   'P 1'
_cell_length_a   7.15146874
_cell_length_b   7.15146874
_cell_length_c   3.82066532
_cell_angle_alpha   90.00000000
_cell_angle_beta   90.00000000
_cell_angle_gamma   120.00005497
_symmetry_Int_Tables_number   1
_chemical_formula_structural   TmZnPd
_chemical_formula_sum   'Tm3 Zn3 Pd3'
_cell_volume   169.22318973
_cell_formula_units_Z   3
loop_
 _symmetry_equiv_pos_site_id
 _symmetry_equiv_pos_as_xyz
  1  'x, y, z'
loop_
 _atom_site_type_symbol
 _atom_site_label
 _atom_site_symmetry_multiplicity
 _atom_site_fract_x
 _atom_site_fract_y
 _atom_site_fract_z
 _atom_site_occupancy
  Tm  Tm0  1  0.40380232  0.40380232  -0.00000000  1
  Tm  Tm1  1  0.59619768  0.00000000  -0.00000000  1
  Tm  Tm2  1  0.00000000  0.59619768  -0.00000000  1
  Zn  Zn0  1  0.74788641  0.74788641  0.50000000  1
  Zn  Zn1  1  0.25211359  0.00000000  0.50000000  1
  Zn  Zn2  1  0.00000000  0.25211359  0.50000000  1
  Pd  Pd0  1  -0.00000000  -0.00000000  0.00000000  1
  Pd  Pd1  1  0.66666700  0.33333300  0.50000000  1
  Pd  Pd2  1  0.33333300  0.66666700  0.50000000  1
loop_
_geom_bond_atom_site_label_1
_geom_bond_atom_site_label_2
_geom_bond_distance
_geom_bond_site_symmetry_2
Tm0 Zn0 3.115195 1_555
Tm0 Zn0 3.115195 1_554
Tm0 Zn1 3.167454 1_555
Tm0 Zn1 3.167454 1_554
Tm0 Zn2 3.167454 1_555
Tm0 Zn2 3.167454 1_554
Tm1 Zn1 3.115196 1_555
Tm1 Zn1 3.115196 1_554
Tm1 Zn2 3.167454 1_655
Tm1 Zn2 3.167454 1_654
Tm1 Zn0 3.167456 1_544
Tm1 Zn0 3.167456 1_545
Tm2 Zn2 3.115196 1_555
Tm2 Zn2 3.115196 1_554
Tm2 Zn1 3.167454 1_565
Tm2 Zn1 3.167454 1_564
Tm2 Zn0 3.167456 1_455
Tm2 Zn0 3.167456 1_454
Pd0 Zn0 2.626806 1_445
Pd0 Zn0 2.626806 1_444
Pd0 Zn2 2.626807 1_555
Pd0 Zn2 2.626807 1_554
Pd0 Zn1 2.626807 1_555
Pd0 Zn1 2.626807 1_554
Pd0 Tm0 2.887777 1_555
Pd0 Tm2 2.887780 1_545
Pd0 Tm1 2.887780 1_455
Pd1 Zn2 2.721137 1_655
Pd1 Zn1 2.721140 1_555
Pd1 Zn0 2.721144 1_555
Pd1 Tm1 2.895617 1_555
Pd1 Tm1 2.895617 1_556
Pd1 Tm2 2.895617 1_655
Pd1 Tm2 2.895617 1_656
Pd1 Tm0 2.895623 1_555
Pd1 Tm0 2.895623 1_556
Pd2 Zn1 2.721137 1_565
Pd2 Zn2 2.721140 1_555
Pd2 Zn0 2.721144 1_555
Pd2 Tm2 2.895617 1_556
Pd2 Tm2 2.895617 1_555
Pd2 Tm1 2.895617 1_565
Pd2 Tm1 2.895617 1_566
Pd2 Tm0 2.895623 1_555
Pd2 Tm0 2.895623 1_556
