# generated using pymatgen
data_BaNaCeSbO6
_symmetry_space_group_name_H-M   'P 1'
_cell_length_a   8.44740083
_cell_length_b   8.46992564
_cell_length_c   8.45620042
_cell_angle_alpha   90.00000000
_cell_angle_beta   90.00000000
_cell_angle_gamma   90.00000000
_symmetry_Int_Tables_number   1
_chemical_formula_structural   BaNaCeSbO6
_chemical_formula_sum   'Ba4 Na4 Ce4 Sb4 O24'
_cell_volume   605.03147361
_cell_formula_units_Z   4
loop_
 _symmetry_equiv_pos_site_id
 _symmetry_equiv_pos_as_xyz
  1  'x, y, z'
loop_
 _atom_site_type_symbol
 _atom_site_label
 _atom_site_symmetry_multiplicity
 _atom_site_fract_x
 _atom_site_fract_y
 _atom_site_fract_z
 _atom_site_occupancy
  Ba  Ba0  1  -0.00000000  0.00000000  -0.00000000  1
  Ba  Ba1  1  0.50000000  0.50000000  0.50000000  1
  Ba  Ba2  1  0.50000000  0.50000000  -0.00000000  1
  Ba  Ba3  1  -0.00000000  0.00000000  0.50000000  1
  Na  Na0  1  -0.00000000  0.50000000  0.50000000  1
  Na  Na1  1  0.50000000  -0.00000000  0.50000000  1
  Na  Na2  1  0.50000000  -0.00000000  -0.00000000  1
  Na  Na3  1  -0.00000000  0.50000000  -0.00000000  1
  Ce  Ce0  1  0.75000000  0.75000000  0.75000000  1
  Ce  Ce1  1  0.25000000  0.25000000  0.75000000  1
  Ce  Ce2  1  0.25000000  0.75000000  0.25000000  1
  Ce  Ce3  1  0.75000000  0.25000000  0.25000000  1
  Sb  Sb0  1  0.25000000  0.25000000  0.25000000  1
  Sb  Sb1  1  0.75000000  0.75000000  0.25000000  1
  Sb  Sb2  1  0.75000000  0.25000000  0.75000000  1
  Sb  Sb3  1  0.25000000  0.75000000  0.75000000  1
  O  O0  1  0.01249868  0.22979876  0.26446463  1
  O  O1  1  0.98750132  0.77020124  0.26446463  1
  O  O2  1  0.98750132  0.22979876  0.73553537  1
  O  O3  1  0.01249868  0.77020124  0.73553537  1
  O  O4  1  0.26049123  0.01259779  0.23091392  1
  O  O5  1  0.26049123  0.98740221  0.76908608  1
  O  O6  1  0.73950877  0.98740221  0.23091392  1
  O  O7  1  0.73950877  0.01259779  0.76908608  1
  O  O8  1  0.23222812  0.26854719  0.01327488  1
  O  O9  1  0.76777188  0.26854719  0.98672512  1
  O  O10  1  0.23222812  0.73145281  0.98672512  1
  O  O11  1  0.76777188  0.73145281  0.01327488  1
  O  O12  1  0.48750132  0.27020124  0.23553537  1
  O  O13  1  0.51249868  0.72979876  0.23553537  1
  O  O14  1  0.51249868  0.27020124  0.76446463  1
  O  O15  1  0.48750132  0.72979876  0.76446463  1
  O  O16  1  0.23950877  0.48740221  0.26908608  1
  O  O17  1  0.23950877  0.51259779  0.73091392  1
  O  O18  1  0.76049123  0.51259779  0.26908608  1
  O  O19  1  0.76049123  0.48740221  0.73091392  1
  O  O20  1  0.26777188  0.23145281  0.48672512  1
  O  O21  1  0.73222812  0.23145281  0.51327488  1
  O  O22  1  0.26777188  0.76854719  0.51327488  1
  O  O23  1  0.73222812  0.76854719  0.48672512  1
loop_
_geom_bond_atom_site_label_1
_geom_bond_atom_site_label_2
_geom_bond_distance
_geom_bond_site_symmetry_2
Ba0 O5 2.943863 1_544
Ba0 O7 2.943863 1_454
Ba0 O6 2.943863 1_445
Ba0 O4 2.943863 1_555
Ba0 O3 2.966626 1_544
Ba0 O2 2.966626 1_454
Ba0 O1 2.966626 1_445
Ba0 O0 2.966626 1_555
Ba0 O8 3.005770 1_555
Ba0 O10 3.005770 1_544
Ba0 O9 3.005770 1_454
Ba0 O11 3.005770 1_445
Ba1 O18 2.943863 1_555
Ba1 O19 2.943863 1_555
Ba1 O16 2.943863 1_555
Ba1 O17 2.943863 1_555
Ba1 O14 2.966626 1_555
Ba1 O15 2.966626 1_555
Ba1 O12 2.966626 1_555
Ba1 O13 2.966626 1_555
Ba1 O20 3.005770 1_555
Ba1 O23 3.005770 1_555
Ba1 O21 3.005770 1_555
Ba1 O22 3.005770 1_555
Ba2 O15 2.786852 1_554
Ba2 O12 2.786852 1_555
Ba2 O13 2.786852 1_555
Ba2 O14 2.786852 1_554
Ba2 O8 2.995373 1_555
Ba2 O10 2.995373 1_554
Ba2 O11 2.995373 1_555
Ba2 O9 2.995373 1_554
Ba2 O16 3.167195 1_555
Ba2 O19 3.167195 1_554
Ba2 O17 3.167195 1_554
Ba2 O18 3.167195 1_555
Ba3 O0 2.786852 1_555
Ba3 O2 2.786852 1_455
Ba3 O3 2.786852 1_545
Ba3 O1 2.786852 1_445
Ba3 O21 2.995373 1_455
Ba3 O23 2.995373 1_445
Ba3 O22 2.995373 1_545
Ba3 O20 2.995373 1_555
Ba3 O7 3.167195 1_455
Ba3 O6 3.167195 1_445
Ba3 O4 3.167195 1_555
Ba3 O5 3.167195 1_545
Na0 O16 2.813839 1_555
Na0 O17 2.813839 1_555
Na0 O18 2.813839 1_455
Na0 O19 2.813839 1_455
Na1 O23 2.775623 1_545
Na1 O22 2.775623 1_545
Na1 O20 2.775623 1_555
Na1 O21 2.775623 1_555
Na2 O5 2.813839 1_544
Na2 O4 2.813839 1_555
Na2 O6 2.813839 1_545
Na2 O7 2.813839 1_554
Na3 O11 2.775623 1_455
Na3 O10 2.775623 1_554
Na3 O9 2.775623 1_454
Na3 O8 2.775623 1_555
Ce0 O15 2.227384 1_555
Ce0 O3 2.227384 1_655
Ce0 O19 2.231792 1_555
Ce0 O7 2.231792 1_565
Ce0 O23 2.236884 1_555
Ce0 O11 2.236884 1_556
Ce1 O14 2.227384 1_555
Ce1 O2 2.227384 1_455
Ce1 O5 2.231792 1_545
Ce1 O17 2.231792 1_555
Ce1 O20 2.236884 1_555
Ce1 O8 2.236884 1_556
Ce2 O1 2.227384 1_455
Ce2 O13 2.227384 1_555
Ce2 O16 2.231792 1_555
Ce2 O4 2.231792 1_565
Ce2 O22 2.236884 1_555
Ce2 O10 2.236884 1_554
Ce3 O0 2.227384 1_655
Ce3 O12 2.227384 1_555
Ce3 O6 2.231792 1_545
Ce3 O18 2.231792 1_555
Ce3 O9 2.236884 1_554
Ce3 O21 2.236884 1_555
O0 Sb0 2.017264 1_555
O1 Sb1 2.017264 1_555
O2 Sb2 2.017264 1_555
O3 Sb3 2.017264 1_555
O4 Sb0 2.019192 1_555
O5 Sb3 2.019192 1_555
O6 Sb1 2.019192 1_555
O7 Sb2 2.019192 1_555
O8 Sb0 2.013554 1_555
O9 Sb2 2.013554 1_555
O10 Sb3 2.013554 1_555
O11 Sb1 2.013554 1_555
O12 Sb0 2.017264 1_555
O13 Sb1 2.017264 1_555
O14 Sb2 2.017264 1_555
O15 Sb3 2.017264 1_555
O16 Sb0 2.019192 1_555
O17 Sb3 2.019192 1_555
O18 Sb1 2.019192 1_555
O19 Sb2 2.019192 1_555
O20 Sb0 2.013554 1_555
O21 Sb2 2.013554 1_555
O22 Sb3 2.013554 1_555
O23 Sb1 2.013554 1_555
