# generated using pymatgen
data_Sr(LuSe2)2
_symmetry_space_group_name_H-M   'P 1'
_cell_length_a   4.06393135
_cell_length_b   12.45353067
_cell_length_c   14.68612790
_cell_angle_alpha   90.00000000
_cell_angle_beta   90.00000000
_cell_angle_gamma   90.00000000
_symmetry_Int_Tables_number   1
_chemical_formula_structural   Sr(LuSe2)2
_chemical_formula_sum   'Sr4 Lu8 Se16'
_cell_volume   743.26924645
_cell_formula_units_Z   4
loop_
 _symmetry_equiv_pos_site_id
 _symmetry_equiv_pos_as_xyz
  1  'x, y, z'
loop_
 _atom_site_type_symbol
 _atom_site_label
 _atom_site_symmetry_multiplicity
 _atom_site_fract_x
 _atom_site_fract_y
 _atom_site_fract_z
 _atom_site_occupancy
  Sr  Sr0  1  0.25000000  0.75999500  0.33378916  1
  Sr  Sr1  1  0.25000000  0.25999500  0.16621084  1
  Sr  Sr2  1  0.75000000  0.24000500  0.66621084  1
  Sr  Sr3  1  0.75000000  0.74000500  0.83378916  1
  Lu  Lu0  1  0.25000000  0.43970696  0.38889350  1
  Lu  Lu1  1  0.25000000  0.93970696  0.11110650  1
  Lu  Lu2  1  0.75000000  0.56029304  0.61110650  1
  Lu  Lu3  1  0.75000000  0.06029304  0.88889350  1
  Lu  Lu4  1  0.25000000  0.41707002  0.90231024  1
  Lu  Lu5  1  0.25000000  0.91707002  0.59768976  1
  Lu  Lu6  1  0.75000000  0.58292998  0.09768976  1
  Lu  Lu7  1  0.75000000  0.08292998  0.40231024  1
  Se  Se0  1  0.25000000  0.20429765  0.83319969  1
  Se  Se1  1  0.25000000  0.70429765  0.66680031  1
  Se  Se2  1  0.75000000  0.79570235  0.16680031  1
  Se  Se3  1  0.75000000  0.29570235  0.33319969  1
  Se  Se4  1  0.25000000  0.12673152  0.52931241  1
  Se  Se5  1  0.25000000  0.62673152  0.97068759  1
  Se  Se6  1  0.75000000  0.87326848  0.47068759  1
  Se  Se7  1  0.75000000  0.37326848  0.02931241  1
  Se  Se8  1  0.25000000  0.02811906  0.28476958  1
  Se  Se9  1  0.25000000  0.52811906  0.21523042  1
  Se  Se10  1  0.75000000  0.97188094  0.71523042  1
  Se  Se11  1  0.75000000  0.47188094  0.78476958  1
  Se  Se12  1  0.25000000  0.41049043  0.57566504  1
  Se  Se13  1  0.25000000  0.91049043  0.92433496  1
  Se  Se14  1  0.75000000  0.58950957  0.42433496  1
  Se  Se15  1  0.75000000  0.08950957  0.07566504  1
loop_
_geom_bond_atom_site_label_1
_geom_bond_atom_site_label_2
_geom_bond_distance
_geom_bond_site_symmetry_2
Lu0 Se12 2.766978 1_555
Lu0 Se9 2.777954 1_555
Lu0 Se14 2.807162 1_455
Lu0 Se14 2.807162 1_555
Lu0 Se3 2.830910 1_555
Lu0 Se3 2.830910 1_455
Lu1 Se13 2.766978 1_554
Lu1 Se8 2.777954 1_565
Lu1 Se15 2.807162 1_565
Lu1 Se15 2.807162 1_465
Lu1 Se2 2.830910 1_455
Lu1 Se2 2.830910 1_555
Lu2 Se14 2.766978 1_555
Lu2 Se11 2.777954 1_555
Lu2 Se12 2.807162 1_555
Lu2 Se12 2.807162 1_655
Lu2 Se1 2.830910 1_655
Lu2 Se1 2.830910 1_555
Lu3 Se15 2.766978 1_556
Lu3 Se10 2.777954 1_545
Lu3 Se13 2.807162 1_545
Lu3 Se13 2.807162 1_645
Lu3 Se0 2.830910 1_555
Lu3 Se0 2.830910 1_655
Lu4 Se11 2.752206 1_555
Lu4 Se11 2.752206 1_455
Lu4 Se5 2.797476 1_555
Lu4 Se7 2.811636 1_456
Lu4 Se7 2.811636 1_556
Lu4 Se0 2.837503 1_555
Lu5 Se10 2.752206 1_455
Lu5 Se10 2.752206 1_555
Lu5 Se4 2.797476 1_565
Lu5 Se6 2.811636 1_555
Lu5 Se6 2.811636 1_455
Lu5 Se1 2.837503 1_555
Lu6 Se9 2.752206 1_555
Lu6 Se9 2.752206 1_655
Lu6 Se7 2.797476 1_555
Lu6 Se5 2.811636 1_554
Lu6 Se5 2.811636 1_654
Lu6 Se2 2.837503 1_555
Lu7 Se8 2.752206 1_555
Lu7 Se8 2.752206 1_655
Lu7 Se6 2.797476 1_545
Lu7 Se4 2.811636 1_655
Lu7 Se4 2.811636 1_555
Lu7 Se3 2.837503 1_555
Se0 Sr2 3.215741 1_555
Se0 Sr2 3.215741 1_455
Se1 Sr3 3.215741 1_555
Se1 Sr3 3.215741 1_455
Se2 Sr0 3.215741 1_555
Se2 Sr0 3.215741 1_655
Se3 Sr1 3.215741 1_655
Se3 Sr1 3.215741 1_555
Se4 Sr2 3.187628 1_555
Se4 Sr2 3.187628 1_455
Se5 Sr3 3.187628 1_455
Se5 Sr3 3.187628 1_555
Se6 Sr0 3.187628 1_555
Se6 Sr0 3.187628 1_655
Se7 Sr1 3.187628 1_655
Se7 Sr1 3.187628 1_555
Se8 Sr1 3.371992 1_555
Se8 Sr0 3.415816 1_545
Se9 Sr0 3.371992 1_555
Se9 Sr1 3.415816 1_555
Se10 Sr3 3.371992 1_555
Se10 Sr2 3.415816 1_565
Se11 Sr2 3.371992 1_555
Se11 Sr3 3.415816 1_555
Se12 Sr2 3.225665 1_455
Se12 Sr2 3.225665 1_555
Se13 Sr3 3.225665 1_455
Se13 Sr3 3.225665 1_555
Se14 Sr0 3.225665 1_655
Se14 Sr0 3.225665 1_555
Se15 Sr1 3.225665 1_655
Se15 Sr1 3.225665 1_555
