# generated using pymatgen
data_Gd6S3(OF4)2
_symmetry_space_group_name_H-M   'P 1'
_cell_length_a   3.78963200
_cell_length_b   13.40937853
_cell_length_c   13.40691088
_cell_angle_alpha   120.55789055
_cell_angle_beta   90.00000000
_cell_angle_gamma   90.00000000
_symmetry_Int_Tables_number   1
_chemical_formula_structural   Gd6S3(OF4)2
_chemical_formula_sum   'Gd12 S6 O4 F16'
_cell_volume   586.67289962
_cell_formula_units_Z   2
loop_
 _symmetry_equiv_pos_site_id
 _symmetry_equiv_pos_as_xyz
  1  'x, y, z'
loop_
 _atom_site_type_symbol
 _atom_site_label
 _atom_site_symmetry_multiplicity
 _atom_site_fract_x
 _atom_site_fract_y
 _atom_site_fract_z
 _atom_site_occupancy
  Gd  Gd0  1  0.75000000  0.61138600  0.47351200  1
  Gd  Gd1  1  0.75000000  0.52683800  0.12890100  1
  Gd  Gd2  1  0.75000000  0.86239000  0.38601000  1
  Gd  Gd3  1  0.25000000  0.39898200  0.53813400  1
  Gd  Gd4  1  0.25000000  0.47482300  0.87433400  1
  Gd  Gd5  1  0.25000000  0.14108800  0.60435100  1
  Gd  Gd6  1  0.75000000  0.94294400  0.71805600  1
  Gd  Gd7  1  0.75000000  0.28265200  0.22457900  1
  Gd  Gd8  1  0.75000000  0.76405400  0.05258500  1
  Gd  Gd9  1  0.25000000  0.05391800  0.29035700  1
  Gd  Gd10  1  0.25000000  0.70765200  0.76371600  1
  Gd  Gd11  1  0.25000000  0.23635200  0.94246200  1
  S  S0  1  0.75000000  0.27323200  0.80187300  1
  S  S1  1  0.75000000  0.19652100  0.47424400  1
  S  S2  1  0.75000000  0.52697500  0.71835500  1
  S  S3  1  0.25000000  0.72349300  0.19368100  1
  S  S4  1  0.25000000  0.81171200  0.53180100  1
  S  S5  1  0.25000000  0.46780400  0.28176900  1
  O  O0  1  0.75000000  0.56728400  0.97993700  1
  O  O1  1  0.25000000  0.98302400  0.41826500  1
  O  O2  1  0.25000000  0.58307500  0.56351500  1
  O  O3  1  0.25000000  0.43161000  0.01969800  1
  F  F0  1  0.75000000  0.10290600  0.90228300  1
  F  F1  1  0.75000000  0.09844400  0.20238400  1
  F  F2  1  0.75000000  0.79730800  0.89420300  1
  F  F3  1  0.25000000  0.89659000  0.09831500  1
  F  F4  1  0.25000000  0.90312100  0.80085200  1
  F  F5  1  0.25000000  0.19873900  0.10129000  1
  F  F6  1  0.75000000  0.75210400  0.68181900  1
  F  F7  1  0.75000000  0.31688300  0.06879100  1
  F  F8  1  0.75000000  0.93090500  0.24924800  1
  F  F9  1  0.25000000  0.25361800  0.32335300  1
  F  F10  1  0.25000000  0.68049400  0.92772100  1
  F  F11  1  0.25000000  0.06688100  0.74497600  1
  F  F12  1  0.75000000  0.66632700  0.33309800  1
  F  F13  1  0.25000000  0.33624700  0.66984200  1
  F  F14  1  0.75000000  0.02129700  0.58835400  1
  F  F15  1  0.75000000  0.41032700  0.43333500  1
loop_
_geom_bond_atom_site_label_1
_geom_bond_atom_site_label_2
_geom_bond_distance
_geom_bond_site_symmetry_2
Gd0 O2 2.378292 1_555
Gd0 O2 2.378292 1_655
Gd0 S5 2.978758 1_655
Gd0 S5 2.978758 1_555
Gd0 S4 3.046706 1_555
Gd0 S4 3.046706 1_655
Gd1 O0 2.320372 1_554
Gd1 O3 2.337403 1_555
Gd1 O3 2.337403 1_655
Gd1 S3 2.994951 1_555
Gd1 S3 2.994951 1_655
Gd1 S5 3.172862 1_655
Gd1 S5 3.172862 1_555
Gd2 O1 2.383854 1_655
Gd2 O1 2.383854 1_555
Gd2 S3 2.970660 1_655
Gd2 S3 2.970660 1_555
Gd2 S4 3.036977 1_555
Gd2 S4 3.036977 1_655
Gd3 O2 2.314197 1_555
Gd3 S2 2.856116 1_455
Gd3 S2 2.856116 1_555
Gd3 S1 3.054506 1_555
Gd3 S1 3.054506 1_455
Gd4 O3 2.298305 1_556
Gd4 O0 2.312392 1_455
Gd4 O0 2.312392 1_555
Gd4 S0 3.028394 1_555
Gd4 S0 3.028394 1_455
Gd4 S2 3.152699 1_455
Gd4 S2 3.152699 1_555
Gd5 O1 2.310807 1_545
Gd5 S1 2.916155 1_555
Gd5 S1 2.916155 1_455
Gd5 S0 2.995260 1_455
Gd5 S0 2.995260 1_555
Gd6 S4 2.907643 1_655
Gd6 S4 2.907643 1_555
Gd7 S5 2.899435 1_555
Gd7 S5 2.899435 1_655
Gd8 O0 2.301635 1_554
Gd8 S3 2.917312 1_555
Gd8 S3 2.917312 1_655
Gd9 O1 2.345649 1_545
Gd9 S1 2.920840 1_555
Gd9 S1 2.920840 1_455
Gd10 O2 2.331455 1_555
Gd10 S2 2.886483 1_555
Gd10 S2 2.886483 1_455
Gd11 O3 2.273953 1_556
Gd11 S0 2.887113 1_455
Gd11 S0 2.887113 1_555
F0 Gd6 2.305303 1_545
F0 Gd11 2.470307 1_555
F0 Gd11 2.470307 1_655
F1 Gd7 2.332944 1_555
F1 Gd9 2.460479 1_555
F1 Gd9 2.460479 1_655
F2 Gd8 2.381284 1_556
F2 Gd10 2.440819 1_655
F2 Gd10 2.440819 1_555
F3 Gd9 2.357253 1_565
F3 Gd8 2.452918 1_555
F3 Gd8 2.452918 1_455
F4 Gd6 2.389645 1_555
F4 Gd6 2.389645 1_455
F4 Gd10 2.406490 1_555
F5 Gd7 2.386928 1_555
F5 Gd7 2.386928 1_455
F5 Gd11 2.425027 1_554
F6 Gd6 2.349592 1_555
F6 Gd10 2.411782 1_555
F6 Gd10 2.411782 1_655
F6 Gd0 2.449823 1_555
F7 Gd7 2.355406 1_555
F7 Gd11 2.401102 1_554
F7 Gd11 2.401102 1_654
F7 Gd1 2.503740 1_555
F8 Gd9 2.385501 1_565
F8 Gd9 2.385501 1_665
F8 Gd2 2.432882 1_555
F8 Gd8 2.441179 1_555
F9 Gd7 2.453527 1_455
F9 Gd7 2.453527 1_555
F9 Gd9 2.482349 1_555
F9 Gd3 2.526661 1_555
F10 Gd8 2.396027 1_556
F10 Gd8 2.396027 1_456
F10 Gd10 2.404486 1_555
F10 Gd4 2.472092 1_555
F11 Gd6 2.423358 1_545
F11 Gd6 2.423358 1_445
F11 Gd11 2.460979 1_555
F11 Gd5 2.540137 1_555
F12 Gd0 2.344538 1_555
F12 Gd2 2.349235 1_555
F12 Gd1 2.405529 1_555
F13 Gd5 2.298479 1_555
F13 Gd3 2.310012 1_555
F13 Gd4 2.406076 1_555
F14 Gd5 2.422044 1_655
F14 Gd5 2.422044 1_555
F14 Gd6 2.446510 1_545
F14 Gd2 2.453984 1_545
F15 Gd3 2.409341 1_555
F15 Gd3 2.409341 1_655
F15 Gd7 2.427348 1_555
F15 Gd0 2.466233 1_555
