# generated using pymatgen
data_Ba2LiUO6
_symmetry_space_group_name_H-M   'P 1'
_cell_length_a   5.98753800
_cell_length_b   6.03814600
_cell_length_c   8.47879700
_cell_angle_alpha   90.00000000
_cell_angle_beta   90.00000000
_cell_angle_gamma   90.00000000
_symmetry_Int_Tables_number   1
_chemical_formula_structural   Ba2LiUO6
_chemical_formula_sum   'Ba4 Li2 U2 O12'
_cell_volume   306.53927792
_cell_formula_units_Z   2
loop_
 _symmetry_equiv_pos_site_id
 _symmetry_equiv_pos_as_xyz
  1  'x, y, z'
loop_
 _atom_site_type_symbol
 _atom_site_label
 _atom_site_symmetry_multiplicity
 _atom_site_fract_x
 _atom_site_fract_y
 _atom_site_fract_z
 _atom_site_occupancy
  Ba  Ba0  1  0.00000000  0.49654000  0.25288200  1
  Ba  Ba1  1  0.00000000  0.50346000  0.74711800  1
  Ba  Ba2  1  0.50000000  0.99654000  0.24711800  1
  Ba  Ba3  1  0.50000000  0.00346000  0.75288200  1
  Li  Li0  1  0.00000000  0.00000000  0.00000000  1
  Li  Li1  1  0.50000000  0.50000000  0.50000000  1
  U  U0  1  0.00000000  0.00000000  0.50000000  1
  U  U1  1  0.50000000  0.50000000  0.00000000  1
  O  O0  1  0.50000000  0.51427100  0.24260900  1
  O  O1  1  0.50000000  0.48572900  0.75739100  1
  O  O2  1  0.00000000  0.01427100  0.25739100  1
  O  O3  1  0.00000000  0.98572900  0.74260900  1
  O  O4  1  0.24430800  0.24267200  0.50365000  1
  O  O5  1  0.24430800  0.75732800  0.49635000  1
  O  O6  1  0.74430800  0.74267200  0.99635000  1
  O  O7  1  0.74430800  0.25732800  0.00365000  1
  O  O8  1  0.25569200  0.25732800  0.00365000  1
  O  O9  1  0.25569200  0.74267200  0.99635000  1
  O  O10  1  0.75569200  0.75732800  0.49635000  1
  O  O11  1  0.75569200  0.24267200  0.50365000  1
loop_
_geom_bond_atom_site_label_1
_geom_bond_atom_site_label_2
_geom_bond_distance
_geom_bond_site_symmetry_2
Ba0 O2 2.912262 1_555
Ba0 O5 2.980067 1_555
Ba0 O10 2.980067 1_455
Ba0 O8 2.982566 1_555
Ba0 O7 2.982566 1_455
Ba0 O0 2.996949 1_455
Ba0 O0 2.996949 1_555
Ba0 O4 3.001720 1_555
Ba0 O11 3.001720 1_455
Ba0 O6 3.046896 1_454
Ba0 O9 3.046896 1_554
Ba0 O2 3.126369 1_565
Ba1 O3 2.912262 1_555
Ba1 O4 2.980067 1_555
Ba1 O11 2.980067 1_455
Ba1 O9 2.982566 1_555
Ba1 O6 2.982566 1_455
Ba1 O1 2.996949 1_455
Ba1 O1 2.996949 1_555
Ba1 O5 3.001720 1_555
Ba1 O10 3.001720 1_455
Ba1 O8 3.046896 1_556
Ba1 O7 3.046896 1_456
Ba1 O3 3.126369 1_545
Ba2 O0 2.912262 1_555
Ba2 O8 2.980067 1_565
Ba2 O7 2.980067 1_565
Ba2 O5 2.982566 1_555
Ba2 O10 2.982566 1_555
Ba2 O2 2.996949 1_665
Ba2 O2 2.996949 1_565
Ba2 O6 3.001720 1_554
Ba2 O9 3.001720 1_554
Ba2 O4 3.046896 1_565
Ba2 O11 3.046896 1_565
Ba2 O0 3.126369 1_565
Ba3 O1 2.912262 1_555
Ba3 O9 2.980067 1_545
Ba3 O6 2.980067 1_545
Ba3 O4 2.982566 1_555
Ba3 O11 2.982566 1_555
Ba3 O3 2.996949 1_645
Ba3 O3 2.996949 1_545
Ba3 O7 3.001720 1_556
Ba3 O8 3.001720 1_556
Ba3 O10 3.046896 1_545
Ba3 O5 3.046896 1_545
Ba3 O1 3.126369 1_545
Li0 O9 2.181527 1_544
Li0 O8 2.181527 1_555
Li0 O7 2.181527 1_455
Li0 O6 2.181527 1_444
Li0 O2 2.184067 1_555
Li0 O3 2.184067 1_544
Li1 O4 2.181527 1_555
Li1 O11 2.181527 1_555
Li1 O5 2.181527 1_555
Li1 O10 2.181527 1_555
Li1 O0 2.184067 1_555
Li1 O1 2.184067 1_555
O0 U1 2.058837 1_555
O1 U1 2.058837 1_556
O2 U0 2.058837 1_555
O3 U0 2.058837 1_565
O4 U0 2.070706 1_555
O5 U0 2.070706 1_565
O6 U1 2.070706 1_556
O7 U1 2.070706 1_555
O8 U1 2.070706 1_555
O9 U1 2.070706 1_556
O10 U0 2.070706 1_665
O11 U0 2.070706 1_655
