# generated using pymatgen
data_K2RbVF6
_symmetry_space_group_name_H-M   'P 1'
_cell_length_a   6.48459500
_cell_length_b   6.48459525
_cell_length_c   6.48459544
_cell_angle_alpha   60.00000138
_cell_angle_beta   59.99999716
_cell_angle_gamma   59.99999616
_symmetry_Int_Tables_number   1
_chemical_formula_structural   K2RbVF6
_chemical_formula_sum   'K2 Rb1 V1 F6'
_cell_volume   192.81179698
_cell_formula_units_Z   1
loop_
 _symmetry_equiv_pos_site_id
 _symmetry_equiv_pos_as_xyz
  1  'x, y, z'
loop_
 _atom_site_type_symbol
 _atom_site_label
 _atom_site_symmetry_multiplicity
 _atom_site_fract_x
 _atom_site_fract_y
 _atom_site_fract_z
 _atom_site_occupancy
  K  K0  1  0.25000000  0.25000000  0.25000000  1
  K  K1  1  0.75000000  0.75000000  0.75000000  1
  Rb  Rb0  1  0.50000000  0.50000000  0.50000000  1
  V  V0  1  0.00000000  0.00000000  0.00000000  1
  F  F0  1  0.21338900  0.78661100  0.21338900  1
  F  F1  1  0.78661100  0.78661100  0.21338900  1
  F  F2  1  0.78661100  0.21338900  0.78661100  1
  F  F3  1  0.78661100  0.21338900  0.21338900  1
  F  F4  1  0.21338900  0.78661100  0.78661100  1
  F  F5  1  0.21338900  0.21338900  0.78661100  1
loop_
_geom_bond_atom_site_label_1
_geom_bond_atom_site_label_2
_geom_bond_distance
_geom_bond_site_symmetry_2
F0 V0 1.956906 1_565
F0 Rb0 2.628396 1_555
F0 K1 3.259635 1_554
F0 K1 3.259635 1_455
F0 K0 3.259635 1_555
F0 K0 3.259635 1_565
F1 V0 1.956906 1_665
F1 Rb0 2.628396 1_555
F1 K0 3.259634 1_565
F1 K0 3.259635 1_655
F1 K1 3.259635 1_554
F1 K1 3.259635 1_555
F2 V0 1.956906 1_656
F2 Rb0 2.628396 1_555
F2 K0 3.259635 1_556
F2 K0 3.259635 1_655
F2 K1 3.259635 1_555
F2 K1 3.259635 1_545
F3 V0 1.956906 1_655
F3 Rb0 2.628395 1_555
F3 K0 3.259635 1_555
F3 K0 3.259635 1_655
F3 K1 3.259635 1_554
F3 K1 3.259635 1_545
F4 V0 1.956906 1_566
F4 Rb0 2.628395 1_555
F4 K1 3.259635 1_555
F4 K1 3.259635 1_455
F4 K0 3.259635 1_556
F4 K0 3.259635 1_565
F5 V0 1.956906 1_556
F5 Rb0 2.628396 1_555
F5 K1 3.259634 1_545
F5 K1 3.259635 1_455
F5 K0 3.259635 1_556
F5 K0 3.259635 1_555
