# generated using pymatgen
data_Sr2HfTiO6
_symmetry_space_group_name_H-M   'P 1'
_cell_length_a   5.70639957
_cell_length_b   5.70639957
_cell_length_c   5.70974939
_cell_angle_alpha   59.98752432
_cell_angle_beta   59.98752432
_cell_angle_gamma   60.04195617
_symmetry_Int_Tables_number   1
_chemical_formula_structural   Sr2HfTiO6
_chemical_formula_sum   'Sr2 Hf1 Ti1 O6'
_cell_volume   131.48673808
_cell_formula_units_Z   1
loop_
 _symmetry_equiv_pos_site_id
 _symmetry_equiv_pos_as_xyz
  1  'x, y, z'
loop_
 _atom_site_type_symbol
 _atom_site_label
 _atom_site_symmetry_multiplicity
 _atom_site_fract_x
 _atom_site_fract_y
 _atom_site_fract_z
 _atom_site_occupancy
  Sr  Sr0  1  0.75001600  0.75001600  0.24923600  1
  Sr  Sr1  1  0.24998400  0.24998400  0.75076400  1
  Hf  Hf0  1  0.00000000  0.00000000  0.50000000  1
  Ti  Ti0  1  0.50000000  0.50000000  0.00000000  1
  O  O0  1  0.26726700  0.75517100  0.23253900  1
  O  O1  1  0.24482900  0.73273300  0.76746100  1
  O  O2  1  0.73273300  0.24482900  0.76746100  1
  O  O3  1  0.75517100  0.26726700  0.23253900  1
  O  O4  1  0.25620400  0.25620400  0.26715300  1
  O  O5  1  0.74379600  0.74379600  0.73284700  1
loop_
_geom_bond_atom_site_label_1
_geom_bond_atom_site_label_2
_geom_bond_distance
_geom_bond_site_symmetry_2
Hf0 O1 2.070358 1_545
Hf0 O2 2.070358 1_455
Hf0 O0 2.070358 1_545
Hf0 O3 2.070358 1_455
Hf0 O4 2.070817 1_555
Hf0 O5 2.070817 1_445
O0 Ti0 1.971197 1_555
O0 Sr1 2.787934 1_564
O0 Sr0 2.788842 1_555
O0 Sr0 2.919683 1_455
O0 Sr1 2.921359 1_555
O1 Ti0 1.971197 1_556
O1 Sr0 2.787934 1_456
O1 Sr1 2.788842 1_555
O1 Sr1 2.919683 1_565
O1 Sr0 2.921359 1_555
O2 Ti0 1.971197 1_556
O2 Sr0 2.787934 1_546
O2 Sr1 2.788842 1_555
O2 Sr1 2.919683 1_655
O2 Sr0 2.921359 1_555
O3 Ti0 1.971197 1_555
O3 Sr1 2.787934 1_654
O3 Sr0 2.788842 1_555
O3 Sr0 2.919683 1_545
O3 Sr1 2.921359 1_555
O4 Ti0 1.970992 1_555
O4 Sr1 2.726252 1_555
O4 Sr0 2.858760 1_545
O4 Sr0 2.858760 1_455
O4 Sr1 2.984381 1_554
O5 Ti0 1.970992 1_556
O5 Sr0 2.726252 1_555
O5 Sr1 2.858760 1_655
O5 Sr1 2.858760 1_565
O5 Sr0 2.984381 1_556
