# generated using pymatgen
data_SiO2
_symmetry_space_group_name_H-M   'P 1'
_cell_length_a   9.82264500
_cell_length_b   9.82264500
_cell_length_c   9.90612649
_cell_angle_alpha   90.00000000
_cell_angle_beta   90.00000000
_cell_angle_gamma   90.00000000
_symmetry_Int_Tables_number   1
_chemical_formula_structural   SiO2
_chemical_formula_sum   'Si12 O24'
_cell_volume   955.78622292
_cell_formula_units_Z   12
loop_
 _symmetry_equiv_pos_site_id
 _symmetry_equiv_pos_as_xyz
  1  'x, y, z'
loop_
 _atom_site_type_symbol
 _atom_site_label
 _atom_site_symmetry_multiplicity
 _atom_site_fract_x
 _atom_site_fract_y
 _atom_site_fract_z
 _atom_site_occupancy
  Si  Si0  1  0.27094578  0.27094578  0.00000000  1
  Si  Si1  1  0.01128666  0.37545956  0.87175064  1
  Si  Si2  1  0.77094578  0.22905422  0.75000000  1
  Si  Si3  1  0.22905422  0.77094578  0.25000000  1
  Si  Si4  1  0.98871334  0.62454044  0.37175064  1
  Si  Si5  1  0.87545956  0.48871334  0.62175064  1
  Si  Si6  1  0.72905422  0.72905422  0.50000000  1
  Si  Si7  1  0.62454044  0.98871334  0.62824936  1
  Si  Si8  1  0.37545956  0.01128666  0.12824936  1
  Si  Si9  1  0.51128666  0.12454044  0.87824936  1
  Si  Si10  1  0.48871334  0.87545956  0.37824936  1
  Si  Si11  1  0.12454044  0.51128666  0.12175064  1
  O  O0  1  0.98080661  0.48484561  0.75034195  1
  O  O1  1  0.34962163  0.78444299  0.36404319  1
  O  O2  1  0.40083432  0.24844962  0.89833017  1
  O  O3  1  0.65037837  0.21555701  0.86404319  1
  O  O4  1  0.15037837  0.28444299  0.88595681  1
  O  O5  1  0.75155038  0.59916568  0.60166983  1
  O  O6  1  0.25155038  0.90083432  0.14833017  1
  O  O7  1  0.21555701  0.65037837  0.13595681  1
  O  O8  1  0.48080661  0.01515439  0.99965805  1
  O  O9  1  0.84962163  0.71555701  0.38595681  1
  O  O10  1  0.01919339  0.51515439  0.25034195  1
  O  O11  1  0.01515439  0.48080661  0.00034195  1
  O  O12  1  0.09916568  0.74844962  0.35166983  1
  O  O13  1  0.51919339  0.98484561  0.49965805  1
  O  O14  1  0.59916568  0.75155038  0.39833017  1
  O  O15  1  0.24844962  0.40083432  0.10166983  1
  O  O16  1  0.74844962  0.09916568  0.64833017  1
  O  O17  1  0.48484561  0.98080661  0.24965805  1
  O  O18  1  0.28444299  0.15037837  0.11404319  1
  O  O19  1  0.51515439  0.01919339  0.74965805  1
  O  O20  1  0.78444299  0.34962163  0.63595681  1
  O  O21  1  0.90083432  0.25155038  0.85166983  1
  O  O22  1  0.71555701  0.84962163  0.61404319  1
  O  O23  1  0.98484561  0.51919339  0.50034195  1
loop_
_geom_bond_atom_site_label_1
_geom_bond_atom_site_label_2
_geom_bond_distance
_geom_bond_site_symmetry_2
O0 Si1 1.640294 1_655
O0 Si5 1.641615 1_555
O1 Si10 1.638816 1_555
O1 Si3 1.642073 1_555
O2 Si0 1.640420 1_556
O2 Si9 1.642566 1_555
O3 Si9 1.638816 1_555
O3 Si2 1.642073 1_555
O4 Si1 1.638816 1_555
O4 Si0 1.642073 1_556
O5 Si6 1.640420 1_555
O5 Si5 1.642566 1_555
O6 Si3 1.640420 1_555
O6 Si8 1.642566 1_565
O7 Si11 1.638816 1_555
O7 Si3 1.642073 1_555
O8 Si9 1.640294 1_555
O8 Si8 1.641615 1_556
O9 Si4 1.638816 1_555
O9 Si6 1.642073 1_555
O10 Si4 1.640294 1_455
O10 Si11 1.641615 1_555
O11 Si11 1.640294 1_555
O11 Si1 1.641615 1_554
O12 Si3 1.640420 1_555
O12 Si4 1.642566 1_455
O13 Si10 1.640294 1_555
O13 Si7 1.641615 1_555
O14 Si6 1.640420 1_555
O14 Si10 1.642566 1_555
O15 Si0 1.640420 1_555
O15 Si11 1.642566 1_555
O16 Si2 1.640420 1_555
O16 Si7 1.642566 1_545
O17 Si8 1.640294 1_565
O17 Si10 1.641615 1_555
O18 Si8 1.638816 1_555
O18 Si0 1.642073 1_555
O19 Si7 1.640294 1_545
O19 Si9 1.641615 1_555
O20 Si5 1.638816 1_555
O20 Si2 1.642073 1_555
O21 Si2 1.640420 1_555
O21 Si1 1.642566 1_655
O22 Si7 1.638816 1_555
O22 Si6 1.642073 1_555
O23 Si5 1.640294 1_555
O23 Si4 1.641615 1_555
