# generated using pymatgen
data_Li3Ga14
_symmetry_space_group_name_H-M   'P 1'
_cell_length_a   7.35887303
_cell_length_b   7.35887303
_cell_length_c   7.35887337
_cell_angle_alpha   69.05285306
_cell_angle_beta   69.05285306
_cell_angle_gamma   69.05285137
_symmetry_Int_Tables_number   1
_chemical_formula_structural   Li3Ga14
_chemical_formula_sum   'Li3 Ga14'
_cell_volume   335.30215608
_cell_formula_units_Z   1
loop_
 _symmetry_equiv_pos_site_id
 _symmetry_equiv_pos_as_xyz
  1  'x, y, z'
loop_
 _atom_site_type_symbol
 _atom_site_label
 _atom_site_symmetry_multiplicity
 _atom_site_fract_x
 _atom_site_fract_y
 _atom_site_fract_z
 _atom_site_occupancy
  Li  Li0  1  0.11696746  0.52420558  0.11696746  1
  Li  Li1  1  0.11696746  0.11696746  0.52420558  1
  Li  Li2  1  0.52420558  0.11696746  0.11696746  1
  Ga  Ga0  1  0.49589067  0.17715908  0.49589067  1
  Ga  Ga1  1  0.49589067  0.49589067  0.17715908  1
  Ga  Ga2  1  0.17715908  0.49589067  0.49589067  1
  Ga  Ga3  1  0.51734257  0.83107303  0.51734257  1
  Ga  Ga4  1  0.51734257  0.51734257  0.83107303  1
  Ga  Ga5  1  0.83107303  0.51734257  0.51734257  1
  Ga  Ga6  1  0.08269583  0.08269583  0.08269583  1
  Ga  Ga7  1  0.92788576  0.92788576  0.92788576  1
  Ga  Ga8  1  0.70677604  0.18944139  0.70677604  1
  Ga  Ga9  1  0.70677604  0.70677604  0.18944139  1
  Ga  Ga10  1  0.18944139  0.70677604  0.70677604  1
  Ga  Ga11  1  0.30030373  0.81897738  0.30030373  1
  Ga  Ga12  1  0.30030373  0.30030373  0.81897738  1
  Ga  Ga13  1  0.81897738  0.30030373  0.30030373  1
loop_
_geom_bond_atom_site_label_1
_geom_bond_atom_site_label_2
_geom_bond_distance
_geom_bond_site_symmetry_2
Ga0 Ga3 2.445186 1_545
Ga0 Ga13 2.589732 1_555
Ga0 Ga12 2.589732 1_555
Ga0 Ga8 2.597574 1_555
Ga0 Ga2 2.658800 1_555
Ga0 Ga1 2.658801 1_555
Ga0 Li1 2.901165 1_555
Ga0 Li2 2.901165 1_555
Ga1 Ga4 2.445186 1_554
Ga1 Ga11 2.589732 1_555
Ga1 Ga13 2.589732 1_555
Ga1 Ga9 2.597574 1_555
Ga1 Ga2 2.658801 1_555
Ga1 Li0 2.901165 1_555
Ga1 Li2 2.901165 1_555
Ga2 Ga5 2.445186 1_455
Ga2 Li1 2.901165 1_555
Ga2 Li0 2.901165 1_555
Ga3 Ga5 2.617082 1_555
Ga3 Ga4 2.617082 1_555
Ga3 Ga9 2.619870 1_555
Ga3 Li1 2.940578 1_565
Ga3 Li2 2.940578 1_565
Ga4 Ga5 2.617082 1_555
Ga4 Ga8 2.619870 1_555
Ga4 Li2 2.940578 1_556
Ga4 Li0 2.940578 1_556
Ga5 Ga8 2.619870 1_555
Ga5 Ga9 2.619870 1_555
Ga5 Li1 2.940578 1_655
Ga5 Li0 2.940578 1_655
Ga6 Ga7 2.584074 1_444
Ga7 Ga8 2.532618 1_565
Ga7 Ga9 2.532618 1_556
Ga7 Li2 2.858358 1_566
Ga7 Li0 2.858358 1_656
Ga7 Li1 2.858358 1_665
Ga8 Li1 2.768146 1_655
Ga8 Li2 2.768146 1_556
Ga9 Li0 2.768146 1_655
Ga9 Li2 2.768146 1_565
Ga10 Ga7 2.532618 1_455
Ga10 Ga2 2.597574 1_555
Ga10 Ga4 2.619870 1_555
Ga10 Ga3 2.619870 1_555
Ga10 Ga12 2.695434 1_555
Ga10 Ga11 2.695434 1_555
Ga10 Li1 2.768146 1_565
Ga10 Li0 2.768146 1_556
Ga11 Ga6 2.506847 1_565
Ga11 Ga2 2.589732 1_555
Ga11 Ga3 2.671519 1_555
Ga11 Ga9 2.695434 1_555
Ga11 Li1 2.867456 1_565
Ga11 Li2 2.867456 1_565
Ga12 Ga6 2.506847 1_556
Ga12 Ga2 2.589732 1_555
Ga12 Ga4 2.671519 1_555
Ga12 Ga8 2.695434 1_555
Ga12 Li0 2.867456 1_556
Ga12 Li2 2.867456 1_556
Ga13 Ga6 2.506847 1_655
Ga13 Ga5 2.671519 1_555
Ga13 Ga9 2.695434 1_555
Ga13 Ga8 2.695434 1_555
Ga13 Li1 2.867456 1_655
Ga13 Li0 2.867456 1_655
