# generated using pymatgen
data_Gd4MgRh
_symmetry_space_group_name_H-M   'P 1'
_cell_length_a   9.80606702
_cell_length_b   9.80606702
_cell_length_c   9.80606702
_cell_angle_alpha   60.00000000
_cell_angle_beta   60.00000000
_cell_angle_gamma   60.00000000
_symmetry_Int_Tables_number   1
_chemical_formula_structural   Gd4MgRh
_chemical_formula_sum   'Gd16 Mg4 Rh4'
_cell_volume   666.76005568
_cell_formula_units_Z   4
loop_
 _symmetry_equiv_pos_site_id
 _symmetry_equiv_pos_as_xyz
  1  'x, y, z'
loop_
 _atom_site_type_symbol
 _atom_site_label
 _atom_site_symmetry_multiplicity
 _atom_site_fract_x
 _atom_site_fract_y
 _atom_site_fract_z
 _atom_site_occupancy
  Gd  Gd0  1  0.06277415  0.43722585  0.43722585  1
  Gd  Gd1  1  0.06277415  0.43722585  0.06277415  1
  Gd  Gd2  1  0.06277415  0.06277415  0.43722585  1
  Gd  Gd3  1  0.43722585  0.06277415  0.06277415  1
  Gd  Gd4  1  0.43722585  0.06277415  0.43722585  1
  Gd  Gd5  1  0.43722585  0.43722585  0.06277415  1
  Gd  Gd6  1  0.18852831  0.81147169  0.81147169  1
  Gd  Gd7  1  0.18852831  0.81147169  0.18852831  1
  Gd  Gd8  1  0.18852831  0.18852831  0.81147169  1
  Gd  Gd9  1  0.81147169  0.18852831  0.18852831  1
  Gd  Gd10  1  0.81147169  0.18852831  0.81147169  1
  Gd  Gd11  1  0.81147169  0.81147169  0.18852831  1
  Gd  Gd12  1  0.03730419  0.65423194  0.65423194  1
  Gd  Gd13  1  0.65423194  0.03730419  0.65423194  1
  Gd  Gd14  1  0.65423194  0.65423194  0.03730419  1
  Gd  Gd15  1  0.65423194  0.65423194  0.65423194  1
  Mg  Mg0  1  0.73678282  0.42107239  0.42107239  1
  Mg  Mg1  1  0.42107239  0.73678282  0.42107239  1
  Mg  Mg2  1  0.42107239  0.42107239  0.73678282  1
  Mg  Mg3  1  0.42107239  0.42107239  0.42107239  1
  Rh  Rh0  1  0.42461402  0.85846199  0.85846199  1
  Rh  Rh1  1  0.85846199  0.42461402  0.85846199  1
  Rh  Rh2  1  0.85846199  0.85846199  0.42461402  1
  Rh  Rh3  1  0.85846199  0.85846199  0.85846199  1
loop_
_geom_bond_atom_site_label_1
_geom_bond_atom_site_label_2
_geom_bond_distance
_geom_bond_site_symmetry_2
Gd0 Mg3 3.362565 1_555
Gd0 Mg0 3.362565 1_455
Gd0 Rh1 3.543003 1_455
Gd0 Rh2 3.543003 1_455
Gd0 Gd15 3.547430 1_455
Gd0 Gd12 3.547430 1_555
Gd0 Gd4 3.671898 1_555
Gd0 Gd2 3.671898 1_555
Gd0 Gd5 3.671898 1_555
Gd0 Gd1 3.671898 1_555
Gd0 Gd10 3.674839 1_455
Gd0 Gd7 3.674839 1_555
Gd0 Gd11 3.674839 1_455
Gd0 Gd8 3.674839 1_555
Gd1 Mg2 3.362565 1_554
Gd1 Mg0 3.362565 1_455
Gd1 Rh3 3.543003 1_454
Gd1 Rh1 3.543003 1_454
Gd1 Gd14 3.547430 1_455
Gd1 Gd12 3.547430 1_554
Gd1 Gd3 3.671898 1_555
Gd1 Gd2 3.671898 1_555
Gd1 Gd5 3.671898 1_555
Gd1 Gd11 3.674839 1_455
Gd1 Gd6 3.674839 1_554
Gd1 Gd9 3.674839 1_455
Gd1 Gd8 3.674839 1_554
Gd2 Mg1 3.362565 1_545
Gd2 Mg0 3.362565 1_455
Gd2 Rh3 3.543003 1_445
Gd2 Rh2 3.543003 1_445
Gd2 Gd4 3.671898 1_555
Gd2 Gd3 3.671898 1_555
Gd2 Gd6 3.674839 1_545
Gd2 Gd9 3.674839 1_455
Gd2 Gd7 3.674839 1_545
Gd3 Mg1 3.362565 1_545
Gd3 Mg2 3.362565 1_554
Gd3 Rh3 3.543003 1_544
Gd3 Rh0 3.543003 1_544
Gd3 Gd4 3.671898 1_555
Gd3 Gd5 3.671898 1_555
Gd3 Gd8 3.674839 1_554
Gd3 Gd7 3.674839 1_545
Gd4 Mg3 3.362565 1_555
Gd4 Mg1 3.362565 1_545
Gd4 Rh2 3.543003 1_545
Gd4 Rh0 3.543003 1_545
Gd4 Gd5 3.671898 1_555
Gd4 Gd6 3.674839 1_545
Gd4 Gd9 3.674839 1_555
Gd4 Gd8 3.674839 1_555
Gd5 Mg3 3.362565 1_555
Gd5 Mg2 3.362565 1_554
Gd5 Rh0 3.543003 1_554
Gd5 Rh1 3.543003 1_554
Gd5 Gd7 3.674839 1_555
Gd5 Gd6 3.674839 1_554
Gd5 Gd9 3.674839 1_555
Gd6 Rh0 2.851327 1_555
Gd6 Rh3 2.851327 1_455
Gd6 Mg1 3.577156 1_555
Gd6 Mg2 3.577156 1_555
Gd7 Rh0 2.851327 1_554
Gd7 Rh2 2.851327 1_455
Gd7 Mg1 3.577155 1_555
Gd7 Mg3 3.577156 1_555
Gd8 Rh0 2.851327 1_545
Gd8 Rh1 2.851327 1_455
Gd8 Mg2 3.577155 1_555
Gd8 Mg3 3.577156 1_555
Gd9 Rh1 2.851327 1_554
Gd9 Rh2 2.851327 1_545
Gd9 Mg0 3.577155 1_555
Gd9 Mg3 3.577156 1_555
Gd10 Rh1 2.851327 1_555
Gd10 Rh3 2.851327 1_545
Gd10 Mg0 3.577156 1_555
Gd10 Mg2 3.577156 1_555
Gd10 Gd3 3.674839 1_556
Gd10 Gd2 3.674839 1_655
Gd10 Gd5 3.674839 1_556
Gd11 Rh2 2.851327 1_555
Gd11 Rh3 2.851327 1_554
Gd11 Mg0 3.577156 1_555
Gd11 Mg1 3.577156 1_555
Gd11 Gd3 3.674839 1_565
Gd11 Gd4 3.674839 1_565
Gd12 Rh3 2.843157 1_455
Gd12 Rh1 2.843157 1_455
Gd12 Rh2 2.843157 1_455
Gd12 Gd2 3.547430 1_565
Gd12 Mg2 3.554746 1_555
Gd12 Mg1 3.554746 1_555
Gd12 Mg3 3.554746 1_555
Gd13 Rh3 2.843157 1_545
Gd13 Rh2 2.843157 1_545
Gd13 Rh0 2.843157 1_545
Gd13 Gd2 3.547430 1_655
Gd13 Gd3 3.547430 1_556
Gd13 Gd4 3.547430 1_555
Gd13 Mg2 3.554746 1_555
Gd13 Mg0 3.554746 1_555
Gd13 Mg3 3.554746 1_555
Gd14 Rh3 2.843157 1_554
Gd14 Rh1 2.843157 1_554
Gd14 Rh0 2.843157 1_554
Gd14 Gd3 3.547430 1_565
Gd14 Gd5 3.547430 1_555
Gd14 Mg0 3.554746 1_555
Gd14 Mg1 3.554746 1_555
Gd14 Mg3 3.554746 1_555
Gd15 Rh0 2.843157 1_555
Gd15 Rh1 2.843157 1_555
Gd15 Rh2 2.843157 1_555
Gd15 Gd4 3.547430 1_565
Gd15 Gd5 3.547430 1_556
Gd15 Mg0 3.554746 1_555
Gd15 Mg1 3.554746 1_555
Gd15 Mg2 3.554746 1_555
Mg0 Mg2 3.095878 1_555
Mg0 Mg3 3.095878 1_555
Mg0 Mg1 3.095878 1_555
Mg1 Mg2 3.095878 1_555
Mg1 Mg3 3.095878 1_555
Mg2 Mg3 3.095878 1_555
