# generated using pymatgen
data_CeZnPO
_symmetry_space_group_name_H-M   'P 1'
_cell_length_a   10.58526470
_cell_length_b   10.58526470
_cell_length_c   10.58526531
_cell_angle_alpha   21.70469489
_cell_angle_beta   21.70469489
_cell_angle_gamma   21.70469758
_symmetry_Int_Tables_number   1
_chemical_formula_structural   CeZnPO
_chemical_formula_sum   'Ce2 Zn2 P2 O2'
_cell_volume   142.16222279
_cell_formula_units_Z   2
loop_
 _symmetry_equiv_pos_site_id
 _symmetry_equiv_pos_as_xyz
  1  'x, y, z'
loop_
 _atom_site_type_symbol
 _atom_site_label
 _atom_site_symmetry_multiplicity
 _atom_site_fract_x
 _atom_site_fract_y
 _atom_site_fract_z
 _atom_site_occupancy
  Ce  Ce0  1  0.61896400  0.61896400  0.61896400  1
  Ce  Ce1  1  0.38103600  0.38103600  0.38103600  1
  Zn  Zn0  1  0.19609300  0.19609300  0.19609300  1
  Zn  Zn1  1  0.80390700  0.80390700  0.80390700  1
  P  P0  1  0.11369400  0.11369400  0.11369400  1
  P  P1  1  0.88630600  0.88630600  0.88630600  1
  O  O0  1  0.69501800  0.69501800  0.69501800  1
  O  O1  1  0.30498200  0.30498200  0.30498200  1
loop_
_geom_bond_atom_site_label_1
_geom_bond_atom_site_label_2
_geom_bond_distance
_geom_bond_site_symmetry_2
Ce0 O0 2.357388 1_555
Ce0 O1 2.378180 1_556
Ce0 O1 2.378180 1_655
Ce0 O1 2.378180 1_565
Ce0 P1 3.078954 1_455
Ce0 P1 3.078954 1_545
Ce0 P1 3.078955 1_554
Ce1 O1 2.357388 1_555
Ce1 O0 2.378180 1_554
Ce1 O0 2.378180 1_455
Ce1 O0 2.378180 1_545
Ce1 P0 3.078954 1_655
Ce1 P0 3.078954 1_565
Ce1 P0 3.078955 1_556
P0 Zn1 2.414257 1_445
P0 Zn1 2.414257 1_544
P0 Zn1 2.414257 1_454
P0 Zn0 2.554059 1_555
P1 Zn0 2.414257 1_665
P1 Zn0 2.414257 1_566
P1 Zn0 2.414257 1_656
P1 Zn1 2.554059 1_555
