# generated using pymatgen
data_AsPO5
_symmetry_space_group_name_H-M   'P 1'
_cell_length_a   4.54588337
_cell_length_b   8.21278296
_cell_length_c   8.43484632
_cell_angle_alpha   90.00000000
_cell_angle_beta   90.00000000
_cell_angle_gamma   90.00000000
_symmetry_Int_Tables_number   1
_chemical_formula_structural   AsPO5
_chemical_formula_sum   'As4 P4 O20'
_cell_volume   314.90953405
_cell_formula_units_Z   4
loop_
 _symmetry_equiv_pos_site_id
 _symmetry_equiv_pos_as_xyz
  1  'x, y, z'
loop_
 _atom_site_type_symbol
 _atom_site_label
 _atom_site_symmetry_multiplicity
 _atom_site_fract_x
 _atom_site_fract_y
 _atom_site_fract_z
 _atom_site_occupancy
  As  As0  1  0.62325088  0.34978649  0.59933789  1
  As  As1  1  0.12325088  0.15021351  0.40066211  1
  As  As2  1  0.37674912  0.84978649  0.90066211  1
  As  As3  1  0.87674912  0.65021351  0.09933789  1
  P  P0  1  0.61490726  0.96629234  0.21593300  1
  P  P1  1  0.11490726  0.53370766  0.78406700  1
  P  P2  1  0.38509274  0.46629234  0.28406700  1
  P  P3  1  0.88509274  0.03370766  0.71593300  1
  O  O0  1  0.04535329  0.50414709  0.96125251  1
  O  O1  1  0.54535329  0.99585291  0.03874749  1
  O  O2  1  0.95464671  0.00414709  0.53874749  1
  O  O3  1  0.45464671  0.49585291  0.46125251  1
  O  O4  1  0.21040404  0.71134526  0.75279470  1
  O  O5  1  0.71040404  0.78865474  0.24720530  1
  O  O6  1  0.78959596  0.21134526  0.74720530  1
  O  O7  1  0.28959596  0.28865474  0.25279470  1
  O  O8  1  0.90450173  0.31845703  0.45662187  1
  O  O9  1  0.40450173  0.18154297  0.54337813  1
  O  O10  1  0.09549827  0.81845703  0.04337813  1
  O  O11  1  0.59549827  0.68154297  0.95662187  1
  O  O12  1  0.15012717  0.59403537  0.25017082  1
  O  O13  1  0.65012717  0.90596463  0.74982918  1
  O  O14  1  0.84987283  0.09403537  0.24982918  1
  O  O15  1  0.34987283  0.40596463  0.75017082  1
  O  O16  1  0.65673260  0.48202993  0.17753155  1
  O  O17  1  0.15673260  0.01797007  0.82246845  1
  O  O18  1  0.34326740  0.98202993  0.32246845  1
  O  O19  1  0.84326740  0.51797007  0.67753155  1
loop_
_geom_bond_atom_site_label_1
_geom_bond_atom_site_label_2
_geom_bond_distance
_geom_bond_site_symmetry_2
As0 O9 1.766598 1_555
As0 O8 1.774812 1_555
As0 O19 1.828446 1_555
As0 O15 1.837365 1_555
As0 O3 1.839325 1_555
As0 O6 1.849368 1_555
As1 O8 1.766598 1_455
As1 O9 1.774812 1_555
As1 O18 1.828446 1_545
As1 O14 1.837365 1_455
As1 O2 1.839325 1_455
As1 O7 1.849368 1_555
As2 O11 1.766598 1_555
As2 O10 1.774812 1_556
As2 O17 1.828446 1_565
As2 O13 1.837365 1_555
As2 O1 1.839325 1_556
As2 O4 1.849368 1_555
As3 O10 1.766598 1_655
As3 O11 1.774812 1_554
As3 O16 1.828446 1_555
As3 O12 1.837365 1_655
As3 O0 1.839325 1_654
As3 O5 1.849368 1_555
O0 P1 1.546784 1_555
O1 P0 1.546784 1_555
O2 P3 1.546784 1_555
O3 P2 1.546784 1_555
O4 P1 1.544805 1_555
O5 P0 1.544805 1_555
O6 P3 1.544805 1_555
O7 P2 1.544805 1_555
O12 P2 1.524238 1_555
O13 P3 1.524238 1_565
O14 P0 1.524238 1_545
O15 P1 1.524238 1_555
O16 P2 1.532659 1_555
O17 P3 1.532659 1_455
O18 P0 1.532659 1_555
O19 P1 1.532659 1_655
