# generated using pymatgen
data_CaMnBi2
_symmetry_space_group_name_H-M   'P 1'
_cell_length_a   4.55050031
_cell_length_b   4.53840537
_cell_length_c   10.95203229
_cell_angle_alpha   89.97737589
_cell_angle_beta   90.01441644
_cell_angle_gamma   89.95985762
_symmetry_Int_Tables_number   1
_chemical_formula_structural   CaMnBi2
_chemical_formula_sum   'Ca2 Mn2 Bi4'
_cell_volume   226.18145561
_cell_formula_units_Z   2
loop_
 _symmetry_equiv_pos_site_id
 _symmetry_equiv_pos_as_xyz
  1  'x, y, z'
loop_
 _atom_site_type_symbol
 _atom_site_label
 _atom_site_symmetry_multiplicity
 _atom_site_fract_x
 _atom_site_fract_y
 _atom_site_fract_z
 _atom_site_occupancy
  Ca  Ca0  1  0.24979200  0.25005300  0.26076700  1
  Ca  Ca1  1  0.75059600  0.74999100  0.73896900  1
  Mn  Mn0  1  0.24998500  0.74979100  0.00026000  1
  Mn  Mn1  1  0.74958700  0.25015400  0.00005600  1
  Bi  Bi0  1  0.73289300  0.24965200  0.49938700  1
  Bi  Bi1  1  0.26763900  0.75040500  0.50025300  1
  Bi  Bi2  1  0.24977000  0.24989800  0.84391700  1
  Bi  Bi3  1  0.74973800  0.75005700  0.15639000  1
loop_
_geom_bond_atom_site_label_1
_geom_bond_atom_site_label_2
_geom_bond_distance
_geom_bond_site_symmetry_2
Ca0 Mn0 3.644016 1_555
Ca0 Mn0 3.646898 1_545
Ca0 Mn1 3.650837 1_555
Ca0 Mn1 3.651104 1_455
Ca1 Mn1 3.649274 1_556
Ca1 Mn1 3.651594 1_566
Ca1 Mn0 3.653763 1_656
Ca1 Mn0 3.658121 1_556
Mn0 Mn1 3.209847 1_555
Mn0 Mn1 3.214424 1_565
Mn0 Mn1 3.214663 1_455
Mn0 Mn1 3.214735 1_465
Bi0 Bi1 3.102074 1_545
Bi0 Bi1 3.104908 1_555
Bi0 Bi1 3.323758 1_645
Bi0 Bi1 3.330750 1_655
Bi0 Ca0 3.414612 1_555
Bi0 Ca1 3.468232 1_545
Bi0 Ca1 3.471673 1_555
Bi0 Ca0 3.516451 1_655
Bi1 Ca1 3.414995 1_555
Bi1 Ca0 3.467413 1_565
Bi1 Ca0 3.470932 1_555
Bi1 Ca1 3.517671 1_455
Bi2 Mn0 2.842586 1_546
Bi2 Mn0 2.842891 1_556
Bi2 Mn1 2.845217 1_556
Bi2 Mn1 2.847235 1_456
Bi2 Ca1 3.409014 1_455
Bi2 Ca1 3.411175 1_445
Bi2 Ca1 3.414452 1_545
Bi2 Ca1 3.416532 1_555
Bi3 Mn1 2.842490 1_565
Bi3 Mn1 2.842868 1_555
Bi3 Mn0 2.844925 1_555
Bi3 Mn0 2.847408 1_655
Bi3 Ca0 3.409314 1_655
Bi3 Ca0 3.409947 1_565
Bi3 Ca0 3.411491 1_555
Bi3 Ca0 3.412012 1_665
