# generated using pymatgen
data_La4Fe3NiO12
_symmetry_space_group_name_H-M   'P 1'
_cell_length_a   5.58905600
_cell_length_b   5.59873545
_cell_length_c   7.94470838
_cell_angle_alpha   90.10107499
_cell_angle_beta   90.00310829
_cell_angle_gamma   90.10529460
_symmetry_Int_Tables_number   1
_chemical_formula_structural   La4Fe3NiO12
_chemical_formula_sum   'La4 Fe3 Ni1 O12'
_cell_volume   248.60219487
_cell_formula_units_Z   1
loop_
 _symmetry_equiv_pos_site_id
 _symmetry_equiv_pos_as_xyz
  1  'x, y, z'
loop_
 _atom_site_type_symbol
 _atom_site_label
 _atom_site_symmetry_multiplicity
 _atom_site_fract_x
 _atom_site_fract_y
 _atom_site_fract_z
 _atom_site_occupancy
  La  La0  1  0.49561500  0.46950100  0.24729500  1
  La  La1  1  0.00949400  0.96602600  0.24716700  1
  La  La2  1  0.50438500  0.53049900  0.75270500  1
  La  La3  1  0.99050600  0.03397400  0.75283300  1
  Fe  Fe0  1  0.50000000  0.00000000  0.50000000  1
  Fe  Fe1  1  0.00000000  0.50000000  0.50000000  1
  Fe  Fe2  1  0.50000000  0.00000000  0.00000000  1
  Ni  Ni0  1  0.00000000  0.50000000  0.00000000  1
  O  O0  1  0.58037700  0.01384500  0.25228700  1
  O  O1  1  0.92483800  0.51433000  0.25369900  1
  O  O2  1  0.41962300  0.98615500  0.74771300  1
  O  O3  1  0.07516200  0.48567000  0.74630100  1
  O  O4  1  0.21914700  0.20940800  0.03942200  1
  O  O5  1  0.28337000  0.71573300  0.45634100  1
  O  O6  1  0.78257200  0.78330500  0.54428200  1
  O  O7  1  0.70825000  0.28326200  0.96093900  1
  O  O8  1  0.78085300  0.79059200  0.96057800  1
  O  O9  1  0.71663000  0.28426700  0.54365900  1
  O  O10  1  0.21742800  0.21669500  0.45571800  1
  O  O11  1  0.29175000  0.71673800  0.03906100  1
loop_
_geom_bond_atom_site_label_1
_geom_bond_atom_site_label_2
_geom_bond_distance
_geom_bond_site_symmetry_2
La0 O1 2.412111 1_555
La0 O11 2.442311 1_555
La0 O5 2.462545 1_555
La0 O0 2.595939 1_555
La0 O10 2.676394 1_555
La0 O4 2.686729 1_555
La0 O7 2.769795 1_554
La0 O9 2.856257 1_555
La1 O0 2.414082 1_465
La1 O4 2.440518 1_565
La1 O10 2.459888 1_565
La1 O1 2.572566 1_455
La1 O5 2.661629 1_555
La1 O11 2.677759 1_555
La1 O8 2.787298 1_454
La1 O6 2.868985 1_455
La2 O3 2.412111 1_555
La2 O7 2.442311 1_555
La2 O9 2.462545 1_555
La2 O2 2.595939 1_555
La2 O6 2.676394 1_555
La2 O8 2.686729 1_555
La2 O11 2.769795 1_556
La2 O5 2.856257 1_555
La3 O2 2.414082 1_645
La3 O8 2.440518 1_545
La3 O6 2.459888 1_545
La3 O3 2.572566 1_655
La3 O9 2.661629 1_555
La3 O7 2.677759 1_555
La3 O4 2.787298 1_656
La3 O10 2.868985 1_655
Fe0 O0 2.020242 1_555
Fe0 O2 2.020242 1_545
Fe0 O6 2.024445 1_545
Fe0 O10 2.024445 1_555
Fe0 O9 2.027351 1_555
Fe0 O5 2.027351 1_545
Fe1 O3 2.003128 1_555
Fe1 O1 2.003128 1_455
Fe1 O5 2.020397 1_555
Fe1 O9 2.020397 1_455
Fe1 O6 2.030161 1_455
Fe1 O10 2.030161 1_555
Fe2 O4 1.985485 1_555
Fe2 O8 1.985485 1_544
Fe2 O7 1.990255 1_554
Fe2 O11 1.990255 1_545
Fe2 O0 2.055346 1_555
Fe2 O2 2.055346 1_544
Ni0 O7 2.054023 1_454
Ni0 O11 2.054023 1_555
Ni0 O3 2.060353 1_554
Ni0 O1 2.060353 1_455
Ni0 O4 2.062602 1_555
Ni0 O8 2.062602 1_454
