# generated using pymatgen
data_Sr4NdMn5O15
_symmetry_space_group_name_H-M   'P 1'
_cell_length_a   8.68793003
_cell_length_b   8.68793003
_cell_length_c   6.71408750
_cell_angle_alpha   74.94544015
_cell_angle_beta   74.94544015
_cell_angle_gamma   36.80043443
_symmetry_Int_Tables_number   1
_chemical_formula_structural   Sr4NdMn5O15
_chemical_formula_sum   'Sr4 Nd1 Mn5 O15'
_cell_volume   291.98145185
_cell_formula_units_Z   1
loop_
 _symmetry_equiv_pos_site_id
 _symmetry_equiv_pos_as_xyz
  1  'x, y, z'
loop_
 _atom_site_type_symbol
 _atom_site_label
 _atom_site_symmetry_multiplicity
 _atom_site_fract_x
 _atom_site_fract_y
 _atom_site_fract_z
 _atom_site_occupancy
  Sr  Sr0  1  0.89945400  0.89945400  0.89962500  1
  Sr  Sr1  1  0.30022400  0.30022400  0.29946100  1
  Sr  Sr2  1  0.69977600  0.69977600  0.70053900  1
  Sr  Sr3  1  0.10054600  0.10054600  0.10037500  1
  Nd  Nd0  1  0.50000000  0.50000000  0.50000000  1
  Mn  Mn0  1  0.50000000  0.50000000  0.00000000  1
  Mn  Mn1  1  0.70037600  0.70037600  0.19906100  1
  Mn  Mn2  1  0.10060500  0.10060500  0.59973600  1
  Mn  Mn3  1  0.89939500  0.89939500  0.40026400  1
  Mn  Mn4  1  0.29962400  0.29962400  0.80093900  1
  O  O0  1  0.20744900  0.69540000  0.20737400  1
  O  O1  1  0.40073100  0.88793500  0.40188300  1
  O  O2  1  0.79255100  0.30460000  0.79262600  1
  O  O3  1  0.59926900  0.11206500  0.59811700  1
  O  O4  1  0.00000000  0.50000000  0.00000000  1
  O  O5  1  0.20104400  0.20104400  0.69549400  1
  O  O6  1  0.40257400  0.40257400  0.89178400  1
  O  O7  1  0.79895600  0.79895600  0.30450600  1
  O  O8  1  0.59742600  0.59742600  0.10821600  1
  O  O9  1  0.00000000  0.00000000  0.50000000  1
  O  O10  1  0.30460000  0.79255100  0.79262600  1
  O  O11  1  0.50000000  0.00000000  0.00000000  1
  O  O12  1  0.88793500  0.40073100  0.40188300  1
  O  O13  1  0.69540000  0.20744900  0.20737400  1
  O  O14  1  0.11206500  0.59926900  0.59811700  1
loop_
_geom_bond_atom_site_label_1
_geom_bond_atom_site_label_2
_geom_bond_distance
_geom_bond_site_symmetry_2
Nd0 O3 2.650247 1_555
Nd0 O14 2.650247 1_555
Nd0 O12 2.650247 1_555
Nd0 O1 2.650247 1_555
Nd0 O10 2.674623 1_555
Nd0 O2 2.674623 1_555
Nd0 O13 2.674623 1_555
Nd0 O0 2.674623 1_555
Nd0 O6 2.680742 1_555
Nd0 O8 2.680742 1_555
Nd0 O9 2.742368 1_655
Nd0 O9 2.742368 1_565
Mn0 O8 1.935742 1_555
Mn0 O6 1.935742 1_554
Mn0 O10 1.939108 1_554
Mn0 O2 1.939108 1_554
Mn0 O0 1.939108 1_555
Mn0 O13 1.939108 1_555
Mn1 O4 1.933176 1_655
Mn1 O11 1.933176 1_565
Mn1 O7 1.942397 1_555
Mn1 O1 1.950506 1_555
Mn1 O12 1.950506 1_555
Mn1 O8 1.954471 1_555
Mn2 O1 1.933321 1_545
Mn2 O12 1.933321 1_455
Mn2 O5 1.933529 1_555
Mn2 O10 1.943387 1_545
Mn2 O2 1.943387 1_455
Mn2 O9 1.951379 1_555
Mn3 O14 1.933321 1_655
Mn3 O3 1.933321 1_565
Mn3 O7 1.933529 1_555
Mn3 O13 1.943387 1_565
Mn3 O0 1.943387 1_655
Mn3 O9 1.951379 1_665
Mn4 O4 1.933176 1_556
Mn4 O11 1.933176 1_556
Mn4 O5 1.942397 1_555
Mn4 O3 1.950506 1_555
Mn4 O14 1.950506 1_555
Mn4 O6 1.954471 1_555
O0 Sr1 2.746584 1_555
O0 Sr3 2.750617 1_565
O0 Sr0 2.818646 1_454
O1 Sr3 2.719725 1_565
O1 Sr2 2.764976 1_555
O1 Sr1 2.844129 1_565
O2 Sr2 2.746584 1_555
O2 Sr0 2.750617 1_545
O2 Sr3 2.818646 1_656
O3 Sr0 2.719725 1_545
O3 Sr1 2.764976 1_555
O3 Sr2 2.844129 1_545
O4 Sr3 2.738082 1_555
O4 Sr0 2.738082 1_454
O4 Sr1 2.742239 1_555
O4 Sr2 2.742239 1_454
O5 Sr1 2.713639 1_555
O5 Sr2 2.742586 1_455
O5 Sr2 2.742586 1_545
O5 Sr3 2.769351 1_556
O6 Sr0 2.743085 1_455
O6 Sr0 2.743085 1_545
O6 Sr1 2.794827 1_556
O7 Sr2 2.713639 1_555
O7 Sr1 2.742586 1_655
O7 Sr1 2.742586 1_565
O7 Sr0 2.769351 1_554
O8 Sr3 2.743085 1_655
O8 Sr3 2.743085 1_565
O8 Sr2 2.794827 1_554
O9 Sr3 2.740832 1_555
O9 Sr0 2.740832 1_445
O10 Sr2 2.746584 1_555
O10 Sr0 2.750617 1_455
O10 Sr3 2.818646 1_566
O11 Sr0 2.738082 1_544
O11 Sr3 2.738082 1_555
O11 Sr1 2.742239 1_555
O11 Sr2 2.742239 1_544
O12 Sr3 2.719725 1_655
O12 Sr2 2.764976 1_555
O12 Sr1 2.844129 1_655
O13 Sr1 2.746584 1_555
O13 Sr3 2.750617 1_655
O13 Sr0 2.818646 1_544
O14 Sr0 2.719725 1_455
O14 Sr1 2.764976 1_555
O14 Sr2 2.844129 1_455
