# generated using pymatgen
data_TaCr3(CuS4)2
_symmetry_space_group_name_H-M   'P 1'
_cell_length_a   11.52036253
_cell_length_b   7.08720827
_cell_length_c   11.83143900
_cell_angle_alpha   90.00000000
_cell_angle_beta   90.00000000
_cell_angle_gamma   94.96652678
_symmetry_Int_Tables_number   1
_chemical_formula_structural   TaCr3(CuS4)2
_chemical_formula_sum   'Ta4 Cr12 Cu8 S32'
_cell_volume   962.37705435
_cell_formula_units_Z   4
loop_
 _symmetry_equiv_pos_site_id
 _symmetry_equiv_pos_as_xyz
  1  'x, y, z'
loop_
 _atom_site_type_symbol
 _atom_site_label
 _atom_site_symmetry_multiplicity
 _atom_site_fract_x
 _atom_site_fract_y
 _atom_site_fract_z
 _atom_site_occupancy
  Ta  Ta0  1  0.08931300  0.81913200  0.68004600  1
  Ta  Ta1  1  0.91068700  0.18086800  0.18004600  1
  Ta  Ta2  1  0.38174800  0.34030700  0.82868300  1
  Ta  Ta3  1  0.61825200  0.65969300  0.32868300  1
  Cr  Cr0  1  0.37645700  0.91861800  0.19584100  1
  Cr  Cr1  1  0.62354300  0.08138200  0.69584100  1
  Cr  Cr2  1  0.12136200  0.40951800  0.32540800  1
  Cr  Cr3  1  0.87863800  0.59048200  0.82540800  1
  Cr  Cr4  1  0.16298000  0.55576700  0.95782300  1
  Cr  Cr5  1  0.83702000  0.44423300  0.45782300  1
  Cr  Cr6  1  0.34990900  0.65265600  0.45966900  1
  Cr  Cr7  1  0.65009100  0.34734500  0.95966900  1
  Cr  Cr8  1  0.14462500  0.07217000  0.96576100  1
  Cr  Cr9  1  0.85537500  0.92783000  0.46576100  1
  Cr  Cr10  1  0.34705200  0.16023200  0.46694300  1
  Cr  Cr11  1  0.65294800  0.83976800  0.96694300  1
  Cu  Cu0  1  0.11875200  0.38438100  0.68255300  1
  Cu  Cu1  1  0.88124800  0.61561900  0.18255300  1
  Cu  Cu2  1  0.43594100  0.44207900  0.18631800  1
  Cu  Cu3  1  0.56405900  0.55792100  0.68631800  1
  Cu  Cu4  1  0.14492300  0.83950100  0.33463900  1
  Cu  Cu5  1  0.85507700  0.16049900  0.83463900  1
  Cu  Cu6  1  0.36992000  0.88896700  0.82895100  1
  Cu  Cu7  1  0.63008000  0.11103300  0.32895100  1
  S  S0  1  0.04015000  0.79003100  0.88359200  1
  S  S1  1  0.95985000  0.20996900  0.38359200  1
  S  S2  1  0.46685700  0.90907200  0.38267100  1
  S  S3  1  0.53314300  0.09092800  0.88267100  1
  S  S4  1  0.04061500  0.44427500  0.13228700  1
  S  S5  1  0.95938500  0.55572500  0.63228700  1
  S  S6  1  0.46543300  0.27365800  0.64060400  1
  S  S7  1  0.53456700  0.72634200  0.14060400  1
  S  S8  1  0.02965700  0.32600300  0.86438800  1
  S  S9  1  0.97034300  0.67399700  0.36438800  1
  S  S10  1  0.47286900  0.42307200  0.39074900  1
  S  S11  1  0.52713100  0.57692800  0.89074900  1
  S  S12  1  0.03127300  0.95923100  0.13299000  1
  S  S13  1  0.96872700  0.04076900  0.63299000  1
  S  S14  1  0.48272900  0.83246500  0.66070400  1
  S  S15  1  0.51727100  0.16753500  0.16070400  1
  S  S16  1  0.22538400  0.88016600  0.52757000  1
  S  S17  1  0.77461600  0.11983400  0.02757000  1
  S  S18  1  0.28224400  0.84458900  0.01532100  1
  S  S19  1  0.71775600  0.15541100  0.51532100  1
  S  S20  1  0.21389200  0.38892800  0.50879100  1
  S  S21  1  0.78610800  0.61107200  0.00879100  1
  S  S22  1  0.28881100  0.32194900  0.01709900  1
  S  S23  1  0.71118900  0.67805100  0.51709900  1
  S  S24  1  0.22643600  0.08855300  0.77998300  1
  S  S25  1  0.77356400  0.91144700  0.27998300  1
  S  S26  1  0.24126800  0.12445900  0.29496300  1
  S  S27  1  0.75873200  0.87554100  0.79496300  1
  S  S28  1  0.26104700  0.59044100  0.77713000  1
  S  S29  1  0.73895300  0.40955900  0.27713000  1
  S  S30  1  0.27536900  0.62241900  0.27252500  1
  S  S31  1  0.72463100  0.37758100  0.77252500  1
loop_
_geom_bond_atom_site_label_1
_geom_bond_atom_site_label_2
_geom_bond_distance
_geom_bond_site_symmetry_2
Cr0 S15 2.328320 1_565
Cr0 S18 2.432361 1_555
Cr0 S2 2.446946 1_555
Cr0 S7 2.455939 1_555
Cr0 S30 2.482506 1_555
Cr0 S26 2.514466 1_565
Cr1 S14 2.328320 1_545
Cr1 S19 2.432361 1_555
Cr1 S3 2.446946 1_555
Cr1 S6 2.455939 1_555
Cr1 S31 2.482506 1_555
Cr1 S27 2.514466 1_545
Cr2 S30 2.313546 1_555
Cr2 S1 2.341041 1_455
Cr2 S20 2.427359 1_555
Cr2 S4 2.487259 1_555
Cr2 S26 2.569555 1_555
Cr2 S9 2.705119 1_455
Cr3 S31 2.313546 1_555
Cr3 S0 2.341041 1_655
Cr3 S21 2.427359 1_556
Cr3 S5 2.487259 1_555
Cr3 S27 2.569555 1_555
Cr3 S8 2.705119 1_655
Cr4 S22 2.399003 1_556
Cr4 S8 2.408262 1_555
Cr4 S28 2.420564 1_555
Cr4 S0 2.436597 1_555
Cr4 S18 2.460401 1_556
Cr4 S4 2.584469 1_556
Cr5 S23 2.399003 1_555
Cr5 S9 2.408262 1_555
Cr5 S29 2.420564 1_555
Cr5 S1 2.436597 1_555
Cr5 S19 2.460401 1_555
Cr5 S5 2.584469 1_555
Cr6 S2 2.350243 1_555
Cr6 S30 2.377831 1_555
Cr6 S16 2.388258 1_555
Cr6 S10 2.391251 1_555
Cr6 S20 2.404071 1_555
Cr6 S14 3.047140 1_555
Cr7 S3 2.350248 1_555
Cr7 S31 2.377830 1_555
Cr7 S17 2.388263 1_556
Cr7 S11 2.391245 1_555
Cr7 S21 2.404066 1_556
Cr7 S15 3.047143 1_556
Cr8 S24 2.390423 1_555
Cr8 S22 2.398479 1_556
Cr8 S18 2.429329 1_546
Cr8 S0 2.444455 1_545
Cr8 S12 2.465696 1_546
Cr8 S8 2.615645 1_555
Cr9 S25 2.390423 1_555
Cr9 S23 2.398479 1_555
Cr9 S19 2.429329 1_565
Cr9 S1 2.444455 1_565
Cr9 S13 2.465696 1_565
Cr9 S9 2.615645 1_555
Cr10 S26 2.374074 1_555
Cr10 S20 2.378239 1_555
Cr10 S10 2.432309 1_555
Cr10 S16 2.436643 1_545
Cr10 S2 2.548125 1_545
Cr10 S6 2.556940 1_555
Cr11 S27 2.374074 1_555
Cr11 S21 2.378239 1_556
Cr11 S11 2.432309 1_555
Cr11 S17 2.436643 1_566
Cr11 S3 2.548125 1_565
Cr11 S7 2.556940 1_556
Cu0 S20 2.328686 1_555
Cu0 S5 2.363290 1_455
Cu0 S28 2.378574 1_555
Cu0 S8 2.404070 1_555
Cu0 S24 2.777381 1_555
Cu0 S13 2.921080 1_455
Cu1 S21 2.328686 1_555
Cu1 S4 2.363290 1_655
Cu1 S29 2.378574 1_555
Cu1 S9 2.404070 1_555
Cu1 S25 2.777381 1_555
Cu1 S12 2.921080 1_655
Cu2 S15 2.251960 1_555
Cu2 S7 2.290392 1_555
Cu2 S10 2.461550 1_555
Cu2 S30 2.550524 1_555
Cu2 S22 2.712270 1_555
Cu3 S14 2.251960 1_555
Cu3 S6 2.290392 1_555
Cu3 S11 2.461550 1_555
Cu3 S31 2.550524 1_555
Cu3 S23 2.712270 1_555
Cu4 S9 2.266336 1_455
Cu4 S26 2.267772 1_565
Cu4 S30 2.359187 1_555
Cu4 S16 2.471137 1_555
Cu4 S12 2.884211 1_555
Cu5 S8 2.266336 1_655
Cu5 S27 2.267772 1_545
Cu5 S31 2.359187 1_555
Cu5 S17 2.471137 1_556
Cu5 S13 2.884211 1_555
Cu6 S24 2.339596 1_565
Cu6 S3 2.350008 1_565
Cu6 S14 2.429388 1_555
Cu6 S18 2.434393 1_556
Cu6 S28 2.442510 1_555
Cu7 S25 2.339596 1_545
Cu7 S2 2.350008 1_545
Cu7 S15 2.429388 1_555
Cu7 S19 2.434393 1_555
Cu7 S29 2.442510 1_555
S0 Ta0 2.478452 1_555
S1 Ta1 2.478452 1_555
S2 Ta3 2.665976 1_555
S3 Ta2 2.665976 1_555
S4 Ta1 2.358166 1_455
S5 Ta0 2.358166 1_655
S6 Ta2 2.486592 1_555
S7 Ta3 2.486592 1_555
S10 Ta3 2.381252 1_555
S11 Ta2 2.381252 1_555
S12 Ta1 2.255000 1_465
S13 Ta0 2.255000 1_645
S16 Ta0 2.404472 1_555
S17 Ta1 2.404472 1_555
S22 Ta2 2.471561 1_554
S23 Ta3 2.471561 1_555
S24 Ta2 2.482768 1_555
S24 Ta0 2.649007 1_545
S25 Ta3 2.482768 1_555
S25 Ta1 2.649007 1_565
S28 Ta2 2.423849 1_555
S28 Ta0 2.900990 1_555
S29 Ta3 2.423849 1_555
S29 Ta1 2.900990 1_555
