# generated using pymatgen
data_Li4Fe3CoO8
_symmetry_space_group_name_H-M   'P 1'
_cell_length_a   5.96757482
_cell_length_b   5.98959100
_cell_length_c   8.33934380
_cell_angle_alpha   89.54837959
_cell_angle_beta   89.98298370
_cell_angle_gamma   89.91293652
_symmetry_Int_Tables_number   1
_chemical_formula_structural   Li4Fe3CoO8
_chemical_formula_sum   'Li8 Fe6 Co2 O16'
_cell_volume   298.06632160
_cell_formula_units_Z   2
loop_
 _symmetry_equiv_pos_site_id
 _symmetry_equiv_pos_as_xyz
  1  'x, y, z'
loop_
 _atom_site_type_symbol
 _atom_site_label
 _atom_site_symmetry_multiplicity
 _atom_site_fract_x
 _atom_site_fract_y
 _atom_site_fract_z
 _atom_site_occupancy
  Li  Li0  1  0.99989900  0.00038600  0.49950900  1
  Li  Li1  1  0.49997900  0.50043900  0.00039800  1
  Li  Li2  1  0.24785100  0.75201500  0.75040300  1
  Li  Li3  1  0.75117000  0.24841100  0.24949500  1
  Li  Li4  1  0.99983800  0.50032700  0.00020900  1
  Li  Li5  1  0.49996500  0.00065100  0.49997800  1
  Li  Li6  1  0.25059000  0.25065300  0.24861100  1
  Li  Li7  1  0.74997400  0.74946900  0.75127300  1
  Fe  Fe0  1  0.75076400  0.24953600  0.75138300  1
  Fe  Fe1  1  0.50035000  0.99915700  0.00006100  1
  Fe  Fe2  1  0.24949300  0.25016100  0.75173900  1
  Fe  Fe3  1  0.24934200  0.75028700  0.24918300  1
  Fe  Fe4  1  0.00024700  0.49941500  0.49948200  1
  Fe  Fe5  1  0.75038400  0.74985700  0.24925600  1
  Co  Co0  1  0.00008400  0.99997100  0.00041100  1
  Co  Co1  1  0.50002900  0.50090100  0.50032800  1
  O  O0  1  0.00039900  0.51466500  0.25443800  1
  O  O1  1  0.50048600  0.01612400  0.75542900  1
  O  O2  1  0.49927300  0.98439300  0.24384900  1
  O  O3  1  0.99960900  0.48403600  0.74497000  1
  O  O4  1  0.24632200  0.26209700  0.50788500  1
  O  O5  1  0.74721400  0.76290300  0.00630900  1
  O  O6  1  0.00047200  0.01181900  0.76846800  1
  O  O7  1  0.50032500  0.51189600  0.26300900  1
  O  O8  1  0.25259200  0.76344800  0.00626200  1
  O  O9  1  0.75415500  0.26235900  0.50734200  1
  O  O10  1  0.25177000  0.23621200  0.99353800  1
  O  O11  1  0.75388100  0.73903800  0.49286900  1
  O  O12  1  0.49974400  0.48773300  0.73494300  1
  O  O13  1  0.99932800  0.98722900  0.23225600  1
  O  O14  1  0.24579900  0.73868400  0.49326700  1
  O  O15  1  0.74867100  0.23572700  0.99344100  1
loop_
_geom_bond_atom_site_label_1
_geom_bond_atom_site_label_2
_geom_bond_distance
_geom_bond_site_symmetry_2
Li0 O14 2.146467 1_645
Li0 O9 2.147452 1_555
Li0 O11 2.148779 1_545
Li0 O4 2.152526 1_655
Li0 O13 2.230732 1_545
Li0 O6 2.244530 1_655
Li1 O8 2.158143 1_555
Li1 O5 2.158443 1_555
Li1 O10 2.170370 1_554
Li1 O15 2.171173 1_554
Li1 O7 2.191621 1_555
Li1 O12 2.215629 1_554
Li2 O8 2.135531 1_556
Li2 O14 2.146500 1_555
Li2 O6 2.149444 1_565
Li2 O12 2.185813 1_555
Li2 O3 2.186622 1_455
Li2 O1 2.187561 1_565
Li3 O15 2.137329 1_554
Li3 O9 2.152635 1_555
Li3 O13 2.158096 1_545
Li3 O7 2.177075 1_555
Li3 O0 2.182947 1_655
Li3 O2 2.184264 1_545
Li4 O0 2.122522 1_655
Li4 O3 2.131530 1_554
Li4 O5 2.177790 1_555
Li4 O10 2.181748 1_654
Li4 O8 2.184001 1_655
Li4 O15 2.184073 1_554
Li5 O1 2.133042 1_555
Li5 O2 2.138939 1_545
Li5 O4 2.177616 1_555
Li5 O11 2.179238 1_545
Li5 O9 2.184189 1_555
Li5 O14 2.185027 1_545
Li6 O10 2.129590 1_554
Li6 O4 2.163942 1_555
Li6 O7 2.166566 1_555
Li6 O0 2.173957 1_555
Li6 O2 2.177397 1_545
Li6 O13 2.183355 1_445
Li7 O5 2.129046 1_556
Li7 O11 2.156436 1_555
Li7 O12 2.171784 1_555
Li7 O6 2.176053 1_665
Li7 O3 2.177995 1_555
Li7 O1 2.182283 1_565
Fe0 O15 2.019683 1_555
Fe0 O9 2.036081 1_555
Fe0 O3 2.045967 1_555
Fe0 O1 2.047421 1_555
Fe0 O6 2.063641 1_655
Fe0 O12 2.070934 1_555
Fe1 O2 2.034266 1_555
Fe1 O5 2.041551 1_555
Fe1 O1 2.041800 1_564
Fe1 O8 2.046218 1_555
Fe1 O15 2.052283 1_564
Fe1 O10 2.052299 1_564
Fe2 O10 2.017566 1_555
Fe2 O4 2.034368 1_555
Fe2 O3 2.044898 1_455
Fe2 O1 2.049971 1_555
Fe2 O6 2.066145 1_555
Fe2 O12 2.068294 1_555
Fe3 O8 2.026802 1_555
Fe3 O14 2.036244 1_555
Fe3 O2 2.048900 1_555
Fe3 O0 2.050842 1_555
Fe3 O13 2.061684 1_455
Fe3 O7 2.070358 1_555
Fe4 O4 2.043025 1_555
Fe4 O0 2.044827 1_555
Fe4 O9 2.044955 1_455
Fe4 O3 2.048557 1_455
Fe4 O14 2.051571 1_555
Fe4 O11 2.053500 1_455
Fe5 O5 2.027002 1_555
Fe5 O11 2.032208 1_555
Fe5 O0 2.050614 1_655
Fe5 O2 2.052716 1_555
Fe5 O13 2.061942 1_555
Fe5 O7 2.067652 1_555
Co0 O13 1.934344 1_455
Co0 O6 1.934996 1_564
Co0 O15 2.059284 1_464
Co0 O10 2.065544 1_564
Co0 O8 2.066990 1_555
Co0 O5 2.073924 1_455
Co1 O12 1.957503 1_555
Co1 O7 1.979662 1_555
Co1 O14 2.079843 1_555
Co1 O9 2.082492 1_555
Co1 O11 2.082859 1_555
Co1 O4 2.084991 1_555
