# generated using pymatgen
data_La12Si4SnS28
_symmetry_space_group_name_H-M   'P 1'
_cell_length_a   10.41254800
_cell_length_b   11.63032010
_cell_length_c   11.92199569
_cell_angle_alpha   119.19528027
_cell_angle_beta   115.88277683
_cell_angle_gamma   89.99249707
_symmetry_Int_Tables_number   1
_chemical_formula_structural   La12Si4SnS28
_chemical_formula_sum   'La12 Si4 Sn1 S28'
_cell_volume   1091.51137721
_cell_formula_units_Z   1
loop_
 _symmetry_equiv_pos_site_id
 _symmetry_equiv_pos_as_xyz
  1  'x, y, z'
loop_
 _atom_site_type_symbol
 _atom_site_label
 _atom_site_symmetry_multiplicity
 _atom_site_fract_x
 _atom_site_fract_y
 _atom_site_fract_z
 _atom_site_occupancy
  La  La0  1  0.63399900  0.05439200  0.87417900  1
  La  La1  1  0.65333000  0.57200800  0.88125400  1
  La  La2  1  0.22721200  0.80445800  0.34622400  1
  La  La3  1  0.24127300  0.30057300  0.36690500  1
  La  La4  1  0.12446200  0.99637700  0.75810800  1
  La  La5  1  0.11962300  0.51789100  0.77316200  1
  La  La6  1  0.34606500  0.92592400  0.11855700  1
  La  La7  1  0.36670300  0.44598300  0.12649600  1
  La  La8  1  0.76017600  0.19881100  0.63252300  1
  La  La9  1  0.77243800  0.69411900  0.65469300  1
  La  La10  1  0.88163800  0.98050300  0.22762300  1
  La  La11  1  0.87323100  0.50260600  0.23984400  1
  Si  Si0  1  0.66701200  0.33534600  0.33439300  1
  Si  Si1  1  0.66637600  0.83529800  0.33233000  1
  Si  Si2  1  0.33451100  0.75025500  0.66658000  1
  Si  Si3  1  0.33211600  0.25091100  0.66678700  1
  Sn  Sn0  1  0.00006500  0.24160900  0.00003100  1
  S  S0  1  0.66825400  0.65512000  0.33694400  1
  S  S1  1  0.66499200  0.15144400  0.32973800  1
  S  S2  1  0.33340400  0.56923600  0.66708900  1
  S  S3  1  0.33318300  0.06873800  0.66632600  1
  S  S4  1  0.74320000  0.82639600  0.91330200  1
  S  S5  1  0.75692700  0.31586700  0.91558300  1
  S  S6  1  0.15855700  0.47948200  0.24303600  1
  S  S7  1  0.17042500  0.99825800  0.25694800  1
  S  S8  1  0.08637900  0.78445300  0.82957500  1
  S  S9  1  0.08453000  0.27881900  0.84145100  1
  S  S10  1  0.24331700  0.16629000  0.08089100  1
  S  S11  1  0.25699700  0.65978200  0.08780400  1
  S  S12  1  0.83047600  0.48762800  0.74275300  1
  S  S13  1  0.83766400  0.00405500  0.75659200  1
  S  S14  1  0.91900300  0.20720600  0.16250600  1
  S  S15  1  0.91229900  0.70062900  0.16938400  1
  S  S16  1  0.47211900  0.78253400  0.58710100  1
  S  S17  1  0.47979200  0.28658700  0.59777200  1
  S  S18  1  0.11829000  0.74795100  0.52019200  1
  S  S19  1  0.11463800  0.25273300  0.52781500  1
  S  S20  1  0.40611900  0.93029300  0.88432300  1
  S  S21  1  0.40915900  0.42995900  0.88317200  1
  S  S22  1  0.52328100  0.44299700  0.40686000  1
  S  S23  1  0.52592400  0.94350900  0.41006400  1
  S  S24  1  0.88419700  0.47620100  0.47420600  1
  S  S25  1  0.88354500  0.97727400  0.47653500  1
  S  S26  1  0.59178800  0.29632500  0.11610300  1
  S  S27  1  0.59131200  0.79817000  0.11624800  1
loop_
_geom_bond_atom_site_label_1
_geom_bond_atom_site_label_2
_geom_bond_distance
_geom_bond_site_symmetry_2
La0 S20 2.854772 1_545
La0 S13 2.932538 1_555
La0 S14 2.986074 1_556
La0 S16 2.993256 1_545
La0 S5 3.019089 1_555
La0 S4 3.047059 1_545
La0 S3 3.099381 1_555
La0 S26 3.101337 1_556
La1 S12 2.858264 1_555
La1 S15 2.865274 1_556
La1 S4 2.891508 1_555
La1 S21 3.046736 1_555
La1 S17 3.071079 1_555
La1 S27 3.094277 1_556
La1 S2 3.179820 1_555
La1 S5 3.317939 1_555
La2 S15 2.852530 1_455
La2 S11 2.862860 1_555
La2 S7 2.890221 1_555
La2 S16 3.022494 1_555
La2 S18 3.066518 1_555
La2 S23 3.098816 1_555
La2 S3 3.179595 1_565
La2 S6 3.317596 1_555
La3 S17 2.870353 1_555
La3 S14 2.942448 1_455
La3 S10 2.989100 1_555
La3 S19 2.996389 1_555
La3 S6 3.023090 1_555
La3 S7 3.047107 1_545
La3 S2 3.096043 1_555
La3 S22 3.098964 1_555
La4 S18 2.871101 1_555
La4 S10 2.944373 1_566
La4 S20 2.954805 1_555
La4 S13 2.980043 1_465
La4 S9 3.021060 1_565
La4 S8 3.049940 1_555
La4 S25 3.087323 1_455
La4 S3 3.099031 1_565
La5 S11 2.849119 1_556
La5 S12 2.871029 1_455
La5 S8 2.890025 1_555
La5 S19 3.022605 1_555
La5 S24 3.103852 1_455
La5 S21 3.116193 1_555
La5 S2 3.178941 1_555
La5 S9 3.315999 1_555
La6 S7 2.838048 1_555
La6 S8 2.868111 1_554
La6 S27 2.958041 1_555
La6 S11 3.028576 1_555
La6 S23 3.041623 1_555
La6 S20 3.139245 1_554
La6 S10 3.156855 1_565
La6 S1 3.241396 1_565
La7 S11 2.891162 1_555
La7 S26 2.929160 1_555
La7 S9 2.966422 1_554
La7 S6 2.979971 1_555
La7 S22 3.031019 1_555
La7 S21 3.039345 1_554
La7 S0 3.039850 1_555
La7 S10 3.192730 1_555
La8 S12 2.898318 1_555
La8 S23 2.910552 1_545
La8 S5 2.976641 1_555
La8 S9 2.978544 1_655
La8 S17 3.015488 1_555
La8 S25 3.026131 1_545
La8 S1 3.041872 1_555
La8 S13 3.193050 1_555
La9 S8 2.837288 1_655
La9 S4 2.856082 1_555
La9 S22 2.980212 1_555
La9 S12 3.023288 1_555
La9 S24 3.045123 1_555
La9 S13 3.152589 1_565
La9 S16 3.176938 1_555
La9 S0 3.235591 1_555
La10 S4 2.839904 1_554
La10 S7 2.866856 1_655
La10 S25 2.977466 1_555
La10 S27 3.024721 1_555
La10 S15 3.027806 1_555
La10 S14 3.157011 1_565
La10 S19 3.175810 1_665
La10 S1 3.249418 1_565
La11 S15 2.891579 1_555
La11 S24 2.910787 1_555
La11 S6 2.968419 1_655
La11 S5 2.974995 1_554
La11 S18 3.012655 1_655
La11 S0 3.032276 1_555
La11 S26 3.048719 1_555
La11 S14 3.189592 1_555
S0 Si1 2.122770 1_555
S1 Si0 2.112190 1_555
S2 Si2 2.108323 1_555
S3 Si3 2.116095 1_555
S5 Sn0 2.606014 1_656
S6 Sn0 2.603509 1_555
S9 Sn0 2.604827 1_556
S10 Sn0 2.608370 1_555
S13 Sn0 2.609546 1_656
S14 Sn0 2.609259 1_655
S16 Si2 2.150435 1_555
S17 Si3 2.156722 1_555
S18 Si2 2.153912 1_555
S19 Si3 2.152229 1_555
S20 Si2 2.164923 1_555
S21 Si3 2.141907 1_555
S22 Si0 2.151023 1_555
S23 Si1 2.150932 1_555
S24 Si0 2.149941 1_555
S25 Si1 2.152441 1_555
S26 Si0 2.158804 1_555
S27 Si1 2.142601 1_555
