# generated using pymatgen
data_Ca2Mg5(SiO3)8
_symmetry_space_group_name_H-M   'P 1'
_cell_length_a   11.09987725
_cell_length_b   11.09987725
_cell_length_c   5.47093828
_cell_angle_alpha   83.07952347
_cell_angle_beta   83.07952347
_cell_angle_gamma   122.51321489
_symmetry_Int_Tables_number   1
_chemical_formula_structural   Ca2Mg5(SiO3)8
_chemical_formula_sum   'Ca2 Mg5 Si8 O24'
_cell_volume   550.28051026
_cell_formula_units_Z   1
loop_
 _symmetry_equiv_pos_site_id
 _symmetry_equiv_pos_as_xyz
  1  'x, y, z'
loop_
 _atom_site_type_symbol
 _atom_site_label
 _atom_site_symmetry_multiplicity
 _atom_site_fract_x
 _atom_site_fract_y
 _atom_site_fract_z
 _atom_site_occupancy
  Ca  Ca0  1  0.31426700  0.68573300  0.50000000  1
  Ca  Ca1  1  0.68573300  0.31426700  0.50000000  1
  Mg  Mg0  1  0.13322400  0.86677600  0.50000000  1
  Mg  Mg1  1  0.86677600  0.13322400  0.50000000  1
  Mg  Mg2  1  0.18042500  0.81957500  0.00000000  1
  Mg  Mg3  1  0.81957500  0.18042500  0.00000000  1
  Mg  Mg4  1  0.00000000  0.00000000  0.00000000  1
  Si  Si0  1  0.79041300  0.64165000  0.84382200  1
  Si  Si1  1  0.64165000  0.79041300  0.84382200  1
  Si  Si2  1  0.20958700  0.35835000  0.15617800  1
  Si  Si3  1  0.35835000  0.20958700  0.15617800  1
  Si  Si4  1  0.83335800  0.66318300  0.32302900  1
  Si  Si5  1  0.66318300  0.83335800  0.32302900  1
  Si  Si6  1  0.16664200  0.33681700  0.67697100  1
  Si  Si7  1  0.33681700  0.16664200  0.67697100  1
  O  O0  1  0.94184300  0.80014700  0.77609000  1
  O  O1  1  0.80014700  0.94184300  0.77609000  1
  O  O2  1  0.05815700  0.19985300  0.22391000  1
  O  O3  1  0.19985300  0.05815700  0.22391000  1
  O  O4  1  0.76683200  0.76683200  0.31049700  1
  O  O5  1  0.23316800  0.23316800  0.68950300  1
  O  O6  1  0.00688400  0.77120600  0.25051200  1
  O  O7  1  0.77120600  0.00688400  0.25051200  1
  O  O8  1  0.99311600  0.22879400  0.74948800  1
  O  O9  1  0.22879400  0.99311600  0.74948800  1
  O  O10  1  0.16130100  0.71589200  0.72216300  1
  O  O11  1  0.71589200  0.16130100  0.72216300  1
  O  O12  1  0.83869900  0.28410800  0.27783700  1
  O  O13  1  0.28410800  0.83869900  0.27783700  1
  O  O14  1  0.22432300  0.44798800  0.39178200  1
  O  O15  1  0.44798800  0.22432300  0.39178200  1
  O  O16  1  0.77567700  0.55201200  0.60821800  1
  O  O17  1  0.55201200  0.77567700  0.60821800  1
  O  O18  1  0.23312100  0.45252400  0.86872300  1
  O  O19  1  0.45252400  0.23312100  0.86872300  1
  O  O20  1  0.76687900  0.54747600  0.13127700  1
  O  O21  1  0.54747600  0.76687900  0.13127700  1
  O  O22  1  0.35761300  0.35761300  0.13384300  1
  O  O23  1  0.64238700  0.64238700  0.86615700  1
loop_
_geom_bond_atom_site_label_1
_geom_bond_atom_site_label_2
_geom_bond_distance
_geom_bond_site_symmetry_2
Ca0 O10 2.164252 1_555
Ca0 O13 2.164252 1_555
Ca0 O14 2.449087 1_555
Ca0 O17 2.449087 1_555
Ca0 O18 2.716390 1_555
Ca0 O21 2.716390 1_555
Ca1 O11 2.164252 1_555
Ca1 O12 2.164252 1_555
Ca1 O15 2.449087 1_555
Ca1 O16 2.449087 1_555
Ca1 O19 2.716390 1_555
Ca1 O20 2.716390 1_555
Mg0 O9 2.041074 1_555
Mg0 O6 2.041074 1_555
Mg0 O13 2.131005 1_555
Mg0 O10 2.131005 1_555
Mg0 O0 2.147051 1_455
Mg0 O3 2.147051 1_565
Mg1 O8 2.041074 1_555
Mg1 O7 2.041074 1_555
Mg1 O12 2.131005 1_555
Mg1 O11 2.131005 1_555
Mg1 O1 2.147051 1_545
Mg1 O2 2.147051 1_655
Mg2 O13 1.979078 1_555
Mg2 O10 1.979078 1_554
Mg2 O9 1.987940 1_554
Mg2 O6 1.987940 1_555
Mg3 O12 1.979078 1_555
Mg3 O11 1.979078 1_554
Mg3 O8 1.987940 1_554
Mg3 O7 1.987940 1_555
Mg4 O3 2.478792 1_555
Mg4 O2 2.478792 1_555
Mg4 O0 2.478792 1_444
Mg4 O1 2.478792 1_444
Mg4 O4 2.638711 1_445
Mg4 O5 2.638711 1_554
Mg4 O7 2.780068 1_455
Mg4 O6 2.780068 1_545
Mg4 O9 2.780068 1_544
Mg4 O8 2.780068 1_454
O0 Si0 1.603633 1_555
O1 Si1 1.603633 1_555
O2 Si2 1.603633 1_555
O3 Si3 1.603633 1_555
O4 Si4 1.667353 1_555
O4 Si5 1.667353 1_555
O5 Si6 1.667353 1_555
O5 Si7 1.667353 1_555
O6 Si4 1.588572 1_455
O7 Si5 1.588572 1_545
O8 Si6 1.588572 1_655
O9 Si7 1.588572 1_565
O14 Si6 1.677205 1_555
O14 Si2 1.692068 1_555
O15 Si7 1.677205 1_555
O15 Si3 1.692068 1_555
O16 Si4 1.677205 1_555
O16 Si0 1.692068 1_555
O17 Si5 1.677205 1_555
O17 Si1 1.692068 1_555
O18 Si6 1.669432 1_555
O18 Si2 1.686849 1_556
O19 Si7 1.669432 1_555
O19 Si3 1.686849 1_556
O20 Si4 1.669432 1_555
O20 Si0 1.686849 1_554
O21 Si5 1.669432 1_555
O21 Si1 1.686849 1_554
O22 Si2 1.637372 1_555
O22 Si3 1.637372 1_555
O23 Si0 1.637372 1_555
O23 Si1 1.637372 1_555
