# generated using pymatgen
data_Na2Ti3Mn(Si2O11)2
_symmetry_space_group_name_H-M   'P 1'
_cell_length_a   5.41148025
_cell_length_b   7.13520634
_cell_length_c   11.73626761
_cell_angle_alpha   84.94573070
_cell_angle_beta   82.37354443
_cell_angle_gamma   89.65211031
_symmetry_Int_Tables_number   1
_chemical_formula_structural   Na2Ti3Mn(Si2O11)2
_chemical_formula_sum   'Na2 Ti3 Mn1 Si4 O22'
_cell_volume   447.39890942
_cell_formula_units_Z   1
loop_
 _symmetry_equiv_pos_site_id
 _symmetry_equiv_pos_as_xyz
  1  'x, y, z'
loop_
 _atom_site_type_symbol
 _atom_site_label
 _atom_site_symmetry_multiplicity
 _atom_site_fract_x
 _atom_site_fract_y
 _atom_site_fract_z
 _atom_site_occupancy
  Na  Na0  1  0.32373900  0.75037700  0.28938900  1
  Na  Na1  1  0.81385500  0.50978700  0.26855800  1
  Ti  Ti0  1  0.74523600  0.81500600  0.02442100  1
  Ti  Ti1  1  0.38754200  0.97261800  0.57884400  1
  Ti  Ti2  1  0.34424400  0.22374900  0.28459300  1
  Mn  Mn0  1  0.80147800  0.01696300  0.28044400  1
  Si  Si0  1  0.90519800  0.25072700  0.50845900  1
  Si  Si1  1  0.89447200  0.70966400  0.50418700  1
  Si  Si2  1  0.25211000  0.50816900  0.05260700  1
  Si  Si3  1  0.21600200  0.08872900  0.03740400  1
  O  O0  1  0.63570800  0.78010600  0.57373800  1
  O  O1  1  0.14850300  0.06034400  0.18202600  1
  O  O2  1  0.46515800  0.39647200  0.75533000  1
  O  O3  1  0.47896700  0.98645300  0.99936300  1
  O  O4  1  0.64461300  0.15906100  0.57299800  1
  O  O5  1  0.92209900  0.79251700  0.36744200  1
  O  O6  1  0.14234100  0.16809600  0.56943100  1
  O  O7  1  0.64249700  0.34537700  0.80400100  1
  O  O8  1  0.22177000  0.45484600  0.19410800  1
  O  O9  1  0.70564700  0.83842900  0.18508100  1
  O  O10  1  0.80557300  0.81900200  0.84236000  1
  O  O11  1  0.51348800  0.61768300  0.01210800  1
  O  O12  1  0.40152500  0.43615700  0.35990600  1
  O  O13  1  0.65516900  0.21467100  0.19763300  1
  O  O14  1  0.14083300  0.78635300  0.55294700  1
  O  O15  1  0.88906800  0.48000100  0.50516000  1
  O  O16  1  0.98960300  0.00784900  0.97813400  1
  O  O17  1  0.96045100  0.19372000  0.37234900  1
  O  O18  1  0.31200500  0.93396300  0.73885800  1
  O  O19  1  0.47993200  0.01967900  0.37550600  1
  O  O20  1  0.24943300  0.31130000  0.99216600  1
  O  O21  1  0.00873900  0.63113100  0.02844800  1
loop_
_geom_bond_atom_site_label_1
_geom_bond_atom_site_label_2
_geom_bond_distance
_geom_bond_site_symmetry_2
Na0 O5 2.272805 1_455
Na0 O9 2.318031 1_555
Na0 O12 2.375471 1_555
Na0 O19 2.452925 1_565
Na0 O8 2.568045 1_555
Na0 O1 2.679389 1_565
Na1 O8 2.308193 1_655
Na1 O12 2.384154 1_555
Na1 O5 2.523269 1_555
Na1 O13 2.526825 1_555
Na1 O9 2.555819 1_555
Na1 O17 2.636250 1_555
Na1 O15 2.848953 1_555
Na1 O21 2.931774 1_655
Mn0 O13 1.873656 1_555
Mn0 O9 1.886162 1_545
Mn0 O19 1.939320 1_555
Mn0 O5 1.977212 1_545
Mn0 O17 1.998321 1_555
Mn0 O1 2.079633 1_655
O0 Si1 1.624839 1_555
O0 Ti1 1.914327 1_555
O1 Si3 1.682591 1_555
O1 Ti2 2.128650 1_555
O2 O7 1.218491 1_555
O3 Si3 1.622669 1_566
O3 Ti0 1.920124 1_556
O4 Si0 1.621864 1_555
O4 Ti1 1.921131 1_545
O5 Si1 1.648539 1_555
O6 Si0 1.633015 1_455
O6 Ti1 1.925501 1_545
O8 Si2 1.657309 1_555
O8 Ti2 2.037392 1_555
O9 Ti0 1.891294 1_555
O10 Ti0 2.115935 1_556
O11 Si2 1.614525 1_555
O11 Ti0 1.918682 1_555
O12 Ti2 1.867829 1_555
O13 Ti2 1.852389 1_555
O14 Si1 1.634258 1_455
O14 Ti1 1.959983 1_555
O15 Si0 1.635037 1_555
O15 Si1 1.638138 1_555
O16 Si3 1.619702 1_656
O16 Ti0 1.907049 1_546
O17 Si0 1.671181 1_555
O17 Ti2 2.195196 1_655
O18 Ti1 1.864476 1_555
O19 Ti2 1.928471 1_555
O19 Ti1 2.366837 1_545
O20 Si2 1.629453 1_556
O20 Si3 1.632811 1_556
O21 Si2 1.620459 1_555
O21 Ti0 1.934191 1_455
