# generated using pymatgen
data_Ba2YMn3O7
_symmetry_space_group_name_H-M   'P 1'
_cell_length_a   3.92245200
_cell_length_b   12.57480810
_cell_length_c   8.20504300
_cell_angle_alpha   70.96053596
_cell_angle_beta   89.99976443
_cell_angle_gamma   89.99983844
_symmetry_Int_Tables_number   1
_chemical_formula_structural   Ba2YMn3O7
_chemical_formula_sum   'Ba4 Y2 Mn6 O14'
_cell_volume   382.56639268
_cell_formula_units_Z   2
loop_
 _symmetry_equiv_pos_site_id
 _symmetry_equiv_pos_as_xyz
  1  'x, y, z'
loop_
 _atom_site_type_symbol
 _atom_site_label
 _atom_site_symmetry_multiplicity
 _atom_site_fract_x
 _atom_site_fract_y
 _atom_site_fract_z
 _atom_site_occupancy
  Ba  Ba0  1  0.49999600  0.81689200  0.84221300  1
  Ba  Ba1  1  0.49999200  0.81700800  0.34092000  1
  Ba  Ba2  1  0.49998800  0.18292600  0.15783800  1
  Ba  Ba3  1  0.49997900  0.18308400  0.65922200  1
  Y  Y0  1  0.50001300  0.49998400  0.99993900  1
  Y  Y1  1  0.50001900  0.50000100  0.49994100  1
  Mn  Mn0  1  0.99998200  0.00005200  0.50011200  1
  Mn  Mn1  1  0.99999800  0.65075900  0.17454800  1
  Mn  Mn2  1  0.00001500  0.34921200  0.82539300  1
  Mn  Mn3  1  0.99990500  0.99991700  0.99997600  1
  Mn  Mn4  1  0.00001000  0.65804500  0.67090500  1
  Mn  Mn5  1  0.00000600  0.34199800  0.32892800  1
  O  O0  1  0.99999100  0.00003500  0.26457100  1
  O  O1  1  0.99997000  0.00001000  0.73564900  1
  O  O2  1  0.50001300  0.62704000  0.18635900  1
  O  O3  1  0.50002100  0.60885700  0.69546500  1
  O  O4  1  0.50000900  0.37306800  0.81343800  1
  O  O5  1  0.50002000  0.39127900  0.30430500  1
  O  O6  1  0.00002200  0.62018600  0.95229500  1
  O  O7  1  0.00002600  0.62017800  0.42733700  1
  O  O8  1  0.00001000  0.37975400  0.04760400  1
  O  O9  1  0.00002300  0.37973600  0.57262800  1
  O  O10  1  0.99999600  0.83081000  0.08461300  1
  O  O11  1  0.00001300  0.83631500  0.58195500  1
  O  O12  1  0.99999900  0.16378200  0.41830600  1
  O  O13  1  0.99998100  0.16907000  0.91553700  1
loop_
_geom_bond_atom_site_label_1
_geom_bond_atom_site_label_2
_geom_bond_distance
_geom_bond_site_symmetry_2
Ba0 O10 2.838987 1_456
Ba0 O10 2.838998 1_556
Ba0 O11 2.850544 1_555
Ba0 O11 2.850624 1_655
Ba0 O1 2.932445 1_565
Ba0 O1 2.932577 1_465
Ba0 O2 3.045434 1_556
Ba0 O6 3.053290 1_555
Ba0 O6 3.053417 1_655
Ba0 O3 3.216883 1_555
Ba1 O10 2.839193 1_455
Ba1 O10 2.839203 1_555
Ba1 O11 2.851240 1_555
Ba1 O11 2.851365 1_655
Ba1 O0 2.931758 1_565
Ba1 O0 2.931758 1_465
Ba1 O2 3.048151 1_555
Ba1 O7 3.054465 1_555
Ba1 O7 3.054631 1_655
Ba1 O3 3.216491 1_555
Ba2 O13 2.838156 1_554
Ba2 O13 2.838206 1_454
Ba2 O12 2.852351 1_455
Ba2 O12 2.852421 1_555
Ba2 O0 2.930601 1_455
Ba2 O0 2.930613 1_555
Ba2 O4 3.048590 1_554
Ba2 O8 3.054431 1_555
Ba2 O8 3.054546 1_655
Ba2 O5 3.219150 1_555
Ba3 O13 2.838754 1_455
Ba3 O13 2.838776 1_555
Ba3 O12 2.850531 1_455
Ba3 O12 2.850627 1_555
Ba3 O1 2.932127 1_555
Ba3 O1 2.932180 1_455
Ba3 O4 3.046435 1_555
Ba3 O9 3.052745 1_555
Ba3 O9 3.052972 1_655
Ba3 O5 3.218729 1_555
Mn0 O1 1.932419 1_555
Mn0 O0 1.932694 1_555
Mn0 O12 1.946241 1_555
Mn0 O11 1.946324 1_645
Mn1 O2 1.981331 1_555
Mn1 O2 1.981446 1_655
Mn1 O7 1.982312 1_655
Mn1 O6 1.982603 1_654
Mn1 O10 2.140247 1_555
Mn2 O4 1.981598 1_555
Mn2 O4 1.981644 1_455
Mn2 O8 1.982071 1_556
Mn2 O9 1.982224 1_555
Mn2 O13 2.141329 1_455
Mn3 O10 2.010157 1_556
Mn3 O13 2.010704 1_565
Mn3 O1 2.168433 1_565
Mn3 O0 2.171498 1_566
Mn4 O3 2.046487 1_455
Mn4 O3 2.046567 1_555
Mn4 O11 2.119077 1_555
Mn4 O6 2.200033 1_555
Mn4 O7 2.200354 1_555
Mn5 O5 2.046790 1_455
Mn5 O5 2.046897 1_555
Mn5 O12 2.118436 1_455
Mn5 O8 2.199666 1_555
Mn5 O9 2.200583 1_555
O2 Y0 2.546907 1_554
O2 Y1 2.547620 1_555
O3 Y1 2.424916 1_555
O3 Y0 2.425687 1_555
O4 Y0 2.545993 1_555
O4 Y1 2.546662 1_555
O5 Y1 2.424379 1_555
O5 Y0 2.424455 1_554
O6 Y0 2.428631 1_555
O6 Y0 2.428692 1_455
O7 Y1 2.428487 1_555
O7 Y1 2.428534 1_455
O8 Y0 2.428843 1_454
O8 Y0 2.428866 1_554
O9 Y1 2.429128 1_555
O9 Y1 2.429151 1_455
