# generated using pymatgen
data_LiFe2(CO3)3
_symmetry_space_group_name_H-M   'P 1'
_cell_length_a   7.51848400
_cell_length_b   7.60684579
_cell_length_c   7.64247858
_cell_angle_alpha   111.11244163
_cell_angle_beta   106.78606622
_cell_angle_gamma   107.53632778
_symmetry_Int_Tables_number   1
_chemical_formula_structural   LiFe2(CO3)3
_chemical_formula_sum   'Li2 Fe4 C6 O18'
_cell_volume   347.85628813
_cell_formula_units_Z   2
loop_
 _symmetry_equiv_pos_site_id
 _symmetry_equiv_pos_as_xyz
  1  'x, y, z'
loop_
 _atom_site_type_symbol
 _atom_site_label
 _atom_site_symmetry_multiplicity
 _atom_site_fract_x
 _atom_site_fract_y
 _atom_site_fract_z
 _atom_site_occupancy
  Li  Li0  1  0.30276800  0.60362800  0.85466500  1
  Li  Li1  1  0.79127600  0.81652500  0.81608700  1
  Fe  Fe0  1  0.03933100  0.54514900  0.16331900  1
  Fe  Fe1  1  0.16050800  0.04745700  0.53928900  1
  Fe  Fe2  1  0.44338300  0.43684300  0.43227500  1
  Fe  Fe3  1  0.54537700  0.16482800  0.03557300  1
  C  C0  1  0.18065100  0.25906000  0.94175000  1
  C  C1  1  0.25658100  0.93522800  0.16516900  1
  C  C2  1  0.39182900  0.80350300  0.59790200  1
  C  C3  1  0.60037200  0.41852400  0.81692600  1
  C  C4  1  0.80387200  0.60086600  0.41073400  1
  C  C5  1  0.93351600  0.17036400  0.24167600  1
  O  O0  1  0.13041500  0.41354500  0.95619500  1
  O  O1  1  0.07664600  0.77303400  0.08520000  1
  O  O2  1  0.06843400  0.07547800  0.78529900  1
  O  O3  1  0.08478100  0.34779800  0.29123400  1
  O  O4  1  0.39501900  0.98224000  0.70965700  1
  O  O5  1  0.33820800  0.73356000  0.40044400  1
  O  O6  1  0.44365000  0.69838300  0.68485500  1
  O  O7  1  0.36482200  0.92260500  0.05914600  1
  O  O8  1  0.40539900  0.36581400  0.77018100  1
  O  O9  1  0.35313600  0.30350200  0.09240200  1
  O  O10  1  0.31882600  0.09902200  0.34052300  1
  O  O11  1  0.70991000  0.39232500  0.96942400  1
  O  O12  1  0.72335200  0.70023000  0.50520100  1
  O  O13  1  0.68747200  0.49350400  0.72375900  1
  O  O14  1  0.72559000  0.39509200  0.33453100  1
  O  O15  1  0.96554600  0.69843600  0.38948400  1
  O  O16  1  0.93930800  0.08935700  0.35888900  1
  O  O17  1  0.77067300  0.07335200  0.05562400  1
loop_
_geom_bond_atom_site_label_1
_geom_bond_atom_site_label_2
_geom_bond_distance
_geom_bond_site_symmetry_2
Li0 O6 2.081694 1_555
Li0 O8 2.138306 1_555
Li0 O0 2.152183 1_555
Li0 O7 2.170789 1_556
Li1 O12 2.049689 1_555
Li1 O13 2.102836 1_555
Li1 O17 2.227490 1_566
Li1 O6 2.250713 1_555
Li1 O2 2.534030 1_665
Fe0 O0 1.968381 1_554
Fe0 O1 1.997337 1_555
Fe0 O15 2.036341 1_455
Fe0 O5 2.055168 1_555
Fe0 O3 2.121209 1_555
Fe0 O11 2.141400 1_454
Fe1 O16 2.019874 1_455
Fe1 O2 2.147442 1_555
Fe1 O4 2.171776 1_545
Fe1 O8 2.174017 1_555
Fe1 O15 2.236936 1_445
Fe1 O10 2.251785 1_555
Fe2 O12 2.175337 1_555
Fe2 O10 2.201066 1_555
Fe2 O9 2.214805 1_555
Fe2 O6 2.216536 1_555
Fe2 O13 2.233039 1_555
Fe2 O3 2.363210 1_555
Fe2 O14 2.512257 1_555
Fe2 O5 2.671870 1_555
Fe3 O17 2.003525 1_555
Fe3 O14 2.005695 1_555
Fe3 O7 2.035520 1_545
Fe3 O9 2.083695 1_555
Fe3 O4 2.084790 1_544
Fe3 O11 2.117073 1_554
C0 O2 1.263352 1_555
C0 O9 1.309446 1_556
C0 O0 1.316778 1_555
C1 O10 1.284861 1_565
C1 O1 1.303573 1_555
C1 O7 1.303829 1_555
C2 O6 1.286012 1_555
C2 O5 1.289895 1_555
C2 O4 1.307892 1_555
C3 O13 1.264095 1_555
C3 O8 1.295140 1_555
C3 O11 1.337202 1_555
C4 O12 1.262580 1_555
C4 O15 1.308421 1_555
C4 O14 1.313712 1_555
C5 O16 1.255133 1_555
C5 O3 1.310152 1_655
C5 O17 1.326444 1_555
