# generated using pymatgen
data_MgCuO2
_symmetry_space_group_name_H-M   'P 1'
_cell_length_a   2.86003200
_cell_length_b   8.07373105
_cell_length_c   8.32574607
_cell_angle_alpha   89.48269052
_cell_angle_beta   98.99157193
_cell_angle_gamma   99.87204803
_symmetry_Int_Tables_number   1
_chemical_formula_structural   MgCuO2
_chemical_formula_sum   'Mg4 Cu4 O8'
_cell_volume   187.04552640
_cell_formula_units_Z   4
loop_
 _symmetry_equiv_pos_site_id
 _symmetry_equiv_pos_as_xyz
  1  'x, y, z'
loop_
 _atom_site_type_symbol
 _atom_site_label
 _atom_site_symmetry_multiplicity
 _atom_site_fract_x
 _atom_site_fract_y
 _atom_site_fract_z
 _atom_site_occupancy
  Mg  Mg0  1  0.29630800  0.40612100  0.71676200  1
  Mg  Mg1  1  0.70369200  0.59387900  0.28323800  1
  Mg  Mg2  1  0.51640700  0.72421200  0.87124000  1
  Mg  Mg3  1  0.48359300  0.27578800  0.12876000  1
  Cu  Cu0  1  0.08049800  0.20924500  0.43170500  1
  Cu  Cu1  1  0.68914800  0.07817300  0.82268600  1
  Cu  Cu2  1  0.31085200  0.92182700  0.17731400  1
  Cu  Cu3  1  0.91950200  0.79075500  0.56829500  1
  O  O0  1  0.32147700  0.71473100  0.42815200  1
  O  O1  1  0.91660700  0.08424000  0.23086900  1
  O  O2  1  0.08339300  0.91576000  0.76913100  1
  O  O3  1  0.67852300  0.28526900  0.57184800  1
  O  O4  1  0.09337800  0.42833100  0.20983200  1
  O  O5  1  0.29354900  0.22542200  0.89233300  1
  O  O6  1  0.90662200  0.57166900  0.79016800  1
  O  O7  1  0.70645100  0.77457800  0.10766700  1
loop_
_geom_bond_atom_site_label_1
_geom_bond_atom_site_label_2
_geom_bond_distance
_geom_bond_site_symmetry_2
Mg0 O6 2.021911 1_555
Mg0 O6 2.034844 1_455
Mg0 O5 2.055818 1_555
Mg0 O3 2.072044 1_455
Mg0 O3 2.098083 1_555
Mg1 O4 2.021911 1_555
Mg1 O4 2.034844 1_655
Mg1 O7 2.055818 1_555
Mg1 O0 2.072044 1_655
Mg1 O0 2.098083 1_555
Mg2 O6 1.981039 1_455
Mg2 O6 1.984874 1_555
Mg2 O7 1.984878 1_556
Mg2 O2 2.225315 1_555
Mg2 O2 2.300270 1_655
Mg3 O4 1.981039 1_655
Mg3 O4 1.984874 1_555
Mg3 O5 1.984878 1_554
Mg3 O1 2.225315 1_555
Mg3 O1 2.300270 1_455
Cu0 O1 1.912466 1_455
Cu0 O3 1.921635 1_555
Cu0 O3 1.932376 1_455
Cu0 O4 2.546065 1_555
Cu1 O5 1.925741 1_555
Cu1 O5 1.931876 1_655
Cu1 O2 1.965792 1_645
Cu1 O2 1.977337 1_545
Cu2 O7 1.925741 1_555
Cu2 O7 1.931876 1_455
Cu2 O1 1.965792 1_465
Cu2 O1 1.977337 1_565
Cu3 O2 1.912466 1_655
Cu3 O0 1.921635 1_555
Cu3 O0 1.932376 1_655
Cu3 O6 2.546065 1_555
