# generated using pymatgen
data_LiEuGe2
_symmetry_space_group_name_H-M   'P 1'
_cell_length_a   3.96056467
_cell_length_b   8.03618811
_cell_length_c   10.85274386
_cell_angle_alpha   89.99750013
_cell_angle_beta   89.99999365
_cell_angle_gamma   89.99995957
_symmetry_Int_Tables_number   1
_chemical_formula_structural   LiEuGe2
_chemical_formula_sum   'Li4 Eu4 Ge8'
_cell_volume   345.41942438
_cell_formula_units_Z   4
loop_
 _symmetry_equiv_pos_site_id
 _symmetry_equiv_pos_as_xyz
  1  'x, y, z'
loop_
 _atom_site_type_symbol
 _atom_site_label
 _atom_site_symmetry_multiplicity
 _atom_site_fract_x
 _atom_site_fract_y
 _atom_site_fract_z
 _atom_site_occupancy
  Li  Li0  1  0.25000019  0.49262849  0.38934792  1
  Li  Li1  1  0.25000016  0.99262627  0.11065989  1
  Li  Li2  1  0.74999984  0.50738700  0.61063402  1
  Li  Li3  1  0.74999990  0.00738196  0.88936025  1
  Eu  Eu0  1  0.25000002  0.13514402  0.63420993  1
  Eu  Eu1  1  0.25000084  0.63514769  0.86574524  1
  Eu  Eu2  1  0.75000014  0.86482545  0.36568833  1
  Eu  Eu3  1  0.74999972  0.36486724  0.13435166  1
  Ge  Ge0  1  0.25000002  0.22598328  0.93379585  1
  Ge  Ge1  1  0.24999990  0.72594513  0.56618865  1
  Ge  Ge2  1  0.74999991  0.77404011  0.06641462  1
  Ge  Ge3  1  0.74999982  0.27407018  0.43357260  1
  Ge  Ge4  1  0.24999972  0.16243562  0.32066299  1
  Ge  Ge5  1  0.25000000  0.66249943  0.17937489  1
  Ge  Ge6  1  0.74999994  0.83744399  0.67922522  1
  Ge  Ge7  1  0.74999987  0.33757414  0.82076593  1
loop_
_geom_bond_atom_site_label_1
_geom_bond_atom_site_label_2
_geom_bond_distance
_geom_bond_site_symmetry_2
Eu0 Ge6 3.143808 1_545
Eu0 Ge6 3.143811 1_445
Eu0 Ge3 3.147871 1_555
Eu0 Ge3 3.147871 1_455
Eu0 Ge7 3.266092 1_455
Eu0 Ge7 3.266093 1_555
Eu0 Ge0 3.332304 1_555
Eu0 Ge1 3.370274 1_545
Eu0 Ge4 3.409896 1_555
Eu1 Ge7 3.143004 1_555
Eu1 Ge7 3.143011 1_455
Eu1 Ge2 3.148081 1_556
Eu1 Ge2 3.148085 1_456
Eu1 Ge6 3.265225 1_555
Eu1 Ge6 3.265229 1_455
Eu1 Ge1 3.331858 1_555
Eu1 Ge0 3.370010 1_555
Eu1 Ge5 3.410842 1_556
Eu2 Ge4 3.143277 1_665
Eu2 Ge4 3.143277 1_565
Eu2 Ge1 3.146711 1_655
Eu2 Ge1 3.146713 1_555
Eu2 Ge5 3.264043 1_655
Eu2 Ge5 3.264046 1_555
Eu2 Ge2 3.328903 1_555
Eu2 Ge3 3.370308 1_565
Eu2 Ge6 3.409833 1_555
Eu3 Ge5 3.143439 1_555
Eu3 Ge5 3.143442 1_655
Eu3 Ge0 3.147206 1_554
Eu3 Ge0 3.147207 1_654
Eu3 Ge4 3.264365 1_655
Eu3 Ge4 3.264366 1_555
Eu3 Ge3 3.328303 1_555
Eu3 Ge2 3.369807 1_555
Eu3 Ge7 3.410336 1_554
Ge0 Ge7 2.496070 1_555
Ge0 Ge7 2.496070 1_455
Ge0 Li1 2.683424 1_546
Ge0 Li3 2.690765 1_555
Ge0 Li3 2.690768 1_455
Ge1 Ge6 2.495878 1_455
Ge1 Ge6 2.495879 1_555
Ge1 Li0 2.683134 1_555
Ge1 Li2 2.690531 1_555
Ge1 Li2 2.690533 1_455
Ge2 Ge5 2.495554 1_655
Ge2 Ge5 2.495554 1_555
Ge2 Li3 2.684817 1_564
Ge2 Li1 2.690316 1_555
Ge2 Li1 2.690319 1_655
Ge3 Ge4 2.495592 1_655
Ge3 Ge4 2.495594 1_555
Ge3 Li2 2.684849 1_555
Ge3 Li0 2.690102 1_555
Ge3 Li0 2.690106 1_655
Ge4 Li1 2.656464 1_545
Ge4 Li0 2.756237 1_555
Ge5 Li0 2.656336 1_555
Ge5 Li1 2.755752 1_555
Ge6 Li3 2.658223 1_565
Ge6 Li2 2.754911 1_555
Ge7 Li2 2.657576 1_555
Ge7 Li3 2.755903 1_555
