# generated using pymatgen
data_Cs3SbS3
_symmetry_space_group_name_H-M   'P 1'
_cell_length_a   10.37907753
_cell_length_b   10.37907753
_cell_length_c   10.37907753
_cell_angle_alpha   90.00000000
_cell_angle_beta   90.00000000
_cell_angle_gamma   90.00000000
_symmetry_Int_Tables_number   1
_chemical_formula_structural   Cs3SbS3
_chemical_formula_sum   'Cs12 Sb4 S12'
_cell_volume   1118.08872557
_cell_formula_units_Z   4
loop_
 _symmetry_equiv_pos_site_id
 _symmetry_equiv_pos_as_xyz
  1  'x, y, z'
loop_
 _atom_site_type_symbol
 _atom_site_label
 _atom_site_symmetry_multiplicity
 _atom_site_fract_x
 _atom_site_fract_y
 _atom_site_fract_z
 _atom_site_occupancy
  Cs  Cs0  1  0.44183845  0.94183845  0.55816155  1
  Cs  Cs1  1  0.94183845  0.55816155  0.44183845  1
  Cs  Cs2  1  0.55816155  0.44183845  0.94183845  1
  Cs  Cs3  1  0.05816155  0.05816155  0.05816155  1
  Cs  Cs4  1  0.93938196  0.43938196  0.06061804  1
  Cs  Cs5  1  0.43938196  0.06061804  0.93938196  1
  Cs  Cs6  1  0.06061804  0.93938196  0.43938196  1
  Cs  Cs7  1  0.56061804  0.56061804  0.56061804  1
  Cs  Cs8  1  0.67845931  0.17845931  0.32154069  1
  Cs  Cs9  1  0.17845931  0.32154069  0.67845931  1
  Cs  Cs10  1  0.32154069  0.67845931  0.17845931  1
  Cs  Cs11  1  0.82154069  0.82154069  0.82154069  1
  Sb  Sb0  1  0.22425125  0.72425125  0.77574875  1
  Sb  Sb1  1  0.72425125  0.77574875  0.22425125  1
  Sb  Sb2  1  0.77574875  0.22425125  0.72425125  1
  Sb  Sb3  1  0.27574875  0.27574875  0.27574875  1
  S  S0  1  0.15843902  0.94881140  0.75815374  1
  S  S1  1  0.24184626  0.65843902  0.55118860  1
  S  S2  1  0.44881140  0.74184626  0.84156098  1
  S  S3  1  0.65843902  0.55118860  0.24184626  1
  S  S4  1  0.74184626  0.84156098  0.44881140  1
  S  S5  1  0.94881140  0.75815374  0.15843902  1
  S  S6  1  0.84156098  0.44881140  0.74184626  1
  S  S7  1  0.75815374  0.15843902  0.94881140  1
  S  S8  1  0.55118860  0.24184626  0.65843902  1
  S  S9  1  0.34156098  0.05118860  0.25815374  1
  S  S10  1  0.25815374  0.34156098  0.05118860  1
  S  S11  1  0.05118860  0.25815374  0.34156098  1
loop_
_geom_bond_atom_site_label_1
_geom_bond_atom_site_label_2
_geom_bond_distance
_geom_bond_site_symmetry_2
Cs0 S9 3.473778 1_565
Cs0 S4 3.473778 1_555
Cs0 S8 3.473778 1_565
Cs0 S1 3.600818 1_555
Cs0 S2 3.600818 1_555
Cs0 S0 3.600818 1_555
Cs1 S11 3.473778 1_655
Cs1 S6 3.473778 1_555
Cs1 S1 3.473778 1_655
Cs1 S5 3.600818 1_555
Cs1 S3 3.600818 1_555
Cs1 S4 3.600818 1_555
Cs2 S10 3.473778 1_556
Cs2 S3 3.473778 1_556
Cs2 S2 3.473778 1_555
Cs2 S8 3.600818 1_555
Cs2 S6 3.600818 1_555
Cs2 S7 3.600818 1_555
Cs3 S0 3.473778 1_544
Cs3 S5 3.473778 1_445
Cs3 S7 3.473778 1_454
Cs3 S11 3.600818 1_555
Cs3 S9 3.600818 1_555
Cs3 S10 3.600818 1_555
Cs4 S6 3.462217 1_554
Cs4 S5 3.462217 1_555
Cs4 S10 3.462217 1_655
Cs4 S7 3.658876 1_554
Cs4 S3 3.658876 1_555
Cs4 S11 3.658876 1_655
Cs5 S2 3.462217 1_545
Cs5 S7 3.462217 1_555
Cs5 S9 3.462217 1_556
Cs5 S0 3.658876 1_545
Cs5 S8 3.658876 1_555
Cs5 S10 3.658876 1_556
Cs6 S4 3.462217 1_455
Cs6 S0 3.462217 1_555
Cs6 S11 3.462217 1_565
Cs6 S1 3.658876 1_555
Cs6 S5 3.658876 1_455
Cs6 S9 3.658876 1_565
Cs7 S8 3.462217 1_555
Cs7 S3 3.462217 1_555
Cs7 S1 3.462217 1_555
Cs7 S4 3.658876 1_555
Cs7 S2 3.658876 1_555
Cs7 S6 3.658876 1_555
Cs8 S8 3.795341 1_555
Cs8 S9 3.795341 1_555
Cs8 S4 3.795341 1_545
Cs8 S11 3.961480 1_655
Cs8 S3 3.961480 1_555
Cs8 S7 3.961480 1_554
Cs9 S1 3.795341 1_555
Cs9 S6 3.795341 1_455
Cs9 S11 3.795341 1_555
Cs9 S10 3.961480 1_556
Cs9 S8 3.961480 1_555
Cs9 S0 3.961480 1_545
Cs10 S3 3.795341 1_555
Cs10 S2 3.795341 1_554
Cs10 S10 3.795341 1_555
Cs10 S9 3.961480 1_565
Cs10 S1 3.961480 1_555
Cs10 S5 3.961480 1_455
Cs11 S5 3.795341 1_556
Cs11 S0 3.795341 1_655
Cs11 S7 3.795341 1_565
Cs11 S6 3.961480 1_555
Cs11 S4 3.961480 1_555
Cs11 S2 3.961480 1_555
S0 Sb0 2.435616 1_555
S1 Sb0 2.435616 1_555
S2 Sb0 2.435616 1_555
S3 Sb1 2.435616 1_555
S4 Sb1 2.435616 1_555
S5 Sb1 2.435616 1_555
S6 Sb2 2.435616 1_555
S7 Sb2 2.435616 1_555
S8 Sb2 2.435616 1_555
S9 Sb3 2.435616 1_555
S10 Sb3 2.435616 1_555
S11 Sb3 2.435616 1_555
