# generated using pymatgen
data_LiTiNF6
_symmetry_space_group_name_H-M   'P 1'
_cell_length_a   7.51531400
_cell_length_b   9.82760100
_cell_length_c   13.78757100
_cell_angle_alpha   90.00000000
_cell_angle_beta   90.00000000
_cell_angle_gamma   90.00000000
_symmetry_Int_Tables_number   1
_chemical_formula_structural   LiTiNF6
_chemical_formula_sum   'Li8 Ti8 N8 F48'
_cell_volume   1018.31562691
_cell_formula_units_Z   8
loop_
 _symmetry_equiv_pos_site_id
 _symmetry_equiv_pos_as_xyz
  1  'x, y, z'
loop_
 _atom_site_type_symbol
 _atom_site_label
 _atom_site_symmetry_multiplicity
 _atom_site_fract_x
 _atom_site_fract_y
 _atom_site_fract_z
 _atom_site_occupancy
  Li  Li0  1  0.71158000  0.94668700  0.62869600  1
  Li  Li1  1  0.78842000  0.44668700  0.87130400  1
  Li  Li2  1  0.21158000  0.05331300  0.87130400  1
  Li  Li3  1  0.28842000  0.55331300  0.62869600  1
  Li  Li4  1  0.28842000  0.05331300  0.37130400  1
  Li  Li5  1  0.21158000  0.55331300  0.12869600  1
  Li  Li6  1  0.78842000  0.94668700  0.12869600  1
  Li  Li7  1  0.71158000  0.44668700  0.37130400  1
  Ti  Ti0  1  0.71747600  0.07323900  0.87238400  1
  Ti  Ti1  1  0.78252400  0.57323900  0.62761600  1
  Ti  Ti2  1  0.21747600  0.92676100  0.62761600  1
  Ti  Ti3  1  0.28252400  0.42676100  0.87238400  1
  Ti  Ti4  1  0.28252400  0.92676100  0.12761600  1
  Ti  Ti5  1  0.21747600  0.42676100  0.37238400  1
  Ti  Ti6  1  0.78252400  0.07323900  0.37238400  1
  Ti  Ti7  1  0.71747600  0.57323900  0.12761600  1
  N  N0  1  0.00000000  0.25000000  0.66613700  1
  N  N1  1  0.50000000  0.75000000  0.83386300  1
  N  N2  1  0.00000000  0.75000000  0.33386300  1
  N  N3  1  0.50000000  0.25000000  0.16613700  1
  N  N4  1  0.50000000  0.25000000  0.71175600  1
  N  N5  1  0.00000000  0.75000000  0.78824400  1
  N  N6  1  0.50000000  0.75000000  0.28824400  1
  N  N7  1  0.00000000  0.25000000  0.21175600  1
  F  F0  1  0.66569200  0.88047900  0.82189200  1
  F  F1  1  0.83430800  0.38047900  0.67810800  1
  F  F2  1  0.16569200  0.11952100  0.67810800  1
  F  F3  1  0.33430800  0.61952100  0.82189200  1
  F  F4  1  0.33430800  0.11952100  0.17810800  1
  F  F5  1  0.16569200  0.61952100  0.32189200  1
  F  F6  1  0.83430800  0.88047900  0.32189200  1
  F  F7  1  0.66569200  0.38047900  0.17810800  1
  F  F8  1  0.47393800  0.08851100  0.86724700  1
  F  F9  1  0.02606200  0.58851100  0.63275300  1
  F  F10  1  0.97393800  0.91148900  0.63275300  1
  F  F11  1  0.52606200  0.41148900  0.86724700  1
  F  F12  1  0.52606200  0.91148900  0.13275300  1
  F  F13  1  0.97393800  0.41148900  0.36724700  1
  F  F14  1  0.02606200  0.08851100  0.36724700  1
  F  F15  1  0.47393800  0.58851100  0.13275300  1
  F  F16  1  0.78308400  0.24790700  0.89954500  1
  F  F17  1  0.71691600  0.74790700  0.60045500  1
  F  F18  1  0.28308400  0.75209300  0.60045500  1
  F  F19  1  0.21691600  0.25209300  0.89954500  1
  F  F20  1  0.21691600  0.75209300  0.10045500  1
  F  F21  1  0.28308400  0.25209300  0.39954500  1
  F  F22  1  0.71691600  0.24790700  0.39954500  1
  F  F23  1  0.78308400  0.74790700  0.10045500  1
  F  F24  1  0.68996200  0.13367100  0.72711100  1
  F  F25  1  0.81003800  0.63367100  0.77288900  1
  F  F26  1  0.18996200  0.86632900  0.77288900  1
  F  F27  1  0.31003800  0.36632900  0.72711100  1
  F  F28  1  0.31003800  0.86632900  0.27288900  1
  F  F29  1  0.18996200  0.36632900  0.22711100  1
  F  F30  1  0.81003800  0.13367100  0.22711100  1
  F  F31  1  0.68996200  0.63367100  0.27288900  1
  F  F32  1  0.72900600  0.02031300  0.99911700  1
  F  F33  1  0.77099400  0.52031300  0.50088300  1
  F  F34  1  0.22900600  0.97968700  0.50088300  1
  F  F35  1  0.27099400  0.47968700  0.99911700  1
  F  F36  1  0.27099400  0.97968700  0.00088300  1
  F  F37  1  0.22900600  0.47968700  0.49911700  1
  F  F38  1  0.77099400  0.02031300  0.49911700  1
  F  F39  1  0.72900600  0.52031300  0.00088300  1
  F  F40  1  0.95182400  0.02782100  0.84721600  1
  F  F41  1  0.54817600  0.52782100  0.65278400  1
  F  F42  1  0.45182400  0.97217900  0.65278400  1
  F  F43  1  0.04817600  0.47217900  0.84721600  1
  F  F44  1  0.04817600  0.97217900  0.15278400  1
  F  F45  1  0.45182400  0.47217900  0.34721600  1
  F  F46  1  0.54817600  0.02782100  0.34721600  1
  F  F47  1  0.95182400  0.52782100  0.15278400  1
loop_
_geom_bond_atom_site_label_1
_geom_bond_atom_site_label_2
_geom_bond_distance
_geom_bond_site_symmetry_2
F0 N1 1.795025 1_555
F0 Ti0 2.055414 1_565
F1 N0 1.795025 1_655
F1 Ti1 2.055414 1_555
F2 N0 1.795025 1_555
F2 Ti2 2.055414 1_545
F3 N1 1.795025 1_555
F3 Ti3 2.055414 1_555
F4 N3 1.795025 1_555
F4 Ti4 2.055414 1_545
F5 N2 1.795025 1_555
F5 Ti5 2.055414 1_555
F6 N2 1.795025 1_655
F6 Ti6 2.055414 1_565
F7 N3 1.795025 1_555
F7 Ti7 2.055414 1_555
F8 Ti0 1.837773 1_555
F8 Li2 2.002597 1_555
F9 Ti1 1.837773 1_455
F9 Li3 2.002597 1_555
F10 Ti2 1.837773 1_655
F10 Li0 2.002597 1_555
F11 Ti3 1.837773 1_555
F11 Li1 2.002597 1_555
F12 Ti4 1.837773 1_555
F12 Li6 2.002597 1_555
F13 Ti5 1.837773 1_655
F13 Li7 2.002597 1_555
F14 Ti6 1.837773 1_455
F14 Li4 2.002597 1_555
F15 Ti7 1.837773 1_555
F15 Li5 2.002597 1_555
F16 Ti0 1.824816 1_555
F16 Li1 1.992361 1_555
F17 Ti1 1.824816 1_555
F17 Li0 1.992361 1_555
F18 Ti2 1.824816 1_555
F18 Li3 1.992361 1_555
F19 Ti3 1.824816 1_555
F19 Li2 1.992361 1_555
F20 Ti4 1.824816 1_555
F20 Li5 1.992361 1_555
F21 Ti5 1.824816 1_555
F21 Li4 1.992361 1_555
F22 Ti6 1.824816 1_555
F22 Li7 1.992361 1_555
F23 Ti7 1.824816 1_555
F23 Li6 1.992361 1_555
F24 N4 1.841173 1_555
F24 Ti0 2.099365 1_555
F24 Li0 2.290059 1_545
F25 N5 1.841173 1_655
F25 Ti1 2.099365 1_555
F25 Li1 2.290059 1_555
F26 N5 1.841173 1_555
F26 Ti2 2.099365 1_555
F26 Li2 2.290059 1_565
F27 N4 1.841173 1_555
F27 Ti3 2.099365 1_555
F27 Li3 2.290059 1_555
F28 N6 1.841173 1_555
F28 Ti4 2.099365 1_555
F28 Li4 2.290059 1_565
F29 N7 1.841173 1_555
F29 Ti5 2.099365 1_555
F29 Li5 2.290059 1_555
F30 N7 1.841173 1_655
F30 Ti6 2.099365 1_555
F30 Li6 2.290059 1_545
F31 N6 1.841173 1_555
F31 Ti7 2.099365 1_555
F31 Li7 2.290059 1_555
F32 Ti0 1.825171 1_555
F32 Li6 1.978583 1_546
F33 Ti1 1.825171 1_555
F33 Li7 1.978583 1_555
F34 Ti2 1.825171 1_555
F34 Li4 1.978583 1_565
F35 Ti3 1.825171 1_555
F35 Li5 1.978583 1_556
F36 Ti4 1.825171 1_555
F36 Li2 1.978583 1_564
F37 Ti5 1.825171 1_555
F37 Li3 1.978583 1_555
F38 Ti6 1.825171 1_555
F38 Li0 1.978583 1_545
F39 Ti7 1.825171 1_555
F39 Li1 1.978583 1_554
F40 Ti0 1.849720 1_555
F40 Li2 1.995982 1_655
F41 Ti1 1.849720 1_555
F41 Li3 1.995982 1_555
F42 Ti2 1.849720 1_555
F42 Li0 1.995982 1_555
F43 Ti3 1.849720 1_555
F43 Li1 1.995982 1_455
F44 Ti4 1.849720 1_555
F44 Li6 1.995982 1_455
F45 Ti5 1.849720 1_555
F45 Li7 1.995982 1_555
F46 Ti6 1.849720 1_555
F46 Li4 1.995982 1_555
F47 Ti7 1.849720 1_555
F47 Li5 1.995982 1_655
