# generated using pymatgen
data_Zr4Ru2N
_symmetry_space_group_name_H-M   'P 1'
_cell_length_a   8.79697546
_cell_length_b   8.79697546
_cell_length_c   8.79697546
_cell_angle_alpha   60.00000000
_cell_angle_beta   60.00000000
_cell_angle_gamma   60.00000000
_symmetry_Int_Tables_number   1
_chemical_formula_structural   Zr4Ru2N
_chemical_formula_sum   'Zr16 Ru8 N4'
_cell_volume   481.37678629
_cell_formula_units_Z   4
loop_
 _symmetry_equiv_pos_site_id
 _symmetry_equiv_pos_as_xyz
  1  'x, y, z'
loop_
 _atom_site_type_symbol
 _atom_site_label
 _atom_site_symmetry_multiplicity
 _atom_site_fract_x
 _atom_site_fract_y
 _atom_site_fract_z
 _atom_site_occupancy
  Zr  Zr0  1  0.12500000  0.62500000  0.62500000  1
  Zr  Zr1  1  0.62500000  0.12500000  0.62500000  1
  Zr  Zr2  1  0.62500000  0.62500000  0.12500000  1
  Zr  Zr3  1  0.62500000  0.62500000  0.62500000  1
  Zr  Zr4  1  0.81575600  0.81575600  0.18424400  1
  Zr  Zr5  1  0.18424400  0.18424400  0.81575600  1
  Zr  Zr6  1  0.81575600  0.18424400  0.81575600  1
  Zr  Zr7  1  0.18424400  0.81575600  0.18424400  1
  Zr  Zr8  1  0.18424400  0.81575600  0.81575600  1
  Zr  Zr9  1  0.81575600  0.18424400  0.18424400  1
  Zr  Zr10  1  0.43424400  0.43424400  0.06575600  1
  Zr  Zr11  1  0.06575600  0.06575600  0.43424400  1
  Zr  Zr12  1  0.43424400  0.06575600  0.43424400  1
  Zr  Zr13  1  0.06575600  0.43424400  0.06575600  1
  Zr  Zr14  1  0.06575600  0.43424400  0.43424400  1
  Zr  Zr15  1  0.43424400  0.06575600  0.06575600  1
  Ru  Ru0  1  0.76098700  0.41300400  0.41300400  1
  Ru  Ru1  1  0.41300400  0.76098700  0.41300400  1
  Ru  Ru2  1  0.41300400  0.41300400  0.76098700  1
  Ru  Ru3  1  0.41300400  0.41300400  0.41300400  1
  Ru  Ru4  1  0.48901300  0.83699600  0.83699600  1
  Ru  Ru5  1  0.83699600  0.48901300  0.83699600  1
  Ru  Ru6  1  0.83699600  0.83699600  0.48901300  1
  Ru  Ru7  1  0.83699600  0.83699600  0.83699600  1
  N  N0  1  0.62500000  0.12500000  0.12500000  1
  N  N1  1  0.12500000  0.62500000  0.12500000  1
  N  N2  1  0.12500000  0.12500000  0.62500000  1
  N  N3  1  0.12500000  0.12500000  0.12500000  1
loop_
_geom_bond_atom_site_label_1
_geom_bond_atom_site_label_2
_geom_bond_distance
_geom_bond_site_symmetry_2
Ru0 Zr2 2.720833 1_555
Ru0 Zr1 2.720833 1_555
Ru0 Zr3 2.720840 1_555
Ru0 Zr13 2.880036 1_655
Ru0 Zr11 2.880036 1_655
Ru0 Zr14 2.880041 1_655
Ru1 Zr0 2.720833 1_555
Ru1 Zr2 2.720833 1_555
Ru1 Zr3 2.720840 1_555
Ru1 Zr15 2.880036 1_565
Ru1 Zr11 2.880036 1_565
Ru1 Zr12 2.880041 1_565
Ru2 Zr0 2.720833 1_555
Ru2 Zr1 2.720833 1_555
Ru2 Zr3 2.720840 1_555
Ru2 Zr15 2.880036 1_556
Ru2 Zr13 2.880036 1_556
Ru2 Zr10 2.880041 1_556
Ru3 Zr0 2.720838 1_555
Ru3 Zr2 2.720838 1_555
Ru3 Zr1 2.720838 1_555
Ru3 Zr10 2.880032 1_555
Ru3 Zr12 2.880032 1_555
Ru3 Zr14 2.880032 1_555
Ru4 Zr2 2.720833 1_556
Ru4 Zr1 2.720833 1_565
Ru4 Zr3 2.720840 1_555
Ru4 Zr7 2.880036 1_556
Ru4 Zr5 2.880036 1_565
Ru4 Zr8 2.880041 1_555
Ru5 Zr0 2.720833 1_655
Ru5 Zr2 2.720833 1_556
Ru5 Zr3 2.720840 1_555
Ru5 Zr9 2.880036 1_556
Ru5 Zr5 2.880036 1_655
Ru5 Zr6 2.880041 1_555
Ru6 Zr0 2.720833 1_655
Ru6 Zr1 2.720833 1_565
Ru6 Zr3 2.720840 1_555
Ru6 Zr9 2.880036 1_565
Ru6 Zr7 2.880036 1_655
Ru6 Zr4 2.880041 1_555
Ru7 Zr2 2.720838 1_556
Ru7 Zr1 2.720838 1_565
Ru7 Zr0 2.720838 1_655
Ru7 Zr6 2.880032 1_565
Ru7 Zr4 2.880032 1_556
Ru7 Zr8 2.880032 1_655
N0 Zr6 2.319462 1_554
N0 Zr15 2.319462 1_555
N0 Zr4 2.319462 1_545
N0 Zr10 2.319462 1_555
N0 Zr12 2.319462 1_555
N0 Zr9 2.319462 1_555
N1 Zr8 2.319462 1_554
N1 Zr4 2.319462 1_455
N1 Zr13 2.319462 1_555
N1 Zr7 2.319462 1_555
N1 Zr10 2.319462 1_555
N1 Zr14 2.319462 1_555
N2 Zr8 2.319462 1_545
N2 Zr6 2.319462 1_455
N2 Zr11 2.319462 1_555
N2 Zr14 2.319462 1_555
N2 Zr5 2.319462 1_555
N2 Zr12 2.319462 1_555
N3 Zr7 2.319462 1_545
N3 Zr9 2.319462 1_455
N3 Zr5 2.319462 1_554
N3 Zr13 2.319462 1_555
N3 Zr11 2.319462 1_555
N3 Zr15 2.319462 1_555
