# generated using pymatgen
data_Nd26Ga7Co10
_symmetry_space_group_name_H-M   'P 1'
_cell_length_a   11.95075000
_cell_length_b   11.95075000
_cell_length_c   15.43004400
_cell_angle_alpha   90.00000000
_cell_angle_beta   90.00000000
_cell_angle_gamma   90.00000000
_symmetry_Int_Tables_number   1
_chemical_formula_structural   Nd26Ga7Co10
_chemical_formula_sum   'Nd52 Ga14 Co20'
_cell_volume   2203.72545053
_cell_formula_units_Z   2
loop_
 _symmetry_equiv_pos_site_id
 _symmetry_equiv_pos_as_xyz
  1  'x, y, z'
loop_
 _atom_site_type_symbol
 _atom_site_label
 _atom_site_symmetry_multiplicity
 _atom_site_fract_x
 _atom_site_fract_y
 _atom_site_fract_z
 _atom_site_occupancy
  Nd  Nd0  1  0.57441300  0.70638800  0.88165900  1
  Nd  Nd1  1  0.42558700  0.29361200  0.88165900  1
  Nd  Nd2  1  0.92558700  0.20638800  0.88165900  1
  Nd  Nd3  1  0.07441300  0.79361200  0.88165900  1
  Nd  Nd4  1  0.70638800  0.42558700  0.88165900  1
  Nd  Nd5  1  0.29361200  0.57441300  0.88165900  1
  Nd  Nd6  1  0.20638800  0.07441300  0.88165900  1
  Nd  Nd7  1  0.79361200  0.92558700  0.88165900  1
  Nd  Nd8  1  0.42558700  0.29361200  0.11834100  1
  Nd  Nd9  1  0.57441300  0.70638800  0.11834100  1
  Nd  Nd10  1  0.07441300  0.79361200  0.11834100  1
  Nd  Nd11  1  0.92558700  0.20638800  0.11834100  1
  Nd  Nd12  1  0.29361200  0.57441300  0.11834100  1
  Nd  Nd13  1  0.70638800  0.42558700  0.11834100  1
  Nd  Nd14  1  0.79361200  0.92558700  0.11834100  1
  Nd  Nd15  1  0.20638800  0.07441300  0.11834100  1
  Nd  Nd16  1  0.70620700  0.58062200  0.68743400  1
  Nd  Nd17  1  0.29379300  0.41937800  0.68743400  1
  Nd  Nd18  1  0.79379300  0.08062200  0.68743400  1
  Nd  Nd19  1  0.20620700  0.91937800  0.68743400  1
  Nd  Nd20  1  0.58062200  0.29379300  0.68743400  1
  Nd  Nd21  1  0.41937800  0.70620700  0.68743400  1
  Nd  Nd22  1  0.08062200  0.20620700  0.68743400  1
  Nd  Nd23  1  0.91937800  0.79379300  0.68743400  1
  Nd  Nd24  1  0.29379300  0.41937800  0.31256600  1
  Nd  Nd25  1  0.70620700  0.58062200  0.31256600  1
  Nd  Nd26  1  0.20620700  0.91937800  0.31256600  1
  Nd  Nd27  1  0.79379300  0.08062200  0.31256600  1
  Nd  Nd28  1  0.41937800  0.70620700  0.31256600  1
  Nd  Nd29  1  0.58062200  0.29379300  0.31256600  1
  Nd  Nd30  1  0.91937800  0.79379300  0.31256600  1
  Nd  Nd31  1  0.08062200  0.20620700  0.31256600  1
  Nd  Nd32  1  0.58578400  0.70444100  0.50000000  1
  Nd  Nd33  1  0.41421600  0.29555900  0.50000000  1
  Nd  Nd34  1  0.91421600  0.20444100  0.50000000  1
  Nd  Nd35  1  0.08578400  0.79555900  0.50000000  1
  Nd  Nd36  1  0.70444100  0.41421600  0.50000000  1
  Nd  Nd37  1  0.29555900  0.58578400  0.50000000  1
  Nd  Nd38  1  0.20444100  0.08578400  0.50000000  1
  Nd  Nd39  1  0.79555900  0.91421600  0.50000000  1
  Nd  Nd40  1  0.34103100  0.84103100  0.00000000  1
  Nd  Nd41  1  0.65896900  0.15896900  0.00000000  1
  Nd  Nd42  1  0.15896900  0.34103100  0.00000000  1
  Nd  Nd43  1  0.84103100  0.65896900  0.00000000  1
  Nd  Nd44  1  0.00000000  0.50000000  0.61529200  1
  Nd  Nd45  1  0.50000000  0.00000000  0.61529200  1
  Nd  Nd46  1  0.00000000  0.50000000  0.38470800  1
  Nd  Nd47  1  0.50000000  0.00000000  0.38470800  1
  Nd  Nd48  1  0.00000000  0.50000000  0.84270400  1
  Nd  Nd49  1  0.50000000  0.00000000  0.84270400  1
  Nd  Nd50  1  0.00000000  0.50000000  0.15729600  1
  Nd  Nd51  1  0.50000000  0.00000000  0.15729600  1
  Ga  Ga0  1  0.16224600  0.66224600  0.70705500  1
  Ga  Ga1  1  0.83775400  0.33775400  0.70705500  1
  Ga  Ga2  1  0.33775400  0.16224600  0.70705500  1
  Ga  Ga3  1  0.66224600  0.83775400  0.70705500  1
  Ga  Ga4  1  0.83775400  0.33775400  0.29294500  1
  Ga  Ga5  1  0.16224600  0.66224600  0.29294500  1
  Ga  Ga6  1  0.66224600  0.83775400  0.29294500  1
  Ga  Ga7  1  0.33775400  0.16224600  0.29294500  1
  Ga  Ga8  1  0.34752000  0.84752000  0.50000000  1
  Ga  Ga9  1  0.65248000  0.15248000  0.50000000  1
  Ga  Ga10  1  0.15248000  0.34752000  0.50000000  1
  Ga  Ga11  1  0.84752000  0.65248000  0.50000000  1
  Ga  Ga12  1  0.50000000  0.50000000  0.00000000  1
  Ga  Ga13  1  0.00000000  0.00000000  0.00000000  1
  Co  Co0  1  0.30503000  0.80503000  0.82030600  1
  Co  Co1  1  0.69497000  0.19497000  0.82030600  1
  Co  Co2  1  0.19497000  0.30503000  0.82030600  1
  Co  Co3  1  0.80503000  0.69497000  0.82030600  1
  Co  Co4  1  0.69497000  0.19497000  0.17969400  1
  Co  Co5  1  0.30503000  0.80503000  0.17969400  1
  Co  Co6  1  0.80503000  0.69497000  0.17969400  1
  Co  Co7  1  0.19497000  0.30503000  0.17969400  1
  Co  Co8  1  0.09239800  0.59239800  0.00000000  1
  Co  Co9  1  0.90760200  0.40760200  0.00000000  1
  Co  Co10  1  0.40760200  0.09239800  0.00000000  1
  Co  Co11  1  0.59239800  0.90760200  0.00000000  1
  Co  Co12  1  0.50000000  0.50000000  0.59168000  1
  Co  Co13  1  0.00000000  0.00000000  0.59168000  1
  Co  Co14  1  0.50000000  0.50000000  0.40832000  1
  Co  Co15  1  0.00000000  0.00000000  0.40832000  1
  Co  Co16  1  0.50000000  0.50000000  0.77182100  1
  Co  Co17  1  0.00000000  0.00000000  0.77182100  1
  Co  Co18  1  0.50000000  0.50000000  0.22817900  1
  Co  Co19  1  0.00000000  0.00000000  0.22817900  1
loop_
_geom_bond_atom_site_label_1
_geom_bond_atom_site_label_2
_geom_bond_distance
_geom_bond_site_symmetry_2
Ga0 Nd44 3.086087 1_555
Ga0 Nd19 3.132173 1_555
Ga0 Nd21 3.132173 1_555
Ga0 Nd5 3.290121 1_555
Ga0 Nd3 3.290121 1_555
Ga0 Nd17 3.314718 1_555
Ga0 Nd23 3.314718 1_455
Ga0 Nd48 3.449650 1_555
Ga0 Nd37 3.685163 1_555
Ga0 Nd35 3.685163 1_555
Ga1 Nd44 3.086087 1_655
Ga1 Nd18 3.132173 1_555
Ga1 Nd20 3.132173 1_555
Ga1 Nd2 3.290121 1_555
Ga1 Nd4 3.290121 1_555
Ga1 Nd22 3.314718 1_655
Ga1 Nd16 3.314718 1_555
Ga1 Nd48 3.449650 1_655
Ga1 Nd36 3.685163 1_555
Ga1 Nd34 3.685163 1_555
Ga2 Nd45 3.086087 1_555
Ga2 Nd22 3.132173 1_555
Ga2 Nd17 3.132173 1_555
Ga2 Nd1 3.290121 1_555
Ga2 Nd6 3.290121 1_555
Ga2 Nd20 3.314718 1_555
Ga2 Nd19 3.314718 1_545
Ga2 Nd49 3.449650 1_555
Ga2 Nd33 3.685163 1_555
Ga2 Nd38 3.685163 1_555
Ga3 Nd45 3.086087 1_565
Ga3 Nd23 3.132173 1_555
Ga3 Nd16 3.132173 1_555
Ga3 Nd7 3.290121 1_555
Ga3 Nd0 3.290121 1_555
Ga3 Nd18 3.314718 1_565
Ga3 Nd21 3.314718 1_555
Ga3 Nd49 3.449650 1_565
Ga3 Nd39 3.685163 1_555
Ga3 Nd32 3.685163 1_555
Ga4 Nd46 3.086087 1_655
Ga4 Nd27 3.132173 1_555
Ga4 Nd29 3.132173 1_555
Ga4 Nd11 3.290121 1_555
Ga4 Nd13 3.290121 1_555
Ga4 Nd31 3.314718 1_655
Ga4 Nd25 3.314718 1_555
Ga4 Nd50 3.449650 1_655
Ga4 Nd36 3.685163 1_555
Ga4 Nd34 3.685163 1_555
Ga5 Nd46 3.086087 1_555
Ga5 Nd26 3.132173 1_555
Ga5 Nd28 3.132173 1_555
Ga5 Nd12 3.290121 1_555
Ga5 Nd10 3.290121 1_555
Ga5 Nd24 3.314718 1_555
Ga5 Nd30 3.314718 1_455
Ga5 Nd50 3.449650 1_555
Ga5 Nd37 3.685163 1_555
Ga5 Nd35 3.685163 1_555
Ga6 Nd47 3.086087 1_565
Ga6 Nd30 3.132173 1_555
Ga6 Nd25 3.132173 1_555
Ga6 Nd14 3.290121 1_555
Ga6 Nd9 3.290121 1_555
Ga6 Nd27 3.314718 1_565
Ga6 Nd28 3.314718 1_555
Ga6 Nd51 3.449650 1_565
Ga6 Nd39 3.685163 1_555
Ga6 Nd32 3.685163 1_555
Ga7 Nd47 3.086087 1_555
Ga7 Nd31 3.132173 1_555
Ga7 Nd24 3.132173 1_555
Ga7 Nd8 3.290121 1_555
Ga7 Nd15 3.290121 1_555
Ga7 Nd29 3.314718 1_555
Ga7 Nd26 3.314718 1_545
Ga7 Nd51 3.449650 1_555
Ga7 Nd33 3.685163 1_555
Ga7 Nd38 3.685163 1_555
Ga8 Nd45 3.131436 1_565
Ga8 Nd47 3.131436 1_565
Ga8 Nd35 3.188985 1_555
Ga8 Nd37 3.188985 1_555
Ga8 Nd32 3.321391 1_555
Ga8 Nd38 3.321391 1_565
Ga8 Nd19 3.457430 1_555
Ga8 Nd26 3.457430 1_555
Ga8 Nd21 3.457430 1_555
Ga8 Nd28 3.457430 1_555
Ga9 Nd45 3.131436 1_555
Ga9 Nd47 3.131436 1_555
Ga9 Nd34 3.188985 1_555
Ga9 Nd36 3.188985 1_555
Ga9 Nd33 3.321391 1_555
Ga9 Nd39 3.321391 1_545
Ga9 Nd29 3.457430 1_555
Ga9 Nd20 3.457430 1_555
Ga9 Nd27 3.457430 1_555
Ga9 Nd18 3.457430 1_555
Ga10 Nd44 3.131436 1_555
Ga10 Nd46 3.131436 1_555
Ga10 Nd38 3.188985 1_555
Ga10 Nd33 3.188985 1_555
Ga10 Nd37 3.321391 1_555
Ga10 Nd34 3.321391 1_455
Ga10 Nd17 3.457430 1_555
Ga10 Nd24 3.457430 1_555
Ga10 Nd22 3.457430 1_555
Ga10 Nd31 3.457430 1_555
Ga11 Nd44 3.131436 1_655
Ga11 Nd46 3.131436 1_655
Ga11 Nd39 3.188985 1_555
Ga11 Nd32 3.188985 1_555
Ga11 Nd35 3.321391 1_655
Ga11 Nd36 3.321391 1_555
Ga11 Nd23 3.457430 1_555
Ga11 Nd30 3.457430 1_555
Ga11 Nd25 3.457430 1_555
Ga11 Nd16 3.457430 1_555
Ga12 Nd13 3.195109 1_555
Ga12 Nd12 3.195109 1_555
Ga12 Nd8 3.195109 1_555
Ga12 Nd9 3.195109 1_555
Ga12 Nd5 3.195109 1_554
Ga12 Nd0 3.195109 1_554
Ga12 Nd4 3.195109 1_554
Ga12 Nd1 3.195109 1_554
Ga13 Nd10 3.195109 1_545
Ga13 Nd15 3.195109 1_555
Ga13 Nd11 3.195109 1_455
Ga13 Nd14 3.195109 1_445
Ga13 Nd3 3.195109 1_544
Ga13 Nd6 3.195109 1_554
Ga13 Nd7 3.195109 1_444
Ga13 Nd2 3.195109 1_454
Co0 Nd19 2.732331 1_555
Co0 Nd21 2.732331 1_555
Co0 Nd40 2.838662 1_556
Co0 Nd5 2.917295 1_555
Co0 Nd3 2.917295 1_555
Co0 Ga0 2.979443 1_555
Co0 Nd49 3.313245 1_565
Co0 Nd6 3.556678 1_565
Co0 Nd0 3.556678 1_555
Co1 Nd20 2.732331 1_555
Co1 Nd18 2.732331 1_555
Co1 Nd41 2.838662 1_556
Co1 Nd2 2.917295 1_555
Co1 Nd4 2.917295 1_555
Co1 Ga1 2.979443 1_555
Co1 Nd49 3.313245 1_555
Co1 Nd1 3.556678 1_555
Co1 Nd7 3.556678 1_545
Co2 Nd17 2.732331 1_555
Co2 Nd22 2.732331 1_555
Co2 Nd42 2.838662 1_556
Co2 Nd1 2.917295 1_555
Co2 Nd6 2.917295 1_555
Co2 Ga2 2.979443 1_555
Co2 Nd48 3.313245 1_555
Co2 Nd5 3.556678 1_555
Co2 Nd2 3.556678 1_455
Co3 Nd23 2.732331 1_555
Co3 Nd16 2.732331 1_555
Co3 Nd43 2.838662 1_556
Co3 Nd7 2.917295 1_555
Co3 Nd0 2.917295 1_555
Co3 Ga3 2.979443 1_555
Co3 Nd48 3.313245 1_655
Co3 Nd3 3.556678 1_655
Co3 Nd4 3.556678 1_555
Co4 Nd29 2.732331 1_555
Co4 Nd27 2.732331 1_555
Co4 Nd41 2.838662 1_555
Co4 Nd11 2.917295 1_555
Co4 Nd13 2.917295 1_555
Co4 Ga4 2.979443 1_555
Co4 Nd51 3.313245 1_555
Co4 Nd8 3.556678 1_555
Co4 Nd14 3.556678 1_545
Co5 Nd26 2.732331 1_555
Co5 Nd28 2.732331 1_555
Co5 Nd40 2.838662 1_555
Co5 Nd12 2.917295 1_555
Co5 Nd10 2.917295 1_555
Co5 Ga5 2.979443 1_555
Co5 Nd51 3.313245 1_565
Co5 Nd15 3.556678 1_565
Co5 Nd9 3.556678 1_555
Co6 Nd30 2.732331 1_555
Co6 Nd25 2.732331 1_555
Co6 Nd43 2.838662 1_555
Co6 Nd14 2.917295 1_555
Co6 Nd9 2.917295 1_555
Co6 Ga6 2.979443 1_555
Co6 Nd50 3.313245 1_655
Co6 Nd10 3.556678 1_655
Co6 Nd13 3.556678 1_555
Co7 Nd24 2.732331 1_555
Co7 Nd31 2.732331 1_555
Co7 Nd42 2.838662 1_555
Co7 Nd8 2.917295 1_555
Co7 Nd15 2.917295 1_555
Co7 Ga7 2.979443 1_555
Co7 Nd50 3.313245 1_555
Co7 Nd12 3.556678 1_555
Co7 Nd11 3.556678 1_455
Co8 Nd48 2.886064 1_554
Co8 Nd50 2.886064 1_555
Co8 Nd12 3.027025 1_555
Co8 Nd10 3.027025 1_555
Co8 Nd5 3.027025 1_554
Co8 Nd3 3.027025 1_554
Co8 Nd43 3.107587 1_455
Co8 Nd42 3.107587 1_555
Co9 Nd50 2.886064 1_655
Co9 Nd48 2.886064 1_654
Co9 Nd11 3.027025 1_555
Co9 Nd13 3.027025 1_555
Co9 Nd2 3.027025 1_554
Co9 Nd4 3.027025 1_554
Co9 Nd43 3.107587 1_555
Co9 Nd42 3.107587 1_655
Co10 Nd49 2.886064 1_554
Co10 Nd51 2.886064 1_555
Co10 Nd15 3.027025 1_555
Co10 Nd6 3.027025 1_554
Co10 Nd8 3.027025 1_555
Co10 Nd1 3.027025 1_554
Co10 Nd40 3.107587 1_545
Co10 Nd41 3.107587 1_555
Co11 Nd49 2.886064 1_564
Co11 Nd51 2.886064 1_565
Co11 Nd9 3.027025 1_555
Co11 Nd0 3.027025 1_554
Co11 Nd14 3.027025 1_555
Co11 Nd7 3.027025 1_554
Co11 Nd40 3.107587 1_555
Co11 Nd41 3.107587 1_565
Co12 Co16 2.779584 1_555
Co12 Co14 2.829253 1_555
Co12 Nd32 3.003583 1_555
Co12 Nd36 3.003583 1_555
Co12 Nd37 3.003583 1_555
Co12 Nd33 3.003583 1_555
Co12 Nd16 3.030545 1_555
Co12 Nd21 3.030545 1_555
Co12 Nd20 3.030545 1_555
Co12 Nd17 3.030545 1_555
Co13 Co17 2.779584 1_555
Co13 Co15 2.829253 1_555
Co13 Nd38 3.003583 1_555
Co13 Nd34 3.003583 1_455
Co13 Nd35 3.003583 1_545
Co13 Nd39 3.003583 1_445
Co13 Nd18 3.030545 1_455
Co13 Nd22 3.030545 1_555
Co13 Nd19 3.030545 1_545
Co13 Nd23 3.030545 1_445
Co14 Co18 2.779584 1_555
Co14 Nd32 3.003583 1_555
Co14 Nd36 3.003583 1_555
Co14 Nd37 3.003583 1_555
Co14 Nd33 3.003583 1_555
Co14 Nd28 3.030545 1_555
Co14 Nd25 3.030545 1_555
Co14 Nd29 3.030545 1_555
Co14 Nd24 3.030545 1_555
Co15 Co19 2.779584 1_555
Co15 Nd38 3.003583 1_555
Co15 Nd34 3.003583 1_455
Co15 Nd35 3.003583 1_545
Co15 Nd39 3.003583 1_445
Co15 Nd27 3.030545 1_455
Co15 Nd31 3.030545 1_555
Co15 Nd30 3.030545 1_445
Co15 Nd26 3.030545 1_545
Co16 Nd16 2.949014 1_555
Co16 Nd21 2.949014 1_555
Co16 Nd20 2.949014 1_555
Co16 Nd17 2.949014 1_555
Co16 Nd1 3.121984 1_555
Co16 Nd4 3.121984 1_555
Co16 Nd5 3.121984 1_555
Co16 Nd0 3.121984 1_555
Co17 Nd18 2.949014 1_455
Co17 Nd22 2.949014 1_555
Co17 Nd23 2.949014 1_445
Co17 Nd19 2.949014 1_545
Co17 Nd3 3.121984 1_545
Co17 Nd6 3.121984 1_555
Co17 Nd7 3.121984 1_445
Co17 Nd2 3.121984 1_455
Co18 Nd25 2.949014 1_555
Co18 Nd28 2.949014 1_555
Co18 Nd29 2.949014 1_555
Co18 Nd24 2.949014 1_555
Co18 Nd8 3.121984 1_555
Co18 Nd9 3.121984 1_555
Co18 Nd12 3.121984 1_555
Co18 Nd13 3.121984 1_555
Co19 Nd27 2.949014 1_455
Co19 Nd31 2.949014 1_555
Co19 Nd30 2.949014 1_445
Co19 Nd26 2.949014 1_545
Co19 Nd15 3.121984 1_555
Co19 Nd10 3.121984 1_545
Co19 Nd14 3.121984 1_445
Co19 Nd11 3.121984 1_455
