# generated using pymatgen
data_Ge4(Mo3W)3
_symmetry_space_group_name_H-M   'P 1'
_cell_length_a   4.97234900
_cell_length_b   4.98063200
_cell_length_c   9.97369601
_cell_angle_alpha   89.99489553
_cell_angle_beta   90.00000000
_cell_angle_gamma   90.00000000
_symmetry_Int_Tables_number   1
_chemical_formula_structural   Ge4(Mo3W)3
_chemical_formula_sum   'Ge4 Mo9 W3'
_cell_volume   247.00297481
_cell_formula_units_Z   1
loop_
 _symmetry_equiv_pos_site_id
 _symmetry_equiv_pos_as_xyz
  1  'x, y, z'
loop_
 _atom_site_type_symbol
 _atom_site_label
 _atom_site_symmetry_multiplicity
 _atom_site_fract_x
 _atom_site_fract_y
 _atom_site_fract_z
 _atom_site_occupancy
  Ge  Ge0  1  0.50000000  0.50014700  0.24986100  1
  Ge  Ge1  1  0.50000000  0.50015500  0.74979200  1
  Ge  Ge2  1  0.00000000  0.99967600  0.00017900  1
  Ge  Ge3  1  0.00000000  0.99997400  0.50014800  1
  Mo  Mo0  1  0.50000000  0.25018800  0.49972600  1
  Mo  Mo1  1  0.75037700  0.00024400  0.25013000  1
  Mo  Mo2  1  0.75015200  0.00024600  0.75037900  1
  Mo  Mo3  1  0.00000000  0.49951800  0.12504600  1
  Mo  Mo4  1  0.00000000  0.49996900  0.62496900  1
  Mo  Mo5  1  0.50000000  0.74976900  0.99975900  1
  Mo  Mo6  1  0.50000000  0.74974700  0.49973400  1
  Mo  Mo7  1  0.24962300  0.00024400  0.25013000  1
  Mo  Mo8  1  0.24984800  0.00024600  0.75037900  1
  W  W0  1  0.00000000  0.49999700  0.37504500  1
  W  W1  1  0.00000000  0.49946800  0.87497200  1
  W  W2  1  0.50000000  0.25041000  0.99975000  1
loop_
_geom_bond_atom_site_label_1
_geom_bond_atom_site_label_2
_geom_bond_distance
_geom_bond_site_symmetry_2
Ge0 Mo3 2.780426 1_655
Ge0 Mo3 2.780426 1_555
Ge0 W0 2.782074 1_555
Ge0 W0 2.782074 1_655
Ge0 Mo1 2.783739 1_555
Ge0 Mo7 2.783739 1_555
Ge0 Mo1 2.784604 1_565
Ge0 Mo7 2.784604 1_565
Ge0 Mo6 2.785114 1_555
Ge0 Mo0 2.785643 1_555
Ge0 Mo5 2.787009 1_554
Ge0 W2 2.787543 1_554
Ge1 Mo4 2.780460 1_655
Ge1 Mo4 2.780460 1_555
Ge1 W1 2.782058 1_555
Ge1 W1 2.782058 1_655
Ge1 Mo2 2.783270 1_555
Ge1 Mo8 2.783270 1_555
Ge1 Mo2 2.784082 1_565
Ge1 Mo8 2.784082 1_565
Ge1 Mo5 2.785984 1_555
Ge1 W2 2.785997 1_555
Ge1 Mo6 2.786549 1_555
Ge1 Mo0 2.787653 1_555
Ge2 Mo5 2.780350 1_554
Ge2 Mo5 2.780350 1_454
Ge2 W2 2.782196 1_464
Ge2 W2 2.782196 1_564
Ge2 Mo3 2.783755 1_565
Ge2 Mo8 2.783992 1_564
Ge2 Mo2 2.783992 1_464
Ge2 Mo7 2.784842 1_565
Ge2 Mo1 2.784842 1_465
Ge2 W1 2.784853 1_564
Ge2 Mo3 2.784964 1_555
Ge2 W1 2.786904 1_554
Ge3 Mo0 2.781035 1_465
Ge3 Mo0 2.781035 1_565
Ge3 Mo6 2.781064 1_555
Ge3 Mo6 2.781064 1_455
Ge3 Mo4 2.784078 1_555
Ge3 Mo4 2.784231 1_565
Ge3 W0 2.785410 1_555
Ge3 W0 2.785416 1_565
Ge3 Mo7 2.785439 1_565
Ge3 Mo1 2.785439 1_465
Ge3 Mo8 2.787839 1_565
Ge3 Mo2 2.787839 1_465
Mo0 Mo6 2.488120 1_555
Mo0 Mo6 2.492512 1_545
Mo0 W0 3.045522 1_655
Mo0 W0 3.045522 1_555
Mo0 Mo4 3.047849 1_655
Mo0 Mo4 3.047849 1_555
Mo0 Mo1 3.049146 1_555
Mo0 Mo7 3.049146 1_555
Mo0 Mo2 3.057119 1_555
Mo0 Mo8 3.057119 1_555
Mo1 Mo7 2.482425 1_655
Mo1 Mo7 2.489924 1_555
Mo1 Mo3 3.046328 1_655
Mo1 W0 3.047768 1_655
Mo1 W0 3.049596 1_645
Mo1 Mo6 3.050155 1_545
Mo1 Mo3 3.052415 1_645
Mo1 W2 3.055803 1_554
Mo1 Mo5 3.056539 1_544
Mo2 Mo8 2.484663 1_655
Mo2 Mo8 2.487686 1_555
Mo2 W1 3.044752 1_655
Mo2 W2 3.047305 1_555
Mo2 Mo5 3.047835 1_545
Mo2 Mo4 3.049941 1_655
Mo2 W1 3.050903 1_645
Mo2 Mo4 3.052375 1_645
Mo2 Mo6 3.058366 1_545
Mo3 W0 2.493415 1_555
Mo3 W1 2.494162 1_554
Mo3 Mo7 3.046328 1_555
Mo3 Mo7 3.052415 1_565
Mo4 W0 2.492666 1_555
Mo4 W1 2.493455 1_555
Mo4 Mo6 3.047719 1_555
Mo4 Mo6 3.047719 1_455
Mo4 Mo8 3.049941 1_555
Mo4 Mo8 3.052375 1_565
Mo5 W2 2.487123 1_555
Mo5 W2 2.493509 1_565
Mo5 Mo8 3.047835 1_565
Mo5 Mo7 3.056539 1_566
Mo6 W0 3.045525 1_655
Mo6 W0 3.045525 1_555
Mo6 Mo7 3.050155 1_565
Mo6 Mo8 3.058366 1_565
Mo7 W0 3.047768 1_555
Mo7 W0 3.049596 1_545
Mo7 W2 3.055803 1_554
Mo8 W1 3.044752 1_555
Mo8 W2 3.047305 1_555
Mo8 W1 3.050903 1_545
