# generated using pymatgen
data_BaLaTiFeO6
_symmetry_space_group_name_H-M   'P 1'
_cell_length_a   5.65273465
_cell_length_b   5.65273465
_cell_length_c   9.79082279
_cell_angle_alpha   73.22134800
_cell_angle_beta   73.22134800
_cell_angle_gamma   60.00000000
_symmetry_Int_Tables_number   1
_chemical_formula_structural   BaLaTiFeO6
_chemical_formula_sum   'Ba2 La2 Ti2 Fe2 O12'
_cell_volume   255.44109523
_cell_formula_units_Z   2
loop_
 _symmetry_equiv_pos_site_id
 _symmetry_equiv_pos_as_xyz
  1  'x, y, z'
loop_
 _atom_site_type_symbol
 _atom_site_label
 _atom_site_symmetry_multiplicity
 _atom_site_fract_x
 _atom_site_fract_y
 _atom_site_fract_z
 _atom_site_occupancy
  Ba  Ba0  1  0.87500000  0.87500000  0.37500000  1
  Ba  Ba1  1  0.37500000  0.37500000  0.87500000  1
  La  La0  1  0.62500000  0.62500000  0.12500000  1
  La  La1  1  0.12500000  0.12500000  0.62500000  1
  Ti  Ti0  1  0.25000000  0.25000000  0.25000000  1
  Ti  Ti1  1  0.75000000  0.75000000  0.75000000  1
  Fe  Fe0  1  0.50000000  0.50000000  0.50000000  1
  Fe  Fe1  1  0.00000000  0.00000000  0.00000000  1
  O  O0  1  0.37333400  0.37333400  0.37333400  1
  O  O1  1  0.87333400  0.87333400  0.87333400  1
  O  O2  1  0.12666600  0.12666600  0.12666600  1
  O  O3  1  0.62666600  0.62666600  0.62666600  1
  O  O4  1  0.12666600  0.62000300  0.12666600  1
  O  O5  1  0.62666600  0.12000300  0.62666600  1
  O  O6  1  0.37333400  0.87999700  0.37333400  1
  O  O7  1  0.87333400  0.37999700  0.87333400  1
  O  O8  1  0.62000300  0.12666600  0.12666600  1
  O  O9  1  0.12000300  0.62666600  0.62666600  1
  O  O10  1  0.87999700  0.37333400  0.37333400  1
  O  O11  1  0.37999700  0.87333400  0.87333400  1
loop_
_geom_bond_atom_site_label_1
_geom_bond_atom_site_label_2
_geom_bond_distance
_geom_bond_site_symmetry_2
Ba0 O4 2.826490 1_655
Ba0 O8 2.826490 1_565
Ba0 O10 2.826490 1_565
Ba0 O6 2.826490 1_655
Ba0 O3 2.826493 1_555
Ba0 O0 2.826493 1_655
Ba0 O0 2.826493 1_565
Ba0 O2 2.826493 1_665
Ba0 O9 2.826495 1_655
Ba0 O5 2.826495 1_565
Ba0 O10 2.826496 1_555
Ba0 O6 2.826496 1_555
Ba1 O5 2.826490 1_555
Ba1 O9 2.826490 1_555
Ba1 O7 2.826490 1_555
Ba1 O11 2.826490 1_555
Ba1 O2 2.826493 1_556
Ba1 O1 2.826493 1_545
Ba1 O1 2.826493 1_455
Ba1 O3 2.826493 1_555
Ba1 O4 2.826495 1_556
Ba1 O8 2.826495 1_556
Ba1 O11 2.826496 1_545
Ba1 O7 2.826496 1_455
La0 O10 2.826490 1_555
La0 O6 2.826490 1_555
La0 O4 2.826490 1_555
La0 O8 2.826490 1_555
La0 O1 2.826493 1_554
La0 O2 2.826493 1_655
La0 O2 2.826493 1_565
La0 O0 2.826493 1_555
La0 O11 2.826495 1_554
La0 O7 2.826495 1_554
La0 O4 2.826496 1_655
La0 O8 2.826496 1_565
La1 O11 2.826490 1_545
La1 O7 2.826490 1_455
La1 O5 2.826490 1_455
La1 O9 2.826490 1_545
La1 O0 2.826493 1_555
La1 O3 2.826493 1_455
La1 O3 2.826493 1_545
La1 O1 2.826493 1_445
La1 O6 2.826495 1_545
La1 O10 2.826495 1_455
La1 O9 2.826496 1_555
La1 O5 2.826496 1_555
Fe0 O10 2.025176 1_555
Fe0 O6 2.025176 1_555
Fe0 O5 2.025176 1_555
Fe0 O9 2.025176 1_555
Fe0 O3 2.025180 1_555
Fe0 O0 2.025180 1_555
Fe1 O4 2.025176 1_545
Fe1 O8 2.025176 1_455
Fe1 O11 2.025176 1_544
Fe1 O7 2.025176 1_454
Fe1 O2 2.025180 1_555
Fe1 O1 2.025180 1_444
O0 Ti0 1.971907 1_555
O1 Ti1 1.971907 1_555
O2 Ti0 1.971907 1_555
O3 Ti1 1.971907 1_555
O4 Ti0 1.971911 1_555
O5 Ti1 1.971911 1_545
O6 Ti0 1.971911 1_565
O7 Ti1 1.971911 1_555
O8 Ti0 1.971911 1_555
O9 Ti1 1.971911 1_455
O10 Ti0 1.971911 1_655
O11 Ti1 1.971911 1_555
