# generated using pymatgen
data_Li4Mn3O7
_symmetry_space_group_name_H-M   'P 1'
_cell_length_a   15.56012822
_cell_length_b   15.56012822
_cell_length_c   5.85905480
_cell_angle_alpha   85.37663295
_cell_angle_beta   85.37663295
_cell_angle_gamma   10.61967230
_symmetry_Int_Tables_number   1
_chemical_formula_structural   Li4Mn3O7
_chemical_formula_sum   'Li8 Mn6 O14'
_cell_volume   260.57046121
_cell_formula_units_Z   2
loop_
 _symmetry_equiv_pos_site_id
 _symmetry_equiv_pos_as_xyz
  1  'x, y, z'
loop_
 _atom_site_type_symbol
 _atom_site_label
 _atom_site_symmetry_multiplicity
 _atom_site_fract_x
 _atom_site_fract_y
 _atom_site_fract_z
 _atom_site_occupancy
  Li  Li0  1  0.50000000  0.50000000  0.50000000  1
  Li  Li1  1  0.36115000  0.36115000  0.06870500  1
  Li  Li2  1  0.21490300  0.21490300  0.64287600  1
  Li  Li3  1  0.93547000  0.93547000  0.78860500  1
  Li  Li4  1  0.78509700  0.78509700  0.35712400  1
  Li  Li5  1  0.63885000  0.63885000  0.93129500  1
  Li  Li6  1  0.06453000  0.06453000  0.21139500  1
  Li  Li7  1  0.50000000  0.50000000  0.00000000  1
  Mn  Mn0  1  0.06500900  0.06500900  0.72162600  1
  Mn  Mn1  1  0.93499100  0.93499100  0.27837400  1
  Mn  Mn2  1  0.78708700  0.78708700  0.85561400  1
  Mn  Mn3  1  0.63875700  0.63875700  0.43190100  1
  Mn  Mn4  1  0.36124300  0.36124300  0.56809900  1
  Mn  Mn5  1  0.21291300  0.21291300  0.14438600  1
  O  O0  1  0.56814100  0.56814100  0.49114600  1
  O  O1  1  0.42911200  0.42911200  0.06016400  1
  O  O2  1  0.28543600  0.28543600  0.62653700  1
  O  O3  1  0.00658300  0.00658300  0.74977200  1
  O  O4  1  0.86350600  0.86350600  0.33770100  1
  O  O5  1  0.71207600  0.71207600  0.91578900  1
  O  O6  1  0.14006500  0.14006500  0.20413200  1
  O  O7  1  0.43185900  0.43185900  0.50885400  1
  O  O8  1  0.28792400  0.28792400  0.08421100  1
  O  O9  1  0.13649400  0.13649400  0.66229900  1
  O  O10  1  0.85993500  0.85993500  0.79586800  1
  O  O11  1  0.71456400  0.71456400  0.37346300  1
  O  O12  1  0.57088800  0.57088800  0.93983600  1
  O  O13  1  0.99341700  0.99341700  0.25022800  1
loop_
_geom_bond_atom_site_label_1
_geom_bond_atom_site_label_2
_geom_bond_distance
_geom_bond_site_symmetry_2
Li0 O3 2.074859 1_655
Li0 O3 2.074859 1_565
Li0 O13 2.074859 1_455
Li0 O13 2.074859 1_545
Li0 O0 2.107900 1_555
Li0 O7 2.107900 1_555
Li1 O1 2.102460 1_555
Li1 O4 2.140423 1_545
Li1 O4 2.140423 1_455
Li1 O10 2.154079 1_544
Li1 O10 2.154079 1_454
Li1 O8 2.263491 1_555
Li2 O11 2.137277 1_545
Li2 O11 2.137277 1_455
Li2 O5 2.148328 1_545
Li2 O5 2.148328 1_455
Li2 O2 2.179925 1_555
Li2 O9 2.423081 1_555
Li3 O1 2.143146 1_566
Li3 O1 2.143146 1_656
Li3 O7 2.191407 1_565
Li3 O7 2.191407 1_655
Li3 O3 2.196876 1_665
Li3 O10 2.337521 1_555
Li4 O2 2.137277 1_655
Li4 O2 2.137277 1_565
Li4 O8 2.148328 1_565
Li4 O8 2.148328 1_655
Li4 O11 2.179925 1_555
Li4 O4 2.423081 1_555
Li5 O12 2.102460 1_555
Li5 O9 2.140423 1_655
Li5 O9 2.140423 1_565
Li5 O6 2.154079 1_656
Li5 O6 2.154079 1_566
Li5 O5 2.263491 1_555
Li6 O12 2.143146 1_544
Li6 O12 2.143146 1_454
Li6 O0 2.191407 1_545
Li6 O0 2.191407 1_455
Li6 O13 2.196876 1_445
Li6 O6 2.337521 1_555
Li7 O3 2.053319 1_654
Li7 O3 2.053319 1_564
Li7 O13 2.053319 1_455
Li7 O13 2.053319 1_545
Li7 O12 2.196335 1_554
Li7 O1 2.196335 1_555
Mn0 O3 1.804581 1_555
Mn0 O12 1.943952 1_455
Mn0 O12 1.943952 1_545
Mn0 O0 1.971103 1_545
Mn0 O0 1.971103 1_455
Mn0 O9 2.214219 1_555
Mn1 O13 1.804581 1_555
Mn1 O1 1.943952 1_655
Mn1 O1 1.943952 1_565
Mn1 O7 1.971103 1_655
Mn1 O7 1.971103 1_565
Mn1 O4 2.214219 1_555
Mn2 O8 1.968163 1_656
Mn2 O8 1.968163 1_566
Mn2 O2 1.971965 1_655
Mn2 O2 1.971965 1_565
Mn2 O10 2.256124 1_555
Mn2 O5 2.322542 1_555
Mn3 O6 1.961450 1_655
Mn3 O6 1.961450 1_565
Mn3 O9 1.971126 1_655
Mn3 O9 1.971126 1_565
Mn3 O0 2.187590 1_555
Mn3 O11 2.346244 1_555
Mn4 O10 1.961450 1_545
Mn4 O10 1.961450 1_455
Mn4 O4 1.971126 1_545
Mn4 O4 1.971126 1_455
Mn4 O7 2.187590 1_555
Mn4 O2 2.346244 1_555
Mn5 O5 1.968163 1_454
Mn5 O5 1.968163 1_544
Mn5 O11 1.971965 1_545
Mn5 O11 1.971965 1_455
Mn5 O6 2.256124 1_555
Mn5 O8 2.322542 1_555
