# generated using pymatgen
data_CsMg6Bi
_symmetry_space_group_name_H-M   'P 1'
_cell_length_a   7.19809828
_cell_length_b   7.19809828
_cell_length_c   5.31855900
_cell_angle_alpha   90.00000000
_cell_angle_beta   90.00000000
_cell_angle_gamma   120.60453028
_symmetry_Int_Tables_number   1
_chemical_formula_structural   CsMg6Bi
_chemical_formula_sum   'Cs1 Mg6 Bi1'
_cell_volume   237.18227171
_cell_formula_units_Z   1
loop_
 _symmetry_equiv_pos_site_id
 _symmetry_equiv_pos_as_xyz
  1  'x, y, z'
loop_
 _atom_site_type_symbol
 _atom_site_label
 _atom_site_symmetry_multiplicity
 _atom_site_fract_x
 _atom_site_fract_y
 _atom_site_fract_z
 _atom_site_occupancy
  Cs  Cs0  1  0.83289300  0.16710700  0.50000000  1
  Mg  Mg0  1  0.33728700  0.17095900  0.50000000  1
  Mg  Mg1  1  0.82904100  0.66271300  0.50000000  1
  Mg  Mg2  1  0.20035700  0.34454700  0.00000000  1
  Mg  Mg3  1  0.65545300  0.79964300  0.00000000  1
  Mg  Mg4  1  0.64750200  0.35249800  0.00000000  1
  Mg  Mg5  1  0.16039900  0.83960100  0.00000000  1
  Bi  Bi0  1  0.33707100  0.66292900  0.50000000  1
loop_
_geom_bond_atom_site_label_1
_geom_bond_atom_site_label_2
_geom_bond_distance
_geom_bond_site_symmetry_2
Cs0 Mg2 3.501350 1_655
Cs0 Mg2 3.501350 1_656
Cs0 Mg3 3.501350 1_545
Cs0 Mg3 3.501350 1_546
Cs0 Mg4 3.527972 1_556
Cs0 Mg4 3.527972 1_555
Cs0 Mg0 3.581616 1_555
Cs0 Mg1 3.581616 1_555
Cs0 Mg1 3.616640 1_545
Cs0 Mg0 3.616640 1_655
Mg0 Mg4 3.285480 1_556
Mg0 Mg4 3.285480 1_555
Mg0 Mg2 3.295223 1_556
Mg0 Mg2 3.295223 1_555
Mg0 Mg5 3.360007 1_545
Mg0 Mg5 3.360007 1_546
Mg0 Mg1 3.507301 1_555
Mg0 Mg1 3.624925 1_445
Mg1 Mg4 3.285480 1_556
Mg1 Mg4 3.285480 1_555
Mg1 Mg3 3.295223 1_555
Mg1 Mg3 3.295223 1_556
Mg1 Mg5 3.360007 1_656
Mg1 Mg5 3.360007 1_655
Mg2 Mg4 3.189837 1_555
Mg2 Mg3 3.245848 1_555
Mg2 Mg5 3.496993 1_545
Mg3 Mg4 3.189837 1_555
Mg3 Mg5 3.496993 1_655
Mg4 Mg5 3.569758 1_655
Mg4 Mg5 3.569758 1_545
Bi0 Mg2 3.316011 1_556
Bi0 Mg3 3.316011 1_555
Bi0 Mg3 3.316011 1_556
Bi0 Mg2 3.316011 1_555
Bi0 Mg5 3.457298 1_556
Bi0 Mg5 3.457298 1_555
Bi0 Mg1 3.542040 1_555
Bi0 Mg0 3.542040 1_555
Bi0 Cs0 3.566496 1_455
Bi0 Cs0 3.566496 1_565
Bi0 Mg0 3.656059 1_565
Bi0 Mg1 3.656059 1_455
