# generated using pymatgen
data_Ba2NdNb(CuO4)2
_symmetry_space_group_name_H-M   'P 1'
_cell_length_a   4.00206600
_cell_length_b   4.00206600
_cell_length_c   12.19306300
_cell_angle_alpha   90.00000000
_cell_angle_beta   90.00000000
_cell_angle_gamma   90.00000000
_symmetry_Int_Tables_number   1
_chemical_formula_structural   Ba2NdNb(CuO4)2
_chemical_formula_sum   'Ba2 Nd1 Nb1 Cu2 O8'
_cell_volume   195.29058699
_cell_formula_units_Z   1
loop_
 _symmetry_equiv_pos_site_id
 _symmetry_equiv_pos_as_xyz
  1  'x, y, z'
loop_
 _atom_site_type_symbol
 _atom_site_label
 _atom_site_symmetry_multiplicity
 _atom_site_fract_x
 _atom_site_fract_y
 _atom_site_fract_z
 _atom_site_occupancy
  Ba  Ba0  1  0.50000000  0.50000000  0.80412700  1
  Ba  Ba1  1  0.50000000  0.50000000  0.19587300  1
  Nd  Nd0  1  0.50000000  0.50000000  0.50000000  1
  Nb  Nb0  1  0.00000000  0.00000000  0.00000000  1
  Cu  Cu0  1  0.00000000  0.00000000  0.36092700  1
  Cu  Cu1  1  0.00000000  0.00000000  0.63907300  1
  O  O0  1  0.50000000  0.00000000  0.62460100  1
  O  O1  1  0.00000000  0.50000000  0.62460100  1
  O  O2  1  0.50000000  0.00000000  0.37539900  1
  O  O3  1  0.00000000  0.50000000  0.37539900  1
  O  O4  1  0.00000000  0.50000000  0.00000000  1
  O  O5  1  0.50000000  0.00000000  0.00000000  1
  O  O6  1  0.00000000  0.00000000  0.16394800  1
  O  O7  1  0.00000000  0.00000000  0.83605200  1
loop_
_geom_bond_atom_site_label_1
_geom_bond_atom_site_label_2
_geom_bond_distance
_geom_bond_site_symmetry_2
Ba0 O7 2.856535 1_655
Ba0 O7 2.856535 1_555
Ba0 O7 2.856535 1_565
Ba0 O7 2.856535 1_665
Ba0 O1 2.965760 1_555
Ba0 O0 2.965760 1_555
Ba0 O0 2.965760 1_565
Ba0 O1 2.965760 1_655
Ba0 O4 3.115778 1_656
Ba0 O5 3.115778 1_556
Ba0 O5 3.115778 1_566
Ba0 O4 3.115778 1_556
Ba1 O6 2.856535 1_555
Ba1 O6 2.856535 1_655
Ba1 O6 2.856535 1_565
Ba1 O6 2.856535 1_665
Ba1 O3 2.965760 1_555
Ba1 O2 2.965760 1_565
Ba1 O3 2.965760 1_655
Ba1 O2 2.965760 1_555
Ba1 O5 3.115778 1_555
Ba1 O5 3.115778 1_565
Ba1 O4 3.115778 1_655
Ba1 O4 3.115778 1_555
Nd0 O1 2.512431 1_655
Nd0 O1 2.512431 1_555
Nd0 O0 2.512431 1_555
Nd0 O0 2.512431 1_565
Nd0 O2 2.512431 1_555
Nd0 O3 2.512431 1_555
Nd0 O3 2.512431 1_655
Nd0 O2 2.512431 1_565
Nb0 O6 1.999028 1_555
Nb0 O7 1.999028 1_554
Nb0 O5 2.001033 1_455
Nb0 O4 2.001033 1_555
Nb0 O5 2.001033 1_555
Nb0 O4 2.001033 1_545
Cu0 O3 2.008798 1_555
Cu0 O2 2.008798 1_455
Cu0 O3 2.008798 1_545
Cu0 O2 2.008798 1_555
Cu0 O6 2.401777 1_555
Cu1 O1 2.008798 1_545
Cu1 O1 2.008798 1_555
Cu1 O0 2.008798 1_555
Cu1 O0 2.008798 1_455
Cu1 O7 2.401777 1_555
