# generated using pymatgen
data_CaV4(GeO4)4
_symmetry_space_group_name_H-M   'P 1'
_cell_length_a   4.94770148
_cell_length_b   5.46672317
_cell_length_c   11.39158965
_cell_angle_alpha   92.25620338
_cell_angle_beta   89.30201058
_cell_angle_gamma   83.46507562
_symmetry_Int_Tables_number   1
_chemical_formula_structural   CaV4(GeO4)4
_chemical_formula_sum   'Ca1 V4 Ge4 O16'
_cell_volume   305.83413358
_cell_formula_units_Z   1
loop_
 _symmetry_equiv_pos_site_id
 _symmetry_equiv_pos_as_xyz
  1  'x, y, z'
loop_
 _atom_site_type_symbol
 _atom_site_label
 _atom_site_symmetry_multiplicity
 _atom_site_fract_x
 _atom_site_fract_y
 _atom_site_fract_z
 _atom_site_occupancy
  Ca  Ca0  1  0.47013500  0.52878300  0.38428600  1
  V  V0  1  0.85939400  0.64616700  0.59535700  1
  V  V1  1  0.52974400  0.75338300  0.04927500  1
  V  V2  1  0.50107000  0.23876200  0.92775400  1
  V  V3  1  0.03683000  0.15440900  0.43905700  1
  Ge  Ge0  1  0.05397100  0.80613900  0.83203400  1
  Ge  Ge1  1  0.37823000  0.25814500  0.67710800  1
  Ge  Ge2  1  0.61858700  0.97614600  0.28035600  1
  Ge  Ge3  1  0.95994800  0.20085000  0.12848100  1
  O  O0  1  0.32095000  0.17316600  0.32264400  1
  O  O1  1  0.07742000  0.50057200  0.47993200  1
  O  O2  1  0.28702700  0.12948100  0.06086500  1
  O  O3  1  0.25730500  0.04849100  0.57237700  1
  O  O4  1  0.43705300  0.72907400  0.21831400  1
  O  O5  1  0.24608900  0.06741500  0.81511900  1
  O  O6  1  0.12594300  0.53031600  0.71639400  1
  O  O7  1  0.27054000  0.61669600  0.94278900  1
  O  O8  1  0.74259200  0.39490800  0.03613100  1
  O  O9  1  0.82168700  0.28124700  0.27755300  1
  O  O10  1  0.84013800  0.90539100  0.14812000  1
  O  O11  1  0.62005200  0.32802300  0.79333200  1
  O  O12  1  0.77948800  0.89702200  0.41791700  1
  O  O13  1  0.75064800  0.91309900  0.93005900  1
  O  O14  1  0.60613500  0.41269500  0.57283700  1
  O  O15  1  0.79965000  0.88462100  0.70413100  1
loop_
_geom_bond_atom_site_label_1
_geom_bond_atom_site_label_2
_geom_bond_distance
_geom_bond_site_symmetry_2
Ca0 O4 2.220385 1_555
Ca0 O1 2.239682 1_555
Ca0 O0 2.247008 1_555
Ca0 O14 2.348258 1_555
Ca0 O9 2.370251 1_555
Ca0 O12 2.682680 1_555
Ge0 O5 1.818518 1_565
Ge0 O13 1.883907 1_455
Ge0 O7 1.922431 1_555
Ge0 O6 1.961048 1_555
Ge0 O15 1.965022 1_455
Ge1 O3 1.777848 1_555
Ge1 O11 1.852881 1_555
Ge1 O6 1.866389 1_555
Ge1 O14 1.912970 1_555
Ge1 O5 2.060460 1_555
Ge2 O0 1.772443 1_565
Ge2 O12 1.811588 1_555
Ge2 O4 1.829476 1_555
Ge2 O10 1.854119 1_555
Ge2 O9 2.043919 1_565
Ge3 O2 1.779502 1_655
Ge3 O8 1.801229 1_555
Ge3 O10 1.803731 1_545
Ge3 O9 1.841031 1_555
O0 V3 1.934771 1_555
O1 V0 1.792668 1_455
O1 V3 1.964088 1_555
O2 V2 1.988450 1_554
O2 V1 2.258222 1_545
O3 V3 1.948737 1_555
O4 V1 1.987086 1_555
O5 V2 2.080646 1_555
O6 V0 1.991078 1_455
O7 V1 1.964486 1_556
O7 V2 2.242740 1_555
O8 V2 1.966207 1_554
O8 V1 2.115449 1_555
O9 V3 2.231332 1_655
O10 V1 2.139122 1_555
O11 V2 1.741188 1_555
O12 V3 2.011857 1_665
O12 V0 2.497395 1_555
O13 V1 2.018826 1_556
O13 V2 2.049169 1_565
O14 V0 1.900273 1_555
O15 V0 1.760179 1_555
