# generated using pymatgen
data_Y(GePt)2
_symmetry_space_group_name_H-M   'P 1'
_cell_length_a   4.31499300
_cell_length_b   4.33115000
_cell_length_c   10.19292600
_cell_angle_alpha   90.00000000
_cell_angle_beta   90.00000000
_cell_angle_gamma   90.00000000
_symmetry_Int_Tables_number   1
_chemical_formula_structural   Y(GePt)2
_chemical_formula_sum   'Y2 Ge4 Pt4'
_cell_volume   190.49439056
_cell_formula_units_Z   2
loop_
 _symmetry_equiv_pos_site_id
 _symmetry_equiv_pos_as_xyz
  1  'x, y, z'
loop_
 _atom_site_type_symbol
 _atom_site_label
 _atom_site_symmetry_multiplicity
 _atom_site_fract_x
 _atom_site_fract_y
 _atom_site_fract_z
 _atom_site_occupancy
  Y  Y0  1  0.25624700  0.00000000  0.75028000  1
  Y  Y1  1  0.75624700  0.50000000  0.24972000  1
  Ge  Ge0  1  0.23202300  0.00000000  0.13470400  1
  Ge  Ge1  1  0.73202300  0.50000000  0.86529600  1
  Ge  Ge2  1  0.27622200  0.50000000  0.49943600  1
  Ge  Ge3  1  0.77622200  0.00000000  0.50056400  1
  Pt  Pt0  1  0.27690900  0.00000000  0.37256100  1
  Pt  Pt1  1  0.77690900  0.50000000  0.62743900  1
  Pt  Pt2  1  0.23059800  0.50000000  0.99994800  1
  Pt  Pt3  1  0.73059800  0.00000000  0.00005200  1
loop_
_geom_bond_atom_site_label_1
_geom_bond_atom_site_label_2
_geom_bond_distance
_geom_bond_site_symmetry_2
Ge0 Pt0 2.432183 1_555
Ge0 Pt3 2.551871 1_555
Ge0 Pt3 2.562247 1_455
Ge0 Pt2 2.564452 1_544
Ge0 Pt2 2.564452 1_554
Ge0 Y1 3.206058 1_455
Ge0 Y1 3.206058 1_445
Ge0 Y1 3.343780 1_555
Ge0 Y1 3.343780 1_545
Ge1 Pt1 2.432183 1_555
Ge1 Pt2 2.551871 1_655
Ge1 Pt2 2.562247 1_555
Ge1 Pt3 2.564452 1_556
Ge1 Pt3 2.564452 1_566
Ge1 Y0 3.206058 1_555
Ge1 Y0 3.206058 1_565
Ge1 Y0 3.343780 1_655
Ge1 Y0 3.343780 1_665
Ge2 Pt1 2.518793 1_455
Ge2 Pt0 2.522332 1_555
Ge2 Pt0 2.522332 1_565
Ge2 Pt1 2.523866 1_555
Ge2 Y1 3.281622 1_555
Ge2 Y0 3.351797 1_555
Ge2 Y0 3.351797 1_565
Ge2 Y1 3.393063 1_455
Ge3 Pt0 2.518793 1_555
Ge3 Pt1 2.522332 1_555
Ge3 Pt1 2.522332 1_545
Ge3 Pt0 2.523866 1_655
Ge3 Y0 3.281622 1_655
Ge3 Y1 3.351797 1_545
Ge3 Y1 3.351797 1_555
Ge3 Y0 3.393063 1_555
Pt0 Y1 3.245847 1_545
Pt0 Y1 3.245847 1_555
Pt0 Y1 3.362282 1_455
Pt0 Y1 3.362282 1_445
Pt1 Y0 3.245847 1_665
Pt1 Y0 3.245847 1_655
Pt1 Y0 3.362282 1_555
Pt1 Y0 3.362282 1_565
Pt2 Y1 3.266668 1_456
Pt2 Y0 3.343383 1_565
Pt2 Y0 3.343383 1_555
Pt2 Y1 3.409728 1_556
Pt3 Y0 3.266668 1_554
Pt3 Y1 3.343383 1_545
Pt3 Y1 3.343383 1_555
Pt3 Y0 3.409728 1_654
