# generated using pymatgen
data_Cu3SeO8
_symmetry_space_group_name_H-M   'P 1'
_cell_length_a   5.91726500
_cell_length_b   8.10206000
_cell_length_c   13.47261400
_cell_angle_alpha   90.00000000
_cell_angle_beta   90.00000000
_cell_angle_gamma   90.00000000
_symmetry_Int_Tables_number   1
_chemical_formula_structural   Cu3SeO8
_chemical_formula_sum   'Cu12 Se4 O32'
_cell_volume   645.90454629
_cell_formula_units_Z   4
loop_
 _symmetry_equiv_pos_site_id
 _symmetry_equiv_pos_as_xyz
  1  'x, y, z'
loop_
 _atom_site_type_symbol
 _atom_site_label
 _atom_site_symmetry_multiplicity
 _atom_site_fract_x
 _atom_site_fract_y
 _atom_site_fract_z
 _atom_site_occupancy
  Cu  Cu0  1  0.99832700  0.72629500  0.88193200  1
  Cu  Cu1  1  0.00167300  0.27370500  0.11806800  1
  Cu  Cu2  1  0.00167300  0.77370500  0.38193200  1
  Cu  Cu3  1  0.49832700  0.27370500  0.11806800  1
  Cu  Cu4  1  0.99832700  0.22629500  0.61806800  1
  Cu  Cu5  1  0.50167300  0.72629500  0.88193200  1
  Cu  Cu6  1  0.50167300  0.22629500  0.61806800  1
  Cu  Cu7  1  0.49832700  0.77370500  0.38193200  1
  Cu  Cu8  1  0.75000000  0.00072900  0.99820500  1
  Cu  Cu9  1  0.25000000  0.99927100  0.00179500  1
  Cu  Cu10  1  0.25000000  0.49927100  0.49820500  1
  Cu  Cu11  1  0.75000000  0.50072900  0.50179500  1
  Se  Se0  1  0.75000000  0.88655600  0.64066300  1
  Se  Se1  1  0.25000000  0.11344400  0.35933700  1
  Se  Se2  1  0.25000000  0.61344400  0.14066300  1
  Se  Se3  1  0.75000000  0.38655600  0.85933700  1
  O  O0  1  0.99222500  0.00152700  0.65451000  1
  O  O1  1  0.00777500  0.99847300  0.34549000  1
  O  O2  1  0.00777500  0.49847300  0.15451000  1
  O  O3  1  0.49222500  0.99847300  0.34549000  1
  O  O4  1  0.99222500  0.50152700  0.84549000  1
  O  O5  1  0.50777500  0.00152700  0.65451000  1
  O  O6  1  0.50777500  0.50152700  0.84549000  1
  O  O7  1  0.49222500  0.49847300  0.15451000  1
  O  O8  1  0.75000000  0.79199100  0.53025600  1
  O  O9  1  0.25000000  0.20800900  0.46974400  1
  O  O10  1  0.25000000  0.70800900  0.03025600  1
  O  O11  1  0.75000000  0.29199100  0.96974400  1
  O  O12  1  0.75000000  0.75052400  0.73147600  1
  O  O13  1  0.25000000  0.24947600  0.26852400  1
  O  O14  1  0.25000000  0.74947600  0.23147600  1
  O  O15  1  0.75000000  0.25052400  0.76852400  1
  O  O16  1  0.75000000  0.74857000  0.30839700  1
  O  O17  1  0.25000000  0.25143000  0.69160300  1
  O  O18  1  0.25000000  0.75143000  0.80839700  1
  O  O19  1  0.75000000  0.24857000  0.19160300  1
  O  O20  1  0.75000000  0.71009300  0.95868100  1
  O  O21  1  0.25000000  0.28990700  0.04131900  1
  O  O22  1  0.25000000  0.78990700  0.45868100  1
  O  O23  1  0.75000000  0.21009300  0.54131900  1
  O  O24  1  0.49447300  0.95150800  0.91567500  1
  O  O25  1  0.50552700  0.04849200  0.08432500  1
  O  O26  1  0.50552700  0.54849200  0.41567500  1
  O  O27  1  0.99447300  0.04849200  0.08432500  1
  O  O28  1  0.49447300  0.45150800  0.58432500  1
  O  O29  1  0.00552700  0.95150800  0.91567500  1
  O  O30  1  0.00552700  0.45150800  0.58432500  1
  O  O31  1  0.99447300  0.54849200  0.41567500  1
loop_
_geom_bond_atom_site_label_1
_geom_bond_atom_site_label_2
_geom_bond_distance
_geom_bond_site_symmetry_2
Cu0 O18 1.800205 1_655
Cu0 O20 1.801553 1_555
Cu0 O29 1.880950 1_655
Cu0 O4 1.886452 1_555
Cu0 O10 2.496591 1_656
Cu0 O12 2.511293 1_555
Cu1 O19 1.800205 1_455
Cu1 O21 1.801553 1_555
Cu1 O27 1.880950 1_455
Cu1 O2 1.886452 1_555
Cu1 O11 2.496591 1_454
Cu1 O13 2.511293 1_555
Cu2 O16 1.800205 1_455
Cu2 O22 1.801553 1_555
Cu2 O31 1.880950 1_455
Cu2 O1 1.886452 1_555
Cu2 O8 2.496591 1_455
Cu2 O14 2.511293 1_555
Cu3 O19 1.800205 1_555
Cu3 O21 1.801553 1_555
Cu3 O25 1.880950 1_555
Cu3 O7 1.886452 1_555
Cu3 O11 2.496591 1_554
Cu3 O13 2.511293 1_555
Cu4 O17 1.800205 1_655
Cu4 O23 1.801553 1_555
Cu4 O30 1.880950 1_655
Cu4 O0 1.886452 1_555
Cu4 O9 2.496591 1_655
Cu4 O15 2.511293 1_555
Cu5 O18 1.800205 1_555
Cu5 O20 1.801553 1_555
Cu5 O24 1.880950 1_555
Cu5 O6 1.886452 1_555
Cu5 O10 2.496591 1_556
Cu5 O12 2.511293 1_555
Cu6 O17 1.800205 1_555
Cu6 O23 1.801553 1_555
Cu6 O28 1.880950 1_555
Cu6 O5 1.886452 1_555
Cu6 O9 2.496591 1_555
Cu6 O15 2.511293 1_555
Cu7 O16 1.800205 1_555
Cu7 O22 1.801553 1_555
Cu7 O26 1.880950 1_555
Cu7 O3 1.886452 1_555
Cu7 O8 2.496591 1_555
Cu7 O14 2.511293 1_555
Cu8 O27 1.894372 1_556
Cu8 O25 1.894372 1_556
Cu8 O24 1.918737 1_545
Cu8 O29 1.918737 1_645
Cu8 O11 2.390772 1_555
Cu8 O20 2.414207 1_545
Cu9 O24 1.894372 1_554
Cu9 O29 1.894372 1_554
Cu9 O25 1.918737 1_565
Cu9 O27 1.918737 1_465
Cu9 O10 2.390772 1_555
Cu9 O21 2.414207 1_565
Cu10 O28 1.894372 1_555
Cu10 O30 1.894372 1_555
Cu10 O31 1.918737 1_455
Cu10 O26 1.918737 1_555
Cu10 O9 2.390772 1_555
Cu10 O22 2.414207 1_555
Cu11 O31 1.894372 1_555
Cu11 O26 1.894372 1_555
Cu11 O28 1.918737 1_555
Cu11 O30 1.918737 1_655
Cu11 O8 2.390772 1_555
Cu11 O23 2.414207 1_555
O0 Se0 1.719557 1_545
O1 Se1 1.719557 1_565
O2 Se2 1.719557 1_555
O3 Se1 1.719557 1_565
O4 Se3 1.719557 1_555
O5 Se0 1.719557 1_545
O6 Se3 1.719557 1_555
O7 Se2 1.719557 1_555
O8 Se0 1.673197 1_555
O9 Se1 1.673197 1_555
O10 Se2 1.673197 1_555
O11 Se3 1.673197 1_555
O12 Se0 1.646704 1_555
O13 Se1 1.646704 1_555
O14 Se2 1.646704 1_555
O15 Se3 1.646704 1_555
