# generated using pymatgen
data_Sr3(IrN2)2
_symmetry_space_group_name_H-M   'P 1'
_cell_length_a   6.34767700
_cell_length_b   9.78403700
_cell_length_c   9.84300400
_cell_angle_alpha   90.00000000
_cell_angle_beta   90.00000000
_cell_angle_gamma   90.00000000
_symmetry_Int_Tables_number   1
_chemical_formula_structural   Sr3(IrN2)2
_chemical_formula_sum   'Sr12 Ir8 N16'
_cell_volume   611.30868740
_cell_formula_units_Z   4
loop_
 _symmetry_equiv_pos_site_id
 _symmetry_equiv_pos_as_xyz
  1  'x, y, z'
loop_
 _atom_site_type_symbol
 _atom_site_label
 _atom_site_symmetry_multiplicity
 _atom_site_fract_x
 _atom_site_fract_y
 _atom_site_fract_z
 _atom_site_occupancy
  Sr  Sr0  1  0.61611900  0.16162300  0.42345400  1
  Sr  Sr1  1  0.88388100  0.83837700  0.42345400  1
  Sr  Sr2  1  0.61611900  0.33837700  0.07654600  1
  Sr  Sr3  1  0.88388100  0.66162300  0.07654600  1
  Sr  Sr4  1  0.38388100  0.83837700  0.57654600  1
  Sr  Sr5  1  0.11611900  0.16162300  0.57654600  1
  Sr  Sr6  1  0.38388100  0.66162300  0.92345400  1
  Sr  Sr7  1  0.11611900  0.33837700  0.92345400  1
  Sr  Sr8  1  0.75000000  0.50000000  0.39506000  1
  Sr  Sr9  1  0.75000000  0.00000000  0.10494000  1
  Sr  Sr10  1  0.25000000  0.50000000  0.60494000  1
  Sr  Sr11  1  0.25000000  0.00000000  0.89506000  1
  Ir  Ir0  1  0.75000000  0.50000000  0.71849100  1
  Ir  Ir1  1  0.75000000  0.00000000  0.78150900  1
  Ir  Ir2  1  0.25000000  0.50000000  0.28150900  1
  Ir  Ir3  1  0.25000000  0.00000000  0.21849100  1
  Ir  Ir4  1  0.57400700  0.25000000  0.75000000  1
  Ir  Ir5  1  0.92599300  0.75000000  0.75000000  1
  Ir  Ir6  1  0.42599300  0.75000000  0.25000000  1
  Ir  Ir7  1  0.07400700  0.25000000  0.25000000  1
  N  N0  1  0.90202000  0.36823600  0.61488000  1
  N  N1  1  0.59798000  0.63176400  0.61488000  1
  N  N2  1  0.90202000  0.13176400  0.88512000  1
  N  N3  1  0.59798000  0.86823600  0.88512000  1
  N  N4  1  0.09798000  0.63176400  0.38512000  1
  N  N5  1  0.40202000  0.36823600  0.38512000  1
  N  N6  1  0.09798000  0.86823600  0.11488000  1
  N  N7  1  0.40202000  0.13176400  0.11488000  1
  N  N8  1  0.49929400  0.42440000  0.83701800  1
  N  N9  1  0.00070600  0.57560000  0.83701800  1
  N  N10  1  0.49929400  0.07560000  0.66298200  1
  N  N11  1  0.00070600  0.92440000  0.66298200  1
  N  N12  1  0.50070600  0.57560000  0.16298200  1
  N  N13  1  0.99929400  0.42440000  0.16298200  1
  N  N14  1  0.50070600  0.92440000  0.33701800  1
  N  N15  1  0.99929400  0.07560000  0.33701800  1
loop_
_geom_bond_atom_site_label_1
_geom_bond_atom_site_label_2
_geom_bond_distance
_geom_bond_site_symmetry_2
Ir0 N1 1.906109 1_555
Ir0 N0 1.906109 1_555
Ir0 N9 2.107314 1_655
Ir0 N8 2.107314 1_555
Ir1 N3 1.906109 1_545
Ir1 N2 1.906109 1_555
Ir1 N11 2.107314 1_645
Ir1 N10 2.107314 1_555
Ir2 N4 1.906109 1_555
Ir2 N5 1.906109 1_555
Ir2 N12 2.107314 1_555
Ir2 N13 2.107314 1_455
Ir3 N6 1.906109 1_545
Ir3 N7 1.906109 1_555
Ir3 N14 2.107314 1_545
Ir3 N15 2.107314 1_455
Ir4 N8 1.967263 1_555
Ir4 N10 1.967263 1_555
Ir5 N9 1.967263 1_655
Ir5 N11 1.967263 1_655
Ir6 N14 1.967263 1_555
Ir6 N12 1.967263 1_555
Ir7 N15 1.967263 1_455
Ir7 N13 1.967263 1_455
N0 Sr5 2.464921 1_655
N0 Sr10 2.559424 1_655
N0 Sr8 2.697169 1_555
N1 Sr4 2.464921 1_555
N1 Sr10 2.559424 1_555
N1 Sr8 2.697169 1_555
N2 Sr7 2.464921 1_655
N2 Sr11 2.559424 1_655
N2 Sr9 2.697169 1_556
N3 Sr6 2.464921 1_555
N3 Sr11 2.559424 1_565
N3 Sr9 2.697169 1_566
N4 Sr1 2.464921 1_455
N4 Sr8 2.559424 1_455
N4 Sr10 2.697169 1_555
N5 Sr0 2.464921 1_555
N5 Sr8 2.559424 1_555
N5 Sr10 2.697169 1_555
N6 Sr3 2.464921 1_455
N6 Sr9 2.559424 1_465
N6 Sr11 2.697169 1_564
N7 Sr2 2.464921 1_555
N7 Sr9 2.559424 1_555
N7 Sr11 2.697169 1_554
N8 Sr6 2.578292 1_555
N8 Sr2 2.610926 1_556
N8 Sr7 2.710750 1_555
N8 Sr10 2.875666 1_555
N9 Sr7 2.578292 1_555
N9 Sr3 2.610926 1_456
N9 Sr6 2.710750 1_555
N9 Sr10 2.875666 1_555
N10 Sr4 2.578292 1_545
N10 Sr0 2.610926 1_555
N10 Sr5 2.710750 1_555
N10 Sr11 2.875666 1_555
N11 Sr5 2.578292 1_565
N11 Sr1 2.610926 1_455
N11 Sr4 2.710750 1_555
N11 Sr11 2.875666 1_565
N12 Sr2 2.578292 1_555
N12 Sr6 2.610926 1_554
N12 Sr3 2.710750 1_555
N12 Sr8 2.875666 1_555
N13 Sr3 2.578292 1_555
N13 Sr7 2.610926 1_654
N13 Sr2 2.710750 1_555
N13 Sr8 2.875666 1_555
N14 Sr0 2.578292 1_565
N14 Sr4 2.610926 1_555
N14 Sr1 2.710750 1_555
N14 Sr9 2.875666 1_565
N15 Sr1 2.578292 1_545
N15 Sr5 2.610926 1_655
N15 Sr0 2.710750 1_555
N15 Sr9 2.875666 1_555
