# generated using pymatgen
data_Li15H9N8
_symmetry_space_group_name_H-M   'P 1'
_cell_length_a   10.15666966
_cell_length_b   7.02981188
_cell_length_c   7.01671989
_cell_angle_alpha   88.64969515
_cell_angle_beta   90.00000000
_cell_angle_gamma   90.00000000
_symmetry_Int_Tables_number   1
_chemical_formula_structural   Li15H9N8
_chemical_formula_sum   'Li30 H18 N16'
_cell_volume   500.85100806
_cell_formula_units_Z   2
loop_
 _symmetry_equiv_pos_site_id
 _symmetry_equiv_pos_as_xyz
  1  'x, y, z'
loop_
 _atom_site_type_symbol
 _atom_site_label
 _atom_site_symmetry_multiplicity
 _atom_site_fract_x
 _atom_site_fract_y
 _atom_site_fract_z
 _atom_site_occupancy
  Li  Li0  1  0.61309058  0.76522802  0.62209896  1
  Li  Li1  1  0.38690942  0.26522802  0.62209896  1
  Li  Li2  1  0.14364254  0.24546473  0.17212448  1
  Li  Li3  1  0.85635746  0.74546473  0.17212448  1
  Li  Li4  1  0.10611816  0.70648841  0.63636798  1
  Li  Li5  1  0.89388184  0.20648841  0.63636798  1
  Li  Li6  1  0.61648930  0.23585895  0.12797417  1
  Li  Li7  1  0.38351070  0.73585895  0.12797417  1
  Li  Li8  1  0.88840989  0.78597018  0.62675307  1
  Li  Li9  1  0.11159011  0.28597018  0.62675307  1
  Li  Li10  1  0.38618275  0.27602631  0.14001131  1
  Li  Li11  1  0.61381725  0.77602631  0.14001131  1
  Li  Li12  1  0.75317445  0.72802212  0.88299309  1
  Li  Li13  1  0.24682555  0.22802212  0.88299309  1
  Li  Li14  1  0.87925695  0.00281065  0.89449568  1
  Li  Li15  1  0.12074305  0.50281065  0.89449568  1
  Li  Li16  1  0.59419500  0.50505317  0.32183872  1
  Li  Li17  1  0.40580500  0.00505317  0.32183872  1
  Li  Li18  1  0.11060514  0.98221074  0.87089448  1
  Li  Li19  1  0.88939486  0.48221074  0.87089448  1
  Li  Li20  1  0.36744577  0.49542535  0.38040713  1
  Li  Li21  1  0.63255423  0.99542535  0.38040713  1
  Li  Li22  1  0.62791796  0.01091066  0.87954742  1
  Li  Li23  1  0.37208204  0.51091066  0.87954742  1
  Li  Li24  1  0.90508417  0.49453385  0.42413264  1
  Li  Li25  1  0.09491583  0.99453385  0.42413264  1
  Li  Li26  1  0.40397003  0.99878129  0.91714792  1
  Li  Li27  1  0.59602997  0.49878129  0.91714792  1
  Li  Li28  1  0.13379780  0.50399256  0.37246831  1
  Li  Li29  1  0.86620220  0.00399256  0.37246831  1
  H  H0  1  0.45404572  0.76320863  0.77308958  1
  H  H1  1  0.54595428  0.26320863  0.77308958  1
  H  H2  1  0.95251508  0.26113545  0.27395155  1
  H  H3  1  0.04748492  0.76113545  0.27395155  1
  H  H4  1  0.43527097  0.75458421  0.47804753  1
  H  H5  1  0.56472903  0.25458421  0.47804753  1
  H  H6  1  0.97648161  0.23995734  0.00301960  1
  H  H7  1  0.02351839  0.73995734  0.00301960  1
  H  H8  1  0.79304111  0.11585048  0.11316505  1
  H  H9  1  0.20695889  0.61585048  0.11316505  1
  H  H10  1  0.70195397  0.41430891  0.65078865  1
  H  H11  1  0.29804603  0.91430891  0.65078865  1
  H  H12  1  0.20441581  0.92075072  0.15368564  1
  H  H13  1  0.79558419  0.42075072  0.15368564  1
  H  H14  1  0.29843224  0.60944054  0.63247931  1
  H  H15  1  0.70156776  0.10944054  0.63247931  1
  H  H16  1  0.73692490  0.58660348  0.50826850  1
  H  H17  1  0.26307510  0.08660348  0.50826850  1
  N  N0  1  0.99341761  0.74937546  0.39776631  1
  N  N1  1  0.00658239  0.24937546  0.39776631  1
  N  N2  1  0.48583709  0.25650139  0.89151516  1
  N  N3  1  0.51416291  0.75650139  0.89151516  1
  N  N4  1  0.98503783  0.74526811  0.86738102  1
  N  N5  1  0.01496217  0.24526811  0.86738102  1
  N  N6  1  0.49633203  0.25399075  0.36975135  1
  N  N7  1  0.50366797  0.75399075  0.36975135  1
  N  N8  1  0.75642697  0.98596956  0.63786259  1
  N  N9  1  0.24357303  0.48596956  0.63786259  1
  N  N10  1  0.73230314  0.52822944  0.11209446  1
  N  N11  1  0.26769686  0.02822944  0.11209446  1
  N  N12  1  0.23910661  0.03206245  0.64117168  1
  N  N13  1  0.76089339  0.53206245  0.64117168  1
  N  N14  1  0.25628963  0.48798511  0.12770966  1
  N  N15  1  0.74371037  0.98798511  0.12770966  1
loop_
_geom_bond_atom_site_label_1
_geom_bond_atom_site_label_2
_geom_bond_distance
_geom_bond_site_symmetry_2
Li0 N7 2.093606 1_555
Li0 N8 2.132541 1_555
Li0 N3 2.140456 1_555
Li0 N13 2.224367 1_555
Li0 Li12 2.328376 1_555
Li1 N6 2.093606 1_555
Li1 N9 2.132541 1_555
Li1 N2 2.140456 1_555
Li1 N12 2.224367 1_555
Li1 Li13 2.328376 1_555
Li2 N11 2.031598 1_555
Li2 N14 2.070672 1_555
Li2 N1 2.108888 1_555
Li3 N10 2.031598 1_555
Li3 N15 2.070672 1_555
Li3 N0 2.108888 1_555
Li4 N0 2.044580 1_455
Li4 N4 2.057906 1_455
Li4 N9 2.086033 1_555
Li5 N1 2.044580 1_655
Li5 N5 2.057906 1_655
Li5 N8 2.086033 1_545
Li6 N6 2.096154 1_555
Li6 N2 2.126840 1_554
Li7 N7 2.096154 1_555
Li7 N3 2.126840 1_554
Li8 N8 1.945487 1_555
Li8 N0 1.950575 1_555
Li8 N4 1.968004 1_555
Li9 N9 1.945487 1_555
Li9 N1 1.950575 1_555
Li9 N5 1.968004 1_555
Li10 N6 1.965310 1_555
Li10 N14 1.990498 1_555
Li10 N2 2.023565 1_554
Li10 N11 2.130052 1_555
Li10 Li13 2.323419 1_554
Li11 N7 1.965310 1_555
Li11 N15 1.990498 1_555
Li11 N3 2.023565 1_554
Li11 N10 2.130052 1_555
Li11 Li12 2.323419 1_554
Li12 N10 2.120223 1_556
Li12 N13 2.212032 1_555
Li12 Li19 2.216829 1_555
Li12 Li27 2.276763 1_555
Li12 Li3 2.289301 1_556
Li12 Li8 2.291445 1_555
Li12 Li14 2.320615 1_565
Li12 Li22 2.360408 1_565
Li12 N4 2.360489 1_555
Li12 N3 2.436652 1_555
Li12 N8 2.469954 1_555
Li12 N15 2.538763 1_556
Li13 N11 2.120223 1_556
Li13 N12 2.212032 1_555
Li13 Li18 2.216829 1_545
Li13 Li26 2.276763 1_545
Li13 Li2 2.289301 1_556
Li13 Li9 2.291445 1_555
Li13 Li15 2.320615 1_555
Li13 Li23 2.360408 1_555
Li13 N5 2.360489 1_555
Li13 N2 2.436652 1_555
Li13 N9 2.469954 1_555
Li13 N14 2.538763 1_556
Li14 N4 2.117675 1_545
Li14 N15 2.139142 1_546
Li14 N8 2.196140 1_545
Li14 N5 2.196758 1_655
Li15 N5 2.117675 1_555
Li15 N14 2.139142 1_556
Li15 N9 2.196140 1_555
Li15 N4 2.196758 1_455
Li16 N7 2.012111 1_555
Li16 N10 2.036864 1_555
Li16 N6 2.046452 1_555
Li17 N6 2.012111 1_555
Li17 N11 2.036864 1_555
Li17 N7 2.046452 1_545
Li18 N5 2.088494 1_565
Li18 N12 2.097099 1_565
Li18 N4 2.098447 1_455
Li18 N11 2.353826 1_566
Li19 N4 2.088494 1_555
Li19 N13 2.097099 1_555
Li19 N5 2.098447 1_655
Li19 N10 2.353826 1_556
Li20 N14 2.103712 1_555
Li20 N6 2.146117 1_555
Li20 N9 2.201154 1_555
Li20 N7 2.284151 1_555
Li21 N15 2.103712 1_555
Li21 N7 2.146117 1_555
Li21 N8 2.201154 1_555
Li21 N6 2.284151 1_565
Li22 N15 2.104269 1_546
Li22 N3 2.129181 1_545
Li22 N8 2.150400 1_545
Li22 N2 2.253216 1_555
Li23 N14 2.104269 1_556
Li23 N2 2.129181 1_555
Li23 N9 2.150400 1_555
Li23 N3 2.253216 1_555
Li24 N0 2.008223 1_555
Li24 N1 2.020431 1_655
Li24 N13 2.133664 1_555
Li25 N1 2.008223 1_565
Li25 N0 2.020431 1_455
Li25 N12 2.133664 1_565
Li26 N11 1.960355 1_566
Li26 N2 1.997679 1_565
Li26 N3 2.049441 1_555
Li27 N10 1.960355 1_556
Li27 N3 1.997679 1_555
Li27 N2 2.049441 1_555
Li28 N14 2.125806 1_555
Li28 N9 2.171595 1_555
Li28 N1 2.211289 1_555
Li28 N0 2.248209 1_455
Li29 N15 2.125806 1_545
Li29 N8 2.171595 1_545
Li29 N0 2.211289 1_545
Li29 N1 2.248209 1_655
H0 N3 1.031354 1_555
H0 Li0 1.931671 1_555
H0 Li26 2.025280 1_555
H0 Li23 2.081886 1_555
H1 N2 1.031354 1_555
H1 Li1 1.931671 1_555
H1 Li27 2.025280 1_555
H1 Li22 2.081886 1_555
H2 N1 1.029454 1_655
H2 Li24 2.028808 1_555
H2 Li2 2.072359 1_655
H2 Li29 2.110718 1_555
H3 N0 1.029454 1_455
H3 Li25 2.028808 1_555
H3 Li3 2.072359 1_455
H3 Li28 2.110718 1_555
H4 N7 1.029650 1_555
H4 Li0 2.071871 1_555
H4 Li17 2.073699 1_565
H4 Li20 2.078907 1_555
H5 N6 1.029650 1_555
H5 Li1 2.071871 1_555
H5 Li16 2.073699 1_555
H5 Li21 2.078907 1_545
H6 N5 1.028725 1_654
H6 Li2 2.072224 1_655
H6 Li14 2.096189 1_554
H6 Li19 2.113677 1_554
H7 N4 1.028725 1_454
H7 Li3 2.072224 1_455
H7 Li15 2.096189 1_554
H7 Li18 2.113677 1_554
H8 N15 1.032035 1_545
H8 Li14 1.951903 1_554
H8 Li6 1.985483 1_555
H8 Li29 2.100830 1_555
H9 N14 1.032035 1_555
H9 Li15 1.951903 1_554
H9 Li7 1.985483 1_555
H9 Li28 2.100830 1_555
H10 N13 1.022499 1_555
H10 Li27 2.248421 1_555
H11 N12 1.022499 1_565
H11 Li26 2.248421 1_555
H12 N11 1.028948 1_565
H12 Li18 2.234147 1_554
H12 Li25 2.270107 1_555
H13 N10 1.028948 1_555
H13 Li19 2.234147 1_554
H13 Li24 2.270107 1_555
H14 N9 1.031370 1_555
H14 Li23 1.997028 1_555
H14 Li4 2.069377 1_555
H14 Li20 2.080606 1_555
H15 N8 1.031370 1_545
H15 Li22 1.997028 1_555
H15 Li5 2.069377 1_555
H15 Li21 2.080606 1_545
H16 N13 1.029105 1_555
H16 Li24 1.924186 1_555
H16 Li0 1.960590 1_555
H16 Li16 2.043699 1_555
H17 N12 1.029105 1_555
H17 Li25 1.924186 1_545
H17 Li1 1.960590 1_555
H17 Li17 2.043699 1_555
