# generated using pymatgen
data_Li12Si7
_symmetry_space_group_name_H-M   'P 1'
_cell_length_a   8.53123800
_cell_length_b   14.31268200
_cell_length_c   19.62266200
_cell_angle_alpha   90.00000000
_cell_angle_beta   90.00000000
_cell_angle_gamma   90.00000000
_symmetry_Int_Tables_number   1
_chemical_formula_structural   Li12Si7
_chemical_formula_sum   'Li96 Si56'
_cell_volume   2396.02311375
_cell_formula_units_Z   8
loop_
 _symmetry_equiv_pos_site_id
 _symmetry_equiv_pos_as_xyz
  1  'x, y, z'
loop_
 _atom_site_type_symbol
 _atom_site_label
 _atom_site_symmetry_multiplicity
 _atom_site_fract_x
 _atom_site_fract_y
 _atom_site_fract_z
 _atom_site_occupancy
  Li  Li0  1  0.66175100  0.83414800  0.75000000  1
  Li  Li1  1  0.16175100  0.66585200  0.75000000  1
  Li  Li2  1  0.83824900  0.33414800  0.25000000  1
  Li  Li3  1  0.33824900  0.16585200  0.25000000  1
  Li  Li4  1  0.61308000  0.63119000  0.75000000  1
  Li  Li5  1  0.11308000  0.86881000  0.75000000  1
  Li  Li6  1  0.88692000  0.13119000  0.25000000  1
  Li  Li7  1  0.38692000  0.36881000  0.25000000  1
  Li  Li8  1  0.49627900  0.47243400  0.62500000  1
  Li  Li9  1  0.99627900  0.02756600  0.87500000  1
  Li  Li10  1  0.00372100  0.97243400  0.37500000  1
  Li  Li11  1  0.50372100  0.52756600  0.12500000  1
  Li  Li12  1  0.50372100  0.52756600  0.37500000  1
  Li  Li13  1  0.00372100  0.97243400  0.12500000  1
  Li  Li14  1  0.99627900  0.02756600  0.62500000  1
  Li  Li15  1  0.49627900  0.47243400  0.87500000  1
  Li  Li16  1  0.84244100  0.49491100  0.61165500  1
  Li  Li17  1  0.34244100  0.00508900  0.88834500  1
  Li  Li18  1  0.65755900  0.99491100  0.38834500  1
  Li  Li19  1  0.15755900  0.50508900  0.11165500  1
  Li  Li20  1  0.15755900  0.50508900  0.38834500  1
  Li  Li21  1  0.65755900  0.99491100  0.11165500  1
  Li  Li22  1  0.34244100  0.00508900  0.61165500  1
  Li  Li23  1  0.84244100  0.49491100  0.88834500  1
  Li  Li24  1  0.87710500  0.65958900  0.83435300  1
  Li  Li25  1  0.37710500  0.84041100  0.66564700  1
  Li  Li26  1  0.62289500  0.15958900  0.16564700  1
  Li  Li27  1  0.12289500  0.34041100  0.33435300  1
  Li  Li28  1  0.12289500  0.34041100  0.16564700  1
  Li  Li29  1  0.62289500  0.15958900  0.33435300  1
  Li  Li30  1  0.37710500  0.84041100  0.83435300  1
  Li  Li31  1  0.87710500  0.65958900  0.66564700  1
  Li  Li32  1  0.37043900  0.93431900  0.02780300  1
  Li  Li33  1  0.87043900  0.56568100  0.47219700  1
  Li  Li34  1  0.12956100  0.43431900  0.97219700  1
  Li  Li35  1  0.62956100  0.06568100  0.52780300  1
  Li  Li36  1  0.62956100  0.06568100  0.97219700  1
  Li  Li37  1  0.12956100  0.43431900  0.52780300  1
  Li  Li38  1  0.87043900  0.56568100  0.02780300  1
  Li  Li39  1  0.37043900  0.93431900  0.47219700  1
  Li  Li40  1  0.63043200  0.26348400  0.88730100  1
  Li  Li41  1  0.13043200  0.23651600  0.61269900  1
  Li  Li42  1  0.86956800  0.76348400  0.11269900  1
  Li  Li43  1  0.36956800  0.73651600  0.38730100  1
  Li  Li44  1  0.36956800  0.73651600  0.11269900  1
  Li  Li45  1  0.86956800  0.76348400  0.38730100  1
  Li  Li46  1  0.13043200  0.23651600  0.88730100  1
  Li  Li47  1  0.63043200  0.26348400  0.61269900  1
  Li  Li48  1  0.36686000  0.56735800  0.00485400  1
  Li  Li49  1  0.86686000  0.93264200  0.49514600  1
  Li  Li50  1  0.13314000  0.06735800  0.99514600  1
  Li  Li51  1  0.63314000  0.43264200  0.50485400  1
  Li  Li52  1  0.63314000  0.43264200  0.99514600  1
  Li  Li53  1  0.13314000  0.06735800  0.50485400  1
  Li  Li54  1  0.86686000  0.93264200  0.00485400  1
  Li  Li55  1  0.36686000  0.56735800  0.49514600  1
  Li  Li56  1  0.37182200  0.63883900  0.85493700  1
  Li  Li57  1  0.87182200  0.86116100  0.64506300  1
  Li  Li58  1  0.12817800  0.13883900  0.14506300  1
  Li  Li59  1  0.62817800  0.36116100  0.35493700  1
  Li  Li60  1  0.62817800  0.36116100  0.14506300  1
  Li  Li61  1  0.12817800  0.13883900  0.35493700  1
  Li  Li62  1  0.87182200  0.86116100  0.85493700  1
  Li  Li63  1  0.37182200  0.63883900  0.64506300  1
  Li  Li64  1  0.87049100  0.74366800  0.96843000  1
  Li  Li65  1  0.37049100  0.75633200  0.53157000  1
  Li  Li66  1  0.62950900  0.24366800  0.03157000  1
  Li  Li67  1  0.12950900  0.25633200  0.46843000  1
  Li  Li68  1  0.12950900  0.25633200  0.03157000  1
  Li  Li69  1  0.62950900  0.24366800  0.46843000  1
  Li  Li70  1  0.37049100  0.75633200  0.96843000  1
  Li  Li71  1  0.87049100  0.74366800  0.53157000  1
  Li  Li72  1  0.13791500  0.47784900  0.67136400  1
  Li  Li73  1  0.63791500  0.02215100  0.82863600  1
  Li  Li74  1  0.36208500  0.97784900  0.32863600  1
  Li  Li75  1  0.86208500  0.52215100  0.17136400  1
  Li  Li76  1  0.86208500  0.52215100  0.32863600  1
  Li  Li77  1  0.36208500  0.97784900  0.17136400  1
  Li  Li78  1  0.63791500  0.02215100  0.67136400  1
  Li  Li79  1  0.13791500  0.47784900  0.82863600  1
  Li  Li80  1  0.86264900  0.16256800  0.68890700  1
  Li  Li81  1  0.36264900  0.33743200  0.81109300  1
  Li  Li82  1  0.63735100  0.66256800  0.31109300  1
  Li  Li83  1  0.13735100  0.83743200  0.18890700  1
  Li  Li84  1  0.13735100  0.83743200  0.31109300  1
  Li  Li85  1  0.63735100  0.66256800  0.18890700  1
  Li  Li86  1  0.36264900  0.33743200  0.68890700  1
  Li  Li87  1  0.86264900  0.16256800  0.81109300  1
  Li  Li88  1  0.60881900  0.84337200  0.18719400  1
  Li  Li89  1  0.10881900  0.65662800  0.31280600  1
  Li  Li90  1  0.89118100  0.34337200  0.81280600  1
  Li  Li91  1  0.39118100  0.15662800  0.68719400  1
  Li  Li92  1  0.39118100  0.15662800  0.81280600  1
  Li  Li93  1  0.89118100  0.34337200  0.68719400  1
  Li  Li94  1  0.10881900  0.65662800  0.18719400  1
  Li  Li95  1  0.60881900  0.84337200  0.31280600  1
  Si  Si0  1  0.61565700  0.49219200  0.25000000  1
  Si  Si1  1  0.11565700  0.00780800  0.25000000  1
  Si  Si2  1  0.88434300  0.99219200  0.75000000  1
  Si  Si3  1  0.38434300  0.50780800  0.75000000  1
  Si  Si4  1  0.12227600  0.48803900  0.25000000  1
  Si  Si5  1  0.62227600  0.01196100  0.25000000  1
  Si  Si6  1  0.37772400  0.98803900  0.75000000  1
  Si  Si7  1  0.87772400  0.51196100  0.75000000  1
  Si  Si8  1  0.37178900  0.73546100  0.25000000  1
  Si  Si9  1  0.87178900  0.76453900  0.25000000  1
  Si  Si10  1  0.12821100  0.23546100  0.75000000  1
  Si  Si11  1  0.62821100  0.26453900  0.75000000  1
  Si  Si12  1  0.36702400  0.56955800  0.25000000  1
  Si  Si13  1  0.86702400  0.93044200  0.25000000  1
  Si  Si14  1  0.13297600  0.06955800  0.75000000  1
  Si  Si15  1  0.63297600  0.43044200  0.75000000  1
  Si  Si16  1  0.12387600  0.75195000  0.63215700  1
  Si  Si17  1  0.62387600  0.74805000  0.86784300  1
  Si  Si18  1  0.37612400  0.25195000  0.36784300  1
  Si  Si19  1  0.87612400  0.24805000  0.13215700  1
  Si  Si20  1  0.87612400  0.24805000  0.36784300  1
  Si  Si21  1  0.37612400  0.25195000  0.13215700  1
  Si  Si22  1  0.62387600  0.74805000  0.63215700  1
  Si  Si23  1  0.12387600  0.75195000  0.86784300  1
  Si  Si24  1  0.10653100  0.61401500  0.56501700  1
  Si  Si25  1  0.60653100  0.88598500  0.93498300  1
  Si  Si26  1  0.39346900  0.11401500  0.43498300  1
  Si  Si27  1  0.89346900  0.38598500  0.06501700  1
  Si  Si28  1  0.89346900  0.38598500  0.43498300  1
  Si  Si29  1  0.39346900  0.11401500  0.06501700  1
  Si  Si30  1  0.60653100  0.88598500  0.56501700  1
  Si  Si31  1  0.10653100  0.61401500  0.93498300  1
  Si  Si32  1  0.11776700  0.66644500  0.44939100  1
  Si  Si33  1  0.61776700  0.83355500  0.05060900  1
  Si  Si34  1  0.38223300  0.16644500  0.55060900  1
  Si  Si35  1  0.88223300  0.33355500  0.94939100  1
  Si  Si36  1  0.88223300  0.33355500  0.55060900  1
  Si  Si37  1  0.38223300  0.16644500  0.94939100  1
  Si  Si38  1  0.61776700  0.83355500  0.44939100  1
  Si  Si39  1  0.11776700  0.66644500  0.05060900  1
  Si  Si40  1  0.11992200  0.83141600  0.44685800  1
  Si  Si41  1  0.61992200  0.66858400  0.05314200  1
  Si  Si42  1  0.38007800  0.33141600  0.55314200  1
  Si  Si43  1  0.88007800  0.16858400  0.94685800  1
  Si  Si44  1  0.88007800  0.16858400  0.55314200  1
  Si  Si45  1  0.38007800  0.33141600  0.94685800  1
  Si  Si46  1  0.61992200  0.66858400  0.44685800  1
  Si  Si47  1  0.11992200  0.83141600  0.05314200  1
  Si  Si48  1  0.13114600  0.88583400  0.56082600  1
  Si  Si49  1  0.63114600  0.61416600  0.93917400  1
  Si  Si50  1  0.36885400  0.38583400  0.43917400  1
  Si  Si51  1  0.86885400  0.11416600  0.06082600  1
  Si  Si52  1  0.86885400  0.11416600  0.43917400  1
  Si  Si53  1  0.36885400  0.38583400  0.06082600  1
  Si  Si54  1  0.63114600  0.61416600  0.56082600  1
  Si  Si55  1  0.13114600  0.88583400  0.93917400  1
loop_
_geom_bond_atom_site_label_1
_geom_bond_atom_site_label_2
_geom_bond_distance
_geom_bond_site_symmetry_2
Li0 Si17 2.640098 1_555
Li0 Si22 2.640098 1_555
Li0 Si2 2.953463 1_555
Li1 Si23 2.640098 1_555
Li1 Si16 2.640098 1_555
Li1 Si3 2.953463 1_555
Li2 Si19 2.640098 1_555
Li2 Si20 2.640098 1_555
Li2 Si0 2.953463 1_555
Li3 Si18 2.640098 1_555
Li3 Si21 2.640098 1_555
Li3 Si1 2.953463 1_555
Li4 Si3 2.631824 1_555
Li4 Si7 2.830104 1_555
Li4 Si17 2.855376 1_555
Li4 Si22 2.855376 1_555
Li4 Si15 2.878252 1_555
Li5 Si2 2.631824 1_455
Li5 Si6 2.830104 1_555
Li5 Si23 2.855376 1_555
Li5 Si16 2.855376 1_555
Li5 Si14 2.878252 1_565
Li6 Si1 2.631824 1_655
Li6 Si5 2.830104 1_555
Li6 Si20 2.855376 1_555
Li6 Si19 2.855376 1_555
Li6 Si13 2.878252 1_545
Li7 Si0 2.631824 1_555
Li7 Si4 2.830104 1_555
Li7 Si18 2.855376 1_555
Li7 Si21 2.855376 1_555
Li7 Si12 2.878252 1_555
Li8 Li86 2.570175 1_555
Li8 Si54 2.650408 1_555
Li8 Si42 2.654185 1_555
Li8 Si3 2.680422 1_555
Li8 Si15 2.781658 1_555
Li9 Si55 2.650408 1_645
Li9 Si43 2.654185 1_555
Li9 Si2 2.680422 1_545
Li9 Si14 2.781658 1_655
Li10 Li84 2.570175 1_555
Li10 Si52 2.650408 1_465
Li10 Si40 2.654185 1_555
Li10 Si1 2.680422 1_565
Li10 Si13 2.781658 1_455
Li11 Li85 2.570175 1_555
Li11 Si53 2.650408 1_555
Li11 Si41 2.654185 1_555
Li11 Si0 2.680422 1_555
Li11 Si12 2.781658 1_555
Li12 Li82 2.570175 1_555
Li12 Si50 2.650408 1_555
Li12 Si46 2.654185 1_555
Li12 Si0 2.680422 1_555
Li12 Si12 2.781658 1_555
Li13 Li83 2.570175 1_555
Li13 Si51 2.650408 1_465
Li13 Si47 2.654185 1_555
Li13 Si1 2.680422 1_565
Li13 Si13 2.781658 1_455
Li14 Li80 2.570175 1_555
Li14 Si48 2.650408 1_645
Li14 Si44 2.654185 1_555
Li14 Si2 2.680422 1_545
Li14 Si14 2.781658 1_655
Li15 Li81 2.570175 1_555
Li15 Si49 2.650408 1_555
Li15 Si45 2.654185 1_555
Li15 Si3 2.680422 1_555
Li15 Si15 2.781658 1_555
Li16 Si36 2.623675 1_555
Li16 Li93 2.659755 1_555
Li16 Si54 2.675364 1_555
Li16 Si7 2.742214 1_555
Li16 Si24 2.969779 1_655
Li17 Si37 2.623675 1_555
Li17 Li92 2.659755 1_555
Li17 Si55 2.675364 1_545
Li17 Si6 2.742214 1_545
Li17 Si25 2.969779 1_545
Li18 Si38 2.623675 1_555
Li18 Li95 2.659755 1_555
Li18 Si52 2.675364 1_565
Li18 Si5 2.742214 1_565
Li18 Si26 2.969779 1_565
Li19 Si39 2.623675 1_555
Li19 Li94 2.659755 1_555
Li19 Si53 2.675364 1_555
Li19 Si4 2.742214 1_555
Li19 Si27 2.969779 1_455
Li20 Si32 2.623675 1_555
Li20 Li89 2.659755 1_555
Li20 Si50 2.675364 1_555
Li20 Si4 2.742214 1_555
Li20 Si28 2.969779 1_455
Li21 Si33 2.623675 1_555
Li21 Li88 2.659755 1_555
Li21 Si51 2.675364 1_565
Li21 Si5 2.742214 1_565
Li21 Si29 2.969779 1_565
Li22 Si34 2.623675 1_555
Li22 Li91 2.659755 1_555
Li22 Si48 2.675364 1_545
Li22 Si6 2.742214 1_545
Li22 Si30 2.969779 1_545
Li23 Si35 2.623675 1_555
Li23 Li90 2.659755 1_555
Li23 Si49 2.675364 1_555
Li23 Si7 2.742214 1_555
Li23 Si31 2.969779 1_655
Li24 Si23 2.571284 1_655
Li24 Si17 2.588832 1_555
Li24 Si7 2.684098 1_555
Li24 Si31 2.855803 1_655
Li24 Li64 2.893654 1_555
Li24 Si49 3.009381 1_555
Li25 Si22 2.571284 1_555
Li25 Si16 2.588832 1_555
Li25 Si6 2.684098 1_555
Li25 Si30 2.855803 1_555
Li25 Li65 2.893654 1_555
Li25 Si48 3.009381 1_555
Li26 Si21 2.571284 1_555
Li26 Si19 2.588832 1_555
Li26 Si5 2.684098 1_555
Li26 Si29 2.855803 1_555
Li26 Li66 2.893654 1_555
Li26 Si51 3.009381 1_555
Li27 Si20 2.571284 1_455
Li27 Si18 2.588832 1_555
Li27 Si4 2.684098 1_555
Li27 Si28 2.855803 1_455
Li27 Li67 2.893654 1_555
Li27 Si50 3.009381 1_555
Li28 Si19 2.571284 1_455
Li28 Si21 2.588832 1_555
Li28 Si4 2.684098 1_555
Li28 Si27 2.855803 1_455
Li28 Li68 2.893654 1_555
Li28 Si53 3.009381 1_555
Li29 Si18 2.571284 1_555
Li29 Si20 2.588832 1_555
Li29 Si5 2.684098 1_555
Li29 Si26 2.855803 1_555
Li29 Li69 2.893654 1_555
Li29 Si52 3.009381 1_555
Li30 Si17 2.571284 1_555
Li30 Si23 2.588832 1_555
Li30 Si6 2.684098 1_555
Li30 Si25 2.855803 1_555
Li30 Li70 2.893654 1_555
Li30 Si55 3.009381 1_555
Li31 Si16 2.571284 1_655
Li31 Si22 2.588832 1_555
Li31 Si7 2.684098 1_555
Li31 Si24 2.855803 1_655
Li31 Li71 2.893654 1_555
Li31 Si54 3.009381 1_555
Li32 Si33 2.594683 1_555
Li32 Si47 2.642750 1_555
Li32 Si29 2.680799 1_565
Li32 Si55 2.770153 1_554
Li32 Li70 2.801244 1_554
Li32 Si25 2.802286 1_554
Li33 Si32 2.594683 1_655
Li33 Si46 2.642750 1_555
Li33 Si28 2.680799 1_555
Li33 Si54 2.770153 1_555
Li33 Li71 2.801244 1_555
Li33 Si24 2.802286 1_655
Li34 Si35 2.594683 1_455
Li34 Si45 2.642750 1_555
Li34 Si31 2.680799 1_555
Li34 Si53 2.770153 1_556
Li34 Li68 2.801244 1_556
Li34 Si27 2.802286 1_456
Li35 Si34 2.594683 1_555
Li35 Si44 2.642750 1_555
Li35 Si30 2.680799 1_545
Li35 Si52 2.770153 1_555
Li35 Li69 2.801244 1_555
Li35 Si26 2.802286 1_555
Li36 Si37 2.594683 1_555
Li36 Si43 2.642750 1_555
Li36 Si25 2.680799 1_545
Li36 Si51 2.770153 1_556
Li36 Li66 2.801244 1_556
Li36 Si29 2.802286 1_556
Li37 Si36 2.594683 1_455
Li37 Si42 2.642750 1_555
Li37 Si24 2.680799 1_555
Li37 Si50 2.770153 1_555
Li37 Li67 2.801244 1_555
Li37 Si28 2.802286 1_455
Li38 Si39 2.594683 1_655
Li38 Si41 2.642750 1_555
Li38 Si27 2.680799 1_555
Li38 Si49 2.770153 1_554
Li38 Li64 2.801244 1_554
Li38 Si31 2.802286 1_654
Li39 Si38 2.594683 1_555
Li39 Si40 2.642750 1_555
Li39 Si26 2.680799 1_565
Li39 Si48 2.770153 1_555
Li39 Li65 2.801244 1_555
Li39 Si30 2.802286 1_555
Li40 Si45 2.621621 1_555
Li40 Si35 2.665501 1_555
Li40 Si11 2.694320 1_555
Li40 Si43 2.783288 1_555
Li40 Si37 2.810162 1_555
Li40 Li66 2.845125 1_556
Li40 Li87 2.871796 1_555
Li40 Li90 2.897011 1_555
Li40 Li81 2.928389 1_555
Li40 Li92 2.939728 1_555
Li41 Si44 2.621621 1_455
Li41 Si34 2.665501 1_555
Li41 Si10 2.694320 1_555
Li41 Si42 2.783288 1_555
Li41 Si36 2.810162 1_455
Li41 Li67 2.845125 1_555
Li41 Li86 2.871796 1_555
Li41 Li91 2.897011 1_555
Li41 Li80 2.928389 1_455
Li41 Li93 2.939728 1_455
Li42 Si47 2.621621 1_655
Li42 Si33 2.665501 1_555
Li42 Si9 2.694320 1_555
Li42 Si41 2.783288 1_555
Li42 Si39 2.810162 1_655
Li42 Li64 2.845125 1_554
Li42 Li85 2.871796 1_555
Li42 Li88 2.897011 1_555
Li42 Li83 2.928389 1_655
Li42 Li94 2.939728 1_655
Li43 Si46 2.621621 1_555
Li43 Si32 2.665501 1_555
Li43 Si8 2.694320 1_555
Li43 Si40 2.783288 1_555
Li43 Si38 2.810162 1_555
Li43 Li65 2.845125 1_555
Li43 Li84 2.871796 1_555
Li43 Li89 2.897011 1_555
Li43 Li82 2.928389 1_555
Li43 Li95 2.939728 1_555
Li44 Si41 2.621621 1_555
Li44 Si39 2.665501 1_555
Li44 Si8 2.694320 1_555
Li44 Si47 2.783288 1_555
Li44 Si33 2.810162 1_555
Li44 Li70 2.845125 1_554
Li44 Li83 2.871796 1_555
Li44 Li94 2.897011 1_555
Li44 Li85 2.928389 1_555
Li44 Li88 2.939728 1_555
Li45 Si40 2.621621 1_655
Li45 Si38 2.665501 1_555
Li45 Si9 2.694320 1_555
Li45 Si46 2.783288 1_555
Li45 Si32 2.810162 1_655
Li45 Li71 2.845125 1_555
Li45 Li82 2.871796 1_555
Li45 Li95 2.897011 1_555
Li45 Li84 2.928389 1_655
Li45 Li89 2.939728 1_655
Li46 Si43 2.621621 1_455
Li46 Si37 2.665501 1_555
Li46 Si10 2.694320 1_555
Li46 Si45 2.783288 1_555
Li46 Si35 2.810162 1_455
Li46 Li68 2.845125 1_556
Li46 Li81 2.871796 1_555
Li46 Li92 2.897011 1_555
Li46 Li87 2.928389 1_455
Li46 Li90 2.939728 1_455
Li47 Si42 2.621621 1_555
Li47 Si36 2.665501 1_555
Li47 Si11 2.694320 1_555
Li47 Si44 2.783288 1_555
Li47 Si34 2.810162 1_555
Li47 Li69 2.845125 1_555
Li47 Li80 2.871796 1_555
Li47 Li93 2.897011 1_555
Li47 Li86 2.928389 1_555
Li47 Li91 2.939728 1_555
Li48 Si49 2.682068 1_554
Li48 Si31 2.694115 1_554
Li48 Si39 2.708012 1_555
Li48 Si41 2.767288 1_555
Li48 Li70 2.797739 1_554
Li48 Si53 2.820761 1_555
Li49 Si48 2.682068 1_655
Li49 Si30 2.694115 1_555
Li49 Si38 2.708012 1_555
Li49 Si40 2.767288 1_655
Li49 Li71 2.797739 1_555
Li49 Si52 2.820761 1_565
Li50 Si51 2.682068 1_456
Li50 Si29 2.694115 1_556
Li50 Si37 2.708012 1_555
Li50 Si43 2.767288 1_455
Li50 Li68 2.797739 1_556
Li50 Si55 2.820761 1_545
Li51 Si50 2.682068 1_555
Li51 Si28 2.694115 1_555
Li51 Si36 2.708012 1_555
Li51 Si42 2.767288 1_555
Li51 Li69 2.797739 1_555
Li51 Si54 2.820761 1_555
Li52 Si53 2.682068 1_556
Li52 Si27 2.694115 1_556
Li52 Si35 2.708012 1_555
Li52 Si45 2.767288 1_555
Li52 Li66 2.797739 1_556
Li52 Si49 2.820761 1_555
Li53 Si52 2.682068 1_455
Li53 Si26 2.694115 1_555
Li53 Si34 2.708012 1_555
Li53 Si44 2.767288 1_455
Li53 Li67 2.797739 1_555
Li53 Si48 2.820761 1_545
Li54 Si55 2.682068 1_654
Li54 Si25 2.694115 1_554
Li54 Si33 2.708012 1_555
Li54 Si47 2.767288 1_655
Li54 Li64 2.797739 1_554
Li54 Si51 2.820761 1_565
Li55 Si54 2.682068 1_555
Li55 Si24 2.694115 1_555
Li55 Si32 2.708012 1_555
Li55 Si46 2.767288 1_555
Li55 Li65 2.797739 1_555
Li55 Si50 2.820761 1_555
Li56 Si17 2.670460 1_555
Li56 Si23 2.675720 1_555
Li56 Si31 2.777721 1_555
Li56 Si49 2.784147 1_555
Li56 Si3 2.787225 1_555
Li56 Li70 2.790650 1_555
Li57 Si16 2.670460 1_655
Li57 Si22 2.675720 1_555
Li57 Si30 2.777721 1_555
Li57 Si48 2.784147 1_655
Li57 Si2 2.787225 1_555
Li57 Li71 2.790650 1_555
Li58 Si19 2.670460 1_455
Li58 Si21 2.675720 1_555
Li58 Si29 2.777721 1_555
Li58 Si51 2.784147 1_455
Li58 Si1 2.787225 1_555
Li58 Li68 2.790650 1_555
Li59 Si18 2.670460 1_555
Li59 Si20 2.675720 1_555
Li59 Si28 2.777721 1_555
Li59 Si50 2.784147 1_555
Li59 Si0 2.787225 1_555
Li59 Li69 2.790650 1_555
Li60 Si21 2.670460 1_555
Li60 Si19 2.675720 1_555
Li60 Si27 2.777721 1_555
Li60 Si53 2.784147 1_555
Li60 Si0 2.787225 1_555
Li60 Li66 2.790650 1_555
Li61 Si20 2.670460 1_455
Li61 Si18 2.675720 1_555
Li61 Si26 2.777721 1_555
Li61 Si52 2.784147 1_455
Li61 Si1 2.787225 1_555
Li61 Li67 2.790650 1_555
Li62 Si23 2.670460 1_655
Li62 Si17 2.675720 1_555
Li62 Si25 2.777721 1_555
Li62 Si55 2.784147 1_655
Li62 Si2 2.787225 1_555
Li62 Li64 2.790650 1_555
Li63 Si22 2.670460 1_555
Li63 Si16 2.675720 1_555
Li63 Si24 2.777721 1_555
Li63 Si54 2.784147 1_555
Li63 Si3 2.787225 1_555
Li63 Li65 2.790650 1_555
Li64 Si31 2.815911 1_655
Li64 Si49 2.816825 1_555
Li64 Si39 2.876159 1_656
Li64 Si17 2.885531 1_555
Li64 Si41 2.913356 1_556
Li64 Si23 2.929637 1_655
Li64 Si47 2.978029 1_656
Li64 Si33 2.983970 1_556
Li64 Si55 3.068350 1_655
Li64 Si25 3.106598 1_555
Li65 Si30 2.815911 1_555
Li65 Si48 2.816825 1_555
Li65 Si38 2.876159 1_555
Li65 Si16 2.885531 1_555
Li65 Si40 2.913356 1_555
Li65 Si22 2.929637 1_555
Li65 Si46 2.978029 1_555
Li65 Si32 2.983970 1_555
Li65 Si54 3.068350 1_555
Li65 Si24 3.106598 1_555
Li66 Si29 2.815911 1_555
Li66 Si51 2.816825 1_555
Li66 Si37 2.876159 1_554
Li66 Si19 2.885531 1_555
Li66 Si43 2.913356 1_554
Li66 Si21 2.929637 1_555
Li66 Si45 2.978029 1_554
Li66 Si35 2.983970 1_554
Li66 Si53 3.068350 1_555
Li66 Si27 3.106598 1_555
Li67 Si28 2.815911 1_455
Li67 Si50 2.816825 1_555
Li67 Si36 2.876159 1_455
Li67 Si18 2.885531 1_555
Li67 Si42 2.913356 1_555
Li67 Si20 2.929637 1_455
Li67 Si44 2.978029 1_455
Li67 Si34 2.983970 1_555
Li67 Si52 3.068350 1_455
Li67 Si26 3.106598 1_555
Li68 Si27 2.815911 1_455
Li68 Si53 2.816825 1_555
Li68 Si35 2.876159 1_454
Li68 Si21 2.885531 1_555
Li68 Si45 2.913356 1_554
Li68 Si19 2.929637 1_455
Li68 Si43 2.978029 1_454
Li68 Si37 2.983970 1_554
Li68 Si51 3.068350 1_455
Li68 Si29 3.106598 1_555
Li69 Si26 2.815911 1_555
Li69 Si52 2.816825 1_555
Li69 Si34 2.876159 1_555
Li69 Si20 2.885531 1_555
Li69 Si44 2.913356 1_555
Li69 Si18 2.929637 1_555
Li69 Si42 2.978029 1_555
Li69 Si36 2.983970 1_555
Li69 Si50 3.068350 1_555
Li69 Si28 3.106598 1_555
Li70 Si25 2.815911 1_555
Li70 Si55 2.816825 1_555
Li70 Si33 2.876159 1_556
Li70 Si23 2.885531 1_555
Li70 Si47 2.913356 1_556
Li70 Si17 2.929637 1_555
Li70 Si41 2.978029 1_556
Li70 Si39 2.983970 1_556
Li70 Si49 3.068350 1_555
Li70 Si31 3.106598 1_555
Li71 Si24 2.815911 1_655
Li71 Si54 2.816825 1_555
Li71 Si32 2.876159 1_655
Li71 Si22 2.885531 1_555
Li71 Si46 2.913356 1_555
Li71 Si16 2.929637 1_655
Li71 Si40 2.978029 1_655
Li71 Si38 2.983970 1_555
Li71 Si48 3.068350 1_655
Li71 Si30 3.106598 1_555
Li72 Si3 2.642854 1_555
Li72 Si7 2.747119 1_455
Li72 Li86 2.798831 1_555
Li72 Si24 2.867871 1_555
Li72 Li93 2.869122 1_455
Li73 Si2 2.642854 1_545
Li73 Si6 2.747119 1_545
Li73 Li87 2.798831 1_555
Li73 Si25 2.867871 1_545
Li73 Li92 2.869122 1_555
Li74 Si1 2.642854 1_565
Li74 Si5 2.747119 1_565
Li74 Li84 2.798831 1_555
Li74 Si26 2.867871 1_565
Li74 Li95 2.869122 1_555
Li75 Si0 2.642854 1_555
Li75 Si4 2.747119 1_655
Li75 Li85 2.798831 1_555
Li75 Si27 2.867871 1_555
Li75 Li94 2.869122 1_655
Li76 Si0 2.642854 1_555
Li76 Si4 2.747119 1_655
Li76 Li82 2.798831 1_555
Li76 Si28 2.867871 1_555
Li76 Li89 2.869122 1_655
Li77 Si1 2.642854 1_565
Li77 Si5 2.747119 1_565
Li77 Li83 2.798831 1_555
Li77 Si29 2.867871 1_565
Li77 Li88 2.869122 1_555
Li78 Si2 2.642854 1_545
Li78 Si6 2.747119 1_545
Li78 Li80 2.798831 1_555
Li78 Si30 2.867871 1_545
Li78 Li91 2.869122 1_555
Li79 Si3 2.642854 1_555
Li79 Si7 2.747119 1_455
Li79 Li81 2.798831 1_555
Li79 Si31 2.867871 1_555
Li79 Li90 2.869122 1_455
Li80 Li87 2.397615 1_555
Li80 Li93 2.599430 1_555
Li80 Si44 2.669606 1_555
Li80 Si2 2.723574 1_545
Li80 Si11 2.750891 1_555
Li80 Si10 2.767385 1_655
Li80 Si14 2.920267 1_655
Li81 Li86 2.397615 1_555
Li81 Li92 2.599430 1_555
Li81 Si45 2.669606 1_555
Li81 Si3 2.723574 1_555
Li81 Si10 2.750891 1_555
Li81 Si11 2.767385 1_555
Li81 Si15 2.920267 1_555
Li82 Li85 2.397615 1_555
Li82 Li95 2.599430 1_555
Li82 Si46 2.669606 1_555
Li82 Si0 2.723574 1_555
Li82 Si9 2.750891 1_555
Li82 Si8 2.767385 1_555
Li82 Si12 2.920267 1_555
Li83 Li84 2.397615 1_555
Li83 Li94 2.599430 1_555
Li83 Si47 2.669606 1_555
Li83 Si1 2.723574 1_565
Li83 Si8 2.750891 1_555
Li83 Si9 2.767385 1_455
Li83 Si13 2.920267 1_455
Li84 Li89 2.599430 1_555
Li84 Si40 2.669606 1_555
Li84 Si1 2.723574 1_565
Li84 Si8 2.750891 1_555
Li84 Si9 2.767385 1_455
Li84 Si13 2.920267 1_455
Li85 Li88 2.599430 1_555
Li85 Si41 2.669606 1_555
Li85 Si0 2.723574 1_555
Li85 Si9 2.750891 1_555
Li85 Si8 2.767385 1_555
Li85 Si12 2.920267 1_555
Li86 Li91 2.599430 1_555
Li86 Si42 2.669606 1_555
Li86 Si3 2.723574 1_555
Li86 Si10 2.750891 1_555
Li86 Si11 2.767385 1_555
Li86 Si15 2.920267 1_555
Li87 Li9 2.570175 1_555
Li87 Li90 2.599430 1_555
Li87 Si43 2.669606 1_555
Li87 Si2 2.723574 1_545
Li87 Si11 2.750891 1_555
Li87 Si10 2.767385 1_655
Li87 Si14 2.920267 1_655
Li88 Li95 2.464842 1_555
Li88 Si33 2.684927 1_555
Li88 Si5 2.711904 1_565
Li88 Si9 2.797331 1_555
Li88 Si13 2.815005 1_555
Li88 Si8 2.827270 1_555
Li89 Li94 2.464842 1_555
Li89 Si32 2.684927 1_555
Li89 Si4 2.711904 1_555
Li89 Si8 2.797331 1_555
Li89 Si12 2.815005 1_555
Li89 Si9 2.827270 1_455
Li90 Li93 2.464842 1_555
Li90 Si35 2.684927 1_555
Li90 Si7 2.711904 1_555
Li90 Si11 2.797331 1_555
Li90 Si15 2.815005 1_555
Li90 Si10 2.827270 1_655
Li91 Li92 2.464842 1_555
Li91 Si34 2.684927 1_555
Li91 Si6 2.711904 1_545
Li91 Si10 2.797331 1_555
Li91 Si14 2.815005 1_555
Li91 Si11 2.827270 1_555
Li92 Si37 2.684927 1_555
Li92 Si6 2.711904 1_545
Li92 Si10 2.797331 1_555
Li92 Si14 2.815005 1_555
Li92 Si11 2.827270 1_555
Li93 Si36 2.684927 1_555
Li93 Si7 2.711904 1_555
Li93 Si11 2.797331 1_555
Li93 Si15 2.815005 1_555
Li93 Si10 2.827270 1_655
Li94 Si39 2.684927 1_555
Li94 Si4 2.711904 1_555
Li94 Si8 2.797331 1_555
Li94 Si12 2.815005 1_555
Li94 Si9 2.827270 1_455
Li95 Si38 2.684927 1_555
Li95 Si5 2.711904 1_565
Li95 Si9 2.797331 1_555
Li95 Si13 2.815005 1_555
Li95 Si8 2.827270 1_555
Si0 Si12 2.392783 1_555
Si1 Si13 2.392783 1_445
Si10 Si14 2.374865 1_555
Si11 Si15 2.374865 1_555
Si12 Si8 2.374865 1_555
Si12 Si4 2.391877 1_555
Si13 Si9 2.374865 1_555
Si13 Si5 2.391877 1_565
Si14 Si6 2.391877 1_545
Si14 Si2 2.392783 1_445
Si15 Si7 2.391877 1_555
Si15 Si3 2.392783 1_555
Si16 Si48 2.373814 1_555
Si16 Si24 2.378057 1_555
Si17 Si49 2.373814 1_555
Si17 Si25 2.378057 1_555
Si18 Si50 2.373814 1_555
Si18 Si26 2.378057 1_555
Si19 Si51 2.373814 1_555
Si19 Si27 2.378057 1_555
Si20 Si52 2.373814 1_555
Si20 Si28 2.378057 1_555
Si21 Si53 2.373814 1_555
Si21 Si29 2.378057 1_555
Si22 Si54 2.373814 1_555
Si22 Si30 2.378057 1_555
Si23 Si55 2.373814 1_555
Si23 Si31 2.378057 1_555
Si24 Si32 2.391688 1_555
Si25 Si33 2.391688 1_556
Si26 Si34 2.391688 1_555
Si27 Si35 2.391688 1_554
Si28 Si36 2.391688 1_555
Si29 Si37 2.391688 1_554
Si30 Si38 2.391688 1_555
Si31 Si39 2.391688 1_556
Si32 Si40 2.361772 1_555
Si33 Si41 2.361772 1_555
Si34 Si42 2.361772 1_555
Si35 Si43 2.361772 1_555
Si36 Si44 2.361772 1_555
Si37 Si45 2.361772 1_555
Si38 Si46 2.361772 1_555
Si39 Si47 2.361772 1_555
Si40 Si48 2.370040 1_555
Si41 Si49 2.370040 1_554
Si42 Si50 2.370040 1_555
Si43 Si51 2.370040 1_556
Si44 Si52 2.370040 1_555
Si45 Si53 2.370040 1_556
Si46 Si54 2.370040 1_555
Si47 Si55 2.370040 1_554
