# generated using pymatgen
data_CdIn2SnAu2
_symmetry_space_group_name_H-M   'P 1'
_cell_length_a   8.13220613
_cell_length_b   8.13220613
_cell_length_c   8.13220694
_cell_angle_alpha   33.96828961
_cell_angle_beta   33.96828961
_cell_angle_gamma   33.96829222
_symmetry_Int_Tables_number   1
_chemical_formula_structural   CdIn2SnAu2
_chemical_formula_sum   'Cd1 In2 Sn1 Au2'
_cell_volume   149.64887879
_cell_formula_units_Z   1
loop_
 _symmetry_equiv_pos_site_id
 _symmetry_equiv_pos_as_xyz
  1  'x, y, z'
loop_
 _atom_site_type_symbol
 _atom_site_label
 _atom_site_symmetry_multiplicity
 _atom_site_fract_x
 _atom_site_fract_y
 _atom_site_fract_z
 _atom_site_occupancy
  Cd  Cd0  1  0.37473700  0.37473700  0.37473700  1
  In  In0  1  0.12345900  0.12345900  0.12345900  1
  In  In1  1  0.62761800  0.62761800  0.62761800  1
  Sn  Sn0  1  0.87441000  0.87441000  0.87441000  1
  Au  Au0  1  0.99908100  0.99908100  0.99908100  1
  Au  Au1  1  0.50069600  0.50069600  0.50069600  1
loop_
_geom_bond_atom_site_label_1
_geom_bond_atom_site_label_2
_geom_bond_distance
_geom_bond_site_symmetry_2
Cd0 In1 3.307265 1_545
Cd0 In1 3.307265 1_455
Cd0 In1 3.307265 1_554
Cd0 In0 3.327974 1_565
Cd0 In0 3.327974 1_655
Cd0 In0 3.327974 1_556
In0 Sn0 3.357228 1_454
In0 Sn0 3.357228 1_544
In0 Sn0 3.357229 1_445
In1 Sn0 3.387382 1_455
In1 Sn0 3.387382 1_545
In1 Sn0 3.387382 1_554
Au0 In0 2.856582 1_666
Au0 Sn0 2.863312 1_555
Au0 In1 2.879363 1_556
Au0 In1 2.879363 1_655
Au0 In1 2.879363 1_565
Au0 Cd0 2.910098 1_665
Au0 Cd0 2.910098 1_566
Au0 Cd0 2.910098 1_656
Au1 Cd0 2.892893 1_555
Au1 Sn0 2.895505 1_554
Au1 Sn0 2.895505 1_545
Au1 Sn0 2.895505 1_455
Au1 In1 2.915010 1_555
Au1 In0 2.922426 1_556
Au1 In0 2.922427 1_655
Au1 In0 2.922427 1_565
