# generated using pymatgen
data_KBaPS4
_symmetry_space_group_name_H-M   'P 1'
_cell_length_a   6.75560489
_cell_length_b   9.81325683
_cell_length_c   12.16371181
_cell_angle_alpha   90.00000000
_cell_angle_beta   90.00000000
_cell_angle_gamma   90.00000000
_symmetry_Int_Tables_number   1
_chemical_formula_structural   KBaPS4
_chemical_formula_sum   'K4 Ba4 P4 S16'
_cell_volume   806.38702020
_cell_formula_units_Z   4
loop_
 _symmetry_equiv_pos_site_id
 _symmetry_equiv_pos_as_xyz
  1  'x, y, z'
loop_
 _atom_site_type_symbol
 _atom_site_label
 _atom_site_symmetry_multiplicity
 _atom_site_fract_x
 _atom_site_fract_y
 _atom_site_fract_z
 _atom_site_occupancy
  K  K0  1  0.25000000  0.16805197  0.62191380  1
  K  K1  1  0.75000000  0.83194803  0.37808620  1
  K  K2  1  0.75000000  0.66805197  0.87808620  1
  K  K3  1  0.25000000  0.33194803  0.12191380  1
  Ba  Ba0  1  0.25000000  0.62020653  0.64199160  1
  Ba  Ba1  1  0.75000000  0.37979347  0.35800840  1
  Ba  Ba2  1  0.75000000  0.12020653  0.85800840  1
  Ba  Ba3  1  0.25000000  0.87979347  0.14199160  1
  P  P0  1  0.75000000  0.10259102  0.17417643  1
  P  P1  1  0.25000000  0.60259102  0.32582357  1
  P  P2  1  0.75000000  0.39740898  0.67417643  1
  P  P3  1  0.25000000  0.89740898  0.82582357  1
  S  S0  1  0.49371482  0.60436487  0.22731582  1
  S  S1  1  0.99371482  0.39563513  0.77268418  1
  S  S2  1  0.50628518  0.10436487  0.27268418  1
  S  S3  1  0.00628518  0.89563513  0.72731582  1
  S  S4  1  0.25000000  0.07027353  0.92040889  1
  S  S5  1  0.25000000  0.42972647  0.42040889  1
  S  S6  1  0.75000000  0.92972647  0.07959111  1
  S  S7  1  0.75000000  0.57027353  0.57959111  1
  S  S8  1  0.25000000  0.77878375  0.41526399  1
  S  S9  1  0.75000000  0.22121625  0.58473601  1
  S  S10  1  0.75000000  0.27878375  0.08473601  1
  S  S11  1  0.25000000  0.72121625  0.91526399  1
  S  S12  1  0.99371482  0.10436487  0.27268418  1
  S  S13  1  0.49371482  0.89563513  0.72731582  1
  S  S14  1  0.00628518  0.60436487  0.22731582  1
  S  S15  1  0.50628518  0.39563513  0.77268418  1
loop_
_geom_bond_atom_site_label_1
_geom_bond_atom_site_label_2
_geom_bond_distance
_geom_bond_site_symmetry_2
K0 S1 3.368779 1_455
K0 S15 3.368779 1_555
K0 S13 3.391314 1_545
K0 S3 3.391314 1_545
K0 S9 3.447642 1_555
K0 S9 3.447642 1_455
K0 S5 3.549879 1_555
K1 S14 3.368779 1_655
K1 S0 3.368779 1_555
K1 S2 3.391314 1_565
K1 S12 3.391314 1_565
K1 S8 3.447642 1_655
K1 S8 3.447642 1_555
K1 S7 3.549879 1_555
K2 S13 3.368779 1_555
K2 S3 3.368779 1_655
K2 S1 3.391314 1_555
K2 S15 3.391314 1_555
K2 S11 3.447642 1_555
K2 S11 3.447642 1_655
K2 S6 3.549879 1_556
K3 S2 3.368779 1_555
K3 S12 3.368779 1_455
K3 S14 3.391314 1_555
K3 S0 3.391314 1_555
K3 S10 3.447642 1_555
K3 S10 3.447642 1_455
K3 S4 3.549879 1_554
Ba0 S8 3.166601 1_555
Ba0 S1 3.222020 1_455
Ba0 S15 3.222020 1_555
Ba0 S5 3.280014 1_555
Ba0 S3 3.330665 1_555
Ba0 S13 3.330665 1_555
Ba0 S11 3.468655 1_555
Ba0 S7 3.496537 1_455
Ba0 S7 3.496537 1_555
Ba1 S9 3.166601 1_555
Ba1 S14 3.222020 1_655
Ba1 S0 3.222020 1_555
Ba1 S7 3.280014 1_555
Ba1 S12 3.330665 1_555
Ba1 S2 3.330665 1_555
Ba1 S10 3.468655 1_555
Ba1 S5 3.496537 1_555
Ba1 S5 3.496537 1_655
Ba2 S10 3.166601 1_556
Ba2 S3 3.222020 1_645
Ba2 S13 3.222020 1_545
Ba2 S6 3.280014 1_546
Ba2 S1 3.330665 1_555
Ba2 S15 3.330665 1_555
Ba2 S9 3.468655 1_555
Ba2 S4 3.496537 1_655
Ba2 S4 3.496537 1_555
Ba3 S11 3.166601 1_554
Ba3 S2 3.222020 1_565
Ba3 S12 3.222020 1_465
Ba3 S4 3.280014 1_564
Ba3 S0 3.330665 1_555
Ba3 S14 3.330665 1_555
Ba3 S8 3.468655 1_555
Ba3 S6 3.496537 1_455
Ba3 S6 3.496537 1_555
P0 S12 2.036370 1_555
P0 S2 2.036370 1_555
P0 S10 2.042820 1_555
P0 S6 2.049713 1_545
P1 S0 2.036370 1_555
P1 S14 2.036370 1_555
P1 S8 2.042820 1_555
P1 S5 2.049713 1_555
P2 S1 2.036370 1_555
P2 S15 2.036370 1_555
P2 S9 2.042820 1_555
P2 S7 2.049713 1_555
P3 S13 2.036370 1_555
P3 S3 2.036370 1_555
P3 S11 2.042820 1_555
P3 S4 2.049713 1_565
