# generated using pymatgen
data_LuGaPd
_symmetry_space_group_name_H-M   'P 1'
_cell_length_a   4.38969032
_cell_length_b   6.75063551
_cell_length_c   7.51839865
_cell_angle_alpha   89.99670229
_cell_angle_beta   90.00000000
_cell_angle_gamma   90.00000000
_symmetry_Int_Tables_number   1
_chemical_formula_structural   LuGaPd
_chemical_formula_sum   'Lu4 Ga4 Pd4'
_cell_volume   222.79420582
_cell_formula_units_Z   4
loop_
 _symmetry_equiv_pos_site_id
 _symmetry_equiv_pos_as_xyz
  1  'x, y, z'
loop_
 _atom_site_type_symbol
 _atom_site_label
 _atom_site_symmetry_multiplicity
 _atom_site_fract_x
 _atom_site_fract_y
 _atom_site_fract_z
 _atom_site_occupancy
  Lu  Lu0  1  0.25000000  0.48652522  0.20217020  1
  Lu  Lu1  1  0.75000000  0.51349715  0.79780664  1
  Lu  Lu2  1  0.75000000  0.01347429  0.70216806  1
  Lu  Lu3  1  0.25000000  0.98654553  0.29779916  1
  Ga  Ga0  1  0.25000000  0.81812093  0.92199202  1
  Ga  Ga1  1  0.75000000  0.18186261  0.07798411  1
  Ga  Ga2  1  0.75000000  0.68186231  0.42202393  1
  Ga  Ga3  1  0.25000000  0.31814745  0.57805965  1
  Pd  Pd0  1  0.25000000  0.72011838  0.59374227  1
  Pd  Pd1  1  0.75000000  0.27990003  0.40626219  1
  Pd  Pd2  1  0.75000000  0.77975107  0.09372522  1
  Pd  Pd3  1  0.25000000  0.22019503  0.90626755  1
loop_
_geom_bond_atom_site_label_1
_geom_bond_atom_site_label_2
_geom_bond_distance
_geom_bond_site_symmetry_2
Lu0 Pd3 2.860463 1_554
Lu0 Pd1 3.019475 1_555
Lu0 Pd1 3.019475 1_455
Lu0 Pd2 3.065973 1_455
Lu0 Pd2 3.065973 1_555
Lu0 Pd0 3.339800 1_555
Lu1 Pd2 2.860233 1_556
Lu1 Pd0 3.019357 1_555
Lu1 Pd0 3.019357 1_655
Lu1 Pd3 3.066338 1_555
Lu1 Pd3 3.066338 1_655
Lu1 Pd1 3.339629 1_555
Lu2 Pd1 2.860727 1_555
Lu2 Pd3 3.019883 1_555
Lu2 Pd3 3.019883 1_655
Lu2 Pd0 3.066562 1_645
Lu2 Pd0 3.066562 1_545
Lu2 Pd2 3.339955 1_546
Lu3 Pd0 2.860950 1_555
Lu3 Pd2 3.020016 1_555
Lu3 Pd2 3.020016 1_455
Lu3 Pd1 3.066631 1_565
Lu3 Pd1 3.066631 1_465
Lu3 Pd3 3.339551 1_564
Ga0 Pd0 2.555087 1_555
Ga0 Pd2 2.559588 1_556
Ga0 Pd2 2.559588 1_456
Ga0 Pd3 2.716822 1_565
Ga0 Lu3 3.045710 1_556
Ga0 Lu2 3.047576 1_465
Ga0 Lu2 3.047576 1_565
Ga0 Lu0 3.073689 1_556
Ga0 Lu1 3.149304 1_455
Ga0 Lu1 3.149304 1_555
Ga1 Pd1 2.555353 1_555
Ga1 Pd3 2.559499 1_654
Ga1 Pd3 2.559499 1_554
Ga1 Pd2 2.717080 1_545
Ga1 Lu2 3.045680 1_554
Ga1 Lu3 3.047433 1_645
Ga1 Lu3 3.047433 1_545
Ga1 Lu1 3.073876 1_554
Ga1 Lu0 3.149476 1_555
Ga1 Lu0 3.149476 1_655
Ga2 Pd2 2.555170 1_555
Ga2 Pd0 2.559469 1_555
Ga2 Pd0 2.559469 1_655
Ga2 Pd1 2.716094 1_555
Ga2 Lu1 3.045268 1_555
Ga2 Lu0 3.047732 1_555
Ga2 Lu0 3.047732 1_655
Ga2 Lu2 3.073770 1_565
Ga2 Lu3 3.149583 1_655
Ga2 Lu3 3.149583 1_555
Ga3 Pd3 2.554622 1_555
Ga3 Pd1 2.559763 1_455
Ga3 Pd1 2.559763 1_555
Ga3 Pd0 2.716126 1_555
Ga3 Lu0 3.046044 1_555
Ga3 Lu1 3.047334 1_455
Ga3 Lu1 3.047334 1_555
Ga3 Lu3 3.074320 1_545
Ga3 Lu2 3.149280 1_555
Ga3 Lu2 3.149280 1_455
