# generated using pymatgen
data_ThP2(NO4)2
_symmetry_space_group_name_H-M   'P 1'
_cell_length_a   10.90216830
_cell_length_b   10.69921718
_cell_length_c   6.99035842
_cell_angle_alpha   72.70042471
_cell_angle_beta   69.55196951
_cell_angle_gamma   37.74760579
_symmetry_Int_Tables_number   1
_chemical_formula_structural   ThP2(NO4)2
_chemical_formula_sum   'Th2 P4 N4 O16'
_cell_volume   467.39756569
_cell_formula_units_Z   2
loop_
 _symmetry_equiv_pos_site_id
 _symmetry_equiv_pos_as_xyz
  1  'x, y, z'
loop_
 _atom_site_type_symbol
 _atom_site_label
 _atom_site_symmetry_multiplicity
 _atom_site_fract_x
 _atom_site_fract_y
 _atom_site_fract_z
 _atom_site_occupancy
  Th  Th0  1  0.35806400  0.14193600  0.35806400  1
  Th  Th1  1  0.10806400  0.89193600  0.10806400  1
  P  P0  1  0.30834200  0.04266200  0.93163700  1
  P  P1  1  0.53264100  0.31836300  0.20733800  1
  P  P2  1  0.20733800  0.94165800  0.53264100  1
  P  P3  1  0.93163700  0.71735900  0.30834200  1
  N  N0  1  0.89334700  0.82115700  0.65535900  1
  N  N1  1  0.61986300  0.59464100  0.42884300  1
  N  N2  1  0.42884300  0.35665300  0.61986300  1
  N  N3  1  0.65535900  0.63013700  0.89334700  1
  O  O0  1  0.35609400  0.08334700  0.70751700  1
  O  O1  1  0.39695800  0.54248300  0.16665300  1
  O  O2  1  0.75680800  0.18062700  0.17917900  1
  O  O3  1  0.36661400  0.07082100  0.06937300  1
  O  O4  1  0.17917900  0.88338600  0.75680800  1
  O  O5  1  0.06937300  0.49319200  0.36661400  1
  O  O6  1  0.70751700  0.85304200  0.35609400  1
  O  O7  1  0.16665300  0.89390600  0.39695800  1
  O  O8  1  0.10452000  0.12806300  0.00832700  1
  O  O9  1  0.45511600  0.79026800  0.96168800  1
  O  O10  1  0.49091000  0.24167300  0.12193700  1
  O  O11  1  0.45707200  0.28831200  0.45973200  1
  O  O12  1  0.45973200  0.79488400  0.45707200  1
  O  O13  1  0.12193700  0.14548000  0.49091000  1
  O  O14  1  0.96168800  0.79292800  0.45511600  1
  O  O15  1  0.00832700  0.75909000  0.10452000  1
loop_
_geom_bond_atom_site_label_1
_geom_bond_atom_site_label_2
_geom_bond_distance
_geom_bond_site_symmetry_2
N0 O14 1.331376 1_555
N1 O12 1.331376 1_555
N2 O11 1.331376 1_555
N3 O9 1.331376 1_555
O0 P0 1.515881 1_555
O0 Th0 2.331226 1_555
O1 P1 1.515881 1_555
O1 Th1 2.331226 1_555
O2 P1 1.524462 1_555
O2 Th1 2.308630 1_645
O3 P0 1.524462 1_554
O3 Th0 2.308630 1_555
O4 P2 1.524462 1_555
O4 Th1 2.308630 1_556
O5 P3 1.524462 1_455
O5 Th0 2.308630 1_555
O6 P3 1.515881 1_555
O6 Th0 2.331226 1_565
O7 P2 1.515881 1_555
O7 Th1 2.331226 1_555
O8 P0 1.519239 1_554
O8 Th1 2.384752 1_545
O9 P0 1.720719 1_565
O9 Th1 2.827401 1_556
O10 P1 1.519239 1_555
O10 Th0 2.384752 1_555
O11 P1 1.720719 1_555
O11 Th0 2.827401 1_555
O12 P2 1.720719 1_555
O12 Th0 2.827401 1_565
O13 P2 1.519239 1_545
O13 Th0 2.384752 1_555
O14 P3 1.720719 1_555
O14 Th1 2.827401 1_655
O15 P3 1.519239 1_455
O15 Th1 2.384752 1_555
