# generated using pymatgen
data_Y3(Fe8Mo)4
_symmetry_space_group_name_H-M   'P 1'
_cell_length_a   4.73252100
_cell_length_b   6.47925882
_cell_length_c   18.23054420
_cell_angle_alpha   93.11076429
_cell_angle_beta   82.54216964
_cell_angle_gamma   111.42022096
_symmetry_Int_Tables_number   1
_chemical_formula_structural   Y3(Fe8Mo)4
_chemical_formula_sum   'Y3 Fe32 Mo4'
_cell_volume   515.97855371
_cell_formula_units_Z   1
loop_
 _symmetry_equiv_pos_site_id
 _symmetry_equiv_pos_as_xyz
  1  'x, y, z'
loop_
 _atom_site_type_symbol
 _atom_site_label
 _atom_site_symmetry_multiplicity
 _atom_site_fract_x
 _atom_site_fract_y
 _atom_site_fract_z
 _atom_site_occupancy
  Y  Y0  1  0.00027200  0.00033600  0.99979100  1
  Y  Y1  1  0.32923500  0.99399700  0.33552600  1
  Y  Y2  1  0.66289300  0.99442800  0.66864200  1
  Fe  Fe0  1  0.34997900  0.77484000  0.07488200  1
  Fe  Fe1  1  0.68069200  0.77135500  0.40997000  1
  Fe  Fe2  1  0.01393200  0.77091100  0.74304600  1
  Fe  Fe3  1  0.98334400  0.22505700  0.25837000  1
  Fe  Fe4  1  0.31867000  0.22812300  0.59078200  1
  Fe  Fe5  1  0.65192700  0.22749700  0.92364200  1
  Fe  Fe6  1  0.76023500  0.78061500  0.26014600  1
  Fe  Fe7  1  0.09351200  0.77917000  0.59214700  1
  Fe  Fe8  1  0.42620200  0.77779900  0.92539400  1
  Fe  Fe9  1  0.57341400  0.22008200  0.07325500  1
  Fe  Fe10  1  0.90820300  0.22358200  0.40717700  1
  Fe  Fe11  1  0.24179200  0.22364800  0.74006400  1
  Fe  Fe12  1  0.16730000  0.00019000  0.16663000  1
  Fe  Fe13  1  0.49826200  0.99840800  0.50015100  1
  Fe  Fe14  1  0.83104300  0.99782300  0.83342700  1
  Fe  Fe15  1  0.66626100  0.00019000  0.16663000  1
  Fe  Fe16  1  0.99999500  0.99840800  0.50015100  1
  Fe  Fe17  1  0.33335300  0.99782300  0.83342700  1
  Fe  Fe18  1  0.00067000  0.49865500  0.99926800  1
  Fe  Fe19  1  0.33098000  0.50103700  0.33490800  1
  Fe  Fe20  1  0.66547100  0.49943600  0.66733600  1
  Fe  Fe21  1  0.49871700  0.49865500  0.99926800  1
  Fe  Fe22  1  0.83514800  0.50103700  0.33490800  1
  Fe  Fe23  1  0.16663100  0.49943600  0.66733600  1
  Fe  Fe24  1  0.09399500  0.64127900  0.45328900  1
  Fe  Fe25  1  0.42760500  0.64137200  0.78616300  1
  Fe  Fe26  1  0.11944800  0.35810000  0.11920400  1
  Fe  Fe27  1  0.45341500  0.35961500  0.45278400  1
  Fe  Fe28  1  0.78682800  0.35967300  0.78601800  1
  Fe  Fe29  1  0.21369900  0.64145100  0.21405200  1
  Fe  Fe30  1  0.54741400  0.64167500  0.54684900  1
  Fe  Fe31  1  0.88075400  0.64163400  0.88012700  1
  Mo  Mo0  1  0.57107100  0.35776000  0.21561700  1
  Mo  Mo1  1  0.91069400  0.36578700  0.54440100  1
  Mo  Mo2  1  0.24454500  0.36581300  0.87672200  1
  Mo  Mo3  1  0.76240200  0.64330400  0.11849900  1
loop_
_geom_bond_atom_site_label_1
_geom_bond_atom_site_label_2
_geom_bond_distance
_geom_bond_site_symmetry_2
Fe0 Fe12 2.441008 1_565
Fe0 Fe15 2.441010 1_565
Fe0 Fe21 2.449152 1_554
Fe0 Fe18 2.449152 1_554
Fe0 Mo3 2.619079 1_555
Fe0 Mo3 2.619083 1_455
Fe0 Fe26 2.643920 1_555
Fe0 Fe29 2.646901 1_555
Fe0 Fe9 2.685953 1_565
Fe0 Fe8 2.702385 1_554
Fe0 Y0 3.052710 1_664
Fe0 Y0 3.052713 1_564
Fe1 Fe22 2.426897 1_555
Fe1 Fe19 2.426897 1_555
Fe1 Fe13 2.430895 1_555
Fe1 Fe16 2.430898 1_555
Fe1 Fe30 2.600504 1_555
Fe1 Fe27 2.606781 1_555
Fe1 Fe24 2.614775 1_555
Fe1 Fe24 2.614779 1_655
Fe1 Fe6 2.709259 1_555
Fe1 Fe10 2.728548 1_565
Fe1 Y1 3.039789 1_555
Fe1 Y1 3.039790 1_655
Fe2 Fe20 2.434581 1_455
Fe2 Fe23 2.434588 1_555
Fe2 Fe31 2.603240 1_455
Fe2 Fe28 2.604760 1_455
Fe2 Fe25 2.612696 1_455
Fe2 Fe25 2.612704 1_555
Fe2 Fe7 2.728525 1_555
Fe2 Y2 3.041818 1_455
Fe2 Y2 3.041822 1_555
Fe3 Mo0 2.616543 1_655
Fe3 Mo0 2.616551 1_555
Fe3 Fe6 2.681179 1_545
Fe3 Y1 3.084740 1_645
Fe3 Y1 3.084748 1_545
Fe4 Mo1 2.646111 1_455
Fe4 Mo1 2.646123 1_555
Fe4 Fe7 2.708253 1_545
Fe4 Y2 3.097813 1_445
Fe4 Y2 3.097816 1_545
Fe5 Mo2 2.650487 1_555
Fe5 Mo2 2.650488 1_655
Fe5 Fe9 2.705156 1_556
Fe5 Fe8 2.712871 1_545
Fe5 Y0 3.065835 1_655
Fe5 Y0 3.065835 1_555
Fe6 Mo0 2.668825 1_555
Fe6 Mo3 2.685210 1_555
Fe6 Y1 3.014344 1_655
Fe6 Y1 3.014351 1_555
Fe7 Mo1 2.632485 1_455
Fe7 Y2 3.028242 1_555
Fe7 Y2 3.028245 1_455
Fe8 Mo2 2.629960 1_555
Fe8 Y0 3.030282 1_565
Fe8 Y0 3.030282 1_665
Fe9 Mo3 2.674767 1_555
Fe9 Mo0 2.698172 1_555
Fe9 Y0 3.015505 1_654
Fe9 Y0 3.015513 1_554
Fe10 Fe19 2.432352 1_655
Fe10 Fe22 2.432356 1_555
Fe10 Fe16 2.472375 1_545
Fe10 Fe13 2.472378 1_545
Fe10 Mo1 2.618584 1_555
Fe10 Fe27 2.634766 1_655
Fe10 Fe27 2.634775 1_555
Fe10 Fe24 2.647844 1_655
Fe10 Fe3 2.689965 1_555
Fe10 Y1 3.027812 1_645
Fe10 Y1 3.027820 1_545
Fe11 Fe23 2.433370 1_555
Fe11 Fe20 2.433375 1_555
Fe11 Fe17 2.480019 1_545
Fe11 Fe14 2.480020 1_445
Fe11 Mo2 2.608842 1_555
Fe11 Fe28 2.636708 1_455
Fe11 Fe28 2.636713 1_555
Fe11 Fe25 2.647926 1_555
Fe11 Fe4 2.698806 1_555
Fe11 Fe2 2.731714 1_545
Fe11 Y2 3.025062 1_545
Fe11 Y2 3.025062 1_445
Fe12 Fe15 2.361343 1_555
Fe12 Fe15 2.371178 1_455
Fe12 Fe3 2.441689 1_455
Fe12 Fe9 2.456695 1_555
Fe12 Fe6 2.459783 1_445
Fe12 Mo3 2.601648 1_445
Fe12 Mo0 2.607932 1_555
Fe12 Fe26 2.613152 1_555
Fe12 Fe29 2.615045 1_545
Fe12 Y0 3.240515 1_554
Fe12 Y1 3.273834 1_545
Fe13 Fe16 2.358059 1_455
Fe13 Fe16 2.374462 1_555
Fe13 Fe7 2.436577 1_555
Fe13 Fe4 2.441336 1_565
Fe13 Fe24 2.592429 1_555
Fe13 Fe30 2.603644 1_555
Fe13 Fe27 2.626347 1_565
Fe13 Mo1 2.633116 1_565
Fe13 Y1 3.200800 1_555
Fe13 Y2 3.269168 1_555
Fe14 Fe17 2.355328 1_555
Fe14 Fe17 2.377193 1_655
Fe14 Fe2 2.433498 1_655
Fe14 Fe5 2.435528 1_565
Fe14 Fe8 2.438160 1_555
Fe14 Fe25 2.590762 1_555
Fe14 Fe31 2.601559 1_555
Fe14 Fe28 2.629213 1_565
Fe14 Mo2 2.631745 1_665
Fe14 Y2 3.202983 1_555
Fe14 Y0 3.233552 1_665
Fe15 Fe3 2.441689 1_555
Fe15 Fe9 2.456695 1_555
Fe15 Fe6 2.459782 1_545
Fe15 Mo3 2.601643 1_545
Fe15 Mo0 2.607936 1_555
Fe15 Fe26 2.613150 1_655
Fe15 Fe29 2.615050 1_545
Fe15 Y0 3.240512 1_654
Fe15 Y1 3.273838 1_545
Fe16 Fe7 2.436579 1_655
Fe16 Fe4 2.441334 1_665
Fe16 Fe24 2.592429 1_655
Fe16 Fe30 2.603640 1_555
Fe16 Fe27 2.626346 1_665
Fe16 Mo1 2.633112 1_565
Fe16 Y1 3.200799 1_655
Fe16 Y2 3.269168 1_555
Fe17 Fe2 2.433501 1_555
Fe17 Fe5 2.435526 1_565
Fe17 Fe8 2.438157 1_555
Fe17 Fe25 2.590764 1_555
Fe17 Fe31 2.601557 1_455
Fe17 Fe28 2.629215 1_565
Fe17 Mo2 2.631747 1_565
Fe17 Y2 3.202983 1_555
Fe17 Y0 3.233554 1_565
Fe18 Fe21 2.357018 1_555
Fe18 Fe21 2.375503 1_455
Fe18 Fe5 2.433377 1_455
Fe18 Fe8 2.457730 1_555
Fe18 Fe9 2.460927 1_456
Fe18 Mo3 2.605601 1_456
Fe18 Fe31 2.611561 1_455
Fe18 Fe26 2.614421 1_556
Fe18 Mo2 2.628980 1_555
Fe18 Y0 3.228581 1_555
Fe18 Y0 3.250705 1_565
Fe19 Fe22 2.346535 1_455
Fe19 Fe22 2.385986 1_555
Fe19 Fe3 2.455085 1_455
Fe19 Fe6 2.475319 1_555
Fe19 Fe24 2.577658 1_555
Fe19 Fe27 2.591922 1_555
Fe19 Mo0 2.606182 1_555
Fe19 Fe29 2.625642 1_555
Fe19 Y1 3.196446 1_555
Fe19 Y1 3.282864 1_545
Fe20 Fe23 2.360771 1_555
Fe20 Fe23 2.371750 1_655
Fe20 Fe4 2.439809 1_555
Fe20 Fe7 2.476806 1_655
Fe20 Fe25 2.590872 1_555
Fe20 Fe28 2.597368 1_555
Fe20 Fe30 2.626916 1_555
Fe20 Mo1 2.639647 1_555
Fe20 Y2 3.210443 1_555
Fe20 Y2 3.269010 1_545
Fe21 Fe5 2.433375 1_555
Fe21 Fe8 2.457732 1_555
Fe21 Fe9 2.460929 1_556
Fe21 Mo3 2.605599 1_556
Fe21 Fe31 2.611563 1_555
Fe21 Fe26 2.614421 1_556
Fe21 Mo2 2.628982 1_555
Fe21 Y0 3.228583 1_555
Fe21 Y0 3.250704 1_665
Fe22 Fe3 2.455089 1_555
Fe22 Fe6 2.475315 1_555
Fe22 Fe24 2.577660 1_655
Fe22 Fe27 2.591923 1_555
Fe22 Mo0 2.606182 1_555
Fe22 Fe29 2.625642 1_655
Fe22 Y1 3.196446 1_655
Fe22 Y1 3.282864 1_545
Fe23 Fe4 2.439802 1_555
Fe23 Fe7 2.476808 1_555
Fe23 Fe25 2.590870 1_555
Fe23 Fe28 2.597370 1_455
Fe23 Fe30 2.626916 1_555
Fe23 Mo1 2.639647 1_455
Fe23 Y2 3.210440 1_555
Fe23 Y2 3.269014 1_445
Fe24 Mo1 2.348282 1_455
Fe24 Fe7 2.638375 1_555
Fe24 Fe30 2.908495 1_455
Fe24 Fe30 2.908502 1_555
Fe24 Fe27 2.912962 1_555
Fe24 Fe27 2.912967 1_455
Fe24 Y1 3.020770 1_555
Fe25 Mo2 2.341518 1_555
Fe25 Fe8 2.642073 1_555
Fe25 Fe31 2.912754 1_555
Fe25 Fe31 2.912754 1_455
Fe25 Fe28 2.913103 1_555
Fe25 Fe28 2.913103 1_455
Fe25 Y2 3.019114 1_555
Fe26 Fe29 2.411833 1_555
Fe26 Fe9 2.640417 1_455
Fe26 Fe9 2.640422 1_555
Fe26 Fe3 2.646184 1_455
Fe26 Mo3 2.925576 1_555
Fe26 Mo3 2.925580 1_455
Fe26 Mo0 2.938803 1_555
Fe26 Mo0 2.938807 1_455
Fe26 Y0 3.040842 1_554
Fe27 Fe30 2.396374 1_555
Fe27 Fe4 2.623163 1_555
Fe27 Mo1 2.888302 1_455
Fe27 Mo1 2.888313 1_555
Fe27 Y1 3.047380 1_545
Fe28 Fe31 2.396513 1_555
Fe28 Fe5 2.618002 1_555
Fe28 Mo2 2.878872 1_655
Fe28 Mo2 2.878880 1_555
Fe28 Y2 3.047237 1_545
Fe29 Fe3 2.641909 1_455
Fe29 Fe6 2.643405 1_455
Fe29 Fe6 2.643414 1_555
Fe29 Mo0 2.920397 1_555
Fe29 Mo0 2.920398 1_455
Fe29 Mo3 2.929673 1_455
Fe29 Mo3 2.929673 1_555
Fe29 Y1 3.045313 1_555
Fe30 Fe4 2.623415 1_555
Fe30 Fe7 2.635780 1_655
Fe30 Fe7 2.635784 1_555
Fe30 Mo1 2.892958 1_555
Fe30 Mo1 2.892959 1_455
Fe30 Y2 3.050308 1_555
Fe31 Fe5 2.624450 1_555
Fe31 Fe8 2.633110 1_655
Fe31 Fe8 2.633119 1_555
Fe31 Mo2 2.892964 1_655
Fe31 Mo2 2.892972 1_555
Fe31 Y0 3.048024 1_665
Mo0 Mo3 2.468454 1_555
Mo0 Y1 3.095641 1_545
Mo1 Y2 3.183681 1_545
Mo2 Y0 3.143494 1_555
Mo3 Y0 3.051366 1_664
