# generated using pymatgen
data_ScNiP
_symmetry_space_group_name_H-M   'P 1'
_cell_length_a   3.73296501
_cell_length_b   6.33519374
_cell_length_c   7.03851522
_cell_angle_alpha   90.00000000
_cell_angle_beta   90.00000000
_cell_angle_gamma   90.00000000
_symmetry_Int_Tables_number   1
_chemical_formula_structural   ScNiP
_chemical_formula_sum   'Sc4 Ni4 P4'
_cell_volume   166.45424456
_cell_formula_units_Z   4
loop_
 _symmetry_equiv_pos_site_id
 _symmetry_equiv_pos_as_xyz
  1  'x, y, z'
loop_
 _atom_site_type_symbol
 _atom_site_label
 _atom_site_symmetry_multiplicity
 _atom_site_fract_x
 _atom_site_fract_y
 _atom_site_fract_z
 _atom_site_occupancy
  Sc  Sc0  1  0.75000000  0.48066120  0.18552120  1
  Sc  Sc1  1  0.25000000  0.01933880  0.68552120  1
  Sc  Sc2  1  0.75000000  0.98066120  0.31447880  1
  Sc  Sc3  1  0.25000000  0.51933880  0.81447880  1
  Ni  Ni0  1  0.25000000  0.64067228  0.43896992  1
  Ni  Ni1  1  0.25000000  0.14067228  0.06103008  1
  Ni  Ni2  1  0.75000000  0.85932772  0.93896992  1
  Ni  Ni3  1  0.75000000  0.35932772  0.56103008  1
  P  P0  1  0.25000000  0.76752918  0.11736216  1
  P  P1  1  0.25000000  0.26752918  0.38263784  1
  P  P2  1  0.75000000  0.23247082  0.88263784  1
  P  P3  1  0.75000000  0.73247082  0.61736216  1
loop_
_geom_bond_atom_site_label_1
_geom_bond_atom_site_label_2
_geom_bond_distance
_geom_bond_site_symmetry_2
Ni0 P3 2.323477 1_455
Ni0 P3 2.323477 1_555
Ni0 P1 2.396954 1_555
Ni0 P0 2.402071 1_555
Ni0 Ni3 2.720055 1_455
Ni0 Ni3 2.720055 1_555
Ni0 Sc3 2.752533 1_555
Ni0 Sc0 2.773744 1_455
Ni0 Sc0 2.773744 1_555
Ni0 Sc1 2.960794 1_565
Ni0 Sc2 2.981746 1_455
Ni0 Sc2 2.981746 1_555
Ni1 P2 2.323477 1_454
Ni1 P2 2.323477 1_554
Ni1 P0 2.396954 1_545
Ni1 P1 2.402071 1_555
Ni1 Ni2 2.720055 1_544
Ni1 Ni2 2.720055 1_444
Ni1 Sc1 2.752533 1_554
Ni1 Sc2 2.773744 1_445
Ni1 Sc2 2.773744 1_545
Ni1 Sc3 2.960794 1_554
Ni1 Sc0 2.981746 1_455
Ni1 Sc0 2.981746 1_555
Ni2 P0 2.323477 1_556
Ni2 P0 2.323477 1_656
Ni2 P2 2.396954 1_565
Ni2 P3 2.402071 1_555
Ni2 Sc2 2.752533 1_556
Ni2 Sc1 2.773744 1_565
Ni2 Sc1 2.773744 1_665
Ni2 Sc0 2.960794 1_556
Ni2 Sc3 2.981746 1_555
Ni2 Sc3 2.981746 1_655
Ni3 P1 2.323477 1_555
Ni3 P1 2.323477 1_655
Ni3 P3 2.396954 1_555
Ni3 P2 2.402071 1_555
Ni3 Sc0 2.752533 1_555
Ni3 Sc3 2.773744 1_655
Ni3 Sc3 2.773744 1_555
Ni3 Sc2 2.960794 1_545
Ni3 Sc1 2.981746 1_555
Ni3 Sc1 2.981746 1_655
P0 Sc0 2.648909 1_455
P0 Sc0 2.648909 1_555
P0 Sc3 2.648965 1_554
P0 Sc2 2.689198 1_555
P0 Sc2 2.689198 1_455
P1 Sc2 2.648909 1_445
P1 Sc2 2.648909 1_545
P1 Sc1 2.648965 1_555
P1 Sc0 2.689198 1_455
P1 Sc0 2.689198 1_555
P2 Sc3 2.648909 1_555
P2 Sc3 2.648909 1_655
P2 Sc0 2.648965 1_556
P2 Sc1 2.689198 1_655
P2 Sc1 2.689198 1_555
P3 Sc1 2.648909 1_565
P3 Sc1 2.648909 1_665
P3 Sc2 2.648965 1_555
P3 Sc3 2.689198 1_555
P3 Sc3 2.689198 1_655
