# generated using pymatgen
data_PrGa2Ni
_symmetry_space_group_name_H-M   'P 1'
_cell_length_a   4.18308333
_cell_length_b   4.19510206
_cell_length_c   8.97169882
_cell_angle_alpha   103.52068296
_cell_angle_beta   90.00000000
_cell_angle_gamma   90.00000000
_symmetry_Int_Tables_number   1
_chemical_formula_structural   PrGa2Ni
_chemical_formula_sum   'Pr2 Ga4 Ni2'
_cell_volume   153.07616758
_cell_formula_units_Z   2
loop_
 _symmetry_equiv_pos_site_id
 _symmetry_equiv_pos_as_xyz
  1  'x, y, z'
loop_
 _atom_site_type_symbol
 _atom_site_label
 _atom_site_symmetry_multiplicity
 _atom_site_fract_x
 _atom_site_fract_y
 _atom_site_fract_z
 _atom_site_occupancy
  Pr  Pr0  1  0.50000000  0.35818952  0.71637803  1
  Pr  Pr1  1  0.50000000  0.64181048  0.28362197  1
  Ga  Ga0  1  0.00000000  0.20926539  0.41852978  1
  Ga  Ga1  1  0.00000000  0.79073461  0.58147022  1
  Ga  Ga2  1  0.50000000  -0.00000000  -0.00000000  1
  Ga  Ga3  1  0.00000000  0.50000000  -0.00000000  1
  Ni  Ni0  1  0.00000000  0.07192165  0.14384431  1
  Ni  Ni1  1  0.00000000  0.92807835  0.85615569  1
loop_
_geom_bond_atom_site_label_1
_geom_bond_atom_site_label_2
_geom_bond_distance
_geom_bond_site_symmetry_2
Ga0 Ni0 2.396096 1_555
Ga0 Ga1 2.533753 1_555
Ga0 Ga1 2.533760 1_545
Ga0 Pr1 3.187338 1_555
Ga0 Pr1 3.187338 1_455
Ga0 Pr1 3.187344 1_545
Ga0 Pr1 3.187344 1_445
Ga0 Pr0 3.335403 1_455
Ga0 Pr0 3.335403 1_555
Ga1 Ni1 2.396096 1_555
Ga1 Pr0 3.187338 1_455
Ga1 Pr0 3.187338 1_555
Ga1 Pr0 3.187344 1_565
Ga1 Pr0 3.187344 1_465
Ga1 Pr1 3.335403 1_455
Ga1 Pr1 3.335403 1_555
Ga2 Ni1 2.439052 1_544
Ga2 Ni1 2.439052 1_644
Ga2 Ni0 2.439052 1_655
Ga2 Ni0 2.439052 1_555
Ga2 Pr1 3.243553 1_555
Ga2 Pr0 3.243553 1_544
Ga2 Pr1 3.243555 1_545
Ga2 Pr0 3.243555 1_554
Ga3 Ni1 2.444205 1_544
Ga3 Ni0 2.444205 1_565
Ga3 Ni1 2.444209 1_554
Ga3 Ni0 2.444209 1_555
Ga3 Pr1 3.239671 1_555
Ga3 Pr0 3.239671 1_554
Ga3 Pr0 3.239671 1_454
Ga3 Pr1 3.239671 1_455
Ni0 Ni1 2.509523 1_544
Ni0 Pr1 3.203269 1_545
Ni0 Pr1 3.203269 1_445
Ni0 Pr1 3.203269 1_455
Ni0 Pr1 3.203269 1_555
Ni1 Pr0 3.203269 1_565
Ni1 Pr0 3.203269 1_465
Ni1 Pr0 3.203269 1_555
Ni1 Pr0 3.203269 1_455
