# generated using pymatgen
data_NdBrO2
_symmetry_space_group_name_H-M   'P 1'
_cell_length_a   4.40764700
_cell_length_b   5.20275400
_cell_length_c   6.72425237
_cell_angle_alpha   73.00287018
_cell_angle_beta   90.00000000
_cell_angle_gamma   90.00000000
_symmetry_Int_Tables_number   1
_chemical_formula_structural   NdBrO2
_chemical_formula_sum   'Nd2 Br2 O4'
_cell_volume   147.46435938
_cell_formula_units_Z   2
loop_
 _symmetry_equiv_pos_site_id
 _symmetry_equiv_pos_as_xyz
  1  'x, y, z'
loop_
 _atom_site_type_symbol
 _atom_site_label
 _atom_site_symmetry_multiplicity
 _atom_site_fract_x
 _atom_site_fract_y
 _atom_site_fract_z
 _atom_site_occupancy
  Nd  Nd0  1  0.25000000  0.19715800  0.65376800  1
  Nd  Nd1  1  0.75000000  0.80284200  0.34623200  1
  Br  Br0  1  0.25000000  0.21884800  0.09662000  1
  Br  Br1  1  0.75000000  0.78115200  0.90338000  1
  O  O0  1  0.25000000  0.74807600  0.54648300  1
  O  O1  1  0.75000000  0.25192400  0.45351700  1
  O  O2  1  0.25000000  0.61697800  0.37441800  1
  O  O3  1  0.75000000  0.38302200  0.62558200  1
loop_
_geom_bond_atom_site_label_1
_geom_bond_atom_site_label_2
_geom_bond_distance
_geom_bond_site_symmetry_2
Nd0 O3 2.391800 1_455
Nd0 O3 2.391800 1_555
Nd0 O2 2.429102 1_555
Nd0 O1 2.554775 1_555
Nd0 O1 2.554775 1_455
Nd0 O0 2.639119 1_545
Nd0 O0 2.743563 1_555
Nd1 O2 2.391800 1_655
Nd1 O2 2.391800 1_555
Nd1 O3 2.429102 1_555
Nd1 O0 2.554775 1_555
Nd1 O0 2.554775 1_655
Nd1 O1 2.639119 1_565
Nd1 O1 2.743563 1_555
Br0 Nd0 3.012770 1_554
Br0 Nd1 3.199166 1_545
Br0 Nd1 3.199166 1_445
Br1 Nd1 3.012770 1_556
Br1 Nd0 3.199166 1_665
Br1 Nd0 3.199166 1_565
O0 O2 1.505082 1_555
O1 O3 1.505082 1_555
