# generated using pymatgen
data_CsZrCu3Se4
_symmetry_space_group_name_H-M   'P 1'
_cell_length_a   6.45071200
_cell_length_b   6.45071200
_cell_length_c   6.45071200
_cell_angle_alpha   90.00000000
_cell_angle_beta   90.00000000
_cell_angle_gamma   90.00000000
_symmetry_Int_Tables_number   1
_chemical_formula_structural   CsZrCu3Se4
_chemical_formula_sum   'Cs1 Zr1 Cu3 Se4'
_cell_volume   268.42499775
_cell_formula_units_Z   1
loop_
 _symmetry_equiv_pos_site_id
 _symmetry_equiv_pos_as_xyz
  1  'x, y, z'
loop_
 _atom_site_type_symbol
 _atom_site_label
 _atom_site_symmetry_multiplicity
 _atom_site_fract_x
 _atom_site_fract_y
 _atom_site_fract_z
 _atom_site_occupancy
  Cs  Cs0  1  0.00000000  0.00000000  0.00000000  1
  Zr  Zr0  1  0.50000000  0.50000000  0.50000000  1
  Cu  Cu0  1  0.50000000  0.00000000  0.50000000  1
  Cu  Cu1  1  0.50000000  0.50000000  0.00000000  1
  Cu  Cu2  1  0.00000000  0.50000000  0.50000000  1
  Se  Se0  1  0.72185700  0.72185700  0.72185700  1
  Se  Se1  1  0.27814300  0.27814300  0.72185700  1
  Se  Se2  1  0.72185700  0.27814300  0.27814300  1
  Se  Se3  1  0.27814300  0.72185700  0.27814300  1
loop_
_geom_bond_atom_site_label_1
_geom_bond_atom_site_label_2
_geom_bond_distance
_geom_bond_site_symmetry_2
Cs0 Se2 3.107681 1_455
Cs0 Se3 3.107681 1_545
Cs0 Se1 3.107681 1_554
Cs0 Se0 3.107681 1_444
Cu0 Se1 2.704723 1_555
Cu0 Se0 2.704723 1_545
Cu0 Se2 2.704723 1_555
Cu0 Se3 2.704723 1_545
Cu1 Se3 2.704723 1_555
Cu1 Se2 2.704723 1_555
Cu1 Se0 2.704723 1_554
Cu1 Se1 2.704723 1_554
Cu2 Se1 2.704723 1_555
Cu2 Se0 2.704723 1_455
Cu2 Se3 2.704723 1_555
Cu2 Se2 2.704723 1_455
Se0 Zr0 2.478800 1_555
Se1 Zr0 2.478800 1_555
Se2 Zr0 2.478800 1_555
Se3 Zr0 2.478800 1_555
