# generated using pymatgen
data_Ca2Fe3Si3O14
_symmetry_space_group_name_H-M   'P 1'
_cell_length_a   10.47020512
_cell_length_b   10.47020512
_cell_length_c   8.78764828
_cell_angle_alpha   83.79931698
_cell_angle_beta   83.79931698
_cell_angle_gamma   33.50321122
_symmetry_Int_Tables_number   1
_chemical_formula_structural   Ca2Fe3Si3O14
_chemical_formula_sum   'Ca4 Fe6 Si6 O28'
_cell_volume   528.35855124
_cell_formula_units_Z   2
loop_
 _symmetry_equiv_pos_site_id
 _symmetry_equiv_pos_as_xyz
  1  'x, y, z'
loop_
 _atom_site_type_symbol
 _atom_site_label
 _atom_site_symmetry_multiplicity
 _atom_site_fract_x
 _atom_site_fract_y
 _atom_site_fract_z
 _atom_site_occupancy
  Ca  Ca0  1  0.34554300  0.34554300  0.17388400  1
  Ca  Ca1  1  0.65445700  0.65445700  0.82611600  1
  Ca  Ca2  1  0.83990400  0.83990400  0.74674400  1
  Ca  Ca3  1  0.16009600  0.16009600  0.25325600  1
  Fe  Fe0  1  0.26051200  0.75211500  0.25499300  1
  Fe  Fe1  1  0.73948800  0.24788500  0.74500700  1
  Fe  Fe2  1  0.24788500  0.73948800  0.74500700  1
  Fe  Fe3  1  0.75211500  0.26051200  0.25499300  1
  Fe  Fe4  1  0.50000000  0.00000000  0.50000000  1
  Fe  Fe5  1  0.00000000  0.50000000  0.50000000  1
  Si  Si0  1  0.75267300  0.75267300  0.16063000  1
  Si  Si1  1  0.24732700  0.24732700  0.83937000  1
  Si  Si2  1  0.59813000  0.59813000  0.46388000  1
  Si  Si3  1  0.40187000  0.40187000  0.53612000  1
  Si  Si4  1  0.90773700  0.90773700  0.05705200  1
  Si  Si5  1  0.09226300  0.09226300  0.94294800  1
  O  O0  1  0.97580300  0.97580300  0.37126800  1
  O  O1  1  0.02419700  0.02419700  0.62873200  1
  O  O2  1  0.67401100  0.67401100  0.52495900  1
  O  O3  1  0.32598900  0.32598900  0.47504100  1
  O  O4  1  0.82579800  0.82579800  0.04267500  1
  O  O5  1  0.17420200  0.17420200  0.95732500  1
  O  O6  1  0.69303400  0.69303400  0.05542000  1
  O  O7  1  0.30696600  0.30696600  0.94458000  1
  O  O8  1  0.52257500  0.98343700  0.26615800  1
  O  O9  1  0.47742500  0.01656300  0.73384200  1
  O  O10  1  0.01656300  0.47742500  0.73384200  1
  O  O11  1  0.98343700  0.52257500  0.26615800  1
  O  O12  1  0.80610700  0.80610700  0.50259400  1
  O  O13  1  0.19389300  0.19389300  0.49740600  1
  O  O14  1  0.94121000  0.94121000  0.87644400  1
  O  O15  1  0.05879000  0.05879000  0.12355600  1
  O  O16  1  0.70239100  0.15068000  0.14432200  1
  O  O17  1  0.29760900  0.84932000  0.85567800  1
  O  O18  1  0.84932000  0.29760900  0.85567800  1
  O  O19  1  0.15068000  0.70239100  0.14432200  1
  O  O20  1  0.53530800  0.53530800  0.13789700  1
  O  O21  1  0.46469200  0.46469200  0.86210300  1
  O  O22  1  0.36290000  0.80990200  0.36423600  1
  O  O23  1  0.63710000  0.19009800  0.63576400  1
  O  O24  1  0.19009800  0.63710000  0.63576400  1
  O  O25  1  0.80990200  0.36290000  0.36423600  1
  O  O26  1  0.45488500  0.45488500  0.37836100  1
  O  O27  1  0.54511500  0.54511500  0.62163900  1
loop_
_geom_bond_atom_site_label_1
_geom_bond_atom_site_label_2
_geom_bond_distance
_geom_bond_site_symmetry_2
Ca0 O7 2.238391 1_554
Ca0 O19 2.319873 1_555
Ca0 O16 2.319873 1_555
Ca0 O8 2.531434 1_545
Ca0 O11 2.531434 1_455
Ca0 O3 2.631236 1_555
Ca1 O6 2.238391 1_556
Ca1 O18 2.319873 1_555
Ca1 O17 2.319873 1_555
Ca1 O9 2.531434 1_565
Ca1 O10 2.531434 1_655
Ca1 O2 2.631236 1_555
Ca2 O12 2.321738 1_555
Ca2 O24 2.365286 1_655
Ca2 O23 2.365286 1_565
Ca2 O14 2.438812 1_555
Ca2 O9 2.485638 1_565
Ca2 O10 2.485638 1_655
Ca2 O4 2.583962 1_556
Ca3 O13 2.321738 1_555
Ca3 O22 2.365286 1_545
Ca3 O25 2.365286 1_455
Ca3 O15 2.438812 1_555
Ca3 O8 2.485638 1_545
Ca3 O11 2.485638 1_455
Ca3 O5 2.583962 1_554
Fe0 O20 1.860853 1_555
Fe0 O0 1.905552 1_455
Fe0 O22 1.966313 1_555
Fe0 O19 1.971982 1_555
Fe0 O26 2.046318 1_555
Fe0 O15 2.126250 1_565
Fe1 O21 1.860853 1_555
Fe1 O1 1.905552 1_655
Fe1 O23 1.966313 1_555
Fe1 O18 1.971982 1_555
Fe1 O27 2.046318 1_555
Fe1 O14 2.126250 1_545
Fe2 O21 1.860853 1_555
Fe2 O1 1.905552 1_565
Fe2 O24 1.966313 1_555
Fe2 O17 1.971982 1_555
Fe2 O27 2.046318 1_555
Fe2 O14 2.126250 1_455
Fe3 O20 1.860853 1_555
Fe3 O0 1.905552 1_545
Fe3 O25 1.966313 1_555
Fe3 O16 1.971982 1_555
Fe3 O26 2.046318 1_555
Fe3 O15 2.126250 1_655
Fe4 O13 1.883810 1_555
Fe4 O12 1.883810 1_545
Fe4 O9 2.052399 1_555
Fe4 O8 2.052399 1_545
Fe4 O3 2.138020 1_555
Fe4 O2 2.138020 1_545
Fe5 O12 1.883810 1_455
Fe5 O13 1.883810 1_555
Fe5 O10 2.052399 1_555
Fe5 O11 2.052399 1_455
Fe5 O2 2.138020 1_455
Fe5 O3 2.138020 1_555
O2 Si2 1.669562 1_555
O3 Si3 1.669562 1_555
O4 Si4 1.662020 1_555
O4 Si0 1.697512 1_555
O5 Si5 1.662020 1_555
O5 Si1 1.697512 1_555
O6 Si0 1.591954 1_555
O7 Si1 1.591954 1_555
O8 Si0 1.672018 1_555
O9 Si1 1.672018 1_555
O10 Si1 1.672018 1_555
O11 Si0 1.672018 1_555
O14 Si4 1.652008 1_556
O15 Si5 1.652008 1_554
O16 Si4 1.620362 1_545
O17 Si5 1.620362 1_565
O18 Si5 1.620362 1_655
O19 Si4 1.620362 1_455
O22 Si2 1.639560 1_555
O23 Si3 1.639560 1_555
O24 Si3 1.639560 1_555
O25 Si2 1.639560 1_555
O26 Si3 1.649093 1_555
O27 Si2 1.649093 1_555
