# generated using pymatgen
data_K2Ba(FeAs)6
_symmetry_space_group_name_H-M   'P 1'
_cell_length_a   8.61210276
_cell_length_b   8.61210276
_cell_length_c   7.18634711
_cell_angle_alpha   68.93718157
_cell_angle_beta   68.93718157
_cell_angle_gamma   36.80656354
_symmetry_Int_Tables_number   1
_chemical_formula_structural   K2Ba(FeAs)6
_chemical_formula_sum   'K2 Ba1 Fe6 As6'
_cell_volume   295.53620202
_cell_formula_units_Z   1
loop_
 _symmetry_equiv_pos_site_id
 _symmetry_equiv_pos_as_xyz
  1  'x, y, z'
loop_
 _atom_site_type_symbol
 _atom_site_label
 _atom_site_symmetry_multiplicity
 _atom_site_fract_x
 _atom_site_fract_y
 _atom_site_fract_z
 _atom_site_occupancy
  K  K0  1  0.66996100  0.66996100  0.00022600  1
  K  K1  1  0.33003900  0.33003900  0.99977400  1
  Ba  Ba0  1  0.00000000  0.00000000  0.00000000  1
  Fe  Fe0  1  0.75096800  0.24903200  0.50000000  1
  Fe  Fe1  1  0.08353300  0.58398300  0.49945900  1
  Fe  Fe2  1  0.41601700  0.91646700  0.50054100  1
  Fe  Fe3  1  0.58398300  0.08353300  0.49945900  1
  Fe  Fe4  1  0.91646700  0.41601700  0.50054100  1
  Fe  Fe5  1  0.24903200  0.75096800  0.50000000  1
  As  As0  1  0.88208700  0.88208700  0.69737700  1
  As  As1  1  0.21781600  0.21781600  0.69429200  1
  As  As2  1  0.55184300  0.55184300  0.69697800  1
  As  As3  1  0.44815700  0.44815700  0.30302200  1
  As  As4  1  0.78218400  0.78218400  0.30570800  1
  As  As5  1  0.11791300  0.11791300  0.30262300  1
loop_
_geom_bond_atom_site_label_1
_geom_bond_atom_site_label_2
_geom_bond_distance
_geom_bond_site_symmetry_2
As0 Fe1 2.311404 1_655
As0 Fe3 2.311404 1_565
As0 Fe5 2.342806 1_655
As0 Fe0 2.342806 1_565
As0 K0 3.322648 1_556
As0 K1 3.382013 1_655
As0 K1 3.382013 1_565
As0 Ba0 3.408515 1_666
As1 Fe2 2.320110 1_545
As1 Fe4 2.320110 1_455
As1 Fe3 2.322188 1_555
As1 Fe1 2.322188 1_555
As1 K1 3.351618 1_555
As1 K0 3.396321 1_456
As1 K0 3.396321 1_546
As1 Ba0 3.402140 1_556
As2 Fe4 2.310943 1_555
As2 Fe2 2.310943 1_555
As2 Fe0 2.343639 1_555
As2 Fe5 2.343639 1_555
As2 Ba0 3.384450 1_566
As2 Ba0 3.384450 1_656
As2 K0 3.415046 1_556
As2 K1 3.449685 1_555
As3 Fe1 2.310943 1_555
As3 Fe3 2.310943 1_555
As3 Fe5 2.343639 1_555
As3 Fe0 2.343639 1_555
As3 Ba0 3.384450 1_565
As3 Ba0 3.384450 1_655
As3 K1 3.415046 1_554
As3 K0 3.449685 1_555
As4 Fe3 2.320110 1_565
As4 Fe1 2.320110 1_655
As4 Fe2 2.322188 1_555
As4 Fe4 2.322188 1_555
As4 K0 3.351618 1_555
As4 K1 3.396321 1_564
As4 K1 3.396321 1_654
As4 Ba0 3.402140 1_665
As5 Fe2 2.311404 1_545
As5 Fe4 2.311404 1_455
As5 Fe0 2.342806 1_455
As5 Fe5 2.342806 1_545
As5 K1 3.322648 1_554
As5 K0 3.382013 1_545
As5 K0 3.382013 1_455
As5 Ba0 3.408515 1_555
