# generated using pymatgen
data_Eu2In
_symmetry_space_group_name_H-M   'P 1'
_cell_length_a   5.57530651
_cell_length_b   7.18240456
_cell_length_c   10.27876616
_cell_angle_alpha   89.99836049
_cell_angle_beta   90.00000000
_cell_angle_gamma   90.00000000
_symmetry_Int_Tables_number   1
_chemical_formula_structural   Eu2In
_chemical_formula_sum   'Eu8 In4'
_cell_volume   411.60401084
_cell_formula_units_Z   4
loop_
 _symmetry_equiv_pos_site_id
 _symmetry_equiv_pos_as_xyz
  1  'x, y, z'
loop_
 _atom_site_type_symbol
 _atom_site_label
 _atom_site_symmetry_multiplicity
 _atom_site_fract_x
 _atom_site_fract_y
 _atom_site_fract_z
 _atom_site_occupancy
  Eu  Eu0  1  0.75000000  0.46226336  0.20196364  1
  Eu  Eu1  1  0.75000000  0.96224549  0.29806271  1
  Eu  Eu2  1  0.25000000  0.53762329  0.79803835  1
  Eu  Eu3  1  0.25000000  0.03763776  0.70194671  1
  Eu  Eu4  1  0.75000000  0.31987968  0.56546826  1
  Eu  Eu5  1  0.75000000  0.81995050  0.93443707  1
  Eu  Eu6  1  0.25000000  0.68015428  0.43461835  1
  Eu  Eu7  1  0.25000000  0.18012031  0.06549088  1
  In  In0  1  0.75000000  0.28731666  0.88748528  1
  In  In1  1  0.75000000  0.78738117  0.61247760  1
  In  In2  1  0.25000000  0.71271393  0.11245872  1
  In  In3  1  0.25000000  0.21271255  0.38755342  1
loop_
_geom_bond_atom_site_label_1
_geom_bond_atom_site_label_2
_geom_bond_distance
_geom_bond_site_symmetry_2
Eu0 In2 3.442838 1_555
Eu0 In2 3.442838 1_655
Eu0 In0 3.468119 1_554
Eu0 In3 3.823936 1_555
Eu0 In3 3.823936 1_655
Eu1 In3 3.442888 1_565
Eu1 In3 3.442888 1_665
Eu1 In1 3.467230 1_555
Eu1 In2 3.823996 1_555
Eu1 In2 3.823996 1_655
Eu2 In0 3.442138 1_455
Eu2 In0 3.442138 1_555
Eu2 In2 3.467938 1_556
Eu2 In1 3.824485 1_455
Eu2 In1 3.824485 1_555
Eu3 In1 3.442039 1_545
Eu3 In1 3.442039 1_445
Eu3 In3 3.467571 1_555
Eu3 In0 3.824156 1_455
Eu3 In0 3.824156 1_555
Eu4 In0 3.318184 1_555
Eu4 In1 3.392387 1_555
Eu4 In3 3.421676 1_555
Eu4 In3 3.421676 1_655
Eu4 In1 3.855009 1_545
Eu5 In1 3.317610 1_555
Eu5 In0 3.391314 1_565
Eu5 In2 3.422351 1_656
Eu5 In2 3.422351 1_556
Eu5 In0 3.855926 1_555
Eu6 In2 3.319644 1_555
Eu6 In3 3.392044 1_555
Eu6 In1 3.421467 1_455
Eu6 In1 3.421467 1_555
Eu6 In3 3.855506 1_565
Eu7 In3 3.318679 1_555
Eu7 In2 3.391623 1_545
Eu7 In0 3.422198 1_554
Eu7 In0 3.422198 1_454
Eu7 In2 3.855660 1_555
