# generated using pymatgen
data_La3Mg
_symmetry_space_group_name_H-M   'P 1'
_cell_length_a   13.74233962
_cell_length_b   13.74233962
_cell_length_c   13.74233962
_cell_angle_alpha   148.06774905
_cell_angle_beta   126.44860193
_cell_angle_gamma   63.71889406
_symmetry_Int_Tables_number   1
_chemical_formula_structural   La3Mg
_chemical_formula_sum   'La24 Mg8'
_cell_volume   1092.60152138
_cell_formula_units_Z   8
loop_
 _symmetry_equiv_pos_site_id
 _symmetry_equiv_pos_as_xyz
  1  'x, y, z'
loop_
 _atom_site_type_symbol
 _atom_site_label
 _atom_site_symmetry_multiplicity
 _atom_site_fract_x
 _atom_site_fract_y
 _atom_site_fract_z
 _atom_site_occupancy
  La  La0_0  1  0.07344575  0.25000000  0.32344575  1
  La  La0_1  1  0.07344575  0.25000000  0.82344575  1
  La  La0_2  1  0.07344575  0.75000000  0.32344575  1
  La  La0_3  1  0.07344575  0.75000000  0.82344575  1
  La  La0_4  1  0.57344575  0.25000000  0.32344575  1
  La  La0_5  1  0.57344575  0.25000000  0.82344575  1
  La  La0_6  1  0.57344575  0.75000000  0.32344575  1
  La  La0_7  1  0.57344575  0.75000000  0.82344575  1
  La  La1_0  1  0.14028164  0.13588664  0.00439500  1
  La  La1_1  1  0.14028164  0.13588664  0.50439500  1
  La  La1_2  1  0.14028164  0.63588663  0.00439500  1
  La  La1_3  1  0.14028164  0.63588663  0.50439500  1
  La  La1_4  1  0.64028164  0.13588664  0.00439500  1
  La  La1_5  1  0.64028164  0.13588664  0.50439500  1
  La  La1_6  1  0.64028164  0.63588664  0.00439500  1
  La  La1_7  1  0.64028164  0.63588664  0.50439500  1
  La  La2_0  1  0.36850937  0.36411337  0.00439500  1
  La  La2_1  1  0.36850937  0.36411337  0.50439500  1
  La  La2_2  1  0.36850937  0.86411337  0.00439500  1
  La  La2_3  1  0.36850937  0.86411337  0.50439500  1
  La  La2_4  1  0.86850936  0.36411337  0.00439500  1
  La  La2_5  1  0.86850937  0.36411337  0.50439500  1
  La  La2_6  1  0.86850936  0.86411337  0.00439500  1
  La  La2_7  1  0.86850936  0.86411337  0.50439500  1
  Mg  Mg0_0  1  0.33443074  0.00000000  0.33443075  1
  Mg  Mg0_1  1  0.33443075  0.00000000  0.83443074  1
  Mg  Mg0_2  1  0.33443074  0.50000000  0.33443074  1
  Mg  Mg0_3  1  0.33443074  0.50000000  0.83443074  1
  Mg  Mg0_4  1  0.83443075  0.00000000  0.33443075  1
  Mg  Mg0_5  1  0.83443075  0.00000000  0.83443075  1
  Mg  Mg0_6  1  0.83443074  0.50000000  0.33443075  1
  Mg  Mg0_7  1  0.83443075  0.50000000  0.83443074  1
loop_
_geom_bond_atom_site_label_1
_geom_bond_atom_site_label_2
_geom_bond_distance
_geom_bond_site_symmetry_2
La0_0 La1_1 3.480792 1_555
La0_0 La2_1 3.480804 1_555
La0_0 Mg0_6 3.511490 1_455
La0_0 Mg0_5 3.511490 1_454
La0_0 Mg0_3 3.743616 1_555
La0_0 Mg0_0 3.743616 1_555
La0_0 La0_3 3.780091 1_544
La0_0 La0_3 3.780091 1_555
La0_0 La2_5 3.790198 1_455
La0_0 La2_6 3.790202 1_445
La0_0 La1_3 3.790211 1_555
La0_0 La1_0 3.790211 1_555
La0_1 La1_0 3.480792 1_556
La0_1 La2_0 3.480804 1_556
La0_1 Mg0_7 3.511490 1_455
La0_1 Mg0_4 3.511490 1_455
La0_1 Mg0_2 3.743616 1_556
La0_1 Mg0_1 3.743616 1_555
La0_1 La0_2 3.780091 1_556
La0_1 La0_2 3.780091 1_545
La0_1 La2_4 3.790198 1_456
La0_1 La2_7 3.790202 1_445
La0_1 La1_2 3.790211 1_556
La0_1 La1_1 3.790211 1_555
La0_2 La1_3 3.480792 1_555
La0_2 La2_3 3.480804 1_555
La0_2 Mg0_4 3.511490 1_465
La0_2 Mg0_7 3.511490 1_454
La0_2 Mg0_1 3.743616 1_565
La0_2 Mg0_2 3.743616 1_555
La0_2 La2_7 3.790198 1_455
La0_2 La2_4 3.790202 1_455
La0_2 La1_1 3.790211 1_565
La0_2 La1_2 3.790211 1_555
La0_3 La1_2 3.480792 1_556
La0_3 La2_2 3.480804 1_556
La0_3 Mg0_5 3.511490 1_465
La0_3 Mg0_6 3.511490 1_455
La0_3 Mg0_0 3.743616 1_566
La0_3 Mg0_3 3.743616 1_555
La0_3 La2_6 3.790198 1_456
La0_3 La2_5 3.790202 1_455
La0_3 La1_0 3.790211 1_566
La0_3 La1_3 3.790211 1_555
La0_4 La1_5 3.480792 1_555
La0_4 La2_5 3.480804 1_555
La0_4 Mg0_2 3.511490 1_555
La0_4 Mg0_1 3.511490 1_554
La0_4 Mg0_7 3.743616 1_555
La0_4 Mg0_4 3.743616 1_555
La0_4 La0_7 3.780091 1_555
La0_4 La0_7 3.780091 1_544
La0_4 La2_1 3.790198 1_555
La0_4 La2_2 3.790202 1_545
La0_4 La1_7 3.790211 1_555
La0_4 La1_4 3.790211 1_555
La0_5 La1_4 3.480792 1_556
La0_5 La2_4 3.480804 1_556
La0_5 Mg0_3 3.511490 1_555
La0_5 Mg0_0 3.511490 1_555
La0_5 Mg0_6 3.743616 1_556
La0_5 Mg0_5 3.743616 1_555
La0_5 La0_6 3.780091 1_545
La0_5 La0_6 3.780091 1_556
La0_5 La2_0 3.790198 1_556
La0_5 La2_3 3.790202 1_545
La0_5 La1_6 3.790211 1_556
La0_5 La1_5 3.790211 1_555
La0_6 La1_7 3.480792 1_555
La0_6 La2_7 3.480804 1_555
La0_6 Mg0_0 3.511490 1_565
La0_6 Mg0_3 3.511490 1_554
La0_6 Mg0_5 3.743616 1_565
La0_6 Mg0_6 3.743616 1_555
La0_6 La2_3 3.790198 1_555
La0_6 La2_0 3.790202 1_555
La0_6 La1_5 3.790211 1_565
La0_6 La1_6 3.790211 1_555
La0_7 La1_6 3.480792 1_556
La0_7 La2_6 3.480804 1_556
La0_7 Mg0_1 3.511490 1_565
La0_7 Mg0_2 3.511490 1_555
La0_7 Mg0_4 3.743616 1_566
La0_7 Mg0_7 3.743616 1_555
La0_7 La2_2 3.790198 1_556
La0_7 La2_1 3.790202 1_555
La0_7 La1_4 3.790211 1_566
La0_7 La1_7 3.790211 1_555
La1_0 Mg0_1 3.413281 1_554
La1_0 Mg0_2 3.413281 1_555
La1_0 La2_4 3.662293 1_455
La1_0 La2_7 3.662297 1_444
La1_0 La2_1 3.662304 1_555
La1_0 La2_2 3.662307 1_545
La1_0 La1_3 3.780091 1_555
La1_0 La1_3 3.780091 1_544
La1_0 Mg0_5 3.806734 1_454
La1_1 Mg0_0 3.413281 1_555
La1_1 Mg0_3 3.413281 1_555
La1_1 La2_5 3.662293 1_455
La1_1 La2_6 3.662297 1_445
La1_1 La2_0 3.662304 1_556
La1_1 La2_3 3.662307 1_545
La1_1 La1_2 3.780091 1_556
La1_1 La1_2 3.780091 1_545
La1_1 Mg0_4 3.806734 1_455
La1_2 Mg0_3 3.413281 1_554
La1_2 Mg0_0 3.413281 1_565
La1_2 La2_6 3.662293 1_455
La1_2 La2_5 3.662297 1_454
La1_2 La2_3 3.662304 1_555
La1_2 La2_0 3.662307 1_555
La1_2 Mg0_7 3.806734 1_454
La1_3 Mg0_2 3.413281 1_555
La1_3 Mg0_1 3.413281 1_565
La1_3 La2_7 3.662293 1_455
La1_3 La2_4 3.662297 1_455
La1_3 La2_2 3.662304 1_556
La1_3 La2_1 3.662307 1_555
La1_3 Mg0_6 3.806734 1_455
La1_4 Mg0_5 3.413281 1_554
La1_4 Mg0_6 3.413281 1_555
La1_4 La2_0 3.662293 1_555
La1_4 La2_3 3.662297 1_544
La1_4 La2_5 3.662304 1_555
La1_4 La2_6 3.662307 1_545
La1_4 La1_7 3.780091 1_555
La1_4 La1_7 3.780091 1_544
La1_4 Mg0_1 3.806734 1_554
La1_5 Mg0_4 3.413281 1_555
La1_5 Mg0_7 3.413281 1_555
La1_5 La2_1 3.662293 1_555
La1_5 La2_2 3.662297 1_545
La1_5 La2_4 3.662304 1_556
La1_5 La2_7 3.662307 1_545
La1_5 La1_6 3.780091 1_545
La1_5 La1_6 3.780091 1_556
La1_5 Mg0_0 3.806734 1_555
La1_6 Mg0_7 3.413281 1_554
La1_6 Mg0_4 3.413281 1_565
La1_6 La2_2 3.662293 1_555
La1_6 La2_1 3.662297 1_554
La1_6 La2_7 3.662304 1_555
La1_6 La2_4 3.662307 1_555
La1_6 Mg0_3 3.806734 1_554
La1_7 Mg0_6 3.413281 1_555
La1_7 Mg0_5 3.413281 1_565
La1_7 La2_3 3.662293 1_555
La1_7 La2_0 3.662297 1_555
La1_7 La2_6 3.662304 1_556
La1_7 La2_5 3.662307 1_555
La1_7 Mg0_2 3.806734 1_555
La2_0 Mg0_1 3.413286 1_554
La2_0 Mg0_2 3.413290 1_555
La2_0 La2_3 3.780091 1_544
La2_0 La2_3 3.780091 1_555
La2_0 Mg0_3 3.806728 1_554
La2_1 Mg0_0 3.413286 1_555
La2_1 Mg0_3 3.413290 1_555
La2_1 La2_2 3.780091 1_545
La2_1 La2_2 3.780091 1_556
La2_1 Mg0_2 3.806728 1_555
La2_2 Mg0_3 3.413286 1_554
La2_2 Mg0_0 3.413290 1_565
La2_2 Mg0_1 3.806728 1_564
La2_3 Mg0_2 3.413286 1_555
La2_3 Mg0_1 3.413290 1_565
La2_3 Mg0_0 3.806728 1_565
La2_4 Mg0_5 3.413286 1_554
La2_4 Mg0_6 3.413290 1_555
La2_4 La2_7 3.780091 1_555
La2_4 La2_7 3.780091 1_544
La2_4 Mg0_7 3.806728 1_554
La2_5 Mg0_4 3.413286 1_555
La2_5 Mg0_7 3.413290 1_555
La2_5 La2_6 3.780091 1_545
La2_5 La2_6 3.780091 1_556
La2_5 Mg0_6 3.806728 1_555
La2_6 Mg0_7 3.413286 1_554
La2_6 Mg0_4 3.413290 1_565
La2_6 Mg0_5 3.806728 1_564
La2_7 Mg0_6 3.413286 1_555
La2_7 Mg0_5 3.413290 1_565
La2_7 Mg0_4 3.806728 1_565
