# generated using pymatgen
data_CaCoGeO4
_symmetry_space_group_name_H-M   'P 1'
_cell_length_a   5.05885500
_cell_length_b   6.47101000
_cell_length_c   11.39348800
_cell_angle_alpha   90.00000000
_cell_angle_beta   90.00000000
_cell_angle_gamma   90.00000000
_symmetry_Int_Tables_number   1
_chemical_formula_structural   CaCoGeO4
_chemical_formula_sum   'Ca4 Co4 Ge4 O16'
_cell_volume   372.97609856
_cell_formula_units_Z   4
loop_
 _symmetry_equiv_pos_site_id
 _symmetry_equiv_pos_as_xyz
  1  'x, y, z'
loop_
 _atom_site_type_symbol
 _atom_site_label
 _atom_site_symmetry_multiplicity
 _atom_site_fract_x
 _atom_site_fract_y
 _atom_site_fract_z
 _atom_site_occupancy
  Ca  Ca0  1  0.01126000  0.75000000  0.72512600  1
  Ca  Ca1  1  0.98874000  0.25000000  0.27487400  1
  Ca  Ca2  1  0.51126000  0.25000000  0.77487400  1
  Ca  Ca3  1  0.48874000  0.75000000  0.22512600  1
  Co  Co0  1  0.50000000  0.50000000  0.50000000  1
  Co  Co1  1  0.00000000  0.50000000  0.00000000  1
  Co  Co2  1  0.50000000  0.00000000  0.50000000  1
  Co  Co3  1  0.00000000  0.00000000  0.00000000  1
  Ge  Ge0  1  0.57613000  0.75000000  0.91772300  1
  Ge  Ge1  1  0.42387000  0.25000000  0.08227700  1
  Ge  Ge2  1  0.07613000  0.25000000  0.58227700  1
  Ge  Ge3  1  0.92387000  0.75000000  0.41772300  1
  O  O0  1  0.22594700  0.75000000  0.91873400  1
  O  O1  1  0.77405300  0.25000000  0.08126600  1
  O  O2  1  0.72594700  0.25000000  0.58126600  1
  O  O3  1  0.27405300  0.75000000  0.41873400  1
  O  O4  1  0.73088300  0.53294600  0.84923000  1
  O  O5  1  0.26911700  0.46705400  0.15077000  1
  O  O6  1  0.23088300  0.46705400  0.65077000  1
  O  O7  1  0.26911700  0.03294600  0.15077000  1
  O  O8  1  0.76911700  0.53294600  0.34923000  1
  O  O9  1  0.73088300  0.96705400  0.84923000  1
  O  O10  1  0.76911700  0.96705400  0.34923000  1
  O  O11  1  0.23088300  0.03294600  0.65077000  1
  O  O12  1  0.75073500  0.75000000  0.55619100  1
  O  O13  1  0.24926500  0.25000000  0.44380900  1
  O  O14  1  0.25073500  0.25000000  0.94380900  1
  O  O15  1  0.74926500  0.75000000  0.05619100  1
loop_
_geom_bond_atom_site_label_1
_geom_bond_atom_site_label_2
_geom_bond_distance
_geom_bond_site_symmetry_2
Ca0 O11 2.303146 1_565
Ca0 O6 2.303146 1_555
Ca0 O12 2.332747 1_455
Ca0 O9 2.446209 1_455
Ca0 O4 2.446209 1_455
Ca0 O0 2.458742 1_555
Ca1 O8 2.303146 1_555
Ca1 O10 2.303146 1_545
Ca1 O13 2.332747 1_655
Ca1 O5 2.446209 1_655
Ca1 O7 2.446209 1_655
Ca1 O1 2.458742 1_555
Ca2 O4 2.303146 1_555
Ca2 O9 2.303146 1_545
Ca2 O14 2.332747 1_555
Ca2 O6 2.446209 1_555
Ca2 O11 2.446209 1_555
Ca2 O2 2.458742 1_555
Ca3 O7 2.303146 1_565
Ca3 O5 2.303146 1_555
Ca3 O15 2.332747 1_555
Ca3 O8 2.446209 1_555
Ca3 O10 2.446209 1_555
Ca3 O3 2.458742 1_555
Co0 O12 2.153117 1_555
Co0 O13 2.153117 1_555
Co0 O2 2.186537 1_555
Co0 O3 2.186537 1_555
Co0 O8 2.202215 1_555
Co0 O6 2.202215 1_555
Co1 O15 2.153117 1_455
Co1 O14 2.153117 1_554
Co1 O1 2.186537 1_455
Co1 O0 2.186537 1_554
Co1 O4 2.202215 1_454
Co1 O5 2.202215 1_555
Co2 O12 2.153117 1_545
Co2 O13 2.153117 1_555
Co2 O3 2.186537 1_545
Co2 O2 2.186537 1_555
Co2 O10 2.202215 1_545
Co2 O11 2.202215 1_555
Co3 O15 2.153117 1_445
Co3 O14 2.153117 1_554
Co3 O1 2.186537 1_455
Co3 O0 2.186537 1_544
Co3 O7 2.202215 1_555
Co3 O9 2.202215 1_444
Ge0 O0 1.771562 1_555
Ge0 O9 1.787361 1_555
Ge0 O4 1.787361 1_555
Ge0 O15 1.804457 1_556
Ge1 O1 1.771562 1_555
Ge1 O5 1.787361 1_555
Ge1 O7 1.787361 1_555
Ge1 O14 1.804457 1_554
Ge2 O2 1.771562 1_455
Ge2 O6 1.787361 1_555
Ge2 O11 1.787361 1_555
Ge2 O13 1.804457 1_555
Ge3 O3 1.771562 1_655
Ge3 O10 1.787361 1_555
Ge3 O8 1.787361 1_555
Ge3 O12 1.804457 1_555
