# generated using pymatgen
data_BaCaMg14O16
_symmetry_space_group_name_H-M   'P 1'
_cell_length_a   8.80104300
_cell_length_b   8.80104300
_cell_length_c   4.54009900
_cell_angle_alpha   90.00000000
_cell_angle_beta   90.00000000
_cell_angle_gamma   90.00000000
_symmetry_Int_Tables_number   1
_chemical_formula_structural   BaCaMg14O16
_chemical_formula_sum   'Ba1 Ca1 Mg14 O16'
_cell_volume   351.66861319
_cell_formula_units_Z   1
loop_
 _symmetry_equiv_pos_site_id
 _symmetry_equiv_pos_as_xyz
  1  'x, y, z'
loop_
 _atom_site_type_symbol
 _atom_site_label
 _atom_site_symmetry_multiplicity
 _atom_site_fract_x
 _atom_site_fract_y
 _atom_site_fract_z
 _atom_site_occupancy
  Ba  Ba0  1  0.50000000  0.50000000  0.00000000  1
  Ca  Ca0  1  0.00000000  0.00000000  0.00000000  1
  Mg  Mg0  1  0.50000000  0.00000000  0.00000000  1
  Mg  Mg1  1  0.00000000  0.50000000  0.00000000  1
  Mg  Mg2  1  0.25447300  0.00000000  0.50000000  1
  Mg  Mg3  1  0.74552700  0.00000000  0.50000000  1
  Mg  Mg4  1  0.23627800  0.50000000  0.50000000  1
  Mg  Mg5  1  0.76372200  0.50000000  0.50000000  1
  Mg  Mg6  1  0.00000000  0.25447300  0.50000000  1
  Mg  Mg7  1  0.50000000  0.23627800  0.50000000  1
  Mg  Mg8  1  0.00000000  0.74552700  0.50000000  1
  Mg  Mg9  1  0.50000000  0.76372200  0.50000000  1
  Mg  Mg10  1  0.24525600  0.24525600  0.00000000  1
  Mg  Mg11  1  0.75474400  0.24525600  0.00000000  1
  Mg  Mg12  1  0.24525600  0.75474400  0.00000000  1
  Mg  Mg13  1  0.75474400  0.75474400  0.00000000  1
  O  O0  1  0.00000000  0.25811700  0.00000000  1
  O  O1  1  0.50000000  0.22086100  0.00000000  1
  O  O2  1  0.00000000  0.74188300  0.00000000  1
  O  O3  1  0.50000000  0.77913900  0.00000000  1
  O  O4  1  0.25028900  0.25028900  0.50000000  1
  O  O5  1  0.74971100  0.25028900  0.50000000  1
  O  O6  1  0.25028900  0.74971100  0.50000000  1
  O  O7  1  0.74971100  0.74971100  0.50000000  1
  O  O8  1  0.00000000  0.00000000  0.50000000  1
  O  O9  1  0.50000000  0.00000000  0.50000000  1
  O  O10  1  0.00000000  0.50000000  0.50000000  1
  O  O11  1  0.50000000  0.50000000  0.50000000  1
  O  O12  1  0.25811700  0.00000000  0.00000000  1
  O  O13  1  0.74188300  0.00000000  0.00000000  1
  O  O14  1  0.22086100  0.50000000  0.00000000  1
  O  O15  1  0.77913900  0.50000000  0.00000000  1
loop_
_geom_bond_atom_site_label_1
_geom_bond_atom_site_label_2
_geom_bond_distance
_geom_bond_site_symmetry_2
Ba0 O11 2.270049 1_554
Ba0 O11 2.270049 1_555
Ba0 O3 2.456714 1_555
Ba0 O1 2.456714 1_555
Ba0 O14 2.456714 1_555
Ba0 O15 2.456714 1_555
Ca0 O8 2.270049 1_554
Ca0 O8 2.270049 1_555
Ca0 O0 2.271699 1_555
Ca0 O12 2.271699 1_555
Ca0 O13 2.271699 1_455
Ca0 O2 2.271699 1_545
Mg0 O3 1.943807 1_545
Mg0 O1 1.943807 1_555
Mg0 O13 2.128823 1_555
Mg0 O12 2.128823 1_555
Mg0 O9 2.270049 1_555
Mg0 O9 2.270049 1_554
Mg1 O15 1.943807 1_455
Mg1 O14 1.943807 1_555
Mg1 O2 2.128823 1_555
Mg1 O0 2.128823 1_555
Mg1 O10 2.270049 1_555
Mg1 O10 2.270049 1_554
Mg2 O9 2.160894 1_555
Mg2 O4 2.203112 1_555
Mg2 O6 2.203112 1_545
Mg2 O8 2.239628 1_555
Mg2 O12 2.270276 1_556
Mg2 O12 2.270276 1_555
Mg3 O9 2.160894 1_555
Mg3 O7 2.203112 1_545
Mg3 O5 2.203112 1_555
Mg3 O8 2.239628 1_655
Mg3 O13 2.270276 1_555
Mg3 O13 2.270276 1_556
Mg4 O10 2.079493 1_555
Mg4 O6 2.201174 1_555
Mg4 O4 2.201174 1_555
Mg4 O14 2.274101 1_556
Mg4 O14 2.274101 1_555
Mg4 O11 2.321029 1_555
Mg5 O10 2.079493 1_655
Mg5 O5 2.201174 1_555
Mg5 O7 2.201174 1_555
Mg5 O15 2.274101 1_556
Mg5 O15 2.274101 1_555
Mg5 O11 2.321029 1_555
Mg6 O10 2.160894 1_555
Mg6 O4 2.203112 1_555
Mg6 O5 2.203112 1_455
Mg6 O8 2.239628 1_555
Mg6 O0 2.270276 1_555
Mg6 O0 2.270276 1_556
Mg7 O9 2.079493 1_555
Mg7 O5 2.201174 1_555
Mg7 O4 2.201174 1_555
Mg7 O1 2.274101 1_556
Mg7 O1 2.274101 1_555
Mg7 O11 2.321029 1_555
Mg8 O10 2.160894 1_555
Mg8 O7 2.203112 1_455
Mg8 O6 2.203112 1_555
Mg8 O8 2.239628 1_565
Mg8 O2 2.270276 1_555
Mg8 O2 2.270276 1_556
Mg9 O9 2.079493 1_565
Mg9 O6 2.201174 1_555
Mg9 O7 2.201174 1_555
Mg9 O3 2.274101 1_556
Mg9 O3 2.274101 1_555
Mg9 O11 2.321029 1_555
Mg10 O0 2.161474 1_555
Mg10 O12 2.161474 1_555
Mg10 O14 2.252270 1_555
Mg10 O1 2.252270 1_555
Mg10 O4 2.270914 1_554
Mg10 O4 2.270914 1_555
Mg11 O13 2.161474 1_555
Mg11 O0 2.161474 1_655
Mg11 O15 2.252270 1_555
Mg11 O1 2.252270 1_555
Mg11 O5 2.270914 1_554
Mg11 O5 2.270914 1_555
Mg12 O2 2.161474 1_555
Mg12 O12 2.161474 1_565
Mg12 O14 2.252270 1_555
Mg12 O3 2.252270 1_555
Mg12 O6 2.270914 1_554
Mg12 O6 2.270914 1_555
Mg13 O13 2.161474 1_565
Mg13 O2 2.161474 1_655
Mg13 O15 2.252270 1_555
Mg13 O3 2.252270 1_555
Mg13 O7 2.270914 1_555
Mg13 O7 2.270914 1_554
