# generated using pymatgen
data_NaPb2C2O7
_symmetry_space_group_name_H-M   'P 1'
_cell_length_a   5.27156147
_cell_length_b   5.27156147
_cell_length_c   13.87015400
_cell_angle_alpha   90.00000000
_cell_angle_beta   90.00000000
_cell_angle_gamma   119.99999337
_symmetry_Int_Tables_number   1
_chemical_formula_structural   NaPb2C2O7
_chemical_formula_sum   'Na2 Pb4 C4 O14'
_cell_volume   333.80319883
_cell_formula_units_Z   2
loop_
 _symmetry_equiv_pos_site_id
 _symmetry_equiv_pos_as_xyz
  1  'x, y, z'
loop_
 _atom_site_type_symbol
 _atom_site_label
 _atom_site_symmetry_multiplicity
 _atom_site_fract_x
 _atom_site_fract_y
 _atom_site_fract_z
 _atom_site_occupancy
  Na  Na0  1  0.33333300  0.66666700  0.75000000  1
  Na  Na1  1  0.66666700  0.33333300  0.25000000  1
  Pb  Pb0  1  0.33333300  0.66666700  0.40264500  1
  Pb  Pb1  1  0.66666700  0.33333300  0.90264500  1
  Pb  Pb2  1  0.33333300  0.66666700  0.09735500  1
  Pb  Pb3  1  0.66666700  0.33333300  0.59735500  1
  C  C0  1  0.00000000  0.00000000  0.89097800  1
  C  C1  1  0.00000000  0.00000000  0.39097800  1
  C  C2  1  0.00000000  0.00000000  0.10902200  1
  C  C3  1  0.00000000  0.00000000  0.60902200  1
  O  O0  1  0.33333300  0.66666700  0.25000000  1
  O  O1  1  0.66666700  0.33333300  0.75000000  1
  O  O2  1  0.85742900  0.14257100  0.39133400  1
  O  O3  1  0.85742900  0.71485900  0.39133400  1
  O  O4  1  0.28514100  0.14257100  0.39133400  1
  O  O5  1  0.14257100  0.85742900  0.89133400  1
  O  O6  1  0.71485900  0.85742900  0.89133400  1
  O  O7  1  0.14257100  0.28514100  0.89133400  1
  O  O8  1  0.71485900  0.85742900  0.60866600  1
  O  O9  1  0.14257100  0.85742900  0.60866600  1
  O  O10  1  0.14257100  0.28514100  0.60866600  1
  O  O11  1  0.85742900  0.71485900  0.10866600  1
  O  O12  1  0.85742900  0.14257100  0.10866600  1
  O  O13  1  0.28514100  0.14257100  0.10866600  1
loop_
_geom_bond_atom_site_label_1
_geom_bond_atom_site_label_2
_geom_bond_distance
_geom_bond_site_symmetry_2
Na0 O5 2.622336 1_555
Na0 O9 2.622336 1_555
Na0 O10 2.622342 1_555
Na0 O7 2.622342 1_555
Na0 O6 2.622342 1_555
Na0 O8 2.622342 1_555
Na1 O12 2.622336 1_555
Na1 O2 2.622336 1_555
Na1 O4 2.622342 1_555
Na1 O11 2.622342 1_555
Na1 O13 2.622342 1_555
Na1 O3 2.622342 1_555
C0 O7 1.301765 1_555
C0 O6 1.301765 1_445
C0 O5 1.301770 1_545
C1 O3 1.301765 1_445
C1 O4 1.301765 1_555
C1 O2 1.301770 1_455
C2 O11 1.301765 1_445
C2 O13 1.301765 1_555
C2 O12 1.301770 1_455
C3 O10 1.301765 1_555
C3 O8 1.301765 1_445
C3 O9 1.301770 1_545
O0 Pb0 2.117210 1_555
O0 Pb2 2.117210 1_555
O1 Pb1 2.117210 1_555
O1 Pb3 2.117210 1_555
O2 Pb0 2.649596 1_545
O2 Pb0 2.649596 1_655
O3 Pb0 2.649596 1_655
O3 Pb0 2.649596 1_555
O4 Pb0 2.649596 1_545
O4 Pb0 2.649596 1_555
O5 Pb1 2.649596 1_455
O5 Pb1 2.649596 1_565
O6 Pb1 2.649596 1_565
O6 Pb1 2.649596 1_555
O7 Pb1 2.649596 1_455
O7 Pb1 2.649596 1_555
O8 Pb3 2.649596 1_565
O8 Pb3 2.649596 1_555
O9 Pb3 2.649596 1_455
O9 Pb3 2.649596 1_565
O10 Pb3 2.649596 1_455
O10 Pb3 2.649596 1_555
O11 Pb2 2.649596 1_655
O11 Pb2 2.649596 1_555
O12 Pb2 2.649596 1_545
O12 Pb2 2.649596 1_655
O13 Pb2 2.649596 1_545
O13 Pb2 2.649596 1_555
