# generated using pymatgen
data_RbSnF3
_symmetry_space_group_name_H-M   'P 1'
_cell_length_a   13.92406500
_cell_length_b   8.41263200
_cell_length_c   15.30846374
_cell_angle_alpha   82.11373068
_cell_angle_beta   90.00000000
_cell_angle_gamma   90.00000000
_symmetry_Int_Tables_number   1
_chemical_formula_structural   RbSnF3
_chemical_formula_sum   'Rb16 Sn16 F48'
_cell_volume   1776.24390965
_cell_formula_units_Z   16
loop_
 _symmetry_equiv_pos_site_id
 _symmetry_equiv_pos_as_xyz
  1  'x, y, z'
loop_
 _atom_site_type_symbol
 _atom_site_label
 _atom_site_symmetry_multiplicity
 _atom_site_fract_x
 _atom_site_fract_y
 _atom_site_fract_z
 _atom_site_occupancy
  Rb  Rb0  1  0.52276000  0.43488900  0.13089900  1
  Rb  Rb1  1  0.02276000  0.56511100  0.36910100  1
  Rb  Rb2  1  0.47724000  0.56511100  0.86910100  1
  Rb  Rb3  1  0.97724000  0.43488900  0.63089900  1
  Rb  Rb4  1  0.49006100  0.92590800  0.13051500  1
  Rb  Rb5  1  0.99006100  0.07409200  0.36948500  1
  Rb  Rb6  1  0.50993900  0.07409200  0.86948500  1
  Rb  Rb7  1  0.00993900  0.92590800  0.63051500  1
  Rb  Rb8  1  0.23487900  0.99574600  0.25054700  1
  Rb  Rb9  1  0.73487900  0.00425400  0.24945300  1
  Rb  Rb10  1  0.76512100  0.00425400  0.74945300  1
  Rb  Rb11  1  0.26512100  0.99574600  0.75054700  1
  Rb  Rb12  1  0.76529200  0.50822900  0.24408000  1
  Rb  Rb13  1  0.26529200  0.49177100  0.25592000  1
  Rb  Rb14  1  0.23470800  0.49177100  0.75592000  1
  Rb  Rb15  1  0.73470800  0.50822900  0.74408000  1
  Sn  Sn0  1  0.72866800  0.73257300  0.98799000  1
  Sn  Sn1  1  0.22866800  0.26742700  0.51201000  1
  Sn  Sn2  1  0.27133200  0.26742700  0.01201000  1
  Sn  Sn3  1  0.77133200  0.73257300  0.48799000  1
  Sn  Sn4  1  0.74531800  0.23708700  0.99755600  1
  Sn  Sn5  1  0.24531800  0.76291300  0.50244400  1
  Sn  Sn6  1  0.25468200  0.76291300  0.00244400  1
  Sn  Sn7  1  0.75468200  0.23708700  0.49755600  1
  Sn  Sn8  1  0.98862700  0.82216000  0.13793600  1
  Sn  Sn9  1  0.48862700  0.17784000  0.36206400  1
  Sn  Sn10  1  0.01137300  0.17784000  0.86206400  1
  Sn  Sn11  1  0.51137300  0.82216000  0.63793600  1
  Sn  Sn12  1  0.00298800  0.31999900  0.13419800  1
  Sn  Sn13  1  0.50298800  0.68000100  0.36580200  1
  Sn  Sn14  1  0.99701200  0.68000100  0.86580200  1
  Sn  Sn15  1  0.49701200  0.31999900  0.63419800  1
  F  F0  1  0.74823300  0.81195100  0.10818000  1
  F  F1  1  0.24823300  0.18804900  0.39182000  1
  F  F2  1  0.25176700  0.18804900  0.89182000  1
  F  F3  1  0.75176700  0.81195100  0.60818000  1
  F  F4  1  0.71768800  0.49363900  0.06498000  1
  F  F5  1  0.21768800  0.50636100  0.43502000  1
  F  F6  1  0.28231200  0.50636100  0.93502000  1
  F  F7  1  0.78231200  0.49363900  0.56498000  1
  F  F8  1  0.57958500  0.73878000  0.00039400  1
  F  F9  1  0.07958500  0.26122000  0.49960600  1
  F  F10  1  0.42041500  0.26122000  0.99960600  1
  F  F11  1  0.92041500  0.73878000  0.50039400  1
  F  F12  1  0.70307600  0.02730200  0.93545100  1
  F  F13  1  0.20307600  0.97269800  0.56454900  1
  F  F14  1  0.29692400  0.97269800  0.06454900  1
  F  F15  1  0.79692400  0.02730200  0.43545100  1
  F  F16  1  0.63879500  0.16521100  0.08997200  1
  F  F17  1  0.13879500  0.83478900  0.41002800  1
  F  F18  1  0.36120500  0.83478900  0.91002800  1
  F  F19  1  0.86120500  0.16521100  0.58997200  1
  F  F20  1  0.64772000  0.36067000  0.90919200  1
  F  F21  1  0.14772000  0.63933000  0.59080800  1
  F  F22  1  0.35228000  0.63933000  0.09080800  1
  F  F23  1  0.85228000  0.36067000  0.40919200  1
  F  F24  1  0.11583100  0.73665800  0.20301000  1
  F  F25  1  0.61583100  0.26334200  0.29699000  1
  F  F26  1  0.88416900  0.26334200  0.79699000  1
  F  F27  1  0.38416900  0.73665800  0.70301000  1
  F  F28  1  0.91716800  0.82011900  0.25973200  1
  F  F29  1  0.41716800  0.17988100  0.24026800  1
  F  F30  1  0.08283200  0.17988100  0.74026800  1
  F  F31  1  0.58283200  0.82011900  0.75973200  1
  F  F32  1  0.04795000  0.05780400  0.17378300  1
  F  F33  1  0.54795000  0.94219600  0.32621700  1
  F  F34  1  0.95205000  0.94219600  0.82621700  1
  F  F35  1  0.45205000  0.05780400  0.67378300  1
  F  F36  1  0.94902800  0.55654800  0.17033400  1
  F  F37  1  0.44902800  0.44345200  0.32966600  1
  F  F38  1  0.05097200  0.44345200  0.82966600  1
  F  F39  1  0.55097200  0.55654800  0.67033400  1
  F  F40  1  0.08448000  0.32981000  0.24825400  1
  F  F41  1  0.58448000  0.67019000  0.25174600  1
  F  F42  1  0.91552000  0.67019000  0.75174600  1
  F  F43  1  0.41552000  0.32981000  0.74825400  1
  F  F44  1  0.88271400  0.23753400  0.20903900  1
  F  F45  1  0.38271400  0.76246600  0.29096100  1
  F  F46  1  0.11728600  0.76246600  0.79096100  1
  F  F47  1  0.61728600  0.23753400  0.70903900  1
loop_
_geom_bond_atom_site_label_1
_geom_bond_atom_site_label_2
_geom_bond_distance
_geom_bond_site_symmetry_2
F0 Sn0 2.059764 1_554
F0 Rb9 2.879066 1_565
F0 Rb12 3.074803 1_555
F1 Sn1 2.059764 1_555
F1 Rb8 2.879066 1_545
F1 Rb13 3.074803 1_555
F2 Sn2 2.059764 1_556
F2 Rb11 2.879066 1_545
F2 Rb14 3.074803 1_555
F3 Sn3 2.059764 1_555
F3 Rb10 2.879066 1_565
F3 Rb15 3.074803 1_555
F4 Sn0 2.191511 1_554
F4 Sn4 2.546140 1_554
F4 Rb12 2.839708 1_555
F4 Rb0 2.914200 1_555
F5 Sn1 2.191511 1_555
F5 Sn5 2.546140 1_555
F5 Rb13 2.839708 1_555
F5 Rb1 2.914200 1_555
F6 Sn2 2.191511 1_556
F6 Sn6 2.546140 1_556
F6 Rb14 2.839708 1_555
F6 Rb2 2.914200 1_555
F7 Sn3 2.191511 1_555
F7 Sn7 2.546140 1_555
F7 Rb15 2.839708 1_555
F7 Rb3 2.914200 1_555
F8 Sn0 2.085814 1_554
F8 Rb4 2.976654 1_555
F8 Rb2 3.001806 1_554
F8 Rb0 3.122759 1_555
F8 Rb6 3.370825 1_564
F9 Sn1 2.085814 1_555
F9 Rb5 2.976654 1_455
F9 Rb3 3.001806 1_455
F9 Rb1 3.122759 1_555
F9 Rb7 3.370825 1_545
F10 Sn2 2.085814 1_556
F10 Rb6 2.976654 1_555
F10 Rb0 3.001806 1_556
F10 Rb2 3.122759 1_555
F10 Rb4 3.370825 1_546
F11 Sn3 2.085814 1_555
F11 Rb7 2.976654 1_655
F11 Rb1 3.001806 1_655
F11 Rb3 3.122759 1_555
F11 Rb5 3.370825 1_565
F12 Sn4 2.196579 1_555
F12 Sn0 2.524735 1_545
F12 Rb6 2.880575 1_555
F12 Rb10 3.007128 1_555
F13 Sn5 2.196579 1_555
F13 Sn1 2.524735 1_565
F13 Rb7 2.880575 1_555
F13 Rb11 3.007128 1_555
F14 Sn6 2.196579 1_555
F14 Sn2 2.524735 1_565
F14 Rb4 2.880575 1_555
F14 Rb8 3.007128 1_555
F15 Sn7 2.196579 1_555
F15 Sn3 2.524735 1_545
F15 Rb5 2.880575 1_555
F15 Rb9 3.007128 1_555
F16 Sn4 2.081433 1_554
F16 Rb4 2.895539 1_545
F16 Rb0 2.922331 1_555
F16 Rb9 2.945631 1_555
F17 Sn5 2.081433 1_555
F17 Rb5 2.895539 1_465
F17 Rb1 2.922331 1_555
F17 Rb8 2.945631 1_555
F18 Sn6 2.081433 1_556
F18 Rb6 2.895539 1_565
F18 Rb2 2.922331 1_555
F18 Rb11 2.945631 1_555
F19 Sn7 2.081433 1_555
F19 Rb7 2.895539 1_645
F19 Rb3 2.922331 1_555
F19 Rb10 2.945631 1_555
F20 Sn4 2.090833 1_555
F20 Rb15 2.921616 1_555
F20 Rb2 2.946154 1_555
F20 Rb6 3.203823 1_555
F21 Sn5 2.090833 1_555
F21 Rb14 2.921616 1_555
F21 Rb3 2.946154 1_455
F21 Rb7 3.203823 1_555
F22 Sn6 2.090833 1_555
F22 Rb13 2.921616 1_555
F22 Rb0 2.946154 1_555
F22 Rb4 3.203823 1_555
F23 Sn7 2.090833 1_555
F23 Rb12 2.921616 1_555
F23 Rb1 2.946154 1_655
F23 Rb5 3.203823 1_555
F24 Sn8 2.109567 1_455
F24 Rb8 2.909173 1_555
F24 Rb13 2.961982 1_555
F24 Rb1 3.036448 1_555
F25 Sn9 2.109567 1_555
F25 Rb9 2.909173 1_555
F25 Rb12 2.961982 1_555
F25 Rb0 3.036448 1_555
F26 Sn10 2.109567 1_655
F26 Rb10 2.909173 1_555
F26 Rb15 2.961982 1_555
F26 Rb3 3.036448 1_555
F27 Sn11 2.109567 1_555
F27 Rb11 2.909173 1_555
F27 Rb14 2.961982 1_555
F27 Rb2 3.036448 1_555
F28 Sn8 2.111381 1_555
F28 Rb1 2.929420 1_655
F28 Rb9 2.966469 1_565
F28 Rb5 3.066452 1_565
F28 Rb12 3.403885 1_555
F29 Sn9 2.111381 1_555
F29 Rb0 2.929420 1_555
F29 Rb8 2.966469 1_545
F29 Rb4 3.066452 1_545
F29 Rb13 3.403885 1_555
F30 Sn10 2.111381 1_555
F30 Rb3 2.929420 1_455
F30 Rb11 2.966469 1_545
F30 Rb7 3.066452 1_545
F30 Rb14 3.403885 1_555
F31 Sn11 2.111381 1_555
F31 Rb2 2.929420 1_555
F31 Rb10 2.966469 1_565
F31 Rb6 3.066452 1_565
F31 Rb15 3.403885 1_555
F32 Sn8 2.282942 1_445
F32 Sn12 2.292967 1_555
F32 Rb8 2.873984 1_545
F32 Rb5 3.123546 1_455
F33 Sn9 2.282942 1_565
F33 Sn13 2.292967 1_555
F33 Rb9 2.873984 1_565
F33 Rb4 3.123546 1_555
F34 Sn10 2.282942 1_665
F34 Sn14 2.292967 1_555
F34 Rb10 2.873984 1_565
F34 Rb7 3.123546 1_655
F35 Sn11 2.282942 1_545
F35 Sn15 2.292967 1_555
F35 Rb11 2.873984 1_545
F35 Rb6 3.123546 1_555
F36 Sn12 2.265550 1_655
F36 Sn8 2.288855 1_555
F36 Rb12 2.803386 1_555
F36 Rb1 3.221504 1_655
F37 Sn13 2.265550 1_555
F37 Sn9 2.288855 1_555
F37 Rb13 2.803386 1_555
F37 Rb0 3.221504 1_555
F38 Sn14 2.265550 1_455
F38 Sn10 2.288855 1_555
F38 Rb14 2.803386 1_555
F38 Rb3 3.221504 1_455
F39 Sn15 2.265550 1_555
F39 Sn11 2.288855 1_555
F39 Rb15 2.803386 1_555
F39 Rb2 3.221504 1_555
F40 Sn12 2.093441 1_555
F40 Rb13 2.872735 1_555
F40 Rb5 2.950421 1_455
F40 Rb1 3.014022 1_555
F41 Sn13 2.093441 1_555
F41 Rb12 2.872735 1_555
F41 Rb4 2.950421 1_555
F41 Rb0 3.014022 1_555
F42 Sn14 2.093441 1_555
F42 Rb15 2.872735 1_555
F42 Rb7 2.950421 1_655
F42 Rb3 3.014022 1_555
F43 Sn15 2.093441 1_555
F43 Rb14 2.872735 1_555
F43 Rb6 2.950421 1_555
F43 Rb2 3.014022 1_555
F44 Sn12 2.092949 1_655
F44 Rb9 2.852763 1_555
F44 Rb12 2.912399 1_555
F44 Rb5 3.038221 1_555
F45 Sn13 2.092949 1_555
F45 Rb8 2.852763 1_555
F45 Rb13 2.912399 1_555
F45 Rb4 3.038221 1_555
F46 Sn14 2.092949 1_455
F46 Rb11 2.852763 1_555
F46 Rb14 2.912399 1_555
F46 Rb7 3.038221 1_555
F47 Sn15 2.092949 1_555
F47 Rb10 2.852763 1_555
F47 Rb15 2.912399 1_555
F47 Rb6 3.038221 1_555
