# generated using pymatgen
data_Ho2MgS4
_symmetry_space_group_name_H-M   'P 1'
_cell_length_a   7.83928131
_cell_length_b   7.83928243
_cell_length_c   7.83928089
_cell_angle_alpha   59.99933154
_cell_angle_beta   59.99931560
_cell_angle_gamma   59.99932148
_symmetry_Int_Tables_number   1
_chemical_formula_structural   Ho2MgS4
_chemical_formula_sum   'Ho4 Mg2 S8'
_cell_volume   340.64900247
_cell_formula_units_Z   2
loop_
 _symmetry_equiv_pos_site_id
 _symmetry_equiv_pos_as_xyz
  1  'x, y, z'
loop_
 _atom_site_type_symbol
 _atom_site_label
 _atom_site_symmetry_multiplicity
 _atom_site_fract_x
 _atom_site_fract_y
 _atom_site_fract_z
 _atom_site_occupancy
  Ho  Ho0  1  0.62500000  0.12500049  0.62499943  1
  Ho  Ho1  1  0.62500015  0.62499988  0.12500010  1
  Ho  Ho2  1  0.12499992  0.62500058  0.62499999  1
  Ho  Ho3  1  0.62499979  0.62500030  0.62500043  1
  Mg  Mg0  1  0.00000146  0.00000133  0.00000160  1
  Mg  Mg1  1  0.24999863  0.24999836  0.24999836  1
  S  S0  1  0.37990402  0.37990354  0.37990345  1
  S  S1  1  0.86029161  0.37990306  0.37990297  1
  S  S2  1  0.37990313  0.86029185  0.37990309  1
  S  S3  1  0.37990282  0.37990333  0.86029187  1
  S  S4  1  0.87010324  0.87010285  0.38968951  1
  S  S5  1  0.87010311  0.38968933  0.87010333  1
  S  S6  1  0.38968943  0.87010292  0.87010322  1
  S  S7  1  0.87010268  0.87010219  0.87010264  1
loop_
_geom_bond_atom_site_label_1
_geom_bond_atom_site_label_2
_geom_bond_distance
_geom_bond_site_symmetry_2
Ho0 S0 2.718309 1_555
Ho0 S1 2.718322 1_555
Ho0 S3 2.718328 1_555
Ho0 S7 2.718384 1_545
Ho0 S4 2.718393 1_545
Ho0 S6 2.718397 1_545
Ho1 S0 2.718312 1_555
Ho1 S1 2.718323 1_555
Ho1 S2 2.718326 1_555
Ho1 S7 2.718378 1_554
Ho1 S5 2.718392 1_554
Ho1 S6 2.718394 1_554
Ho2 S0 2.718318 1_555
Ho2 S2 2.718324 1_555
Ho2 S3 2.718325 1_555
Ho2 S7 2.718374 1_455
Ho2 S4 2.718391 1_455
Ho2 S5 2.718396 1_455
Ho3 S3 2.718322 1_555
Ho3 S2 2.718322 1_555
Ho3 S1 2.718326 1_555
Ho3 S6 2.718382 1_555
Ho3 S4 2.718386 1_555
Ho3 S5 2.718387 1_555
Mg0 S4 2.494272 1_445
Mg0 S6 2.494272 1_544
Mg0 S5 2.494273 1_454
Mg0 S7 2.494364 1_444
Mg1 S3 2.494391 1_554
Mg1 S2 2.494392 1_545
Mg1 S1 2.494394 1_455
Mg1 S0 2.494484 1_555
