# generated using pymatgen
data_NpPd3
_symmetry_space_group_name_H-M   'P 1'
_cell_length_a   5.85318588
_cell_length_b   5.85501210
_cell_length_c   9.58005318
_cell_angle_alpha   89.99722293
_cell_angle_beta   90.00281514
_cell_angle_gamma   120.01081658
_symmetry_Int_Tables_number   1
_chemical_formula_structural   NpPd3
_chemical_formula_sum   'Np4 Pd12'
_cell_volume   284.29637208
_cell_formula_units_Z   4
loop_
 _symmetry_equiv_pos_site_id
 _symmetry_equiv_pos_as_xyz
  1  'x, y, z'
loop_
 _atom_site_type_symbol
 _atom_site_label
 _atom_site_symmetry_multiplicity
 _atom_site_fract_x
 _atom_site_fract_y
 _atom_site_fract_z
 _atom_site_occupancy
  Np  Np0  1  0.00021520  0.00021261  0.50022539  1
  Np  Np1  1  -0.00018517  -0.00014722  0.00023841  1
  Np  Np2  1  0.66679653  0.33337950  0.74978100  1
  Np  Np3  1  0.33326887  0.66669834  0.24969056  1
  Pd  Pd0  1  0.49946647  0.99978983  0.49988955  1
  Pd  Pd1  1  0.49949503  0.49967694  0.49986986  1
  Pd  Pd2  1  0.00021773  0.50008966  0.49996465  1
  Pd  Pd3  1  0.50051561  0.00023763  0.99988945  1
  Pd  Pd4  1  0.50049042  0.50027631  0.99989209  1
  Pd  Pd5  1  0.99976507  0.49986430  0.99997087  1
  Pd  Pd6  1  0.17376949  0.82596270  0.75008033  1
  Pd  Pd7  1  0.65213309  0.82610010  0.74986739  1
  Pd  Pd8  1  0.17385690  0.34771146  0.75009580  1
  Pd  Pd9  1  0.82622831  0.17398988  0.25029713  1
  Pd  Pd10  1  0.34782273  0.17389128  0.25002018  1
  Pd  Pd11  1  0.82614571  0.65226667  0.25022835  1
loop_
_geom_bond_atom_site_label_1
_geom_bond_atom_site_label_2
_geom_bond_distance
_geom_bond_site_symmetry_2
Np0 Pd1 2.922898 1_555
Np0 Pd0 2.923451 1_545
Np0 Pd2 2.926780 1_555
Np0 Pd2 2.928235 1_545
Np0 Pd0 2.929740 1_445
Np0 Pd1 2.930248 1_445
Np0 Pd7 2.971944 1_445
Np0 Pd8 2.972277 1_555
Np0 Pd6 2.972965 1_545
Np0 Pd9 2.973409 1_455
Np0 Pd11 2.974597 1_445
Np0 Pd10 2.974863 1_555
Np1 Pd4 2.923357 1_444
Np1 Pd3 2.923621 1_454
Np1 Pd5 2.927294 1_444
Np1 Pd5 2.927720 1_454
Np1 Pd3 2.929570 1_554
Np1 Pd4 2.929789 1_554
Np1 Pd10 2.972717 1_555
Np1 Pd11 2.973383 1_445
Np1 Pd9 2.974454 1_455
Np1 Pd8 2.975380 1_554
Np1 Pd6 2.975584 1_544
Np1 Pd7 2.976284 1_444
Np2 Pd6 2.926157 1_655
Np2 Pd8 2.926852 1_655
Np2 Pd8 2.928141 1_555
Np2 Pd7 2.928142 1_545
Np2 Pd7 2.928756 1_555
Np2 Pd6 2.928806 1_545
Np2 Pd2 2.929806 1_655
Np2 Pd0 2.931190 1_545
Np2 Pd1 2.931262 1_555
Np2 Pd5 2.931329 1_555
Np2 Pd3 2.931503 1_555
Np2 Pd4 2.931825 1_555
Np3 Pd9 2.926718 1_455
Np3 Pd11 2.926943 1_455
Np3 Pd10 2.927945 1_565
Np3 Pd11 2.928081 1_555
Np3 Pd9 2.928239 1_565
Np3 Pd10 2.928929 1_555
Np3 Pd5 2.929212 1_454
Np3 Pd3 2.930259 1_564
Np3 Pd4 2.930667 1_554
Np3 Pd0 2.932141 1_555
Np3 Pd2 2.932309 1_555
Np3 Pd1 2.932335 1_555
Pd0 Pd10 2.908896 1_565
Pd0 Pd9 2.909390 1_565
Pd0 Pd6 2.911059 1_555
Pd0 Pd7 2.911418 1_555
Pd0 Pd2 2.923497 1_555
Pd0 Pd1 2.926761 1_565
Pd0 Pd1 2.928251 1_555
Pd0 Pd2 2.929647 1_665
Pd1 Pd10 2.908966 1_555
Pd1 Pd11 2.909451 1_555
Pd1 Pd8 2.911157 1_555
Pd1 Pd7 2.911883 1_555
Pd1 Pd2 2.923572 1_555
Pd1 Pd2 2.929615 1_655
Pd2 Pd9 2.908366 1_455
Pd2 Pd6 2.911205 1_555
Pd2 Pd8 2.911640 1_555
Pd3 Pd7 2.910285 1_545
Pd3 Pd6 2.910988 1_545
Pd3 Pd9 2.912732 1_556
Pd3 Pd5 2.923283 1_555
Pd3 Pd4 2.927206 1_545
Pd3 Pd4 2.927806 1_555
Pd3 Pd5 2.929860 1_445
Pd4 Pd7 2.910382 1_555
Pd4 Pd8 2.910539 1_555
Pd4 Pd5 2.923555 1_555
Pd4 Pd5 2.929633 1_455
Pd5 Pd6 2.910052 1_655
Pd5 Pd8 2.910472 1_655
Pd5 Pd9 2.912797 1_556
Pd6 Pd7 2.799550 1_555
Pd6 Pd8 2.800423 1_555
Pd6 Pd7 3.053638 1_455
Pd6 Pd8 3.054589 1_565
Pd7 Pd8 2.799749 1_555
Pd7 Pd8 3.053395 1_665
Pd10 Pd11 2.799847 1_555
Pd10 Pd9 2.799909 1_555
Pd10 Pd4 2.912716 1_554
Pd10 Pd3 2.912744 1_554
Pd10 Pd9 3.053279 1_455
Pd10 Pd11 3.053297 1_445
Pd11 Pd9 2.800558 1_555
Pd11 Pd2 2.909235 1_655
Pd11 Pd4 2.911991 1_554
Pd11 Pd5 2.912799 1_554
Pd11 Pd9 3.054454 1_565
