# generated using pymatgen
data_Lu4MgRh
_symmetry_space_group_name_H-M   'P 1'
_cell_length_a   9.46500075
_cell_length_b   9.46495079
_cell_length_c   9.46517051
_cell_angle_alpha   59.99843243
_cell_angle_beta   59.99872170
_cell_angle_gamma   59.99796040
_symmetry_Int_Tables_number   1
_chemical_formula_structural   Lu4MgRh
_chemical_formula_sum   'Lu16 Mg4 Rh4'
_cell_volume   599.56520513
_cell_formula_units_Z   4
loop_
 _symmetry_equiv_pos_site_id
 _symmetry_equiv_pos_as_xyz
  1  'x, y, z'
loop_
 _atom_site_type_symbol
 _atom_site_label
 _atom_site_symmetry_multiplicity
 _atom_site_fract_x
 _atom_site_fract_y
 _atom_site_fract_z
 _atom_site_occupancy
  Lu  Lu0  1  0.34579189  0.34579801  0.34579025  1
  Lu  Lu1  1  0.34579729  0.34579964  0.96260470  1
  Lu  Lu2  1  0.34579965  0.96261244  0.34579010  1
  Lu  Lu3  1  0.96261092  0.34580094  0.34579347  1
  Lu  Lu4  1  0.81229108  0.18771029  0.18770155  1
  Lu  Lu5  1  0.18770694  0.81228679  0.81230090  1
  Lu  Lu6  1  0.18770964  0.81228920  0.18770304  1
  Lu  Lu7  1  0.81229020  0.18770783  0.81229906  1
  Lu  Lu8  1  0.18770196  0.18770308  0.81230007  1
  Lu  Lu9  1  0.81229245  0.81228983  0.18770650  1
  Lu  Lu10  1  0.93540281  0.56459274  0.56460309  1
  Lu  Lu11  1  0.56459533  0.93539871  0.93541124  1
  Lu  Lu12  1  0.56459970  0.93539631  0.56460715  1
  Lu  Lu13  1  0.93540713  0.56458394  0.93542047  1
  Lu  Lu14  1  0.56458668  0.56458337  0.93542054  1
  Lu  Lu15  1  0.93539475  0.93539336  0.56460860  1
  Mg  Mg0  1  0.57964330  0.57964241  0.57964744  1
  Mg  Mg1  1  0.57964325  0.57964257  0.26106653  1
  Mg  Mg2  1  0.57964018  0.26107508  0.57964338  1
  Mg  Mg3  1  0.26106862  0.57964119  0.57964569  1
  Rh  Rh0  1  0.14100125  0.14101492  0.14096357  1
  Rh  Rh1  1  0.14099303  0.14100413  0.57702488  1
  Rh  Rh2  1  0.14101220  0.57701374  0.14097513  1
  Rh  Rh3  1  0.57701674  0.14101947  0.14097065  1
loop_
_geom_bond_atom_site_label_1
_geom_bond_atom_site_label_2
_geom_bond_distance
_geom_bond_site_symmetry_2
Lu0 Rh2 2.752667 1_555
Lu0 Rh1 2.752679 1_555
Lu0 Rh3 2.752703 1_555
Lu0 Mg1 3.433699 1_555
Lu0 Mg3 3.433748 1_555
Lu0 Mg2 3.433775 1_555
Lu0 Lu14 3.444515 1_554
Lu0 Lu10 3.444650 1_455
Lu0 Lu12 3.444745 1_545
Lu1 Rh0 2.752601 1_556
Lu1 Rh2 2.752610 1_556
Lu1 Rh3 2.752618 1_556
Lu1 Mg0 3.433570 1_555
Lu1 Mg3 3.433607 1_555
Lu1 Mg2 3.433621 1_555
Lu1 Lu13 3.444559 1_455
Lu1 Lu14 3.444638 1_555
Lu1 Lu11 3.444661 1_545
Lu2 Rh3 2.752864 1_565
Lu2 Rh0 2.752885 1_565
Lu2 Rh1 2.752906 1_565
Lu2 Mg1 3.433601 1_555
Lu2 Mg0 3.433615 1_555
Lu2 Mg3 3.433660 1_555
Lu3 Rh2 2.752794 1_655
Lu3 Rh1 2.752815 1_655
Lu3 Rh0 2.752834 1_655
Lu3 Mg0 3.433602 1_555
Lu3 Mg1 3.433608 1_555
Lu3 Mg2 3.433657 1_555
Lu4 Rh3 2.741272 1_555
Lu4 Rh0 2.741318 1_655
Lu4 Mg1 3.459794 1_555
Lu4 Mg2 3.459960 1_555
Lu5 Rh2 2.741085 1_556
Lu5 Rh1 2.741319 1_565
Lu5 Mg0 3.459815 1_555
Lu5 Mg3 3.459947 1_555
Lu6 Rh2 2.741296 1_555
Lu6 Rh0 2.741397 1_565
Lu6 Mg1 3.459811 1_555
Lu6 Mg3 3.459931 1_555
Lu7 Rh3 2.741083 1_556
Lu7 Rh1 2.741247 1_655
Lu7 Mg0 3.459790 1_555
Lu7 Mg2 3.459967 1_555
Lu8 Rh0 2.741086 1_556
Lu8 Rh1 2.741227 1_555
Lu8 Mg3 3.459865 1_555
Lu8 Mg2 3.459911 1_555
Lu9 Rh2 2.741317 1_655
Lu9 Rh3 2.741366 1_565
Lu9 Mg0 3.459868 1_555
Lu9 Mg1 3.459892 1_555
Lu10 Mg0 3.231120 1_555
Lu10 Mg3 3.231123 1_655
Lu10 Rh1 3.439436 1_655
Lu10 Rh2 3.439868 1_655
Lu10 Lu3 3.444775 1_555
Lu10 Lu12 3.509536 1_555
Lu10 Lu15 3.509598 1_555
Lu10 Lu14 3.509745 1_555
Lu10 Lu13 3.509829 1_555
Lu10 Lu8 3.555341 1_655
Lu10 Lu7 3.555367 1_555
Lu10 Lu6 3.555455 1_655
Lu10 Lu9 3.555496 1_555
Lu11 Mg1 3.231004 1_556
Lu11 Mg2 3.231168 1_565
Lu11 Rh0 3.439481 1_566
Lu11 Rh3 3.439684 1_566
Lu11 Lu2 3.444647 1_556
Lu11 Lu15 3.509596 1_555
Lu11 Lu13 3.509631 1_555
Lu11 Lu12 3.509715 1_555
Lu11 Lu14 3.509746 1_555
Lu11 Lu6 3.555377 1_556
Lu11 Lu9 3.555414 1_556
Lu11 Lu8 3.555418 1_565
Lu11 Lu7 3.555467 1_565
Lu12 Mg0 3.231091 1_555
Lu12 Mg2 3.231157 1_565
Lu12 Rh1 3.439613 1_565
Lu12 Rh3 3.439939 1_565
Lu12 Lu2 3.444867 1_555
Lu12 Lu15 3.509568 1_555
Lu12 Lu14 3.509686 1_555
Lu12 Lu8 3.555401 1_565
Lu12 Lu5 3.555434 1_555
Lu12 Lu4 3.555482 1_565
Lu12 Lu9 3.555522 1_555
Lu13 Mg1 3.231028 1_556
Lu13 Mg3 3.231160 1_655
Lu13 Rh0 3.439235 1_656
Lu13 Rh2 3.439568 1_656
Lu13 Lu3 3.444556 1_556
Lu13 Lu15 3.509662 1_555
Lu13 Lu14 3.509818 1_555
Lu13 Lu4 3.555292 1_556
Lu13 Lu8 3.555355 1_655
Lu13 Lu9 3.555390 1_556
Lu13 Lu5 3.555433 1_655
Lu14 Mg1 3.231116 1_556
Lu14 Mg0 3.231217 1_555
Lu14 Rh3 3.439228 1_556
Lu14 Rh2 3.439343 1_556
Lu14 Lu4 3.555238 1_556
Lu14 Lu6 3.555282 1_556
Lu14 Lu7 3.555319 1_555
Lu14 Lu5 3.555351 1_555
Lu15 Mg3 3.231016 1_655
Lu15 Mg2 3.231066 1_565
Lu15 Rh1 3.439870 1_665
Lu15 Rh0 3.439978 1_665
Lu15 Lu3 3.444806 1_565
Lu15 Lu2 3.444820 1_655
Lu15 Lu5 3.555517 1_655
Lu15 Lu7 3.555525 1_565
Lu15 Lu4 3.555545 1_565
Lu15 Lu6 3.555548 1_655
Mg0 Mg2 3.015258 1_555
Mg0 Mg3 3.015324 1_555
Mg0 Mg1 3.015422 1_555
Mg1 Mg2 3.015233 1_555
Mg1 Mg3 3.015299 1_555
Mg2 Mg3 3.015153 1_555
