# generated using pymatgen
data_Ca2Ta2FeO8
_symmetry_space_group_name_H-M   'P 1'
_cell_length_a   5.44410438
_cell_length_b   6.47665453
_cell_length_c   10.06182997
_cell_angle_alpha   108.75858096
_cell_angle_beta   91.96402467
_cell_angle_gamma   90.00657765
_symmetry_Int_Tables_number   1
_chemical_formula_structural   Ca2Ta2FeO8
_chemical_formula_sum   'Ca4 Ta4 Fe2 O16'
_cell_volume   335.71034528
_cell_formula_units_Z   2
loop_
 _symmetry_equiv_pos_site_id
 _symmetry_equiv_pos_as_xyz
  1  'x, y, z'
loop_
 _atom_site_type_symbol
 _atom_site_label
 _atom_site_symmetry_multiplicity
 _atom_site_fract_x
 _atom_site_fract_y
 _atom_site_fract_z
 _atom_site_occupancy
  Ca  Ca0  1  0.75551300  0.45779400  0.58132800  1
  Ca  Ca1  1  0.74358000  0.87574700  0.41834900  1
  Ca  Ca2  1  0.24372500  0.54025300  0.41786100  1
  Ca  Ca3  1  0.25548700  0.12218900  0.58054100  1
  Ta  Ta0  1  0.74333100  0.25752100  0.22597300  1
  Ta  Ta1  1  0.75584100  0.03151500  0.77320000  1
  Ta  Ta2  1  0.25588100  0.74054700  0.77334100  1
  Ta  Ta3  1  0.24340400  0.96626400  0.22575000  1
  Fe  Fe0  1  0.24989300  0.35390600  0.99946200  1
  Fe  Fe1  1  0.74991800  0.64303900  0.99972300  1
  O  O0  1  0.07447700  0.18868300  0.14173100  1
  O  O1  1  0.42468900  0.04695400  0.85754900  1
  O  O2  1  0.92466700  0.80913600  0.85739700  1
  O  O3  1  0.57448600  0.95123600  0.14154900  1
  O  O4  1  0.57507700  0.40421500  0.11643000  1
  O  O5  1  0.92447600  0.28729800  0.88305100  1
  O  O6  1  0.42444300  0.59448500  0.88309100  1
  O  O7  1  0.07513800  0.71033000  0.11599600  1
  O  O8  1  0.48362600  0.24535000  0.36475500  1
  O  O9  1  0.01551800  0.88106100  0.63447200  1
  O  O10  1  0.98363900  0.11687500  0.36457100  1
  O  O11  1  0.51559100  0.75263800  0.63452900  1
  O  O12  1  0.33796600  0.84274700  0.37084700  1
  O  O13  1  0.16132300  0.47196800  0.62811900  1
  O  O14  1  0.66106900  0.15520800  0.62820100  1
  O  O15  1  0.83794100  0.52609900  0.37115000  1
loop_
_geom_bond_atom_site_label_1
_geom_bond_atom_site_label_2
_geom_bond_distance
_geom_bond_site_symmetry_2
Ca0 O14 2.222216 1_555
Ca0 O13 2.238711 1_655
Ca0 O11 2.242818 1_555
Ca0 O15 2.352885 1_555
Ca0 O8 2.585096 1_555
Ca0 O10 2.874622 1_555
Ca0 O9 2.967998 1_655
Ca1 O15 2.223268 1_555
Ca1 O12 2.238781 1_555
Ca1 O10 2.243038 1_565
Ca1 O14 2.354439 1_565
Ca1 O9 2.579337 1_655
Ca1 O11 2.864951 1_555
Ca1 O8 2.966912 1_565
Ca2 O12 2.222102 1_555
Ca2 O15 2.238444 1_455
Ca2 O8 2.243062 1_555
Ca2 O13 2.353570 1_555
Ca2 O11 2.585558 1_555
Ca2 O9 2.873674 1_555
Ca2 O10 2.968632 1_455
Ca3 O13 2.223417 1_555
Ca3 O14 2.238851 1_555
Ca3 O9 2.243496 1_545
Ca3 O12 2.353299 1_545
Ca3 O10 2.577809 1_455
Ca3 O8 2.862080 1_555
Ca3 O11 2.968692 1_545
Fe0 O5 2.056513 1_455
Fe0 O4 2.058104 1_556
Fe0 O1 2.272559 1_555
Fe0 O0 2.277043 1_556
Fe0 O7 2.438229 1_556
Fe0 O6 2.439506 1_555
Fe1 O7 2.055077 1_656
Fe1 O6 2.058095 1_555
Fe1 O3 2.279200 1_556
Fe1 O2 2.279710 1_555
Fe1 O4 2.433515 1_556
Fe1 O5 2.434554 1_555
O0 Ta0 2.007282 1_455
O0 Ta3 2.089457 1_545
O1 Ta1 2.007690 1_555
O1 Ta2 2.089367 1_545
O2 Ta2 2.006768 1_655
O2 Ta1 2.090106 1_565
O3 Ta3 2.006921 1_555
O3 Ta0 2.088992 1_565
O4 Ta0 1.887079 1_555
O5 Ta1 1.887153 1_555
O6 Ta2 1.886553 1_555
O7 Ta3 1.886613 1_555
O8 Ta0 2.039914 1_555
O8 Ta3 2.276365 1_545
O9 Ta1 2.038942 1_465
O9 Ta2 2.277217 1_555
O10 Ta3 2.040066 1_645
O10 Ta0 2.275593 1_555
O11 Ta2 2.040017 1_555
O11 Ta1 2.274503 1_565
O12 Ta3 1.932914 1_555
O13 Ta2 1.933758 1_555
O14 Ta1 1.933071 1_555
O15 Ta0 1.933615 1_555
