# generated using pymatgen
data_CeRhPb
_symmetry_space_group_name_H-M   'P 1'
_cell_length_a   7.72391935
_cell_length_b   7.72388401
_cell_length_c   4.02644897
_cell_angle_alpha   90.00000000
_cell_angle_beta   90.00000000
_cell_angle_gamma   120.00123267
_symmetry_Int_Tables_number   1
_chemical_formula_structural   CeRhPb
_chemical_formula_sum   'Ce3 Rh3 Pb3'
_cell_volume   208.02757682
_cell_formula_units_Z   3
loop_
 _symmetry_equiv_pos_site_id
 _symmetry_equiv_pos_as_xyz
  1  'x, y, z'
loop_
 _atom_site_type_symbol
 _atom_site_label
 _atom_site_symmetry_multiplicity
 _atom_site_fract_x
 _atom_site_fract_y
 _atom_site_fract_z
 _atom_site_occupancy
  Ce  Ce0  1  0.41091353  0.41091253  0.50000000  1
  Ce  Ce1  1  0.58905646  -0.00002016  0.50000000  1
  Ce  Ce2  1  -0.00001916  0.58905646  0.50000000  1
  Rh  Rh0  1  -0.00002202  -0.00002302  0.50000000  1
  Rh  Rh1  1  0.66664296  0.33335924  0.00000000  1
  Rh  Rh2  1  0.33335824  0.66664196  0.00000000  1
  Pb  Pb0  1  0.74212929  0.74212929  -0.00000000  1
  Pb  Pb1  1  0.25760106  0.00034464  -0.00000000  1
  Pb  Pb2  1  0.00034064  0.25759806  0.00000000  1
loop_
_geom_bond_atom_site_label_1
_geom_bond_atom_site_label_2
_geom_bond_distance
_geom_bond_site_symmetry_2
Ce0 Rh1 3.081667 1_556
Ce0 Rh1 3.081667 1_555
Ce0 Rh2 3.081669 1_555
Ce0 Rh2 3.081669 1_556
Ce0 Rh0 3.173967 1_555
Ce0 Pb0 3.255401 1_555
Ce0 Pb0 3.255401 1_556
Ce0 Pb1 3.428753 1_555
Ce0 Pb1 3.428753 1_556
Ce0 Pb2 3.428792 1_555
Ce0 Pb2 3.428792 1_556
Ce1 Rh2 3.081790 1_545
Ce1 Rh2 3.081790 1_546
Ce1 Rh1 3.082137 1_556
Ce1 Rh1 3.082137 1_555
Ce1 Rh0 3.173936 1_655
Ce1 Pb1 3.258003 1_555
Ce1 Pb1 3.258003 1_556
Ce1 Pb0 3.431074 1_546
Ce1 Pb0 3.431074 1_545
Ce1 Pb2 3.432592 1_655
Ce1 Pb2 3.432592 1_656
Ce2 Rh1 3.081792 1_456
Ce2 Rh1 3.081792 1_455
Ce2 Rh2 3.082137 1_556
Ce2 Rh2 3.082137 1_555
Ce2 Rh0 3.173913 1_565
Ce2 Pb2 3.257997 1_556
Ce2 Pb2 3.257997 1_555
Ce2 Pb0 3.431083 1_456
Ce2 Pb0 3.431083 1_455
Ce2 Pb1 3.432606 1_565
Ce2 Pb1 3.432606 1_566
Pb0 Rh0 2.831850 1_665
Pb0 Rh0 2.831850 1_664
Pb0 Rh1 2.909899 1_555
Pb0 Rh2 2.909919 1_555
Pb0 Pb2 3.447971 1_665
Pb0 Pb1 3.448007 1_665
Pb1 Rh0 2.829659 1_554
Pb1 Rh0 2.829659 1_555
Pb1 Rh1 2.910510 1_555
Pb1 Rh2 2.914455 1_545
Pb1 Pb2 3.441653 1_555
Pb2 Rh0 2.829656 1_554
Pb2 Rh0 2.829656 1_555
Pb2 Rh2 2.910522 1_555
Pb2 Rh1 2.914447 1_455
