# generated using pymatgen
data_Gd2CrSbO7
_symmetry_space_group_name_H-M   'P 1'
_cell_length_a   7.25860497
_cell_length_b   7.25860497
_cell_length_c   7.25860497
_cell_angle_alpha   120.01281883
_cell_angle_beta   119.60597483
_cell_angle_gamma   90.33081167
_symmetry_Int_Tables_number   1
_chemical_formula_structural   Gd2CrSbO7
_chemical_formula_sum   'Gd4 Cr2 Sb2 O14'
_cell_volume   271.19347821
_cell_formula_units_Z   2
loop_
 _symmetry_equiv_pos_site_id
 _symmetry_equiv_pos_as_xyz
  1  'x, y, z'
loop_
 _atom_site_type_symbol
 _atom_site_label
 _atom_site_symmetry_multiplicity
 _atom_site_fract_x
 _atom_site_fract_y
 _atom_site_fract_z
 _atom_site_occupancy
  Gd  Gd0  1  0.50000000  0.00000000  0.00000000  1
  Gd  Gd1  1  0.50000000  0.50000000  0.50000000  1
  Gd  Gd2  1  0.50000000  0.00000000  0.50000000  1
  Gd  Gd3  1  -0.00000000  0.00000000  0.00000000  1
  Cr  Cr0  1  -0.00000000  0.50000000  0.00000000  1
  Cr  Cr1  1  -0.00000000  0.00000000  0.50000000  1
  Sb  Sb0  1  -0.00000000  0.50000000  0.50000000  1
  Sb  Sb1  1  0.50000000  0.50000000  0.00000000  1
  O  O0  1  0.91386002  0.16386002  0.75000000  1
  O  O1  1  0.32895209  0.57895209  0.75000000  1
  O  O2  1  0.91507422  0.57623144  0.74274570  1
  O  O3  1  0.33348574  0.17232852  0.75725430  1
  O  O4  1  0.91507422  0.17232852  0.33884278  1
  O  O5  1  0.33348574  0.57623144  0.16115722  1
  O  O6  1  0.08613998  0.83613998  0.25000000  1
  O  O7  1  0.67104791  0.42104791  0.25000000  1
  O  O8  1  0.08492578  0.42376856  0.25725430  1
  O  O9  1  0.66651426  0.82767148  0.24274570  1
  O  O10  1  0.08492578  0.82767148  0.66115722  1
  O  O11  1  0.66651426  0.42376856  0.83884278  1
  O  O12  1  0.62246297  0.87246297  0.75000000  1
  O  O13  1  0.37753703  0.12753703  0.25000000  1
loop_
_geom_bond_atom_site_label_1
_geom_bond_atom_site_label_2
_geom_bond_distance
_geom_bond_site_symmetry_2
Gd0 O13 2.205194 1_555
Gd0 O12 2.205194 1_544
Gd0 O9 2.499649 1_545
Gd0 O4 2.499649 1_555
Gd0 O10 2.499649 1_544
Gd0 O3 2.499649 1_554
Gd0 O1 2.521284 1_544
Gd0 O7 2.521284 1_555
Gd1 O13 2.205194 1_555
Gd1 O12 2.205194 1_555
Gd1 O8 2.499649 1_555
Gd1 O11 2.499649 1_555
Gd1 O5 2.499649 1_555
Gd1 O2 2.499649 1_555
Gd1 O1 2.521284 1_555
Gd1 O7 2.521284 1_555
Gd2 O12 2.244183 1_545
Gd2 O13 2.244183 1_555
Gd2 O6 2.478961 1_545
Gd2 O0 2.478961 1_555
Gd2 O3 2.534398 1_555
Gd2 O5 2.534398 1_545
Gd2 O11 2.534398 1_555
Gd2 O9 2.534398 1_545
Gd3 O12 2.244183 1_444
Gd3 O13 2.244183 1_555
Gd3 O6 2.478961 1_545
Gd3 O0 2.478961 1_454
Gd3 O2 2.534398 1_444
Gd3 O4 2.534398 1_455
Gd3 O8 2.534398 1_555
Gd3 O10 2.534398 1_544
Cr0 O0 2.017191 1_454
Cr0 O6 2.017191 1_555
Cr0 O11 2.018230 1_454
Cr0 O8 2.018230 1_555
Cr0 O2 2.018230 1_454
Cr0 O5 2.018230 1_555
Cr1 O6 2.017191 1_545
Cr1 O0 2.017191 1_455
Cr1 O9 2.018230 1_445
Cr1 O10 2.018230 1_545
Cr1 O3 2.018230 1_555
Cr1 O4 2.018230 1_455
O1 Sb0 1.996325 1_555
O1 Sb1 1.996325 1_556
O2 Sb0 1.972968 1_655
O3 Sb1 1.972968 1_556
O4 Sb0 1.972968 1_655
O5 Sb1 1.972968 1_555
O7 Sb1 1.996325 1_555
O7 Sb0 1.996325 1_655
O8 Sb0 1.972968 1_555
O9 Sb1 1.972968 1_555
O10 Sb0 1.972968 1_555
O11 Sb1 1.972968 1_556
