# generated using pymatgen
data_MoRh
_symmetry_space_group_name_H-M   'P 1'
_cell_length_a   5.46982814
_cell_length_b   8.83158204
_cell_length_c   9.62632540
_cell_angle_alpha   90.00000000
_cell_angle_beta   90.00000000
_cell_angle_gamma   90.00000000
_symmetry_Int_Tables_number   1
_chemical_formula_structural   MoRh
_chemical_formula_sum   'Mo16 Rh16'
_cell_volume   465.02117256
_cell_formula_units_Z   16
loop_
 _symmetry_equiv_pos_site_id
 _symmetry_equiv_pos_as_xyz
  1  'x, y, z'
loop_
 _atom_site_type_symbol
 _atom_site_label
 _atom_site_symmetry_multiplicity
 _atom_site_fract_x
 _atom_site_fract_y
 _atom_site_fract_z
 _atom_site_occupancy
  Mo  Mo0_0  1  0.00000000  0.37500000  0.41456301  1
  Mo  Mo0_1  1  0.00000000  0.37500000  0.91456301  1
  Mo  Mo0_2  1  0.00000000  0.87500000  0.41456301  1
  Mo  Mo0_3  1  0.00000000  0.87500000  0.91456301  1
  Mo  Mo0_4  1  0.50000000  0.37500000  0.41456301  1
  Mo  Mo0_5  1  0.50000000  0.37500000  0.91456301  1
  Mo  Mo0_6  1  0.50000000  0.87500000  0.41456301  1
  Mo  Mo0_7  1  0.50000000  0.87500000  0.91456301  1
  Mo  Mo1_0  1  0.00000000  0.12500000  0.08543698  1
  Mo  Mo1_1  1  0.00000000  0.12500000  0.58543698  1
  Mo  Mo1_2  1  0.00000000  0.62500000  0.08543698  1
  Mo  Mo1_3  1  0.00000000  0.62500000  0.58543698  1
  Mo  Mo1_4  1  0.50000000  0.12500000  0.08543698  1
  Mo  Mo1_5  1  0.50000000  0.12500000  0.58543698  1
  Mo  Mo1_6  1  0.50000000  0.62500000  0.08543698  1
  Mo  Mo1_7  1  0.50000000  0.62500000  0.58543698  1
  Rh  Rh0_0  1  0.25000000  0.37500000  0.16330791  1
  Rh  Rh0_1  1  0.25000000  0.37500000  0.66330791  1
  Rh  Rh0_2  1  0.25000000  0.87500000  0.16330791  1
  Rh  Rh0_3  1  0.25000000  0.87500000  0.66330791  1
  Rh  Rh0_4  1  0.75000000  0.37500000  0.16330791  1
  Rh  Rh0_5  1  0.75000000  0.37500000  0.66330791  1
  Rh  Rh0_6  1  0.75000000  0.87500000  0.16330791  1
  Rh  Rh0_7  1  0.75000000  0.87500000  0.66330791  1
  Rh  Rh1_0  1  0.25000000  0.12500000  0.33669208  1
  Rh  Rh1_1  1  0.25000000  0.12500000  0.83669209  1
  Rh  Rh1_2  1  0.25000000  0.62500000  0.33669208  1
  Rh  Rh1_3  1  0.25000000  0.62500000  0.83669209  1
  Rh  Rh1_4  1  0.75000000  0.12500000  0.33669208  1
  Rh  Rh1_5  1  0.75000000  0.12500000  0.83669209  1
  Rh  Rh1_6  1  0.75000000  0.62500000  0.33669208  1
  Rh  Rh1_7  1  0.75000000  0.62500000  0.83669209  1
loop_
_geom_bond_atom_site_label_1
_geom_bond_atom_site_label_2
_geom_bond_distance
_geom_bond_site_symmetry_2
Mo0_0 Rh1_0 2.703083 1_555
Mo0_0 Rh1_2 2.703083 1_555
Mo0_0 Rh1_4 2.703083 1_455
Mo0_0 Rh1_6 2.703083 1_455
Mo0_0 Mo0_4 2.734914 1_555
Mo0_0 Mo0_4 2.734914 1_455
Mo0_0 Mo1_3 2.753264 1_555
Mo0_0 Mo1_1 2.753264 1_555
Mo0_0 Rh0_1 2.757456 1_555
Mo0_0 Rh0_5 2.757456 1_455
Mo0_0 Rh0_0 2.778466 1_555
Mo0_0 Rh0_4 2.778466 1_455
Mo0_1 Rh1_5 2.703083 1_455
Mo0_1 Rh1_7 2.703083 1_455
Mo0_1 Rh1_1 2.703083 1_555
Mo0_1 Rh1_3 2.703083 1_555
Mo0_1 Mo0_5 2.734914 1_555
Mo0_1 Mo0_5 2.734914 1_455
Mo0_1 Mo1_2 2.753264 1_556
Mo0_1 Mo1_0 2.753264 1_556
Mo0_1 Rh0_0 2.757456 1_556
Mo0_1 Rh0_4 2.757456 1_456
Mo0_1 Rh0_1 2.778466 1_555
Mo0_1 Rh0_5 2.778466 1_455
Mo0_2 Rh1_0 2.703083 1_565
Mo0_2 Rh1_2 2.703083 1_555
Mo0_2 Rh1_4 2.703083 1_465
Mo0_2 Rh1_6 2.703083 1_455
Mo0_2 Mo0_6 2.734914 1_555
Mo0_2 Mo0_6 2.734914 1_455
Mo0_2 Mo1_1 2.753264 1_565
Mo0_2 Mo1_3 2.753264 1_555
Mo0_2 Rh0_3 2.757456 1_555
Mo0_2 Rh0_7 2.757456 1_455
Mo0_2 Rh0_2 2.778466 1_555
Mo0_2 Rh0_6 2.778466 1_455
Mo0_3 Rh1_5 2.703083 1_465
Mo0_3 Rh1_1 2.703083 1_565
Mo0_3 Rh1_7 2.703083 1_455
Mo0_3 Rh1_3 2.703083 1_555
Mo0_3 Mo0_7 2.734914 1_555
Mo0_3 Mo0_7 2.734914 1_455
Mo0_3 Mo1_2 2.753264 1_556
Mo0_3 Mo1_0 2.753264 1_566
Mo0_3 Rh0_2 2.757456 1_556
Mo0_3 Rh0_6 2.757456 1_456
Mo0_3 Rh0_3 2.778466 1_555
Mo0_3 Rh0_7 2.778466 1_455
Mo0_4 Rh1_4 2.703083 1_555
Mo0_4 Rh1_6 2.703083 1_555
Mo0_4 Rh1_0 2.703083 1_555
Mo0_4 Rh1_2 2.703083 1_555
Mo0_4 Mo1_5 2.753264 1_555
Mo0_4 Mo1_7 2.753264 1_555
Mo0_4 Rh0_5 2.757456 1_555
Mo0_4 Rh0_1 2.757456 1_555
Mo0_4 Rh0_0 2.778466 1_555
Mo0_4 Rh0_4 2.778466 1_555
Mo0_5 Rh1_7 2.703083 1_555
Mo0_5 Rh1_5 2.703083 1_555
Mo0_5 Rh1_1 2.703083 1_555
Mo0_5 Rh1_3 2.703083 1_555
Mo0_5 Mo1_6 2.753264 1_556
Mo0_5 Mo1_4 2.753264 1_556
Mo0_5 Rh0_0 2.757456 1_556
Mo0_5 Rh0_4 2.757456 1_556
Mo0_5 Rh0_5 2.778466 1_555
Mo0_5 Rh0_1 2.778466 1_555
Mo0_6 Rh1_6 2.703083 1_555
Mo0_6 Rh1_0 2.703083 1_565
Mo0_6 Rh1_4 2.703083 1_565
Mo0_6 Rh1_2 2.703083 1_555
Mo0_6 Mo1_7 2.753264 1_555
Mo0_6 Mo1_5 2.753264 1_565
Mo0_6 Rh0_3 2.757456 1_555
Mo0_6 Rh0_7 2.757456 1_555
Mo0_6 Rh0_2 2.778466 1_555
Mo0_6 Rh0_6 2.778466 1_555
Mo0_7 Rh1_7 2.703083 1_555
Mo0_7 Rh1_1 2.703083 1_565
Mo0_7 Rh1_5 2.703083 1_565
Mo0_7 Rh1_3 2.703083 1_555
Mo0_7 Mo1_4 2.753264 1_566
Mo0_7 Mo1_6 2.753264 1_556
Mo0_7 Rh0_2 2.757456 1_556
Mo0_7 Rh0_6 2.757456 1_556
Mo0_7 Rh0_7 2.778466 1_555
Mo0_7 Rh0_3 2.778466 1_555
Mo1_0 Rh0_2 2.703083 1_545
Mo1_0 Rh0_0 2.703083 1_555
Mo1_0 Rh0_6 2.703083 1_445
Mo1_0 Rh0_4 2.703083 1_455
Mo1_0 Mo1_4 2.734914 1_555
Mo1_0 Mo1_4 2.734914 1_455
Mo1_0 Rh1_1 2.757456 1_554
Mo1_0 Rh1_5 2.757456 1_454
Mo1_0 Rh1_0 2.778466 1_555
Mo1_0 Rh1_4 2.778466 1_455
Mo1_1 Rh0_1 2.703083 1_555
Mo1_1 Rh0_3 2.703083 1_545
Mo1_1 Rh0_5 2.703083 1_455
Mo1_1 Rh0_7 2.703083 1_445
Mo1_1 Mo1_5 2.734914 1_555
Mo1_1 Mo1_5 2.734914 1_455
Mo1_1 Rh1_0 2.757456 1_555
Mo1_1 Rh1_4 2.757456 1_455
Mo1_1 Rh1_5 2.778466 1_455
Mo1_1 Rh1_1 2.778466 1_555
Mo1_2 Rh0_2 2.703083 1_555
Mo1_2 Rh0_0 2.703083 1_555
Mo1_2 Rh0_6 2.703083 1_455
Mo1_2 Rh0_4 2.703083 1_455
Mo1_2 Mo1_6 2.734914 1_555
Mo1_2 Mo1_6 2.734914 1_455
Mo1_2 Rh1_3 2.757456 1_554
Mo1_2 Rh1_7 2.757456 1_454
Mo1_2 Rh1_2 2.778466 1_555
Mo1_2 Rh1_6 2.778466 1_455
Mo1_3 Rh0_1 2.703083 1_555
Mo1_3 Rh0_3 2.703083 1_555
Mo1_3 Rh0_5 2.703083 1_455
Mo1_3 Rh0_7 2.703083 1_455
Mo1_3 Mo1_7 2.734914 1_555
Mo1_3 Mo1_7 2.734914 1_455
Mo1_3 Rh1_2 2.757456 1_555
Mo1_3 Rh1_6 2.757456 1_455
Mo1_3 Rh1_3 2.778466 1_555
Mo1_3 Rh1_7 2.778466 1_455
Mo1_4 Rh0_4 2.703083 1_555
Mo1_4 Rh0_2 2.703083 1_545
Mo1_4 Rh0_0 2.703083 1_555
Mo1_4 Rh0_6 2.703083 1_545
Mo1_4 Rh1_5 2.757456 1_554
Mo1_4 Rh1_1 2.757456 1_554
Mo1_4 Rh1_0 2.778466 1_555
Mo1_4 Rh1_4 2.778466 1_555
Mo1_5 Rh0_5 2.703083 1_555
Mo1_5 Rh0_1 2.703083 1_555
Mo1_5 Rh0_3 2.703083 1_545
Mo1_5 Rh0_7 2.703083 1_545
Mo1_5 Rh1_4 2.757456 1_555
Mo1_5 Rh1_0 2.757456 1_555
Mo1_5 Rh1_5 2.778466 1_555
Mo1_5 Rh1_1 2.778466 1_555
Mo1_6 Rh0_6 2.703083 1_555
Mo1_6 Rh0_4 2.703083 1_555
Mo1_6 Rh0_2 2.703083 1_555
Mo1_6 Rh0_0 2.703083 1_555
Mo1_6 Rh1_7 2.757456 1_554
Mo1_6 Rh1_3 2.757456 1_554
Mo1_6 Rh1_2 2.778466 1_555
Mo1_6 Rh1_6 2.778466 1_555
Mo1_7 Rh0_5 2.703083 1_555
Mo1_7 Rh0_1 2.703083 1_555
Mo1_7 Rh0_3 2.703083 1_555
Mo1_7 Rh0_7 2.703083 1_555
Mo1_7 Rh1_2 2.757456 1_555
Mo1_7 Rh1_6 2.757456 1_555
Mo1_7 Rh1_3 2.778466 1_555
Mo1_7 Rh1_7 2.778466 1_555
Rh0_0 Rh0_4 2.734914 1_555
Rh0_0 Rh0_4 2.734914 1_455
Rh0_0 Rh1_0 2.767768 1_555
Rh0_0 Rh1_2 2.767768 1_555
Rh0_1 Rh0_5 2.734914 1_555
Rh0_1 Rh0_5 2.734914 1_455
Rh0_1 Rh1_1 2.767768 1_555
Rh0_1 Rh1_3 2.767768 1_555
Rh0_2 Rh0_6 2.734914 1_555
Rh0_2 Rh0_6 2.734914 1_455
Rh0_2 Rh1_2 2.767768 1_555
Rh0_2 Rh1_0 2.767768 1_565
Rh0_3 Rh0_7 2.734914 1_555
Rh0_3 Rh0_7 2.734914 1_455
Rh0_3 Rh1_1 2.767768 1_565
Rh0_3 Rh1_3 2.767768 1_555
Rh0_4 Rh1_4 2.767768 1_555
Rh0_4 Rh1_6 2.767768 1_555
Rh0_5 Rh1_5 2.767768 1_555
Rh0_5 Rh1_7 2.767768 1_555
Rh0_6 Rh1_4 2.767768 1_565
Rh0_6 Rh1_6 2.767768 1_555
Rh0_7 Rh1_5 2.767768 1_565
Rh0_7 Rh1_7 2.767768 1_555
Rh1_0 Rh1_4 2.734914 1_555
Rh1_0 Rh1_4 2.734914 1_455
Rh1_1 Rh1_5 2.734914 1_555
Rh1_1 Rh1_5 2.734914 1_455
Rh1_2 Rh1_6 2.734914 1_555
Rh1_2 Rh1_6 2.734914 1_455
Rh1_3 Rh1_7 2.734914 1_555
Rh1_3 Rh1_7 2.734914 1_455
