# generated using pymatgen
data_RbLiMg6
_symmetry_space_group_name_H-M   'P 1'
_cell_length_a   5.30951800
_cell_length_b   7.03575700
_cell_length_c   11.87985000
_cell_angle_alpha   90.00000000
_cell_angle_beta   90.00000000
_cell_angle_gamma   90.00000000
_symmetry_Int_Tables_number   1
_chemical_formula_structural   RbLiMg6
_chemical_formula_sum   'Rb2 Li2 Mg12'
_cell_volume   443.78936034
_cell_formula_units_Z   2
loop_
 _symmetry_equiv_pos_site_id
 _symmetry_equiv_pos_as_xyz
  1  'x, y, z'
loop_
 _atom_site_type_symbol
 _atom_site_label
 _atom_site_symmetry_multiplicity
 _atom_site_fract_x
 _atom_site_fract_y
 _atom_site_fract_z
 _atom_site_occupancy
  Rb  Rb0  1  0.50000000  0.50000000  0.17387800  1
  Rb  Rb1  1  0.50000000  0.00000000  0.67387800  1
  Li  Li0  1  0.00000000  0.50000000  0.34938400  1
  Li  Li1  1  0.00000000  0.00000000  0.84938400  1
  Mg  Mg0  1  0.00000000  0.21810900  0.06962000  1
  Mg  Mg1  1  0.00000000  0.78189100  0.06962000  1
  Mg  Mg2  1  0.00000000  0.50000000  0.83242100  1
  Mg  Mg3  1  0.50000000  0.25111000  0.92109900  1
  Mg  Mg4  1  0.50000000  0.74889000  0.92109900  1
  Mg  Mg5  1  0.50000000  0.50000000  0.66287700  1
  Mg  Mg6  1  0.00000000  0.71810900  0.56962000  1
  Mg  Mg7  1  0.00000000  0.28189100  0.56962000  1
  Mg  Mg8  1  0.00000000  0.00000000  0.33242100  1
  Mg  Mg9  1  0.50000000  0.75111000  0.42109900  1
  Mg  Mg10  1  0.50000000  0.24889000  0.42109900  1
  Mg  Mg11  1  0.50000000  0.00000000  0.16287700  1
loop_
_geom_bond_atom_site_label_1
_geom_bond_atom_site_label_2
_geom_bond_distance
_geom_bond_site_symmetry_2
Li0 Mg6 3.033196 1_555
Li0 Mg7 3.033196 1_555
Li0 Mg10 3.300756 1_455
Li0 Mg10 3.300756 1_555
Li0 Mg9 3.300756 1_455
Li0 Mg9 3.300756 1_555
Li0 Rb0 3.375634 1_455
Li0 Rb0 3.375634 1_555
Li1 Mg0 3.033196 1_556
Li1 Mg1 3.033196 1_546
Li1 Mg4 3.300756 1_445
Li1 Mg4 3.300756 1_545
Li1 Mg3 3.300756 1_455
Li1 Mg3 3.300756 1_555
Li1 Rb1 3.375634 1_555
Li1 Rb1 3.375634 1_455
Mg0 Mg1 3.069124 1_545
Mg0 Mg3 3.196058 1_554
Mg0 Mg3 3.196058 1_454
Mg0 Mg11 3.260371 1_455
Mg0 Mg11 3.260371 1_555
Mg0 Mg2 3.445873 1_554
Mg0 Mg8 3.478792 1_555
Mg0 Rb0 3.537703 1_455
Mg0 Rb0 3.537703 1_555
Mg1 Mg4 3.196058 1_454
Mg1 Mg4 3.196058 1_554
Mg1 Mg11 3.260371 1_565
Mg1 Mg11 3.260371 1_465
Mg1 Mg2 3.445873 1_554
Mg1 Mg8 3.478792 1_565
Mg1 Rb0 3.537703 1_455
Mg1 Rb0 3.537703 1_555
Mg2 Mg5 3.332353 1_455
Mg2 Mg5 3.332353 1_555
Mg2 Mg3 3.350227 1_455
Mg2 Mg3 3.350227 1_555
Mg2 Mg4 3.350227 1_455
Mg2 Mg4 3.350227 1_555
Mg2 Mg7 3.478792 1_555
Mg2 Mg6 3.478792 1_555
Mg3 Rb1 3.427400 1_555
Mg3 Rb0 3.476251 1_556
Mg3 Mg4 3.502259 1_555
Mg3 Mg5 3.532260 1_555
Mg3 Mg4 3.533498 1_545
Mg4 Rb1 3.427400 1_565
Mg4 Rb0 3.476251 1_556
Mg4 Mg5 3.532260 1_555
Mg5 Mg7 3.260371 1_655
Mg5 Mg6 3.260371 1_555
Mg5 Mg6 3.260371 1_655
Mg5 Mg7 3.260371 1_555
Mg5 Mg9 3.372155 1_555
Mg5 Rb1 3.520305 1_555
Mg5 Rb1 3.520305 1_565
Mg6 Mg7 3.069124 1_555
Mg6 Mg9 3.196058 1_555
Mg6 Mg9 3.196058 1_455
Mg6 Mg8 3.445873 1_565
Mg6 Rb1 3.537703 1_465
Mg6 Rb1 3.537703 1_565
Mg7 Mg8 3.445873 1_555
Mg7 Rb1 3.537703 1_555
Mg7 Rb1 3.537703 1_455
Mg8 Mg9 3.350227 1_445
Mg8 Mg9 3.350227 1_545
Mg9 Rb0 3.427400 1_555
Mg9 Rb1 3.476251 1_565
Mg10 Mg7 3.196058 1_555
Mg10 Mg7 3.196058 1_655
Mg10 Mg8 3.350227 1_655
Mg10 Mg8 3.350227 1_555
Mg10 Mg5 3.372155 1_555
Mg10 Rb0 3.427400 1_555
Mg10 Rb1 3.476251 1_555
Mg10 Mg9 3.502259 1_545
Mg10 Mg11 3.532260 1_555
Mg10 Mg9 3.533498 1_555
Mg11 Mg8 3.332353 1_555
Mg11 Mg8 3.332353 1_655
Mg11 Mg3 3.372155 1_554
Mg11 Mg4 3.372155 1_544
Mg11 Rb0 3.520305 1_545
Mg11 Rb0 3.520305 1_555
Mg11 Mg9 3.532260 1_545
