# generated using pymatgen
data_CaHo(BiO3)2
_symmetry_space_group_name_H-M   'P 1'
_cell_length_a   5.81583000
_cell_length_b   6.11010600
_cell_length_c   8.55695700
_cell_angle_alpha   90.00000000
_cell_angle_beta   90.00000000
_cell_angle_gamma   90.00000000
_symmetry_Int_Tables_number   1
_chemical_formula_structural   CaHo(BiO3)2
_chemical_formula_sum   'Ca2 Ho2 Bi4 O12'
_cell_volume   304.07435735
_cell_formula_units_Z   2
loop_
 _symmetry_equiv_pos_site_id
 _symmetry_equiv_pos_as_xyz
  1  'x, y, z'
loop_
 _atom_site_type_symbol
 _atom_site_label
 _atom_site_symmetry_multiplicity
 _atom_site_fract_x
 _atom_site_fract_y
 _atom_site_fract_z
 _atom_site_occupancy
  Ca  Ca0  1  0.49787200  0.20948500  0.00000000  1
  Ca  Ca1  1  0.99787200  0.79051500  0.50000000  1
  Ho  Ho0  1  0.02929600  0.68325400  0.00000000  1
  Ho  Ho1  1  0.52929600  0.31674600  0.50000000  1
  Bi  Bi0  1  0.00391200  0.24569900  0.74964000  1
  Bi  Bi1  1  0.00391200  0.24569900  0.25036000  1
  Bi  Bi2  1  0.50391200  0.75430100  0.24964000  1
  Bi  Bi3  1  0.50391200  0.75430100  0.75036000  1
  O  O0  1  0.16634500  0.17883300  0.50000000  1
  O  O1  1  0.16464600  0.91919900  0.82280400  1
  O  O2  1  0.16464600  0.91919900  0.17719600  1
  O  O3  1  0.29995800  0.45558400  0.83404000  1
  O  O4  1  0.29995800  0.45558400  0.16596000  1
  O  O5  1  0.36492400  0.66193400  0.50000000  1
  O  O6  1  0.66634500  0.82116700  0.00000000  1
  O  O7  1  0.66464600  0.08080100  0.32280400  1
  O  O8  1  0.66464600  0.08080100  0.67719600  1
  O  O9  1  0.79995800  0.54441600  0.66596000  1
  O  O10  1  0.79995800  0.54441600  0.33404000  1
  O  O11  1  0.86492400  0.33806600  0.00000000  1
loop_
_geom_bond_atom_site_label_1
_geom_bond_atom_site_label_2
_geom_bond_distance
_geom_bond_site_symmetry_2
Ca0 O11 2.274694 1_555
Ca0 O3 2.366999 1_554
Ca0 O4 2.366999 1_555
Ca0 O6 2.567014 1_545
Ca1 O5 2.274694 1_655
Ca1 O10 2.366999 1_555
Ca1 O9 2.366999 1_555
Ca1 O0 2.567014 1_665
Ho0 O1 2.235404 1_554
Ho0 O2 2.235404 1_555
Ho0 O6 2.272843 1_455
Ho0 O11 2.315666 1_455
Ho0 O3 2.535688 1_554
Ho0 O4 2.535688 1_555
Ho1 O7 2.235404 1_555
Ho1 O8 2.235404 1_555
Ho1 O0 2.272843 1_555
Ho1 O5 2.315666 1_555
Ho1 O10 2.535688 1_555
Ho1 O9 2.535688 1_555
Bi0 O3 2.265087 1_555
Bi0 O1 2.290334 1_545
Bi0 O9 2.291513 1_455
Bi0 O8 2.300565 1_455
Bi0 O11 2.358272 1_456
Bi0 O0 2.371185 1_555
Bi1 O4 2.265087 1_555
Bi1 O2 2.290334 1_545
Bi1 O10 2.291513 1_455
Bi1 O7 2.300565 1_455
Bi1 O11 2.358272 1_455
Bi1 O0 2.371185 1_555
Bi2 O10 2.265087 1_555
Bi2 O7 2.290334 1_565
Bi2 O4 2.291513 1_555
Bi2 O2 2.300565 1_555
Bi2 O5 2.358272 1_555
Bi2 O6 2.371185 1_555
Bi3 O9 2.265087 1_555
Bi3 O8 2.290334 1_565
Bi3 O3 2.291513 1_555
Bi3 O1 2.300565 1_555
Bi3 O5 2.358272 1_555
Bi3 O6 2.371185 1_556
