# generated using pymatgen
data_Ba(CuSb)2
_symmetry_space_group_name_H-M   'P 1'
_cell_length_a   4.69000535
_cell_length_b   4.69000535
_cell_length_c   10.77834115
_cell_angle_alpha   90.00000000
_cell_angle_beta   90.00000000
_cell_angle_gamma   90.00000000
_symmetry_Int_Tables_number   1
_chemical_formula_structural   Ba(CuSb)2
_chemical_formula_sum   'Ba2 Cu4 Sb4'
_cell_volume   237.08201066
_cell_formula_units_Z   2
loop_
 _symmetry_equiv_pos_site_id
 _symmetry_equiv_pos_as_xyz
  1  'x, y, z'
loop_
 _atom_site_type_symbol
 _atom_site_label
 _atom_site_symmetry_multiplicity
 _atom_site_fract_x
 _atom_site_fract_y
 _atom_site_fract_z
 _atom_site_occupancy
  Ba  Ba0  1  0.00000000  0.50000000  0.76169127  1
  Ba  Ba1  1  0.50000000  0.00000000  0.23830873  1
  Cu  Cu0  1  -0.00000000  0.00000000  0.00000000  1
  Cu  Cu1  1  0.50000000  0.50000000  0.00000000  1
  Cu  Cu2  1  0.00000000  0.50000000  0.37132167  1
  Cu  Cu3  1  0.50000000  0.00000000  0.62867833  1
  Sb  Sb0  1  0.00000000  0.00000000  0.50000000  1
  Sb  Sb1  1  0.50000000  0.50000000  0.50000000  1
  Sb  Sb2  1  -0.00000000  0.50000000  0.12492214  1
  Sb  Sb3  1  0.50000000  -0.00000000  0.87507786  1
loop_
_geom_bond_atom_site_label_1
_geom_bond_atom_site_label_2
_geom_bond_distance
_geom_bond_site_symmetry_2
Ba0 Cu0 3.478017 1_566
Ba0 Cu1 3.478017 1_456
Ba0 Cu0 3.478017 1_556
Ba0 Cu1 3.478017 1_556
Ba0 Sb3 3.534353 1_455
Ba0 Sb3 3.534353 1_555
Ba0 Sb3 3.534353 1_565
Ba0 Sb3 3.534353 1_465
Ba0 Cu3 3.612956 1_565
Ba0 Cu3 3.612956 1_465
Ba0 Cu3 3.612956 1_555
Ba0 Cu3 3.612956 1_455
Ba0 Sb0 3.668080 1_565
Ba0 Sb1 3.668080 1_555
Ba0 Sb0 3.668080 1_555
Ba0 Sb1 3.668080 1_455
Ba1 Cu1 3.478017 1_545
Ba1 Cu0 3.478017 1_555
Ba1 Cu1 3.478017 1_555
Ba1 Cu0 3.478017 1_655
Ba1 Sb2 3.534353 1_555
Ba1 Sb2 3.534353 1_645
Ba1 Sb2 3.534353 1_545
Ba1 Sb2 3.534353 1_655
Ba1 Cu2 3.612956 1_645
Ba1 Cu2 3.612956 1_555
Ba1 Cu2 3.612956 1_655
Ba1 Cu2 3.612956 1_545
Ba1 Sb1 3.668080 1_545
Ba1 Sb0 3.668080 1_655
Ba1 Sb1 3.668080 1_555
Ba1 Sb0 3.668080 1_555
Cu0 Sb2 2.704066 1_555
Cu0 Sb2 2.704066 1_545
Cu0 Sb3 2.704066 1_554
Cu0 Sb3 2.704066 1_454
Cu1 Sb2 2.704066 1_555
Cu1 Sb2 2.704066 1_655
Cu1 Sb3 2.704066 1_554
Cu1 Sb3 2.704066 1_564
Cu2 Sb2 2.655778 1_555
Cu2 Sb0 2.724452 1_555
Cu2 Sb0 2.724452 1_565
Cu2 Sb1 2.724452 1_555
Cu2 Sb1 2.724452 1_455
Cu3 Sb3 2.655778 1_555
Cu3 Sb1 2.724452 1_545
Cu3 Sb1 2.724452 1_555
Cu3 Sb0 2.724452 1_655
Cu3 Sb0 2.724452 1_555
