# generated using pymatgen
data_Ba2MnNbO6
_symmetry_space_group_name_H-M   'P 1'
_cell_length_a   8.16860500
_cell_length_b   10.11407168
_cell_length_c   8.24862200
_cell_angle_alpha   65.93491180
_cell_angle_beta   89.99961606
_cell_angle_gamma   66.18285122
_symmetry_Int_Tables_number   1
_chemical_formula_structural   Ba2MnNbO6
_chemical_formula_sum   'Ba8 Mn4 Nb4 O24'
_cell_volume   558.08983621
_cell_formula_units_Z   4
loop_
 _symmetry_equiv_pos_site_id
 _symmetry_equiv_pos_as_xyz
  1  'x, y, z'
loop_
 _atom_site_type_symbol
 _atom_site_label
 _atom_site_symmetry_multiplicity
 _atom_site_fract_x
 _atom_site_fract_y
 _atom_site_fract_z
 _atom_site_occupancy
  Ba  Ba0  1  0.25000500  0.50002100  0.74949100  1
  Ba  Ba1  1  0.50080400  0.00001800  0.49999800  1
  Ba  Ba2  1  0.75002800  0.49999600  0.25052900  1
  Ba  Ba3  1  0.99917600  0.99999600  0.00000200  1
  Ba  Ba4  1  0.75000300  0.50002800  0.74947300  1
  Ba  Ba5  1  0.99918600  0.00002700  0.50002500  1
  Ba  Ba6  1  0.24997100  0.49999600  0.25051500  1
  Ba  Ba7  1  0.50084200  0.99999600  0.99999500  1
  Mn  Mn0  1  0.12533400  0.24953600  0.12500300  1
  Mn  Mn1  1  0.37499700  0.75013300  0.87524300  1
  Mn  Mn2  1  0.87496200  0.74989000  0.37504700  1
  Mn  Mn3  1  0.62490800  0.25010200  0.62497700  1
  Nb  Nb0  1  0.37593700  0.74811600  0.37599100  1
  Nb  Nb1  1  0.62584000  0.24832600  0.12580200  1
  Nb  Nb2  1  0.87419300  0.75164200  0.87425000  1
  Nb  Nb3  1  0.12405200  0.25185800  0.62396300  1
  O  O0  1  0.50504700  0.48993500  0.50508700  1
  O  O1  1  0.75528300  0.98949000  0.25528500  1
  O  O2  1  0.99148300  0.51704600  0.99146000  1
  O  O3  1  0.24134300  0.01734700  0.74131800  1
  O  O4  1  0.25862700  0.98272000  0.25866600  1
  O  O5  1  0.50853300  0.48299600  0.00847500  1
  O  O6  1  0.74467100  0.01051200  0.74468000  1
  O  O7  1  0.99487500  0.51010900  0.49490100  1
  O  O8  1  0.62264300  0.74312100  0.37849200  1
  O  O9  1  0.88208200  0.24463400  0.12766800  1
  O  O10  1  0.12672200  0.75535900  0.87232300  1
  O  O11  1  0.36573100  0.25698300  0.62148200  1
  O  O12  1  0.13419400  0.74308600  0.37849800  1
  O  O13  1  0.37327200  0.24465800  0.12763800  1
  O  O14  1  0.61794700  0.75533400  0.87231600  1
  O  O15  1  0.87731400  0.25689500  0.62151400  1
  O  O16  1  0.37778400  0.74452300  0.12627200  1
  O  O17  1  0.62861700  0.24282100  0.88786500  1
  O  O18  1  0.87140700  0.75718700  0.63068500  1
  O  O19  1  0.12225500  0.25546500  0.37076000  1
  O  O20  1  0.37777100  0.74451800  0.62923600  1
  O  O21  1  0.62858700  0.24283600  0.36927000  1
  O  O22  1  0.87135500  0.75724300  0.11209400  1
  O  O23  1  0.12222300  0.25550100  0.87371000  1
loop_
_geom_bond_atom_site_label_1
_geom_bond_atom_site_label_2
_geom_bond_distance
_geom_bond_site_symmetry_2
Ba0 O20 2.876131 1_555
Ba0 O23 2.876423 1_555
Ba0 O12 2.879163 1_555
Ba0 O11 2.879387 1_555
Ba0 O0 2.900166 1_555
Ba0 O7 2.901267 1_455
Ba0 O5 2.908503 1_556
Ba0 O2 2.908506 1_455
Ba0 O18 2.952040 1_455
Ba0 O17 2.952228 1_555
Ba0 O13 2.956925 1_556
Ba0 O10 2.956950 1_555
Ba1 O21 2.862558 1_555
Ba1 O18 2.862623 1_545
Ba1 O14 2.891521 1_545
Ba1 O13 2.891644 1_555
Ba1 O6 2.898025 1_555
Ba1 O1 2.898876 1_545
Ba1 O3 2.910241 1_555
Ba1 O4 2.910395 1_545
Ba1 O19 2.945307 1_555
Ba1 O20 2.945353 1_545
Ba1 O8 2.963336 1_545
Ba1 O11 2.963807 1_555
Ba2 O19 2.876049 1_655
Ba2 O16 2.876134 1_555
Ba2 O15 2.879221 1_555
Ba2 O8 2.879880 1_555
Ba2 O7 2.899533 1_555
Ba2 O0 2.900703 1_555
Ba2 O2 2.908713 1_554
Ba2 O5 2.908856 1_555
Ba2 O21 2.952027 1_555
Ba2 O22 2.952142 1_555
Ba2 O14 2.957230 1_554
Ba2 O9 2.957328 1_555
Ba3 O22 2.862204 1_555
Ba3 O17 2.862349 1_564
Ba3 O9 2.891282 1_565
Ba3 O10 2.891350 1_654
Ba3 O1 2.898786 1_555
Ba3 O6 2.899588 1_564
Ba3 O4 2.910578 1_655
Ba3 O3 2.910654 1_664
Ba3 O23 2.945476 1_664
Ba3 O16 2.945721 1_655
Ba3 O15 2.963856 1_564
Ba3 O12 2.963933 1_655
Ba4 O20 2.875957 1_555
Ba4 O23 2.875994 1_655
Ba4 O8 2.879185 1_555
Ba4 O15 2.879916 1_555
Ba4 O0 2.900121 1_555
Ba4 O7 2.900162 1_555
Ba4 O5 2.908401 1_556
Ba4 O2 2.908488 1_555
Ba4 O18 2.951798 1_555
Ba4 O17 2.952118 1_555
Ba4 O14 2.956734 1_555
Ba4 O9 2.957294 1_556
Ba5 O21 2.862553 1_555
Ba5 O18 2.862709 1_545
Ba5 O10 2.891359 1_645
Ba5 O9 2.891530 1_555
Ba5 O6 2.898729 1_555
Ba5 O1 2.898832 1_545
Ba5 O3 2.910188 1_655
Ba5 O4 2.910343 1_645
Ba5 O19 2.945015 1_655
Ba5 O20 2.945702 1_645
Ba5 O15 2.962976 1_555
Ba5 O12 2.963834 1_645
Ba6 O19 2.876139 1_555
Ba6 O16 2.876665 1_555
Ba6 O11 2.878865 1_555
Ba6 O12 2.879684 1_555
Ba6 O7 2.900379 1_455
Ba6 O0 2.901001 1_555
Ba6 O2 2.908555 1_454
Ba6 O5 2.909140 1_555
Ba6 O21 2.952134 1_555
Ba6 O22 2.952404 1_455
Ba6 O10 2.957186 1_554
Ba6 O13 2.957208 1_555
Ba7 O22 2.861873 1_556
Ba7 O17 2.862564 1_565
Ba7 O13 2.891358 1_566
Ba7 O14 2.891568 1_555
Ba7 O6 2.898609 1_565
Ba7 O1 2.899089 1_556
Ba7 O3 2.910526 1_565
Ba7 O4 2.910827 1_556
Ba7 O16 2.945257 1_556
Ba7 O23 2.945883 1_565
Ba7 O8 2.963841 1_556
Ba7 O11 2.964276 1_565
Mn0 O13 2.005792 1_555
Mn0 O9 2.007462 1_455
Mn0 O23 2.048816 1_554
Mn0 O19 2.052197 1_555
Mn0 O4 2.209973 1_545
Mn0 O2 2.215721 1_454
Mn1 O14 2.006269 1_555
Mn1 O10 2.007185 1_555
Mn1 O16 2.048034 1_556
Mn1 O20 2.052903 1_555
Mn1 O5 2.212632 1_556
Mn1 O3 2.213270 1_565
Mn2 O1 1.984548 1_555
Mn2 O7 1.986047 1_555
Mn2 O8 2.089493 1_555
Mn2 O12 2.090535 1_655
Mn2 O22 2.139542 1_555
Mn2 O18 2.139610 1_555
Mn3 O6 1.984465 1_555
Mn3 O0 1.986478 1_555
Mn3 O11 2.089788 1_555
Mn3 O15 2.090307 1_555
Mn3 O17 2.139285 1_555
Mn3 O21 2.140043 1_555
Nb0 O4 1.943167 1_555
Nb0 O8 1.995272 1_555
Nb0 O12 1.995682 1_555
Nb0 O20 2.074297 1_555
Nb0 O16 2.074869 1_555
Nb0 O0 2.138450 1_555
Nb1 O5 1.943714 1_555
Nb1 O17 1.985880 1_554
Nb1 O21 1.986154 1_555
Nb1 O9 2.078286 1_555
Nb1 O13 2.078331 1_555
Nb1 O1 2.143875 1_545
Nb2 O2 1.943101 1_555
Nb2 O22 1.985527 1_556
Nb2 O18 1.986738 1_555
Nb2 O10 2.078219 1_655
Nb2 O14 2.078319 1_555
Nb2 O6 2.144157 1_565
Nb3 O3 1.942397 1_555
Nb3 O15 1.995369 1_455
Nb3 O11 1.995564 1_555
Nb3 O19 2.073915 1_555
Nb3 O23 2.075313 1_555
Nb3 O7 2.139030 1_455
