# generated using pymatgen
data_Gd3Bi(Ru2O7)2
_symmetry_space_group_name_H-M   'P 1'
_cell_length_a   7.31501351
_cell_length_b   7.31501351
_cell_length_c   7.31501304
_cell_angle_alpha   59.82302055
_cell_angle_beta   59.82302055
_cell_angle_gamma   59.82301314
_symmetry_Int_Tables_number   1
_chemical_formula_structural   Gd3Bi(Ru2O7)2
_chemical_formula_sum   'Gd3 Bi1 Ru4 O14'
_cell_volume   275.66540605
_cell_formula_units_Z   1
loop_
 _symmetry_equiv_pos_site_id
 _symmetry_equiv_pos_as_xyz
  1  'x, y, z'
loop_
 _atom_site_type_symbol
 _atom_site_label
 _atom_site_symmetry_multiplicity
 _atom_site_fract_x
 _atom_site_fract_y
 _atom_site_fract_z
 _atom_site_occupancy
  Gd  Gd0  1  0.50000000  0.00000000  0.50000000  1
  Gd  Gd1  1  0.00000000  0.50000000  0.50000000  1
  Gd  Gd2  1  0.50000000  0.50000000  0.00000000  1
  Bi  Bi0  1  0.50000000  0.50000000  0.50000000  1
  Ru  Ru0  1  0.00000000  0.00000000  0.00000000  1
  Ru  Ru1  1  0.00000000  0.50000000  0.00000000  1
  Ru  Ru2  1  0.50000000  0.00000000  0.00000000  1
  Ru  Ru3  1  0.00000000  0.00000000  0.50000000  1
  O  O0  1  0.91876500  0.91876500  0.33118200  1
  O  O1  1  0.33118200  0.91876500  0.91876500  1
  O  O2  1  0.91876500  0.33118200  0.91876500  1
  O  O3  1  0.32999700  0.32999700  0.91978200  1
  O  O4  1  0.91978200  0.32999700  0.32999700  1
  O  O5  1  0.32999700  0.91978200  0.32999700  1
  O  O6  1  0.08123500  0.08123500  0.66881800  1
  O  O7  1  0.66881800  0.08123500  0.08123500  1
  O  O8  1  0.08123500  0.66881800  0.08123500  1
  O  O9  1  0.67000300  0.67000300  0.08021800  1
  O  O10  1  0.08021800  0.67000300  0.67000300  1
  O  O11  1  0.67000300  0.08021800  0.67000300  1
  O  O12  1  0.62671800  0.62671800  0.62671800  1
  O  O13  1  0.37328200  0.37328200  0.37328200  1
loop_
_geom_bond_atom_site_label_1
_geom_bond_atom_site_label_2
_geom_bond_distance
_geom_bond_site_symmetry_2
Gd0 O13 2.224640 1_555
Gd0 O12 2.224640 1_545
Gd0 O1 2.523169 1_545
Gd0 O7 2.523169 1_555
Gd0 O0 2.523169 1_545
Gd0 O6 2.523169 1_555
Gd0 O5 2.541510 1_545
Gd0 O11 2.541510 1_555
Gd1 O13 2.224640 1_555
Gd1 O12 2.224640 1_455
Gd1 O2 2.523169 1_455
Gd1 O8 2.523169 1_555
Gd1 O0 2.523169 1_455
Gd1 O6 2.523169 1_555
Gd1 O4 2.541510 1_455
Gd1 O10 2.541510 1_555
Gd2 O12 2.224640 1_554
Gd2 O13 2.224640 1_555
Gd2 O1 2.523169 1_554
Gd2 O2 2.523169 1_554
Gd2 O7 2.523169 1_555
Gd2 O8 2.523169 1_555
Gd2 O9 2.541511 1_555
Gd2 O3 2.541511 1_554
Bi0 O13 2.273572 1_555
Bi0 O12 2.273572 1_555
Bi0 O4 2.529590 1_555
Bi0 O5 2.529590 1_555
Bi0 O10 2.529590 1_555
Bi0 O11 2.529590 1_555
Bi0 O3 2.529590 1_555
Bi0 O9 2.529590 1_555
O0 Ru0 2.008892 1_665
O0 Ru3 2.015371 1_665
O1 Ru0 2.008892 1_566
O1 Ru2 2.015371 1_566
O2 Ru0 2.008892 1_656
O2 Ru1 2.015371 1_656
O3 Ru1 2.002372 1_556
O3 Ru2 2.002372 1_556
O4 Ru3 2.002372 1_655
O4 Ru1 2.002372 1_655
O5 Ru3 2.002372 1_565
O5 Ru2 2.002372 1_565
O6 Ru0 2.008892 1_556
O6 Ru3 2.015371 1_555
O7 Ru0 2.008892 1_655
O7 Ru2 2.015371 1_555
O8 Ru0 2.008892 1_565
O8 Ru1 2.015371 1_555
O9 Ru1 2.002372 1_655
O9 Ru2 2.002372 1_565
O10 Ru3 2.002372 1_565
O10 Ru1 2.002372 1_556
O11 Ru3 2.002372 1_655
O11 Ru2 2.002372 1_556
