# generated using pymatgen
data_K2IrN2
_symmetry_space_group_name_H-M   'P 1'
_cell_length_a   3.37984800
_cell_length_b   4.69519400
_cell_length_c   7.38448396
_cell_angle_alpha   108.53654237
_cell_angle_beta   103.22926308
_cell_angle_gamma   90.00000000
_symmetry_Int_Tables_number   1
_chemical_formula_structural   K2IrN2
_chemical_formula_sum   'K2 Ir1 N2'
_cell_volume   107.82023845
_cell_formula_units_Z   1
loop_
 _symmetry_equiv_pos_site_id
 _symmetry_equiv_pos_as_xyz
  1  'x, y, z'
loop_
 _atom_site_type_symbol
 _atom_site_label
 _atom_site_symmetry_multiplicity
 _atom_site_fract_x
 _atom_site_fract_y
 _atom_site_fract_z
 _atom_site_occupancy
  K  K0  1  0.84744800  0.84744800  0.19489600  1
  K  K1  1  0.15255200  0.15255200  0.80510400  1
  Ir  Ir0  1  0.50000000  0.50000000  0.50000000  1
  N  N0  1  0.36824100  0.36824100  0.23648400  1
  N  N1  1  0.63175900  0.63175900  0.76351600  1
loop_
_geom_bond_atom_site_label_1
_geom_bond_atom_site_label_2
_geom_bond_distance
_geom_bond_site_symmetry_2
K0 N0 2.906349 1_665
K0 N0 2.906353 1_565
K0 N0 2.906356 1_655
K0 N0 2.906360 1_555
K0 N1 2.930958 1_554
K1 N1 2.906349 1_445
K1 N1 2.906353 1_545
K1 N1 2.906356 1_455
K1 N1 2.906360 1_555
K1 N0 2.930958 1_556
Ir0 N0 1.790427 1_555
Ir0 N1 1.790427 1_555
