# generated using pymatgen
data_CaLaCrBiO6
_symmetry_space_group_name_H-M   'P 1'
_cell_length_a   5.88113800
_cell_length_b   5.68434500
_cell_length_c   9.90099071
_cell_angle_alpha   55.85029375
_cell_angle_beta   90.00000000
_cell_angle_gamma   90.00000000
_symmetry_Int_Tables_number   1
_chemical_formula_structural   CaLaCrBiO6
_chemical_formula_sum   'Ca2 La2 Cr2 Bi2 O12'
_cell_volume   273.92212054
_cell_formula_units_Z   2
loop_
 _symmetry_equiv_pos_site_id
 _symmetry_equiv_pos_as_xyz
  1  'x, y, z'
loop_
 _atom_site_type_symbol
 _atom_site_label
 _atom_site_symmetry_multiplicity
 _atom_site_fract_x
 _atom_site_fract_y
 _atom_site_fract_z
 _atom_site_occupancy
  Ca  Ca0  1  0.80659800  0.22882200  0.25259800  1
  Ca  Ca1  1  0.19340200  0.22882200  0.75259800  1
  La  La0  1  0.30595000  0.76801400  0.24909500  1
  La  La1  1  0.69405000  0.76801400  0.74909500  1
  Cr  Cr0  1  0.24905800  0.00051800  0.50044000  1
  Cr  Cr1  1  0.75094200  0.00051800  0.00044000  1
  Bi  Bi0  1  0.24675900  0.50108200  0.99881000  1
  Bi  Bi1  1  0.75324100  0.50108200  0.49881000  1
  O  O0  1  0.79919400  0.34783400  0.76675900  1
  O  O1  1  0.03640300  0.11682900  0.06383700  1
  O  O2  1  0.06185800  0.77713300  0.43842000  1
  O  O3  1  0.56329200  0.22573600  0.06111000  1
  O  O4  1  0.53614100  0.88443700  0.43597100  1
  O  O5  1  0.29429000  0.64959000  0.73296000  1
  O  O6  1  0.20080600  0.34783400  0.26675900  1
  O  O7  1  0.96359700  0.11682900  0.56383700  1
  O  O8  1  0.93814200  0.77713300  0.93842000  1
  O  O9  1  0.43670800  0.22573600  0.56111000  1
  O  O10  1  0.46385900  0.88443700  0.93597100  1
  O  O11  1  0.70571000  0.64959000  0.23296000  1
loop_
_geom_bond_atom_site_label_1
_geom_bond_atom_site_label_2
_geom_bond_distance
_geom_bond_site_symmetry_2
Ca0 O11 2.363979 1_555
Ca0 O4 2.380796 1_545
Ca0 O3 2.383209 1_555
Ca0 O6 2.441055 1_655
Ca0 O2 2.631999 1_645
Ca0 O1 2.657159 1_655
Ca0 O7 2.924282 1_555
Ca0 O8 3.017300 1_554
Ca1 O5 2.363979 1_555
Ca1 O10 2.380796 1_545
Ca1 O9 2.383209 1_555
Ca1 O0 2.441055 1_455
Ca1 O8 2.631999 1_445
Ca1 O7 2.657159 1_455
Ca1 O1 2.924282 1_556
Ca1 O2 3.017300 1_555
La0 O6 2.376693 1_555
La0 O2 2.384600 1_555
La0 O1 2.392835 1_565
La0 O11 2.475240 1_555
La0 O4 2.658739 1_555
La0 O3 2.662231 1_565
La0 O10 2.934011 1_554
La0 O9 2.990899 1_555
La1 O0 2.376693 1_555
La1 O8 2.384600 1_555
La1 O7 2.392835 1_565
La1 O5 2.475240 1_555
La1 O10 2.658739 1_555
La1 O9 2.662231 1_565
La1 O4 2.934011 1_555
La1 O3 2.990899 1_556
Cr0 O2 2.019148 1_545
Cr0 O9 2.020173 1_555
Cr0 O7 2.028678 1_455
Cr0 O4 2.041154 1_545
Cr0 O5 2.047944 1_545
Cr0 O6 2.050121 1_555
Cr1 O8 2.019148 1_544
Cr1 O3 2.020173 1_555
Cr1 O1 2.028678 1_655
Cr1 O10 2.041154 1_544
Cr1 O11 2.047944 1_545
Cr1 O0 2.050121 1_554
Bi0 O8 2.249605 1_455
Bi0 O1 2.266499 1_556
Bi0 O3 2.282927 1_556
Bi0 O5 2.285705 1_555
Bi0 O10 2.289917 1_555
Bi0 O6 2.296835 1_556
Bi1 O2 2.249605 1_655
Bi1 O7 2.266499 1_555
Bi1 O9 2.282927 1_555
Bi1 O11 2.285705 1_555
Bi1 O4 2.289917 1_555
Bi1 O0 2.296835 1_555
