# generated using pymatgen
data_MgSi
_symmetry_space_group_name_H-M   'P 1'
_cell_length_a   5.33127300
_cell_length_b   6.22879672
_cell_length_c   14.28634748
_cell_angle_alpha   100.81517776
_cell_angle_beta   88.55474164
_cell_angle_gamma   103.49596333
_symmetry_Int_Tables_number   1
_chemical_formula_structural   MgSi
_chemical_formula_sum   'Mg12 Si12'
_cell_volume   453.03275065
_cell_formula_units_Z   12
loop_
 _symmetry_equiv_pos_site_id
 _symmetry_equiv_pos_as_xyz
  1  'x, y, z'
loop_
 _atom_site_type_symbol
 _atom_site_label
 _atom_site_symmetry_multiplicity
 _atom_site_fract_x
 _atom_site_fract_y
 _atom_site_fract_z
 _atom_site_occupancy
  Mg  Mg0  1  0.12693000  0.60139000  0.26384200  1
  Mg  Mg1  1  0.36631000  0.69327400  0.58026200  1
  Mg  Mg2  1  0.71110900  0.66885600  0.94389200  1
  Mg  Mg3  1  0.06970600  0.09884600  0.26922700  1
  Mg  Mg4  1  0.34882700  0.21630300  0.61900800  1
  Mg  Mg5  1  0.76559300  0.17191400  0.92263900  1
  Mg  Mg6  1  0.63369000  0.30672600  0.41973800  1
  Mg  Mg7  1  0.93029400  0.90115400  0.73077300  1
  Mg  Mg8  1  0.23440700  0.82808600  0.07736100  1
  Mg  Mg9  1  0.65117300  0.78369700  0.38099200  1
  Mg  Mg10  1  0.87307000  0.39861000  0.73615800  1
  Mg  Mg11  1  0.28889100  0.33114400  0.05610800  1
  Si  Si0  1  0.54421300  0.99588400  0.23607700  1
  Si  Si1  1  0.81804400  0.10719700  0.56618000  1
  Si  Si2  1  0.19337700  0.96825700  0.90425400  1
  Si  Si3  1  0.55054200  0.40209800  0.23780900  1
  Si  Si4  1  0.87468500  0.71086600  0.54275600  1
  Si  Si5  1  0.18508300  0.54519700  0.90069400  1
  Si  Si6  1  0.12531500  0.28913400  0.45724400  1
  Si  Si7  1  0.45578700  0.00411600  0.76392300  1
  Si  Si8  1  0.81491700  0.45480300  0.09930600  1
  Si  Si9  1  0.18195600  0.89280300  0.43382000  1
  Si  Si10  1  0.44945800  0.59790200  0.76219100  1
  Si  Si11  1  0.80662300  0.03174300  0.09574600  1
loop_
_geom_bond_atom_site_label_1
_geom_bond_atom_site_label_2
_geom_bond_distance
_geom_bond_site_symmetry_2
Mg0 Si9 2.722314 1_555
Mg0 Si8 2.794450 1_455
Mg0 Si3 2.805796 1_555
Mg0 Si0 2.985654 1_555
Mg0 Si3 3.037404 1_455
Mg1 Si4 2.719488 1_455
Mg1 Si4 2.730371 1_555
Mg1 Si6 2.832014 1_555
Mg1 Si10 2.839929 1_555
Mg1 Si9 2.921852 1_555
Mg1 Si7 2.930256 1_565
Mg1 Si1 3.124074 1_565
Mg2 Si5 2.781983 1_555
Mg2 Si11 2.784450 1_566
Mg2 Si5 2.830316 1_655
Mg2 Si10 2.888586 1_555
Mg2 Si2 2.914443 1_655
Mg2 Si8 2.920792 1_556
Mg3 Si6 2.718293 1_555
Mg3 Si0 2.756552 1_445
Mg3 Si0 2.760063 1_545
Mg3 Si11 2.792378 1_455
Mg3 Si3 2.888047 1_555
Mg3 Si9 3.016037 1_545
Mg4 Si6 2.784095 1_555
Mg4 Si10 2.785195 1_555
Mg4 Si1 2.791927 1_555
Mg4 Si7 2.792193 1_555
Mg4 Si1 2.838410 1_455
Mg4 Si9 3.022022 1_545
Mg5 Si7 2.730493 1_555
Mg5 Si8 2.773519 1_556
Mg5 Si11 2.802313 1_556
Mg5 Si2 2.841577 1_645
Mg5 Si5 2.883934 1_655
Mg5 Si2 3.015575 1_545
Mg6 Si6 2.719488 1_655
Mg6 Si6 2.730371 1_555
Mg6 Si4 2.832014 1_555
Mg6 Si3 2.839929 1_555
Mg6 Si1 2.921852 1_555
Mg6 Si0 2.930256 1_545
Mg6 Si9 3.124074 1_545
Mg7 Si4 2.718293 1_555
Mg7 Si7 2.756552 1_665
Mg7 Si7 2.760063 1_565
Mg7 Si2 2.792378 1_655
Mg7 Si10 2.888047 1_555
Mg7 Si1 3.016037 1_565
Mg8 Si0 2.730493 1_555
Mg8 Si5 2.773519 1_554
Mg8 Si2 2.802313 1_554
Mg8 Si11 2.841577 1_465
Mg8 Si8 2.883934 1_455
Mg8 Si11 3.015575 1_565
Mg9 Si4 2.784095 1_555
Mg9 Si3 2.785195 1_555
Mg9 Si9 2.791927 1_555
Mg9 Si0 2.792193 1_555
Mg9 Si9 2.838410 1_655
Mg9 Si1 3.022022 1_565
Mg10 Si1 2.722314 1_555
Mg10 Si5 2.794450 1_655
Mg10 Si10 2.805796 1_555
Mg10 Si7 2.985654 1_555
Mg10 Si10 3.037404 1_655
Mg11 Si8 2.781983 1_555
Mg11 Si2 2.784450 1_544
Mg11 Si8 2.830316 1_455
Mg11 Si3 2.888586 1_555
Mg11 Si11 2.914443 1_455
Mg11 Si5 2.920792 1_554
Si0 Si11 2.430442 1_565
Si0 Si3 2.518032 1_565
Si1 Si6 2.461019 1_655
Si1 Si4 2.516008 1_545
Si2 Si7 2.430442 1_565
Si2 Si5 2.616107 1_555
Si3 Si8 2.428317 1_555
Si4 Si9 2.461019 1_655
Si6 Si9 2.516008 1_545
Si10 Si5 2.428317 1_555
Si10 Si7 2.518032 1_565
Si11 Si8 2.616107 1_555
