# generated using pymatgen
data_CeB8ClO20
_symmetry_space_group_name_H-M   'P 1'
_cell_length_a   8.36189300
_cell_length_b   18.59299600
_cell_length_c   13.01618562
_cell_angle_alpha   90.00000000
_cell_angle_beta   129.96879438
_cell_angle_gamma   90.00000000
_symmetry_Int_Tables_number   1
_chemical_formula_structural   CeB8ClO20
_chemical_formula_sum   'Ce4 B32 Cl4 O80'
_cell_volume   1550.92232638
_cell_formula_units_Z   4
loop_
 _symmetry_equiv_pos_site_id
 _symmetry_equiv_pos_as_xyz
  1  'x, y, z'
loop_
 _atom_site_type_symbol
 _atom_site_label
 _atom_site_symmetry_multiplicity
 _atom_site_fract_x
 _atom_site_fract_y
 _atom_site_fract_z
 _atom_site_occupancy
  Ce  Ce0  1  0.50211200  0.70231400  0.65982000  1
  Ce  Ce1  1  0.50211200  0.79768600  0.15982000  1
  Ce  Ce2  1  0.49788800  0.29768600  0.34018000  1
  Ce  Ce3  1  0.49788800  0.20231400  0.84018000  1
  B  B0  1  0.60686200  0.75625200  0.92105400  1
  B  B1  1  0.60686200  0.74374800  0.42105400  1
  B  B2  1  0.39313800  0.24374800  0.07894600  1
  B  B3  1  0.39313800  0.25625200  0.57894600  1
  B  B4  1  0.07475700  0.75426700  0.38797700  1
  B  B5  1  0.07475700  0.74573300  0.88797700  1
  B  B6  1  0.92524300  0.24573300  0.61202300  1
  B  B7  1  0.92524300  0.25426700  0.11202300  1
  B  B8  1  0.34374600  0.52799000  0.53376200  1
  B  B9  1  0.34374600  0.97201000  0.03376200  1
  B  B10  1  0.65625400  0.47201000  0.46623800  1
  B  B11  1  0.65625400  0.02799000  0.96623800  1
  B  B12  1  0.67937600  0.51651300  0.75525000  1
  B  B13  1  0.67937600  0.98348700  0.25525000  1
  B  B14  1  0.32062400  0.48348700  0.24475000  1
  B  B15  1  0.32062400  0.01651300  0.74475000  1
  B  B16  1  0.96926400  0.78837800  0.52215700  1
  B  B17  1  0.96926400  0.71162200  0.02215700  1
  B  B18  1  0.03073600  0.21162200  0.47784300  1
  B  B19  1  0.03073600  0.28837800  0.97784300  1
  B  B20  1  0.88964000  0.70637000  0.65530700  1
  B  B21  1  0.88964000  0.79363000  0.15530700  1
  B  B22  1  0.11036000  0.29363000  0.34469300  1
  B  B23  1  0.11036000  0.20637000  0.84469300  1
  B  B24  1  0.23026000  0.71075000  0.28477600  1
  B  B25  1  0.23026000  0.78925000  0.78477600  1
  B  B26  1  0.76974000  0.28925000  0.71522400  1
  B  B27  1  0.76974000  0.21075000  0.21522400  1
  B  B28  1  0.13307000  0.59861700  0.15208400  1
  B  B29  1  0.13307000  0.90138300  0.65208400  1
  B  B30  1  0.86693000  0.40138300  0.84791600  1
  B  B31  1  0.86693000  0.09861700  0.34791600  1
  Cl  Cl0  1  0.62899100  0.88995600  0.64011300  1
  Cl  Cl1  1  0.62899100  0.61004400  0.14011300  1
  Cl  Cl2  1  0.37100900  0.11004400  0.35988700  1
  Cl  Cl3  1  0.37100900  0.38995600  0.85988700  1
  O  O0  1  0.97967400  0.63822600  0.66478400  1
  O  O1  1  0.97967400  0.86177400  0.16478400  1
  O  O2  1  0.02032600  0.36177400  0.33521600  1
  O  O3  1  0.02032600  0.13822600  0.83521600  1
  O  O4  1  0.02414600  0.75972100  0.65280100  1
  O  O5  1  0.02414600  0.74027900  0.15280100  1
  O  O6  1  0.97585400  0.24027900  0.34719900  1
  O  O7  1  0.97585400  0.25972100  0.84719900  1
  O  O8  1  0.74870000  0.72812300  0.91071600  1
  O  O9  1  0.74870000  0.77187700  0.41071600  1
  O  O10  1  0.25130000  0.27187700  0.08928400  1
  O  O11  1  0.25130000  0.22812300  0.58928400  1
  O  O12  1  0.23817500  0.73042800  0.39688500  1
  O  O13  1  0.23817500  0.76957200  0.89688500  1
  O  O14  1  0.76182500  0.26957200  0.60311500  1
  O  O15  1  0.76182500  0.23042800  0.10311500  1
  O  O16  1  0.66761300  0.71412500  0.53810600  1
  O  O17  1  0.66761300  0.78587500  0.03810600  1
  O  O18  1  0.33238700  0.28587500  0.46189400  1
  O  O19  1  0.33238700  0.21412500  0.96189400  1
  O  O20  1  0.89669100  0.71781300  0.76984500  1
  O  O21  1  0.89669100  0.78218700  0.26984500  1
  O  O22  1  0.10330900  0.28218700  0.23015500  1
  O  O23  1  0.10330900  0.21781300  0.73015500  1
  O  O24  1  0.40553700  0.75388400  0.80277600  1
  O  O25  1  0.40553700  0.74611600  0.30277600  1
  O  O26  1  0.59446300  0.24611600  0.19722400  1
  O  O27  1  0.59446300  0.25388400  0.69722400  1
  O  O28  1  0.10418700  0.74918100  0.50409200  1
  O  O29  1  0.10418700  0.75081900  0.00409200  1
  O  O30  1  0.89581300  0.25081900  0.49590800  1
  O  O31  1  0.89581300  0.24918100  0.99590800  1
  O  O32  1  0.52913100  0.82265200  0.65320900  1
  O  O33  1  0.52913100  0.67734800  0.15320900  1
  O  O34  1  0.47086900  0.17734800  0.34679100  1
  O  O35  1  0.47086900  0.32265200  0.84679100  1
  O  O36  1  0.68249700  0.59121000  0.77093200  1
  O  O37  1  0.68249700  0.90879000  0.27093200  1
  O  O38  1  0.31750300  0.40879000  0.22906800  1
  O  O39  1  0.31750300  0.09121000  0.72906800  1
  O  O40  1  0.36035000  0.61586900  0.70066700  1
  O  O41  1  0.36035000  0.88413100  0.20066700  1
  O  O42  1  0.63965000  0.38413100  0.29933300  1
  O  O43  1  0.63965000  0.11586900  0.79933300  1
  O  O44  1  0.50309500  0.48658100  0.63786800  1
  O  O45  1  0.50309500  0.01341900  0.13786800  1
  O  O46  1  0.49690500  0.51341900  0.36213200  1
  O  O47  1  0.49690500  0.98658100  0.86213200  1
  O  O48  1  0.36056300  0.60236500  0.53234400  1
  O  O49  1  0.36056300  0.89763500  0.03234400  1
  O  O50  1  0.63943700  0.39763500  0.46765600  1
  O  O51  1  0.63943700  0.10236500  0.96765600  1
  O  O52  1  0.00755800  0.86426200  0.53348900  1
  O  O53  1  0.00755800  0.63573800  0.03348900  1
  O  O54  1  0.99244200  0.13573800  0.46651100  1
  O  O55  1  0.99244200  0.36426200  0.96651100  1
  O  O56  1  0.23353800  0.63480300  0.27067200  1
  O  O57  1  0.23353800  0.86519700  0.77067200  1
  O  O58  1  0.76646200  0.36519700  0.72932800  1
  O  O59  1  0.76646200  0.13480300  0.22932800  1
  O  O60  1  0.84432500  0.47499900  0.85142500  1
  O  O61  1  0.84432500  0.02500100  0.35142500  1
  O  O62  1  0.15567500  0.52500100  0.14857500  1
  O  O63  1  0.15567500  0.97499900  0.64857500  1
  O  O64  1  0.16409000  0.49919000  0.42281300  1
  O  O65  1  0.16409000  0.00081000  0.92281300  1
  O  O66  1  0.83591000  0.50081000  0.57718700  1
  O  O67  1  0.83591000  0.99919000  0.07718700  1
  O  O68  1  0.51560400  0.95068400  0.63021300  1
  O  O69  1  0.51560400  0.54931600  0.13021300  1
  O  O70  1  0.48439600  0.04931600  0.36978700  1
  O  O71  1  0.48439600  0.45068400  0.86978700  1
  O  O72  1  0.60223000  0.87833700  0.52046500  1
  O  O73  1  0.60223000  0.62166300  0.02046500  1
  O  O74  1  0.39777000  0.12166300  0.47953500  1
  O  O75  1  0.39777000  0.37833700  0.97953500  1
  O  O76  1  0.84484000  0.88960400  0.75958100  1
  O  O77  1  0.84484000  0.61039600  0.25958100  1
  O  O78  1  0.15516000  0.11039600  0.24041900  1
  O  O79  1  0.15516000  0.38960400  0.74041900  1
loop_
_geom_bond_atom_site_label_1
_geom_bond_atom_site_label_2
_geom_bond_distance
_geom_bond_site_symmetry_2
Ce0 O40 2.254078 1_555
Ce0 O48 2.254863 1_555
Ce0 O32 2.256010 1_555
Ce0 O36 2.414855 1_555
Ce0 O8 2.548661 1_555
Ce0 O20 2.636214 1_555
Ce0 O24 2.639011 1_555
Ce0 O12 2.674510 1_555
Ce0 O28 2.697141 1_555
Ce0 O16 2.699998 1_555
Ce1 O41 2.254078 1_555
Ce1 O49 2.254863 1_555
Ce1 O33 2.256010 1_555
Ce1 O37 2.414855 1_555
Ce1 O9 2.548661 1_555
Ce1 O21 2.636214 1_555
Ce1 O25 2.639011 1_555
Ce1 O13 2.674510 1_554
Ce1 O29 2.697141 1_555
Ce1 O17 2.699998 1_555
Ce2 O42 2.254078 1_555
Ce2 O50 2.254863 1_555
Ce2 O34 2.256010 1_555
Ce2 O38 2.414855 1_555
Ce2 O10 2.548661 1_555
Ce2 O22 2.636214 1_555
Ce2 O26 2.639011 1_555
Ce2 O14 2.674510 1_555
Ce2 O30 2.697141 1_555
Ce2 O18 2.699998 1_555
Ce3 O43 2.254078 1_555
Ce3 O51 2.254863 1_555
Ce3 O35 2.256010 1_555
Ce3 O39 2.414855 1_555
Ce3 O11 2.548661 1_555
Ce3 O23 2.636214 1_555
Ce3 O27 2.639011 1_555
Ce3 O15 2.674510 1_556
Ce3 O31 2.697141 1_555
Ce3 O19 2.699998 1_555
B0 O24 1.369823 1_555
B0 O17 1.374169 1_556
B0 O8 1.379620 1_555
B1 O25 1.369823 1_555
B1 O16 1.374169 1_555
B1 O9 1.379620 1_555
B2 O26 1.369823 1_555
B2 O19 1.374169 1_554
B2 O10 1.379620 1_555
B3 O27 1.369823 1_555
B3 O18 1.374169 1_555
B3 O11 1.379620 1_555
B4 O12 1.368805 1_555
B4 O28 1.369641 1_555
B4 O21 1.381818 1_455
B5 O13 1.368805 1_555
B5 O29 1.369641 1_556
B5 O20 1.381818 1_455
B6 O14 1.368805 1_555
B6 O30 1.369641 1_555
B6 O23 1.381818 1_655
B7 O15 1.368805 1_555
B7 O31 1.369641 1_554
B7 O22 1.381818 1_655
B8 O64 1.357148 1_555
B8 O44 1.372855 1_555
B8 O48 1.391307 1_555
B9 O65 1.357148 1_564
B9 O45 1.372855 1_565
B9 O49 1.391307 1_555
B10 O66 1.357148 1_555
B10 O46 1.372855 1_555
B10 O50 1.391307 1_555
B11 O67 1.357148 1_546
B11 O47 1.372855 1_545
B11 O51 1.391307 1_555
B12 O60 1.359051 1_555
B12 O44 1.386896 1_555
B12 O36 1.401564 1_555
B13 O61 1.359051 1_565
B13 O45 1.386896 1_565
B13 O37 1.401564 1_555
B14 O62 1.359051 1_555
B14 O46 1.386896 1_555
B14 O38 1.401564 1_555
B15 O63 1.359051 1_545
B15 O47 1.386896 1_545
B15 O39 1.401564 1_555
B16 O52 1.433276 1_655
B16 O9 1.470618 1_555
B16 O28 1.483276 1_655
B16 O4 1.543880 1_655
B17 O53 1.433276 1_655
B17 O8 1.470618 1_554
B17 O29 1.483276 1_655
B17 O5 1.543880 1_655
B18 O54 1.433276 1_455
B18 O11 1.470618 1_555
B18 O30 1.483276 1_455
B18 O6 1.543880 1_455
B19 O55 1.433276 1_455
B19 O10 1.470618 1_556
B19 O31 1.483276 1_455
B19 O7 1.543880 1_455
B20 O0 1.438050 1_555
B20 O16 1.468385 1_555
B20 O20 1.469164 1_555
B20 O4 1.515644 1_655
B21 O1 1.438050 1_555
B21 O17 1.468385 1_555
B21 O21 1.469164 1_555
B21 O5 1.515644 1_655
B22 O2 1.438050 1_555
B22 O18 1.468385 1_555
B22 O22 1.469164 1_555
B22 O6 1.515644 1_455
B23 O3 1.438050 1_555
B23 O19 1.468385 1_555
B23 O23 1.469164 1_555
B23 O7 1.515644 1_455
B24 O56 1.426497 1_555
B24 O12 1.464077 1_555
B24 O25 1.481295 1_555
B24 O5 1.555347 1_555
B25 O57 1.426497 1_555
B25 O13 1.464077 1_555
B25 O24 1.481295 1_555
B25 O4 1.555347 1_555
B26 O58 1.426497 1_555
B26 O14 1.464077 1_555
B26 O27 1.481295 1_555
B26 O7 1.555347 1_555
B27 O59 1.426497 1_555
B27 O15 1.464077 1_555
B27 O26 1.481295 1_555
B27 O6 1.555347 1_555
B28 O56 1.369321 1_555
B28 O53 1.370883 1_555
B28 O62 1.386492 1_555
B29 O57 1.369321 1_555
B29 O52 1.370883 1_555
B29 O63 1.386492 1_555
B30 O58 1.369321 1_555
B30 O55 1.370883 1_555
B30 O60 1.386492 1_555
B31 O59 1.369321 1_555
B31 O54 1.370883 1_555
B31 O61 1.386492 1_555
Cl0 O68 1.426006 1_555
Cl0 O76 1.438742 1_555
Cl0 O72 1.440275 1_555
Cl0 O32 1.573257 1_555
Cl1 O69 1.426006 1_555
Cl1 O77 1.438742 1_555
Cl1 O73 1.440275 1_555
Cl1 O33 1.573257 1_555
Cl2 O70 1.426006 1_555
Cl2 O78 1.438742 1_555
Cl2 O74 1.440275 1_555
Cl2 O34 1.573257 1_555
Cl3 O71 1.426006 1_555
Cl3 O79 1.438742 1_555
Cl3 O75 1.440275 1_555
Cl3 O35 1.573257 1_555
