# generated using pymatgen
data_Ba2HoCl7
_symmetry_space_group_name_H-M   'P 1'
_cell_length_a   15.60858951
_cell_length_b   6.85095621
_cell_length_c   10.57869748
_cell_angle_alpha   89.41797408
_cell_angle_beta   90.00000000
_cell_angle_gamma   90.00000000
_symmetry_Int_Tables_number   1
_chemical_formula_structural   Ba2HoCl7
_chemical_formula_sum   'Ba8 Ho4 Cl28'
_cell_volume   1131.16156643
_cell_formula_units_Z   4
loop_
 _symmetry_equiv_pos_site_id
 _symmetry_equiv_pos_as_xyz
  1  'x, y, z'
loop_
 _atom_site_type_symbol
 _atom_site_label
 _atom_site_symmetry_multiplicity
 _atom_site_fract_x
 _atom_site_fract_y
 _atom_site_fract_z
 _atom_site_occupancy
  Ba  Ba0  1  0.27986707  0.23526853  0.54883857  1
  Ba  Ba1  1  0.72013293  0.76473147  0.45116143  1
  Ba  Ba2  1  0.77986707  0.76473147  0.95116143  1
  Ba  Ba3  1  0.22013293  0.23526853  0.04883857  1
  Ba  Ba4  1  0.43920415  0.76502519  0.82355384  1
  Ba  Ba5  1  0.56079585  0.23497481  0.17644616  1
  Ba  Ba6  1  0.93920415  0.23497481  0.67644616  1
  Ba  Ba7  1  0.06079585  0.76502519  0.32355384  1
  Ho  Ho0  1  0.12707851  0.71706349  0.78178166  1
  Ho  Ho1  1  0.87292149  0.28293651  0.21821834  1
  Ho  Ho2  1  0.62707851  0.28293651  0.71821834  1
  Ho  Ho3  1  0.37292149  0.71706349  0.28178166  1
  Cl  Cl0  1  0.07076117  0.37204308  0.87625202  1
  Cl  Cl1  1  0.92923883  0.62795692  0.12374798  1
  Cl  Cl2  1  0.57076117  0.62795692  0.62374798  1
  Cl  Cl3  1  0.42923883  0.37204308  0.37625202  1
  Cl  Cl4  1  0.10504519  0.98634704  0.58622865  1
  Cl  Cl5  1  0.89495481  0.01365296  0.41377135  1
  Cl  Cl6  1  0.60504519  0.01365296  0.91377135  1
  Cl  Cl7  1  0.39495481  0.98634704  0.08622865  1
  Cl  Cl8  1  0.96029074  0.79438336  0.78749468  1
  Cl  Cl9  1  0.03970926  0.20561664  0.21250532  1
  Cl  Cl10  1  0.46029074  0.20561664  0.71250532  1
  Cl  Cl11  1  0.53970926  0.79438336  0.28749468  1
  Cl  Cl12  1  0.36064704  0.79092591  0.52769915  1
  Cl  Cl13  1  0.63935296  0.20907409  0.47230085  1
  Cl  Cl14  1  0.86064704  0.20907409  0.97230085  1
  Cl  Cl15  1  0.13935296  0.79092591  0.02769915  1
  Cl  Cl16  1  0.25715865  0.98788467  0.80160427  1
  Cl  Cl17  1  0.74284135  0.01211533  0.19839573  1
  Cl  Cl18  1  0.75715865  0.01211533  0.69839573  1
  Cl  Cl19  1  0.24284135  0.98788467  0.30160427  1
  Cl  Cl20  1  0.27194881  0.50119287  0.79468999  1
  Cl  Cl21  1  0.72805119  0.49880713  0.20531001  1
  Cl  Cl22  1  0.77194881  0.49880713  0.70531001  1
  Cl  Cl23  1  0.22805119  0.50119287  0.29468999  1
  Cl  Cl24  1  0.10447312  0.49979152  0.57149933  1
  Cl  Cl25  1  0.89552688  0.50020848  0.42850067  1
  Cl  Cl26  1  0.60447312  0.50020848  0.92850067  1
  Cl  Cl27  1  0.39552688  0.49979152  0.07149933  1
loop_
_geom_bond_atom_site_label_1
_geom_bond_atom_site_label_2
_geom_bond_distance
_geom_bond_site_symmetry_2
Ba0 Cl3 3.100390 1_555
Ba0 Cl16 3.171100 1_545
Ba0 Cl19 3.183842 1_545
Ba0 Cl20 3.192917 1_555
Ba0 Cl4 3.239891 1_545
Ba0 Cl24 3.293210 1_555
Ba0 Cl12 3.304632 1_545
Ba0 Cl10 3.310975 1_555
Ba0 Cl23 3.331974 1_555
Ba1 Cl2 3.100390 1_555
Ba1 Cl17 3.171100 1_565
Ba1 Cl18 3.183842 1_565
Ba1 Cl21 3.192917 1_555
Ba1 Cl5 3.239891 1_565
Ba1 Cl25 3.293210 1_555
Ba1 Cl13 3.304632 1_565
Ba1 Cl11 3.310975 1_555
Ba1 Cl22 3.331974 1_555
Ba2 Cl1 3.100390 1_556
Ba2 Cl18 3.171100 1_565
Ba2 Cl17 3.183842 1_566
Ba2 Cl22 3.192917 1_555
Ba2 Cl6 3.239891 1_565
Ba2 Cl26 3.293210 1_555
Ba2 Cl14 3.304632 1_565
Ba2 Cl8 3.310975 1_555
Ba2 Cl21 3.331974 1_556
Ba3 Cl0 3.100390 1_554
Ba3 Cl19 3.171100 1_545
Ba3 Cl16 3.183842 1_544
Ba3 Cl23 3.192917 1_555
Ba3 Cl7 3.239891 1_545
Ba3 Cl27 3.293210 1_555
Ba3 Cl15 3.304632 1_545
Ba3 Cl9 3.310975 1_555
Ba3 Cl20 3.331974 1_554
Ba4 Cl2 3.099409 1_555
Ba4 Cl20 3.191685 1_555
Ba4 Cl16 3.232925 1_555
Ba4 Cl10 3.244611 1_565
Ba4 Cl6 3.247430 1_565
Ba4 Cl27 3.248018 1_556
Ba4 Cl7 3.253180 1_556
Ba4 Cl26 3.337295 1_555
Ba4 Cl12 3.364382 1_555
Ba5 Cl3 3.099409 1_555
Ba5 Cl21 3.191685 1_555
Ba5 Cl17 3.232925 1_555
Ba5 Cl11 3.244611 1_545
Ba5 Cl7 3.247430 1_545
Ba5 Cl26 3.248018 1_554
Ba5 Cl6 3.253180 1_554
Ba5 Cl27 3.337295 1_555
Ba5 Cl13 3.364382 1_555
Ba6 Cl0 3.099409 1_655
Ba6 Cl22 3.191685 1_555
Ba6 Cl18 3.232925 1_555
Ba6 Cl8 3.244611 1_545
Ba6 Cl4 3.247430 1_645
Ba6 Cl25 3.248018 1_555
Ba6 Cl5 3.253180 1_555
Ba6 Cl24 3.337295 1_655
Ba6 Cl14 3.364382 1_555
Ba7 Cl1 3.099409 1_455
Ba7 Cl23 3.191685 1_555
Ba7 Cl19 3.232925 1_555
Ba7 Cl9 3.244611 1_565
Ba7 Cl5 3.247430 1_465
Ba7 Cl24 3.248018 1_555
Ba7 Cl4 3.253180 1_555
Ba7 Cl25 3.337295 1_455
Ba7 Cl15 3.364382 1_555
Cl0 Ho0 2.703817 1_555
Cl1 Ho1 2.703817 1_555
Cl2 Ho2 2.703817 1_555
Cl3 Ho3 2.703817 1_555
Cl4 Ho0 2.779157 1_555
Cl5 Ho1 2.779157 1_555
Cl6 Ho2 2.779157 1_555
Cl7 Ho3 2.779157 1_555
Cl8 Ho0 2.657477 1_655
Cl9 Ho1 2.657477 1_455
Cl10 Ho2 2.657477 1_555
Cl11 Ho3 2.657477 1_555
Cl12 Ho3 2.662189 1_555
Cl13 Ho2 2.662189 1_555
Cl14 Ho1 2.662189 1_556
Cl15 Ho0 2.662189 1_554
Cl16 Ho0 2.759840 1_555
Cl17 Ho1 2.759840 1_555
Cl18 Ho2 2.759840 1_555
Cl19 Ho3 2.759840 1_555
Cl20 Ho0 2.704602 1_555
Cl21 Ho1 2.704602 1_555
Cl22 Ho2 2.704602 1_555
Cl23 Ho3 2.704602 1_555
Cl24 Ho0 2.712180 1_555
Cl25 Ho1 2.712180 1_555
Cl26 Ho2 2.712180 1_555
Cl27 Ho3 2.712180 1_555
