# generated using pymatgen
data_Ba
_symmetry_space_group_name_H-M   'P 1'
_cell_length_a   8.76791836
_cell_length_b   8.76791836
_cell_length_c   14.55626800
_cell_angle_alpha   90.00000000
_cell_angle_beta   90.00000000
_cell_angle_gamma   111.90960918
_symmetry_Int_Tables_number   1
_chemical_formula_structural   Ba
_chemical_formula_sum   Ba16
_cell_volume   1038.20971605
_cell_formula_units_Z   16
loop_
 _symmetry_equiv_pos_site_id
 _symmetry_equiv_pos_as_xyz
  1  'x, y, z'
loop_
 _atom_site_type_symbol
 _atom_site_label
 _atom_site_symmetry_multiplicity
 _atom_site_fract_x
 _atom_site_fract_y
 _atom_site_fract_z
 _atom_site_occupancy
  Ba  Ba0_0  1  0.12793500  0.12793500  0.12500000  1
  Ba  Ba0_1  1  0.12793500  0.12793500  0.62500000  1
  Ba  Ba0_2  1  0.12793500  0.62793500  0.12500000  1
  Ba  Ba0_3  1  0.12793500  0.62793500  0.62500000  1
  Ba  Ba0_4  1  0.62793500  0.12793500  0.12500000  1
  Ba  Ba0_5  1  0.62793500  0.12793500  0.62500000  1
  Ba  Ba0_6  1  0.62793500  0.62793500  0.12500000  1
  Ba  Ba0_7  1  0.62793500  0.62793500  0.62500000  1
  Ba  Ba1_0  1  0.37206500  0.37206500  0.37500000  1
  Ba  Ba1_1  1  0.37206500  0.37206500  0.87500000  1
  Ba  Ba1_2  1  0.37206500  0.87206500  0.37500000  1
  Ba  Ba1_3  1  0.37206500  0.87206500  0.87500000  1
  Ba  Ba1_4  1  0.87206500  0.37206500  0.37500000  1
  Ba  Ba1_5  1  0.87206500  0.37206500  0.87500000  1
  Ba  Ba1_6  1  0.87206500  0.87206500  0.37500000  1
  Ba  Ba1_7  1  0.87206500  0.87206500  0.87500000  1
loop_
_geom_bond_atom_site_label_1
_geom_bond_atom_site_label_2
_geom_bond_distance
_geom_bond_site_symmetry_2
Ba0_0 Ba1_1 4.357414 1_554
Ba0_0 Ba1_0 4.357414 1_555
Ba0_0 Ba0_4 4.383959 1_455
Ba0_0 Ba0_2 4.383959 1_545
Ba0_0 Ba0_2 4.383959 1_555
Ba0_0 Ba0_4 4.383959 1_555
Ba0_0 Ba1_6 4.421857 1_445
Ba0_0 Ba1_7 4.421857 1_444
Ba0_1 Ba1_1 4.357414 1_555
Ba0_1 Ba1_0 4.357414 1_555
Ba0_1 Ba0_3 4.383959 1_545
Ba0_1 Ba0_5 4.383959 1_455
Ba0_1 Ba0_5 4.383959 1_555
Ba0_1 Ba0_3 4.383959 1_555
Ba0_1 Ba1_7 4.421857 1_445
Ba0_1 Ba1_6 4.421857 1_445
Ba0_2 Ba1_2 4.357414 1_555
Ba0_2 Ba1_3 4.357414 1_554
Ba0_2 Ba0_6 4.383959 1_455
Ba0_2 Ba0_6 4.383959 1_555
Ba0_2 Ba1_4 4.421857 1_455
Ba0_2 Ba1_5 4.421857 1_454
Ba0_3 Ba1_3 4.357414 1_555
Ba0_3 Ba1_2 4.357414 1_555
Ba0_3 Ba0_7 4.383959 1_455
Ba0_3 Ba0_7 4.383959 1_555
Ba0_3 Ba1_5 4.421857 1_455
Ba0_3 Ba1_4 4.421857 1_455
Ba0_4 Ba1_4 4.357414 1_555
Ba0_4 Ba1_5 4.357414 1_554
Ba0_4 Ba0_6 4.383959 1_555
Ba0_4 Ba0_6 4.383959 1_545
Ba0_4 Ba1_2 4.421857 1_545
Ba0_4 Ba1_3 4.421857 1_544
Ba0_5 Ba1_5 4.357414 1_555
Ba0_5 Ba1_4 4.357414 1_555
Ba0_5 Ba0_7 4.383959 1_545
Ba0_5 Ba0_7 4.383959 1_555
Ba0_5 Ba1_3 4.421857 1_545
Ba0_5 Ba1_2 4.421857 1_545
Ba0_6 Ba1_7 4.357414 1_554
Ba0_6 Ba1_6 4.357414 1_555
Ba0_6 Ba1_0 4.421857 1_555
Ba0_6 Ba1_1 4.421857 1_554
Ba0_7 Ba1_7 4.357414 1_555
Ba0_7 Ba1_6 4.357414 1_555
Ba0_7 Ba1_1 4.421857 1_555
Ba0_7 Ba1_0 4.421857 1_555
Ba1_0 Ba1_2 4.383959 1_545
Ba1_0 Ba1_4 4.383959 1_455
Ba1_0 Ba1_4 4.383959 1_555
Ba1_0 Ba1_2 4.383959 1_555
Ba1_1 Ba1_5 4.383959 1_455
Ba1_1 Ba1_3 4.383959 1_545
Ba1_1 Ba1_5 4.383959 1_555
Ba1_1 Ba1_3 4.383959 1_555
Ba1_2 Ba1_6 4.383959 1_455
Ba1_2 Ba1_6 4.383959 1_555
Ba1_3 Ba1_7 4.383959 1_555
Ba1_3 Ba1_7 4.383959 1_455
Ba1_4 Ba1_6 4.383959 1_555
Ba1_4 Ba1_6 4.383959 1_545
Ba1_5 Ba1_7 4.383959 1_555
Ba1_5 Ba1_7 4.383959 1_545
