# generated using pymatgen
data_Na2LiB5(PO7)2
_symmetry_space_group_name_H-M   'P 1'
_cell_length_a   9.31674200
_cell_length_b   8.31972700
_cell_length_c   8.45069553
_cell_angle_alpha   64.20297839
_cell_angle_beta   90.00000000
_cell_angle_gamma   90.00000000
_symmetry_Int_Tables_number   1
_chemical_formula_structural   Na2LiB5(PO7)2
_chemical_formula_sum   'Na4 Li2 B10 P4 O28'
_cell_volume   589.75661078
_cell_formula_units_Z   2
loop_
 _symmetry_equiv_pos_site_id
 _symmetry_equiv_pos_as_xyz
  1  'x, y, z'
loop_
 _atom_site_type_symbol
 _atom_site_label
 _atom_site_symmetry_multiplicity
 _atom_site_fract_x
 _atom_site_fract_y
 _atom_site_fract_z
 _atom_site_occupancy
  Na  Na0  1  0.25000000  0.39652700  0.53503300  1
  Na  Na1  1  0.75000000  0.60347300  0.46496700  1
  Na  Na2  1  0.25000000  0.16548100  0.95891500  1
  Na  Na3  1  0.75000000  0.83451900  0.04108500  1
  Li  Li0  1  0.25000000  0.98505500  0.71587500  1
  Li  Li1  1  0.75000000  0.01494500  0.28412500  1
  B  B0  1  0.25000000  0.73530200  0.54502100  1
  B  B1  1  0.75000000  0.26469800  0.45497900  1
  B  B2  1  0.25000000  0.71875900  0.09865400  1
  B  B3  1  0.75000000  0.28124100  0.90134600  1
  B  B4  1  0.25000000  0.05138100  0.34857400  1
  B  B5  1  0.75000000  0.94861900  0.65142600  1
  B  B6  1  0.25000000  0.58593600  0.88413400  1
  B  B7  1  0.75000000  0.41406400  0.11586600  1
  B  B8  1  0.25000000  0.38989000  0.19779800  1
  B  B9  1  0.75000000  0.61011000  0.80220200  1
  P  P0  1  0.05883400  0.84619200  0.27371200  1
  P  P1  1  0.55883400  0.15380800  0.72628800  1
  P  P2  1  0.94116600  0.15380800  0.72628800  1
  P  P3  1  0.44116600  0.84619200  0.27371200  1
  O  O0  1  0.11891600  0.70186900  0.45260300  1
  O  O1  1  0.61891600  0.29813100  0.54739700  1
  O  O2  1  0.88108400  0.29813100  0.54739700  1
  O  O3  1  0.38108400  0.70186900  0.45260300  1
  O  O4  1  0.61874200  0.96785000  0.75085800  1
  O  O5  1  0.11874200  0.03215000  0.24914200  1
  O  O6  1  0.38125800  0.03215000  0.24914200  1
  O  O7  1  0.88125800  0.96785000  0.75085800  1
  O  O8  1  0.11880500  0.81332400  0.11666800  1
  O  O9  1  0.61880500  0.18667600  0.88333200  1
  O  O10  1  0.88119500  0.18667600  0.88333200  1
  O  O11  1  0.38119500  0.81332400  0.11666800  1
  O  O12  1  0.60287700  0.84433000  0.26759000  1
  O  O13  1  0.10287700  0.15567000  0.73241000  1
  O  O14  1  0.39712300  0.15567000  0.73241000  1
  O  O15  1  0.89712300  0.84433000  0.26759000  1
  O  O16  1  0.25000000  0.59224500  0.72043800  1
  O  O17  1  0.75000000  0.40775500  0.27956200  1
  O  O18  1  0.25000000  0.91447300  0.52682400  1
  O  O19  1  0.75000000  0.08552700  0.47317600  1
  O  O20  1  0.25000000  0.73325800  0.91827300  1
  O  O21  1  0.75000000  0.26674200  0.08172700  1
  O  O22  1  0.25000000  0.53581300  0.23194800  1
  O  O23  1  0.75000000  0.46418700  0.76805200  1
  O  O24  1  0.25000000  0.22743200  0.33972900  1
  O  O25  1  0.75000000  0.77256800  0.66027100  1
  O  O26  1  0.25000000  0.41284400  0.02373200  1
  O  O27  1  0.75000000  0.58715600  0.97626800  1
loop_
_geom_bond_atom_site_label_1
_geom_bond_atom_site_label_2
_geom_bond_distance
_geom_bond_site_symmetry_2
Na0 O22 2.306449 1_555
Na0 O14 2.401527 1_555
Na0 O13 2.401527 1_555
Na0 O24 2.593080 1_555
Na0 O0 2.624880 1_555
Na0 O3 2.624880 1_555
Na0 O16 2.706811 1_555
Na1 O23 2.306449 1_555
Na1 O12 2.401527 1_555
Na1 O15 2.401527 1_555
Na1 O25 2.593080 1_555
Na1 O1 2.624880 1_555
Na1 O2 2.624880 1_555
Na1 O17 2.706811 1_555
Na2 O26 2.348722 1_556
Na2 O13 2.384399 1_555
Na2 O14 2.384399 1_555
Na2 O5 2.524552 1_556
Na2 O6 2.524552 1_556
Na2 O11 2.907877 1_546
Na2 O8 2.907877 1_546
Na3 O27 2.348722 1_554
Na3 O15 2.384399 1_555
Na3 O12 2.384399 1_555
Na3 O7 2.524552 1_554
Na3 O4 2.524552 1_554
Na3 O9 2.907877 1_564
Na3 O10 2.907877 1_564
Li0 O18 1.927106 1_555
Li0 O14 2.021359 1_565
Li0 O13 2.021359 1_565
Li0 O20 2.048268 1_555
Li1 O19 1.927106 1_555
Li1 O12 2.021359 1_545
Li1 O15 2.021359 1_545
Li1 O21 2.048268 1_555
B0 O18 1.430448 1_555
B0 O16 1.441678 1_555
B0 O3 1.538803 1_555
B0 O0 1.538803 1_555
B1 O19 1.430448 1_555
B1 O17 1.441678 1_555
B1 O2 1.538803 1_555
B1 O1 1.538803 1_555
B2 O22 1.446813 1_555
B2 O20 1.475851 1_554
B2 O11 1.496811 1_555
B2 O8 1.496811 1_555
B3 O23 1.446813 1_555
B3 O21 1.475851 1_556
B3 O9 1.496811 1_555
B3 O10 1.496811 1_555
B4 O24 1.433748 1_555
B4 O18 1.439826 1_545
B4 O6 1.531059 1_555
B4 O5 1.531059 1_555
B5 O25 1.433748 1_555
B5 O19 1.439826 1_565
B5 O7 1.531059 1_555
B5 O4 1.531059 1_555
B6 O16 1.361323 1_555
B6 O20 1.375968 1_555
B6 O26 1.409568 1_556
B7 O17 1.361323 1_555
B7 O21 1.375968 1_555
B7 O27 1.409568 1_554
B8 O24 1.361782 1_555
B8 O22 1.364595 1_555
B8 O26 1.398481 1_555
B9 O25 1.361782 1_555
B9 O23 1.364595 1_555
B9 O27 1.398481 1_555
O0 P0 1.568627 1_555
O1 P1 1.568627 1_555
O2 P2 1.568627 1_555
O3 P3 1.568627 1_555
O4 P1 1.571187 1_565
O5 P0 1.571187 1_545
O6 P3 1.571187 1_545
O7 P2 1.571187 1_565
O8 P0 1.569745 1_555
O9 P1 1.569745 1_555
O10 P2 1.569745 1_555
O11 P3 1.569745 1_555
O12 P3 1.507819 1_555
O13 P2 1.507819 1_455
O14 P1 1.507819 1_555
O15 P0 1.507819 1_655
