# generated using pymatgen
data_RbCd(NO2)3
_symmetry_space_group_name_H-M   'P 1'
_cell_length_a   5.50033653
_cell_length_b   5.50033653
_cell_length_c   5.50033679
_cell_angle_alpha   90.55586864
_cell_angle_beta   90.55586864
_cell_angle_gamma   90.55586766
_symmetry_Int_Tables_number   1
_chemical_formula_structural   RbCd(NO2)3
_chemical_formula_sum   'Rb1 Cd1 N3 O6'
_cell_volume   166.38190300
_cell_formula_units_Z   1
loop_
 _symmetry_equiv_pos_site_id
 _symmetry_equiv_pos_as_xyz
  1  'x, y, z'
loop_
 _atom_site_type_symbol
 _atom_site_label
 _atom_site_symmetry_multiplicity
 _atom_site_fract_x
 _atom_site_fract_y
 _atom_site_fract_z
 _atom_site_occupancy
  Rb  Rb0  1  0.45517000  0.45517000  0.45517000  1
  Cd  Cd0  1  0.98688500  0.98688500  0.98688500  1
  N  N0  1  0.93174100  0.53256700  0.97083300  1
  N  N1  1  0.53256700  0.97083300  0.93174100  1
  N  N2  1  0.97083300  0.93174100  0.53256700  1
  O  O0  1  0.41989600  0.77151300  0.93193400  1
  O  O1  1  0.93193400  0.41989600  0.77151300  1
  O  O2  1  0.16090000  0.93965200  0.40347700  1
  O  O3  1  0.40347700  0.16090000  0.93965200  1
  O  O4  1  0.93965200  0.40347700  0.16090000  1
  O  O5  1  0.77151300  0.93193400  0.41989600  1
loop_
_geom_bond_atom_site_label_1
_geom_bond_atom_site_label_2
_geom_bond_distance
_geom_bond_site_symmetry_2
Cd0 O4 2.491572 1_566
Cd0 O3 2.491572 1_665
Cd0 O2 2.491572 1_656
Cd0 N1 2.514915 1_555
Cd0 N0 2.514915 1_555
Cd0 N2 2.514915 1_555
Cd0 O0 2.688673 1_655
Cd0 O1 2.688673 1_565
Cd0 O5 2.688674 1_556
N0 O1 1.254133 1_555
N0 O4 1.270078 1_556
N1 O0 1.254133 1_555
N1 O3 1.270077 1_565
N2 O5 1.254133 1_555
N2 O2 1.270077 1_655
O0 Rb0 3.141638 1_555
O0 Rb0 3.382430 1_556
O1 Rb0 3.141638 1_555
O1 Rb0 3.382430 1_655
O2 Rb0 3.145052 1_555
O2 Rb0 3.259942 1_565
O3 Rb0 3.145052 1_555
O3 Rb0 3.259942 1_556
O4 Rb0 3.145052 1_555
O4 Rb0 3.259942 1_655
O5 Rb0 3.141638 1_555
O5 Rb0 3.382430 1_565
