# generated using pymatgen
data_Nd6Ge3Se14
_symmetry_space_group_name_H-M   'P 1'
_cell_length_a   10.66823210
_cell_length_b   10.66830187
_cell_length_c   6.08310093
_cell_angle_alpha   89.99822539
_cell_angle_beta   90.00146875
_cell_angle_gamma   120.00199549
_symmetry_Int_Tables_number   1
_chemical_formula_structural   Nd6Ge3Se14
_chemical_formula_sum   'Nd6 Ge3 Se14'
_cell_volume   599.56279083
_cell_formula_units_Z   1
loop_
 _symmetry_equiv_pos_site_id
 _symmetry_equiv_pos_as_xyz
  1  'x, y, z'
loop_
 _atom_site_type_symbol
 _atom_site_label
 _atom_site_symmetry_multiplicity
 _atom_site_fract_x
 _atom_site_fract_y
 _atom_site_fract_z
 _atom_site_occupancy
  Nd  Nd0  1  0.89535195  0.69036260  0.24470062  1
  Nd  Nd1  1  0.30965128  0.20497820  0.24469002  1
  Nd  Nd2  1  0.79500881  0.10465841  0.24471853  1
  Nd  Nd3  1  0.43746484  0.97500167  0.75078469  1
  Nd  Nd4  1  0.02499594  0.46245301  0.75076058  1
  Nd  Nd5  1  0.53753183  0.56252339  0.75075627  1
  Ge  Ge0  1  -0.00000879  0.00000647  0.82803627  1
  Ge  Ge1  1  0.33334541  0.66668566  0.33629405  1
  Ge  Ge2  1  0.66666590  0.33332716  0.48265753  1
  Se  Se0  1  0.00000098  0.00001982  0.44649025  1
  Se  Se1  1  0.33337260  0.66669098  0.95409282  1
  Se  Se2  1  0.76797901  0.85102268  0.98718949  1
  Se  Se3  1  0.14894477  0.91696300  0.98715744  1
  Se  Se4  1  0.08303437  0.23200797  0.98720895  1
  Se  Se5  1  0.56557891  0.81611454  0.49305776  1
  Se  Se6  1  0.18389947  0.74945215  0.49302019  1
  Se  Se7  1  0.25053980  0.43444346  0.49297905  1
  Se  Se8  1  0.82765651  0.58799465  0.72181321  1
  Se  Se9  1  0.41198655  0.23963802  0.72177450  1
  Se  Se10  1  0.76034161  0.17234469  0.72183067  1
  Se  Se11  1  0.50121002  0.07636376  0.23201709  1
  Se  Se12  1  0.92361233  0.42483241  0.23201329  1
  Se  Se13  1  0.57516890  0.49878232  0.23201172  1
loop_
_geom_bond_atom_site_label_1
_geom_bond_atom_site_label_2
_geom_bond_distance
_geom_bond_site_symmetry_2
Nd0 Se13 2.978102 1_555
Nd0 Se12 2.995909 1_555
Nd0 Se3 3.012813 1_654
Nd0 Se8 3.057593 1_555
Nd0 Se2 3.093033 1_554
Nd0 Se0 3.158834 1_665
Nd0 Se6 3.195971 1_655
Nd0 Se8 3.323089 1_554
Nd1 Se11 2.978097 1_555
Nd1 Se13 2.995826 1_555
Nd1 Se4 3.012998 1_554
Nd1 Se9 3.057336 1_555
Nd1 Se3 3.092993 1_544
Nd1 Se0 3.158646 1_555
Nd1 Se7 3.196206 1_555
Nd1 Se9 3.323167 1_554
Nd2 Se12 2.978056 1_555
Nd2 Se11 2.995802 1_555
Nd2 Se2 3.013126 1_544
Nd2 Se10 3.057603 1_555
Nd2 Se4 3.092971 1_654
Nd2 Se0 3.158547 1_655
Nd2 Se5 3.195893 1_545
Nd2 Se10 3.323016 1_554
Nd3 Se9 2.973715 1_565
Nd3 Se6 3.009430 1_555
Nd3 Se10 3.012621 1_565
Nd3 Se11 3.076697 1_566
Nd3 Se5 3.084848 1_555
Nd3 Se1 3.150917 1_555
Nd3 Se3 3.165311 1_555
Nd3 Se11 3.294666 1_565
Nd4 Se10 2.973634 1_455
Nd4 Se7 3.009502 1_555
Nd4 Se8 3.012749 1_455
Nd4 Se12 3.076879 1_456
Nd4 Se6 3.084745 1_555
Nd4 Se1 3.151474 1_555
Nd4 Se4 3.165158 1_555
Nd4 Se12 3.294609 1_455
Nd5 Se8 2.973804 1_555
Nd5 Se5 3.009362 1_555
Nd5 Se9 3.012748 1_555
Nd5 Se13 3.076834 1_556
Nd5 Se7 3.084812 1_555
Nd5 Se1 3.151107 1_555
Nd5 Se2 3.165189 1_555
Nd5 Se13 3.294623 1_555
Ge0 Se0 2.320983 1_555
Ge0 Se3 2.377964 1_545
Ge0 Se4 2.378147 1_555
Ge0 Se2 2.378169 1_445
Ge1 Se1 2.324969 1_554
Ge1 Se6 2.374536 1_555
Ge1 Se7 2.374561 1_555
Ge1 Se5 2.374656 1_555
Ge2 Se9 2.789459 1_555
Ge2 Se10 2.789472 1_555
Ge2 Se8 2.789490 1_555
Ge2 Se12 2.848802 1_555
Ge2 Se13 2.848860 1_555
Ge2 Se11 2.848919 1_555
