# generated using pymatgen
data_CaNiO2
_symmetry_space_group_name_H-M   'P 1'
_cell_length_a   3.11792700
_cell_length_b   8.10408158
_cell_length_c   8.35497052
_cell_angle_alpha   82.61363222
_cell_angle_beta   89.23251263
_cell_angle_gamma   88.30605218
_symmetry_Int_Tables_number   1
_chemical_formula_structural   CaNiO2
_chemical_formula_sum   'Ca4 Ni4 O8'
_cell_volume   209.25969285
_cell_formula_units_Z   4
loop_
 _symmetry_equiv_pos_site_id
 _symmetry_equiv_pos_as_xyz
  1  'x, y, z'
loop_
 _atom_site_type_symbol
 _atom_site_label
 _atom_site_symmetry_multiplicity
 _atom_site_fract_x
 _atom_site_fract_y
 _atom_site_fract_z
 _atom_site_occupancy
  Ca  Ca0  1  0.75968600  0.21179400  0.94975100  1
  Ca  Ca1  1  0.24031400  0.78820600  0.05024900  1
  Ca  Ca2  1  0.22903600  0.07105000  0.32156800  1
  Ca  Ca3  1  0.77096400  0.92895000  0.67843200  1
  Ni  Ni0  1  0.33611000  0.56743000  0.77992800  1
  Ni  Ni1  1  0.21833600  0.26186300  0.61395200  1
  Ni  Ni2  1  0.78166400  0.73813700  0.38604800  1
  Ni  Ni3  1  0.66389000  0.43257000  0.22007200  1
  O  O0  1  0.10569700  0.58005800  0.26602200  1
  O  O1  1  0.28028800  0.81868300  0.51033800  1
  O  O2  1  0.71971200  0.18131700  0.48966200  1
  O  O3  1  0.89430300  0.41994200  0.73397800  1
  O  O4  1  0.76294200  0.70063900  0.87035400  1
  O  O5  1  0.26409300  0.07362900  0.81210900  1
  O  O6  1  0.23705800  0.29936100  0.12964600  1
  O  O7  1  0.73590700  0.92637100  0.18789100  1
loop_
_geom_bond_atom_site_label_1
_geom_bond_atom_site_label_2
_geom_bond_distance
_geom_bond_site_symmetry_2
Ca0 O5 2.286511 1_655
Ca0 O6 2.318331 1_656
Ca0 O5 2.333432 1_555
Ca0 O3 2.347620 1_555
Ca0 O6 2.357595 1_556
Ca0 O7 2.852624 1_546
Ca1 O7 2.286511 1_455
Ca1 O4 2.318331 1_454
Ca1 O7 2.333432 1_555
Ca1 O0 2.347620 1_555
Ca1 O4 2.357595 1_554
Ca1 O5 2.852624 1_564
Ca2 O6 2.287814 1_555
Ca2 O7 2.302089 1_545
Ca2 O2 2.339196 1_455
Ca2 O7 2.339967 1_445
Ca2 O2 2.360632 1_555
Ca2 O1 2.419485 1_545
Ca3 O4 2.287814 1_555
Ca3 O5 2.302089 1_565
Ca3 O1 2.339196 1_655
Ca3 O5 2.339967 1_665
Ca3 O1 2.360632 1_555
Ca3 O2 2.419485 1_565
Ni0 O3 1.924340 1_455
Ni0 O4 1.956753 1_555
Ni0 O3 2.140591 1_555
Ni0 O4 2.233692 1_455
Ni1 O3 1.973373 1_455
Ni1 O2 2.004663 1_555
Ni1 O2 2.049142 1_455
Ni1 O5 2.105347 1_555
Ni2 O0 1.973373 1_655
Ni2 O1 2.004663 1_555
Ni2 O1 2.049142 1_655
Ni2 O7 2.105347 1_555
Ni3 O0 1.924340 1_655
Ni3 O6 1.956753 1_555
Ni3 O0 2.140591 1_555
Ni3 O6 2.233692 1_655
