# generated using pymatgen
data_BaPrTaCoO6
_symmetry_space_group_name_H-M   'P 1'
_cell_length_a   5.82878000
_cell_length_b   5.75398700
_cell_length_c   9.90041648
_cell_angle_alpha   54.64051430
_cell_angle_beta   90.00000000
_cell_angle_gamma   90.00000000
_symmetry_Int_Tables_number   1
_chemical_formula_structural   BaPrTaCoO6
_chemical_formula_sum   'Ba2 Pr2 Ta2 Co2 O12'
_cell_volume   270.79695949
_cell_formula_units_Z   2
loop_
 _symmetry_equiv_pos_site_id
 _symmetry_equiv_pos_as_xyz
  1  'x, y, z'
loop_
 _atom_site_type_symbol
 _atom_site_label
 _atom_site_symmetry_multiplicity
 _atom_site_fract_x
 _atom_site_fract_y
 _atom_site_fract_z
 _atom_site_occupancy
  Ba  Ba0  1  0.76109500  0.74906900  0.74973500  1
  Ba  Ba1  1  0.23890500  0.74906900  0.24973500  1
  Pr  Pr0  1  0.70056200  0.26957700  0.24725700  1
  Pr  Pr1  1  0.29943800  0.26957700  0.74725700  1
  Ta  Ta0  1  0.75805700  0.99905600  0.00023200  1
  Ta  Ta1  1  0.24194300  0.99905600  0.50023200  1
  Co  Co0  1  0.75362600  0.50213800  0.49814600  1
  Co  Co1  1  0.24637400  0.50213800  0.99814600  1
  O  O0  1  0.04707400  0.67504700  0.54616600  1
  O  O1  1  0.95292600  0.67504700  0.04616600  1
  O  O2  1  0.48506200  0.27646700  0.47172700  1
  O  O3  1  0.51493800  0.27646700  0.97172700  1
  O  O4  1  0.49777600  0.72938600  0.53425000  1
  O  O5  1  0.50222400  0.72938600  0.03425000  1
  O  O6  1  0.96824200  0.24248500  0.45351000  1
  O  O7  1  0.03175800  0.24248500  0.95351000  1
  O  O8  1  0.24110700  0.85708700  0.74177100  1
  O  O9  1  0.75889300  0.85708700  0.24177100  1
  O  O10  1  0.27792300  0.19968800  0.25720700  1
  O  O11  1  0.72207700  0.19968800  0.75720700  1
loop_
_geom_bond_atom_site_label_1
_geom_bond_atom_site_label_2
_geom_bond_distance
_geom_bond_site_symmetry_2
Ba0 O11 2.646148 1_565
Ba0 O4 2.683195 1_555
Ba0 O3 2.714125 1_555
Ba0 O0 2.831154 1_655
Ba0 O8 2.857264 1_655
Ba0 O7 2.872154 1_655
Ba0 O6 2.912450 1_565
Ba0 O1 2.932216 1_556
Ba0 O8 3.085795 1_555
Ba0 O2 3.115462 1_565
Ba0 O11 3.127185 1_555
Ba0 O5 3.139241 1_556
Ba1 O10 2.646148 1_565
Ba1 O5 2.683195 1_555
Ba1 O2 2.714125 1_555
Ba1 O1 2.831154 1_455
Ba1 O9 2.857264 1_455
Ba1 O6 2.872154 1_455
Ba1 O7 2.912450 1_564
Ba1 O0 2.932216 1_555
Ba1 O9 3.085795 1_555
Ba1 O3 3.115462 1_564
Ba1 O10 3.127185 1_555
Ba1 O4 3.139241 1_555
Co0 O11 2.115318 1_555
Co0 O2 2.144321 1_555
Co0 O4 2.145333 1_555
Co0 O9 2.148206 1_555
Co0 O0 2.165399 1_655
Co0 O6 2.180937 1_555
Co1 O10 2.115318 1_556
Co1 O3 2.144321 1_555
Co1 O5 2.145333 1_556
Co1 O8 2.148206 1_555
Co1 O1 2.165399 1_456
Co1 O7 2.180937 1_555
O0 Ta1 1.997860 1_555
O0 Pr1 2.488892 1_555
O1 Ta0 1.997860 1_555
O1 Pr0 2.488892 1_555
O2 Ta1 2.028378 1_545
O2 Pr0 2.572967 1_555
O2 Pr1 2.913464 1_555
O3 Ta0 2.028378 1_546
O3 Pr1 2.572967 1_555
O3 Pr0 2.913464 1_556
O4 Ta1 2.034684 1_555
O4 Pr1 2.515144 1_555
O5 Ta0 2.034684 1_555
O5 Pr0 2.515144 1_555
O6 Ta1 1.992765 1_645
O6 Pr0 2.501994 1_555
O7 Ta0 1.992765 1_446
O7 Pr1 2.501994 1_555
O8 Ta1 2.030979 1_555
O8 Pr1 2.429213 1_565
O9 Ta0 2.030979 1_555
O9 Pr0 2.429213 1_565
O10 Ta1 1.987693 1_545
O10 Pr0 2.488826 1_555
O11 Ta0 1.987693 1_546
O11 Pr1 2.488826 1_555
