# generated using pymatgen
data_Th2Fe17H3
_symmetry_space_group_name_H-M   'P 1'
_cell_length_a   6.46306839
_cell_length_b   6.46306839
_cell_length_c   6.46306872
_cell_angle_alpha   83.86013428
_cell_angle_beta   83.86013428
_cell_angle_gamma   83.86012689
_symmetry_Int_Tables_number   1
_chemical_formula_structural   Th2Fe17H3
_chemical_formula_sum   'Th2 Fe17 H3'
_cell_volume   265.63343803
_cell_formula_units_Z   1
loop_
 _symmetry_equiv_pos_site_id
 _symmetry_equiv_pos_as_xyz
  1  'x, y, z'
loop_
 _atom_site_type_symbol
 _atom_site_label
 _atom_site_symmetry_multiplicity
 _atom_site_fract_x
 _atom_site_fract_y
 _atom_site_fract_z
 _atom_site_occupancy
  Th  Th0  1  0.65917300  0.65917300  0.65917300  1
  Th  Th1  1  0.34082700  0.34082700  0.34082700  1
  Fe  Fe0  1  0.00000000  0.00000000  0.50000000  1
  Fe  Fe1  1  0.50000000  0.00000000  0.00000000  1
  Fe  Fe2  1  0.00000000  0.50000000  0.00000000  1
  Fe  Fe3  1  0.71722800  0.28277200  0.00000000  1
  Fe  Fe4  1  0.00000000  0.71722800  0.28277200  1
  Fe  Fe5  1  0.28277200  0.00000000  0.71722800  1
  Fe  Fe6  1  0.00000000  0.28277200  0.71722800  1
  Fe  Fe7  1  0.71722800  0.00000000  0.28277200  1
  Fe  Fe8  1  0.28277200  0.71722800  0.00000000  1
  Fe  Fe9  1  0.34106700  0.34106700  0.84587900  1
  Fe  Fe10  1  0.84587900  0.34106700  0.34106700  1
  Fe  Fe11  1  0.34106700  0.84587900  0.34106700  1
  Fe  Fe12  1  0.65893300  0.65893300  0.15412100  1
  Fe  Fe13  1  0.15412100  0.65893300  0.65893300  1
  Fe  Fe14  1  0.65893300  0.15412100  0.65893300  1
  Fe  Fe15  1  0.90503100  0.90503100  0.90503100  1
  Fe  Fe16  1  0.09496900  0.09496900  0.09496900  1
  H  H0  1  0.50000000  0.50000000  0.00000000  1
  H  H1  1  0.00000000  0.50000000  0.50000000  1
  H  H2  1  0.50000000  0.00000000  0.50000000  1
loop_
_geom_bond_atom_site_label_1
_geom_bond_atom_site_label_2
_geom_bond_distance
_geom_bond_site_symmetry_2
Fe0 Fe5 2.420743 1_555
Fe0 Fe6 2.420743 1_555
Fe0 Fe4 2.420743 1_545
Fe0 Fe7 2.420743 1_455
Fe0 Fe14 2.484203 1_455
Fe0 Fe13 2.484203 1_545
Fe0 Fe10 2.484203 1_455
Fe0 Fe11 2.484203 1_545
Fe0 Fe15 2.645608 1_445
Fe0 Fe16 2.645608 1_555
Fe0 Th0 3.291099 1_445
Fe0 Th1 3.291099 1_555
Fe1 Fe7 2.420743 1_555
Fe1 Fe5 2.420743 1_554
Fe1 Fe3 2.420743 1_555
Fe1 Fe8 2.420743 1_545
Fe1 Fe12 2.484203 1_545
Fe1 Fe9 2.484203 1_554
Fe1 Fe14 2.484204 1_554
Fe1 Fe11 2.484204 1_545
Fe1 Fe15 2.645608 1_544
Fe1 Fe16 2.645608 1_555
Fe1 Th0 3.291099 1_544
Fe1 Th1 3.291099 1_555
Fe2 Fe4 2.420743 1_555
Fe2 Fe6 2.420743 1_554
Fe2 Fe8 2.420743 1_555
Fe2 Fe3 2.420743 1_455
Fe2 Fe9 2.484203 1_554
Fe2 Th0 3.291099 1_454
Fe2 Th1 3.291099 1_555
Fe3 H0 1.876316 1_555
Fe4 H1 1.876316 1_555
Fe5 H2 1.876316 1_555
Fe6 H1 1.876316 1_555
Fe7 H2 1.876316 1_555
Fe8 H0 1.876316 1_555
Fe9 H0 1.940595 1_556
Fe10 H1 1.940595 1_655
Fe10 Fe2 2.484204 1_655
Fe10 Fe16 2.664038 1_655
Fe11 H2 1.940595 1_565
Fe11 Fe16 2.664038 1_565
Fe12 H0 1.940595 1_555
Fe12 Fe2 2.484203 1_655
Fe12 Fe15 2.664038 1_554
Fe13 H1 1.940595 1_555
Fe13 Fe2 2.484204 1_556
Fe13 Fe15 2.664038 1_455
Fe14 H2 1.940595 1_555
Fe14 Fe15 2.664038 1_545
Fe15 Fe16 2.342636 1_666
Fe15 Fe2 2.645608 1_656
Fe15 Fe3 2.708795 1_566
Fe15 Fe8 2.708795 1_656
Fe15 Fe7 2.708796 1_566
Fe15 Fe4 2.708796 1_656
Fe15 Fe5 2.708796 1_665
Fe15 Fe6 2.708796 1_665
Fe15 Th0 3.032336 1_555
Fe16 Fe2 2.645608 1_555
Fe16 Fe9 2.664038 1_554
Fe16 Fe3 2.708795 1_455
Fe16 Fe8 2.708795 1_545
Fe16 Fe5 2.708796 1_554
Fe16 Fe6 2.708796 1_554
Fe16 Fe4 2.708796 1_545
Fe16 Fe7 2.708796 1_455
Fe16 Th1 3.032336 1_555
H0 Th1 2.495156 1_555
H0 Th0 2.495156 1_554
H1 Th1 2.495156 1_555
H1 Th0 2.495156 1_455
H2 Th0 2.495156 1_545
H2 Th1 2.495156 1_555
