# generated using pymatgen
data_Yb3P
_symmetry_space_group_name_H-M   'P 1'
_cell_length_a   6.62190339
_cell_length_b   6.62436651
_cell_length_c   5.21272254
_cell_angle_alpha   89.96806388
_cell_angle_beta   90.05153703
_cell_angle_gamma   119.83701952
_symmetry_Int_Tables_number   1
_chemical_formula_structural   Yb3P
_chemical_formula_sum   'Yb6 P2'
_cell_volume   198.35043483
_cell_formula_units_Z   2
loop_
 _symmetry_equiv_pos_site_id
 _symmetry_equiv_pos_as_xyz
  1  'x, y, z'
loop_
 _atom_site_type_symbol
 _atom_site_label
 _atom_site_symmetry_multiplicity
 _atom_site_fract_x
 _atom_site_fract_y
 _atom_site_fract_z
 _atom_site_occupancy
  Yb  Yb0  1  0.17537200  0.35100100  0.25002100  1
  Yb  Yb1  1  0.64912900  0.82475100  0.25007300  1
  Yb  Yb2  1  0.17542500  0.82466200  0.24993700  1
  Yb  Yb3  1  0.82448200  0.64866400  0.74996600  1
  Yb  Yb4  1  0.35128100  0.17547700  0.74992500  1
  Yb  Yb5  1  0.82443700  0.17552700  0.75008500  1
  P  P0  1  0.33326100  0.66670100  0.74989700  1
  P  P1  1  0.66661700  0.33322000  0.25009300  1
loop_
_geom_bond_atom_site_label_1
_geom_bond_atom_site_label_2
_geom_bond_distance
_geom_bond_site_symmetry_2
P0 Yb2 3.171701 1_555
P0 Yb2 3.174546 1_556
P0 Yb0 3.175200 1_555
P0 Yb1 3.175402 1_556
P0 Yb0 3.175892 1_556
P0 Yb1 3.176026 1_555
P0 Yb3 3.311261 1_455
P0 Yb4 3.312567 1_565
P0 Yb3 3.313886 1_555
P0 Yb4 3.315033 1_555
P0 Yb5 3.321213 1_455
P0 Yb5 3.321313 1_565
P1 Yb5 3.170910 1_555
P1 Yb5 3.173480 1_554
P1 Yb4 3.173623 1_554
P1 Yb4 3.174313 1_555
P1 Yb3 3.174348 1_555
P1 Yb3 3.175066 1_554
P1 Yb0 3.311900 1_655
P1 Yb1 3.312192 1_545
P1 Yb0 3.313156 1_555
P1 Yb1 3.315220 1_555
P1 Yb2 3.320427 1_545
P1 Yb2 3.322001 1_655
