# generated using pymatgen
data_BaSr2In2O6
_symmetry_space_group_name_H-M   'P 1'
_cell_length_a   10.91872600
_cell_length_b   10.91872600
_cell_length_c   10.91872600
_cell_angle_alpha   157.86914574
_cell_angle_beta   157.86914574
_cell_angle_gamma   31.49872479
_symmetry_Int_Tables_number   1
_chemical_formula_structural   BaSr2In2O6
_chemical_formula_sum   'Ba1 Sr2 In2 O6'
_cell_volume   184.60466070
_cell_formula_units_Z   1
loop_
 _symmetry_equiv_pos_site_id
 _symmetry_equiv_pos_as_xyz
  1  'x, y, z'
loop_
 _atom_site_type_symbol
 _atom_site_label
 _atom_site_symmetry_multiplicity
 _atom_site_fract_x
 _atom_site_fract_y
 _atom_site_fract_z
 _atom_site_occupancy
  Ba  Ba0  1  0.31722400  0.31722400  0.00000000  1
  Sr  Sr0  1  0.50086600  0.50086600  0.00000000  1
  Sr  Sr1  1  0.68191800  0.68191800  0.00000000  1
  In  In0  1  0.90112700  0.90112700  0.00000000  1
  In  In1  1  0.09807800  0.09807800  0.00000000  1
  O  O0  1  0.92267400  0.42267400  0.50000000  1
  O  O1  1  0.42267400  0.92267400  0.50000000  1
  O  O2  1  0.07931400  0.57931400  0.50000000  1
  O  O3  1  0.57931400  0.07931400  0.50000000  1
  O  O4  1  0.79935800  0.79935800  0.00000000  1
  O  O5  1  0.19745300  0.19745300  0.00000000  1
loop_
_geom_bond_atom_site_label_1
_geom_bond_atom_site_label_2
_geom_bond_distance
_geom_bond_site_symmetry_2
Ba0 O5 2.517303 1_555
Ba0 O4 2.987361 1_545
Ba0 O4 2.987361 1_455
Ba0 O4 2.987361 1_556
Ba0 O4 2.987361 1_444
Ba0 O0 3.050195 1_454
Ba0 O1 3.050195 1_544
Ba0 O1 3.050195 1_555
Ba0 O0 3.050195 1_555
In0 O4 2.138944 1_555
In0 O0 2.144003 1_554
In0 O1 2.144003 1_554
In0 O1 2.144003 1_655
In0 O0 2.144003 1_565
In1 O5 2.088628 1_555
In1 O2 2.132415 1_555
In1 O2 2.132415 1_544
In1 O3 2.132415 1_555
In1 O3 2.132415 1_454
O0 Sr0 2.663167 1_656
O0 Sr0 2.663167 1_555
O1 Sr0 2.663167 1_566
O1 Sr0 2.663167 1_555
O2 Sr0 2.666491 1_455
O2 Sr0 2.666491 1_556
O2 Sr1 3.007013 1_455
O2 Sr1 3.007013 1_556
O3 Sr0 2.666491 1_545
O3 Sr0 2.666491 1_556
O3 Sr1 3.007013 1_545
O3 Sr1 3.007013 1_556
O4 Sr1 2.468311 1_555
O5 Sr1 2.981599 1_444
O5 Sr1 2.981599 1_455
O5 Sr1 2.981599 1_545
O5 Sr1 2.981599 1_556
