# generated using pymatgen
data_Te4MoW3S4
_symmetry_space_group_name_H-M   'P 1'
_cell_length_a   3.36140961
_cell_length_b   3.36140961
_cell_length_c   39.77552800
_cell_angle_alpha   90.00000000
_cell_angle_beta   90.00000000
_cell_angle_gamma   119.99999229
_symmetry_Int_Tables_number   1
_chemical_formula_structural   Te4MoW3S4
_chemical_formula_sum   'Te4 Mo1 W3 S4'
_cell_volume   389.21493172
_cell_formula_units_Z   1
loop_
 _symmetry_equiv_pos_site_id
 _symmetry_equiv_pos_as_xyz
  1  'x, y, z'
loop_
 _atom_site_type_symbol
 _atom_site_label
 _atom_site_symmetry_multiplicity
 _atom_site_fract_x
 _atom_site_fract_y
 _atom_site_fract_z
 _atom_site_occupancy
  Te  Te0  1  0.33333300  0.66666700  0.70686600  1
  Te  Te1  1  0.66666700  0.33333300  0.42040200  1
  Te  Te2  1  0.66666700  0.33333300  0.51606700  1
  Te  Te3  1  0.33333300  0.66666700  0.61124800  1
  Mo  Mo0  1  0.66666700  0.33333300  0.28171600  1
  W  W0  1  0.33333300  0.66666700  0.09390300  1
  W  W1  1  0.33333300  0.66666700  0.46822100  1
  W  W2  1  0.66666700  0.33333300  0.65907200  1
  S  S0  1  0.33333300  0.66666700  0.31971000  1
  S  S1  1  0.66666700  0.33333300  0.05574800  1
  S  S2  1  0.66666700  0.33333300  0.13206400  1
  S  S3  1  0.33333300  0.66666700  0.24373000  1
loop_
_geom_bond_atom_site_label_1
_geom_bond_atom_site_label_2
_geom_bond_distance
_geom_bond_site_symmetry_2
Te0 W2 2.716666 1_455
Te0 W2 2.716666 1_565
Te0 W2 2.716670 1_555
Te1 W1 2.717362 1_655
Te1 W1 2.717362 1_545
Te1 W1 2.717366 1_555
Te2 W1 2.718113 1_545
Te2 W1 2.718113 1_655
Te2 W1 2.718117 1_555
Te3 W2 2.717501 1_455
Te3 W2 2.717501 1_565
Te3 W2 2.717505 1_555
Mo0 S3 2.459514 1_655
Mo0 S3 2.459514 1_545
Mo0 S3 2.459519 1_555
Mo0 S0 2.459710 1_545
Mo0 S0 2.459710 1_655
Mo0 S0 2.459714 1_555
S1 W0 2.463649 1_655
S1 W0 2.463649 1_545
S1 W0 2.463654 1_555
S2 W0 2.463796 1_545
S2 W0 2.463796 1_655
S2 W0 2.463801 1_555
