# generated using pymatgen
data_ErAg(WO4)2
_symmetry_space_group_name_H-M   'P 1'
_cell_length_a   7.37800970
_cell_length_b   7.37800970
_cell_length_c   7.27900416
_cell_angle_alpha   65.89552230
_cell_angle_beta   65.89552230
_cell_angle_gamma   94.60728295
_symmetry_Int_Tables_number   1
_chemical_formula_structural   ErAg(WO4)2
_chemical_formula_sum   'Er2 Ag2 W4 O16'
_cell_volume   315.28987464
_cell_formula_units_Z   2
loop_
 _symmetry_equiv_pos_site_id
 _symmetry_equiv_pos_as_xyz
  1  'x, y, z'
loop_
 _atom_site_type_symbol
 _atom_site_label
 _atom_site_symmetry_multiplicity
 _atom_site_fract_x
 _atom_site_fract_y
 _atom_site_fract_z
 _atom_site_occupancy
  Er  Er0  1  0.30096800  0.69903200  0.00000000  1
  Er  Er1  1  0.69903200  0.30096800  0.00000000  1
  Ag  Ag0  1  0.68137600  0.68137600  0.47811500  1
  Ag  Ag1  1  0.31862400  0.31862400  0.52188500  1
  W  W0  1  0.78743900  0.78743900  0.97189500  1
  W  W1  1  0.21256100  0.21256100  0.02810500  1
  W  W2  1  0.83647700  0.16352300  0.50000000  1
  W  W3  1  0.16352300  0.83647700  0.50000000  1
  O  O0  1  0.02186700  0.02186700  0.65905600  1
  O  O1  1  0.97813300  0.97813300  0.34094400  1
  O  O2  1  0.95971800  0.69952600  0.08936900  1
  O  O3  1  0.30047400  0.04028200  0.91063100  1
  O  O4  1  0.04028200  0.30047400  0.91063100  1
  O  O5  1  0.69952600  0.95971800  0.08936900  1
  O  O6  1  0.44688900  0.44688900  0.86039000  1
  O  O7  1  0.55311100  0.55311100  0.13961000  1
  O  O8  1  0.35546600  0.10366900  0.23970600  1
  O  O9  1  0.89633100  0.64453400  0.76029400  1
  O  O10  1  0.64453400  0.89633100  0.76029400  1
  O  O11  1  0.10366900  0.35546600  0.23970600  1
  O  O12  1  0.68802000  0.21702800  0.34788200  1
  O  O13  1  0.78297200  0.31198000  0.65211800  1
  O  O14  1  0.31198000  0.78297200  0.65211800  1
  O  O15  1  0.21702800  0.68802000  0.34788200  1
loop_
_geom_bond_atom_site_label_1
_geom_bond_atom_site_label_2
_geom_bond_distance
_geom_bond_site_symmetry_2
Er0 O10 2.304085 1_554
Er0 O11 2.304085 1_555
Er0 O15 2.311987 1_555
Er0 O14 2.311987 1_554
Er0 O2 2.329775 1_455
Er0 O3 2.329775 1_564
Er0 O6 2.573874 1_554
Er0 O7 2.573874 1_555
Er1 O9 2.304085 1_554
Er1 O8 2.304085 1_555
Er1 O12 2.311987 1_555
Er1 O13 2.311987 1_554
Er1 O4 2.329775 1_654
Er1 O5 2.329775 1_545
Er1 O6 2.573874 1_554
Er1 O7 2.573874 1_555
Ag0 O6 2.320316 1_555
Ag0 O1 2.498630 1_555
Ag0 O2 2.672484 1_555
Ag0 O5 2.672484 1_555
Ag0 O14 2.806783 1_555
Ag0 O13 2.806783 1_555
Ag1 O7 2.320316 1_555
Ag1 O0 2.498630 1_555
Ag1 O3 2.672484 1_555
Ag1 O4 2.672484 1_555
Ag1 O15 2.806783 1_555
Ag1 O12 2.806783 1_555
O0 W0 2.062484 1_445
O0 W3 2.199647 1_545
O0 W2 2.199647 1_455
O1 W1 2.062484 1_665
O1 W3 2.199647 1_655
O1 W2 2.199647 1_565
O2 W0 1.826124 1_554
O3 W1 1.826124 1_556
O4 W1 1.826124 1_556
O5 W0 1.826124 1_554
O6 W1 1.881561 1_556
O7 W0 1.881561 1_554
O8 W3 1.946942 1_545
O8 W1 2.140391 1_555
O9 W3 1.946942 1_655
O9 W0 2.140391 1_555
O10 W2 1.946942 1_565
O10 W0 2.140391 1_555
O11 W2 1.946942 1_455
O11 W1 2.140391 1_555
O12 W2 1.812363 1_555
O13 W2 1.812363 1_555
O14 W3 1.812363 1_555
O15 W3 1.812363 1_555
