# generated using pymatgen
data_Cs2ErCl5
_symmetry_space_group_name_H-M   'P 1'
_cell_length_a   7.44435580
_cell_length_b   9.52657587
_cell_length_c   15.28989192
_cell_angle_alpha   90.00000000
_cell_angle_beta   90.00000000
_cell_angle_gamma   90.00000000
_symmetry_Int_Tables_number   1
_chemical_formula_structural   Cs2ErCl5
_chemical_formula_sum   'Cs8 Er4 Cl20'
_cell_volume   1084.34721393
_cell_formula_units_Z   4
loop_
 _symmetry_equiv_pos_site_id
 _symmetry_equiv_pos_as_xyz
  1  'x, y, z'
loop_
 _atom_site_type_symbol
 _atom_site_label
 _atom_site_symmetry_multiplicity
 _atom_site_fract_x
 _atom_site_fract_y
 _atom_site_fract_z
 _atom_site_occupancy
  Cs  Cs0  1  0.25000000  0.66510272  0.91612098  1
  Cs  Cs1  1  0.75000000  0.33489728  0.08387902  1
  Cs  Cs2  1  0.75000000  0.83489728  0.41612098  1
  Cs  Cs3  1  0.25000000  0.16510272  0.58387902  1
  Cs  Cs4  1  0.25000000  0.97321375  0.21122994  1
  Cs  Cs5  1  0.75000000  0.02678625  0.78877006  1
  Cs  Cs6  1  0.75000000  0.52678625  0.71122994  1
  Cs  Cs7  1  0.25000000  0.47321375  0.28877006  1
  Er  Er0  1  0.25000000  0.67832238  0.56521388  1
  Er  Er1  1  0.75000000  0.32167762  0.43478612  1
  Er  Er2  1  0.75000000  0.82167762  0.06521388  1
  Er  Er3  1  0.25000000  0.17832238  0.93478612  1
  Cl  Cl0  1  0.25000000  0.51915049  0.70065142  1
  Cl  Cl1  1  0.75000000  0.48084951  0.29934858  1
  Cl  Cl2  1  0.75000000  0.98084951  0.20065142  1
  Cl  Cl3  1  0.25000000  0.01915049  0.79934858  1
  Cl  Cl4  1  0.50341388  0.83460514  0.61850967  1
  Cl  Cl5  1  0.49658612  0.16539486  0.38149033  1
  Cl  Cl6  1  0.49658612  0.66539486  0.11850967  1
  Cl  Cl7  1  0.00341388  0.16539486  0.38149033  1
  Cl  Cl8  1  0.50341388  0.33460514  0.88149033  1
  Cl  Cl9  1  0.99658612  0.83460514  0.61850967  1
  Cl  Cl10  1  0.99658612  0.33460514  0.88149033  1
  Cl  Cl11  1  0.00341388  0.66539486  0.11850967  1
  Cl  Cl12  1  0.25000000  0.78982437  0.40904007  1
  Cl  Cl13  1  0.75000000  0.21017563  0.59095993  1
  Cl  Cl14  1  0.75000000  0.71017563  0.90904007  1
  Cl  Cl15  1  0.25000000  0.28982437  0.09095993  1
  Cl  Cl16  1  0.00000000  0.50000000  0.50000000  1
  Cl  Cl17  1  0.00000000  0.00000000  -0.00000000  1
  Cl  Cl18  1  0.50000000  0.50000000  0.50000000  1
  Cl  Cl19  1  0.50000000  0.00000000  -0.00000000  1
loop_
_geom_bond_atom_site_label_1
_geom_bond_atom_site_label_2
_geom_bond_distance
_geom_bond_site_symmetry_2
Cl0 Er0 2.566647 1_555
Cl0 Cs0 3.575899 1_555
Cl0 Cs6 3.726401 1_555
Cl0 Cs6 3.726401 1_455
Cl0 Cs3 3.816280 1_555
Cl1 Er1 2.566647 1_555
Cl1 Cs1 3.575899 1_555
Cl1 Cs7 3.726401 1_655
Cl1 Cs7 3.726401 1_555
Cl1 Cs2 3.816280 1_555
Cl2 Er2 2.566647 1_555
Cl2 Cs2 3.575899 1_555
Cl2 Cs4 3.726401 1_555
Cl2 Cs4 3.726401 1_655
Cl2 Cs1 3.816280 1_565
Cl3 Er3 2.566647 1_555
Cl3 Cs3 3.575899 1_555
Cl3 Cs5 3.726401 1_555
Cl3 Cs5 3.726401 1_455
Cl3 Cs0 3.816280 1_545
Cl4 Er0 2.537632 1_555
Cl4 Cs2 3.598006 1_555
Cl4 Cs5 3.674046 1_565
Cl4 Cs3 3.708420 1_565
Cl4 Cs6 3.738830 1_555
Cl5 Er1 2.537632 1_555
Cl5 Cs3 3.598006 1_555
Cl5 Cs4 3.674046 1_545
Cl5 Cs2 3.708420 1_545
Cl5 Cs7 3.738830 1_555
Cl6 Er2 2.537632 1_555
Cl6 Cs0 3.598006 1_554
Cl6 Cs7 3.674046 1_555
Cl6 Cs1 3.708420 1_555
Cl6 Cs4 3.738830 1_555
Cl7 Er1 2.537632 1_455
Cl7 Cs3 3.598006 1_555
Cl7 Cs4 3.674046 1_545
Cl7 Cs2 3.708420 1_445
Cl7 Cs7 3.738830 1_555
Cl8 Er3 2.537632 1_555
Cl8 Cs1 3.598006 1_556
Cl8 Cs6 3.674046 1_555
Cl8 Cs0 3.708420 1_555
Cl8 Cs5 3.738830 1_555
Cl9 Er0 2.537632 1_655
Cl9 Cs2 3.598006 1_555
Cl9 Cs5 3.674046 1_565
Cl9 Cs3 3.708420 1_665
Cl9 Cs6 3.738830 1_555
Cl10 Er3 2.537632 1_655
Cl10 Cs1 3.598006 1_556
Cl10 Cs6 3.674046 1_555
Cl10 Cs0 3.708420 1_655
Cl10 Cs5 3.738830 1_555
Cl11 Er2 2.537632 1_455
Cl11 Cs0 3.598006 1_554
Cl11 Cs7 3.674046 1_555
Cl11 Cs1 3.708420 1_455
Cl11 Cs4 3.738830 1_555
Cl12 Er0 2.613486 1_555
Cl12 Cs4 3.492826 1_555
Cl12 Cs7 3.532586 1_555
Cl12 Cs2 3.748427 1_555
Cl12 Cs2 3.748427 1_455
Cl13 Er1 2.613486 1_555
Cl13 Cs5 3.492826 1_555
Cl13 Cs6 3.532586 1_555
Cl13 Cs3 3.748427 1_555
Cl13 Cs3 3.748427 1_655
Cl14 Er2 2.613486 1_556
Cl14 Cs6 3.492826 1_555
Cl14 Cs5 3.532586 1_565
Cl14 Cs0 3.748427 1_555
Cl14 Cs0 3.748427 1_655
Cl15 Er3 2.613486 1_554
Cl15 Cs7 3.492826 1_555
Cl15 Cs4 3.532586 1_545
Cl15 Cs1 3.748427 1_555
Cl15 Cs1 3.748427 1_455
Cl16 Er1 2.709947 1_455
Cl16 Er0 2.709947 1_555
Cl16 Cs7 3.736258 1_555
Cl16 Cs6 3.736258 1_455
Cl16 Cs2 3.909894 1_455
Cl16 Cs3 3.909894 1_555
Cl17 Er2 2.709947 1_445
Cl17 Er3 2.709947 1_554
Cl17 Cs5 3.736258 1_454
Cl17 Cs4 3.736258 1_545
Cl17 Cs0 3.909894 1_544
Cl17 Cs1 3.909894 1_455
Cl18 Er1 2.709947 1_555
Cl18 Er0 2.709947 1_555
Cl18 Cs7 3.736258 1_555
Cl18 Cs6 3.736258 1_555
Cl18 Cs2 3.909894 1_555
Cl18 Cs3 3.909894 1_555
Cl19 Er3 2.709947 1_554
Cl19 Er2 2.709947 1_545
Cl19 Cs5 3.736258 1_554
Cl19 Cs4 3.736258 1_545
Cl19 Cs0 3.909894 1_544
Cl19 Cs1 3.909894 1_555
