# generated using pymatgen
data_CaMnO2
_symmetry_space_group_name_H-M   'P 1'
_cell_length_a   6.60223339
_cell_length_b   6.60223339
_cell_length_c   6.60223339
_cell_angle_alpha   60.00000000
_cell_angle_beta   60.00000000
_cell_angle_gamma   60.00000000
_symmetry_Int_Tables_number   1
_chemical_formula_structural   CaMnO2
_chemical_formula_sum   'Ca4 Mn4 O8'
_cell_volume   203.49681664
_cell_formula_units_Z   4
loop_
 _symmetry_equiv_pos_site_id
 _symmetry_equiv_pos_as_xyz
  1  'x, y, z'
loop_
 _atom_site_type_symbol
 _atom_site_label
 _atom_site_symmetry_multiplicity
 _atom_site_fract_x
 _atom_site_fract_y
 _atom_site_fract_z
 _atom_site_occupancy
  Ca  Ca0  1  0.12500000  0.12500000  0.12500000  1
  Ca  Ca1  1  0.12500000  0.12500000  0.62500000  1
  Ca  Ca2  1  0.12500000  0.62500000  0.12500000  1
  Ca  Ca3  1  0.62500000  0.12500000  0.12500000  1
  Mn  Mn0  1  0.62500000  0.62500000  0.12500000  1
  Mn  Mn1  1  0.62500000  0.12500000  0.62500000  1
  Mn  Mn2  1  0.12500000  0.62500000  0.62500000  1
  Mn  Mn3  1  0.62500000  0.62500000  0.62500000  1
  O  O0  1  0.37898400  0.37898400  0.37898400  1
  O  O1  1  0.86304900  0.37898400  0.37898400  1
  O  O2  1  0.37898400  0.86304900  0.37898400  1
  O  O3  1  0.37898400  0.37898400  0.86304900  1
  O  O4  1  0.38695100  0.87101600  0.87101600  1
  O  O5  1  0.87101600  0.87101600  0.87101600  1
  O  O6  1  0.87101600  0.87101600  0.38695100  1
  O  O7  1  0.87101600  0.38695100  0.87101600  1
loop_
_geom_bond_atom_site_label_1
_geom_bond_atom_site_label_2
_geom_bond_distance
_geom_bond_site_symmetry_2
Ca0 O6 2.372024 1_445
Ca0 O4 2.372024 1_544
Ca0 O7 2.372024 1_454
Ca0 O3 2.372024 1_554
Ca0 O2 2.372024 1_545
Ca0 O1 2.372024 1_455
Ca1 O4 2.372019 1_545
Ca1 O2 2.372019 1_545
Ca1 O7 2.372019 1_455
Ca1 O1 2.372019 1_455
Ca1 O5 2.372024 1_445
Ca1 O0 2.372024 1_555
Ca2 O4 2.372019 1_554
Ca2 O6 2.372019 1_455
Ca2 O3 2.372019 1_554
Ca2 O1 2.372019 1_455
Ca2 O0 2.372024 1_555
Ca2 O5 2.372024 1_454
Ca3 O7 2.372019 1_554
Ca3 O6 2.372019 1_545
Ca3 O3 2.372019 1_554
Ca3 O2 2.372019 1_545
Ca3 O0 2.372024 1_555
Ca3 O5 2.372024 1_544
Mn0 O5 2.297646 1_554
Mn0 O0 2.297646 1_555
Mn0 O2 2.297650 1_555
Mn0 O4 2.297650 1_554
Mn0 O1 2.297650 1_555
Mn0 O7 2.297650 1_554
Mn1 O0 2.297646 1_555
Mn1 O5 2.297646 1_545
Mn1 O4 2.297650 1_545
Mn1 O3 2.297650 1_555
Mn1 O1 2.297650 1_555
Mn1 O6 2.297650 1_545
Mn2 O0 2.297646 1_555
Mn2 O5 2.297646 1_455
Mn2 O2 2.297650 1_555
Mn2 O3 2.297650 1_555
Mn2 O7 2.297650 1_455
Mn2 O6 2.297650 1_455
Mn3 O2 2.297646 1_555
Mn3 O3 2.297646 1_555
Mn3 O6 2.297646 1_555
Mn3 O7 2.297646 1_555
Mn3 O1 2.297646 1_555
Mn3 O4 2.297646 1_555
