# generated using pymatgen
data_K3UF6
_symmetry_space_group_name_H-M   'P 1'
_cell_length_a   7.00438062
_cell_length_b   7.00438062
_cell_length_c   7.00438062
_cell_angle_alpha   116.68155884
_cell_angle_beta   116.68155884
_cell_angle_gamma   95.85072990
_symmetry_Int_Tables_number   1
_chemical_formula_structural   K3UF6
_chemical_formula_sum   'K3 U1 F6'
_cell_volume   253.74903705
_cell_formula_units_Z   1
loop_
 _symmetry_equiv_pos_site_id
 _symmetry_equiv_pos_as_xyz
  1  'x, y, z'
loop_
 _atom_site_type_symbol
 _atom_site_label
 _atom_site_symmetry_multiplicity
 _atom_site_fract_x
 _atom_site_fract_y
 _atom_site_fract_z
 _atom_site_occupancy
  K  K0  1  0.75000000  0.25000000  0.50000000  1
  K  K1  1  0.25000000  0.75000000  0.50000000  1
  K  K2  1  0.50000000  0.50000000  0.00000000  1
  U  U0  1  0.00000000  0.00000000  0.00000000  1
  F  F0  1  0.00000000  0.30706600  0.30706600  1
  F  F1  1  0.00000000  0.69293400  0.69293400  1
  F  F2  1  0.30706600  0.00000000  0.30706600  1
  F  F3  1  0.69293400  0.00000000  0.69293400  1
  F  F4  1  0.23903300  0.23903300  0.00000000  1
  F  F5  1  0.76096700  0.76096700  0.00000000  1
loop_
_geom_bond_atom_site_label_1
_geom_bond_atom_site_label_2
_geom_bond_distance
_geom_bond_site_symmetry_2
F0 U0 2.257771 1_555
F0 K1 2.742247 1_555
F0 K0 2.742247 1_455
F1 U0 2.257771 1_566
F1 K0 2.742247 1_455
F1 K1 2.742247 1_555
F2 U0 2.257771 1_555
F2 K1 2.742247 1_545
F2 K0 2.742247 1_555
F3 U0 2.257771 1_656
F3 K1 2.742247 1_545
F3 K0 2.742247 1_555
F4 U0 2.243861 1_555
F4 K2 2.449761 1_555
F5 U0 2.243861 1_665
F5 K2 2.449761 1_555
