# generated using pymatgen
data_KTiS2
_symmetry_space_group_name_H-M   'P 1'
_cell_length_a   3.66255580
_cell_length_b   3.66255580
_cell_length_c   7.59708807
_cell_angle_alpha   76.05148933
_cell_angle_beta   76.05148933
_cell_angle_gamma   60.00000359
_symmetry_Int_Tables_number   1
_chemical_formula_structural   KTiS2
_chemical_formula_sum   'K1 Ti1 S2'
_cell_volume   84.76874733
_cell_formula_units_Z   1
loop_
 _symmetry_equiv_pos_site_id
 _symmetry_equiv_pos_as_xyz
  1  'x, y, z'
loop_
 _atom_site_type_symbol
 _atom_site_label
 _atom_site_symmetry_multiplicity
 _atom_site_fract_x
 _atom_site_fract_y
 _atom_site_fract_z
 _atom_site_occupancy
  K  K0  1  0.50000000  0.50000000  0.50000000  1
  Ti  Ti0  1  0.00000000  0.00000000  0.00000000  1
  S  S0  1  0.72947400  0.72947400  0.81157800  1
  S  S1  1  0.27052600  0.27052600  0.18842200  1
loop_
_geom_bond_atom_site_label_1
_geom_bond_atom_site_label_2
_geom_bond_distance
_geom_bond_site_symmetry_2
K0 S0 3.104906 1_555
K0 S1 3.104906 1_555
K0 S0 3.104906 1_545
K0 S0 3.104906 1_455
K0 S1 3.104906 1_565
K0 S1 3.104906 1_655
S0 Ti0 2.522253 1_666
S0 Ti0 2.522254 1_656
S0 Ti0 2.522254 1_566
S1 Ti0 2.522253 1_555
S1 Ti0 2.522254 1_565
S1 Ti0 2.522254 1_655
