# generated using pymatgen
data_Mg7TiAl6Si8(H4O19)2
_symmetry_space_group_name_H-M   'P 1'
_cell_length_a   12.29235278
_cell_length_b   12.29235278
_cell_length_c   5.06470500
_cell_angle_alpha   90.00000000
_cell_angle_beta   90.00000000
_cell_angle_gamma   120.00000418
_symmetry_Int_Tables_number   1
_chemical_formula_structural   Mg7TiAl6Si8(H4O19)2
_chemical_formula_sum   'Mg7 Ti1 Al6 Si8 H8 O38'
_cell_volume   662.75772549
_cell_formula_units_Z   1
loop_
 _symmetry_equiv_pos_site_id
 _symmetry_equiv_pos_as_xyz
  1  'x, y, z'
loop_
 _atom_site_type_symbol
 _atom_site_label
 _atom_site_symmetry_multiplicity
 _atom_site_fract_x
 _atom_site_fract_y
 _atom_site_fract_z
 _atom_site_occupancy
  Mg  Mg0  1  0.00000000  0.00000000  0.69005800  1
  Mg  Mg1  1  0.42543200  0.33855400  0.49964300  1
  Mg  Mg2  1  0.91312200  0.57456800  0.49964300  1
  Mg  Mg3  1  0.66144600  0.08687800  0.49964300  1
  Mg  Mg4  1  0.57441800  0.66118500  0.99804100  1
  Mg  Mg5  1  0.08676700  0.42558200  0.99804100  1
  Mg  Mg6  1  0.33881500  0.91323300  0.99804100  1
  Ti  Ti0  1  0.00000000  0.00000000  0.19085200  1
  Al  Al0  1  0.34842400  0.41849000  0.98938600  1
  Al  Al1  1  0.07006600  0.65157600  0.98938600  1
  Al  Al2  1  0.58151000  0.92993400  0.98938600  1
  Al  Al3  1  0.65127600  0.58158100  0.49230400  1
  Al  Al4  1  0.93030500  0.34872400  0.49230400  1
  Al  Al5  1  0.41841900  0.06969500  0.49230400  1
  Si  Si0  1  0.66666700  0.33333300  0.28060700  1
  Si  Si1  1  0.33333300  0.66666700  0.77917600  1
  Si  Si2  1  0.30342500  0.14699500  0.98026600  1
  Si  Si3  1  0.84357000  0.69657500  0.98026600  1
  Si  Si4  1  0.85300500  0.15643000  0.98026600  1
  Si  Si5  1  0.69672000  0.85322800  0.47275100  1
  Si  Si6  1  0.15650800  0.30328000  0.47275100  1
  Si  Si7  1  0.14677200  0.84349200  0.47275100  1
  H  H0  1  0.33333300  0.66666700  0.27110600  1
  H  H1  1  0.66666700  0.33333300  0.77174400  1
  H  H2  1  0.43416700  0.55684600  0.42493900  1
  H  H3  1  0.12267900  0.56583300  0.42493900  1
  H  H4  1  0.44315400  0.87732100  0.42493900  1
  H  H5  1  0.56548500  0.44331200  0.92502100  1
  H  H6  1  0.87782700  0.43451500  0.92502100  1
  H  H7  1  0.55668800  0.12217300  0.92502100  1
  O  O0  1  0.27706700  0.34090400  0.66858900  1
  O  O1  1  0.06383800  0.72293300  0.66858900  1
  O  O2  1  0.65909600  0.93616200  0.66858900  1
  O  O3  1  0.72093800  0.65619300  0.17030500  1
  O  O4  1  0.93525500  0.27906200  0.17030500  1
  O  O5  1  0.34380700  0.06474500  0.17030500  1
  O  O6  1  0.47763400  0.52399100  0.31773700  1
  O  O7  1  0.04635800  0.52236600  0.31773700  1
  O  O8  1  0.47600900  0.95364200  0.31773700  1
  O  O9  1  0.52249400  0.47630600  0.81655700  1
  O  O10  1  0.95381200  0.47750600  0.81655700  1
  O  O11  1  0.52369400  0.04618800  0.81655700  1
  O  O12  1  0.33333300  0.66666700  0.46178800  1
  O  O13  1  0.66666700  0.33333300  0.96266500  1
  O  O14  1  0.14810500  0.07074000  0.95321900  1
  O  O15  1  0.92263400  0.85189500  0.95321900  1
  O  O16  1  0.92926000  0.07736600  0.95321900  1
  O  O17  1  0.85104400  0.92890400  0.42451600  1
  O  O18  1  0.07786000  0.14895600  0.42451600  1
  O  O19  1  0.07109600  0.92214000  0.42451600  1
  O  O20  1  0.38814500  0.58034500  0.89460400  1
  O  O21  1  0.19220000  0.61185500  0.89460400  1
  O  O22  1  0.41965500  0.80780000  0.89460400  1
  O  O23  1  0.61228000  0.41976400  0.39756700  1
  O  O24  1  0.80748400  0.38772000  0.39756700  1
  O  O25  1  0.58023600  0.19251600  0.39756700  1
  O  O26  1  0.35521400  0.28313600  0.12985100  1
  O  O27  1  0.92792200  0.64478600  0.12985100  1
  O  O28  1  0.71686400  0.07207800  0.12985100  1
  O  O29  1  0.64666400  0.71872800  0.62848100  1
  O  O30  1  0.07206400  0.35333600  0.62848100  1
  O  O31  1  0.28127200  0.92793600  0.62848100  1
  O  O32  1  0.37917500  0.17416100  0.69307100  1
  O  O33  1  0.79498600  0.62082500  0.69307100  1
  O  O34  1  0.82583900  0.20501400  0.69307100  1
  O  O35  1  0.61718400  0.82396700  0.19037300  1
  O  O36  1  0.20678300  0.38281600  0.19037300  1
  O  O37  1  0.17603300  0.79321700  0.19037300  1
loop_
_geom_bond_atom_site_label_1
_geom_bond_atom_site_label_2
_geom_bond_distance
_geom_bond_site_symmetry_2
Mg0 O14 2.064928 1_555
Mg0 O15 2.064928 1_445
Mg0 O16 2.064936 1_455
Mg0 O18 2.079648 1_555
Mg0 O17 2.079648 1_445
Mg0 O19 2.079648 1_545
Mg1 O0 2.027747 1_555
Mg1 O26 2.031943 1_555
Mg1 O32 2.053667 1_555
Mg1 O23 2.060652 1_555
Mg1 O9 2.201534 1_555
Mg1 O6 2.234678 1_555
Mg2 O1 2.027752 1_655
Mg2 O27 2.031943 1_555
Mg2 O33 2.053667 1_555
Mg2 O24 2.060652 1_555
Mg2 O10 2.201534 1_555
Mg2 O7 2.234688 1_655
Mg3 O2 2.027758 1_545
Mg3 O28 2.031943 1_555
Mg3 O34 2.053667 1_555
Mg3 O25 2.060652 1_555
Mg3 O11 2.201534 1_555
Mg3 O8 2.234680 1_545
Mg4 O3 2.029620 1_556
Mg4 O29 2.040623 1_555
Mg4 O35 2.043827 1_556
Mg4 O20 2.056564 1_555
Mg4 O6 2.207895 1_556
Mg4 O9 2.228547 1_555
Mg5 O4 2.029620 1_456
Mg5 O30 2.040623 1_555
Mg5 O36 2.043827 1_556
Mg5 O21 2.056564 1_555
Mg5 O7 2.207889 1_556
Mg5 O10 2.228547 1_455
Mg6 O5 2.029620 1_566
Mg6 O31 2.040623 1_555
Mg6 O37 2.043827 1_556
Mg6 O22 2.056564 1_555
Mg6 O8 2.207897 1_556
Mg6 O11 2.228547 1_565
Al0 O26 1.849389 1_556
Al0 O20 1.858985 1_555
Al0 O0 1.866064 1_555
Al0 O36 1.869874 1_556
Al0 O9 2.080633 1_555
Al0 O6 2.215919 1_556
Al1 O27 1.849389 1_456
Al1 O21 1.858985 1_555
Al1 O1 1.866061 1_555
Al1 O37 1.869874 1_556
Al1 O10 2.080633 1_455
Al1 O7 2.215922 1_556
Al2 O28 1.849389 1_566
Al2 O22 1.858985 1_555
Al2 O2 1.866067 1_555
Al2 O35 1.869874 1_556
Al2 O11 2.080633 1_565
Al2 O8 2.215914 1_556
Al3 O29 1.848403 1_555
Al3 O3 1.857062 1_555
Al3 O23 1.860935 1_555
Al3 O33 1.880189 1_555
Al3 O6 2.080328 1_555
Al3 O9 2.197507 1_555
Al4 O30 1.848403 1_655
Al4 O4 1.857062 1_555
Al4 O24 1.860935 1_555
Al4 O34 1.880189 1_555
Al4 O7 2.080330 1_655
Al4 O10 2.197507 1_555
Al5 O31 1.848402 1_545
Al5 O5 1.857062 1_555
Al5 O25 1.860935 1_555
Al5 O32 1.880189 1_555
Al5 O8 2.080338 1_545
Al5 O11 2.197507 1_555
H0 O12 0.965748 1_555
H1 O13 0.966959 1_555
H2 O6 0.979376 1_555
H3 O7 0.979367 1_555
H4 O8 0.979367 1_555
H5 O9 0.979726 1_555
H6 O10 0.979726 1_555
H7 O11 0.979726 1_555
O0 Si6 1.645748 1_555
O1 Si7 1.645746 1_555
O2 Si5 1.645739 1_555
O3 Si3 1.642218 1_554
O4 Si4 1.642218 1_554
O5 Si2 1.642218 1_554
O12 Si1 1.607477 1_555
O13 Si0 1.610282 1_556
O14 Si2 1.659212 1_555
O14 Ti0 1.983934 1_556
O15 Si3 1.659212 1_555
O15 Ti0 1.983934 1_666
O16 Si4 1.659201 1_555
O16 Ti0 1.983943 1_656
O17 Si5 1.661019 1_555
O17 Ti0 1.979073 1_665
O18 Si6 1.661019 1_555
O18 Ti0 1.979073 1_555
O19 Si7 1.661019 1_555
O19 Ti0 1.979073 1_565
O20 Si1 1.623762 1_555
O21 Si1 1.623751 1_555
O22 Si1 1.623752 1_555
O23 Si0 1.623859 1_555
O24 Si0 1.623849 1_555
O25 Si0 1.623850 1_555
O26 Si2 1.647560 1_554
O27 Si3 1.647560 1_554
O28 Si4 1.647560 1_554
O29 Si5 1.648291 1_555
O30 Si6 1.648291 1_555
O31 Si7 1.648291 1_555
O32 Si2 1.668335 1_555
O33 Si3 1.668335 1_555
O34 Si4 1.668335 1_555
O35 Si5 1.667016 1_555
O36 Si6 1.667016 1_555
O37 Si7 1.667016 1_555
