# generated using pymatgen
data_TeW2SeS2
_symmetry_space_group_name_H-M   'P 1'
_cell_length_a   3.30660618
_cell_length_b   3.30660618
_cell_length_c   37.68015600
_cell_angle_alpha   90.00000000
_cell_angle_beta   90.00000000
_cell_angle_gamma   120.00000353
_symmetry_Int_Tables_number   1
_chemical_formula_structural   TeW2SeS2
_chemical_formula_sum   'Te2 W4 Se2 S4'
_cell_volume   356.78636886
_cell_formula_units_Z   2
loop_
 _symmetry_equiv_pos_site_id
 _symmetry_equiv_pos_as_xyz
  1  'x, y, z'
loop_
 _atom_site_type_symbol
 _atom_site_label
 _atom_site_symmetry_multiplicity
 _atom_site_fract_x
 _atom_site_fract_y
 _atom_site_fract_z
 _atom_site_occupancy
  Te  Te0  1  0.33333300  0.66666700  0.33280100  1
  Te  Te1  1  0.33333300  0.66666700  0.23079800  1
  W  W0  1  0.33333300  0.66666700  0.09390200  1
  W  W1  1  0.33333300  0.66666700  0.46968100  1
  W  W2  1  0.66666700  0.33333300  0.28179200  1
  W  W3  1  0.66666700  0.33333300  0.65753100  1
  Se  Se0  1  0.33333300  0.66666700  0.70229100  1
  Se  Se1  1  0.33333300  0.66666700  0.61277000  1
  S  S0  1  0.66666700  0.33333300  0.05320900  1
  S  S1  1  0.66666700  0.33333300  0.42898800  1
  S  S2  1  0.66666700  0.33333300  0.13460300  1
  S  S3  1  0.66666700  0.33333300  0.51038100  1
loop_
_geom_bond_atom_site_label_1
_geom_bond_atom_site_label_2
_geom_bond_distance
_geom_bond_site_symmetry_2
Te0 W2 2.709009 1_455
Te0 W2 2.709009 1_565
Te0 W2 2.709013 1_555
Te1 W2 2.708608 1_455
Te1 W2 2.708608 1_565
Te1 W2 2.708612 1_555
Se0 W3 2.547359 1_455
Se0 W3 2.547359 1_565
Se0 W3 2.547363 1_555
Se1 W3 2.547384 1_455
Se1 W3 2.547384 1_565
Se1 W3 2.547388 1_555
S0 W0 2.448593 1_545
S0 W0 2.448593 1_655
S0 W0 2.448597 1_555
S1 W1 2.448593 1_545
S1 W1 2.448593 1_655
S1 W1 2.448597 1_555
S2 W0 2.448782 1_545
S2 W0 2.448782 1_655
S2 W0 2.448786 1_555
S3 W1 2.448758 1_545
S3 W1 2.448758 1_655
S3 W1 2.448762 1_555
