# generated using pymatgen
data_CeMg14Fe
_symmetry_space_group_name_H-M   'P 1'
_cell_length_a   6.51424199
_cell_length_b   5.91653243
_cell_length_c   10.38589210
_cell_angle_alpha   90.00000000
_cell_angle_beta   90.00000000
_cell_angle_gamma   117.00851705
_symmetry_Int_Tables_number   1
_chemical_formula_structural   CeMg14Fe
_chemical_formula_sum   'Ce1 Mg14 Fe1'
_cell_volume   356.63414998
_cell_formula_units_Z   1
loop_
 _symmetry_equiv_pos_site_id
 _symmetry_equiv_pos_as_xyz
  1  'x, y, z'
loop_
 _atom_site_type_symbol
 _atom_site_label
 _atom_site_symmetry_multiplicity
 _atom_site_fract_x
 _atom_site_fract_y
 _atom_site_fract_z
 _atom_site_occupancy
  Ce  Ce0  1  0.12507846  0.81253873  0.12500000  1
  Mg  Mg0  1  0.15123181  0.32561540  0.62500000  1
  Mg  Mg1  1  0.16569018  0.83284459  0.62500000  1
  Mg  Mg2  1  0.61756231  0.31723411  0.12500000  1
  Mg  Mg3  1  0.65493460  0.32430692  0.62500000  1
  Mg  Mg4  1  0.61756231  0.80032719  0.12500000  1
  Mg  Mg5  1  0.65493460  0.83062667  0.62500000  1
  Mg  Mg6  1  0.34848911  0.17675615  0.37343285  1
  Mg  Mg7  1  0.34848911  0.17675615  0.87656715  1
  Mg  Mg8  1  0.34848911  0.67173396  0.37343285  1
  Mg  Mg9  1  0.34848911  0.67173396  0.87656715  1
  Mg  Mg10  1  0.88097331  0.19048716  0.33566757  1
  Mg  Mg11  1  0.88097331  0.19048716  0.91433243  1
  Mg  Mg12  1  0.83919544  0.66959822  0.39222117  1
  Mg  Mg13  1  0.83919544  0.66959822  0.85777883  1
  Fe  Fe0  1  0.17871181  0.33935541  0.12500000  1
loop_
_geom_bond_atom_site_label_1
_geom_bond_atom_site_label_2
_geom_bond_distance
_geom_bond_site_symmetry_2
Ce0 Fe0 2.974598 1_555
Ce0 Fe0 2.974598 1_565
Ce0 Mg12 3.233484 1_455
Ce0 Mg13 3.233484 1_454
Ce0 Mg2 3.241608 1_565
Ce0 Mg4 3.241609 1_555
Ce0 Mg8 3.251254 1_555
Ce0 Mg9 3.251254 1_554
Ce0 Mg6 3.251259 1_565
Ce0 Mg7 3.251259 1_564
Ce0 Mg2 3.273905 1_455
Ce0 Mg4 3.273906 1_455
Mg0 Mg1 2.959456 1_545
Mg0 Mg1 2.959456 1_555
Mg0 Mg7 3.206432 1_555
Mg0 Mg6 3.206432 1_555
Mg0 Mg9 3.206437 1_555
Mg0 Mg8 3.206437 1_555
Mg0 Mg5 3.229492 1_445
Mg0 Mg3 3.229492 1_455
Mg0 Mg5 3.284765 1_555
Mg0 Mg3 3.284765 1_555
Mg0 Mg10 3.389712 1_455
Mg0 Mg11 3.389712 1_455
Mg1 Mg13 3.071733 1_455
Mg1 Mg12 3.071733 1_455
Mg1 Mg9 3.191240 1_555
Mg1 Mg8 3.191240 1_555
Mg1 Mg7 3.191246 1_565
Mg1 Mg6 3.191246 1_565
Mg1 Mg3 3.193037 1_565
Mg1 Mg5 3.193037 1_555
Mg1 Mg3 3.321247 1_455
Mg1 Mg5 3.321247 1_455
Mg2 Mg6 3.016187 1_555
Mg2 Mg7 3.016187 1_554
Mg3 Mg5 2.920875 1_545
Mg3 Mg5 2.995657 1_555
Mg3 Mg7 3.160824 1_555
Mg3 Mg6 3.160824 1_555
Mg4 Mg8 3.016187 1_555
Mg4 Mg9 3.016187 1_554
Mg5 Mg9 3.160824 1_555
Mg5 Mg8 3.160824 1_555
Mg6 Mg8 2.928552 1_555
Mg6 Mg8 2.987980 1_545
Mg7 Mg9 2.928552 1_555
Mg7 Mg9 2.987980 1_545
Mg10 Mg12 3.025743 1_555
Mg10 Mg12 3.025743 1_545
Mg10 Mg8 3.108101 1_655
Mg10 Mg6 3.108101 1_655
Mg10 Mg8 3.454937 1_545
Mg10 Mg6 3.454937 1_555
Mg11 Mg13 3.025743 1_555
Mg11 Mg13 3.025743 1_545
Mg11 Mg9 3.108101 1_655
Mg11 Mg7 3.108101 1_655
Mg11 Mg9 3.454937 1_545
Mg11 Mg7 3.454937 1_555
Mg12 Mg5 3.038417 1_555
Mg12 Mg3 3.038423 1_555
Mg12 Mg6 3.208277 1_555
Mg12 Mg8 3.208278 1_555
Mg12 Mg6 3.317686 1_665
Mg12 Mg8 3.317686 1_655
Mg12 Mg4 3.376303 1_555
Mg12 Mg2 3.376308 1_555
Mg13 Mg5 3.038417 1_555
Mg13 Mg3 3.038423 1_555
Mg13 Mg7 3.208277 1_555
Mg13 Mg9 3.208278 1_555
Mg13 Mg7 3.317686 1_665
Mg13 Mg9 3.317686 1_655
Mg13 Mg4 3.376303 1_556
Mg13 Mg2 3.376308 1_556
Fe0 Mg10 2.788054 1_455
Fe0 Mg11 2.788054 1_454
Fe0 Mg4 2.920543 1_555
Fe0 Mg2 2.920543 1_555
Fe0 Mg6 3.126087 1_555
Fe0 Mg7 3.126087 1_554
Fe0 Mg8 3.126093 1_555
Fe0 Mg9 3.126093 1_554
