# generated using pymatgen
data_Ni3TeO6
_symmetry_space_group_name_H-M   'P 1'
_cell_length_a   5.44156158
_cell_length_b   5.44153085
_cell_length_c   5.44156573
_cell_angle_alpha   55.89987284
_cell_angle_beta   55.89977091
_cell_angle_gamma   55.90020238
_symmetry_Int_Tables_number   1
_chemical_formula_structural   Ni3TeO6
_chemical_formula_sum   'Ni3 Te1 O6'
_cell_volume   103.10702225
_cell_formula_units_Z   1
loop_
 _symmetry_equiv_pos_site_id
 _symmetry_equiv_pos_as_xyz
  1  'x, y, z'
loop_
 _atom_site_type_symbol
 _atom_site_label
 _atom_site_symmetry_multiplicity
 _atom_site_fract_x
 _atom_site_fract_y
 _atom_site_fract_z
 _atom_site_occupancy
  Ni  Ni0  1  0.01335670  0.01334599  0.01333970  1
  Ni  Ni1  1  0.21650841  0.21652881  0.21652095  1
  Ni  Ni2  1  0.50726296  0.50727950  0.50727388  1
  Te  Te0  1  0.70861361  0.70860487  0.70860388  1
  O  O0  1  0.08902404  0.80990707  0.43661161  1
  O  O1  1  0.80990684  0.43661839  0.08901740  1
  O  O2  1  0.43661842  0.08902204  0.80989852  1
  O  O3  1  0.32387394  0.61215854  0.91426429  1
  O  O4  1  0.91425103  0.32386559  0.61216715  1
  O  O5  1  0.61215904  0.91424520  0.32387762  1
loop_
_geom_bond_atom_site_label_1
_geom_bond_atom_site_label_2
_geom_bond_distance
_geom_bond_site_symmetry_2
Ni0 O3 2.018346 1_544
Ni0 O4 2.018356 1_454
Ni0 O5 2.018448 1_445
Ni0 O2 2.095993 1_554
Ni0 O0 2.096031 1_545
Ni0 O1 2.096040 1_455
Ni1 O3 2.010903 1_554
Ni1 O4 2.010918 1_455
Ni1 O5 2.011000 1_545
Ni1 O1 2.151625 1_455
Ni1 O0 2.151637 1_545
Ni1 O2 2.151705 1_554
Ni2 O0 2.026866 1_555
Ni2 O2 2.026887 1_555
Ni2 O1 2.026935 1_555
Ni2 O5 2.127533 1_555
Ni2 O3 2.127628 1_555
Ni2 O4 2.127634 1_555
O0 Te0 1.925810 1_455
O1 Te0 1.925812 1_554
O2 Te0 1.925826 1_545
O3 Te0 1.963989 1_555
O4 Te0 1.963982 1_555
O5 Te0 1.963978 1_555
