# generated using pymatgen
data_Y4Fe13Si2(SbO14)2
_symmetry_space_group_name_H-M   'P 1'
_cell_length_a   5.70271797
_cell_length_b   9.54613961
_cell_length_c   12.33386544
_cell_angle_alpha   87.58609804
_cell_angle_beta   76.67701545
_cell_angle_gamma   79.80249328
_symmetry_Int_Tables_number   1
_chemical_formula_structural   Y4Fe13Si2(SbO14)2
_chemical_formula_sum   'Y4 Fe13 Si2 Sb2 O28'
_cell_volume   643.04999949
_cell_formula_units_Z   1
loop_
 _symmetry_equiv_pos_site_id
 _symmetry_equiv_pos_as_xyz
  1  'x, y, z'
loop_
 _atom_site_type_symbol
 _atom_site_label
 _atom_site_symmetry_multiplicity
 _atom_site_fract_x
 _atom_site_fract_y
 _atom_site_fract_z
 _atom_site_occupancy
  Y  Y0  1  0.07253400  0.65642700  0.41135300  1
  Y  Y1  1  0.51467200  0.34579200  0.41167000  1
  Y  Y2  1  0.92625200  0.34694800  0.58836400  1
  Y  Y3  1  0.48451400  0.65683300  0.58784900  1
  Fe  Fe0  1  0.92186600  0.64676200  0.73733300  1
  Fe  Fe1  1  0.66419400  0.31635500  0.12566100  1
  Fe  Fe2  1  0.34327600  0.35423600  0.73728800  1
  Fe  Fe3  1  0.07902200  0.35316200  0.26289400  1
  Fe  Fe4  1  0.33604400  0.68285000  0.87410500  1
  Fe  Fe5  1  0.28739600  0.00098600  0.42451000  1
  Fe  Fe6  1  0.20871400  0.68235700  0.12621600  1
  Fe  Fe7  1  0.99973000  0.00032600  0.00019100  1
  Fe  Fe8  1  0.42722400  0.99870700  0.14910700  1
  Fe  Fe9  1  0.79112500  0.31667800  0.87337600  1
  Fe  Fe10  1  0.65808300  0.64587500  0.26213500  1
  Fe  Fe11  1  0.57607300  0.99918100  0.85118600  1
  Fe  Fe12  1  0.71240300  0.00093400  0.57693700  1
  Si  Si0  1  0.24370000  0.28023300  0.99996400  1
  Si  Si1  1  0.75701000  0.71813700  0.99980400  1
  Sb  Sb0  1  0.85532900  0.99990400  0.28643100  1
  Sb  Sb1  1  0.14263300  0.00043500  0.71395200  1
  O  O0  1  0.71438700  0.40920200  0.25612500  1
  O  O1  1  0.12691200  0.39096700  0.41948300  1
  O  O2  1  0.95547700  0.33696000  0.99957900  1
  O  O3  1  0.29528000  0.10409300  0.00003100  1
  O  O4  1  0.87284000  0.61038600  0.58010600  1
  O  O5  1  0.28725900  0.59056800  0.74289900  1
  O  O6  1  0.00961400  0.11190000  0.58744000  1
  O  O7  1  0.97697200  0.89324200  0.41972300  1
  O  O8  1  0.70675800  0.89415100  0.99982500  1
  O  O9  1  0.12070600  0.89620200  0.16072500  1
  O  O10  1  0.31373900  0.33732600  0.11082500  1
  O  O11  1  0.02785600  0.58931900  0.25693100  1
  O  O12  1  0.39654400  0.89318200  0.58146000  1
  O  O13  1  0.72486600  0.10196400  0.15734100  1
  O  O14  1  0.57453700  0.66137900  0.11017500  1
  O  O15  1  0.04539200  0.66100000  0.99975400  1
  O  O16  1  0.28070400  0.89699300  0.84061400  1
  O  O17  1  0.88190200  0.10224900  0.84248500  1
  O  O18  1  0.59509700  0.11035500  0.41272000  1
  O  O19  1  0.11396400  0.11916100  0.29370600  1
  O  O20  1  0.88742400  0.87901000  0.70816300  1
  O  O21  1  0.42535800  0.33803100  0.88967900  1
  O  O22  1  0.41086900  0.11859300  0.70679000  1
  O  O23  1  0.54593200  0.39136700  0.58049700  1
  O  O24  1  0.68653300  0.66112500  0.88907100  1
  O  O25  1  0.59568900  0.87782700  0.29087100  1
  O  O26  1  0.97274700  0.41065400  0.74345300  1
  O  O27  1  0.45284700  0.60967500  0.41920300  1
loop_
_geom_bond_atom_site_label_1
_geom_bond_atom_site_label_2
_geom_bond_distance
_geom_bond_site_symmetry_2
Fe0 O24 2.030106 1_555
Fe0 O4 2.073713 1_555
Fe0 O5 2.073995 1_655
Fe0 O20 2.212377 1_555
Fe0 O26 2.221315 1_555
Fe1 O0 1.969529 1_555
Fe1 O10 2.022756 1_555
Fe1 O2 2.028702 1_554
Fe1 O13 2.050658 1_555
Fe2 O21 2.032530 1_555
Fe2 O23 2.063558 1_555
Fe2 O26 2.070544 1_455
Fe2 O5 2.223603 1_555
Fe2 O22 2.246702 1_555
Fe3 O10 2.031638 1_555
Fe3 O1 2.066794 1_555
Fe3 O0 2.073516 1_455
Fe3 O11 2.221671 1_555
Fe3 O19 2.231547 1_555
Fe4 O5 1.971454 1_555
Fe4 O24 2.022890 1_555
Fe4 O15 2.025795 1_555
Fe4 O16 2.051745 1_555
Fe5 O18 2.169926 1_555
Fe5 O7 2.212057 1_445
Fe5 O19 2.245138 1_555
Fe5 O25 2.299092 1_545
Fe5 O12 2.313985 1_545
Fe5 O6 2.405614 1_555
Fe6 O11 1.972105 1_555
Fe6 O14 2.024006 1_555
Fe6 O15 2.026193 1_554
Fe6 O9 2.052390 1_555
Fe7 O3 2.100335 1_655
Fe7 O8 2.102892 1_544
Fe7 O13 2.318384 1_555
Fe7 O17 2.322315 1_554
Fe7 O16 2.358961 1_644
Fe7 O9 2.367559 1_645
Fe8 O9 2.124122 1_555
Fe8 O13 2.131499 1_565
Fe8 O8 2.272924 1_554
Fe8 O3 2.274378 1_565
Fe8 O25 2.350206 1_555
Fe8 O19 2.381451 1_565
Fe9 O26 1.971900 1_555
Fe9 O21 2.022973 1_555
Fe9 O2 2.025059 1_555
Fe9 O17 2.050078 1_555
Fe10 O14 2.030996 1_555
Fe10 O11 2.068741 1_655
Fe10 O27 2.069796 1_555
Fe10 O25 2.210006 1_555
Fe10 O0 2.226963 1_555
Fe11 O16 2.121221 1_555
Fe11 O17 2.129262 1_565
Fe11 O8 2.265375 1_555
Fe11 O3 2.273675 1_566
Fe11 O22 2.362380 1_565
Fe11 O20 2.363487 1_555
Fe12 O6 2.181763 1_655
Fe12 O12 2.215983 1_545
Fe12 O22 2.232021 1_555
Fe12 O20 2.268257 1_545
Fe12 O7 2.315933 1_545
Fe12 O18 2.416565 1_555
O0 Y1 2.117393 1_555
O1 Y1 2.157007 1_555
O1 Y2 2.196070 1_455
O1 Y0 2.498529 1_555
O2 Si0 1.638014 1_655
O3 Si0 1.654898 1_554
O4 Y3 2.160604 1_555
O4 Y0 2.197708 1_655
O4 Y2 2.479707 1_555
O5 Y3 2.116904 1_555
O6 Sb1 2.064535 1_555
O6 Y2 2.209690 1_455
O7 Sb0 2.086917 1_555
O7 Y0 2.230644 1_655
O8 Si1 1.653748 1_555
O9 Sb0 2.047333 1_455
O10 Si0 1.648564 1_554
O11 Y0 2.118282 1_555
O12 Sb1 2.083459 1_565
O12 Y3 2.225056 1_555
O13 Sb0 2.048510 1_545
O14 Si1 1.647478 1_554
O15 Si1 1.638301 1_455
O16 Sb1 2.048731 1_565
O17 Sb1 2.049482 1_655
O18 Sb0 2.063788 1_545
O18 Y1 2.212947 1_555
O19 Sb0 2.035596 1_445
O20 Sb1 2.029545 1_665
O21 Si0 1.648510 1_555
O22 Sb1 2.039669 1_555
O23 Y2 2.158946 1_555
O23 Y1 2.198146 1_555
O23 Y3 2.498676 1_555
O24 Si1 1.648059 1_555
O25 Sb0 2.030181 1_555
O26 Y2 2.118482 1_555
O27 Y0 2.159337 1_555
O27 Y3 2.200612 1_555
O27 Y1 2.483699 1_555
