# generated using pymatgen
data_LaFeCuNi3
_symmetry_space_group_name_H-M   'P 1'
_cell_length_a   5.08202633
_cell_length_b   5.08202633
_cell_length_c   3.94092600
_cell_angle_alpha   90.00000000
_cell_angle_beta   90.00000000
_cell_angle_gamma   120.00000430
_symmetry_Int_Tables_number   1
_chemical_formula_structural   LaFeCuNi3
_chemical_formula_sum   'La1 Fe1 Cu1 Ni3'
_cell_volume   88.14602140
_cell_formula_units_Z   1
loop_
 _symmetry_equiv_pos_site_id
 _symmetry_equiv_pos_as_xyz
  1  'x, y, z'
loop_
 _atom_site_type_symbol
 _atom_site_label
 _atom_site_symmetry_multiplicity
 _atom_site_fract_x
 _atom_site_fract_y
 _atom_site_fract_z
 _atom_site_occupancy
  La  La0  1  0.66666700  0.33333300  0.00000000  1
  Fe  Fe0  1  0.33333300  0.66666700  0.00000000  1
  Cu  Cu0  1  0.00000000  0.00000000  0.00000000  1
  Ni  Ni0  1  0.16805200  0.33610300  0.50000000  1
  Ni  Ni1  1  0.66389700  0.83194800  0.50000000  1
  Ni  Ni2  1  0.16805200  0.83194800  0.50000000  1
loop_
_geom_bond_atom_site_label_1
_geom_bond_atom_site_label_2
_geom_bond_distance
_geom_bond_site_symmetry_2
La0 Ni2 3.215528 1_654
La0 Ni2 3.215528 1_655
La0 Ni2 3.215528 1_544
La0 Ni2 3.215528 1_545
La0 Ni0 3.215528 1_654
La0 Ni0 3.215528 1_655
La0 Ni1 3.215528 1_545
La0 Ni1 3.215528 1_544
La0 Ni1 3.215528 1_555
La0 Ni1 3.215528 1_554
La0 Ni0 3.215528 1_555
La0 Ni0 3.215528 1_554
Fe0 Ni2 2.449354 1_555
Fe0 Ni2 2.449354 1_554
Fe0 Ni0 2.449359 1_555
Fe0 Ni0 2.449359 1_554
Fe0 Ni1 2.449359 1_554
Fe0 Ni1 2.449359 1_555
Fe0 La0 2.934106 1_455
Fe0 La0 2.934106 1_565
Fe0 La0 2.934115 1_555
Cu0 Ni0 2.463917 1_554
Cu0 Ni0 2.463917 1_555
Cu0 Ni1 2.463917 1_444
Cu0 Ni1 2.463917 1_445
Cu0 Ni2 2.463920 1_544
Cu0 Ni2 2.463920 1_545
Cu0 Fe0 2.934106 1_545
Cu0 La0 2.934106 1_455
Cu0 La0 2.934111 1_555
Cu0 La0 2.934111 1_445
Cu0 Fe0 2.934111 1_555
Cu0 Fe0 2.934111 1_445
Ni0 Ni1 2.519897 1_555
Ni0 Ni2 2.519897 1_555
Ni0 Ni1 2.562129 1_445
Ni0 Ni2 2.562129 1_545
Ni1 Ni2 2.519897 1_555
Ni1 Ni2 2.562129 1_655
