# generated using pymatgen
data_Sm2MgSe4
_symmetry_space_group_name_H-M   'P 1'
_cell_length_a   7.64662131
_cell_length_b   7.64662131
_cell_length_c   7.64662131
_cell_angle_alpha   110.75438954
_cell_angle_beta   110.75438954
_cell_angle_gamma   106.93428234
_symmetry_Int_Tables_number   1
_chemical_formula_structural   Sm2MgSe4
_chemical_formula_sum   'Sm4 Mg2 Se8'
_cell_volume   343.67770452
_cell_formula_units_Z   2
loop_
 _symmetry_equiv_pos_site_id
 _symmetry_equiv_pos_as_xyz
  1  'x, y, z'
loop_
 _atom_site_type_symbol
 _atom_site_label
 _atom_site_symmetry_multiplicity
 _atom_site_fract_x
 _atom_site_fract_y
 _atom_site_fract_z
 _atom_site_occupancy
  Sm  Sm0  1  0.87500000  0.75624300  0.38124300  1
  Sm  Sm1  1  0.50624300  0.12500000  0.88124300  1
  Sm  Sm2  1  0.37500000  0.49375700  0.61875700  1
  Sm  Sm3  1  0.24375700  0.62500000  0.11875700  1
  Mg  Mg0  1  0.00000000  0.00000000  0.00000000  1
  Mg  Mg1  1  0.75000000  0.25000000  0.50000000  1
  Se  Se0  1  0.50658400  0.37695500  0.26474400  1
  Se  Se1  1  0.75816000  0.49341600  0.87037000  1
  Se  Se2  1  0.11221000  0.24184000  0.73525600  1
  Se  Se3  1  0.62304500  0.88779000  0.12963000  1
  Se  Se4  1  0.24341600  0.00816000  0.37037000  1
  Se  Se5  1  0.99184000  0.36221000  0.23525600  1
  Se  Se6  1  0.63779000  0.87304500  0.62963000  1
  Se  Se7  1  0.12695500  0.75658400  0.76474400  1
loop_
_geom_bond_atom_site_label_1
_geom_bond_atom_site_label_2
_geom_bond_distance
_geom_bond_site_symmetry_2
Mg0 Se6 2.749577 1_444
Mg0 Se5 2.749579 1_455
Mg0 Se4 2.749579 1_555
Mg0 Se7 2.749585 1_544
Mg0 Se2 3.348742 1_554
Mg0 Se1 3.348742 1_444
Mg0 Se0 3.348744 1_555
Mg0 Se3 3.348748 1_445
Mg1 Se3 2.749577 1_545
Mg1 Se1 2.749579 1_555
Mg1 Se2 2.749579 1_655
Mg1 Se0 2.749585 1_555
Mg1 Se4 3.348742 1_555
Mg1 Se5 3.348742 1_555
Mg1 Se7 3.348744 1_655
Mg1 Se6 3.348748 1_545
Se0 Sm1 2.880769 1_554
Se0 Sm0 2.961761 1_555
Se0 Sm2 3.142979 1_555
Se0 Sm3 3.318715 1_555
Se1 Sm2 2.880767 1_555
Se1 Sm1 2.961765 1_555
Se1 Sm3 3.142980 1_656
Se1 Sm0 3.318722 1_556
Se2 Sm3 2.880767 1_556
Se2 Sm2 2.961765 1_555
Se2 Sm0 3.142980 1_445
Se2 Sm1 3.318722 1_555
Se3 Sm0 2.880771 1_555
Se3 Sm3 2.961759 1_555
Se3 Sm1 3.142978 1_564
Se3 Sm2 3.318722 1_554
Se4 Sm3 2.880767 1_545
Se4 Sm0 2.961765 1_445
Se4 Sm2 3.142980 1_555
Se4 Sm1 3.318722 1_555
Se5 Sm2 2.880767 1_655
Se5 Sm3 2.961765 1_655
Se5 Sm1 3.142980 1_554
Se5 Sm0 3.318722 1_555
Se6 Sm1 2.880771 1_565
Se6 Sm2 2.961759 1_555
Se6 Sm0 3.142978 1_555
Se6 Sm3 3.318722 1_555
Se7 Sm0 2.880769 1_455
Se7 Sm1 2.961761 1_565
Se7 Sm3 3.142979 1_556
Se7 Sm2 3.318715 1_555
