# generated using pymatgen
data_Li4MnCo2O7
_symmetry_space_group_name_H-M   'P 1'
_cell_length_a   7.77857889
_cell_length_b   7.77857889
_cell_length_c   12.91777841
_cell_angle_alpha   61.97508042
_cell_angle_beta   61.97508042
_cell_angle_gamma   21.56938615
_symmetry_Int_Tables_number   1
_chemical_formula_structural   Li4MnCo2O7
_chemical_formula_sum   'Li8 Mn2 Co4 O14'
_cell_volume   252.34070075
_cell_formula_units_Z   2
loop_
 _symmetry_equiv_pos_site_id
 _symmetry_equiv_pos_as_xyz
  1  'x, y, z'
loop_
 _atom_site_type_symbol
 _atom_site_label
 _atom_site_symmetry_multiplicity
 _atom_site_fract_x
 _atom_site_fract_y
 _atom_site_fract_z
 _atom_site_occupancy
  Li  Li0  1  0.00000000  0.00000000  0.50000000  1
  Li  Li1  1  0.28655300  0.28655300  0.07009000  1
  Li  Li2  1  0.57302800  0.57302800  0.65221600  1
  Li  Li3  1  0.42697200  0.42697200  0.34778400  1
  Li  Li4  1  0.71344700  0.71344700  0.92991000  1
  Li  Li5  1  0.87201600  0.87201600  0.19507600  1
  Li  Li6  1  0.12798400  0.12798400  0.80492400  1
  Li  Li7  1  0.50000000  0.50000000  0.00000000  1
  Mn  Mn0  1  0.35924200  0.35924200  0.71642400  1
  Mn  Mn1  1  0.64075800  0.64075800  0.28357600  1
  Co  Co0  1  0.93100700  0.93100700  0.87432000  1
  Co  Co1  1  0.21605300  0.21605300  0.42776000  1
  Co  Co2  1  0.78394700  0.78394700  0.57224000  1
  Co  Co3  1  0.06899300  0.06899300  0.12568000  1
  O  O0  1  0.95447200  0.95447200  0.67867000  1
  O  O1  1  0.23565700  0.23565700  0.25592700  1
  O  O2  1  0.53181800  0.53181800  0.82016400  1
  O  O3  1  0.38352800  0.38352800  0.54840700  1
  O  O4  1  0.66815900  0.66815900  0.12570900  1
  O  O5  1  0.81332600  0.81332600  0.39975300  1
  O  O6  1  0.11039400  0.11039400  0.97114800  1
  O  O7  1  0.04552800  0.04552800  0.32133000  1
  O  O8  1  0.33184100  0.33184100  0.87429100  1
  O  O9  1  0.61647200  0.61647200  0.45159300  1
  O  O10  1  0.46818200  0.46818200  0.17983600  1
  O  O11  1  0.76434300  0.76434300  0.74407300  1
  O  O12  1  0.88960600  0.88960600  0.02885200  1
  O  O13  1  0.18667400  0.18667400  0.60024700  1
loop_
_geom_bond_atom_site_label_1
_geom_bond_atom_site_label_2
_geom_bond_distance
_geom_bond_site_symmetry_2
Li0 O7 2.067577 1_555
Li0 O0 2.067577 1_445
Li0 O9 2.147813 1_455
Li0 O9 2.147813 1_545
Li0 O3 2.147813 1_545
Li0 O3 2.147813 1_455
Li1 O12 2.019914 1_455
Li1 O12 2.019914 1_545
Li1 O1 2.140487 1_555
Li1 O4 2.159838 1_545
Li1 O4 2.159838 1_455
Li1 O8 2.280730 1_554
Li2 O2 1.948431 1_555
Li2 O13 2.114301 1_565
Li2 O13 2.114301 1_655
Li2 O0 2.219395 1_545
Li2 O0 2.219395 1_455
Li2 O9 2.347602 1_555
Li3 O10 1.948431 1_555
Li3 O5 2.114301 1_455
Li3 O5 2.114301 1_545
Li3 O7 2.219395 1_565
Li3 O7 2.219395 1_655
Li3 O3 2.347602 1_555
Li4 O6 2.019914 1_655
Li4 O6 2.019914 1_565
Li4 O11 2.140487 1_555
Li4 O8 2.159838 1_655
Li4 O8 2.159838 1_565
Li4 O4 2.280730 1_556
Li5 O10 2.010069 1_655
Li5 O10 2.010069 1_565
Li5 O12 2.032426 1_555
Li5 O1 2.347773 1_655
Li5 O1 2.347773 1_565
Li5 O5 2.350856 1_555
Li6 O2 2.010069 1_455
Li6 O2 2.010069 1_545
Li6 O6 2.032426 1_555
Li6 O11 2.347773 1_455
Li6 O11 2.347773 1_545
Li6 O13 2.350856 1_555
Li7 O6 2.121837 1_654
Li7 O6 2.121837 1_564
Li7 O12 2.121837 1_455
Li7 O12 2.121837 1_545
Li7 O10 2.133673 1_555
Li7 O2 2.133673 1_554
Mn0 O8 1.875409 1_555
Mn0 O0 1.948187 1_545
Mn0 O0 1.948187 1_455
Mn0 O11 1.963137 1_455
Mn0 O11 1.963137 1_545
Mn0 O3 2.019363 1_555
Mn1 O4 1.875409 1_555
Mn1 O7 1.948187 1_565
Mn1 O7 1.948187 1_655
Mn1 O1 1.963137 1_655
Mn1 O1 1.963137 1_565
Mn1 O9 2.019363 1_555
Co0 O12 1.782404 1_556
Co0 O2 1.987578 1_565
Co0 O2 1.987578 1_655
Co0 O8 2.101379 1_655
Co0 O8 2.101379 1_565
Co0 O0 2.376799 1_555
Co1 O5 1.986155 1_545
Co1 O5 1.986155 1_455
Co1 O9 2.020174 1_455
Co1 O9 2.020174 1_545
Co1 O13 2.051644 1_555
Co1 O1 2.093006 1_555
Co2 O13 1.986155 1_655
Co2 O13 1.986155 1_565
Co2 O3 2.020174 1_565
Co2 O3 2.020174 1_655
Co2 O5 2.051644 1_555
Co2 O11 2.093006 1_555
Co3 O6 1.782404 1_554
Co3 O10 1.987578 1_455
Co3 O10 1.987578 1_545
Co3 O4 2.101379 1_545
Co3 O4 2.101379 1_455
Co3 O7 2.376799 1_555
