# generated using pymatgen
data_Ca(GaS2)2
_symmetry_space_group_name_H-M   'P 1'
_cell_length_a   5.89928394
_cell_length_b   5.89928394
_cell_length_c   10.19600526
_cell_angle_alpha   90.00000000
_cell_angle_beta   90.00000000
_cell_angle_gamma   118.76331716
_symmetry_Int_Tables_number   1
_chemical_formula_structural   Ca(GaS2)2
_chemical_formula_sum   'Ca2 Ga4 S8'
_cell_volume   311.05523668
_cell_formula_units_Z   2
loop_
 _symmetry_equiv_pos_site_id
 _symmetry_equiv_pos_as_xyz
  1  'x, y, z'
loop_
 _atom_site_type_symbol
 _atom_site_label
 _atom_site_symmetry_multiplicity
 _atom_site_fract_x
 _atom_site_fract_y
 _atom_site_fract_z
 _atom_site_occupancy
  Ca  Ca0  1  0.50000000  0.50000000  0.75000000  1
  Ca  Ca1  1  0.50000000  0.50000000  0.25000000  1
  Ga  Ga0  1  0.76761196  0.23554478  0.50000000  1
  Ga  Ga1  1  0.23238804  0.76445522  0.50000000  1
  Ga  Ga2  1  0.76445522  0.23238804  0.00000000  1
  Ga  Ga3  1  0.23554478  0.76761196  0.00000000  1
  S  S0  1  0.35409764  0.19140268  0.50000000  1
  S  S1  1  0.64590236  0.80859732  0.50000000  1
  S  S2  1  0.80859732  0.64590236  0.00000000  1
  S  S3  1  0.19140268  0.35409764  0.00000000  1
  S  S4  1  0.50000000  0.00000000  0.83037472  1
  S  S5  1  -0.00000000  0.50000000  0.66962528  1
  S  S6  1  0.50000000  0.00000000  0.16962528  1
  S  S7  1  -0.00000000  0.50000000  0.33037472  1
loop_
_geom_bond_atom_site_label_1
_geom_bond_atom_site_label_2
_geom_bond_distance
_geom_bond_site_symmetry_2
Ca0 S1 3.007403 1_555
Ca0 S2 3.007403 1_556
Ca0 S3 3.007403 1_556
Ca0 S0 3.007403 1_555
Ca0 S4 3.061367 1_555
Ca0 S5 3.061367 1_555
Ca0 S5 3.061367 1_655
Ca0 S4 3.061367 1_565
Ca1 S1 3.007403 1_555
Ca1 S2 3.007403 1_555
Ca1 S0 3.007403 1_555
Ca1 S3 3.007403 1_555
Ca1 S6 3.061367 1_565
Ca1 S7 3.061367 1_555
Ca1 S7 3.061367 1_655
Ca1 S6 3.061367 1_555
Ga0 S1 2.262499 1_545
Ga0 S5 2.290454 1_655
Ga0 S7 2.290454 1_655
Ga0 S0 2.325364 1_555
Ga1 S0 2.262499 1_565
Ga1 S7 2.290454 1_555
Ga1 S5 2.290454 1_555
Ga1 S1 2.325364 1_555
Ga2 S3 2.262499 1_655
Ga2 S6 2.290454 1_555
Ga2 S4 2.290454 1_554
Ga2 S2 2.325364 1_555
Ga3 S2 2.262499 1_455
Ga3 S6 2.290454 1_565
Ga3 S4 2.290454 1_564
Ga3 S3 2.325364 1_555
