# generated using pymatgen
data_Mg3BO6
_symmetry_space_group_name_H-M   'P 1'
_cell_length_a   9.10028612
_cell_length_b   9.10028612
_cell_length_c   3.20619100
_cell_angle_alpha   90.00000000
_cell_angle_beta   90.00000000
_cell_angle_gamma   120.00000090
_symmetry_Int_Tables_number   1
_chemical_formula_structural   Mg3BO6
_chemical_formula_sum   'Mg6 B2 O12'
_cell_volume   229.94825221
_cell_formula_units_Z   2
loop_
 _symmetry_equiv_pos_site_id
 _symmetry_equiv_pos_as_xyz
  1  'x, y, z'
loop_
 _atom_site_type_symbol
 _atom_site_label
 _atom_site_symmetry_multiplicity
 _atom_site_fract_x
 _atom_site_fract_y
 _atom_site_fract_z
 _atom_site_occupancy
  Mg  Mg0  1  0.66385500  0.63059200  0.75000000  1
  Mg  Mg1  1  0.96673700  0.33614500  0.75000000  1
  Mg  Mg2  1  0.36940800  0.03326300  0.75000000  1
  Mg  Mg3  1  0.33614500  0.36940800  0.25000000  1
  Mg  Mg4  1  0.03326300  0.66385500  0.25000000  1
  Mg  Mg5  1  0.63059200  0.96673700  0.25000000  1
  B  B0  1  0.66666700  0.33333300  0.25000000  1
  B  B1  1  0.33333300  0.66666700  0.75000000  1
  O  O0  1  0.90638800  0.68410400  0.75000000  1
  O  O1  1  0.77771600  0.09361200  0.75000000  1
  O  O2  1  0.31589600  0.22228400  0.75000000  1
  O  O3  1  0.09361200  0.31589600  0.25000000  1
  O  O4  1  0.22228400  0.90638800  0.25000000  1
  O  O5  1  0.68410400  0.77771600  0.25000000  1
  O  O6  1  0.59648600  0.43898800  0.25000000  1
  O  O7  1  0.84250200  0.40351400  0.25000000  1
  O  O8  1  0.56101200  0.15749800  0.25000000  1
  O  O9  1  0.40351400  0.56101200  0.75000000  1
  O  O10  1  0.15749800  0.59648600  0.75000000  1
  O  O11  1  0.43898800  0.84250200  0.75000000  1
loop_
_geom_bond_atom_site_label_1
_geom_bond_atom_site_label_2
_geom_bond_distance
_geom_bond_site_symmetry_2
Mg0 O0 2.008410 1_555
Mg0 O5 2.037088 1_556
Mg0 O5 2.037088 1_555
Mg0 O9 2.124567 1_555
Mg0 O6 2.217455 1_556
Mg0 O6 2.217455 1_555
Mg1 O1 2.008410 1_555
Mg1 O3 2.037088 1_656
Mg1 O3 2.037088 1_655
Mg1 O10 2.124567 1_655
Mg1 O7 2.217455 1_555
Mg1 O7 2.217455 1_556
Mg2 O2 2.008410 1_555
Mg2 O4 2.037088 1_546
Mg2 O4 2.037088 1_545
Mg2 O11 2.124567 1_545
Mg2 O8 2.217455 1_555
Mg2 O8 2.217455 1_556
Mg3 O3 2.008410 1_555
Mg3 O2 2.037088 1_555
Mg3 O2 2.037088 1_554
Mg3 O6 2.124567 1_555
Mg3 O9 2.217455 1_554
Mg3 O9 2.217455 1_555
Mg4 O4 2.008410 1_555
Mg4 O0 2.037088 1_455
Mg4 O0 2.037088 1_454
Mg4 O7 2.124567 1_455
Mg4 O10 2.217455 1_555
Mg4 O10 2.217455 1_554
Mg5 O5 2.008410 1_555
Mg5 O1 2.037088 1_564
Mg5 O1 2.037088 1_565
Mg5 O8 2.124567 1_565
Mg5 O11 2.217455 1_554
Mg5 O11 2.217455 1_555
B0 O7 1.395138 1_555
B0 O8 1.395139 1_555
B0 O6 1.395146 1_555
B1 O10 1.395138 1_555
B1 O11 1.395139 1_555
B1 O9 1.395146 1_555
