# generated using pymatgen
data_K2AgMoI6
_symmetry_space_group_name_H-M   'P 1'
_cell_length_a   8.26259224
_cell_length_b   8.26259224
_cell_length_c   8.26259224
_cell_angle_alpha   60.00000000
_cell_angle_beta   60.00000000
_cell_angle_gamma   60.00000000
_symmetry_Int_Tables_number   1
_chemical_formula_structural   K2AgMoI6
_chemical_formula_sum   'K2 Ag1 Mo1 I6'
_cell_volume   398.87237938
_cell_formula_units_Z   1
loop_
 _symmetry_equiv_pos_site_id
 _symmetry_equiv_pos_as_xyz
  1  'x, y, z'
loop_
 _atom_site_type_symbol
 _atom_site_label
 _atom_site_symmetry_multiplicity
 _atom_site_fract_x
 _atom_site_fract_y
 _atom_site_fract_z
 _atom_site_occupancy
  K  K0  1  0.75000000  0.75000000  0.75000000  1
  K  K1  1  0.25000000  0.25000000  0.25000000  1
  Ag  Ag0  1  0.50000000  0.50000000  0.50000000  1
  Mo  Mo0  1  0.00000000  0.00000000  0.00000000  1
  I  I0  1  0.75826200  0.24173800  0.24173800  1
  I  I1  1  0.24173800  0.24173800  0.75826200  1
  I  I2  1  0.24173800  0.75826200  0.75826200  1
  I  I3  1  0.24173800  0.75826200  0.24173800  1
  I  I4  1  0.75826200  0.24173800  0.75826200  1
  I  I5  1  0.75826200  0.75826200  0.24173800  1
loop_
_geom_bond_atom_site_label_1
_geom_bond_atom_site_label_2
_geom_bond_distance
_geom_bond_site_symmetry_2
Ag0 I5 3.017810 1_555
Ag0 I4 3.017810 1_555
Ag0 I2 3.017810 1_555
Ag0 I0 3.017810 1_555
Ag0 I1 3.017810 1_555
Ag0 I3 3.017810 1_555
I0 Mo0 2.824725 1_655
I0 K1 4.132424 1_555
I0 K0 4.132424 1_554
I0 K0 4.132424 1_545
I0 K1 4.132424 1_655
I1 Mo0 2.824725 1_556
I1 K1 4.132424 1_555
I1 K0 4.132424 1_455
I1 K0 4.132424 1_545
I1 K1 4.132424 1_556
I2 Mo0 2.824725 1_566
I2 K0 4.132424 1_455
I2 K1 4.132424 1_556
I2 K1 4.132424 1_565
I2 K0 4.132424 1_555
I3 Mo0 2.824725 1_565
I3 K1 4.132424 1_555
I3 K0 4.132424 1_554
I3 K0 4.132424 1_455
I3 K1 4.132424 1_565
I4 Mo0 2.824725 1_656
I4 K0 4.132424 1_545
I4 K1 4.132424 1_556
I4 K1 4.132424 1_655
I4 K0 4.132424 1_555
I5 Mo0 2.824725 1_665
I5 K0 4.132424 1_554
I5 K1 4.132424 1_565
I5 K1 4.132424 1_655
I5 K0 4.132424 1_555
