# generated using pymatgen
data_Mn3(OF2)2
_symmetry_space_group_name_H-M   'P 1'
_cell_length_a   4.66457180
_cell_length_b   9.77756644
_cell_length_c   4.78401117
_cell_angle_alpha   87.41632255
_cell_angle_beta   90.07387332
_cell_angle_gamma   90.14545753
_symmetry_Int_Tables_number   1
_chemical_formula_structural   Mn3(OF2)2
_chemical_formula_sum   'Mn6 O4 F8'
_cell_volume   217.96729626
_cell_formula_units_Z   2
loop_
 _symmetry_equiv_pos_site_id
 _symmetry_equiv_pos_as_xyz
  1  'x, y, z'
loop_
 _atom_site_type_symbol
 _atom_site_label
 _atom_site_symmetry_multiplicity
 _atom_site_fract_x
 _atom_site_fract_y
 _atom_site_fract_z
 _atom_site_occupancy
  Mn  Mn0  1  0.98065600  0.00899400  0.96537300  1
  Mn  Mn1  1  0.01935800  0.65770200  0.03453300  1
  Mn  Mn2  1  0.48016800  0.15805000  0.53664900  1
  Mn  Mn3  1  0.51975800  0.50861700  0.46337800  1
  Mn  Mn4  1  0.50000200  0.83332800  0.49997200  1
  Mn  Mn5  1  0.99995100  0.33331800  0.00006100  1
  O  O0  1  0.82686100  0.50201000  0.19689400  1
  O  O1  1  0.32535600  0.66000700  0.29561800  1
  O  O2  1  0.67463700  0.00663700  0.70439000  1
  O  O3  1  0.17310000  0.16473800  0.80318500  1
  F  F0  1  0.76715900  0.16992700  0.22178200  1
  F  F1  1  0.26427500  0.00210500  0.27872200  1
  F  F2  1  0.73571300  0.66448800  0.72127300  1
  F  F3  1  0.23278400  0.49676100  0.77830700  1
  F  F4  1  0.81007600  0.84707100  0.17867200  1
  F  F5  1  0.30675500  0.31972500  0.31873900  1
  F  F6  1  0.69320600  0.34694100  0.68134200  1
  F  F7  1  0.19018700  0.81957800  0.82111000  1
loop_
_geom_bond_atom_site_label_1
_geom_bond_atom_site_label_2
_geom_bond_distance
_geom_bond_site_symmetry_2
Mn0 O2 1.896005 1_555
Mn0 O3 1.901338 1_655
Mn1 O1 1.896232 1_555
Mn1 O0 1.901366 1_455
Mn2 O2 1.885839 1_555
Mn2 O3 1.922105 1_555
Mn3 O1 1.885551 1_555
Mn3 O0 1.922009 1_555
Mn4 O1 2.152112 1_555
Mn4 O2 2.152148 1_565
Mn5 O3 2.098810 1_654
Mn5 O0 2.099488 1_555
F0 Mn2 2.015748 1_555
F0 Mn5 2.167452 1_555
F0 Mn0 2.271035 1_554
F1 Mn0 1.997046 1_454
F1 Mn4 2.213905 1_545
F1 Mn2 2.240590 1_555
F2 Mn1 1.996807 1_656
F2 Mn4 2.214423 1_555
F2 Mn3 2.240121 1_555
F3 Mn3 2.015911 1_555
F3 Mn5 2.167982 1_456
F3 Mn1 2.270444 1_556
F4 Mn0 2.007731 1_564
F4 Mn4 2.111594 1_555
F4 Mn1 2.232221 1_655
F5 Mn2 2.023789 1_555
F5 Mn5 2.089758 1_455
F5 Mn3 2.231851 1_555
F6 Mn3 2.023986 1_555
F6 Mn5 2.089722 1_556
F6 Mn2 2.232005 1_555
F7 Mn1 2.008120 1_556
F7 Mn4 2.110205 1_555
F7 Mn0 2.233326 1_465
