# generated using pymatgen
data_Zn2H10N12O5
_symmetry_space_group_name_H-M   'P 1'
_cell_length_a   6.00492300
_cell_length_b   10.06713748
_cell_length_c   10.29787238
_cell_angle_alpha   91.41505637
_cell_angle_beta   90.00000000
_cell_angle_gamma   90.00000000
_symmetry_Int_Tables_number   1
_chemical_formula_structural   Zn2H10N12O5
_chemical_formula_sum   'Zn4 H20 N24 O10'
_cell_volume   622.34109932
_cell_formula_units_Z   2
loop_
 _symmetry_equiv_pos_site_id
 _symmetry_equiv_pos_as_xyz
  1  'x, y, z'
loop_
 _atom_site_type_symbol
 _atom_site_label
 _atom_site_symmetry_multiplicity
 _atom_site_fract_x
 _atom_site_fract_y
 _atom_site_fract_z
 _atom_site_occupancy
  Zn  Zn0  1  0.74751200  0.44783900  0.04961200  1
  Zn  Zn1  1  0.25248800  0.55216100  0.95038800  1
  Zn  Zn2  1  0.74751200  0.05216100  0.45038800  1
  Zn  Zn3  1  0.25248800  0.94783900  0.54961200  1
  H  H0  1  0.70346500  0.18683300  0.13489200  1
  H  H1  1  0.29653500  0.81316700  0.86510800  1
  H  H2  1  0.70346500  0.31316700  0.36510800  1
  H  H3  1  0.29653500  0.68683300  0.63489200  1
  H  H4  1  0.60481900  0.19435000  0.99324700  1
  H  H5  1  0.39518100  0.80565000  0.00675300  1
  H  H6  1  0.60481900  0.30565000  0.50675300  1
  H  H7  1  0.39518100  0.69435000  0.49324700  1
  H  H8  1  0.01242700  0.37114000  0.25394300  1
  H  H9  1  0.98757300  0.62886000  0.74605700  1
  H  H10  1  0.01242700  0.12886000  0.24605700  1
  H  H11  1  0.98757300  0.87114000  0.75394300  1
  H  H12  1  0.88092000  0.50162700  0.30335800  1
  H  H13  1  0.11908000  0.49837300  0.69664200  1
  H  H14  1  0.88092000  0.99837300  0.19664200  1
  H  H15  1  0.11908000  0.00162700  0.80335800  1
  H  H16  1  0.32919300  0.25110100  0.17485000  1
  H  H17  1  0.67080700  0.74889900  0.82515000  1
  H  H18  1  0.32919300  0.24889900  0.32515000  1
  H  H19  1  0.67080700  0.75110100  0.67485000  1
  N  N0  1  0.04847100  0.37595900  0.96510900  1
  N  N1  1  0.95152900  0.62404100  0.03489100  1
  N  N2  1  0.04847100  0.12404100  0.53489100  1
  N  N3  1  0.95152900  0.87595900  0.46510900  1
  N  N4  1  0.09858300  0.26459600  0.93072600  1
  N  N5  1  0.90141700  0.73540400  0.06927400  1
  N  N6  1  0.09858300  0.23540400  0.56927400  1
  N  N7  1  0.90141700  0.76459600  0.43072600  1
  N  N8  1  0.15101800  0.15741400  0.89931500  1
  N  N9  1  0.84898200  0.84258600  0.10068500  1
  N  N10  1  0.15101800  0.34258600  0.60068500  1
  N  N11  1  0.84898200  0.65741400  0.39931500  1
  N  N12  1  0.45493700  0.54124000  0.12110200  1
  N  N13  1  0.54506300  0.45876000  0.87889800  1
  N  N14  1  0.45493700  0.95876000  0.37889800  1
  N  N15  1  0.54506300  0.04124000  0.62110200  1
  N  N16  1  0.40166700  0.56812100  0.23161800  1
  N  N17  1  0.59833300  0.43187900  0.76838200  1
  N  N18  1  0.40166700  0.93187900  0.26838200  1
  N  N19  1  0.59833300  0.06812100  0.73161800  1
  N  N20  1  0.34757400  0.59266300  0.33773300  1
  N  N21  1  0.65242600  0.40733700  0.66226700  1
  N  N22  1  0.34757400  0.90733700  0.16226700  1
  N  N23  1  0.65242600  0.09266300  0.83773300  1
  O  O0  1  0.61102500  0.24333200  0.07784700  1
  O  O1  1  0.38897500  0.75666800  0.92215300  1
  O  O2  1  0.61102500  0.25666800  0.42215300  1
  O  O3  1  0.38897500  0.74333200  0.57784700  1
  O  O4  1  0.86335100  0.41488600  0.25641500  1
  O  O5  1  0.13664900  0.58511400  0.74358500  1
  O  O6  1  0.86335100  0.08511400  0.24358500  1
  O  O7  1  0.13664900  0.91488600  0.75641500  1
  O  O8  1  0.22687400  0.25000000  0.25000000  1
  O  O9  1  0.77312600  0.75000000  0.75000000  1
loop_
_geom_bond_atom_site_label_1
_geom_bond_atom_site_label_2
_geom_bond_distance
_geom_bond_site_symmetry_2
H0 O0 0.996612 1_555
H1 O1 0.996612 1_555
H2 O2 0.996612 1_555
H3 O3 0.996612 1_555
H4 O0 0.991119 1_556
H5 O1 0.991119 1_554
H6 O2 0.991119 1_555
H7 O3 0.991119 1_555
H8 O4 0.997702 1_455
H9 O5 0.997702 1_655
H10 O6 0.997702 1_455
H11 O7 0.997702 1_655
H12 O4 0.993230 1_555
H13 O5 0.993230 1_555
H14 O6 0.993230 1_565
H15 O7 0.993230 1_545
H16 O8 0.988410 1_555
H17 O9 0.988410 1_555
H18 O8 0.988410 1_555
H19 O9 0.988410 1_555
N0 N4 1.205485 1_555
N0 Zn0 2.125061 1_456
N0 Zn1 2.164184 1_555
N1 N5 1.205485 1_555
N1 Zn1 2.125061 1_654
N1 Zn0 2.164184 1_555
N2 N6 1.205485 1_555
N2 Zn2 2.125061 1_455
N2 Zn3 2.164184 1_545
N3 N7 1.205485 1_555
N3 Zn3 2.125061 1_655
N3 Zn2 2.164184 1_565
N4 N8 1.162243 1_555
N5 N9 1.162243 1_555
N10 N6 1.162243 1_555
N11 N7 1.162243 1_555
N12 N16 1.206471 1_555
N12 Zn0 2.116267 1_555
N12 Zn1 2.142445 1_554
N13 N17 1.206471 1_555
N13 Zn1 2.116267 1_555
N13 Zn0 2.142445 1_556
N14 N18 1.206471 1_555
N14 Zn2 2.116267 1_565
N14 Zn3 2.142445 1_555
N15 N19 1.206471 1_555
N15 Zn3 2.116267 1_545
N15 Zn2 2.142445 1_555
N16 N20 1.160750 1_555
N17 N21 1.160750 1_555
N18 N22 1.160750 1_555
N19 N23 1.160750 1_555
O0 Zn0 2.241539 1_555
O1 Zn1 2.241539 1_555
O2 Zn2 2.241539 1_555
O3 Zn3 2.241539 1_555
O4 Zn0 2.272474 1_555
O5 Zn1 2.272474 1_555
O6 Zn2 2.272474 1_555
O7 Zn3 2.272474 1_555
