# generated using pymatgen
data_CaVO3
_symmetry_space_group_name_H-M   'P 1'
_cell_length_a   5.38145400
_cell_length_b   5.43759400
_cell_length_c   7.68253860
_cell_angle_alpha   89.54560638
_cell_angle_beta   90.00000000
_cell_angle_gamma   90.00000000
_symmetry_Int_Tables_number   1
_chemical_formula_structural   CaVO3
_chemical_formula_sum   'Ca4 V4 O12'
_cell_volume   224.80061921
_cell_formula_units_Z   4
loop_
 _symmetry_equiv_pos_site_id
 _symmetry_equiv_pos_as_xyz
  1  'x, y, z'
loop_
 _atom_site_type_symbol
 _atom_site_label
 _atom_site_symmetry_multiplicity
 _atom_site_fract_x
 _atom_site_fract_y
 _atom_site_fract_z
 _atom_site_occupancy
  Ca  Ca0  1  0.99400100  0.04028100  0.74614400  1
  Ca  Ca1  1  0.49400100  0.45971900  0.25385600  1
  Ca  Ca2  1  0.50599900  0.54028100  0.74614400  1
  Ca  Ca3  1  0.00599900  0.95971900  0.25385600  1
  V  V0  1  0.50000000  0.00000000  0.50000000  1
  V  V1  1  0.00000000  0.50000000  0.50000000  1
  V  V2  1  0.00000000  0.50000000  0.00000000  1
  V  V3  1  0.50000000  0.00000000  0.00000000  1
  O  O0  1  0.92506100  0.51608200  0.24885200  1
  O  O1  1  0.42506100  0.98391800  0.75114800  1
  O  O2  1  0.57493900  0.01608200  0.24885200  1
  O  O3  1  0.07493900  0.48391800  0.75114800  1
  O  O4  1  0.70089300  0.28067000  0.96280000  1
  O  O5  1  0.20089300  0.21933000  0.03720000  1
  O  O6  1  0.79191500  0.79446800  0.53732500  1
  O  O7  1  0.29191500  0.70553200  0.46267500  1
  O  O8  1  0.70808500  0.29446800  0.53732500  1
  O  O9  1  0.20808500  0.20553200  0.46267500  1
  O  O10  1  0.29910700  0.71933000  0.03720000  1
  O  O11  1  0.79910700  0.78067000  0.96280000  1
loop_
_geom_bond_atom_site_label_1
_geom_bond_atom_site_label_2
_geom_bond_distance
_geom_bond_site_symmetry_2
Ca0 O1 2.340164 1_645
Ca0 O6 2.361554 1_545
Ca0 O11 2.413706 1_545
Ca0 O3 2.451926 1_655
Ca0 O8 2.610802 1_555
Ca0 O9 2.616549 1_655
Ca0 O4 2.646053 1_555
Ca0 O5 2.687368 1_656
Ca1 O0 2.340164 1_555
Ca1 O7 2.361554 1_555
Ca1 O10 2.413706 1_555
Ca1 O2 2.451926 1_555
Ca1 O9 2.610802 1_555
Ca1 O8 2.616549 1_555
Ca1 O5 2.646053 1_555
Ca1 O4 2.687368 1_554
Ca2 O3 2.340164 1_555
Ca2 O8 2.361554 1_555
Ca2 O4 2.413706 1_555
Ca2 O1 2.451926 1_555
Ca2 O6 2.610802 1_555
Ca2 O7 2.616549 1_555
Ca2 O11 2.646053 1_555
Ca2 O10 2.687368 1_556
Ca3 O2 2.340164 1_465
Ca3 O9 2.361554 1_565
Ca3 O5 2.413706 1_565
Ca3 O0 2.451926 1_455
Ca3 O7 2.610802 1_555
Ca3 O6 2.616549 1_455
Ca3 O10 2.646053 1_555
Ca3 O11 2.687368 1_454
O0 V2 1.956520 1_655
O0 V1 1.972410 1_655
O1 V3 1.956520 1_566
O1 V0 1.972410 1_565
O2 V3 1.956520 1_555
O2 V0 1.972410 1_555
O3 V2 1.956520 1_556
O3 V1 1.972410 1_555
O4 V3 1.890164 1_556
O4 V2 2.024933 1_656
O5 V2 1.890164 1_555
O5 V3 2.024933 1_555
O6 V0 1.947815 1_565
O6 V1 1.976688 1_655
O7 V1 1.947815 1_555
O7 V0 1.976688 1_565
O8 V1 1.947815 1_655
O8 V0 1.976688 1_555
O9 V0 1.947815 1_555
O9 V1 1.976688 1_555
O10 V3 1.890164 1_565
O10 V2 2.024933 1_555
O11 V2 1.890164 1_656
O11 V3 2.024933 1_566
