# generated using pymatgen
data_Zr3Ti(PbO3)4
_symmetry_space_group_name_H-M   'P 1'
_cell_length_a   5.86739200
_cell_length_b   5.93287692
_cell_length_c   10.17431369
_cell_angle_alpha   106.63891043
_cell_angle_beta   89.98005916
_cell_angle_gamma   119.62955630
_symmetry_Int_Tables_number   1
_chemical_formula_structural   Zr3Ti(PbO3)4
_chemical_formula_sum   'Zr3 Ti1 Pb4 O12'
_cell_volume   290.69964231
_cell_formula_units_Z   1
loop_
 _symmetry_equiv_pos_site_id
 _symmetry_equiv_pos_as_xyz
  1  'x, y, z'
loop_
 _atom_site_type_symbol
 _atom_site_label
 _atom_site_symmetry_multiplicity
 _atom_site_fract_x
 _atom_site_fract_y
 _atom_site_fract_z
 _atom_site_occupancy
  Zr  Zr0  1  0.64938100  0.41253700  0.88633800  1
  Zr  Zr1  1  0.14641000  0.91378900  0.37792000  1
  Zr  Zr2  1  0.89654900  0.16109500  0.63180700  1
  Ti  Ti0  1  0.40021600  0.66652300  0.13347500  1
  Pb  Pb0  1  0.80122600  0.34346600  0.26014900  1
  Pb  Pb1  1  0.30608200  0.83440500  0.77667000  1
  Pb  Pb2  1  0.55428700  0.59103200  0.51491500  1
  Pb  Pb3  1  0.05801500  0.09769300  0.02075900  1
  O  O0  1  0.75298100  0.75410300  0.23129400  1
  O  O1  1  0.27556300  0.25451900  0.74145800  1
  O  O2  1  0.96809900  0.00710300  0.48441800  1
  O  O3  1  0.47235600  0.51112900  0.99303100  1
  O  O4  1  0.96531100  0.50471400  0.48727300  1
  O  O5  1  0.46701600  0.98546700  0.00209800  1
  O  O6  1  0.00316400  0.48248800  0.02185100  1
  O  O7  1  0.49091400  0.97513800  0.51634900  1
  O  O8  1  0.25845300  0.72764100  0.25843500  1
  O  O9  1  0.75112200  0.22337700  0.77175100  1
  O  O10  1  0.28037600  0.26335900  0.23962800  1
  O  O11  1  0.77907800  0.75142200  0.74258200  1
loop_
_geom_bond_atom_site_label_1
_geom_bond_atom_site_label_2
_geom_bond_distance
_geom_bond_site_symmetry_2
O0 Ti0 2.046089 1_555
O0 Zr1 2.341447 1_655
O0 Pb0 2.682021 1_555
O1 Zr2 2.219472 1_455
O1 Zr0 2.245025 1_555
O1 Pb1 2.706589 1_545
O2 Zr1 1.674374 1_645
O2 Zr2 1.689347 1_555
O2 Pb2 2.568420 1_545
O3 Ti0 1.643758 1_556
O3 Zr0 1.683951 1_555
O3 Pb3 2.550673 1_556
O4 Pb0 2.237604 1_555
O4 Zr1 2.693109 1_655
O4 Pb2 2.701034 1_555
O4 Zr2 2.717441 1_555
O5 Pb1 2.223261 1_554
O5 Ti0 2.497144 1_555
O5 Pb3 2.783064 1_565
O5 Pb0 2.818076 1_565
O5 Zr0 2.824779 1_564
O6 Ti0 2.164686 1_555
O6 Zr0 2.281352 1_454
O6 Pb3 2.455091 1_555
O7 Zr2 2.219243 1_565
O7 Zr1 2.276595 1_555
O7 Pb2 2.480010 1_555
O8 Ti0 1.572650 1_555
O8 Zr1 1.754477 1_555
O9 Zr0 1.699317 1_555
O9 Zr2 1.703390 1_555
O9 Pb1 2.500851 1_545
O10 Pb3 2.260023 1_555
O10 Zr1 2.637674 1_545
O10 Ti0 2.682924 1_555
O10 Pb2 2.828889 1_555
O10 Pb0 2.848909 1_555
O11 Pb2 2.347220 1_555
O11 Zr0 2.632711 1_555
O11 Zr2 2.750387 1_565
