# generated using pymatgen
data_Co2Ge5N8
_symmetry_space_group_name_H-M   'P 1'
_cell_length_a   11.20484455
_cell_length_b   10.42141694
_cell_length_c   14.07947159
_cell_angle_alpha   90.00000000
_cell_angle_beta   90.00000000
_cell_angle_gamma   90.00000000
_symmetry_Int_Tables_number   1
_chemical_formula_structural   Co2Ge5N8
_chemical_formula_sum   'Co16 Ge40 N64'
_cell_volume   1644.06492117
_cell_formula_units_Z   8
loop_
 _symmetry_equiv_pos_site_id
 _symmetry_equiv_pos_as_xyz
  1  'x, y, z'
loop_
 _atom_site_type_symbol
 _atom_site_label
 _atom_site_symmetry_multiplicity
 _atom_site_fract_x
 _atom_site_fract_y
 _atom_site_fract_z
 _atom_site_occupancy
  Co  Co0  1  0.05091326  0.13540181  0.01346899  1
  Co  Co1  1  0.55091326  0.36459819  0.98653101  1
  Co  Co2  1  0.94908674  0.63540181  0.48653101  1
  Co  Co3  1  0.44908674  0.86459819  0.51346899  1
  Co  Co4  1  0.94908674  0.86459819  0.98653101  1
  Co  Co5  1  0.44908674  0.63540181  0.01346899  1
  Co  Co6  1  0.05091326  0.36459819  0.51346899  1
  Co  Co7  1  0.55091326  0.13540181  0.48653101  1
  Co  Co8  1  0.31471364  0.12046399  0.02979478  1
  Co  Co9  1  0.81471364  0.37953601  0.97020522  1
  Co  Co10  1  0.68528636  0.62046399  0.47020522  1
  Co  Co11  1  0.18528636  0.87953601  0.52979478  1
  Co  Co12  1  0.68528636  0.87953601  0.97020522  1
  Co  Co13  1  0.18528636  0.62046399  0.02979478  1
  Co  Co14  1  0.31471364  0.37953601  0.52979478  1
  Co  Co15  1  0.81471364  0.12046399  0.47020522  1
  Ge  Ge0  1  0.39282662  0.25501047  0.83409482  1
  Ge  Ge1  1  0.89282662  0.24498953  0.16590518  1
  Ge  Ge2  1  0.60717338  0.75501047  0.66590518  1
  Ge  Ge3  1  0.10717338  0.74498953  0.33409482  1
  Ge  Ge4  1  0.60717338  0.74498953  0.16590518  1
  Ge  Ge5  1  0.10717338  0.75501047  0.83409482  1
  Ge  Ge6  1  0.39282662  0.24498953  0.33409482  1
  Ge  Ge7  1  0.89282662  0.25501047  0.66590518  1
  Ge  Ge8  1  0.15513740  0.25331414  0.71455636  1
  Ge  Ge9  1  0.65513740  0.24668586  0.28544364  1
  Ge  Ge10  1  0.84486260  0.75331414  0.78544364  1
  Ge  Ge11  1  0.34486260  0.74668586  0.21455636  1
  Ge  Ge12  1  0.84486260  0.74668586  0.28544364  1
  Ge  Ge13  1  0.34486260  0.75331414  0.71455636  1
  Ge  Ge14  1  0.15513740  0.24668586  0.21455636  1
  Ge  Ge15  1  0.65513740  0.25331414  0.78544364  1
  Ge  Ge16  1  0.25752204  0.99919224  0.83051341  1
  Ge  Ge17  1  0.75752204  0.50080776  0.16948659  1
  Ge  Ge18  1  0.74247796  0.49919224  0.66948659  1
  Ge  Ge19  1  0.24247796  0.00080776  0.33051341  1
  Ge  Ge20  1  0.74247796  0.00080776  0.16948659  1
  Ge  Ge21  1  0.24247796  0.49919224  0.83051341  1
  Ge  Ge22  1  0.25752204  0.50080776  0.33051341  1
  Ge  Ge23  1  0.75752204  0.99919224  0.66948659  1
  Ge  Ge24  1  0.98277893  0.02204694  0.79580046  1
  Ge  Ge25  1  0.48277893  0.47795306  0.20419954  1
  Ge  Ge26  1  0.01722107  0.52204694  0.70419954  1
  Ge  Ge27  1  0.51722107  0.97795306  0.29580046  1
  Ge  Ge28  1  0.01722107  0.97795306  0.20419954  1
  Ge  Ge29  1  0.51722107  0.52204694  0.79580046  1
  Ge  Ge30  1  0.98277893  0.47795306  0.29580046  1
  Ge  Ge31  1  0.48277893  0.02204694  0.70419954  1
  Ge  Ge32  1  0.79815766  0.13297352  0.96957555  1
  Ge  Ge33  1  0.29815766  0.36702648  0.03042445  1
  Ge  Ge34  1  0.20184234  0.63297352  0.53042445  1
  Ge  Ge35  1  0.70184234  0.86702648  0.46957555  1
  Ge  Ge36  1  0.20184234  0.86702648  0.03042445  1
  Ge  Ge37  1  0.70184234  0.63297352  0.96957555  1
  Ge  Ge38  1  0.79815766  0.36702648  0.46957555  1
  Ge  Ge39  1  0.29815766  0.13297352  0.53042445  1
  N  N0  1  0.91016682  0.24495228  0.03388227  1
  N  N1  1  0.41016682  0.25504772  0.96611773  1
  N  N2  1  0.08983318  0.74495228  0.46611773  1
  N  N3  1  0.58983318  0.75504772  0.53388227  1
  N  N4  1  0.08983318  0.75504772  0.96611773  1
  N  N5  1  0.58983318  0.74495228  0.03388227  1
  N  N6  1  0.91016682  0.25504772  0.53388227  1
  N  N7  1  0.41016682  0.24495228  0.46611773  1
  N  N8  1  0.93770722  0.04584539  0.92357127  1
  N  N9  1  0.43770722  0.45415461  0.07642873  1
  N  N10  1  0.06229278  0.54584539  0.57642873  1
  N  N11  1  0.56229278  0.95415461  0.42357127  1
  N  N12  1  0.06229278  0.95415461  0.07642873  1
  N  N13  1  0.56229278  0.54584539  0.92357127  1
  N  N14  1  0.93770722  0.45415461  0.42357127  1
  N  N15  1  0.43770722  0.04584539  0.57642873  1
  N  N16  1  0.69871037  0.26307711  0.91327872  1
  N  N17  1  0.19871037  0.23692289  0.08672128  1
  N  N18  1  0.30128963  0.76307711  0.58672128  1
  N  N19  1  0.80128963  0.73692289  0.41327872  1
  N  N20  1  0.30128963  0.73692289  0.08672128  1
  N  N21  1  0.80128963  0.76307711  0.91327872  1
  N  N22  1  0.69871037  0.23692289  0.41327872  1
  N  N23  1  0.19871037  0.26307711  0.58672128  1
  N  N24  1  0.29056911  0.97701694  0.95731845  1
  N  N25  1  0.79056911  0.52298306  0.04268155  1
  N  N26  1  0.70943089  0.47701694  0.54268155  1
  N  N27  1  0.20943089  0.02298306  0.45731845  1
  N  N28  1  0.70943089  0.02298306  0.04268155  1
  N  N29  1  0.20943089  0.47701694  0.95731845  1
  N  N30  1  0.29056911  0.52298306  0.45731845  1
  N  N31  1  0.79056911  0.97701694  0.54268155  1
  N  N32  1  0.01297531  0.16581883  0.72291438  1
  N  N33  1  0.51297531  0.33418117  0.27708562  1
  N  N34  1  0.98702469  0.66581883  0.77708562  1
  N  N35  1  0.48702469  0.83418117  0.22291438  1
  N  N36  1  0.98702469  0.83418117  0.27708562  1
  N  N37  1  0.48702469  0.66581883  0.72291438  1
  N  N38  1  0.01297531  0.33418117  0.22291438  1
  N  N39  1  0.51297531  0.16581883  0.77708562  1
  N  N40  1  0.37092973  0.91822756  0.75904437  1
  N  N41  1  0.87092973  0.58177244  0.24095563  1
  N  N42  1  0.62907027  0.41822756  0.74095563  1
  N  N43  1  0.12907027  0.08177244  0.25904437  1
  N  N44  1  0.62907027  0.08177244  0.24095563  1
  N  N45  1  0.12907027  0.41822756  0.75904437  1
  N  N46  1  0.37092973  0.58177244  0.25904437  1
  N  N47  1  0.87092973  0.91822756  0.74095563  1
  N  N48  1  0.25634632  0.17132726  0.79752854  1
  N  N49  1  0.75634632  0.32867274  0.20247146  1
  N  N50  1  0.74365368  0.67132726  0.70247146  1
  N  N51  1  0.24365368  0.82867274  0.29752854  1
  N  N52  1  0.74365368  0.82867274  0.20247146  1
  N  N53  1  0.24365368  0.67132726  0.79752854  1
  N  N54  1  0.25634632  0.32867274  0.29752854  1
  N  N55  1  0.75634632  0.17132726  0.70247146  1
  N  N56  1  0.11879424  0.92297605  0.79143433  1
  N  N57  1  0.61879424  0.57702395  0.20856567  1
  N  N58  1  0.88120576  0.42297605  0.70856567  1
  N  N59  1  0.38120576  0.07702395  0.29143433  1
  N  N60  1  0.88120576  0.07702395  0.20856567  1
  N  N61  1  0.38120576  0.42297605  0.79143433  1
  N  N62  1  0.11879424  0.57702395  0.29143433  1
  N  N63  1  0.61879424  0.92297605  0.70856567  1
loop_
_geom_bond_atom_site_label_1
_geom_bond_atom_site_label_2
_geom_bond_distance
_geom_bond_site_symmetry_2
Co0 N0 1.968014 1_455
Co0 N8 2.020412 1_454
Co0 N12 2.090406 1_545
Co0 N17 2.219351 1_555
Co1 N1 1.968014 1_555
Co1 N9 2.020412 1_556
Co1 N13 2.090406 1_555
Co1 N16 2.219351 1_555
Co2 N2 1.968014 1_655
Co2 N10 2.020412 1_655
Co2 N14 2.090406 1_555
Co2 N19 2.219351 1_555
Co3 N3 1.968014 1_555
Co3 N11 2.020412 1_555
Co3 N15 2.090406 1_565
Co3 N18 2.219351 1_555
Co4 N4 1.968014 1_655
Co4 N12 2.020412 1_656
Co4 N8 2.090406 1_565
Co4 N21 2.219351 1_555
Co5 N5 1.968014 1_555
Co5 N13 2.020412 1_554
Co5 N9 2.090406 1_555
Co5 N20 2.219351 1_555
Co6 N6 1.968014 1_455
Co6 N14 2.020412 1_455
Co6 N10 2.090406 1_555
Co6 N23 2.219351 1_555
Co7 N7 1.968014 1_555
Co7 N15 2.020412 1_555
Co7 N11 2.090406 1_545
Co7 N22 2.219351 1_555
Co8 N24 1.830097 1_544
Co8 N17 1.950604 1_555
Co8 N1 1.978598 1_554
Co9 N25 1.830097 1_556
Co9 N16 1.950604 1_555
Co9 N0 1.978598 1_556
Co10 N26 1.830097 1_555
Co10 N19 1.950604 1_555
Co10 N3 1.978598 1_555
Co11 N27 1.830097 1_565
Co11 N18 1.950604 1_555
Co11 N2 1.978598 1_555
Co12 N28 1.830097 1_566
Co12 N21 1.950604 1_555
Co12 N5 1.978598 1_556
Co13 N29 1.830097 1_554
Co13 N20 1.950604 1_555
Co13 N4 1.978598 1_554
Co14 N30 1.830097 1_555
Co14 N23 1.950604 1_555
Co14 N7 1.978598 1_555
Co15 N31 1.830097 1_545
Co15 N22 1.950604 1_555
Co15 N6 1.978598 1_555
Ge0 N39 1.822257 1_555
Ge0 N48 1.834171 1_555
Ge0 N61 1.855197 1_555
Ge0 N1 1.868940 1_555
Ge1 N38 1.822257 1_655
Ge1 N49 1.834171 1_555
Ge1 N60 1.855197 1_555
Ge1 N0 1.868940 1_555
Ge2 N37 1.822257 1_555
Ge2 N50 1.834171 1_555
Ge2 N63 1.855197 1_555
Ge2 N3 1.868940 1_555
Ge3 N36 1.822257 1_455
Ge3 N51 1.834171 1_555
Ge3 N62 1.855197 1_555
Ge3 N2 1.868940 1_555
Ge4 N35 1.822257 1_555
Ge4 N52 1.834171 1_555
Ge4 N57 1.855197 1_555
Ge4 N5 1.868940 1_555
Ge5 N34 1.822257 1_455
Ge5 N53 1.834171 1_555
Ge5 N56 1.855197 1_555
Ge5 N4 1.868940 1_555
Ge6 N33 1.822257 1_555
Ge6 N54 1.834171 1_555
Ge6 N59 1.855197 1_555
Ge6 N7 1.868940 1_555
Ge7 N32 1.822257 1_655
Ge7 N55 1.834171 1_555
Ge7 N58 1.855197 1_555
Ge7 N6 1.868940 1_555
Ge8 N48 1.838684 1_555
Ge8 N32 1.839189 1_555
Ge8 N45 1.852388 1_555
Ge8 N23 1.867667 1_555
Ge9 N49 1.838684 1_555
Ge9 N33 1.839189 1_555
Ge9 N44 1.852388 1_555
Ge9 N22 1.867667 1_555
Ge10 N50 1.838684 1_555
Ge10 N34 1.839189 1_555
Ge10 N47 1.852388 1_555
Ge10 N21 1.867667 1_555
Ge11 N51 1.838684 1_555
Ge11 N35 1.839189 1_555
Ge11 N46 1.852388 1_555
Ge11 N20 1.867667 1_555
Ge12 N52 1.838684 1_555
Ge12 N36 1.839189 1_555
Ge12 N41 1.852388 1_555
Ge12 N19 1.867667 1_555
Ge13 N53 1.838684 1_555
Ge13 N37 1.839189 1_555
Ge13 N40 1.852388 1_555
Ge13 N18 1.867667 1_555
Ge14 N54 1.838684 1_555
Ge14 N38 1.839189 1_555
Ge14 N43 1.852388 1_555
Ge14 N17 1.867667 1_555
Ge15 N55 1.838684 1_555
Ge15 N39 1.839189 1_555
Ge15 N42 1.852388 1_555
Ge15 N16 1.867667 1_555
Ge16 N40 1.827346 1_555
Ge16 N56 1.830259 1_555
Ge16 N24 1.837930 1_555
Ge16 N48 1.853077 1_565
Ge17 N41 1.827346 1_555
Ge17 N57 1.830259 1_555
Ge17 N25 1.837930 1_555
Ge17 N49 1.853077 1_555
Ge18 N42 1.827346 1_555
Ge18 N58 1.830259 1_555
Ge18 N26 1.837930 1_555
Ge18 N50 1.853077 1_555
Ge19 N43 1.827346 1_555
Ge19 N59 1.830259 1_555
Ge19 N27 1.837930 1_555
Ge19 N51 1.853077 1_545
Ge20 N44 1.827346 1_555
Ge20 N60 1.830259 1_555
Ge20 N28 1.837930 1_555
Ge20 N52 1.853077 1_545
Ge21 N45 1.827346 1_555
Ge21 N61 1.830259 1_555
Ge21 N29 1.837930 1_555
Ge21 N53 1.853077 1_555
Ge22 N46 1.827346 1_555
Ge22 N62 1.830259 1_555
Ge22 N30 1.837930 1_555
Ge22 N54 1.853077 1_555
Ge23 N47 1.827346 1_555
Ge23 N63 1.830259 1_555
Ge23 N31 1.837930 1_555
Ge23 N55 1.853077 1_565
Ge24 N47 1.826888 1_545
Ge24 N56 1.841852 1_645
Ge24 N32 1.847291 1_655
Ge24 N8 1.884877 1_555
Ge25 N46 1.826888 1_555
Ge25 N57 1.841852 1_555
Ge25 N33 1.847291 1_555
Ge25 N9 1.884877 1_555
Ge26 N45 1.826888 1_555
Ge26 N58 1.841852 1_455
Ge26 N34 1.847291 1_455
Ge26 N10 1.884877 1_555
Ge27 N44 1.826888 1_565
Ge27 N59 1.841852 1_565
Ge27 N35 1.847291 1_555
Ge27 N11 1.884877 1_555
Ge28 N43 1.826888 1_565
Ge28 N60 1.841852 1_465
Ge28 N36 1.847291 1_455
Ge28 N12 1.884877 1_555
Ge29 N42 1.826888 1_555
Ge29 N61 1.841852 1_555
Ge29 N37 1.847291 1_555
Ge29 N13 1.884877 1_555
Ge30 N41 1.826888 1_555
Ge30 N62 1.841852 1_655
Ge30 N38 1.847291 1_655
Ge30 N14 1.884877 1_555
Ge31 N40 1.826888 1_545
Ge31 N63 1.841852 1_545
Ge31 N39 1.847291 1_555
Ge31 N15 1.884877 1_555
Ge32 N28 1.833500 1_556
Ge32 N8 1.920661 1_555
Ge32 N16 1.925688 1_555
Ge32 N0 1.938229 1_556
Ge33 N29 1.833500 1_554
Ge33 N9 1.920661 1_555
Ge33 N17 1.925688 1_555
Ge33 N1 1.938229 1_554
Ge34 N30 1.833500 1_555
Ge34 N10 1.920661 1_555
Ge34 N18 1.925688 1_555
Ge34 N2 1.938229 1_555
Ge35 N31 1.833500 1_555
Ge35 N11 1.920661 1_555
Ge35 N19 1.925688 1_555
Ge35 N3 1.938229 1_555
Ge36 N24 1.833500 1_554
Ge36 N12 1.920661 1_555
Ge36 N20 1.925688 1_555
Ge36 N4 1.938229 1_554
Ge37 N25 1.833500 1_556
Ge37 N13 1.920661 1_555
Ge37 N21 1.925688 1_555
Ge37 N5 1.938229 1_556
Ge38 N26 1.833500 1_555
Ge38 N14 1.920661 1_555
Ge38 N22 1.925688 1_555
Ge38 N6 1.938229 1_555
Ge39 N27 1.833500 1_555
Ge39 N15 1.920661 1_555
Ge39 N23 1.925688 1_555
Ge39 N7 1.938229 1_555
