# generated using pymatgen
data_Ta
_symmetry_space_group_name_H-M   'P 1'
_cell_length_a   4.75456020
_cell_length_b   45.42003287
_cell_length_c   45.41641017
_cell_angle_alpha   90.00265627
_cell_angle_beta   90.00000000
_cell_angle_gamma   90.00000000
_symmetry_Int_Tables_number   1
_chemical_formula_structural   Ta
_chemical_formula_sum   Ta32
_cell_volume   9807.77734176
_cell_formula_units_Z   32
loop_
 _symmetry_equiv_pos_site_id
 _symmetry_equiv_pos_as_xyz
  1  'x, y, z'
loop_
 _atom_site_type_symbol
 _atom_site_label
 _atom_site_symmetry_multiplicity
 _atom_site_fract_x
 _atom_site_fract_y
 _atom_site_fract_z
 _atom_site_occupancy
  Ta  Ta0_0  1  0.00000000  0.40931570  0.15931286  1
  Ta  Ta0_1  1  0.00000000  0.40931570  0.65931286  1
  Ta  Ta0_2  1  0.00000000  0.90931570  0.15931286  1
  Ta  Ta0_3  1  0.00000000  0.90931570  0.65931286  1
  Ta  Ta0_4  1  0.50000000  0.40931570  0.15931286  1
  Ta  Ta0_5  1  0.50000000  0.40931570  0.65931286  1
  Ta  Ta0_6  1  0.50000000  0.90931570  0.15931286  1
  Ta  Ta0_7  1  0.50000000  0.90931570  0.65931286  1
  Ta  Ta1_0  1  0.00000000  0.09068750  0.34068413  1
  Ta  Ta1_1  1  0.00000000  0.09068750  0.84068413  1
  Ta  Ta1_2  1  0.00000000  0.59068749  0.34068413  1
  Ta  Ta1_3  1  0.00000000  0.59068749  0.84068413  1
  Ta  Ta1_4  1  0.50000000  0.09068750  0.34068413  1
  Ta  Ta1_5  1  0.50000000  0.09068750  0.84068413  1
  Ta  Ta1_6  1  0.50000000  0.59068749  0.34068413  1
  Ta  Ta1_7  1  0.50000000  0.59068749  0.84068413  1
  Ta  Ta2_0  1  0.00000000  0.34068097  0.40931869  1
  Ta  Ta2_1  1  0.00000000  0.34068097  0.90931869  1
  Ta  Ta2_2  1  0.00000000  0.84068097  0.40931869  1
  Ta  Ta2_3  1  0.00000000  0.84068097  0.90931869  1
  Ta  Ta2_4  1  0.50000000  0.34068097  0.40931869  1
  Ta  Ta2_5  1  0.50000000  0.34068097  0.90931869  1
  Ta  Ta2_6  1  0.50000000  0.84068097  0.40931869  1
  Ta  Ta2_7  1  0.50000000  0.84068097  0.90931869  1
  Ta  Ta3_0  1  0.00000000  0.15931584  0.09068433  1
  Ta  Ta3_1  1  0.00000000  0.15931584  0.59068433  1
  Ta  Ta3_2  1  0.00000000  0.65931584  0.09068433  1
  Ta  Ta3_3  1  0.00000000  0.65931584  0.59068433  1
  Ta  Ta3_4  1  0.50000000  0.15931584  0.09068433  1
  Ta  Ta3_5  1  0.50000000  0.15931584  0.59068433  1
  Ta  Ta3_6  1  0.50000000  0.65931584  0.09068433  1
  Ta  Ta3_7  1  0.50000000  0.65931584  0.59068433  1
loop_
_geom_bond_atom_site_label_1
_geom_bond_atom_site_label_2
_geom_bond_distance
_geom_bond_site_symmetry_2
Ta0_0 Ta0_4 2.377280 1_555
Ta0_0 Ta0_4 2.377280 1_455
Ta0_1 Ta0_5 2.377280 1_555
Ta0_1 Ta0_5 2.377280 1_455
Ta0_2 Ta0_6 2.377280 1_555
Ta0_2 Ta0_6 2.377280 1_455
Ta0_3 Ta0_7 2.377280 1_555
Ta0_3 Ta0_7 2.377280 1_455
Ta1_0 Ta1_4 2.377280 1_455
Ta1_0 Ta1_4 2.377280 1_555
Ta1_1 Ta1_5 2.377280 1_555
Ta1_1 Ta1_5 2.377280 1_455
Ta1_2 Ta1_6 2.377280 1_555
Ta1_2 Ta1_6 2.377280 1_455
Ta1_3 Ta1_7 2.377280 1_555
Ta1_3 Ta1_7 2.377280 1_455
Ta2_0 Ta2_4 2.377280 1_555
Ta2_0 Ta2_4 2.377280 1_455
Ta2_1 Ta2_5 2.377280 1_555
Ta2_1 Ta2_5 2.377280 1_455
Ta2_2 Ta2_6 2.377280 1_455
Ta2_2 Ta2_6 2.377280 1_555
Ta2_3 Ta2_7 2.377280 1_455
Ta2_3 Ta2_7 2.377280 1_555
Ta3_0 Ta3_4 2.377280 1_555
Ta3_0 Ta3_4 2.377280 1_455
Ta3_1 Ta3_5 2.377280 1_455
Ta3_1 Ta3_5 2.377280 1_555
Ta3_2 Ta3_6 2.377280 1_555
Ta3_2 Ta3_6 2.377280 1_455
Ta3_3 Ta3_7 2.377280 1_555
Ta3_3 Ta3_7 2.377280 1_455
