# generated using pymatgen
data_SmSiNi4
_symmetry_space_group_name_H-M   'P 1'
_cell_length_a   4.81376870
_cell_length_b   4.81376870
_cell_length_c   3.91676396
_cell_angle_alpha   90.00000000
_cell_angle_beta   90.00000000
_cell_angle_gamma   116.13887816
_symmetry_Int_Tables_number   1
_chemical_formula_structural   SmSiNi4
_chemical_formula_sum   'Sm1 Si1 Ni4'
_cell_volume   81.47849864
_cell_formula_units_Z   1
loop_
 _symmetry_equiv_pos_site_id
 _symmetry_equiv_pos_as_xyz
  1  'x, y, z'
loop_
 _atom_site_type_symbol
 _atom_site_label
 _atom_site_symmetry_multiplicity
 _atom_site_fract_x
 _atom_site_fract_y
 _atom_site_fract_z
 _atom_site_occupancy
  Sm  Sm0  1  0.00000000  0.00000000  -0.00000000  1
  Si  Si0  1  0.50000000  0.50000000  0.50000000  1
  Ni  Ni0  1  0.34192821  0.65807179  -0.00000000  1
  Ni  Ni1  1  0.65807179  0.34192821  0.00000000  1
  Ni  Ni2  1  0.50000000  0.00000000  0.50000000  1
  Ni  Ni3  1  0.00000000  0.50000000  0.50000000  1
loop_
_geom_bond_atom_site_label_1
_geom_bond_atom_site_label_2
_geom_bond_distance
_geom_bond_site_symmetry_2
Si0 Sm0 3.212035 1_556
Si0 Sm0 3.212035 1_555
Si0 Sm0 3.212035 1_666
Si0 Sm0 3.212035 1_665
Ni0 Si0 2.345936 1_555
Ni0 Si0 2.345936 1_554
Ni0 Ni3 2.453554 1_554
Ni0 Ni2 2.453554 1_565
Ni0 Ni3 2.453554 1_555
Ni0 Ni2 2.453554 1_564
Ni0 Ni1 2.583143 1_555
Ni0 Sm0 2.793824 1_565
Ni0 Sm0 2.854832 1_665
Ni0 Sm0 2.854832 1_555
Ni1 Si0 2.345936 1_555
Ni1 Si0 2.345936 1_554
Ni1 Ni3 2.453554 1_655
Ni1 Ni2 2.453554 1_555
Ni1 Ni2 2.453554 1_554
Ni1 Ni3 2.453554 1_654
Ni1 Sm0 2.793824 1_655
Ni1 Sm0 2.854832 1_665
Ni1 Sm0 2.854832 1_555
Ni2 Si0 2.406884 1_545
Ni2 Si0 2.406884 1_555
Ni2 Ni3 2.545959 1_545
Ni2 Ni3 2.545959 1_655
Ni2 Sm0 3.102959 1_655
Ni2 Sm0 3.102959 1_556
Ni2 Sm0 3.102959 1_555
Ni2 Sm0 3.102959 1_656
Ni3 Si0 2.406884 1_455
Ni3 Si0 2.406884 1_555
Ni3 Sm0 3.102959 1_565
Ni3 Sm0 3.102959 1_556
Ni3 Sm0 3.102959 1_555
Ni3 Sm0 3.102959 1_566
