# generated using pymatgen
data_NaNdP2H2CO7
_symmetry_space_group_name_H-M   'P 1'
_cell_length_a   15.29975500
_cell_length_b   6.75100700
_cell_length_c   6.83180980
_cell_angle_alpha   88.50490728
_cell_angle_beta   90.00000000
_cell_angle_gamma   90.00000000
_symmetry_Int_Tables_number   1
_chemical_formula_structural   NaNdP2H2CO7
_chemical_formula_sum   'Na4 Nd4 P8 H8 C4 O28'
_cell_volume   705.40888670
_cell_formula_units_Z   4
loop_
 _symmetry_equiv_pos_site_id
 _symmetry_equiv_pos_as_xyz
  1  'x, y, z'
loop_
 _atom_site_type_symbol
 _atom_site_label
 _atom_site_symmetry_multiplicity
 _atom_site_fract_x
 _atom_site_fract_y
 _atom_site_fract_z
 _atom_site_occupancy
  Na  Na0  1  0.02915500  0.13880800  0.80087800  1
  Na  Na1  1  0.52915500  0.36119200  0.19912200  1
  Na  Na2  1  0.97084500  0.86119200  0.19912200  1
  Na  Na3  1  0.47084500  0.63880800  0.80087800  1
  Nd  Nd0  1  0.10187300  0.39935000  0.32525800  1
  Nd  Nd1  1  0.60187300  0.10065000  0.67474200  1
  Nd  Nd2  1  0.89812700  0.60065000  0.67474200  1
  Nd  Nd3  1  0.39812700  0.89935000  0.32525800  1
  P  P0  1  0.90452900  0.36676800  0.17838200  1
  P  P1  1  0.40452900  0.13323200  0.82161800  1
  P  P2  1  0.09547100  0.63323200  0.82161800  1
  P  P3  1  0.59547100  0.86676800  0.17838200  1
  P  P4  1  0.15833800  0.89460800  0.47041600  1
  P  P5  1  0.65833800  0.60539200  0.52958400  1
  P  P6  1  0.84166200  0.10539200  0.52958400  1
  P  P7  1  0.34166200  0.39460800  0.47041600  1
  H  H0  1  0.76078400  0.32372200  0.31313000  1
  H  H1  1  0.26078400  0.17627800  0.68687000  1
  H  H2  1  0.23921600  0.67627800  0.68687000  1
  H  H3  1  0.73921600  0.82372200  0.31313000  1
  H  H4  1  0.79577600  0.11168500  0.18642800  1
  H  H5  1  0.29577600  0.38831500  0.81357200  1
  H  H6  1  0.20422400  0.88831500  0.81357200  1
  H  H7  1  0.70422400  0.61168500  0.18642800  1
  C  C0  1  0.81655600  0.22394700  0.29108100  1
  C  C1  1  0.31655600  0.27605300  0.70891900  1
  C  C2  1  0.18344400  0.77605300  0.70891900  1
  C  C3  1  0.68344400  0.72394700  0.29108100  1
  O  O0  1  0.09910900  0.75623200  0.35599900  1
  O  O1  1  0.59910900  0.74376800  0.64400100  1
  O  O2  1  0.90089100  0.24376800  0.64400100  1
  O  O3  1  0.40089100  0.25623200  0.35599900  1
  O  O4  1  0.98137600  0.22365700  0.13400300  1
  O  O5  1  0.48137600  0.27634300  0.86599700  1
  O  O6  1  0.01862400  0.77634300  0.86599700  1
  O  O7  1  0.51862400  0.72365700  0.13400300  1
  O  O8  1  0.11199100  0.09229800  0.51061000  1
  O  O9  1  0.61199100  0.40770200  0.48939000  1
  O  O10  1  0.88800900  0.90770200  0.48939000  1
  O  O11  1  0.38800900  0.59229800  0.51061000  1
  O  O12  1  0.86692100  0.47220900  0.99521600  1
  O  O13  1  0.36692100  0.02779100  0.00478400  1
  O  O14  1  0.13307900  0.52779100  0.00478400  1
  O  O15  1  0.63307900  0.97220900  0.99521600  1
  O  O16  1  0.93966000  0.52128300  0.32404200  1
  O  O17  1  0.43966000  0.97871700  0.67595800  1
  O  O18  1  0.06034000  0.47871700  0.67595800  1
  O  O19  1  0.56034000  0.02128300  0.32404200  1
  O  O20  1  0.24773700  0.92932800  0.37162400  1
  O  O21  1  0.74773700  0.57067200  0.62837600  1
  O  O22  1  0.75226300  0.07067200  0.62837600  1
  O  O23  1  0.25226300  0.42932800  0.37162400  1
  O  O24  1  0.16115200  0.15551500  0.08105600  1
  O  O25  1  0.66115200  0.34448500  0.91894400  1
  O  O26  1  0.83884800  0.84448500  0.91894400  1
  O  O27  1  0.33884800  0.65551500  0.08105600  1
loop_
_geom_bond_atom_site_label_1
_geom_bond_atom_site_label_2
_geom_bond_distance
_geom_bond_site_symmetry_2
Na0 O2 2.337128 1_455
Na0 O8 2.381138 1_555
Na0 O4 2.471840 1_456
Na0 O18 2.473777 1_555
Na0 O6 2.480907 1_545
Na0 O24 2.786812 1_556
Na1 O3 2.337128 1_555
Na1 O9 2.381138 1_555
Na1 O5 2.471840 1_554
Na1 O19 2.473777 1_555
Na1 O7 2.480907 1_555
Na1 O25 2.786812 1_554
Na2 O0 2.337128 1_655
Na2 O10 2.381138 1_555
Na2 O6 2.471840 1_654
Na2 O16 2.473777 1_555
Na2 O4 2.480907 1_565
Na2 O26 2.786812 1_554
Na3 O1 2.337128 1_555
Na3 O11 2.381138 1_555
Na3 O7 2.471840 1_556
Na3 O17 2.473777 1_555
Na3 O5 2.480907 1_555
Na3 O27 2.786812 1_556
Nd0 O23 2.332150 1_555
Nd0 O14 2.382081 1_555
Nd0 O8 2.405709 1_555
Nd0 O0 2.424271 1_555
Nd0 O24 2.541454 1_555
Nd0 O18 2.549173 1_555
Nd0 O4 2.567827 1_455
Nd0 O16 2.614718 1_455
Nd1 O22 2.332150 1_555
Nd1 O15 2.382081 1_545
Nd1 O9 2.405709 1_555
Nd1 O1 2.424271 1_545
Nd1 O25 2.541454 1_555
Nd1 O19 2.549173 1_555
Nd1 O5 2.567827 1_555
Nd1 O17 2.614718 1_545
Nd2 O21 2.332150 1_555
Nd2 O12 2.382081 1_555
Nd2 O10 2.405709 1_555
Nd2 O2 2.424271 1_555
Nd2 O26 2.541454 1_555
Nd2 O16 2.549173 1_555
Nd2 O6 2.567827 1_655
Nd2 O18 2.614718 1_655
Nd3 O20 2.332150 1_555
Nd3 O13 2.382081 1_565
Nd3 O11 2.405709 1_555
Nd3 O3 2.424271 1_565
Nd3 O27 2.541454 1_555
Nd3 O17 2.549173 1_555
Nd3 O7 2.567827 1_555
Nd3 O19 2.614718 1_565
C0 H0 1.099916 1_555
C0 H4 1.102234 1_555
C0 P0 1.815308 1_555
C0 P6 1.837130 1_555
C1 H1 1.099916 1_555
C1 H5 1.102234 1_555
C1 P1 1.815308 1_555
C1 P7 1.837130 1_555
C2 H2 1.099916 1_555
C2 H6 1.102234 1_555
C2 P2 1.815308 1_555
C2 P4 1.837130 1_555
C3 H3 1.099916 1_555
C3 H7 1.102234 1_555
C3 P3 1.815308 1_555
C3 P5 1.837130 1_555
O0 P4 1.530682 1_555
O1 P5 1.530682 1_555
O2 P6 1.530682 1_555
O3 P7 1.530682 1_555
O4 P0 1.556601 1_555
O5 P1 1.556601 1_555
O6 P2 1.556601 1_555
O7 P3 1.556601 1_555
O8 P4 1.542246 1_545
O9 P5 1.542246 1_555
O10 P6 1.542246 1_565
O11 P7 1.542246 1_555
O12 P0 1.535315 1_556
O13 P1 1.535315 1_554
O14 P2 1.535315 1_554
O15 P3 1.535315 1_556
O16 P0 1.556104 1_555
O17 P1 1.556104 1_565
O18 P2 1.556104 1_555
O19 P3 1.556104 1_545
O20 P4 1.540469 1_555
O21 P5 1.540469 1_555
O22 P6 1.540469 1_555
O23 P7 1.540469 1_555
