# generated using pymatgen
data_MnCrInS4
_symmetry_space_group_name_H-M   'P 1'
_cell_length_a   7.41138355
_cell_length_b   7.41138355
_cell_length_c   7.41138355
_cell_angle_alpha   120.59468177
_cell_angle_beta   119.68455973
_cell_angle_gamma   89.76015415
_symmetry_Int_Tables_number   1
_chemical_formula_structural   MnCrInS4
_chemical_formula_sum   'Mn2 Cr2 In2 S8'
_cell_volume   287.22803958
_cell_formula_units_Z   2
loop_
 _symmetry_equiv_pos_site_id
 _symmetry_equiv_pos_as_xyz
  1  'x, y, z'
loop_
 _atom_site_type_symbol
 _atom_site_label
 _atom_site_symmetry_multiplicity
 _atom_site_fract_x
 _atom_site_fract_y
 _atom_site_fract_z
 _atom_site_occupancy
  Mn  Mn0  1  0.37695800  0.62695800  0.75000000  1
  Mn  Mn1  1  0.62304200  0.37304200  0.25000000  1
  Cr  Cr0  1  0.00000000  0.00000000  0.50000000  1
  Cr  Cr1  1  0.00000000  0.50000000  0.00000000  1
  In  In0  1  0.00000000  0.00000000  0.00000000  1
  In  In1  1  0.50000000  0.00000000  0.50000000  1
  S  S0  1  0.23318300  0.73602700  0.00284400  1
  S  S1  1  0.23318300  0.23033900  0.49715600  1
  S  S2  1  0.22182300  0.74934000  0.47248300  1
  S  S3  1  0.77685700  0.74934000  0.02751700  1
  S  S4  1  0.76681700  0.26397300  0.99715600  1
  S  S5  1  0.76681700  0.76966100  0.50284400  1
  S  S6  1  0.77817700  0.25066000  0.52751700  1
  S  S7  1  0.22314300  0.25066000  0.97248300  1
loop_
_geom_bond_atom_site_label_1
_geom_bond_atom_site_label_2
_geom_bond_distance
_geom_bond_site_symmetry_2
Mn0 S1 2.393542 1_555
Mn0 S0 2.393542 1_556
Mn0 S2 2.433727 1_555
Mn0 S3 2.433727 1_556
Mn1 S4 2.393542 1_554
Mn1 S5 2.393542 1_555
Mn1 S7 2.433727 1_554
Mn1 S6 2.433727 1_555
Cr0 S5 2.449255 1_445
Cr0 S1 2.449255 1_555
Cr0 S3 2.473139 1_445
Cr0 S7 2.473139 1_555
Cr0 S2 2.473139 1_545
Cr0 S6 2.473139 1_455
Cr1 S0 2.449255 1_555
Cr1 S4 2.449255 1_454
Cr1 S2 2.473139 1_555
Cr1 S6 2.473139 1_454
Cr1 S3 2.473139 1_455
Cr1 S7 2.473139 1_554
In0 S1 2.606197 1_555
In0 S4 2.606197 1_454
In0 S0 2.606197 1_545
In0 S5 2.606197 1_444
In0 S3 2.640693 1_445
In0 S7 2.640693 1_554
In1 S5 2.606197 1_545
In1 S1 2.606197 1_555
In1 S0 2.606197 1_545
In1 S4 2.606197 1_555
In1 S6 2.640693 1_555
In1 S2 2.640693 1_545
