# generated using pymatgen
data_Sm2GeRu3
_symmetry_space_group_name_H-M   'P 1'
_cell_length_a   5.21497258
_cell_length_b   5.21497258
_cell_length_c   5.21497243
_cell_angle_alpha   64.97424411
_cell_angle_beta   64.97424411
_cell_angle_gamma   64.97424173
_symmetry_Int_Tables_number   1
_chemical_formula_structural   Sm2GeRu3
_chemical_formula_sum   'Sm2 Ge1 Ru3'
_cell_volume   111.18199702
_cell_formula_units_Z   1
loop_
 _symmetry_equiv_pos_site_id
 _symmetry_equiv_pos_as_xyz
  1  'x, y, z'
loop_
 _atom_site_type_symbol
 _atom_site_label
 _atom_site_symmetry_multiplicity
 _atom_site_fract_x
 _atom_site_fract_y
 _atom_site_fract_z
 _atom_site_occupancy
  Sm  Sm0  1  0.62768800  0.62768800  0.62768800  1
  Sm  Sm1  1  0.37231200  0.37231200  0.37231200  1
  Ge  Ge0  1  0.00000000  0.00000000  0.00000000  1
  Ru  Ru0  1  0.00000000  0.50000000  0.00000000  1
  Ru  Ru1  1  0.50000000  0.00000000  0.00000000  1
  Ru  Ru2  1  0.00000000  0.00000000  0.50000000  1
loop_
_geom_bond_atom_site_label_1
_geom_bond_atom_site_label_2
_geom_bond_distance
_geom_bond_site_symmetry_2
Sm0 Sm1 3.134113 1_555
Sm0 Sm1 3.372869 1_556
Sm0 Sm1 3.372869 1_655
Sm0 Sm1 3.372869 1_565
Ge0 Ru2 2.607486 1_555
Ge0 Ru2 2.607486 1_554
Ge0 Ru1 2.607486 1_455
Ge0 Ru0 2.607486 1_555
Ge0 Ru0 2.607486 1_545
Ge0 Ru1 2.607486 1_555
Ge0 Sm0 3.269517 1_544
Ge0 Sm0 3.269517 1_454
Ge0 Sm1 3.269517 1_455
Ge0 Sm1 3.269517 1_545
Ge0 Sm0 3.269517 1_445
Ge0 Sm1 3.269517 1_554
Ru0 Ru1 2.801014 1_555
Ru0 Ru1 2.801014 1_465
Ru0 Ru2 2.801014 1_555
Ru0 Ru2 2.801014 1_564
Ru0 Sm0 2.997457 1_454
Ru0 Sm1 2.997457 1_555
Ru0 Sm1 3.209571 1_554
Ru0 Sm0 3.209571 1_455
Ru0 Sm0 3.209571 1_554
Ru0 Sm1 3.209571 1_455
Ru1 Ru2 2.801014 1_654
Ru1 Ru2 2.801014 1_555
Ru1 Sm0 2.997457 1_544
Ru1 Sm1 2.997457 1_555
Ru1 Sm1 3.209571 1_554
Ru1 Sm0 3.209571 1_545
Ru1 Sm0 3.209571 1_554
Ru1 Sm1 3.209571 1_545
Ru2 Sm0 2.997457 1_445
Ru2 Sm1 2.997457 1_555
Ru2 Sm0 3.209571 1_455
Ru2 Sm1 3.209571 1_545
Ru2 Sm1 3.209571 1_455
Ru2 Sm0 3.209571 1_545
