# generated using pymatgen
data_KP4(WO4)8
_symmetry_space_group_name_H-M   'P 1'
_cell_length_a   8.75092950
_cell_length_b   8.75092950
_cell_length_c   10.32985702
_cell_angle_alpha   66.95162513
_cell_angle_beta   66.95162513
_cell_angle_gamma   76.84740418
_symmetry_Int_Tables_number   1
_chemical_formula_structural   KP4(WO4)8
_chemical_formula_sum   'K1 P4 W8 O32'
_cell_volume   667.21557652
_cell_formula_units_Z   1
loop_
 _symmetry_equiv_pos_site_id
 _symmetry_equiv_pos_as_xyz
  1  'x, y, z'
loop_
 _atom_site_type_symbol
 _atom_site_label
 _atom_site_symmetry_multiplicity
 _atom_site_fract_x
 _atom_site_fract_y
 _atom_site_fract_z
 _atom_site_occupancy
  K  K0  1  0.19352900  0.19352900  0.99934600  1
  P  P0  1  0.41610800  0.41610800  0.13012000  1
  P  P1  1  0.91399300  0.91399300  0.12906500  1
  P  P2  1  0.08374300  0.58726400  0.86994600  1
  P  P3  1  0.58726400  0.08374300  0.86994600  1
  W  W0  1  0.99052800  0.99052800  0.40727500  1
  W  W1  1  0.48864000  0.48864000  0.41016900  1
  W  W2  1  0.51266100  0.01205100  0.59088300  1
  W  W3  1  0.01205100  0.51266100  0.59088300  1
  W  W4  1  0.03138400  0.03138400  0.74947400  1
  W  W5  1  0.53114100  0.53114100  0.75247300  1
  W  W6  1  0.47147000  0.96866300  0.24972200  1
  W  W7  1  0.96866300  0.47147000  0.24972200  1
  O  O0  1  0.00747600  0.00747600  0.96095100  1
  O  O1  1  0.50800000  0.50800000  0.96192600  1
  O  O2  1  0.49123100  0.99477300  0.03781000  1
  O  O3  1  0.99477300  0.49123100  0.03781000  1
  O  O4  1  0.03914800  0.77458600  0.83779000  1
  O  O5  1  0.53570200  0.27305200  0.83757500  1
  O  O6  1  0.22777000  0.46115600  0.16199500  1
  O  O7  1  0.72579700  0.96048900  0.16161200  1
  O  O8  1  0.46115600  0.22777000  0.16199500  1
  O  O9  1  0.96048900  0.72579700  0.16161200  1
  O  O10  1  0.27305200  0.53570200  0.83757500  1
  O  O11  1  0.77458600  0.03914800  0.83779000  1
  O  O12  1  0.24130500  0.98734900  0.30458600  1
  O  O13  1  0.73999500  0.48543200  0.30837800  1
  O  O14  1  0.01520400  0.26330300  0.69228500  1
  O  O15  1  0.51198700  0.75794400  0.69204100  1
  O  O16  1  0.26330300  0.01520400  0.69228500  1
  O  O17  1  0.75794400  0.51198700  0.69204100  1
  O  O18  1  0.48543200  0.73999500  0.30837800  1
  O  O19  1  0.98734900  0.24130500  0.30458600  1
  O  O20  1  0.01980400  0.01980400  0.58286600  1
  O  O21  1  0.51832100  0.51832100  0.57615300  1
  O  O22  1  0.48023300  0.98218000  0.42038400  1
  O  O23  1  0.98218000  0.48023300  0.42038400  1
  O  O24  1  0.49772100  0.25221800  0.50000800  1
  O  O25  1  0.99711500  0.74363100  0.50440900  1
  O  O26  1  0.74363100  0.99711500  0.50440900  1
  O  O27  1  0.25221800  0.49772100  0.50000800  1
  O  O28  1  0.47768200  0.47768200  0.22129200  1
  O  O29  1  0.97854100  0.97854100  0.21337000  1
  O  O30  1  0.02322200  0.52050800  0.78328700  1
  O  O31  1  0.52050800  0.02322200  0.78328700  1
loop_
_geom_bond_atom_site_label_1
_geom_bond_atom_site_label_2
_geom_bond_distance
_geom_bond_site_symmetry_2
K0 O29 2.657785 1_446
K0 O0 2.770665 1_555
K0 O3 2.859586 1_456
K0 O2 2.859586 1_546
K0 O10 2.891798 1_555
K0 O5 2.891798 1_555
K0 O12 3.099429 1_546
K0 O19 3.099429 1_456
K0 O31 3.324617 1_555
K0 O30 3.324617 1_555
O0 P1 1.560127 1_446
O0 W4 2.040559 1_555
O1 P0 1.555070 1_556
O1 W5 2.023803 1_555
O2 P3 1.555256 1_564
O2 W6 2.050333 1_555
O3 P2 1.555256 1_654
O3 W7 2.050333 1_555
O4 P2 1.527665 1_555
O4 W4 2.064138 1_565
O5 P3 1.550496 1_555
O5 W5 2.075359 1_555
O6 P0 1.536618 1_555
O6 W7 2.081486 1_455
O7 P1 1.536048 1_555
O7 W6 2.044310 1_555
O8 P0 1.536618 1_555
O8 W6 2.081486 1_545
O9 P1 1.536048 1_555
O9 W7 2.044310 1_555
O10 P2 1.550496 1_555
O10 W5 2.075359 1_555
O11 P3 1.527665 1_555
O11 W4 2.064138 1_655
O12 W6 1.853005 1_555
O12 W0 2.028428 1_455
O13 W7 1.839460 1_555
O13 W1 2.031903 1_555
O14 W4 1.866512 1_555
O14 W3 2.016201 1_555
O15 W5 1.821363 1_555
O15 W2 2.053869 1_565
O16 W4 1.866512 1_555
O16 W2 2.016201 1_555
O17 W5 1.821363 1_555
O17 W3 2.053869 1_655
O18 W6 1.839460 1_555
O18 W1 2.031903 1_555
O19 W7 1.853005 1_555
O19 W0 2.028428 1_545
O20 W4 1.805630 1_555
O20 W0 2.044220 1_445
O21 W5 1.915266 1_555
O21 W1 1.950095 1_555
O22 W6 1.844181 1_555
O22 W2 2.009075 1_565
O23 W7 1.844181 1_555
O23 W3 2.009075 1_655
O24 W1 1.904593 1_555
O24 W2 1.934324 1_555
O25 W3 1.859502 1_655
O25 W0 1.992314 1_555
O26 W2 1.859502 1_565
O26 W0 1.992314 1_555
O27 W1 1.904593 1_555
O27 W3 1.934324 1_555
O28 P0 1.547414 1_555
O28 W1 2.030333 1_555
O29 P1 1.520547 1_555
O29 W0 2.090002 1_555
O30 P2 1.531206 1_555
O30 W3 2.055847 1_555
O31 P3 1.531206 1_555
O31 W2 2.055847 1_555
