# generated using pymatgen
data_Ca2S2O9
_symmetry_space_group_name_H-M   'P 1'
_cell_length_a   7.05510735
_cell_length_b   7.05510735
_cell_length_c   12.77146000
_cell_angle_alpha   90.00000000
_cell_angle_beta   90.00000000
_cell_angle_gamma   119.99999387
_symmetry_Int_Tables_number   1
_chemical_formula_structural   Ca2S2O9
_chemical_formula_sum   'Ca6 S6 O27'
_cell_volume   550.52679077
_cell_formula_units_Z   3
loop_
 _symmetry_equiv_pos_site_id
 _symmetry_equiv_pos_as_xyz
  1  'x, y, z'
loop_
 _atom_site_type_symbol
 _atom_site_label
 _atom_site_symmetry_multiplicity
 _atom_site_fract_x
 _atom_site_fract_y
 _atom_site_fract_z
 _atom_site_occupancy
  Ca  Ca0  1  0.47908300  0.00000000  0.33333300  1
  Ca  Ca1  1  0.00000000  0.47908300  0.66666700  1
  Ca  Ca2  1  0.52091700  0.52091700  0.00000000  1
  Ca  Ca3  1  0.46612300  0.00000000  0.83333300  1
  Ca  Ca4  1  0.00000000  0.46612300  0.16666700  1
  Ca  Ca5  1  0.53387700  0.53387700  0.50000000  1
  S  S0  1  0.46547700  0.00744700  0.58326300  1
  S  S1  1  0.99255300  0.45803000  0.91659600  1
  S  S2  1  0.00744700  0.46547700  0.41673700  1
  S  S3  1  0.54197000  0.53452300  0.24993000  1
  S  S4  1  0.45803000  0.99255300  0.08340400  1
  S  S5  1  0.53452300  0.54197000  0.75007000  1
  O  O0  1  0.11269300  0.00000000  0.83333300  1
  O  O1  1  0.00000000  0.11269300  0.16666700  1
  O  O2  1  0.88730700  0.88730700  0.50000000  1
  O  O3  1  0.34881400  0.48779700  0.67739300  1
  O  O4  1  0.51220300  0.86101700  0.01072600  1
  O  O5  1  0.48779700  0.34881400  0.32260700  1
  O  O6  1  0.13898300  0.65118600  0.34406000  1
  O  O7  1  0.86101700  0.51220300  0.98927400  1
  O  O8  1  0.65118600  0.13898300  0.65594000  1
  O  O9  1  0.13816600  0.41259300  0.98370900  1
  O  O10  1  0.58740700  0.72557300  0.31704200  1
  O  O11  1  0.41259300  0.13816600  0.01629100  1
  O  O12  1  0.27442700  0.86183400  0.65037500  1
  O  O13  1  0.72557300  0.58740700  0.68295800  1
  O  O14  1  0.86183400  0.27442700  0.34962500  1
  O  O15  1  0.47742900  0.35319700  0.82239500  1
  O  O16  1  0.64680300  0.12423300  0.15572900  1
  O  O17  1  0.35319700  0.47742900  0.17760500  1
  O  O18  1  0.87576700  0.52257100  0.48906200  1
  O  O19  1  0.12423300  0.64680300  0.84427100  1
  O  O20  1  0.52257100  0.87576700  0.51093800  1
  O  O21  1  0.41594200  0.14691900  0.51480400  1
  O  O22  1  0.85308100  0.26902300  0.84813700  1
  O  O23  1  0.14691900  0.41594200  0.48519600  1
  O  O24  1  0.73097700  0.58405800  0.18147000  1
  O  O25  1  0.26902300  0.85308100  0.15186300  1
  O  O26  1  0.58405800  0.73097700  0.81853000  1
loop_
_geom_bond_atom_site_label_1
_geom_bond_atom_site_label_2
_geom_bond_distance
_geom_bond_site_symmetry_2
Ca0 O10 2.419819 1_545
Ca0 O14 2.419821 1_555
Ca0 O5 2.434621 1_555
Ca0 O6 2.434622 1_545
Ca0 O16 2.505247 1_555
Ca0 O20 2.505261 1_545
Ca0 O25 2.665711 1_545
Ca0 O21 2.665722 1_555
Ca1 O13 2.419819 1_455
Ca1 O12 2.419821 1_555
Ca1 O3 2.434621 1_555
Ca1 O8 2.434622 1_455
Ca1 O19 2.505247 1_555
Ca1 O18 2.505261 1_455
Ca1 O22 2.665711 1_455
Ca1 O23 2.665722 1_555
Ca2 O11 2.419820 1_555
Ca2 O9 2.419820 1_554
Ca2 O4 2.434621 1_555
Ca2 O7 2.434621 1_554
Ca2 O15 2.505258 1_554
Ca2 O17 2.505258 1_555
Ca2 O24 2.665711 1_555
Ca2 O26 2.665711 1_554
Ca3 O26 2.430967 1_545
Ca3 O22 2.430968 1_555
Ca3 O19 2.456905 1_545
Ca3 O15 2.456908 1_555
Ca3 O0 2.493487 1_555
Ca3 O4 2.553178 1_546
Ca3 O8 2.553178 1_555
Ca3 O11 2.630749 1_556
Ca3 O12 2.630749 1_545
Ca4 O24 2.430967 1_455
Ca4 O25 2.430968 1_555
Ca4 O16 2.456905 1_455
Ca4 O17 2.456908 1_555
Ca4 O1 2.493487 1_555
Ca4 O7 2.553178 1_454
Ca4 O6 2.553178 1_555
Ca4 O9 2.630749 1_554
Ca4 O14 2.630749 1_455
Ca5 O23 2.430968 1_555
Ca5 O21 2.430968 1_555
Ca5 O18 2.456901 1_555
Ca5 O20 2.456901 1_555
Ca5 O2 2.493487 1_555
Ca5 O5 2.553178 1_555
Ca5 O3 2.553178 1_555
Ca5 O13 2.630749 1_555
Ca5 O10 2.630749 1_555
O3 S5 1.491133 1_555
O4 S4 1.491141 1_555
O5 S3 1.491133 1_555
O6 S2 1.491133 1_555
O7 S1 1.491141 1_555
O8 S0 1.491133 1_555
O9 S1 1.490681 1_455
O10 S3 1.490674 1_555
O11 S4 1.490681 1_545
O12 S0 1.490674 1_565
O13 S5 1.490674 1_555
O14 S2 1.490674 1_655
O15 S5 1.500911 1_555
O16 S4 1.500912 1_545
O17 S3 1.500911 1_555
O18 S2 1.500916 1_655
O19 S1 1.500912 1_455
O20 S0 1.500916 1_565
O21 S0 1.482797 1_555
O22 S1 1.482797 1_555
O23 S2 1.482797 1_555
O24 S3 1.482804 1_555
O25 S4 1.482797 1_555
O26 S5 1.482804 1_555
