# generated using pymatgen
data_LiCe(C2O5)2
_symmetry_space_group_name_H-M   'P 1'
_cell_length_a   7.67627600
_cell_length_b   9.39628100
_cell_length_c   13.52167367
_cell_angle_alpha   70.29397374
_cell_angle_beta   90.00000000
_cell_angle_gamma   90.00000000
_symmetry_Int_Tables_number   1
_chemical_formula_structural   LiCe(C2O5)2
_chemical_formula_sum   'Li4 Ce4 C16 O40'
_cell_volume   918.17910926
_cell_formula_units_Z   4
loop_
 _symmetry_equiv_pos_site_id
 _symmetry_equiv_pos_as_xyz
  1  'x, y, z'
loop_
 _atom_site_type_symbol
 _atom_site_label
 _atom_site_symmetry_multiplicity
 _atom_site_fract_x
 _atom_site_fract_y
 _atom_site_fract_z
 _atom_site_occupancy
  Li  Li0  1  0.69907900  0.40212600  0.72938600  1
  Li  Li1  1  0.69907900  0.09787400  0.27061400  1
  Li  Li2  1  0.30092100  0.59787400  0.27061400  1
  Li  Li3  1  0.30092100  0.90212600  0.72938600  1
  Ce  Ce0  1  0.77108300  0.75436000  0.73768400  1
  Ce  Ce1  1  0.77108300  0.74564000  0.26231600  1
  Ce  Ce2  1  0.22891700  0.24564000  0.26231600  1
  Ce  Ce3  1  0.22891700  0.25436000  0.73768400  1
  C  C0  1  0.77692700  0.66240800  0.51991900  1
  C  C1  1  0.77692700  0.83759200  0.48008100  1
  C  C2  1  0.22307300  0.33759200  0.48008100  1
  C  C3  1  0.22307300  0.16240800  0.51991900  1
  C  C4  1  0.16883100  0.61159700  0.72412800  1
  C  C5  1  0.16883100  0.88840300  0.27587200  1
  C  C6  1  0.83116900  0.38840300  0.27587200  1
  C  C7  1  0.83116900  0.11159700  0.72412800  1
  C  C8  1  0.36897700  0.60551400  0.71488900  1
  C  C9  1  0.36897700  0.89448600  0.28511100  1
  C  C10  1  0.63102300  0.39448600  0.28511100  1
  C  C11  1  0.63102300  0.10551400  0.71488900  1
  C  C12  1  0.56743000  0.75000000  0.00000000  1
  C  C13  1  0.43257000  0.25000000  0.00000000  1
  C  C14  1  0.99206400  0.75000000  0.00000000  1
  C  C15  1  0.00793600  0.25000000  0.00000000  1
  O  O0  1  0.76997100  0.59927300  0.61899000  1
  O  O1  1  0.76997100  0.90072700  0.38101000  1
  O  O2  1  0.23002900  0.40072700  0.38101000  1
  O  O3  1  0.23002900  0.09927300  0.61899000  1
  O  O4  1  0.78064400  0.59814300  0.45193000  1
  O  O5  1  0.78064400  0.90185700  0.54807000  1
  O  O6  1  0.21935600  0.40185700  0.54807000  1
  O  O7  1  0.21935600  0.09814300  0.45193000  1
  O  O8  1  0.09935400  0.73745300  0.71639000  1
  O  O9  1  0.09935400  0.76254700  0.28361000  1
  O  O10  1  0.90064600  0.26254700  0.28361000  1
  O  O11  1  0.90064600  0.23745300  0.71639000  1
  O  O12  1  0.09019700  0.48758700  0.73997600  1
  O  O13  1  0.09019700  0.01241300  0.26002400  1
  O  O14  1  0.90980300  0.51241300  0.26002400  1
  O  O15  1  0.90980300  0.98758700  0.73997600  1
  O  O16  1  0.43145400  0.48157200  0.71451600  1
  O  O17  1  0.43145400  0.01842800  0.28548400  1
  O  O18  1  0.56854600  0.51842800  0.28548400  1
  O  O19  1  0.56854600  0.98157200  0.71451600  1
  O  O20  1  0.45315700  0.72395100  0.71001900  1
  O  O21  1  0.45315700  0.77604900  0.28998100  1
  O  O22  1  0.54684300  0.27604900  0.28998100  1
  O  O23  1  0.54684300  0.22395100  0.71001900  1
  O  O24  1  0.57639200  0.76299100  0.91078100  1
  O  O25  1  0.57639200  0.73700900  0.08921900  1
  O  O26  1  0.42360800  0.23700900  0.08921900  1
  O  O27  1  0.42360800  0.26299100  0.91078100  1
  O  O28  1  0.97776200  0.72485200  0.92079200  1
  O  O29  1  0.97776200  0.77514800  0.07920800  1
  O  O30  1  0.02223800  0.27514800  0.07920800  1
  O  O31  1  0.02223800  0.22485200  0.92079200  1
  O  O32  1  0.74593000  0.53739700  0.84542200  1
  O  O33  1  0.74593000  0.96260300  0.15457800  1
  O  O34  1  0.25407000  0.46260300  0.15457800  1
  O  O35  1  0.25407000  0.03739700  0.84542200  1
  O  O36  1  0.26594700  0.57709100  0.06140900  1
  O  O37  1  0.26594700  0.92290900  0.93859100  1
  O  O38  1  0.73405300  0.42290900  0.93859100  1
  O  O39  1  0.73405300  0.07709100  0.06140900  1
loop_
_geom_bond_atom_site_label_1
_geom_bond_atom_site_label_2
_geom_bond_distance
_geom_bond_site_symmetry_2
Li0 O0 2.022657 1_555
Li0 O23 2.129031 1_555
Li0 O16 2.171836 1_555
Li0 O11 2.236631 1_555
Li0 O32 2.356177 1_555
Li1 O1 2.022657 1_545
Li1 O22 2.129031 1_555
Li1 O17 2.171836 1_555
Li1 O10 2.236631 1_555
Li1 O33 2.356177 1_545
Li2 O2 2.022657 1_555
Li2 O21 2.129031 1_555
Li2 O18 2.171836 1_555
Li2 O9 2.236631 1_555
Li2 O34 2.356177 1_555
Li3 O3 2.022657 1_565
Li3 O20 2.129031 1_555
Li3 O19 2.171836 1_555
Li3 O8 2.236631 1_555
Li3 O35 2.356177 1_565
Ce0 O32 2.076717 1_555
Ce0 O15 2.446058 1_555
Ce0 O5 2.470505 1_555
Ce0 O20 2.499928 1_555
Ce0 O0 2.505337 1_555
Ce0 O8 2.547328 1_655
Ce0 O19 2.573380 1_555
Ce0 O24 2.801134 1_555
Ce0 O28 2.874229 1_555
Ce1 O33 2.076717 1_555
Ce1 O14 2.446058 1_555
Ce1 O4 2.470505 1_555
Ce1 O21 2.499928 1_555
Ce1 O1 2.505337 1_555
Ce1 O9 2.547328 1_655
Ce1 O18 2.573380 1_555
Ce1 O25 2.801134 1_555
Ce1 O29 2.874229 1_555
Ce2 O34 2.076717 1_555
Ce2 O13 2.446058 1_555
Ce2 O7 2.470505 1_555
Ce2 O22 2.499928 1_555
Ce2 O2 2.505337 1_555
Ce2 O10 2.547328 1_455
Ce2 O17 2.573380 1_555
Ce2 O26 2.801134 1_555
Ce2 O30 2.874229 1_555
Ce3 O35 2.076717 1_555
Ce3 O12 2.446058 1_555
Ce3 O6 2.470505 1_555
Ce3 O23 2.499928 1_555
Ce3 O3 2.505337 1_555
Ce3 O11 2.547328 1_455
Ce3 O16 2.573380 1_555
Ce3 O27 2.801134 1_555
Ce3 O31 2.874229 1_555
C0 O4 1.258963 1_555
C0 O0 1.270191 1_555
C1 O5 1.258963 1_555
C1 O1 1.270191 1_555
C2 O6 1.258963 1_555
C2 O2 1.270191 1_555
C3 O7 1.258963 1_555
C3 O3 1.270191 1_555
C4 O12 1.264771 1_555
C4 O8 1.269027 1_555
C5 O13 1.264771 1_565
C5 O9 1.269027 1_555
C6 O14 1.264771 1_555
C6 O10 1.269027 1_555
C7 O15 1.264771 1_545
C7 O11 1.269027 1_555
C8 O16 1.261060 1_555
C8 O20 1.269232 1_555
C9 O17 1.261060 1_565
C9 O21 1.269232 1_555
C10 O18 1.261060 1_555
C10 O22 1.269232 1_555
C11 O19 1.261060 1_545
C11 O23 1.269232 1_555
C12 O25 1.172902 1_555
C12 O24 1.172902 1_554
C13 O26 1.172902 1_555
C13 O27 1.172902 1_554
C14 O29 1.177140 1_555
C14 O28 1.177140 1_554
C15 O30 1.177140 1_555
C15 O31 1.177140 1_554
O32 O38 1.355991 1_555
O33 O39 1.355991 1_565
O34 O36 1.355991 1_555
O35 O37 1.355991 1_545
