# generated using pymatgen
data_RbTbF5
_symmetry_space_group_name_H-M   'P 1'
_cell_length_a   7.73919900
_cell_length_b   8.85829642
_cell_length_c   11.46923410
_cell_angle_alpha   77.07347076
_cell_angle_beta   74.43542386
_cell_angle_gamma   69.43553059
_symmetry_Int_Tables_number   1
_chemical_formula_structural   RbTbF5
_chemical_formula_sum   'Rb6 Tb6 F30'
_cell_volume   701.84308771
_cell_formula_units_Z   6
loop_
 _symmetry_equiv_pos_site_id
 _symmetry_equiv_pos_as_xyz
  1  'x, y, z'
loop_
 _atom_site_type_symbol
 _atom_site_label
 _atom_site_symmetry_multiplicity
 _atom_site_fract_x
 _atom_site_fract_y
 _atom_site_fract_z
 _atom_site_occupancy
  Rb  Rb0  1  0.74048300  0.66401200  0.07903500  1
  Rb  Rb1  1  0.25951700  0.33598800  0.92096500  1
  Rb  Rb2  1  0.22398300  0.99928000  0.26619700  1
  Rb  Rb3  1  0.77601700  0.00072000  0.73380300  1
  Rb  Rb4  1  0.23098800  0.66411600  0.57004900  1
  Rb  Rb5  1  0.76901200  0.33588400  0.42995100  1
  Tb  Tb0  1  0.23886200  0.18038900  0.59434900  1
  Tb  Tb1  1  0.76113800  0.81961100  0.40565100  1
  Tb  Tb2  1  0.77176100  0.16127100  0.05330800  1
  Tb  Tb3  1  0.22823900  0.83872900  0.94669200  1
  Tb  Tb4  1  0.21639600  0.53396800  0.24242200  1
  Tb  Tb5  1  0.78360400  0.46603200  0.75757800  1
  F  F0  1  0.10728500  0.39490100  0.70394500  1
  F  F1  1  0.89271500  0.60509900  0.29605500  1
  F  F2  1  0.19770700  0.36903000  0.42761800  1
  F  F3  1  0.80229300  0.63097000  0.57238200  1
  F  F4  1  0.48759200  0.24262300  0.62125200  1
  F  F5  1  0.51240800  0.75737700  0.37874800  1
  F  F6  1  0.08890600  0.06408100  0.04254700  1
  F  F7  1  0.91109400  0.93591900  0.95745300  1
  F  F8  1  0.33850100  0.73401800  0.12368100  1
  F  F9  1  0.66149900  0.26598200  0.87631900  1
  F  F10  1  0.08006100  0.74022400  0.35865600  1
  F  F11  1  0.91993900  0.25977600  0.64134400  1
  F  F12  1  0.15397800  0.01118400  0.52216900  1
  F  F13  1  0.84602200  0.98881600  0.47783100  1
  F  F14  1  0.14987300  0.32645000  0.19536500  1
  F  F15  1  0.85012700  0.67355000  0.80463500  1
  F  F16  1  0.49152300  0.33905800  0.15303000  1
  F  F17  1  0.50847700  0.66094200  0.84697000  1
  F  F18  1  0.45516200  0.53631800  0.33474700  1
  F  F19  1  0.54483800  0.46368200  0.66525300  1
  F  F20  1  0.51518000  0.05206900  0.06621300  1
  F  F21  1  0.48482000  0.94793100  0.93378700  1
  F  F22  1  0.49476000  0.07532000  0.42199100  1
  F  F23  1  0.50524000  0.92468000  0.57800900  1
  F  F24  1  0.22153000  0.03125900  0.77855500  1
  F  F25  1  0.77847000  0.96874100  0.22144500  1
  F  F26  1  0.81047200  0.29695700  0.18946600  1
  F  F27  1  0.18952800  0.70304300  0.81053400  1
  F  F28  1  0.13343700  0.62245400  0.05676800  1
  F  F29  1  0.86656300  0.37754600  0.94323200  1
loop_
_geom_bond_atom_site_label_1
_geom_bond_atom_site_label_2
_geom_bond_distance
_geom_bond_site_symmetry_2
F0 Tb0 2.291311 1_555
F0 Tb5 2.299608 1_455
F0 Rb4 2.852807 1_555
F0 Rb1 2.901103 1_555
F1 Tb1 2.291311 1_555
F1 Tb4 2.299608 1_655
F1 Rb5 2.852807 1_555
F1 Rb0 2.901103 1_555
F2 Tb0 2.252531 1_555
F2 Tb4 2.293989 1_555
F3 Tb1 2.252531 1_555
F3 Tb5 2.293989 1_555
F4 Tb0 2.290200 1_555
F4 Rb5 2.851077 1_555
F4 Rb3 2.861679 1_555
F5 Tb1 2.290200 1_555
F5 Rb4 2.851077 1_555
F5 Rb2 2.861679 1_555
F6 Tb2 2.276229 1_455
F6 Tb3 2.278120 1_544
F6 Rb2 2.891495 1_545
F6 Rb1 3.038571 1_554
F7 Tb3 2.276229 1_655
F7 Tb2 2.278120 1_566
F7 Rb3 2.891495 1_565
F7 Rb0 3.038571 1_556
F8 Tb3 2.289168 1_554
F8 Tb4 2.300895 1_555
F8 Rb0 2.873508 1_555
F8 Rb2 2.908021 1_555
F9 Tb2 2.289168 1_556
F9 Tb5 2.300895 1_555
F9 Rb1 2.873508 1_555
F9 Rb3 2.908021 1_555
F10 Tb1 2.261277 1_455
F10 Tb4 2.282381 1_555
F10 Rb2 2.775663 1_555
F10 Rb4 2.816449 1_555
F11 Tb0 2.261277 1_655
F11 Tb5 2.282381 1_555
F11 Rb3 2.775663 1_555
F11 Rb5 2.816449 1_555
F12 Tb0 2.214103 1_555
F12 Rb2 2.858038 1_545
F12 Rb4 2.870874 1_545
F13 Tb1 2.214103 1_555
F13 Rb3 2.858038 1_565
F13 Rb5 2.870874 1_565
F14 Tb4 2.278899 1_555
F14 Rb2 2.723457 1_545
F14 Rb1 3.021597 1_554
F15 Tb5 2.278899 1_555
F15 Rb3 2.723457 1_565
F15 Rb0 3.021597 1_556
F16 Tb2 2.359515 1_555
F16 Tb4 2.367217 1_555
F17 Tb3 2.359515 1_555
F17 Tb5 2.367217 1_555
F18 Tb4 2.371332 1_555
F18 Rb5 2.787598 1_555
F18 Rb4 3.008184 1_555
F18 Rb0 3.398820 1_555
F19 Tb5 2.371332 1_555
F19 Rb4 2.787598 1_555
F19 Rb5 3.008184 1_555
F19 Rb1 3.398820 1_555
F20 Tb2 2.455294 1_555
F20 Rb2 2.836357 1_545
F20 Rb1 3.068215 1_554
F20 Rb0 3.252562 1_545
F21 Tb3 2.455294 1_555
F21 Rb3 2.836357 1_565
F21 Rb0 3.068215 1_556
F21 Rb1 3.252562 1_565
F22 Tb1 2.473463 1_545
F22 Tb0 2.474569 1_555
F23 Tb0 2.473463 1_565
F23 Tb1 2.474569 1_555
F24 Tb0 2.224941 1_555
F24 Tb3 2.269404 1_545
F25 Tb1 2.224941 1_555
F25 Tb2 2.269404 1_565
F26 Tb2 2.305847 1_555
F26 Rb5 2.775296 1_555
F26 Rb0 3.123795 1_555
F27 Tb3 2.305847 1_555
F27 Rb4 2.775296 1_555
F27 Rb1 3.123795 1_555
F28 Tb4 2.279022 1_555
F28 Tb3 2.282726 1_554
F28 Rb0 2.878905 1_455
F28 Rb1 3.005119 1_554
F29 Tb5 2.279022 1_555
F29 Tb2 2.282726 1_556
F29 Rb1 2.878905 1_655
F29 Rb0 3.005119 1_556
