# generated using pymatgen
data_Li9Mn2Co5O16
_symmetry_space_group_name_H-M   'P 1'
_cell_length_a   7.78163927
_cell_length_b   7.78163927
_cell_length_c   13.11651463
_cell_angle_alpha   87.21083769
_cell_angle_beta   87.21083769
_cell_angle_gamma   21.40319775
_symmetry_Int_Tables_number   1
_chemical_formula_structural   Li9Mn2Co5O16
_chemical_formula_sum   'Li9 Mn2 Co5 O16'
_cell_volume   289.49130051
_cell_formula_units_Z   1
loop_
 _symmetry_equiv_pos_site_id
 _symmetry_equiv_pos_as_xyz
  1  'x, y, z'
loop_
 _atom_site_type_symbol
 _atom_site_label
 _atom_site_symmetry_multiplicity
 _atom_site_fract_x
 _atom_site_fract_y
 _atom_site_fract_z
 _atom_site_occupancy
  Li  Li0  1  0.43541600  0.43541600  0.18811300  1
  Li  Li1  1  0.31166900  0.31166900  0.57532900  1
  Li  Li2  1  0.19075200  0.19075200  0.92151100  1
  Li  Li3  1  0.06886400  0.06886400  0.31601800  1
  Li  Li4  1  0.93898400  0.93898400  0.68703100  1
  Li  Li5  1  0.80761200  0.80761200  0.05263100  1
  Li  Li6  1  0.68548900  0.68548900  0.44688200  1
  Li  Li7  1  0.56253200  0.56253200  0.80921500  1
  Li  Li8  1  0.74918000  0.74918000  0.74962600  1
  Mn  Mn0  1  0.99714400  0.99714400  0.99881000  1
  Mn  Mn1  1  0.87552000  0.87552000  0.37578100  1
  Co  Co0  1  0.62662600  0.62662600  0.12334800  1
  Co  Co1  1  0.50689000  0.50689000  0.50386700  1
  Co  Co2  1  0.36559700  0.36559700  0.85860100  1
  Co  Co3  1  0.24707500  0.24707500  0.25165300  1
  Co  Co4  1  0.13332900  0.13332900  0.64107900  1
  O  O0  1  0.41598300  0.41598300  0.03439900  1
  O  O1  1  0.29390800  0.29390800  0.40643200  1
  O  O2  1  0.15230700  0.15230700  0.77567100  1
  O  O3  1  0.03991600  0.03991600  0.14135300  1
  O  O4  1  0.91242700  0.91242700  0.51661100  1
  O  O5  1  0.78665400  0.78665400  0.90558100  1
  O  O6  1  0.66010100  0.66010100  0.27637300  1
  O  O7  1  0.53645700  0.53645700  0.64821600  1
  O  O8  1  0.45900500  0.45900500  0.34482500  1
  O  O9  1  0.34971400  0.34971400  0.72450100  1
  O  O10  1  0.20889200  0.20889200  0.09676600  1
  O  O11  1  0.08754000  0.08754000  0.46901700  1
  O  O12  1  0.96152500  0.96152500  0.86112400  1
  O  O13  1  0.84064200  0.84064200  0.23458300  1
  O  O14  1  0.71267500  0.71267500  0.59536800  1
  O  O15  1  0.57957500  0.57957500  0.96968200  1
loop_
_geom_bond_atom_site_label_1
_geom_bond_atom_site_label_2
_geom_bond_distance
_geom_bond_site_symmetry_2
Li0 O0 2.052484 1_555
Li0 O8 2.104451 1_555
Li0 O13 2.114864 1_545
Li0 O13 2.114864 1_455
Li0 O3 2.218328 1_655
Li0 O3 2.218328 1_565
Li1 O9 2.068719 1_555
Li1 O14 2.099888 1_455
Li1 O14 2.099888 1_545
Li1 O4 2.222137 1_455
Li1 O4 2.222137 1_545
Li1 O1 2.245239 1_555
Li2 O2 2.028861 1_555
Li2 O5 2.062094 1_455
Li2 O5 2.062094 1_545
Li2 O15 2.295971 1_455
Li2 O15 2.295971 1_545
Li2 O10 2.329012 1_556
Li3 O11 2.040990 1_555
Li3 O6 2.057500 1_545
Li3 O6 2.057500 1_455
Li3 O8 2.233927 1_545
Li3 O8 2.233927 1_455
Li3 O3 2.354801 1_555
Li4 O9 2.031458 1_655
Li4 O9 2.031458 1_565
Li4 O7 2.119907 1_655
Li4 O7 2.119907 1_565
Li4 O4 2.291613 1_555
Li4 O12 2.326183 1_555
Li5 O5 1.970826 1_554
Li5 O10 2.148429 1_655
Li5 O10 2.148429 1_565
Li5 O0 2.202845 1_565
Li5 O0 2.202845 1_655
Li5 O13 2.463794 1_555
Li6 O14 2.011532 1_555
Li6 O11 2.091159 1_565
Li6 O11 2.091159 1_655
Li6 O1 2.243078 1_565
Li6 O1 2.243078 1_655
Li6 O6 2.288798 1_555
Li7 O2 2.026481 1_655
Li7 O2 2.026481 1_565
Li7 O15 2.133614 1_555
Li7 O7 2.168381 1_555
Li7 O12 2.198504 1_545
Li7 O12 2.198504 1_455
Li8 O2 2.085492 1_655
Li8 O2 2.085492 1_565
Li8 O9 2.123708 1_565
Li8 O9 2.123708 1_655
Li8 O14 2.125412 1_555
Li8 O5 2.151498 1_555
Mn0 O12 1.911970 1_555
Mn0 O15 1.943033 1_655
Mn0 O15 1.943033 1_565
Mn0 O0 1.946546 1_566
Mn0 O0 1.946546 1_656
Mn0 O3 2.011124 1_666
Mn1 O1 1.938459 1_655
Mn1 O1 1.938459 1_565
Mn1 O13 1.952518 1_555
Mn1 O8 1.957429 1_655
Mn1 O8 1.957429 1_565
Mn1 O4 1.958049 1_555
Co0 O10 1.936201 1_655
Co0 O10 1.936201 1_565
Co0 O3 1.967517 1_565
Co0 O3 1.967517 1_655
Co0 O6 2.095829 1_555
Co0 O15 2.173444 1_554
Co1 O11 1.939664 1_565
Co1 O11 1.939664 1_655
Co1 O7 1.968256 1_555
Co1 O4 2.044232 1_545
Co1 O4 2.044232 1_455
Co1 O8 2.244829 1_555
Co2 O9 1.787492 1_555
Co2 O5 1.962527 1_545
Co2 O5 1.962527 1_455
Co2 O12 2.060581 1_545
Co2 O12 2.060581 1_455
Co2 O0 2.467118 1_556
Co3 O6 1.979775 1_455
Co3 O6 1.979775 1_545
Co3 O13 2.038102 1_545
Co3 O13 2.038102 1_455
Co3 O10 2.141439 1_555
Co3 O1 2.185979 1_555
Co4 O2 1.803201 1_555
Co4 O14 1.961585 1_545
Co4 O14 1.961585 1_455
Co4 O7 2.068256 1_545
Co4 O7 2.068256 1_455
Co4 O11 2.395879 1_555
