# generated using pymatgen
data_PrPS
_symmetry_space_group_name_H-M   'P 1'
_cell_length_a   5.56011869
_cell_length_b   5.63357068
_cell_length_c   17.29462311
_cell_angle_alpha   90.00000000
_cell_angle_beta   90.00000000
_cell_angle_gamma   90.00000000
_symmetry_Int_Tables_number   1
_chemical_formula_structural   PrPS
_chemical_formula_sum   'Pr8 P8 S8'
_cell_volume   541.72504213
_cell_formula_units_Z   8
loop_
 _symmetry_equiv_pos_site_id
 _symmetry_equiv_pos_as_xyz
  1  'x, y, z'
loop_
 _atom_site_type_symbol
 _atom_site_label
 _atom_site_symmetry_multiplicity
 _atom_site_fract_x
 _atom_site_fract_y
 _atom_site_fract_z
 _atom_site_occupancy
  Pr  Pr0  1  0.25000000  0.48286998  0.36263394  1
  Pr  Pr1  1  0.25000000  0.98286998  0.13736606  1
  Pr  Pr2  1  0.75000000  0.51713002  0.63736606  1
  Pr  Pr3  1  0.75000000  0.01713002  0.86263394  1
  Pr  Pr4  1  0.25000000  0.01705117  0.64832236  1
  Pr  Pr5  1  0.25000000  0.51705117  0.85167764  1
  Pr  Pr6  1  0.75000000  0.98294883  0.35167764  1
  Pr  Pr7  1  0.75000000  0.48294883  0.14832236  1
  P  P0  1  0.04728083  0.30803553  0.99719621  1
  P  P1  1  0.45271917  0.80803553  0.50280379  1
  P  P2  1  0.54728083  0.69196447  0.00280379  1
  P  P3  1  0.95271917  0.19196447  0.49719621  1
  P  P4  1  0.95271917  0.69196447  0.00280379  1
  P  P5  1  0.54728083  0.19196447  0.49719621  1
  P  P6  1  0.45271917  0.30803553  0.99719621  1
  P  P7  1  0.04728083  0.80803553  0.50280379  1
  S  S0  1  0.25000000  0.48448147  0.18931082  1
  S  S1  1  0.25000000  0.98448147  0.31068918  1
  S  S2  1  0.75000000  0.51551853  0.81068918  1
  S  S3  1  0.75000000  0.01551853  0.68931082  1
  S  S4  1  0.25000000  0.01271188  0.81768492  1
  S  S5  1  0.25000000  0.51271188  0.68231508  1
  S  S6  1  0.75000000  0.98728812  0.18231508  1
  S  S7  1  0.75000000  0.48728812  0.31768492  1
loop_
_geom_bond_atom_site_label_1
_geom_bond_atom_site_label_2
_geom_bond_distance
_geom_bond_site_symmetry_2
Pr0 S7 2.886809 1_555
Pr0 S7 2.886809 1_455
Pr0 S1 2.947928 1_545
Pr0 S1 2.965226 1_555
Pr0 S0 2.997572 1_555
Pr1 S6 2.886809 1_555
Pr1 S6 2.886809 1_455
Pr1 S0 2.947928 1_555
Pr1 S0 2.965226 1_565
Pr1 S1 2.997572 1_555
Pr2 S5 2.886809 1_555
Pr2 S5 2.886809 1_655
Pr2 S3 2.947928 1_565
Pr2 S3 2.965226 1_555
Pr2 S2 2.997572 1_555
Pr3 S4 2.886809 1_655
Pr3 S4 2.886809 1_555
Pr3 S2 2.947928 1_555
Pr3 S2 2.965226 1_545
Pr3 S3 2.997572 1_555
Pr4 S5 2.853555 1_555
Pr4 S3 2.869027 1_455
Pr4 S3 2.869027 1_555
Pr4 S5 2.901415 1_545
Pr4 S4 2.929164 1_555
Pr5 S4 2.853555 1_565
Pr5 S2 2.869027 1_455
Pr5 S2 2.869027 1_555
Pr5 S4 2.901415 1_555
Pr5 S5 2.929164 1_555
Pr6 S7 2.853555 1_555
Pr6 S1 2.869027 1_555
Pr6 S1 2.869027 1_655
Pr6 S7 2.901415 1_565
Pr6 S6 2.929164 1_555
Pr7 S6 2.853555 1_545
Pr7 S0 2.869027 1_555
Pr7 S0 2.869027 1_655
Pr7 S6 2.901415 1_555
Pr7 S7 2.929164 1_555
P0 P4 2.227990 1_456
P0 P6 2.254285 1_555
P0 Pr5 2.998448 1_555
P0 Pr1 3.240798 1_546
P0 Pr7 3.245672 1_456
P0 Pr3 3.291473 1_455
P1 P5 2.227990 1_565
P1 P7 2.254285 1_555
P1 Pr4 2.998448 1_565
P1 Pr0 3.240798 1_555
P1 Pr6 3.245672 1_555
P1 Pr2 3.291473 1_555
P2 P6 2.227990 1_554
P2 P4 2.254285 1_555
P2 Pr7 2.998448 1_555
P2 Pr3 3.240798 1_564
P2 Pr5 3.245672 1_554
P2 Pr1 3.291473 1_555
P3 P7 2.227990 1_645
P3 P5 2.254285 1_555
P3 Pr6 2.998448 1_545
P3 Pr2 3.240798 1_555
P3 Pr4 3.245672 1_655
P3 Pr0 3.291473 1_655
P4 Pr7 2.998448 1_555
P4 Pr3 3.240798 1_564
P4 Pr5 3.245672 1_654
P4 Pr1 3.291473 1_655
P5 Pr6 2.998448 1_545
P5 Pr2 3.240798 1_555
P5 Pr4 3.245672 1_555
P5 Pr0 3.291473 1_555
P6 Pr5 2.998448 1_555
P6 Pr1 3.240798 1_546
P6 Pr7 3.245672 1_556
P6 Pr3 3.291473 1_555
P7 Pr4 2.998448 1_565
P7 Pr0 3.240798 1_555
P7 Pr6 3.245672 1_455
P7 Pr2 3.291473 1_455
