# generated using pymatgen
data_BRu3
_symmetry_space_group_name_H-M   'P 1'
_cell_length_a   5.32227221
_cell_length_b   5.32227221
_cell_length_c   4.06212500
_cell_angle_alpha   90.00000000
_cell_angle_beta   90.00000000
_cell_angle_gamma   120.00000261
_symmetry_Int_Tables_number   1
_chemical_formula_structural   BRu3
_chemical_formula_sum   'B2 Ru6'
_cell_volume   99.65017589
_cell_formula_units_Z   2
loop_
 _symmetry_equiv_pos_site_id
 _symmetry_equiv_pos_as_xyz
  1  'x, y, z'
loop_
 _atom_site_type_symbol
 _atom_site_label
 _atom_site_symmetry_multiplicity
 _atom_site_fract_x
 _atom_site_fract_y
 _atom_site_fract_z
 _atom_site_occupancy
  B  B0  1  0.33333300  0.66666700  0.75000000  1
  B  B1  1  0.66666700  0.33333300  0.25000000  1
  Ru  Ru0  1  0.17464100  0.34928100  0.25000000  1
  Ru  Ru1  1  0.65071900  0.82535900  0.25000000  1
  Ru  Ru2  1  0.17464100  0.82535900  0.25000000  1
  Ru  Ru3  1  0.82535900  0.65071900  0.75000000  1
  Ru  Ru4  1  0.34928100  0.17464100  0.75000000  1
  Ru  Ru5  1  0.82535900  0.17464100  0.75000000  1
loop_
_geom_bond_atom_site_label_1
_geom_bond_atom_site_label_2
_geom_bond_distance
_geom_bond_site_symmetry_2
B0 Ru2 2.503053 1_556
B0 Ru2 2.503053 1_555
B0 Ru1 2.503058 1_556
B0 Ru1 2.503058 1_555
B0 Ru0 2.503058 1_556
B0 Ru0 2.503058 1_555
B0 Ru5 2.662151 1_565
B0 Ru5 2.662151 1_455
B0 Ru4 2.662151 1_565
B0 Ru3 2.662151 1_455
B0 Ru3 2.662151 1_555
B0 Ru4 2.662151 1_555
B1 Ru5 2.503053 1_555
B1 Ru5 2.503053 1_554
B1 Ru3 2.503058 1_555
B1 Ru4 2.503058 1_555
B1 Ru3 2.503058 1_554
B1 Ru4 2.503058 1_554
B1 Ru2 2.662151 1_545
B1 Ru2 2.662151 1_655
B1 Ru1 2.662151 1_545
B1 Ru0 2.662151 1_655
B1 Ru1 2.662151 1_555
B1 Ru0 2.662151 1_555
Ru0 Ru1 2.533817 1_555
Ru0 Ru2 2.533817 1_555
Ru0 Ru4 2.591722 1_555
Ru0 Ru4 2.591722 1_554
Ru0 Ru5 2.591728 1_455
Ru0 Ru5 2.591728 1_454
Ru0 Ru1 2.788455 1_445
Ru0 Ru2 2.788456 1_545
Ru1 Ru2 2.533817 1_555
Ru1 Ru3 2.591722 1_554
Ru1 Ru3 2.591722 1_555
Ru1 Ru5 2.591728 1_565
Ru1 Ru5 2.591728 1_564
Ru1 Ru2 2.788456 1_655
Ru2 Ru4 2.591728 1_565
Ru2 Ru4 2.591728 1_564
Ru2 Ru3 2.591728 1_454
Ru2 Ru3 2.591728 1_455
Ru3 Ru4 2.533817 1_555
Ru3 Ru5 2.533817 1_555
Ru3 Ru4 2.788455 1_665
Ru3 Ru5 2.788456 1_565
Ru4 Ru5 2.533817 1_555
Ru4 Ru5 2.788456 1_455
