# generated using pymatgen
data_Th3Sn13Ru4
_symmetry_space_group_name_H-M   'P 1'
_cell_length_a   10.12532200
_cell_length_b   10.12532200
_cell_length_c   10.12532200
_cell_angle_alpha   90.00000000
_cell_angle_beta   90.00000000
_cell_angle_gamma   90.00000000
_symmetry_Int_Tables_number   1
_chemical_formula_structural   Th3Sn13Ru4
_chemical_formula_sum   'Th6 Sn26 Ru8'
_cell_volume   1038.06973637
_cell_formula_units_Z   2
loop_
 _symmetry_equiv_pos_site_id
 _symmetry_equiv_pos_as_xyz
  1  'x, y, z'
loop_
 _atom_site_type_symbol
 _atom_site_label
 _atom_site_symmetry_multiplicity
 _atom_site_fract_x
 _atom_site_fract_y
 _atom_site_fract_z
 _atom_site_occupancy
  Th  Th0  1  0.25000000  0.00000000  0.50000000  1
  Th  Th1  1  0.75000000  0.00000000  0.50000000  1
  Th  Th2  1  0.50000000  0.25000000  0.00000000  1
  Th  Th3  1  0.50000000  0.75000000  0.00000000  1
  Th  Th4  1  0.00000000  0.50000000  0.25000000  1
  Th  Th5  1  0.00000000  0.50000000  0.75000000  1
  Sn  Sn0  1  0.00000000  0.00000000  0.00000000  1
  Sn  Sn1  1  0.50000000  0.50000000  0.50000000  1
  Sn  Sn2  1  0.00000000  0.15478200  0.30485500  1
  Sn  Sn3  1  0.00000000  0.84521800  0.69514500  1
  Sn  Sn4  1  0.00000000  0.84521800  0.30485500  1
  Sn  Sn5  1  0.00000000  0.15478200  0.69514500  1
  Sn  Sn6  1  0.30485500  0.00000000  0.15478200  1
  Sn  Sn7  1  0.65478200  0.50000000  0.19514500  1
  Sn  Sn8  1  0.69514500  0.00000000  0.84521800  1
  Sn  Sn9  1  0.34521800  0.50000000  0.80485500  1
  Sn  Sn10  1  0.30485500  0.00000000  0.84521800  1
  Sn  Sn11  1  0.34521800  0.50000000  0.19514500  1
  Sn  Sn12  1  0.69514500  0.00000000  0.15478200  1
  Sn  Sn13  1  0.65478200  0.50000000  0.80485500  1
  Sn  Sn14  1  0.15478200  0.30485500  0.00000000  1
  Sn  Sn15  1  0.50000000  0.80485500  0.34521800  1
  Sn  Sn16  1  0.84521800  0.69514500  0.00000000  1
  Sn  Sn17  1  0.50000000  0.19514500  0.65478200  1
  Sn  Sn18  1  0.15478200  0.69514500  0.00000000  1
  Sn  Sn19  1  0.50000000  0.19514500  0.34521800  1
  Sn  Sn20  1  0.84521800  0.30485500  0.00000000  1
  Sn  Sn21  1  0.50000000  0.80485500  0.65478200  1
  Sn  Sn22  1  0.19514500  0.65478200  0.50000000  1
  Sn  Sn23  1  0.80485500  0.34521800  0.50000000  1
  Sn  Sn24  1  0.19514500  0.34521800  0.50000000  1
  Sn  Sn25  1  0.80485500  0.65478200  0.50000000  1
  Ru  Ru0  1  0.25000000  0.25000000  0.25000000  1
  Ru  Ru1  1  0.75000000  0.75000000  0.75000000  1
  Ru  Ru2  1  0.75000000  0.75000000  0.25000000  1
  Ru  Ru3  1  0.75000000  0.25000000  0.75000000  1
  Ru  Ru4  1  0.25000000  0.25000000  0.75000000  1
  Ru  Ru5  1  0.25000000  0.75000000  0.25000000  1
  Ru  Ru6  1  0.25000000  0.75000000  0.75000000  1
  Ru  Ru7  1  0.75000000  0.25000000  0.25000000  1
loop_
_geom_bond_atom_site_label_1
_geom_bond_atom_site_label_2
_geom_bond_distance
_geom_bond_site_symmetry_2
Sn0 Sn12 3.461824 1_455
Sn0 Sn2 3.461824 1_555
Sn0 Sn14 3.461824 1_555
Sn0 Sn6 3.461824 1_555
Sn0 Sn18 3.461824 1_545
Sn0 Sn5 3.461824 1_554
Sn0 Sn3 3.461824 1_544
Sn0 Sn4 3.461824 1_545
Sn0 Sn16 3.461824 1_445
Sn0 Sn20 3.461824 1_455
Sn0 Sn10 3.461824 1_554
Sn0 Sn8 3.461824 1_454
Sn1 Sn25 3.461824 1_555
Sn1 Sn21 3.461824 1_555
Sn1 Sn13 3.461824 1_555
Sn1 Sn9 3.461824 1_555
Sn1 Sn15 3.461824 1_555
Sn1 Sn23 3.461824 1_555
Sn1 Sn22 3.461824 1_555
Sn1 Sn17 3.461824 1_555
Sn1 Sn7 3.461824 1_555
Sn1 Sn11 3.461824 1_555
Sn1 Sn19 3.461824 1_555
Sn1 Sn24 3.461824 1_555
Sn2 Th4 3.539297 1_555
Sn2 Th1 3.573235 1_455
Sn2 Th0 3.573235 1_555
Sn3 Th5 3.539297 1_555
Sn3 Th1 3.573235 1_465
Sn3 Th0 3.573235 1_565
Sn4 Th4 3.539297 1_555
Sn4 Th0 3.573235 1_565
Sn4 Th1 3.573235 1_465
Sn5 Th5 3.539297 1_555
Sn5 Th1 3.573235 1_455
Sn5 Th0 3.573235 1_555
Sn6 Th0 3.539297 1_555
Sn6 Th2 3.573235 1_555
Sn6 Th3 3.573235 1_545
Sn7 Th4 3.539297 1_655
Sn7 Th3 3.573235 1_555
Sn7 Th2 3.573235 1_555
Sn8 Th1 3.539297 1_555
Sn8 Th3 3.573235 1_546
Sn8 Th2 3.573235 1_556
Sn9 Th5 3.539297 1_555
Sn9 Th3 3.573235 1_556
Sn9 Th2 3.573235 1_556
Sn10 Th0 3.539297 1_555
Sn10 Th3 3.573235 1_546
Sn10 Th2 3.573235 1_556
Sn11 Th4 3.539297 1_555
Sn11 Th2 3.573235 1_555
Sn11 Th3 3.573235 1_555
Sn12 Th1 3.539297 1_555
Sn12 Th2 3.573235 1_555
Sn12 Th3 3.573235 1_545
Sn13 Th5 3.539297 1_655
Sn13 Th3 3.573235 1_556
Sn13 Th2 3.573235 1_556
Sn14 Th2 3.539297 1_555
Sn14 Th5 3.573235 1_554
Sn14 Th4 3.573235 1_555
Sn15 Th3 3.539297 1_555
Sn15 Th1 3.573235 1_565
Sn15 Th0 3.573235 1_565
Sn16 Th3 3.539297 1_555
Sn16 Th4 3.573235 1_655
Sn16 Th5 3.573235 1_654
Sn17 Th2 3.539297 1_556
Sn17 Th0 3.573235 1_555
Sn17 Th1 3.573235 1_555
Sn18 Th3 3.539297 1_555
Sn18 Th5 3.573235 1_554
Sn18 Th4 3.573235 1_555
Sn19 Th2 3.539297 1_555
Sn19 Th1 3.573235 1_555
Sn19 Th0 3.573235 1_555
Sn20 Th2 3.539297 1_555
Sn20 Th4 3.573235 1_655
Sn20 Th5 3.573235 1_654
Sn21 Th3 3.539297 1_556
Sn21 Th0 3.573235 1_565
Sn21 Th1 3.573235 1_565
Sn22 Th0 3.539297 1_565
Sn22 Th4 3.573235 1_555
Sn22 Th5 3.573235 1_555
Sn23 Th1 3.539297 1_555
Sn23 Th4 3.573235 1_655
Sn23 Th5 3.573235 1_655
Sn24 Th0 3.539297 1_555
Sn24 Th5 3.573235 1_555
Sn24 Th4 3.573235 1_555
Sn25 Th1 3.539297 1_565
Sn25 Th4 3.573235 1_655
Sn25 Th5 3.573235 1_655
Ru0 Sn11 2.765076 1_555
Ru0 Sn24 2.765076 1_555
Ru0 Sn19 2.765076 1_555
Ru0 Sn2 2.765076 1_555
Ru0 Sn14 2.765076 1_555
Ru0 Sn6 2.765076 1_555
Ru0 Th0 3.579842 1_555
Ru0 Th4 3.579842 1_555
Ru0 Th2 3.579842 1_555
Ru1 Sn8 2.765076 1_565
Ru1 Sn16 2.765076 1_556
Ru1 Sn3 2.765076 1_655
Ru1 Sn21 2.765076 1_555
Ru1 Sn25 2.765076 1_555
Ru1 Sn13 2.765076 1_555
Ru1 Th1 3.579842 1_565
Ru1 Th3 3.579842 1_556
Ru1 Th5 3.579842 1_655
Ru2 Sn4 2.765076 1_655
Ru2 Sn15 2.765076 1_555
Ru2 Sn16 2.765076 1_555
Ru2 Sn12 2.765076 1_565
Ru2 Sn25 2.765076 1_555
Ru2 Sn7 2.765076 1_555
Ru2 Th1 3.579842 1_565
Ru2 Th3 3.579842 1_555
Ru2 Th4 3.579842 1_655
Ru3 Sn8 2.765076 1_555
Ru3 Sn20 2.765076 1_556
Ru3 Sn23 2.765076 1_555
Ru3 Sn5 2.765076 1_655
Ru3 Sn13 2.765076 1_555
Ru3 Sn17 2.765076 1_555
Ru3 Th1 3.579842 1_555
Ru3 Th5 3.579842 1_655
Ru3 Th2 3.579842 1_556
Ru4 Sn9 2.765076 1_555
Ru4 Sn10 2.765076 1_555
Ru4 Sn24 2.765076 1_555
Ru4 Sn14 2.765076 1_556
Ru4 Sn5 2.765076 1_555
Ru4 Sn17 2.765076 1_555
Ru4 Th0 3.579842 1_555
Ru4 Th5 3.579842 1_555
Ru4 Th2 3.579842 1_556
Ru5 Sn15 2.765076 1_555
Ru5 Sn4 2.765076 1_555
Ru5 Sn11 2.765076 1_555
Ru5 Sn6 2.765076 1_565
Ru5 Sn18 2.765076 1_555
Ru5 Sn22 2.765076 1_555
Ru5 Th3 3.579842 1_555
Ru5 Th4 3.579842 1_555
Ru5 Th0 3.579842 1_565
Ru6 Sn9 2.765076 1_555
Ru6 Sn3 2.765076 1_555
Ru6 Sn10 2.765076 1_565
Ru6 Sn18 2.765076 1_556
Ru6 Sn21 2.765076 1_555
Ru6 Sn22 2.765076 1_555
Ru6 Th3 3.579842 1_556
Ru6 Th5 3.579842 1_555
Ru6 Th0 3.579842 1_565
Ru7 Sn20 2.765076 1_555
Ru7 Sn23 2.765076 1_555
Ru7 Sn19 2.765076 1_555
Ru7 Sn12 2.765076 1_555
Ru7 Sn2 2.765076 1_655
Ru7 Sn7 2.765076 1_555
Ru7 Th1 3.579842 1_555
Ru7 Th4 3.579842 1_655
Ru7 Th2 3.579842 1_555
