# generated using pymatgen
data_CaCrO2
_symmetry_space_group_name_H-M   'P 1'
_cell_length_a   3.11215100
_cell_length_b   8.26931100
_cell_length_c   8.50207833
_cell_angle_alpha   83.38605637
_cell_angle_beta   90.00000000
_cell_angle_gamma   90.00000000
_symmetry_Int_Tables_number   1
_chemical_formula_structural   CaCrO2
_chemical_formula_sum   'Ca4 Cr4 O8'
_cell_volume   217.34772328
_cell_formula_units_Z   4
loop_
 _symmetry_equiv_pos_site_id
 _symmetry_equiv_pos_as_xyz
  1  'x, y, z'
loop_
 _atom_site_type_symbol
 _atom_site_label
 _atom_site_symmetry_multiplicity
 _atom_site_fract_x
 _atom_site_fract_y
 _atom_site_fract_z
 _atom_site_occupancy
  Ca  Ca0  1  0.75000000  0.42615600  0.18035000  1
  Ca  Ca1  1  0.25000000  0.57384400  0.81965000  1
  Ca  Ca2  1  0.75000000  0.68606600  0.45880700  1
  Ca  Ca3  1  0.25000000  0.31393400  0.54119300  1
  Cr  Cr0  1  0.75000000  0.21444700  0.89507400  1
  Cr  Cr1  1  0.25000000  0.05601900  0.29780300  1
  Cr  Cr2  1  0.75000000  0.94398100  0.70219700  1
  Cr  Cr3  1  0.25000000  0.78555300  0.10492600  1
  O  O0  1  0.75000000  0.67471300  0.99546700  1
  O  O1  1  0.25000000  0.10300900  0.76720200  1
  O  O2  1  0.75000000  0.89699100  0.23279800  1
  O  O3  1  0.25000000  0.32528700  0.00453300  1
  O  O4  1  0.75000000  0.46156500  0.66533400  1
  O  O5  1  0.75000000  0.19141600  0.37548100  1
  O  O6  1  0.25000000  0.53843500  0.33466600  1
  O  O7  1  0.25000000  0.80858400  0.62451900  1
loop_
_geom_bond_atom_site_label_1
_geom_bond_atom_site_label_2
_geom_bond_distance
_geom_bond_site_symmetry_2
Ca0 O6 2.299000 1_655
Ca0 O6 2.299000 1_555
Ca0 O3 2.374616 1_655
Ca0 O3 2.374616 1_555
Ca0 O5 2.403855 1_555
Ca0 O0 2.439515 1_554
Ca1 O4 2.299000 1_455
Ca1 O4 2.299000 1_555
Ca1 O0 2.374616 1_455
Ca1 O0 2.374616 1_555
Ca1 O7 2.403855 1_555
Ca1 O3 2.439515 1_556
Ca2 O6 2.307064 1_655
Ca2 O6 2.307064 1_555
Ca2 O7 2.400339 1_655
Ca2 O7 2.400339 1_555
Ca2 O4 2.403908 1_555
Ca2 O2 2.441829 1_555
Ca3 O4 2.307064 1_455
Ca3 O4 2.307064 1_555
Ca3 O5 2.400339 1_455
Ca3 O5 2.400339 1_555
Ca3 O6 2.403908 1_555
Ca3 O1 2.441829 1_555
Cr0 O3 2.079431 1_556
Cr0 O3 2.079431 1_656
Cr0 O1 2.164094 1_555
Cr0 O1 2.164094 1_655
Cr0 O4 2.659259 1_555
Cr1 O5 2.069169 1_555
Cr1 O5 2.069169 1_455
Cr1 O2 2.150258 1_545
Cr1 O2 2.150258 1_445
Cr2 O7 2.069169 1_655
Cr2 O7 2.069169 1_555
Cr2 O1 2.150258 1_565
Cr2 O1 2.150258 1_665
Cr3 O0 2.079431 1_454
Cr3 O0 2.079431 1_554
Cr3 O2 2.164094 1_555
Cr3 O2 2.164094 1_455
Cr3 O6 2.659259 1_555
