# generated using pymatgen
data_Sr(NiP2)2
_symmetry_space_group_name_H-M   'P 1'
_cell_length_a   5.18295160
_cell_length_b   5.42947051
_cell_length_c   9.77318005
_cell_angle_alpha   82.72907771
_cell_angle_beta   74.62342809
_cell_angle_gamma   61.49092931
_symmetry_Int_Tables_number   1
_chemical_formula_structural   Sr(NiP2)2
_chemical_formula_sum   'Sr2 Ni4 P8'
_cell_volume   233.02396477
_cell_formula_units_Z   2
loop_
 _symmetry_equiv_pos_site_id
 _symmetry_equiv_pos_as_xyz
  1  'x, y, z'
loop_
 _atom_site_type_symbol
 _atom_site_label
 _atom_site_symmetry_multiplicity
 _atom_site_fract_x
 _atom_site_fract_y
 _atom_site_fract_z
 _atom_site_occupancy
  Sr  Sr0  1  0.62500000  0.25000000  0.75000000  1
  Sr  Sr1  1  0.37500000  0.75000000  0.25000000  1
  Ni  Ni0  1  0.00522391  0.25000000  0.98955218  1
  Ni  Ni1  1  0.24477609  0.25000000  0.51044782  1
  Ni  Ni2  1  0.99477609  0.75000000  0.01044782  1
  Ni  Ni3  1  0.75522391  0.75000000  0.48955218  1
  P  P0  1  0.32151063  0.86454750  0.86375410  1
  P  P1  1  0.04981323  0.63545250  0.63624590  1
  P  P2  1  0.31394087  0.86454750  0.63624590  1
  P  P3  1  0.81473527  0.63545250  0.86375410  1
  P  P4  1  0.67848937  0.13545250  0.13624590  1
  P  P5  1  0.95018677  0.36454750  0.36375410  1
  P  P6  1  0.68605913  0.13545250  0.36375410  1
  P  P7  1  0.18526473  0.36454750  0.13624590  1
loop_
_geom_bond_atom_site_label_1
_geom_bond_atom_site_label_2
_geom_bond_distance
_geom_bond_site_symmetry_2
Ni0 P7 2.191374 1_556
Ni0 P4 2.191374 1_456
Ni0 P3 2.210465 1_455
Ni0 P0 2.210465 1_545
Ni1 P5 2.191378 1_455
Ni1 P6 2.191378 1_555
Ni1 P1 2.210466 1_555
Ni1 P2 2.210466 1_545
Ni2 P3 2.191374 1_554
Ni2 P0 2.191374 1_654
Ni2 P7 2.210465 1_655
Ni2 P4 2.210465 1_565
Ni3 P1 2.191378 1_655
Ni3 P2 2.191378 1_555
Ni3 P5 2.210466 1_555
Ni3 P6 2.210466 1_565
P0 P2 2.234202 1_555
P0 P3 2.246505 1_555
P0 Sr0 3.117075 1_565
P0 Sr0 3.137664 1_555
P1 P3 2.234202 1_455
P1 P2 2.246495 1_555
P1 Sr0 3.117071 1_555
P1 Sr0 3.137665 1_465
P2 Sr0 3.117071 1_465
P2 Sr0 3.137665 1_555
P3 Sr0 3.117074 1_555
P3 Sr0 3.137664 1_565
P4 P6 2.234202 1_555
P4 P7 2.246505 1_555
P4 Sr1 3.117075 1_545
P4 Sr1 3.137664 1_555
P5 P7 2.234202 1_655
P5 P6 2.246495 1_555
P5 Sr1 3.117071 1_555
P5 Sr1 3.137665 1_645
P6 Sr1 3.117071 1_645
P6 Sr1 3.137665 1_555
P7 Sr1 3.117074 1_555
P7 Sr1 3.137664 1_545
