# generated using pymatgen
data_Hf3Co
_symmetry_space_group_name_H-M   'P 1'
_cell_length_a   5.53941551
_cell_length_b   5.53941551
_cell_length_c   5.53941551
_cell_angle_alpha   137.92837522
_cell_angle_beta   137.92837522
_cell_angle_gamma   61.01271293
_symmetry_Int_Tables_number   1
_chemical_formula_structural   Hf3Co
_chemical_formula_sum   'Hf3 Co1'
_cell_volume   75.47708994
_cell_formula_units_Z   1
loop_
 _symmetry_equiv_pos_site_id
 _symmetry_equiv_pos_as_xyz
  1  'x, y, z'
loop_
 _atom_site_type_symbol
 _atom_site_label
 _atom_site_symmetry_multiplicity
 _atom_site_fract_x
 _atom_site_fract_y
 _atom_site_fract_z
 _atom_site_occupancy
  Hf  Hf0  1  0.75000000  0.25000000  0.50000000  1
  Hf  Hf1  1  0.25000000  0.75000000  0.50000000  1
  Hf  Hf2  1  0.50000000  0.50000000  0.00000000  1
  Co  Co0  1  0.00000000  0.00000000  0.00000000  1
loop_
_geom_bond_atom_site_label_1
_geom_bond_atom_site_label_2
_geom_bond_distance
_geom_bond_site_symmetry_2
Hf0 Hf1 2.811995 1_656
Hf0 Hf1 2.811995 1_544
Hf0 Hf1 2.811995 1_555
Hf0 Hf1 2.811995 1_645
Hf0 Hf2 3.106141 1_556
Hf0 Hf2 3.106141 1_656
Hf0 Hf2 3.106141 1_555
Hf0 Hf2 3.106141 1_545
Hf1 Hf2 3.106141 1_455
Hf1 Hf2 3.106141 1_556
Hf1 Hf2 3.106141 1_555
Hf1 Hf2 3.106141 1_566
Co0 Hf2 2.811995 1_545
Co0 Hf2 2.811995 1_455
Co0 Hf2 2.811995 1_556
Co0 Hf2 2.811995 1_444
Co0 Hf1 3.106141 1_544
Co0 Hf1 3.106141 1_555
Co0 Hf1 3.106141 1_444
Co0 Hf0 3.106141 1_455
Co0 Hf1 3.106141 1_545
Co0 Hf0 3.106141 1_555
Co0 Hf0 3.106141 1_444
Co0 Hf0 3.106141 1_454
