# generated using pymatgen
data_MgCd2
_symmetry_space_group_name_H-M   'P 1'
_cell_length_a   23.63887312
_cell_length_b   6.18516418
_cell_length_c   14.61691742
_cell_angle_alpha   90.00000000
_cell_angle_beta   107.19992971
_cell_angle_gamma   90.00000000
_symmetry_Int_Tables_number   1
_chemical_formula_structural   MgCd2
_chemical_formula_sum   'Mg32 Cd64'
_cell_volume   2041.56823941
_cell_formula_units_Z   32
loop_
 _symmetry_equiv_pos_site_id
 _symmetry_equiv_pos_as_xyz
  1  'x, y, z'
loop_
 _atom_site_type_symbol
 _atom_site_label
 _atom_site_symmetry_multiplicity
 _atom_site_fract_x
 _atom_site_fract_y
 _atom_site_fract_z
 _atom_site_occupancy
  Mg  Mg0_0  1  0.18155241  0.00000000  0.23556575  1
  Mg  Mg0_1  1  0.18155241  0.00000000  0.73556575  1
  Mg  Mg0_2  1  0.18155241  0.50000000  0.23556575  1
  Mg  Mg0_3  1  0.18155241  0.50000000  0.73556575  1
  Mg  Mg0_4  1  0.68155241  0.00000000  0.23556575  1
  Mg  Mg0_5  1  0.68155241  0.00000000  0.73556575  1
  Mg  Mg0_6  1  0.68155241  0.50000000  0.23556575  1
  Mg  Mg0_7  1  0.68155241  0.50000000  0.73556575  1
  Mg  Mg1_0  1  0.06844809  0.25000000  0.26443524  1
  Mg  Mg1_1  1  0.06844809  0.25000000  0.76443525  1
  Mg  Mg1_2  1  0.06844809  0.75000000  0.26443524  1
  Mg  Mg1_3  1  0.06844809  0.75000000  0.76443525  1
  Mg  Mg1_4  1  0.56844809  0.25000000  0.26443524  1
  Mg  Mg1_5  1  0.56844809  0.25000000  0.76443524  1
  Mg  Mg1_6  1  0.56844809  0.75000000  0.26443524  1
  Mg  Mg1_7  1  0.56844809  0.75000000  0.76443524  1
  Mg  Mg2_0  1  0.43155242  0.25000000  0.23556575  1
  Mg  Mg2_1  1  0.43155242  0.25000000  0.73556576  1
  Mg  Mg2_2  1  0.43155242  0.75000000  0.23556575  1
  Mg  Mg2_3  1  0.43155242  0.75000000  0.73556576  1
  Mg  Mg2_4  1  0.93155242  0.25000000  0.23556575  1
  Mg  Mg2_5  1  0.93155241  0.25000000  0.73556575  1
  Mg  Mg2_6  1  0.93155242  0.75000000  0.23556575  1
  Mg  Mg2_7  1  0.93155241  0.75000000  0.73556575  1
  Mg  Mg3_0  1  0.31844809  0.00000000  0.26443524  1
  Mg  Mg3_1  1  0.31844808  0.00000000  0.76443525  1
  Mg  Mg3_2  1  0.31844809  0.50000000  0.26443524  1
  Mg  Mg3_3  1  0.31844808  0.50000000  0.76443525  1
  Mg  Mg3_4  1  0.81844809  0.00000000  0.26443524  1
  Mg  Mg3_5  1  0.81844809  0.00000000  0.76443524  1
  Mg  Mg3_6  1  0.81844809  0.50000000  0.26443524  1
  Mg  Mg3_7  1  0.81844809  0.50000000  0.76443524  1
  Cd  Cd0_0  1  0.09742293  0.25000000  0.07334537  1
  Cd  Cd0_1  1  0.09742293  0.25000000  0.57334537  1
  Cd  Cd0_2  1  0.09742293  0.75000000  0.07334537  1
  Cd  Cd0_3  1  0.09742293  0.75000000  0.57334537  1
  Cd  Cd0_4  1  0.59742293  0.25000000  0.07334537  1
  Cd  Cd0_5  1  0.59742293  0.25000000  0.57334537  1
  Cd  Cd0_6  1  0.59742293  0.75000000  0.07334537  1
  Cd  Cd0_7  1  0.59742293  0.75000000  0.57334537  1
  Cd  Cd1_0  1  0.23444600  0.25000000  0.09676897  1
  Cd  Cd1_1  1  0.23444600  0.25000000  0.59676898  1
  Cd  Cd1_2  1  0.23444600  0.75000000  0.09676897  1
  Cd  Cd1_3  1  0.23444600  0.75000000  0.59676898  1
  Cd  Cd1_4  1  0.73444600  0.25000000  0.09676897  1
  Cd  Cd1_5  1  0.73444600  0.25000000  0.59676897  1
  Cd  Cd1_6  1  0.73444600  0.75000000  0.09676897  1
  Cd  Cd1_7  1  0.73444600  0.75000000  0.59676897  1
  Cd  Cd2_0  1  0.01555400  0.00000000  0.40323103  1
  Cd  Cd2_1  1  0.01555400  0.00000000  0.90323102  1
  Cd  Cd2_2  1  0.01555400  0.50000000  0.40323103  1
  Cd  Cd2_3  1  0.01555400  0.50000000  0.90323102  1
  Cd  Cd2_4  1  0.51555400  0.00000000  0.40323103  1
  Cd  Cd2_5  1  0.51555400  0.00000000  0.90323103  1
  Cd  Cd2_6  1  0.51555400  0.50000000  0.40323103  1
  Cd  Cd2_7  1  0.51555400  0.50000000  0.90323103  1
  Cd  Cd3_0  1  0.15257657  0.00000000  0.42665363  1
  Cd  Cd3_1  1  0.15257657  0.00000000  0.92665363  1
  Cd  Cd3_2  1  0.15257657  0.50000000  0.42665363  1
  Cd  Cd3_3  1  0.15257657  0.50000000  0.92665363  1
  Cd  Cd3_4  1  0.65257657  0.00000000  0.42665363  1
  Cd  Cd3_5  1  0.65257657  0.00000000  0.92665363  1
  Cd  Cd3_6  1  0.65257657  0.50000000  0.42665363  1
  Cd  Cd3_7  1  0.65257657  0.50000000  0.92665363  1
  Cd  Cd4_0  1  0.34742293  0.00000000  0.07334537  1
  Cd  Cd4_1  1  0.34742293  0.00000000  0.57334537  1
  Cd  Cd4_2  1  0.34742293  0.50000000  0.07334537  1
  Cd  Cd4_3  1  0.34742293  0.50000000  0.57334537  1
  Cd  Cd4_4  1  0.84742293  0.00000000  0.07334537  1
  Cd  Cd4_5  1  0.84742293  0.00000000  0.57334537  1
  Cd  Cd4_6  1  0.84742293  0.50000000  0.07334537  1
  Cd  Cd4_7  1  0.84742293  0.50000000  0.57334537  1
  Cd  Cd5_0  1  0.48444600  0.00000000  0.09676897  1
  Cd  Cd5_1  1  0.48444600  0.00000000  0.59676897  1
  Cd  Cd5_2  1  0.48444600  0.50000000  0.09676897  1
  Cd  Cd5_3  1  0.48444600  0.50000000  0.59676897  1
  Cd  Cd5_4  1  0.98444600  0.00000000  0.09676897  1
  Cd  Cd5_5  1  0.98444600  0.00000000  0.59676898  1
  Cd  Cd5_6  1  0.98444600  0.50000000  0.09676897  1
  Cd  Cd5_7  1  0.98444600  0.50000000  0.59676898  1
  Cd  Cd6_0  1  0.26555400  0.25000000  0.40323102  1
  Cd  Cd6_1  1  0.26555400  0.25000000  0.90323102  1
  Cd  Cd6_2  1  0.26555400  0.75000000  0.40323102  1
  Cd  Cd6_3  1  0.26555400  0.75000000  0.90323102  1
  Cd  Cd6_4  1  0.76555400  0.25000000  0.40323102  1
  Cd  Cd6_5  1  0.76555400  0.25000000  0.90323103  1
  Cd  Cd6_6  1  0.76555400  0.75000000  0.40323102  1
  Cd  Cd6_7  1  0.76555400  0.75000000  0.90323103  1
  Cd  Cd7_0  1  0.40257657  0.25000000  0.42665363  1
  Cd  Cd7_1  1  0.40257657  0.25000000  0.92665363  1
  Cd  Cd7_2  1  0.40257657  0.75000000  0.42665363  1
  Cd  Cd7_3  1  0.40257657  0.75000000  0.92665363  1
  Cd  Cd7_4  1  0.90257657  0.25000000  0.42665363  1
  Cd  Cd7_5  1  0.90257657  0.25000000  0.92665363  1
  Cd  Cd7_6  1  0.90257657  0.75000000  0.42665363  1
  Cd  Cd7_7  1  0.90257657  0.75000000  0.92665363  1
loop_
_geom_bond_atom_site_label_1
_geom_bond_atom_site_label_2
_geom_bond_distance
_geom_bond_site_symmetry_2
Mg0_0 Mg0_2 3.092582 1_555
Mg0_0 Mg0_2 3.092582 1_545
Mg0_0 Mg3_0 3.137282 1_555
Mg0_0 Mg1_2 3.222545 1_545
Mg0_0 Mg1_0 3.222545 1_555
Mg0_1 Mg0_3 3.092582 1_545
Mg0_1 Mg0_3 3.092582 1_555
Mg0_1 Mg3_1 3.137282 1_555
Mg0_1 Mg1_3 3.222545 1_545
Mg0_1 Mg1_1 3.222545 1_555
Mg0_2 Mg3_2 3.137282 1_555
Mg0_2 Mg1_2 3.222545 1_555
Mg0_2 Mg1_0 3.222545 1_555
Mg0_3 Mg3_3 3.137282 1_555
Mg0_3 Mg1_3 3.222545 1_555
Mg0_3 Mg1_1 3.222545 1_555
Mg0_4 Mg0_6 3.092582 1_555
Mg0_4 Mg0_6 3.092582 1_545
Mg0_4 Mg3_4 3.137282 1_555
Mg0_4 Mg1_6 3.222545 1_545
Mg0_4 Mg1_4 3.222545 1_555
Mg0_5 Mg0_7 3.092582 1_555
Mg0_5 Mg0_7 3.092582 1_545
Mg0_5 Mg3_5 3.137282 1_555
Mg0_5 Mg1_7 3.222545 1_545
Mg0_5 Mg1_5 3.222545 1_555
Mg0_6 Mg3_6 3.137282 1_555
Mg0_6 Mg1_6 3.222545 1_555
Mg0_6 Mg1_4 3.222545 1_555
Mg0_7 Mg3_7 3.137282 1_555
Mg0_7 Mg1_7 3.222545 1_555
Mg0_7 Mg1_5 3.222545 1_555
Mg1_0 Mg1_2 3.092582 1_545
Mg1_0 Mg1_2 3.092582 1_555
Mg1_0 Mg2_4 3.137282 1_455
Mg1_1 Mg1_3 3.092582 1_555
Mg1_1 Mg1_3 3.092582 1_545
Mg1_1 Mg2_5 3.137282 1_455
Mg1_2 Mg2_6 3.137282 1_455
Mg1_3 Mg2_7 3.137282 1_455
Mg1_4 Mg1_6 3.092582 1_545
Mg1_4 Mg1_6 3.092582 1_555
Mg1_4 Mg2_0 3.137282 1_555
Mg1_5 Mg1_7 3.092582 1_555
Mg1_5 Mg1_7 3.092582 1_545
Mg1_5 Mg2_1 3.137282 1_555
Mg1_6 Mg2_2 3.137282 1_555
Mg1_7 Mg2_3 3.137282 1_555
Mg2_0 Mg2_2 3.092582 1_555
Mg2_0 Mg2_2 3.092582 1_545
Mg2_0 Mg3_2 3.222545 1_555
Mg2_0 Mg3_0 3.222545 1_555
Mg2_1 Mg2_3 3.092582 1_555
Mg2_1 Mg2_3 3.092582 1_545
Mg2_1 Mg3_3 3.222545 1_555
Mg2_1 Mg3_1 3.222545 1_555
Mg2_2 Mg3_2 3.222545 1_555
Mg2_2 Mg3_0 3.222545 1_565
Mg2_3 Mg3_1 3.222545 1_565
Mg2_3 Mg3_3 3.222545 1_555
Mg2_4 Mg2_6 3.092582 1_555
Mg2_4 Mg2_6 3.092582 1_545
Mg2_4 Mg3_6 3.222545 1_555
Mg2_4 Mg3_4 3.222545 1_555
Mg2_5 Mg2_7 3.092582 1_555
Mg2_5 Mg2_7 3.092582 1_545
Mg2_5 Mg3_7 3.222545 1_555
Mg2_5 Mg3_5 3.222545 1_555
Mg2_6 Mg3_4 3.222545 1_565
Mg2_6 Mg3_6 3.222545 1_555
Mg2_7 Mg3_7 3.222545 1_555
Mg2_7 Mg3_5 3.222545 1_565
Mg3_0 Mg3_2 3.092582 1_545
Mg3_0 Mg3_2 3.092582 1_555
Mg3_1 Mg3_3 3.092582 1_555
Mg3_1 Mg3_3 3.092582 1_545
Mg3_4 Mg3_6 3.092582 1_545
Mg3_4 Mg3_6 3.092582 1_555
Mg3_5 Mg3_7 3.092582 1_545
Mg3_5 Mg3_7 3.092582 1_555
Cd0_0 Mg0_2 3.029784 1_555
Cd0_0 Mg0_0 3.029784 1_555
Cd0_0 Mg1_0 3.066306 1_555
Cd0_0 Cd2_1 3.077870 1_554
Cd0_0 Cd2_3 3.077870 1_554
Cd0_0 Cd0_2 3.092582 1_555
Cd0_0 Cd0_2 3.092582 1_545
Cd0_0 Cd1_0 3.154826 1_555
Cd0_0 Cd5_6 3.190827 1_455
Cd0_0 Cd5_4 3.190827 1_455
Cd0_0 Cd3_3 3.215844 1_554
Cd0_0 Cd3_1 3.215844 1_554
Cd0_1 Mg0_1 3.029784 1_555
Cd0_1 Mg0_3 3.029784 1_555
Cd0_1 Mg1_1 3.066306 1_555
Cd0_1 Cd2_0 3.077870 1_555
Cd0_1 Cd2_2 3.077870 1_555
Cd0_1 Cd0_3 3.092582 1_545
Cd0_1 Cd0_3 3.092582 1_555
Cd0_1 Cd1_1 3.154826 1_555
Cd0_1 Cd5_7 3.190827 1_455
Cd0_1 Cd5_5 3.190827 1_455
Cd0_1 Cd3_0 3.215844 1_555
Cd0_1 Cd3_2 3.215844 1_555
Cd0_2 Mg0_0 3.029784 1_565
Cd0_2 Mg0_2 3.029784 1_555
Cd0_2 Mg1_2 3.066306 1_555
Cd0_2 Cd2_3 3.077870 1_554
Cd0_2 Cd2_1 3.077870 1_564
Cd0_2 Cd1_2 3.154826 1_555
Cd0_2 Cd5_6 3.190827 1_455
Cd0_2 Cd5_4 3.190827 1_465
Cd0_2 Cd3_3 3.215844 1_554
Cd0_2 Cd3_1 3.215844 1_564
Cd0_3 Mg0_1 3.029784 1_565
Cd0_3 Mg0_3 3.029784 1_555
Cd0_3 Mg1_3 3.066306 1_555
Cd0_3 Cd2_0 3.077870 1_565
Cd0_3 Cd2_2 3.077870 1_555
Cd0_3 Cd1_3 3.154826 1_555
Cd0_3 Cd5_7 3.190827 1_455
Cd0_3 Cd5_5 3.190827 1_465
Cd0_3 Cd3_0 3.215844 1_565
Cd0_3 Cd3_2 3.215844 1_555
Cd0_4 Mg0_6 3.029784 1_555
Cd0_4 Mg0_4 3.029784 1_555
Cd0_4 Mg1_4 3.066306 1_555
Cd0_4 Cd2_5 3.077870 1_554
Cd0_4 Cd2_7 3.077870 1_554
Cd0_4 Cd0_6 3.092582 1_545
Cd0_4 Cd0_6 3.092582 1_555
Cd0_4 Cd1_4 3.154826 1_555
Cd0_4 Cd5_0 3.190827 1_555
Cd0_4 Cd5_2 3.190827 1_555
Cd0_4 Cd3_7 3.215844 1_554
Cd0_4 Cd3_5 3.215844 1_554
Cd0_5 Mg0_7 3.029784 1_555
Cd0_5 Mg0_5 3.029784 1_555
Cd0_5 Mg1_5 3.066306 1_555
Cd0_5 Cd2_4 3.077870 1_555
Cd0_5 Cd2_6 3.077870 1_555
Cd0_5 Cd0_7 3.092582 1_545
Cd0_5 Cd0_7 3.092582 1_555
Cd0_5 Cd1_5 3.154826 1_555
Cd0_5 Cd5_3 3.190827 1_555
Cd0_5 Cd5_1 3.190827 1_555
Cd0_5 Cd3_6 3.215844 1_555
Cd0_5 Cd3_4 3.215844 1_555
Cd0_6 Mg0_6 3.029784 1_555
Cd0_6 Mg0_4 3.029784 1_565
Cd0_6 Mg1_6 3.066306 1_555
Cd0_6 Cd2_5 3.077870 1_564
Cd0_6 Cd2_7 3.077870 1_554
Cd0_6 Cd1_6 3.154826 1_555
Cd0_6 Cd5_0 3.190827 1_565
Cd0_6 Cd5_2 3.190827 1_555
Cd0_6 Cd3_7 3.215844 1_554
Cd0_6 Cd3_5 3.215844 1_564
Cd0_7 Mg0_5 3.029784 1_565
Cd0_7 Mg0_7 3.029784 1_555
Cd0_7 Mg1_7 3.066306 1_555
Cd0_7 Cd2_4 3.077870 1_565
Cd0_7 Cd2_6 3.077870 1_555
Cd0_7 Cd1_7 3.154826 1_555
Cd0_7 Cd5_3 3.190827 1_555
Cd0_7 Cd5_1 3.190827 1_565
Cd0_7 Cd3_4 3.215844 1_565
Cd0_7 Cd3_6 3.215844 1_555
Cd1_0 Mg3_0 3.076068 1_555
Cd1_0 Mg3_2 3.076068 1_555
Cd1_0 Cd3_1 3.077884 1_554
Cd1_0 Cd3_3 3.077884 1_554
Cd1_0 Cd1_2 3.092582 1_545
Cd1_0 Cd1_2 3.092582 1_555
Cd1_0 Mg0_2 3.093631 1_555
Cd1_0 Mg0_0 3.093631 1_555
Cd1_0 Cd6_1 3.126322 1_554
Cd1_0 Cd4_2 3.190827 1_555
Cd1_0 Cd4_0 3.190827 1_555
Cd1_1 Mg3_3 3.076068 1_555
Cd1_1 Mg3_1 3.076068 1_555
Cd1_1 Cd3_2 3.077884 1_555
Cd1_1 Cd3_0 3.077884 1_555
Cd1_1 Cd1_3 3.092582 1_555
Cd1_1 Cd1_3 3.092582 1_545
Cd1_1 Mg0_3 3.093631 1_555
Cd1_1 Mg0_1 3.093631 1_555
Cd1_1 Cd6_0 3.126322 1_555
Cd1_1 Cd4_3 3.190827 1_555
Cd1_1 Cd4_1 3.190827 1_555
Cd1_2 Mg3_2 3.076068 1_555
Cd1_2 Mg3_0 3.076068 1_565
Cd1_2 Cd3_3 3.077884 1_554
Cd1_2 Cd3_1 3.077884 1_564
Cd1_2 Mg0_2 3.093631 1_555
Cd1_2 Mg0_0 3.093631 1_565
Cd1_2 Cd6_3 3.126322 1_554
Cd1_2 Cd4_2 3.190827 1_555
Cd1_2 Cd4_0 3.190827 1_565
Cd1_3 Mg3_3 3.076068 1_555
Cd1_3 Mg3_1 3.076068 1_565
Cd1_3 Cd3_0 3.077884 1_565
Cd1_3 Cd3_2 3.077884 1_555
Cd1_3 Mg0_3 3.093631 1_555
Cd1_3 Mg0_1 3.093631 1_565
Cd1_3 Cd6_2 3.126322 1_555
Cd1_3 Cd4_1 3.190827 1_565
Cd1_3 Cd4_3 3.190827 1_555
Cd1_4 Mg3_4 3.076068 1_555
Cd1_4 Mg3_6 3.076068 1_555
Cd1_4 Cd3_7 3.077884 1_554
Cd1_4 Cd3_5 3.077884 1_554
Cd1_4 Cd1_6 3.092582 1_555
Cd1_4 Cd1_6 3.092582 1_545
Cd1_4 Mg0_4 3.093631 1_555
Cd1_4 Mg0_6 3.093631 1_555
Cd1_4 Cd6_5 3.126322 1_554
Cd1_4 Cd4_6 3.190827 1_555
Cd1_4 Cd4_4 3.190827 1_555
Cd1_5 Mg3_7 3.076068 1_555
Cd1_5 Mg3_5 3.076068 1_555
Cd1_5 Cd3_6 3.077884 1_555
Cd1_5 Cd3_4 3.077884 1_555
Cd1_5 Cd1_7 3.092582 1_545
Cd1_5 Cd1_7 3.092582 1_555
Cd1_5 Mg0_5 3.093631 1_555
Cd1_5 Mg0_7 3.093631 1_555
Cd1_5 Cd6_4 3.126322 1_555
Cd1_5 Cd4_5 3.190827 1_555
Cd1_5 Cd4_7 3.190827 1_555
Cd1_6 Mg3_4 3.076068 1_565
Cd1_6 Mg3_6 3.076068 1_555
Cd1_6 Cd3_5 3.077884 1_564
Cd1_6 Cd3_7 3.077884 1_554
Cd1_6 Mg0_4 3.093631 1_565
Cd1_6 Mg0_6 3.093631 1_555
Cd1_6 Cd6_7 3.126322 1_554
Cd1_6 Cd4_6 3.190827 1_555
Cd1_6 Cd4_4 3.190827 1_565
Cd1_7 Mg3_7 3.076068 1_555
Cd1_7 Mg3_5 3.076068 1_565
Cd1_7 Cd3_4 3.077884 1_565
Cd1_7 Cd3_6 3.077884 1_555
Cd1_7 Mg0_5 3.093631 1_565
Cd1_7 Mg0_7 3.093631 1_555
Cd1_7 Cd6_6 3.126322 1_555
Cd1_7 Cd4_5 3.190827 1_565
Cd1_7 Cd4_7 3.190827 1_555
Cd2_0 Mg2_6 3.076055 1_445
Cd2_0 Mg2_4 3.076055 1_455
Cd2_0 Cd2_2 3.092582 1_555
Cd2_0 Cd2_2 3.092582 1_545
Cd2_0 Mg1_2 3.093627 1_545
Cd2_0 Mg1_0 3.093627 1_555
Cd2_0 Cd5_5 3.126322 1_455
Cd2_0 Cd3_0 3.154818 1_555
Cd2_0 Cd7_4 3.190832 1_455
Cd2_0 Cd7_6 3.190832 1_445
Cd2_1 Mg2_7 3.076055 1_445
Cd2_1 Mg2_5 3.076055 1_455
Cd2_1 Cd2_3 3.092582 1_545
Cd2_1 Cd2_3 3.092582 1_555
Cd2_1 Mg1_3 3.093627 1_545
Cd2_1 Mg1_1 3.093627 1_555
Cd2_1 Cd5_4 3.126322 1_456
Cd2_1 Cd3_1 3.154818 1_555
Cd2_1 Cd7_5 3.190832 1_455
Cd2_1 Cd7_7 3.190832 1_445
Cd2_2 Mg2_6 3.076055 1_455
Cd2_2 Mg2_4 3.076055 1_455
Cd2_2 Mg1_2 3.093627 1_555
Cd2_2 Mg1_0 3.093627 1_555
Cd2_2 Cd5_7 3.126322 1_455
Cd2_2 Cd3_2 3.154818 1_555
Cd2_2 Cd7_6 3.190832 1_455
Cd2_2 Cd7_4 3.190832 1_455
Cd2_3 Mg2_5 3.076055 1_455
Cd2_3 Mg2_7 3.076055 1_455
Cd2_3 Mg1_3 3.093627 1_555
Cd2_3 Mg1_1 3.093627 1_555
Cd2_3 Cd5_6 3.126322 1_456
Cd2_3 Cd3_3 3.154818 1_555
Cd2_3 Cd7_5 3.190832 1_455
Cd2_3 Cd7_7 3.190832 1_455
Cd2_4 Mg2_2 3.076055 1_545
Cd2_4 Mg2_0 3.076055 1_555
Cd2_4 Cd2_6 3.092582 1_545
Cd2_4 Cd2_6 3.092582 1_555
Cd2_4 Mg1_6 3.093627 1_545
Cd2_4 Mg1_4 3.093627 1_555
Cd2_4 Cd5_1 3.126322 1_555
Cd2_4 Cd3_4 3.154818 1_555
Cd2_4 Cd7_2 3.190832 1_545
Cd2_4 Cd7_0 3.190832 1_555
Cd2_5 Mg2_1 3.076055 1_555
Cd2_5 Mg2_3 3.076055 1_545
Cd2_5 Cd2_7 3.092582 1_545
Cd2_5 Cd2_7 3.092582 1_555
Cd2_5 Mg1_7 3.093627 1_545
Cd2_5 Mg1_5 3.093627 1_555
Cd2_5 Cd5_0 3.126322 1_556
Cd2_5 Cd3_5 3.154818 1_555
Cd2_5 Cd7_1 3.190832 1_555
Cd2_5 Cd7_3 3.190832 1_545
Cd2_6 Mg2_0 3.076055 1_555
Cd2_6 Mg2_2 3.076055 1_555
Cd2_6 Mg1_6 3.093627 1_555
Cd2_6 Mg1_4 3.093627 1_555
Cd2_6 Cd5_3 3.126322 1_555
Cd2_6 Cd3_6 3.154818 1_555
Cd2_6 Cd7_2 3.190832 1_555
Cd2_6 Cd7_0 3.190832 1_555
Cd2_7 Mg2_1 3.076055 1_555
Cd2_7 Mg2_3 3.076055 1_555
Cd2_7 Mg1_7 3.093627 1_555
Cd2_7 Mg1_5 3.093627 1_555
Cd2_7 Cd5_2 3.126322 1_556
Cd2_7 Cd3_7 3.154818 1_555
Cd2_7 Cd7_1 3.190832 1_555
Cd2_7 Cd7_3 3.190832 1_555
Cd3_0 Mg1_2 3.029757 1_545
Cd3_0 Mg1_0 3.029757 1_555
Cd3_0 Mg0_0 3.066289 1_555
Cd3_0 Cd3_2 3.092582 1_545
Cd3_0 Cd3_2 3.092582 1_555
Cd3_0 Cd6_2 3.190832 1_545
Cd3_0 Cd6_0 3.190832 1_555
Cd3_1 Mg1_1 3.029757 1_555
Cd3_1 Mg1_3 3.029757 1_545
Cd3_1 Mg0_1 3.066289 1_555
Cd3_1 Cd3_3 3.092582 1_555
Cd3_1 Cd3_3 3.092582 1_545
Cd3_1 Cd6_3 3.190832 1_545
Cd3_1 Cd6_1 3.190832 1_555
Cd3_2 Mg1_2 3.029757 1_555
Cd3_2 Mg1_0 3.029757 1_555
Cd3_2 Mg0_2 3.066289 1_555
Cd3_2 Cd6_2 3.190832 1_555
Cd3_2 Cd6_0 3.190832 1_555
Cd3_3 Mg1_1 3.029757 1_555
Cd3_3 Mg1_3 3.029757 1_555
Cd3_3 Mg0_3 3.066289 1_555
Cd3_3 Cd6_3 3.190832 1_555
Cd3_3 Cd6_1 3.190832 1_555
Cd3_4 Mg1_6 3.029757 1_545
Cd3_4 Mg1_4 3.029757 1_555
Cd3_4 Mg0_4 3.066289 1_555
Cd3_4 Cd3_6 3.092582 1_555
Cd3_4 Cd3_6 3.092582 1_545
Cd3_4 Cd6_4 3.190832 1_555
Cd3_4 Cd6_6 3.190832 1_545
Cd3_5 Mg1_7 3.029757 1_545
Cd3_5 Mg1_5 3.029757 1_555
Cd3_5 Mg0_5 3.066289 1_555
Cd3_5 Cd3_7 3.092582 1_545
Cd3_5 Cd3_7 3.092582 1_555
Cd3_5 Cd6_5 3.190832 1_555
Cd3_5 Cd6_7 3.190832 1_545
Cd3_6 Mg1_6 3.029757 1_555
Cd3_6 Mg1_4 3.029757 1_555
Cd3_6 Mg0_6 3.066289 1_555
Cd3_6 Cd6_4 3.190832 1_555
Cd3_6 Cd6_6 3.190832 1_555
Cd3_7 Mg1_7 3.029757 1_555
Cd3_7 Mg1_5 3.029757 1_555
Cd3_7 Mg0_7 3.066289 1_555
Cd3_7 Cd6_5 3.190832 1_555
Cd3_7 Cd6_7 3.190832 1_555
Cd4_0 Mg2_2 3.029784 1_545
Cd4_0 Mg2_0 3.029784 1_555
Cd4_0 Mg3_0 3.066306 1_555
Cd4_0 Cd6_1 3.077870 1_554
Cd4_0 Cd6_3 3.077870 1_544
Cd4_0 Cd4_2 3.092582 1_545
Cd4_0 Cd4_2 3.092582 1_555
Cd4_0 Cd5_0 3.154826 1_555
Cd4_0 Cd7_1 3.215844 1_554
Cd4_0 Cd7_3 3.215844 1_544
Cd4_1 Mg2_3 3.029784 1_545
Cd4_1 Mg2_1 3.029784 1_555
Cd4_1 Mg3_1 3.066306 1_555
Cd4_1 Cd6_2 3.077870 1_545
Cd4_1 Cd6_0 3.077870 1_555
Cd4_1 Cd4_3 3.092582 1_545
Cd4_1 Cd4_3 3.092582 1_555
Cd4_1 Cd5_1 3.154826 1_555
Cd4_1 Cd7_2 3.215844 1_545
Cd4_1 Cd7_0 3.215844 1_555
Cd4_2 Mg2_2 3.029784 1_555
Cd4_2 Mg2_0 3.029784 1_555
Cd4_2 Mg3_2 3.066306 1_555
Cd4_2 Cd6_1 3.077870 1_554
Cd4_2 Cd6_3 3.077870 1_554
Cd4_2 Cd5_2 3.154826 1_555
Cd4_2 Cd7_1 3.215844 1_554
Cd4_2 Cd7_3 3.215844 1_554
Cd4_3 Mg2_1 3.029784 1_555
Cd4_3 Mg2_3 3.029784 1_555
Cd4_3 Mg3_3 3.066306 1_555
Cd4_3 Cd6_2 3.077870 1_555
Cd4_3 Cd6_0 3.077870 1_555
Cd4_3 Cd5_3 3.154826 1_555
Cd4_3 Cd7_2 3.215844 1_555
Cd4_3 Cd7_0 3.215844 1_555
Cd4_4 Mg2_6 3.029784 1_545
Cd4_4 Mg2_4 3.029784 1_555
Cd4_4 Mg3_4 3.066306 1_555
Cd4_4 Cd6_7 3.077870 1_544
Cd4_4 Cd6_5 3.077870 1_554
Cd4_4 Cd4_6 3.092582 1_555
Cd4_4 Cd4_6 3.092582 1_545
Cd4_4 Cd5_4 3.154826 1_555
Cd4_4 Cd7_5 3.215844 1_554
Cd4_4 Cd7_7 3.215844 1_544
Cd4_5 Mg2_7 3.029784 1_545
Cd4_5 Mg2_5 3.029784 1_555
Cd4_5 Mg3_5 3.066306 1_555
Cd4_5 Cd6_4 3.077870 1_555
Cd4_5 Cd6_6 3.077870 1_545
Cd4_5 Cd4_7 3.092582 1_555
Cd4_5 Cd4_7 3.092582 1_545
Cd4_5 Cd5_5 3.154826 1_555
Cd4_5 Cd7_6 3.215844 1_545
Cd4_5 Cd7_4 3.215844 1_555
Cd4_6 Mg2_6 3.029784 1_555
Cd4_6 Mg2_4 3.029784 1_555
Cd4_6 Mg3_6 3.066306 1_555
Cd4_6 Cd6_5 3.077870 1_554
Cd4_6 Cd6_7 3.077870 1_554
Cd4_6 Cd5_6 3.154826 1_555
Cd4_6 Cd7_5 3.215844 1_554
Cd4_6 Cd7_7 3.215844 1_554
Cd4_7 Mg2_7 3.029784 1_555
Cd4_7 Mg2_5 3.029784 1_555
Cd4_7 Mg3_7 3.066306 1_555
Cd4_7 Cd6_4 3.077870 1_555
Cd4_7 Cd6_6 3.077870 1_555
Cd4_7 Cd5_7 3.154826 1_555
Cd4_7 Cd7_6 3.215844 1_555
Cd4_7 Cd7_4 3.215844 1_555
Cd5_0 Mg1_6 3.076068 1_545
Cd5_0 Mg1_4 3.076068 1_555
Cd5_0 Cd7_3 3.077884 1_544
Cd5_0 Cd7_1 3.077884 1_554
Cd5_0 Cd5_2 3.092582 1_555
Cd5_0 Cd5_2 3.092582 1_545
Cd5_0 Mg2_0 3.093631 1_555
Cd5_0 Mg2_2 3.093631 1_545
Cd5_1 Mg1_7 3.076068 1_545
Cd5_1 Mg1_5 3.076068 1_555
Cd5_1 Cd7_0 3.077884 1_555
Cd5_1 Cd7_2 3.077884 1_545
Cd5_1 Cd5_3 3.092582 1_555
Cd5_1 Cd5_3 3.092582 1_545
Cd5_1 Mg2_1 3.093631 1_555
Cd5_1 Mg2_3 3.093631 1_545
Cd5_2 Mg1_6 3.076068 1_555
Cd5_2 Mg1_4 3.076068 1_555
Cd5_2 Cd7_3 3.077884 1_554
Cd5_2 Cd7_1 3.077884 1_554
Cd5_2 Mg2_0 3.093631 1_555
Cd5_2 Mg2_2 3.093631 1_555
Cd5_3 Mg1_7 3.076068 1_555
Cd5_3 Mg1_5 3.076068 1_555
Cd5_3 Cd7_0 3.077884 1_555
Cd5_3 Cd7_2 3.077884 1_555
Cd5_3 Mg2_1 3.093631 1_555
Cd5_3 Mg2_3 3.093631 1_555
Cd5_4 Mg1_0 3.076068 1_655
Cd5_4 Mg1_2 3.076068 1_645
Cd5_4 Cd7_5 3.077884 1_554
Cd5_4 Cd7_7 3.077884 1_544
Cd5_4 Cd5_6 3.092582 1_545
Cd5_4 Cd5_6 3.092582 1_555
Cd5_4 Mg2_6 3.093631 1_545
Cd5_4 Mg2_4 3.093631 1_555
Cd5_5 Mg1_1 3.076068 1_655
Cd5_5 Mg1_3 3.076068 1_645
Cd5_5 Cd7_4 3.077884 1_555
Cd5_5 Cd7_6 3.077884 1_545
Cd5_5 Cd5_7 3.092582 1_555
Cd5_5 Cd5_7 3.092582 1_545
Cd5_5 Mg2_7 3.093631 1_545
Cd5_5 Mg2_5 3.093631 1_555
Cd5_6 Mg1_0 3.076068 1_655
Cd5_6 Mg1_2 3.076068 1_655
Cd5_6 Cd7_7 3.077884 1_554
Cd5_6 Cd7_5 3.077884 1_554
Cd5_6 Mg2_6 3.093631 1_555
Cd5_6 Mg2_4 3.093631 1_555
Cd5_7 Mg1_3 3.076068 1_655
Cd5_7 Mg1_1 3.076068 1_655
Cd5_7 Cd7_6 3.077884 1_555
Cd5_7 Cd7_4 3.077884 1_555
Cd5_7 Mg2_7 3.093631 1_555
Cd5_7 Mg2_5 3.093631 1_555
Cd6_0 Mg0_2 3.076055 1_555
Cd6_0 Mg0_0 3.076055 1_555
Cd6_0 Cd6_2 3.092582 1_555
Cd6_0 Cd6_2 3.092582 1_545
Cd6_0 Mg3_2 3.093627 1_555
Cd6_0 Mg3_0 3.093627 1_555
Cd6_0 Cd7_0 3.154818 1_555
Cd6_1 Mg0_3 3.076055 1_555
Cd6_1 Mg0_1 3.076055 1_555
Cd6_1 Cd6_3 3.092582 1_545
Cd6_1 Cd6_3 3.092582 1_555
Cd6_1 Mg3_1 3.093627 1_555
Cd6_1 Mg3_3 3.093627 1_555
Cd6_1 Cd7_1 3.154818 1_555
Cd6_2 Mg0_2 3.076055 1_555
Cd6_2 Mg0_0 3.076055 1_565
Cd6_2 Mg3_2 3.093627 1_555
Cd6_2 Mg3_0 3.093627 1_565
Cd6_2 Cd7_2 3.154818 1_555
Cd6_3 Mg0_3 3.076055 1_555
Cd6_3 Mg0_1 3.076055 1_565
Cd6_3 Mg3_1 3.093627 1_565
Cd6_3 Mg3_3 3.093627 1_555
Cd6_3 Cd7_3 3.154818 1_555
Cd6_4 Mg0_6 3.076055 1_555
Cd6_4 Mg0_4 3.076055 1_555
Cd6_4 Cd6_6 3.092582 1_545
Cd6_4 Cd6_6 3.092582 1_555
Cd6_4 Mg3_6 3.093627 1_555
Cd6_4 Mg3_4 3.093627 1_555
Cd6_4 Cd7_4 3.154818 1_555
Cd6_5 Mg0_7 3.076055 1_555
Cd6_5 Mg0_5 3.076055 1_555
Cd6_5 Cd6_7 3.092582 1_545
Cd6_5 Cd6_7 3.092582 1_555
Cd6_5 Mg3_7 3.093627 1_555
Cd6_5 Mg3_5 3.093627 1_555
Cd6_5 Cd7_5 3.154818 1_555
Cd6_6 Mg0_6 3.076055 1_555
Cd6_6 Mg0_4 3.076055 1_565
Cd6_6 Mg3_6 3.093627 1_555
Cd6_6 Mg3_4 3.093627 1_565
Cd6_6 Cd7_6 3.154818 1_555
Cd6_7 Mg0_5 3.076055 1_565
Cd6_7 Mg0_7 3.076055 1_555
Cd6_7 Mg3_7 3.093627 1_555
Cd6_7 Mg3_5 3.093627 1_565
Cd6_7 Cd7_7 3.154818 1_555
Cd7_0 Mg3_0 3.029757 1_555
Cd7_0 Mg3_2 3.029757 1_555
Cd7_0 Mg2_0 3.066289 1_555
Cd7_0 Cd7_2 3.092582 1_555
Cd7_0 Cd7_2 3.092582 1_545
Cd7_1 Mg3_3 3.029757 1_555
Cd7_1 Mg3_1 3.029757 1_555
Cd7_1 Mg2_1 3.066289 1_555
Cd7_1 Cd7_3 3.092582 1_545
Cd7_1 Cd7_3 3.092582 1_555
Cd7_2 Mg3_2 3.029757 1_555
Cd7_2 Mg3_0 3.029757 1_565
Cd7_2 Mg2_2 3.066289 1_555
Cd7_3 Mg3_3 3.029757 1_555
Cd7_3 Mg3_1 3.029757 1_565
Cd7_3 Mg2_3 3.066289 1_555
Cd7_4 Mg3_4 3.029757 1_555
Cd7_4 Mg3_6 3.029757 1_555
Cd7_4 Mg2_4 3.066289 1_555
Cd7_4 Cd7_6 3.092582 1_555
Cd7_4 Cd7_6 3.092582 1_545
Cd7_5 Mg3_5 3.029757 1_555
Cd7_5 Mg3_7 3.029757 1_555
Cd7_5 Mg2_5 3.066289 1_555
Cd7_5 Cd7_7 3.092582 1_545
Cd7_5 Cd7_7 3.092582 1_555
Cd7_6 Mg3_4 3.029757 1_565
Cd7_6 Mg3_6 3.029757 1_555
Cd7_6 Mg2_6 3.066289 1_555
Cd7_7 Mg3_7 3.029757 1_555
Cd7_7 Mg3_5 3.029757 1_565
Cd7_7 Mg2_7 3.066289 1_555
