# generated using pymatgen
data_Sm2Ga2Fe15C
_symmetry_space_group_name_H-M   'P 1'
_cell_length_a   6.50746398
_cell_length_b   6.50746398
_cell_length_c   6.49588670
_cell_angle_alpha   83.04432327
_cell_angle_beta   83.04432327
_cell_angle_gamma   83.09932592
_symmetry_Int_Tables_number   1
_chemical_formula_structural   Sm2Ga2Fe15C
_chemical_formula_sum   'Sm2 Ga2 Fe15 C1'
_cell_volume   269.49002576
_cell_formula_units_Z   1
loop_
 _symmetry_equiv_pos_site_id
 _symmetry_equiv_pos_as_xyz
  1  'x, y, z'
loop_
 _atom_site_type_symbol
 _atom_site_label
 _atom_site_symmetry_multiplicity
 _atom_site_fract_x
 _atom_site_fract_y
 _atom_site_fract_z
 _atom_site_occupancy
  Sm  Sm0  1  0.34312600  0.34312600  0.35369600  1
  Sm  Sm1  1  0.65687400  0.65687400  0.64630400  1
  Ga  Ga0  1  0.10327800  0.10327800  0.10268800  1
  Ga  Ga1  1  0.89672200  0.89672200  0.89731200  1
  Fe  Fe0  1  0.65611400  0.65611400  0.15017600  1
  Fe  Fe1  1  0.65876400  0.15268600  0.65663100  1
  Fe  Fe2  1  0.15268600  0.65876400  0.65663100  1
  Fe  Fe3  1  0.34388600  0.34388600  0.84982400  1
  Fe  Fe4  1  0.34123600  0.84731400  0.34336900  1
  Fe  Fe5  1  0.84731400  0.34123600  0.34336900  1
  Fe  Fe6  1  0.71294300  0.28705700  0.00000000  1
  Fe  Fe7  1  0.29124000  0.99977400  0.70953600  1
  Fe  Fe8  1  0.00022600  0.70876000  0.29046400  1
  Fe  Fe9  1  0.70876000  0.00022600  0.29046400  1
  Fe  Fe10  1  0.99977400  0.29124000  0.70953600  1
  Fe  Fe11  1  0.28705700  0.71294300  0.00000000  1
  Fe  Fe12  1  0.00000000  0.00000000  0.50000000  1
  Fe  Fe13  1  0.00000000  0.50000000  0.00000000  1
  Fe  Fe14  1  0.50000000  0.00000000  0.00000000  1
  C  C0  1  0.50000000  0.50000000  0.00000000  1
loop_
_geom_bond_atom_site_label_1
_geom_bond_atom_site_label_2
_geom_bond_distance
_geom_bond_site_symmetry_2
Ga0 Ga1 2.587691 1_444
Ga0 Sm0 3.057607 1_555
Ga1 Sm1 3.057607 1_555
Fe0 Fe13 2.481245 1_655
Fe0 Fe14 2.481245 1_565
Fe0 Fe5 2.542517 1_555
Fe0 Fe4 2.542517 1_555
Fe0 Fe9 2.591620 1_565
Fe0 Fe8 2.591620 1_655
Fe0 Ga1 2.635236 1_554
Fe1 Fe12 2.474043 1_655
Fe1 Fe14 2.486256 1_556
Fe1 Fe5 2.510806 1_555
Fe1 Fe3 2.542517 1_555
Fe1 Fe10 2.568279 1_555
Fe1 Fe6 2.569223 1_556
Fe1 Ga1 2.636760 1_545
Fe1 Fe9 2.656007 1_555
Fe1 Fe7 2.668001 1_545
Fe1 Sm0 3.066552 1_555
Fe1 Sm1 3.236816 1_545
Fe1 Sm1 3.272111 1_555
Fe2 Fe4 2.510806 1_555
Fe2 Fe3 2.542517 1_555
Fe2 Fe7 2.568279 1_555
Fe2 Ga1 2.636760 1_455
Fe2 Fe8 2.656007 1_555
Fe2 Sm0 3.066552 1_555
Fe2 Sm1 3.236816 1_455
Fe2 Sm1 3.272111 1_555
Fe3 Fe7 2.591620 1_545
Fe3 Ga0 2.635236 1_556
Fe4 Fe8 2.568279 1_555
Fe4 Ga0 2.636760 1_565
Fe4 Fe7 2.656007 1_555
Fe4 Fe9 2.668001 1_565
Fe4 Sm1 3.066552 1_555
Fe4 Sm0 3.236816 1_565
Fe4 Sm0 3.272111 1_555
Fe5 Fe9 2.568279 1_555
Fe5 Fe6 2.569223 1_555
Fe5 Ga0 2.636760 1_655
Fe5 Fe8 2.668001 1_655
Fe5 Sm1 3.066552 1_555
Fe5 Sm0 3.236816 1_655
Fe5 Sm0 3.272111 1_555
Fe6 Fe9 2.488290 1_555
Fe6 Ga0 2.795438 1_655
Fe6 Ga1 2.795438 1_544
Fe7 Ga0 2.816754 1_566
Fe7 Ga1 2.825910 1_455
Fe7 Sm0 3.031616 1_565
Fe7 Sm1 3.085236 1_555
Fe8 Fe9 2.516051 1_465
Fe8 Ga1 2.816754 1_454
Fe8 Ga0 2.825910 1_565
Fe8 Sm1 3.031616 1_455
Fe8 Sm0 3.085236 1_555
Fe9 Ga1 2.816754 1_544
Fe9 Ga0 2.825910 1_655
Fe9 Sm1 3.031616 1_545
Fe9 Sm0 3.085236 1_555
Fe10 Fe13 2.455115 1_656
Fe10 Fe12 2.463374 1_655
Fe10 Fe6 2.488290 1_556
Fe10 Fe7 2.516051 1_645
Fe10 Fe3 2.591620 1_655
Fe10 Fe5 2.656007 1_555
Fe10 Fe2 2.668001 1_655
Fe10 Ga0 2.816754 1_656
Fe10 Ga1 2.825910 1_545
Fe10 Sm0 3.031616 1_655
Fe10 Sm1 3.085236 1_555
Fe11 Fe14 2.455954 1_565
Fe11 Fe13 2.455954 1_555
Fe11 Fe8 2.488290 1_555
Fe11 Fe7 2.488290 1_554
Fe11 Fe4 2.569223 1_555
Fe11 Fe2 2.569223 1_554
Fe11 Ga0 2.795438 1_565
Fe11 Ga1 2.795438 1_454
Fe12 Fe7 2.463374 1_545
Fe12 Fe9 2.463374 1_455
Fe12 Fe8 2.463374 1_545
Fe12 Fe2 2.474043 1_545
Fe12 Fe5 2.474043 1_455
Fe12 Fe4 2.474043 1_545
Fe12 Ga0 2.613943 1_555
Fe12 Ga1 2.613943 1_445
Fe12 Sm0 3.323377 1_555
Fe12 Sm1 3.323377 1_445
Fe13 Fe8 2.455115 1_555
Fe13 Fe6 2.455954 1_455
Fe13 Fe3 2.481245 1_554
Fe13 Fe5 2.486256 1_455
Fe13 Fe2 2.486256 1_554
Fe13 Ga0 2.614600 1_555
Fe13 Ga1 2.614600 1_454
Fe13 Sm1 3.381337 1_454
Fe13 Sm0 3.381337 1_555
Fe14 Fe9 2.455115 1_555
Fe14 Fe7 2.455115 1_544
Fe14 Fe6 2.455954 1_555
Fe14 Fe3 2.481245 1_554
Fe14 Fe4 2.486256 1_545
Fe14 Ga0 2.614600 1_555
Fe14 Ga1 2.614600 1_544
Fe14 Sm1 3.381337 1_544
Fe14 Sm0 3.381337 1_555
C0 Fe11 1.838209 1_555
C0 Fe6 1.838209 1_555
C0 Fe0 1.934904 1_555
C0 Fe3 1.934904 1_554
C0 Sm1 2.545066 1_554
C0 Sm0 2.545066 1_555
