# generated using pymatgen
data_Be2Tl2Co(O3F4)2
_symmetry_space_group_name_H-M   'P 1'
_cell_length_a   5.77486381
_cell_length_b   10.64431714
_cell_length_c   9.77694800
_cell_angle_alpha   90.00000000
_cell_angle_beta   90.00000000
_cell_angle_gamma   106.61410571
_symmetry_Int_Tables_number   1
_chemical_formula_structural   Be2Tl2Co(O3F4)2
_chemical_formula_sum   'Be4 Tl4 Co2 O12 F16'
_cell_volume   575.89417721
_cell_formula_units_Z   2
loop_
 _symmetry_equiv_pos_site_id
 _symmetry_equiv_pos_as_xyz
  1  'x, y, z'
loop_
 _atom_site_type_symbol
 _atom_site_label
 _atom_site_symmetry_multiplicity
 _atom_site_fract_x
 _atom_site_fract_y
 _atom_site_fract_z
 _atom_site_occupancy
  Be  Be0  1  0.77359000  0.58733500  0.85870100  1
  Be  Be1  1  0.22641000  0.41266500  0.14129900  1
  Be  Be2  1  0.22641000  0.91266500  0.35870100  1
  Be  Be3  1  0.77359000  0.08733500  0.64129900  1
  Tl  Tl0  1  0.84291900  0.61223000  0.21541300  1
  Tl  Tl1  1  0.15708100  0.38777000  0.78458700  1
  Tl  Tl2  1  0.15708100  0.88777000  0.71541300  1
  Tl  Tl3  1  0.84291900  0.11223000  0.28458700  1
  Co  Co0  1  0.50000000  0.00000000  0.00000000  1
  Co  Co1  1  0.50000000  0.50000000  0.50000000  1
  O  O0  1  0.76381600  0.93019600  0.97122000  1
  O  O1  1  0.23618400  0.06980400  0.02878000  1
  O  O2  1  0.23618400  0.56980400  0.47122000  1
  O  O3  1  0.76381600  0.43019600  0.52878000  1
  O  O4  1  0.35467600  0.62220400  0.58111900  1
  O  O5  1  0.64532400  0.37779600  0.41888100  1
  O  O6  1  0.64532400  0.87779600  0.08111900  1
  O  O7  1  0.35467600  0.12220400  0.91888100  1
  O  O8  1  0.33418800  0.86670700  0.89389500  1
  O  O9  1  0.66581200  0.13329300  0.10610500  1
  O  O10  1  0.66581200  0.63329300  0.39389500  1
  O  O11  1  0.33418800  0.36670700  0.60610500  1
  F  F0  1  0.91076000  0.67623100  0.74029900  1
  F  F1  1  0.08924000  0.32376900  0.25970100  1
  F  F2  1  0.08924000  0.82376900  0.24029900  1
  F  F3  1  0.91076000  0.17623100  0.75970100  1
  F  F4  1  0.84816500  0.66084600  0.99948100  1
  F  F5  1  0.15183500  0.33915400  0.00051900  1
  F  F6  1  0.15183500  0.83915400  0.49948100  1
  F  F7  1  0.84816500  0.16084600  0.50051900  1
  F  F8  1  0.85004600  0.95470500  0.64710200  1
  F  F9  1  0.14995400  0.04529500  0.35289800  1
  F  F10  1  0.14995400  0.54529500  0.14710200  1
  F  F11  1  0.85004600  0.45470500  0.85289800  1
  F  F12  1  0.49635200  0.55546600  0.84339200  1
  F  F13  1  0.50364800  0.44453400  0.15660800  1
  F  F14  1  0.50364800  0.94453400  0.34339200  1
  F  F15  1  0.49635200  0.05546600  0.65660800  1
loop_
_geom_bond_atom_site_label_1
_geom_bond_atom_site_label_2
_geom_bond_distance
_geom_bond_site_symmetry_2
Be0 F12 1.546008 1_555
Be0 F0 1.560218 1_555
Be0 F4 1.580983 1_555
Be0 F11 1.596140 1_555
Be1 F13 1.546008 1_555
Be1 F1 1.560218 1_555
Be1 F5 1.580983 1_555
Be1 F10 1.596140 1_555
Be2 F14 1.546008 1_555
Be2 F2 1.560218 1_555
Be2 F6 1.580983 1_555
Be2 F9 1.596140 1_565
Be3 F15 1.546008 1_555
Be3 F3 1.560218 1_555
Be3 F7 1.580983 1_555
Be3 F8 1.596140 1_545
Co0 O9 1.796993 1_555
Co0 O8 1.796993 1_544
Co0 O1 1.897269 1_555
Co0 O0 1.897269 1_544
Co0 O7 1.910388 1_554
Co0 O6 1.910388 1_545
Co1 O10 1.796993 1_555
Co1 O11 1.796993 1_555
Co1 O3 1.897269 1_555
Co1 O2 1.897269 1_555
Co1 O4 1.910388 1_555
Co1 O5 1.910388 1_555
O0 O6 1.309801 1_556
O1 O7 1.309801 1_554
O2 O4 1.309801 1_555
O3 O5 1.309801 1_555
O8 Tl2 2.067005 1_555
O9 Tl3 2.067005 1_555
O10 Tl0 2.067005 1_555
O11 Tl1 2.067005 1_555
F0 Tl2 2.306754 1_655
F1 Tl3 2.306754 1_455
F2 Tl0 2.306754 1_455
F3 Tl1 2.306754 1_655
F4 Tl0 2.171802 1_556
F5 Tl1 2.171802 1_554
F6 Tl2 2.171802 1_555
F7 Tl3 2.171802 1_555
F8 Tl2 2.195431 1_655
F9 Tl3 2.195431 1_455
F10 Tl0 2.195431 1_455
F11 Tl1 2.195431 1_655
F12 Tl1 2.314203 1_555
F13 Tl0 2.314203 1_555
F14 Tl3 2.314203 1_565
F15 Tl2 2.314203 1_545
