# generated using pymatgen
data_Te3W5O18
_symmetry_space_group_name_H-M   'P 1'
_cell_length_a   9.16931903
_cell_length_b   9.16931903
_cell_length_c   12.00392432
_cell_angle_alpha   88.43279943
_cell_angle_beta   88.43279943
_cell_angle_gamma   62.17940918
_symmetry_Int_Tables_number   1
_chemical_formula_structural   Te3W5O18
_chemical_formula_sum   'Te6 W10 O36'
_cell_volume   892.13605382
_cell_formula_units_Z   2
loop_
 _symmetry_equiv_pos_site_id
 _symmetry_equiv_pos_as_xyz
  1  'x, y, z'
loop_
 _atom_site_type_symbol
 _atom_site_label
 _atom_site_symmetry_multiplicity
 _atom_site_fract_x
 _atom_site_fract_y
 _atom_site_fract_z
 _atom_site_occupancy
  Te  Te0  1  0.80713800  0.37156200  0.90504300  1
  Te  Te1  1  0.16124400  0.82449000  0.23483600  1
  Te  Te2  1  0.17551000  0.83875600  0.76516400  1
  Te  Te3  1  0.74042600  0.39604000  0.41378600  1
  Te  Te4  1  0.60396000  0.25957400  0.58621400  1
  Te  Te5  1  0.62843800  0.19286200  0.09495700  1
  W  W0  1  0.54811900  0.80034400  0.95921700  1
  W  W1  1  0.18329200  0.14231100  0.45540300  1
  W  W2  1  0.32251100  0.34451400  0.30769600  1
  W  W3  1  0.74038500  0.95319800  0.81458300  1
  W  W4  1  0.65548600  0.67748900  0.69230400  1
  W  W5  1  0.08974500  0.91025500  0.00000000  1
  W  W6  1  0.31508000  0.68492000  0.50000000  1
  W  W7  1  0.04680200  0.25961500  0.18541700  1
  W  W8  1  0.85768900  0.81670800  0.54459700  1
  W  W9  1  0.19965600  0.45188100  0.04078300  1
  O  O0  1  0.18355700  0.37378700  0.91390300  1
  O  O1  1  0.46539300  0.77832900  0.78555700  1
  O  O2  1  0.54207700  0.68143700  0.56917700  1
  O  O3  1  0.08035800  0.74965600  0.49771700  1
  O  O4  1  0.22167100  0.53460700  0.21444300  1
  O  O5  1  0.25034400  0.91964200  0.50228300  1
  O  O6  1  0.83623200  0.33333100  0.24574400  1
  O  O7  1  0.07856000  0.03975600  0.85656400  1
  O  O8  1  0.35711900  0.55984800  0.62641400  1
  O  O9  1  0.38153700  0.13033800  0.38432500  1
  O  O10  1  0.62317600  0.56146100  0.96886000  1
  O  O11  1  0.99185300  0.46334300  0.10451100  1
  O  O12  1  0.94968000  0.84724100  0.72662300  1
  O  O13  1  0.75237600  0.72524400  0.84607800  1
  O  O14  1  0.43853900  0.37682400  0.03114000  1
  O  O15  1  0.54323200  0.26308000  0.25030900  1
  O  O16  1  0.78779000  0.04775500  0.53869800  1
  O  O17  1  0.27475600  0.24762400  0.15392200  1
  O  O18  1  0.31856300  0.45792300  0.43082300  1
  O  O19  1  0.95224500  0.21221000  0.46130200  1
  O  O20  1  0.77333600  0.80005700  0.42064700  1
  O  O21  1  0.65804900  0.89741500  0.66352000  1
  O  O22  1  0.96024400  0.92144000  0.14343600  1
  O  O23  1  0.73692000  0.45676800  0.74969100  1
  O  O24  1  0.85433000  0.96169300  0.93731900  1
  O  O25  1  0.13544500  0.67126800  0.00486200  1
  O  O26  1  0.53665700  0.00814700  0.89548900  1
  O  O27  1  0.66666900  0.16376800  0.75425600  1
  O  O28  1  0.15275900  0.05032000  0.27337700  1
  O  O29  1  0.10258500  0.34195100  0.33648000  1
  O  O30  1  0.19994300  0.22666400  0.57935300  1
  O  O31  1  0.32873200  0.86455500  0.99513800  1
  O  O32  1  0.44015200  0.64288100  0.37358600  1
  O  O33  1  0.86966200  0.61846300  0.61567500  1
  O  O34  1  0.03830700  0.14567000  0.06268100  1
  O  O35  1  0.62621300  0.81644300  0.08609700  1
loop_
_geom_bond_atom_site_label_1
_geom_bond_atom_site_label_2
_geom_bond_distance
_geom_bond_site_symmetry_2
O0 W9 1.739215 1_556
O1 W4 1.895176 1_555
O1 W0 2.283447 1_555
O1 Te2 2.466889 1_555
O2 W4 1.820214 1_555
O2 W6 2.248083 1_555
O3 W8 1.909894 1_455
O3 W6 1.948103 1_555
O4 W2 1.895176 1_555
O4 W9 2.283447 1_555
O4 Te1 2.466889 1_555
O5 W1 1.909894 1_565
O5 W6 1.948103 1_555
O6 W7 1.855086 1_655
O6 Te3 2.160167 1_555
O7 Te2 1.979584 1_545
O7 W5 2.041875 1_546
O8 W6 1.814020 1_555
O8 Te4 2.670684 1_555
O9 W1 1.943794 1_555
O9 W2 1.982942 1_555
O10 Te0 1.929978 1_555
O10 W0 1.966792 1_555
O11 W7 1.932788 1_655
O11 W9 1.991128 1_655
O12 W3 1.986609 1_555
O12 Te2 2.099518 1_655
O12 W8 2.432880 1_555
O13 W3 2.066017 1_555
O13 W0 2.129461 1_555
O13 W4 2.210286 1_555
O14 Te5 1.929978 1_555
O14 W9 1.966792 1_555
O15 W2 1.915571 1_555
O15 Te5 2.004744 1_555
O16 W8 1.905490 1_545
O16 Te4 1.972571 1_555
O17 W7 2.066017 1_555
O17 W9 2.129461 1_555
O17 W2 2.210286 1_555
O18 W2 1.820214 1_555
O18 W6 2.248083 1_555
O19 W1 1.905490 1_655
O19 Te3 1.972571 1_555
O20 W8 1.738090 1_555
O21 W4 2.047481 1_555
O21 W8 2.141697 1_555
O21 W3 2.146134 1_555
O22 Te1 1.979584 1_655
O22 W5 2.041875 1_655
O23 W4 1.915571 1_555
O23 Te0 2.004744 1_555
O24 W3 1.853311 1_555
O24 W5 2.137111 1_656
O25 W9 1.854765 1_555
O25 W5 2.029344 1_555
O26 W3 1.932788 1_545
O26 W0 1.991128 1_545
O27 W3 1.855086 1_545
O27 Te4 2.160167 1_555
O28 W7 1.986609 1_555
O28 Te1 2.099518 1_545
O28 W1 2.432880 1_555
O29 W2 2.047481 1_555
O29 W1 2.141697 1_555
O29 W7 2.146134 1_555
O30 W1 1.738090 1_555
O31 W0 1.854765 1_555
O31 W5 2.029344 1_556
O32 W6 1.814020 1_555
O32 Te3 2.670684 1_555
O33 W8 1.943794 1_555
O33 W4 1.982942 1_555
O34 W7 1.853311 1_555
O34 W5 2.137111 1_545
O35 W0 1.739215 1_554
