# generated using pymatgen
data_Sr2TaInO6
_symmetry_space_group_name_H-M   'P 1'
_cell_length_a   5.78917030
_cell_length_b   5.81645700
_cell_length_c   8.20777581
_cell_angle_alpha   90.00000000
_cell_angle_beta   90.13270009
_cell_angle_gamma   90.00000000
_symmetry_Int_Tables_number   1
_chemical_formula_structural   Sr2TaInO6
_chemical_formula_sum   'Sr4 Ta2 In2 O12'
_cell_volume   276.37526213
_cell_formula_units_Z   2
loop_
 _symmetry_equiv_pos_site_id
 _symmetry_equiv_pos_as_xyz
  1  'x, y, z'
loop_
 _atom_site_type_symbol
 _atom_site_label
 _atom_site_symmetry_multiplicity
 _atom_site_fract_x
 _atom_site_fract_y
 _atom_site_fract_z
 _atom_site_occupancy
  Sr  Sr0  1  0.99328200  0.47251000  0.24980500  1
  Sr  Sr1  1  0.49328200  0.02749000  0.74980500  1
  Sr  Sr2  1  0.00671800  0.52749000  0.75019500  1
  Sr  Sr3  1  0.50671800  0.97251000  0.25019500  1
  Ta  Ta0  1  0.50000000  0.50000000  0.00000000  1
  Ta  Ta1  1  0.00000000  0.00000000  0.50000000  1
  In  In0  1  0.50000000  0.50000000  0.50000000  1
  In  In1  1  0.00000000  0.00000000  0.00000000  1
  O  O0  1  0.20147700  0.27521300  0.53818600  1
  O  O1  1  0.70147700  0.22478700  0.03818600  1
  O  O2  1  0.79852300  0.72478700  0.46181400  1
  O  O3  1  0.29852300  0.77521300  0.96181400  1
  O  O4  1  0.27385200  0.79606000  0.53572600  1
  O  O5  1  0.77385200  0.70394000  0.03572600  1
  O  O6  1  0.72614800  0.20394000  0.46427400  1
  O  O7  1  0.22614800  0.29606000  0.96427400  1
  O  O8  1  0.42999400  0.51646500  0.23860000  1
  O  O9  1  0.92999400  0.98353500  0.73860000  1
  O  O10  1  0.57000600  0.48353500  0.76140000  1
  O  O11  1  0.07000600  0.01646500  0.26140000  1
loop_
_geom_bond_atom_site_label_1
_geom_bond_atom_site_label_2
_geom_bond_distance
_geom_bond_site_symmetry_2
In0 O4 2.183379 1_555
In0 O6 2.183379 1_555
In0 O8 2.184632 1_555
In0 O10 2.184632 1_555
In0 O2 2.190178 1_555
In0 O0 2.190178 1_555
In1 O7 2.183379 1_554
In1 O5 2.183379 1_445
In1 O9 2.184632 1_444
In1 O11 2.184632 1_555
In1 O3 2.190178 1_544
In1 O1 2.190178 1_455
O0 Ta1 2.004854 1_555
O0 Sr2 2.541947 1_555
O0 Sr1 2.816589 1_555
O0 Sr0 2.891180 1_455
O1 Ta0 2.004854 1_555
O1 Sr3 2.541947 1_545
O1 Sr0 2.816589 1_555
O1 Sr1 2.891180 1_554
O2 Ta1 2.004854 1_665
O2 Sr0 2.541947 1_555
O2 Sr3 2.816589 1_555
O2 Sr2 2.891180 1_655
O3 Ta0 2.004854 1_556
O3 Sr1 2.541947 1_565
O3 Sr2 2.816589 1_555
O3 Sr3 2.891180 1_556
O4 Ta1 2.001084 1_565
O4 Sr1 2.550060 1_565
O4 Sr2 2.818362 1_555
O4 Sr3 2.894421 1_555
O5 Ta0 2.001084 1_555
O5 Sr0 2.550060 1_555
O5 Sr3 2.818362 1_555
O5 Sr2 2.894421 1_654
O6 Ta1 2.001084 1_655
O6 Sr3 2.550060 1_545
O6 Sr0 2.818362 1_555
O6 Sr1 2.894421 1_555
O7 Ta0 2.001084 1_556
O7 Sr2 2.550060 1_555
O7 Sr1 2.818362 1_555
O7 Sr0 2.894421 1_456
O8 Ta0 2.003080 1_555
O8 Sr0 2.542970 1_455
O8 Sr3 2.691144 1_555
O9 Ta1 2.003080 1_665
O9 Sr1 2.542970 1_565
O9 Sr2 2.691144 1_655
O10 Ta0 2.003080 1_556
O10 Sr2 2.542970 1_655
O10 Sr1 2.691144 1_555
O11 Ta1 2.003080 1_555
O11 Sr3 2.542970 1_545
O11 Sr0 2.691144 1_455
