# generated using pymatgen
data_MgSb
_symmetry_space_group_name_H-M   'P 1'
_cell_length_a   6.35707656
_cell_length_b   6.35707656
_cell_length_c   7.83082869
_cell_angle_alpha   73.59869079
_cell_angle_beta   73.59869079
_cell_angle_gamma   30.70498133
_symmetry_Int_Tables_number   1
_chemical_formula_structural   MgSb
_chemical_formula_sum   'Mg3 Sb3'
_cell_volume   154.50891196
_cell_formula_units_Z   3
loop_
 _symmetry_equiv_pos_site_id
 _symmetry_equiv_pos_as_xyz
  1  'x, y, z'
loop_
 _atom_site_type_symbol
 _atom_site_label
 _atom_site_symmetry_multiplicity
 _atom_site_fract_x
 _atom_site_fract_y
 _atom_site_fract_z
 _atom_site_occupancy
  Mg  Mg0  1  0.61276600  0.61276600  0.26524400  1
  Mg  Mg1  1  0.33622400  0.33622400  0.32172000  1
  Mg  Mg2  1  0.93482100  0.93482100  0.64782000  1
  Sb  Sb0  1  0.01005700  0.01005700  0.03078700  1
  Sb  Sb1  1  0.66785800  0.66785800  0.59280600  1
  Sb  Sb2  1  0.27160700  0.27160700  0.97495600  1
loop_
_geom_bond_atom_site_label_1
_geom_bond_atom_site_label_2
_geom_bond_distance
_geom_bond_site_symmetry_2
Mg0 Sb1 2.837346 1_555
Mg0 Sb0 3.023791 1_655
Mg0 Sb0 3.023791 1_565
Mg0 Sb2 3.033190 1_564
Mg0 Sb2 3.033190 1_654
Mg1 Sb1 3.005665 1_455
Mg1 Sb1 3.005665 1_545
Mg1 Sb2 3.043212 1_554
Mg1 Sb0 3.118002 1_655
Mg1 Sb0 3.118002 1_565
Mg2 Sb2 3.224523 1_565
Mg2 Sb2 3.224523 1_655
Mg2 Sb1 3.234310 1_565
Mg2 Sb1 3.234310 1_655
Mg2 Sb0 3.385940 1_666
Mg2 Sb1 3.424100 1_555
