# generated using pymatgen
data_AlCr4CuS8
_symmetry_space_group_name_H-M   'P 1'
_cell_length_a   7.05739378
_cell_length_b   7.05739378
_cell_length_c   7.05739378
_cell_angle_alpha   60.00000000
_cell_angle_beta   60.00000000
_cell_angle_gamma   60.00000000
_symmetry_Int_Tables_number   1
_chemical_formula_structural   AlCr4CuS8
_chemical_formula_sum   'Al1 Cr4 Cu1 S8'
_cell_volume   248.55245288
_cell_formula_units_Z   1
loop_
 _symmetry_equiv_pos_site_id
 _symmetry_equiv_pos_as_xyz
  1  'x, y, z'
loop_
 _atom_site_type_symbol
 _atom_site_label
 _atom_site_symmetry_multiplicity
 _atom_site_fract_x
 _atom_site_fract_y
 _atom_site_fract_z
 _atom_site_occupancy
  Al  Al0  1  0.50000000  0.50000000  0.50000000  1
  Cr  Cr0  1  0.63580500  0.12139800  0.12139800  1
  Cr  Cr1  1  0.12139800  0.63580500  0.12139800  1
  Cr  Cr2  1  0.12139800  0.12139800  0.63580500  1
  Cr  Cr3  1  0.12139800  0.12139800  0.12139800  1
  Cu  Cu0  1  0.75000000  0.75000000  0.75000000  1
  S  S0  1  0.34886000  0.88371300  0.88371300  1
  S  S1  1  0.88371300  0.34886000  0.88371300  1
  S  S2  1  0.88371300  0.88371300  0.34886000  1
  S  S3  1  0.88371300  0.88371300  0.88371300  1
  S  S4  1  0.89867600  0.36710800  0.36710800  1
  S  S5  1  0.36710800  0.89867600  0.36710800  1
  S  S6  1  0.36710800  0.36710800  0.89867600  1
  S  S7  1  0.36710800  0.36710800  0.36710800  1
loop_
_geom_bond_atom_site_label_1
_geom_bond_atom_site_label_2
_geom_bond_distance
_geom_bond_site_symmetry_2
Al0 S6 2.297306 1_555
Al0 S5 2.297306 1_555
Al0 S4 2.297306 1_555
Al0 S7 2.297306 1_555
Cr0 S3 2.373351 1_544
Cr0 S1 2.373351 1_554
Cr0 S2 2.373351 1_545
Cr0 S6 2.457704 1_554
Cr0 S5 2.457704 1_545
Cr0 S7 2.457708 1_555
Cr1 S3 2.373351 1_454
Cr1 S2 2.373351 1_455
Cr1 S0 2.373351 1_554
Cr1 S4 2.457704 1_455
Cr1 S6 2.457704 1_554
Cr1 S7 2.457708 1_555
Cr2 S3 2.373351 1_445
Cr2 S1 2.373351 1_455
Cr2 S0 2.373351 1_545
Cr2 S5 2.457704 1_545
Cr2 S4 2.457704 1_455
Cr2 S7 2.457708 1_555
Cr3 S2 2.373351 1_445
Cr3 S1 2.373351 1_454
Cr3 S0 2.373351 1_544
Cr3 S6 2.457709 1_554
Cr3 S5 2.457709 1_545
Cr3 S4 2.457709 1_455
Cu0 S3 2.311498 1_555
Cu0 S2 2.311504 1_555
Cu0 S1 2.311504 1_555
Cu0 S0 2.311504 1_555
