# generated using pymatgen
data_RuN
_symmetry_space_group_name_H-M   'P 1'
_cell_length_a   2.94839614
_cell_length_b   2.94839614
_cell_length_c   2.72922700
_cell_angle_alpha   90.00000000
_cell_angle_beta   90.00000000
_cell_angle_gamma   120.00000318
_symmetry_Int_Tables_number   1
_chemical_formula_structural   RuN
_chemical_formula_sum   'Ru1 N1'
_cell_volume   20.54669363
_cell_formula_units_Z   1
loop_
 _symmetry_equiv_pos_site_id
 _symmetry_equiv_pos_as_xyz
  1  'x, y, z'
loop_
 _atom_site_type_symbol
 _atom_site_label
 _atom_site_symmetry_multiplicity
 _atom_site_fract_x
 _atom_site_fract_y
 _atom_site_fract_z
 _atom_site_occupancy
  Ru  Ru0  1  0.66666700  0.33333300  0.00000000  1
  N  N0  1  0.00000000  0.00000000  0.50000000  1
loop_
_geom_bond_atom_site_label_1
_geom_bond_atom_site_label_2
_geom_bond_distance
_geom_bond_site_symmetry_2
N0 Ru0 2.181707 1_455
N0 Ru0 2.181707 1_456
N0 Ru0 2.181709 1_446
N0 Ru0 2.181709 1_445
N0 Ru0 2.181709 1_555
N0 Ru0 2.181709 1_556
