# generated using pymatgen
data_Ca4Mn5Al(Si3O14)2
_symmetry_space_group_name_H-M   'P 1'
_cell_length_a   6.03032864
_cell_length_b   8.71653882
_cell_length_c   10.37507189
_cell_angle_alpha   107.37218640
_cell_angle_beta   91.64990846
_cell_angle_gamma   89.47601686
_symmetry_Int_Tables_number   1
_chemical_formula_structural   Ca4Mn5Al(Si3O14)2
_chemical_formula_sum   'Ca4 Mn5 Al1 Si6 O28'
_cell_volume   520.25921538
_cell_formula_units_Z   1
loop_
 _symmetry_equiv_pos_site_id
 _symmetry_equiv_pos_as_xyz
  1  'x, y, z'
loop_
 _atom_site_type_symbol
 _atom_site_label
 _atom_site_symmetry_multiplicity
 _atom_site_fract_x
 _atom_site_fract_y
 _atom_site_fract_z
 _atom_site_occupancy
  Ca  Ca0  1  0.24698700  0.76289900  0.68230000  1
  Ca  Ca1  1  0.75301300  0.23710100  0.31770000  1
  Ca  Ca2  1  0.25331900  0.66523300  0.31160400  1
  Ca  Ca3  1  0.74668100  0.33476700  0.68839600  1
  Mn  Mn0  1  0.50000000  0.00000000  0.50000000  1
  Mn  Mn1  1  0.00000000  0.00000000  0.50000000  1
  Mn  Mn2  1  0.50000000  0.50000000  0.00000000  1
  Mn  Mn3  1  0.00000000  0.50000000  0.00000000  1
  Mn  Mn4  1  0.50000000  0.00000000  0.00000000  1
  Al  Al0  1  0.00000000  0.00000000  0.00000000  1
  Si  Si0  1  0.23832700  0.28219700  0.18626300  1
  Si  Si1  1  0.76167300  0.71780300  0.81373700  1
  Si  Si2  1  0.24736600  0.19507200  0.80851600  1
  Si  Si3  1  0.75263400  0.80492800  0.19148500  1
  Si  Si4  1  0.25063100  0.33438100  0.49618100  1
  Si  Si5  1  0.74936900  0.66561900  0.50381900  1
  O  O0  1  0.48209700  0.22865600  0.49440100  1
  O  O1  1  0.98006400  0.77377400  0.50461900  1
  O  O2  1  0.51790300  0.77134400  0.50559900  1
  O  O3  1  0.01993600  0.22622600  0.49538100  1
  O  O4  1  0.22592900  0.05623100  0.65612600  1
  O  O5  1  0.77407100  0.94376900  0.34387400  1
  O  O6  1  0.46705100  0.30801200  0.83141100  1
  O  O7  1  0.97248600  0.68866900  0.15844400  1
  O  O8  1  0.53294900  0.69198800  0.16858900  1
  O  O9  1  0.02751400  0.31133100  0.84155600  1
  O  O10  1  0.25833400  0.90839800  0.06298100  1
  O  O11  1  0.74166600  0.09160200  0.93701900  1
  O  O12  1  0.47269300  0.18421400  0.15608700  1
  O  O13  1  0.97672500  0.83251200  0.84499100  1
  O  O14  1  0.52730700  0.81578600  0.84391300  1
  O  O15  1  0.02327500  0.16748800  0.15500900  1
  O  O16  1  0.24556000  0.59237300  0.94367000  1
  O  O17  1  0.75444000  0.40762700  0.05633000  1
  O  O18  1  0.24394900  0.38300600  0.34920600  1
  O  O19  1  0.75605100  0.61699400  0.65079400  1
  O  O20  1  0.24846100  0.49833800  0.61627200  1
  O  O21  1  0.75153900  0.50166200  0.38372800  1
  O  O22  1  0.22502000  0.42474700  0.11050500  1
  O  O23  1  0.77498000  0.57525300  0.88949500  1
  O  O24  1  0.24957400  0.08424600  0.91499200  1
  O  O25  1  0.75042600  0.91575400  0.08500800  1
  O  O26  1  0.24312200  0.94228700  0.38829300  1
  O  O27  1  0.75687700  0.05771300  0.61170700  1
loop_
_geom_bond_atom_site_label_1
_geom_bond_atom_site_label_2
_geom_bond_distance
_geom_bond_site_symmetry_2
Ca0 O20 2.200882 1_555
Ca0 O14 2.295860 1_555
Ca0 O13 2.324254 1_455
Ca0 O1 2.434936 1_455
Ca0 O2 2.508112 1_555
Ca0 O4 2.652168 1_565
Ca1 O21 2.200882 1_555
Ca1 O12 2.295860 1_555
Ca1 O15 2.324254 1_655
Ca1 O3 2.434936 1_655
Ca1 O0 2.508112 1_555
Ca1 O5 2.652168 1_545
Ca2 O26 2.306844 1_555
Ca2 O8 2.336110 1_555
Ca2 O7 2.338235 1_455
Ca2 O22 2.480057 1_555
Ca2 O2 2.486484 1_555
Ca2 O1 2.578900 1_455
Ca2 O18 2.604633 1_555
Ca3 O27 2.306843 1_555
Ca3 O6 2.336110 1_555
Ca3 O9 2.338235 1_655
Ca3 O23 2.480057 1_555
Ca3 O0 2.486484 1_555
Ca3 O3 2.578900 1_655
Ca3 O19 2.604633 1_555
Mn0 O27 1.886412 1_555
Mn0 O26 1.886417 1_545
Mn0 O0 2.013026 1_555
Mn0 O2 2.013026 1_545
Mn0 O5 2.293651 1_545
Mn0 O4 2.293651 1_555
Mn1 O26 1.865995 1_545
Mn1 O27 1.866000 1_455
Mn1 O3 1.991549 1_555
Mn1 O1 1.991549 1_445
Mn1 O4 2.032555 1_555
Mn1 O5 2.032555 1_445
Mn2 O17 1.884377 1_555
Mn2 O16 1.884377 1_554
Mn2 O6 2.034096 1_554
Mn2 O8 2.034096 1_555
Mn2 O23 2.252303 1_554
Mn2 O22 2.252303 1_555
Mn3 O17 1.880238 1_455
Mn3 O16 1.880238 1_554
Mn3 O7 1.957219 1_455
Mn3 O9 1.957219 1_554
Mn3 O23 1.982230 1_454
Mn3 O22 1.982230 1_555
Mn4 O10 1.891024 1_545
Mn4 O11 1.891024 1_554
Mn4 O14 1.919805 1_544
Mn4 O12 1.919805 1_555
Mn4 O24 1.971658 1_554
Mn4 O25 1.971658 1_545
Al0 O13 1.823776 1_444
Al0 O15 1.823776 1_555
Al0 O11 1.929132 1_454
Al0 O10 1.929132 1_545
Al0 O24 2.016326 1_554
Al0 O25 2.016326 1_445
O0 Si4 1.663040 1_555
O1 Si5 1.686066 1_555
O2 Si5 1.663040 1_555
O3 Si4 1.686066 1_555
O4 Si2 1.682128 1_555
O5 Si3 1.682120 1_555
O6 Si2 1.626860 1_555
O7 Si3 1.642038 1_555
O8 Si3 1.626859 1_555
O9 Si2 1.642038 1_555
O12 Si0 1.633589 1_555
O13 Si1 1.610139 1_555
O14 Si1 1.633589 1_555
O15 Si0 1.610139 1_555
O18 Si0 1.655715 1_555
O18 Si4 1.699590 1_555
O19 Si1 1.655715 1_555
O19 Si5 1.699590 1_555
O20 Si4 1.591315 1_555
O21 Si5 1.591315 1_555
O22 Si0 1.657071 1_555
O23 Si1 1.657071 1_555
O24 Si2 1.670299 1_555
O25 Si3 1.670308 1_555
