# generated using pymatgen
data_La5Si3
_symmetry_space_group_name_H-M   'P 1'
_cell_length_a   8.03442926
_cell_length_b   8.03455298
_cell_length_c   9.01148874
_cell_angle_alpha   116.47241412
_cell_angle_beta   116.47108637
_cell_angle_gamma   89.99913834
_symmetry_Int_Tables_number   1
_chemical_formula_structural   La5Si3
_chemical_formula_sum   'La10 Si6'
_cell_volume   451.57597559
_cell_formula_units_Z   2
loop_
 _symmetry_equiv_pos_site_id
 _symmetry_equiv_pos_as_xyz
  1  'x, y, z'
loop_
 _atom_site_type_symbol
 _atom_site_label
 _atom_site_symmetry_multiplicity
 _atom_site_fract_x
 _atom_site_fract_y
 _atom_site_fract_z
 _atom_site_occupancy
  La  La0  1  0.17423353  0.03092111  0.70510831  1
  La  La1  1  0.03072307  0.53072886  0.70470194  1
  La  La2  1  0.67400023  0.17399651  0.70473054  1
  La  La3  1  0.96914836  0.46914978  0.29492429  1
  La  La4  1  0.53092465  0.67416557  0.70508960  1
  La  La5  1  0.82596099  0.96928266  0.29527190  1
  La  La6  1  0.46923735  0.32596098  0.29526442  1
  La  La7  1  0.32581234  0.82580851  0.29496921  1
  La  La8  1  0.49998811  0.50000024  -0.00000230  1
  La  La9  1  -0.00000279  -0.00000766  -0.00000734  1
  Si  Si0  1  0.61230115  0.11230803  0.00034632  1
  Si  Si1  1  0.88771320  0.61195823  -0.00035152  1
  Si  Si2  1  0.11195724  0.38771331  -0.00035153  1
  Si  Si3  1  0.38801626  0.88801974  0.00031135  1
  Si  Si4  1  0.74999591  0.74999462  0.49999901  1
  Si  Si5  1  0.24999041  0.24999951  0.49999579  1
loop_
_geom_bond_atom_site_label_1
_geom_bond_atom_site_label_2
_geom_bond_distance
_geom_bond_site_symmetry_2
La0 Si2 3.148576 1_556
La0 Si3 3.161449 1_546
La0 Si0 3.161457 1_556
La0 Si5 3.284635 1_555
La0 Si4 3.285303 1_445
La1 Si3 3.153238 1_556
La1 Si1 3.160167 1_456
La1 Si2 3.160240 1_556
La1 Si5 3.283517 1_555
La1 Si4 3.283538 1_455
La2 Si0 3.153153 1_556
La2 Si2 3.160366 1_656
La2 Si1 3.160393 1_556
La2 Si4 3.283717 1_545
La2 Si5 3.283808 1_555
La3 Si0 3.149097 1_555
La3 Si2 3.161398 1_655
La3 Si1 3.161444 1_555
La3 Si4 3.284839 1_555
La3 Si5 3.284855 1_655
La4 Si1 3.148389 1_556
La4 Si3 3.161657 1_556
La4 Si0 3.161949 1_566
La4 Si4 3.284637 1_555
La4 Si5 3.284919 1_555
La5 Si1 3.153575 1_555
La5 Si0 3.160116 1_565
La5 Si3 3.160263 1_555
La5 Si4 3.283619 1_555
La5 Si5 3.283969 1_665
La6 Si2 3.153390 1_555
La6 Si0 3.160224 1_555
La6 Si3 3.160274 1_545
La6 Si5 3.283350 1_555
La6 Si4 3.284134 1_555
La7 Si3 3.149062 1_555
La7 Si2 3.161750 1_555
La7 Si1 3.161763 1_455
La7 Si4 3.284729 1_555
La7 Si5 3.284789 1_565
La8 Si2 3.243795 1_555
La8 Si3 3.243897 1_555
La8 Si0 3.243949 1_555
La8 Si1 3.244175 1_555
La8 Si4 3.497721 1_555
La8 Si5 3.497726 1_554
La9 Si3 3.243839 1_545
La9 Si1 3.243881 1_445
La9 Si0 3.243957 1_455
La9 Si2 3.244165 1_555
La9 Si4 3.497668 1_444
La9 Si5 3.497734 1_555
Si0 Si3 2.548274 1_545
Si1 Si2 2.547956 1_655
