# generated using pymatgen
data_GdZrSb
_symmetry_space_group_name_H-M   'P 1'
_cell_length_a   8.93712160
_cell_length_b   8.93712160
_cell_length_c   8.93712160
_cell_angle_alpha   152.06340408
_cell_angle_beta   152.06340408
_cell_angle_gamma   39.92071864
_symmetry_Int_Tables_number   1
_chemical_formula_structural   GdZrSb
_chemical_formula_sum   'Gd2 Zr2 Sb2'
_cell_volume   156.37544998
_cell_formula_units_Z   2
loop_
 _symmetry_equiv_pos_site_id
 _symmetry_equiv_pos_as_xyz
  1  'x, y, z'
loop_
 _atom_site_type_symbol
 _atom_site_label
 _atom_site_symmetry_multiplicity
 _atom_site_fract_x
 _atom_site_fract_y
 _atom_site_fract_z
 _atom_site_occupancy
  Gd  Gd0  1  0.67586000  0.67586000  0.00000000  1
  Gd  Gd1  1  0.32414000  0.32414000  0.00000000  1
  Zr  Zr0  1  0.00000000  0.50000000  0.50000000  1
  Zr  Zr1  1  0.50000000  0.00000000  0.50000000  1
  Sb  Sb0  1  0.86924900  0.86924900  0.00000000  1
  Sb  Sb1  1  0.13075100  0.13075100  0.00000000  1
loop_
_geom_bond_atom_site_label_1
_geom_bond_atom_site_label_2
_geom_bond_distance
_geom_bond_site_symmetry_2
Gd0 Sb1 3.143584 1_655
Gd0 Sb1 3.143584 1_666
Gd0 Sb1 3.143584 1_565
Gd0 Sb1 3.143584 1_554
Gd0 Sb0 3.249036 1_555
Gd1 Sb0 3.143584 1_545
Gd1 Sb0 3.143584 1_444
Gd1 Sb0 3.143584 1_455
Gd1 Sb0 3.143584 1_556
Gd1 Sb1 3.249036 1_555
Sb0 Zr0 3.078849 1_665
Sb0 Zr1 3.078849 1_665
Sb0 Zr0 3.078849 1_654
Sb0 Zr1 3.078849 1_564
Sb1 Zr0 3.078849 1_555
Sb1 Zr1 3.078849 1_555
Sb1 Zr1 3.078849 1_454
Sb1 Zr0 3.078849 1_544
