# generated using pymatgen
data_K4GeO4
_symmetry_space_group_name_H-M   'P 1'
_cell_length_a   6.33537155
_cell_length_b   6.44009487
_cell_length_c   9.27589426
_cell_angle_alpha   72.42994570
_cell_angle_beta   80.34921260
_cell_angle_gamma   66.48335982
_symmetry_Int_Tables_number   1
_chemical_formula_structural   K4GeO4
_chemical_formula_sum   'K8 Ge2 O8'
_cell_volume   330.35511117
_cell_formula_units_Z   2
loop_
 _symmetry_equiv_pos_site_id
 _symmetry_equiv_pos_as_xyz
  1  'x, y, z'
loop_
 _atom_site_type_symbol
 _atom_site_label
 _atom_site_symmetry_multiplicity
 _atom_site_fract_x
 _atom_site_fract_y
 _atom_site_fract_z
 _atom_site_occupancy
  K  K0  1  0.74879490  0.91840471  0.34916995  1
  K  K1  1  0.25120510  0.08159529  0.65083005  1
  K  K2  1  0.28127603  0.53775258  0.87274281  1
  K  K3  1  0.71872397  0.46224742  0.12725719  1
  K  K4  1  0.78078898  0.00187506  0.94285295  1
  K  K5  1  0.21921102  0.99812494  0.05714705  1
  K  K6  1  0.25148832  0.72862317  0.46249877  1
  K  K7  1  0.74851168  0.27137683  0.53750123  1
  Ge  Ge0  1  0.23915268  0.34294322  0.25095835  1
  Ge  Ge1  1  0.76084732  0.65705678  0.74904165  1
  O  O0  1  0.39487102  0.33027448  0.39777219  1
  O  O1  1  0.60512898  0.66972552  0.60222781  1
  O  O2  1  0.93808159  0.82690968  0.68294855  1
  O  O3  1  0.06191841  0.17309032  0.31705145  1
  O  O4  1  0.54380627  0.79099750  0.87842710  1
  O  O5  1  0.45619373  0.20900250  0.12157290  1
  O  O6  1  0.93397048  0.36241771  0.83904041  1
  O  O7  1  0.06602952  0.63758229  0.16095959  1
loop_
_geom_bond_atom_site_label_1
_geom_bond_atom_site_label_2
_geom_bond_distance
_geom_bond_site_symmetry_2
K0 O1 2.660930 1_555
K0 O5 2.748455 1_565
K0 O0 2.811279 1_565
K0 O7 2.861307 1_655
K0 O3 2.969462 1_665
K1 O0 2.660930 1_555
K1 O4 2.748455 1_545
K1 O1 2.811279 1_545
K1 O6 2.861307 1_455
K1 O2 2.969462 1_445
K2 O5 2.659484 1_556
K2 O2 2.714321 1_455
K2 O4 2.770390 1_555
K2 O7 2.921655 1_556
K2 O6 2.939491 1_455
K2 O1 3.099393 1_555
K3 O4 2.659484 1_554
K3 O3 2.714321 1_655
K3 O5 2.770390 1_555
K3 O6 2.921655 1_554
K3 O7 2.939491 1_655
K3 O0 3.099393 1_555
K4 O5 2.599901 1_556
K4 O4 2.621755 1_545
K4 O6 2.719453 1_555
K4 O7 2.799934 1_646
K4 O2 2.830791 1_545
K5 O4 2.599901 1_554
K5 O5 2.621755 1_565
K5 O7 2.719453 1_555
K5 O6 2.799934 1_464
K5 O3 2.830791 1_565
K6 O0 2.579590 1_555
K6 O1 2.615722 1_555
K6 O3 2.631405 1_565
K6 O2 2.634713 1_455
K7 O1 2.579590 1_555
K7 O0 2.615722 1_555
K7 O2 2.631405 1_545
K7 O3 2.634713 1_655
Ge0 O0 1.775845 1_555
Ge0 O3 1.782604 1_555
Ge0 O7 1.786110 1_555
Ge0 O5 1.788955 1_555
Ge1 O1 1.775845 1_555
Ge1 O2 1.782604 1_555
Ge1 O6 1.786110 1_555
Ge1 O4 1.788955 1_555
