# generated using pymatgen
data_KLaTe2
_symmetry_space_group_name_H-M   'P 1'
_cell_length_a   8.62744893
_cell_length_b   8.62744893
_cell_length_c   8.62744958
_cell_angle_alpha   31.67738051
_cell_angle_beta   31.67738051
_cell_angle_gamma   31.67738375
_symmetry_Int_Tables_number   1
_chemical_formula_structural   KLaTe2
_chemical_formula_sum   'K1 La1 Te2'
_cell_volume   157.26253223
_cell_formula_units_Z   1
loop_
 _symmetry_equiv_pos_site_id
 _symmetry_equiv_pos_as_xyz
  1  'x, y, z'
loop_
 _atom_site_type_symbol
 _atom_site_label
 _atom_site_symmetry_multiplicity
 _atom_site_fract_x
 _atom_site_fract_y
 _atom_site_fract_z
 _atom_site_occupancy
  K  K0  1  0.50000000  0.50000000  0.50000000  1
  La  La0  1  0.00000000  -0.00000000  -0.00000000  1
  Te  Te0  1  0.26073622  0.26073622  0.26073622  1
  Te  Te1  1  0.73926378  0.73926378  0.73926378  1
loop_
_geom_bond_atom_site_label_1
_geom_bond_atom_site_label_2
_geom_bond_distance
_geom_bond_site_symmetry_2
K0 Te1 3.568184 1_455
K0 Te1 3.568184 1_545
K0 Te0 3.568184 1_565
K0 Te0 3.568184 1_655
K0 Te1 3.568185 1_554
K0 Te0 3.568185 1_556
La0 Te0 3.251564 1_455
La0 Te0 3.251564 1_545
La0 Te1 3.251564 1_454
La0 Te1 3.251564 1_544
La0 Te0 3.251564 1_554
La0 Te1 3.251564 1_445
