# generated using pymatgen
data_Sc5(Si5Ir2)2
_symmetry_space_group_name_H-M   'P 1'
_cell_length_a   12.35156589
_cell_length_b   12.35166888
_cell_length_c   4.09325654
_cell_angle_alpha   90.00000000
_cell_angle_beta   89.99999860
_cell_angle_gamma   90.00020192
_symmetry_Int_Tables_number   1
_chemical_formula_structural   Sc5(Si5Ir2)2
_chemical_formula_sum   'Sc10 Si20 Ir8'
_cell_volume   624.47725450
_cell_formula_units_Z   2
loop_
 _symmetry_equiv_pos_site_id
 _symmetry_equiv_pos_as_xyz
  1  'x, y, z'
loop_
 _atom_site_type_symbol
 _atom_site_label
 _atom_site_symmetry_multiplicity
 _atom_site_fract_x
 _atom_site_fract_y
 _atom_site_fract_z
 _atom_site_occupancy
  Sc  Sc0  1  0.11590778  0.61592342  0.50000006  1
  Sc  Sc1  1  0.88409116  0.38407126  0.50000025  1
  Sc  Sc2  1  0.61596338  0.88405684  0.49999976  1
  Sc  Sc3  1  0.38403524  0.11594853  0.50000027  1
  Sc  Sc4  1  0.67298298  0.17300058  0.50000339  1
  Sc  Sc5  1  0.32701489  0.82699501  0.49999557  1
  Sc  Sc6  1  0.17296709  0.32704854  0.50000220  1
  Sc  Sc7  1  0.82703352  0.67295286  0.50000119  1
  Sc  Sc8  1  0.00000013  -0.00000032  0.00000028  1
  Sc  Sc9  1  0.50000019  0.50000126  0.00000043  1
  Si  Si0  1  0.56592329  0.06592848  -0.00000031  1
  Si  Si1  1  0.43407714  0.93407058  0.00000025  1
  Si  Si2  1  0.06592152  0.43408153  -0.00000043  1
  Si  Si3  1  0.93407856  0.56592048  -0.00000007  1
  Si  Si4  1  0.20040428  0.16603083  -0.00000037  1
  Si  Si5  1  0.79959672  0.83396969  -0.00000013  1
  Si  Si6  1  0.16600947  0.79956826  0.00000003  1
  Si  Si7  1  0.70043102  0.33399499  -0.00000020  1
  Si  Si8  1  0.83398773  0.20042804  -0.00000016  1
  Si  Si9  1  0.29956856  0.66600697  0.00000005  1
  Si  Si10  1  0.66602965  0.70041294  -0.00000023  1
  Si  Si11  1  0.33397139  0.29959017  -0.00000033  1
  Si  Si12  1  0.00627761  0.15176665  0.49999987  1
  Si  Si13  1  0.99372101  0.84823439  0.49999996  1
  Si  Si14  1  0.15174671  0.99373140  0.50000004  1
  Si  Si15  1  0.50627426  0.34824846  0.49999996  1
  Si  Si16  1  0.84825483  0.00627522  0.49999988  1
  Si  Si17  1  0.49372415  0.65175057  0.49999998  1
  Si  Si18  1  0.65177475  0.50627771  0.49999994  1
  Si  Si19  1  0.34822750  0.49371610  0.49999990  1
  Ir  Ir0  1  0.01911241  0.24611252  -0.00000017  1
  Ir  Ir1  1  0.98088895  0.75388825  -0.00000023  1
  Ir  Ir2  1  0.24607583  0.98088045  0.00000019  1
  Ir  Ir3  1  0.51911061  0.25391953  -0.00000016  1
  Ir  Ir4  1  0.75392546  0.01911716  -0.00000047  1
  Ir  Ir5  1  0.48089016  0.74607920  0.00000016  1
  Ir  Ir6  1  0.74612227  0.51911119  -0.00000000  1
  Ir  Ir7  1  0.25387779  0.48089027  -0.00000034  1
loop_
_geom_bond_atom_site_label_1
_geom_bond_atom_site_label_2
_geom_bond_distance
_geom_bond_site_symmetry_2
Sc0 Si3 3.100659 1_456
Sc0 Si3 3.100660 1_455
Sc0 Si2 3.100743 1_556
Sc0 Si2 3.100746 1_555
Sc0 Si6 3.117196 1_556
Sc0 Si6 3.117196 1_555
Sc0 Si9 3.117282 1_555
Sc0 Si9 3.117282 1_556
Sc0 Si13 3.242118 1_455
Sc0 Si19 3.242316 1_555
Sc1 Si2 3.100686 1_656
Sc1 Si2 3.100689 1_655
Sc1 Si3 3.100812 1_556
Sc1 Si3 3.100814 1_555
Sc1 Si8 3.117184 1_556
Sc1 Si8 3.117187 1_555
Sc1 Si7 3.117257 1_556
Sc1 Si7 3.117260 1_555
Sc1 Si12 3.242046 1_655
Sc1 Si18 3.242275 1_555
Sc2 Si0 3.101146 1_566
Sc2 Si0 3.101146 1_565
Sc2 Si1 3.101198 1_555
Sc2 Si1 3.101201 1_556
Sc2 Si5 3.117047 1_555
Sc2 Si5 3.117048 1_556
Sc2 Si10 3.117104 1_555
Sc2 Si10 3.117104 1_556
Sc2 Si16 3.242061 1_565
Sc2 Si17 3.242359 1_555
Sc3 Si1 3.101207 1_546
Sc3 Si1 3.101207 1_545
Sc3 Si0 3.101230 1_556
Sc3 Si0 3.101233 1_555
Sc3 Si4 3.117012 1_556
Sc3 Si4 3.117016 1_555
Sc3 Si11 3.117076 1_556
Sc3 Si11 3.117079 1_555
Sc3 Si14 3.242022 1_545
Sc3 Si15 3.242288 1_555
Sc4 Si0 2.772416 1_556
Sc4 Si0 2.772439 1_555
Sc4 Si7 2.873655 1_556
Sc4 Si7 2.873676 1_555
Sc4 Si8 2.873702 1_556
Sc4 Si8 2.873723 1_555
Sc4 Si15 2.987556 1_555
Sc4 Si16 2.987911 1_555
Sc5 Si1 2.772449 1_555
Sc5 Si1 2.772477 1_556
Sc5 Si9 2.873595 1_555
Sc5 Si9 2.873621 1_556
Sc5 Si6 2.873704 1_555
Sc5 Si6 2.873730 1_556
Sc5 Si17 2.987530 1_555
Sc5 Si14 2.987972 1_555
Sc6 Si2 2.772110 1_556
Sc6 Si2 2.772126 1_555
Sc6 Si11 2.873748 1_556
Sc6 Si11 2.873763 1_555
Sc6 Si4 2.873843 1_556
Sc6 Si4 2.873858 1_555
Sc6 Si19 2.987306 1_555
Sc6 Si12 2.987686 1_555
Sc7 Si3 2.772108 1_556
Sc7 Si3 2.772115 1_555
Sc7 Si10 2.873750 1_556
Sc7 Si10 2.873758 1_555
Sc7 Si5 2.873838 1_556
Sc7 Si5 2.873846 1_555
Sc7 Si18 2.987356 1_555
Sc7 Si13 2.987666 1_555
Sc8 Si16 2.776267 1_455
Sc8 Si16 2.776270 1_454
Sc8 Si14 2.776276 1_545
Sc8 Si14 2.776277 1_544
Sc8 Si13 2.776446 1_445
Sc8 Si13 2.776448 1_444
Sc8 Si12 2.776459 1_555
Sc8 Si12 2.776461 1_554
Sc8 Si5 3.214439 1_445
Sc8 Si4 3.214455 1_555
Sc8 Si8 3.214554 1_455
Sc8 Si6 3.214559 1_545
Sc9 Si17 2.776311 1_555
Sc9 Si17 2.776314 1_554
Sc9 Si15 2.776340 1_555
Sc9 Si15 2.776343 1_554
Sc9 Si19 2.776498 1_555
Sc9 Si19 2.776502 1_554
Sc9 Si18 2.776511 1_555
Sc9 Si18 2.776514 1_554
Sc9 Si11 3.214508 1_555
Sc9 Si10 3.214519 1_555
Sc9 Si7 3.214524 1_555
Sc9 Si9 3.214527 1_555
Si0 Si1 2.303164 1_545
Si2 Si3 2.302979 1_455
Si12 Si14 2.653057 1_545
Si12 Si16 2.653119 1_455
Si13 Si16 2.653083 1_565
Si13 Si14 2.653193 1_655
Si15 Si19 2.653148 1_555
Si15 Si18 2.653256 1_555
Si17 Si18 2.653226 1_555
Si17 Si19 2.653271 1_555
Ir0 Si8 2.355175 1_455
Ir0 Si12 2.360468 1_554
Ir0 Si12 2.360468 1_555
Ir0 Si2 2.392635 1_555
Ir0 Si4 2.447980 1_555
Ir0 Sc6 2.966368 1_554
Ir0 Sc6 2.966382 1_555
Ir0 Sc8 3.049056 1_555
Ir0 Sc1 3.142243 1_454
Ir0 Sc1 3.142245 1_455
Ir1 Si6 2.355112 1_655
Ir1 Si13 2.360467 1_554
Ir1 Si13 2.360468 1_555
Ir1 Si3 2.392624 1_555
Ir1 Si5 2.447983 1_555
Ir1 Sc7 2.966374 1_554
Ir1 Sc7 2.966382 1_555
Ir1 Sc8 3.049037 1_665
Ir1 Sc0 3.142268 1_654
Ir1 Sc0 3.142270 1_655
Ir2 Si4 2.355466 1_565
Ir2 Si14 2.360375 1_555
Ir2 Si14 2.360376 1_554
Ir2 Si1 2.393010 1_555
Ir2 Si6 2.448141 1_555
Ir2 Sc5 2.966630 1_555
Ir2 Sc5 2.966656 1_554
Ir2 Sc8 3.048582 1_565
Ir2 Sc3 3.142548 1_564
Ir2 Sc3 3.142549 1_565
Ir3 Si11 2.355312 1_555
Ir3 Si15 2.360366 1_554
Ir3 Si15 2.360367 1_555
Ir3 Si0 2.392914 1_555
Ir3 Si7 2.448265 1_555
Ir3 Sc4 2.966438 1_554
Ir3 Sc4 2.966458 1_555
Ir3 Sc9 3.048672 1_555
Ir3 Sc3 3.142673 1_554
Ir3 Sc3 3.142676 1_555
Ir4 Si5 2.355430 1_545
Ir4 Si16 2.360368 1_554
Ir4 Si16 2.360370 1_555
Ir4 Si0 2.393025 1_555
Ir4 Si8 2.448106 1_555
Ir4 Sc4 2.966630 1_554
Ir4 Sc4 2.966652 1_555
Ir4 Sc8 3.048567 1_655
Ir4 Sc2 3.142515 1_544
Ir4 Sc2 3.142516 1_545
Ir5 Si10 2.355302 1_555
Ir5 Si17 2.360362 1_555
Ir5 Si17 2.360363 1_554
Ir5 Si1 2.392918 1_555
Ir5 Si9 2.448263 1_555
Ir5 Sc5 2.966445 1_555
Ir5 Sc5 2.966471 1_554
Ir5 Sc9 3.048625 1_555
Ir5 Sc2 3.142704 1_555
Ir5 Sc2 3.142706 1_554
Ir6 Si7 2.355111 1_555
Ir6 Si18 2.360472 1_555
Ir6 Si18 2.360473 1_554
Ir6 Si3 2.392465 1_555
Ir6 Si10 2.448160 1_555
Ir6 Sc7 2.966173 1_554
Ir6 Sc7 2.966179 1_555
Ir6 Sc9 3.049142 1_555
Ir6 Sc1 3.142433 1_554
Ir6 Sc1 3.142435 1_555
Ir7 Si9 2.355115 1_555
Ir7 Si19 2.360478 1_554
Ir7 Si19 2.360480 1_555
Ir7 Si2 2.392463 1_555
Ir7 Si11 2.448146 1_555
Ir7 Sc6 2.966167 1_554
Ir7 Sc6 2.966181 1_555
Ir7 Sc9 3.049147 1_555
Ir7 Sc0 3.142396 1_554
Ir7 Sc0 3.142398 1_555
