# generated using pymatgen
data_TaVH4
_symmetry_space_group_name_H-M   'P 1'
_cell_length_a   5.38042676
_cell_length_b   5.38042676
_cell_length_c   5.38042672
_cell_angle_alpha   33.56788181
_cell_angle_beta   33.56788181
_cell_angle_gamma   33.56789203
_symmetry_Int_Tables_number   1
_chemical_formula_structural   TaVH4
_chemical_formula_sum   'Ta1 V1 H4'
_cell_volume   42.41627084
_cell_formula_units_Z   1
loop_
 _symmetry_equiv_pos_site_id
 _symmetry_equiv_pos_as_xyz
  1  'x, y, z'
loop_
 _atom_site_type_symbol
 _atom_site_label
 _atom_site_symmetry_multiplicity
 _atom_site_fract_x
 _atom_site_fract_y
 _atom_site_fract_z
 _atom_site_occupancy
  Ta  Ta0  1  -0.00000000  -0.00000000  -0.00000000  1
  V  V0  1  0.50000000  0.50000000  0.50000000  1
  H  H0  1  0.61984672  0.61984672  0.61984672  1
  H  H1  1  0.12903966  0.12903966  0.12903966  1
  H  H2  1  0.87096034  0.87096034  0.87096034  1
  H  H3  1  0.38015328  0.38015328  0.38015328  1
loop_
_geom_bond_atom_site_label_1
_geom_bond_atom_site_label_2
_geom_bond_distance
_geom_bond_site_symmetry_2
H0 V0 1.823775 1_555
H0 Ta0 1.930326 1_665
H0 Ta0 1.930326 1_566
H0 Ta0 1.930326 1_656
H1 V0 1.883184 1_554
H1 V0 1.883185 1_545
H1 V0 1.883185 1_455
H1 Ta0 1.963669 1_555
H2 V0 1.883184 1_556
H2 V0 1.883185 1_655
H2 V0 1.883185 1_565
H2 Ta0 1.963669 1_666
H3 V0 1.823775 1_555
H3 Ta0 1.930326 1_556
H3 Ta0 1.930326 1_655
H3 Ta0 1.930326 1_565
