# generated using pymatgen
data_Gd4Ga12Pd
_symmetry_space_group_name_H-M   'P 1'
_cell_length_a   7.46750172
_cell_length_b   7.46211028
_cell_length_c   7.46211028
_cell_angle_alpha   109.45683643
_cell_angle_beta   109.48545429
_cell_angle_gamma   109.48545429
_symmetry_Int_Tables_number   1
_chemical_formula_structural   Gd4Ga12Pd
_chemical_formula_sum   'Gd4 Ga12 Pd1'
_cell_volume   320.03776909
_cell_formula_units_Z   1
loop_
 _symmetry_equiv_pos_site_id
 _symmetry_equiv_pos_as_xyz
  1  'x, y, z'
loop_
 _atom_site_type_symbol
 _atom_site_label
 _atom_site_symmetry_multiplicity
 _atom_site_fract_x
 _atom_site_fract_y
 _atom_site_fract_z
 _atom_site_occupancy
  Gd  Gd0  1  0.00000000  0.00000000  0.50000000  1
  Gd  Gd1  1  0.00000000  0.50000000  0.00000000  1
  Gd  Gd2  1  0.50000000  0.00000000  0.00000000  1
  Gd  Gd3  1  0.50000000  0.50000000  0.50000000  1
  Ga  Ga0  1  0.75005361  0.25006144  0.50011430  1
  Ga  Ga1  1  0.75005361  0.50011430  0.25006144  1
  Ga  Ga2  1  0.50000000  0.25006057  0.74993943  1
  Ga  Ga3  1  0.24994639  0.49988570  0.74993856  1
  Ga  Ga4  1  0.24994639  0.74993856  0.49988570  1
  Ga  Ga5  1  0.50000000  0.74993943  0.25006057  1
  Ga  Ga6  1  0.70299603  0.70275376  0.99999938  1
  Ga  Ga7  1  0.29700397  0.00000062  0.29724624  1
  Ga  Ga8  1  0.00024309  0.29724608  0.29724608  1
  Ga  Ga9  1  0.29700397  0.29724624  0.00000062  1
  Ga  Ga10  1  0.70299603  0.99999938  0.70275376  1
  Ga  Ga11  1  0.99975691  0.70275392  0.70275392  1
  Pd  Pd0  1  0.00000000  0.00000000  0.00000000  1
loop_
_geom_bond_atom_site_label_1
_geom_bond_atom_site_label_2
_geom_bond_distance
_geom_bond_site_symmetry_2
Ga0 Ga11 2.772805 1_555
Ga0 Ga10 2.772846 1_545
Ga0 Ga7 2.776531 1_555
Ga0 Ga8 2.776548 1_655
Ga0 Gd1 3.045435 1_656
Ga0 Ga1 3.046767 1_555
Ga0 Gd2 3.046828 1_555
Ga0 Ga5 3.046875 1_545
Ga0 Ga2 3.047024 1_555
Ga0 Ga3 3.047143 1_655
Ga0 Gd3 3.047714 1_555
Ga0 Gd0 3.047810 1_655
Ga1 Ga11 2.772805 1_555
Ga1 Ga6 2.772846 1_554
Ga1 Ga9 2.776531 1_555
Ga1 Ga8 2.776548 1_655
Ga1 Gd0 3.045435 1_665
Ga1 Gd2 3.046828 1_555
Ga1 Ga2 3.046875 1_554
Ga1 Ga5 3.047024 1_555
Ga1 Ga4 3.047143 1_655
Ga1 Gd3 3.047714 1_555
Ga1 Gd1 3.047810 1_655
Ga2 Ga7 2.772805 1_555
Ga2 Ga6 2.772805 1_555
Ga2 Ga9 2.776541 1_556
Ga2 Gd3 3.045385 1_555
Ga2 Gd2 3.046861 1_556
Ga2 Ga4 3.046875 1_545
Ga2 Ga3 3.047024 1_555
Ga2 Gd1 3.047795 1_656
Ga2 Gd0 3.047795 1_555
Ga3 Ga8 2.772805 1_555
Ga3 Ga9 2.772846 1_556
Ga3 Ga6 2.776531 1_555
Ga3 Gd0 3.045435 1_555
Ga3 Ga4 3.046767 1_555
Ga3 Gd2 3.046828 1_566
Ga3 Ga5 3.046875 1_556
Ga3 Gd3 3.047714 1_555
Ga3 Gd1 3.047810 1_556
Ga4 Ga8 2.772805 1_555
Ga4 Ga7 2.772846 1_565
Ga4 Gd1 3.045435 1_555
Ga4 Gd2 3.046828 1_566
Ga4 Ga5 3.047024 1_555
Ga4 Gd3 3.047714 1_555
Ga4 Gd0 3.047810 1_565
Ga5 Ga9 2.772805 1_555
Ga5 Ga6 2.776541 1_554
Ga5 Ga7 2.776541 1_565
Ga5 Gd3 3.045385 1_555
Ga5 Gd2 3.046861 1_565
Ga5 Gd0 3.047795 1_665
Ga5 Gd1 3.047795 1_555
Ga6 Pd0 2.560651 1_666
Ga6 Gd3 3.073078 1_555
Ga6 Gd0 3.073094 1_666
Ga6 Gd1 3.073547 1_656
Ga6 Gd2 3.075857 1_566
Ga7 Pd0 2.560651 1_555
Ga7 Gd3 3.073078 1_555
Ga7 Gd1 3.073094 1_545
Ga7 Gd0 3.073547 1_555
Ga7 Gd2 3.075857 1_555
Ga8 Pd0 2.560628 1_555
Ga8 Gd0 3.073077 1_555
Ga8 Gd1 3.073077 1_555
Ga8 Gd3 3.073570 1_555
Ga8 Gd2 3.075898 1_455
Ga9 Pd0 2.560651 1_555
Ga9 Gd3 3.073078 1_555
Ga9 Gd0 3.073094 1_554
Ga9 Gd1 3.073547 1_555
Ga9 Gd2 3.075857 1_555
Ga10 Pd0 2.560651 1_666
Ga10 Ga5 2.772805 1_555
Ga10 Ga4 2.776531 1_555
Ga10 Ga2 2.776541 1_565
Ga10 Gd3 3.073078 1_555
Ga10 Gd1 3.073094 1_666
Ga10 Gd0 3.073547 1_665
Ga10 Gd2 3.075857 1_566
Ga11 Pd0 2.560628 1_666
Ga11 Ga4 2.776548 1_655
Ga11 Ga3 2.776548 1_655
Ga11 Gd1 3.073077 1_656
Ga11 Gd0 3.073077 1_665
Ga11 Gd3 3.073570 1_555
Ga11 Gd2 3.075898 1_666
