# generated using pymatgen
data_Sr5(RuN3)2
_symmetry_space_group_name_H-M   'P 1'
_cell_length_a   6.28760744
_cell_length_b   6.89799967
_cell_length_c   13.29338269
_cell_angle_alpha   89.99999669
_cell_angle_beta   100.49667173
_cell_angle_gamma   123.26686545
_symmetry_Int_Tables_number   1
_chemical_formula_structural   Sr5(RuN3)2
_chemical_formula_sum   'Sr10 Ru4 N12'
_cell_volume   470.49356563
_cell_formula_units_Z   2
loop_
 _symmetry_equiv_pos_site_id
 _symmetry_equiv_pos_as_xyz
  1  'x, y, z'
loop_
 _atom_site_type_symbol
 _atom_site_label
 _atom_site_symmetry_multiplicity
 _atom_site_fract_x
 _atom_site_fract_y
 _atom_site_fract_z
 _atom_site_occupancy
  Sr  Sr0  1  0.12680200  0.80210800  0.99862500  1
  Sr  Sr1  1  0.87319800  0.67530500  0.50137500  1
  Sr  Sr2  1  0.87319800  0.19789200  0.00137500  1
  Sr  Sr3  1  0.12680200  0.32469500  0.49862500  1
  Sr  Sr4  1  0.31776700  0.05878700  0.71773500  1
  Sr  Sr5  1  0.68223300  0.74102100  0.78226500  1
  Sr  Sr6  1  0.68223300  0.94121300  0.28226500  1
  Sr  Sr7  1  0.31776700  0.25897900  0.21773500  1
  Sr  Sr8  1  0.00000000  0.38330200  0.75000000  1
  Sr  Sr9  1  0.00000000  0.61669800  0.25000000  1
  Ru  Ru0  1  0.53792100  0.86936300  0.55837400  1
  Ru  Ru1  1  0.46207900  0.33144200  0.94162600  1
  Ru  Ru2  1  0.46207900  0.13063700  0.44162600  1
  Ru  Ru3  1  0.53792100  0.66855800  0.05837400  1
  N  N0  1  0.88933300  0.99219800  0.62398000  1
  N  N1  1  0.11066700  0.10286600  0.87602000  1
  N  N2  1  0.11066700  0.00780200  0.37602000  1
  N  N3  1  0.88933300  0.89713400  0.12398000  1
  N  N4  1  0.29500100  0.69087900  0.64241800  1
  N  N5  1  0.70499900  0.39587800  0.85758200  1
  N  N6  1  0.70499900  0.30912100  0.35758200  1
  N  N7  1  0.29500100  0.60412200  0.14241800  1
  N  N8  1  0.58352800  0.25484200  0.57939100  1
  N  N9  1  0.41647200  0.67131400  0.92060900  1
  N  N10  1  0.41647200  0.74515800  0.42060900  1
  N  N11  1  0.58352800  0.32868600  0.07939100  1
loop_
_geom_bond_atom_site_label_1
_geom_bond_atom_site_label_2
_geom_bond_distance
_geom_bond_site_symmetry_2
N0 Ru0 1.898572 1_555
N0 Sr4 2.537762 1_665
N0 Sr1 2.672339 1_555
N0 Sr3 2.723278 1_665
N0 Sr5 2.765529 1_555
N0 Sr8 2.843361 1_665
N1 Ru1 1.898571 1_555
N1 Sr5 2.537762 1_445
N1 Sr0 2.672339 1_545
N1 Sr2 2.723271 1_456
N1 Sr4 2.765535 1_555
N1 Sr8 2.843355 1_555
N2 Ru2 1.898572 1_555
N2 Sr6 2.537762 1_445
N2 Sr3 2.672339 1_555
N2 Sr1 2.723278 1_445
N2 Sr7 2.765529 1_555
N2 Sr9 2.843361 1_545
N3 Ru3 1.898571 1_555
N3 Sr7 2.537762 1_665
N3 Sr2 2.672339 1_565
N3 Sr0 2.723271 1_654
N3 Sr6 2.765535 1_555
N3 Sr9 2.843355 1_655
N4 Ru0 1.911969 1_555
N4 Sr8 2.576104 1_555
N4 Sr5 2.632612 1_555
N4 Sr4 2.648159 1_565
N4 Sr3 2.735942 1_555
N4 Sr1 2.904542 1_455
N5 Ru1 1.911969 1_555
N5 Sr8 2.576104 1_655
N5 Sr4 2.632615 1_555
N5 Sr5 2.648165 1_555
N5 Sr2 2.735947 1_556
N5 Sr0 2.904546 1_655
N6 Ru2 1.911969 1_555
N6 Sr9 2.576104 1_655
N6 Sr7 2.632612 1_555
N6 Sr6 2.648159 1_545
N6 Sr1 2.735942 1_555
N6 Sr3 2.904542 1_655
N7 Ru3 1.911969 1_555
N7 Sr9 2.576104 1_555
N7 Sr6 2.632615 1_555
N7 Sr7 2.648165 1_555
N7 Sr0 2.735947 1_554
N7 Sr2 2.904546 1_455
N8 Ru2 1.855736 1_555
N8 Ru0 2.522902 1_545
N8 Sr4 2.577558 1_555
N8 Sr1 2.774487 1_555
N8 Sr8 2.841914 1_655
N8 Sr3 3.166434 1_555
N9 Ru3 1.855736 1_556
N9 Ru1 2.522902 1_555
N9 Sr5 2.577557 1_555
N9 Sr0 2.774492 1_555
N9 Sr8 2.841914 1_555
N9 Sr2 3.166430 1_566
N10 Ru0 1.855736 1_555
N10 Ru2 2.522902 1_565
N10 Sr6 2.577558 1_555
N10 Sr3 2.774487 1_555
N10 Sr9 2.841914 1_555
N10 Sr1 3.166434 1_555
N11 Ru1 1.855736 1_554
N11 Ru3 2.522902 1_555
N11 Sr7 2.577557 1_555
N11 Sr2 2.774492 1_555
N11 Sr9 2.841914 1_655
N11 Sr0 3.166430 1_544
