# generated using pymatgen
data_LiCoBO3
_symmetry_space_group_name_H-M   'P 1'
_cell_length_a   3.11850690
_cell_length_b   9.10289230
_cell_length_c   9.44501800
_cell_angle_alpha   90.00005557
_cell_angle_beta   90.00357133
_cell_angle_gamma   89.67032377
_symmetry_Int_Tables_number   1
_chemical_formula_structural   LiCoBO3
_chemical_formula_sum   'Li4 Co4 B4 O12'
_cell_volume   268.11537151
_cell_formula_units_Z   4
loop_
 _symmetry_equiv_pos_site_id
 _symmetry_equiv_pos_as_xyz
  1  'x, y, z'
loop_
 _atom_site_type_symbol
 _atom_site_label
 _atom_site_symmetry_multiplicity
 _atom_site_fract_x
 _atom_site_fract_y
 _atom_site_fract_z
 _atom_site_occupancy
  Li  Li0  1  0.25817400  0.13303700  0.70090700  1
  Li  Li1  1  0.24532900  0.36671100  0.20171000  1
  Li  Li2  1  0.75818300  0.63303900  0.79909300  1
  Li  Li3  1  0.74529700  0.86671200  0.29829500  1
  Co  Co0  1  0.74325700  0.20584400  0.93972600  1
  Co  Co1  1  0.24330000  0.70583800  0.56027200  1
  Co  Co2  1  0.75109800  0.29422500  0.43970000  1
  Co  Co3  1  0.25121100  0.79423300  0.06029600  1
  B  B0  1  0.24400400  0.10391700  0.20995100  1
  B  B1  1  0.25660700  0.39614900  0.70975200  1
  B  B2  1  0.74397500  0.60391800  0.29004900  1
  B  B3  1  0.75660900  0.89614300  0.79024600  1
  O  O0  1  0.76171500  0.04664800  0.78557200  1
  O  O1  1  0.74355200  0.45336100  0.28552600  1
  O  O2  1  0.26169200  0.54665400  0.71443400  1
  O  O3  1  0.24346400  0.95336100  0.21447700  1
  O  O4  1  0.24811900  0.18577200  0.33410500  1
  O  O5  1  0.25452500  0.31406200  0.83373600  1
  O  O6  1  0.74799300  0.68577100  0.16589500  1
  O  O7  1  0.75449700  0.81405800  0.66626200  1
  O  O8  1  0.24154000  0.18329800  0.08219000  1
  O  O9  1  0.25216900  0.31698100  0.58189700  1
  O  O10  1  0.74150900  0.68329500  0.41781100  1
  O  O11  1  0.75218100  0.81697300  0.91810100  1
loop_
_geom_bond_atom_site_label_1
_geom_bond_atom_site_label_2
_geom_bond_distance
_geom_bond_site_symmetry_2
Li0 O0 1.915461 1_455
Li0 O0 1.925963 1_555
Li0 O9 2.016723 1_555
Li0 O5 2.071057 1_555
Li1 O1 1.917504 1_555
Li1 O1 1.919214 1_455
Li1 O8 2.015498 1_555
Li1 O4 2.067953 1_555
Li2 O2 1.915422 1_555
Li2 O2 1.925924 1_655
Li2 O11 2.016637 1_555
Li2 O7 2.071026 1_555
Li3 O3 1.917446 1_655
Li3 O3 1.919281 1_555
Li3 O10 2.015510 1_555
Li3 O6 2.067995 1_555
Co0 O0 2.054818 1_555
Co0 O8 2.064792 1_656
Co0 O5 2.068340 1_555
Co0 O8 2.074765 1_556
Co0 O5 2.129069 1_655
Co1 O2 2.054787 1_555
Co1 O10 2.064723 1_555
Co1 O7 2.068602 1_455
Co1 O10 2.074791 1_455
Co1 O7 2.128817 1_555
Co2 O1 2.054032 1_555
Co2 O9 2.064974 1_555
Co2 O9 2.071681 1_655
Co2 O4 2.086697 1_655
Co2 O4 2.108859 1_555
Co3 O3 2.054032 1_555
Co3 O11 2.065059 1_454
Co3 O11 2.071542 1_554
Co3 O6 2.086110 1_555
Co3 O6 2.109566 1_455
B0 O3 1.371172 1_545
B0 O4 1.389442 1_555
B0 O8 1.406513 1_555
B1 O2 1.370927 1_555
B1 O5 1.389160 1_555
B1 O9 1.406389 1_555
B2 O1 1.371178 1_555
B2 O6 1.389431 1_555
B2 O10 1.406502 1_555
B3 O0 1.370926 1_565
B3 O7 1.389149 1_555
B3 O11 1.406401 1_555
