# generated using pymatgen
data_ZnCr8Cu3Se16
_symmetry_space_group_name_H-M   'P 1'
_cell_length_a   12.75294065
_cell_length_b   12.75294065
_cell_length_c   12.75294021
_cell_angle_alpha   33.69452762
_cell_angle_beta   33.69452762
_cell_angle_gamma   33.69452654
_symmetry_Int_Tables_number   1
_chemical_formula_structural   ZnCr8Cu3Se16
_chemical_formula_sum   'Zn1 Cr8 Cu3 Se16'
_cell_volume   568.70907446
_cell_formula_units_Z   1
loop_
 _symmetry_equiv_pos_site_id
 _symmetry_equiv_pos_as_xyz
  1  'x, y, z'
loop_
 _atom_site_type_symbol
 _atom_site_label
 _atom_site_symmetry_multiplicity
 _atom_site_fract_x
 _atom_site_fract_y
 _atom_site_fract_z
 _atom_site_occupancy
  Zn  Zn0  1  0.56236500  0.56236500  0.56236500  1
  Cr  Cr0  1  0.25129900  0.25129900  0.25129900  1
  Cr  Cr1  1  0.74974400  0.74974400  0.74974400  1
  Cr  Cr2  1  0.99767900  0.50266200  0.99767900  1
  Cr  Cr3  1  0.49916400  0.00259400  0.49916400  1
  Cr  Cr4  1  0.49916400  0.49916400  0.00259400  1
  Cr  Cr5  1  0.99767900  0.99767900  0.50266200  1
  Cr  Cr6  1  0.50266200  0.99767900  0.99767900  1
  Cr  Cr7  1  0.00259400  0.49916400  0.49916400  1
  Cu  Cu0  1  0.06247300  0.06247300  0.06247300  1
  Cu  Cu1  1  0.93758400  0.93758400  0.93758400  1
  Cu  Cu2  1  0.43752800  0.43752800  0.43752800  1
  Se  Se0  1  0.63031000  0.63031000  0.63031000  1
  Se  Se1  1  0.12899100  0.12899100  0.12899100  1
  Se  Se2  1  0.35965200  0.90058400  0.35965200  1
  Se  Se3  1  0.86329000  0.39440400  0.86329000  1
  Se  Se4  1  0.35965200  0.35965200  0.90058400  1
  Se  Se5  1  0.86329000  0.86329000  0.39440400  1
  Se  Se6  1  0.90058400  0.35965200  0.35965200  1
  Se  Se7  1  0.39440400  0.86329000  0.86329000  1
  Se  Se8  1  0.87093600  0.87093600  0.87093600  1
  Se  Se9  1  0.37112900  0.37112900  0.37112900  1
  Se  Se10  1  0.13663900  0.60588600  0.13663900  1
  Se  Se11  1  0.63667900  0.10530400  0.63667900  1
  Se  Se12  1  0.13663900  0.13663900  0.60588600  1
  Se  Se13  1  0.63667900  0.63667900  0.10530400  1
  Se  Se14  1  0.60588600  0.13663900  0.13663900  1
  Se  Se15  1  0.10530400  0.63667900  0.63667900  1
loop_
_geom_bond_atom_site_label_1
_geom_bond_atom_site_label_2
_geom_bond_distance
_geom_bond_site_symmetry_2
Cr0 Se12 2.505391 1_555
Cr0 Se14 2.505392 1_555
Cr0 Se10 2.505392 1_555
Cr0 Se4 2.536182 1_554
Cr0 Se2 2.536182 1_545
Cr0 Se6 2.536182 1_455
Cr1 Se5 2.525859 1_555
Cr1 Se3 2.525859 1_555
Cr1 Se7 2.525859 1_555
Cr1 Se13 2.533672 1_556
Cr1 Se15 2.533672 1_655
Cr1 Se11 2.533672 1_565
Cr2 Se15 2.509096 1_655
Cr2 Se13 2.509096 1_556
Cr2 Se8 2.523153 1_555
Cr2 Se6 2.530985 1_556
Cr2 Se4 2.530985 1_655
Cr2 Se1 2.534919 1_656
Cr3 Se9 2.513585 1_555
Cr3 Se0 2.522620 1_545
Cr3 Se14 2.529611 1_555
Cr3 Se12 2.529611 1_555
Cr3 Se7 2.530447 1_545
Cr3 Se5 2.530447 1_545
Cr4 Se9 2.513585 1_555
Cr4 Se0 2.522620 1_554
Cr4 Se10 2.529611 1_555
Cr4 Se14 2.529611 1_555
Cr4 Se7 2.530447 1_554
Cr4 Se3 2.530447 1_554
Cr5 Se11 2.509096 1_565
Cr5 Se15 2.509096 1_655
Cr5 Se8 2.523153 1_555
Cr5 Se2 2.530985 1_655
Cr5 Se6 2.530985 1_565
Cr5 Se1 2.534919 1_665
Cr6 Se11 2.509096 1_565
Cr6 Se13 2.509096 1_556
Cr6 Se8 2.523153 1_555
Cr6 Se2 2.530985 1_556
Cr6 Se4 2.530985 1_565
Cr6 Se1 2.534919 1_566
Cr7 Se9 2.513585 1_555
Cr7 Se0 2.522620 1_455
Cr7 Se10 2.529611 1_555
Cr7 Se12 2.529611 1_555
Cr7 Se3 2.530447 1_455
Cr7 Se5 2.530447 1_455
Cu0 Se1 2.398161 1_555
Cu0 Se3 2.403216 1_454
Cu0 Se7 2.403216 1_544
Cu0 Se5 2.403216 1_445
Cu1 Se14 2.401671 1_566
Cu1 Se10 2.401671 1_656
Cu1 Se12 2.401671 1_665
Cu1 Se8 2.402848 1_555
Cu2 Se9 2.393871 1_555
Cu2 Se15 2.402845 1_555
Cu2 Se11 2.402845 1_555
Cu2 Se13 2.402845 1_555
Se0 Zn0 2.449609 1_555
Se2 Zn0 2.445825 1_555
Se4 Zn0 2.445825 1_555
Se6 Zn0 2.445825 1_555
