# generated using pymatgen
data_K3Er(SO4)3
_symmetry_space_group_name_H-M   'P 1'
_cell_length_a   14.81854200
_cell_length_b   9.12985000
_cell_length_c   9.32015584
_cell_angle_alpha   69.36152962
_cell_angle_beta   90.00000000
_cell_angle_gamma   90.00000000
_symmetry_Int_Tables_number   1
_chemical_formula_structural   K3Er(SO4)3
_chemical_formula_sum   'K12 Er4 S12 O48'
_cell_volume   1180.01097480
_cell_formula_units_Z   4
loop_
 _symmetry_equiv_pos_site_id
 _symmetry_equiv_pos_as_xyz
  1  'x, y, z'
loop_
 _atom_site_type_symbol
 _atom_site_label
 _atom_site_symmetry_multiplicity
 _atom_site_fract_x
 _atom_site_fract_y
 _atom_site_fract_z
 _atom_site_occupancy
  K  K0  1  0.55887200  0.74307300  0.73606500  1
  K  K1  1  0.44112800  0.24307300  0.73606500  1
  K  K2  1  0.51161100  0.53890600  0.33332300  1
  K  K3  1  0.48838900  0.03890600  0.33332300  1
  K  K4  1  0.98875300  0.52959400  0.84692800  1
  K  K5  1  0.01124700  0.02959400  0.84692800  1
  K  K6  1  0.07596000  0.20660500  0.23060300  1
  K  K7  1  0.92404000  0.70660500  0.23060300  1
  K  K8  1  0.73836700  0.45088800  0.68568600  1
  K  K9  1  0.26163300  0.95088800  0.68568600  1
  K  K10  1  0.73667700  0.41741200  0.20758800  1
  K  K11  1  0.26332300  0.91741200  0.20758800  1
  Er  Er0  1  0.32625800  0.50132800  0.00000700  1
  Er  Er1  1  0.67374200  0.00132800  0.00000700  1
  Er  Er2  1  0.14657500  0.46329000  0.50987300  1
  Er  Er3  1  0.85342500  0.96329000  0.50987300  1
  S  S0  1  0.65114100  0.15532900  0.58785300  1
  S  S1  1  0.34885900  0.65532900  0.58785300  1
  S  S2  1  0.19236800  0.28215000  0.84401700  1
  S  S3  1  0.80763200  0.78215000  0.84401700  1
  S  S4  1  0.95240500  0.33570500  0.49632600  1
  S  S5  1  0.04759500  0.83570500  0.49632600  1
  S  S6  1  0.30941300  0.29291100  0.34196100  1
  S  S7  1  0.69058700  0.79291100  0.34196100  1
  S  S8  1  0.55193900  0.34529500  0.01268100  1
  S  S9  1  0.44806100  0.84529500  0.01268100  1
  S  S10  1  0.15527300  0.64311500  0.08730900  1
  S  S11  1  0.84472700  0.14311500  0.08730900  1
  O  O0  1  0.64055300  0.32264100  0.49356900  1
  O  O1  1  0.35944700  0.82264100  0.49356900  1
  O  O2  1  0.56767300  0.06564700  0.59412800  1
  O  O3  1  0.43232700  0.56564700  0.59412800  1
  O  O4  1  0.67722400  0.14679300  0.74748800  1
  O  O5  1  0.32277600  0.64679300  0.74748800  1
  O  O6  1  0.72670100  0.08696700  0.52368400  1
  O  O7  1  0.27329900  0.58696700  0.52368400  1
  O  O8  1  0.14286100  0.43440400  0.77507300  1
  O  O9  1  0.85713900  0.93440400  0.77507300  1
  O  O10  1  0.20184600  0.22435000  0.71169400  1
  O  O11  1  0.79815400  0.72435000  0.71169400  1
  O  O12  1  0.28313700  0.31279700  0.89614700  1
  O  O13  1  0.71686300  0.81279700  0.89614700  1
  O  O14  1  0.14311200  0.16691600  0.97182400  1
  O  O15  1  0.85688800  0.66691600  0.97182400  1
  O  O16  1  0.99686100  0.34054000  0.63882800  1
  O  O17  1  0.00313900  0.84054000  0.63882800  1
  O  O18  1  0.93815700  0.16881800  0.51220700  1
  O  O19  1  0.06184300  0.66881800  0.51220700  1
  O  O20  1  0.02125600  0.40683200  0.37116000  1
  O  O21  1  0.97874400  0.90683200  0.37116000  1
  O  O22  1  0.86721500  0.42370200  0.46062200  1
  O  O23  1  0.13278500  0.92370200  0.46062200  1
  O  O24  1  0.15675800  0.63758600  0.24990700  1
  O  O25  1  0.84324200  0.13758600  0.24990700  1
  O  O26  1  0.07013800  0.71609600  0.01419400  1
  O  O27  1  0.92986200  0.21609600  0.01419400  1
  O  O28  1  0.23653900  0.73223100  0.00468800  1
  O  O29  1  0.76346100  0.23223100  0.00468800  1
  O  O30  1  0.16716800  0.48241200  0.07882400  1
  O  O31  1  0.83283200  0.98241200  0.07882400  1
  O  O32  1  0.34505800  0.45582100  0.25845000  1
  O  O33  1  0.65494200  0.95582100  0.25845000  1
  O  O34  1  0.30266100  0.21847900  0.22305400  1
  O  O35  1  0.69733900  0.71847900  0.22305400  1
  O  O36  1  0.21689700  0.30439500  0.40312000  1
  O  O37  1  0.78310300  0.80439500  0.40312000  1
  O  O38  1  0.36965500  0.20590400  0.46893300  1
  O  O39  1  0.63034500  0.70590400  0.46893300  1
  O  O40  1  0.61431700  0.46022200  0.90889000  1
  O  O41  1  0.38568300  0.96022200  0.90889000  1
  O  O42  1  0.56607600  0.18649900  0.00036800  1
  O  O43  1  0.43392400  0.68649900  0.00036800  1
  O  O44  1  0.56245500  0.33459600  0.17373700  1
  O  O45  1  0.43754500  0.83459600  0.17373700  1
  O  O46  1  0.45570100  0.38965000  0.96239000  1
  O  O47  1  0.54429900  0.88965000  0.96239000  1
loop_
_geom_bond_atom_site_label_1
_geom_bond_atom_site_label_2
_geom_bond_distance
_geom_bond_site_symmetry_2
K0 O40 2.646893 1_555
K0 O2 2.773795 1_565
K0 O39 2.833930 1_555
K0 O47 2.876963 1_555
K0 O13 2.963439 1_555
K0 O43 2.977608 1_556
K0 O3 3.066108 1_555
K1 O41 2.646893 1_545
K1 O3 2.773795 1_555
K1 O38 2.833930 1_555
K1 O46 2.876963 1_555
K1 O12 2.963439 1_555
K1 O42 2.977608 1_556
K1 O2 3.066108 1_555
K2 O32 2.743520 1_555
K2 O0 2.775106 1_555
K2 O3 2.786896 1_555
K2 O45 2.806100 1_555
K2 O44 2.866206 1_555
K2 O39 2.894172 1_555
K2 O43 3.134182 1_555
K2 O35 3.182927 1_555
K3 O33 2.743520 1_545
K3 O1 2.775106 1_545
K3 O2 2.786896 1_555
K3 O44 2.806100 1_555
K3 O45 2.866206 1_545
K3 O38 2.894172 1_555
K3 O42 3.134182 1_555
K3 O34 3.182927 1_555
K4 O8 2.613265 1_655
K4 O15 2.788179 1_555
K4 O17 2.825780 1_655
K4 O27 2.870290 1_556
K4 O26 2.941991 1_656
K4 O16 3.019156 1_555
K4 O19 3.118595 1_655
K4 O11 3.338804 1_555
K4 O30 3.345211 1_656
K5 O9 2.613265 1_445
K5 O14 2.788179 1_555
K5 O16 2.825780 1_455
K5 O26 2.870290 1_546
K5 O27 2.941991 1_456
K5 O17 3.019156 1_545
K5 O18 3.118595 1_455
K5 O10 3.338804 1_555
K5 O31 3.345211 1_446
K6 O20 2.720875 1_555
K6 O14 2.748576 1_554
K6 O30 2.767219 1_555
K6 O23 2.841268 1_545
K6 O27 2.939303 1_455
K6 O21 2.958805 1_445
K6 O36 2.959074 1_555
K7 O21 2.720875 1_555
K7 O15 2.748576 1_554
K7 O31 2.767219 1_555
K7 O22 2.841268 1_555
K7 O26 2.939303 1_655
K7 O20 2.958805 1_655
K7 O37 2.959074 1_555
K8 O11 2.739278 1_555
K8 O4 2.780908 1_555
K8 O40 2.799820 1_555
K8 O0 2.855857 1_555
K8 O22 2.911058 1_555
K8 O39 2.957793 1_555
K8 O29 2.962952 1_556
K9 O10 2.739278 1_565
K9 O5 2.780908 1_555
K9 O41 2.799820 1_555
K9 O1 2.855857 1_555
K9 O23 2.911058 1_555
K9 O38 2.957793 1_565
K9 O28 2.962952 1_556
K10 O44 2.739460 1_555
K10 O35 2.862731 1_555
K10 O0 2.873354 1_555
K10 O25 2.909597 1_555
K10 O29 2.974194 1_555
K10 O22 3.066311 1_555
K10 O15 3.108383 1_554
K11 O45 2.739460 1_555
K11 O34 2.862731 1_565
K11 O1 2.873354 1_555
K11 O24 2.909597 1_555
K11 O28 2.974194 1_555
K11 O23 3.066311 1_555
K11 O14 3.108383 1_564
Er0 O46 2.256951 1_554
Er0 O5 2.258781 1_554
Er0 O32 2.312299 1_555
Er0 O43 2.325417 1_555
Er0 O12 2.341495 1_554
Er0 O30 2.457180 1_555
Er0 O28 2.505683 1_555
Er0 O34 2.707048 1_555
Er1 O47 2.256951 1_544
Er1 O4 2.258781 1_554
Er1 O33 2.312299 1_545
Er1 O42 2.325417 1_555
Er1 O13 2.341495 1_544
Er1 O31 2.457180 1_545
Er1 O29 2.505683 1_555
Er1 O35 2.707048 1_545
Er2 O7 2.218195 1_555
Er2 O19 2.264248 1_555
Er2 O36 2.279874 1_555
Er2 O24 2.389057 1_555
Er2 O8 2.392152 1_555
Er2 O20 2.419809 1_555
Er2 O10 2.464799 1_555
Er2 O16 2.583193 1_455
Er3 O6 2.218195 1_565
Er3 O18 2.264248 1_565
Er3 O37 2.279874 1_555
Er3 O25 2.389057 1_565
Er3 O9 2.392152 1_555
Er3 O21 2.419809 1_555
Er3 O11 2.464799 1_555
Er3 O17 2.583193 1_655
O0 S0 1.477808 1_555
O1 S1 1.477808 1_555
O2 S0 1.473067 1_555
O3 S1 1.473067 1_555
O4 S0 1.512397 1_555
O5 S1 1.512397 1_555
O6 S0 1.504681 1_555
O7 S1 1.504681 1_555
O8 S2 1.501231 1_555
O9 S3 1.501231 1_555
O10 S2 1.509283 1_555
O11 S3 1.509283 1_555
O12 S2 1.489758 1_555
O13 S3 1.489758 1_555
O14 S2 1.474817 1_555
O15 S3 1.474817 1_555
O16 S4 1.497070 1_555
O17 S5 1.497070 1_555
O18 S4 1.492992 1_555
O19 S5 1.492992 1_555
O20 S4 1.513110 1_455
O21 S5 1.513110 1_655
O22 S4 1.470155 1_555
O23 S5 1.470155 1_555
O24 S10 1.498553 1_555
O25 S11 1.498553 1_555
O26 S10 1.476423 1_555
O27 S11 1.476423 1_555
O28 S10 1.504486 1_555
O29 S11 1.504486 1_555
O30 S10 1.507241 1_555
O31 S11 1.507241 1_565
O32 S6 1.510273 1_555
O33 S7 1.510273 1_555
O34 S6 1.493611 1_555
O35 S7 1.493611 1_555
O36 S6 1.502513 1_555
O37 S7 1.502513 1_555
O38 S6 1.471624 1_555
O39 S7 1.471624 1_555
O40 S8 1.475001 1_556
O41 S9 1.475001 1_556
O42 S8 1.508712 1_555
O43 S9 1.508712 1_555
O44 S8 1.477723 1_555
O45 S9 1.477723 1_555
O46 S8 1.511179 1_556
O47 S9 1.511179 1_556
