# generated using pymatgen
data_Tb2Co7B3
_symmetry_space_group_name_H-M   'P 1'
_cell_length_a   5.03978762
_cell_length_b   5.03749468
_cell_length_c   12.72576000
_cell_angle_alpha   89.99993873
_cell_angle_beta   90.00011549
_cell_angle_gamma   120.01505170
_symmetry_Int_Tables_number   1
_chemical_formula_structural   Tb2Co7B3
_chemical_formula_sum   'Tb4 Co14 B6'
_cell_volume   279.75335657
_cell_formula_units_Z   2
loop_
 _symmetry_equiv_pos_site_id
 _symmetry_equiv_pos_as_xyz
  1  'x, y, z'
loop_
 _atom_site_type_symbol
 _atom_site_label
 _atom_site_symmetry_multiplicity
 _atom_site_fract_x
 _atom_site_fract_y
 _atom_site_fract_z
 _atom_site_occupancy
  Tb  Tb0  1  0.99998000  0.00000000  0.00007200  1
  Tb  Tb1  1  0.99999400  0.00000000  0.50007700  1
  Tb  Tb2  1  0.99998900  0.00000000  0.26120700  1
  Tb  Tb3  1  0.00000700  0.00000000  0.73855500  1
  Co  Co0  1  0.33336500  0.66676900  0.99997600  1
  Co  Co1  1  0.66659600  0.33323100  0.99997600  1
  Co  Co2  1  0.49999300  0.00000000  0.15497700  1
  Co  Co3  1  0.49998600  0.50000500  0.15496200  1
  Co  Co4  1  0.99998100  0.49999500  0.15496200  1
  Co  Co5  1  0.50000100  0.00000000  0.84504100  1
  Co  Co6  1  0.50000300  0.49999900  0.84513200  1
  Co  Co7  1  0.00000400  0.50000100  0.84513200  1
  Co  Co8  1  0.49998900  0.00000000  0.38434600  1
  Co  Co9  1  0.49998600  0.50000300  0.38434400  1
  Co  Co10  1  0.99998200  0.49999700  0.38434400  1
  Co  Co11  1  0.49999700  0.00000000  0.61569300  1
  Co  Co12  1  0.49999700  0.50000000  0.61570300  1
  Co  Co13  1  0.99999700  0.50000000  0.61570300  1
  B  B0  1  0.33333100  0.66668000  0.50004500  1
  B  B1  1  0.66665100  0.33332000  0.50004500  1
  B  B2  1  0.33333800  0.66672100  0.26824800  1
  B  B3  1  0.66661700  0.33327900  0.26824800  1
  B  B4  1  0.66655400  0.33309500  0.73160500  1
  B  B5  1  0.33345900  0.66690500  0.73160500  1
loop_
_geom_bond_atom_site_label_1
_geom_bond_atom_site_label_2
_geom_bond_distance
_geom_bond_site_symmetry_2
Tb1 Tb3 3.034814 1_655
Tb1 Tb2 3.039802 1_555
Co0 Co7 2.449331 1_555
Co0 Co6 2.449457 1_555
Co0 Co5 2.449535 1_565
Co0 Co2 2.450211 1_566
Co0 Co3 2.450847 1_556
Co0 Co4 2.450848 1_456
Co0 Tb0 2.908404 1_456
Co0 Tb0 2.909057 1_566
Co0 Tb0 2.909061 1_466
Co1 Co6 2.449331 1_555
Co1 Co7 2.449457 1_655
Co1 Co5 2.449535 1_555
Co1 Co2 2.450211 1_556
Co1 Co4 2.450847 1_556
Co1 Co3 2.450848 1_556
Co1 Tb0 2.908404 1_566
Co1 Tb0 2.909056 1_556
Co1 Tb0 2.909061 1_456
Co2 Tb2 2.859592 1_555
Co2 Tb2 2.859633 1_455
Co3 Tb2 2.858687 1_565
Co3 Tb2 2.858698 1_455
Co4 Tb2 2.858687 1_555
Co4 Tb2 2.858698 1_565
Co5 Tb3 2.861125 1_555
Co5 Tb3 2.861183 1_655
Co6 Tb3 2.860681 1_555
Co6 Tb3 2.860706 1_665
Co7 Tb3 2.860681 1_565
Co7 Tb3 2.860706 1_555
Co8 Tb1 2.918697 1_455
Co8 Tb1 2.918735 1_555
Co8 Tb2 2.967399 1_455
Co8 Tb2 2.967404 1_555
Co9 Tb1 2.917729 1_455
Co9 Tb1 2.917749 1_565
Co9 Tb2 2.966413 1_455
Co9 Tb2 2.966416 1_565
Co10 Tb1 2.917727 1_565
Co10 Tb1 2.917751 1_555
Co10 Tb2 2.966411 1_565
Co10 Tb2 2.966418 1_555
Co11 Tb1 2.917967 1_555
Co11 Tb1 2.917988 1_455
Co11 Tb3 2.965501 1_555
Co11 Tb3 2.965582 1_655
Co12 Tb1 2.917047 1_565
Co12 Tb1 2.917057 1_455
Co12 Tb3 2.964480 1_555
Co12 Tb3 2.964521 1_665
Co13 Tb1 2.917047 1_555
Co13 Tb1 2.917057 1_565
Co13 Tb3 2.964480 1_665
Co13 Tb3 2.964520 1_655
B0 Co11 2.068771 1_565
B0 Co8 2.069232 1_565
B0 Co13 2.069371 1_455
B0 Co12 2.069404 1_555
B0 Co9 2.069754 1_555
B0 Co10 2.069803 1_455
B0 Tb1 2.908016 1_455
B0 Tb1 2.909239 1_465
B0 Tb1 2.909266 1_565
B1 Co11 2.068771 1_555
B1 Co8 2.069232 1_555
B1 Co12 2.069371 1_555
B1 Co13 2.069404 1_555
B1 Co10 2.069751 1_555
B1 Co9 2.069800 1_555
B1 Tb1 2.908016 1_565
B1 Tb1 2.909240 1_455
B1 Tb1 2.909265 1_555
B2 Co2 2.047235 1_565
B2 Co4 2.048079 1_455
B2 Co3 2.048105 1_555
B2 Co8 2.072723 1_565
B2 Co10 2.073407 1_455
B2 Co9 2.073433 1_555
B2 Tb2 2.909575 1_455
B2 Tb2 2.910492 1_465
B2 Tb2 2.910593 1_565
B3 Co2 2.047235 1_555
B3 Co3 2.048079 1_555
B3 Co4 2.048105 1_555
B3 Co8 2.072723 1_555
B3 Co9 2.073403 1_555
B3 Co10 2.073431 1_555
B3 Tb2 2.909575 1_565
B3 Tb2 2.910492 1_455
B3 Tb2 2.910593 1_555
B4 Co5 2.048144 1_555
B4 Co7 2.050527 1_655
B4 Co6 2.050546 1_555
B4 Co11 2.070473 1_555
B4 Co13 2.071915 1_555
B4 Co12 2.071969 1_555
B4 Tb3 2.910105 1_555
B4 Tb3 2.910108 1_655
B4 Tb3 2.910341 1_665
B5 Co5 2.048145 1_565
B5 Co6 2.050527 1_555
B5 Co7 2.050546 1_555
B5 Co11 2.070473 1_565
B5 Co12 2.071915 1_555
B5 Co13 2.071969 1_455
B5 Tb3 2.910104 1_565
B5 Tb3 2.910109 1_665
B5 Tb3 2.910341 1_555
