# generated using pymatgen
data_ZrCrAgS4
_symmetry_space_group_name_H-M   'P 1'
_cell_length_a   11.98961643
_cell_length_b   7.10047191
_cell_length_c   13.09105938
_cell_angle_alpha   89.76570814
_cell_angle_beta   90.84813365
_cell_angle_gamma   90.35026159
_symmetry_Int_Tables_number   1
_chemical_formula_structural   ZrCrAgS4
_chemical_formula_sum   'Zr8 Cr8 Ag8 S32'
_cell_volume   1114.31538031
_cell_formula_units_Z   8
loop_
 _symmetry_equiv_pos_site_id
 _symmetry_equiv_pos_as_xyz
  1  'x, y, z'
loop_
 _atom_site_type_symbol
 _atom_site_label
 _atom_site_symmetry_multiplicity
 _atom_site_fract_x
 _atom_site_fract_y
 _atom_site_fract_z
 _atom_site_occupancy
  Zr  Zr0  1  0.11866500  0.90182800  0.68249100  1
  Zr  Zr1  1  0.88926900  0.10917900  0.18668300  1
  Zr  Zr2  1  0.38194300  0.89035500  0.18664200  1
  Zr  Zr3  1  0.60747100  0.08714100  0.69175300  1
  Zr  Zr4  1  0.88756600  0.60967400  0.83596800  1
  Zr  Zr5  1  0.39626700  0.38239500  0.83595500  1
  Zr  Zr6  1  0.62477100  0.60007100  0.34219800  1
  Zr  Zr7  1  0.88120300  0.39054200  0.49385400  1
  Cr  Cr0  1  0.12577600  0.36481500  0.33515900  1
  Cr  Cr1  1  0.15789600  0.63052000  0.93883300  1
  Cr  Cr2  1  0.33697600  0.62502900  0.43986000  1
  Cr  Cr3  1  0.66154100  0.36879900  0.94157500  1
  Cr  Cr4  1  0.12688000  0.14850500  0.03919100  1
  Cr  Cr5  1  0.85195000  0.92371400  0.47047500  1
  Cr  Cr6  1  0.35237600  0.11617700  0.45804100  1
  Cr  Cr7  1  0.62241900  0.86260700  0.02552400  1
  Ag  Ag0  1  0.11198900  0.36040500  0.65805100  1
  Ag  Ag1  1  0.88241000  0.61575600  0.17107600  1
  Ag  Ag2  1  0.39065700  0.39293300  0.16230300  1
  Ag  Ag3  1  0.60261800  0.63962600  0.67273100  1
  Ag  Ag4  1  0.11833500  0.87776700  0.31247000  1
  Ag  Ag5  1  0.88630000  0.13002200  0.82233400  1
  Ag  Ag6  1  0.38230200  0.88332800  0.80984000  1
  Ag  Ag7  1  0.61065300  0.12299200  0.30398700  1
  S  S0  1  0.03144800  0.86406800  0.86807600  1
  S  S1  1  0.97475200  0.13362900  0.37657900  1
  S  S2  1  0.46257500  0.86645700  0.37889600  1
  S  S3  1  0.53434900  0.11912700  0.88374200  1
  S  S4  1  0.04268100  0.35363000  0.16335500  1
  S  S5  1  0.96440900  0.60262700  0.64769600  1
  S  S6  1  0.46988100  0.36665400  0.66031600  1
  S  S7  1  0.54328200  0.65961900  0.15920400  1
  S  S8  1  0.02490400  0.38123300  0.91579100  1
  S  S9  1  0.98985700  0.59726400  0.37608300  1
  S  S10  1  0.47296500  0.39188800  0.40976400  1
  S  S11  1  0.53104000  0.61400100  0.91279500  1
  S  S12  1  0.02582200  0.89012500  0.12253400  1
  S  S13  1  0.95465800  0.08488300  0.61180700  1
  S  S14  1  0.46023300  0.89577000  0.62006800  1
  S  S15  1  0.52175100  0.11051500  0.12399200  1
  S  S16  1  0.22159100  0.86879000  0.51155700  1
  S  S17  1  0.76540100  0.11853000  0.02562700  1
  S  S18  1  0.26484100  0.88487900  0.02113000  1
  S  S19  1  0.71537900  0.14418900  0.51737400  1
  S  S20  1  0.22647000  0.36800900  0.49413400  1
  S  S21  1  0.77004000  0.62674100  0.00393100  1
  S  S22  1  0.26974900  0.37781900  0.00094400  1
  S  S23  1  0.73344700  0.65536000  0.51076700  1
  S  S24  1  0.23367600  0.14399200  0.76110200  1
  S  S25  1  0.77420600  0.87496100  0.30111600  1
  S  S26  1  0.26991600  0.13879800  0.29157700  1
  S  S27  1  0.74344400  0.86102900  0.76677900  1
  S  S28  1  0.23925500  0.62260700  0.78015100  1
  S  S29  1  0.76585600  0.37508100  0.29311100  1
  S  S30  1  0.25795900  0.60100300  0.28018500  1
  S  S31  1  0.73593100  0.37253800  0.78082900  1
loop_
_geom_bond_atom_site_label_1
_geom_bond_atom_site_label_2
_geom_bond_distance
_geom_bond_site_symmetry_2
Cr0 S20 2.390587 1_555
Cr0 S9 2.394321 1_455
Cr0 S30 2.415258 1_555
Cr0 S26 2.440939 1_555
Cr0 S4 2.447748 1_555
Cr0 S1 2.500557 1_455
Cr1 S28 2.309012 1_555
Cr1 S22 2.379983 1_556
Cr1 S8 2.392114 1_555
Cr1 S0 2.425492 1_555
Cr1 S18 2.452222 1_556
Cr2 S30 2.288748 1_555
Cr2 S20 2.361871 1_555
Cr2 S10 2.368829 1_555
Cr2 S2 2.415805 1_555
Cr2 S16 2.423126 1_555
Cr3 S31 2.297662 1_555
Cr3 S11 2.373151 1_555
Cr3 S21 2.380060 1_556
Cr3 S17 2.426867 1_556
Cr3 S3 2.446485 1_555
Cr4 S22 2.412603 1_555
Cr4 S4 2.422484 1_555
Cr4 S12 2.453547 1_545
Cr4 S18 2.519701 1_545
Cr4 S8 2.603767 1_554
Cr5 S19 2.361739 1_565
Cr5 S25 2.417709 1_555
Cr5 S23 2.430736 1_555
Cr5 S1 2.431477 1_565
Cr5 S13 2.486330 1_565
Cr5 S9 3.124819 1_555
Cr6 S26 2.384831 1_555
Cr6 S20 2.400096 1_555
Cr6 S16 2.454370 1_545
Cr6 S2 2.459137 1_545
Cr6 S10 2.510903 1_555
Cr6 S14 2.921807 1_545
Cr7 S7 2.460080 1_555
Cr7 S21 2.464196 1_555
Cr7 S17 2.490544 1_565
Cr7 S15 2.511484 1_565
Cr7 S11 2.538493 1_554
Cr7 S3 2.795602 1_564
Ag0 S5 2.476989 1_455
Ag0 S24 2.502396 1_555
Ag0 S20 2.564547 1_555
Ag0 S13 2.771781 1_455
Ag0 S28 2.875198 1_555
Ag1 S21 2.553752 1_555
Ag1 S12 2.671497 1_655
Ag1 S4 2.686609 1_655
Ag1 S29 2.727633 1_555
Ag1 S25 2.844054 1_555
Ag1 S9 2.962468 1_555
Ag2 S22 2.546437 1_555
Ag2 S15 2.610233 1_555
Ag2 S7 2.625861 1_555
Ag2 S30 2.686170 1_555
Ag2 S26 2.869043 1_555
Ag3 S6 2.504619 1_555
Ag3 S14 2.586565 1_555
Ag3 S27 2.599983 1_555
Ag3 S23 2.657616 1_555
Ag3 S31 2.846406 1_555
Ag4 S26 2.604301 1_565
Ag4 S30 2.628845 1_555
Ag4 S9 2.649550 1_455
Ag4 S1 2.657434 1_465
Ag4 S12 2.708925 1_555
Ag4 S16 2.869387 1_555
Ag5 S31 2.551875 1_555
Ag5 S0 2.636900 1_645
Ag5 S27 2.654255 1_545
Ag5 S8 2.713209 1_655
Ag5 S13 2.906442 1_555
Ag5 S17 3.049822 1_556
Ag6 S28 2.543026 1_555
Ag6 S3 2.643140 1_565
Ag6 S24 2.646716 1_565
Ag6 S14 2.668067 1_555
Ag6 S11 2.933134 1_555
Ag6 S18 3.122505 1_556
Ag7 S15 2.573414 1_555
Ag7 S29 2.579128 1_555
Ag7 S25 2.644474 1_545
Ag7 S2 2.725623 1_545
Ag7 S10 2.901022 1_555
Ag7 S19 3.049584 1_555
S0 Zr4 2.522308 1_455
S0 Zr0 2.671014 1_555
S1 Zr7 2.653610 1_555
S1 Zr1 2.680746 1_555
S2 Zr2 2.687787 1_555
S2 Zr6 2.769520 1_555
S3 Zr5 2.573751 1_555
S3 Zr3 2.685033 1_555
S4 Zr1 2.542135 1_455
S5 Zr4 2.644764 1_555
S5 Zr7 2.695540 1_555
S5 Zr0 2.841887 1_655
S6 Zr5 2.478235 1_555
S6 Zr3 2.615894 1_555
S7 Zr2 2.572774 1_555
S7 Zr6 2.607614 1_555
S8 Zr4 2.530259 1_455
S9 Zr7 2.499228 1_555
S10 Zr6 2.506840 1_555
S11 Zr5 2.502052 1_555
S12 Zr1 2.426409 1_465
S13 Zr0 2.525837 1_645
S13 Zr7 2.797493 1_555
S14 Zr3 2.403226 1_565
S15 Zr2 2.433998 1_545
S16 Zr0 2.583565 1_555
S17 Zr1 2.561778 1_555
S18 Zr2 2.564648 1_555
S19 Zr7 2.660561 1_555
S19 Zr3 2.668820 1_555
S21 Zr4 2.632679 1_554
S22 Zr5 2.657621 1_554
S23 Zr6 2.576300 1_555
S23 Zr7 2.603606 1_555
S24 Zr0 2.420867 1_545
S24 Zr5 2.746369 1_555
S25 Zr1 2.631703 1_565
S25 Zr6 2.699298 1_555
S26 Zr2 2.628020 1_545
S27 Zr3 2.484302 1_565
S27 Zr4 2.640021 1_555
S28 Zr5 2.641027 1_555
S28 Zr0 2.759567 1_555
S29 Zr6 2.428997 1_555
S29 Zr1 2.794987 1_555
S29 Zr7 2.953577 1_555
S30 Zr2 2.815390 1_555
S31 Zr4 2.568092 1_555
S31 Zr3 2.786839 1_555
