# generated using pymatgen
data_Mg14CdFe
_symmetry_space_group_name_H-M   'P 1'
_cell_length_a   6.27371744
_cell_length_b   6.30192667
_cell_length_c   9.90325201
_cell_angle_alpha   90.00000000
_cell_angle_beta   90.00000000
_cell_angle_gamma   120.14885718
_symmetry_Int_Tables_number   1
_chemical_formula_structural   Mg14CdFe
_chemical_formula_sum   'Mg14 Cd1 Fe1'
_cell_volume   338.57381882
_cell_formula_units_Z   1
loop_
 _symmetry_equiv_pos_site_id
 _symmetry_equiv_pos_as_xyz
  1  'x, y, z'
loop_
 _atom_site_type_symbol
 _atom_site_label
 _atom_site_symmetry_multiplicity
 _atom_site_fract_x
 _atom_site_fract_y
 _atom_site_fract_z
 _atom_site_occupancy
  Mg  Mg0  1  0.16781299  0.33390599  0.62500000  1
  Mg  Mg1  1  0.17105264  0.83552582  0.62500000  1
  Mg  Mg2  1  0.67224672  0.33713892  0.12500000  1
  Mg  Mg3  1  0.66484275  0.32967015  0.62500000  1
  Mg  Mg4  1  0.67224672  0.83510680  0.12500000  1
  Mg  Mg5  1  0.66484275  0.83517159  0.62500000  1
  Mg  Mg6  1  0.32474134  0.17317816  0.35888253  1
  Mg  Mg7  1  0.32474134  0.17317816  0.89111747  1
  Mg  Mg8  1  0.32474134  0.65156418  0.35888253  1
  Mg  Mg9  1  0.32474134  0.65156418  0.89111747  1
  Mg  Mg10  1  0.84700621  0.17350360  0.36339442  1
  Mg  Mg11  1  0.84700621  0.17350360  0.88660558  1
  Mg  Mg12  1  0.83282958  0.66641529  0.37730141  1
  Mg  Mg13  1  0.83282958  0.66641529  0.87269859  1
  Cd  Cd0  1  0.16253414  0.83126657  0.12500000  1
  Fe  Fe0  1  0.16578436  0.33289168  0.12500000  1
loop_
_geom_bond_atom_site_label_1
_geom_bond_atom_site_label_2
_geom_bond_distance
_geom_bond_site_symmetry_2
Mg0 Mg10 3.121043 1_455
Mg0 Mg11 3.121043 1_455
Mg0 Mg5 3.131716 1_555
Mg0 Mg3 3.131716 1_555
Mg0 Mg5 3.142171 1_445
Mg0 Mg3 3.142171 1_455
Mg0 Mg1 3.151012 1_545
Mg0 Mg1 3.151012 1_555
Mg0 Mg6 3.153162 1_555
Mg0 Mg7 3.153162 1_555
Mg0 Mg9 3.153168 1_555
Mg0 Mg8 3.153168 1_555
Mg1 Mg12 3.063342 1_455
Mg1 Mg13 3.063342 1_455
Mg1 Mg3 3.099021 1_565
Mg1 Mg5 3.099021 1_555
Mg1 Mg3 3.174697 1_455
Mg1 Mg5 3.174697 1_455
Mg1 Mg8 3.215899 1_555
Mg1 Mg9 3.215899 1_555
Mg1 Mg6 3.215905 1_565
Mg1 Mg7 3.215905 1_565
Mg2 Mg7 2.987082 1_554
Mg2 Mg6 2.987082 1_555
Mg2 Mg4 3.138157 1_555
Mg2 Mg4 3.163770 1_545
Mg3 Mg5 3.116294 1_545
Mg3 Mg5 3.185633 1_555
Mg3 Mg6 3.218234 1_555
Mg3 Mg7 3.218234 1_555
Mg4 Mg8 2.987082 1_555
Mg4 Mg9 2.987082 1_554
Mg5 Mg8 3.218234 1_555
Mg5 Mg9 3.218234 1_555
Mg6 Mg8 3.014754 1_555
Mg6 Mg8 3.287173 1_545
Mg7 Mg9 3.014754 1_555
Mg7 Mg9 3.287173 1_545
Mg10 Mg2 2.995821 1_555
Mg10 Mg4 2.995827 1_545
Mg10 Mg8 2.998539 1_655
Mg10 Mg6 2.998539 1_655
Mg10 Mg12 3.154909 1_545
Mg10 Mg12 3.154909 1_555
Mg10 Mg3 3.180627 1_555
Mg10 Mg5 3.180633 1_545
Mg10 Mg8 3.275817 1_545
Mg10 Mg6 3.275817 1_555
Mg11 Mg2 2.995821 1_556
Mg11 Mg4 2.995827 1_546
Mg11 Mg9 2.998539 1_655
Mg11 Mg7 2.998539 1_655
Mg11 Mg13 3.154909 1_545
Mg11 Mg13 3.154909 1_555
Mg11 Mg3 3.180627 1_555
Mg11 Mg5 3.180633 1_545
Mg11 Mg9 3.275817 1_545
Mg11 Mg7 3.275817 1_555
Mg12 Mg5 3.063477 1_555
Mg12 Mg3 3.063483 1_555
Mg12 Mg4 3.076352 1_555
Mg12 Mg2 3.076359 1_555
Mg12 Mg6 3.139469 1_665
Mg12 Mg8 3.139470 1_655
Mg12 Mg6 3.146930 1_555
Mg12 Mg8 3.146930 1_555
Mg13 Mg5 3.063477 1_555
Mg13 Mg3 3.063483 1_555
Mg13 Mg4 3.076352 1_556
Mg13 Mg2 3.076359 1_556
Mg13 Mg7 3.139469 1_665
Mg13 Mg9 3.139470 1_655
Mg13 Mg7 3.146930 1_555
Mg13 Mg9 3.146930 1_555
Cd0 Mg9 2.973296 1_554
Cd0 Mg8 2.973296 1_555
Cd0 Mg7 2.973303 1_564
Cd0 Mg6 2.973303 1_565
Cd0 Mg13 3.072836 1_454
Cd0 Mg12 3.072836 1_455
Cd0 Mg2 3.088150 1_455
Cd0 Mg4 3.088150 1_455
Cd0 Fe0 3.151013 1_565
Cd0 Fe0 3.151013 1_555
Cd0 Mg2 3.185706 1_565
Cd0 Mg4 3.185707 1_555
Fe0 Mg7 2.894923 1_554
Fe0 Mg6 2.894923 1_555
Fe0 Mg9 2.894929 1_554
Fe0 Mg8 2.894929 1_555
Fe0 Mg10 2.926519 1_455
Fe0 Mg11 2.926519 1_454
Fe0 Mg4 3.109845 1_445
Fe0 Mg2 3.109845 1_455
Fe0 Mg4 3.164043 1_555
Fe0 Mg2 3.164043 1_555
