# generated using pymatgen
data_K7Be12(PO4)12
_symmetry_space_group_name_H-M   'P 1'
_cell_length_a   11.70845388
_cell_length_b   11.70845388
_cell_length_c   11.70845388
_cell_angle_alpha   109.47122063
_cell_angle_beta   109.47122063
_cell_angle_gamma   109.47122063
_symmetry_Int_Tables_number   1
_chemical_formula_structural   K7Be12(PO4)12
_chemical_formula_sum   'K7 Be12 P12 O48'
_cell_volume   1235.59675227
_cell_formula_units_Z   1
loop_
 _symmetry_equiv_pos_site_id
 _symmetry_equiv_pos_as_xyz
  1  'x, y, z'
loop_
 _atom_site_type_symbol
 _atom_site_label
 _atom_site_symmetry_multiplicity
 _atom_site_fract_x
 _atom_site_fract_y
 _atom_site_fract_z
 _atom_site_occupancy
  K  K0  1  0.00000000  0.50000000  0.50000000  1
  K  K1  1  0.50000000  0.50000000  0.00000000  1
  K  K2  1  0.50000000  0.00000000  0.50000000  1
  K  K3  1  0.61384600  0.61384600  0.61384600  1
  K  K4  1  0.00000000  0.38615400  0.00000000  1
  K  K5  1  0.38615400  0.00000000  0.00000000  1
  K  K6  1  0.00000000  0.00000000  0.38615400  1
  Be  Be0  1  0.69848600  0.84751000  0.41114200  1
  Be  Be1  1  0.84751000  0.41114200  0.69848600  1
  Be  Be2  1  0.41114200  0.69848600  0.84751000  1
  Be  Be3  1  0.56363200  0.15249000  0.85097600  1
  Be  Be4  1  0.28734400  0.58885800  0.43636800  1
  Be  Be5  1  0.14902400  0.30151400  0.71265600  1
  Be  Be6  1  0.30151400  0.71265600  0.14902400  1
  Be  Be7  1  0.15249000  0.85097600  0.56363200  1
  Be  Be8  1  0.58885800  0.43636800  0.28734400  1
  Be  Be9  1  0.43636800  0.28734400  0.58885800  1
  Be  Be10  1  0.71265600  0.14902400  0.30151400  1
  Be  Be11  1  0.85097600  0.56363200  0.15249000  1
  P  P0  1  0.43311200  0.58311000  0.28158800  1
  P  P1  1  0.58311000  0.28158800  0.43311200  1
  P  P2  1  0.28158800  0.43311200  0.58311000  1
  P  P3  1  0.69847800  0.41689000  0.85000200  1
  P  P4  1  0.15152400  0.71841200  0.30152200  1
  P  P5  1  0.14999800  0.56688800  0.84847600  1
  P  P6  1  0.56688800  0.84847600  0.14999800  1
  P  P7  1  0.41689000  0.85000200  0.69847800  1
  P  P8  1  0.71841200  0.30152200  0.15152400  1
  P  P9  1  0.30152200  0.15152400  0.71841200  1
  P  P10  1  0.84847600  0.14999800  0.56688800  1
  P  P11  1  0.85000200  0.69847800  0.41689000  1
  O  O0  1  0.32979100  0.58724700  0.16155500  1
  O  O1  1  0.58724700  0.16155500  0.32979100  1
  O  O2  1  0.16155500  0.32979100  0.58724700  1
  O  O3  1  0.57430700  0.41275300  0.74254400  1
  O  O4  1  0.16823700  0.83844500  0.42569300  1
  O  O5  1  0.25745600  0.67020900  0.83176300  1
  O  O6  1  0.67020900  0.83176300  0.25745600  1
  O  O7  1  0.41275300  0.74254400  0.57430700  1
  O  O8  1  0.83844500  0.42569300  0.16823700  1
  O  O9  1  0.42569300  0.16823700  0.83844500  1
  O  O10  1  0.83176300  0.25745600  0.67020900  1
  O  O11  1  0.74254400  0.57430700  0.41275300  1
  O  O12  1  0.48198100  0.48445300  0.21708800  1
  O  O13  1  0.48445300  0.21708800  0.48198100  1
  O  O14  1  0.21708800  0.48198100  0.48445300  1
  O  O15  1  0.73263500  0.51554700  0.99752800  1
  O  O16  1  0.26489300  0.78291200  0.26736500  1
  O  O17  1  0.00247200  0.51801900  0.73510700  1
  O  O18  1  0.51801900  0.73510700  0.00247200  1
  O  O19  1  0.51554700  0.99752800  0.73263500  1
  O  O20  1  0.78291200  0.26736500  0.26489300  1
  O  O21  1  0.26736500  0.26489300  0.78291200  1
  O  O22  1  0.73510700  0.00247200  0.51801900  1
  O  O23  1  0.99752800  0.73263500  0.51554700  1
  O  O24  1  0.35942600  0.52751500  0.35423900  1
  O  O25  1  0.52751500  0.35423900  0.35942600  1
  O  O26  1  0.35423900  0.35942600  0.52751500  1
  O  O27  1  0.82672400  0.47248500  0.83191100  1
  O  O28  1  0.00518700  0.64576100  0.17327600  1
  O  O29  1  0.16808900  0.64057400  0.99481300  1
  O  O30  1  0.64057400  0.99481300  0.16808900  1
  O  O31  1  0.47248500  0.83191100  0.82672400  1
  O  O32  1  0.64576100  0.17327600  0.00518700  1
  O  O33  1  0.17327600  0.00518700  0.64576100  1
  O  O34  1  0.99481300  0.16808900  0.64057400  1
  O  O35  1  0.83191100  0.82672400  0.47248500  1
  O  O36  1  0.56029700  0.73117100  0.39337800  1
  O  O37  1  0.73117100  0.39337800  0.56029700  1
  O  O38  1  0.39337800  0.56029700  0.73117100  1
  O  O39  1  0.66220800  0.26882900  0.82912600  1
  O  O40  1  0.16691900  0.60662200  0.33779200  1
  O  O41  1  0.17087400  0.43970300  0.83308100  1
  O  O42  1  0.43970300  0.83308100  0.17087400  1
  O  O43  1  0.26882900  0.82912600  0.66220800  1
  O  O44  1  0.60662200  0.33779200  0.16691900  1
  O  O45  1  0.33779200  0.16691900  0.60662200  1
  O  O46  1  0.83308100  0.17087400  0.43970300  1
  O  O47  1  0.82912600  0.66220800  0.26882900  1
loop_
_geom_bond_atom_site_label_1
_geom_bond_atom_site_label_2
_geom_bond_distance
_geom_bond_site_symmetry_2
K0 O23 2.679284 1_455
K0 O17 2.679284 1_555
K0 O14 2.679284 1_555
K0 O20 2.679284 1_455
K1 O15 2.679284 1_554
K1 O18 2.679284 1_555
K1 O12 2.679284 1_555
K1 O21 2.679284 1_554
K2 O19 2.679284 1_545
K2 O22 2.679284 1_555
K2 O13 2.679284 1_555
K2 O16 2.679284 1_545
K3 O24 3.007073 1_555
K3 O26 3.007073 1_555
K3 O25 3.007073 1_555
K3 O3 3.183109 1_555
K3 O7 3.183109 1_555
K3 O11 3.183109 1_555
K3 O37 3.286739 1_555
K3 O38 3.286739 1_555
K3 O36 3.286739 1_555
K4 O28 3.007073 1_555
K4 O29 3.007073 1_554
K4 O27 3.007073 1_454
K4 O0 3.183108 1_555
K4 O10 3.183109 1_454
K4 O8 3.183119 1_455
K4 O39 3.286729 1_454
K4 O40 3.286730 1_555
K4 O41 3.286739 1_554
K5 O32 3.007073 1_555
K5 O30 3.007073 1_545
K5 O31 3.007073 1_544
K5 O1 3.183108 1_555
K5 O5 3.183109 1_544
K5 O9 3.183119 1_554
K5 O43 3.286729 1_544
K5 O44 3.286730 1_555
K5 O42 3.286739 1_545
K6 O33 3.007073 1_555
K6 O34 3.007073 1_455
K6 O35 3.007073 1_445
K6 O2 3.183108 1_555
K6 O6 3.183109 1_445
K6 O4 3.183119 1_545
K6 O47 3.286729 1_445
K6 O45 3.286730 1_555
K6 O46 3.286739 1_455
Be0 O36 1.622979 1_555
Be0 O35 1.624050 1_555
Be0 O22 1.628411 1_565
Be0 O6 1.649999 1_555
Be1 O37 1.622979 1_555
Be1 O27 1.624050 1_555
Be1 O17 1.628411 1_655
Be1 O10 1.649999 1_555
Be2 O38 1.622979 1_555
Be2 O31 1.624050 1_555
Be2 O18 1.628411 1_556
Be2 O5 1.649999 1_555
Be3 O39 1.622984 1_555
Be3 O32 1.624050 1_556
Be3 O19 1.628411 1_545
Be3 O9 1.649997 1_555
Be4 O40 1.622984 1_555
Be4 O24 1.624050 1_555
Be4 O14 1.628411 1_555
Be4 O7 1.649999 1_555
Be5 O41 1.622979 1_555
Be5 O34 1.624050 1_455
Be5 O21 1.628411 1_555
Be5 O2 1.650003 1_555
Be6 O42 1.622979 1_555
Be6 O29 1.624050 1_554
Be6 O16 1.628411 1_555
Be6 O0 1.650003 1_555
Be7 O43 1.622984 1_555
Be7 O33 1.624050 1_565
Be7 O23 1.628411 1_455
Be7 O4 1.649997 1_555
Be8 O44 1.622984 1_555
Be8 O25 1.624050 1_555
Be8 O12 1.628411 1_555
Be8 O11 1.649999 1_555
Be9 O45 1.622984 1_555
Be9 O26 1.624050 1_555
Be9 O13 1.628411 1_555
Be9 O3 1.649999 1_555
Be10 O46 1.622979 1_555
Be10 O30 1.624050 1_545
Be10 O20 1.628411 1_555
Be10 O1 1.650003 1_555
Be11 O47 1.622984 1_555
Be11 O28 1.624050 1_655
Be11 O15 1.628411 1_554
Be11 O8 1.649997 1_555
O0 P0 1.546594 1_555
O1 P1 1.546594 1_555
O2 P2 1.546594 1_555
O3 P3 1.546602 1_555
O4 P4 1.546595 1_555
O5 P5 1.546602 1_555
O6 P6 1.546602 1_555
O7 P7 1.546602 1_555
O8 P8 1.546595 1_555
O9 P9 1.546595 1_555
O10 P10 1.546602 1_555
O11 P11 1.546602 1_555
O12 P0 1.542450 1_555
O13 P1 1.542450 1_555
O14 P2 1.542450 1_555
O15 P3 1.542450 1_555
O16 P4 1.542450 1_555
O17 P5 1.542450 1_555
O18 P6 1.542450 1_555
O19 P7 1.542450 1_555
O20 P8 1.542450 1_555
O21 P9 1.542450 1_555
O22 P10 1.542450 1_555
O23 P11 1.542450 1_555
O24 P0 1.541303 1_555
O25 P1 1.541303 1_555
O26 P2 1.541303 1_555
O27 P3 1.541303 1_555
O28 P4 1.541303 1_555
O29 P5 1.541303 1_555
O30 P6 1.541303 1_555
O31 P7 1.541303 1_555
O32 P8 1.541303 1_555
O33 P9 1.541303 1_555
O34 P10 1.541303 1_555
O35 P11 1.541303 1_555
O36 P0 1.550114 1_555
O37 P1 1.550114 1_555
O38 P2 1.550114 1_555
O39 P3 1.550116 1_555
O40 P4 1.550108 1_555
O41 P5 1.550114 1_555
O42 P6 1.550114 1_555
O43 P7 1.550116 1_555
O44 P8 1.550108 1_555
O45 P9 1.550108 1_555
O46 P10 1.550114 1_555
O47 P11 1.550116 1_555
