# generated using pymatgen
data_Li2P(H2O3)2
_symmetry_space_group_name_H-M   'P 1'
_cell_length_a   8.00328800
_cell_length_b   5.24913400
_cell_length_c   13.90770548
_cell_angle_alpha   90.00000000
_cell_angle_beta   116.12054743
_cell_angle_gamma   90.00000000
_symmetry_Int_Tables_number   1
_chemical_formula_structural   Li2P(H2O3)2
_chemical_formula_sum   'Li8 P4 H16 O24'
_cell_volume   524.59594428
_cell_formula_units_Z   4
loop_
 _symmetry_equiv_pos_site_id
 _symmetry_equiv_pos_as_xyz
  1  'x, y, z'
loop_
 _atom_site_type_symbol
 _atom_site_label
 _atom_site_symmetry_multiplicity
 _atom_site_fract_x
 _atom_site_fract_y
 _atom_site_fract_z
 _atom_site_occupancy
  Li  Li0  1  0.99087600  0.44162900  0.67595200  1
  Li  Li1  1  0.99087600  0.05837100  0.17595200  1
  Li  Li2  1  0.00912400  0.55837100  0.32404800  1
  Li  Li3  1  0.00912400  0.94162900  0.82404800  1
  Li  Li4  1  0.39456800  0.44886800  0.75432600  1
  Li  Li5  1  0.39456800  0.05113200  0.25432600  1
  Li  Li6  1  0.60543200  0.55113200  0.24567400  1
  Li  Li7  1  0.60543200  0.94886800  0.74567400  1
  P  P0  1  0.82484700  0.45843100  0.84249100  1
  P  P1  1  0.82484700  0.04156900  0.34249100  1
  P  P2  1  0.17515300  0.54156900  0.15750900  1
  P  P3  1  0.17515300  0.95843100  0.65750900  1
  H  H0  1  0.24786100  0.47316300  0.89364600  1
  H  H1  1  0.24786100  0.02683700  0.39364600  1
  H  H2  1  0.75213900  0.52683700  0.10635400  1
  H  H3  1  0.75213900  0.97316300  0.60635400  1
  H  H4  1  0.45634300  0.36045100  0.95481100  1
  H  H5  1  0.45634300  0.13954900  0.45481100  1
  H  H6  1  0.54365700  0.63954900  0.04518900  1
  H  H7  1  0.54365700  0.86045100  0.54518900  1
  H  H8  1  0.21575800  0.92844400  0.02808600  1
  H  H9  1  0.21575800  0.57155600  0.52808600  1
  H  H10  1  0.78424200  0.07155600  0.97191400  1
  H  H11  1  0.78424200  0.42844400  0.47191400  1
  H  H12  1  0.30582800  0.09115300  0.96893000  1
  H  H13  1  0.30582800  0.40884700  0.46893000  1
  H  H14  1  0.69417200  0.90884700  0.03107000  1
  H  H15  1  0.69417200  0.59115300  0.53107000  1
  O  O0  1  0.09686700  0.44565500  0.03100300  1
  O  O1  1  0.09686700  0.05434500  0.53100300  1
  O  O2  1  0.90313300  0.55434500  0.96899700  1
  O  O3  1  0.90313300  0.94565500  0.46899700  1
  O  O4  1  0.81502600  0.16548900  0.84159300  1
  O  O5  1  0.81502600  0.33451100  0.34159300  1
  O  O6  1  0.18497400  0.83451100  0.15840700  1
  O  O7  1  0.18497400  0.66548900  0.65840700  1
  O  O8  1  0.63725100  0.59343400  0.79756600  1
  O  O9  1  0.63725100  0.90656600  0.29756600  1
  O  O10  1  0.36274900  0.40656600  0.20243400  1
  O  O11  1  0.36274900  0.09343400  0.70243400  1
  O  O12  1  0.95992600  0.56214600  0.80123000  1
  O  O13  1  0.95992600  0.93785400  0.30123000  1
  O  O14  1  0.04007400  0.43785400  0.19877000  1
  O  O15  1  0.04007400  0.06214600  0.69877000  1
  O  O16  1  0.36222200  0.42857600  0.88762400  1
  O  O17  1  0.36222200  0.07142400  0.38762400  1
  O  O18  1  0.63777800  0.57142400  0.11237600  1
  O  O19  1  0.63777800  0.92857600  0.61237600  1
  O  O20  1  0.24361600  0.92994700  0.96554000  1
  O  O21  1  0.24361600  0.57005300  0.46554000  1
  O  O22  1  0.75638400  0.07005300  0.03446000  1
  O  O23  1  0.75638400  0.42994700  0.53446000  1
loop_
_geom_bond_atom_site_label_1
_geom_bond_atom_site_label_2
_geom_bond_distance
_geom_bond_site_symmetry_2
Li0 O12 1.969080 1_555
Li0 O15 2.028204 1_655
Li0 O23 2.036256 1_555
Li0 O7 2.046269 1_655
Li1 O13 1.969080 1_545
Li1 O14 2.028204 1_655
Li1 O22 2.036256 1_555
Li1 O6 2.046269 1_645
Li2 O14 1.969080 1_555
Li2 O13 2.028204 1_455
Li2 O21 2.036256 1_555
Li2 O5 2.046269 1_455
Li3 O15 1.969080 1_565
Li3 O12 2.028204 1_455
Li3 O20 2.036256 1_555
Li3 O4 2.046269 1_465
Li4 O8 1.918700 1_555
Li4 O11 1.976053 1_555
Li4 O7 1.978880 1_555
Li4 O16 1.984382 1_555
Li5 O9 1.918700 1_545
Li5 O10 1.976053 1_555
Li5 O6 1.978880 1_545
Li5 O17 1.984382 1_555
Li6 O10 1.918700 1_555
Li6 O9 1.976053 1_555
Li6 O5 1.978880 1_555
Li6 O18 1.984382 1_555
Li7 O11 1.918700 1_565
Li7 O8 1.976053 1_555
Li7 O4 1.978880 1_565
Li7 O19 1.984382 1_555
H0 O16 0.983359 1_555
H1 O17 0.983359 1_555
H2 O18 0.983359 1_555
H3 O19 0.983359 1_555
H4 O16 0.973992 1_555
H5 O17 0.973992 1_555
H6 O18 0.973992 1_555
H7 O19 0.973992 1_555
H8 O20 0.988544 1_554
H9 O21 0.988544 1_555
H10 O22 0.988544 1_556
H11 O23 0.988544 1_555
H12 O20 0.972368 1_545
H13 O21 0.972368 1_555
H14 O22 0.972368 1_565
H15 O23 0.972368 1_555
O0 P2 1.664605 1_555
O1 P3 1.664605 1_545
O2 P0 1.664605 1_555
O3 P1 1.664605 1_565
O4 P0 1.539469 1_555
O5 P1 1.539469 1_555
O6 P2 1.539469 1_555
O7 P3 1.539469 1_555
O8 P0 1.523393 1_555
O9 P1 1.523393 1_565
O10 P2 1.523393 1_555
O11 P3 1.523393 1_545
O12 P0 1.529922 1_555
O13 P1 1.529922 1_565
O14 P2 1.529922 1_555
O15 P3 1.529922 1_545
