# generated using pymatgen
data_Ca
_symmetry_space_group_name_H-M   'P 1'
_cell_length_a   7.91511084
_cell_length_b   7.91510829
_cell_length_c   25.73884208
_cell_angle_alpha   90.00000000
_cell_angle_beta   90.00000000
_cell_angle_gamma   119.99998352
_symmetry_Int_Tables_number   1
_chemical_formula_structural   Ca
_chemical_formula_sum   Ca32
_cell_volume   1396.47630451
_cell_formula_units_Z   32
loop_
 _symmetry_equiv_pos_site_id
 _symmetry_equiv_pos_as_xyz
  1  'x, y, z'
loop_
 _atom_site_type_symbol
 _atom_site_label
 _atom_site_symmetry_multiplicity
 _atom_site_fract_x
 _atom_site_fract_y
 _atom_site_fract_z
 _atom_site_occupancy
  Ca  Ca0_0  1  0.00000000  0.00000000  0.00000000  1
  Ca  Ca0_1  1  0.00000000  0.00000000  0.50000000  1
  Ca  Ca0_2  1  0.00000000  0.50000000  0.00000000  1
  Ca  Ca0_3  1  0.00000000  0.50000000  0.50000000  1
  Ca  Ca0_4  1  0.50000000  0.00000000  0.00000000  1
  Ca  Ca0_5  1  0.50000000  0.00000000  0.50000000  1
  Ca  Ca0_6  1  0.50000000  0.50000000  0.00000000  1
  Ca  Ca0_7  1  0.50000000  0.50000000  0.50000000  1
  Ca  Ca1_0  1  0.16666650  0.33333350  0.12499530  1
  Ca  Ca1_1  1  0.16666650  0.33333350  0.62499530  1
  Ca  Ca1_2  1  0.16666650  0.83333350  0.12499530  1
  Ca  Ca1_3  1  0.16666650  0.83333350  0.62499530  1
  Ca  Ca1_4  1  0.66666650  0.33333350  0.12499530  1
  Ca  Ca1_5  1  0.66666650  0.33333350  0.62499530  1
  Ca  Ca1_6  1  0.66666650  0.83333350  0.12499530  1
  Ca  Ca1_7  1  0.66666650  0.83333350  0.62499530  1
  Ca  Ca2_0  1  0.00000000  0.00000000  0.25000000  1
  Ca  Ca2_1  1  0.00000000  0.00000000  0.75000000  1
  Ca  Ca2_2  1  0.00000000  0.50000000  0.25000000  1
  Ca  Ca2_3  1  0.00000000  0.50000000  0.75000000  1
  Ca  Ca2_4  1  0.50000000  0.00000000  0.25000000  1
  Ca  Ca2_5  1  0.50000000  0.00000000  0.75000000  1
  Ca  Ca2_6  1  0.50000000  0.50000000  0.25000000  1
  Ca  Ca2_7  1  0.50000000  0.50000000  0.75000000  1
  Ca  Ca3_0  1  0.33333300  0.16666600  0.37500471  1
  Ca  Ca3_1  1  0.33333300  0.16666600  0.87500471  1
  Ca  Ca3_2  1  0.33333300  0.66666600  0.37500471  1
  Ca  Ca3_3  1  0.33333300  0.66666600  0.87500471  1
  Ca  Ca3_4  1  0.83333300  0.16666600  0.37500471  1
  Ca  Ca3_5  1  0.83333300  0.16666600  0.87500471  1
  Ca  Ca3_6  1  0.83333300  0.66666600  0.37500471  1
  Ca  Ca3_7  1  0.83333300  0.66666600  0.87500471  1
loop_
_geom_bond_atom_site_label_1
_geom_bond_atom_site_label_2
_geom_bond_distance
_geom_bond_site_symmetry_2
Ca0_0 Ca1_2 3.946053 1_545
Ca0_0 Ca3_5 3.946053 1_454
Ca0_0 Ca3_1 3.946053 1_554
Ca0_0 Ca1_0 3.946055 1_555
Ca0_0 Ca1_6 3.946055 1_445
Ca0_0 Ca3_7 3.946057 1_444
Ca0_0 Ca0_2 3.957554 1_545
Ca0_0 Ca0_2 3.957554 1_555
Ca0_0 Ca0_4 3.957555 1_555
Ca0_0 Ca0_4 3.957555 1_455
Ca0_0 Ca0_6 3.957556 1_555
Ca0_0 Ca0_6 3.957556 1_445
Ca0_1 Ca1_3 3.946053 1_545
Ca0_1 Ca3_4 3.946053 1_455
Ca0_1 Ca3_0 3.946053 1_555
Ca0_1 Ca1_1 3.946055 1_555
Ca0_1 Ca1_7 3.946055 1_445
Ca0_1 Ca3_6 3.946057 1_445
Ca0_1 Ca0_3 3.957554 1_555
Ca0_1 Ca0_3 3.957554 1_545
Ca0_1 Ca0_5 3.957555 1_455
Ca0_1 Ca0_5 3.957555 1_555
Ca0_1 Ca0_7 3.957556 1_445
Ca0_1 Ca0_7 3.957556 1_555
Ca0_2 Ca1_0 3.946053 1_555
Ca0_2 Ca3_7 3.946053 1_454
Ca0_2 Ca3_3 3.946053 1_554
Ca0_2 Ca1_2 3.946055 1_555
Ca0_2 Ca1_4 3.946055 1_455
Ca0_2 Ca3_5 3.946057 1_454
Ca0_2 Ca0_6 3.957555 1_455
Ca0_2 Ca0_6 3.957555 1_555
Ca0_2 Ca0_4 3.957556 1_455
Ca0_2 Ca0_4 3.957556 1_565
Ca0_3 Ca1_1 3.946053 1_555
Ca0_3 Ca3_6 3.946053 1_455
Ca0_3 Ca3_2 3.946053 1_555
Ca0_3 Ca1_3 3.946055 1_555
Ca0_3 Ca1_5 3.946055 1_455
Ca0_3 Ca3_4 3.946057 1_455
Ca0_3 Ca0_7 3.957555 1_555
Ca0_3 Ca0_7 3.957555 1_455
Ca0_3 Ca0_5 3.957556 1_565
Ca0_3 Ca0_5 3.957556 1_455
Ca0_4 Ca1_6 3.946053 1_545
Ca0_4 Ca3_1 3.946053 1_554
Ca0_4 Ca3_5 3.946053 1_554
Ca0_4 Ca1_4 3.946055 1_555
Ca0_4 Ca1_2 3.946055 1_545
Ca0_4 Ca3_3 3.946057 1_544
Ca0_4 Ca0_6 3.957554 1_555
Ca0_4 Ca0_6 3.957554 1_545
Ca0_5 Ca1_7 3.946053 1_545
Ca0_5 Ca3_0 3.946053 1_555
Ca0_5 Ca3_4 3.946053 1_555
Ca0_5 Ca1_5 3.946055 1_555
Ca0_5 Ca1_3 3.946055 1_545
Ca0_5 Ca3_2 3.946057 1_545
Ca0_5 Ca0_7 3.957554 1_555
Ca0_5 Ca0_7 3.957554 1_545
Ca0_6 Ca1_4 3.946053 1_555
Ca0_6 Ca3_3 3.946053 1_554
Ca0_6 Ca3_7 3.946053 1_554
Ca0_6 Ca1_6 3.946055 1_555
Ca0_6 Ca1_0 3.946055 1_555
Ca0_6 Ca3_1 3.946057 1_554
Ca0_7 Ca1_5 3.946053 1_555
Ca0_7 Ca3_2 3.946053 1_555
Ca0_7 Ca3_6 3.946053 1_555
Ca0_7 Ca1_7 3.946055 1_555
Ca0_7 Ca1_1 3.946055 1_555
Ca0_7 Ca3_0 3.946057 1_555
Ca1_0 Ca2_2 3.946250 1_555
Ca1_0 Ca2_0 3.946252 1_555
Ca1_0 Ca2_6 3.946253 1_555
Ca1_0 Ca1_2 3.957554 1_545
Ca1_0 Ca1_2 3.957554 1_555
Ca1_0 Ca1_4 3.957555 1_455
Ca1_0 Ca1_4 3.957555 1_555
Ca1_0 Ca1_6 3.957556 1_445
Ca1_0 Ca1_6 3.957556 1_555
Ca1_1 Ca2_3 3.946250 1_555
Ca1_1 Ca2_1 3.946252 1_555
Ca1_1 Ca2_7 3.946253 1_555
Ca1_1 Ca1_3 3.957554 1_545
Ca1_1 Ca1_3 3.957554 1_555
Ca1_1 Ca1_5 3.957555 1_455
Ca1_1 Ca1_5 3.957555 1_555
Ca1_1 Ca1_7 3.957556 1_445
Ca1_1 Ca1_7 3.957556 1_555
Ca1_2 Ca2_0 3.946250 1_565
Ca1_2 Ca2_2 3.946252 1_555
Ca1_2 Ca2_4 3.946253 1_565
Ca1_2 Ca1_6 3.957555 1_455
Ca1_2 Ca1_6 3.957555 1_555
Ca1_2 Ca1_4 3.957556 1_565
Ca1_2 Ca1_4 3.957556 1_455
Ca1_3 Ca2_1 3.946250 1_565
Ca1_3 Ca2_3 3.946252 1_555
Ca1_3 Ca2_5 3.946253 1_565
Ca1_3 Ca1_7 3.957555 1_455
Ca1_3 Ca1_7 3.957555 1_555
Ca1_3 Ca1_5 3.957556 1_565
Ca1_3 Ca1_5 3.957556 1_455
Ca1_4 Ca2_6 3.946250 1_555
Ca1_4 Ca2_4 3.946252 1_555
Ca1_4 Ca2_2 3.946253 1_655
Ca1_4 Ca1_6 3.957554 1_545
Ca1_4 Ca1_6 3.957554 1_555
Ca1_5 Ca2_7 3.946250 1_555
Ca1_5 Ca2_5 3.946252 1_555
Ca1_5 Ca2_3 3.946253 1_655
Ca1_5 Ca1_7 3.957554 1_555
Ca1_5 Ca1_7 3.957554 1_545
Ca1_6 Ca2_4 3.946250 1_565
Ca1_6 Ca2_6 3.946252 1_555
Ca1_6 Ca2_0 3.946253 1_665
Ca1_7 Ca2_5 3.946250 1_565
Ca1_7 Ca2_7 3.946252 1_555
Ca1_7 Ca2_1 3.946253 1_665
Ca2_0 Ca3_4 3.946250 1_455
Ca2_0 Ca3_0 3.946251 1_555
Ca2_0 Ca3_6 3.946254 1_445
Ca2_0 Ca2_2 3.957554 1_555
Ca2_0 Ca2_2 3.957554 1_545
Ca2_0 Ca2_4 3.957555 1_555
Ca2_0 Ca2_4 3.957555 1_455
Ca2_0 Ca2_6 3.957556 1_555
Ca2_0 Ca2_6 3.957556 1_445
Ca2_1 Ca3_5 3.946250 1_455
Ca2_1 Ca3_1 3.946251 1_555
Ca2_1 Ca3_7 3.946254 1_445
Ca2_1 Ca2_3 3.957554 1_555
Ca2_1 Ca2_3 3.957554 1_545
Ca2_1 Ca2_5 3.957555 1_555
Ca2_1 Ca2_5 3.957555 1_455
Ca2_1 Ca2_7 3.957556 1_555
Ca2_1 Ca2_7 3.957556 1_445
Ca2_2 Ca3_6 3.946250 1_455
Ca2_2 Ca3_2 3.946251 1_555
Ca2_2 Ca3_4 3.946254 1_455
Ca2_2 Ca2_6 3.957555 1_555
Ca2_2 Ca2_6 3.957555 1_455
Ca2_2 Ca2_4 3.957556 1_565
Ca2_2 Ca2_4 3.957556 1_455
Ca2_3 Ca3_7 3.946250 1_455
Ca2_3 Ca3_3 3.946251 1_555
Ca2_3 Ca3_5 3.946254 1_455
Ca2_3 Ca2_7 3.957555 1_555
Ca2_3 Ca2_7 3.957555 1_455
Ca2_3 Ca2_5 3.957556 1_565
Ca2_3 Ca2_5 3.957556 1_455
Ca2_4 Ca3_0 3.946250 1_555
Ca2_4 Ca3_4 3.946251 1_555
Ca2_4 Ca3_2 3.946254 1_545
Ca2_4 Ca2_6 3.957554 1_545
Ca2_4 Ca2_6 3.957554 1_555
Ca2_5 Ca3_1 3.946250 1_555
Ca2_5 Ca3_5 3.946251 1_555
Ca2_5 Ca3_3 3.946254 1_545
Ca2_5 Ca2_7 3.957554 1_545
Ca2_5 Ca2_7 3.957554 1_555
Ca2_6 Ca3_2 3.946250 1_555
Ca2_6 Ca3_6 3.946251 1_555
Ca2_6 Ca3_0 3.946254 1_555
Ca2_7 Ca3_3 3.946250 1_555
Ca2_7 Ca3_7 3.946251 1_555
Ca2_7 Ca3_1 3.946254 1_555
Ca3_0 Ca3_2 3.957554 1_545
Ca3_0 Ca3_2 3.957554 1_555
Ca3_0 Ca3_4 3.957555 1_555
Ca3_0 Ca3_4 3.957555 1_455
Ca3_0 Ca3_6 3.957556 1_445
Ca3_0 Ca3_6 3.957556 1_555
Ca3_1 Ca3_3 3.957554 1_545
Ca3_1 Ca3_3 3.957554 1_555
Ca3_1 Ca3_5 3.957555 1_555
Ca3_1 Ca3_5 3.957555 1_455
Ca3_1 Ca3_7 3.957556 1_445
Ca3_1 Ca3_7 3.957556 1_555
Ca3_2 Ca3_6 3.957555 1_455
Ca3_2 Ca3_6 3.957555 1_555
Ca3_2 Ca3_4 3.957556 1_565
Ca3_2 Ca3_4 3.957556 1_455
Ca3_3 Ca3_7 3.957555 1_455
Ca3_3 Ca3_7 3.957555 1_555
Ca3_3 Ca3_5 3.957556 1_565
Ca3_3 Ca3_5 3.957556 1_455
Ca3_4 Ca3_6 3.957554 1_555
Ca3_4 Ca3_6 3.957554 1_545
Ca3_5 Ca3_7 3.957554 1_555
Ca3_5 Ca3_7 3.957554 1_545
