# generated using pymatgen
data_Al3Tc2
_symmetry_space_group_name_H-M   'P 1'
_cell_length_a   4.35609481
_cell_length_b   4.35609481
_cell_length_c   5.12100100
_cell_angle_alpha   90.00000000
_cell_angle_beta   90.00000000
_cell_angle_gamma   120.00001229
_symmetry_Int_Tables_number   1
_chemical_formula_structural   Al3Tc2
_chemical_formula_sum   'Al3 Tc2'
_cell_volume   84.15503124
_cell_formula_units_Z   1
loop_
 _symmetry_equiv_pos_site_id
 _symmetry_equiv_pos_as_xyz
  1  'x, y, z'
loop_
 _atom_site_type_symbol
 _atom_site_label
 _atom_site_symmetry_multiplicity
 _atom_site_fract_x
 _atom_site_fract_y
 _atom_site_fract_z
 _atom_site_occupancy
  Al  Al0  1  0.00000000  0.00000000  0.00000000  1
  Al  Al1  1  0.66666700  0.33333300  0.60812000  1
  Al  Al2  1  0.33333300  0.66666700  0.39188000  1
  Tc  Tc0  1  0.66666700  0.33333300  0.10379900  1
  Tc  Tc1  1  0.33333300  0.66666700  0.89620100  1
loop_
_geom_bond_atom_site_label_1
_geom_bond_atom_site_label_2
_geom_bond_distance
_geom_bond_site_symmetry_2
Al0 Tc0 2.570550 1_455
Al0 Tc1 2.570550 1_544
Al0 Tc0 2.570553 1_555
Al0 Tc1 2.570553 1_554
Al0 Tc0 2.570553 1_445
Al0 Tc1 2.570553 1_444
Al1 Tc0 2.538373 1_556
Al1 Tc0 2.582628 1_555
Al1 Al2 2.747987 1_655
Al1 Al2 2.747987 1_545
Al1 Al2 2.747994 1_555
Al1 Tc1 2.915746 1_655
Al1 Tc1 2.915746 1_545
Al1 Tc1 2.915753 1_555
Al2 Tc1 2.538373 1_554
Al2 Tc1 2.582628 1_555
Al2 Tc0 2.915746 1_455
Al2 Tc0 2.915746 1_565
Al2 Tc0 2.915753 1_555
Tc0 Tc1 2.730453 1_654
Tc0 Tc1 2.730453 1_544
Tc0 Tc1 2.730461 1_554
