# generated using pymatgen
data_Mg6SiSb
_symmetry_space_group_name_H-M   'P 1'
_cell_length_a   5.15315400
_cell_length_b   6.31141600
_cell_length_c   10.80162000
_cell_angle_alpha   90.00000000
_cell_angle_beta   90.00000000
_cell_angle_gamma   90.00000000
_symmetry_Int_Tables_number   1
_chemical_formula_structural   Mg6SiSb
_chemical_formula_sum   'Mg12 Si2 Sb2'
_cell_volume   351.30863334
_cell_formula_units_Z   2
loop_
 _symmetry_equiv_pos_site_id
 _symmetry_equiv_pos_as_xyz
  1  'x, y, z'
loop_
 _atom_site_type_symbol
 _atom_site_label
 _atom_site_symmetry_multiplicity
 _atom_site_fract_x
 _atom_site_fract_y
 _atom_site_fract_z
 _atom_site_occupancy
  Mg  Mg0  1  0.00000000  0.24980400  0.58363400  1
  Mg  Mg1  1  0.00000000  0.75019600  0.58363400  1
  Mg  Mg2  1  0.50000000  0.25510700  0.41580500  1
  Mg  Mg3  1  0.50000000  0.74489300  0.41580500  1
  Mg  Mg4  1  0.50000000  0.00000000  0.66945400  1
  Mg  Mg5  1  0.50000000  0.00000000  0.16631700  1
  Mg  Mg6  1  0.00000000  0.74980400  0.08363400  1
  Mg  Mg7  1  0.00000000  0.25019600  0.08363400  1
  Mg  Mg8  1  0.50000000  0.75510700  0.91580500  1
  Mg  Mg9  1  0.50000000  0.24489300  0.91580500  1
  Mg  Mg10  1  0.50000000  0.50000000  0.16945400  1
  Mg  Mg11  1  0.50000000  0.50000000  0.66631700  1
  Si  Si0  1  0.00000000  0.00000000  0.83254700  1
  Si  Si1  1  0.00000000  0.50000000  0.33254700  1
  Sb  Sb0  1  0.00000000  0.00000000  0.33280700  1
  Sb  Sb1  1  0.00000000  0.50000000  0.83280700  1
loop_
_geom_bond_atom_site_label_1
_geom_bond_atom_site_label_2
_geom_bond_distance
_geom_bond_site_symmetry_2
Mg0 Si0 3.116831 1_555
Mg0 Sb1 3.120505 1_555
Mg0 Sb0 3.134682 1_555
Mg0 Si1 3.138354 1_555
Mg0 Mg2 3.150588 1_455
Mg0 Mg2 3.150588 1_555
Mg0 Mg11 3.151178 1_455
Mg0 Mg11 3.151178 1_555
Mg0 Mg1 3.153234 1_545
Mg0 Mg1 3.158182 1_555
Mg0 Mg4 3.159714 1_455
Mg0 Mg4 3.159714 1_555
Mg1 Si0 3.116831 1_565
Mg1 Sb1 3.120505 1_555
Mg1 Sb0 3.134682 1_565
Mg1 Si1 3.138354 1_555
Mg1 Mg3 3.150588 1_555
Mg1 Mg3 3.150588 1_455
Mg1 Mg11 3.151178 1_455
Mg1 Mg11 3.151178 1_555
Mg1 Mg4 3.159714 1_465
Mg1 Mg4 3.159714 1_565
Mg2 Mg3 3.091243 1_555
Mg2 Si1 3.136315 1_655
Mg2 Si1 3.136315 1_555
Mg2 Mg5 3.139224 1_555
Mg2 Sb0 3.167785 1_655
Mg2 Sb0 3.167785 1_555
Mg2 Mg4 3.177891 1_555
Mg2 Mg3 3.220173 1_545
Mg3 Si1 3.136315 1_655
Mg3 Si1 3.136315 1_555
Mg3 Mg5 3.139224 1_565
Mg3 Sb0 3.167785 1_565
Mg3 Sb0 3.167785 1_665
Mg3 Mg4 3.177891 1_565
Mg4 Mg8 3.077306 1_545
Mg4 Mg9 3.077306 1_555
Mg4 Si0 3.121254 1_655
Mg4 Si0 3.121254 1_555
Mg5 Mg9 3.116253 1_554
Mg5 Mg8 3.116253 1_544
Mg5 Sb0 3.142110 1_555
Mg5 Sb0 3.142110 1_655
Mg5 Mg7 3.151178 1_655
Mg5 Mg6 3.151178 1_645
Mg5 Mg6 3.151178 1_545
Mg5 Mg7 3.151178 1_555
Mg6 Si1 3.116831 1_555
Mg6 Sb0 3.120505 1_565
Mg6 Sb1 3.134682 1_554
Mg6 Si0 3.138354 1_564
Mg6 Mg8 3.150588 1_454
Mg6 Mg8 3.150588 1_554
Mg6 Mg7 3.153234 1_555
Mg6 Mg7 3.158182 1_565
Mg7 Si1 3.116831 1_555
Mg7 Sb0 3.120505 1_555
Mg7 Sb1 3.134682 1_554
Mg7 Si0 3.138354 1_554
Mg7 Mg9 3.150588 1_554
Mg7 Mg9 3.150588 1_454
Mg8 Mg9 3.091243 1_565
Mg8 Si0 3.136315 1_565
Mg8 Si0 3.136315 1_665
Mg8 Sb1 3.167785 1_555
Mg8 Sb1 3.167785 1_655
Mg8 Mg9 3.220173 1_555
Mg9 Si0 3.136315 1_555
Mg9 Si0 3.136315 1_655
Mg9 Sb1 3.167785 1_555
Mg9 Sb1 3.167785 1_655
Mg10 Mg2 3.077306 1_555
Mg10 Mg3 3.077306 1_555
Mg10 Si1 3.121254 1_555
Mg10 Si1 3.121254 1_655
Mg10 Mg5 3.155890 1_555
Mg10 Mg5 3.155890 1_565
Mg10 Mg7 3.159714 1_555
Mg10 Mg6 3.159714 1_655
Mg10 Mg7 3.159714 1_655
Mg10 Mg6 3.159714 1_555
Mg10 Mg8 3.177891 1_554
Mg10 Mg9 3.177891 1_554
Mg11 Mg3 3.116253 1_555
Mg11 Mg2 3.116253 1_555
Mg11 Mg8 3.139224 1_555
Mg11 Mg9 3.139224 1_555
Mg11 Sb1 3.142110 1_655
Mg11 Sb1 3.142110 1_555
Mg11 Mg4 3.155890 1_555
Mg11 Mg4 3.155890 1_565
Sb0 Si1 3.155709 1_555
Sb0 Si1 3.155709 1_545
Sb1 Si0 3.155709 1_555
Sb1 Si0 3.155709 1_565
