# generated using pymatgen
data_Sr2MnGaO5
_symmetry_space_group_name_H-M   'P 1'
_cell_length_a   7.78821134
_cell_length_b   9.10728760
_cell_length_c   7.85518076
_cell_angle_alpha   64.45262413
_cell_angle_beta   90.57234702
_cell_angle_gamma   90.24752446
_symmetry_Int_Tables_number   1
_chemical_formula_structural   Sr2MnGaO5
_chemical_formula_sum   'Sr8 Mn4 Ga4 O20'
_cell_volume   502.66434020
_cell_formula_units_Z   4
loop_
 _symmetry_equiv_pos_site_id
 _symmetry_equiv_pos_as_xyz
  1  'x, y, z'
loop_
 _atom_site_type_symbol
 _atom_site_label
 _atom_site_symmetry_multiplicity
 _atom_site_fract_x
 _atom_site_fract_y
 _atom_site_fract_z
 _atom_site_occupancy
  Sr  Sr0  1  0.74883700  0.77732700  0.37578500  1
  Sr  Sr1  1  0.24885200  0.77734200  0.87588700  1
  Sr  Sr2  1  0.75114900  0.22267700  0.12422000  1
  Sr  Sr3  1  0.25113200  0.22266500  0.62411900  1
  Sr  Sr4  1  0.75114700  0.77732500  0.84687800  1
  Sr  Sr5  1  0.25116800  0.77731700  0.34677300  1
  Sr  Sr6  1  0.74887000  0.22267300  0.65311600  1
  Sr  Sr7  1  0.24886100  0.22267500  0.15322200  1
  Mn  Mn0  1  0.99997800  0.99985800  0.50012300  1
  Mn  Mn1  1  0.50001900  0.99990400  0.50005700  1
  Mn  Mn2  1  0.50001600  0.00016000  0.99995300  1
  Mn  Mn3  1  0.99999800  0.00009500  0.99996300  1
  Ga  Ga0  1  0.56838000  0.49997600  0.25286800  1
  Ga  Ga1  1  0.06840200  0.49997500  0.75286600  1
  Ga  Ga2  1  0.93162700  0.50002300  0.24710900  1
  Ga  Ga3  1  0.43160100  0.50002300  0.74710800  1
  O  O0  1  0.74998800  0.98625800  0.00687300  1
  O  O1  1  0.24998600  0.98620900  0.50689000  1
  O  O2  1  0.74998100  0.01373900  0.49310400  1
  O  O3  1  0.24998700  0.01378900  0.99308900  1
  O  O4  1  0.99999000  0.00409500  0.74797500  1
  O  O5  1  0.49999300  0.00410600  0.24798700  1
  O  O6  1  0.50001300  0.99590200  0.75210200  1
  O  O7  1  0.00001400  0.99589100  0.25209100  1
  O  O8  1  0.75619700  0.50000200  0.41997000  1
  O  O9  1  0.25619400  0.50000200  0.91995600  1
  O  O10  1  0.74380500  0.49999900  0.07999900  1
  O  O11  1  0.24380700  0.49999500  0.58001400  1
  O  O12  1  0.47545000  0.70760500  0.15331300  1
  O  O13  1  0.97545400  0.70762800  0.65329300  1
  O  O14  1  0.02455200  0.29239700  0.34665700  1
  O  O15  1  0.52455000  0.29237300  0.84667700  1
  O  O16  1  0.02454200  0.70765800  0.13899800  1
  O  O17  1  0.52454500  0.70767300  0.63898700  1
  O  O18  1  0.47546000  0.29233900  0.36098500  1
  O  O19  1  0.97545500  0.29232500  0.86099400  1
loop_
_geom_bond_atom_site_label_1
_geom_bond_atom_site_label_2
_geom_bond_distance
_geom_bond_site_symmetry_2
Mn0 O1 1.950348 1_655
Mn0 O2 1.950363 1_565
Mn0 O4 1.963871 1_565
Mn0 O7 1.964190 1_655
Mn0 O13 2.409476 1_555
Mn0 O14 2.412064 1_665
Mn1 O2 1.950074 1_565
Mn1 O1 1.950556 1_555
Mn1 O5 1.963853 1_565
Mn1 O6 1.964417 1_555
Mn1 O17 2.409515 1_555
Mn1 O18 2.411198 1_565
Mn2 O0 1.950187 1_546
Mn2 O3 1.950494 1_555
Mn2 O6 1.963949 1_545
Mn2 O5 1.964120 1_556
Mn2 O15 2.409364 1_555
Mn2 O12 2.412168 1_546
Mn3 O3 1.950217 1_655
Mn3 O0 1.950445 1_546
Mn3 O4 1.963975 1_555
Mn3 O7 1.964302 1_646
Mn3 O19 2.409510 1_555
Mn3 O16 2.411212 1_646
Ga0 O12 1.853671 1_555
Ga0 O18 1.853690 1_555
Ga0 O10 1.935817 1_555
Ga0 O8 1.955641 1_555
Ga1 O19 1.853871 1_455
Ga1 O13 1.853907 1_455
Ga1 O11 1.935620 1_555
Ga1 O9 1.955436 1_555
Ga2 O14 1.853634 1_655
Ga2 O16 1.853659 1_655
Ga2 O8 1.935806 1_555
Ga2 O10 1.955706 1_555
Ga3 O17 1.853861 1_555
Ga3 O15 1.853887 1_555
Ga3 O9 1.935606 1_555
Ga3 O11 1.955471 1_555
O0 Sr6 2.682715 1_564
O0 Sr2 2.682774 1_565
O0 Sr0 2.694955 1_555
O0 Sr4 2.695055 1_554
O1 Sr7 2.682398 1_565
O1 Sr3 2.682455 1_565
O1 Sr1 2.695327 1_555
O1 Sr5 2.695457 1_555
O2 Sr0 2.682562 1_545
O2 Sr4 2.682803 1_545
O2 Sr2 2.694802 1_555
O2 Sr6 2.695162 1_555
O3 Sr1 2.682231 1_545
O3 Sr5 2.682503 1_546
O3 Sr3 2.695184 1_555
O3 Sr7 2.695500 1_556
O4 Sr6 2.658596 1_555
O4 Sr3 2.658698 1_655
O4 Sr4 2.690069 1_545
O4 Sr1 2.690130 1_645
O5 Sr7 2.658650 1_555
O5 Sr2 2.658749 1_555
O5 Sr5 2.690111 1_545
O5 Sr0 2.690142 1_545
O6 Sr4 2.658704 1_555
O6 Sr1 2.658725 1_555
O6 Sr6 2.690130 1_565
O6 Sr3 2.690312 1_565
O7 Sr0 2.658803 1_455
O7 Sr5 2.658838 1_555
O7 Sr7 2.690182 1_565
O7 Sr2 2.690319 1_465
O8 Sr0 2.397408 1_555
O8 Sr6 2.397441 1_555
O9 Sr7 2.397722 1_556
O9 Sr1 2.397822 1_555
O10 Sr2 2.397290 1_555
O10 Sr4 2.397364 1_554
O11 Sr5 2.397634 1_555
O11 Sr3 2.397640 1_555
O12 Sr5 2.580386 1_555
O12 Sr1 2.646883 1_554
O12 Sr0 2.976862 1_555
O12 Sr4 3.095307 1_554
O13 Sr4 2.581140 1_555
O13 Sr0 2.647479 1_555
O13 Sr1 2.977533 1_655
O13 Sr5 3.095902 1_655
O14 Sr7 2.580438 1_555
O14 Sr3 2.646998 1_555
O14 Sr2 2.976758 1_455
O14 Sr6 3.095351 1_455
O15 Sr6 2.581091 1_555
O15 Sr2 2.647586 1_556
O15 Sr3 2.977428 1_555
O15 Sr7 3.095892 1_556
O16 Sr1 2.580216 1_554
O16 Sr5 2.647141 1_555
O16 Sr4 2.976586 1_454
O16 Sr0 3.095537 1_455
O17 Sr0 2.580649 1_555
O17 Sr4 2.647635 1_555
O17 Sr5 2.977007 1_555
O17 Sr1 3.096090 1_555
O18 Sr3 2.580448 1_555
O18 Sr7 2.646958 1_555
O18 Sr6 2.976728 1_555
O18 Sr2 3.095300 1_555
O19 Sr2 2.580862 1_556
O19 Sr6 2.647475 1_555
O19 Sr7 2.977235 1_656
O19 Sr3 3.095828 1_655
