# generated using pymatgen
data_Nd2ZrS5
_symmetry_space_group_name_H-M   'P 1'
_cell_length_a   7.39137457
_cell_length_b   8.00986552
_cell_length_c   11.66135565
_cell_angle_alpha   90.00000000
_cell_angle_beta   90.00000000
_cell_angle_gamma   90.00000000
_symmetry_Int_Tables_number   1
_chemical_formula_structural   Nd2ZrS5
_chemical_formula_sum   'Nd8 Zr4 S20'
_cell_volume   690.39792401
_cell_formula_units_Z   4
loop_
 _symmetry_equiv_pos_site_id
 _symmetry_equiv_pos_as_xyz
  1  'x, y, z'
loop_
 _atom_site_type_symbol
 _atom_site_label
 _atom_site_symmetry_multiplicity
 _atom_site_fract_x
 _atom_site_fract_y
 _atom_site_fract_z
 _atom_site_occupancy
  Nd  Nd0  1  0.53589858  0.49907110  0.32411850  1
  Nd  Nd1  1  0.96410142  0.00092890  0.82411850  1
  Nd  Nd2  1  0.46410142  0.99907110  0.67588150  1
  Nd  Nd3  1  0.03589858  0.50092890  0.17588150  1
  Nd  Nd4  1  0.46410142  0.50092890  0.67588150  1
  Nd  Nd5  1  0.03589858  0.99907110  0.17588150  1
  Nd  Nd6  1  0.53589858  0.00092890  0.32411850  1
  Nd  Nd7  1  0.96410142  0.49907110  0.82411850  1
  Zr  Zr0  1  0.07470224  0.75000000  0.49212027  1
  Zr  Zr1  1  0.42529776  0.75000000  0.99212027  1
  Zr  Zr2  1  0.92529776  0.25000000  0.50787973  1
  Zr  Zr3  1  0.57470224  0.25000000  0.00787973  1
  S  S0  1  0.83446979  0.96484480  0.58553520  1
  S  S1  1  0.66553021  0.53515520  0.08553520  1
  S  S2  1  0.16553021  0.46484480  0.41446480  1
  S  S3  1  0.33446979  0.03515520  0.91446480  1
  S  S4  1  0.16553021  0.03515520  0.41446480  1
  S  S5  1  0.33446979  0.46484480  0.91446480  1
  S  S6  1  0.83446979  0.53515520  0.58553520  1
  S  S7  1  0.66553021  0.96484480  0.08553520  1
  S  S8  1  0.84335059  0.75000000  0.31549525  1
  S  S9  1  0.65664941  0.75000000  0.81549525  1
  S  S10  1  0.15664941  0.25000000  0.68450475  1
  S  S11  1  0.34335059  0.25000000  0.18450475  1
  S  S12  1  0.44378223  0.75000000  0.49593564  1
  S  S13  1  0.05621777  0.75000000  0.99593564  1
  S  S14  1  0.55621777  0.25000000  0.50406436  1
  S  S15  1  0.94378223  0.25000000  0.00406436  1
  S  S16  1  0.17757790  0.75000000  0.70649991  1
  S  S17  1  0.32242210  0.75000000  0.20649991  1
  S  S18  1  0.82242210  0.25000000  0.29350009  1
  S  S19  1  0.67757790  0.25000000  0.79350009  1
loop_
_geom_bond_atom_site_label_1
_geom_bond_atom_site_label_2
_geom_bond_distance
_geom_bond_site_symmetry_2
Nd0 S14 2.899314 1_555
Nd0 S17 2.900122 1_555
Nd0 S12 2.918527 1_555
Nd0 S18 2.931331 1_555
Nd0 S11 2.942155 1_555
Nd0 S2 2.946052 1_555
Nd0 S1 2.956732 1_555
Nd0 S8 3.035467 1_555
Nd1 S15 2.899314 1_556
Nd1 S16 2.900122 1_645
Nd1 S13 2.918527 1_645
Nd1 S19 2.931331 1_555
Nd1 S10 2.942155 1_655
Nd1 S3 2.946052 1_655
Nd1 S0 2.956732 1_545
Nd1 S9 3.035467 1_545
Nd2 S12 2.899314 1_555
Nd2 S19 2.900122 1_565
Nd2 S14 2.918527 1_565
Nd2 S16 2.931331 1_555
Nd2 S9 2.942155 1_555
Nd2 S0 2.946052 1_555
Nd2 S3 2.956732 1_565
Nd2 S10 3.035467 1_565
Nd3 S13 2.899314 1_554
Nd3 S18 2.900122 1_455
Nd3 S15 2.918527 1_455
Nd3 S17 2.931331 1_555
Nd3 S8 2.942155 1_455
Nd3 S1 2.946052 1_455
Nd3 S2 2.956732 1_555
Nd3 S11 3.035467 1_555
Nd4 S12 2.899314 1_555
Nd4 S19 2.900122 1_555
Nd4 S14 2.918527 1_555
Nd4 S16 2.931331 1_555
Nd4 S9 2.942155 1_555
Nd4 S6 2.946052 1_555
Nd4 S5 2.956732 1_555
Nd4 S10 3.035467 1_555
Nd5 S13 2.899314 1_554
Nd5 S18 2.900122 1_465
Nd5 S15 2.918527 1_465
Nd5 S17 2.931331 1_555
Nd5 S8 2.942155 1_455
Nd5 S7 2.946052 1_455
Nd5 S4 2.956732 1_565
Nd5 S11 3.035467 1_565
Nd6 S14 2.899314 1_555
Nd6 S17 2.900122 1_545
Nd6 S12 2.918527 1_545
Nd6 S18 2.931331 1_555
Nd6 S11 2.942155 1_555
Nd6 S4 2.946052 1_555
Nd6 S7 2.956732 1_545
Nd6 S8 3.035467 1_545
Nd7 S15 2.899314 1_556
Nd7 S16 2.900122 1_655
Nd7 S13 2.918527 1_655
Nd7 S19 2.931331 1_555
Nd7 S10 2.942155 1_655
Nd7 S5 2.946052 1_655
Nd7 S6 2.956732 1_555
Nd7 S9 3.035467 1_555
S0 Zr2 2.547089 1_565
S0 Zr0 2.702040 1_655
S1 Zr3 2.547089 1_555
S1 Zr1 2.702040 1_554
S2 Zr0 2.547089 1_555
S2 Zr2 2.702040 1_455
S3 Zr1 2.547089 1_545
S3 Zr3 2.702040 1_556
S4 Zr0 2.547089 1_545
S4 Zr2 2.702040 1_455
S5 Zr1 2.547089 1_555
S5 Zr3 2.702040 1_556
S6 Zr2 2.547089 1_555
S6 Zr0 2.702040 1_655
S7 Zr3 2.547089 1_565
S7 Zr1 2.702040 1_554
S8 Zr0 2.677020 1_655
S9 Zr1 2.677020 1_555
S10 Zr2 2.677020 1_455
S11 Zr3 2.677020 1_555
S12 Zr0 2.728371 1_555
S13 Zr1 2.728371 1_555
S14 Zr2 2.728371 1_555
S15 Zr3 2.728371 1_555
S16 Zr0 2.613041 1_555
S17 Zr1 2.613041 1_554
S18 Zr2 2.613041 1_555
S19 Zr3 2.613041 1_556
