# generated using pymatgen
data_Cs2YCl5
_symmetry_space_group_name_H-M   'P 1'
_cell_length_a   7.49723450
_cell_length_b   9.55403101
_cell_length_c   15.32305490
_cell_angle_alpha   90.00000000
_cell_angle_beta   90.00000000
_cell_angle_gamma   90.00000000
_symmetry_Int_Tables_number   1
_chemical_formula_structural   Cs2YCl5
_chemical_formula_sum   'Cs8 Y4 Cl20'
_cell_volume   1097.57220188
_cell_formula_units_Z   4
loop_
 _symmetry_equiv_pos_site_id
 _symmetry_equiv_pos_as_xyz
  1  'x, y, z'
loop_
 _atom_site_type_symbol
 _atom_site_label
 _atom_site_symmetry_multiplicity
 _atom_site_fract_x
 _atom_site_fract_y
 _atom_site_fract_z
 _atom_site_occupancy
  Cs  Cs0  1  0.25000000  0.66570590  0.91631096  1
  Cs  Cs1  1  0.75000000  0.33429410  0.08368904  1
  Cs  Cs2  1  0.75000000  0.83429410  0.41631096  1
  Cs  Cs3  1  0.25000000  0.16570590  0.58368904  1
  Cs  Cs4  1  0.25000000  0.97275826  0.21101990  1
  Cs  Cs5  1  0.75000000  0.02724174  0.78898010  1
  Cs  Cs6  1  0.75000000  0.52724174  0.71101990  1
  Cs  Cs7  1  0.25000000  0.47275826  0.28898010  1
  Y  Y0  1  0.25000000  0.68006452  0.56568305  1
  Y  Y1  1  0.75000000  0.31993548  0.43431695  1
  Y  Y2  1  0.75000000  0.81993548  0.06568305  1
  Y  Y3  1  0.25000000  0.18006452  0.93431695  1
  Cl  Cl0  1  0.25000000  0.51840713  0.70167436  1
  Cl  Cl1  1  0.75000000  0.48159287  0.29832564  1
  Cl  Cl2  1  0.75000000  0.98159287  0.20167436  1
  Cl  Cl3  1  0.25000000  0.01840713  0.79832564  1
  Cl  Cl4  1  0.50581492  0.83732380  0.61901512  1
  Cl  Cl5  1  0.49418508  0.16267620  0.38098488  1
  Cl  Cl6  1  0.49418508  0.66267620  0.11901512  1
  Cl  Cl7  1  0.00581492  0.16267620  0.38098488  1
  Cl  Cl8  1  0.50581492  0.33732380  0.88098488  1
  Cl  Cl9  1  0.99418508  0.83732380  0.61901512  1
  Cl  Cl10  1  0.99418508  0.33732380  0.88098488  1
  Cl  Cl11  1  0.00581492  0.66267620  0.11901512  1
  Cl  Cl12  1  0.25000000  0.79141425  0.40811147  1
  Cl  Cl13  1  0.75000000  0.20858575  0.59188853  1
  Cl  Cl14  1  0.75000000  0.70858575  0.90811147  1
  Cl  Cl15  1  0.25000000  0.29141425  0.09188853  1
  Cl  Cl16  1  0.00000000  0.50000000  0.50000000  1
  Cl  Cl17  1  0.00000000  -0.00000000  0.00000000  1
  Cl  Cl18  1  0.50000000  0.50000000  0.50000000  1
  Cl  Cl19  1  0.50000000  -0.00000000  0.00000000  1
loop_
_geom_bond_atom_site_label_1
_geom_bond_atom_site_label_2
_geom_bond_distance
_geom_bond_site_symmetry_2
Cl0 Y0 2.593771 1_555
Cl0 Cs0 3.577327 1_555
Cl0 Cs6 3.752301 1_455
Cl0 Cs6 3.752301 1_555
Cl0 Cs3 3.824067 1_555
Cl1 Y1 2.593771 1_555
Cl1 Cs1 3.577327 1_555
Cl1 Cs7 3.752301 1_555
Cl1 Cs7 3.752301 1_655
Cl1 Cs2 3.824067 1_555
Cl2 Y2 2.593771 1_555
Cl2 Cs2 3.577327 1_555
Cl2 Cs4 3.752301 1_655
Cl2 Cs4 3.752301 1_555
Cl2 Cs1 3.824067 1_565
Cl3 Y3 2.593771 1_555
Cl3 Cs3 3.577327 1_555
Cl3 Cs5 3.752301 1_455
Cl3 Cs5 3.752301 1_555
Cl3 Cs0 3.824067 1_545
Cl4 Y0 2.569742 1_555
Cl4 Cs2 3.605534 1_555
Cl4 Cs5 3.664241 1_565
Cl4 Cs3 3.716783 1_565
Cl4 Cs6 3.757078 1_555
Cl5 Y1 2.569742 1_555
Cl5 Cs3 3.605534 1_555
Cl5 Cs4 3.664241 1_545
Cl5 Cs2 3.716783 1_545
Cl5 Cs7 3.757078 1_555
Cl6 Y2 2.569742 1_555
Cl6 Cs0 3.605534 1_554
Cl6 Cs7 3.664241 1_555
Cl6 Cs1 3.716783 1_555
Cl6 Cs4 3.757078 1_555
Cl7 Y1 2.569742 1_455
Cl7 Cs3 3.605534 1_555
Cl7 Cs4 3.664241 1_545
Cl7 Cs2 3.716783 1_445
Cl7 Cs7 3.757078 1_555
Cl8 Y3 2.569742 1_555
Cl8 Cs1 3.605534 1_556
Cl8 Cs6 3.664241 1_555
Cl8 Cs0 3.716783 1_555
Cl8 Cs5 3.757078 1_555
Cl9 Y0 2.569742 1_655
Cl9 Cs2 3.605534 1_555
Cl9 Cs5 3.664241 1_565
Cl9 Cs3 3.716783 1_665
Cl9 Cs6 3.757078 1_555
Cl10 Y3 2.569742 1_655
Cl10 Cs1 3.605534 1_556
Cl10 Cs6 3.664241 1_555
Cl10 Cs0 3.716783 1_655
Cl10 Cs5 3.757078 1_555
Cl11 Y2 2.569742 1_455
Cl11 Cs0 3.605534 1_554
Cl11 Cs7 3.664241 1_555
Cl11 Cs1 3.716783 1_455
Cl11 Cs4 3.757078 1_555
Cl12 Y0 2.638457 1_555
Cl12 Cs4 3.481732 1_555
Cl12 Cs7 3.549783 1_555
Cl12 Cs2 3.773029 1_455
Cl12 Cs2 3.773029 1_555
Cl13 Y1 2.638457 1_555
Cl13 Cs5 3.481732 1_555
Cl13 Cs6 3.549783 1_555
Cl13 Cs3 3.773029 1_555
Cl13 Cs3 3.773029 1_655
Cl14 Y2 2.638457 1_556
Cl14 Cs6 3.481732 1_555
Cl14 Cs5 3.549783 1_565
Cl14 Cs0 3.773029 1_555
Cl14 Cs0 3.773029 1_655
Cl15 Y3 2.638457 1_554
Cl15 Cs7 3.481732 1_555
Cl15 Cs4 3.549783 1_545
Cl15 Cs1 3.773029 1_455
Cl15 Cs1 3.773029 1_555
Cl16 Y1 2.735979 1_455
Cl16 Y0 2.735979 1_555
Cl16 Cs6 3.746478 1_455
Cl16 Cs7 3.746478 1_555
Cl16 Cs2 3.918957 1_455
Cl16 Cs3 3.918957 1_555
Cl17 Y2 2.735979 1_445
Cl17 Y3 2.735979 1_554
Cl17 Cs4 3.746478 1_545
Cl17 Cs5 3.746478 1_454
Cl17 Cs0 3.918957 1_544
Cl17 Cs1 3.918957 1_455
Cl18 Y1 2.735979 1_555
Cl18 Y0 2.735979 1_555
Cl18 Cs6 3.746478 1_555
Cl18 Cs7 3.746478 1_555
Cl18 Cs2 3.918957 1_555
Cl18 Cs3 3.918957 1_555
Cl19 Y2 2.735979 1_545
Cl19 Y3 2.735979 1_554
Cl19 Cs4 3.746478 1_545
Cl19 Cs5 3.746478 1_554
Cl19 Cs0 3.918957 1_544
Cl19 Cs1 3.918957 1_555
