# generated using pymatgen
data_SrCa7TiMn7O22
_symmetry_space_group_name_H-M   'P 1'
_cell_length_a   7.70536313
_cell_length_b   7.70536313
_cell_length_c   7.71150913
_cell_angle_alpha   89.92558729
_cell_angle_beta   89.92558729
_cell_angle_gamma   90.66924773
_symmetry_Int_Tables_number   1
_chemical_formula_structural   SrCa7TiMn7O22
_chemical_formula_sum   'Sr1 Ca7 Ti1 Mn7 O22'
_cell_volume   457.82049346
_cell_formula_units_Z   1
loop_
 _symmetry_equiv_pos_site_id
 _symmetry_equiv_pos_as_xyz
  1  'x, y, z'
loop_
 _atom_site_type_symbol
 _atom_site_label
 _atom_site_symmetry_multiplicity
 _atom_site_fract_x
 _atom_site_fract_y
 _atom_site_fract_z
 _atom_site_occupancy
  Sr  Sr0  1  0.25219200  0.25219200  0.22789900  1
  Ca  Ca0  1  0.25403200  0.25403200  0.74003500  1
  Ca  Ca1  1  0.24857800  0.74297300  0.24284200  1
  Ca  Ca2  1  0.25972200  0.74778800  0.73350700  1
  Ca  Ca3  1  0.74297300  0.24857800  0.24284200  1
  Ca  Ca4  1  0.74778800  0.25972200  0.73350700  1
  Ca  Ca5  1  0.74870900  0.74870900  0.24852400  1
  Ca  Ca6  1  0.74920000  0.74920000  0.69513200  1
  Ti  Ti0  1  0.99041700  0.99041700  0.97863200  1
  Mn  Mn0  1  0.00125200  0.00125200  0.50258400  1
  Mn  Mn1  1  0.99457000  0.50358600  0.00679500  1
  Mn  Mn2  1  0.99959900  0.50095400  0.49697400  1
  Mn  Mn3  1  0.50358600  0.99457000  0.00679500  1
  Mn  Mn4  1  0.50095400  0.99959900  0.49697400  1
  Mn  Mn5  1  0.50759200  0.50759200  0.98731500  1
  Mn  Mn6  1  0.50140700  0.50140700  0.50863000  1
  O  O0  1  0.95733300  0.95733300  0.75560000  1
  O  O1  1  0.03151100  0.46839700  0.25352500  1
  O  O2  1  0.96294600  0.53496100  0.75356200  1
  O  O3  1  0.46839700  0.03151100  0.25352500  1
  O  O4  1  0.53496100  0.96294600  0.75356200  1
  O  O5  1  0.53949900  0.53949900  0.75139700  1
  O  O6  1  0.24620600  0.99634000  0.98750200  1
  O  O7  1  0.24942000  0.99911500  0.53730100  1
  O  O8  1  0.25536700  0.50447900  0.98554900  1
  O  O9  1  0.25276900  0.50255600  0.52858000  1
  O  O10  1  0.75445100  0.00120700  0.05632200  1
  O  O11  1  0.75489800  0.00293500  0.45349500  1
  O  O12  1  0.74321800  0.49719600  0.05974200  1
  O  O13  1  0.74530500  0.49731900  0.45643200  1
  O  O14  1  0.99634000  0.24620600  0.98750200  1
  O  O15  1  0.99911500  0.24942000  0.53730100  1
  O  O16  1  0.00120700  0.75445100  0.05632200  1
  O  O17  1  0.00293500  0.75489800  0.45349500  1
  O  O18  1  0.50447900  0.25536700  0.98554900  1
  O  O19  1  0.50255600  0.25276900  0.52858000  1
  O  O20  1  0.49719600  0.74321800  0.05974200  1
  O  O21  1  0.49731900  0.74530500  0.45643200  1
loop_
_geom_bond_atom_site_label_1
_geom_bond_atom_site_label_2
_geom_bond_distance
_geom_bond_site_symmetry_2
Ca0 O15 2.511995 1_455
Ca0 O7 2.511995 1_545
Ca0 O19 2.513670 1_555
Ca0 O9 2.513670 1_555
Ca0 O18 2.705139 1_555
Ca0 O8 2.705139 1_555
Ca0 O14 2.752294 1_455
Ca0 O6 2.752294 1_545
Ca1 O20 2.378328 1_555
Ca1 O16 2.391769 1_555
Ca1 O17 2.495261 1_555
Ca1 O21 2.528685 1_555
Ca1 O1 2.682732 1_555
Ca1 O8 2.707025 1_554
Ca1 O6 2.771259 1_554
Ca1 O3 2.780572 1_565
Ca1 O9 2.877336 1_555
Ca1 O7 3.010476 1_555
Ca2 O7 2.458085 1_555
Ca2 O9 2.465038 1_555
Ca2 O4 2.681361 1_555
Ca2 O8 2.698613 1_555
Ca2 O5 2.706159 1_555
Ca2 O6 2.743919 1_555
Ca2 O2 2.802381 1_455
Ca2 O21 2.812152 1_555
Ca2 O0 2.855271 1_455
Ca2 O17 2.931547 1_555
Ca3 O12 2.378328 1_555
Ca3 O10 2.391769 1_555
Ca3 O11 2.495261 1_555
Ca3 O13 2.528685 1_555
Ca3 O3 2.682732 1_555
Ca3 O18 2.707025 1_554
Ca3 O14 2.771259 1_554
Ca3 O1 2.780572 1_655
Ca3 O19 2.877336 1_555
Ca3 O15 3.010476 1_555
Ca4 O15 2.458085 1_555
Ca4 O19 2.465038 1_555
Ca4 O2 2.681361 1_555
Ca4 O18 2.698613 1_555
Ca4 O5 2.706159 1_555
Ca4 O14 2.743919 1_555
Ca4 O4 2.802381 1_545
Ca4 O13 2.812152 1_555
Ca4 O0 2.855271 1_545
Ca4 O11 2.931547 1_555
Ca5 O12 2.425395 1_555
Ca5 O20 2.425395 1_555
Ca5 O16 2.444263 1_655
Ca5 O10 2.444263 1_565
Ca5 O13 2.512770 1_555
Ca5 O21 2.512770 1_555
Ca5 O11 2.518738 1_565
Ca5 O17 2.518738 1_655
Ca6 O0 2.303303 1_555
Ca6 O5 2.312010 1_555
Ca6 O2 2.388350 1_555
Ca6 O4 2.388350 1_555
Ca6 O21 2.676587 1_555
Ca6 O13 2.676587 1_555
Ca6 O11 2.699065 1_565
Ca6 O17 2.699065 1_655
Mn0 O7 1.931477 1_545
Mn0 O15 1.931477 1_455
Mn0 O11 1.936295 1_455
Mn0 O17 1.936295 1_545
Mn0 O0 2.007453 1_445
Mn1 O1 1.943329 1_655
Mn1 O16 1.970953 1_655
Mn1 O12 1.978847 1_555
Mn1 O2 1.983096 1_554
Mn1 O14 1.989176 1_554
Mn1 O8 2.015922 1_654
Mn2 O1 1.910324 1_655
Mn2 O15 1.962512 1_555
Mn2 O9 1.966145 1_655
Mn2 O13 1.984494 1_555
Mn2 O17 1.984685 1_655
Mn2 O2 2.016241 1_555
Mn3 O3 1.943329 1_565
Mn3 O10 1.970953 1_565
Mn3 O20 1.978847 1_555
Mn3 O4 1.983096 1_554
Mn3 O6 1.989176 1_554
Mn3 O18 2.015922 1_564
Mn4 O3 1.910324 1_565
Mn4 O7 1.962512 1_555
Mn4 O19 1.966145 1_565
Mn4 O21 1.984494 1_555
Mn4 O11 1.984685 1_565
Mn4 O4 2.016241 1_555
Mn5 O5 1.851202 1_555
Mn5 O20 1.902794 1_556
Mn5 O12 1.902794 1_556
Mn5 O8 1.943419 1_555
Mn5 O18 1.943419 1_555
Mn6 O5 1.917785 1_555
Mn6 O19 1.921938 1_555
Mn6 O9 1.921938 1_555
Mn6 O13 1.922062 1_555
Mn6 O21 1.922062 1_555
O0 Ti0 1.757508 1_555
O1 Sr0 2.402501 1_555
O3 Sr0 2.402501 1_555
O6 Ti0 1.972220 1_455
O6 Sr0 2.707938 1_566
O7 Sr0 3.079407 1_565
O8 Sr0 2.694745 1_556
O9 Sr0 3.018188 1_555
O10 Ti0 1.916387 1_544
O14 Ti0 1.972220 1_545
O14 Sr0 2.707938 1_656
O15 Sr0 3.079407 1_655
O16 Ti0 1.916387 1_454
O18 Sr0 2.694745 1_556
O19 Sr0 3.018188 1_555
