# generated using pymatgen
data_LiAlPO5
_symmetry_space_group_name_H-M   'P 1'
_cell_length_a   5.13690500
_cell_length_b   5.21737088
_cell_length_c   7.02636348
_cell_angle_alpha   105.68817947
_cell_angle_beta   106.79049026
_cell_angle_gamma   99.94840835
_symmetry_Int_Tables_number   1
_chemical_formula_structural   LiAlPO5
_chemical_formula_sum   'Li2 Al2 P2 O10'
_cell_volume   167.01699688
_cell_formula_units_Z   2
loop_
 _symmetry_equiv_pos_site_id
 _symmetry_equiv_pos_as_xyz
  1  'x, y, z'
loop_
 _atom_site_type_symbol
 _atom_site_label
 _atom_site_symmetry_multiplicity
 _atom_site_fract_x
 _atom_site_fract_y
 _atom_site_fract_z
 _atom_site_occupancy
  Li  Li0  1  0.26860600  0.13110500  0.71169100  1
  Li  Li1  1  0.73139400  0.86889500  0.28830900  1
  Al  Al0  1  0.00000000  0.50000000  0.50000000  1
  Al  Al1  1  0.00000000  0.50000000  0.00000000  1
  P  P0  1  0.32107500  0.14604300  0.25566900  1
  P  P1  1  0.67892500  0.85395700  0.74433100  1
  O  O0  1  0.13023200  0.17626600  0.39203400  1
  O  O1  1  0.86976800  0.82373400  0.60796600  1
  O  O2  1  0.08394600  0.43472300  0.75451100  1
  O  O3  1  0.91605400  0.56527700  0.24548900  1
  O  O4  1  0.63756300  0.26084100  0.40081900  1
  O  O5  1  0.36243700  0.73915900  0.59918100  1
  O  O6  1  0.25357900  0.28543800  0.08905100  1
  O  O7  1  0.74642100  0.71456200  0.91094900  1
  O  O8  1  0.29715500  0.83185700  0.15395000  1
  O  O9  1  0.70284500  0.16814300  0.84605000  1
loop_
_geom_bond_atom_site_label_1
_geom_bond_atom_site_label_2
_geom_bond_distance
_geom_bond_site_symmetry_2
Li0 O2 1.981413 1_555
Li0 O9 2.107158 1_555
Li0 O1 2.161127 1_445
Li0 O5 2.173811 1_545
Li0 O0 2.242120 1_555
Li0 O6 2.582581 1_556
Li1 O3 1.981413 1_555
Li1 O8 2.107158 1_555
Li1 O0 2.161127 1_665
Li1 O4 2.173811 1_565
Li1 O1 2.242120 1_555
Li1 O7 2.582581 1_554
Al0 O3 1.853241 1_455
Al0 O2 1.853241 1_555
Al0 O5 1.867181 1_555
Al0 O4 1.867181 1_455
Al0 O0 1.966362 1_555
Al0 O1 1.966362 1_455
Al1 O2 1.854721 1_554
Al1 O3 1.854721 1_455
Al1 O9 1.902093 1_454
Al1 O8 1.902093 1_555
Al1 O7 1.937324 1_454
Al1 O6 1.937324 1_555
O0 P0 1.555113 1_555
O1 P1 1.555113 1_555
O4 P0 1.554753 1_555
O5 P1 1.554753 1_555
O6 P0 1.527350 1_555
O7 P1 1.527350 1_555
O8 P0 1.568135 1_565
O9 P1 1.568135 1_545
