# generated using pymatgen
data_TbCeO4
_symmetry_space_group_name_H-M   'P 1'
_cell_length_a   7.66822116
_cell_length_b   7.66822116
_cell_length_c   7.66822116
_cell_angle_alpha   118.00716282
_cell_angle_beta   118.00716282
_cell_angle_gamma   93.48780652
_symmetry_Int_Tables_number   1
_chemical_formula_structural   TbCeO4
_chemical_formula_sum   'Tb4 Ce4 O16'
_cell_volume   327.78409859
_cell_formula_units_Z   4
loop_
 _symmetry_equiv_pos_site_id
 _symmetry_equiv_pos_as_xyz
  1  'x, y, z'
loop_
 _atom_site_type_symbol
 _atom_site_label
 _atom_site_symmetry_multiplicity
 _atom_site_fract_x
 _atom_site_fract_y
 _atom_site_fract_z
 _atom_site_occupancy
  Tb  Tb0  1  0.37500000  0.12500000  0.75000000  1
  Tb  Tb1  1  0.87500000  0.62500000  0.25000000  1
  Tb  Tb2  1  0.37500000  0.62500000  0.75000000  1
  Tb  Tb3  1  0.37500000  0.62500000  0.25000000  1
  Ce  Ce0  1  0.37500000  0.12500000  0.25000000  1
  Ce  Ce1  1  0.87500000  0.62500000  0.75000000  1
  Ce  Ce2  1  0.87500000  0.12500000  0.25000000  1
  Ce  Ce3  1  0.87500000  0.12500000  0.75000000  1
  O  O0  1  0.75354900  0.24645100  0.00000000  1
  O  O1  1  0.00303100  0.50303100  0.50000000  1
  O  O2  1  0.50354900  0.00354900  0.00709800  1
  O  O3  1  0.75000000  0.25000000  0.50000000  1
  O  O4  1  0.25000000  0.75000000  0.50000000  1
  O  O5  1  0.49696900  0.99696900  0.50000000  1
  O  O6  1  0.99645100  0.49645100  0.99290200  1
  O  O7  1  0.25303100  0.25303100  0.00000000  1
  O  O8  1  0.24645100  0.24645100  0.49290200  1
  O  O9  1  0.50000000  0.50000000  0.00000000  1
  O  O10  1  0.99645100  0.00354900  0.50000000  1
  O  O11  1  0.74696900  0.74696900  0.00000000  1
  O  O12  1  0.00000000  0.00000000  0.00000000  1
  O  O13  1  0.50354900  0.49645100  0.50000000  1
  O  O14  1  0.75354900  0.75354900  0.50709800  1
  O  O15  1  0.24645100  0.75354900  0.00000000  1
loop_
_geom_bond_atom_site_label_1
_geom_bond_atom_site_label_2
_geom_bond_distance
_geom_bond_site_symmetry_2
Ce0 O13 2.348472 1_555
Ce0 O8 2.348472 1_555
Ce0 O2 2.348472 1_555
Ce0 O15 2.348472 1_545
Ce0 O3 2.371590 1_555
Ce0 O12 2.371590 1_555
Ce0 O7 2.389382 1_555
Ce0 O5 2.389382 1_545
Ce1 O15 2.348472 1_656
Ce1 O6 2.348472 1_555
Ce1 O13 2.348472 1_555
Ce1 O14 2.348472 1_555
Ce1 O12 2.371590 1_666
Ce1 O3 2.371590 1_555
Ce1 O1 2.389382 1_655
Ce1 O11 2.389382 1_556
Ce2 O8 2.348472 1_655
Ce2 O2 2.348472 1_555
Ce2 O10 2.348472 1_555
Ce2 O0 2.348472 1_555
Ce2 O12 2.371590 1_655
Ce2 O3 2.371590 1_555
Ce2 O1 2.389382 1_655
Ce2 O11 2.389382 1_545
Ce3 O14 2.348472 1_545
Ce3 O6 2.348472 1_555
Ce3 O0 2.348472 1_556
Ce3 O10 2.348472 1_555
Ce3 O12 2.371590 1_656
Ce3 O3 2.371590 1_555
Ce3 O5 2.389382 1_545
Ce3 O7 2.389382 1_656
O0 Tb1 2.395142 1_555
O0 Tb0 2.395142 1_554
O1 Tb1 2.354095 1_455
O1 Tb2 2.354095 1_555
O2 Tb0 2.395142 1_554
O2 Tb2 2.395142 1_544
O4 Tb2 2.371590 1_555
O4 Tb3 2.371590 1_555
O4 Tb1 2.371590 1_455
O4 Tb0 2.371590 1_565
O5 Tb0 2.354095 1_565
O5 Tb3 2.354095 1_555
O6 Tb3 2.395142 1_656
O6 Tb1 2.395142 1_556
O7 Tb0 2.354095 1_554
O7 Tb3 2.354095 1_555
O8 Tb2 2.395142 1_555
O8 Tb0 2.395142 1_555
O9 Tb1 2.371590 1_555
O9 Tb2 2.371590 1_554
O9 Tb3 2.371590 1_555
O9 Tb0 2.371590 1_554
O10 Tb1 2.395142 1_545
O10 Tb0 2.395142 1_655
O11 Tb1 2.354095 1_555
O11 Tb2 2.354095 1_554
O13 Tb3 2.395142 1_555
O13 Tb2 2.395142 1_555
O14 Tb1 2.395142 1_555
O14 Tb3 2.395142 1_555
O15 Tb2 2.395142 1_554
O15 Tb3 2.395142 1_555
