# generated using pymatgen
data_Tb9Ni24Sn49
_symmetry_space_group_name_H-M   'P 1'
_cell_length_a   10.33349509
_cell_length_b   10.33349509
_cell_length_c   17.03763794
_cell_angle_alpha   89.87282938
_cell_angle_beta   89.87282938
_cell_angle_gamma   70.51234413
_symmetry_Int_Tables_number   1
_chemical_formula_structural   Tb9Ni24Sn49
_chemical_formula_sum   'Tb9 Ni24 Sn49'
_cell_volume   1715.07031294
_cell_formula_units_Z   1
loop_
 _symmetry_equiv_pos_site_id
 _symmetry_equiv_pos_as_xyz
  1  'x, y, z'
loop_
 _atom_site_type_symbol
 _atom_site_label
 _atom_site_symmetry_multiplicity
 _atom_site_fract_x
 _atom_site_fract_y
 _atom_site_fract_z
 _atom_site_occupancy
  Tb  Tb0  1  0.75059000  0.24969400  0.74997200  1
  Tb  Tb1  1  0.24941000  0.75030600  0.25002800  1
  Tb  Tb2  1  0.00000000  0.50000000  0.00000000  1
  Tb  Tb3  1  0.50000000  0.00000000  0.50000000  1
  Tb  Tb4  1  0.50000000  0.00000000  0.00000000  1
  Tb  Tb5  1  0.00000000  0.50000000  0.50000000  1
  Tb  Tb6  1  0.24969400  0.75059000  0.74997200  1
  Tb  Tb7  1  0.75030600  0.24941000  0.25002800  1
  Tb  Tb8  1  0.00000000  0.00000000  0.00000000  1
  Ni  Ni0  1  0.74123900  0.09688900  0.58021200  1
  Ni  Ni1  1  0.24137900  0.59879200  0.07968600  1
  Ni  Ni2  1  0.75862100  0.40120800  0.92031400  1
  Ni  Ni3  1  0.25876100  0.90311100  0.41978800  1
  Ni  Ni4  1  0.09688900  0.74123900  0.58021200  1
  Ni  Ni5  1  0.59879200  0.24137900  0.07968600  1
  Ni  Ni6  1  0.40120800  0.75862100  0.92031400  1
  Ni  Ni7  1  0.90311100  0.25876100  0.41978800  1
  Ni  Ni8  1  0.67895100  0.00002100  0.83967000  1
  Ni  Ni9  1  0.17838500  0.50163400  0.33930800  1
  Ni  Ni10  1  0.82161500  0.49836600  0.66069200  1
  Ni  Ni11  1  0.32104900  0.99997900  0.16033000  1
  Ni  Ni12  1  0.49836600  0.82161500  0.66069200  1
  Ni  Ni13  1  0.99997900  0.32104900  0.16033000  1
  Ni  Ni14  1  0.00002100  0.67895100  0.83967000  1
  Ni  Ni15  1  0.50163400  0.17838500  0.33930800  1
  Ni  Ni16  1  0.24010800  0.24010800  0.92047300  1
  Ni  Ni17  1  0.74077800  0.74077800  0.42071400  1
  Ni  Ni18  1  0.25922200  0.25922200  0.57928600  1
  Ni  Ni19  1  0.75989200  0.75989200  0.07952700  1
  Ni  Ni20  1  0.41970800  0.41970800  0.74100900  1
  Ni  Ni21  1  0.91949300  0.91949300  0.23984800  1
  Ni  Ni22  1  0.08050700  0.08050700  0.76015200  1
  Ni  Ni23  1  0.58029200  0.58029200  0.25899100  1
  Sn  Sn0  1  0.50490000  0.25084100  0.62270800  1
  Sn  Sn1  1  0.00325800  0.74133600  0.12812100  1
  Sn  Sn2  1  0.99674200  0.25866400  0.87187900  1
  Sn  Sn3  1  0.49510000  0.74915900  0.37729200  1
  Sn  Sn4  1  0.25084100  0.50490000  0.62270800  1
  Sn  Sn5  1  0.74133600  0.00325800  0.12812100  1
  Sn  Sn6  1  0.25866400  0.99674200  0.87187900  1
  Sn  Sn7  1  0.74915900  0.49510000  0.37729200  1
  Sn  Sn8  1  0.68145900  0.18754900  0.93507900  1
  Sn  Sn9  1  0.19109900  0.68213700  0.43652900  1
  Sn  Sn10  1  0.80890100  0.31786300  0.56347100  1
  Sn  Sn11  1  0.31854100  0.81245100  0.06492100  1
  Sn  Sn12  1  0.31786300  0.80890100  0.56347100  1
  Sn  Sn13  1  0.81245100  0.31854100  0.06492100  1
  Sn  Sn14  1  0.18754900  0.68145900  0.93507900  1
  Sn  Sn15  1  0.68213700  0.19109900  0.43652900  1
  Sn  Sn16  1  0.68446900  0.68446900  0.55838700  1
  Sn  Sn17  1  0.19247200  0.19247200  0.06139200  1
  Sn  Sn18  1  0.80752800  0.80752800  0.93860800  1
  Sn  Sn19  1  0.31553100  0.31553100  0.44161300  1
  Sn  Sn20  1  0.55944400  0.55944400  0.68664000  1
  Sn  Sn21  1  0.06179000  0.06179000  0.19259400  1
  Sn  Sn22  1  0.93821000  0.93821000  0.80740600  1
  Sn  Sn23  1  0.44055600  0.44055600  0.31336000  1
  Sn  Sn24  1  0.81166700  0.55612200  0.81470300  1
  Sn  Sn25  1  0.31263900  0.05760500  0.31588500  1
  Sn  Sn26  1  0.68736100  0.94239500  0.68411500  1
  Sn  Sn27  1  0.18833200  0.44387800  0.18529700  1
  Sn  Sn28  1  0.55612200  0.81166700  0.81470300  1
  Sn  Sn29  1  0.05760500  0.31263900  0.31588500  1
  Sn  Sn30  1  0.94239500  0.68736100  0.68411500  1
  Sn  Sn31  1  0.44387800  0.18833300  0.18529700  1
  Sn  Sn32  1  0.05606300  0.31661400  0.68541200  1
  Sn  Sn33  1  0.55562900  0.81755700  0.18791800  1
  Sn  Sn34  1  0.44437100  0.18244300  0.81208200  1
  Sn  Sn35  1  0.94393700  0.68338600  0.31458800  1
  Sn  Sn36  1  0.18244300  0.44437100  0.81208200  1
  Sn  Sn37  1  0.68338600  0.94393700  0.31458800  1
  Sn  Sn38  1  0.31661400  0.05606300  0.68541200  1
  Sn  Sn39  1  0.81755700  0.55562900  0.18791800  1
  Sn  Sn40  1  0.12943100  0.12943100  0.50181900  1
  Sn  Sn41  1  0.62822400  0.62822400  0.00234200  1
  Sn  Sn42  1  0.37177600  0.37177600  0.99765800  1
  Sn  Sn43  1  0.87056900  0.87056900  0.49818100  1
  Sn  Sn44  1  0.00162800  0.00162800  0.62979300  1
  Sn  Sn45  1  0.50088100  0.50088100  0.13077200  1
  Sn  Sn46  1  0.49911900  0.49911900  0.86922800  1
  Sn  Sn47  1  0.99837200  0.99837200  0.37020700  1
  Sn  Sn48  1  0.50000000  0.50000000  0.50000000  1
loop_
_geom_bond_atom_site_label_1
_geom_bond_atom_site_label_2
_geom_bond_distance
_geom_bond_site_symmetry_2
Ni0 Sn0 2.534652 1_555
Ni0 Sn26 2.562928 1_545
Ni0 Sn10 2.616435 1_555
Ni0 Sn15 2.629238 1_555
Ni0 Sn43 2.670142 1_545
Ni0 Sn44 2.676150 1_655
Ni0 Tb3 3.281884 1_555
Ni0 Tb0 3.315325 1_555
Ni1 Sn1 2.546259 1_555
Ni1 Sn27 2.582453 1_555
Ni1 Sn11 2.597085 1_555
Ni1 Sn14 2.605564 1_554
Ni1 Sn45 2.677360 1_555
Ni1 Sn42 2.677518 1_554
Ni1 Tb2 3.290442 1_555
Ni1 Tb1 3.314974 1_555
Ni2 Sn2 2.546259 1_555
Ni2 Sn24 2.582448 1_555
Ni2 Sn8 2.597085 1_555
Ni2 Sn13 2.605564 1_556
Ni2 Sn46 2.677360 1_555
Ni2 Sn41 2.677518 1_556
Ni2 Tb2 3.290442 1_656
Ni2 Tb0 3.314974 1_555
Ni3 Sn3 2.534652 1_555
Ni3 Sn25 2.562928 1_565
Ni3 Sn9 2.616435 1_555
Ni3 Sn12 2.629238 1_555
Ni3 Sn40 2.670142 1_565
Ni3 Sn47 2.676150 1_455
Ni3 Tb3 3.281884 1_565
Ni3 Tb1 3.315325 1_555
Ni4 Sn4 2.534652 1_555
Ni4 Sn30 2.562928 1_455
Ni4 Sn12 2.616435 1_555
Ni4 Sn9 2.629238 1_555
Ni4 Sn43 2.670142 1_455
Ni4 Sn44 2.676150 1_565
Ni4 Tb5 3.281884 1_555
Ni4 Tb6 3.315325 1_555
Ni5 Sn5 2.546259 1_555
Ni5 Sn31 2.582448 1_555
Ni5 Sn13 2.597085 1_555
Ni5 Sn8 2.605564 1_554
Ni5 Sn45 2.677360 1_555
Ni5 Sn42 2.677518 1_554
Ni5 Tb4 3.290442 1_555
Ni5 Tb7 3.314974 1_555
Ni6 Sn6 2.546259 1_555
Ni6 Sn28 2.582448 1_555
Ni6 Sn14 2.597085 1_555
Ni6 Sn11 2.605564 1_556
Ni6 Sn46 2.677360 1_555
Ni6 Sn41 2.677518 1_556
Ni6 Tb4 3.290442 1_566
Ni6 Tb6 3.314974 1_555
Ni7 Sn7 2.534652 1_555
Ni7 Sn29 2.562928 1_655
Ni7 Sn15 2.616435 1_555
Ni7 Sn10 2.629238 1_555
Ni7 Sn40 2.670142 1_655
Ni7 Sn47 2.676150 1_545
Ni7 Tb5 3.281884 1_655
Ni7 Tb7 3.315325 1_555
Ni8 Sn8 2.538875 1_555
Ni8 Sn34 2.569564 1_555
Ni8 Sn22 2.596300 1_545
Ni8 Sn18 2.606749 1_545
Ni8 Sn28 2.689721 1_545
Ni8 Sn26 2.712497 1_545
Ni8 Tb0 3.285073 1_555
Ni8 Tb4 3.295334 1_556
Ni9 Sn9 2.533422 1_555
Ni9 Sn35 2.557195 1_455
Ni9 Sn23 2.605443 1_555
Ni9 Sn19 2.631081 1_555
Ni9 Sn29 2.676389 1_555
Ni9 Sn27 2.686424 1_555
Ni9 Tb1 3.269801 1_555
Ni9 Tb5 3.300297 1_555
Ni10 Sn10 2.533422 1_555
Ni10 Sn32 2.557195 1_655
Ni10 Sn20 2.605443 1_555
Ni10 Sn16 2.631081 1_555
Ni10 Sn30 2.676389 1_555
Ni10 Sn24 2.686424 1_555
Ni10 Tb0 3.269801 1_555
Ni10 Tb5 3.300297 1_655
Ni11 Sn11 2.538875 1_555
Ni11 Sn33 2.569564 1_555
Ni11 Sn21 2.596300 1_565
Ni11 Sn17 2.606749 1_565
Ni11 Sn31 2.689721 1_565
Ni11 Sn25 2.712497 1_565
Ni11 Tb1 3.285073 1_555
Ni11 Tb4 3.295334 1_565
Ni12 Sn12 2.533422 1_555
Ni12 Sn38 2.557195 1_565
Ni12 Sn20 2.605443 1_555
Ni12 Sn16 2.631081 1_555
Ni12 Sn26 2.676389 1_555
Ni12 Sn28 2.686424 1_555
Ni12 Tb6 3.269801 1_555
Ni12 Tb3 3.300297 1_565
Ni13 Sn13 2.538875 1_555
Ni13 Sn39 2.569564 1_555
Ni13 Sn21 2.596300 1_655
Ni13 Sn17 2.606749 1_655
Ni13 Sn27 2.689712 1_655
Ni13 Sn29 2.712497 1_655
Ni13 Tb7 3.285073 1_555
Ni13 Tb2 3.295334 1_655
Ni14 Sn14 2.538875 1_555
Ni14 Sn36 2.569564 1_555
Ni14 Sn22 2.596300 1_455
Ni14 Sn18 2.606749 1_455
Ni14 Sn24 2.689721 1_455
Ni14 Sn30 2.712497 1_455
Ni14 Tb6 3.285073 1_555
Ni14 Tb2 3.295334 1_556
Ni15 Sn15 2.533422 1_555
Ni15 Sn37 2.557195 1_545
Ni15 Sn23 2.605443 1_555
Ni15 Sn19 2.631081 1_555
Ni15 Sn25 2.676389 1_555
Ni15 Sn31 2.686424 1_555
Ni15 Tb7 3.269801 1_555
Ni15 Tb3 3.300297 1_555
Ni16 Sn17 2.529869 1_556
Ni16 Sn42 2.585110 1_555
Ni16 Sn6 2.594872 1_545
Ni16 Sn2 2.594872 1_455
Ni16 Sn36 2.714616 1_555
Ni16 Sn34 2.714616 1_555
Ni16 Tb4 3.280215 1_556
Ni16 Tb2 3.280215 1_556
Ni17 Sn16 2.528412 1_555
Ni17 Sn43 2.560374 1_555
Ni17 Sn3 2.619396 1_555
Ni17 Sn7 2.619396 1_555
Ni17 Sn37 2.680584 1_555
Ni17 Sn35 2.680584 1_555
Ni17 Tb5 3.277952 1_655
Ni17 Tb3 3.277952 1_565
Ni18 Sn19 2.528412 1_555
Ni18 Sn40 2.560374 1_555
Ni18 Sn0 2.619396 1_555
Ni18 Sn4 2.619396 1_555
Ni18 Sn32 2.680584 1_555
Ni18 Sn38 2.680584 1_555
Ni18 Tb3 3.277952 1_555
Ni18 Tb5 3.277952 1_555
Ni19 Sn18 2.529869 1_554
Ni19 Sn41 2.585110 1_555
Ni19 Sn5 2.594872 1_565
Ni19 Sn1 2.594872 1_655
Ni19 Sn39 2.714616 1_555
Ni19 Sn33 2.714616 1_555
Ni19 Tb4 3.280215 1_565
Ni19 Tb2 3.280215 1_655
Ni20 Sn20 2.531281 1_555
Ni20 Sn46 2.565969 1_555
Ni20 Sn4 2.620167 1_555
Ni20 Sn0 2.620167 1_555
Ni20 Sn34 2.667164 1_555
Ni20 Sn36 2.667164 1_555
Ni20 Tb0 3.285387 1_555
Ni20 Tb6 3.285387 1_555
Ni21 Sn21 2.530726 1_665
Ni21 Sn5 2.589796 1_565
Ni21 Sn1 2.589796 1_655
Ni21 Sn47 2.592489 1_555
Ni21 Sn35 2.685975 1_555
Ni21 Sn37 2.685975 1_555
Ni21 Tb7 3.276243 1_565
Ni21 Tb1 3.276243 1_655
Ni22 Sn22 2.530726 1_445
Ni22 Sn2 2.589796 1_455
Ni22 Sn6 2.589796 1_545
Ni22 Sn44 2.592489 1_555
Ni22 Sn32 2.685975 1_555
Ni22 Sn38 2.685975 1_555
Ni22 Tb0 3.276243 1_455
Ni22 Tb6 3.276243 1_545
Ni23 Sn23 2.531281 1_555
Ni23 Sn45 2.565969 1_555
Ni23 Sn3 2.620167 1_555
Ni23 Sn7 2.620167 1_555
Ni23 Sn39 2.667164 1_555
Ni23 Sn33 2.667164 1_555
Ni23 Tb7 3.285387 1_555
Ni23 Tb1 3.285387 1_555
Sn0 Sn48 3.300301 1_555
Sn0 Tb0 3.339387 1_555
Sn0 Tb3 3.347281 1_555
Sn1 Tb1 3.312721 1_555
Sn1 Tb2 3.326539 1_555
Sn1 Tb8 3.438734 1_565
Sn2 Tb0 3.312721 1_555
Sn2 Tb2 3.326539 1_656
Sn2 Tb8 3.438734 1_656
Sn3 Sn48 3.300301 1_555
Sn3 Tb1 3.339387 1_555
Sn3 Tb3 3.347281 1_565
Sn4 Sn48 3.300301 1_555
Sn4 Tb6 3.339387 1_555
Sn4 Tb5 3.347281 1_555
Sn5 Tb7 3.312721 1_555
Sn5 Tb4 3.326539 1_555
Sn5 Tb8 3.438734 1_655
Sn6 Tb6 3.312721 1_555
Sn6 Tb4 3.326539 1_566
Sn6 Tb8 3.438734 1_566
Sn7 Tb7 3.339387 1_555
Sn7 Tb5 3.347281 1_655
Sn8 Tb4 3.301725 1_556
Sn8 Tb0 3.340084 1_555
Sn8 Tb8 3.400686 1_656
Sn9 Tb5 3.327543 1_555
Sn9 Tb1 3.349745 1_555
Sn10 Sn48 3.301313 1_555
Sn10 Tb5 3.327543 1_655
Sn10 Tb0 3.349745 1_555
Sn11 Tb4 3.301725 1_565
Sn11 Tb1 3.340084 1_555
Sn11 Tb8 3.400686 1_565
Sn12 Sn48 3.301313 1_555
Sn12 Tb3 3.327543 1_565
Sn12 Tb6 3.349745 1_555
Sn13 Tb2 3.301725 1_655
Sn13 Tb7 3.340084 1_555
Sn13 Tb8 3.400686 1_655
Sn14 Tb2 3.301725 1_556
Sn14 Tb6 3.340084 1_555
Sn14 Tb8 3.400686 1_566
Sn15 Sn48 3.301313 1_555
Sn15 Tb3 3.327543 1_555
Sn15 Tb7 3.349745 1_555
Sn16 Sn48 3.270791 1_555
Sn16 Tb3 3.331887 1_565
Sn16 Tb5 3.331887 1_655
Sn17 Tb4 3.305438 1_555
Sn17 Tb2 3.305438 1_555
Sn17 Tb8 3.415166 1_555
Sn18 Tb4 3.305438 1_566
Sn18 Tb2 3.305438 1_656
Sn18 Tb8 3.415166 1_666
Sn19 Sn48 3.270791 1_555
Sn19 Tb5 3.331887 1_555
Sn19 Tb3 3.331887 1_555
Sn20 Tb0 3.329676 1_555
Sn20 Tb6 3.329676 1_555
Sn20 Sn48 3.336994 1_555
Sn21 Tb7 3.302627 1_455
Sn21 Tb1 3.302627 1_545
Sn21 Tb8 3.445756 1_555
Sn22 Tb6 3.302627 1_655
Sn22 Tb0 3.302627 1_565
Sn22 Tb8 3.445756 1_666
Sn23 Tb7 3.329676 1_555
Sn23 Tb1 3.329676 1_555
Sn23 Sn48 3.336994 1_555
Sn24 Tb0 3.604606 1_555
Sn24 Tb2 3.654680 1_656
Sn25 Tb1 3.629449 1_545
Sn25 Tb3 3.632157 1_555
Sn26 Tb0 3.629449 1_565
Sn26 Tb3 3.632157 1_565
Sn27 Tb1 3.604611 1_555
Sn27 Tb2 3.654675 1_555
Sn28 Tb6 3.604606 1_555
Sn28 Tb4 3.654680 1_566
Sn29 Tb7 3.629449 1_455
Sn29 Tb5 3.632157 1_555
Sn30 Tb6 3.629449 1_655
Sn30 Tb5 3.632157 1_655
Sn31 Tb7 3.604606 1_555
Sn31 Tb4 3.654680 1_555
Sn32 Tb0 3.617991 1_455
Sn32 Tb5 3.626975 1_555
Sn33 Tb1 3.614509 1_555
Sn33 Tb4 3.659747 1_565
Sn34 Tb0 3.614509 1_555
Sn34 Tb4 3.659747 1_556
Sn35 Tb1 3.617991 1_655
Sn35 Tb5 3.626975 1_655
Sn36 Tb6 3.614509 1_555
Sn36 Tb2 3.659747 1_556
Sn37 Tb7 3.617991 1_565
Sn37 Tb3 3.626975 1_565
Sn38 Tb6 3.617991 1_545
Sn38 Tb3 3.626975 1_555
Sn39 Tb7 3.614509 1_555
Sn39 Tb2 3.659747 1_655
Sn40 Tb5 3.610491 1_555
Sn40 Tb3 3.610491 1_555
Sn41 Tb2 3.622083 1_655
Sn41 Tb4 3.622083 1_565
Sn42 Tb2 3.622083 1_556
Sn42 Tb4 3.622083 1_556
Sn43 Tb5 3.610491 1_655
Sn43 Tb3 3.610491 1_565
Sn44 Tb0 3.613287 1_455
Sn44 Tb6 3.613287 1_545
Sn45 Tb1 3.613199 1_555
Sn45 Tb7 3.613199 1_555
Sn46 Tb0 3.613199 1_555
Sn46 Tb6 3.613199 1_555
Sn47 Tb7 3.613287 1_565
Sn47 Tb1 3.613287 1_655
Sn48 Sn7 3.300301 1_555
Sn48 Sn9 3.301313 1_555
