# generated using pymatgen
data_ZrSnH4NF7
_symmetry_space_group_name_H-M   'P 1'
_cell_length_a   8.61044800
_cell_length_b   6.22493400
_cell_length_c   12.73331100
_cell_angle_alpha   90.00000000
_cell_angle_beta   90.00000000
_cell_angle_gamma   90.00000000
_symmetry_Int_Tables_number   1
_chemical_formula_structural   ZrSnH4NF7
_chemical_formula_sum   'Zr4 Sn4 H16 N4 F28'
_cell_volume   682.49872744
_cell_formula_units_Z   4
loop_
 _symmetry_equiv_pos_site_id
 _symmetry_equiv_pos_as_xyz
  1  'x, y, z'
loop_
 _atom_site_type_symbol
 _atom_site_label
 _atom_site_symmetry_multiplicity
 _atom_site_fract_x
 _atom_site_fract_y
 _atom_site_fract_z
 _atom_site_occupancy
  Zr  Zr0  1  0.00000000  0.24856800  0.91886900  1
  Zr  Zr1  1  0.00000000  0.75143200  0.08113100  1
  Zr  Zr2  1  0.50000000  0.24856800  0.58113100  1
  Zr  Zr3  1  0.50000000  0.75143200  0.41886900  1
  Sn  Sn0  1  0.00000000  0.22939200  0.59655600  1
  Sn  Sn1  1  0.00000000  0.77060800  0.40344400  1
  Sn  Sn2  1  0.50000000  0.22939200  0.90344400  1
  Sn  Sn3  1  0.50000000  0.77060800  0.09655600  1
  H  H0  1  0.16146000  0.65449400  0.78185600  1
  H  H1  1  0.16146000  0.34550600  0.21814400  1
  H  H2  1  0.33854000  0.65449400  0.71814400  1
  H  H3  1  0.33854000  0.34550600  0.28185600  1
  H  H4  1  0.83854000  0.34550600  0.21814400  1
  H  H5  1  0.83854000  0.65449400  0.78185600  1
  H  H6  1  0.66146000  0.34550600  0.28185600  1
  H  H7  1  0.66146000  0.65449400  0.71814400  1
  H  H8  1  0.20260200  0.84444900  0.69251600  1
  H  H9  1  0.20260200  0.15555100  0.30748400  1
  H  H10  1  0.29739800  0.84444900  0.80748400  1
  H  H11  1  0.29739800  0.15555100  0.19251600  1
  H  H12  1  0.79739800  0.15555100  0.30748400  1
  H  H13  1  0.79739800  0.84444900  0.69251600  1
  H  H14  1  0.70260200  0.15555100  0.19251600  1
  H  H15  1  0.70260200  0.84444900  0.80748400  1
  N  N0  1  0.25000000  0.74828500  0.75000000  1
  N  N1  1  0.25000000  0.25171500  0.25000000  1
  N  N2  1  0.75000000  0.25171500  0.25000000  1
  N  N3  1  0.75000000  0.74828500  0.75000000  1
  F  F0  1  0.13942100  0.50000000  0.00000000  1
  F  F1  1  0.36057900  0.50000000  0.50000000  1
  F  F2  1  0.86057900  0.50000000  0.00000000  1
  F  F3  1  0.63942100  0.50000000  0.50000000  1
  F  F4  1  0.00000000  0.12342600  0.07162800  1
  F  F5  1  0.00000000  0.87657400  0.92837200  1
  F  F6  1  0.50000000  0.12342600  0.42837200  1
  F  F7  1  0.50000000  0.87657400  0.57162800  1
  F  F8  1  0.00000000  0.49924200  0.81016800  1
  F  F9  1  0.00000000  0.50075800  0.18983200  1
  F  F10  1  0.50000000  0.49924200  0.68983200  1
  F  F11  1  0.50000000  0.50075800  0.31016800  1
  F  F12  1  0.00000000  0.10831800  0.76345000  1
  F  F13  1  0.00000000  0.89168200  0.23655000  1
  F  F14  1  0.50000000  0.10831800  0.73655000  1
  F  F15  1  0.50000000  0.89168200  0.26345000  1
  F  F16  1  0.23170300  0.16428100  0.89511300  1
  F  F17  1  0.23170300  0.83571900  0.10488700  1
  F  F18  1  0.26829700  0.16428100  0.60488700  1
  F  F19  1  0.26829700  0.83571900  0.39511300  1
  F  F20  1  0.76829700  0.83571900  0.10488700  1
  F  F21  1  0.76829700  0.16428100  0.89511300  1
  F  F22  1  0.73170300  0.83571900  0.39511300  1
  F  F23  1  0.73170300  0.16428100  0.60488700  1
  F  F24  1  0.00000000  0.88578100  0.58701300  1
  F  F25  1  0.00000000  0.11421900  0.41298700  1
  F  F26  1  0.50000000  0.88578100  0.91298700  1
  F  F27  1  0.50000000  0.11421900  0.08701300  1
loop_
_geom_bond_atom_site_label_1
_geom_bond_atom_site_label_2
_geom_bond_distance
_geom_bond_site_symmetry_2
H0 N0 1.042409 1_555
H1 N1 1.042409 1_555
H2 N0 1.042409 1_555
H3 N1 1.042409 1_555
H4 N2 1.042409 1_555
H5 N3 1.042409 1_555
H6 N2 1.042409 1_555
H7 N3 1.042409 1_555
H8 N0 1.029887 1_555
H9 N1 1.029887 1_555
H10 N0 1.029887 1_555
H11 N1 1.029887 1_555
H12 N2 1.029887 1_555
H13 N3 1.029887 1_555
H14 N2 1.029887 1_555
H15 N3 1.029887 1_555
F0 Zr1 2.226670 1_555
F0 Zr0 2.226670 1_554
F1 Zr2 2.226670 1_555
F1 Zr3 2.226670 1_555
F2 Zr0 2.226670 1_654
F2 Zr1 2.226670 1_655
F3 Zr2 2.226670 1_555
F3 Zr3 2.226670 1_555
F4 Zr0 2.095320 1_554
F4 Zr1 2.318798 1_545
F5 Zr1 2.095320 1_556
F5 Zr0 2.318798 1_565
F6 Zr2 2.095320 1_555
F6 Zr3 2.318798 1_545
F7 Zr3 2.095320 1_555
F7 Zr2 2.318798 1_565
F8 Zr0 2.085842 1_555
F9 Zr1 2.085842 1_555
F10 Zr2 2.085842 1_555
F11 Zr3 2.085842 1_555
F12 Zr0 2.163018 1_555
F12 Sn0 2.254803 1_555
F13 Zr1 2.163018 1_555
F13 Sn1 2.254803 1_555
F14 Zr2 2.163018 1_555
F14 Sn2 2.254803 1_555
F15 Zr3 2.163018 1_555
F15 Sn3 2.254803 1_555
F16 Zr0 2.084966 1_555
F16 Sn2 2.347841 1_555
F17 Zr1 2.084966 1_555
F17 Sn3 2.347841 1_555
F18 Zr2 2.084966 1_555
F18 Sn0 2.347841 1_555
F19 Zr3 2.084966 1_555
F19 Sn1 2.347841 1_555
F20 Zr1 2.084966 1_655
F20 Sn3 2.347841 1_555
F21 Zr0 2.084966 1_655
F21 Sn2 2.347841 1_555
F22 Zr3 2.084966 1_555
F22 Sn1 2.347841 1_655
F23 Zr2 2.084966 1_555
F23 Sn0 2.347841 1_655
F24 Sn0 2.142405 1_565
F24 Sn1 2.444921 1_555
F25 Sn1 2.142405 1_545
F25 Sn0 2.444921 1_555
F26 Sn2 2.142405 1_565
F26 Sn3 2.444921 1_556
F27 Sn3 2.142405 1_545
F27 Sn2 2.444921 1_554
