# generated using pymatgen
data_Mn3TeO6
_symmetry_space_group_name_H-M   'P 1'
_cell_length_a   6.23027410
_cell_length_b   6.23027391
_cell_length_c   6.23027316
_cell_angle_alpha   90.55437720
_cell_angle_beta   90.55438944
_cell_angle_gamma   90.55438121
_symmetry_Int_Tables_number   1
_chemical_formula_structural   Mn3TeO6
_chemical_formula_sum   'Mn6 Te2 O12'
_cell_volume   241.80205818
_cell_formula_units_Z   2
loop_
 _symmetry_equiv_pos_site_id
 _symmetry_equiv_pos_as_xyz
  1  'x, y, z'
loop_
 _atom_site_type_symbol
 _atom_site_label
 _atom_site_symmetry_multiplicity
 _atom_site_fract_x
 _atom_site_fract_y
 _atom_site_fract_z
 _atom_site_occupancy
  Mn  Mn0  1  0.25187732  0.43948548  0.94959846  1
  Mn  Mn1  1  0.94959846  0.25187732  0.43948548  1
  Mn  Mn2  1  0.56051452  0.05040154  0.74812268  1
  Mn  Mn3  1  0.05040154  0.74812268  0.56051452  1
  Mn  Mn4  1  0.74812268  0.56051452  0.05040154  1
  Mn  Mn5  1  0.43948548  0.94959846  0.25187732  1
  Te  Te0  1  0.50000000  0.50000000  0.50000000  1
  Te  Te1  1  0.00000000  -0.00000000  0.00000000  1
  O  O0  1  0.91560775  0.04549100  0.70485074  1
  O  O1  1  0.04549100  0.70485074  0.91560775  1
  O  O2  1  0.70485074  0.91560775  0.04549100  1
  O  O3  1  0.08439225  0.95450900  0.29514926  1
  O  O4  1  0.95450900  0.29514926  0.08439225  1
  O  O5  1  0.29514926  0.08439225  0.95450900  1
  O  O6  1  0.43127638  0.79521034  0.56521146  1
  O  O7  1  0.79521034  0.56521146  0.43127638  1
  O  O8  1  0.43478854  0.56872362  0.20478966  1
  O  O9  1  0.20478966  0.43478854  0.56872362  1
  O  O10  1  0.56872362  0.20478966  0.43478854  1
  O  O11  1  0.56521146  0.43127638  0.79521034  1
loop_
_geom_bond_atom_site_label_1
_geom_bond_atom_site_label_2
_geom_bond_distance
_geom_bond_site_symmetry_2
Mn0 O8 2.096953 1_556
Mn0 O1 2.115249 1_555
Mn0 O11 2.185421 1_555
Mn0 O4 2.226849 1_456
Mn0 O5 2.231749 1_555
Mn0 O9 2.388065 1_555
Mn1 O9 2.096954 1_655
Mn1 O0 2.115249 1_555
Mn1 O7 2.185421 1_555
Mn1 O3 2.226849 1_645
Mn1 O4 2.231749 1_555
Mn1 O10 2.388065 1_555
Mn2 O6 2.096953 1_545
Mn2 O5 2.115249 1_555
Mn2 O10 2.185421 1_555
Mn2 O2 2.226848 1_546
Mn2 O0 2.231750 1_555
Mn2 O11 2.388065 1_555
Mn3 O7 2.096954 1_455
Mn3 O3 2.115249 1_555
Mn3 O9 2.185421 1_555
Mn3 O0 2.226849 1_465
Mn3 O1 2.231749 1_555
Mn3 O6 2.388065 1_555
Mn4 O11 2.096953 1_554
Mn4 O4 2.115249 1_555
Mn4 O8 2.185421 1_555
Mn4 O1 2.226849 1_654
Mn4 O2 2.231749 1_555
Mn4 O7 2.388065 1_555
Mn5 O10 2.096953 1_565
Mn5 O2 2.115249 1_555
Mn5 O6 2.185421 1_555
Mn5 O5 2.226848 1_564
Mn5 O3 2.231750 1_555
Mn5 O8 2.388065 1_555
O0 Te1 1.931954 1_656
O1 Te1 1.931954 1_566
O2 Te1 1.931954 1_665
O3 Te1 1.931954 1_565
O4 Te1 1.931954 1_655
O5 Te1 1.931954 1_556
O6 Te0 1.932705 1_555
O7 Te0 1.932705 1_555
O8 Te0 1.932705 1_555
O9 Te0 1.932705 1_555
O10 Te0 1.932705 1_555
O11 Te0 1.932705 1_555
