# generated using pymatgen
data_Rb2V3O8
_symmetry_space_group_name_H-M   'P 1'
_cell_length_a   8.89749741
_cell_length_b   8.89749741
_cell_length_c   5.68406447
_cell_angle_alpha   90.00000000
_cell_angle_beta   90.00000000
_cell_angle_gamma   90.00000000
_symmetry_Int_Tables_number   1
_chemical_formula_structural   Rb2V3O8
_chemical_formula_sum   'Rb4 V6 O16'
_cell_volume   449.98157935
_cell_formula_units_Z   2
loop_
 _symmetry_equiv_pos_site_id
 _symmetry_equiv_pos_as_xyz
  1  'x, y, z'
loop_
 _atom_site_type_symbol
 _atom_site_label
 _atom_site_symmetry_multiplicity
 _atom_site_fract_x
 _atom_site_fract_y
 _atom_site_fract_z
 _atom_site_occupancy
  Rb  Rb0  1  0.16682433  0.66682433  0.00994152  1
  Rb  Rb1  1  0.66682433  0.83317567  0.00994152  1
  Rb  Rb2  1  0.33317567  0.16682433  0.00994152  1
  Rb  Rb3  1  0.83317567  0.33317567  0.00994152  1
  V  V0  1  0.36534744  0.86534744  0.52897035  1
  V  V1  1  0.86534744  0.63465256  0.52897035  1
  V  V2  1  0.13465256  0.36534744  0.52897035  1
  V  V3  1  0.63465256  0.13465256  0.52897035  1
  V  V4  1  0.50000000  0.50000000  0.72040909  1
  V  V5  1  0.00000000  0.00000000  0.72040909  1
  O  O0  1  0.50000000  0.50000000  0.00611512  1
  O  O1  1  0.00000000  0.00000000  0.00611512  1
  O  O2  1  0.80680781  0.08349494  0.64050143  1
  O  O3  1  0.19319219  0.91650506  0.64050143  1
  O  O4  1  0.91650506  0.80680781  0.64050143  1
  O  O5  1  0.08349494  0.19319219  0.64050143  1
  O  O6  1  0.41650506  0.69319219  0.64050143  1
  O  O7  1  0.69319219  0.58349494  0.64050143  1
  O  O8  1  0.30680781  0.41650506  0.64050143  1
  O  O9  1  0.58349494  0.30680781  0.64050143  1
  O  O10  1  0.50000000  0.00000000  0.63863007  1
  O  O11  1  0.00000000  0.50000000  0.63863007  1
  O  O12  1  0.63257332  0.13257332  0.23865862  1
  O  O13  1  0.36742668  0.86742668  0.23865862  1
  O  O14  1  0.86742668  0.63257332  0.23865862  1
  O  O15  1  0.13257332  0.36742668  0.23865862  1
loop_
_geom_bond_atom_site_label_1
_geom_bond_atom_site_label_2
_geom_bond_distance
_geom_bond_site_symmetry_2
O0 V4 1.623971 1_554
O0 Rb0 3.315346 1_555
O0 Rb2 3.315346 1_555
O0 Rb3 3.315346 1_555
O0 Rb1 3.315346 1_555
O1 V5 1.623971 1_554
O1 Rb3 3.315346 1_455
O1 Rb2 3.315346 1_555
O1 Rb0 3.315346 1_545
O1 Rb1 3.315346 1_445
O2 V3 1.719109 1_555
O2 V5 1.926889 1_655
O2 Rb3 3.065929 1_556
O2 Rb1 3.304759 1_546
O3 V0 1.719109 1_555
O3 V5 1.926889 1_565
O3 Rb0 3.065929 1_556
O3 Rb2 3.304759 1_566
O4 V1 1.719109 1_555
O4 V5 1.926889 1_665
O4 Rb1 3.065929 1_556
O4 Rb0 3.304759 1_656
O5 V2 1.719109 1_555
O5 V5 1.926889 1_555
O5 Rb2 3.065929 1_556
O5 Rb3 3.304759 1_456
O6 V0 1.719109 1_555
O6 V4 1.926889 1_555
O6 Rb0 3.065929 1_556
O6 Rb1 3.304759 1_556
O7 V1 1.719109 1_555
O7 V4 1.926889 1_555
O7 Rb1 3.065929 1_556
O7 Rb3 3.304759 1_556
O8 V2 1.719109 1_555
O8 V4 1.926889 1_555
O8 Rb2 3.065929 1_556
O8 Rb0 3.304759 1_556
O9 V3 1.719109 1_555
O9 V4 1.926889 1_555
O9 Rb3 3.065929 1_556
O9 Rb2 3.304759 1_556
O10 V0 1.805344 1_545
O10 V3 1.805344 1_555
O10 Rb1 2.976720 1_546
O10 Rb2 2.976720 1_556
O11 V2 1.805344 1_555
O11 V1 1.805344 1_455
O11 Rb3 2.976720 1_456
O11 Rb0 2.976720 1_556
O12 V3 1.650358 1_555
O12 Rb3 2.839288 1_555
O12 Rb1 2.979814 1_545
O12 Rb2 2.979814 1_555
O13 V0 1.650358 1_555
O13 Rb0 2.839288 1_555
O13 Rb1 2.979814 1_555
O13 Rb2 2.979814 1_565
O14 V1 1.650358 1_555
O14 Rb1 2.839288 1_555
O14 Rb3 2.979814 1_555
O14 Rb0 2.979814 1_655
O15 V2 1.650358 1_555
O15 Rb2 2.839288 1_555
O15 Rb3 2.979814 1_455
O15 Rb0 2.979814 1_555
