# generated using pymatgen
data_LiTmU2S3O2
_symmetry_space_group_name_H-M   'P 1'
_cell_length_a   3.85560296
_cell_length_b   3.81581103
_cell_length_c   11.49833906
_cell_angle_alpha   99.55009576
_cell_angle_beta   90.27507391
_cell_angle_gamma   89.98906849
_symmetry_Int_Tables_number   1
_chemical_formula_structural   LiTmU2S3O2
_chemical_formula_sum   'Li1 Tm1 U2 S3 O2'
_cell_volume   166.82001967
_cell_formula_units_Z   1
loop_
 _symmetry_equiv_pos_site_id
 _symmetry_equiv_pos_as_xyz
  1  'x, y, z'
loop_
 _atom_site_type_symbol
 _atom_site_label
 _atom_site_symmetry_multiplicity
 _atom_site_fract_x
 _atom_site_fract_y
 _atom_site_fract_z
 _atom_site_occupancy
  Li  Li0  1  0.62659800  0.41076800  0.82067700  1
  Tm  Tm0  1  0.12799900  0.01110100  0.02175200  1
  U  U0  1  0.12869300  0.29265800  0.58477000  1
  U  U1  1  0.62553700  0.67783800  0.35481400  1
  S  S0  1  0.12396500  0.12853700  0.25653700  1
  S  S1  1  0.12665700  0.89011000  0.77980000  1
  S  S2  1  0.62774000  0.51662300  0.03282300  1
  O  O0  1  0.12807300  0.74049000  0.48025000  1
  O  O1  1  0.62759500  0.24259000  0.48405300  1
loop_
_geom_bond_atom_site_label_1
_geom_bond_atom_site_label_2
_geom_bond_distance
_geom_bond_site_symmetry_2
Li0 S2 2.405503 1_556
Li0 S1 2.749037 1_555
Li0 S1 2.750722 1_545
Li0 S1 2.753008 1_655
Li0 S1 2.753671 1_645
S0 Tm0 2.662344 1_555
S0 U1 2.931664 1_445
S0 U1 2.932022 1_455
S0 U1 2.932069 1_545
S0 U1 2.933384 1_555
S1 Tm0 2.743469 1_566
S1 U0 2.920624 1_555
S1 U0 2.920885 1_565
S2 Tm0 2.713831 1_565
S2 Tm0 2.714278 1_555
S2 Tm0 2.716042 1_655
S2 Tm0 2.716628 1_665
O0 U0 2.245754 1_565
O0 U0 2.246311 1_555
O0 U1 2.393363 1_555
O0 U1 2.398029 1_455
O1 U0 2.239564 1_655
O1 U0 2.241783 1_555
O1 U1 2.405311 1_555
O1 U1 2.406160 1_545
