# generated using pymatgen
data_VO2
_symmetry_space_group_name_H-M   'P 1'
_cell_length_a   4.95655199
_cell_length_b   4.95655199
_cell_length_c   9.90775700
_cell_angle_alpha   90.00000000
_cell_angle_beta   90.00000000
_cell_angle_gamma   145.05557904
_symmetry_Int_Tables_number   1
_chemical_formula_structural   VO2
_chemical_formula_sum   'V4 O8'
_cell_volume   139.41955934
_cell_formula_units_Z   4
loop_
 _symmetry_equiv_pos_site_id
 _symmetry_equiv_pos_as_xyz
  1  'x, y, z'
loop_
 _atom_site_type_symbol
 _atom_site_label
 _atom_site_symmetry_multiplicity
 _atom_site_fract_x
 _atom_site_fract_y
 _atom_site_fract_z
 _atom_site_occupancy
  V  V0  1  0.13545700  0.86454300  0.07576100  1
  V  V1  1  0.86454300  0.13545700  0.92423900  1
  V  V2  1  0.13545700  0.86454300  0.42423900  1
  V  V3  1  0.86454300  0.13545700  0.57576100  1
  O  O0  1  0.76406700  0.23593300  0.39874900  1
  O  O1  1  0.23593300  0.76406700  0.60125100  1
  O  O2  1  0.23593300  0.76406700  0.89874900  1
  O  O3  1  0.76406700  0.23593300  0.10125100  1
  O  O4  1  0.07577100  0.92422900  0.25000000  1
  O  O5  1  0.92422900  0.07577100  0.75000000  1
  O  O6  1  0.50000000  0.50000000  0.00000000  1
  O  O7  1  0.50000000  0.50000000  0.50000000  1
loop_
_geom_bond_atom_site_label_1
_geom_bond_atom_site_label_2
_geom_bond_distance
_geom_bond_site_symmetry_2
O0 V2 1.938386 1_545
O0 V2 1.938386 1_655
O0 V3 1.994600 1_555
O1 V3 1.938386 1_455
O1 V3 1.938386 1_565
O1 V2 1.994600 1_555
O2 V1 1.938386 1_455
O2 V1 1.938386 1_565
O2 V0 1.994600 1_556
O3 V0 1.938386 1_545
O3 V0 1.938386 1_655
O3 V1 1.994600 1_554
O4 V2 1.816230 1_555
O4 V0 1.816230 1_555
O5 V1 1.816230 1_555
O5 V3 1.816230 1_555
O6 V0 2.102059 1_655
O6 V0 2.102059 1_545
O6 V1 2.102059 1_564
O6 V1 2.102059 1_454
O7 V3 2.102059 1_565
O7 V2 2.102059 1_655
O7 V2 2.102059 1_545
O7 V3 2.102059 1_455
