# generated using pymatgen
data_La20Mn8Te7C12
_symmetry_space_group_name_H-M   'P 1'
_cell_length_a   11.57654150
_cell_length_b   11.57654150
_cell_length_c   11.57654150
_cell_angle_alpha   60.00000000
_cell_angle_beta   60.00000000
_cell_angle_gamma   60.00000000
_symmetry_Int_Tables_number   1
_chemical_formula_structural   La20Mn8Te7C12
_chemical_formula_sum   'La20 Mn8 Te7 C12'
_cell_volume   1097.03757133
_cell_formula_units_Z   1
loop_
 _symmetry_equiv_pos_site_id
 _symmetry_equiv_pos_as_xyz
  1  'x, y, z'
loop_
 _atom_site_type_symbol
 _atom_site_label
 _atom_site_symmetry_multiplicity
 _atom_site_fract_x
 _atom_site_fract_y
 _atom_site_fract_z
 _atom_site_occupancy
  La  La0  1  0.50000000  0.50000000  0.84152500  1
  La  La1  1  0.15847500  0.50000000  0.84152500  1
  La  La2  1  0.50000000  0.15847500  0.84152500  1
  La  La3  1  0.15847500  0.84152500  0.50000000  1
  La  La4  1  0.50000000  0.84152500  0.50000000  1
  La  La5  1  0.50000000  0.84152500  0.15847500  1
  La  La6  1  0.84152500  0.15847500  0.50000000  1
  La  La7  1  0.84152500  0.50000000  0.15847500  1
  La  La8  1  0.84152500  0.50000000  0.50000000  1
  La  La9  1  0.50000000  0.50000000  0.15847500  1
  La  La10  1  0.50000000  0.15847500  0.50000000  1
  La  La11  1  0.15847500  0.50000000  0.50000000  1
  La  La12  1  0.13547100  0.13547100  0.59358700  1
  La  La13  1  0.13547100  0.59358700  0.13547100  1
  La  La14  1  0.59358700  0.13547100  0.13547100  1
  La  La15  1  0.13547100  0.13547100  0.13547100  1
  La  La16  1  0.86452900  0.86452900  0.40641300  1
  La  La17  1  0.86452900  0.40641300  0.86452900  1
  La  La18  1  0.40641300  0.86452900  0.86452900  1
  La  La19  1  0.86452900  0.86452900  0.86452900  1
  Mn  Mn0  1  0.30369800  0.30369800  0.08890700  1
  Mn  Mn1  1  0.30369800  0.08890700  0.30369800  1
  Mn  Mn2  1  0.08890700  0.30369800  0.30369800  1
  Mn  Mn3  1  0.30369800  0.30369800  0.30369800  1
  Mn  Mn4  1  0.69630200  0.69630200  0.91109300  1
  Mn  Mn5  1  0.69630200  0.91109300  0.69630200  1
  Mn  Mn6  1  0.91109300  0.69630200  0.69630200  1
  Mn  Mn7  1  0.69630200  0.69630200  0.69630200  1
  Te  Te0  1  0.21410300  0.21410300  0.78589700  1
  Te  Te1  1  0.78589700  0.21410300  0.78589700  1
  Te  Te2  1  0.21410300  0.78589700  0.78589700  1
  Te  Te3  1  0.78589700  0.78589700  0.21410300  1
  Te  Te4  1  0.21410300  0.78589700  0.21410300  1
  Te  Te5  1  0.78589700  0.21410300  0.21410300  1
  Te  Te6  1  0.50000000  0.50000000  0.50000000  1
  C  C0  1  0.39428300  0.39428300  0.10571700  1
  C  C1  1  0.10571700  0.39428300  0.10571700  1
  C  C2  1  0.39428300  0.10571700  0.10571700  1
  C  C3  1  0.10571700  0.10571700  0.39428300  1
  C  C4  1  0.39428300  0.10571700  0.39428300  1
  C  C5  1  0.10571700  0.39428300  0.39428300  1
  C  C6  1  0.60571700  0.60571700  0.89428300  1
  C  C7  1  0.89428300  0.60571700  0.89428300  1
  C  C8  1  0.60571700  0.89428300  0.89428300  1
  C  C9  1  0.89428300  0.89428300  0.60571700  1
  C  C10  1  0.60571700  0.89428300  0.60571700  1
  C  C11  1  0.89428300  0.60571700  0.60571700  1
loop_
_geom_bond_atom_site_label_1
_geom_bond_atom_site_label_2
_geom_bond_distance
_geom_bond_site_symmetry_2
La0 Te2 3.371767 1_555
La0 Te1 3.371767 1_555
La0 Te6 3.953678 1_555
La1 Te2 3.371767 1_555
La1 Te0 3.371767 1_555
La1 Te6 3.953678 1_555
La2 Te1 3.371767 1_555
La2 Te0 3.371767 1_555
La2 Te6 3.953678 1_555
La3 Te2 3.371767 1_555
La3 Te4 3.371767 1_555
La3 Te6 3.953678 1_555
La4 Te3 3.371767 1_555
La4 Te2 3.371767 1_555
La4 Te6 3.953678 1_555
La5 Te3 3.371767 1_555
La5 Te4 3.371767 1_555
La5 Te6 3.953678 1_555
La6 Te1 3.371767 1_555
La6 Te5 3.371767 1_555
La6 Te6 3.953678 1_555
La7 Te3 3.371767 1_555
La7 Te5 3.371767 1_555
La7 Te6 3.953678 1_555
La8 Te3 3.371767 1_555
La8 Te1 3.371767 1_555
La8 Te6 3.953678 1_555
La9 Te4 3.371767 1_555
La9 Te5 3.371767 1_555
La9 Te6 3.953678 1_555
La10 Te0 3.371767 1_555
La10 Te5 3.371767 1_555
La10 Te6 3.953678 1_555
La11 Te0 3.371767 1_555
La11 Te4 3.371767 1_555
La11 Te6 3.953678 1_555
La12 Te1 3.390475 1_455
La12 Te2 3.390475 1_545
La12 Te0 3.390475 1_555
La13 Te3 3.390475 1_455
La13 Te2 3.390475 1_554
La13 Te4 3.390475 1_555
La14 Te3 3.390475 1_545
La14 Te1 3.390475 1_554
La14 Te5 3.390475 1_555
La15 Te5 3.390475 1_455
La15 Te4 3.390475 1_545
La15 Te0 3.390475 1_554
La16 Te3 3.390475 1_555
La16 Te5 3.390475 1_565
La16 Te4 3.390475 1_655
La17 Te1 3.390475 1_555
La17 Te5 3.390475 1_556
La17 Te0 3.390475 1_655
La18 Te2 3.390475 1_555
La18 Te4 3.390475 1_556
La18 Te0 3.390475 1_565
La19 Te1 3.390475 1_565
La19 Te3 3.390475 1_556
La19 Te2 3.390475 1_655
C0 Mn0 1.935221 1_555
C0 Mn3 1.935229 1_555
C0 La0 2.522159 1_554
C0 La9 2.522159 1_555
C0 La13 2.696071 1_555
C0 La14 2.696071 1_555
C1 Mn2 1.935231 1_555
C1 Mn0 1.935231 1_555
C1 La1 2.522159 1_554
C1 La7 2.522159 1_455
C1 La13 2.696071 1_555
C1 La15 2.696071 1_555
C2 Mn0 1.935231 1_555
C2 Mn1 1.935231 1_555
C2 La5 2.522159 1_545
C2 La2 2.522159 1_554
C2 La14 2.696071 1_555
C2 La15 2.696071 1_555
C3 Mn2 1.935231 1_555
C3 Mn1 1.935231 1_555
C3 La6 2.522159 1_455
C3 La3 2.522159 1_545
C3 La12 2.696071 1_555
C3 La15 2.696071 1_555
C4 Mn1 1.935221 1_555
C4 Mn3 1.935229 1_555
C4 La4 2.522159 1_545
C4 La10 2.522159 1_555
C4 La12 2.696071 1_555
C4 La14 2.696071 1_555
C5 Mn2 1.935221 1_555
C5 Mn3 1.935229 1_555
C5 La8 2.522159 1_455
C5 La11 2.522159 1_555
C5 La12 2.696071 1_555
C5 La13 2.696071 1_555
C6 Mn4 1.935221 1_555
C6 Mn7 1.935229 1_555
C6 La0 2.522159 1_555
C6 La9 2.522159 1_556
C6 La17 2.696071 1_555
C6 La18 2.696071 1_555
C7 Mn4 1.935231 1_555
C7 Mn6 1.935231 1_555
C7 La7 2.522159 1_556
C7 La1 2.522159 1_655
C7 La17 2.696071 1_555
C7 La19 2.696071 1_555
C8 Mn4 1.935231 1_555
C8 Mn5 1.935231 1_555
C8 La5 2.522159 1_556
C8 La2 2.522159 1_565
C8 La18 2.696071 1_555
C8 La19 2.696071 1_555
C9 Mn5 1.935231 1_555
C9 Mn6 1.935231 1_555
C9 La6 2.522159 1_565
C9 La3 2.522159 1_655
C9 La16 2.696071 1_555
C9 La19 2.696071 1_555
C10 Mn5 1.935221 1_555
C10 Mn7 1.935229 1_555
C10 La4 2.522159 1_555
C10 La10 2.522159 1_565
C10 La16 2.696071 1_555
C10 La18 2.696071 1_555
C11 Mn6 1.935221 1_555
C11 Mn7 1.935229 1_555
C11 La8 2.522159 1_555
C11 La11 2.522159 1_655
C11 La16 2.696071 1_555
C11 La17 2.696071 1_555
