# generated using pymatgen
data_AlIO
_symmetry_space_group_name_H-M   'P 1'
_cell_length_a   5.10442200
_cell_length_b   5.85117000
_cell_length_c   9.83070500
_cell_angle_alpha   90.00000000
_cell_angle_beta   90.00000000
_cell_angle_gamma   90.00000000
_symmetry_Int_Tables_number   1
_chemical_formula_structural   AlIO
_chemical_formula_sum   'Al4 I4 O4'
_cell_volume   293.61210191
_cell_formula_units_Z   4
loop_
 _symmetry_equiv_pos_site_id
 _symmetry_equiv_pos_as_xyz
  1  'x, y, z'
loop_
 _atom_site_type_symbol
 _atom_site_label
 _atom_site_symmetry_multiplicity
 _atom_site_fract_x
 _atom_site_fract_y
 _atom_site_fract_z
 _atom_site_occupancy
  Al  Al0  1  0.99040900  0.09879500  0.07629900  1
  Al  Al1  1  0.49040900  0.90120500  0.92370100  1
  Al  Al2  1  0.99040900  0.59879500  0.92370100  1
  Al  Al3  1  0.49040900  0.40120500  0.07629900  1
  I  I0  1  0.09243600  0.99853500  0.31579300  1
  I  I1  1  0.59243600  0.00146500  0.68420700  1
  I  I2  1  0.09243600  0.49853500  0.68420700  1
  I  I3  1  0.59243600  0.50146500  0.31579300  1
  O  O0  1  0.14615600  0.37199000  0.02758800  1
  O  O1  1  0.64615600  0.62801000  0.97241200  1
  O  O2  1  0.14615600  0.87199000  0.97241200  1
  O  O3  1  0.64615600  0.12801000  0.02758800  1
loop_
_geom_bond_atom_site_label_1
_geom_bond_atom_site_label_2
_geom_bond_distance
_geom_bond_site_symmetry_2
Al0 O3 1.829297 1_555
Al0 O0 1.848396 1_655
Al0 O2 1.853690 1_644
Al0 I0 2.481641 1_645
Al1 O2 1.829297 1_555
Al1 O1 1.848396 1_555
Al1 O3 1.853690 1_566
Al1 I1 2.481641 1_565
Al2 O1 1.829297 1_555
Al2 O2 1.848396 1_655
Al2 O0 1.853690 1_656
Al2 I2 2.481641 1_655
Al3 O0 1.829297 1_555
Al3 O3 1.848396 1_555
Al3 O1 1.853690 1_554
Al3 I3 2.481641 1_555
