# generated using pymatgen
data_Mg6NiBi
_symmetry_space_group_name_H-M   'P 1'
_cell_length_a   4.86060000
_cell_length_b   6.47051000
_cell_length_c   10.73996200
_cell_angle_alpha   90.00000000
_cell_angle_beta   90.00000000
_cell_angle_gamma   90.00000000
_symmetry_Int_Tables_number   1
_chemical_formula_structural   Mg6NiBi
_chemical_formula_sum   'Mg12 Ni2 Bi2'
_cell_volume   337.77782901
_cell_formula_units_Z   2
loop_
 _symmetry_equiv_pos_site_id
 _symmetry_equiv_pos_as_xyz
  1  'x, y, z'
loop_
 _atom_site_type_symbol
 _atom_site_label
 _atom_site_symmetry_multiplicity
 _atom_site_fract_x
 _atom_site_fract_y
 _atom_site_fract_z
 _atom_site_occupancy
  Mg  Mg0  1  0.50000000  0.24686600  0.58577400  1
  Mg  Mg1  1  0.50000000  0.75313400  0.58577400  1
  Mg  Mg2  1  0.00000000  0.27643000  0.41253400  1
  Mg  Mg3  1  0.00000000  0.72357000  0.41253400  1
  Mg  Mg4  1  0.00000000  0.00000000  0.67475600  1
  Mg  Mg5  1  0.00000000  0.00000000  0.15942900  1
  Mg  Mg6  1  0.50000000  0.74686600  0.08577400  1
  Mg  Mg7  1  0.50000000  0.25313400  0.08577400  1
  Mg  Mg8  1  0.00000000  0.77643000  0.91253400  1
  Mg  Mg9  1  0.00000000  0.22357000  0.91253400  1
  Mg  Mg10  1  0.00000000  0.50000000  0.17475600  1
  Mg  Mg11  1  0.00000000  0.50000000  0.65942900  1
  Ni  Ni0  1  0.50000000  0.00000000  0.83427200  1
  Ni  Ni1  1  0.50000000  0.50000000  0.33427200  1
  Bi  Bi0  1  0.50000000  0.00000000  0.33493100  1
  Bi  Bi1  1  0.50000000  0.50000000  0.83493100  1
loop_
_geom_bond_atom_site_label_1
_geom_bond_atom_site_label_2
_geom_bond_distance
_geom_bond_site_symmetry_2
Mg0 Mg11 3.035598 1_655
Mg0 Mg11 3.035598 1_555
Mg0 Mg4 3.061237 1_555
Mg0 Mg4 3.061237 1_655
Mg0 Mg2 3.066717 1_655
Mg0 Mg2 3.066717 1_555
Mg0 Ni0 3.110359 1_555
Mg0 Ni1 3.158923 1_555
Mg0 Mg1 3.194698 1_545
Mg0 Mg1 3.275812 1_555
Mg1 Mg11 3.035598 1_655
Mg1 Mg11 3.035598 1_555
Mg1 Mg4 3.061237 1_565
Mg1 Mg4 3.061237 1_665
Mg1 Mg3 3.066717 1_555
Mg1 Mg3 3.066717 1_655
Mg1 Ni0 3.110359 1_565
Mg1 Ni1 3.158923 1_555
Mg2 Ni1 2.950515 1_555
Mg2 Ni1 2.950515 1_455
Mg3 Ni1 2.950515 1_555
Mg3 Ni1 2.950515 1_455
Mg4 Ni0 2.973449 1_455
Mg4 Ni0 2.973449 1_555
Mg5 Mg7 3.035598 1_455
Mg5 Mg7 3.035598 1_555
Mg5 Mg6 3.035598 1_545
Mg5 Mg6 3.035598 1_445
Mg6 Mg8 3.066717 1_654
Mg6 Mg8 3.066717 1_554
Mg6 Ni1 3.110359 1_555
Mg6 Ni0 3.158923 1_564
Mg6 Mg7 3.194698 1_555
Mg6 Mg7 3.275812 1_565
Mg7 Mg9 3.066717 1_554
Mg7 Mg9 3.066717 1_654
Mg7 Ni1 3.110359 1_555
Mg7 Ni0 3.158923 1_554
Mg8 Ni0 2.950515 1_565
Mg8 Ni0 2.950515 1_465
Mg9 Ni0 2.950515 1_455
Mg9 Ni0 2.950515 1_555
Mg10 Ni1 2.973449 1_455
Mg10 Ni1 2.973449 1_555
Mg10 Mg6 3.061237 1_455
Mg10 Mg6 3.061237 1_555
Mg10 Mg7 3.061237 1_555
Mg10 Mg7 3.061237 1_455
Bi0 Mg5 3.075573 1_655
Bi0 Mg5 3.075573 1_555
Bi0 Mg3 3.130535 1_645
Bi0 Mg3 3.130535 1_545
Bi0 Mg2 3.130535 1_655
Bi0 Mg2 3.130535 1_555
Bi0 Mg0 3.131996 1_555
Bi0 Mg1 3.131996 1_545
Bi0 Mg7 3.137415 1_555
Bi0 Mg6 3.137415 1_545
Bi0 Ni1 3.235263 1_555
Bi0 Ni1 3.235263 1_545
Bi1 Mg11 3.075573 1_555
Bi1 Mg11 3.075573 1_655
Bi1 Mg9 3.130535 1_555
Bi1 Mg9 3.130535 1_655
Bi1 Mg8 3.130535 1_655
Bi1 Mg8 3.130535 1_555
Bi1 Mg6 3.131996 1_556
Bi1 Mg7 3.131996 1_556
Bi1 Mg1 3.137415 1_555
Bi1 Mg0 3.137415 1_555
Bi1 Ni0 3.235263 1_565
Bi1 Ni0 3.235263 1_555
