# generated using pymatgen
data_ZnFe2(PO4)2
_symmetry_space_group_name_H-M   'P 1'
_cell_length_a   8.61678748
_cell_length_b   8.61678748
_cell_length_c   17.05569601
_cell_angle_alpha   62.54307502
_cell_angle_beta   62.54307502
_cell_angle_gamma   34.02286478
_symmetry_Int_Tables_number   1
_chemical_formula_structural   ZnFe2(PO4)2
_chemical_formula_sum   'Zn4 Fe8 P8 O32'
_cell_volume   620.75316325
_cell_formula_units_Z   4
loop_
 _symmetry_equiv_pos_site_id
 _symmetry_equiv_pos_as_xyz
  1  'x, y, z'
loop_
 _atom_site_type_symbol
 _atom_site_label
 _atom_site_symmetry_multiplicity
 _atom_site_fract_x
 _atom_site_fract_y
 _atom_site_fract_z
 _atom_site_occupancy
  Zn  Zn0  1  0.45703500  0.85923000  0.60597000  1
  Zn  Zn1  1  0.14077000  0.54296500  0.39403000  1
  Zn  Zn2  1  0.86170700  0.45368000  0.10780900  1
  Zn  Zn3  1  0.54632000  0.13829300  0.89219100  1
  Fe  Fe0  1  0.21202900  0.59989600  0.71686100  1
  Fe  Fe1  1  0.40010400  0.78797100  0.28313900  1
  Fe  Fe2  1  0.78902000  0.39559100  0.78378000  1
  Fe  Fe3  1  0.49573500  0.99589500  0.75219600  1
  Fe  Fe4  1  0.60440900  0.21098000  0.21622000  1
  Fe  Fe5  1  0.55198300  0.44801700  0.00000000  1
  Fe  Fe6  1  0.45095900  0.54904100  0.50000000  1
  Fe  Fe7  1  0.00410500  0.50426500  0.24780400  1
  P  P0  1  0.07145300  0.50063200  0.61029400  1
  P  P1  1  0.77349500  0.17813200  0.36551500  1
  P  P2  1  0.92970200  0.49385400  0.89125700  1
  P  P3  1  0.17997100  0.77226100  0.86619900  1
  P  P4  1  0.50614600  0.07029800  0.10874300  1
  P  P5  1  0.49936800  0.92854700  0.38970600  1
  P  P6  1  0.22773900  0.82002900  0.13380100  1
  P  P7  1  0.82186800  0.22650500  0.63448500  1
  O  O0  1  0.70594000  0.81687500  0.85435400  1
  O  O1  1  0.71890300  0.44360800  0.66911100  1
  O  O2  1  0.82170900  0.70226200  0.35440900  1
  O  O3  1  0.81092300  0.35015900  0.30669500  1
  O  O4  1  0.19697900  0.33969300  0.81709400  1
  O  O5  1  0.66273500  0.21179900  0.46370300  1
  O  O6  1  0.64984100  0.18907700  0.69330500  1
  O  O7  1  0.86497500  0.06533600  0.85331800  1
  O  O8  1  0.18779800  0.64684000  0.19225900  1
  O  O9  1  0.55639200  0.28109700  0.33088900  1
  O  O10  1  0.82832600  0.40007000  0.89628100  1
  O  O11  1  0.57823600  0.00184700  0.02088300  1
  O  O12  1  0.28293800  0.55419100  0.83070900  1
  O  O13  1  0.06682500  0.86263400  0.35308600  1
  O  O14  1  0.29773800  0.17829100  0.64559100  1
  O  O15  1  0.17497800  0.59274000  0.60467200  1
  O  O16  1  0.00018800  0.57790700  0.52264000  1
  O  O17  1  0.35316000  0.81220200  0.80774100  1
  O  O18  1  0.40726000  0.82502200  0.39532800  1
  O  O19  1  0.42209300  0.99981200  0.47736000  1
  O  O20  1  0.93466400  0.13502500  0.14668200  1
  O  O21  1  0.34588900  0.19097400  0.31486500  1
  O  O22  1  0.13736600  0.93317500  0.64691400  1
  O  O23  1  0.21335800  0.66086100  0.96437300  1
  O  O24  1  0.44580900  0.71706200  0.16929100  1
  O  O25  1  0.18312500  0.29406000  0.14564600  1
  O  O26  1  0.99815300  0.42176400  0.97911700  1
  O  O27  1  0.66030700  0.80302100  0.18290600  1
  O  O28  1  0.80902600  0.65411100  0.68513500  1
  O  O29  1  0.78820100  0.33726500  0.53629700  1
  O  O30  1  0.33913900  0.78664200  0.03562700  1
  O  O31  1  0.59993000  0.17167400  0.10371900  1
loop_
_geom_bond_atom_site_label_1
_geom_bond_atom_site_label_2
_geom_bond_distance
_geom_bond_site_symmetry_2
Fe0 O12 2.070955 1_555
Fe0 O15 2.114673 1_555
Fe0 O22 2.137791 1_555
Fe0 O6 2.168306 1_555
Fe0 O4 2.170098 1_555
Fe1 O24 2.070955 1_555
Fe1 O18 2.114673 1_555
Fe1 O13 2.137791 1_555
Fe1 O3 2.168306 1_555
Fe1 O27 2.170098 1_555
Fe2 O1 2.071303 1_555
Fe2 O7 2.109337 1_555
Fe2 O10 2.118296 1_555
Fe2 O28 2.176140 1_555
Fe2 O17 2.178994 1_555
Fe3 O28 2.085534 1_555
Fe3 O4 2.093559 1_565
Fe3 O14 2.113633 1_565
Fe3 O0 2.120482 1_555
Fe3 O17 2.383172 1_555
Fe3 O6 2.536806 1_565
Fe4 O9 2.071303 1_555
Fe4 O20 2.109337 1_555
Fe4 O31 2.118296 1_555
Fe4 O21 2.176140 1_555
Fe4 O8 2.178994 1_555
Fe5 O30 1.995849 1_555
Fe5 O23 1.995849 1_554
Fe5 O10 2.031966 1_554
Fe5 O31 2.031966 1_555
Fe6 O29 1.996194 1_555
Fe6 O5 1.996194 1_555
Fe6 O18 2.050538 1_555
Fe6 O15 2.050538 1_555
Fe7 O21 2.085534 1_555
Fe7 O27 2.093559 1_455
Fe7 O2 2.113633 1_455
Fe7 O25 2.120482 1_555
Fe7 O8 2.383172 1_555
Fe7 O3 2.536806 1_455
O0 P2 1.571197 1_555
O0 Zn3 2.119925 1_565
O1 P7 1.555611 1_555
O1 Zn0 2.089508 1_555
O2 P5 1.562758 1_555
O2 Zn1 2.121728 1_655
O3 P1 1.558999 1_555
O4 P2 1.568600 1_455
O5 P1 1.521415 1_555
O6 P7 1.558999 1_555
O7 P3 1.571302 1_645
O7 Zn3 2.053869 1_555
O8 P6 1.581906 1_555
O9 P1 1.555611 1_555
O9 Zn1 2.089508 1_555
O10 P2 1.568671 1_555
O11 P4 1.525987 1_555
O11 Zn3 1.979038 1_554
O12 P3 1.573061 1_555
O12 Zn3 2.083382 1_555
O13 P1 1.572046 1_465
O13 Zn1 2.051394 1_555
O14 P0 1.562758 1_555
O14 Zn0 2.121728 1_545
O15 P0 1.568253 1_555
O16 P0 1.518652 1_555
O16 Zn1 1.980848 1_555
O17 P3 1.581906 1_555
O18 P5 1.568253 1_555
O19 P5 1.518652 1_555
O19 Zn0 1.980848 1_555
O20 P6 1.571302 1_645
O20 Zn2 2.053869 1_555
O21 P5 1.558685 1_545
O22 P7 1.572046 1_465
O22 Zn0 2.051394 1_555
O23 P3 1.520578 1_555
O24 P6 1.573061 1_555
O24 Zn2 2.083382 1_555
O25 P4 1.571197 1_555
O25 Zn2 2.119925 1_455
O26 P2 1.525987 1_555
O26 Zn2 1.979038 1_556
O27 P4 1.568600 1_565
O28 P0 1.558685 1_655
O29 P7 1.521415 1_555
O30 P6 1.520578 1_555
O31 P4 1.568671 1_555
