# generated using pymatgen
data_CaHfTlF7
_symmetry_space_group_name_H-M   'P 1'
_cell_length_a   6.63535962
_cell_length_b   6.63535962
_cell_length_c   8.60434900
_cell_angle_alpha   90.00000000
_cell_angle_beta   90.00000000
_cell_angle_gamma   116.76337588
_symmetry_Int_Tables_number   1
_chemical_formula_structural   CaHfTlF7
_chemical_formula_sum   'Ca2 Hf2 Tl2 F14'
_cell_volume   338.24941041
_cell_formula_units_Z   2
loop_
 _symmetry_equiv_pos_site_id
 _symmetry_equiv_pos_as_xyz
  1  'x, y, z'
loop_
 _atom_site_type_symbol
 _atom_site_label
 _atom_site_symmetry_multiplicity
 _atom_site_fract_x
 _atom_site_fract_y
 _atom_site_fract_z
 _atom_site_occupancy
  Ca  Ca0  1  0.30948500  0.69051500  0.75000000  1
  Ca  Ca1  1  0.69051500  0.30948500  0.25000000  1
  Hf  Hf0  1  0.69305700  0.30694300  0.75000000  1
  Hf  Hf1  1  0.30694300  0.69305700  0.25000000  1
  Tl  Tl0  1  0.00000000  0.00000000  0.00000000  1
  Tl  Tl1  1  0.00000000  0.00000000  0.50000000  1
  F  F0  1  0.35113300  0.06626100  0.75000000  1
  F  F1  1  0.64886700  0.93373900  0.25000000  1
  F  F2  1  0.93373900  0.64886700  0.75000000  1
  F  F3  1  0.06626100  0.35113300  0.25000000  1
  F  F4  1  0.51235100  0.48764900  0.75000000  1
  F  F5  1  0.48764900  0.51235100  0.25000000  1
  F  F6  1  0.70279800  0.29720200  0.98414700  1
  F  F7  1  0.29720200  0.70279800  0.01585300  1
  F  F8  1  0.29720200  0.70279800  0.48414700  1
  F  F9  1  0.70279800  0.29720200  0.51585300  1
  F  F10  1  0.67117500  0.97948700  0.75000000  1
  F  F11  1  0.32882500  0.02051300  0.25000000  1
  F  F12  1  0.02051300  0.32882500  0.75000000  1
  F  F13  1  0.97948700  0.67117500  0.25000000  1
loop_
_geom_bond_atom_site_label_1
_geom_bond_atom_site_label_2
_geom_bond_distance
_geom_bond_site_symmetry_2
Ca0 F7 2.291700 1_556
Ca0 F8 2.291700 1_555
Ca0 F4 2.292549 1_555
Ca0 F12 2.300412 1_555
Ca0 F10 2.300412 1_555
Ca0 F0 2.381584 1_565
Ca0 F2 2.381584 1_455
Ca1 F6 2.291700 1_554
Ca1 F9 2.291700 1_555
Ca1 F5 2.292549 1_555
Ca1 F13 2.300412 1_555
Ca1 F11 2.300412 1_555
Ca1 F3 2.381584 1_655
Ca1 F1 2.381584 1_545
F0 Hf0 2.105866 1_555
F1 Hf1 2.105866 1_555
F2 Hf0 2.105866 1_555
F3 Hf1 2.105866 1_555
F4 Hf0 2.042123 1_555
F5 Hf1 2.042123 1_555
F6 Hf0 2.017688 1_555
F7 Hf1 2.017688 1_555
F8 Hf1 2.017688 1_555
F9 Hf0 2.017688 1_555
F10 Hf0 2.111390 1_565
F11 Hf1 2.111390 1_545
F12 Hf0 2.111390 1_455
F13 Hf1 2.111390 1_655
