# generated using pymatgen
data_BaY4Si5O17
_symmetry_space_group_name_H-M   'P 1'
_cell_length_a   20.02954200
_cell_length_b   5.59546500
_cell_length_c   6.94933943
_cell_angle_alpha   73.31625771
_cell_angle_beta   90.00000000
_cell_angle_gamma   90.00000000
_symmetry_Int_Tables_number   1
_chemical_formula_structural   BaY4Si5O17
_chemical_formula_sum   'Ba2 Y8 Si10 O34'
_cell_volume   746.05820545
_cell_formula_units_Z   2
loop_
 _symmetry_equiv_pos_site_id
 _symmetry_equiv_pos_as_xyz
  1  'x, y, z'
loop_
 _atom_site_type_symbol
 _atom_site_label
 _atom_site_symmetry_multiplicity
 _atom_site_fract_x
 _atom_site_fract_y
 _atom_site_fract_z
 _atom_site_occupancy
  Ba  Ba0  1  0.75000000  0.75576300  0.80959900  1
  Ba  Ba1  1  0.25000000  0.24423700  0.19040100  1
  Y  Y0  1  0.53877500  0.69824000  0.11745900  1
  Y  Y1  1  0.03877500  0.30176000  0.88254100  1
  Y  Y2  1  0.46122500  0.30176000  0.88254100  1
  Y  Y3  1  0.96122500  0.69824000  0.11745900  1
  Y  Y4  1  0.65816700  0.35230800  0.48180500  1
  Y  Y5  1  0.15816700  0.64769200  0.51819500  1
  Y  Y6  1  0.34183300  0.64769200  0.51819500  1
  Y  Y7  1  0.84183300  0.35230800  0.48180500  1
  Si  Si0  1  0.75000000  0.93657200  0.28098700  1
  Si  Si1  1  0.25000000  0.06342800  0.71901300  1
  Si  Si2  1  0.63574200  0.22866200  0.00795500  1
  Si  Si3  1  0.13574200  0.77133800  0.99204500  1
  Si  Si4  1  0.36425800  0.77133800  0.99204500  1
  Si  Si5  1  0.86425800  0.22866200  0.00795500  1
  Si  Si6  1  0.56073600  0.80383900  0.59479500  1
  Si  Si7  1  0.06073600  0.19616100  0.40520500  1
  Si  Si8  1  0.43926400  0.19616100  0.40520500  1
  Si  Si9  1  0.93926400  0.80383900  0.59479500  1
  O  O0  1  0.75000000  0.13292600  0.41635700  1
  O  O1  1  0.25000000  0.86707400  0.58364300  1
  O  O2  1  0.75000000  0.64406000  0.41774900  1
  O  O3  1  0.25000000  0.35594000  0.58225100  1
  O  O4  1  0.68391800  0.98302100  0.13058500  1
  O  O5  1  0.18391800  0.01697900  0.86941500  1
  O  O6  1  0.31608200  0.01697900  0.86941500  1
  O  O7  1  0.81608200  0.98302100  0.13058500  1
  O  O8  1  0.67328000  0.36185200  0.79710000  1
  O  O9  1  0.17328000  0.63814800  0.20290000  1
  O  O10  1  0.32672000  0.63814800  0.20290000  1
  O  O11  1  0.82672000  0.36185200  0.79710000  1
  O  O12  1  0.56357400  0.10201900  0.98328500  1
  O  O13  1  0.06357400  0.89798100  0.01671500  1
  O  O14  1  0.43642600  0.89798100  0.01671500  1
  O  O15  1  0.93642600  0.10201900  0.98328500  1
  O  O16  1  0.62947600  0.42036600  0.14850300  1
  O  O17  1  0.12947600  0.57963400  0.85149700  1
  O  O18  1  0.37052400  0.57963400  0.85149700  1
  O  O19  1  0.87052400  0.42036600  0.14850300  1
  O  O20  1  0.62782800  0.95807500  0.61492100  1
  O  O21  1  0.12782800  0.04192500  0.38507900  1
  O  O22  1  0.37217200  0.04192500  0.38507900  1
  O  O23  1  0.87217200  0.95807500  0.61492100  1
  O  O24  1  0.53421800  0.62547600  0.81246200  1
  O  O25  1  0.03421800  0.37452400  0.18753800  1
  O  O26  1  0.46578200  0.37452400  0.18753800  1
  O  O27  1  0.96578200  0.62547600  0.81246200  1
  O  O28  1  0.50000000  0.00000000  0.50000000  1
  O  O29  1  0.00000000  0.00000000  0.50000000  1
  O  O30  1  0.57332700  0.63127800  0.44024000  1
  O  O31  1  0.07332700  0.36872200  0.55976000  1
  O  O32  1  0.42667300  0.36872200  0.55976000  1
  O  O33  1  0.92667300  0.63127800  0.44024000  1
loop_
_geom_bond_atom_site_label_1
_geom_bond_atom_site_label_2
_geom_bond_distance
_geom_bond_site_symmetry_2
Ba0 O8 2.708678 1_555
Ba0 O11 2.708678 1_555
Ba0 O23 2.867138 1_555
Ba0 O20 2.867138 1_555
Ba0 O0 2.934351 1_565
Ba0 O2 2.963645 1_555
Ba0 O7 3.158056 1_556
Ba0 O4 3.158056 1_556
Ba1 O10 2.708678 1_555
Ba1 O9 2.708678 1_555
Ba1 O21 2.867138 1_555
Ba1 O22 2.867138 1_555
Ba1 O1 2.934351 1_545
Ba1 O3 2.963645 1_555
Ba1 O5 3.158056 1_554
Ba1 O6 3.158056 1_554
O0 Si0 1.638767 1_545
O0 Y7 2.327572 1_555
O0 Y4 2.327572 1_555
O1 Si1 1.638767 1_565
O1 Y5 2.327572 1_555
O1 Y6 2.327572 1_555
O2 Si0 1.639823 1_555
O2 Y7 2.414376 1_555
O2 Y4 2.414376 1_555
O3 Si1 1.639823 1_555
O3 Y5 2.414376 1_555
O3 Y6 2.414376 1_555
O4 Si0 1.660091 1_555
O4 Si2 1.695285 1_565
O5 Si1 1.660091 1_555
O5 Si3 1.695285 1_545
O6 Si1 1.660091 1_555
O6 Si4 1.695285 1_545
O7 Si0 1.660091 1_555
O7 Si5 1.695285 1_565
O8 Si2 1.625058 1_556
O8 Y4 2.227679 1_555
O9 Si3 1.625058 1_554
O9 Y5 2.227679 1_555
O10 Si4 1.625058 1_554
O10 Y6 2.227679 1_555
O11 Si5 1.625058 1_556
O11 Y7 2.227679 1_555
O12 Si2 1.640349 1_556
O12 Y0 2.238553 1_546
O12 Y2 2.343611 1_555
O13 Si3 1.640349 1_554
O13 Y1 2.238553 1_564
O13 Y3 2.343611 1_455
O14 Si4 1.640349 1_554
O14 Y2 2.238553 1_564
O14 Y0 2.343611 1_555
O15 Si5 1.640349 1_556
O15 Y3 2.238553 1_546
O15 Y1 2.343611 1_655
O16 Si2 1.649823 1_555
O16 Y4 2.309485 1_555
O16 Y0 2.360477 1_555
O17 Si3 1.649823 1_555
O17 Y5 2.309485 1_555
O17 Y1 2.360477 1_555
O18 Si4 1.649823 1_555
O18 Y6 2.309485 1_555
O18 Y2 2.360477 1_555
O19 Si5 1.649823 1_555
O19 Y7 2.309485 1_555
O19 Y3 2.360477 1_555
O20 Si6 1.624664 1_555
O20 Y4 2.217975 1_565
O21 Si7 1.624664 1_555
O21 Y5 2.217975 1_545
O22 Si8 1.624664 1_555
O22 Y6 2.217975 1_545
O23 Si9 1.624664 1_555
O23 Y7 2.217975 1_565
O24 Si6 1.642998 1_555
O24 Y2 2.269168 1_555
O24 Y0 2.272002 1_556
O25 Si7 1.642998 1_555
O25 Y3 2.269168 1_455
O25 Y1 2.272002 1_554
O26 Si8 1.642998 1_555
O26 Y0 2.269168 1_555
O26 Y2 2.272002 1_554
O27 Si9 1.642998 1_555
O27 Y1 2.269168 1_655
O27 Y3 2.272002 1_556
O28 Si8 1.644220 1_555
O28 Si6 1.644220 1_545
O29 Si7 1.644220 1_555
O29 Si9 1.644220 1_445
O30 Si6 1.656792 1_555
O30 Y4 2.269098 1_555
O30 Y0 2.273396 1_555
O31 Si7 1.656792 1_555
O31 Y5 2.269098 1_555
O31 Y1 2.273396 1_555
O32 Si8 1.656792 1_555
O32 Y6 2.269098 1_555
O32 Y2 2.273396 1_555
O33 Si9 1.656792 1_555
O33 Y7 2.269098 1_555
O33 Y3 2.273396 1_555
