# generated using pymatgen
data_LaZr2F11
_symmetry_space_group_name_H-M   'P 1'
_cell_length_a   8.47537805
_cell_length_b   8.47536240
_cell_length_c   8.47537693
_cell_angle_alpha   125.16802473
_cell_angle_beta   106.51757143
_cell_angle_gamma   98.03197868
_symmetry_Int_Tables_number   1
_chemical_formula_structural   LaZr2F11
_chemical_formula_sum   'La2 Zr4 F22'
_cell_volume   439.91382448
_cell_formula_units_Z   2
loop_
 _symmetry_equiv_pos_site_id
 _symmetry_equiv_pos_as_xyz
  1  'x, y, z'
loop_
 _atom_site_type_symbol
 _atom_site_label
 _atom_site_symmetry_multiplicity
 _atom_site_fract_x
 _atom_site_fract_y
 _atom_site_fract_z
 _atom_site_occupancy
  La  La0  1  0.74999587  0.74999315  -0.00001203  1
  La  La1  1  0.25000333  0.25000533  0.00001049  1
  Zr  Zr0  1  0.68056266  0.13159680  0.81216134  1
  Zr  Zr1  1  0.31943784  0.86840214  0.18783912  1
  Zr  Zr2  1  0.18055829  0.36840186  0.54896523  1
  Zr  Zr3  1  0.81944123  0.63160088  0.45103594  1
  F  F0  1  0.50000034  -0.00000008  0.50000066  1
  F  F1  1  -0.00000031  0.50000053  0.49999947  1
  F  F2  1  0.78073794  0.36941480  0.15015321  1
  F  F3  1  0.21926121  0.63058374  0.84984560  1
  F  F4  1  0.28073955  0.13058624  0.41132312  1
  F  F5  1  0.71926080  0.86941382  0.58867702  1
  F  F6  1  0.70571503  0.39100694  0.84062694  1
  F  F7  1  0.55038414  0.86509019  0.15938308  1
  F  F8  1  0.94961577  0.10898773  0.31470531  1
  F  F9  1  0.79428678  0.63491098  0.68528981  1
  F  F10  1  0.29428454  0.60899473  0.15937442  1
  F  F11  1  0.44961707  0.13490921  0.84061682  1
  F  F12  1  0.05038217  0.89100946  0.68529204  1
  F  F13  1  0.20571466  0.36509017  0.31471162  1
  F  F14  1  0.94939455  0.23795865  0.91723276  1
  F  F15  1  0.32071663  0.03216344  0.08276600  1
  F  F16  1  0.17928505  0.26204942  0.71144822  1
  F  F17  1  0.55060375  0.46783777  0.28855450  1
  F  F18  1  0.05060476  0.76204127  0.08276810  1
  F  F19  1  0.67928396  0.96783561  0.91723543  1
  F  F20  1  0.82071597  0.73795221  0.28855115  1
  F  F21  1  0.44939642  0.53216301  0.71144561  1
loop_
_geom_bond_atom_site_label_1
_geom_bond_atom_site_label_2
_geom_bond_distance
_geom_bond_site_symmetry_2
F0 Zr0 2.099316 1_555
F0 Zr1 2.099320 1_545
F1 Zr2 2.099312 1_555
F1 Zr3 2.099316 1_455
F2 Zr3 2.083600 1_555
F2 Zr0 2.115899 1_554
F3 Zr2 2.083578 1_555
F3 Zr1 2.115907 1_556
F4 Zr1 2.083609 1_545
F4 Zr2 2.115944 1_555
F5 Zr0 2.083604 1_565
F5 Zr3 2.115922 1_555
F6 Zr0 2.041133 1_555
F6 La0 2.425074 1_556
F7 Zr1 2.041123 1_555
F7 La0 2.425165 1_555
F8 Zr2 2.041119 1_655
F8 La0 2.425104 1_545
F9 Zr3 2.041127 1_555
F9 La0 2.425072 1_556
F10 Zr1 2.041113 1_555
F10 La1 2.425093 1_555
F11 Zr0 2.041115 1_555
F11 La1 2.425173 1_556
F12 Zr3 2.041092 1_455
F12 La1 2.425113 1_566
F13 Zr2 2.041124 1_555
F13 La1 2.425080 1_555
F14 Zr0 2.035815 1_555
F14 La1 2.412922 1_656
F15 Zr1 2.035839 1_545
F15 La1 2.412848 1_555
F16 Zr2 2.035841 1_555
F16 La1 2.412913 1_556
F17 Zr3 2.035847 1_555
F17 La1 2.412812 1_555
F18 Zr1 2.035824 1_555
F18 La0 2.412919 1_455
F19 Zr0 2.035845 1_565
F19 La0 2.412833 1_556
F20 Zr3 2.035849 1_555
F20 La0 2.412903 1_555
F21 Zr2 2.035850 1_555
F21 La0 2.412803 1_556
