# generated using pymatgen
data_K2Tc9O27F11
_symmetry_space_group_name_H-M   'P 1'
_cell_length_a   8.56448988
_cell_length_b   14.66429329
_cell_length_c   25.70096450
_cell_angle_alpha   90.00000000
_cell_angle_beta   92.69839183
_cell_angle_gamma   90.00000000
_symmetry_Int_Tables_number   1
_chemical_formula_structural   K2Tc9O27F11
_chemical_formula_sum   'K8 Tc36 O108 F44'
_cell_volume   3224.26141605
_cell_formula_units_Z   4
loop_
 _symmetry_equiv_pos_site_id
 _symmetry_equiv_pos_as_xyz
  1  'x, y, z'
loop_
 _atom_site_type_symbol
 _atom_site_label
 _atom_site_symmetry_multiplicity
 _atom_site_fract_x
 _atom_site_fract_y
 _atom_site_fract_z
 _atom_site_occupancy
  K  K0  1  0.74618862  0.44927095  0.77638305  1
  K  K1  1  0.25381138  0.94927095  0.72361695  1
  K  K2  1  0.25381138  0.55072905  0.22361695  1
  K  K3  1  0.74618862  0.05072905  0.27638305  1
  K  K4  1  0.68553111  0.71153947  0.50125207  1
  K  K5  1  0.31446889  0.21153947  0.99874793  1
  K  K6  1  0.31446889  0.28846053  0.49874793  1
  K  K7  1  0.68553111  0.78846053  0.00125207  1
  Tc  Tc0  1  0.03622690  0.66457774  0.69012015  1
  Tc  Tc1  1  0.96377310  0.16457774  0.80987985  1
  Tc  Tc2  1  0.96377310  0.33542226  0.30987985  1
  Tc  Tc3  1  0.03622690  0.83542226  0.19012015  1
  Tc  Tc4  1  0.44920570  0.67658886  0.66834496  1
  Tc  Tc5  1  0.55079430  0.17658886  0.83165504  1
  Tc  Tc6  1  0.55079430  0.32341114  0.33165504  1
  Tc  Tc7  1  0.44920570  0.82341114  0.16834496  1
  Tc  Tc8  1  0.18360513  0.59427562  0.56519629  1
  Tc  Tc9  1  0.81639487  0.09427562  0.93480371  1
  Tc  Tc10  1  0.81639487  0.40572438  0.43480371  1
  Tc  Tc11  1  0.18360513  0.90572438  0.06519629  1
  Tc  Tc12  1  0.42125153  0.64273420  0.86152105  1
  Tc  Tc13  1  0.57874847  0.14273420  0.63847895  1
  Tc  Tc14  1  0.57874847  0.35726580  0.13847895  1
  Tc  Tc15  1  0.42125153  0.85726580  0.36152105  1
  Tc  Tc16  1  0.00850892  0.65754615  0.88547530  1
  Tc  Tc17  1  0.99149108  0.15754615  0.61452470  1
  Tc  Tc18  1  0.99149108  0.34245385  0.11452470  1
  Tc  Tc19  1  0.00850892  0.84245385  0.38547530  1
  Tc  Tc20  1  0.19464170  0.43584202  0.87740501  1
  Tc  Tc21  1  0.80535830  0.93584202  0.62259499  1
  Tc  Tc22  1  0.80535830  0.56415798  0.12259499  1
  Tc  Tc23  1  0.19464170  0.06415798  0.37740501  1
  Tc  Tc24  1  0.70595782  0.41273622  0.95178130  1
  Tc  Tc25  1  0.29404218  0.91273622  0.54821870  1
  Tc  Tc26  1  0.29404218  0.58726378  0.04821870  1
  Tc  Tc27  1  0.70595782  0.08726378  0.45178130  1
  Tc  Tc28  1  0.71895539  0.43850295  0.59568606  1
  Tc  Tc29  1  0.28104461  0.93850295  0.90431394  1
  Tc  Tc30  1  0.28104461  0.56149705  0.40431394  1
  Tc  Tc31  1  0.71895539  0.06149705  0.09568606  1
  Tc  Tc32  1  0.25965415  0.36556071  0.70121714  1
  Tc  Tc33  1  0.74034585  0.86556071  0.79878286  1
  Tc  Tc34  1  0.74034585  0.63443929  0.29878286  1
  Tc  Tc35  1  0.25965415  0.13443929  0.20121714  1
  O  O0  1  0.08876452  0.76188862  0.72327138  1
  O  O1  1  0.91123548  0.26188862  0.77672862  1
  O  O2  1  0.91123548  0.23811138  0.27672862  1
  O  O3  1  0.08876452  0.73811138  0.22327138  1
  O  O4  1  0.94993708  0.59651211  0.73453050  1
  O  O5  1  0.05006292  0.09651211  0.76546950  1
  O  O6  1  0.05006292  0.40348789  0.26546950  1
  O  O7  1  0.94993708  0.90348789  0.23453050  1
  O  O8  1  0.88667641  0.69952997  0.64848798  1
  O  O9  1  0.11332359  0.19952997  0.85151202  1
  O  O10  1  0.11332359  0.30047003  0.35151202  1
  O  O11  1  0.88667641  0.80047003  0.14848798  1
  O  O12  1  0.59369191  0.61420292  0.69950462  1
  O  O13  1  0.40630809  0.11420292  0.80049538  1
  O  O14  1  0.40630809  0.38579708  0.30049538  1
  O  O15  1  0.59369191  0.88579708  0.19950462  1
  O  O16  1  0.42527083  0.77064094  0.70670423  1
  O  O17  1  0.57472917  0.27064094  0.79329577  1
  O  O18  1  0.57472917  0.22935906  0.29329577  1
  O  O19  1  0.42527083  0.72935906  0.20670423  1
  O  O20  1  0.53181926  0.72005717  0.61423739  1
  O  O21  1  0.46818074  0.22005717  0.88576261  1
  O  O22  1  0.46818074  0.27994283  0.38576261  1
  O  O23  1  0.53181926  0.77994283  0.11423739  1
  O  O24  1  0.31928503  0.65121334  0.53041013  1
  O  O25  1  0.68071497  0.15121334  0.96958987  1
  O  O26  1  0.68071497  0.34878666  0.46958987  1
  O  O27  1  0.31928503  0.84878666  0.03041013  1
  O  O28  1  0.01021877  0.64183353  0.54336304  1
  O  O29  1  0.98978123  0.14183353  0.95663696  1
  O  O30  1  0.98978123  0.35816647  0.45663696  1
  O  O31  1  0.01021877  0.85816647  0.04336304  1
  O  O32  1  0.18154178  0.48620802  0.54003216  1
  O  O33  1  0.81845822  0.98620802  0.95996784  1
  O  O34  1  0.81845822  0.51379198  0.45996784  1
  O  O35  1  0.18154178  0.01379198  0.04003216  1
  O  O36  1  0.37340327  0.73786901  0.82563132  1
  O  O37  1  0.62659673  0.23786901  0.67436868  1
  O  O38  1  0.62659673  0.26213099  0.17436868  1
  O  O39  1  0.37340327  0.76213099  0.32563132  1
  O  O40  1  0.50902717  0.57337472  0.81797311  1
  O  O41  1  0.49097283  0.07337472  0.68202689  1
  O  O42  1  0.49097283  0.42662528  0.18202689  1
  O  O43  1  0.50902717  0.92662528  0.31797311  1
  O  O44  1  0.56893753  0.67768508  0.90400810  1
  O  O45  1  0.43106247  0.17768508  0.59599190  1
  O  O46  1  0.43106247  0.32231492  0.09599190  1
  O  O47  1  0.56893753  0.82231492  0.40400810  1
  O  O48  1  0.92724461  0.70536958  0.93848502  1
  O  O49  1  0.07275539  0.20536958  0.56151498  1
  O  O50  1  0.07275539  0.29463042  0.06151498  1
  O  O51  1  0.92724461  0.79463042  0.43848502  1
  O  O52  1  0.03077670  0.74629850  0.84319195  1
  O  O53  1  0.96922330  0.24629850  0.65680805  1
  O  O54  1  0.96922330  0.25370150  0.15680805  1
  O  O55  1  0.03077670  0.75370150  0.34319195  1
  O  O56  1  0.86135019  0.59490954  0.85549640  1
  O  O57  1  0.13864981  0.09490954  0.64450360  1
  O  O58  1  0.13864981  0.40509046  0.14450360  1
  O  O59  1  0.86135019  0.90509046  0.35549640  1
  O  O60  1  0.01219543  0.41468590  0.84977087  1
  O  O61  1  0.98780457  0.91468590  0.65022913  1
  O  O62  1  0.98780457  0.58531410  0.15022913  1
  O  O63  1  0.01219543  0.08531410  0.34977087  1
  O  O64  1  0.21873828  0.35896404  0.92709475  1
  O  O65  1  0.78126172  0.85896404  0.57290525  1
  O  O66  1  0.78126172  0.64103596  0.07290525  1
  O  O67  1  0.21873828  0.14103596  0.42709475  1
  O  O68  1  0.31569155  0.39922415  0.83057853  1
  O  O69  1  0.68430845  0.89922415  0.66942147  1
  O  O70  1  0.68430845  0.60077585  0.16942147  1
  O  O71  1  0.31569155  0.10077585  0.33057853  1
  O  O72  1  0.67235669  0.41117312  0.88568834  1
  O  O73  1  0.32764331  0.91117312  0.61431166  1
  O  O74  1  0.32764331  0.58882688  0.11431166  1
  O  O75  1  0.67235669  0.08882688  0.38568834  1
  O  O76  1  0.87476510  0.35478117  0.96645006  1
  O  O77  1  0.12523490  0.85478117  0.53354994  1
  O  O78  1  0.12523490  0.64521883  0.03354994  1
  O  O79  1  0.87476510  0.14521883  0.46645006  1
  O  O80  1  0.72870442  0.52265414  0.97191627  1
  O  O81  1  0.27129558  0.02265414  0.52808373  1
  O  O82  1  0.27129558  0.47734586  0.02808373  1
  O  O83  1  0.72870442  0.97734586  0.47191627  1
  O  O84  1  0.55552570  0.37745087  0.57776860  1
  O  O85  1  0.44447430  0.87745087  0.92223140  1
  O  O86  1  0.44447430  0.62254913  0.42223140  1
  O  O87  1  0.55552570  0.12254913  0.07776860  1
  O  O88  1  0.87602425  0.38835559  0.56935566  1
  O  O89  1  0.12397575  0.88835559  0.93064434  1
  O  O90  1  0.12397575  0.61164441  0.43064434  1
  O  O91  1  0.87602425  0.11164441  0.06935566  1
  O  O92  1  0.69918108  0.54570318  0.57014529  1
  O  O93  1  0.30081892  0.04570318  0.92985471  1
  O  O94  1  0.30081892  0.45429682  0.42985471  1
  O  O95  1  0.69918108  0.95429682  0.07014529  1
  O  O96  1  0.23977560  0.36122318  0.63490269  1
  O  O97  1  0.76022440  0.86122318  0.86509731  1
  O  O98  1  0.76022440  0.63877682  0.36509731  1
  O  O99  1  0.23977560  0.13877682  0.13490269  1
  O  O100  1  0.27413216  0.25671591  0.72436623  1
  O  O101  1  0.72586784  0.75671591  0.77563377  1
  O  O102  1  0.72586784  0.74328409  0.27563377  1
  O  O103  1  0.27413216  0.24328409  0.22436623  1
  O  O104  1  0.09976328  0.41622314  0.72588404  1
  O  O105  1  0.90023672  0.91622314  0.77411596  1
  O  O106  1  0.90023672  0.58377686  0.27411596  1
  O  O107  1  0.09976328  0.08377686  0.22588404  1
  F  F0  1  0.06956951  0.55561863  0.63438100  1
  F  F1  1  0.93043049  0.05561863  0.86561900  1
  F  F2  1  0.93043049  0.44438137  0.36561900  1
  F  F3  1  0.06956951  0.94438137  0.13438100  1
  F  F4  1  0.26539149  0.61342565  0.70856857  1
  F  F5  1  0.73460851  0.11342565  0.79143143  1
  F  F6  1  0.73460851  0.38657435  0.29143143  1
  F  F7  1  0.26539149  0.88657435  0.20856857  1
  F  F8  1  0.37254417  0.56281849  0.62065621  1
  F  F9  1  0.62745583  0.06281849  0.87934379  1
  F  F10  1  0.62745583  0.43718151  0.37934379  1
  F  F11  1  0.37254417  0.93718151  0.12065621  1
  F  F12  1  0.20983537  0.70449339  0.62744540  1
  F  F13  1  0.79016463  0.20449339  0.87255460  1
  F  F14  1  0.79016463  0.29550661  0.37255460  1
  F  F15  1  0.20983537  0.79550661  0.12744540  1
  F  F16  1  0.37952892  0.52141018  0.90740339  1
  F  F17  1  0.62047108  0.02141018  0.59259661  1
  F  F18  1  0.62047108  0.47858982  0.09259661  1
  F  F19  1  0.37952892  0.97858982  0.40740339  1
  F  F20  1  0.24439716  0.68290603  0.91328388  1
  F  F21  1  0.75560284  0.18290603  0.58671612  1
  F  F22  1  0.75560284  0.31709397  0.08671612  1
  F  F23  1  0.24439716  0.81709397  0.41328388  1
  F  F24  1  0.08232747  0.53562051  0.92437580  1
  F  F25  1  0.91767253  0.03562051  0.57562420  1
  F  F26  1  0.91767253  0.46437949  0.07562420  1
  F  F27  1  0.08232747  0.96437949  0.42437580  1
  F  F28  1  0.18800926  0.57715762  0.83827349  1
  F  F29  1  0.81199074  0.07715762  0.66172651  1
  F  F30  1  0.81199074  0.42284238  0.16172651  1
  F  F31  1  0.18800926  0.92284238  0.33827349  1
  F  F32  1  0.54123749  0.35690538  0.98474208  1
  F  F33  1  0.45876251  0.85690538  0.51525792  1
  F  F34  1  0.45876251  0.64309462  0.01525792  1
  F  F35  1  0.54123749  0.14309462  0.48474208  1
  F  F36  1  0.75216706  0.44238874  0.66781079  1
  F  F37  1  0.24783294  0.94238874  0.83218921  1
  F  F38  1  0.24783294  0.55761126  0.33218921  1
  F  F39  1  0.75216706  0.05761126  0.16781079  1
  F  F40  1  0.44358768  0.42868425  0.71933427  1
  F  F41  1  0.55641232  0.92868425  0.78066573  1
  F  F42  1  0.55641232  0.57131575  0.28066573  1
  F  F43  1  0.44358768  0.07131575  0.21933427  1
loop_
_geom_bond_atom_site_label_1
_geom_bond_atom_site_label_2
_geom_bond_distance
_geom_bond_site_symmetry_2
K0 O60 2.932642 1_655
K0 O72 2.961607 1_555
K0 O40 2.963889 1_555
K0 O4 3.006806 1_555
K0 O17 3.044194 1_555
K0 O56 3.078861 1_555
K0 O1 3.089913 1_555
K1 O61 2.932642 1_455
K1 O73 2.961607 1_555
K1 O41 2.963889 1_565
K1 O5 3.006806 1_565
K1 O16 3.044194 1_555
K1 O57 3.078861 1_565
K1 O0 3.089913 1_555
K2 O62 2.932642 1_455
K2 O74 2.961607 1_555
K2 O42 2.963889 1_555
K2 O6 3.006806 1_555
K2 O19 3.044194 1_555
K2 O58 3.078861 1_555
K2 O3 3.089913 1_555
K3 O63 2.932642 1_655
K3 O75 2.961607 1_555
K3 O43 2.963889 1_545
K3 O7 3.006806 1_545
K3 O18 3.044194 1_555
K3 O59 3.078861 1_545
K3 O2 3.089913 1_555
K4 O65 2.931738 1_555
K4 O51 2.947367 1_555
K4 O92 3.007205 1_555
K4 O47 3.106008 1_555
K4 O28 3.108956 1_655
K4 O86 3.113688 1_555
K4 O20 3.246669 1_555
K4 O34 3.308266 1_555
K4 O24 3.377048 1_555
K5 O64 2.931738 1_555
K5 O50 2.947367 1_556
K5 O93 3.007205 1_555
K5 O46 3.106008 1_556
K5 O29 3.108956 1_455
K5 O87 3.113688 1_556
K5 O21 3.246669 1_555
K5 O35 3.308266 1_556
K5 O25 3.377048 1_555
K6 O67 2.931738 1_555
K6 O49 2.947367 1_555
K6 O94 3.007205 1_555
K6 O45 3.106008 1_555
K6 O30 3.108956 1_455
K6 O84 3.113688 1_555
K6 O22 3.246669 1_555
K6 O32 3.308266 1_555
K6 O26 3.377048 1_555
K7 O66 2.931738 1_555
K7 O48 2.947367 1_554
K7 O95 3.007205 1_555
K7 O44 3.106008 1_554
K7 O31 3.108956 1_655
K7 O85 3.113688 1_554
K7 O23 3.246669 1_555
K7 O33 3.308266 1_554
K7 O27 3.377048 1_555
O0 Tc0 1.711320 1_555
O1 Tc1 1.711320 1_555
O2 Tc2 1.711320 1_555
O3 Tc3 1.711320 1_555
O4 Tc0 1.710154 1_655
O5 Tc1 1.710154 1_455
O6 Tc2 1.710154 1_455
O7 Tc3 1.710154 1_655
O8 Tc0 1.708523 1_655
O9 Tc1 1.708523 1_455
O10 Tc2 1.708523 1_455
O11 Tc3 1.708523 1_655
O12 Tc4 1.707704 1_555
O13 Tc5 1.707704 1_555
O14 Tc6 1.707704 1_555
O15 Tc7 1.707704 1_555
O16 Tc4 1.713243 1_555
O17 Tc5 1.713243 1_555
O18 Tc6 1.713243 1_555
O19 Tc7 1.713243 1_555
O20 Tc4 1.712716 1_555
O21 Tc5 1.712716 1_555
O22 Tc6 1.712716 1_555
O23 Tc7 1.712716 1_555
O24 Tc8 1.715977 1_555
O25 Tc9 1.715977 1_555
O26 Tc10 1.715977 1_555
O27 Tc11 1.715977 1_555
O28 Tc8 1.711114 1_555
O29 Tc9 1.711114 1_555
O30 Tc10 1.711114 1_555
O31 Tc11 1.711114 1_555
O32 Tc8 1.711402 1_555
O33 Tc9 1.711402 1_565
O34 Tc10 1.711402 1_555
O35 Tc11 1.711402 1_545
O36 Tc12 1.711557 1_555
O37 Tc13 1.711557 1_555
O38 Tc14 1.711557 1_555
O39 Tc15 1.711557 1_555
O40 Tc12 1.712170 1_555
O41 Tc13 1.712170 1_555
O42 Tc14 1.712170 1_555
O43 Tc15 1.712170 1_555
O44 Tc12 1.710226 1_555
O45 Tc13 1.710226 1_555
O46 Tc14 1.710226 1_555
O47 Tc15 1.710226 1_555
O48 Tc16 1.709278 1_655
O49 Tc17 1.709278 1_455
O50 Tc18 1.709278 1_455
O51 Tc19 1.709278 1_655
O52 Tc16 1.711937 1_555
O53 Tc17 1.711937 1_555
O54 Tc18 1.711937 1_555
O55 Tc19 1.711937 1_555
O56 Tc16 1.712996 1_655
O57 Tc17 1.712996 1_455
O58 Tc18 1.712996 1_455
O59 Tc19 1.712996 1_655
O60 Tc20 1.713991 1_555
O61 Tc21 1.713991 1_555
O62 Tc22 1.713991 1_555
O63 Tc23 1.713991 1_555
O64 Tc20 1.708695 1_555
O65 Tc21 1.708695 1_555
O66 Tc22 1.708695 1_555
O67 Tc23 1.708695 1_555
O68 Tc20 1.711435 1_555
O69 Tc21 1.711435 1_555
O70 Tc22 1.711435 1_555
O71 Tc23 1.711435 1_555
O72 Tc24 1.709601 1_555
O73 Tc25 1.709601 1_555
O74 Tc26 1.709601 1_555
O75 Tc27 1.709601 1_555
O76 Tc24 1.703900 1_555
O77 Tc25 1.703900 1_555
O78 Tc26 1.703900 1_555
O79 Tc27 1.703900 1_555
O80 Tc24 1.701286 1_555
O81 Tc25 1.701286 1_545
O82 Tc26 1.701286 1_555
O83 Tc27 1.701286 1_565
O84 Tc28 1.706470 1_555
O85 Tc29 1.706470 1_555
O86 Tc30 1.706470 1_555
O87 Tc31 1.706470 1_555
O88 Tc28 1.701188 1_555
O89 Tc29 1.701188 1_555
O90 Tc30 1.701188 1_555
O91 Tc31 1.701188 1_555
O92 Tc28 1.708900 1_555
O93 Tc29 1.708900 1_545
O94 Tc30 1.708900 1_555
O95 Tc31 1.708900 1_565
O96 Tc32 1.706020 1_555
O97 Tc33 1.706020 1_555
O98 Tc34 1.706020 1_555
O99 Tc35 1.706020 1_555
O100 Tc32 1.705883 1_555
O101 Tc33 1.705883 1_555
O102 Tc34 1.705883 1_555
O103 Tc35 1.705883 1_555
O104 Tc32 1.706108 1_555
O105 Tc33 1.706108 1_555
O106 Tc34 1.706108 1_555
O107 Tc35 1.706108 1_555
F0 Tc8 2.144857 1_555
F0 Tc0 2.173765 1_555
F1 Tc9 2.144857 1_555
F1 Tc1 2.173765 1_555
F2 Tc10 2.144857 1_555
F2 Tc2 2.173765 1_555
F3 Tc11 2.144857 1_555
F3 Tc3 2.173765 1_555
F4 Tc0 2.133532 1_555
F4 Tc4 2.134998 1_555
F5 Tc1 2.133532 1_555
F5 Tc5 2.134998 1_555
F6 Tc2 2.133532 1_555
F6 Tc6 2.134998 1_555
F7 Tc3 2.133532 1_555
F7 Tc7 2.134998 1_555
F8 Tc4 2.154287 1_555
F8 Tc8 2.155406 1_555
F9 Tc5 2.154287 1_555
F9 Tc9 2.155406 1_555
F10 Tc6 2.154287 1_555
F10 Tc10 2.155406 1_555
F11 Tc7 2.154287 1_555
F11 Tc11 2.155406 1_555
F12 Tc8 2.277828 1_555
F12 Tc4 2.296154 1_555
F12 Tc0 2.318099 1_555
F13 Tc9 2.277828 1_555
F13 Tc5 2.296154 1_555
F13 Tc1 2.318099 1_555
F14 Tc10 2.277828 1_555
F14 Tc6 2.296154 1_555
F14 Tc2 2.318099 1_555
F15 Tc11 2.277828 1_555
F15 Tc7 2.296154 1_555
F15 Tc3 2.318099 1_555
F16 Tc20 2.135731 1_555
F16 Tc12 2.173299 1_555
F17 Tc21 2.135731 1_545
F17 Tc13 2.173299 1_555
F18 Tc22 2.135731 1_555
F18 Tc14 2.173299 1_555
F19 Tc23 2.135731 1_565
F19 Tc15 2.173299 1_555
F20 Tc16 2.143505 1_555
F20 Tc12 2.144952 1_555
F21 Tc17 2.143505 1_555
F21 Tc13 2.144952 1_555
F22 Tc18 2.143505 1_555
F22 Tc14 2.144952 1_555
F23 Tc19 2.143505 1_555
F23 Tc15 2.144952 1_555
F24 Tc16 2.129912 1_555
F24 Tc20 2.152402 1_555
F25 Tc17 2.129912 1_555
F25 Tc21 2.152402 1_545
F26 Tc18 2.129912 1_555
F26 Tc22 2.152402 1_555
F27 Tc19 2.129912 1_555
F27 Tc23 2.152402 1_565
F28 Tc12 2.271510 1_555
F28 Tc20 2.302980 1_555
F28 Tc16 2.323862 1_555
F29 Tc13 2.271510 1_555
F29 Tc21 2.302980 1_545
F29 Tc17 2.323862 1_555
F30 Tc14 2.271510 1_555
F30 Tc22 2.302980 1_555
F30 Tc18 2.323862 1_555
F31 Tc15 2.271510 1_555
F31 Tc23 2.302980 1_565
F31 Tc19 2.323862 1_555
F32 Tc24 1.868328 1_555
F32 K5 2.917442 1_555
F33 Tc25 1.868328 1_555
F33 K4 2.917442 1_555
F34 Tc26 1.868328 1_555
F34 K7 2.917442 1_555
F35 Tc27 1.868328 1_555
F35 K6 2.917442 1_555
F36 Tc28 1.862960 1_555
F36 K0 2.795113 1_555
F37 Tc29 1.862960 1_555
F37 K1 2.795113 1_555
F38 Tc30 1.862960 1_555
F38 K2 2.795113 1_555
F39 Tc31 1.862960 1_555
F39 K3 2.795113 1_555
F40 Tc32 1.867125 1_555
F40 K0 2.932513 1_555
F41 Tc33 1.867125 1_555
F41 K1 2.932513 1_555
F42 Tc34 1.867125 1_555
F42 K2 2.932513 1_555
F43 Tc35 1.867125 1_555
F43 K3 2.932513 1_555
