# generated using pymatgen
data_Mg4Si3
_symmetry_space_group_name_H-M   'P 1'
_cell_length_a   7.40641543
_cell_length_b   6.97226498
_cell_length_c   6.31201966
_cell_angle_alpha   104.09127966
_cell_angle_beta   102.35488007
_cell_angle_gamma   107.26365620
_symmetry_Int_Tables_number   1
_chemical_formula_structural   Mg4Si3
_chemical_formula_sum   'Mg8 Si6'
_cell_volume   287.12255268
_cell_formula_units_Z   2
loop_
 _symmetry_equiv_pos_site_id
 _symmetry_equiv_pos_as_xyz
  1  'x, y, z'
loop_
 _atom_site_type_symbol
 _atom_site_label
 _atom_site_symmetry_multiplicity
 _atom_site_fract_x
 _atom_site_fract_y
 _atom_site_fract_z
 _atom_site_occupancy
  Mg  Mg0  1  0.46938400  0.90814300  0.62408200  1
  Mg  Mg1  1  0.04544300  0.22643300  0.09662600  1
  Mg  Mg2  1  0.20019100  0.64901400  0.04433500  1
  Mg  Mg3  1  0.48690200  0.43372200  0.49842900  1
  Mg  Mg4  1  0.01173100  0.57334700  0.49623300  1
  Mg  Mg5  1  0.51855400  0.07907400  0.16108400  1
  Mg  Mg6  1  0.76227000  0.42344300  0.98658000  1
  Mg  Mg7  1  0.79245500  0.83333700  0.39946700  1
  Si  Si0  1  0.11750700  0.26599700  0.62802000  1
  Si  Si1  1  0.77201500  0.20990200  0.57874300  1
  Si  Si2  1  0.57208800  0.71030300  0.92886200  1
  Si  Si3  1  0.39661000  0.38396800  0.99860800  1
  Si  Si4  1  0.18079000  0.98415100  0.35278700  1
  Si  Si5  1  0.92401900  0.81907500  0.95621200  1
loop_
_geom_bond_atom_site_label_1
_geom_bond_atom_site_label_2
_geom_bond_distance
_geom_bond_site_symmetry_2
Mg0 Si1 2.702050 1_565
Mg0 Si4 2.707360 1_555
Mg0 Si2 2.733308 1_555
Mg1 Si5 2.564800 1_444
Mg1 Si3 2.770874 1_554
Mg1 Si4 2.848554 1_545
Mg1 Si0 3.177317 1_554
Mg1 Si0 3.210513 1_555
Mg2 Si3 2.670250 1_554
Mg2 Si5 2.678233 1_454
Mg2 Si4 2.715701 1_555
Mg2 Si2 2.934770 1_554
Mg2 Si0 3.055400 1_554
Mg3 Si2 2.737055 1_555
Mg3 Si3 2.991215 1_554
Mg3 Si1 3.005728 1_555
Mg3 Si0 3.007696 1_555
Mg3 Si4 3.049175 1_545
Mg4 Si0 2.735581 1_555
Mg4 Si1 2.865784 1_455
Mg4 Si4 3.195429 1_555
Mg5 Si1 2.645923 1_555
Mg5 Si2 2.816965 1_544
Mg5 Si3 2.862040 1_554
Mg5 Si4 2.977069 1_545
Mg6 Si3 2.659280 1_555
Mg6 Si1 2.669422 1_555
Mg6 Si5 2.734099 1_555
Mg6 Si2 2.815028 1_555
Mg7 Si1 2.656927 1_565
Mg7 Si2 2.841991 1_554
Mg7 Si4 2.860649 1_655
Mg7 Si0 3.010190 1_665
Si0 Si1 2.409072 1_455
Si0 Si4 2.516388 1_545
Si0 Si3 2.531018 1_555
Si2 Si5 2.443244 1_555
Si2 Si3 2.457098 1_555
Si4 Si5 2.543251 1_454
