# generated using pymatgen
data_HfCrAgS4
_symmetry_space_group_name_H-M   'P 1'
_cell_length_a   12.09728445
_cell_length_b   3.60941100
_cell_length_c   12.38195852
_cell_angle_alpha   90.00000000
_cell_angle_beta   90.93902643
_cell_angle_gamma   90.00000000
_symmetry_Int_Tables_number   1
_chemical_formula_structural   HfCrAgS4
_chemical_formula_sum   'Hf4 Cr4 Ag4 S16'
_cell_volume   540.57411485
_cell_formula_units_Z   4
loop_
 _symmetry_equiv_pos_site_id
 _symmetry_equiv_pos_as_xyz
  1  'x, y, z'
loop_
 _atom_site_type_symbol
 _atom_site_label
 _atom_site_symmetry_multiplicity
 _atom_site_fract_x
 _atom_site_fract_y
 _atom_site_fract_z
 _atom_site_occupancy
  Hf  Hf0  1  0.89343000  0.75000000  0.91307500  1
  Hf  Hf1  1  0.16390600  0.25000000  0.69261200  1
  Hf  Hf2  1  0.84454500  0.75000000  0.29407800  1
  Hf  Hf3  1  0.34690500  0.75000000  0.21039200  1
  Cr  Cr0  1  0.10744700  0.25000000  0.07731800  1
  Cr  Cr1  1  0.40096000  0.75000000  0.57770900  1
  Cr  Cr2  1  0.60659300  0.25000000  0.43117400  1
  Cr  Cr3  1  0.65045100  0.25000000  0.79878600  1
  Ag  Ag0  1  0.13609500  0.75000000  0.41618800  1
  Ag  Ag1  1  0.85661600  0.25000000  0.58816400  1
  Ag  Ag2  1  0.38147800  0.25000000  0.91110900  1
  Ag  Ag3  1  0.62566700  0.75000000  0.08435900  1
  S  S0  1  0.03808600  0.75000000  0.62417900  1
  S  S1  1  0.95579500  0.25000000  0.38379000  1
  S  S2  1  0.45184200  0.25000000  0.11883700  1
  S  S3  1  0.55007400  0.75000000  0.87953900  1
  S  S4  1  0.04234600  0.25000000  0.88164100  1
  S  S5  1  0.96919600  0.75000000  0.11801800  1
  S  S6  1  0.47149600  0.75000000  0.39060300  1
  S  S7  1  0.53137700  0.25000000  0.61799400  1
  S  S8  1  0.20130200  0.25000000  0.25321600  1
  S  S9  1  0.77850200  0.75000000  0.74319400  1
  S  S10  1  0.30093700  0.75000000  0.75199000  1
  S  S11  1  0.70037700  0.25000000  0.24792600  1
  S  S12  1  0.22756300  0.75000000  0.03391800  1
  S  S13  1  0.76156600  0.25000000  0.96610400  1
  S  S14  1  0.27575600  0.25000000  0.52468300  1
  S  S15  1  0.72969100  0.75000000  0.46940300  1
loop_
_geom_bond_atom_site_label_1
_geom_bond_atom_site_label_2
_geom_bond_distance
_geom_bond_site_symmetry_2
Hf0 S9 2.502332 1_555
Hf0 S13 2.503412 1_555
Hf0 S13 2.503412 1_565
Hf0 S4 2.583943 1_655
Hf0 S4 2.583943 1_665
Hf0 S5 2.683886 1_556
Hf1 S14 2.499298 1_555
Hf1 S0 2.499879 1_555
Hf1 S0 2.499879 1_545
Hf1 S10 2.550595 1_555
Hf1 S10 2.550595 1_545
Hf1 S4 2.784509 1_555
Hf2 S1 2.500620 1_555
Hf2 S1 2.500620 1_565
Hf2 S11 2.567593 1_555
Hf2 S11 2.567593 1_565
Hf2 S15 2.596540 1_555
Hf2 S5 2.670933 1_555
Hf3 S2 2.490132 1_565
Hf3 S2 2.490132 1_555
Hf3 S8 2.582880 1_555
Hf3 S8 2.582880 1_565
Hf3 S12 2.599143 1_555
Hf3 S6 2.672162 1_555
Cr0 S12 2.383855 1_555
Cr0 S12 2.383855 1_545
Cr0 S8 2.439586 1_555
Cr0 S5 2.517077 1_445
Cr0 S5 2.517077 1_455
Cr0 S4 2.535342 1_554
Cr1 S14 2.439169 1_565
Cr1 S14 2.439169 1_555
Cr1 S7 2.443172 1_565
Cr1 S7 2.443172 1_555
Cr1 S6 2.481972 1_555
Cr1 S10 2.491266 1_555
Cr2 S15 2.382329 1_555
Cr2 S15 2.382329 1_545
Cr2 S6 2.480598 1_555
Cr2 S6 2.480598 1_545
Cr2 S7 2.499561 1_555
Cr2 S11 2.553382 1_555
Cr3 S3 2.402294 1_555
Cr3 S3 2.402294 1_545
Cr3 S13 2.451043 1_555
Cr3 S9 2.483009 1_545
Cr3 S9 2.483009 1_555
Cr3 S7 2.642048 1_555
Ag0 S14 2.800306 1_565
Ag0 S14 2.800306 1_555
Ag0 S8 2.829020 1_555
Ag0 S8 2.829020 1_565
Ag0 S0 2.852750 1_555
Ag0 S1 2.854221 1_455
Ag0 S1 2.854221 1_465
Ag1 S15 2.775411 1_555
Ag1 S15 2.775411 1_545
Ag1 S9 2.809653 1_555
Ag1 S9 2.809653 1_545
Ag1 S1 2.818282 1_555
Ag1 S0 2.871071 1_645
Ag1 S0 2.871071 1_655
Ag2 S2 2.695996 1_556
Ag2 S3 2.756025 1_555
Ag2 S3 2.756025 1_545
Ag2 S10 2.832854 1_555
Ag2 S10 2.832854 1_545
Ag2 S12 3.021408 1_546
Ag2 S12 3.021408 1_556
Ag3 S3 2.681773 1_554
Ag3 S2 2.808994 1_565
Ag3 S2 2.808994 1_555
Ag3 S11 2.848782 1_555
Ag3 S11 2.848782 1_565
Ag3 S13 2.860523 1_554
Ag3 S13 2.860523 1_564
