# generated using pymatgen
data_TiCr(BIr)2
_symmetry_space_group_name_H-M   'P 1'
_cell_length_a   3.19368400
_cell_length_b   8.58416200
_cell_length_c   8.58518968
_cell_angle_alpha   119.99604031
_cell_angle_beta   90.00000000
_cell_angle_gamma   90.00000000
_symmetry_Int_Tables_number   1
_chemical_formula_structural   TiCr(BIr)2
_chemical_formula_sum   'Ti3 Cr3 B6 Ir6'
_cell_volume   203.83919766
_cell_formula_units_Z   3
loop_
 _symmetry_equiv_pos_site_id
 _symmetry_equiv_pos_as_xyz
  1  'x, y, z'
loop_
 _atom_site_type_symbol
 _atom_site_label
 _atom_site_symmetry_multiplicity
 _atom_site_fract_x
 _atom_site_fract_y
 _atom_site_fract_z
 _atom_site_occupancy
  Ti  Ti0  1  0.00000000  0.58954600  0.00000000  1
  Ti  Ti1  1  0.00000000  0.41032700  0.41035000  1
  Ti  Ti2  1  0.00000000  0.99997700  0.58965000  1
  Cr  Cr0  1  0.00000000  0.83040600  0.82968300  1
  Cr  Cr1  1  0.00000000  0.00072400  0.17031700  1
  Cr  Cr2  1  0.00000000  0.16957300  0.00000000  1
  B  B0  1  0.50000000  0.99973400  0.00000000  1
  B  B1  1  0.50000000  0.79728100  0.00000000  1
  B  B2  1  0.50000000  0.20283700  0.20278600  1
  B  B3  1  0.50000000  0.00005200  0.79721400  1
  B  B4  1  0.00000000  0.33348500  0.66695000  1
  B  B5  1  0.00000000  0.66653500  0.33305000  1
  Ir  Ir0  1  0.50000000  0.53850100  0.72329400  1
  Ir  Ir1  1  0.50000000  0.18478900  0.46168800  1
  Ir  Ir2  1  0.50000000  0.27659300  0.81536200  1
  Ir  Ir3  1  0.50000000  0.81520700  0.27670600  1
  Ir  Ir4  1  0.50000000  0.72310100  0.53831200  1
  Ir  Ir5  1  0.50000000  0.46123100  0.18463800  1
loop_
_geom_bond_atom_site_label_1
_geom_bond_atom_site_label_2
_geom_bond_distance
_geom_bond_site_symmetry_2
Cr0 Ir4 2.711431 1_455
Cr0 Ir4 2.711431 1_555
Cr0 Ir0 2.715616 1_455
Cr0 Ir0 2.715616 1_555
Cr1 Ir1 2.711430 1_555
Cr1 Ir1 2.711430 1_455
Cr1 Ir3 2.715622 1_545
Cr1 Ir3 2.715622 1_445
Cr2 Ir5 2.713420 1_555
Cr2 Ir5 2.713420 1_455
Cr2 Ir2 2.713420 1_554
Cr2 Ir2 2.713420 1_454
B0 B1 1.737889 1_555
B0 B2 1.742318 1_565
B0 B3 1.742323 1_564
B0 Cr2 2.162279 1_665
B0 Cr2 2.162279 1_565
B0 Cr1 2.162312 1_665
B0 Cr1 2.162312 1_565
B0 Cr0 2.162315 1_654
B0 Cr0 2.162315 1_554
B1 Cr0 2.276956 1_554
B1 Cr0 2.276956 1_654
B1 Cr1 2.276960 1_665
B1 Cr1 2.276960 1_565
B1 Ir0 2.302503 1_554
B1 Ir3 2.302503 1_555
B1 Ti0 2.393704 1_555
B1 Ti0 2.393704 1_655
B2 Cr1 2.270278 1_655
B2 Cr1 2.270278 1_555
B2 Cr2 2.272732 1_555
B2 Cr2 2.272732 1_655
B2 Ir5 2.299950 1_555
B2 Ir1 2.304087 1_555
B2 Ti1 2.392533 1_555
B2 Ti1 2.392533 1_655
B3 Cr0 2.270290 1_545
B3 Cr0 2.270290 1_645
B3 Cr2 2.272729 1_656
B3 Cr2 2.272729 1_556
B3 Ir2 2.299942 1_555
B3 Ir4 2.304092 1_545
B3 Ti2 2.392529 1_645
B3 Ti2 2.392529 1_545
B4 Ir0 2.242746 1_455
B4 Ir0 2.242746 1_555
B4 Ir2 2.243666 1_555
B4 Ir2 2.243666 1_455
B4 Ir1 2.243992 1_555
B4 Ir1 2.243992 1_455
B4 Ti0 2.592857 1_556
B4 Ti2 2.595544 1_545
B4 Ti1 2.596360 1_555
B5 Ir3 2.242746 1_555
B5 Ir3 2.242746 1_455
B5 Ir5 2.243666 1_555
B5 Ir5 2.243666 1_455
B5 Ir4 2.243992 1_455
B5 Ir4 2.243992 1_555
B5 Ti0 2.592857 1_555
B5 Ti1 2.595544 1_555
B5 Ti2 2.596360 1_555
Ir0 Ti0 2.710065 1_656
Ir0 Ti0 2.710065 1_556
Ir0 Ti1 2.832498 1_555
Ir0 Ti1 2.832498 1_655
Ir1 Ti1 2.710291 1_655
Ir1 Ti1 2.710291 1_555
Ir1 Ti2 2.831300 1_645
Ir1 Ti2 2.831300 1_545
Ir2 Ti2 2.709702 1_645
Ir2 Ti2 2.709702 1_545
Ir2 Ti0 2.832254 1_656
Ir2 Ti0 2.832254 1_556
Ir3 Ti0 2.710065 1_555
Ir3 Ti0 2.710065 1_655
Ir3 Ti2 2.832498 1_655
Ir3 Ti2 2.832498 1_555
Ir4 Ti2 2.710291 1_655
Ir4 Ti2 2.710291 1_555
Ir4 Ti1 2.831300 1_655
Ir4 Ti1 2.831300 1_555
Ir5 Ti1 2.709702 1_555
Ir5 Ti1 2.709702 1_655
Ir5 Ti0 2.832254 1_555
Ir5 Ti0 2.832254 1_655
