# generated using pymatgen
data_Cd4As2Cl3
_symmetry_space_group_name_H-M   'P 1'
_cell_length_a   12.53198313
_cell_length_b   12.53198313
_cell_length_c   12.53198313
_cell_angle_alpha   90.00000000
_cell_angle_beta   90.00000000
_cell_angle_gamma   90.00000000
_symmetry_Int_Tables_number   1
_chemical_formula_structural   Cd4As2Cl3
_chemical_formula_sum   'Cd32 As16 Cl24'
_cell_volume   1968.15548443
_cell_formula_units_Z   8
loop_
 _symmetry_equiv_pos_site_id
 _symmetry_equiv_pos_as_xyz
  1  'x, y, z'
loop_
 _atom_site_type_symbol
 _atom_site_label
 _atom_site_symmetry_multiplicity
 _atom_site_fract_x
 _atom_site_fract_y
 _atom_site_fract_z
 _atom_site_occupancy
  Cd  Cd0  1  0.98014321  0.24509808  0.02465378  1
  Cd  Cd1  1  0.01985679  0.75490192  0.97534622  1
  Cd  Cd2  1  0.51985679  0.75490192  0.52465378  1
  Cd  Cd3  1  0.01985679  0.74509808  0.47534622  1
  Cd  Cd4  1  0.02465378  0.98014321  0.24509808  1
  Cd  Cd5  1  0.48014321  0.24509808  0.47534622  1
  Cd  Cd6  1  0.98014321  0.25490192  0.52465378  1
  Cd  Cd7  1  0.97534622  0.01985679  0.75490192  1
  Cd  Cd8  1  0.48014321  0.25490192  0.97534622  1
  Cd  Cd9  1  0.52465378  0.51985679  0.75490192  1
  Cd  Cd10  1  0.51985679  0.74509808  0.02465378  1
  Cd  Cd11  1  0.47534622  0.48014321  0.24509808  1
  Cd  Cd12  1  0.47534622  0.01985679  0.74509808  1
  Cd  Cd13  1  0.52465378  0.98014321  0.25490192  1
  Cd  Cd14  1  0.97534622  0.48014321  0.25490192  1
  Cd  Cd15  1  0.02465378  0.51985679  0.74509808  1
  Cd  Cd16  1  0.24509808  0.02465378  0.98014321  1
  Cd  Cd17  1  0.75490192  0.97534622  0.01985679  1
  Cd  Cd18  1  0.74509808  0.47534622  0.01985679  1
  Cd  Cd19  1  0.25490192  0.52465378  0.98014321  1
  Cd  Cd20  1  0.25490192  0.97534622  0.48014321  1
  Cd  Cd21  1  0.74509808  0.02465378  0.51985679  1
  Cd  Cd22  1  0.75490192  0.52465378  0.51985679  1
  Cd  Cd23  1  0.24509808  0.47534622  0.48014321  1
  Cd  Cd24  1  0.22222013  0.22222013  0.22222013  1
  Cd  Cd25  1  0.77777987  0.77777987  0.77777987  1
  Cd  Cd26  1  0.27777987  0.77777987  0.72222013  1
  Cd  Cd27  1  0.77777987  0.72222013  0.27777987  1
  Cd  Cd28  1  0.72222013  0.22222013  0.27777987  1
  Cd  Cd29  1  0.22222013  0.27777987  0.72222013  1
  Cd  Cd30  1  0.72222013  0.27777987  0.77777987  1
  Cd  Cd31  1  0.27777987  0.72222013  0.22222013  1
  As  As0  1  0.44481979  0.44481979  0.44481979  1
  As  As1  1  0.55518021  0.55518021  0.55518021  1
  As  As2  1  0.05518021  0.55518021  0.94481979  1
  As  As3  1  0.55518021  0.94481979  0.05518021  1
  As  As4  1  0.94481979  0.44481979  0.05518021  1
  As  As5  1  0.44481979  0.05518021  0.94481979  1
  As  As6  1  0.94481979  0.05518021  0.55518021  1
  As  As7  1  0.05518021  0.94481979  0.44481979  1
  As  As8  1  0.10390605  0.10390605  0.10390605  1
  As  As9  1  0.89609395  0.89609395  0.89609395  1
  As  As10  1  0.39609395  0.89609395  0.60390605  1
  As  As11  1  0.89609395  0.60390605  0.39609395  1
  As  As12  1  0.60390605  0.10390605  0.39609395  1
  As  As13  1  0.10390605  0.39609395  0.60390605  1
  As  As14  1  0.60390605  0.39609395  0.89609395  1
  As  As15  1  0.39609395  0.60390605  0.10390605  1
  Cl  Cl0  1  0.18192620  0.42309345  0.27142267  1
  Cl  Cl1  1  0.81807380  0.57690655  0.72857733  1
  Cl  Cl2  1  0.31807380  0.57690655  0.77142267  1
  Cl  Cl3  1  0.81807380  0.92309345  0.22857733  1
  Cl  Cl4  1  0.27142267  0.18192620  0.42309345  1
  Cl  Cl5  1  0.68192620  0.42309345  0.22857733  1
  Cl  Cl6  1  0.18192620  0.07690655  0.77142267  1
  Cl  Cl7  1  0.72857733  0.81807380  0.57690655  1
  Cl  Cl8  1  0.68192620  0.07690655  0.72857733  1
  Cl  Cl9  1  0.77142267  0.31807380  0.57690655  1
  Cl  Cl10  1  0.31807380  0.92309345  0.27142267  1
  Cl  Cl11  1  0.22857733  0.68192620  0.42309345  1
  Cl  Cl12  1  0.22857733  0.81807380  0.92309345  1
  Cl  Cl13  1  0.77142267  0.18192620  0.07690655  1
  Cl  Cl14  1  0.72857733  0.68192620  0.07690655  1
  Cl  Cl15  1  0.27142267  0.31807380  0.92309345  1
  Cl  Cl16  1  0.42309345  0.27142267  0.18192620  1
  Cl  Cl17  1  0.57690655  0.72857733  0.81807380  1
  Cl  Cl18  1  0.92309345  0.22857733  0.81807380  1
  Cl  Cl19  1  0.07690655  0.77142267  0.18192620  1
  Cl  Cl20  1  0.07690655  0.72857733  0.68192620  1
  Cl  Cl21  1  0.92309345  0.27142267  0.31807380  1
  Cl  Cl22  1  0.57690655  0.77142267  0.31807380  1
  Cl  Cl23  1  0.42309345  0.22857733  0.68192620  1
loop_
_geom_bond_atom_site_label_1
_geom_bond_atom_site_label_2
_geom_bond_distance
_geom_bond_site_symmetry_2
Cd0 Cl18 2.693732 1_554
Cd0 Cl13 2.810220 1_555
Cd1 Cl19 2.693732 1_556
Cd1 Cl12 2.810220 1_555
Cd2 Cl22 2.693732 1_555
Cd2 Cl7 2.810220 1_555
Cd3 Cl20 2.693732 1_555
Cd3 Cl11 2.810220 1_555
Cd4 Cl3 2.693732 1_455
Cd4 Cl19 2.810220 1_555
Cd5 Cl23 2.693732 1_555
Cd5 Cl4 2.810220 1_555
Cd6 Cl21 2.693732 1_555
Cd6 Cl9 2.810220 1_555
Cd7 Cl6 2.693732 1_655
Cd7 Cl18 2.810220 1_555
Cd8 Cl16 2.693732 1_556
Cd8 Cl15 2.810220 1_555
Cd9 Cl2 2.693732 1_555
Cd9 Cl17 2.810220 1_555
Cd10 Cl17 2.693732 1_554
Cd10 Cl14 2.810220 1_555
Cd11 Cl5 2.693732 1_555
Cd11 Cl16 2.810220 1_555
Cd12 Cl8 2.693732 1_555
Cd12 Cl23 2.810220 1_555
Cd13 Cl10 2.693732 1_555
Cd13 Cl22 2.810220 1_555
Cd14 Cl0 2.693732 1_655
Cd14 Cl21 2.810220 1_555
Cd15 Cl1 2.693732 1_455
Cd15 Cl20 2.810220 1_555
Cd16 Cl12 2.693732 1_545
Cd16 Cl6 2.810220 1_555
Cd17 Cl13 2.693732 1_565
Cd17 Cl3 2.810220 1_555
Cd18 Cl14 2.693732 1_555
Cd18 Cl5 2.810220 1_555
Cd19 Cl15 2.693732 1_555
Cd19 Cl2 2.810220 1_555
Cd20 Cl4 2.693732 1_565
Cd20 Cl10 2.810220 1_555
Cd21 Cl7 2.693732 1_545
Cd21 Cl8 2.810220 1_555
Cd22 Cl9 2.693732 1_555
Cd22 Cl1 2.810220 1_555
Cd23 Cl11 2.693732 1_555
Cd23 Cl0 2.810220 1_555
Cd24 Cl0 2.640492 1_555
Cd24 Cl4 2.640492 1_555
Cd24 Cl16 2.640492 1_555
Cd25 Cl17 2.640492 1_555
Cd25 Cl1 2.640492 1_555
Cd25 Cl7 2.640492 1_555
Cd26 Cl20 2.640492 1_555
Cd26 Cl12 2.640492 1_555
Cd26 Cl2 2.640492 1_555
Cd27 Cl14 2.640492 1_555
Cd27 Cl3 2.640492 1_555
Cd27 Cl22 2.640492 1_555
Cd28 Cl5 2.640492 1_555
Cd28 Cl13 2.640492 1_555
Cd28 Cl21 2.640492 1_555
Cd29 Cl23 2.640492 1_555
Cd29 Cl6 2.640492 1_555
Cd29 Cl15 2.640492 1_555
Cd30 Cl8 2.640492 1_555
Cd30 Cl18 2.640492 1_555
Cd30 Cl9 2.640492 1_555
Cd31 Cl19 2.640492 1_555
Cd31 Cl11 2.640492 1_555
Cd31 Cl10 2.640492 1_555
As0 As1 2.395487 1_555
As0 Cd11 2.570382 1_555
As0 Cd23 2.570382 1_555
As0 Cd5 2.570382 1_555
As1 Cd22 2.570382 1_555
As1 Cd2 2.570382 1_555
As1 Cd9 2.570382 1_555
As2 As4 2.395487 1_456
As2 Cd19 2.570382 1_555
As2 Cd1 2.570382 1_555
As2 Cd15 2.570382 1_555
As3 As5 2.395487 1_564
As3 Cd13 2.570382 1_555
As3 Cd17 2.570382 1_555
As3 Cd10 2.570382 1_555
As4 Cd0 2.570382 1_555
As4 Cd14 2.570382 1_555
As4 Cd18 2.570382 1_555
As5 Cd8 2.570382 1_555
As5 Cd16 2.570382 1_555
As5 Cd12 2.570382 1_555
As6 As7 2.395487 1_645
As6 Cd6 2.570382 1_555
As6 Cd7 2.570382 1_555
As6 Cd21 2.570382 1_555
As7 Cd4 2.570382 1_555
As7 Cd20 2.570382 1_555
As7 Cd3 2.570382 1_555
As8 Cd16 2.553985 1_554
As8 Cd4 2.553985 1_545
As8 Cd0 2.553985 1_455
As8 Cd24 2.568129 1_555
As9 Cd17 2.553985 1_556
As9 Cd7 2.553985 1_565
As9 Cd1 2.553985 1_655
As9 Cd25 2.568129 1_555
As10 Cd20 2.553985 1_555
As10 Cd12 2.553985 1_565
As10 Cd2 2.553985 1_555
As10 Cd26 2.568129 1_555
As11 Cd14 2.553985 1_555
As11 Cd3 2.553985 1_655
As11 Cd22 2.553985 1_555
As11 Cd27 2.568129 1_555
As12 Cd13 2.553985 1_545
As12 Cd5 2.553985 1_555
As12 Cd21 2.553985 1_555
As12 Cd28 2.568129 1_555
As13 Cd6 2.553985 1_455
As13 Cd23 2.553985 1_555
As13 Cd15 2.553985 1_555
As13 Cd29 2.568129 1_555
As14 Cd18 2.553985 1_556
As14 Cd8 2.553985 1_555
As14 Cd9 2.553985 1_555
As14 Cd30 2.568129 1_555
As15 Cd19 2.553985 1_554
As15 Cd11 2.553985 1_555
As15 Cd10 2.553985 1_555
As15 Cd31 2.568129 1_555
