# generated using pymatgen
data_Nd4FeCo3(AsO)4
_symmetry_space_group_name_H-M   'P 1'
_cell_length_a   3.99421100
_cell_length_b   7.98534200
_cell_length_c   9.00955100
_cell_angle_alpha   90.00000000
_cell_angle_beta   90.00000000
_cell_angle_gamma   90.00000000
_symmetry_Int_Tables_number   1
_chemical_formula_structural   Nd4FeCo3(AsO)4
_chemical_formula_sum   'Nd4 Fe1 Co3 As4 O4'
_cell_volume   287.36089819
_cell_formula_units_Z   1
loop_
 _symmetry_equiv_pos_site_id
 _symmetry_equiv_pos_as_xyz
  1  'x, y, z'
loop_
 _atom_site_type_symbol
 _atom_site_label
 _atom_site_symmetry_multiplicity
 _atom_site_fract_x
 _atom_site_fract_y
 _atom_site_fract_z
 _atom_site_occupancy
  Nd  Nd0  1  0.50000000  0.24781200  0.86751100  1
  Nd  Nd1  1  0.50000000  0.75218800  0.86751100  1
  Nd  Nd2  1  0.00000000  0.00000000  0.13710100  1
  Nd  Nd3  1  0.00000000  0.50000000  0.13337500  1
  Fe  Fe0  1  0.50000000  0.00000000  0.49770300  1
  Co  Co0  1  0.50000000  0.50000000  0.50323000  1
  Co  Co1  1  0.00000000  0.24490200  0.50064100  1
  Co  Co2  1  0.00000000  0.75509800  0.50064100  1
  As  As0  1  0.50000000  0.25860800  0.33274300  1
  As  As1  1  0.50000000  0.74139200  0.33274300  1
  As  As2  1  0.00000000  0.00000000  0.67556800  1
  As  As3  1  0.00000000  0.50000000  0.65144000  1
  O  O0  1  0.50000000  0.00000000  0.00333200  1
  O  O1  1  0.50000000  0.50000000  0.99441300  1
  O  O2  1  0.00000000  0.24955800  0.00102400  1
  O  O3  1  0.00000000  0.75044200  0.00102400  1
loop_
_geom_bond_atom_site_label_1
_geom_bond_atom_site_label_2
_geom_bond_distance
_geom_bond_site_symmetry_2
Nd0 O1 2.315734 1_555
Nd0 O0 2.326652 1_556
Nd0 O2 2.331432 1_556
Nd0 O2 2.331432 1_656
Nd1 O1 2.315734 1_555
Nd1 O0 2.326652 1_566
Nd1 O3 2.331432 1_556
Nd1 O3 2.331432 1_656
Nd2 O0 2.332581 1_455
Nd2 O0 2.332581 1_555
Nd2 O3 2.339729 1_545
Nd2 O2 2.339729 1_555
Nd3 O2 2.328376 1_555
Nd3 O3 2.328376 1_555
Nd3 O1 2.357095 1_554
Nd3 O1 2.357095 1_454
As0 Co0 2.464744 1_555
As0 Co1 2.507713 1_655
As0 Co1 2.507713 1_555
As0 Fe0 2.544281 1_555
As0 Nd3 3.306124 1_555
As0 Nd3 3.306124 1_655
As0 Nd2 3.370442 1_655
As0 Nd2 3.370442 1_555
As1 Co0 2.464744 1_555
As1 Co2 2.507713 1_655
As1 Co2 2.507713 1_555
As1 Fe0 2.544281 1_565
As1 Nd3 3.306124 1_555
As1 Nd3 3.306124 1_655
As1 Nd2 3.370442 1_665
As1 Nd2 3.370442 1_565
As2 Co2 2.511632 1_545
As2 Co1 2.511632 1_555
As2 Fe0 2.560544 1_455
As2 Fe0 2.560544 1_555
As2 Nd0 3.300739 1_555
As2 Nd1 3.300739 1_545
As2 Nd0 3.300739 1_455
As2 Nd1 3.300739 1_445
As3 Co0 2.402389 1_555
As3 Co0 2.402389 1_455
As3 Co1 2.448557 1_555
As3 Co2 2.448557 1_555
As3 Nd0 3.439986 1_555
As3 Nd1 3.439986 1_555
As3 Nd0 3.439986 1_455
As3 Nd1 3.439986 1_455
