# generated using pymatgen
data_Mn2ZnP2O9
_symmetry_space_group_name_H-M   'P 1'
_cell_length_a   6.31574900
_cell_length_b   7.33036500
_cell_length_c   14.51696000
_cell_angle_alpha   90.00000000
_cell_angle_beta   90.00000000
_cell_angle_gamma   90.00000000
_symmetry_Int_Tables_number   1
_chemical_formula_structural   Mn2ZnP2O9
_chemical_formula_sum   'Mn8 Zn4 P8 O36'
_cell_volume   672.08800137
_cell_formula_units_Z   4
loop_
 _symmetry_equiv_pos_site_id
 _symmetry_equiv_pos_as_xyz
  1  'x, y, z'
loop_
 _atom_site_type_symbol
 _atom_site_label
 _atom_site_symmetry_multiplicity
 _atom_site_fract_x
 _atom_site_fract_y
 _atom_site_fract_z
 _atom_site_occupancy
  Mn  Mn0  1  0.25000000  0.85280200  0.88264700  1
  Mn  Mn1  1  0.75000000  0.14719800  0.11735300  1
  Mn  Mn2  1  0.75000000  0.35280200  0.61735300  1
  Mn  Mn3  1  0.25000000  0.64719800  0.38264700  1
  Mn  Mn4  1  0.00000000  0.50000000  0.00000000  1
  Mn  Mn5  1  0.00000000  0.00000000  0.50000000  1
  Mn  Mn6  1  0.50000000  0.00000000  0.50000000  1
  Mn  Mn7  1  0.50000000  0.50000000  0.00000000  1
  Zn  Zn0  1  0.25000000  0.41493700  0.77474900  1
  Zn  Zn1  1  0.25000000  0.08506300  0.27474900  1
  Zn  Zn2  1  0.75000000  0.91493700  0.72525100  1
  Zn  Zn3  1  0.75000000  0.58506300  0.22525100  1
  P  P0  1  0.75000000  0.86729400  0.92969500  1
  P  P1  1  0.25000000  0.13270600  0.07030500  1
  P  P2  1  0.25000000  0.36729400  0.57030500  1
  P  P3  1  0.75000000  0.63270600  0.42969500  1
  P  P4  1  0.25000000  0.88456700  0.70312900  1
  P  P5  1  0.25000000  0.61543300  0.20312900  1
  P  P6  1  0.75000000  0.38456700  0.79687100  1
  P  P7  1  0.75000000  0.11543300  0.29687100  1
  O  O0  1  0.54088300  0.11046600  0.35369000  1
  O  O1  1  0.04088300  0.88953400  0.64631000  1
  O  O2  1  0.45911700  0.61046600  0.14631000  1
  O  O3  1  0.95911700  0.38953400  0.85369000  1
  O  O4  1  0.45911700  0.88953400  0.64631000  1
  O  O5  1  0.95911700  0.11046600  0.35369000  1
  O  O6  1  0.54088300  0.38953400  0.85369000  1
  O  O7  1  0.04088300  0.61046600  0.14631000  1
  O  O8  1  0.75000000  0.82395200  0.47722800  1
  O  O9  1  0.25000000  0.17604800  0.52277200  1
  O  O10  1  0.25000000  0.32395200  0.02277200  1
  O  O11  1  0.75000000  0.67604800  0.97722800  1
  O  O12  1  0.25000000  0.63400800  0.95168600  1
  O  O13  1  0.75000000  0.36599200  0.04831400  1
  O  O14  1  0.75000000  0.13400800  0.54831400  1
  O  O15  1  0.25000000  0.86599200  0.45168600  1
  O  O16  1  0.25000000  0.70586700  0.76545400  1
  O  O17  1  0.75000000  0.29413300  0.23454600  1
  O  O18  1  0.75000000  0.20586700  0.73454600  1
  O  O19  1  0.25000000  0.79413300  0.26545400  1
  O  O20  1  0.93598400  0.62170300  0.36075200  1
  O  O21  1  0.43598400  0.37829700  0.63924800  1
  O  O22  1  0.06401600  0.12170300  0.13924800  1
  O  O23  1  0.56401600  0.87829700  0.86075200  1
  O  O24  1  0.06401600  0.37829700  0.63924800  1
  O  O25  1  0.56401600  0.62170300  0.36075200  1
  O  O26  1  0.93598400  0.87829700  0.86075200  1
  O  O27  1  0.43598400  0.12170300  0.13924800  1
  O  O28  1  0.25000000  0.98494100  0.99783400  1
  O  O29  1  0.75000000  0.53917100  0.72323600  1
  O  O30  1  0.75000000  0.96082900  0.22323600  1
  O  O31  1  0.25000000  0.03917100  0.77676400  1
  O  O32  1  0.25000000  0.51505900  0.49783400  1
  O  O33  1  0.75000000  0.48494100  0.50216600  1
  O  O34  1  0.75000000  0.01505900  0.00216600  1
  O  O35  1  0.25000000  0.46082900  0.27676400  1
loop_
_geom_bond_atom_site_label_1
_geom_bond_atom_site_label_2
_geom_bond_distance
_geom_bond_site_symmetry_2
Mn0 O12 1.891238 1_555
Mn0 O28 1.932453 1_555
Mn0 O16 2.013577 1_555
Mn0 O23 2.017231 1_555
Mn0 O26 2.017231 1_455
Mn0 O31 2.056465 1_565
Mn1 O13 1.891238 1_555
Mn1 O34 1.932453 1_555
Mn1 O17 2.013577 1_555
Mn1 O27 2.017231 1_555
Mn1 O22 2.017231 1_655
Mn1 O30 2.056465 1_545
Mn2 O14 1.891238 1_555
Mn2 O33 1.932453 1_555
Mn2 O18 2.013577 1_555
Mn2 O24 2.017231 1_655
Mn2 O21 2.017231 1_555
Mn2 O29 2.056465 1_555
Mn3 O15 1.891238 1_555
Mn3 O32 1.932453 1_555
Mn3 O19 2.013577 1_555
Mn3 O25 2.017231 1_555
Mn3 O20 2.017231 1_455
Mn3 O35 2.056465 1_555
Mn4 O12 1.987444 1_554
Mn4 O13 1.987444 1_455
Mn4 O10 2.065843 1_555
Mn4 O11 2.065843 1_454
Mn4 O7 2.287718 1_555
Mn4 O3 2.287718 1_454
Mn5 O14 1.987444 1_455
Mn5 O15 1.987444 1_545
Mn5 O8 2.065843 1_445
Mn5 O9 2.065843 1_555
Mn5 O5 2.287718 1_455
Mn5 O1 2.287718 1_545
Mn6 O14 1.987444 1_555
Mn6 O15 1.987444 1_545
Mn6 O8 2.065843 1_545
Mn6 O9 2.065843 1_555
Mn6 O0 2.287718 1_555
Mn6 O4 2.287718 1_545
Mn7 O12 1.987444 1_554
Mn7 O13 1.987444 1_555
Mn7 O10 2.065843 1_555
Mn7 O11 2.065843 1_554
Mn7 O2 2.287718 1_555
Mn7 O6 2.287718 1_554
O0 P7 1.557567 1_555
O0 Zn1 2.173258 1_555
O1 P4 1.557567 1_555
O1 Zn2 2.173258 1_455
O2 P5 1.557567 1_555
O2 Zn3 2.173258 1_555
O3 P6 1.557567 1_555
O3 Zn0 2.173258 1_655
O4 P4 1.557567 1_555
O4 Zn2 2.173258 1_555
O5 P7 1.557567 1_555
O5 Zn1 2.173258 1_655
O6 P6 1.557567 1_555
O6 Zn0 2.173258 1_555
O7 P5 1.557567 1_555
O7 Zn3 2.173258 1_455
O8 P3 1.562524 1_555
O9 P2 1.562524 1_555
O10 P1 1.562524 1_555
O11 P0 1.562524 1_555
O16 P4 1.592024 1_555
O16 Zn0 2.136888 1_555
O17 P7 1.592024 1_555
O17 Zn3 2.136888 1_555
O18 P6 1.592024 1_555
O18 Zn2 2.136888 1_545
O19 P5 1.592024 1_555
O19 Zn1 2.136888 1_565
O20 P3 1.545297 1_555
O20 Zn3 2.306778 1_555
O21 P2 1.545297 1_555
O21 Zn0 2.306778 1_555
O22 P1 1.545297 1_555
O22 Zn1 2.306778 1_555
O23 P0 1.545297 1_555
O23 Zn2 2.306778 1_555
O24 P2 1.545297 1_555
O24 Zn0 2.306778 1_555
O25 P3 1.545297 1_555
O25 Zn3 2.306778 1_555
O26 P0 1.545297 1_555
O26 Zn2 2.306778 1_555
O27 P1 1.545297 1_555
O27 Zn1 2.306778 1_555
O28 P1 1.509996 1_566
O29 P6 1.557898 1_555
O30 P7 1.557898 1_565
O31 P4 1.557898 1_545
O32 P2 1.509996 1_555
O33 P3 1.509996 1_555
O34 P0 1.509996 1_544
O35 P5 1.557898 1_555
