# generated using pymatgen
data_AgAu(IO3)4
_symmetry_space_group_name_H-M   'P 1'
_cell_length_a   5.84361300
_cell_length_b   8.12001700
_cell_length_c   13.08254631
_cell_angle_alpha   72.73543432
_cell_angle_beta   90.00000000
_cell_angle_gamma   90.00000000
_symmetry_Int_Tables_number   1
_chemical_formula_structural   AgAu(IO3)4
_chemical_formula_sum   'Ag2 Au2 I8 O24'
_cell_volume   592.80083933
_cell_formula_units_Z   2
loop_
 _symmetry_equiv_pos_site_id
 _symmetry_equiv_pos_as_xyz
  1  'x, y, z'
loop_
 _atom_site_type_symbol
 _atom_site_label
 _atom_site_symmetry_multiplicity
 _atom_site_fract_x
 _atom_site_fract_y
 _atom_site_fract_z
 _atom_site_occupancy
  Ag  Ag0  1  0.86425400  0.03183100  0.96921200  1
  Ag  Ag1  1  0.13574600  0.03183100  0.46921200  1
  Au  Au0  1  0.75109200  0.49956100  0.00089200  1
  Au  Au1  1  0.24890800  0.49956100  0.50089200  1
  I  I0  1  0.43169900  0.31332000  0.84152700  1
  I  I1  1  0.93301700  0.68999800  0.65784300  1
  I  I2  1  0.06698300  0.68999800  0.15784300  1
  I  I3  1  0.56830100  0.31332000  0.34152700  1
  I  I4  1  0.11630700  0.19753400  0.17131900  1
  I  I5  1  0.60652900  0.80104800  0.32902300  1
  I  I6  1  0.39347100  0.80104800  0.82902300  1
  I  I7  1  0.88369300  0.19753400  0.67131900  1
  O  O0  1  0.70797700  0.42597300  0.86691300  1
  O  O1  1  0.20532400  0.56974600  0.63577300  1
  O  O2  1  0.79467600  0.56974600  0.13577300  1
  O  O3  1  0.29202300  0.42597300  0.36691300  1
  O  O4  1  0.59271300  0.12160600  0.82437900  1
  O  O5  1  0.08797000  0.88074700  0.67395000  1
  O  O6  1  0.91203000  0.88074700  0.17395000  1
  O  O7  1  0.40728700  0.12160600  0.32437900  1
  O  O8  1  0.93122200  0.16951300  0.28864200  1
  O  O9  1  0.42278100  0.82682200  0.21321400  1
  O  O10  1  0.57721900  0.82682200  0.71321400  1
  O  O11  1  0.06877800  0.16951300  0.78864200  1
  O  O12  1  0.24814200  0.40989400  0.14750600  1
  O  O13  1  0.74493100  0.58997500  0.35172900  1
  O  O14  1  0.25506900  0.58997500  0.85172900  1
  O  O15  1  0.75185800  0.40989400  0.64750600  1
  O  O16  1  0.33950900  0.21356200  0.97667800  1
  O  O17  1  0.85678800  0.79283500  0.51927000  1
  O  O18  1  0.14321200  0.79283500  0.01927000  1
  O  O19  1  0.66049100  0.21356200  0.47667800  1
  O  O20  1  0.87315300  0.25647800  0.06716000  1
  O  O21  1  0.36954400  0.74207800  0.43482800  1
  O  O22  1  0.63045600  0.74207800  0.93482800  1
  O  O23  1  0.12684700  0.25647800  0.56716000  1
loop_
_geom_bond_atom_site_label_1
_geom_bond_atom_site_label_2
_geom_bond_distance
_geom_bond_site_symmetry_2
Ag0 O4 2.412388 1_555
Ag0 O18 2.469400 1_646
Ag0 O20 2.521832 1_556
Ag0 O11 2.586734 1_655
Ag0 O6 2.608997 1_546
Ag1 O7 2.412388 1_555
Ag1 O17 2.469400 1_445
Ag1 O23 2.521832 1_555
Ag1 O8 2.586734 1_455
Ag1 O5 2.608997 1_545
Au0 O2 2.024930 1_555
Au0 O22 2.027711 1_554
Au0 O0 2.028414 1_554
Au0 O20 2.034866 1_555
Au1 O1 2.024930 1_555
Au1 O21 2.027711 1_555
Au1 O3 2.028414 1_555
Au1 O23 2.034866 1_555
I0 O16 1.795130 1_555
I0 O4 1.888466 1_555
I0 O0 1.932322 1_555
I0 O14 2.511501 1_555
I0 O11 2.611409 1_555
I1 O17 1.812103 1_555
I1 O5 1.859323 1_655
I1 O1 1.932941 1_655
I1 O15 2.548463 1_555
I1 O10 2.561182 1_555
I2 O18 1.812103 1_555
I2 O6 1.859323 1_455
I2 O2 1.932941 1_455
I2 O12 2.548463 1_555
I2 O9 2.561182 1_555
I3 O19 1.795130 1_555
I3 O7 1.888466 1_555
I3 O3 1.932322 1_555
I3 O13 2.511501 1_555
I3 O8 2.611409 1_555
I4 O12 1.828971 1_555
I4 O8 1.835791 1_455
I4 O20 1.928149 1_455
I4 O7 2.558956 1_555
I5 O9 1.817688 1_555
I5 O13 1.837840 1_555
I5 O21 1.915640 1_555
I6 O10 1.817688 1_555
I6 O14 1.837840 1_555
I6 O22 1.915640 1_555
I7 O15 1.828971 1_555
I7 O11 1.835791 1_655
I7 O23 1.928149 1_655
I7 O4 2.558956 1_555
