# generated using pymatgen
data_CsRb2YF6
_symmetry_space_group_name_H-M   'P 1'
_cell_length_a   7.07844859
_cell_length_b   7.07844859
_cell_length_c   7.07844859
_cell_angle_alpha   60.00000000
_cell_angle_beta   60.00000000
_cell_angle_gamma   60.00000000
_symmetry_Int_Tables_number   1
_chemical_formula_structural   CsRb2YF6
_chemical_formula_sum   'Cs1 Rb2 Y1 F6'
_cell_volume   250.78366742
_cell_formula_units_Z   1
loop_
 _symmetry_equiv_pos_site_id
 _symmetry_equiv_pos_as_xyz
  1  'x, y, z'
loop_
 _atom_site_type_symbol
 _atom_site_label
 _atom_site_symmetry_multiplicity
 _atom_site_fract_x
 _atom_site_fract_y
 _atom_site_fract_z
 _atom_site_occupancy
  Cs  Cs0  1  0.50000000  0.50000000  0.50000000  1
  Rb  Rb0  1  0.75000000  0.75000000  0.75000000  1
  Rb  Rb1  1  0.25000000  0.25000000  0.25000000  1
  Y  Y0  1  0.00000000  0.00000000  0.00000000  1
  F  F0  1  0.78140500  0.21859500  0.21859500  1
  F  F1  1  0.21859500  0.21859500  0.78140500  1
  F  F2  1  0.21859500  0.78140500  0.78140500  1
  F  F3  1  0.21859500  0.78140500  0.21859500  1
  F  F4  1  0.78140500  0.21859500  0.78140500  1
  F  F5  1  0.78140500  0.78140500  0.21859500  1
loop_
_geom_bond_atom_site_label_1
_geom_bond_atom_site_label_2
_geom_bond_distance
_geom_bond_site_symmetry_2
Cs0 F0 2.816987 1_555
Cs0 F1 2.816987 1_555
Cs0 F4 2.816987 1_555
Cs0 F5 2.816987 1_555
Cs0 F2 2.816987 1_555
Cs0 F3 2.816987 1_555
F0 Y0 2.188232 1_655
F1 Y0 2.188232 1_556
F2 Y0 2.188232 1_566
F3 Y0 2.188232 1_565
F4 Y0 2.188232 1_656
F5 Y0 2.188232 1_665
