# generated using pymatgen
data_Sr3(NiN2)2
_symmetry_space_group_name_H-M   'P 1'
_cell_length_a   7.02788201
_cell_length_b   8.69687212
_cell_length_c   5.70031767
_cell_angle_alpha   90.00000180
_cell_angle_beta   93.73595952
_cell_angle_gamma   128.22422662
_symmetry_Int_Tables_number   1
_chemical_formula_structural   Sr3(NiN2)2
_chemical_formula_sum   'Sr6 Ni4 N8'
_cell_volume   272.76366318
_cell_formula_units_Z   2
loop_
 _symmetry_equiv_pos_site_id
 _symmetry_equiv_pos_as_xyz
  1  'x, y, z'
loop_
 _atom_site_type_symbol
 _atom_site_label
 _atom_site_symmetry_multiplicity
 _atom_site_fract_x
 _atom_site_fract_y
 _atom_site_fract_z
 _atom_site_occupancy
  Sr  Sr0  1  0.25586100  0.99605500  0.06656400  1
  Sr  Sr1  1  0.74413900  0.74019300  0.43343600  1
  Sr  Sr2  1  0.74413900  0.00394500  0.93343600  1
  Sr  Sr3  1  0.25586100  0.25980700  0.56656400  1
  Sr  Sr4  1  0.00000000  0.59799700  0.75000000  1
  Sr  Sr5  1  0.00000000  0.40200300  0.25000000  1
  Ni  Ni0  1  0.58797700  0.16645100  0.57964900  1
  Ni  Ni1  1  0.41202300  0.57847400  0.92035100  1
  Ni  Ni2  1  0.41202300  0.83354900  0.42035100  1
  Ni  Ni3  1  0.58797700  0.42152600  0.07964900  1
  N  N0  1  0.24809700  0.93762900  0.52580800  1
  N  N1  1  0.75190300  0.68953200  0.97419200  1
  N  N2  1  0.75190300  0.06237100  0.47419200  1
  N  N3  1  0.24809700  0.31046800  0.02580800  1
  N  N4  1  0.65467600  0.26733100  0.89681700  1
  N  N5  1  0.34532400  0.61265600  0.60318300  1
  N  N6  1  0.34532400  0.73266900  0.10318300  1
  N  N7  1  0.65467600  0.38734400  0.39681700  1
loop_
_geom_bond_atom_site_label_1
_geom_bond_atom_site_label_2
_geom_bond_distance
_geom_bond_site_symmetry_2
N0 Ni0 1.944776 1_565
N0 Ni2 1.971960 1_555
N0 Sr0 2.664309 1_555
N0 Sr4 2.704641 1_555
N0 Sr3 2.777945 1_565
N0 Sr1 2.828590 1_455
N0 Sr0 3.115546 1_556
N1 Ni1 1.944776 1_555
N1 Ni3 1.971960 1_556
N1 Sr1 2.664307 1_556
N1 Sr4 2.704640 1_655
N1 Sr2 2.777936 1_565
N1 Sr0 2.828591 1_656
N1 Sr1 3.115545 1_555
N2 Ni2 1.944776 1_545
N2 Ni0 1.971960 1_555
N2 Sr2 2.664309 1_555
N2 Sr5 2.704641 1_655
N2 Sr1 2.777945 1_545
N2 Sr3 2.828590 1_655
N2 Sr2 3.115546 1_554
N3 Ni3 1.944776 1_555
N3 Ni1 1.971960 1_554
N3 Sr3 2.664307 1_554
N3 Sr5 2.704640 1_555
N3 Sr0 2.777936 1_545
N3 Sr2 2.828591 1_454
N3 Sr3 3.115545 1_555
N4 Ni0 1.907565 1_555
N4 Ni3 1.986399 1_556
N4 Sr4 2.547218 1_655
N4 Sr0 2.555125 1_546
N4 Sr5 2.675929 1_656
N4 Sr2 2.729653 1_555
N5 Ni1 1.907568 1_555
N5 Ni2 1.986392 1_555
N5 Sr4 2.547213 1_555
N5 Sr1 2.555130 1_555
N5 Sr5 2.675930 1_555
N5 Sr3 2.729653 1_555
N6 Ni2 1.907565 1_555
N6 Ni1 1.986399 1_554
N6 Sr5 2.547218 1_555
N6 Sr2 2.555125 1_564
N6 Sr4 2.675929 1_554
N6 Sr0 2.729653 1_555
N7 Ni3 1.907568 1_555
N7 Ni0 1.986392 1_555
N7 Sr5 2.547213 1_655
N7 Sr3 2.555130 1_555
N7 Sr4 2.675930 1_655
N7 Sr1 2.729653 1_555
