# generated using pymatgen
data_BaSrNdWO6
_symmetry_space_group_name_H-M   'P 1'
_cell_length_a   6.06845386
_cell_length_b   6.07708711
_cell_length_c   8.53939283
_cell_angle_alpha   90.12043919
_cell_angle_beta   90.80862407
_cell_angle_gamma   90.09865964
_symmetry_Int_Tables_number   1
_chemical_formula_structural   BaSrNdWO6
_chemical_formula_sum   'Ba2 Sr2 Nd2 W2 O12'
_cell_volume   314.88765117
_cell_formula_units_Z   2
loop_
 _symmetry_equiv_pos_site_id
 _symmetry_equiv_pos_as_xyz
  1  'x, y, z'
loop_
 _atom_site_type_symbol
 _atom_site_label
 _atom_site_symmetry_multiplicity
 _atom_site_fract_x
 _atom_site_fract_y
 _atom_site_fract_z
 _atom_site_occupancy
  Ba  Ba0  1  0.50733330  0.52686487  0.24877639  1
  Ba  Ba1  1  0.49266670  0.47313513  0.75122361  1
  Sr  Sr0  1  0.99284409  0.03367940  0.25345598  1
  Sr  Sr1  1  0.00715591  0.96632060  0.74654402  1
  Nd  Nd0  1  -0.00000000  0.50000000  -0.00000000  1
  Nd  Nd1  1  0.50000000  -0.00000000  0.50000000  1
  W  W0  1  0.50000000  -0.00000000  -0.00000000  1
  W  W1  1  -0.00000000  0.50000000  0.50000000  1
  O  O0  1  0.23715644  0.19652019  0.95445514  1
  O  O1  1  0.26367204  0.69642643  0.52575675  1
  O  O2  1  0.76284356  0.80347981  0.04554486  1
  O  O3  1  0.73632796  0.30357357  0.47424325  1
  O  O4  1  0.29639598  0.73956484  0.95710662  1
  O  O5  1  0.19208548  0.22587235  0.54601696  1
  O  O6  1  0.70360402  0.26043516  0.04289338  1
  O  O7  1  0.80791452  0.77412765  0.45398304  1
  O  O8  1  0.41319273  0.00150964  0.22726987  1
  O  O9  1  0.06785744  0.46873900  0.27083803  1
  O  O10  1  0.58680727  0.99849036  0.77273013  1
  O  O11  1  0.93214256  0.53126100  0.72916197  1
loop_
_geom_bond_atom_site_label_1
_geom_bond_atom_site_label_2
_geom_bond_distance
_geom_bond_site_symmetry_2
Ba0 O6 2.680469 1_555
Ba0 O9 2.698898 1_555
Ba0 O3 2.724222 1_555
Ba0 O2 2.884637 1_555
Ba0 O7 2.923199 1_555
Ba0 O8 2.947055 1_565
Ba0 O1 2.989364 1_555
Ba0 O4 3.072802 1_554
Ba0 O8 3.246733 1_555
Ba1 O4 2.680469 1_555
Ba1 O11 2.698898 1_555
Ba1 O1 2.724222 1_555
Ba1 O0 2.884637 1_555
Ba1 O5 2.923199 1_555
Ba1 O10 2.947055 1_545
Ba1 O3 2.989364 1_555
Ba1 O6 3.072802 1_556
Ba1 O10 3.246733 1_555
Nd0 O6 2.345357 1_455
Nd0 O4 2.345357 1_554
Nd0 O11 2.351575 1_454
Nd0 O9 2.351575 1_555
Nd0 O0 2.376079 1_554
Nd0 O2 2.376079 1_455
Nd1 O1 2.347359 1_545
Nd1 O3 2.347359 1_555
Nd1 O5 2.357413 1_555
Nd1 O7 2.357413 1_545
Nd1 O10 2.380561 1_545
Nd1 O8 2.380561 1_555
O0 W0 2.027990 1_556
O0 Sr1 2.640116 1_545
O0 Sr0 3.131946 1_456
O1 W1 2.003982 1_555
O1 Sr1 2.957475 1_555
O2 W0 2.027990 1_565
O2 Sr0 2.640116 1_565
O2 Sr1 3.131946 1_654
O3 W1 2.003982 1_655
O3 Sr0 2.957475 1_555
O4 W0 2.035615 1_566
O4 Sr1 2.853513 1_555
O5 W1 2.070002 1_555
O5 Sr1 2.595976 1_545
O5 Sr0 2.994183 1_455
O6 W0 2.035615 1_555
O6 Sr0 2.853513 1_555
O7 W1 2.070002 1_655
O7 Sr0 2.595976 1_565
O7 Sr1 2.994183 1_655
O8 W0 2.018139 1_555
O8 Sr0 2.571532 1_455
O9 W1 2.014097 1_555
O9 Sr0 2.685467 1_455
O10 W0 2.018139 1_566
O10 Sr1 2.571532 1_655
O11 W1 2.014097 1_655
O11 Sr1 2.685467 1_655
