# generated using pymatgen
data_Eu2Ni17
_symmetry_space_group_name_H-M   'P 1'
_cell_length_a   8.15378600
_cell_length_b   8.36285920
_cell_length_c   8.36285920
_cell_angle_alpha   120.20045490
_cell_angle_beta   90.00000000
_cell_angle_gamma   90.00000000
_symmetry_Int_Tables_number   1
_chemical_formula_structural   Eu2Ni17
_chemical_formula_sum   'Eu4 Ni34'
_cell_volume   492.85449644
_cell_formula_units_Z   2
loop_
 _symmetry_equiv_pos_site_id
 _symmetry_equiv_pos_as_xyz
  1  'x, y, z'
loop_
 _atom_site_type_symbol
 _atom_site_label
 _atom_site_symmetry_multiplicity
 _atom_site_fract_x
 _atom_site_fract_y
 _atom_site_fract_z
 _atom_site_occupancy
  Eu  Eu0  1  0.75000000  0.00056100  0.99943900  1
  Eu  Eu1  1  0.25000000  0.99943900  0.00056100  1
  Eu  Eu2  1  0.25000000  0.66687600  0.33312400  1
  Eu  Eu3  1  0.75000000  0.33312400  0.66687600  1
  Ni  Ni0  1  0.60568100  0.66629500  0.33370500  1
  Ni  Ni1  1  0.39431900  0.33370500  0.66629500  1
  Ni  Ni2  1  0.10568100  0.33370500  0.66629500  1
  Ni  Ni3  1  0.89431900  0.66629500  0.33370500  1
  Ni  Ni4  1  0.50000000  0.50000000  0.00000000  1
  Ni  Ni5  1  0.50000000  0.50000000  0.50000000  1
  Ni  Ni6  1  0.50000000  0.00000000  0.50000000  1
  Ni  Ni7  1  0.00000000  0.50000000  0.00000000  1
  Ni  Ni8  1  0.00000000  0.50000000  0.50000000  1
  Ni  Ni9  1  0.00000000  0.00000000  0.50000000  1
  Ni  Ni10  1  0.75000000  0.66934800  0.04266100  1
  Ni  Ni11  1  0.75000000  0.37354800  0.33090500  1
  Ni  Ni12  1  0.75000000  0.95813900  0.62703100  1
  Ni  Ni13  1  0.75000000  0.37296900  0.04186100  1
  Ni  Ni14  1  0.75000000  0.95733900  0.33065200  1
  Ni  Ni15  1  0.75000000  0.66909500  0.62645200  1
  Ni  Ni16  1  0.25000000  0.33065200  0.95733900  1
  Ni  Ni17  1  0.25000000  0.62645200  0.66909500  1
  Ni  Ni18  1  0.25000000  0.04186100  0.37296900  1
  Ni  Ni19  1  0.25000000  0.62703100  0.95813900  1
  Ni  Ni20  1  0.25000000  0.04266100  0.66934800  1
  Ni  Ni21  1  0.25000000  0.33090500  0.37354800  1
  Ni  Ni22  1  0.48717800  0.83233500  0.66483700  1
  Ni  Ni23  1  0.48771100  0.83252800  0.16747200  1
  Ni  Ni24  1  0.48717800  0.33516300  0.16766500  1
  Ni  Ni25  1  0.51282200  0.16766500  0.33516300  1
  Ni  Ni26  1  0.51228900  0.16747200  0.83252800  1
  Ni  Ni27  1  0.51282200  0.66483700  0.83233500  1
  Ni  Ni28  1  0.98717800  0.16766500  0.33516300  1
  Ni  Ni29  1  0.98771100  0.16747200  0.83252800  1
  Ni  Ni30  1  0.98717800  0.66483700  0.83233500  1
  Ni  Ni31  1  0.01282200  0.83233500  0.66483700  1
  Ni  Ni32  1  0.01228900  0.83252800  0.16747200  1
  Ni  Ni33  1  0.01282200  0.33516300  0.16766500  1
loop_
_geom_bond_atom_site_label_1
_geom_bond_atom_site_label_2
_geom_bond_distance
_geom_bond_site_symmetry_2
Eu0 Ni12 2.951905 1_545
Eu0 Ni13 2.951905 1_556
Eu0 Ni15 2.952078 1_545
Eu0 Ni11 2.952078 1_556
Eu0 Ni14 2.968197 1_546
Eu0 Ni10 2.968197 1_546
Eu0 Ni29 3.100614 1_555
Eu0 Ni26 3.100614 1_555
Eu0 Ni27 3.102945 1_545
Eu0 Ni30 3.102945 1_545
Eu0 Ni28 3.102945 1_556
Eu0 Ni25 3.102945 1_556
Eu0 Ni31 3.231288 1_645
Eu0 Ni22 3.231288 1_545
Eu0 Ni33 3.231288 1_656
Eu0 Ni24 3.231288 1_556
Eu0 Ni23 3.241888 1_546
Eu0 Ni32 3.241888 1_646
Eu1 Ni19 2.951905 1_554
Eu1 Ni18 2.951905 1_565
Eu1 Ni17 2.952078 1_554
Eu1 Ni21 2.952078 1_565
Eu1 Ni16 2.968197 1_564
Eu1 Ni20 2.968197 1_564
Eu1 Ni23 3.100614 1_555
Eu1 Ni32 3.100614 1_555
Eu1 Ni22 3.102945 1_554
Eu1 Ni31 3.102945 1_554
Eu1 Ni33 3.102945 1_565
Eu1 Ni24 3.102945 1_565
Eu1 Ni30 3.231288 1_454
Eu1 Ni27 3.231288 1_554
Eu1 Ni25 3.231288 1_565
Eu1 Ni28 3.231288 1_465
Eu1 Ni29 3.241888 1_464
Eu1 Ni26 3.241888 1_564
Eu2 Ni3 2.900159 1_455
Eu2 Ni0 2.900159 1_555
Eu2 Ni20 2.982015 1_565
Eu2 Ni16 2.982015 1_554
Eu2 Ni18 2.982267 1_565
Eu2 Ni19 2.982267 1_554
Eu2 Ni17 2.994022 1_555
Eu2 Ni21 2.994022 1_555
Eu2 Ni22 3.080314 1_555
Eu2 Ni24 3.080314 1_555
Eu2 Ni31 3.080314 1_555
Eu2 Ni33 3.080314 1_555
Eu2 Ni32 3.086386 1_555
Eu2 Ni23 3.086386 1_555
Eu2 Ni9 3.154764 1_565
Eu2 Ni6 3.154764 1_565
Eu2 Ni7 3.154764 1_555
Eu2 Ni4 3.154764 1_555
Eu2 Ni8 3.163830 1_555
Eu2 Ni5 3.163830 1_555
Eu3 Ni2 2.900159 1_655
Eu3 Ni1 2.900159 1_555
Eu3 Ni10 2.982015 1_556
Eu3 Ni14 2.982015 1_545
Eu3 Ni13 2.982267 1_556
Eu3 Ni12 2.982267 1_545
Eu3 Ni11 2.994022 1_555
Eu3 Ni15 2.994022 1_555
Eu3 Ni25 3.080314 1_555
Eu3 Ni28 3.080314 1_555
Eu3 Ni30 3.080314 1_555
Eu3 Ni27 3.080314 1_555
Eu3 Ni26 3.086386 1_555
Eu3 Ni29 3.086386 1_555
Eu3 Ni7 3.154764 1_656
Eu3 Ni6 3.154764 1_555
Eu3 Ni9 3.154764 1_655
Eu3 Ni4 3.154764 1_556
Eu3 Ni5 3.163830 1_555
Eu3 Ni8 3.163830 1_655
Ni0 Ni3 2.353492 1_555
Ni0 Ni5 2.560545 1_555
Ni0 Ni4 2.561284 1_555
Ni0 Ni6 2.561284 1_565
Ni0 Ni22 2.581040 1_555
Ni0 Ni24 2.581040 1_555
Ni0 Ni23 2.595146 1_555
Ni0 Ni11 2.705790 1_555
Ni0 Ni15 2.705790 1_555
Ni0 Ni12 2.708443 1_555
Ni0 Ni13 2.708443 1_555
Ni0 Ni14 2.715155 1_555
Ni0 Ni10 2.715155 1_555
Ni1 Ni2 2.353492 1_555
Ni1 Ni5 2.560545 1_555
Ni1 Ni4 2.561284 1_556
Ni1 Ni6 2.561284 1_555
Ni1 Ni25 2.581040 1_555
Ni1 Ni27 2.581040 1_555
Ni1 Ni26 2.595146 1_555
Ni1 Ni21 2.705790 1_555
Ni1 Ni17 2.705790 1_555
Ni1 Ni19 2.708443 1_555
Ni1 Ni18 2.708443 1_555
Ni1 Ni16 2.715155 1_555
Ni1 Ni20 2.715155 1_555
Ni2 Ni8 2.560545 1_555
Ni2 Ni7 2.561284 1_556
Ni2 Ni9 2.561284 1_555
Ni2 Ni28 2.581040 1_455
Ni2 Ni30 2.581040 1_455
Ni2 Ni29 2.595146 1_455
Ni2 Ni21 2.705790 1_555
Ni2 Ni20 2.715155 1_555
Ni3 Ni8 2.560545 1_655
Ni3 Ni7 2.561284 1_655
Ni3 Ni9 2.561284 1_665
Ni3 Ni33 2.581040 1_655
Ni3 Ni31 2.581040 1_655
Ni3 Ni32 2.595146 1_655
Ni10 Ni14 2.401127 1_555
Ni10 Ni4 2.404150 1_555
Ni10 Ni7 2.404150 1_655
Ni10 Ni23 2.468308 1_555
Ni10 Ni32 2.468308 1_655
Ni10 Ni13 2.475217 1_555
Ni10 Ni30 2.601625 1_554
Ni10 Ni27 2.601625 1_554
Ni10 Ni3 2.715155 1_555
Ni11 Ni8 2.401836 1_655
Ni11 Ni5 2.401836 1_555
Ni11 Ni13 2.414802 1_555
Ni11 Ni15 2.464125 1_555
Ni11 Ni33 2.473507 1_655
Ni11 Ni24 2.473507 1_555
Ni11 Ni25 2.601424 1_555
Ni11 Ni28 2.601424 1_555
Ni11 Ni3 2.705790 1_555
Ni12 Ni9 2.404276 1_665
Ni12 Ni6 2.404276 1_565
Ni12 Ni15 2.414802 1_555
Ni12 Ni14 2.475217 1_555
Ni12 Ni31 2.476673 1_655
Ni12 Ni22 2.476673 1_555
Ni12 Ni29 2.597716 1_565
Ni12 Ni26 2.597716 1_565
Ni12 Ni3 2.708443 1_555
Ni13 Ni4 2.404276 1_555
Ni13 Ni7 2.404276 1_655
Ni13 Ni33 2.476673 1_655
Ni13 Ni24 2.476673 1_555
Ni13 Ni29 2.597716 1_554
Ni13 Ni26 2.597716 1_554
Ni13 Ni3 2.708443 1_555
Ni14 Ni6 2.404150 1_565
Ni14 Ni9 2.404150 1_665
Ni14 Ni23 2.468308 1_555
Ni14 Ni32 2.468308 1_655
Ni14 Ni25 2.601625 1_565
Ni14 Ni28 2.601625 1_565
Ni14 Ni3 2.715155 1_555
Ni15 Ni8 2.401836 1_655
Ni15 Ni5 2.401836 1_555
Ni15 Ni31 2.473507 1_655
Ni15 Ni22 2.473507 1_555
Ni15 Ni30 2.601424 1_555
Ni15 Ni27 2.601424 1_555
Ni15 Ni3 2.705790 1_555
Ni16 Ni20 2.401127 1_555
Ni16 Ni4 2.404150 1_556
Ni16 Ni7 2.404150 1_556
Ni16 Ni26 2.468308 1_555
Ni16 Ni29 2.468308 1_455
Ni16 Ni19 2.475217 1_555
Ni16 Ni24 2.601625 1_556
Ni16 Ni33 2.601625 1_556
Ni16 Ni2 2.715155 1_555
Ni17 Ni5 2.401836 1_555
Ni17 Ni8 2.401836 1_555
Ni17 Ni19 2.414802 1_555
Ni17 Ni21 2.464125 1_555
Ni17 Ni30 2.473507 1_455
Ni17 Ni27 2.473507 1_555
Ni17 Ni31 2.601424 1_555
Ni17 Ni22 2.601424 1_555
Ni17 Ni2 2.705790 1_555
Ni18 Ni6 2.404276 1_555
Ni18 Ni9 2.404276 1_555
Ni18 Ni21 2.414802 1_555
Ni18 Ni20 2.475217 1_555
Ni18 Ni28 2.476673 1_455
Ni18 Ni25 2.476673 1_555
Ni18 Ni23 2.597716 1_545
Ni18 Ni32 2.597716 1_545
Ni18 Ni2 2.708443 1_555
Ni19 Ni4 2.404276 1_556
Ni19 Ni7 2.404276 1_556
Ni19 Ni30 2.476673 1_455
Ni19 Ni27 2.476673 1_555
Ni19 Ni32 2.597716 1_556
Ni19 Ni23 2.597716 1_556
Ni19 Ni2 2.708443 1_555
Ni20 Ni9 2.404150 1_555
Ni20 Ni6 2.404150 1_555
Ni20 Ni26 2.468308 1_555
Ni20 Ni29 2.468308 1_455
Ni20 Ni31 2.601625 1_545
Ni20 Ni22 2.601625 1_545
Ni21 Ni5 2.401836 1_555
Ni21 Ni8 2.401836 1_555
Ni21 Ni28 2.473507 1_455
Ni21 Ni25 2.473507 1_555
Ni21 Ni24 2.601424 1_555
Ni21 Ni33 2.601424 1_555
Ni22 Ni5 2.404396 1_555
Ni22 Ni6 2.412852 1_565
Ni22 Ni26 2.430944 1_565
Ni22 Ni27 2.437622 1_555
Ni23 Ni4 2.405526 1_555
Ni23 Ni6 2.405526 1_565
Ni23 Ni27 2.430944 1_554
Ni23 Ni25 2.430944 1_565
Ni24 Ni5 2.404396 1_555
Ni24 Ni4 2.412852 1_555
Ni24 Ni26 2.430944 1_554
Ni24 Ni25 2.437622 1_555
Ni25 Ni5 2.404396 1_555
Ni25 Ni6 2.412852 1_555
Ni26 Ni6 2.405526 1_555
Ni26 Ni4 2.405526 1_556
Ni27 Ni5 2.404396 1_555
Ni27 Ni4 2.412852 1_556
Ni28 Ni8 2.404396 1_655
Ni28 Ni9 2.412852 1_655
Ni28 Ni32 2.430944 1_645
Ni28 Ni33 2.437622 1_655
Ni29 Ni9 2.405526 1_655
Ni29 Ni7 2.405526 1_656
Ni29 Ni31 2.430944 1_645
Ni29 Ni33 2.430944 1_656
Ni30 Ni8 2.404396 1_655
Ni30 Ni7 2.412852 1_656
Ni30 Ni32 2.430944 1_656
Ni30 Ni31 2.437622 1_655
Ni31 Ni8 2.404396 1_555
Ni31 Ni9 2.412852 1_565
Ni32 Ni7 2.405526 1_555
Ni32 Ni9 2.405526 1_565
Ni33 Ni8 2.404396 1_555
Ni33 Ni7 2.412852 1_555
