# generated using pymatgen
data_KIBr2O
_symmetry_space_group_name_H-M   'P 1'
_cell_length_a   11.86167900
_cell_length_b   12.01957400
_cell_length_c   5.35108300
_cell_angle_alpha   90.00000000
_cell_angle_beta   90.00000000
_cell_angle_gamma   90.00000000
_symmetry_Int_Tables_number   1
_chemical_formula_structural   KIBr2O
_chemical_formula_sum   'K4 I4 Br8 O4'
_cell_volume   762.91636333
_cell_formula_units_Z   4
loop_
 _symmetry_equiv_pos_site_id
 _symmetry_equiv_pos_as_xyz
  1  'x, y, z'
loop_
 _atom_site_type_symbol
 _atom_site_label
 _atom_site_symmetry_multiplicity
 _atom_site_fract_x
 _atom_site_fract_y
 _atom_site_fract_z
 _atom_site_occupancy
  K  K0  1  0.82227600  0.21683600  0.50000000  1
  K  K1  1  0.17772400  0.78316400  0.50000000  1
  K  K2  1  0.32227600  0.28316400  0.00000000  1
  K  K3  1  0.67772400  0.71683600  0.00000000  1
  I  I0  1  0.50000000  0.50000000  0.50000000  1
  I  I1  1  0.00000000  0.00000000  0.00000000  1
  I  I2  1  0.50000000  0.00000000  0.50000000  1
  I  I3  1  0.00000000  0.50000000  0.00000000  1
  Br  Br0  1  0.52039100  0.26799300  0.50000000  1
  Br  Br1  1  0.47960900  0.73200700  0.50000000  1
  Br  Br2  1  0.02039100  0.23200700  0.00000000  1
  Br  Br3  1  0.97960900  0.76799300  0.00000000  1
  Br  Br4  1  0.72272000  0.93961000  0.50000000  1
  Br  Br5  1  0.27728000  0.06039000  0.50000000  1
  Br  Br6  1  0.22272000  0.56039000  0.00000000  1
  Br  Br7  1  0.77728000  0.43961000  0.00000000  1
  O  O0  1  0.80479700  0.22624600  0.00000000  1
  O  O1  1  0.19520300  0.77375400  0.00000000  1
  O  O2  1  0.30479700  0.27375400  0.50000000  1
  O  O3  1  0.69520300  0.72624600  0.50000000  1
loop_
_geom_bond_atom_site_label_1
_geom_bond_atom_site_label_2
_geom_bond_distance
_geom_bond_site_symmetry_2
K0 O0 2.685945 1_555
K0 O0 2.685945 1_556
K1 O1 2.685945 1_556
K1 O1 2.685945 1_555
K2 O2 2.685945 1_554
K2 O2 2.685945 1_555
K3 O3 2.685945 1_554
K3 O3 2.685945 1_555
Br0 O2 2.558244 1_555
Br0 I0 2.799095 1_555
Br0 I2 3.230230 1_555
Br0 K2 3.565693 1_555
Br0 K2 3.565693 1_556
Br0 K0 3.633272 1_555
Br1 O3 2.558244 1_555
Br1 I0 2.799095 1_555
Br1 I2 3.230230 1_565
Br1 K3 3.565693 1_556
Br1 K3 3.565693 1_555
Br1 K1 3.633272 1_555
Br2 O0 2.558244 1_455
Br2 I1 2.799095 1_555
Br2 I3 3.230230 1_555
Br2 K0 3.565693 1_455
Br2 K0 3.565693 1_454
Br2 K2 3.633272 1_555
Br3 O1 2.558244 1_655
Br3 I1 2.799095 1_665
Br3 I3 3.230230 1_655
Br3 K1 3.565693 1_654
Br3 K1 3.565693 1_655
Br3 K3 3.633272 1_555
Br4 O3 2.585232 1_555
Br4 I2 2.739737 1_565
Br4 K0 3.535205 1_565
Br4 K3 3.822720 1_556
Br4 K3 3.822720 1_555
Br5 O2 2.585232 1_555
Br5 I2 2.739737 1_555
Br5 K1 3.535205 1_545
Br5 K2 3.822720 1_555
Br5 K2 3.822720 1_556
Br6 O1 2.585232 1_555
Br6 I3 2.739737 1_555
Br6 K2 3.535205 1_555
Br6 K1 3.822720 1_555
Br6 K1 3.822720 1_554
Br7 O0 2.585232 1_555
Br7 I3 2.739737 1_655
Br7 K3 3.535205 1_555
Br7 K0 3.822720 1_554
Br7 K0 3.822720 1_555
