# generated using pymatgen
data_LaYb(Mo3Se4)4
_symmetry_space_group_name_H-M   'P 1'
_cell_length_a   6.79888600
_cell_length_b   6.82766139
_cell_length_c   13.72323415
_cell_angle_alpha   88.95817367
_cell_angle_beta   89.15794110
_cell_angle_gamma   88.79122664
_symmetry_Int_Tables_number   1
_chemical_formula_structural   LaYb(Mo3Se4)4
_chemical_formula_sum   'La1 Yb1 Mo12 Se16'
_cell_volume   636.72694585
_cell_formula_units_Z   1
loop_
 _symmetry_equiv_pos_site_id
 _symmetry_equiv_pos_as_xyz
  1  'x, y, z'
loop_
 _atom_site_type_symbol
 _atom_site_label
 _atom_site_symmetry_multiplicity
 _atom_site_fract_x
 _atom_site_fract_y
 _atom_site_fract_z
 _atom_site_occupancy
  La  La0  1  0.00000000  0.00000000  0.00000000  1
  Yb  Yb0  1  0.00000000  0.00000000  0.50000000  1
  Mo  Mo0  1  0.57657600  0.76438900  0.22074900  1
  Mo  Mo1  1  0.57611600  0.76287600  0.71932500  1
  Mo  Mo2  1  0.76133200  0.44103900  0.28813800  1
  Mo  Mo3  1  0.75971000  0.43846700  0.78663800  1
  Mo  Mo4  1  0.44035900  0.57663700  0.38311200  1
  Mo  Mo5  1  0.43878800  0.57645000  0.88209300  1
  Mo  Mo6  1  0.42388400  0.23712400  0.28067500  1
  Mo  Mo7  1  0.42342400  0.23561100  0.77925100  1
  Mo  Mo8  1  0.24029000  0.56153300  0.21336200  1
  Mo  Mo9  1  0.23866800  0.55896100  0.71186200  1
  Mo  Mo10  1  0.56121200  0.42355000  0.11790700  1
  Mo  Mo11  1  0.55964100  0.42336300  0.61688800  1
  Se  Se0  1  0.75857700  0.76142800  0.37996200  1
  Se  Se1  1  0.75625700  0.75939200  0.87854100  1
  Se  Se2  1  0.24374300  0.24060800  0.12145900  1
  Se  Se3  1  0.24142300  0.23857200  0.62003800  1
  Se  Se4  1  0.62605100  0.24901700  0.43857800  1
  Se  Se5  1  0.62367800  0.24864500  0.93851000  1
  Se  Se6  1  0.24913900  0.87762400  0.31409800  1
  Se  Se7  1  0.24696900  0.87696900  0.81223100  1
  Se  Se8  1  0.87626600  0.62441900  0.12303700  1
  Se  Se9  1  0.87560300  0.62502100  0.62326900  1
  Se  Se10  1  0.37632200  0.75135500  0.06149000  1
  Se  Se11  1  0.37394900  0.75098300  0.56142200  1
  Se  Se12  1  0.75303100  0.12303100  0.18776900  1
  Se  Se13  1  0.75086100  0.12237600  0.68590200  1
  Se  Se14  1  0.12439700  0.37497900  0.37673100  1
  Se  Se15  1  0.12373400  0.37558100  0.87696300  1
loop_
_geom_bond_atom_site_label_1
_geom_bond_atom_site_label_2
_geom_bond_distance
_geom_bond_site_symmetry_2
La0 Se2 2.918713 1_555
La0 Se1 2.918713 1_444
La0 Se10 3.157296 1_545
La0 Se5 3.157296 1_454
La0 Se15 3.166430 1_554
La0 Se8 3.166430 1_445
La0 Se7 3.171272 1_544
La0 Se12 3.171272 1_455
Mo0 Se0 2.526311 1_555
Mo0 Se10 2.595743 1_555
Mo0 Se8 2.597530 1_555
Mo0 Se6 2.659773 1_555
Mo0 Se12 2.776303 1_565
Mo1 Se1 2.519956 1_555
Mo1 Se9 2.579718 1_555
Mo1 Se11 2.586533 1_555
Mo1 Se7 2.668141 1_555
Mo1 Se13 2.777186 1_565
Mo2 Se0 2.543868 1_555
Mo2 Se4 2.593016 1_555
Mo2 Se12 2.594402 1_555
Mo2 Se8 2.682878 1_555
Mo2 Se14 2.792139 1_655
Mo3 Se1 2.547520 1_555
Mo3 Se13 2.586271 1_555
Mo3 Se5 2.602801 1_555
Mo3 Se9 2.675100 1_555
Mo3 Se15 2.805751 1_655
Mo4 Se0 2.526860 1_555
Mo4 Se14 2.579305 1_555
Mo4 Se6 2.581293 1_555
Mo4 Se4 2.650300 1_555
Mo4 Se11 2.767561 1_555
Mo5 Se1 2.515915 1_555
Mo5 Se15 2.570213 1_555
Mo5 Se7 2.585026 1_555
Mo5 Se5 2.652500 1_555
Mo5 Se10 2.778890 1_556
Mo6 Se2 2.519956 1_555
Mo6 Se14 2.579718 1_555
Mo6 Se4 2.586533 1_555
Mo6 Se12 2.668141 1_555
Mo6 Se6 2.777186 1_545
Mo7 Se3 2.526311 1_555
Mo7 Se5 2.595743 1_555
Mo7 Se15 2.597530 1_555
Mo7 Se13 2.659773 1_555
Mo7 Se7 2.776303 1_545
Mo8 Se2 2.547520 1_555
Mo8 Se6 2.586271 1_555
Mo8 Se10 2.602801 1_555
Mo8 Se14 2.675100 1_555
Mo8 Se8 2.805751 1_455
Mo9 Se3 2.543868 1_555
Mo9 Se11 2.593016 1_555
Mo9 Se7 2.594402 1_555
Mo9 Se15 2.682878 1_555
Mo9 Se9 2.792139 1_455
Mo10 Se2 2.515915 1_555
Mo10 Se8 2.570213 1_555
Mo10 Se12 2.585026 1_555
Mo10 Se10 2.652500 1_555
Mo10 Se5 2.778890 1_554
Mo11 Se3 2.526860 1_555
Mo11 Se9 2.579305 1_555
Mo11 Se13 2.581293 1_555
Mo11 Se11 2.650300 1_555
Mo11 Se4 2.767561 1_555
Se0 Yb0 2.889807 1_665
Se3 Yb0 2.889807 1_555
Se4 Yb0 3.145420 1_655
Se6 Yb0 3.156994 1_565
Se9 Yb0 3.166003 1_665
Se11 Yb0 3.145420 1_565
Se13 Yb0 3.156994 1_655
Se14 Yb0 3.166003 1_555
