# generated using pymatgen
data_CaSO6
_symmetry_space_group_name_H-M   'P 1'
_cell_length_a   17.52331300
_cell_length_b   5.69855800
_cell_length_c   6.72381271
_cell_angle_alpha   57.48063869
_cell_angle_beta   90.00000000
_cell_angle_gamma   90.00000000
_symmetry_Int_Tables_number   1
_chemical_formula_structural   CaSO6
_chemical_formula_sum   'Ca4 S4 O24'
_cell_volume   566.15123888
_cell_formula_units_Z   4
loop_
 _symmetry_equiv_pos_site_id
 _symmetry_equiv_pos_as_xyz
  1  'x, y, z'
loop_
 _atom_site_type_symbol
 _atom_site_label
 _atom_site_symmetry_multiplicity
 _atom_site_fract_x
 _atom_site_fract_y
 _atom_site_fract_z
 _atom_site_occupancy
  Ca  Ca0  1  0.80979900  0.75141000  0.00486600  1
  Ca  Ca1  1  0.69020100  0.75141000  0.50486600  1
  Ca  Ca2  1  0.19020100  0.24859000  0.99513400  1
  Ca  Ca3  1  0.30979900  0.24859000  0.49513400  1
  S  S0  1  0.67374700  0.25163900  0.00478000  1
  S  S1  1  0.82625300  0.25163900  0.50478000  1
  S  S2  1  0.32625300  0.74836100  0.99522000  1
  S  S3  1  0.17374700  0.74836100  0.49522000  1
  O  O0  1  0.72394800  0.50129500  0.92803200  1
  O  O1  1  0.77605200  0.50129500  0.42803200  1
  O  O2  1  0.27605200  0.49870500  0.07196800  1
  O  O3  1  0.22394800  0.49870500  0.57196800  1
  O  O4  1  0.22352800  0.99853700  0.41900200  1
  O  O5  1  0.27647200  0.99853700  0.91900200  1
  O  O6  1  0.77647200  0.00146300  0.58099800  1
  O  O7  1  0.72352800  0.00146300  0.08099800  1
  O  O8  1  0.62808500  0.32255000  0.79486200  1
  O  O9  1  0.87191500  0.32255000  0.29486200  1
  O  O10  1  0.37191500  0.67745000  0.20513800  1
  O  O11  1  0.12808500  0.67745000  0.70513800  1
  O  O12  1  0.12870900  0.81886700  0.28451600  1
  O  O13  1  0.37129100  0.81886700  0.78451600  1
  O  O14  1  0.87129100  0.18113300  0.71548400  1
  O  O15  1  0.62870900  0.18113300  0.21548400  1
  O  O16  1  0.97706000  0.94384600  0.08185900  1
  O  O17  1  0.52294000  0.94384600  0.58185900  1
  O  O18  1  0.02294000  0.05615400  0.91814100  1
  O  O19  1  0.47706000  0.05615400  0.41814100  1
  O  O20  1  0.47669300  0.44417400  0.58107700  1
  O  O21  1  0.02330700  0.44417400  0.08107700  1
  O  O22  1  0.52330700  0.55582600  0.41892300  1
  O  O23  1  0.97669300  0.55582600  0.91892300  1
loop_
_geom_bond_atom_site_label_1
_geom_bond_atom_site_label_2
_geom_bond_distance
_geom_bond_site_symmetry_2
Ca0 O0 2.313707 1_554
Ca0 O7 2.315632 1_565
Ca0 O14 2.412624 1_564
Ca0 O9 2.415761 1_555
Ca0 O1 2.473181 1_555
Ca0 O6 2.475419 1_564
Ca1 O1 2.313707 1_555
Ca1 O6 2.315632 1_565
Ca1 O15 2.412624 1_565
Ca1 O8 2.415761 1_555
Ca1 O0 2.473181 1_555
Ca1 O7 2.475419 1_565
Ca2 O2 2.313707 1_556
Ca2 O5 2.315632 1_545
Ca2 O12 2.412624 1_546
Ca2 O11 2.415761 1_555
Ca2 O3 2.473181 1_555
Ca2 O4 2.475419 1_546
Ca3 O3 2.313707 1_555
Ca3 O4 2.315632 1_545
Ca3 O13 2.412624 1_545
Ca3 O10 2.415761 1_555
Ca3 O2 2.473181 1_555
Ca3 O5 2.475419 1_545
O0 S0 1.508250 1_556
O1 S1 1.508250 1_555
O2 S2 1.508250 1_554
O3 S3 1.508250 1_555
O4 S3 1.506824 1_555
O5 S2 1.506824 1_555
O6 S1 1.506824 1_555
O7 S0 1.506824 1_555
O8 S0 1.477326 1_556
O9 S1 1.477326 1_555
O10 S2 1.477326 1_554
O11 S3 1.477326 1_555
O12 S3 1.476285 1_555
O13 S2 1.476285 1_555
O14 S1 1.476285 1_555
O15 S0 1.476285 1_555
O16 O18 1.228931 1_664
O17 O19 1.228931 1_565
O20 O22 1.230822 1_555
O21 O23 1.230822 1_454
