# generated using pymatgen
data_Li9Mn2Co5O16
_symmetry_space_group_name_H-M   'P 1'
_cell_length_a   4.97544031
_cell_length_b   9.78639326
_cell_length_c   5.87952952
_cell_angle_alpha   90.00000000
_cell_angle_beta   90.00000000
_cell_angle_gamma   99.82447649
_symmetry_Int_Tables_number   1
_chemical_formula_structural   Li9Mn2Co5O16
_chemical_formula_sum   'Li9 Mn2 Co5 O16'
_cell_volume   282.08546640
_cell_formula_units_Z   1
loop_
 _symmetry_equiv_pos_site_id
 _symmetry_equiv_pos_as_xyz
  1  'x, y, z'
loop_
 _atom_site_type_symbol
 _atom_site_label
 _atom_site_symmetry_multiplicity
 _atom_site_fract_x
 _atom_site_fract_y
 _atom_site_fract_z
 _atom_site_occupancy
  Li  Li0  1  0.25010962  0.25011660  0.25074657  1
  Li  Li1  1  0.74989038  0.74988340  0.25074657  1
  Li  Li2  1  0.75048559  0.25939074  0.50375675  1
  Li  Li3  1  0.24951441  0.74060926  0.50375675  1
  Li  Li4  1  0.24712867  0.25088876  0.74859492  1
  Li  Li5  1  0.75287133  0.74911124  0.74859492  1
  Li  Li6  1  0.75790742  0.25603548  0.99569675  1
  Li  Li7  1  0.24209258  0.74396452  0.99569675  1
  Li  Li8  1  -0.00000000  0.50000000  0.74971476  1
  Mn  Mn0  1  -0.00000000  -0.00000000  0.00044855  1
  Mn  Mn1  1  0.50000000  0.50000000  -0.00002708  1
  Co  Co0  1  0.50000000  -0.00000000  0.25720208  1
  Co  Co1  1  -0.00000000  0.50000000  0.24594281  1
  Co  Co2  1  -0.00000000  -0.00000000  0.50011696  1
  Co  Co3  1  0.50000000  0.50000000  0.51188559  1
  Co  Co4  1  0.50000000  -0.00000000  0.74059532  1
  O  O0  1  0.86873424  0.11353211  0.23228860  1
  O  O1  1  0.35877492  0.61062674  0.24018142  1
  O  O2  1  0.38973060  0.12293931  0.49971544  1
  O  O3  1  0.86687020  0.60763139  0.47530195  1
  O  O4  1  0.87051959  0.11590496  0.76628026  1
  O  O5  1  0.39599269  0.61554543  0.76542552  1
  O  O6  1  0.35480898  0.11334848  -0.00076831  1
  O  O7  1  0.86290935  0.60789972  0.01984062  1
  O  O8  1  0.64122508  0.38937326  0.24018142  1
  O  O9  1  0.13126576  0.88646789  0.23228860  1
  O  O10  1  0.13312980  0.39236861  0.47530195  1
  O  O11  1  0.61026940  0.87706069  0.49971544  1
  O  O12  1  0.60400731  0.38445457  0.76542552  1
  O  O13  1  0.12948041  0.88409504  0.76628026  1
  O  O14  1  0.13709065  0.39210028  0.01984062  1
  O  O15  1  0.64519102  0.88665152  -0.00076831  1
loop_
_geom_bond_atom_site_label_1
_geom_bond_atom_site_label_2
_geom_bond_distance
_geom_bond_site_symmetry_2
Li0 O10 2.072786 1_555
Li0 O14 2.087272 1_555
Li0 O2 2.114106 1_555
Li0 O6 2.118399 1_555
Li0 O0 2.129191 1_455
Li0 O8 2.177824 1_555
Li1 O3 2.072786 1_555
Li1 O7 2.087272 1_555
Li1 O11 2.114106 1_555
Li1 O15 2.118399 1_555
Li1 O9 2.129191 1_655
Li1 O1 2.177824 1_555
Li2 O2 2.046346 1_555
Li2 O10 2.121463 1_655
Li2 O8 2.133357 1_555
Li2 O12 2.168059 1_555
Li2 O4 2.235420 1_555
Li2 O0 2.284260 1_555
Li3 O11 2.046346 1_555
Li3 O3 2.121463 1_455
Li3 O1 2.133357 1_555
Li3 O5 2.168059 1_555
Li3 O13 2.235420 1_555
Li3 O9 2.284260 1_555
Li4 O12 2.019696 1_555
Li4 O4 2.102916 1_455
Li4 O2 2.125024 1_555
Li4 O6 2.125203 1_556
Li4 O14 2.238551 1_556
Li4 O10 2.255810 1_555
Li5 O5 2.019696 1_555
Li5 O13 2.102916 1_655
Li5 O11 2.125024 1_555
Li5 O15 2.125203 1_556
Li5 O7 2.238551 1_556
Li5 O3 2.255810 1_555
Li6 O4 2.067906 1_555
Li6 O12 2.080189 1_555
Li6 O8 2.089159 1_556
Li6 O0 2.108647 1_556
Li6 O14 2.120197 1_656
Li6 O6 2.239868 1_556
Li7 O13 2.067906 1_555
Li7 O5 2.080189 1_555
Li7 O1 2.089159 1_556
Li7 O9 2.108647 1_556
Li7 O7 2.120197 1_456
Li7 O15 2.239868 1_556
Li8 O14 2.085302 1_556
Li8 O7 2.085302 1_456
Li8 O10 2.095102 1_555
Li8 O3 2.095102 1_455
Li8 O12 2.099697 1_455
Li8 O5 2.099697 1_555
Mn0 O6 1.917984 1_555
Mn0 O15 1.917984 1_445
Mn0 O9 1.940806 1_545
Mn0 O0 1.940806 1_455
Mn0 O13 1.961272 1_544
Mn0 O4 1.961272 1_454
Mn1 O12 1.909933 1_554
Mn1 O5 1.909933 1_554
Mn1 O14 1.933473 1_555
Mn1 O7 1.933473 1_555
Mn1 O8 1.979915 1_555
Mn1 O1 1.979915 1_555
Co0 O9 1.981445 1_545
Co0 O0 1.981445 1_555
Co0 O2 2.001720 1_555
Co0 O11 2.001720 1_545
Co0 O6 2.079978 1_555
Co0 O15 2.079978 1_545
Co1 O14 1.895600 1_555
Co1 O7 1.895600 1_455
Co1 O10 1.898644 1_555
Co1 O3 1.898644 1_455
Co1 O8 1.923587 1_455
Co1 O1 1.923587 1_555
Co2 O0 2.094839 1_455
Co2 O9 2.094839 1_545
Co2 O13 2.097610 1_545
Co2 O4 2.097610 1_455
Co2 O2 2.100338 1_555
Co2 O11 2.100338 1_445
Co3 O3 1.957419 1_555
Co3 O10 1.957419 1_555
Co3 O12 1.992059 1_555
Co3 O5 1.992059 1_555
Co3 O8 2.115991 1_555
Co3 O1 2.115991 1_555
Co4 O11 1.994890 1_545
Co4 O2 1.994890 1_555
Co4 O13 1.998577 1_545
Co4 O4 1.998577 1_555
Co4 O6 2.082835 1_556
Co4 O15 2.082835 1_546
