# generated using pymatgen
data_PrZr6(PO4)9
_symmetry_space_group_name_H-M   'P 1'
_cell_length_a   8.91792560
_cell_length_b   8.91792560
_cell_length_c   23.38825200
_cell_angle_alpha   90.00000000
_cell_angle_beta   90.00000000
_cell_angle_gamma   119.99999701
_symmetry_Int_Tables_number   1
_chemical_formula_structural   PrZr6(PO4)9
_chemical_formula_sum   'Pr2 Zr12 P18 O72'
_cell_volume   1610.85369898
_cell_formula_units_Z   2
loop_
 _symmetry_equiv_pos_site_id
 _symmetry_equiv_pos_as_xyz
  1  'x, y, z'
loop_
 _atom_site_type_symbol
 _atom_site_label
 _atom_site_symmetry_multiplicity
 _atom_site_fract_x
 _atom_site_fract_y
 _atom_site_fract_z
 _atom_site_occupancy
  Pr  Pr0  1  0.00000000  0.00000000  0.50000000  1
  Pr  Pr1  1  0.00000000  0.00000000  0.00000000  1
  Zr  Zr0  1  0.33333300  0.66666700  0.52488000  1
  Zr  Zr1  1  0.66666700  0.33333300  0.47512000  1
  Zr  Zr2  1  0.66666700  0.33333300  0.97512000  1
  Zr  Zr3  1  0.33333300  0.66666700  0.02488000  1
  Zr  Zr4  1  0.00000000  0.00000000  0.65069300  1
  Zr  Zr5  1  0.00000000  0.00000000  0.34930700  1
  Zr  Zr6  1  0.00000000  0.00000000  0.84930700  1
  Zr  Zr7  1  0.00000000  0.00000000  0.15069300  1
  Zr  Zr8  1  0.33333300  0.66666700  0.81305400  1
  Zr  Zr9  1  0.66666700  0.33333300  0.18694600  1
  Zr  Zr10  1  0.66666700  0.33333300  0.68694600  1
  Zr  Zr11  1  0.33333300  0.66666700  0.31305400  1
  P  P0  1  0.37482200  0.32288700  0.57977100  1
  P  P1  1  0.62517800  0.67711300  0.42022900  1
  P  P2  1  0.67711300  0.05193500  0.57977100  1
  P  P3  1  0.32288700  0.37482200  0.92022900  1
  P  P4  1  0.32288700  0.94806600  0.42022900  1
  P  P5  1  0.67711300  0.62517800  0.07977100  1
  P  P6  1  0.94806600  0.62517800  0.57977100  1
  P  P7  1  0.05193500  0.67711300  0.92022900  1
  P  P8  1  0.05193500  0.37482200  0.42022900  1
  P  P9  1  0.94806600  0.32288700  0.07977100  1
  P  P10  1  0.62517800  0.94806600  0.92022900  1
  P  P11  1  0.37482200  0.05193500  0.07977100  1
  P  P12  1  0.29234900  0.00000000  0.75000000  1
  P  P13  1  0.70765100  0.00000000  0.25000000  1
  P  P14  1  0.00000000  0.29234900  0.75000000  1
  P  P15  1  0.00000000  0.70765100  0.25000000  1
  P  P16  1  0.70765100  0.70765100  0.75000000  1
  P  P17  1  0.29234900  0.29234900  0.25000000  1
  O  O0  1  0.44999600  0.27819100  0.52739500  1
  O  O1  1  0.55000400  0.72180900  0.47260500  1
  O  O2  1  0.72180900  0.17180500  0.52739500  1
  O  O3  1  0.27819100  0.44999600  0.97260500  1
  O  O4  1  0.27819100  0.82819500  0.47260500  1
  O  O5  1  0.72180900  0.55000400  0.02739500  1
  O  O6  1  0.82819500  0.55000400  0.52739500  1
  O  O7  1  0.17180500  0.72180900  0.97260500  1
  O  O8  1  0.17180500  0.44999600  0.47260500  1
  O  O9  1  0.82819500  0.27819100  0.02739500  1
  O  O10  1  0.55000400  0.82819500  0.97260500  1
  O  O11  1  0.44999600  0.17180500  0.02739500  1
  O  O12  1  0.37832100  0.49569800  0.57138800  1
  O  O13  1  0.62167900  0.50430200  0.42861200  1
  O  O14  1  0.50430200  0.88262300  0.57138800  1
  O  O15  1  0.49569800  0.37832100  0.92861200  1
  O  O16  1  0.49569800  0.11737700  0.42861200  1
  O  O17  1  0.50430200  0.62167900  0.07138800  1
  O  O18  1  0.11737700  0.62167900  0.57138800  1
  O  O19  1  0.88262300  0.50430200  0.92861200  1
  O  O20  1  0.88262300  0.37832100  0.42861200  1
  O  O21  1  0.11737700  0.49569800  0.07138800  1
  O  O22  1  0.62167900  0.11737700  0.92861200  1
  O  O23  1  0.37832100  0.88262300  0.07138800  1
  O  O24  1  0.17830600  0.17370900  0.58245400  1
  O  O25  1  0.82169400  0.82629100  0.41754600  1
  O  O26  1  0.82629100  0.00459600  0.58245400  1
  O  O27  1  0.17370900  0.17830600  0.91754600  1
  O  O28  1  0.17370900  0.99540400  0.41754600  1
  O  O29  1  0.82629100  0.82169400  0.08245400  1
  O  O30  1  0.99540400  0.82169400  0.58245400  1
  O  O31  1  0.00459600  0.82629100  0.91754600  1
  O  O32  1  0.00459600  0.17830600  0.41754600  1
  O  O33  1  0.99540400  0.17370900  0.08245400  1
  O  O34  1  0.82169400  0.99540400  0.91754600  1
  O  O35  1  0.17830600  0.00459600  0.08245400  1
  O  O36  1  0.03030500  0.20515300  0.69692800  1
  O  O37  1  0.96969500  0.79484700  0.30307200  1
  O  O38  1  0.79484700  0.82515200  0.69692800  1
  O  O39  1  0.20515300  0.03030500  0.80307200  1
  O  O40  1  0.20515300  0.17484800  0.30307200  1
  O  O41  1  0.79484700  0.96969500  0.19692800  1
  O  O42  1  0.17484800  0.96969500  0.69692800  1
  O  O43  1  0.82515200  0.79484700  0.80307200  1
  O  O44  1  0.82515200  0.03030500  0.30307200  1
  O  O45  1  0.17484800  0.20515300  0.19692800  1
  O  O46  1  0.96969500  0.17484800  0.80307200  1
  O  O47  1  0.03030500  0.82515200  0.19692800  1
  O  O48  1  0.46931800  0.32784600  0.63478600  1
  O  O49  1  0.53068200  0.67215400  0.36521400  1
  O  O50  1  0.67215400  0.14147300  0.63478600  1
  O  O51  1  0.32784600  0.46931800  0.86521400  1
  O  O52  1  0.32784600  0.85852700  0.36521400  1
  O  O53  1  0.67215400  0.53068200  0.13478600  1
  O  O54  1  0.85852700  0.53068200  0.63478600  1
  O  O55  1  0.14147300  0.67215400  0.86521400  1
  O  O56  1  0.14147300  0.46931800  0.36521400  1
  O  O57  1  0.85852700  0.32784600  0.13478600  1
  O  O58  1  0.53068200  0.85852700  0.86521400  1
  O  O59  1  0.46931800  0.14147300  0.13478600  1
  O  O60  1  0.46919300  0.15946600  0.73958200  1
  O  O61  1  0.53080700  0.84053400  0.26041800  1
  O  O62  1  0.84053400  0.30972700  0.73958200  1
  O  O63  1  0.15946600  0.46919300  0.76041800  1
  O  O64  1  0.15946600  0.69027300  0.26041800  1
  O  O65  1  0.84053400  0.53080700  0.23958200  1
  O  O66  1  0.69027300  0.53080700  0.73958200  1
  O  O67  1  0.30972700  0.84053400  0.76041800  1
  O  O68  1  0.30972700  0.46919300  0.26041800  1
  O  O69  1  0.69027300  0.15946600  0.23958200  1
  O  O70  1  0.53080700  0.69027300  0.76041800  1
  O  O71  1  0.46919300  0.30972700  0.23958200  1
loop_
_geom_bond_atom_site_label_1
_geom_bond_atom_site_label_2
_geom_bond_distance
_geom_bond_site_symmetry_2
O0 P0 1.541464 1_555
O0 Zr1 2.126039 1_555
O1 P1 1.541464 1_555
O1 Zr0 2.126039 1_555
O2 P2 1.541464 1_555
O2 Zr1 2.126032 1_555
O3 P3 1.541464 1_555
O3 Zr3 2.126039 1_556
O4 P4 1.541469 1_555
O4 Zr0 2.126032 1_555
O5 P5 1.541464 1_555
O5 Zr2 2.126039 1_554
O6 P6 1.541468 1_555
O6 Zr1 2.126037 1_555
O7 P7 1.541464 1_555
O7 Zr3 2.126032 1_556
O8 P8 1.541464 1_555
O8 Zr0 2.126037 1_555
O9 P9 1.541469 1_555
O9 Zr2 2.126032 1_554
O10 P10 1.541468 1_555
O10 Zr3 2.126037 1_556
O11 P11 1.541464 1_555
O11 Zr2 2.126037 1_554
O12 P0 1.538299 1_555
O12 Zr0 2.068942 1_555
O13 P1 1.538299 1_555
O13 Zr1 2.068942 1_555
O14 P2 1.538299 1_565
O14 Zr0 2.068937 1_555
O15 P3 1.538299 1_555
O15 Zr2 2.068942 1_555
O16 P4 1.538295 1_545
O16 Zr1 2.068937 1_555
O17 P5 1.538299 1_555
O17 Zr3 2.068942 1_555
O18 P6 1.538290 1_455
O18 Zr0 2.068935 1_555
O19 P7 1.538299 1_655
O19 Zr2 2.068937 1_555
O20 P8 1.538299 1_655
O20 Zr1 2.068935 1_555
O21 P9 1.538295 1_455
O21 Zr3 2.068937 1_555
O22 P10 1.538290 1_545
O22 Zr2 2.068935 1_555
O23 P11 1.538299 1_565
O23 Zr3 2.068935 1_555
O24 P0 1.585442 1_555
O24 Zr4 2.238785 1_555
O24 Pr0 2.486747 1_555
O25 P1 1.585442 1_555
O25 Zr5 2.238785 1_665
O25 Pr0 2.486747 1_665
O26 P2 1.585448 1_555
O26 Zr4 2.238782 1_655
O26 Pr0 2.486744 1_655
O27 P3 1.585442 1_555
O27 Zr6 2.238785 1_555
O27 Pr1 2.486747 1_556
O28 P4 1.585442 1_555
O28 Zr5 2.238782 1_565
O28 Pr0 2.486744 1_565
O29 P5 1.585442 1_555
O29 Zr7 2.238785 1_665
O29 Pr1 2.486747 1_665
O30 P6 1.585442 1_555
O30 Zr4 2.238788 1_665
O30 Pr0 2.486750 1_665
O31 P7 1.585448 1_555
O31 Zr6 2.238782 1_565
O31 Pr1 2.486744 1_566
O32 P8 1.585440 1_555
O32 Zr5 2.238788 1_555
O32 Pr0 2.486750 1_555
O33 P9 1.585442 1_555
O33 Zr7 2.238782 1_655
O33 Pr1 2.486744 1_655
O34 P10 1.585442 1_555
O34 Zr6 2.238788 1_665
O34 Pr1 2.486750 1_666
O35 P11 1.585440 1_555
O35 Zr7 2.238788 1_555
O35 Pr1 2.486750 1_555
O36 P14 1.558396 1_555
O36 Zr4 2.023644 1_555
O37 P15 1.558396 1_655
O37 Zr5 2.023644 1_665
O38 P16 1.558396 1_555
O38 Zr4 2.023644 1_665
O39 P12 1.558396 1_555
O39 Zr6 2.023644 1_555
O40 P17 1.558396 1_555
O40 Zr5 2.023644 1_555
O41 P13 1.558396 1_565
O41 Zr7 2.023644 1_665
O42 P12 1.558396 1_565
O42 Zr4 2.023644 1_565
O43 P16 1.558396 1_555
O43 Zr6 2.023644 1_665
O44 P13 1.558396 1_555
O44 Zr5 2.023644 1_655
O45 P17 1.558396 1_555
O45 Zr7 2.023644 1_555
O46 P14 1.558396 1_655
O46 Zr6 2.023644 1_655
O47 P15 1.558396 1_555
O47 Zr7 2.023644 1_565
O48 P0 1.526582 1_555
O48 Zr10 2.121770 1_555
O49 P1 1.526582 1_555
O49 Zr11 2.121770 1_555
O50 P2 1.526587 1_555
O50 Zr10 2.121756 1_555
O51 P3 1.526582 1_555
O51 Zr8 2.121770 1_555
O52 P4 1.526592 1_555
O52 Zr11 2.121756 1_555
O53 P5 1.526582 1_555
O53 Zr9 2.121770 1_555
O54 P6 1.526587 1_555
O54 Zr10 2.121763 1_555
O55 P7 1.526587 1_555
O55 Zr8 2.121756 1_555
O56 P8 1.526585 1_555
O56 Zr11 2.121763 1_555
O57 P9 1.526592 1_555
O57 Zr9 2.121756 1_555
O58 P10 1.526587 1_555
O58 Zr8 2.121763 1_555
O59 P11 1.526585 1_555
O59 Zr9 2.121763 1_555
O60 P12 1.525177 1_555
O60 Zr10 2.071333 1_555
O61 P13 1.525177 1_565
O61 Zr11 2.071333 1_555
O62 P14 1.525177 1_655
O62 Zr10 2.071328 1_555
O63 P14 1.525177 1_555
O63 Zr8 2.071333 1_555
O64 P15 1.525177 1_555
O64 Zr11 2.071328 1_555
O65 P15 1.525177 1_655
O65 Zr9 2.071333 1_555
O66 P16 1.525177 1_555
O66 Zr10 2.071336 1_555
O67 P12 1.525177 1_565
O67 Zr8 2.071328 1_555
O68 P17 1.525177 1_555
O68 Zr11 2.071336 1_555
O69 P13 1.525177 1_555
O69 Zr9 2.071328 1_555
O70 P16 1.525177 1_555
O70 Zr8 2.071336 1_555
O71 P17 1.525177 1_555
O71 Zr9 2.071336 1_555
