# generated using pymatgen
data_Cu10Hg2Sb4S13
_symmetry_space_group_name_H-M   'P 1'
_cell_length_a   9.15866362
_cell_length_b   9.15866362
_cell_length_c   9.15866362
_cell_angle_alpha   110.92583797
_cell_angle_beta   110.92583797
_cell_angle_gamma   106.59958946
_symmetry_Int_Tables_number   1
_chemical_formula_structural   Cu10Hg2Sb4S13
_chemical_formula_sum   'Cu10 Hg2 Sb4 S13'
_cell_volume   590.28353780
_cell_formula_units_Z   1
loop_
 _symmetry_equiv_pos_site_id
 _symmetry_equiv_pos_as_xyz
  1  'x, y, z'
loop_
 _atom_site_type_symbol
 _atom_site_label
 _atom_site_symmetry_multiplicity
 _atom_site_fract_x
 _atom_site_fract_y
 _atom_site_fract_z
 _atom_site_occupancy
  Cu  Cu0  1  0.23635900  0.50000000  0.73635900  1
  Cu  Cu1  1  0.50000000  0.23635900  0.73635900  1
  Cu  Cu2  1  0.25000000  0.75000000  0.50000000  1
  Cu  Cu3  1  0.50000000  0.76364100  0.26364100  1
  Cu  Cu4  1  0.76364100  0.50000000  0.26364100  1
  Cu  Cu5  1  0.75000000  0.25000000  0.50000000  1
  Cu  Cu6  1  0.22556900  0.00000000  0.22556900  1
  Cu  Cu7  1  0.00000000  0.77443100  0.77443100  1
  Cu  Cu8  1  0.77443100  0.00000000  0.77443100  1
  Cu  Cu9  1  0.00000000  0.22556900  0.22556900  1
  Hg  Hg0  1  0.76381500  0.76381500  0.00000000  1
  Hg  Hg1  1  0.23618500  0.23618500  0.00000000  1
  Sb  Sb0  1  0.01573200  0.46859400  0.00000000  1
  Sb  Sb1  1  0.46859400  0.01573200  0.00000000  1
  Sb  Sb2  1  0.98426800  0.98426800  0.45286100  1
  Sb  Sb3  1  0.53140600  0.53140600  0.54713900  1
  S  S0  1  0.00000000  0.00000000  0.00000000  1
  S  S1  1  0.74610500  0.48242500  0.00000000  1
  S  S2  1  0.24529500  0.77155200  0.25444900  1
  S  S3  1  0.99084600  0.51710400  0.74555100  1
  S  S4  1  0.48242500  0.74610500  0.00000000  1
  S  S5  1  0.51710400  0.99084600  0.74555100  1
  S  S6  1  0.77155200  0.24529500  0.25444900  1
  S  S7  1  0.25389500  0.25389500  0.73632000  1
  S  S8  1  0.75470500  0.00915400  0.52625800  1
  S  S9  1  0.00915400  0.75470500  0.52625800  1
  S  S10  1  0.51757500  0.51757500  0.26368000  1
  S  S11  1  0.48289600  0.22844800  0.47374200  1
  S  S12  1  0.22844800  0.48289600  0.47374200  1
loop_
_geom_bond_atom_site_label_1
_geom_bond_atom_site_label_2
_geom_bond_distance
_geom_bond_site_symmetry_2
Cu0 S4 2.304904 1_556
Cu0 S7 2.304904 1_555
Cu0 S3 2.326962 1_455
Cu0 S12 2.326966 1_555
Cu1 S7 2.304904 1_555
Cu1 S1 2.304904 1_556
Cu1 S5 2.326962 1_545
Cu1 S11 2.326966 1_555
Cu2 S2 2.313262 1_555
Cu2 S5 2.313266 1_555
Cu2 S9 2.313266 1_555
Cu2 S12 2.313269 1_555
Cu3 S4 2.304904 1_555
Cu3 S10 2.304904 1_555
Cu3 S2 2.326959 1_555
Cu3 S8 2.326962 1_565
Cu4 S1 2.304904 1_555
Cu4 S10 2.304904 1_555
Cu4 S6 2.326959 1_555
Cu4 S9 2.326962 1_655
Cu5 S6 2.313262 1_555
Cu5 S3 2.313266 1_555
Cu5 S8 2.313266 1_555
Cu5 S11 2.313269 1_555
Cu6 S11 2.248856 1_555
Cu6 S2 2.248862 1_545
Cu6 S0 2.342493 1_555
Cu7 S9 2.248853 1_555
Cu7 S3 2.248853 1_455
Cu7 S0 2.342493 1_566
Cu8 S5 2.248853 1_545
Cu8 S8 2.248853 1_555
Cu8 S0 2.342493 1_656
Cu9 S12 2.248856 1_555
Cu9 S6 2.248862 1_455
Cu9 S0 2.342493 1_555
Hg0 S1 2.535588 1_555
Hg0 S4 2.535588 1_555
Hg0 S0 2.585505 1_665
Hg1 S7 2.535588 1_554
Hg1 S10 2.535588 1_555
Hg1 S0 2.585505 1_555
S1 Sb0 2.508550 1_655
S2 Sb0 2.469447 1_555
S3 Sb0 2.469452 1_656
S4 Sb1 2.508550 1_565
S5 Sb1 2.469452 1_566
S6 Sb1 2.469447 1_555
S7 Sb2 2.508553 1_445
S8 Sb2 2.469457 1_545
S9 Sb2 2.469457 1_455
S10 Sb3 2.508559 1_555
S11 Sb3 2.469441 1_555
S12 Sb3 2.469441 1_555
