# generated using pymatgen
data_Na6Co(SO4)4
_symmetry_space_group_name_H-M   'P 1'
_cell_length_a   8.41763209
_cell_length_b   9.31315200
_cell_length_c   9.93272574
_cell_angle_alpha   90.00000000
_cell_angle_beta   114.01176312
_cell_angle_gamma   90.00000000
_symmetry_Int_Tables_number   1
_chemical_formula_structural   Na6Co(SO4)4
_chemical_formula_sum   'Na12 Co2 S8 O32'
_cell_volume   711.28807696
_cell_formula_units_Z   2
loop_
 _symmetry_equiv_pos_site_id
 _symmetry_equiv_pos_as_xyz
  1  'x, y, z'
loop_
 _atom_site_type_symbol
 _atom_site_label
 _atom_site_symmetry_multiplicity
 _atom_site_fract_x
 _atom_site_fract_y
 _atom_site_fract_z
 _atom_site_occupancy
  Na  Na0  1  0.91068800  0.84861900  0.55342500  1
  Na  Na1  1  0.08931200  0.15138100  0.44657500  1
  Na  Na2  1  0.58931200  0.34861900  0.44657500  1
  Na  Na3  1  0.41068800  0.65138100  0.55342500  1
  Na  Na4  1  0.53285200  0.98471200  0.68948400  1
  Na  Na5  1  0.46714800  0.01528800  0.31051600  1
  Na  Na6  1  0.96714800  0.48471200  0.31051600  1
  Na  Na7  1  0.03285200  0.51528800  0.68948400  1
  Na  Na8  1  0.81598400  0.36279800  0.89001700  1
  Na  Na9  1  0.18401600  0.63720200  0.10998300  1
  Na  Na10  1  0.68401600  0.86279800  0.10998300  1
  Na  Na11  1  0.31598400  0.13720200  0.89001700  1
  Co  Co0  1  0.00000000  0.00000000  0.00000000  1
  Co  Co1  1  0.50000000  0.50000000  0.00000000  1
  S  S0  1  0.77550500  0.69477800  0.86003300  1
  S  S1  1  0.22449500  0.30522200  0.13996700  1
  S  S2  1  0.72449500  0.19477800  0.13996700  1
  S  S3  1  0.27550500  0.80522200  0.86003300  1
  S  S4  1  0.65266700  0.64715900  0.33747700  1
  S  S5  1  0.34733300  0.35284100  0.66252300  1
  S  S6  1  0.84733300  0.14715900  0.66252300  1
  S  S7  1  0.15266700  0.85284100  0.33747700  1
  O  O0  1  0.84450000  0.81586000  0.97013700  1
  O  O1  1  0.15550000  0.18414000  0.02986300  1
  O  O2  1  0.65550000  0.31586000  0.02986300  1
  O  O3  1  0.34450000  0.68414000  0.97013700  1
  O  O4  1  0.92299800  0.60387700  0.86413000  1
  O  O5  1  0.07700200  0.39612300  0.13587000  1
  O  O6  1  0.57700200  0.10387700  0.13587000  1
  O  O7  1  0.42299800  0.89612300  0.86413000  1
  O  O8  1  0.00007000  0.91563600  0.35391900  1
  O  O9  1  0.99993000  0.08436400  0.64608100  1
  O  O10  1  0.49993000  0.41563600  0.64608100  1
  O  O11  1  0.50007000  0.58436400  0.35391900  1
  O  O12  1  0.67893800  0.75581100  0.71059000  1
  O  O13  1  0.32106200  0.24418900  0.28941000  1
  O  O14  1  0.82106200  0.25581100  0.28941000  1
  O  O15  1  0.17893800  0.74418900  0.71059000  1
  O  O16  1  0.65956600  0.60619800  0.90594500  1
  O  O17  1  0.34043400  0.39380200  0.09405500  1
  O  O18  1  0.84043400  0.10619800  0.09405500  1
  O  O19  1  0.15956600  0.89380200  0.90594500  1
  O  O20  1  0.81740500  0.60282500  0.46199400  1
  O  O21  1  0.18259500  0.39717500  0.53800600  1
  O  O22  1  0.68259500  0.10282500  0.53800600  1
  O  O23  1  0.31740500  0.89717500  0.46199400  1
  O  O24  1  0.33414500  0.40663600  0.80163200  1
  O  O25  1  0.66585500  0.59336400  0.19836800  1
  O  O26  1  0.16585500  0.90663600  0.19836800  1
  O  O27  1  0.83414500  0.09336400  0.80163200  1
  O  O28  1  0.85932500  0.30657500  0.67011200  1
  O  O29  1  0.14067600  0.69342500  0.32988800  1
  O  O30  1  0.64067500  0.80657500  0.32988800  1
  O  O31  1  0.35932400  0.19342500  0.67011200  1
loop_
_geom_bond_atom_site_label_1
_geom_bond_atom_site_label_2
_geom_bond_distance
_geom_bond_site_symmetry_2
Na0 O15 2.369130 1_655
Na0 O9 2.380966 1_565
Na0 O8 2.468995 1_655
Na0 O20 2.470025 1_555
Na0 O30 2.478311 1_555
Na1 O14 2.369130 1_455
Na1 O8 2.380966 1_545
Na1 O9 2.468995 1_455
Na1 O21 2.470025 1_555
Na1 O31 2.478306 1_555
Na2 O13 2.369130 1_555
Na2 O11 2.380966 1_555
Na2 O10 2.468995 1_555
Na2 O22 2.470025 1_555
Na2 O28 2.478311 1_555
Na3 O12 2.369130 1_555
Na3 O10 2.380966 1_555
Na3 O11 2.468995 1_555
Na3 O23 2.470025 1_555
Na3 O29 2.478306 1_555
Na4 O31 2.391689 1_565
Na4 O23 2.392552 1_555
Na4 O7 2.418782 1_555
Na4 O12 2.427103 1_555
Na4 O27 2.529372 1_565
Na4 O22 2.570230 1_565
Na5 O30 2.391684 1_545
Na5 O22 2.392552 1_555
Na5 O6 2.418782 1_555
Na5 O13 2.427103 1_555
Na5 O26 2.529372 1_545
Na5 O23 2.570230 1_545
Na6 O29 2.391689 1_655
Na6 O21 2.392552 1_655
Na6 O5 2.418782 1_655
Na6 O14 2.427103 1_555
Na6 O25 2.529372 1_555
Na6 O20 2.570230 1_555
Na7 O28 2.391684 1_455
Na7 O20 2.392552 1_455
Na7 O4 2.418782 1_455
Na7 O15 2.427103 1_555
Na7 O24 2.529372 1_555
Na7 O21 2.570230 1_555
Na8 O2 2.339366 1_556
Na8 O28 2.413873 1_555
Na8 O4 2.471238 1_555
Na8 O5 2.553523 1_656
Na8 O16 2.658319 1_555
Na8 O27 2.683243 1_555
Na8 O10 2.818612 1_555
Na9 O3 2.339366 1_554
Na9 O29 2.413869 1_555
Na9 O5 2.471238 1_555
Na9 O4 2.553523 1_454
Na9 O17 2.658319 1_555
Na9 O26 2.683243 1_555
Na9 O11 2.818612 1_555
Na10 O0 2.339366 1_554
Na10 O30 2.413873 1_555
Na10 O6 2.471238 1_565
Na10 O7 2.553523 1_554
Na10 O18 2.658319 1_565
Na10 O25 2.683243 1_555
Na10 O8 2.818612 1_655
Na11 O1 2.339366 1_556
Na11 O31 2.413869 1_555
Na11 O7 2.471238 1_545
Na11 O6 2.553523 1_556
Na11 O19 2.658319 1_545
Na11 O24 2.683243 1_555
Na11 O9 2.818612 1_455
Co0 O26 2.085343 1_545
Co0 O27 2.085343 1_454
Co0 O0 2.103875 1_444
Co0 O1 2.103875 1_555
Co0 O19 2.162475 1_544
Co0 O18 2.162475 1_455
Co1 O25 2.085343 1_555
Co1 O24 2.085343 1_554
Co1 O3 2.103875 1_554
Co1 O2 2.103875 1_555
Co1 O16 2.162475 1_554
Co1 O17 2.162475 1_555
O0 S0 1.512620 1_555
O1 S1 1.512620 1_555
O2 S2 1.512620 1_555
O3 S3 1.512620 1_555
O4 S0 1.489514 1_555
O5 S1 1.489514 1_555
O6 S2 1.489514 1_555
O7 S3 1.489514 1_555
O8 S7 1.479651 1_555
O9 S6 1.479651 1_555
O10 S5 1.479651 1_555
O11 S4 1.479651 1_555
O12 S0 1.485000 1_555
O13 S1 1.485000 1_555
O14 S2 1.485000 1_555
O15 S3 1.485000 1_555
O16 S0 1.484309 1_555
O17 S1 1.484309 1_555
O18 S2 1.484309 1_555
O19 S3 1.484309 1_555
O20 S4 1.492407 1_555
O21 S5 1.492407 1_555
O22 S6 1.492407 1_555
O23 S7 1.492407 1_555
O24 S5 1.515699 1_555
O25 S4 1.515699 1_555
O26 S7 1.515699 1_555
O27 S6 1.515699 1_555
O28 S6 1.487922 1_555
O29 S7 1.487921 1_555
O30 S4 1.487922 1_555
O31 S5 1.487921 1_555
