# generated using pymatgen
data_MgVO3
_symmetry_space_group_name_H-M   'P 1'
_cell_length_a   5.09273400
_cell_length_b   5.24987700
_cell_length_c   7.44973500
_cell_angle_alpha   90.00000000
_cell_angle_beta   90.00000000
_cell_angle_gamma   90.00000000
_symmetry_Int_Tables_number   1
_chemical_formula_structural   MgVO3
_chemical_formula_sum   'Mg4 V4 O12'
_cell_volume   199.17780675
_cell_formula_units_Z   4
loop_
 _symmetry_equiv_pos_site_id
 _symmetry_equiv_pos_as_xyz
  1  'x, y, z'
loop_
 _atom_site_type_symbol
 _atom_site_label
 _atom_site_symmetry_multiplicity
 _atom_site_fract_x
 _atom_site_fract_y
 _atom_site_fract_z
 _atom_site_occupancy
  Mg  Mg0  1  0.49127800  0.55496100  0.75000000  1
  Mg  Mg1  1  0.99127800  0.94503900  0.25000000  1
  Mg  Mg2  1  0.00872200  0.05496100  0.75000000  1
  Mg  Mg3  1  0.50872200  0.44503900  0.25000000  1
  V  V0  1  0.00000000  0.50000000  0.50000000  1
  V  V1  1  0.50000000  0.00000000  0.50000000  1
  V  V2  1  0.50000000  0.00000000  0.00000000  1
  V  V3  1  0.00000000  0.50000000  0.00000000  1
  O  O0  1  0.37533200  0.06152400  0.25000000  1
  O  O1  1  0.87533200  0.43847600  0.75000000  1
  O  O2  1  0.12466800  0.56152400  0.25000000  1
  O  O3  1  0.62466800  0.93847600  0.75000000  1
  O  O4  1  0.17740500  0.80607700  0.93570600  1
  O  O5  1  0.67740500  0.69392300  0.06429400  1
  O  O6  1  0.32259500  0.30607700  0.56429400  1
  O  O7  1  0.82259500  0.19392300  0.43570600  1
  O  O8  1  0.17740500  0.80607700  0.56429400  1
  O  O9  1  0.67740500  0.69392300  0.43570600  1
  O  O10  1  0.82259500  0.19392300  0.06429400  1
  O  O11  1  0.32259500  0.30607700  0.93570600  1
loop_
_geom_bond_atom_site_label_1
_geom_bond_atom_site_label_2
_geom_bond_distance
_geom_bond_site_symmetry_2
Mg0 O1 2.049258 1_555
Mg0 O11 2.087863 1_555
Mg0 O6 2.087863 1_555
Mg0 O3 2.124919 1_555
Mg0 O4 2.491398 1_555
Mg0 O8 2.491398 1_555
Mg0 O9 2.629242 1_555
Mg0 O5 2.629242 1_556
Mg1 O0 2.049258 1_665
Mg1 O7 2.087863 1_565
Mg1 O10 2.087863 1_565
Mg1 O2 2.124919 1_655
Mg1 O9 2.491398 1_555
Mg1 O5 2.491398 1_555
Mg1 O8 2.629242 1_655
Mg1 O4 2.629242 1_654
Mg2 O3 2.049258 1_445
Mg2 O4 2.087863 1_545
Mg2 O8 2.087863 1_545
Mg2 O1 2.124919 1_455
Mg2 O11 2.491398 1_555
Mg2 O6 2.491398 1_555
Mg2 O7 2.629242 1_455
Mg2 O10 2.629242 1_456
Mg3 O2 2.049258 1_555
Mg3 O9 2.087863 1_555
Mg3 O5 2.087863 1_555
Mg3 O0 2.124919 1_555
Mg3 O7 2.491398 1_555
Mg3 O10 2.491398 1_555
Mg3 O6 2.629242 1_555
Mg3 O11 2.629242 1_554
O0 V2 1.994012 1_555
O0 V1 1.994012 1_555
O1 V3 1.994012 1_656
O1 V0 1.994012 1_655
O2 V3 1.994012 1_555
O2 V0 1.994012 1_555
O3 V1 1.994012 1_565
O3 V2 1.994012 1_566
O4 V3 1.904654 1_556
O4 V2 1.991225 1_566
O5 V2 1.904654 1_565
O5 V3 1.991225 1_655
O6 V1 1.904654 1_555
O6 V0 1.991225 1_555
O7 V0 1.904654 1_655
O7 V1 1.991225 1_555
O8 V0 1.904654 1_555
O8 V1 1.991225 1_565
O9 V1 1.904654 1_565
O9 V0 1.991225 1_655
O10 V3 1.904654 1_655
O10 V2 1.991225 1_555
O11 V2 1.904654 1_556
O11 V3 1.991225 1_556
