# generated using pymatgen
data_PrY
_symmetry_space_group_name_H-M   'P 1'
_cell_length_a   7.38141087
_cell_length_b   7.38141064
_cell_length_c   35.98420251
_cell_angle_alpha   84.11312924
_cell_angle_beta   90.00000476
_cell_angle_gamma   119.99999895
_symmetry_Int_Tables_number   1
_chemical_formula_structural   PrY
_chemical_formula_sum   'Pr24 Y24'
_cell_volume   1685.98613992
_cell_formula_units_Z   24
loop_
 _symmetry_equiv_pos_site_id
 _symmetry_equiv_pos_as_xyz
  1  'x, y, z'
loop_
 _atom_site_type_symbol
 _atom_site_label
 _atom_site_symmetry_multiplicity
 _atom_site_fract_x
 _atom_site_fract_y
 _atom_site_fract_z
 _atom_site_occupancy
  Pr  Pr0_0  1  0.00068210  0.00136419  0.49795422  1
  Pr  Pr0_1  1  0.00068210  0.00136419  0.99795422  1
  Pr  Pr0_2  1  0.00068210  0.50136419  0.49795422  1
  Pr  Pr0_3  1  0.00068210  0.50136419  0.99795422  1
  Pr  Pr0_4  1  0.50068210  0.00136419  0.49795421  1
  Pr  Pr0_5  1  0.50068209  0.00136419  0.99795422  1
  Pr  Pr0_6  1  0.50068210  0.50136419  0.49795421  1
  Pr  Pr0_7  1  0.50068209  0.50136419  0.99795422  1
  Pr  Pr1_0  1  0.24978789  0.49957577  0.25063635  1
  Pr  Pr1_1  1  0.24978789  0.49957577  0.75063635  1
  Pr  Pr1_2  1  0.24978789  0.99957577  0.25063635  1
  Pr  Pr1_3  1  0.24978789  0.99957577  0.75063635  1
  Pr  Pr1_4  1  0.74978789  0.49957577  0.25063635  1
  Pr  Pr1_5  1  0.74978789  0.49957577  0.75063635  1
  Pr  Pr1_6  1  0.74978789  0.99957577  0.25063635  1
  Pr  Pr1_7  1  0.74978789  0.99957577  0.75063635  1
  Pr  Pr2_0  1  0.30520470  0.11041041  0.08438489  1
  Pr  Pr2_1  1  0.30520470  0.11041041  0.58438489  1
  Pr  Pr2_2  1  0.30520470  0.61041041  0.08438489  1
  Pr  Pr2_3  1  0.30520470  0.61041041  0.58438489  1
  Pr  Pr2_4  1  0.80520470  0.11041041  0.08438489  1
  Pr  Pr2_5  1  0.80520470  0.11041041  0.58438489  1
  Pr  Pr2_6  1  0.80520470  0.61041041  0.08438489  1
  Pr  Pr2_7  1  0.80520470  0.61041041  0.58438489  1
  Y  Y0_0  1  0.05529173  0.11058246  0.33412581  1
  Y  Y0_1  1  0.05529173  0.11058246  0.83412581  1
  Y  Y0_2  1  0.05529173  0.61058246  0.33412581  1
  Y  Y0_3  1  0.05529173  0.61058246  0.83412581  1
  Y  Y0_4  1  0.55529173  0.11058246  0.33412581  1
  Y  Y0_5  1  0.55529173  0.11058246  0.83412581  1
  Y  Y0_6  1  0.55529173  0.61058246  0.33412581  1
  Y  Y0_7  1  0.55529173  0.61058246  0.83412581  1
  Y  Y1_0  1  0.44406767  0.38813585  0.16779697  1
  Y  Y1_1  1  0.44406768  0.38813585  0.66779697  1
  Y  Y1_2  1  0.44406767  0.88813585  0.16779697  1
  Y  Y1_3  1  0.44406768  0.88813585  0.66779697  1
  Y  Y1_4  1  0.94406767  0.38813585  0.16779697  1
  Y  Y1_5  1  0.94406767  0.38813585  0.66779697  1
  Y  Y1_6  1  0.94406767  0.88813585  0.16779697  1
  Y  Y1_7  1  0.94406767  0.88813585  0.66779697  1
  Y  Y2_0  1  0.19496541  0.38993132  0.41510277  1
  Y  Y2_1  1  0.19496541  0.38993132  0.91510277  1
  Y  Y2_2  1  0.19496541  0.88993132  0.41510277  1
  Y  Y2_3  1  0.19496541  0.88993132  0.91510277  1
  Y  Y2_4  1  0.69496541  0.38993132  0.41510277  1
  Y  Y2_5  1  0.69496541  0.38993132  0.91510277  1
  Y  Y2_6  1  0.69496541  0.88993132  0.41510277  1
  Y  Y2_7  1  0.69496541  0.88993132  0.91510277  1
loop_
_geom_bond_atom_site_label_1
_geom_bond_atom_site_label_2
_geom_bond_distance
_geom_bond_site_symmetry_2
Pr0_0 Y2_0 3.647487 1_555
Pr0_0 Y2_2 3.647489 1_545
Pr0_0 Y2_6 3.647490 1_445
Pr0_0 Pr0_2 3.690705 1_545
Pr0_0 Pr0_2 3.690705 1_555
Pr0_0 Pr0_6 3.690705 1_555
Pr0_0 Pr0_4 3.690705 1_455
Pr0_0 Pr0_6 3.690705 1_445
Pr0_0 Pr0_4 3.690705 1_555
Pr0_0 Pr2_1 3.752028 1_555
Pr0_0 Pr2_7 3.752030 1_445
Pr0_0 Pr2_5 3.752031 1_455
Pr0_1 Y2_1 3.647487 1_555
Pr0_1 Y2_3 3.647489 1_545
Pr0_1 Y2_7 3.647490 1_445
Pr0_1 Pr0_3 3.690705 1_555
Pr0_1 Pr0_3 3.690705 1_545
Pr0_1 Pr0_5 3.690705 1_555
Pr0_1 Pr0_7 3.690705 1_555
Pr0_1 Pr0_5 3.690705 1_455
Pr0_1 Pr0_7 3.690705 1_445
Pr0_1 Pr2_0 3.752028 1_556
Pr0_1 Pr2_6 3.752030 1_446
Pr0_1 Pr2_4 3.752031 1_456
Pr0_2 Y2_2 3.647487 1_555
Pr0_2 Y2_0 3.647489 1_555
Pr0_2 Y2_4 3.647490 1_455
Pr0_2 Pr0_6 3.690705 1_455
Pr0_2 Pr0_4 3.690705 1_565
Pr0_2 Pr0_6 3.690705 1_555
Pr0_2 Pr0_4 3.690705 1_455
Pr0_2 Pr2_3 3.752028 1_555
Pr0_2 Pr2_5 3.752030 1_455
Pr0_2 Pr2_7 3.752031 1_455
Pr0_3 Y2_3 3.647487 1_555
Pr0_3 Y2_1 3.647489 1_555
Pr0_3 Y2_5 3.647490 1_455
Pr0_3 Pr0_7 3.690705 1_555
Pr0_3 Pr0_5 3.690705 1_565
Pr0_3 Pr0_5 3.690705 1_455
Pr0_3 Pr0_7 3.690705 1_455
Pr0_3 Pr2_2 3.752028 1_556
Pr0_3 Pr2_4 3.752030 1_456
Pr0_3 Pr2_6 3.752031 1_456
Pr0_4 Y2_4 3.647487 1_555
Pr0_4 Y2_6 3.647489 1_545
Pr0_4 Y2_2 3.647490 1_545
Pr0_4 Pr0_6 3.690705 1_555
Pr0_4 Pr0_6 3.690705 1_545
Pr0_4 Pr2_5 3.752028 1_555
Pr0_4 Pr2_3 3.752030 1_545
Pr0_4 Pr2_1 3.752031 1_555
Pr0_5 Y2_5 3.647487 1_555
Pr0_5 Y2_7 3.647489 1_545
Pr0_5 Y2_3 3.647490 1_545
Pr0_5 Pr0_7 3.690705 1_545
Pr0_5 Pr0_7 3.690705 1_555
Pr0_5 Pr2_4 3.752028 1_556
Pr0_5 Pr2_2 3.752030 1_546
Pr0_5 Pr2_0 3.752031 1_556
Pr0_6 Y2_6 3.647487 1_555
Pr0_6 Y2_4 3.647489 1_555
Pr0_6 Y2_0 3.647490 1_555
Pr0_6 Pr2_7 3.752028 1_555
Pr0_6 Pr2_1 3.752030 1_555
Pr0_6 Pr2_3 3.752031 1_555
Pr0_7 Y2_7 3.647487 1_555
Pr0_7 Y2_5 3.647489 1_555
Pr0_7 Y2_1 3.647490 1_555
Pr0_7 Pr2_6 3.752028 1_556
Pr0_7 Pr2_0 3.752030 1_556
Pr0_7 Pr2_2 3.752031 1_556
Pr1_0 Y1_0 3.647137 1_555
Pr1_0 Y1_4 3.647139 1_455
Pr1_0 Y1_2 3.647141 1_555
Pr1_0 Y0_2 3.666013 1_555
Pr1_0 Y0_6 3.666016 1_555
Pr1_0 Y0_0 3.666017 1_555
Pr1_0 Pr1_2 3.690705 1_545
Pr1_0 Pr1_2 3.690705 1_555
Pr1_0 Pr1_6 3.690705 1_445
Pr1_0 Pr1_4 3.690705 1_555
Pr1_0 Pr1_4 3.690705 1_455
Pr1_0 Pr1_6 3.690705 1_555
Pr1_1 Y1_1 3.647137 1_555
Pr1_1 Y1_5 3.647139 1_455
Pr1_1 Y1_3 3.647141 1_555
Pr1_1 Y0_3 3.666013 1_555
Pr1_1 Y0_7 3.666016 1_555
Pr1_1 Y0_1 3.666017 1_555
Pr1_1 Pr1_3 3.690705 1_555
Pr1_1 Pr1_3 3.690705 1_545
Pr1_1 Pr1_7 3.690705 1_555
Pr1_1 Pr1_5 3.690705 1_455
Pr1_1 Pr1_5 3.690705 1_555
Pr1_1 Pr1_7 3.690705 1_445
Pr1_2 Y1_2 3.647137 1_555
Pr1_2 Y1_6 3.647139 1_455
Pr1_2 Y1_0 3.647141 1_565
Pr1_2 Y0_0 3.666013 1_565
Pr1_2 Y0_4 3.666016 1_565
Pr1_2 Y0_2 3.666017 1_555
Pr1_2 Pr1_4 3.690705 1_565
Pr1_2 Pr1_6 3.690705 1_555
Pr1_2 Pr1_6 3.690705 1_455
Pr1_2 Pr1_4 3.690705 1_455
Pr1_3 Y1_3 3.647137 1_555
Pr1_3 Y1_7 3.647139 1_455
Pr1_3 Y1_1 3.647141 1_565
Pr1_3 Y0_1 3.666013 1_565
Pr1_3 Y0_5 3.666016 1_565
Pr1_3 Y0_3 3.666017 1_555
Pr1_3 Pr1_7 3.690705 1_455
Pr1_3 Pr1_5 3.690705 1_565
Pr1_3 Pr1_5 3.690705 1_455
Pr1_3 Pr1_7 3.690705 1_555
Pr1_4 Y1_4 3.647137 1_555
Pr1_4 Y1_0 3.647139 1_555
Pr1_4 Y1_6 3.647141 1_555
Pr1_4 Y0_6 3.666013 1_555
Pr1_4 Y0_2 3.666016 1_655
Pr1_4 Y0_4 3.666017 1_555
Pr1_4 Pr1_6 3.690705 1_545
Pr1_4 Pr1_6 3.690705 1_555
Pr1_5 Y1_5 3.647137 1_555
Pr1_5 Y1_1 3.647139 1_555
Pr1_5 Y1_7 3.647141 1_555
Pr1_5 Y0_7 3.666013 1_555
Pr1_5 Y0_3 3.666016 1_655
Pr1_5 Y0_5 3.666017 1_555
Pr1_5 Pr1_7 3.690705 1_555
Pr1_5 Pr1_7 3.690705 1_545
Pr1_6 Y1_6 3.647137 1_555
Pr1_6 Y1_2 3.647139 1_555
Pr1_6 Y1_4 3.647141 1_565
Pr1_6 Y0_4 3.666013 1_565
Pr1_6 Y0_0 3.666016 1_665
Pr1_6 Y0_6 3.666017 1_555
Pr1_7 Y1_7 3.647137 1_555
Pr1_7 Y1_3 3.647139 1_555
Pr1_7 Y1_5 3.647141 1_565
Pr1_7 Y0_5 3.666013 1_565
Pr1_7 Y0_1 3.666016 1_665
Pr1_7 Y0_7 3.666017 1_555
Pr2_0 Y1_6 3.663765 1_445
Pr2_0 Y1_0 3.663766 1_555
Pr2_0 Y1_2 3.663766 1_545
Pr2_0 Pr2_2 3.690705 1_545
Pr2_0 Pr2_2 3.690705 1_555
Pr2_0 Pr2_4 3.690705 1_555
Pr2_0 Pr2_6 3.690705 1_555
Pr2_0 Pr2_6 3.690705 1_445
Pr2_0 Pr2_4 3.690705 1_455
Pr2_1 Y1_7 3.663765 1_445
Pr2_1 Y1_1 3.663766 1_555
Pr2_1 Y1_3 3.663766 1_545
Pr2_1 Pr2_3 3.690705 1_545
Pr2_1 Pr2_3 3.690705 1_555
Pr2_1 Pr2_5 3.690705 1_455
Pr2_1 Pr2_7 3.690705 1_445
Pr2_1 Pr2_5 3.690705 1_555
Pr2_1 Pr2_7 3.690705 1_555
Pr2_2 Y1_4 3.663765 1_455
Pr2_2 Y1_2 3.663766 1_555
Pr2_2 Y1_0 3.663766 1_555
Pr2_2 Pr2_6 3.690705 1_555
Pr2_2 Pr2_4 3.690705 1_565
Pr2_2 Pr2_6 3.690705 1_455
Pr2_2 Pr2_4 3.690705 1_455
Pr2_3 Y1_5 3.663765 1_455
Pr2_3 Y1_3 3.663766 1_555
Pr2_3 Y1_1 3.663766 1_555
Pr2_3 Pr2_7 3.690705 1_455
Pr2_3 Pr2_5 3.690705 1_565
Pr2_3 Pr2_5 3.690705 1_455
Pr2_3 Pr2_7 3.690705 1_555
Pr2_4 Y1_2 3.663765 1_545
Pr2_4 Y1_4 3.663766 1_555
Pr2_4 Y1_6 3.663766 1_545
Pr2_4 Pr2_6 3.690705 1_545
Pr2_4 Pr2_6 3.690705 1_555
Pr2_5 Y1_3 3.663765 1_545
Pr2_5 Y1_5 3.663766 1_555
Pr2_5 Y1_7 3.663766 1_545
Pr2_5 Pr2_7 3.690705 1_545
Pr2_5 Pr2_7 3.690705 1_555
Pr2_6 Y1_0 3.663765 1_555
Pr2_6 Y1_6 3.663766 1_555
Pr2_6 Y1_4 3.663766 1_555
Pr2_7 Y1_1 3.663765 1_555
Pr2_7 Y1_7 3.663766 1_555
Pr2_7 Y1_5 3.663766 1_555
Y0_0 Y2_2 3.593339 1_545
Y0_0 Y2_0 3.593343 1_555
Y0_0 Y2_6 3.593345 1_445
Y0_0 Y0_2 3.690705 1_545
Y0_0 Y0_2 3.690705 1_555
Y0_0 Y0_6 3.690705 1_445
Y0_0 Y0_4 3.690705 1_455
Y0_0 Y0_4 3.690705 1_555
Y0_0 Y0_6 3.690705 1_555
Y0_1 Y2_3 3.593339 1_545
Y0_1 Y2_1 3.593343 1_555
Y0_1 Y2_7 3.593345 1_445
Y0_1 Y0_3 3.690705 1_545
Y0_1 Y0_3 3.690705 1_555
Y0_1 Y0_5 3.690705 1_555
Y0_1 Y0_7 3.690705 1_445
Y0_1 Y0_7 3.690705 1_555
Y0_1 Y0_5 3.690705 1_455
Y0_2 Y2_0 3.593339 1_555
Y0_2 Y2_2 3.593343 1_555
Y0_2 Y2_4 3.593345 1_455
Y0_2 Y0_4 3.690705 1_565
Y0_2 Y0_6 3.690705 1_455
Y0_2 Y0_6 3.690705 1_555
Y0_2 Y0_4 3.690705 1_455
Y0_3 Y2_1 3.593339 1_555
Y0_3 Y2_3 3.593343 1_555
Y0_3 Y2_5 3.593345 1_455
Y0_3 Y0_5 3.690705 1_565
Y0_3 Y0_7 3.690705 1_555
Y0_3 Y0_7 3.690705 1_455
Y0_3 Y0_5 3.690705 1_455
Y0_4 Y2_6 3.593339 1_545
Y0_4 Y2_4 3.593343 1_555
Y0_4 Y2_2 3.593345 1_545
Y0_4 Y0_6 3.690705 1_545
Y0_4 Y0_6 3.690705 1_555
Y0_5 Y2_7 3.593339 1_545
Y0_5 Y2_5 3.593343 1_555
Y0_5 Y2_3 3.593345 1_545
Y0_5 Y0_7 3.690705 1_545
Y0_5 Y0_7 3.690705 1_555
Y0_6 Y2_4 3.593339 1_555
Y0_6 Y2_6 3.593343 1_555
Y0_6 Y2_0 3.593345 1_555
Y0_7 Y2_5 3.593339 1_555
Y0_7 Y2_7 3.593343 1_555
Y0_7 Y2_1 3.593345 1_555
Y1_0 Y1_2 3.690705 1_555
Y1_0 Y1_2 3.690705 1_545
Y1_0 Y1_6 3.690705 1_555
Y1_0 Y1_4 3.690705 1_555
Y1_0 Y1_4 3.690705 1_455
Y1_0 Y1_6 3.690705 1_445
Y1_1 Y1_3 3.690705 1_545
Y1_1 Y1_3 3.690705 1_555
Y1_1 Y1_5 3.690705 1_455
Y1_1 Y1_7 3.690705 1_555
Y1_1 Y1_7 3.690705 1_445
Y1_1 Y1_5 3.690705 1_555
Y1_2 Y1_4 3.690705 1_565
Y1_2 Y1_6 3.690705 1_555
Y1_2 Y1_6 3.690705 1_455
Y1_2 Y1_4 3.690705 1_455
Y1_3 Y1_5 3.690705 1_565
Y1_3 Y1_7 3.690705 1_455
Y1_3 Y1_7 3.690705 1_555
Y1_3 Y1_5 3.690705 1_455
Y1_4 Y1_6 3.690705 1_545
Y1_4 Y1_6 3.690705 1_555
Y1_5 Y1_7 3.690705 1_545
Y1_5 Y1_7 3.690705 1_555
Y2_0 Y2_2 3.690705 1_555
Y2_0 Y2_2 3.690705 1_545
Y2_0 Y2_6 3.690705 1_445
Y2_0 Y2_4 3.690705 1_455
Y2_0 Y2_4 3.690705 1_555
Y2_0 Y2_6 3.690705 1_555
Y2_1 Y2_3 3.690705 1_545
Y2_1 Y2_3 3.690705 1_555
Y2_1 Y2_7 3.690705 1_555
Y2_1 Y2_5 3.690705 1_455
Y2_1 Y2_5 3.690705 1_555
Y2_1 Y2_7 3.690705 1_445
Y2_2 Y2_6 3.690705 1_555
Y2_2 Y2_4 3.690705 1_455
Y2_2 Y2_4 3.690705 1_565
Y2_2 Y2_6 3.690705 1_455
Y2_3 Y2_5 3.690705 1_565
Y2_3 Y2_7 3.690705 1_455
Y2_3 Y2_7 3.690705 1_555
Y2_3 Y2_5 3.690705 1_455
Y2_4 Y2_6 3.690705 1_545
Y2_4 Y2_6 3.690705 1_555
Y2_5 Y2_7 3.690705 1_545
Y2_5 Y2_7 3.690705 1_555
