# generated using pymatgen
data_Y2CoSi2
_symmetry_space_group_name_H-M   'P 1'
_cell_length_a   5.62552630
_cell_length_b   5.62552630
_cell_length_c   10.00585559
_cell_angle_alpha   63.25395951
_cell_angle_beta   63.25395951
_cell_angle_gamma   43.16884019
_symmetry_Int_Tables_number   1
_chemical_formula_structural   Y2CoSi2
_chemical_formula_sum   'Y4 Co2 Si4'
_cell_volume   189.57496383
_cell_formula_units_Z   2
loop_
 _symmetry_equiv_pos_site_id
 _symmetry_equiv_pos_as_xyz
  1  'x, y, z'
loop_
 _atom_site_type_symbol
 _atom_site_label
 _atom_site_symmetry_multiplicity
 _atom_site_fract_x
 _atom_site_fract_y
 _atom_site_fract_z
 _atom_site_occupancy
  Y  Y0  1  0.99864900  0.99864900  0.32909000  1
  Y  Y1  1  0.00135100  0.00135100  0.67091000  1
  Y  Y2  1  0.81325300  0.81325300  0.10723400  1
  Y  Y3  1  0.18674700  0.18674700  0.89276600  1
  Co  Co0  1  0.72683800  0.72683800  0.62429000  1
  Co  Co1  1  0.27316200  0.27316200  0.37571000  1
  Si  Si0  1  0.65141200  0.65141200  0.43376400  1
  Si  Si1  1  0.34858800  0.34858800  0.56623600  1
  Si  Si2  1  0.50663400  0.50663400  0.12499200  1
  Si  Si3  1  0.49336600  0.49336600  0.87500800  1
loop_
_geom_bond_atom_site_label_1
_geom_bond_atom_site_label_2
_geom_bond_distance
_geom_bond_site_symmetry_2
Co0 Si1 2.350832 1_565
Co0 Si1 2.350832 1_655
Co0 Si0 2.390209 1_555
Co0 Si3 2.515630 1_555
Co0 Y0 2.946331 1_555
Co0 Y1 3.000055 1_565
Co0 Y1 3.000055 1_655
Co0 Y1 3.124520 1_665
Co0 Y3 3.253366 1_655
Co0 Y3 3.253366 1_565
Co1 Si0 2.350832 1_545
Co1 Si0 2.350832 1_455
Co1 Si1 2.390209 1_555
Co1 Si2 2.515630 1_555
Co1 Y1 2.946331 1_555
Co1 Y0 3.000055 1_455
Co1 Y0 3.000055 1_545
Co1 Y0 3.124520 1_445
Co1 Y2 3.253366 1_455
Co1 Y2 3.253366 1_545
Si0 Si1 2.780188 1_555
Si0 Y2 2.861269 1_555
Si0 Y1 2.961758 1_565
Si0 Y1 2.961758 1_655
Si0 Y0 3.090990 1_545
Si0 Y0 3.090990 1_455
Si0 Y0 3.257524 1_555
Si1 Y3 2.861269 1_555
Si1 Y0 2.961758 1_545
Si1 Y0 2.961758 1_455
Si1 Y1 3.090990 1_565
Si1 Y1 3.090990 1_655
Si1 Y1 3.257524 1_555
Si2 Si3 2.571356 1_554
Si2 Y0 2.880111 1_455
Si2 Y0 2.880111 1_545
Si2 Y2 2.958963 1_455
Si2 Y2 2.958963 1_545
Si2 Y3 2.999089 1_564
Si2 Y3 2.999089 1_654
Si2 Y2 3.125751 1_555
Si3 Y1 2.880111 1_565
Si3 Y1 2.880111 1_655
Si3 Y3 2.958963 1_655
Si3 Y3 2.958963 1_565
Si3 Y2 2.999089 1_546
Si3 Y2 2.999089 1_456
Si3 Y3 3.125751 1_555
