# generated using pymatgen
data_La2AlZn
_symmetry_space_group_name_H-M   'P 1'
_cell_length_a   3.77014900
_cell_length_b   3.77014900
_cell_length_c   7.62096200
_cell_angle_alpha   90.00000000
_cell_angle_beta   90.00000000
_cell_angle_gamma   90.00000000
_symmetry_Int_Tables_number   1
_chemical_formula_structural   La2AlZn
_chemical_formula_sum   'La2 Al1 Zn1'
_cell_volume   108.32453282
_cell_formula_units_Z   1
loop_
 _symmetry_equiv_pos_site_id
 _symmetry_equiv_pos_as_xyz
  1  'x, y, z'
loop_
 _atom_site_type_symbol
 _atom_site_label
 _atom_site_symmetry_multiplicity
 _atom_site_fract_x
 _atom_site_fract_y
 _atom_site_fract_z
 _atom_site_occupancy
  La  La0  1  0.00000000  0.00000000  0.74854500  1
  La  La1  1  0.00000000  0.00000000  0.25145500  1
  Al  Al0  1  0.50000000  0.50000000  0.00000000  1
  Zn  Zn0  1  0.50000000  0.50000000  0.50000000  1
loop_
_geom_bond_atom_site_label_1
_geom_bond_atom_site_label_2
_geom_bond_distance
_geom_bond_site_symmetry_2
La0 Zn0 3.270294 1_555
La0 Zn0 3.270294 1_455
La0 Zn0 3.270294 1_445
La0 Zn0 3.270294 1_545
La1 Zn0 3.270294 1_555
La1 Zn0 3.270294 1_455
La1 Zn0 3.270294 1_445
La1 Zn0 3.270294 1_545
Al0 La1 3.283189 1_555
Al0 La1 3.283189 1_655
Al0 La0 3.283189 1_564
Al0 La1 3.283189 1_565
Al0 La0 3.283189 1_654
Al0 La1 3.283189 1_665
Al0 La0 3.283189 1_664
Al0 La0 3.283189 1_554
