# generated using pymatgen
data_Li4Co3Sb5O16
_symmetry_space_group_name_H-M   'P 1'
_cell_length_a   6.20109874
_cell_length_b   10.76227507
_cell_length_c   10.45647986
_cell_angle_alpha   90.26780298
_cell_angle_beta   90.24176488
_cell_angle_gamma   89.73280712
_symmetry_Int_Tables_number   1
_chemical_formula_structural   Li4Co3Sb5O16
_chemical_formula_sum   'Li8 Co6 Sb10 O32'
_cell_volume   697.82246469
_cell_formula_units_Z   2
loop_
 _symmetry_equiv_pos_site_id
 _symmetry_equiv_pos_as_xyz
  1  'x, y, z'
loop_
 _atom_site_type_symbol
 _atom_site_label
 _atom_site_symmetry_multiplicity
 _atom_site_fract_x
 _atom_site_fract_y
 _atom_site_fract_z
 _atom_site_occupancy
  Li  Li0  1  0.99375600  0.32642200  0.89936700  1
  Li  Li1  1  0.49001500  0.83630300  0.90139300  1
  Li  Li2  1  0.48468800  0.50104600  0.98428600  1
  Li  Li3  1  0.98268500  0.98980400  0.98365400  1
  Li  Li4  1  0.50304800  0.50484500  0.50516900  1
  Li  Li5  1  0.99943000  0.99774300  0.50420200  1
  Li  Li6  1  0.48227600  0.15959500  0.37256800  1
  Li  Li7  1  0.98242700  0.66108200  0.36309000  1
  Co  Co0  1  0.73443300  0.91456600  0.21186600  1
  Co  Co1  1  0.50968400  0.33235600  0.71780200  1
  Co  Co2  1  0.00910000  0.83463500  0.72427600  1
  Co  Co3  1  0.24359700  0.41029400  0.20974900  1
  Co  Co4  1  0.75370500  0.08837100  0.71763400  1
  Co  Co5  1  0.25630300  0.58786900  0.72530300  1
  Sb  Sb0  1  0.02310700  0.34048100  0.52183300  1
  Sb  Sb1  1  0.52077000  0.83990200  0.52155800  1
  Sb  Sb2  1  0.26060000  0.08746200  0.72079600  1
  Sb  Sb3  1  0.76069100  0.58702900  0.73186800  1
  Sb  Sb4  1  0.51492000  0.17369300  0.97213000  1
  Sb  Sb5  1  0.01663100  0.67391700  0.98317500  1
  Sb  Sb6  1  0.75282900  0.41422300  0.20716300  1
  Sb  Sb7  1  0.24395600  0.91218100  0.21303300  1
  Sb  Sb8  1  0.99216400  0.16236400  0.20900900  1
  Sb  Sb9  1  0.49805500  0.66955700  0.20682200  1
  O  O0  1  0.74967700  0.25183800  0.30613900  1
  O  O1  1  0.25034300  0.74755000  0.30652600  1
  O  O2  1  0.98117400  0.32273000  0.09970700  1
  O  O3  1  0.47658800  0.82817900  0.10146300  1
  O  O4  1  0.00228500  0.99621400  0.31594600  1
  O  O5  1  0.50877000  0.50872600  0.30919200  1
  O  O6  1  0.01655400  0.00581100  0.80993100  1
  O  O7  1  0.51430400  0.50466100  0.81367500  1
  O  O8  1  0.20884200  0.06060400  0.10056300  1
  O  O9  1  0.73853000  0.58382600  0.09132400  1
  O  O10  1  0.27218900  0.42574400  0.60596400  1
  O  O11  1  0.77049600  0.92163500  0.60645800  1
  O  O12  1  0.49272600  0.16362700  0.61647100  1
  O  O13  1  0.99582400  0.66487900  0.63392700  1
  O  O14  1  0.72697900  0.24226800  0.84568300  1
  O  O15  1  0.22427100  0.74188000  0.85954300  1
  O  O16  1  0.76418300  0.43200000  0.61831400  1
  O  O17  1  0.25603100  0.92832900  0.61206200  1
  O  O18  1  0.02229000  0.16281800  0.60834400  1
  O  O19  1  0.52700100  0.66545100  0.62085800  1
  O  O20  1  0.98784300  0.48876500  0.30446900  1
  O  O21  1  0.47881600  0.98444700  0.31468000  1
  O  O22  1  0.22242300  0.24481900  0.30639000  1
  O  O23  1  0.72365100  0.74919800  0.30784300  1
  O  O24  1  0.26880000  0.23917400  0.83818600  1
  O  O25  1  0.77558200  0.73694900  0.86185300  1
  O  O26  1  0.49236200  0.01771000  0.84224700  1
  O  O27  1  0.99187300  0.52068700  0.86378700  1
  O  O28  1  0.50764100  0.36383000  0.09917200  1
  O  O29  1  0.00257700  0.83259100  0.09371500  1
  O  O30  1  0.77755200  0.07135900  0.10224400  1
  O  O31  1  0.26264400  0.58625900  0.09126800  1
loop_
_geom_bond_atom_site_label_1
_geom_bond_atom_site_label_2
_geom_bond_distance
_geom_bond_site_symmetry_2
Li0 O14 1.968123 1_555
Li0 O24 2.046608 1_655
Li0 O2 2.097201 1_556
Li0 O27 2.125259 1_555
Li1 O15 1.986237 1_555
Li1 O26 2.050856 1_565
Li1 O3 2.096284 1_556
Li1 O25 2.105828 1_555
Li2 O7 1.794810 1_555
Li2 O28 1.912427 1_556
Li2 O31 1.994985 1_556
Li2 O9 2.124402 1_556
Li3 O6 1.838493 1_665
Li3 O30 1.979623 1_566
Li3 O8 2.007131 1_666
Li3 O29 2.053653 1_656
Li4 O10 1.979258 1_555
Li4 O5 2.050310 1_555
Li4 O19 2.110552 1_555
Li4 O16 2.148771 1_555
Li5 O11 1.965048 1_555
Li5 O4 1.968641 1_655
Li5 O17 2.084152 1_655
Li5 O18 2.084498 1_665
Li6 O22 1.974684 1_555
Li6 O21 1.977283 1_545
Li6 O0 2.061337 1_555
Li6 O12 2.551088 1_555
Li7 O23 1.947102 1_555
Li7 O20 1.950662 1_555
Li7 O1 2.000962 1_655
Co0 O23 2.048775 1_555
Co0 O21 2.056616 1_555
Co0 O30 2.063436 1_565
Co0 O4 2.169061 1_655
Co0 O3 2.177588 1_555
Co0 O29 2.250109 1_655
Co1 O12 2.100979 1_555
Co1 O7 2.104155 1_555
Co1 O14 2.128026 1_555
Co1 O10 2.128218 1_555
Co1 O16 2.182417 1_555
Co1 O24 2.205263 1_555
Co2 O6 2.045289 1_565
Co2 O13 2.054676 1_455
Co2 O11 2.136852 1_455
Co2 O15 2.182266 1_555
Co2 O17 2.186070 1_555
Co2 O25 2.305989 1_455
Co3 O20 2.049974 1_455
Co3 O22 2.056717 1_555
Co3 O28 2.066605 1_555
Co3 O2 2.201954 1_455
Co3 O5 2.213349 1_555
Co3 O31 2.271669 1_555
Co4 O6 2.087796 1_655
Co4 O12 2.091735 1_555
Co4 O14 2.131216 1_555
Co4 O11 2.135914 1_545
Co4 O18 2.181502 1_655
Co4 O26 2.222865 1_555
Co5 O13 2.047140 1_455
Co5 O7 2.048747 1_555
Co5 O10 2.142522 1_555
Co5 O15 2.175922 1_555
Co5 O19 2.178244 1_555
Co5 O27 2.312860 1_455
O0 Sb6 2.035460 1_555
O0 Sb8 2.051851 1_555
O1 Sb7 2.027754 1_555
O1 Sb9 2.035768 1_555
O2 Sb6 2.056013 1_555
O2 Sb8 2.075168 1_555
O3 Sb9 2.039597 1_555
O3 Sb7 2.061925 1_555
O4 Sb7 2.052723 1_555
O4 Sb8 2.113957 1_465
O5 Sb9 2.040079 1_555
O5 Sb6 2.110032 1_555
O6 Sb2 1.990753 1_555
O7 Sb3 1.970455 1_555
O8 Sb7 1.998556 1_545
O8 Sb8 2.068373 1_455
O8 Sb4 2.635464 1_554
O9 Sb9 2.127323 1_555
O9 Sb6 2.196601 1_555
O9 Sb5 2.288066 1_654
O10 Sb0 1.998967 1_555
O11 Sb1 1.988405 1_555
O12 Sb2 1.991612 1_555
O13 Sb3 1.977074 1_555
O14 Sb4 2.013687 1_555
O15 Sb5 1.973776 1_555
O16 Sb3 2.043395 1_555
O16 Sb0 2.134371 1_655
O17 Sb2 2.051488 1_565
O17 Sb1 2.118131 1_555
O18 Sb2 2.051163 1_555
O18 Sb0 2.119102 1_555
O19 Sb3 2.035504 1_555
O19 Sb1 2.149836 1_555
O20 Sb6 1.947683 1_555
O21 Sb7 1.960976 1_555
O22 Sb8 1.963218 1_455
O23 Sb9 1.948785 1_555
O24 Sb2 2.038810 1_555
O24 Sb4 2.183748 1_555
O25 Sb5 2.070374 1_655
O25 Sb3 2.106908 1_555
O26 Sb2 2.055539 1_555
O26 Sb4 2.159044 1_555
O27 Sb5 2.069555 1_655
O27 Sb3 2.109664 1_555
O28 Sb6 1.966835 1_555
O28 Sb4 2.434814 1_554
O29 Sb5 2.059328 1_554
O29 Sb7 2.125322 1_555
O30 Sb8 1.991504 1_555
O30 Sb4 2.386411 1_554
O31 Sb9 2.093289 1_555
O31 Sb5 2.115849 1_554
