# generated using pymatgen
data_MgGa
_symmetry_space_group_name_H-M   'P 1'
_cell_length_a   4.80726515
_cell_length_b   4.80726515
_cell_length_c   4.80726524
_cell_angle_alpha   38.25885418
_cell_angle_beta   38.25885418
_cell_angle_gamma   38.25884506
_symmetry_Int_Tables_number   1
_chemical_formula_structural   MgGa
_chemical_formula_sum   'Mg1 Ga1'
_cell_volume   38.25510813
_cell_formula_units_Z   1
loop_
 _symmetry_equiv_pos_site_id
 _symmetry_equiv_pos_as_xyz
  1  'x, y, z'
loop_
 _atom_site_type_symbol
 _atom_site_label
 _atom_site_symmetry_multiplicity
 _atom_site_fract_x
 _atom_site_fract_y
 _atom_site_fract_z
 _atom_site_occupancy
  Mg  Mg0  1  0.50000000  0.50000000  0.50000000  1
  Ga  Ga0  1  0.00000000  0.00000000  -0.00000000  1
loop_
_geom_bond_atom_site_label_1
_geom_bond_atom_site_label_2
_geom_bond_distance
_geom_bond_site_symmetry_2
Ga0 Mg0 2.873882 1_455
Ga0 Mg0 2.873882 1_454
Ga0 Mg0 2.873882 1_544
Ga0 Mg0 2.873882 1_545
Ga0 Mg0 2.873882 1_554
Ga0 Mg0 2.873882 1_445
