# generated using pymatgen
data_Ca2AlH10BrO8
_symmetry_space_group_name_H-M   'P 1'
_cell_length_a   5.77633200
_cell_length_b   5.82183205
_cell_length_c   9.11468435
_cell_angle_alpha   89.83108091
_cell_angle_beta   108.20848872
_cell_angle_gamma   119.67241365
_symmetry_Int_Tables_number   1
_chemical_formula_structural   Ca2AlH10BrO8
_chemical_formula_sum   'Ca2 Al1 H10 Br1 O8'
_cell_volume   248.67465736
_cell_formula_units_Z   1
loop_
 _symmetry_equiv_pos_site_id
 _symmetry_equiv_pos_as_xyz
  1  'x, y, z'
loop_
 _atom_site_type_symbol
 _atom_site_label
 _atom_site_symmetry_multiplicity
 _atom_site_fract_x
 _atom_site_fract_y
 _atom_site_fract_z
 _atom_site_occupancy
  Ca  Ca0  1  0.61792600  0.30878700  0.92587300  1
  Ca  Ca1  1  0.38207400  0.69121300  0.07412700  1
  Al  Al0  1  0.00000000  0.00000000  0.00000000  1
  H  H0  1  0.51652800  0.78599000  0.78191000  1
  H  H1  1  0.04737100  0.26606200  0.78094200  1
  H  H2  1  0.00164800  0.73493600  0.78189300  1
  H  H3  1  0.48347200  0.21401000  0.21809000  1
  H  H4  1  0.95262900  0.73393800  0.21905800  1
  H  H5  1  0.99835200  0.26506400  0.21810700  1
  H  H6  1  0.27556900  0.26034300  0.57570800  1
  H  H7  1  0.55931900  0.28584300  0.57514700  1
  H  H8  1  0.72443100  0.73965700  0.42429200  1
  H  H9  1  0.44068100  0.71415700  0.42485300  1
  Br  Br0  1  0.00000000  0.50000000  0.50000000  1
  O  O0  1  0.61598500  0.90696700  0.88263800  1
  O  O1  1  0.17302100  0.26669500  0.88130900  1
  O  O2  1  0.97796900  0.71020100  0.88290100  1
  O  O3  1  0.38401500  0.09303300  0.11736200  1
  O  O4  1  0.82697900  0.73330500  0.11869100  1
  O  O5  1  0.02203100  0.28979900  0.11709900  1
  O  O6  1  0.42490100  0.22183000  0.63121300  1
  O  O7  1  0.57509900  0.77817000  0.36878700  1
loop_
_geom_bond_atom_site_label_1
_geom_bond_atom_site_label_2
_geom_bond_distance
_geom_bond_site_symmetry_2
Ca0 O1 2.356740 1_555
Ca0 O0 2.367400 1_545
Ca0 O2 2.373124 1_555
Ca0 O5 2.492101 1_656
Ca0 O3 2.496031 1_556
Ca0 O6 2.508056 1_555
Ca0 O4 2.529734 1_556
Ca1 O4 2.356740 1_555
Ca1 O3 2.367400 1_565
Ca1 O5 2.373124 1_555
Ca1 O2 2.492101 1_454
Ca1 O0 2.496031 1_554
Ca1 O7 2.508056 1_555
Ca1 O1 2.529734 1_554
Al0 O3 1.920689 1_555
Al0 O0 1.920689 1_444
Al0 O4 1.925973 1_445
Al0 O1 1.925973 1_554
Al0 O5 1.927443 1_555
Al0 O2 1.927443 1_444
H0 O0 0.970868 1_555
H1 O1 0.972677 1_555
H2 O2 0.972351 1_455
H3 O3 0.970868 1_555
H4 O4 0.972677 1_555
H5 O5 0.972351 1_655
H6 O6 0.984061 1_555
H7 O6 0.981454 1_555
H8 O7 0.984061 1_555
H9 O7 0.981454 1_555
