# generated using pymatgen
data_Ag3As
_symmetry_space_group_name_H-M   'P 1'
_cell_length_a   5.12518481
_cell_length_b   5.12518481
_cell_length_c   5.12518481
_cell_angle_alpha   131.57973471
_cell_angle_beta   131.57973471
_cell_angle_gamma   70.89360563
_symmetry_Int_Tables_number   1
_chemical_formula_structural   Ag3As
_chemical_formula_sum   'Ag3 As1'
_cell_volume   73.77484580
_cell_formula_units_Z   1
loop_
 _symmetry_equiv_pos_site_id
 _symmetry_equiv_pos_as_xyz
  1  'x, y, z'
loop_
 _atom_site_type_symbol
 _atom_site_label
 _atom_site_symmetry_multiplicity
 _atom_site_fract_x
 _atom_site_fract_y
 _atom_site_fract_z
 _atom_site_occupancy
  Ag  Ag0  1  0.75000000  0.25000000  0.50000000  1
  Ag  Ag1  1  0.25000000  0.75000000  0.50000000  1
  Ag  Ag2  1  0.50000000  0.50000000  0.00000000  1
  As  As0  1  0.00000000  0.00000000  0.00000000  1
loop_
_geom_bond_atom_site_label_1
_geom_bond_atom_site_label_2
_geom_bond_distance
_geom_bond_site_symmetry_2
Ag0 Ag2 2.962359 1_555
Ag0 As0 2.962359 1_555
Ag0 As0 2.962359 1_656
Ag0 Ag2 2.962359 1_656
Ag0 Ag2 2.962359 1_545
Ag0 As0 2.962359 1_655
Ag0 As0 2.962359 1_666
Ag0 Ag2 2.962359 1_556
Ag0 Ag1 2.972335 1_645
Ag0 Ag1 2.972335 1_656
Ag0 Ag1 2.972335 1_544
Ag0 Ag1 2.972335 1_555
Ag1 As0 2.962359 1_555
Ag1 As0 2.962359 1_565
Ag1 Ag2 2.962359 1_455
Ag1 Ag2 2.962359 1_555
Ag1 As0 2.962359 1_566
Ag1 As0 2.962359 1_666
Ag1 Ag2 2.962359 1_566
Ag1 Ag2 2.962359 1_556
Ag2 As0 2.972335 1_554
Ag2 As0 2.972335 1_565
Ag2 As0 2.972335 1_655
Ag2 As0 2.972335 1_666
