# generated using pymatgen
data_MgSiO3
_symmetry_space_group_name_H-M   'P 1'
_cell_length_a   7.60627103
_cell_length_b   7.60627103
_cell_length_c   6.07452322
_cell_angle_alpha   77.31131133
_cell_angle_beta   77.31131133
_cell_angle_gamma   102.34594832
_symmetry_Int_Tables_number   1
_chemical_formula_structural   MgSiO3
_chemical_formula_sum   'Mg4 Si4 O12'
_cell_volume   321.55778474
_cell_formula_units_Z   4
loop_
 _symmetry_equiv_pos_site_id
 _symmetry_equiv_pos_as_xyz
  1  'x, y, z'
loop_
 _atom_site_type_symbol
 _atom_site_label
 _atom_site_symmetry_multiplicity
 _atom_site_fract_x
 _atom_site_fract_y
 _atom_site_fract_z
 _atom_site_occupancy
  Mg  Mg0  1  0.97148500  0.02851500  0.75000000  1
  Mg  Mg1  1  0.23145100  0.76854900  0.75000000  1
  Mg  Mg2  1  0.02851500  0.97148500  0.25000000  1
  Mg  Mg3  1  0.76854900  0.23145100  0.25000000  1
  Si  Si0  1  0.61173900  0.90382700  0.72160400  1
  Si  Si1  1  0.09617300  0.38826100  0.77839600  1
  Si  Si2  1  0.90382700  0.61173900  0.22160400  1
  Si  Si3  1  0.38826100  0.09617300  0.27839600  1
  O  O0  1  0.31479500  0.62128900  0.17691000  1
  O  O1  1  0.62128900  0.31479500  0.67691000  1
  O  O2  1  0.69758100  0.92306000  0.93465500  1
  O  O3  1  0.07694000  0.30241900  0.56534500  1
  O  O4  1  0.68520500  0.37871100  0.82309000  1
  O  O5  1  0.79061400  0.01384700  0.48252300  1
  O  O6  1  0.37871100  0.68520500  0.32309000  1
  O  O7  1  0.20938600  0.98615300  0.51747700  1
  O  O8  1  0.92306000  0.69758100  0.43465500  1
  O  O9  1  0.30241900  0.07694000  0.06534500  1
  O  O10  1  0.01384700  0.79061400  0.98252300  1
  O  O11  1  0.98615300  0.20938600  0.01747700  1
loop_
_geom_bond_atom_site_label_1
_geom_bond_atom_site_label_2
_geom_bond_distance
_geom_bond_site_symmetry_2
Mg0 O3 2.026225 1_655
Mg0 O2 2.026225 1_545
Mg0 O10 2.167893 1_645
Mg0 O7 2.167893 1_645
Mg0 O11 2.353953 1_556
Mg0 O5 2.353953 1_555
Mg1 O7 1.989639 1_555
Mg1 O10 1.989639 1_555
Mg2 O9 2.026225 1_565
Mg2 O8 2.026225 1_455
Mg2 O5 2.167893 1_465
Mg2 O11 2.167893 1_465
Mg2 O10 2.353953 1_554
Mg2 O7 2.353953 1_555
Mg3 O11 1.989639 1_555
Mg3 O5 1.989639 1_555
O0 O6 1.240738 1_555
O1 O4 1.240738 1_555
O2 Si0 1.592542 1_555
O3 Si1 1.592542 1_555
O5 Si0 1.664869 1_545
O7 Si3 1.664869 1_565
O8 Si2 1.592542 1_555
O9 Si3 1.592542 1_555
O10 Si2 1.664869 1_456
O11 Si1 1.664869 1_654
