# generated using pymatgen
data_Ag4Te(PO7)2
_symmetry_space_group_name_H-M   'P 1'
_cell_length_a   18.79397800
_cell_length_b   5.59647800
_cell_length_c   6.69527240
_cell_angle_alpha   56.01819447
_cell_angle_beta   90.00000000
_cell_angle_gamma   90.00000000
_symmetry_Int_Tables_number   1
_chemical_formula_structural   Ag4Te(PO7)2
_chemical_formula_sum   'Ag8 Te2 P4 O28'
_cell_volume   583.94100141
_cell_formula_units_Z   2
loop_
 _symmetry_equiv_pos_site_id
 _symmetry_equiv_pos_as_xyz
  1  'x, y, z'
loop_
 _atom_site_type_symbol
 _atom_site_label
 _atom_site_symmetry_multiplicity
 _atom_site_fract_x
 _atom_site_fract_y
 _atom_site_fract_z
 _atom_site_occupancy
  Ag  Ag0  1  0.32145600  0.95484300  0.42560200  1
  Ag  Ag1  1  0.17854400  0.95484300  0.92560200  1
  Ag  Ag2  1  0.67854400  0.04515700  0.57439800  1
  Ag  Ag3  1  0.82145600  0.04515700  0.07439800  1
  Ag  Ag4  1  0.06481400  0.76528000  0.61410200  1
  Ag  Ag5  1  0.43518600  0.76528000  0.11410200  1
  Ag  Ag6  1  0.93518600  0.23472000  0.38589800  1
  Ag  Ag7  1  0.56481400  0.23472000  0.88589800  1
  Te  Te0  1  0.50000000  0.00000000  0.50000000  1
  Te  Te1  1  0.00000000  0.00000000  0.00000000  1
  P  P0  1  0.16848100  0.27560000  0.40651800  1
  P  P1  1  0.33151900  0.27560000  0.90651800  1
  P  P2  1  0.83151900  0.72440000  0.59348200  1
  P  P3  1  0.66848100  0.72440000  0.09348200  1
  O  O0  1  0.44906000  0.76391700  0.80672800  1
  O  O1  1  0.05094000  0.76391700  0.30672800  1
  O  O2  1  0.55094000  0.23608300  0.19327200  1
  O  O3  1  0.94906000  0.23608300  0.69327200  1
  O  O4  1  0.57742700  0.15847400  0.61052200  1
  O  O5  1  0.92257300  0.15847400  0.11052200  1
  O  O6  1  0.42257300  0.84152600  0.38947800  1
  O  O7  1  0.07742700  0.84152600  0.88947800  1
  O  O8  1  0.44257400  0.33385700  0.40514600  1
  O  O9  1  0.05742600  0.33385700  0.90514600  1
  O  O10  1  0.55742600  0.66614300  0.59485400  1
  O  O11  1  0.94257400  0.66614300  0.09485400  1
  O  O12  1  0.28542400  0.00947500  0.97209200  1
  O  O13  1  0.21457600  0.00947500  0.47209200  1
  O  O14  1  0.71457600  0.99052500  0.02790800  1
  O  O15  1  0.78542400  0.99052500  0.52790800  1
  O  O16  1  0.19854500  0.53865200  0.17764200  1
  O  O17  1  0.30145500  0.53865200  0.67764200  1
  O  O18  1  0.80145500  0.46134800  0.82235800  1
  O  O19  1  0.69854500  0.46134800  0.32235800  1
  O  O20  1  0.17260600  0.33973100  0.60670400  1
  O  O21  1  0.32739400  0.33973100  0.10670400  1
  O  O22  1  0.82739400  0.66026900  0.39329600  1
  O  O23  1  0.67260600  0.66026900  0.89329600  1
  O  O24  1  0.09117500  0.19609200  0.37681700  1
  O  O25  1  0.40882500  0.19609200  0.87681700  1
  O  O26  1  0.90882500  0.80390800  0.62318300  1
  O  O27  1  0.59117500  0.80390800  0.12318300  1
loop_
_geom_bond_atom_site_label_1
_geom_bond_atom_site_label_2
_geom_bond_distance
_geom_bond_site_symmetry_2
Ag0 O17 2.005080 1_555
Ag0 O21 2.017382 1_565
Ag0 O6 2.060005 1_555
Ag0 O13 2.081256 1_565
Ag1 O16 2.005080 1_556
Ag1 O20 2.017382 1_565
Ag1 O7 2.060005 1_555
Ag1 O12 2.081256 1_565
Ag2 O19 2.005080 1_555
Ag2 O23 2.017382 1_545
Ag2 O4 2.060005 1_555
Ag2 O15 2.081256 1_545
Ag3 O18 2.005080 1_554
Ag3 O22 2.017382 1_545
Ag3 O5 2.060005 1_555
Ag3 O14 2.081256 1_545
Ag4 O24 2.073795 1_565
Ag4 O1 2.078645 1_555
Ag4 O9 2.094424 1_555
Ag4 O7 2.125328 1_555
Ag5 O25 2.073795 1_564
Ag5 O0 2.078645 1_554
Ag5 O8 2.094424 1_555
Ag5 O6 2.125328 1_555
Ag6 O26 2.073795 1_545
Ag6 O3 2.078645 1_555
Ag6 O11 2.094424 1_555
Ag6 O5 2.125328 1_555
Ag7 O27 2.073795 1_546
Ag7 O2 2.078645 1_556
Ag7 O10 2.094424 1_555
Ag7 O4 2.125328 1_555
O0 Te0 1.961245 1_565
O1 Te1 1.961245 1_565
O2 Te0 1.961245 1_555
O3 Te1 1.961245 1_656
O4 Te0 2.045794 1_555
O5 Te1 2.045794 1_655
O6 Te0 2.045794 1_565
O7 Te1 2.045794 1_566
O8 Te0 1.932019 1_555
O9 Te1 1.932019 1_556
O10 Te0 1.932019 1_565
O11 Te1 1.932019 1_665
O12 P1 1.559004 1_555
O13 P0 1.559004 1_555
O14 P3 1.559004 1_555
O15 P2 1.559004 1_555
O16 P0 1.520829 1_555
O17 P1 1.520829 1_555
O18 P2 1.520829 1_555
O19 P3 1.520829 1_555
O20 P0 1.571295 1_555
O21 P1 1.571295 1_554
O22 P2 1.571295 1_555
O23 P3 1.571295 1_556
O24 P0 1.564395 1_555
O25 P1 1.564395 1_555
O26 P2 1.564395 1_555
O27 P3 1.564395 1_555
