# generated using pymatgen
data_YMg30CrO32
_symmetry_space_group_name_H-M   'P 1'
_cell_length_a   8.63474600
_cell_length_b   8.63474600
_cell_length_c   8.61049700
_cell_angle_alpha   90.00000000
_cell_angle_beta   90.00000000
_cell_angle_gamma   90.00000000
_symmetry_Int_Tables_number   1
_chemical_formula_structural   YMg30CrO32
_chemical_formula_sum   'Y1 Mg30 Cr1 O32'
_cell_volume   641.98865509
_cell_formula_units_Z   1
loop_
 _symmetry_equiv_pos_site_id
 _symmetry_equiv_pos_as_xyz
  1  'x, y, z'
loop_
 _atom_site_type_symbol
 _atom_site_label
 _atom_site_symmetry_multiplicity
 _atom_site_fract_x
 _atom_site_fract_y
 _atom_site_fract_z
 _atom_site_occupancy
  Y  Y0  1  0.00000000  0.00000000  0.00000000  1
  Mg  Mg0  1  0.50000000  0.00000000  0.00000000  1
  Mg  Mg1  1  0.50000000  0.00000000  0.50000000  1
  Mg  Mg2  1  0.00000000  0.50000000  0.00000000  1
  Mg  Mg3  1  0.00000000  0.50000000  0.50000000  1
  Mg  Mg4  1  0.50000000  0.50000000  0.00000000  1
  Mg  Mg5  1  0.50000000  0.50000000  0.50000000  1
  Mg  Mg6  1  0.25643200  0.00000000  0.25805200  1
  Mg  Mg7  1  0.25643200  0.00000000  0.74194800  1
  Mg  Mg8  1  0.74356800  0.00000000  0.25805200  1
  Mg  Mg9  1  0.74356800  0.00000000  0.74194800  1
  Mg  Mg10  1  0.25056500  0.50000000  0.25171300  1
  Mg  Mg11  1  0.25056500  0.50000000  0.74828700  1
  Mg  Mg12  1  0.74943500  0.50000000  0.25171300  1
  Mg  Mg13  1  0.74943500  0.50000000  0.74828700  1
  Mg  Mg14  1  0.00000000  0.25643200  0.25805200  1
  Mg  Mg15  1  0.00000000  0.25643200  0.74194800  1
  Mg  Mg16  1  0.50000000  0.25056500  0.25171300  1
  Mg  Mg17  1  0.50000000  0.25056500  0.74828700  1
  Mg  Mg18  1  0.00000000  0.74356800  0.25805200  1
  Mg  Mg19  1  0.00000000  0.74356800  0.74194800  1
  Mg  Mg20  1  0.50000000  0.74943500  0.25171300  1
  Mg  Mg21  1  0.50000000  0.74943500  0.74828700  1
  Mg  Mg22  1  0.25611000  0.25611000  0.00000000  1
  Mg  Mg23  1  0.25024100  0.25024100  0.50000000  1
  Mg  Mg24  1  0.74389000  0.25611000  0.00000000  1
  Mg  Mg25  1  0.74975900  0.25024100  0.50000000  1
  Mg  Mg26  1  0.25611000  0.74389000  0.00000000  1
  Mg  Mg27  1  0.25024100  0.74975900  0.50000000  1
  Mg  Mg28  1  0.74389000  0.74389000  0.00000000  1
  Mg  Mg29  1  0.74975900  0.74975900  0.50000000  1
  Cr  Cr0  1  0.00000000  0.00000000  0.50000000  1
  O  O0  1  0.00000000  0.25956700  0.00000000  1
  O  O1  1  0.00000000  0.26854400  0.50000000  1
  O  O2  1  0.50000000  0.25173300  0.00000000  1
  O  O3  1  0.50000000  0.25317800  0.50000000  1
  O  O4  1  0.00000000  0.74043300  0.00000000  1
  O  O5  1  0.00000000  0.73145600  0.50000000  1
  O  O6  1  0.50000000  0.74826700  0.00000000  1
  O  O7  1  0.50000000  0.74682200  0.50000000  1
  O  O8  1  0.24922700  0.24922700  0.24876500  1
  O  O9  1  0.24922700  0.24922700  0.75123500  1
  O  O10  1  0.75077300  0.24922700  0.24876500  1
  O  O11  1  0.75077300  0.24922700  0.75123500  1
  O  O12  1  0.24922700  0.75077300  0.24876500  1
  O  O13  1  0.24922700  0.75077300  0.75123500  1
  O  O14  1  0.75077300  0.75077300  0.24876500  1
  O  O15  1  0.75077300  0.75077300  0.75123500  1
  O  O16  1  0.00000000  0.00000000  0.25263600  1
  O  O17  1  0.00000000  0.00000000  0.74736400  1
  O  O18  1  0.50000000  0.00000000  0.24717200  1
  O  O19  1  0.50000000  0.00000000  0.75282800  1
  O  O20  1  0.00000000  0.50000000  0.24717200  1
  O  O21  1  0.00000000  0.50000000  0.75282800  1
  O  O22  1  0.50000000  0.50000000  0.24863400  1
  O  O23  1  0.50000000  0.50000000  0.75136600  1
  O  O24  1  0.25956700  0.00000000  0.00000000  1
  O  O25  1  0.26854400  0.00000000  0.50000000  1
  O  O26  1  0.74043300  0.00000000  0.00000000  1
  O  O27  1  0.73145600  0.00000000  0.50000000  1
  O  O28  1  0.25173300  0.50000000  0.00000000  1
  O  O29  1  0.25317800  0.50000000  0.50000000  1
  O  O30  1  0.74826700  0.50000000  0.00000000  1
  O  O31  1  0.74682200  0.50000000  0.50000000  1
loop_
_geom_bond_atom_site_label_1
_geom_bond_atom_site_label_2
_geom_bond_distance
_geom_bond_site_symmetry_2
Mg0 O24 2.076078 1_555
Mg0 O26 2.076078 1_555
Mg0 O18 2.128274 1_555
Mg0 O19 2.128274 1_554
Mg0 O6 2.173651 1_545
Mg0 O2 2.173651 1_555
Mg1 O25 1.998564 1_555
Mg1 O27 1.998564 1_555
Mg1 O19 2.176975 1_555
Mg1 O18 2.176975 1_555
Mg1 O7 2.186128 1_545
Mg1 O3 2.186128 1_555
Mg2 O4 2.076078 1_555
Mg2 O0 2.076078 1_555
Mg2 O20 2.128274 1_555
Mg2 O21 2.128274 1_554
Mg2 O30 2.173651 1_455
Mg2 O28 2.173651 1_555
Mg3 O5 1.998564 1_555
Mg3 O1 1.998564 1_555
Mg3 O21 2.176975 1_555
Mg3 O20 2.176975 1_555
Mg3 O31 2.186128 1_455
Mg3 O29 2.186128 1_555
Mg4 O22 2.140862 1_555
Mg4 O23 2.140862 1_554
Mg4 O28 2.143722 1_555
Mg4 O6 2.143722 1_555
Mg4 O30 2.143722 1_555
Mg4 O2 2.143722 1_555
Mg5 O29 2.131245 1_555
Mg5 O7 2.131245 1_555
Mg5 O31 2.131245 1_555
Mg5 O3 2.131245 1_555
Mg5 O22 2.164386 1_555
Mg5 O23 2.164386 1_555
Mg6 O25 2.085916 1_555
Mg6 O18 2.105233 1_555
Mg6 O8 2.154396 1_555
Mg6 O12 2.154396 1_545
Mg6 O16 2.214716 1_555
Mg6 O24 2.222121 1_555
Mg7 O25 2.085916 1_555
Mg7 O19 2.105233 1_555
Mg7 O9 2.154396 1_555
Mg7 O13 2.154396 1_545
Mg7 O17 2.214716 1_555
Mg7 O24 2.222121 1_556
Mg8 O27 2.085916 1_555
Mg8 O18 2.105233 1_555
Mg8 O10 2.154396 1_555
Mg8 O14 2.154396 1_545
Mg8 O16 2.214716 1_655
Mg8 O26 2.222121 1_555
Mg9 O27 2.085916 1_555
Mg9 O19 2.105233 1_555
Mg9 O11 2.154396 1_555
Mg9 O15 2.154396 1_545
Mg9 O17 2.214716 1_655
Mg9 O26 2.222121 1_556
Mg10 O29 2.137994 1_555
Mg10 O22 2.153971 1_555
Mg10 O20 2.163918 1_555
Mg10 O12 2.165541 1_555
Mg10 O8 2.165541 1_555
Mg10 O28 2.167397 1_555
Mg11 O29 2.137994 1_555
Mg11 O23 2.153971 1_555
Mg11 O21 2.163918 1_555
Mg11 O13 2.165541 1_555
Mg11 O9 2.165541 1_555
Mg11 O28 2.167397 1_556
Mg12 O31 2.137994 1_555
Mg12 O22 2.153971 1_555
Mg12 O20 2.163918 1_655
Mg12 O14 2.165541 1_555
Mg12 O10 2.165541 1_555
Mg12 O30 2.167397 1_555
Mg13 O31 2.137994 1_555
Mg13 O23 2.153971 1_555
Mg13 O21 2.163918 1_655
Mg13 O15 2.165541 1_555
Mg13 O11 2.165541 1_555
Mg13 O30 2.167397 1_556
Mg14 O1 2.085916 1_555
Mg14 O20 2.105233 1_555
Mg14 O8 2.154396 1_555
Mg14 O10 2.154396 1_455
Mg14 O16 2.214716 1_555
Mg14 O0 2.222121 1_555
Mg15 O1 2.085916 1_555
Mg15 O21 2.105233 1_555
Mg15 O9 2.154396 1_555
Mg15 O11 2.154396 1_455
Mg15 O17 2.214716 1_555
Mg15 O0 2.222121 1_556
Mg16 O3 2.137994 1_555
Mg16 O22 2.153971 1_555
Mg16 O18 2.163918 1_555
Mg16 O10 2.165541 1_555
Mg16 O8 2.165541 1_555
Mg16 O2 2.167397 1_555
Mg17 O3 2.137994 1_555
Mg17 O23 2.153971 1_555
Mg17 O19 2.163918 1_555
Mg17 O11 2.165541 1_555
Mg17 O9 2.165541 1_555
Mg17 O2 2.167397 1_556
Mg18 O5 2.085916 1_555
Mg18 O20 2.105233 1_555
Mg18 O12 2.154396 1_555
Mg18 O14 2.154396 1_455
Mg18 O16 2.214716 1_565
Mg18 O4 2.222121 1_555
Mg19 O5 2.085916 1_555
Mg19 O21 2.105233 1_555
Mg19 O13 2.154396 1_555
Mg19 O15 2.154396 1_455
Mg19 O17 2.214716 1_565
Mg19 O4 2.222121 1_556
Mg20 O7 2.137994 1_555
Mg20 O22 2.153971 1_555
Mg20 O18 2.163918 1_565
Mg20 O14 2.165541 1_555
Mg20 O12 2.165541 1_555
Mg20 O6 2.167397 1_555
Mg21 O7 2.137994 1_555
Mg21 O23 2.153971 1_555
Mg21 O19 2.163918 1_565
Mg21 O15 2.165541 1_555
Mg21 O13 2.165541 1_555
Mg21 O6 2.167397 1_556
Mg22 O28 2.106267 1_555
Mg22 O2 2.106267 1_555
Mg22 O8 2.143639 1_555
Mg22 O9 2.143639 1_554
Mg22 O0 2.211646 1_555
Mg22 O24 2.211646 1_555
Mg23 O29 2.156755 1_555
Mg23 O3 2.156755 1_555
Mg23 O8 2.163294 1_555
Mg23 O9 2.163294 1_555
Mg23 O1 2.166539 1_555
Mg23 O25 2.166539 1_555
Mg24 O30 2.106267 1_555
Mg24 O2 2.106267 1_555
Mg24 O10 2.143639 1_555
Mg24 O11 2.143639 1_554
Mg24 O0 2.211646 1_655
Mg24 O26 2.211646 1_555
Mg25 O31 2.156755 1_555
Mg25 O3 2.156755 1_555
Mg25 O10 2.163294 1_555
Mg25 O11 2.163294 1_555
Mg25 O27 2.166539 1_555
Mg25 O1 2.166539 1_655
Mg26 O6 2.106267 1_555
Mg26 O28 2.106267 1_555
Mg26 O12 2.143639 1_555
Mg26 O13 2.143639 1_554
Mg26 O24 2.211646 1_565
Mg26 O4 2.211646 1_555
Mg27 O29 2.156755 1_555
Mg27 O7 2.156755 1_555
Mg27 O13 2.163294 1_555
Mg27 O12 2.163294 1_555
Mg27 O5 2.166539 1_555
Mg27 O25 2.166539 1_565
Mg28 O6 2.106267 1_555
Mg28 O30 2.106267 1_555
Mg28 O14 2.143639 1_555
Mg28 O15 2.143639 1_554
Mg28 O26 2.211646 1_565
Mg28 O4 2.211646 1_655
Mg29 O7 2.156755 1_555
Mg29 O31 2.156755 1_555
Mg29 O14 2.163294 1_555
Mg29 O15 2.163294 1_555
Mg29 O27 2.166539 1_565
Mg29 O5 2.166539 1_655
Cr0 O17 2.129927 1_555
Cr0 O16 2.129927 1_555
Cr0 O25 2.318809 1_555
Cr0 O5 2.318809 1_545
Cr0 O1 2.318809 1_555
Cr0 O27 2.318809 1_455
O0 Y0 2.241295 1_555
O4 Y0 2.241295 1_565
O16 Y0 2.175322 1_555
O17 Y0 2.175322 1_556
O24 Y0 2.241295 1_555
O26 Y0 2.241295 1_655
