# generated using pymatgen
data_Al2O3
_symmetry_space_group_name_H-M   'P 1'
_cell_length_a   5.79700586
_cell_length_b   5.79700635
_cell_length_c   103.78117955
_cell_angle_alpha   65.37565943
_cell_angle_beta   65.37565452
_cell_angle_gamma   60.03055552
_symmetry_Int_Tables_number   1
_chemical_formula_structural   Al2O3
_chemical_formula_sum   'Al80 O120'
_cell_volume   2648.48356677
_cell_formula_units_Z   40
loop_
 _symmetry_equiv_pos_site_id
 _symmetry_equiv_pos_as_xyz
  1  'x, y, z'
loop_
 _atom_site_type_symbol
 _atom_site_label
 _atom_site_symmetry_multiplicity
 _atom_site_fract_x
 _atom_site_fract_y
 _atom_site_fract_z
 _atom_site_occupancy
  Al  Al0_0  1  0.39804600  0.39804600  0.12038850  1
  Al  Al0_1  1  0.39804600  0.39804600  0.62038850  1
  Al  Al0_2  1  0.39804600  0.89804600  0.12038850  1
  Al  Al0_3  1  0.39804600  0.89804600  0.62038850  1
  Al  Al0_4  1  0.89804600  0.39804600  0.12038850  1
  Al  Al0_5  1  0.89804600  0.39804600  0.62038850  1
  Al  Al0_6  1  0.89804600  0.89804600  0.12038850  1
  Al  Al0_7  1  0.89804600  0.89804600  0.62038850  1
  Al  Al1_0  1  0.10899100  0.10899100  0.17820500  1
  Al  Al1_1  1  0.10899100  0.10899100  0.67820500  1
  Al  Al1_2  1  0.10899100  0.60899100  0.17820500  1
  Al  Al1_3  1  0.10899100  0.60899100  0.67820500  1
  Al  Al1_4  1  0.60899100  0.10899100  0.17820500  1
  Al  Al1_5  1  0.60899100  0.10899100  0.67820500  1
  Al  Al1_6  1  0.60899100  0.60899100  0.17820500  1
  Al  Al1_7  1  0.60899100  0.60899100  0.67820500  1
  Al  Al2_0  1  0.35052650  0.35052650  0.26328650  1
  Al  Al2_1  1  0.35052650  0.35052650  0.76328650  1
  Al  Al2_2  1  0.35052650  0.85052650  0.26328650  1
  Al  Al2_3  1  0.35052650  0.85052650  0.76328650  1
  Al  Al2_4  1  0.85052650  0.35052650  0.26328650  1
  Al  Al2_5  1  0.85052650  0.35052650  0.76328650  1
  Al  Al2_6  1  0.85052650  0.85052650  0.26328650  1
  Al  Al2_7  1  0.85052650  0.85052650  0.76328650  1
  Al  Al3_0  1  0.29226850  0.29226850  0.30820300  1
  Al  Al3_1  1  0.29226850  0.29226850  0.80820300  1
  Al  Al3_2  1  0.29226850  0.79226850  0.30820300  1
  Al  Al3_3  1  0.29226850  0.79226850  0.80820300  1
  Al  Al3_4  1  0.79226850  0.29226850  0.30820300  1
  Al  Al3_5  1  0.79226850  0.29226850  0.80820300  1
  Al  Al3_6  1  0.79226850  0.79226850  0.30820300  1
  Al  Al3_7  1  0.79226850  0.79226850  0.80820300  1
  Al  Al4_0  1  0.30835250  0.30835250  0.33838200  1
  Al  Al4_1  1  0.30835250  0.30835250  0.83838200  1
  Al  Al4_2  1  0.30835250  0.80835250  0.33838200  1
  Al  Al4_3  1  0.30835250  0.80835250  0.83838200  1
  Al  Al4_4  1  0.80835250  0.30835250  0.33838200  1
  Al  Al4_5  1  0.80835250  0.30835250  0.83838200  1
  Al  Al4_6  1  0.80835250  0.80835250  0.33838200  1
  Al  Al4_7  1  0.80835250  0.80835250  0.83838200  1
  Al  Al5_0  1  0.27394050  0.27394050  0.37845150  1
  Al  Al5_1  1  0.27394050  0.27394050  0.87845150  1
  Al  Al5_2  1  0.27394050  0.77394050  0.37845150  1
  Al  Al5_3  1  0.27394050  0.77394050  0.87845150  1
  Al  Al5_4  1  0.77394050  0.27394050  0.37845150  1
  Al  Al5_5  1  0.77394050  0.27394050  0.87845150  1
  Al  Al5_6  1  0.77394050  0.77394050  0.37845150  1
  Al  Al5_7  1  0.77394050  0.77394050  0.87845150  1
  Al  Al6_0  1  0.23892300  0.23892300  0.41884350  1
  Al  Al6_1  1  0.23892300  0.23892300  0.91884350  1
  Al  Al6_2  1  0.23892300  0.73892300  0.41884350  1
  Al  Al6_3  1  0.23892300  0.73892300  0.91884350  1
  Al  Al6_4  1  0.73892300  0.23892300  0.41884350  1
  Al  Al6_5  1  0.73892300  0.23892300  0.91884350  1
  Al  Al6_6  1  0.73892300  0.73892300  0.41884350  1
  Al  Al6_7  1  0.73892300  0.73892300  0.91884350  1
  Al  Al7_0  1  0.25525300  0.25525300  0.44900650  1
  Al  Al7_1  1  0.25525300  0.25525300  0.94900650  1
  Al  Al7_2  1  0.25525300  0.75525300  0.44900650  1
  Al  Al7_3  1  0.25525300  0.75525300  0.94900650  1
  Al  Al7_4  1  0.75525300  0.25525300  0.44900650  1
  Al  Al7_5  1  0.75525300  0.25525300  0.94900650  1
  Al  Al7_6  1  0.75525300  0.75525300  0.44900650  1
  Al  Al7_7  1  0.75525300  0.75525300  0.94900650  1
  Al  Al8_0  1  0.19889100  0.19889100  0.49507750  1
  Al  Al8_1  1  0.19889100  0.19889100  0.99507750  1
  Al  Al8_2  1  0.19889100  0.69889100  0.49507750  1
  Al  Al8_3  1  0.19889100  0.69889100  0.99507750  1
  Al  Al8_4  1  0.69889100  0.19889100  0.49507750  1
  Al  Al8_5  1  0.69889100  0.19889100  0.99507750  1
  Al  Al8_6  1  0.69889100  0.69889100  0.49507750  1
  Al  Al8_7  1  0.69889100  0.69889100  0.99507750  1
  Al  Al9_0  1  0.20331900  0.20331900  0.02612550  1
  Al  Al9_1  1  0.20331900  0.20331900  0.52612550  1
  Al  Al9_2  1  0.20331900  0.70331900  0.02612550  1
  Al  Al9_3  1  0.20331900  0.70331900  0.52612550  1
  Al  Al9_4  1  0.70331900  0.20331900  0.02612550  1
  Al  Al9_5  1  0.70331900  0.20331900  0.52612550  1
  Al  Al9_6  1  0.70331900  0.70331900  0.02612550  1
  Al  Al9_7  1  0.70331900  0.70331900  0.52612550  1
  O  O0_0  1  0.43825500  0.43825500  0.01065600  1
  O  O0_1  1  0.43825500  0.43825500  0.51065600  1
  O  O0_2  1  0.43825500  0.93825500  0.01065600  1
  O  O0_3  1  0.43825500  0.93825500  0.51065600  1
  O  O0_4  1  0.93825500  0.43825500  0.01065600  1
  O  O0_5  1  0.93825500  0.43825500  0.51065600  1
  O  O0_6  1  0.93825500  0.93825500  0.01065600  1
  O  O0_7  1  0.93825500  0.93825500  0.51065600  1
  O  O1_0  1  0.00049650  0.00049650  0.03324450  1
  O  O1_1  1  0.00049650  0.00049650  0.53324450  1
  O  O1_2  1  0.00049650  0.50049650  0.03324450  1
  O  O1_3  1  0.00049650  0.50049650  0.53324450  1
  O  O1_4  1  0.50049650  0.00049650  0.03324450  1
  O  O1_5  1  0.50049650  0.00049650  0.53324450  1
  O  O1_6  1  0.50049650  0.50049650  0.03324450  1
  O  O1_7  1  0.50049650  0.50049650  0.53324450  1
  O  O2_0  1  0.48128900  0.48128900  0.07041000  1
  O  O2_1  1  0.48128900  0.48128900  0.57041000  1
  O  O2_2  1  0.48128900  0.98128900  0.07041000  1
  O  O2_3  1  0.48128900  0.98128900  0.57041000  1
  O  O2_4  1  0.98128900  0.48128900  0.07041000  1
  O  O2_5  1  0.98128900  0.48128900  0.57041000  1
  O  O2_6  1  0.98128900  0.98128900  0.07041000  1
  O  O2_7  1  0.98128900  0.98128900  0.57041000  1
  O  O3_0  1  0.49468650  0.49468650  0.10111700  1
  O  O3_1  1  0.49468650  0.49468650  0.60111700  1
  O  O3_2  1  0.49468650  0.99468650  0.10111700  1
  O  O3_3  1  0.49468650  0.99468650  0.60111700  1
  O  O3_4  1  0.99468650  0.49468650  0.10111700  1
  O  O3_5  1  0.99468650  0.49468650  0.60111700  1
  O  O3_6  1  0.99468650  0.99468650  0.10111700  1
  O  O3_7  1  0.99468650  0.99468650  0.60111700  1
  O  O4_0  1  0.02903200  0.02903200  0.12757600  1
  O  O4_1  1  0.02903200  0.02903200  0.62757600  1
  O  O4_2  1  0.02903200  0.52903200  0.12757600  1
  O  O4_3  1  0.02903200  0.52903200  0.62757600  1
  O  O4_4  1  0.52903200  0.02903200  0.12757600  1
  O  O4_5  1  0.52903200  0.02903200  0.62757600  1
  O  O4_6  1  0.52903200  0.52903200  0.12757600  1
  O  O4_7  1  0.52903200  0.52903200  0.62757600  1
  O  O5_0  1  0.01242500  0.01242500  0.19754100  1
  O  O5_1  1  0.01242500  0.01242500  0.69754100  1
  O  O5_2  1  0.01242500  0.51242500  0.19754100  1
  O  O5_3  1  0.01242500  0.51242500  0.69754100  1
  O  O5_4  1  0.51242500  0.01242500  0.19754100  1
  O  O5_5  1  0.51242500  0.01242500  0.69754100  1
  O  O5_6  1  0.51242500  0.51242500  0.19754100  1
  O  O5_7  1  0.51242500  0.51242500  0.69754100  1
  O  O6_0  1  0.47813550  0.47813550  0.17099750  1
  O  O6_1  1  0.47813550  0.47813550  0.67099750  1
  O  O6_2  1  0.47813550  0.97813550  0.17099750  1
  O  O6_3  1  0.47813550  0.97813550  0.67099750  1
  O  O6_4  1  0.97813550  0.47813550  0.17099750  1
  O  O6_5  1  0.97813550  0.47813550  0.67099750  1
  O  O6_6  1  0.97813550  0.97813550  0.17099750  1
  O  O6_7  1  0.97813550  0.97813550  0.67099750  1
  O  O7_0  1  0.44493150  0.44493150  0.24410350  1
  O  O7_1  1  0.44493150  0.44493150  0.74410350  1
  O  O7_2  1  0.44493150  0.94493150  0.24410350  1
  O  O7_3  1  0.44493150  0.94493150  0.74410350  1
  O  O7_4  1  0.94493150  0.44493150  0.24410350  1
  O  O7_5  1  0.94493150  0.44493150  0.74410350  1
  O  O7_6  1  0.94493150  0.94493150  0.24410350  1
  O  O7_7  1  0.94493150  0.94493150  0.74410350  1
  O  O8_0  1  0.47907800  0.47907800  0.27094900  1
  O  O8_1  1  0.47907800  0.47907800  0.77094900  1
  O  O8_2  1  0.47907800  0.97907800  0.27094900  1
  O  O8_3  1  0.47907800  0.97907800  0.77094900  1
  O  O8_4  1  0.97907800  0.47907800  0.27094900  1
  O  O8_5  1  0.97907800  0.47907800  0.77094900  1
  O  O8_6  1  0.97907800  0.97907800  0.27094900  1
  O  O8_7  1  0.97907800  0.97907800  0.77094900  1
  O  O9_0  1  0.49382900  0.49382900  0.30119450  1
  O  O9_1  1  0.49382900  0.49382900  0.80119450  1
  O  O9_2  1  0.49382900  0.99382900  0.30119450  1
  O  O9_3  1  0.49382900  0.99382900  0.80119450  1
  O  O9_4  1  0.99382900  0.49382900  0.30119450  1
  O  O9_5  1  0.99382900  0.49382900  0.80119450  1
  O  O9_6  1  0.99382900  0.99382900  0.30119450  1
  O  O9_7  1  0.99382900  0.99382900  0.80119450  1
  O  O10_0  1  0.10330400  0.10330400  0.34608750  1
  O  O10_1  1  0.10330400  0.10330400  0.84608750  1
  O  O10_2  1  0.10330400  0.60330400  0.34608750  1
  O  O10_3  1  0.10330400  0.60330400  0.84608750  1
  O  O10_4  1  0.60330400  0.10330400  0.34608750  1
  O  O10_5  1  0.60330400  0.10330400  0.84608750  1
  O  O10_6  1  0.60330400  0.60330400  0.34608750  1
  O  O10_7  1  0.60330400  0.60330400  0.84608750  1
  O  O11_0  1  0.04804550  0.04804550  0.32372800  1
  O  O11_1  1  0.04804550  0.04804550  0.82372800  1
  O  O11_2  1  0.04804550  0.54804550  0.32372800  1
  O  O11_3  1  0.04804550  0.54804550  0.82372800  1
  O  O11_4  1  0.54804550  0.04804550  0.32372800  1
  O  O11_5  1  0.54804550  0.04804550  0.82372800  1
  O  O11_6  1  0.54804550  0.54804550  0.32372800  1
  O  O11_7  1  0.54804550  0.54804550  0.82372800  1
  O  O12_0  1  0.49783600  0.49783600  0.43377250  1
  O  O12_1  1  0.49783600  0.49783600  0.93377250  1
  O  O12_2  1  0.49783600  0.99783600  0.43377250  1
  O  O12_3  1  0.49783600  0.99783600  0.93377250  1
  O  O12_4  1  0.99783600  0.49783600  0.43377250  1
  O  O12_5  1  0.99783600  0.49783600  0.93377250  1
  O  O12_6  1  0.99783600  0.99783600  0.43377250  1
  O  O12_7  1  0.99783600  0.99783600  0.93377250  1
  O  O13_0  1  0.44289200  0.44289200  0.41135250  1
  O  O13_1  1  0.44289200  0.44289200  0.91135250  1
  O  O13_2  1  0.44289200  0.94289200  0.41135250  1
  O  O13_3  1  0.44289200  0.94289200  0.91135250  1
  O  O13_4  1  0.94289200  0.44289200  0.41135250  1
  O  O13_5  1  0.94289200  0.44289200  0.91135250  1
  O  O13_6  1  0.94289200  0.94289200  0.41135250  1
  O  O13_7  1  0.94289200  0.94289200  0.91135250  1
  O  O14_0  1  0.05225300  0.05225300  0.45630300  1
  O  O14_1  1  0.05225300  0.05225300  0.95630300  1
  O  O14_2  1  0.05225300  0.55225300  0.45630300  1
  O  O14_3  1  0.05225300  0.55225300  0.95630300  1
  O  O14_4  1  0.55225300  0.05225300  0.45630300  1
  O  O14_5  1  0.55225300  0.05225300  0.95630300  1
  O  O14_6  1  0.55225300  0.55225300  0.45630300  1
  O  O14_7  1  0.55225300  0.55225300  0.95630300  1
loop_
_geom_bond_atom_site_label_1
_geom_bond_atom_site_label_2
_geom_bond_distance
_geom_bond_site_symmetry_2
Al0_0 O3_0 1.753256 1_555
Al0_0 O4_2 1.796804 1_555
Al0_0 O4_4 1.796804 1_555
Al0_0 O4_6 1.797112 1_555
Al0_1 O3_1 1.753256 1_555
Al0_1 O4_3 1.796804 1_555
Al0_1 O4_5 1.796804 1_555
Al0_1 O4_7 1.797112 1_555
Al0_2 O3_2 1.753256 1_555
Al0_2 O4_0 1.796804 1_565
Al0_2 O4_6 1.796804 1_555
Al0_2 O4_4 1.797112 1_565
Al0_3 O3_3 1.753256 1_555
Al0_3 O4_1 1.796804 1_565
Al0_3 O4_7 1.796804 1_555
Al0_3 O4_5 1.797112 1_565
Al0_4 O3_4 1.753256 1_555
Al0_4 O4_6 1.796804 1_555
Al0_4 O4_0 1.796804 1_655
Al0_4 O4_2 1.797112 1_655
Al0_5 O3_5 1.753256 1_555
Al0_5 O4_7 1.796804 1_555
Al0_5 O4_1 1.796804 1_655
Al0_5 O4_3 1.797112 1_655
Al0_6 O3_6 1.753256 1_555
Al0_6 O4_4 1.796804 1_565
Al0_6 O4_2 1.796804 1_655
Al0_6 O4_0 1.797112 1_665
Al0_7 O3_7 1.753256 1_555
Al0_7 O4_5 1.796804 1_565
Al0_7 O4_3 1.796804 1_655
Al0_7 O4_1 1.797112 1_665
Al1_0 O5_0 1.759111 1_555
Al1_0 O6_6 1.797485 1_445
Al1_0 O6_2 1.797611 1_545
Al1_0 O6_4 1.797612 1_455
Al1_1 O5_1 1.759111 1_555
Al1_1 O6_7 1.797485 1_445
Al1_1 O6_3 1.797611 1_545
Al1_1 O6_5 1.797612 1_455
Al1_2 O5_2 1.759111 1_555
Al1_2 O6_4 1.797485 1_455
Al1_2 O6_0 1.797611 1_555
Al1_2 O6_6 1.797612 1_455
Al1_3 O5_3 1.759111 1_555
Al1_3 O6_5 1.797485 1_455
Al1_3 O6_1 1.797611 1_555
Al1_3 O6_7 1.797612 1_455
Al1_4 O5_4 1.759111 1_555
Al1_4 O6_2 1.797485 1_545
Al1_4 O6_6 1.797611 1_545
Al1_4 O6_0 1.797612 1_555
Al1_5 O5_5 1.759111 1_555
Al1_5 O6_3 1.797485 1_545
Al1_5 O6_7 1.797611 1_545
Al1_5 O6_1 1.797612 1_555
Al1_6 O5_6 1.759111 1_555
Al1_6 O6_0 1.797485 1_555
Al1_6 O6_4 1.797611 1_555
Al1_6 O6_2 1.797612 1_555
Al1_7 O5_7 1.759111 1_555
Al1_7 O6_1 1.797485 1_555
Al1_7 O6_5 1.797611 1_555
Al1_7 O6_3 1.797612 1_555
Al2_0 O7_0 1.745217 1_555
Al2_0 O8_0 1.812618 1_555
Al2_0 O8_4 1.813308 1_455
Al2_0 O8_2 1.813308 1_545
Al2_1 O7_1 1.745217 1_555
Al2_1 O8_1 1.812618 1_555
Al2_1 O8_5 1.813308 1_455
Al2_1 O8_3 1.813308 1_545
Al2_2 O7_2 1.745217 1_555
Al2_2 O8_2 1.812618 1_555
Al2_2 O8_6 1.813308 1_455
Al2_2 O8_0 1.813308 1_555
Al2_3 O7_3 1.745217 1_555
Al2_3 O8_3 1.812618 1_555
Al2_3 O8_7 1.813308 1_455
Al2_3 O8_1 1.813308 1_555
Al2_4 O7_4 1.745217 1_555
Al2_4 O8_4 1.812618 1_555
Al2_4 O8_0 1.813308 1_555
Al2_4 O8_6 1.813308 1_545
Al2_5 O7_5 1.745217 1_555
Al2_5 O8_5 1.812618 1_555
Al2_5 O8_1 1.813308 1_555
Al2_5 O8_7 1.813308 1_545
Al2_6 O7_6 1.745217 1_555
Al2_6 O8_6 1.812618 1_555
Al2_6 O8_2 1.813308 1_555
Al2_6 O8_4 1.813308 1_555
Al2_7 O7_7 1.745217 1_555
Al2_7 O8_7 1.812618 1_555
Al2_7 O8_3 1.813308 1_555
Al2_7 O8_5 1.813308 1_555
Al3_0 O9_0 1.790847 1_555
Al3_0 O9_4 1.791143 1_455
Al3_0 O9_2 1.791143 1_545
Al3_0 O11_2 2.188958 1_555
Al3_0 O11_4 2.188958 1_555
Al3_0 O11_0 2.192138 1_555
Al3_1 O9_1 1.790847 1_555
Al3_1 O9_5 1.791143 1_455
Al3_1 O9_3 1.791143 1_545
Al3_1 O11_3 2.188958 1_555
Al3_1 O11_5 2.188958 1_555
Al3_1 O11_1 2.192138 1_555
Al3_2 O9_2 1.790847 1_555
Al3_2 O9_6 1.791143 1_455
Al3_2 O9_0 1.791143 1_555
Al3_2 O11_0 2.188958 1_565
Al3_2 O11_6 2.188958 1_555
Al3_2 O11_2 2.192138 1_555
Al3_3 O9_3 1.790847 1_555
Al3_3 O9_7 1.791143 1_455
Al3_3 O9_1 1.791143 1_555
Al3_3 O11_1 2.188958 1_565
Al3_3 O11_7 2.188958 1_555
Al3_3 O11_3 2.192138 1_555
Al3_4 O9_4 1.790847 1_555
Al3_4 O9_0 1.791143 1_555
Al3_4 O9_6 1.791143 1_545
Al3_4 O11_6 2.188958 1_555
Al3_4 O11_0 2.188958 1_655
Al3_4 O11_4 2.192138 1_555
Al3_5 O9_5 1.790847 1_555
Al3_5 O9_1 1.791143 1_555
Al3_5 O9_7 1.791143 1_545
Al3_5 O11_7 2.188958 1_555
Al3_5 O11_1 2.188958 1_655
Al3_5 O11_5 2.192138 1_555
Al3_6 O9_6 1.790847 1_555
Al3_6 O9_2 1.791143 1_555
Al3_6 O9_4 1.791143 1_555
Al3_6 O11_4 2.188958 1_565
Al3_6 O11_2 2.188958 1_655
Al3_6 O11_6 2.192138 1_555
Al3_7 O9_7 1.790847 1_555
Al3_7 O9_3 1.791143 1_555
Al3_7 O9_5 1.791143 1_555
Al3_7 O11_5 2.188958 1_565
Al3_7 O11_3 2.188958 1_655
Al3_7 O11_7 2.192138 1_555
Al4_0 O10_0 1.814584 1_555
Al4_0 O10_4 1.814587 1_555
Al4_0 O10_2 1.814587 1_555
Al4_0 O11_4 2.139459 1_555
Al4_0 O11_2 2.139459 1_555
Al4_0 O11_6 2.140391 1_555
Al4_1 O10_1 1.814584 1_555
Al4_1 O10_5 1.814587 1_555
Al4_1 O10_3 1.814587 1_555
Al4_1 O11_5 2.139459 1_555
Al4_1 O11_3 2.139459 1_555
Al4_1 O11_7 2.140391 1_555
Al4_2 O10_2 1.814584 1_555
Al4_2 O10_6 1.814587 1_555
Al4_2 O10_0 1.814587 1_565
Al4_2 O11_6 2.139459 1_555
Al4_2 O11_0 2.139459 1_565
Al4_2 O11_4 2.140391 1_565
Al4_3 O10_3 1.814584 1_555
Al4_3 O10_7 1.814587 1_555
Al4_3 O10_1 1.814587 1_565
Al4_3 O11_7 2.139459 1_555
Al4_3 O11_1 2.139459 1_565
Al4_3 O11_5 2.140391 1_565
Al4_4 O10_4 1.814584 1_555
Al4_4 O10_0 1.814587 1_655
Al4_4 O10_6 1.814587 1_555
Al4_4 O11_0 2.139459 1_655
Al4_4 O11_6 2.139459 1_555
Al4_4 O11_2 2.140391 1_655
Al4_5 O10_5 1.814584 1_555
Al4_5 O10_1 1.814587 1_655
Al4_5 O10_7 1.814587 1_555
Al4_5 O11_1 2.139459 1_655
Al4_5 O11_7 2.139459 1_555
Al4_5 O11_3 2.140391 1_655
Al4_6 O10_6 1.814584 1_555
Al4_6 O10_2 1.814587 1_655
Al4_6 O10_4 1.814587 1_565
Al4_6 O11_2 2.139459 1_655
Al4_6 O11_4 2.139459 1_565
Al4_6 O11_0 2.140391 1_665
Al4_7 O10_7 1.814584 1_555
Al4_7 O10_3 1.814587 1_655
Al4_7 O10_5 1.814587 1_565
Al4_7 O11_3 2.139459 1_655
Al4_7 O11_5 2.139459 1_565
Al4_7 O11_1 2.140391 1_665
Al5_0 Al5_4 2.898503 1_455
Al5_0 Al5_4 2.898503 1_555
Al5_0 Al5_2 2.898503 1_545
Al5_0 Al5_2 2.898503 1_555
Al5_0 Al5_6 2.899842 1_545
Al5_0 Al5_6 2.899842 1_455
Al5_1 Al5_5 2.898503 1_455
Al5_1 Al5_5 2.898503 1_555
Al5_1 Al5_3 2.898503 1_545
Al5_1 Al5_3 2.898503 1_555
Al5_1 Al5_7 2.899842 1_455
Al5_1 Al5_7 2.899842 1_545
Al5_2 Al5_6 2.898503 1_455
Al5_2 Al5_6 2.898503 1_555
Al5_2 Al5_4 2.899842 1_465
Al5_2 Al5_4 2.899842 1_555
Al5_3 Al5_7 2.898503 1_555
Al5_3 Al5_7 2.898503 1_455
Al5_3 Al5_5 2.899842 1_555
Al5_3 Al5_5 2.899842 1_465
Al5_4 Al5_6 2.898503 1_555
Al5_4 Al5_6 2.898503 1_545
Al5_5 Al5_7 2.898503 1_555
Al5_5 Al5_7 2.898503 1_545
Al6_0 O13_0 1.807018 1_555
Al6_0 O13_4 1.807196 1_455
Al6_0 O13_2 1.807196 1_545
Al6_0 O12_4 2.155036 1_455
Al6_0 O12_2 2.155036 1_545
Al6_0 O12_6 2.156266 1_445
Al6_1 O13_1 1.807018 1_555
Al6_1 O13_5 1.807196 1_455
Al6_1 O13_3 1.807196 1_545
Al6_1 O12_5 2.155036 1_455
Al6_1 O12_3 2.155036 1_545
Al6_1 O12_7 2.156266 1_445
Al6_2 O13_2 1.807018 1_555
Al6_2 O13_6 1.807196 1_455
Al6_2 O13_0 1.807196 1_555
Al6_2 O12_6 2.155036 1_455
Al6_2 O12_0 2.155036 1_555
Al6_2 O12_4 2.156266 1_455
Al6_3 O13_3 1.807018 1_555
Al6_3 O13_7 1.807196 1_455
Al6_3 O13_1 1.807196 1_555
Al6_3 O12_7 2.155036 1_455
Al6_3 O12_1 2.155036 1_555
Al6_3 O12_5 2.156266 1_455
Al6_4 O13_4 1.807018 1_555
Al6_4 O13_0 1.807196 1_555
Al6_4 O13_6 1.807196 1_545
Al6_4 O12_0 2.155036 1_555
Al6_4 O12_6 2.155036 1_545
Al6_4 O12_2 2.156266 1_545
Al6_5 O13_5 1.807018 1_555
Al6_5 O13_1 1.807196 1_555
Al6_5 O13_7 1.807196 1_545
Al6_5 O12_1 2.155036 1_555
Al6_5 O12_7 2.155036 1_545
Al6_5 O12_3 2.156266 1_545
Al6_6 O13_6 1.807018 1_555
Al6_6 O13_2 1.807196 1_555
Al6_6 O13_4 1.807196 1_555
Al6_6 O12_2 2.155036 1_555
Al6_6 O12_4 2.155036 1_555
Al6_6 O12_0 2.156266 1_555
Al6_7 O13_7 1.807018 1_555
Al6_7 O13_3 1.807196 1_555
Al6_7 O13_5 1.807196 1_555
Al6_7 O12_3 2.155036 1_555
Al6_7 O12_5 2.155036 1_555
Al6_7 O12_1 2.156266 1_555
Al7_0 O14_0 1.800406 1_555
Al7_0 O14_4 1.800605 1_555
Al7_0 O14_2 1.800605 1_555
Al7_0 O12_2 2.172712 1_545
Al7_0 O12_4 2.172712 1_455
Al7_0 O12_0 2.173686 1_555
Al7_1 O14_1 1.800406 1_555
Al7_1 O14_5 1.800605 1_555
Al7_1 O14_3 1.800605 1_555
Al7_1 O12_3 2.172712 1_545
Al7_1 O12_5 2.172712 1_455
Al7_1 O12_1 2.173686 1_555
Al7_2 O14_2 1.800406 1_555
Al7_2 O14_6 1.800605 1_555
Al7_2 O14_0 1.800605 1_565
Al7_2 O12_0 2.172712 1_555
Al7_2 O12_6 2.172712 1_455
Al7_2 O12_2 2.173686 1_555
Al7_3 O14_3 1.800406 1_555
Al7_3 O14_7 1.800605 1_555
Al7_3 O14_1 1.800605 1_565
Al7_3 O12_1 2.172712 1_555
Al7_3 O12_7 2.172712 1_455
Al7_3 O12_3 2.173686 1_555
Al7_4 O14_4 1.800406 1_555
Al7_4 O14_0 1.800605 1_655
Al7_4 O14_6 1.800605 1_555
Al7_4 O12_6 2.172712 1_545
Al7_4 O12_0 2.172712 1_555
Al7_4 O12_4 2.173686 1_555
Al7_5 O14_5 1.800406 1_555
Al7_5 O14_1 1.800605 1_655
Al7_5 O14_7 1.800605 1_555
Al7_5 O12_7 2.172712 1_545
Al7_5 O12_1 2.172712 1_555
Al7_5 O12_5 2.173686 1_555
Al7_6 O14_6 1.800406 1_555
Al7_6 O14_2 1.800605 1_655
Al7_6 O14_4 1.800605 1_565
Al7_6 O12_4 2.172712 1_555
Al7_6 O12_2 2.172712 1_555
Al7_6 O12_6 2.173686 1_555
Al7_7 O14_7 1.800406 1_555
Al7_7 O14_3 1.800605 1_655
Al7_7 O14_5 1.800605 1_565
Al7_7 O12_5 2.172712 1_555
Al7_7 O12_3 2.172712 1_555
Al7_7 O12_7 2.173686 1_555
Al8_0 O0_5 2.135750 1_455
Al8_0 O0_3 2.135750 1_545
Al8_0 O0_7 2.321430 1_445
Al8_1 O0_4 2.135750 1_456
Al8_1 O0_2 2.135750 1_546
Al8_1 O0_6 2.321430 1_446
Al8_2 O0_7 2.135750 1_455
Al8_2 O0_1 2.135750 1_555
Al8_2 O0_5 2.321430 1_455
Al8_3 O0_6 2.135750 1_456
Al8_3 O0_0 2.135750 1_556
Al8_3 O0_4 2.321430 1_456
Al8_4 O0_1 2.135750 1_555
Al8_4 O0_7 2.135750 1_545
Al8_4 O0_3 2.321430 1_545
Al8_5 O0_0 2.135750 1_556
Al8_5 O0_6 2.135750 1_546
Al8_5 O0_2 2.321430 1_546
Al8_6 O0_3 2.135750 1_555
Al8_6 O0_5 2.135750 1_555
Al8_6 O0_1 2.321430 1_555
Al8_7 O0_2 2.135750 1_556
Al8_7 O0_4 2.135750 1_556
Al8_7 O0_0 2.321430 1_556
Al9_0 O1_4 1.791425 1_555
Al9_0 O1_2 1.791425 1_555
Al9_0 O1_0 1.801122 1_555
Al9_0 O0_0 2.120400 1_555
Al9_0 O0_2 2.221767 1_545
Al9_0 O0_4 2.221767 1_455
Al9_1 O1_5 1.791425 1_555
Al9_1 O1_3 1.791425 1_555
Al9_1 O1_1 1.801122 1_555
Al9_1 O0_1 2.120400 1_555
Al9_1 O0_3 2.221767 1_545
Al9_1 O0_5 2.221767 1_455
Al9_2 O1_6 1.791425 1_555
Al9_2 O1_0 1.791425 1_565
Al9_2 O1_2 1.801122 1_555
Al9_2 O0_2 2.120400 1_555
Al9_2 O0_0 2.221767 1_555
Al9_2 O0_6 2.221767 1_455
Al9_3 O1_7 1.791425 1_555
Al9_3 O1_1 1.791425 1_565
Al9_3 O1_3 1.801122 1_555
Al9_3 O0_3 2.120400 1_555
Al9_3 O0_1 2.221767 1_555
Al9_3 O0_7 2.221767 1_455
Al9_4 O1_0 1.791425 1_655
Al9_4 O1_6 1.791425 1_555
Al9_4 O1_4 1.801122 1_555
Al9_4 O0_4 2.120400 1_555
Al9_4 O0_6 2.221767 1_545
Al9_4 O0_0 2.221767 1_555
Al9_5 O1_1 1.791425 1_655
Al9_5 O1_7 1.791425 1_555
Al9_5 O1_5 1.801122 1_555
Al9_5 O0_5 2.120400 1_555
Al9_5 O0_7 2.221767 1_545
Al9_5 O0_1 2.221767 1_555
Al9_6 O1_2 1.791425 1_655
Al9_6 O1_4 1.791425 1_565
Al9_6 O1_6 1.801122 1_555
Al9_6 O0_6 2.120400 1_555
Al9_6 O0_4 2.221767 1_555
Al9_6 O0_2 2.221767 1_555
Al9_7 O1_3 1.791425 1_655
Al9_7 O1_5 1.791425 1_565
Al9_7 O1_7 1.801122 1_555
Al9_7 O0_7 2.120400 1_555
Al9_7 O0_5 2.221767 1_555
Al9_7 O0_3 2.221767 1_555
