# generated using pymatgen
data_Li3Co2SnO6
_symmetry_space_group_name_H-M   'P 1'
_cell_length_a   6.70706081
_cell_length_b   6.70706081
_cell_length_c   6.06149198
_cell_angle_alpha   76.63562206
_cell_angle_beta   76.63562206
_cell_angle_gamma   26.42840944
_symmetry_Int_Tables_number   1
_chemical_formula_structural   Li3Co2SnO6
_chemical_formula_sum   'Li3 Co2 Sn1 O6'
_cell_volume   117.89125421
_cell_formula_units_Z   1
loop_
 _symmetry_equiv_pos_site_id
 _symmetry_equiv_pos_as_xyz
  1  'x, y, z'
loop_
 _atom_site_type_symbol
 _atom_site_label
 _atom_site_symmetry_multiplicity
 _atom_site_fract_x
 _atom_site_fract_y
 _atom_site_fract_z
 _atom_site_occupancy
  Li  Li0  1  0.00000000  0.00000000  0.00000000  1
  Li  Li1  1  0.67438300  0.67438300  0.66880800  1
  Li  Li2  1  0.32561700  0.32561700  0.33119200  1
  Co  Co0  1  0.67535800  0.67535800  0.15084100  1
  Co  Co1  1  0.32464200  0.32464200  0.84915900  1
  Sn  Sn0  1  0.00000000  0.00000000  0.50000000  1
  O  O0  1  0.16235200  0.16235200  0.40028400  1
  O  O1  1  0.83077000  0.83077000  0.07700400  1
  O  O2  1  0.83764800  0.83764800  0.59971600  1
  O  O3  1  0.49760700  0.49760700  0.74135900  1
  O  O4  1  0.50239300  0.50239300  0.25864100  1
  O  O5  1  0.16923000  0.16923000  0.92299600  1
loop_
_geom_bond_atom_site_label_1
_geom_bond_atom_site_label_2
_geom_bond_distance
_geom_bond_site_symmetry_2
Li0 O1 2.147553 1_445
Li0 O5 2.147553 1_554
Li0 O4 2.198347 1_545
Li0 O4 2.198347 1_455
Li0 O3 2.198347 1_454
Li0 O3 2.198347 1_544
Li1 O2 2.072946 1_555
Li1 O5 2.163303 1_565
Li1 O5 2.163303 1_655
Li1 O3 2.245111 1_555
Li1 O0 2.268486 1_655
Li1 O0 2.268486 1_565
Li2 O0 2.072946 1_555
Li2 O1 2.163303 1_545
Li2 O1 2.163303 1_455
Li2 O4 2.245111 1_555
Li2 O2 2.268486 1_545
Li2 O2 2.268486 1_455
Co0 O1 1.971781 1_555
Co0 O5 2.077719 1_564
Co0 O5 2.077719 1_654
Co0 O0 2.131592 1_655
Co0 O0 2.131592 1_565
Co0 O4 2.197276 1_555
Co1 O5 1.971781 1_555
Co1 O1 2.077719 1_546
Co1 O1 2.077719 1_456
Co1 O2 2.131592 1_545
Co1 O2 2.131592 1_455
Co1 O3 2.197276 1_555
O0 Sn0 2.061997 1_555
O2 Sn0 2.061997 1_665
O3 Sn0 2.114301 1_565
O3 Sn0 2.114301 1_655
O4 Sn0 2.114301 1_565
O4 Sn0 2.114301 1_655
