# generated using pymatgen
data_Nb2SiTe4
_symmetry_space_group_name_H-M   'P 1'
_cell_length_a   6.89508507
_cell_length_b   3.56597726
_cell_length_c   8.83989746
_cell_angle_alpha   110.63691237
_cell_angle_beta   75.05518855
_cell_angle_gamma   89.96239852
_symmetry_Int_Tables_number   1
_chemical_formula_structural   Nb2SiTe4
_chemical_formula_sum   'Nb2 Si1 Te4'
_cell_volume   195.51573135
_cell_formula_units_Z   1
loop_
 _symmetry_equiv_pos_site_id
 _symmetry_equiv_pos_as_xyz
  1  'x, y, z'
loop_
 _atom_site_type_symbol
 _atom_site_label
 _atom_site_symmetry_multiplicity
 _atom_site_fract_x
 _atom_site_fract_y
 _atom_site_fract_z
 _atom_site_occupancy
  Nb  Nb0  1  0.21061400  0.49220700  0.99987600  1
  Nb  Nb1  1  0.78879700  0.49272600  0.99968900  1
  Si  Si0  1  0.50003600  0.99176800  0.99942900  1
  Te  Te0  1  0.07393900  0.79989700  0.77776600  1
  Te  Te1  1  0.41038100  0.73090300  0.27172600  1
  Te  Te2  1  0.59010600  0.25390600  0.72765500  1
  Te  Te3  1  0.92612800  0.18539300  0.22186000  1
loop_
_geom_bond_atom_site_label_1
_geom_bond_atom_site_label_2
_geom_bond_distance
_geom_bond_site_symmetry_2
Nb0 Si0 2.674568 1_545
Nb0 Si0 2.676083 1_555
Nb0 Te0 2.894575 1_545
Nb0 Te3 2.897889 1_466
Nb0 Te0 2.901476 1_555
Nb0 Te3 2.902805 1_456
Nb0 Te1 2.943424 1_556
Nb0 Te2 2.944084 1_555
Nb1 Si0 2.670521 1_555
Nb1 Si0 2.675741 1_545
Nb1 Te3 2.897874 1_566
Nb1 Te0 2.899272 1_645
Nb1 Te3 2.903434 1_556
Nb1 Te0 2.905518 1_655
Nb1 Te1 2.938267 1_556
Nb1 Te2 2.939754 1_555
Si0 Te2 2.800984 1_565
Si0 Te1 2.802346 1_556
Si0 Te2 2.802347 1_555
Si0 Te1 2.807410 1_566
