# generated using pymatgen
data_Tb2Si3Pd
_symmetry_space_group_name_H-M   'P 1'
_cell_length_a   8.22976067
_cell_length_b   8.22976067
_cell_length_c   7.93037600
_cell_angle_alpha   90.00000000
_cell_angle_beta   90.00000000
_cell_angle_gamma   120.00000538
_symmetry_Int_Tables_number   1
_chemical_formula_structural   Tb2Si3Pd
_chemical_formula_sum   'Tb8 Si12 Pd4'
_cell_volume   465.15618316
_cell_formula_units_Z   4
loop_
 _symmetry_equiv_pos_site_id
 _symmetry_equiv_pos_as_xyz
  1  'x, y, z'
loop_
 _atom_site_type_symbol
 _atom_site_label
 _atom_site_symmetry_multiplicity
 _atom_site_fract_x
 _atom_site_fract_y
 _atom_site_fract_z
 _atom_site_occupancy
  Tb  Tb0  1  0.51167900  0.02335700  0.25000000  1
  Tb  Tb1  1  0.48832100  0.97664300  0.75000000  1
  Tb  Tb2  1  0.97664300  0.48832100  0.25000000  1
  Tb  Tb3  1  0.02335700  0.51167900  0.75000000  1
  Tb  Tb4  1  0.51167900  0.48832100  0.25000000  1
  Tb  Tb5  1  0.48832100  0.51167900  0.75000000  1
  Tb  Tb6  1  0.00000000  0.00000000  0.25000000  1
  Tb  Tb7  1  0.00000000  0.00000000  0.75000000  1
  Si  Si0  1  0.16544400  0.33088800  0.00259400  1
  Si  Si1  1  0.83455600  0.66911200  0.99740600  1
  Si  Si2  1  0.66911200  0.83455600  0.00259400  1
  Si  Si3  1  0.83455600  0.66911200  0.50259400  1
  Si  Si4  1  0.33088800  0.16544400  0.99740600  1
  Si  Si5  1  0.16544400  0.33088800  0.49740600  1
  Si  Si6  1  0.16544400  0.83455600  0.00259400  1
  Si  Si7  1  0.33088800  0.16544400  0.50259400  1
  Si  Si8  1  0.83455600  0.16544400  0.99740600  1
  Si  Si9  1  0.66911200  0.83455600  0.49740600  1
  Si  Si10  1  0.83455600  0.16544400  0.50259400  1
  Si  Si11  1  0.16544400  0.83455600  0.49740600  1
  Pd  Pd0  1  0.33333300  0.66666700  0.04344700  1
  Pd  Pd1  1  0.66666700  0.33333300  0.95655300  1
  Pd  Pd2  1  0.66666700  0.33333300  0.54344700  1
  Pd  Pd3  1  0.33333300  0.66666700  0.45655300  1
loop_
_geom_bond_atom_site_label_1
_geom_bond_atom_site_label_2
_geom_bond_distance
_geom_bond_site_symmetry_2
Si0 Si8 2.358658 1_454
Si0 Si4 2.358658 1_554
Si0 Tb5 3.055090 1_554
Si0 Tb3 3.055095 1_554
Si0 Tb6 3.067753 1_555
Si0 Tb7 3.094228 1_554
Si0 Tb2 3.155250 1_455
Si0 Tb4 3.155255 1_555
Si1 Si6 2.358658 1_656
Si1 Si2 2.358658 1_556
Si1 Tb4 3.055090 1_556
Si1 Tb2 3.055095 1_556
Si1 Tb7 3.067753 1_665
Si1 Tb6 3.094228 1_666
Si1 Tb3 3.155250 1_655
Si1 Tb5 3.155255 1_555
Si2 Si8 2.358658 1_564
Si2 Tb5 3.055090 1_554
Si2 Tb1 3.055095 1_554
Si2 Tb6 3.067753 1_665
Si2 Tb7 3.094228 1_664
Si2 Tb0 3.155250 1_565
Si2 Tb4 3.155255 1_555
Si3 Si9 2.358658 1_555
Si3 Tb4 3.055090 1_555
Si3 Tb2 3.055095 1_555
Si3 Tb7 3.067753 1_665
Si3 Tb6 3.094228 1_665
Si3 Tb3 3.155250 1_655
Si3 Tb5 3.155255 1_555
Si4 Si6 2.358658 1_546
Si4 Tb4 3.055090 1_556
Si4 Tb0 3.055095 1_556
Si4 Tb7 3.067753 1_555
Si4 Tb6 3.094228 1_556
Si4 Tb1 3.155250 1_545
Si4 Tb5 3.155255 1_555
Si5 Si7 2.358658 1_555
Si5 Tb5 3.055090 1_555
Si5 Tb3 3.055095 1_555
Si5 Tb6 3.067753 1_555
Si5 Tb7 3.094228 1_555
Si5 Tb2 3.155250 1_455
Si5 Tb4 3.155255 1_555
Si6 Tb3 3.055089 1_554
Si6 Tb1 3.055089 1_554
Si6 Tb6 3.067753 1_565
Si6 Tb7 3.094228 1_564
Si6 Tb2 3.155255 1_455
Si6 Tb0 3.155255 1_565
Si7 Tb4 3.055090 1_555
Si7 Tb0 3.055095 1_555
Si7 Tb7 3.067753 1_555
Si7 Tb6 3.094228 1_555
Si7 Tb1 3.155250 1_545
Si7 Tb5 3.155255 1_555
Si8 Tb0 3.055089 1_556
Si8 Tb2 3.055089 1_556
Si8 Tb7 3.067753 1_655
Si8 Tb6 3.094228 1_656
Si8 Tb1 3.155255 1_545
Si8 Tb3 3.155255 1_655
Si9 Tb5 3.055090 1_555
Si9 Tb1 3.055095 1_555
Si9 Tb6 3.067753 1_665
Si9 Tb7 3.094228 1_665
Si9 Tb0 3.155250 1_565
Si9 Tb4 3.155255 1_555
Si10 Si9 2.358658 1_545
Si10 Si5 2.358658 1_655
Si10 Tb0 3.055089 1_555
Si10 Tb2 3.055089 1_555
Si10 Tb7 3.067753 1_655
Si10 Tb6 3.094228 1_655
Si10 Tb1 3.155255 1_545
Si10 Tb3 3.155255 1_655
Si11 Si3 2.358658 1_455
Si11 Si7 2.358658 1_565
Si11 Tb3 3.055089 1_555
Si11 Tb1 3.055089 1_555
Si11 Tb6 3.067753 1_565
Si11 Tb7 3.094228 1_565
Si11 Tb2 3.155255 1_455
Si11 Tb0 3.155255 1_565
Pd0 Si6 2.414981 1_555
Pd0 Si2 2.414988 1_555
Pd0 Si0 2.414988 1_555
Pd0 Tb0 3.024225 1_565
Pd0 Tb2 3.024225 1_455
Pd0 Tb4 3.024237 1_555
Pd0 Tb1 3.208802 1_554
Pd0 Tb3 3.208802 1_554
Pd0 Tb5 3.208802 1_554
Pd1 Si8 2.414981 1_555
Pd1 Si1 2.414988 1_555
Pd1 Si4 2.414988 1_555
Pd1 Tb3 3.024225 1_655
Pd1 Tb1 3.024225 1_545
Pd1 Tb5 3.024237 1_555
Pd1 Tb2 3.208802 1_556
Pd1 Tb0 3.208802 1_556
Pd1 Tb4 3.208802 1_556
Pd2 Si10 2.414981 1_555
Pd2 Si3 2.414988 1_555
Pd2 Si7 2.414988 1_555
Pd2 Tb3 3.024225 1_655
Pd2 Tb1 3.024225 1_545
Pd2 Tb5 3.024237 1_555
Pd2 Tb2 3.208802 1_555
Pd2 Tb0 3.208802 1_555
Pd2 Tb4 3.208802 1_555
Pd3 Si11 2.414981 1_555
Pd3 Si9 2.414988 1_555
Pd3 Si5 2.414988 1_555
Pd3 Tb0 3.024225 1_565
Pd3 Tb2 3.024225 1_455
Pd3 Tb4 3.024237 1_555
Pd3 Tb1 3.208802 1_555
Pd3 Tb3 3.208802 1_555
Pd3 Tb5 3.208802 1_555
