# generated using pymatgen
data_CaMg6C
_symmetry_space_group_name_H-M   'P 1'
_cell_length_a   19.51841962
_cell_length_b   19.51841962
_cell_length_c   6.62527200
_cell_angle_alpha   90.00000000
_cell_angle_beta   90.00000000
_cell_angle_gamma   143.97314219
_symmetry_Int_Tables_number   1
_chemical_formula_structural   CaMg6C
_chemical_formula_sum   'Ca8 Mg48 C8'
_cell_volume   1484.53951964
_cell_formula_units_Z   8
loop_
 _symmetry_equiv_pos_site_id
 _symmetry_equiv_pos_as_xyz
  1  'x, y, z'
loop_
 _atom_site_type_symbol
 _atom_site_label
 _atom_site_symmetry_multiplicity
 _atom_site_fract_x
 _atom_site_fract_y
 _atom_site_fract_z
 _atom_site_occupancy
  Ca  Ca0_0  1  0.10496600  0.39503400  0.00000000  1
  Ca  Ca0_1  1  0.10496600  0.39503400  0.50000000  1
  Ca  Ca0_2  1  0.10496600  0.89503400  0.00000000  1
  Ca  Ca0_3  1  0.10496600  0.89503400  0.50000000  1
  Ca  Ca0_4  1  0.60496600  0.39503400  0.00000000  1
  Ca  Ca0_5  1  0.60496600  0.39503400  0.50000000  1
  Ca  Ca0_6  1  0.60496600  0.89503400  0.00000000  1
  Ca  Ca0_7  1  0.60496600  0.89503400  0.50000000  1
  Mg  Mg0_0  1  0.08987950  0.18282800  0.00000000  1
  Mg  Mg0_1  1  0.08987950  0.18282800  0.50000000  1
  Mg  Mg0_2  1  0.08987950  0.68282800  0.00000000  1
  Mg  Mg0_3  1  0.08987950  0.68282800  0.50000000  1
  Mg  Mg0_4  1  0.58987950  0.18282800  0.00000000  1
  Mg  Mg0_5  1  0.58987950  0.18282800  0.50000000  1
  Mg  Mg0_6  1  0.58987950  0.68282800  0.00000000  1
  Mg  Mg0_7  1  0.58987950  0.68282800  0.50000000  1
  Mg  Mg1_0  1  0.31717200  0.41012050  0.00000000  1
  Mg  Mg1_1  1  0.31717200  0.41012050  0.50000000  1
  Mg  Mg1_2  1  0.31717200  0.91012050  0.00000000  1
  Mg  Mg1_3  1  0.31717200  0.91012050  0.50000000  1
  Mg  Mg1_4  1  0.81717200  0.41012050  0.00000000  1
  Mg  Mg1_5  1  0.81717200  0.41012050  0.50000000  1
  Mg  Mg1_6  1  0.81717200  0.91012050  0.00000000  1
  Mg  Mg1_7  1  0.81717200  0.91012050  0.50000000  1
  Mg  Mg2_0  1  0.32816300  0.17183700  0.00000000  1
  Mg  Mg2_1  1  0.32816300  0.17183700  0.50000000  1
  Mg  Mg2_2  1  0.32816300  0.67183700  0.00000000  1
  Mg  Mg2_3  1  0.32816300  0.67183700  0.50000000  1
  Mg  Mg2_4  1  0.82816300  0.17183700  0.00000000  1
  Mg  Mg2_5  1  0.82816300  0.17183700  0.50000000  1
  Mg  Mg2_6  1  0.82816300  0.67183700  0.00000000  1
  Mg  Mg2_7  1  0.82816300  0.67183700  0.50000000  1
  Mg  Mg3_0  1  0.14666250  0.10591150  0.25000000  1
  Mg  Mg3_1  1  0.14666250  0.10591150  0.75000000  1
  Mg  Mg3_2  1  0.14666250  0.60591150  0.25000000  1
  Mg  Mg3_3  1  0.14666250  0.60591150  0.75000000  1
  Mg  Mg3_4  1  0.64666250  0.10591150  0.25000000  1
  Mg  Mg3_5  1  0.64666250  0.10591150  0.75000000  1
  Mg  Mg3_6  1  0.64666250  0.60591150  0.25000000  1
  Mg  Mg3_7  1  0.64666250  0.60591150  0.75000000  1
  Mg  Mg4_0  1  0.39408850  0.35333750  0.25000000  1
  Mg  Mg4_1  1  0.39408850  0.35333750  0.75000000  1
  Mg  Mg4_2  1  0.39408850  0.85333750  0.25000000  1
  Mg  Mg4_3  1  0.39408850  0.85333750  0.75000000  1
  Mg  Mg4_4  1  0.89408850  0.35333750  0.25000000  1
  Mg  Mg4_5  1  0.89408850  0.35333750  0.75000000  1
  Mg  Mg4_6  1  0.89408850  0.85333750  0.25000000  1
  Mg  Mg4_7  1  0.89408850  0.85333750  0.75000000  1
  Mg  Mg5_0  1  0.39649350  0.10350650  0.25000000  1
  Mg  Mg5_1  1  0.39649350  0.10350650  0.75000000  1
  Mg  Mg5_2  1  0.39649350  0.60350650  0.25000000  1
  Mg  Mg5_3  1  0.39649350  0.60350650  0.75000000  1
  Mg  Mg5_4  1  0.89649350  0.10350650  0.25000000  1
  Mg  Mg5_5  1  0.89649350  0.10350650  0.75000000  1
  Mg  Mg5_6  1  0.89649350  0.60350650  0.25000000  1
  Mg  Mg5_7  1  0.89649350  0.60350650  0.75000000  1
  C  C0_0  1  0.22257450  0.27742550  0.25000000  1
  C  C0_1  1  0.22257450  0.27742550  0.75000000  1
  C  C0_2  1  0.22257450  0.77742550  0.25000000  1
  C  C0_3  1  0.22257450  0.77742550  0.75000000  1
  C  C0_4  1  0.72257450  0.27742550  0.25000000  1
  C  C0_5  1  0.72257450  0.27742550  0.75000000  1
  C  C0_6  1  0.72257450  0.77742550  0.25000000  1
  C  C0_7  1  0.72257450  0.77742550  0.75000000  1
loop_
_geom_bond_atom_site_label_1
_geom_bond_atom_site_label_2
_geom_bond_distance
_geom_bond_site_symmetry_2
Ca0_0 Mg2_4 3.177736 1_455
Ca0_0 Mg2_2 3.177736 1_555
Ca0_0 Mg5_3 3.772001 1_554
Ca0_0 Mg5_5 3.772001 1_454
Ca0_0 Mg5_4 3.772001 1_455
Ca0_0 Mg5_2 3.772001 1_555
Ca0_1 Mg2_3 3.177736 1_555
Ca0_1 Mg2_5 3.177736 1_455
Ca0_1 Mg5_5 3.772001 1_455
Ca0_1 Mg5_4 3.772001 1_455
Ca0_1 Mg5_2 3.772001 1_555
Ca0_1 Mg5_3 3.772001 1_555
Ca0_2 Mg2_6 3.177736 1_455
Ca0_2 Mg2_0 3.177736 1_565
Ca0_2 Mg5_7 3.772001 1_454
Ca0_2 Mg5_6 3.772001 1_455
Ca0_2 Mg5_1 3.772001 1_564
Ca0_2 Mg5_0 3.772001 1_565
Ca0_3 Mg2_7 3.177736 1_455
Ca0_3 Mg2_1 3.177736 1_565
Ca0_3 Mg5_6 3.772001 1_455
Ca0_3 Mg5_7 3.772001 1_455
Ca0_3 Mg5_0 3.772001 1_565
Ca0_3 Mg5_1 3.772001 1_565
Ca0_4 Mg2_6 3.177736 1_555
Ca0_4 Mg2_0 3.177736 1_555
Ca0_4 Mg5_7 3.772001 1_554
Ca0_4 Mg5_1 3.772001 1_554
Ca0_4 Mg5_6 3.772001 1_555
Ca0_4 Mg5_0 3.772001 1_555
Ca0_5 Mg2_7 3.177736 1_555
Ca0_5 Mg2_1 3.177736 1_555
Ca0_5 Mg5_7 3.772001 1_555
Ca0_5 Mg5_6 3.772001 1_555
Ca0_5 Mg5_0 3.772001 1_555
Ca0_5 Mg5_1 3.772001 1_555
Ca0_6 Mg2_4 3.177736 1_565
Ca0_6 Mg2_2 3.177736 1_555
Ca0_6 Mg5_5 3.772001 1_564
Ca0_6 Mg5_3 3.772001 1_554
Ca0_6 Mg5_2 3.772001 1_555
Ca0_6 Mg5_4 3.772001 1_565
Ca0_7 Mg2_3 3.177736 1_555
Ca0_7 Mg2_5 3.177736 1_565
Ca0_7 Mg5_5 3.772001 1_565
Ca0_7 Mg5_2 3.772001 1_555
Ca0_7 Mg5_4 3.772001 1_565
Ca0_7 Mg5_3 3.772001 1_555
Mg0_0 Mg5_5 3.152058 1_454
Mg0_0 Mg5_4 3.152058 1_455
Mg0_1 Mg5_5 3.152058 1_455
Mg0_1 Mg5_4 3.152058 1_455
Mg0_2 Mg5_7 3.152058 1_454
Mg0_2 Mg5_6 3.152058 1_455
Mg0_3 Mg5_6 3.152058 1_455
Mg0_3 Mg5_7 3.152058 1_455
Mg0_4 Mg5_1 3.152058 1_554
Mg0_4 Mg5_0 3.152058 1_555
Mg0_5 Mg5_0 3.152058 1_555
Mg0_5 Mg5_1 3.152058 1_555
Mg0_6 Mg5_2 3.152058 1_555
Mg0_6 Mg5_3 3.152058 1_554
Mg0_7 Mg5_2 3.152058 1_555
Mg0_7 Mg5_3 3.152058 1_555
Mg1_0 Mg5_3 3.152058 1_554
Mg1_0 Mg5_2 3.152058 1_555
Mg1_1 Mg5_2 3.152058 1_555
Mg1_1 Mg5_3 3.152058 1_555
Mg1_2 Mg5_1 3.152058 1_564
Mg1_2 Mg5_0 3.152058 1_565
Mg1_3 Mg5_0 3.152058 1_565
Mg1_3 Mg5_1 3.152058 1_565
Mg1_4 Mg5_7 3.152058 1_554
Mg1_4 Mg5_6 3.152058 1_555
Mg1_5 Mg5_7 3.152058 1_555
Mg1_5 Mg5_6 3.152058 1_555
Mg1_6 Mg5_5 3.152058 1_564
Mg1_6 Mg5_4 3.152058 1_565
Mg1_7 Mg5_5 3.152058 1_565
Mg1_7 Mg5_4 3.152058 1_565
Mg2_0 Mg5_1 3.029528 1_554
Mg2_0 Mg5_0 3.029528 1_555
Mg2_0 Mg3_1 3.094497 1_554
Mg2_0 Mg3_0 3.094497 1_555
Mg2_0 Mg4_1 3.094497 1_554
Mg2_0 Mg4_0 3.094497 1_555
Mg2_0 Mg2_1 3.312636 1_555
Mg2_0 Mg2_1 3.312636 1_554
Mg2_1 Mg5_0 3.029528 1_555
Mg2_1 Mg5_1 3.029528 1_555
Mg2_1 Mg3_0 3.094497 1_555
Mg2_1 Mg4_0 3.094497 1_555
Mg2_1 Mg4_1 3.094497 1_555
Mg2_1 Mg3_1 3.094497 1_555
Mg2_2 Mg5_3 3.029528 1_554
Mg2_2 Mg5_2 3.029528 1_555
Mg2_2 Mg3_3 3.094497 1_554
Mg2_2 Mg3_2 3.094497 1_555
Mg2_2 Mg4_3 3.094497 1_554
Mg2_2 Mg4_2 3.094497 1_555
Mg2_2 Mg2_3 3.312636 1_555
Mg2_2 Mg2_3 3.312636 1_554
Mg2_3 Mg5_2 3.029528 1_555
Mg2_3 Mg5_3 3.029528 1_555
Mg2_3 Mg3_2 3.094497 1_555
Mg2_3 Mg3_3 3.094497 1_555
Mg2_3 Mg4_2 3.094497 1_555
Mg2_3 Mg4_3 3.094497 1_555
Mg2_4 Mg5_5 3.029528 1_554
Mg2_4 Mg5_4 3.029528 1_555
Mg2_4 Mg3_5 3.094497 1_554
Mg2_4 Mg3_4 3.094497 1_555
Mg2_4 Mg4_5 3.094497 1_554
Mg2_4 Mg4_4 3.094497 1_555
Mg2_4 Mg2_5 3.312636 1_555
Mg2_4 Mg2_5 3.312636 1_554
Mg2_5 Mg5_5 3.029528 1_555
Mg2_5 Mg5_4 3.029528 1_555
Mg2_5 Mg3_4 3.094497 1_555
Mg2_5 Mg3_5 3.094497 1_555
Mg2_5 Mg4_4 3.094497 1_555
Mg2_5 Mg4_5 3.094497 1_555
Mg2_6 Mg5_7 3.029528 1_554
Mg2_6 Mg5_6 3.029528 1_555
Mg2_6 Mg3_7 3.094497 1_554
Mg2_6 Mg3_6 3.094497 1_555
Mg2_6 Mg4_7 3.094497 1_554
Mg2_6 Mg4_6 3.094497 1_555
Mg2_6 Mg2_7 3.312636 1_555
Mg2_6 Mg2_7 3.312636 1_554
Mg2_7 Mg5_6 3.029528 1_555
Mg2_7 Mg5_7 3.029528 1_555
Mg2_7 Mg3_6 3.094497 1_555
Mg2_7 Mg3_7 3.094497 1_555
Mg2_7 Mg4_6 3.094497 1_555
Mg2_7 Mg4_7 3.094497 1_555
Mg5_0 Mg5_1 3.312636 1_554
Mg5_0 Mg5_1 3.312636 1_555
Mg5_2 Mg5_3 3.312636 1_554
Mg5_2 Mg5_3 3.312636 1_555
Mg5_4 Mg5_5 3.312636 1_554
Mg5_4 Mg5_5 3.312636 1_555
Mg5_6 Mg5_7 3.312636 1_554
Mg5_6 Mg5_7 3.312636 1_555
C0_0 Mg1_1 2.263977 1_555
C0_0 Mg1_0 2.263977 1_555
C0_0 Mg0_1 2.263977 1_555
C0_0 Mg0_0 2.263977 1_555
C0_0 Mg4_0 2.319336 1_555
C0_0 Mg3_0 2.319336 1_555
C0_1 Mg0_0 2.263977 1_556
C0_1 Mg1_0 2.263977 1_556
C0_1 Mg1_1 2.263977 1_555
C0_1 Mg0_1 2.263977 1_555
C0_1 Mg4_1 2.319336 1_555
C0_1 Mg3_1 2.319336 1_555
C0_2 Mg1_2 2.263977 1_555
C0_2 Mg1_3 2.263977 1_555
C0_2 Mg0_2 2.263977 1_555
C0_2 Mg0_3 2.263977 1_555
C0_2 Mg4_2 2.319336 1_555
C0_2 Mg3_2 2.319336 1_555
C0_3 Mg0_2 2.263977 1_556
C0_3 Mg1_2 2.263977 1_556
C0_3 Mg0_3 2.263977 1_555
C0_3 Mg1_3 2.263977 1_555
C0_3 Mg4_3 2.319336 1_555
C0_3 Mg3_3 2.319336 1_555
C0_4 Mg1_4 2.263977 1_555
C0_4 Mg1_5 2.263977 1_555
C0_4 Mg0_5 2.263977 1_555
C0_4 Mg0_4 2.263977 1_555
C0_4 Mg4_4 2.319336 1_555
C0_4 Mg3_4 2.319336 1_555
C0_5 Mg0_4 2.263977 1_556
C0_5 Mg1_4 2.263977 1_556
C0_5 Mg1_5 2.263977 1_555
C0_5 Mg0_5 2.263977 1_555
C0_5 Mg4_5 2.319336 1_555
C0_5 Mg3_5 2.319336 1_555
C0_6 Mg0_6 2.263977 1_555
C0_6 Mg0_7 2.263977 1_555
C0_6 Mg1_6 2.263977 1_555
C0_6 Mg1_7 2.263977 1_555
C0_6 Mg3_6 2.319336 1_555
C0_6 Mg4_6 2.319336 1_555
C0_7 Mg0_6 2.263977 1_556
C0_7 Mg0_7 2.263977 1_555
C0_7 Mg1_6 2.263977 1_556
C0_7 Mg1_7 2.263977 1_555
C0_7 Mg3_7 2.319336 1_555
C0_7 Mg4_7 2.319336 1_555
