# generated using pymatgen
data_ScAgO2
_symmetry_space_group_name_H-M   'P 1'
_cell_length_a   3.21142308
_cell_length_b   3.21142278
_cell_length_c   12.40930025
_cell_angle_alpha   90.00000000
_cell_angle_beta   90.00000000
_cell_angle_gamma   120.00000312
_symmetry_Int_Tables_number   1
_chemical_formula_structural   ScAgO2
_chemical_formula_sum   'Sc2 Ag2 O4'
_cell_volume   110.83397731
_cell_formula_units_Z   2
loop_
 _symmetry_equiv_pos_site_id
 _symmetry_equiv_pos_as_xyz
  1  'x, y, z'
loop_
 _atom_site_type_symbol
 _atom_site_label
 _atom_site_symmetry_multiplicity
 _atom_site_fract_x
 _atom_site_fract_y
 _atom_site_fract_z
 _atom_site_occupancy
  Sc  Sc0  1  -0.00000000  0.00000000  0.00000000  1
  Sc  Sc1  1  -0.00000000  0.00000000  0.50000000  1
  Ag  Ag0  1  0.66666700  0.33333300  0.75000000  1
  Ag  Ag1  1  0.33333300  0.66666700  0.25000000  1
  O  O0  1  0.33333300  0.66666700  0.41713914  1
  O  O1  1  0.66666700  0.33333300  0.91713914  1
  O  O2  1  0.33333300  0.66666700  0.08286086  1
  O  O3  1  0.66666700  0.33333300  0.58286086  1
loop_
_geom_bond_atom_site_label_1
_geom_bond_atom_site_label_2
_geom_bond_distance
_geom_bond_site_symmetry_2
Ag0 O3 2.074080 1_555
Ag0 O1 2.074080 1_555
Ag1 O0 2.074080 1_555
Ag1 O2 2.074080 1_555
O0 Sc1 2.120148 1_565
O0 Sc1 2.120150 1_555
O0 Sc1 2.120150 1_665
O1 Sc0 2.120148 1_656
O1 Sc0 2.120150 1_666
O1 Sc0 2.120150 1_556
O2 Sc0 2.120148 1_565
O2 Sc0 2.120150 1_555
O2 Sc0 2.120150 1_665
O3 Sc1 2.120148 1_655
O3 Sc1 2.120150 1_665
O3 Sc1 2.120150 1_555
