# generated using pymatgen
data_La(Fe2B)6
_symmetry_space_group_name_H-M   'P 1'
_cell_length_a   6.07628228
_cell_length_b   6.07628228
_cell_length_c   6.07628240
_cell_angle_alpha   104.26129916
_cell_angle_beta   104.26129916
_cell_angle_gamma   104.26131026
_symmetry_Int_Tables_number   1
_chemical_formula_structural   La(Fe2B)6
_chemical_formula_sum   'La1 Fe12 B6'
_cell_volume   199.15402035
_cell_formula_units_Z   1
loop_
 _symmetry_equiv_pos_site_id
 _symmetry_equiv_pos_as_xyz
  1  'x, y, z'
loop_
 _atom_site_type_symbol
 _atom_site_label
 _atom_site_symmetry_multiplicity
 _atom_site_fract_x
 _atom_site_fract_y
 _atom_site_fract_z
 _atom_site_occupancy
  La  La0  1  0.00000000  0.00000000  0.00000000  1
  Fe  Fe0  1  0.86690200  0.13309800  0.50000000  1
  Fe  Fe1  1  0.13309800  0.50000000  0.86690200  1
  Fe  Fe2  1  0.50000000  0.86690200  0.13309800  1
  Fe  Fe3  1  0.86690200  0.50000000  0.13309800  1
  Fe  Fe4  1  0.50000000  0.13309800  0.86690200  1
  Fe  Fe5  1  0.13309800  0.86690200  0.50000000  1
  Fe  Fe6  1  0.81110200  0.54078500  0.54078500  1
  Fe  Fe7  1  0.54078500  0.54078500  0.81110200  1
  Fe  Fe8  1  0.54078500  0.81110200  0.54078500  1
  Fe  Fe9  1  0.18889800  0.45921500  0.45921500  1
  Fe  Fe10  1  0.45921500  0.45921500  0.18889800  1
  Fe  Fe11  1  0.45921500  0.18889800  0.45921500  1
  B  B0  1  0.32125200  0.77178300  0.77178300  1
  B  B1  1  0.77178300  0.77178300  0.32125200  1
  B  B2  1  0.77178300  0.32125200  0.77178300  1
  B  B3  1  0.67874800  0.22821700  0.22821700  1
  B  B4  1  0.22821700  0.22821700  0.67874800  1
  B  B5  1  0.22821700  0.67874800  0.22821700  1
loop_
_geom_bond_atom_site_label_1
_geom_bond_atom_site_label_2
_geom_bond_distance
_geom_bond_site_symmetry_2
Fe0 La0 3.295554 1_655
Fe0 La0 3.295554 1_656
Fe1 La0 3.295554 1_556
Fe1 La0 3.295554 1_566
Fe2 La0 3.295554 1_665
Fe2 La0 3.295554 1_565
Fe3 La0 3.295554 1_665
Fe3 La0 3.295554 1_655
Fe4 La0 3.295554 1_556
Fe4 La0 3.295554 1_656
Fe5 La0 3.295554 1_565
Fe5 La0 3.295554 1_566
Fe6 La0 3.145997 1_666
Fe7 La0 3.145997 1_666
Fe8 La0 3.145997 1_666
Fe9 La0 3.145997 1_555
Fe10 La0 3.145997 1_555
Fe11 La0 3.145997 1_555
B0 Fe4 2.055342 1_565
B0 Fe2 2.055342 1_556
B0 Fe1 2.057657 1_555
B0 Fe5 2.057658 1_555
B0 Fe9 2.139812 1_555
B0 Fe8 2.176531 1_555
B0 Fe7 2.176531 1_555
B0 La0 3.062056 1_566
B1 Fe5 2.055342 1_655
B1 Fe0 2.055342 1_565
B1 Fe3 2.057658 1_555
B1 Fe2 2.057658 1_555
B1 Fe10 2.139811 1_555
B1 Fe8 2.176531 1_555
B1 Fe6 2.176531 1_555
B1 La0 3.062056 1_665
B2 Fe1 2.055342 1_655
B2 Fe3 2.055342 1_556
B2 Fe4 2.057657 1_555
B2 Fe0 2.057658 1_555
B2 Fe11 2.139812 1_555
B2 Fe6 2.176531 1_555
B2 Fe7 2.176531 1_555
B2 La0 3.062056 1_656
B3 Fe2 2.055342 1_545
B3 Fe4 2.055342 1_554
B3 Fe3 2.057657 1_555
B3 Fe0 2.057658 1_555
B3 Fe6 2.139812 1_555
B3 Fe11 2.176531 1_555
B3 Fe10 2.176531 1_555
B3 La0 3.062056 1_655
B4 Fe5 2.055342 1_545
B4 Fe0 2.055342 1_455
B4 Fe4 2.057658 1_555
B4 Fe1 2.057658 1_555
B4 Fe7 2.139811 1_555
B4 Fe11 2.176531 1_555
B4 Fe9 2.176531 1_555
B4 La0 3.062056 1_556
B5 Fe3 2.055342 1_455
B5 Fe1 2.055342 1_554
B5 Fe2 2.057657 1_555
B5 Fe5 2.057658 1_555
B5 Fe8 2.139812 1_555
B5 Fe9 2.176531 1_555
B5 Fe10 2.176531 1_555
B5 La0 3.062056 1_565
