# generated using pymatgen
data_CeFeNi4
_symmetry_space_group_name_H-M   'P 1'
_cell_length_a   4.95021033
_cell_length_b   4.95021033
_cell_length_c   4.06166600
_cell_angle_alpha   90.00000000
_cell_angle_beta   90.00000000
_cell_angle_gamma   120.00000447
_symmetry_Int_Tables_number   1
_chemical_formula_structural   CeFeNi4
_chemical_formula_sum   'Ce1 Fe1 Ni4'
_cell_volume   86.19501005
_cell_formula_units_Z   1
loop_
 _symmetry_equiv_pos_site_id
 _symmetry_equiv_pos_as_xyz
  1  'x, y, z'
loop_
 _atom_site_type_symbol
 _atom_site_label
 _atom_site_symmetry_multiplicity
 _atom_site_fract_x
 _atom_site_fract_y
 _atom_site_fract_z
 _atom_site_occupancy
  Ce  Ce0  1  0.00000000  0.00000000  0.00000000  1
  Fe  Fe0  1  0.33333300  0.66666700  0.00000000  1
  Ni  Ni0  1  0.66666700  0.33333300  0.00000000  1
  Ni  Ni1  1  0.99991500  0.49995700  0.50000000  1
  Ni  Ni2  1  0.50004300  0.49995700  0.50000000  1
  Ni  Ni3  1  0.50004300  0.00008500  0.50000000  1
loop_
_geom_bond_atom_site_label_1
_geom_bond_atom_site_label_2
_geom_bond_distance
_geom_bond_site_symmetry_2
Ce0 Ni0 2.858002 1_455
Ce0 Fe0 2.858002 1_545
Ce0 Fe0 2.858007 1_555
Ce0 Fe0 2.858007 1_445
Ce0 Ni0 2.858007 1_555
Ce0 Ni0 2.858007 1_445
Ce0 Ni3 3.201627 1_454
Ce0 Ni1 3.201627 1_455
Ce0 Ni3 3.201627 1_455
Ce0 Ni1 3.201627 1_454
Ce0 Ni2 3.201629 1_444
Ce0 Ni2 3.201629 1_555
Ce0 Ni2 3.201629 1_445
Ce0 Ni2 3.201629 1_554
Ce0 Ni3 3.201631 1_554
Ce0 Ni3 3.201631 1_555
Ce0 Ni1 3.201631 1_444
Ce0 Ni1 3.201631 1_445
Fe0 Ni3 2.483419 1_564
Fe0 Ni3 2.483419 1_565
Fe0 Ni1 2.483419 1_455
Fe0 Ni1 2.483419 1_454
Fe0 Ni2 2.483424 1_555
Fe0 Ni2 2.483424 1_554
Fe0 Ni0 2.858002 1_455
Fe0 Ni0 2.858002 1_565
Fe0 Ni0 2.858011 1_555
Ni0 Ni3 2.482999 1_554
Ni0 Ni1 2.482999 1_554
Ni0 Ni3 2.482999 1_555
Ni0 Ni1 2.482999 1_555
Ni0 Ni2 2.482999 1_555
Ni0 Ni2 2.482999 1_554
Ni1 Ni3 2.474471 1_555
Ni1 Ni2 2.474472 1_555
Ni1 Ni3 2.475739 1_665
Ni1 Ni2 2.475739 1_655
Ni2 Ni3 2.474472 1_555
Ni2 Ni3 2.475739 1_565
