# generated using pymatgen
data_Ti4CrBi2
_symmetry_space_group_name_H-M   'P 1'
_cell_length_a   7.86159950
_cell_length_b   7.86159950
_cell_length_c   7.86159950
_cell_angle_alpha   96.02859096
_cell_angle_beta   96.02859096
_cell_angle_gamma   142.18089094
_symmetry_Int_Tables_number   1
_chemical_formula_structural   Ti4CrBi2
_chemical_formula_sum   'Ti8 Cr2 Bi4'
_cell_volume   281.85098186
_cell_formula_units_Z   2
loop_
 _symmetry_equiv_pos_site_id
 _symmetry_equiv_pos_as_xyz
  1  'x, y, z'
loop_
 _atom_site_type_symbol
 _atom_site_label
 _atom_site_symmetry_multiplicity
 _atom_site_fract_x
 _atom_site_fract_y
 _atom_site_fract_z
 _atom_site_occupancy
  Ti  Ti0  1  0.07926178  0.19178241  0.27104418  1
  Ti  Ti1  1  0.92073822  0.80821759  0.72895582  1
  Ti  Ti2  1  0.80821759  0.07926178  0.88747837  1
  Ti  Ti3  1  0.42073822  0.69178241  0.11252163  1
  Ti  Ti4  1  0.19178241  0.92073822  0.11252163  1
  Ti  Ti5  1  0.57926178  0.30821759  0.88747837  1
  Ti  Ti6  1  0.69178241  0.57926178  0.27104418  1
  Ti  Ti7  1  0.30821759  0.42073822  0.72895582  1
  Cr  Cr0  1  0.25000000  0.25000000  -0.00000000  1
  Cr  Cr1  1  0.75000000  0.75000000  -0.00000000  1
  Bi  Bi0  1  0.14097966  0.64097966  0.78195832  1
  Bi  Bi1  1  0.85902034  0.35902034  0.21804168  1
  Bi  Bi2  1  0.35902034  0.14097966  0.50000000  1
  Bi  Bi3  1  0.64097966  0.85902034  0.50000000  1
loop_
_geom_bond_atom_site_label_1
_geom_bond_atom_site_label_2
_geom_bond_distance
_geom_bond_site_symmetry_2
Cr0 Ti7 2.527192 1_554
Cr0 Ti0 2.527192 1_555
Cr0 Ti1 2.527192 1_444
Cr0 Ti6 2.527192 1_555
Cr0 Ti3 2.527193 1_555
Cr0 Ti2 2.527193 1_454
Cr0 Ti4 2.527195 1_545
Cr0 Ti5 2.527195 1_554
Cr0 Cr1 2.547749 1_445
Cr0 Cr1 2.547749 1_555
Cr1 Ti1 2.527192 1_554
Cr1 Ti6 2.527192 1_555
Cr1 Ti7 2.527192 1_554
Cr1 Ti0 2.527192 1_665
Cr1 Ti5 2.527193 1_554
Cr1 Ti4 2.527193 1_655
Cr1 Ti2 2.527195 1_564
Cr1 Ti3 2.527195 1_555
Bi0 Ti7 2.908644 1_555
Bi0 Ti1 2.908644 1_455
Bi0 Ti3 2.990624 1_556
Bi0 Ti4 2.990624 1_556
Bi0 Ti2 3.163306 1_565
Bi0 Ti5 3.163306 1_565
Bi0 Ti5 3.163306 1_455
Bi0 Ti2 3.163306 1_455
Bi1 Ti0 2.908644 1_655
Bi1 Ti6 2.908644 1_555
Bi1 Ti2 2.990624 1_554
Bi1 Ti5 2.990624 1_554
Bi1 Ti3 3.163306 1_545
Bi1 Ti3 3.163306 1_655
Bi1 Ti4 3.163306 1_655
Bi1 Ti4 3.163306 1_545
Bi2 Ti5 2.908637 1_555
Bi2 Ti4 2.908637 1_545
Bi2 Ti7 2.990612 1_555
Bi2 Ti0 2.990612 1_555
Bi2 Ti1 3.163306 1_555
Bi2 Ti6 3.163306 1_445
Bi2 Ti6 3.163306 1_555
Bi2 Ti1 3.163306 1_445
Bi3 Ti2 2.908637 1_565
Bi3 Ti3 2.908637 1_555
Bi3 Ti6 2.990612 1_555
Bi3 Ti1 2.990612 1_555
Bi3 Ti7 3.163306 1_665
Bi3 Ti0 3.163306 1_555
Bi3 Ti0 3.163306 1_665
Bi3 Ti7 3.163306 1_555
