# generated using pymatgen
data_V16Ag7O40
_symmetry_space_group_name_H-M   'P 1'
_cell_length_a   3.67242387
_cell_length_b   12.52799395
_cell_length_c   18.46534846
_cell_angle_alpha   81.46009970
_cell_angle_beta   91.53977251
_cell_angle_gamma   106.30707888
_symmetry_Int_Tables_number   1
_chemical_formula_structural   V16Ag7O40
_chemical_formula_sum   'V16 Ag7 O40'
_cell_volume   806.23983925
_cell_formula_units_Z   1
loop_
 _symmetry_equiv_pos_site_id
 _symmetry_equiv_pos_as_xyz
  1  'x, y, z'
loop_
 _atom_site_type_symbol
 _atom_site_label
 _atom_site_symmetry_multiplicity
 _atom_site_fract_x
 _atom_site_fract_y
 _atom_site_fract_z
 _atom_site_occupancy
  V  V0  1  0.26303500  0.75299300  0.08328000  1
  V  V1  1  0.23972700  0.74350700  0.58263200  1
  V  V2  1  0.40798100  0.94966300  0.42574200  1
  V  V3  1  0.44905500  0.95415800  0.92035400  1
  V  V4  1  0.26214300  0.25694000  0.08395100  1
  V  V5  1  0.26120600  0.24673800  0.57965500  1
  V  V6  1  0.44308800  0.45382700  0.41643200  1
  V  V7  1  0.43461200  0.45292800  0.91759200  1
  V  V8  1  0.57003700  0.55213200  0.08010800  1
  V  V9  1  0.54600500  0.53841600  0.57617000  1
  V  V10  1  0.71869200  0.74638100  0.42041100  1
  V  V11  1  0.74514200  0.74603200  0.91643200  1
  V  V12  1  0.57195200  0.04690200  0.07724800  1
  V  V13  1  0.56216700  0.03920500  0.58188400  1
  V  V14  1  0.74467500  0.24351100  0.42138600  1
  V  V15  1  0.74497800  0.24761400  0.91050200  1
  Ag  Ag0  1  0.06332200  0.59685000  0.26585400  1
  Ag  Ag1  1  0.08225300  0.61437400  0.77874500  1
  Ag  Ag2  1  0.15342300  0.14231600  0.28684800  1
  Ag  Ag3  1  0.10463200  0.11357600  0.77556900  1
  Ag  Ag4  1  0.87993300  0.91181300  0.24563500  1
  Ag  Ag5  1  0.94463100  0.88088400  0.72131800  1
  Ag  Ag6  1  0.90492600  0.37617800  0.70801300  1
  O  O0  1  0.10191900  0.58878700  0.06644900  1
  O  O1  1  0.08342800  0.57944700  0.57046700  1
  O  O2  1  0.24707300  0.77323400  0.44803300  1
  O  O3  1  0.27856600  0.77733100  0.93996800  1
  O  O4  1  0.26979100  0.75131100  0.17396400  1
  O  O5  1  0.23992200  0.74589500  0.67467600  1
  O  O6  1  0.40882400  0.90650100  0.55302300  1
  O  O7  1  0.42326500  0.91386900  0.04790000  1
  O  O8  1  0.47104100  0.99522800  0.82922900  1
  O  O9  1  0.41318800  0.98469500  0.33357500  1
  O  O10  1  0.11530700  0.09292800  0.06833100  1
  O  O11  1  0.10092100  0.08081600  0.57441000  1
  O  O12  1  0.27732800  0.27469600  0.44384600  1
  O  O13  1  0.27405700  0.27648000  0.93712900  1
  O  O14  1  0.25183300  0.24627700  0.17295400  1
  O  O15  1  0.26860600  0.25046600  0.67187500  1
  O  O16  1  0.41661500  0.40765100  0.05368700  1
  O  O17  1  0.41517200  0.40751800  0.54404400  1
  O  O18  1  0.47445600  0.49893300  0.32575200  1
  O  O19  1  0.45675300  0.49480500  0.82678800  1
  O  O20  1  0.56527700  0.53480000  0.16968100  1
  O  O21  1  0.51871500  0.49591800  0.66792600  1
  O  O22  1  0.56976200  0.58350200  0.45120200  1
  O  O23  1  0.57405800  0.58251700  0.95201100  1
  O  O24  1  0.72352300  0.75300300  0.32852600  1
  O  O25  1  0.73992800  0.74170700  0.82479500  1
  O  O26  1  0.73263300  0.72473900  0.05571700  1
  O  O27  1  0.70917500  0.71513200  0.55775700  1
  O  O28  1  0.87265300  0.90967000  0.43533100  1
  O  O29  1  0.90817000  0.91205900  0.92717400  1
  O  O30  1  0.56477200  0.01225200  0.16851600  1
  O  O31  1  0.55086500  0.00347500  0.67437200  1
  O  O32  1  0.56407900  0.08058100  0.45766100  1
  O  O33  1  0.59631200  0.08788200  0.95204600  1
  O  O34  1  0.74550300  0.23041600  0.33163100  1
  O  O35  1  0.74261100  0.24317700  0.81938100  1
  O  O36  1  0.73080800  0.21791700  0.55563700  1
  O  O37  1  0.73826300  0.22884300  0.06225200  1
  O  O38  1  0.90415000  0.41164800  0.42256000  1
  O  O39  1  0.89686500  0.41075500  0.92621300  1
loop_
_geom_bond_atom_site_label_1
_geom_bond_atom_site_label_2
_geom_bond_distance
_geom_bond_site_symmetry_2
Ag0 O4 2.338496 1_555
Ag0 O18 2.356947 1_555
Ag0 O18 2.375004 1_455
Ag0 O20 2.557410 1_455
Ag1 O5 2.307948 1_555
Ag1 O19 2.370462 1_555
Ag1 O19 2.467804 1_455
Ag1 O25 2.536689 1_455
Ag1 O25 2.688888 1_555
Ag2 O14 2.283183 1_555
Ag2 O34 2.326443 1_455
Ag2 O34 2.335941 1_555
Ag2 O9 2.462008 1_545
Ag3 O15 2.340241 1_555
Ag3 O8 2.367097 1_545
Ag3 O8 2.518804 1_445
Ag3 O35 2.591985 1_455
Ag3 O35 2.632870 1_555
Ag4 O24 2.265425 1_555
Ag4 O30 2.268890 1_565
Ag4 O9 2.563387 1_655
Ag5 O25 2.368094 1_555
Ag5 O31 2.419708 1_665
Ag5 O31 2.446583 1_565
Ag5 O5 2.508063 1_655
Ag6 O21 2.370339 1_555
Ag6 O21 2.395866 1_655
Ag6 O35 2.418903 1_555
Ag6 O15 2.500142 1_655
Ag6 O15 2.558911 1_555
O0 V8 1.891618 1_455
O0 V8 1.901452 1_555
O0 V0 2.043305 1_555
O1 V9 1.896302 1_455
O1 V9 1.904170 1_555
O1 V1 2.017929 1_555
O2 V10 1.941600 1_455
O2 V10 1.949036 1_555
O2 V2 2.100818 1_555
O2 V1 2.457596 1_555
O3 V11 1.935595 1_555
O3 V11 1.937433 1_455
O3 V3 2.103730 1_555
O4 V0 1.671116 1_555
O5 V1 1.704301 1_555
O6 V13 1.756800 1_565
O6 V1 1.956741 1_555
O6 V2 2.332243 1_555
O7 V12 1.763746 1_565
O7 V0 1.949030 1_555
O7 V3 2.332959 1_554
O8 V3 1.682089 1_555
O9 V2 1.692522 1_555
O10 V12 1.916218 1_555
O10 V12 1.919546 1_455
O10 V4 2.035035 1_555
O11 V13 1.902496 1_455
O11 V13 1.903161 1_555
O11 V5 2.011552 1_555
O12 V14 1.930395 1_455
O12 V14 1.932159 1_555
O12 V6 2.138933 1_555
O12 V5 2.480023 1_555
O13 V15 1.937694 1_455
O13 V15 1.952727 1_555
O13 V7 2.099269 1_555
O14 V4 1.629594 1_555
O15 V5 1.709714 1_555
O16 V4 1.816927 1_555
O16 V8 1.872583 1_555
O16 V7 2.491186 1_554
O17 V9 1.761570 1_555
O17 V5 1.948420 1_555
O17 V6 2.339504 1_555
O18 V6 1.682001 1_555
O19 V7 1.677910 1_555
O20 V8 1.635823 1_555
O21 V9 1.695710 1_555
O22 V6 1.771205 1_555
O22 V10 1.957458 1_555
O22 V9 2.290766 1_555
O23 V7 1.767477 1_555
O23 V11 1.980526 1_555
O23 V8 2.339088 1_556
O24 V10 1.686694 1_555
O25 V11 1.700424 1_555
O26 V0 1.947186 1_655
O26 V0 1.949854 1_555
O26 V8 2.058044 1_555
O26 V11 2.546346 1_554
O27 V1 1.935143 1_555
O27 V1 1.935225 1_655
O27 V9 2.102002 1_555
O27 V10 2.507728 1_555
O28 V2 1.893821 1_655
O28 V2 1.905778 1_555
O28 V10 2.022346 1_555
O29 V3 1.898706 1_555
O29 V3 1.909200 1_655
O29 V11 2.034935 1_555
O30 V12 1.675720 1_555
O31 V13 1.698553 1_555
O32 V2 1.762673 1_545
O32 V14 1.978017 1_555
O32 V13 2.275093 1_555
O33 V3 1.790787 1_545
O33 V15 1.960636 1_555
O33 V12 2.291128 1_556
O34 V14 1.689692 1_555
O35 V15 1.691439 1_555
O36 V5 1.930633 1_655
O36 V5 1.933800 1_555
O36 V13 2.132211 1_555
O36 V14 2.452008 1_555
O37 V4 1.898955 1_655
O37 V4 1.940856 1_555
O37 V12 2.164490 1_555
O38 V6 1.901646 1_655
O38 V6 1.906149 1_555
O38 V14 2.024987 1_555
O39 V7 1.900116 1_655
O39 V7 1.910621 1_555
O39 V15 2.024779 1_555
