# generated using pymatgen
data_ZnHIO4
_symmetry_space_group_name_H-M   'P 1'
_cell_length_a   5.49062100
_cell_length_b   6.42136829
_cell_length_c   6.49405885
_cell_angle_alpha   87.42944496
_cell_angle_beta   64.99219106
_cell_angle_gamma   83.90990428
_symmetry_Int_Tables_number   1
_chemical_formula_structural   ZnHIO4
_chemical_formula_sum   'Zn2 H2 I2 O8'
_cell_volume   206.32668486
_cell_formula_units_Z   2
loop_
 _symmetry_equiv_pos_site_id
 _symmetry_equiv_pos_as_xyz
  1  'x, y, z'
loop_
 _atom_site_type_symbol
 _atom_site_label
 _atom_site_symmetry_multiplicity
 _atom_site_fract_x
 _atom_site_fract_y
 _atom_site_fract_z
 _atom_site_occupancy
  Zn  Zn0  1  0.53531200  0.36426400  0.91586800  1
  Zn  Zn1  1  0.45118100  0.86426400  0.08413200  1
  H  H0  1  0.12968600  0.60603400  0.12068700  1
  H  H1  1  0.25037400  0.10603400  0.87931300  1
  I  I0  1  0.69412800  0.13465300  0.36847600  1
  I  I1  1  0.06260400  0.63465300  0.63152400  1
  O  O0  1  0.77838000  0.23102000  0.07709700  1
  O  O1  1  0.85547700  0.73102000  0.92290300  1
  O  O2  1  0.01563800  0.99866800  0.33110100  1
  O  O3  1  0.34673900  0.49866800  0.66889900  1
  O  O4  1  0.50592600  0.91268100  0.36731000  1
  O  O5  1  0.87323600  0.41268100  0.63269000  1
  O  O6  1  0.29966500  0.58468000  0.13639000  1
  O  O7  1  0.43605500  0.08468000  0.86361000  1
loop_
_geom_bond_atom_site_label_1
_geom_bond_atom_site_label_2
_geom_bond_distance
_geom_bond_site_symmetry_2
H0 O6 0.975854 1_555
H1 O7 0.975849 1_555
I0 O2 1.807576 1_645
I0 O0 1.842033 1_555
I0 O4 1.849225 1_545
I1 O3 1.807576 1_555
I1 O1 1.842033 1_455
I1 O5 1.849225 1_455
O0 Zn0 2.113830 1_554
O1 Zn1 2.113826 1_556
O2 Zn1 2.340813 1_555
O3 Zn0 2.340809 1_555
O4 Zn1 2.026650 1_555
O5 Zn0 2.026653 1_555
O6 Zn0 1.988677 1_554
O6 Zn1 2.013444 1_555
O7 Zn1 1.988678 1_546
O7 Zn0 2.013441 1_555
