# generated using pymatgen
data_Mg14TiB
_symmetry_space_group_name_H-M   'P 1'
_cell_length_a   6.23016985
_cell_length_b   6.23016938
_cell_length_c   9.97742688
_cell_angle_alpha   90.00000000
_cell_angle_beta   90.00000000
_cell_angle_gamma   120.00000257
_symmetry_Int_Tables_number   1
_chemical_formula_structural   Mg14TiB
_chemical_formula_sum   'Mg14 Ti1 B1'
_cell_volume   335.38907728
_cell_formula_units_Z   1
loop_
 _symmetry_equiv_pos_site_id
 _symmetry_equiv_pos_as_xyz
  1  'x, y, z'
loop_
 _atom_site_type_symbol
 _atom_site_label
 _atom_site_symmetry_multiplicity
 _atom_site_fract_x
 _atom_site_fract_y
 _atom_site_fract_z
 _atom_site_occupancy
  Mg  Mg0  1  0.17360180  0.83680040  0.12500000  1
  Mg  Mg1  1  0.16307522  0.83153711  0.62500000  1
  Mg  Mg2  1  0.66319960  0.32639820  0.12500000  1
  Mg  Mg3  1  0.66846289  0.33692478  0.62500000  1
  Mg  Mg4  1  0.66319960  0.83680040  0.12500000  1
  Mg  Mg5  1  0.66846289  0.83153711  0.62500000  1
  Mg  Mg6  1  0.32505608  0.17494392  0.38357804  1
  Mg  Mg7  1  0.32505608  0.17494392  0.86642196  1
  Mg  Mg8  1  0.32505608  0.65011316  0.38357804  1
  Mg  Mg9  1  0.32505608  0.65011316  0.86642196  1
  Mg  Mg10  1  0.84988684  0.17494392  0.38357804  1
  Mg  Mg11  1  0.84988684  0.17494392  0.86642196  1
  Mg  Mg12  1  0.83333300  0.66666700  0.36929211  1
  Mg  Mg13  1  0.83333300  0.66666700  0.88070789  1
  Ti  Ti0  1  0.16666700  0.33333300  0.12500000  1
  B  B0  1  0.16666700  0.33333300  0.62500000  1
loop_
_geom_bond_atom_site_label_1
_geom_bond_atom_site_label_2
_geom_bond_distance
_geom_bond_site_symmetry_2
Mg0 Mg2 3.050277 1_565
Mg0 Mg4 3.050277 1_555
Mg0 Mg13 3.051481 1_454
Mg0 Mg12 3.051481 1_455
Mg0 Ti0 3.115309 1_555
Mg0 Ti0 3.115309 1_565
Mg0 Mg9 3.161760 1_554
Mg0 Mg8 3.161760 1_555
Mg0 Mg7 3.161766 1_564
Mg0 Mg6 3.161766 1_565
Mg0 Mg2 3.179892 1_455
Mg0 Mg4 3.179892 1_455
Mg1 Mg8 3.039546 1_555
Mg1 Mg9 3.039546 1_555
Mg1 Mg6 3.039553 1_565
Mg1 Mg7 3.039553 1_565
Mg1 Mg12 3.110375 1_455
Mg1 Mg13 3.110375 1_455
Mg2 Mg4 3.050277 1_545
Mg2 Ti0 3.115310 1_655
Mg2 Ti0 3.115310 1_555
Mg2 Mg7 3.161767 1_554
Mg2 Mg6 3.161767 1_555
Mg2 Mg4 3.179892 1_555
Mg3 Mg6 3.039553 1_555
Mg3 Mg7 3.039553 1_555
Mg4 Ti0 3.115309 1_555
Mg4 Ti0 3.115309 1_665
Mg4 Mg9 3.161766 1_554
Mg4 Mg8 3.161766 1_555
Mg5 Mg8 3.039553 1_555
Mg5 Mg9 3.039553 1_555
Mg6 Mg8 2.960385 1_555
Mg6 Ti0 3.094734 1_555
Mg6 Mg8 3.269785 1_545
Mg7 Mg9 2.960385 1_555
Mg7 Ti0 3.094734 1_556
Mg7 Mg9 3.269785 1_545
Mg8 Ti0 3.094740 1_555
Mg9 Ti0 3.094740 1_556
Mg10 Mg8 2.960385 1_655
Mg10 Mg6 2.960385 1_655
Mg10 Mg3 3.039546 1_555
Mg10 Mg5 3.039553 1_545
Mg10 Ti0 3.094740 1_655
Mg10 Mg12 3.119623 1_545
Mg10 Mg12 3.119623 1_555
Mg10 Mg2 3.161760 1_555
Mg10 Mg4 3.161766 1_545
Mg10 Mg8 3.269785 1_545
Mg10 Mg6 3.269785 1_555
Mg11 Mg9 2.960385 1_655
Mg11 Mg7 2.960385 1_655
Mg11 Mg3 3.039546 1_555
Mg11 Mg5 3.039553 1_545
Mg11 Ti0 3.094740 1_656
Mg11 Mg13 3.119623 1_545
Mg11 Mg13 3.119623 1_555
Mg11 Mg2 3.161760 1_556
Mg11 Mg4 3.161766 1_546
Mg11 Mg9 3.269785 1_545
Mg11 Mg7 3.269785 1_555
Mg12 Mg4 3.051474 1_555
Mg12 Mg2 3.051481 1_555
Mg12 Mg5 3.110369 1_555
Mg12 Mg3 3.110375 1_555
Mg12 Mg6 3.119623 1_665
Mg12 Mg6 3.119623 1_555
Mg12 Mg8 3.119623 1_555
Mg12 Mg8 3.119623 1_655
Mg13 Mg4 3.051474 1_556
Mg13 Mg2 3.051481 1_556
Mg13 Mg5 3.110369 1_555
Mg13 Mg3 3.110375 1_555
Mg13 Mg7 3.119623 1_665
Mg13 Mg7 3.119623 1_555
Mg13 Mg9 3.119623 1_555
Mg13 Mg9 3.119623 1_655
B0 Mg7 2.953547 1_555
B0 Mg6 2.953547 1_555
B0 Mg8 2.953553 1_555
B0 Mg9 2.953553 1_555
B0 Mg11 2.953553 1_455
B0 Mg10 2.953553 1_455
