# generated using pymatgen
data_Li9Mn2Co5O16
_symmetry_space_group_name_H-M   'P 1'
_cell_length_a   3.02594400
_cell_length_b   9.82236651
_cell_length_c   10.11494311
_cell_angle_alpha   76.88404083
_cell_angle_beta   88.42499436
_cell_angle_gamma   86.70109245
_symmetry_Int_Tables_number   1
_chemical_formula_structural   Li9Mn2Co5O16
_chemical_formula_sum   'Li9 Mn2 Co5 O16'
_cell_volume   292.27553404
_cell_formula_units_Z   1
loop_
 _symmetry_equiv_pos_site_id
 _symmetry_equiv_pos_as_xyz
  1  'x, y, z'
loop_
 _atom_site_type_symbol
 _atom_site_label
 _atom_site_symmetry_multiplicity
 _atom_site_fract_x
 _atom_site_fract_y
 _atom_site_fract_z
 _atom_site_occupancy
  Li  Li0  1  0.00207600  0.74980100  0.87425900  1
  Li  Li1  1  0.49960400  0.49930100  0.50170600  1
  Li  Li2  1  0.99729800  0.24970700  0.12670900  1
  Li  Li3  1  0.49959500  0.99891700  0.74263200  1
  Li  Li4  1  0.49953800  0.50109900  0.99776500  1
  Li  Li5  1  0.99579400  0.25031700  0.62178700  1
  Li  Li6  1  0.49913300  0.00159400  0.25711600  1
  Li  Li7  1  0.00482000  0.74923900  0.37744000  1
  Li  Li8  1  0.00002400  0.99932200  0.50025800  1
  Mn  Mn0  1  0.00584600  0.99854500  0.99925900  1
  Mn  Mn1  1  0.99786700  0.49880800  0.25150500  1
  Co  Co0  1  0.50052100  0.76057400  0.62184600  1
  Co  Co1  1  0.50227900  0.25208900  0.87258800  1
  Co  Co2  1  0.50098200  0.74944800  0.12602200  1
  Co  Co3  1  0.00078200  0.50356500  0.74827800  1
  Co  Co4  1  0.49260300  0.23829200  0.37953300  1
  O  O0  1  0.47344900  0.87238400  0.94947500  1
  O  O1  1  0.96881100  0.62552300  0.57347700  1
  O  O2  1  0.47326600  0.36919900  0.20426700  1
  O  O3  1  0.02014400  0.12548800  0.81985100  1
  O  O4  1  0.96893800  0.62642600  0.07230200  1
  O  O5  1  0.51150100  0.37591200  0.69716900  1
  O  O6  1  0.97383400  0.13385000  0.31855700  1
  O  O7  1  0.49767600  0.85996800  0.45516300  1
  O  O8  1  0.48398700  0.62980500  0.79561000  1
  O  O9  1  0.02434600  0.37260600  0.42803900  1
  O  O10  1  0.53551600  0.12798200  0.05088400  1
  O  O11  1  0.01978200  0.86478700  0.68230800  1
  O  O12  1  0.98709400  0.38001600  0.92700300  1
  O  O13  1  0.50464300  0.13851600  0.54577600  1
  O  O14  1  0.03092500  0.87170200  0.17924400  1
  O  O15  1  0.52732400  0.62521800  0.30217500  1
loop_
_geom_bond_atom_site_label_1
_geom_bond_atom_site_label_2
_geom_bond_distance
_geom_bond_site_symmetry_2
Li0 O11 2.013509 1_555
Li0 O8 2.076653 1_555
Li0 O4 2.095853 1_456
Li0 O0 2.171282 1_455
Li0 O0 2.176258 1_555
Li0 O8 2.277399 1_455
Li1 O5 2.071347 1_555
Li1 O15 2.116551 1_555
Li1 O1 2.178913 1_555
Li1 O9 2.180251 1_655
Li1 O1 2.181523 1_455
Li1 O9 2.204027 1_555
Li2 O6 2.016239 1_555
Li2 O12 2.131931 1_554
Li2 O10 2.153521 1_555
Li2 O2 2.154695 1_555
Li2 O2 2.177581 1_655
Li2 O10 2.189421 1_655
Li3 O3 2.105066 1_565
Li3 O13 2.146354 1_565
Li3 O11 2.158490 1_655
Li3 O0 2.179529 1_555
Li3 O11 2.202206 1_555
Li3 O3 2.317432 1_665
Li4 O12 2.056624 1_555
Li4 O8 2.146347 1_555
Li4 O4 2.186914 1_556
Li4 O4 2.188343 1_456
Li4 O2 2.195970 1_556
Li4 O12 2.234017 1_455
Li5 O9 2.055524 1_655
Li5 O13 2.071568 1_655
Li5 O3 2.098884 1_655
Li5 O5 2.099569 1_555
Li5 O13 2.153989 1_555
Li5 O5 2.291786 1_655
Li6 O6 2.162139 1_455
Li6 O7 2.164167 1_545
Li6 O10 2.175447 1_555
Li6 O6 2.183423 1_555
Li6 O14 2.231798 1_545
Li6 O14 2.233333 1_645
Li7 O7 2.070166 1_455
Li7 O1 2.080920 1_455
Li7 O14 2.092831 1_555
Li7 O7 2.159699 1_555
Li7 O15 2.167113 1_555
Li7 O15 2.198896 1_455
Li8 O6 2.005980 1_465
Li8 O11 2.008295 1_555
Li8 O13 2.083295 1_465
Li8 O7 2.087497 1_555
Li8 O7 2.225579 1_455
Li8 O13 2.231016 1_565
Mn0 O3 1.955683 1_565
Mn0 O0 1.957929 1_555
Mn0 O14 1.959510 1_556
Mn0 O10 1.991673 1_466
Mn0 O0 2.223080 1_455
Mn0 O10 2.244932 1_566
Mn1 O9 1.929604 1_655
Mn1 O4 1.956901 1_555
Mn1 O15 1.968986 1_555
Mn1 O2 1.986425 1_655
Mn1 O2 2.217933 1_555
Mn1 O15 2.221263 1_655
Co0 O7 1.746014 1_555
Co0 O11 1.897832 1_555
Co0 O8 1.928604 1_555
Co0 O1 2.011732 1_555
Co0 O11 2.100642 1_655
Co0 O1 2.274008 1_455
Co1 O5 1.910526 1_555
Co1 O10 1.935635 1_556
Co1 O3 2.077814 1_655
Co1 O12 2.086470 1_455
Co1 O3 2.124135 1_555
Co1 O12 2.145795 1_555
Co2 O0 1.916234 1_554
Co2 O15 1.918313 1_555
Co2 O14 1.951827 1_555
Co2 O4 1.954292 1_555
Co2 O14 2.205835 1_655
Co2 O4 2.217493 1_455
Co3 O1 1.898776 1_455
Co3 O12 1.936111 1_455
Co3 O8 2.053607 1_455
Co3 O5 2.062750 1_555
Co3 O8 2.102666 1_555
Co3 O5 2.140397 1_455
Co4 O13 1.743762 1_555
Co4 O6 1.902399 1_555
Co4 O2 1.939611 1_555
Co4 O9 2.007312 1_555
Co4 O6 2.103020 1_455
Co4 O9 2.269727 1_655
