# generated using pymatgen
data_TcAsH2(OF5)2
_symmetry_space_group_name_H-M   'P 1'
_cell_length_a   5.43383500
_cell_length_b   8.50717000
_cell_length_c   20.83620380
_cell_angle_alpha   90.00000000
_cell_angle_beta   91.16591278
_cell_angle_gamma   90.00000000
_symmetry_Int_Tables_number   1
_chemical_formula_structural   TcAsH2(OF5)2
_chemical_formula_sum   'Tc4 As4 H8 O8 F40'
_cell_volume   962.98657335
_cell_formula_units_Z   4
loop_
 _symmetry_equiv_pos_site_id
 _symmetry_equiv_pos_as_xyz
  1  'x, y, z'
loop_
 _atom_site_type_symbol
 _atom_site_label
 _atom_site_symmetry_multiplicity
 _atom_site_fract_x
 _atom_site_fract_y
 _atom_site_fract_z
 _atom_site_occupancy
  Tc  Tc0  1  0.41350100  0.08627400  0.64611100  1
  Tc  Tc1  1  0.58649900  0.58627400  0.85388900  1
  Tc  Tc2  1  0.58649900  0.91372600  0.35388900  1
  Tc  Tc3  1  0.41350100  0.41372600  0.14611100  1
  As  As0  1  0.68930300  0.66663800  0.63575100  1
  As  As1  1  0.31069700  0.16663800  0.86424900  1
  As  As2  1  0.31069700  0.33336200  0.36424900  1
  As  As3  1  0.68930300  0.83336200  0.13575100  1
  H  H0  1  0.70527000  0.23310300  0.54112800  1
  H  H1  1  0.29473000  0.73310300  0.95887200  1
  H  H2  1  0.29473000  0.76689700  0.45887200  1
  H  H3  1  0.70527000  0.26689700  0.04112800  1
  H  H4  1  0.96868900  0.31148700  0.48247200  1
  H  H5  1  0.03131100  0.81148700  0.01752800  1
  H  H6  1  0.03131100  0.68851300  0.51752800  1
  H  H7  1  0.96868900  0.18851300  0.98247200  1
  O  O0  1  0.30795400  0.26878700  0.65920800  1
  O  O1  1  0.69204600  0.76878700  0.84079200  1
  O  O2  1  0.69204600  0.73121300  0.34079200  1
  O  O3  1  0.30795400  0.23121300  0.15920800  1
  O  O4  1  0.32502600  0.98512000  0.71094800  1
  O  O5  1  0.67497400  0.48512000  0.78905200  1
  O  O6  1  0.67497400  0.01488000  0.28905200  1
  O  O7  1  0.32502600  0.51488000  0.21094800  1
  F  F0  1  0.74328200  0.11619500  0.66687500  1
  F  F1  1  0.25671800  0.61619500  0.83312500  1
  F  F2  1  0.25671800  0.88380500  0.33312500  1
  F  F3  1  0.74328200  0.38380500  0.16687500  1
  F  F4  1  0.18034100  0.01779500  0.58639500  1
  F  F5  1  0.81965900  0.51779500  0.91360500  1
  F  F6  1  0.81965900  0.98220500  0.41360500  1
  F  F7  1  0.18034100  0.48220500  0.08639500  1
  F  F8  1  0.55850300  0.16263200  0.55081100  1
  F  F9  1  0.44149700  0.66263200  0.94918900  1
  F  F10  1  0.44149700  0.83736800  0.44918900  1
  F  F11  1  0.55850300  0.33736800  0.05081100  1
  F  F12  1  0.90588100  0.32005200  0.52669200  1
  F  F13  1  0.09411900  0.82005200  0.97330800  1
  F  F14  1  0.09411900  0.67994800  0.47330800  1
  F  F15  1  0.90588100  0.17994800  0.02669200  1
  F  F16  1  0.43623300  0.65635700  0.68633600  1
  F  F17  1  0.56376700  0.15635700  0.81366400  1
  F  F18  1  0.56376700  0.34364300  0.31366400  1
  F  F19  1  0.43623300  0.84364300  0.18633600  1
  F  F20  1  0.51692700  0.58971300  0.57131400  1
  F  F21  1  0.48307300  0.08971300  0.92868600  1
  F  F22  1  0.48307300  0.41028700  0.42868600  1
  F  F23  1  0.51692700  0.91028700  0.07131400  1
  F  F24  1  0.80611900  0.48301200  0.65744400  1
  F  F25  1  0.19388100  0.98301200  0.84255600  1
  F  F26  1  0.19388100  0.51698800  0.34255600  1
  F  F27  1  0.80611900  0.01698800  0.15744400  1
  F  F28  1  0.85991900  0.76539400  0.69543100  1
  F  F29  1  0.14008100  0.26539400  0.80456900  1
  F  F30  1  0.14008100  0.23460600  0.30456900  1
  F  F31  1  0.85991900  0.73460600  0.19543100  1
  F  F32  1  0.94539900  0.69843900  0.58250500  1
  F  F33  1  0.05460100  0.19843900  0.91749500  1
  F  F34  1  0.05460100  0.30156100  0.41749500  1
  F  F35  1  0.94539900  0.80156100  0.08250500  1
  F  F36  1  0.58025800  0.86531900  0.60705900  1
  F  F37  1  0.41974200  0.36531900  0.89294100  1
  F  F38  1  0.41974200  0.13468100  0.39294100  1
  F  F39  1  0.58025800  0.63468100  0.10705900  1
loop_
_geom_bond_atom_site_label_1
_geom_bond_atom_site_label_2
_geom_bond_distance
_geom_bond_site_symmetry_2
As0 F24 1.742361 1_555
As0 F20 1.748443 1_555
As0 F28 1.750636 1_555
As0 F16 1.751730 1_555
As0 F32 1.817523 1_555
As0 F36 1.884384 1_555
As1 F25 1.742361 1_545
As1 F21 1.748443 1_555
As1 F29 1.750636 1_555
As1 F17 1.751730 1_555
As1 F33 1.817523 1_555
As1 F37 1.884384 1_555
As2 F26 1.742361 1_555
As2 F22 1.748443 1_555
As2 F30 1.750636 1_555
As2 F18 1.751730 1_555
As2 F34 1.817523 1_555
As2 F38 1.884384 1_555
As3 F27 1.742361 1_565
As3 F23 1.748443 1_555
As3 F31 1.750636 1_555
As3 F19 1.751730 1_555
As3 F35 1.817523 1_555
As3 F39 1.884384 1_555
O0 Tc0 1.679450 1_555
O1 Tc1 1.679450 1_555
O2 Tc2 1.679450 1_555
O3 Tc3 1.679450 1_555
O4 Tc0 1.680227 1_565
O5 Tc1 1.680227 1_555
O6 Tc2 1.680227 1_545
O7 Tc3 1.680227 1_555
F0 Tc0 1.852457 1_555
F1 Tc1 1.852457 1_555
F2 Tc2 1.852457 1_555
F3 Tc3 1.852457 1_555
F4 Tc0 1.851639 1_555
F5 Tc1 1.851639 1_555
F6 Tc2 1.851639 1_555
F7 Tc3 1.851639 1_555
F8 H0 1.021119 1_555
F8 Tc0 2.247091 1_555
F9 H1 1.021119 1_555
F9 Tc1 2.247091 1_555
F10 H2 1.021119 1_555
F10 Tc2 2.247091 1_555
F11 H3 1.021119 1_555
F11 Tc3 2.247091 1_555
F12 H4 0.991725 1_555
F12 H0 1.356190 1_555
F13 H5 0.991725 1_556
F13 H1 1.356190 1_555
F14 H6 0.991725 1_555
F14 H2 1.356190 1_555
F15 H7 0.991725 1_554
F15 H3 1.356190 1_555
F32 H6 1.443523 1_655
F33 H7 1.443523 1_455
F34 H4 1.443523 1_455
F35 H5 1.443523 1_655
F36 Tc0 2.246432 1_565
F37 Tc1 2.246432 1_555
F38 Tc2 2.246432 1_545
F39 Tc3 2.246432 1_555
