# generated using pymatgen
data_RbMgPO4
_symmetry_space_group_name_H-M   'P 1'
_cell_length_a   26.44717936
_cell_length_b   9.27458014
_cell_length_c   5.31083725
_cell_angle_alpha   90.00000000
_cell_angle_beta   90.00000000
_cell_angle_gamma   90.00000000
_symmetry_Int_Tables_number   1
_chemical_formula_structural   RbMgPO4
_chemical_formula_sum   'Rb12 Mg12 P12 O48'
_cell_volume   1302.67659855
_cell_formula_units_Z   12
loop_
 _symmetry_equiv_pos_site_id
 _symmetry_equiv_pos_as_xyz
  1  'x, y, z'
loop_
 _atom_site_type_symbol
 _atom_site_label
 _atom_site_symmetry_multiplicity
 _atom_site_fract_x
 _atom_site_fract_y
 _atom_site_fract_z
 _atom_site_occupancy
  Rb  Rb0  1  0.50100859  0.20526713  0.25305547  1
  Rb  Rb1  1  0.49899141  0.79473187  0.75305547  1
  Rb  Rb2  1  0.99899141  0.70526813  0.75305547  1
  Rb  Rb3  1  0.00100859  0.29473287  0.25305547  1
  Rb  Rb4  1  0.66444833  0.30492732  0.24451215  1
  Rb  Rb5  1  0.33555167  0.69507268  0.74451215  1
  Rb  Rb6  1  0.83555167  0.80492732  0.74451215  1
  Rb  Rb7  1  0.16444833  0.19507268  0.24451215  1
  Rb  Rb8  1  0.67433201  0.69264559  0.71131965  1
  Rb  Rb9  1  0.32566799  0.30735441  0.21131965  1
  Rb  Rb10  1  0.82566799  0.19264559  0.21131965  1
  Rb  Rb11  1  0.17433201  0.80735441  0.71131965  1
  Mg  Mg0  1  0.60001088  0.91161826  0.23289002  1
  Mg  Mg1  1  0.39998912  0.08838174  0.73289002  1
  Mg  Mg2  1  0.89998912  0.41161826  0.73289002  1
  Mg  Mg3  1  0.10001088  0.58838174  0.23289002  1
  Mg  Mg4  1  0.78130716  0.59522167  0.24649056  1
  Mg  Mg5  1  0.21869284  0.40477833  0.74649056  1
  Mg  Mg6  1  0.71869284  0.09522167  0.74649056  1
  Mg  Mg7  1  0.28130716  0.90477833  0.24649056  1
  Mg  Mg8  1  0.55210388  0.44400573  0.77062162  1
  Mg  Mg9  1  0.44789612  0.55599427  0.27062162  1
  Mg  Mg10  1  0.94789612  0.94400573  0.27062162  1
  Mg  Mg11  1  0.05210388  0.05599427  0.77062162  1
  P  P0  1  0.59192888  0.10366471  0.74517536  1
  P  P1  1  0.40807112  0.89633529  0.24517536  1
  P  P2  1  0.90807112  0.60366471  0.24517536  1
  P  P3  1  0.09192888  0.39633529  0.74517536  1
  P  P4  1  0.77317234  0.41103416  0.73736043  1
  P  P5  1  0.22682766  0.58896584  0.23736043  1
  P  P6  1  0.72682766  0.91103416  0.23736043  1
  P  P7  1  0.27317234  0.08896584  0.73736043  1
  P  P8  1  0.56937842  0.57379516  0.22414810  1
  P  P9  1  0.43062158  0.42620484  0.72414810  1
  P  P10  1  0.93062158  0.07379516  0.72414810  1
  P  P11  1  0.06937842  0.92620484  0.22414810  1
  O  O0  1  0.56162864  0.23922260  0.80703590  1
  O  O1  1  0.43837136  0.76077740  0.30703590  1
  O  O2  1  0.93837136  0.73922260  0.30703590  1
  O  O3  1  0.06162864  0.26077740  0.80703590  1
  O  O4  1  0.74379482  0.28220946  0.84165192  1
  O  O5  1  0.25620618  0.71779054  0.34165192  1
  O  O6  1  0.75620518  0.78220946  0.34165192  1
  O  O7  1  0.24379382  0.21779054  0.84165192  1
  O  O8  1  0.56552501  0.73275532  0.29602086  1
  O  O9  1  0.43447499  0.26724468  0.79602086  1
  O  O10  1  0.93447499  0.23275532  0.79602086  1
  O  O11  1  0.06552501  0.76724468  0.29602086  1
  O  O12  1  0.64829370  0.13213611  0.78666379  1
  O  O13  1  0.35170630  0.86786389  0.28666379  1
  O  O14  1  0.85170630  0.63213611  0.28666379  1
  O  O15  1  0.14829370  0.36786389  0.78666379  1
  O  O16  1  0.82924460  0.37071771  0.73319556  1
  O  O17  1  0.17075540  0.62928229  0.23319556  1
  O  O18  1  0.67075540  0.87071771  0.23319556  1
  O  O19  1  0.32924460  0.12928229  0.73319556  1
  O  O20  1  0.51726033  0.51952271  0.12342727  1
  O  O21  1  0.48273967  0.48047729  0.62342727  1
  O  O22  1  0.98273967  0.01952271  0.62342727  1
  O  O23  1  0.01726033  0.98047729  0.12342727  1
  O  O24  1  0.57435879  0.98094517  0.91787874  1
  O  O25  1  0.42564121  0.01905483  0.41787874  1
  O  O26  1  0.92564121  0.48094517  0.41787874  1
  O  O27  1  0.07435879  0.51905483  0.91787874  1
  O  O28  1  0.76422819  0.54370905  0.90543819  1
  O  O29  1  0.23577181  0.45629095  0.40543819  1
  O  O30  1  0.73577181  0.04370905  0.40543819  1
  O  O31  1  0.26422819  0.95629095  0.90543819  1
  O  O32  1  0.58695490  0.48680969  0.45186840  1
  O  O33  1  0.41304510  0.51319031  0.95186840  1
  O  O34  1  0.91304510  0.98680969  0.95186840  1
  O  O35  1  0.08695490  0.01319031  0.45186840  1
  O  O36  1  0.58273598  0.05993001  0.47043416  1
  O  O37  1  0.41726402  0.94006999  0.97043416  1
  O  O38  1  0.91726402  0.55993001  0.97043416  1
  O  O39  1  0.08273598  0.44006999  0.47043416  1
  O  O40  1  0.75497899  0.44696405  0.46921369  1
  O  O41  1  0.24502101  0.55303595  0.96921369  1
  O  O42  1  0.74502101  0.94696405  0.96921369  1
  O  O43  1  0.25497899  0.05303595  0.46921369  1
  O  O44  1  0.60419440  0.54635820  -0.00270084  1
  O  O45  1  0.39580560  0.45364180  0.49729916  1
  O  O46  1  0.89580560  0.04635820  0.49729916  1
  O  O47  1  0.10419440  0.95364180  -0.00270084  1
loop_
_geom_bond_atom_site_label_1
_geom_bond_atom_site_label_2
_geom_bond_distance
_geom_bond_site_symmetry_2
Mg0 O18 1.909061 1_555
Mg0 O24 1.916383 1_554
Mg0 O36 1.921547 1_565
Mg0 O8 1.922533 1_555
Mg1 O19 1.909061 1_555
Mg1 O25 1.916383 1_555
Mg1 O37 1.921547 1_545
Mg1 O9 1.922533 1_555
Mg2 O16 1.909061 1_555
Mg2 O26 1.916383 1_555
Mg2 O38 1.921547 1_555
Mg2 O10 1.922533 1_555
Mg3 O17 1.909061 1_555
Mg3 O27 1.916383 1_554
Mg3 O39 1.921547 1_555
Mg3 O11 1.922533 1_555
Mg4 O14 1.905060 1_555
Mg4 O6 1.924503 1_555
Mg4 O28 1.926912 1_554
Mg4 O40 1.942850 1_555
Mg5 O15 1.905060 1_555
Mg5 O7 1.924494 1_555
Mg5 O29 1.926912 1_555
Mg5 O41 1.942850 1_555
Mg6 O12 1.905060 1_555
Mg6 O4 1.924503 1_555
Mg6 O30 1.926912 1_555
Mg6 O42 1.942850 1_545
Mg7 O13 1.905060 1_555
Mg7 O5 1.924494 1_555
Mg7 O31 1.926912 1_554
Mg7 O43 1.942850 1_565
Mg8 O0 1.925645 1_555
Mg8 O32 1.967964 1_555
Mg8 O21 2.022587 1_555
Mg8 O44 2.061137 1_556
Mg8 O20 2.202376 1_556
Mg9 O1 1.925645 1_555
Mg9 O33 1.967964 1_554
Mg9 O20 2.022587 1_555
Mg9 O45 2.061137 1_555
Mg9 O21 2.202376 1_555
Mg10 O2 1.925645 1_555
Mg10 O34 1.967964 1_554
Mg10 O23 2.022587 1_655
Mg10 O46 2.061137 1_565
Mg10 O22 2.202376 1_565
Mg11 O3 1.925645 1_555
Mg11 O35 1.967964 1_555
Mg11 O22 2.022587 1_455
Mg11 O47 2.061137 1_546
Mg11 O23 2.202376 1_546
O0 P0 1.526684 1_555
O0 Rb0 2.877575 1_556
O0 Rb0 3.365334 1_555
O1 P1 1.526684 1_555
O1 Rb1 2.877574 1_555
O1 Rb1 3.365333 1_554
O2 P2 1.526684 1_555
O2 Rb2 2.877574 1_555
O2 Rb2 3.365333 1_554
O3 P3 1.526684 1_555
O3 Rb3 2.877575 1_556
O3 Rb3 3.365334 1_555
O4 P4 1.529042 1_555
O4 Rb4 3.004268 1_556
O4 Rb10 3.038573 1_556
O5 P5 1.529055 1_555
O5 Rb5 3.004249 1_555
O5 Rb11 3.038592 1_555
O6 P6 1.529042 1_555
O6 Rb6 3.004268 1_555
O6 Rb8 3.038573 1_555
O7 P7 1.529055 1_555
O7 Rb7 3.004249 1_556
O7 Rb9 3.038592 1_556
O8 P8 1.526307 1_555
O8 Rb1 3.052567 1_555
O8 Rb1 3.426637 1_554
O9 P9 1.526307 1_555
O9 Rb0 3.052568 1_556
O9 Rb0 3.426638 1_555
O10 P10 1.526307 1_555
O10 Rb3 3.052568 1_656
O10 Rb3 3.426638 1_655
O11 P11 1.526307 1_555
O11 Rb2 3.052567 1_455
O11 Rb2 3.426637 1_454
O12 P0 1.529848 1_555
O12 Rb4 2.943337 1_556
O12 Rb4 3.322801 1_555
O13 P1 1.529848 1_555
O13 Rb5 2.943337 1_555
O13 Rb5 3.322801 1_554
O14 P2 1.529848 1_555
O14 Rb6 2.943337 1_555
O14 Rb6 3.322801 1_554
O15 P3 1.529848 1_555
O15 Rb7 2.943337 1_556
O15 Rb7 3.322801 1_555
O16 P4 1.529527 1_555
O16 Rb10 3.030558 1_556
O16 Rb10 3.227739 1_555
O17 P5 1.529527 1_555
O17 Rb11 3.030558 1_555
O17 Rb11 3.227739 1_554
O18 P6 1.529527 1_555
O18 Rb8 3.030558 1_555
O18 Rb8 3.227739 1_554
O19 P7 1.529527 1_555
O19 Rb9 3.030558 1_556
O19 Rb9 3.227739 1_555
O20 P8 1.561864 1_555
O20 Rb0 3.025476 1_555
O20 Rb1 3.258446 1_554
O21 P9 1.561864 1_555
O21 Rb1 3.025467 1_555
O21 Rb0 3.258453 1_555
O22 P10 1.561864 1_555
O22 Rb2 3.025467 1_545
O22 Rb3 3.258453 1_655
O23 P11 1.561864 1_555
O23 Rb3 3.025476 1_565
O23 Rb2 3.258446 1_454
O24 P0 1.533825 1_565
O24 Rb1 2.778849 1_555
O24 Rb0 3.355641 1_566
O25 P1 1.533825 1_545
O25 Rb0 2.778843 1_555
O25 Rb1 3.355647 1_545
O26 P2 1.533825 1_555
O26 Rb3 2.778843 1_655
O26 Rb2 3.355647 1_555
O27 P3 1.533825 1_555
O27 Rb2 2.778849 1_455
O27 Rb3 3.355641 1_556
O28 P4 1.538470 1_555
O28 Rb8 2.936560 1_555
O28 Rb6 3.187162 1_555
O29 P5 1.538470 1_555
O29 Rb9 2.936560 1_555
O29 Rb7 3.187162 1_555
O30 P6 1.538470 1_545
O30 Rb10 2.936560 1_555
O30 Rb4 3.187162 1_555
O31 P7 1.538470 1_565
O31 Rb11 2.936560 1_555
O31 Rb5 3.187162 1_555
O32 P8 1.526286 1_555
O32 Rb4 2.873790 1_555
O32 Rb8 3.298972 1_555
O33 P9 1.526286 1_555
O33 Rb5 2.873790 1_555
O33 Rb9 3.298972 1_556
O34 P10 1.526286 1_565
O34 Rb6 2.873790 1_555
O34 Rb10 3.298972 1_566
O35 P11 1.526286 1_545
O35 Rb7 2.873790 1_555
O35 Rb11 3.298972 1_545
O36 P0 1.533828 1_555
O36 Rb0 2.796718 1_555
O36 Rb4 3.357513 1_555
O37 P1 1.533828 1_556
O37 Rb1 2.796723 1_555
O37 Rb5 3.357513 1_555
O38 P2 1.533828 1_556
O38 Rb2 2.796723 1_555
O38 Rb6 3.357513 1_555
O39 P3 1.533828 1_555
O39 Rb3 2.796718 1_555
O39 Rb7 3.357513 1_555
O40 P4 1.539668 1_555
O40 Rb4 2.981951 1_555
O40 Rb10 3.306731 1_555
O40 Rb8 3.375564 1_555
O41 P5 1.539668 1_556
O41 Rb5 2.981951 1_555
O41 Rb11 3.306731 1_555
O41 Rb9 3.375564 1_556
O42 P6 1.539668 1_556
O42 Rb6 2.981951 1_555
O42 Rb8 3.306731 1_555
O42 Rb10 3.375564 1_566
O43 P7 1.539668 1_555
O43 Rb7 2.981951 1_555
O43 Rb9 3.306731 1_555
O43 Rb11 3.375564 1_545
O44 P8 1.537543 1_555
O44 Rb8 2.754690 1_554
O44 Rb4 3.045817 1_555
O45 P9 1.537543 1_555
O45 Rb9 2.754690 1_555
O45 Rb5 3.045817 1_555
O46 P10 1.537543 1_555
O46 Rb10 2.754690 1_555
O46 Rb6 3.045817 1_545
O47 P11 1.537543 1_555
O47 Rb11 2.754690 1_554
O47 Rb7 3.045817 1_565
