# generated using pymatgen
data_Li4MnCo2O7
_symmetry_space_group_name_H-M   'P 1'
_cell_length_a   4.97866900
_cell_length_b   5.10145765
_cell_length_c   10.61728142
_cell_angle_alpha   85.69727828
_cell_angle_beta   76.66799547
_cell_angle_gamma   71.66087789
_symmetry_Int_Tables_number   1
_chemical_formula_structural   Li4MnCo2O7
_chemical_formula_sum   'Li8 Mn2 Co4 O14'
_cell_volume   249.06761682
_cell_formula_units_Z   2
loop_
 _symmetry_equiv_pos_site_id
 _symmetry_equiv_pos_as_xyz
  1  'x, y, z'
loop_
 _atom_site_type_symbol
 _atom_site_label
 _atom_site_symmetry_multiplicity
 _atom_site_fract_x
 _atom_site_fract_y
 _atom_site_fract_z
 _atom_site_occupancy
  Li  Li0  1  0.07549300  0.49781500  0.85497400  1
  Li  Li1  1  0.64590300  0.50009500  0.71099400  1
  Li  Li2  1  0.22058200  0.50143900  0.55825300  1
  Li  Li3  1  0.78904700  0.50083200  0.42091100  1
  Li  Li4  1  0.34405200  0.50093600  0.30112200  1
  Li  Li5  1  0.92362700  0.50157900  0.14874700  1
  Li  Li6  1  0.49861500  0.49894900  0.00223800  1
  Li  Li7  1  0.28285300  0.00245100  0.42993500  1
  Mn  Mn0  1  0.00156700  0.99807400  0.99874000  1
  Mn  Mn1  1  0.14444300  0.99905100  0.71406800  1
  Co  Co0  1  0.57386200  0.99739400  0.85693600  1
  Co  Co1  1  0.71756600  0.00098200  0.56532000  1
  Co  Co2  1  0.85675300  0.00927400  0.29262100  1
  Co  Co3  1  0.43089900  0.99394200  0.15070900  1
  O  O0  1  0.75118800  0.77912200  0.99081300  1
  O  O1  1  0.31208200  0.78134300  0.85831800  1
  O  O2  1  0.88555000  0.77964900  0.72405100  1
  O  O3  1  0.44772300  0.77570400  0.58884400  1
  O  O4  1  0.00749900  0.76035000  0.42992300  1
  O  O5  1  0.60465900  0.77449700  0.27512300  1
  O  O6  1  0.16804400  0.77096000  0.12905200  1
  O  O7  1  0.39277500  0.21822800  0.72422900  1
  O  O8  1  0.96328700  0.22436900  0.58899400  1
  O  O9  1  0.55610300  0.24354800  0.43038100  1
  O  O10  1  0.10550100  0.23448900  0.27713900  1
  O  O11  1  0.70185700  0.22823800  0.12720700  1
  O  O12  1  0.26503000  0.21167200  0.99273000  1
  O  O13  1  0.83344300  0.21501800  0.85762500  1
loop_
_geom_bond_atom_site_label_1
_geom_bond_atom_site_label_2
_geom_bond_distance
_geom_bond_site_symmetry_2
Li0 O7 2.079565 1_555
Li0 O2 2.084329 1_455
Li0 O0 2.127201 1_455
Li0 O1 2.140072 1_555
Li0 O13 2.146310 1_455
Li0 O12 2.147052 1_555
Li1 O3 2.018881 1_555
Li1 O8 2.020893 1_555
Li1 O2 2.157155 1_555
Li1 O7 2.168861 1_555
Li1 O13 2.210579 1_555
Li1 O1 2.214655 1_555
Li2 O9 2.050272 1_555
Li2 O4 2.059439 1_555
Li2 O3 2.138976 1_555
Li2 O8 2.150040 1_455
Li2 O2 2.329451 1_455
Li2 O7 2.337311 1_555
Li3 O4 1.979367 1_655
Li3 O9 1.990518 1_555
Li3 O10 2.124499 1_655
Li3 O5 2.170779 1_555
Li3 O8 2.343669 1_555
Li3 O3 2.347639 1_555
Li4 O9 2.060965 1_555
Li4 O4 2.061176 1_555
Li4 O10 2.128448 1_555
Li4 O5 2.150277 1_555
Li4 O6 2.367305 1_555
Li4 O11 2.413964 1_555
Li5 O10 2.012178 1_655
Li5 O5 2.041309 1_555
Li5 O6 2.074821 1_655
Li5 O11 2.085426 1_555
Li5 O0 2.257488 1_554
Li5 O12 2.303801 1_654
Li6 O11 2.038737 1_555
Li6 O6 2.065994 1_555
Li6 O12 2.158530 1_554
Li6 O0 2.161823 1_554
Li6 O1 2.180593 1_554
Li6 O13 2.206404 1_554
Li7 O9 2.102456 1_555
Li7 O4 2.114314 1_545
Li7 O5 2.126220 1_545
Li7 O10 2.127767 1_555
Li7 O8 2.139912 1_455
Li7 O3 2.146334 1_545
Mn0 O6 1.904630 1_556
Mn0 O11 1.914360 1_466
Mn0 O0 1.935793 1_455
Mn0 O12 1.939685 1_565
Mn0 O13 1.979107 1_465
Mn0 O1 1.985941 1_555
Mn1 O3 1.888025 1_555
Mn1 O8 1.889198 1_465
Mn1 O7 1.933899 1_565
Mn1 O2 1.937115 1_455
Mn1 O13 2.006117 1_465
Mn1 O1 2.006657 1_555
Co0 O0 1.939676 1_555
Co0 O2 1.942490 1_555
Co0 O7 1.943132 1_565
Co0 O12 1.947868 1_565
Co0 O1 1.950985 1_555
Co0 O13 1.952249 1_565
Co1 O4 1.962102 1_645
Co1 O9 1.967030 1_555
Co1 O8 1.980047 1_555
Co1 O3 1.990427 1_545
Co1 O7 2.141085 1_555
Co1 O2 2.141222 1_545
Co2 O10 1.911525 1_655
Co2 O4 1.981923 1_645
Co2 O9 1.983697 1_555
Co2 O5 2.032523 1_545
Co2 O11 2.171417 1_555
Co2 O6 2.187647 1_645
Co3 O5 1.855318 1_555
Co3 O10 1.981296 1_565
Co3 O11 2.031103 1_565
Co3 O6 2.043104 1_555
Co3 O12 2.123935 1_564
Co3 O0 2.134672 1_554
