# generated using pymatgen
data_Li9Mn2Co5O16
_symmetry_space_group_name_H-M   'P 1'
_cell_length_a   5.13835000
_cell_length_b   5.88896088
_cell_length_c   10.08968580
_cell_angle_alpha   90.16147236
_cell_angle_beta   99.91151994
_cell_angle_gamma   106.42649476
_symmetry_Int_Tables_number   1
_chemical_formula_structural   Li9Mn2Co5O16
_chemical_formula_sum   'Li9 Mn2 Co5 O16'
_cell_volume   288.04802430
_cell_formula_units_Z   1
loop_
 _symmetry_equiv_pos_site_id
 _symmetry_equiv_pos_as_xyz
  1  'x, y, z'
loop_
 _atom_site_type_symbol
 _atom_site_label
 _atom_site_symmetry_multiplicity
 _atom_site_fract_x
 _atom_site_fract_y
 _atom_site_fract_z
 _atom_site_occupancy
  Li  Li0  1  0.50226500  0.12392800  0.87681000  1
  Li  Li1  1  0.50069400  0.62591600  0.87408100  1
  Li  Li2  1  0.49593500  0.37340100  0.62454700  1
  Li  Li3  1  0.49952600  0.87420800  0.62403700  1
  Li  Li4  1  0.49794900  0.62551600  0.36991100  1
  Li  Li5  1  0.49791800  0.12921700  0.37055900  1
  Li  Li6  1  0.50465200  0.88173200  0.12760500  1
  Li  Li7  1  0.50158900  0.36737200  0.13162800  1
  Li  Li8  1  0.99894200  0.24846800  0.25046200  1
  Mn  Mn0  1  0.99534400  0.00047200  0.00160700  1
  Mn  Mn1  1  0.00185000  0.00659800  0.49729000  1
  Co  Co0  1  0.00709600  0.49414300  0.01264900  1
  Co  Co1  1  0.99791100  0.25194800  0.75083900  1
  Co  Co2  1  0.00061800  0.74561200  0.74934100  1
  Co  Co3  1  0.99899900  0.49532900  0.49089500  1
  Co  Co4  1  0.99899500  0.75740300  0.25018000  1
  O  O0  1  0.21532000  0.81259400  0.93156000  1
  O  O1  1  0.22657800  0.28974300  0.94069200  1
  O  O2  1  0.22311000  0.06397300  0.68227600  1
  O  O3  1  0.22965300  0.55781400  0.68304100  1
  O  O4  1  0.23102500  0.29511700  0.44473000  1
  O  O5  1  0.22846000  0.82152100  0.43964300  1
  O  O6  1  0.23473100  0.56933600  0.17932600  1
  O  O7  1  0.22560500  0.04293000  0.17662200  1
  O  O8  1  0.77497200  0.43346400  0.81284900  1
  O  O9  1  0.76997300  0.94084300  0.82033800  1
  O  O10  1  0.78150900  0.70973800  0.56739900  1
  O  O11  1  0.77572200  0.18400500  0.56001200  1
  O  O12  1  0.77184600  0.93587600  0.32483200  1
  O  O13  1  0.77108000  0.45841500  0.31918500  1
  O  O14  1  0.77097600  0.17977300  0.05569300  1
  O  O15  1  0.76915800  0.70359200  0.05936400  1
loop_
_geom_bond_atom_site_label_1
_geom_bond_atom_site_label_2
_geom_bond_distance
_geom_bond_site_symmetry_2
Li0 O14 2.038157 1_556
Li0 O1 2.113941 1_555
Li0 O9 2.117666 1_545
Li0 O8 2.139180 1_555
Li0 O0 2.144243 1_545
Li0 O2 2.185207 1_555
Li1 O15 2.087467 1_556
Li1 O9 2.112032 1_555
Li1 O3 2.138095 1_555
Li1 O8 2.202622 1_555
Li1 O0 2.212677 1_555
Li1 O1 2.260788 1_555
Li2 O4 2.036484 1_555
Li2 O2 2.113596 1_555
Li2 O3 2.124759 1_555
Li2 O8 2.135914 1_555
Li2 O11 2.227069 1_555
Li2 O10 2.250042 1_555
Li3 O5 2.087554 1_555
Li3 O10 2.107057 1_555
Li3 O3 2.139663 1_555
Li3 O11 2.148881 1_565
Li3 O9 2.178910 1_555
Li3 O2 2.189237 1_565
Li4 O13 2.055597 1_555
Li4 O12 2.073240 1_555
Li4 O6 2.117651 1_555
Li4 O10 2.219372 1_555
Li4 O5 2.231504 1_555
Li4 O4 2.256593 1_555
Li5 O4 2.121836 1_555
Li5 O11 2.142976 1_555
Li5 O5 2.146321 1_545
Li5 O12 2.148804 1_545
Li5 O7 2.166728 1_555
Li5 O13 2.171234 1_555
Li6 O7 2.052543 1_565
Li6 O6 2.095685 1_555
Li6 O14 2.114303 1_565
Li6 O15 2.132203 1_555
Li6 O12 2.180564 1_555
Li6 O0 2.220223 1_554
Li7 O13 2.111488 1_555
Li7 O7 2.135819 1_555
Li7 O1 2.147020 1_554
Li7 O6 2.161646 1_555
Li7 O14 2.224573 1_555
Li7 O15 2.270648 1_555
Li8 O14 2.081507 1_555
Li8 O4 2.084846 1_655
Li8 O12 2.099461 1_545
Li8 O7 2.113654 1_655
Li8 O13 2.115093 1_555
Li8 O6 2.136766 1_655
Mn0 O14 1.908840 1_555
Mn0 O7 1.921342 1_655
Mn0 O1 1.950376 1_654
Mn0 O15 1.958741 1_545
Mn0 O9 1.961293 1_544
Mn0 O0 1.994777 1_644
Mn1 O12 1.899357 1_445
Mn1 O4 1.908733 1_555
Mn1 O11 1.943711 1_455
Mn1 O5 1.956881 1_545
Mn1 O2 1.984704 1_555
Mn1 O10 2.000420 1_445
Co0 O6 1.848807 1_555
Co0 O14 2.000893 1_455
Co0 O15 2.070336 1_455
Co0 O1 2.071860 1_554
Co0 O0 2.122793 1_554
Co0 O8 2.131051 1_454
Co1 O8 1.944700 1_555
Co1 O2 2.009645 1_655
Co1 O11 2.037452 1_555
Co1 O1 2.043116 1_655
Co1 O3 2.050514 1_655
Co1 O9 2.072776 1_545
Co2 O0 1.950493 1_555
Co2 O10 1.958039 1_455
Co2 O3 2.014582 1_555
Co2 O8 2.047188 1_455
Co2 O9 2.073101 1_455
Co2 O2 2.083518 1_565
Co3 O13 1.890968 1_555
Co3 O4 2.002899 1_655
Co3 O11 2.063214 1_555
Co3 O3 2.063230 1_655
Co3 O5 2.069323 1_655
Co3 O10 2.128033 1_555
Co4 O7 1.982717 1_665
Co4 O12 2.006550 1_555
Co4 O13 2.019357 1_555
Co4 O5 2.038453 1_655
Co4 O15 2.050362 1_555
Co4 O6 2.063318 1_655
