# generated using pymatgen
data_Mg5Si6
_symmetry_space_group_name_H-M   'P 1'
_cell_length_a   4.06740000
_cell_length_b   6.79879800
_cell_length_c   14.72671463
_cell_angle_alpha   88.57873420
_cell_angle_beta   90.00000000
_cell_angle_gamma   90.00000000
_symmetry_Int_Tables_number   1
_chemical_formula_structural   Mg5Si6
_chemical_formula_sum   'Mg10 Si12'
_cell_volume   407.11889920
_cell_formula_units_Z   2
loop_
 _symmetry_equiv_pos_site_id
 _symmetry_equiv_pos_as_xyz
  1  'x, y, z'
loop_
 _atom_site_type_symbol
 _atom_site_label
 _atom_site_symmetry_multiplicity
 _atom_site_fract_x
 _atom_site_fract_y
 _atom_site_fract_z
 _atom_site_occupancy
  Mg  Mg0  1  0.00000000  0.00000000  0.00000000  1
  Mg  Mg1  1  0.00000000  0.50000000  0.50000000  1
  Mg  Mg2  1  0.50000000  0.32855300  0.64496700  1
  Mg  Mg3  1  0.50000000  0.67144700  0.35503300  1
  Mg  Mg4  1  0.50000000  0.68336700  0.05623000  1
  Mg  Mg5  1  0.50000000  0.31663300  0.94377000  1
  Mg  Mg6  1  0.50000000  0.80716600  0.57630600  1
  Mg  Mg7  1  0.50000000  0.19283400  0.42369400  1
  Mg  Mg8  1  0.50000000  0.31245200  0.19093500  1
  Mg  Mg9  1  0.50000000  0.68754800  0.80906500  1
  Si  Si0  1  0.00000000  0.38512100  0.06475800  1
  Si  Si1  1  0.00000000  0.61487900  0.93524200  1
  Si  Si2  1  0.00000000  0.89052500  0.43653500  1
  Si  Si3  1  0.00000000  0.10947500  0.56346500  1
  Si  Si4  1  0.50000000  0.08916600  0.79761100  1
  Si  Si5  1  0.50000000  0.91083400  0.20238900  1
  Si  Si6  1  0.00000000  0.39342900  0.31784000  1
  Si  Si7  1  0.00000000  0.60657100  0.68216000  1
  Si  Si8  1  0.00000000  0.36861700  0.80618600  1
  Si  Si9  1  0.00000000  0.63138300  0.19381400  1
  Si  Si10  1  0.00000000  0.04270600  0.28093400  1
  Si  Si11  1  0.00000000  0.95729400  0.71906600  1
loop_
_geom_bond_atom_site_label_1
_geom_bond_atom_site_label_2
_geom_bond_distance
_geom_bond_site_symmetry_2
Mg0 Si0 2.808767 1_555
Mg0 Si1 2.808767 1_544
Mg1 Si2 2.792847 1_555
Mg1 Si3 2.792847 1_555
Mg1 Si6 2.796040 1_555
Mg1 Si7 2.796040 1_555
Mg2 Si4 2.742383 1_555
Mg2 Si3 2.807801 1_555
Mg2 Si3 2.807801 1_655
Mg2 Si7 2.839034 1_555
Mg2 Si7 2.839034 1_655
Mg2 Si8 3.143113 1_655
Mg2 Si8 3.143113 1_555
Mg3 Si5 2.742383 1_555
Mg3 Si2 2.807801 1_655
Mg3 Si2 2.807801 1_555
Mg3 Si6 2.839034 1_555
Mg3 Si6 2.839034 1_655
Mg3 Si9 3.143113 1_555
Mg3 Si9 3.143113 1_655
Mg4 Si5 2.681381 1_555
Mg4 Si1 2.751102 1_554
Mg4 Si1 2.751102 1_654
Mg4 Si0 2.872403 1_555
Mg4 Si0 2.872403 1_655
Mg4 Si9 2.886287 1_655
Mg4 Si9 2.886287 1_555
Mg5 Si4 2.681381 1_555
Mg5 Si0 2.751102 1_556
Mg5 Si0 2.751102 1_656
Mg5 Si1 2.872403 1_655
Mg5 Si1 2.872403 1_555
Mg5 Si8 2.886287 1_555
Mg5 Si8 2.886287 1_655
Mg6 Si7 2.884536 1_555
Mg6 Si7 2.884536 1_655
Mg6 Si3 2.894275 1_565
Mg6 Si3 2.894275 1_665
Mg6 Si2 2.938731 1_555
Mg6 Si2 2.938731 1_655
Mg6 Si11 3.115160 1_655
Mg6 Si11 3.115160 1_555
Mg7 Si6 2.884536 1_655
Mg7 Si6 2.884536 1_555
Mg7 Si2 2.894275 1_645
Mg7 Si2 2.894275 1_545
Mg7 Si3 2.938731 1_655
Mg7 Si3 2.938731 1_555
Mg7 Si10 3.115160 1_555
Mg7 Si10 3.115160 1_655
Mg8 Si5 2.731546 1_545
Mg8 Si0 2.790573 1_655
Mg8 Si0 2.790573 1_555
Mg8 Si6 2.825392 1_555
Mg8 Si6 2.825392 1_655
Mg8 Si9 2.973890 1_655
Mg8 Si9 2.973890 1_555
Mg8 Si10 3.022480 1_655
Mg8 Si10 3.022480 1_555
Mg9 Si4 2.731546 1_565
Mg9 Si1 2.790573 1_555
Mg9 Si1 2.790573 1_655
Mg9 Si7 2.825392 1_555
Mg9 Si7 2.825392 1_655
Mg9 Si8 2.973890 1_655
Mg9 Si8 2.973890 1_555
Mg9 Si11 3.022480 1_555
Mg9 Si11 3.022480 1_655
Si0 Si1 2.435212 1_554
Si0 Si9 2.563836 1_555
Si1 Si8 2.563836 1_555
Si2 Si3 2.418283 1_565
Si4 Si8 2.788104 1_655
Si4 Si8 2.788104 1_555
Si5 Si9 2.788104 1_655
Si5 Si9 2.788104 1_555
Si6 Si9 2.409727 1_555
Si7 Si8 2.409727 1_555
Si10 Si6 2.458760 1_555
Si10 Si2 2.490747 1_545
Si10 Si5 2.515790 1_445
Si10 Si5 2.515790 1_545
Si11 Si7 2.458760 1_555
Si11 Si3 2.490747 1_565
Si11 Si4 2.515790 1_465
Si11 Si4 2.515790 1_565
