# generated using pymatgen
data_Fe5(O4F)2
_symmetry_space_group_name_H-M   'P 1'
_cell_length_a   4.64880900
_cell_length_b   5.54928732
_cell_length_c   12.95903136
_cell_angle_alpha   102.19831047
_cell_angle_beta   90.42237072
_cell_angle_gamma   91.30725478
_symmetry_Int_Tables_number   1
_chemical_formula_structural   Fe5(O4F)2
_chemical_formula_sum   'Fe10 O16 F4'
_cell_volume   326.65308538
_cell_formula_units_Z   2
loop_
 _symmetry_equiv_pos_site_id
 _symmetry_equiv_pos_as_xyz
  1  'x, y, z'
loop_
 _atom_site_type_symbol
 _atom_site_label
 _atom_site_symmetry_multiplicity
 _atom_site_fract_x
 _atom_site_fract_y
 _atom_site_fract_z
 _atom_site_occupancy
  Fe  Fe0  1  0.49093600  0.51545300  0.00690600  1
  Fe  Fe1  1  0.48225200  0.89662700  0.59381600  1
  Fe  Fe2  1  0.49255300  0.68613400  0.80219200  1
  Fe  Fe3  1  0.51325000  0.09040900  0.39555100  1
  Fe  Fe4  1  0.51872000  0.28435900  0.19559900  1
  Fe  Fe5  1  0.98296500  0.40692000  0.60676400  1
  Fe  Fe6  1  0.99549800  0.80967400  0.19842700  1
  Fe  Fe7  1  0.02779800  0.20487800  0.79787900  1
  Fe  Fe8  1  0.97334700  0.61667600  0.40439200  1
  Fe  Fe9  1  0.01576100  0.98770800  0.99778600  1
  O  O0  1  0.80107200  0.45410800  0.74482600  1
  O  O1  1  0.81552300  0.05471700  0.13304600  1
  O  O2  1  0.81004100  0.85167200  0.33139200  1
  O  O3  1  0.80243900  0.65811700  0.54288500  1
  O  O4  1  0.69316800  0.75395600  0.94173000  1
  O  O5  1  0.69221400  0.15321500  0.53417700  1
  O  O6  1  0.69154700  0.35376600  0.33778200  1
  O  O7  1  0.69575500  0.55235400  0.13877100  1
  O  O8  1  0.30554500  0.64743400  0.66260200  1
  O  O9  1  0.31070600  0.04478300  0.26090400  1
  O  O10  1  0.30468900  0.44574600  0.87192600  1
  O  O11  1  0.31384400  0.24569400  0.06017100  1
  O  O12  1  0.30311000  0.84533100  0.45346000  1
  O  O13  1  0.19326800  0.94261200  0.86071100  1
  O  O14  1  0.19482000  0.74648300  0.06729400  1
  O  O15  1  0.19330000  0.14847500  0.65904600  1
  F  F0  1  0.80387600  0.25360500  0.93840600  1
  F  F1  1  0.69414400  0.96288600  0.74213000  1
  F  F2  1  0.19318200  0.35032400  0.45979000  1
  F  F3  1  0.19467500  0.53588700  0.25964100  1
loop_
_geom_bond_atom_site_label_1
_geom_bond_atom_site_label_2
_geom_bond_distance
_geom_bond_site_symmetry_2
Fe0 O10 1.906692 1_554
Fe0 O7 1.920399 1_555
Fe0 O4 1.943266 1_554
Fe0 O11 1.945241 1_555
Fe0 O14 1.955374 1_555
Fe1 O12 1.957281 1_555
Fe1 O8 1.965084 1_555
Fe1 O5 1.997556 1_565
Fe1 O15 2.018748 1_565
Fe1 O3 2.034267 1_555
Fe2 O10 1.956220 1_555
Fe2 O8 1.969351 1_555
Fe2 O4 1.988169 1_555
Fe2 O0 1.990742 1_555
Fe2 O13 2.046057 1_555
Fe3 O5 1.934180 1_555
Fe3 O12 1.936134 1_545
Fe3 O9 1.942564 1_555
Fe3 O6 1.949235 1_555
Fe3 O2 1.996223 1_545
Fe4 O11 1.959627 1_555
Fe4 O1 1.960879 1_555
Fe4 O7 1.961452 1_555
Fe4 O9 1.961557 1_555
Fe4 O6 1.962911 1_555
Fe5 O0 1.954243 1_555
Fe5 O3 1.965577 1_555
Fe5 O15 1.984158 1_655
Fe5 O5 2.007159 1_555
Fe5 O8 2.009568 1_655
Fe6 O2 1.904746 1_555
Fe6 O14 1.911963 1_655
Fe6 O1 1.948160 1_565
Fe6 O9 1.988425 1_665
Fe6 O7 2.001299 1_555
Fe7 O15 1.928797 1_555
Fe7 O10 1.930179 1_555
Fe7 O13 1.978765 1_545
Fe7 O0 1.988489 1_455
Fe8 O2 1.930744 1_555
Fe8 O3 1.939114 1_555
Fe8 O12 1.979996 1_655
Fe8 O6 1.988415 1_555
Fe9 O13 1.934477 1_555
Fe9 O1 1.960010 1_466
Fe9 O14 1.961003 1_556
Fe9 O4 1.989048 1_455
Fe9 O11 2.006809 1_566
F0 Fe9 2.067505 1_645
F0 Fe7 2.075046 1_655
F0 Fe0 2.141553 1_556
F1 Fe7 2.051735 1_665
F1 Fe2 2.071939 1_555
F1 Fe1 2.111050 1_555
F2 Fe8 2.061797 1_455
F2 Fe5 2.114234 1_455
F2 Fe3 2.143850 1_555
F3 Fe6 2.087503 1_455
F3 Fe8 2.114832 1_455
F3 Fe4 2.128657 1_555
