# generated using pymatgen
data_Mg2Sc3MoS8
_symmetry_space_group_name_H-M   'P 1'
_cell_length_a   7.55425124
_cell_length_b   7.49576619
_cell_length_c   7.55440315
_cell_angle_alpha   59.74261943
_cell_angle_beta   59.99948748
_cell_angle_gamma   59.74256821
_symmetry_Int_Tables_number   1
_chemical_formula_structural   Mg2Sc3MoS8
_chemical_formula_sum   'Mg2 Sc3 Mo1 S8'
_cell_volume   301.29382978
_cell_formula_units_Z   1
loop_
 _symmetry_equiv_pos_site_id
 _symmetry_equiv_pos_as_xyz
  1  'x, y, z'
loop_
 _atom_site_type_symbol
 _atom_site_label
 _atom_site_symmetry_multiplicity
 _atom_site_fract_x
 _atom_site_fract_y
 _atom_site_fract_z
 _atom_site_occupancy
  Mg  Mg0  1  0.87463914  0.87606727  0.87465676  1
  Mg  Mg1  1  0.12538949  0.12385983  0.12537149  1
  Sc  Sc0  1  0.49997267  0.50007162  0.49998294  1
  Sc  Sc1  1  0.49995601  0.50000540  -0.00000580  1
  Sc  Sc2  1  0.00000879  0.49999400  0.49998903  1
  Mo  Mo0  1  0.50001349  0.00000016  0.50000889  1
  S  S0  1  0.73832603  0.74863588  0.73832722  1
  S  S1  1  0.26169092  0.25135994  0.72528395  1
  S  S2  1  0.25818641  0.72544791  0.25818199  1
  S  S3  1  0.72528517  0.25136613  0.26167270  1
  S  S4  1  0.74180364  0.27456153  0.74179661  1
  S  S5  1  0.27470219  0.74864520  0.73833103  1
  S  S6  1  0.26168301  0.25133206  0.26169626  1
  S  S7  1  0.73834702  0.74864808  0.27470791  1
loop_
_geom_bond_atom_site_label_1
_geom_bond_atom_site_label_2
_geom_bond_distance
_geom_bond_site_symmetry_2
Mg0 S4 2.429363 1_565
Mg0 S7 2.464984 1_556
Mg0 S5 2.465007 1_655
Mg0 S0 2.465080 1_555
Mg1 S2 2.428861 1_545
Mg1 S6 2.465176 1_555
Mg1 S1 2.465198 1_554
Mg1 S3 2.465250 1_455
Mo0 S3 2.537000 1_555
Mo0 S1 2.537006 1_555
Mo0 S0 2.537048 1_545
Mo0 S7 2.537099 1_545
Mo0 S6 2.537105 1_555
Mo0 S5 2.537147 1_545
S0 Sc2 2.594752 1_655
S0 Sc1 2.594829 1_556
S1 Sc2 2.594795 1_555
S1 Sc0 2.594800 1_555
S2 Sc0 2.577551 1_555
S2 Sc2 2.577677 1_555
S2 Sc1 2.577702 1_555
S3 Sc0 2.594944 1_555
S3 Sc1 2.594956 1_555
S4 Sc2 2.577720 1_655
S4 Sc1 2.577763 1_556
S4 Sc0 2.577810 1_555
S5 Sc0 2.594440 1_555
S5 Sc1 2.594488 1_556
S6 Sc1 2.594568 1_555
S6 Sc2 2.594619 1_555
S7 Sc0 2.594572 1_555
S7 Sc2 2.594613 1_655
