# generated using pymatgen
data_FeAg
_symmetry_space_group_name_H-M   'P 1'
_cell_length_a   9.81083775
_cell_length_b   9.81083775
_cell_length_c   9.81083717
_cell_angle_alpha   32.60798098
_cell_angle_beta   32.60798098
_cell_angle_gamma   32.60798868
_symmetry_Int_Tables_number   1
_chemical_formula_structural   FeAg
_chemical_formula_sum   'Fe8 Ag8'
_cell_volume   243.88734746
_cell_formula_units_Z   8
loop_
 _symmetry_equiv_pos_site_id
 _symmetry_equiv_pos_as_xyz
  1  'x, y, z'
loop_
 _atom_site_type_symbol
 _atom_site_label
 _atom_site_symmetry_multiplicity
 _atom_site_fract_x
 _atom_site_fract_y
 _atom_site_fract_z
 _atom_site_occupancy
  Fe  Fe0_0  1  0.25000000  0.25000000  0.25000000  1
  Fe  Fe0_1  1  0.25000000  0.25000000  0.75000000  1
  Fe  Fe0_2  1  0.25000000  0.75000000  0.25000000  1
  Fe  Fe0_3  1  0.25000000  0.75000000  0.75000000  1
  Fe  Fe0_4  1  0.75000000  0.25000000  0.25000000  1
  Fe  Fe0_5  1  0.75000000  0.25000000  0.75000000  1
  Fe  Fe0_6  1  0.75000000  0.75000000  0.25000000  1
  Fe  Fe0_7  1  0.75000000  0.75000000  0.75000000  1
  Ag  Ag0_0  1  0.00000000  0.00000000  0.00000000  1
  Ag  Ag0_1  1  0.00000000  0.00000000  0.50000000  1
  Ag  Ag0_2  1  0.00000000  0.50000000  0.00000000  1
  Ag  Ag0_3  1  1.00000000  0.50000000  0.50000000  1
  Ag  Ag0_4  1  0.50000000  0.00000000  0.00000000  1
  Ag  Ag0_5  1  0.50000000  0.00000000  0.50000000  1
  Ag  Ag0_6  1  0.50000000  0.50000000  0.00000000  1
  Ag  Ag0_7  1  0.50000000  0.50000000  0.50000000  1
loop_
_geom_bond_atom_site_label_1
_geom_bond_atom_site_label_2
_geom_bond_distance
_geom_bond_site_symmetry_2
Fe0_0 Fe0_5 2.754231 1_455
Fe0_0 Fe0_3 2.754231 1_545
Fe0_0 Fe0_3 2.754231 1_554
Fe0_0 Fe0_5 2.754231 1_554
Fe0_0 Fe0_6 2.754232 1_545
Fe0_0 Fe0_6 2.754232 1_455
Fe0_1 Fe0_4 2.754231 1_456
Fe0_1 Fe0_4 2.754231 1_555
Fe0_1 Fe0_2 2.754231 1_555
Fe0_1 Fe0_2 2.754231 1_546
Fe0_1 Fe0_7 2.754232 1_545
Fe0_1 Fe0_7 2.754232 1_455
Fe0_2 Fe0_7 2.754231 1_554
Fe0_2 Fe0_7 2.754231 1_455
Fe0_2 Fe0_4 2.754232 1_555
Fe0_2 Fe0_4 2.754232 1_465
Fe0_3 Fe0_6 2.754231 1_555
Fe0_3 Fe0_6 2.754231 1_456
Fe0_3 Fe0_5 2.754232 1_465
Fe0_3 Fe0_5 2.754232 1_555
Fe0_4 Fe0_7 2.754231 1_545
Fe0_4 Fe0_7 2.754231 1_554
Fe0_5 Fe0_6 2.754231 1_555
Fe0_5 Fe0_6 2.754231 1_546
Ag0_0 Ag0_5 2.754231 1_554
Ag0_0 Ag0_3 2.754231 1_445
Ag0_0 Ag0_3 2.754231 1_454
Ag0_0 Ag0_5 2.754231 1_455
Ag0_0 Ag0_6 2.754232 1_545
Ag0_0 Ag0_6 2.754232 1_455
Ag0_0 Fe0_1 2.812869 1_554
Ag0_0 Fe0_6 2.812869 1_445
Ag0_0 Fe0_4 2.812869 1_455
Ag0_0 Fe0_2 2.812869 1_545
Ag0_0 Fe0_5 2.812869 1_454
Ag0_0 Fe0_3 2.812869 1_544
Ag0_1 Ag0_4 2.754231 1_456
Ag0_1 Ag0_2 2.754231 1_555
Ag0_1 Ag0_4 2.754231 1_555
Ag0_1 Ag0_2 2.754231 1_546
Ag0_1 Ag0_7 2.754232 1_545
Ag0_1 Ag0_7 2.754232 1_455
Ag0_1 Fe0_0 2.812869 1_555
Ag0_1 Fe0_7 2.812869 1_445
Ag0_1 Fe0_3 2.812869 1_545
Ag0_1 Fe0_5 2.812869 1_455
Ag0_1 Fe0_2 2.812869 1_545
Ag0_1 Fe0_4 2.812869 1_455
Ag0_2 Ag0_7 2.754231 1_554
Ag0_2 Ag0_7 2.754231 1_455
Ag0_2 Ag0_4 2.754232 1_555
Ag0_2 Ag0_4 2.754232 1_465
Ag0_2 Fe0_3 2.812869 1_554
Ag0_2 Fe0_4 2.812869 1_455
Ag0_2 Fe0_6 2.812869 1_455
Ag0_2 Fe0_0 2.812869 1_555
Ag0_2 Fe0_1 2.812869 1_554
Ag0_2 Fe0_7 2.812869 1_454
Ag0_3 Ag0_6 2.754231 1_556
Ag0_3 Ag0_6 2.754231 1_655
Ag0_3 Ag0_5 2.754232 1_565
Ag0_3 Ag0_5 2.754232 1_655
Ag0_3 Fe0_5 2.812869 1_555
Ag0_3 Fe0_2 2.812869 1_655
Ag0_3 Fe0_0 2.812869 1_655
Ag0_3 Fe0_7 2.812869 1_555
Ag0_3 Fe0_1 2.812869 1_655
Ag0_3 Fe0_6 2.812869 1_555
Ag0_4 Ag0_7 2.754231 1_554
Ag0_4 Ag0_7 2.754231 1_545
Ag0_4 Fe0_2 2.812869 1_545
Ag0_4 Fe0_5 2.812869 1_554
Ag0_4 Fe0_6 2.812869 1_545
Ag0_4 Fe0_0 2.812869 1_555
Ag0_4 Fe0_1 2.812869 1_554
Ag0_4 Fe0_7 2.812869 1_544
Ag0_5 Ag0_6 2.754231 1_546
Ag0_5 Ag0_6 2.754231 1_555
Ag0_5 Fe0_3 2.812869 1_545
Ag0_5 Fe0_4 2.812869 1_555
Ag0_5 Fe0_7 2.812869 1_545
Ag0_5 Fe0_1 2.812869 1_555
Ag0_5 Fe0_0 2.812869 1_555
Ag0_5 Fe0_6 2.812869 1_545
Ag0_6 Fe0_7 2.812869 1_554
Ag0_6 Fe0_0 2.812869 1_555
Ag0_6 Fe0_3 2.812869 1_554
Ag0_6 Fe0_5 2.812869 1_554
Ag0_6 Fe0_2 2.812869 1_555
Ag0_6 Fe0_4 2.812869 1_555
Ag0_7 Fe0_1 2.812869 1_555
Ag0_7 Fe0_6 2.812869 1_555
Ag0_7 Fe0_2 2.812869 1_555
Ag0_7 Fe0_4 2.812869 1_555
Ag0_7 Fe0_3 2.812869 1_555
Ag0_7 Fe0_5 2.812869 1_555
