# generated using pymatgen
data_LiHoW2
_symmetry_space_group_name_H-M   'P 1'
_cell_length_a   3.56801323
_cell_length_b   4.27760000
_cell_length_c   9.70403326
_cell_angle_alpha   90.00000000
_cell_angle_beta   90.10295337
_cell_angle_gamma   90.00000000
_symmetry_Int_Tables_number   1
_chemical_formula_structural   LiHoW2
_chemical_formula_sum   'Li2 Ho2 W4'
_cell_volume   148.10789276
_cell_formula_units_Z   2
loop_
 _symmetry_equiv_pos_site_id
 _symmetry_equiv_pos_as_xyz
  1  'x, y, z'
loop_
 _atom_site_type_symbol
 _atom_site_label
 _atom_site_symmetry_multiplicity
 _atom_site_fract_x
 _atom_site_fract_y
 _atom_site_fract_z
 _atom_site_occupancy
  Li  Li0  1  0.75000000  0.73627800  0.00000000  1
  Li  Li1  1  0.25000000  0.26372200  0.00000000  1
  Ho  Ho0  1  0.75000000  0.74881000  0.50000000  1
  Ho  Ho1  1  0.25000000  0.25119000  0.50000000  1
  W  W0  1  0.75195400  0.27264700  0.76050300  1
  W  W1  1  0.24804600  0.72735300  0.23949700  1
  W  W2  1  0.74804600  0.27264700  0.23949700  1
  W  W3  1  0.25195400  0.72735300  0.76050300  1
loop_
_geom_bond_atom_site_label_1
_geom_bond_atom_site_label_2
_geom_bond_distance
_geom_bond_site_symmetry_2
Li0 Li1 2.696064 1_655
Li0 Li1 2.696064 1_555
Li0 Li1 2.876298 1_565
Li0 Li1 2.876298 1_665
Li0 W1 2.923328 1_655
Li0 W3 2.923328 1_554
Li0 W1 2.936903 1_555
Li0 W3 2.936903 1_654
Li0 W2 3.055271 1_555
Li0 W0 3.055271 1_554
Li0 W2 3.265828 1_565
Li0 W0 3.265828 1_564
Li1 W2 2.923328 1_555
Li1 W0 2.923328 1_454
Li1 W2 2.936903 1_455
Li1 W0 2.936903 1_554
Li1 W1 3.055271 1_555
Li1 W3 3.055271 1_554
Li1 W1 3.265828 1_545
Li1 W3 3.265828 1_544
Ho0 Ho1 2.777355 1_655
Ho0 Ho1 2.777355 1_555
Ho0 Ho1 2.792991 1_565
Ho0 Ho1 2.792991 1_665
Ho0 W3 3.094002 1_555
Ho0 W1 3.094002 1_655
Ho0 W3 3.096803 1_655
Ho0 W1 3.096803 1_555
Ho0 W0 3.246400 1_555
Ho0 W2 3.246400 1_555
Ho0 W0 3.378083 1_565
Ho0 W2 3.378083 1_565
Ho1 W0 3.094002 1_455
Ho1 W2 3.094002 1_555
Ho1 W0 3.096803 1_555
Ho1 W2 3.096803 1_455
Ho1 W3 3.246400 1_555
Ho1 W1 3.246400 1_555
Ho1 W3 3.378083 1_545
Ho1 W1 3.378083 1_545
W0 W3 2.639299 1_555
W0 W3 2.639299 1_655
W0 W3 2.936574 1_645
W0 W3 2.936574 1_545
W1 W2 2.639299 1_555
W1 W2 2.639299 1_455
W1 W2 2.936574 1_565
W1 W2 2.936574 1_465
