# generated using pymatgen
data_Nd23Cd4Ir7
_symmetry_space_group_name_H-M   'P 1'
_cell_length_a   10.05121429
_cell_length_b   10.05121429
_cell_length_c   22.64135400
_cell_angle_alpha   90.00000000
_cell_angle_beta   90.00000000
_cell_angle_gamma   120.00000192
_symmetry_Int_Tables_number   1
_chemical_formula_structural   Nd23Cd4Ir7
_chemical_formula_sum   'Nd46 Cd8 Ir14'
_cell_volume   1980.93434969
_cell_formula_units_Z   2
loop_
 _symmetry_equiv_pos_site_id
 _symmetry_equiv_pos_as_xyz
  1  'x, y, z'
loop_
 _atom_site_type_symbol
 _atom_site_label
 _atom_site_symmetry_multiplicity
 _atom_site_fract_x
 _atom_site_fract_y
 _atom_site_fract_z
 _atom_site_occupancy
  Nd  Nd0  1  0.20635400  0.41270800  0.72037100  1
  Nd  Nd1  1  0.20635400  0.79364600  0.72037100  1
  Nd  Nd2  1  0.79364600  0.58729200  0.22037100  1
  Nd  Nd3  1  0.58729200  0.79364600  0.72037100  1
  Nd  Nd4  1  0.79364600  0.20635400  0.22037100  1
  Nd  Nd5  1  0.41270800  0.20635400  0.22037100  1
  Nd  Nd6  1  0.79359600  0.58719200  0.94649800  1
  Nd  Nd7  1  0.79359600  0.20640400  0.94649800  1
  Nd  Nd8  1  0.20640400  0.41280800  0.44649800  1
  Nd  Nd9  1  0.41280800  0.20640400  0.94649800  1
  Nd  Nd10  1  0.20640400  0.79359600  0.44649800  1
  Nd  Nd11  1  0.58719200  0.79359600  0.44649800  1
  Nd  Nd12  1  0.20849100  0.41698100  0.98967400  1
  Nd  Nd13  1  0.20849100  0.79150900  0.98967400  1
  Nd  Nd14  1  0.79150900  0.58301900  0.48967400  1
  Nd  Nd15  1  0.58301900  0.79150900  0.98967400  1
  Nd  Nd16  1  0.79150900  0.20849100  0.48967400  1
  Nd  Nd17  1  0.41698100  0.20849100  0.48967400  1
  Nd  Nd18  1  0.87263200  0.74526500  0.63601500  1
  Nd  Nd19  1  0.87263200  0.12736800  0.63601500  1
  Nd  Nd20  1  0.12736800  0.25473500  0.13601500  1
  Nd  Nd21  1  0.25473500  0.12736800  0.63601500  1
  Nd  Nd22  1  0.12736800  0.87263200  0.13601500  1
  Nd  Nd23  1  0.74526500  0.87263200  0.13601500  1
  Nd  Nd24  1  0.46035900  0.92071800  0.85586500  1
  Nd  Nd25  1  0.46035900  0.53964100  0.85586500  1
  Nd  Nd26  1  0.53964100  0.07928200  0.35586500  1
  Nd  Nd27  1  0.07928200  0.53964100  0.85586500  1
  Nd  Nd28  1  0.53964100  0.46035900  0.35586500  1
  Nd  Nd29  1  0.92071800  0.46035900  0.35586500  1
  Nd  Nd30  1  0.00000000  0.00000000  0.99782900  1
  Nd  Nd31  1  0.00000000  0.00000000  0.49782900  1
  Nd  Nd32  1  0.46119700  0.92239300  0.58572100  1
  Nd  Nd33  1  0.46119700  0.53880300  0.58572100  1
  Nd  Nd34  1  0.53880300  0.07760700  0.08572100  1
  Nd  Nd35  1  0.07760700  0.53880300  0.58572100  1
  Nd  Nd36  1  0.53880300  0.46119700  0.08572100  1
  Nd  Nd37  1  0.92239300  0.46119700  0.08572100  1
  Nd  Nd38  1  0.79803800  0.59607500  0.78243300  1
  Nd  Nd39  1  0.79803800  0.20196200  0.78243300  1
  Nd  Nd40  1  0.20196200  0.40392500  0.28243300  1
  Nd  Nd41  1  0.40392500  0.20196200  0.78243300  1
  Nd  Nd42  1  0.20196200  0.79803800  0.28243300  1
  Nd  Nd43  1  0.59607500  0.79803800  0.28243300  1
  Nd  Nd44  1  0.66666700  0.33333300  0.64539100  1
  Nd  Nd45  1  0.33333300  0.66666700  0.14539100  1
  Cd  Cd0  1  0.00000000  0.00000000  0.74965200  1
  Cd  Cd1  1  0.00000000  0.00000000  0.24965200  1
  Cd  Cd2  1  0.10694100  0.21388300  0.86348600  1
  Cd  Cd3  1  0.10694100  0.89305900  0.86348600  1
  Cd  Cd4  1  0.89305900  0.78611700  0.36348600  1
  Cd  Cd5  1  0.78611700  0.89305900  0.86348600  1
  Cd  Cd6  1  0.89305900  0.10694100  0.36348600  1
  Cd  Cd7  1  0.21388300  0.10694100  0.36348600  1
  Ir  Ir0  1  0.52066200  0.04132500  0.71019300  1
  Ir  Ir1  1  0.52066200  0.47933800  0.71019300  1
  Ir  Ir2  1  0.47933800  0.95867500  0.21019300  1
  Ir  Ir3  1  0.95867500  0.47933800  0.71019300  1
  Ir  Ir4  1  0.47933800  0.52066200  0.21019300  1
  Ir  Ir5  1  0.04132500  0.52066200  0.21019300  1
  Ir  Ir6  1  0.66666700  0.33333300  0.86389500  1
  Ir  Ir7  1  0.33333300  0.66666700  0.36389500  1
  Ir  Ir8  1  0.14392900  0.28785800  0.56306100  1
  Ir  Ir9  1  0.14392900  0.85607100  0.56306100  1
  Ir  Ir10  1  0.85607100  0.71214200  0.06306100  1
  Ir  Ir11  1  0.71214200  0.85607100  0.56306100  1
  Ir  Ir12  1  0.85607100  0.14392900  0.06306100  1
  Ir  Ir13  1  0.28785800  0.14392900  0.06306100  1
loop_
_geom_bond_atom_site_label_1
_geom_bond_atom_site_label_2
_geom_bond_distance
_geom_bond_site_symmetry_2
Cd0 Cd3 3.179451 1_545
Cd0 Cd2 3.179456 1_555
Cd0 Cd5 3.179456 1_445
Cd0 Nd21 3.396544 1_555
Cd0 Nd18 3.396544 1_445
Cd0 Nd19 3.396550 1_455
Cd0 Nd39 3.593484 1_455
Cd0 Nd38 3.593492 1_445
Cd0 Nd41 3.593492 1_555
Cd0 Nd0 3.653121 1_555
Cd0 Nd3 3.653121 1_445
Cd0 Nd1 3.653121 1_545
Cd1 Cd6 3.179451 1_455
Cd1 Cd7 3.179456 1_555
Cd1 Cd4 3.179456 1_445
Cd1 Nd20 3.396544 1_555
Cd1 Nd23 3.396544 1_445
Cd1 Nd22 3.396550 1_545
Cd1 Nd42 3.593484 1_545
Cd1 Nd43 3.593492 1_445
Cd1 Nd40 3.593492 1_555
Cd1 Nd5 3.653121 1_555
Cd1 Nd2 3.653121 1_445
Cd1 Nd4 3.653121 1_455
Cd2 Cd5 3.224671 1_445
Cd2 Cd3 3.224671 1_545
Cd2 Nd12 3.359801 1_555
Cd2 Nd27 3.426095 1_555
Cd2 Nd25 3.426101 1_555
Cd2 Nd39 3.556712 1_455
Cd2 Nd41 3.556729 1_555
Cd2 Nd30 3.566253 1_555
Cd2 Nd7 3.636037 1_455
Cd2 Nd9 3.636046 1_555
Cd2 Nd0 3.673548 1_555
Cd3 Cd5 3.224671 1_455
Cd3 Nd13 3.359810 1_555
Cd3 Nd24 3.426105 1_555
Cd3 Nd27 3.426105 1_555
Cd3 Nd38 3.556720 1_455
Cd3 Nd41 3.556720 1_565
Cd3 Nd30 3.566249 1_565
Cd3 Nd6 3.636041 1_455
Cd3 Nd9 3.636041 1_565
Cd3 Nd1 3.673552 1_555
Cd4 Cd7 3.224671 1_665
Cd4 Cd6 3.224671 1_565
Cd4 Nd14 3.359801 1_555
Cd4 Nd29 3.426095 1_555
Cd4 Nd28 3.426101 1_555
Cd4 Nd42 3.556712 1_655
Cd4 Nd43 3.556729 1_555
Cd4 Nd31 3.566253 1_665
Cd4 Nd10 3.636037 1_655
Cd4 Nd11 3.636046 1_555
Cd4 Nd2 3.673548 1_555
Cd5 Nd15 3.359801 1_555
Cd5 Nd24 3.426095 1_555
Cd5 Nd25 3.426101 1_555
Cd5 Nd39 3.556712 1_565
Cd5 Nd38 3.556729 1_555
Cd5 Nd30 3.566253 1_665
Cd5 Nd7 3.636037 1_565
Cd5 Nd6 3.636046 1_555
Cd5 Nd3 3.673548 1_555
Cd6 Cd7 3.224671 1_655
Cd6 Nd16 3.359810 1_555
Cd6 Nd29 3.426105 1_555
Cd6 Nd26 3.426105 1_555
Cd6 Nd43 3.556720 1_545
Cd6 Nd40 3.556720 1_655
Cd6 Nd31 3.566249 1_655
Cd6 Nd11 3.636041 1_545
Cd6 Nd8 3.636041 1_655
Cd6 Nd4 3.673552 1_555
Cd7 Nd17 3.359801 1_555
Cd7 Nd26 3.426095 1_555
Cd7 Nd28 3.426101 1_555
Cd7 Nd42 3.556712 1_545
Cd7 Nd40 3.556729 1_555
Cd7 Nd31 3.566253 1_555
Cd7 Nd10 3.636037 1_545
Cd7 Nd8 3.636046 1_555
Cd7 Nd5 3.673548 1_555
Ir0 Nd1 2.892455 1_545
Ir0 Nd3 2.892462 1_545
Ir0 Nd41 2.924616 1_555
Ir0 Nd39 2.924630 1_555
Ir0 Nd44 2.934879 1_555
Ir0 Nd32 3.002347 1_545
Ir0 Nd24 3.461265 1_545
Ir0 Nd19 3.608958 1_555
Ir0 Nd21 3.608958 1_555
Ir1 Nd3 2.892452 1_555
Ir1 Nd0 2.892452 1_555
Ir1 Nd38 2.924631 1_555
Ir1 Nd41 2.924631 1_555
Ir1 Nd44 2.934894 1_555
Ir1 Nd33 3.002341 1_555
Ir1 Nd25 3.461262 1_555
Ir1 Nd18 3.608958 1_555
Ir1 Nd21 3.608958 1_555
Ir2 Nd4 2.892455 1_565
Ir2 Nd5 2.892462 1_565
Ir2 Nd43 2.924616 1_555
Ir2 Nd42 2.924630 1_555
Ir2 Nd45 2.934879 1_555
Ir2 Nd34 3.002347 1_565
Ir2 Nd26 3.461265 1_565
Ir2 Nd22 3.608958 1_555
Ir2 Nd23 3.608958 1_555
Ir3 Nd1 2.892455 1_655
Ir3 Nd0 2.892462 1_655
Ir3 Nd38 2.924616 1_555
Ir3 Nd39 2.924630 1_555
Ir3 Nd44 2.934879 1_555
Ir3 Nd35 3.002347 1_655
Ir3 Nd27 3.461265 1_655
Ir3 Nd19 3.608958 1_555
Ir3 Nd18 3.608958 1_555
Ir4 Nd2 2.892452 1_555
Ir4 Nd5 2.892452 1_555
Ir4 Nd43 2.924631 1_555
Ir4 Nd40 2.924631 1_555
Ir4 Nd45 2.934894 1_555
Ir4 Nd36 3.002341 1_555
Ir4 Nd28 3.461262 1_555
Ir4 Nd23 3.608958 1_555
Ir4 Nd20 3.608958 1_555
Ir5 Nd4 2.892455 1_455
Ir5 Nd2 2.892462 1_455
Ir5 Nd40 2.924616 1_555
Ir5 Nd42 2.924630 1_555
Ir5 Nd45 2.934879 1_555
Ir5 Nd37 3.002347 1_455
Ir5 Nd29 3.461265 1_455
Ir5 Nd22 3.608958 1_555
Ir5 Nd20 3.608958 1_555
Ir6 Nd7 2.894950 1_555
Ir6 Nd6 2.894957 1_555
Ir6 Nd9 2.894957 1_555
Ir6 Nd38 2.938115 1_555
Ir6 Nd41 2.938115 1_555
Ir6 Nd39 2.938115 1_555
Ir6 Nd27 3.596250 1_655
Ir6 Nd24 3.596250 1_545
Ir6 Nd25 3.596259 1_555
Ir7 Nd10 2.894950 1_555
Ir7 Nd11 2.894957 1_555
Ir7 Nd8 2.894957 1_555
Ir7 Nd40 2.938115 1_555
Ir7 Nd43 2.938115 1_555
Ir7 Nd42 2.938115 1_555
Ir7 Nd26 3.596250 1_565
Ir7 Nd29 3.596250 1_455
Ir7 Nd28 3.596259 1_555
Ir8 Nd8 2.854478 1_555
Ir8 Nd21 2.892666 1_555
Ir8 Nd19 2.892672 1_455
Ir8 Nd31 2.908580 1_555
Ir8 Nd35 2.958212 1_555
Ir8 Nd33 2.958218 1_555
Ir8 Nd17 3.622005 1_555
Ir8 Nd16 3.622014 1_455
Ir9 Nd10 2.854478 1_555
Ir9 Nd21 2.892673 1_565
Ir9 Nd18 2.892673 1_455
Ir9 Nd31 2.908580 1_565
Ir9 Nd32 2.958221 1_555
Ir9 Nd35 2.958221 1_555
Ir9 Nd14 3.622011 1_455
Ir9 Nd17 3.622011 1_565
Ir10 Nd6 2.854478 1_554
Ir10 Nd23 2.892666 1_555
Ir10 Nd22 2.892672 1_655
Ir10 Nd30 2.908580 1_664
Ir10 Nd37 2.958212 1_555
Ir10 Nd36 2.958218 1_555
Ir10 Nd15 3.622005 1_554
Ir10 Nd13 3.622014 1_654
Ir11 Nd11 2.854478 1_555
Ir11 Nd18 2.892666 1_555
Ir11 Nd19 2.892672 1_565
Ir11 Nd31 2.908580 1_665
Ir11 Nd32 2.958212 1_555
Ir11 Nd33 2.958218 1_555
Ir11 Nd14 3.622005 1_555
Ir11 Nd16 3.622014 1_565
Ir12 Nd7 2.854478 1_554
Ir12 Nd20 2.892673 1_655
Ir12 Nd23 2.892673 1_545
Ir12 Nd30 2.908580 1_654
Ir12 Nd37 2.958221 1_555
Ir12 Nd34 2.958221 1_555
Ir12 Nd15 3.622011 1_544
Ir12 Nd12 3.622011 1_654
Ir13 Nd9 2.854478 1_554
Ir13 Nd20 2.892666 1_555
Ir13 Nd22 2.892672 1_545
Ir13 Nd30 2.908580 1_554
Ir13 Nd34 2.958212 1_555
Ir13 Nd36 2.958218 1_555
Ir13 Nd12 3.622005 1_554
Ir13 Nd13 3.622014 1_544
