# generated using pymatgen
data_VTeH11(NO4)2
_symmetry_space_group_name_H-M   'P 1'
_cell_length_a   7.48318600
_cell_length_b   17.11763400
_cell_length_c   7.62104483
_cell_angle_alpha   90.00000000
_cell_angle_beta   120.20517100
_cell_angle_gamma   90.00000000
_symmetry_Int_Tables_number   1
_chemical_formula_structural   VTeH11(NO4)2
_chemical_formula_sum   'V4 Te4 H44 N8 O32'
_cell_volume   843.67237518
_cell_formula_units_Z   4
loop_
 _symmetry_equiv_pos_site_id
 _symmetry_equiv_pos_as_xyz
  1  'x, y, z'
loop_
 _atom_site_type_symbol
 _atom_site_label
 _atom_site_symmetry_multiplicity
 _atom_site_fract_x
 _atom_site_fract_y
 _atom_site_fract_z
 _atom_site_occupancy
  V  V0  1  0.05084600  0.10343800  0.10236300  1
  V  V1  1  0.05084600  0.39656200  0.60236300  1
  V  V2  1  0.94915400  0.89656200  0.89763700  1
  V  V3  1  0.94915400  0.60343800  0.39763700  1
  Te  Te0  1  0.62759000  0.01781600  0.89572600  1
  Te  Te1  1  0.62759000  0.48218400  0.39572600  1
  Te  Te2  1  0.37241000  0.98218400  0.10427400  1
  Te  Te3  1  0.37241000  0.51781600  0.60427400  1
  H  H0  1  0.38083700  0.05043400  0.52778500  1
  H  H1  1  0.38083700  0.44956600  0.02778500  1
  H  H2  1  0.61916300  0.94956600  0.47221500  1
  H  H3  1  0.61916300  0.55043400  0.97221500  1
  H  H4  1  0.72445900  0.19163700  0.71901500  1
  H  H5  1  0.72445900  0.30836300  0.21901500  1
  H  H6  1  0.27554100  0.80836300  0.28098500  1
  H  H7  1  0.27554100  0.69163700  0.78098500  1
  H  H8  1  0.82338400  0.26574100  0.67565200  1
  H  H9  1  0.82338400  0.23425900  0.17565200  1
  H  H10  1  0.17661600  0.73425900  0.32434800  1
  H  H11  1  0.17661600  0.76574100  0.82434800  1
  H  H12  1  0.47287800  0.23363000  0.89242600  1
  H  H13  1  0.47287800  0.26637000  0.39242600  1
  H  H14  1  0.52712200  0.76637000  0.10757400  1
  H  H15  1  0.52712200  0.73363000  0.60757400  1
  H  H16  1  0.25133300  0.25513100  0.66719400  1
  H  H17  1  0.25133300  0.24486900  0.16719400  1
  H  H18  1  0.74866700  0.74486900  0.33280600  1
  H  H19  1  0.74866700  0.75513100  0.83280600  1
  H  H20  1  0.24565900  0.19725400  0.85047200  1
  H  H21  1  0.24565900  0.30274600  0.35047200  1
  H  H22  1  0.75434100  0.80274600  0.14952800  1
  H  H23  1  0.75434100  0.69725400  0.64952800  1
  H  H24  1  0.35064000  0.16208000  0.71631500  1
  H  H25  1  0.35064000  0.33792000  0.21631500  1
  H  H26  1  0.64936000  0.83792000  0.28368500  1
  H  H27  1  0.64936000  0.66208000  0.78368500  1
  H  H28  1  0.82166300  0.13615000  0.54701900  1
  H  H29  1  0.82166300  0.36385000  0.04701900  1
  H  H30  1  0.17833700  0.86385000  0.45298100  1
  H  H31  1  0.17833700  0.63615000  0.95298100  1
  H  H32  1  0.78515500  0.04710500  0.43434700  1
  H  H33  1  0.78515500  0.45289500  0.93434700  1
  H  H34  1  0.21484500  0.95289500  0.56565300  1
  H  H35  1  0.21484500  0.54710500  0.06565300  1
  H  H36  1  0.99034700  0.06079600  0.66940200  1
  H  H37  1  0.99034700  0.43920400  0.16940200  1
  H  H38  1  0.00965300  0.93920400  0.33059800  1
  H  H39  1  0.00965300  0.56079600  0.83059800  1
  H  H40  1  0.97442500  0.10613000  0.45576500  1
  H  H41  1  0.97442500  0.39387000  0.95576500  1
  H  H42  1  0.02557500  0.89387000  0.54423500  1
  H  H43  1  0.02557500  0.60613000  0.04423500  1
  N  N0  1  0.32984300  0.21230000  0.77981900  1
  N  N1  1  0.32984300  0.28770000  0.27981900  1
  N  N2  1  0.67015700  0.78770000  0.22018100  1
  N  N3  1  0.67015700  0.71230000  0.72018100  1
  N  N4  1  0.89415600  0.08766300  0.52739800  1
  N  N5  1  0.89415600  0.41233700  0.02739800  1
  N  N6  1  0.10584400  0.91233700  0.47260200  1
  N  N7  1  0.10584400  0.58766300  0.97260200  1
  O  O0  1  0.90304400  0.99416800  0.11249000  1
  O  O1  1  0.90304400  0.50583200  0.61249000  1
  O  O2  1  0.09695600  0.00583200  0.88751000  1
  O  O3  1  0.09695600  0.49416800  0.38751000  1
  O  O4  1  0.68808200  0.95231100  0.72455200  1
  O  O5  1  0.68808200  0.54768900  0.22455200  1
  O  O6  1  0.31191800  0.04768900  0.27544800  1
  O  O7  1  0.31191800  0.45231100  0.77544800  1
  O  O8  1  0.52440200  0.06976000  0.06267700  1
  O  O9  1  0.52440200  0.43024000  0.56267700  1
  O  O10  1  0.47559800  0.93024000  0.93732300  1
  O  O11  1  0.47559800  0.56976000  0.43732300  1
  O  O12  1  0.36805600  0.05123000  0.65279700  1
  O  O13  1  0.36805600  0.44877000  0.15279700  1
  O  O14  1  0.63194400  0.94877000  0.34720300  1
  O  O15  1  0.63194400  0.55123000  0.84720300  1
  O  O16  1  0.13388500  0.17116500  0.99761900  1
  O  O17  1  0.13388500  0.32883500  0.49761900  1
  O  O18  1  0.86611500  0.82883500  0.00238100  1
  O  O19  1  0.86611500  0.67116500  0.50238100  1
  O  O20  1  0.76141200  0.11187500  0.87900500  1
  O  O21  1  0.76141200  0.38812500  0.37900500  1
  O  O22  1  0.23858800  0.88812500  0.12099500  1
  O  O23  1  0.23858800  0.61187500  0.62099500  1
  O  O24  1  0.04247400  0.15160200  0.28997300  1
  O  O25  1  0.04247400  0.34839800  0.78997300  1
  O  O26  1  0.95752600  0.84839800  0.71002700  1
  O  O27  1  0.95752600  0.65160200  0.21002700  1
  O  O28  1  0.71612300  0.22516000  0.60833600  1
  O  O29  1  0.71612300  0.27484000  0.10833600  1
  O  O30  1  0.28387700  0.77484000  0.39166400  1
  O  O31  1  0.28387700  0.72516000  0.89166400  1
loop_
_geom_bond_atom_site_label_1
_geom_bond_atom_site_label_2
_geom_bond_distance
_geom_bond_site_symmetry_2
H0 O12 1.004340 1_555
H0 O6 1.722921 1_555
H1 O13 1.004340 1_555
H1 O7 1.722921 1_554
H2 O14 1.004340 1_555
H2 O4 1.722921 1_555
H3 O15 1.004340 1_555
H3 O5 1.722921 1_556
H4 O28 0.995846 1_555
H4 O20 1.757278 1_555
H5 O29 0.995846 1_555
H5 O21 1.757278 1_555
H6 O30 0.995846 1_555
H6 O22 1.757278 1_555
H7 O31 0.995846 1_555
H7 O23 1.757278 1_555
H8 O28 0.987752 1_555
H9 O29 0.987752 1_555
H10 O30 0.987752 1_555
H11 O31 0.987752 1_555
H12 N0 1.044606 1_555
H13 N1 1.044606 1_555
H14 N2 1.044606 1_555
H15 N3 1.044606 1_555
H16 N0 1.054521 1_555
H17 N1 1.054521 1_555
H18 N2 1.054521 1_555
H19 N3 1.054521 1_555
H20 N0 1.046146 1_555
H21 N1 1.046146 1_555
H22 N2 1.046146 1_555
H23 N3 1.046146 1_555
H24 N0 1.035965 1_555
H25 N1 1.035965 1_555
H26 N2 1.035965 1_555
H27 N3 1.035965 1_555
H28 N4 1.042658 1_555
H29 N5 1.042658 1_555
H30 N6 1.042658 1_555
H31 N7 1.042658 1_555
H32 N4 1.033533 1_555
H33 N5 1.033533 1_556
H34 N6 1.033533 1_555
H35 N7 1.033533 1_554
H36 N4 1.056889 1_555
H36 O2 1.717646 1_655
H37 N5 1.056889 1_555
H37 O3 1.717646 1_655
H38 N6 1.056889 1_555
H38 O0 1.717646 1_455
H39 N7 1.056889 1_555
H39 O1 1.717646 1_455
H40 N4 1.043409 1_555
H41 N5 1.043409 1_556
H42 N6 1.043409 1_555
H43 N7 1.043409 1_554
O0 Te0 1.927551 1_564
O0 V0 2.194017 1_665
O0 V2 2.481966 1_554
O1 Te1 1.927551 1_555
O1 V1 2.194017 1_655
O1 V3 2.481966 1_555
O2 Te2 1.927551 1_546
O2 V2 2.194017 1_445
O2 V0 2.481966 1_556
O3 Te3 1.927551 1_555
O3 V3 2.194017 1_455
O3 V1 2.481966 1_555
O4 Te0 1.938601 1_565
O4 V2 1.968352 1_555
O5 Te1 1.938601 1_555
O5 V3 1.968352 1_555
O6 Te2 1.938601 1_545
O6 V0 1.968352 1_555
O7 Te3 1.938601 1_555
O7 V1 1.968352 1_555
O8 Te0 1.998566 1_554
O8 Te2 2.001055 1_545
O9 Te1 1.998566 1_555
O9 Te3 2.001055 1_555
O10 Te2 1.998566 1_556
O10 Te0 2.001055 1_565
O11 Te3 1.998566 1_555
O11 Te1 2.001055 1_555
O12 Te0 1.977052 1_555
O13 Te1 1.977052 1_555
O14 Te2 1.977052 1_555
O15 Te3 1.977052 1_555
O16 V0 1.693073 1_556
O17 V1 1.693073 1_555
O18 V2 1.693073 1_554
O19 V3 1.693073 1_555
O20 Te0 1.933854 1_555
O20 V0 1.974797 1_656
O21 Te1 1.933854 1_555
O21 V1 1.974797 1_655
O22 Te2 1.933854 1_555
O22 V2 1.974797 1_454
O23 Te3 1.933854 1_555
O23 V3 1.974797 1_455
O24 V0 1.678708 1_555
O25 V1 1.678708 1_555
O26 V2 1.678708 1_555
O27 V3 1.678708 1_555
