# generated using pymatgen
data_LaClO2
_symmetry_space_group_name_H-M   'P 1'
_cell_length_a   4.39602900
_cell_length_b   5.14525700
_cell_length_c   6.84023486
_cell_angle_alpha   70.98227800
_cell_angle_beta   90.00000000
_cell_angle_gamma   90.00000000
_symmetry_Int_Tables_number   1
_chemical_formula_structural   LaClO2
_chemical_formula_sum   'La2 Cl2 O4'
_cell_volume   146.27241209
_cell_formula_units_Z   2
loop_
 _symmetry_equiv_pos_site_id
 _symmetry_equiv_pos_as_xyz
  1  'x, y, z'
loop_
 _atom_site_type_symbol
 _atom_site_label
 _atom_site_symmetry_multiplicity
 _atom_site_fract_x
 _atom_site_fract_y
 _atom_site_fract_z
 _atom_site_occupancy
  La  La0  1  0.25000000  0.16588400  0.67219600  1
  La  La1  1  0.75000000  0.83411600  0.32780400  1
  Cl  Cl0  1  0.25000000  0.22179800  0.07909300  1
  Cl  Cl1  1  0.75000000  0.77820200  0.92090700  1
  O  O0  1  0.25000000  0.76874000  0.52953600  1
  O  O1  1  0.75000000  0.23126000  0.47046400  1
  O  O2  1  0.25000000  0.61659200  0.37818900  1
  O  O3  1  0.75000000  0.38340800  0.62181100  1
loop_
_geom_bond_atom_site_label_1
_geom_bond_atom_site_label_2
_geom_bond_distance
_geom_bond_site_symmetry_2
La0 O3 2.439530 1_555
La0 O3 2.439530 1_455
La0 O2 2.526420 1_555
La0 O0 2.535212 1_545
La0 O1 2.558519 1_455
La0 O1 2.558519 1_555
La0 O0 2.932752 1_555
La1 O2 2.439530 1_555
La1 O2 2.439530 1_655
La1 O3 2.526420 1_555
La1 O1 2.535212 1_565
La1 O0 2.558519 1_655
La1 O0 2.558519 1_555
La1 O1 2.932752 1_555
Cl0 La0 2.889847 1_554
Cl0 La1 3.081038 1_545
Cl0 La1 3.081038 1_445
Cl1 La1 2.889847 1_556
Cl1 La0 3.081038 1_565
Cl1 La0 3.081038 1_665
O0 O2 1.487534 1_555
O1 O3 1.487534 1_555
