# generated using pymatgen
data_Rb3IO5
_symmetry_space_group_name_H-M   'P 1'
_cell_length_a   8.70033300
_cell_length_b   9.21325900
_cell_length_c   9.31271700
_cell_angle_alpha   90.00000000
_cell_angle_beta   90.00000000
_cell_angle_gamma   90.00000000
_symmetry_Int_Tables_number   1
_chemical_formula_structural   Rb3IO5
_chemical_formula_sum   'Rb12 I4 O20'
_cell_volume   746.49269288
_cell_formula_units_Z   4
loop_
 _symmetry_equiv_pos_site_id
 _symmetry_equiv_pos_as_xyz
  1  'x, y, z'
loop_
 _atom_site_type_symbol
 _atom_site_label
 _atom_site_symmetry_multiplicity
 _atom_site_fract_x
 _atom_site_fract_y
 _atom_site_fract_z
 _atom_site_occupancy
  Rb  Rb0  1  0.96419000  0.25000000  0.75000000  1
  Rb  Rb1  1  0.53581000  0.75000000  0.75000000  1
  Rb  Rb2  1  0.03581000  0.75000000  0.25000000  1
  Rb  Rb3  1  0.46419000  0.25000000  0.25000000  1
  Rb  Rb4  1  0.75000000  0.50000000  0.02457000  1
  Rb  Rb5  1  0.75000000  0.00000000  0.47543000  1
  Rb  Rb6  1  0.25000000  0.50000000  0.97543000  1
  Rb  Rb7  1  0.25000000  0.00000000  0.52457000  1
  Rb  Rb8  1  0.75000000  0.50000000  0.47906500  1
  Rb  Rb9  1  0.75000000  0.00000000  0.02093500  1
  Rb  Rb10  1  0.25000000  0.50000000  0.52093500  1
  Rb  Rb11  1  0.25000000  0.00000000  0.97906500  1
  I  I0  1  0.48710200  0.25000000  0.75000000  1
  I  I1  1  0.01289800  0.75000000  0.75000000  1
  I  I2  1  0.51289800  0.75000000  0.25000000  1
  I  I3  1  0.98710200  0.25000000  0.25000000  1
  O  O0  1  0.27638800  0.25000000  0.75000000  1
  O  O1  1  0.22361200  0.75000000  0.75000000  1
  O  O2  1  0.72361200  0.75000000  0.25000000  1
  O  O3  1  0.77638800  0.25000000  0.25000000  1
  O  O4  1  0.54051700  0.05425400  0.77589300  1
  O  O5  1  0.95948300  0.94574600  0.77589300  1
  O  O6  1  0.54051700  0.44574600  0.72410700  1
  O  O7  1  0.95948300  0.55425400  0.72410700  1
  O  O8  1  0.45948300  0.94574600  0.22410700  1
  O  O9  1  0.04051700  0.05425400  0.22410700  1
  O  O10  1  0.45948300  0.55425400  0.27589300  1
  O  O11  1  0.04051700  0.44574600  0.27589300  1
  O  O12  1  0.51954900  0.27637800  0.94812000  1
  O  O13  1  0.98045100  0.72362200  0.94812000  1
  O  O14  1  0.51954900  0.22362200  0.55188000  1
  O  O15  1  0.98045100  0.77637800  0.55188000  1
  O  O16  1  0.48045100  0.72362200  0.05188000  1
  O  O17  1  0.01954900  0.27637800  0.05188000  1
  O  O18  1  0.48045100  0.77637800  0.44812000  1
  O  O19  1  0.01954900  0.22362200  0.44812000  1
loop_
_geom_bond_atom_site_label_1
_geom_bond_atom_site_label_2
_geom_bond_distance
_geom_bond_site_symmetry_2
I0 O0 1.833282 1_555
I0 O6 1.877919 1_555
I0 O4 1.877919 1_555
I0 O14 1.882262 1_555
I0 O12 1.882262 1_555
I1 O1 1.833282 1_555
I1 O7 1.877919 1_455
I1 O5 1.877919 1_455
I1 O15 1.882262 1_455
I1 O13 1.882262 1_455
I2 O2 1.833282 1_555
I2 O8 1.877919 1_555
I2 O10 1.877919 1_555
I2 O16 1.882262 1_555
I2 O18 1.882262 1_555
I3 O3 1.833282 1_555
I3 O11 1.877919 1_655
I3 O9 1.877919 1_655
I3 O17 1.882262 1_655
I3 O19 1.882262 1_655
O0 Rb0 2.716227 1_455
O0 Rb6 3.124949 1_555
O0 Rb7 3.124949 1_555
O0 Rb11 3.147790 1_555
O0 Rb10 3.147790 1_555
O1 Rb1 2.716227 1_555
O1 Rb6 3.124949 1_555
O1 Rb7 3.124949 1_565
O1 Rb11 3.147790 1_565
O1 Rb10 3.147790 1_555
O2 Rb2 2.716227 1_655
O2 Rb4 3.124949 1_555
O2 Rb5 3.124949 1_565
O2 Rb9 3.147790 1_565
O2 Rb8 3.147790 1_555
O3 Rb3 2.716227 1_555
O3 Rb4 3.124949 1_555
O3 Rb5 3.124949 1_555
O3 Rb9 3.147790 1_555
O3 Rb8 3.147790 1_555
O4 Rb1 2.813821 1_545
O4 Rb9 2.962968 1_556
O4 Rb11 3.196650 1_555
O4 Rb5 3.376557 1_555
O4 Rb7 3.480881 1_555
O5 Rb0 2.813821 1_565
O5 Rb9 2.962968 1_566
O5 Rb11 3.196650 1_665
O5 Rb5 3.376557 1_565
O5 Rb7 3.480881 1_665
O6 Rb1 2.813821 1_555
O6 Rb8 2.962968 1_555
O6 Rb10 3.196650 1_555
O6 Rb4 3.376557 1_556
O6 Rb6 3.480881 1_555
O7 Rb0 2.813821 1_555
O7 Rb8 2.962968 1_555
O7 Rb10 3.196650 1_655
O7 Rb4 3.376557 1_556
O7 Rb6 3.480881 1_655
O8 Rb3 2.813821 1_565
O8 Rb11 2.962968 1_564
O8 Rb9 3.196650 1_565
O8 Rb7 3.376557 1_565
O8 Rb5 3.480881 1_565
O9 Rb2 2.813821 1_545
O9 Rb11 2.962968 1_554
O9 Rb9 3.196650 1_455
O9 Rb7 3.376557 1_555
O9 Rb5 3.480881 1_455
O10 Rb3 2.813821 1_555
O10 Rb10 2.962968 1_555
O10 Rb8 3.196650 1_555
O10 Rb6 3.376557 1_554
O10 Rb4 3.480881 1_555
O11 Rb2 2.813821 1_555
O11 Rb10 2.962968 1_555
O11 Rb8 3.196650 1_455
O11 Rb6 3.376557 1_554
O11 Rb4 3.480881 1_455
O12 Rb3 2.862617 1_556
O12 Rb4 2.961705 1_556
O12 Rb6 3.131976 1_555
O12 Rb9 3.311150 1_556
O12 Rb11 3.473717 1_555
O13 Rb2 2.862617 1_656
O13 Rb4 2.961705 1_556
O13 Rb6 3.131976 1_655
O13 Rb9 3.311150 1_566
O13 Rb11 3.473717 1_665
O14 Rb3 2.862617 1_555
O14 Rb5 2.961705 1_555
O14 Rb7 3.131976 1_555
O14 Rb8 3.311150 1_555
O14 Rb10 3.473717 1_555
O15 Rb2 2.862617 1_655
O15 Rb5 2.961705 1_565
O15 Rb7 3.131976 1_665
O15 Rb8 3.311150 1_555
O15 Rb10 3.473717 1_655
O16 Rb1 2.862617 1_554
O16 Rb6 2.961705 1_554
O16 Rb4 3.131976 1_555
O16 Rb11 3.311150 1_564
O16 Rb9 3.473717 1_565
O17 Rb0 2.862617 1_454
O17 Rb6 2.961705 1_554
O17 Rb4 3.131976 1_455
O17 Rb11 3.311150 1_554
O17 Rb9 3.473717 1_455
O18 Rb1 2.862617 1_555
O18 Rb7 2.961705 1_565
O18 Rb5 3.131976 1_565
O18 Rb10 3.311150 1_555
O18 Rb8 3.473717 1_555
O19 Rb0 2.862617 1_455
O19 Rb7 2.961705 1_555
O19 Rb5 3.131976 1_455
O19 Rb10 3.311150 1_555
O19 Rb8 3.473717 1_455
