# generated using pymatgen
data_BaV2(AsO5)2
_symmetry_space_group_name_H-M   'P 1'
_cell_length_a   13.41195211
_cell_length_b   13.41195211
_cell_length_c   18.64520774
_cell_angle_alpha   46.10046965
_cell_angle_beta   46.10046965
_cell_angle_gamma   20.35819227
_symmetry_Int_Tables_number   1
_chemical_formula_structural   BaV2(AsO5)2
_chemical_formula_sum   'Ba4 V8 As8 O40'
_cell_volume   828.08978904
_cell_formula_units_Z   4
loop_
 _symmetry_equiv_pos_site_id
 _symmetry_equiv_pos_as_xyz
  1  'x, y, z'
loop_
 _atom_site_type_symbol
 _atom_site_label
 _atom_site_symmetry_multiplicity
 _atom_site_fract_x
 _atom_site_fract_y
 _atom_site_fract_z
 _atom_site_occupancy
  Ba  Ba0  1  0.12523400  0.87514200  0.74928000  1
  Ba  Ba1  1  0.87514200  0.12523400  0.24928000  1
  Ba  Ba2  1  0.88297100  0.60807600  0.74979800  1
  Ba  Ba3  1  0.60807600  0.88297100  0.24979800  1
  V  V0  1  0.90087600  0.44967200  0.52388400  1
  V  V1  1  0.54988800  0.10155800  0.97498100  1
  V  V2  1  0.52484200  0.57496800  0.37436800  1
  V  V3  1  0.42317300  0.47273200  0.12666200  1
  V  V4  1  0.10155800  0.54988800  0.47498100  1
  V  V5  1  0.44967200  0.90087600  0.02388400  1
  V  V6  1  0.47273200  0.42317300  0.62666200  1
  V  V7  1  0.57496800  0.52484200  0.87436800  1
  As  As0  1  0.03563000  0.57980000  0.86472300  1
  As  As1  1  0.41608300  0.97031400  0.63648800  1
  As  As2  1  0.05867700  0.09745500  0.97985800  1
  As  As3  1  0.89574700  0.94939900  0.51993200  1
  As  As4  1  0.97031400  0.41608300  0.13648800  1
  As  As5  1  0.57980000  0.03563000  0.36472300  1
  As  As6  1  0.94939900  0.89574700  0.01993200  1
  As  As7  1  0.09745500  0.05867700  0.47985800  1
  O  O0  1  0.16798500  0.53697800  0.74232800  1
  O  O1  1  0.47427200  0.82199600  0.75806800  1
  O  O2  1  0.22186700  0.09038600  0.94579200  1
  O  O3  1  0.91307000  0.78092800  0.54791700  1
  O  O4  1  0.82199600  0.47427200  0.25806800  1
  O  O5  1  0.53697800  0.16798500  0.24232800  1
  O  O6  1  0.78092800  0.91307000  0.04791700  1
  O  O7  1  0.09038600  0.22186700  0.44579200  1
  O  O8  1  0.24090500  0.31113500  0.43698200  1
  O  O9  1  0.69376000  0.75536600  0.06378100  1
  O  O10  1  0.75064600  0.32299400  0.48918600  1
  O  O11  1  0.67633700  0.24728600  0.01155100  1
  O  O12  1  0.75536600  0.69376000  0.56378100  1
  O  O13  1  0.31113500  0.24090500  0.93698200  1
  O  O14  1  0.24728600  0.67633700  0.51155100  1
  O  O15  1  0.32299400  0.75064600  0.98918600  1
  O  O16  1  0.76848500  0.70626100  0.90110300  1
  O  O17  1  0.28355700  0.24089700  0.60235000  1
  O  O18  1  0.89155100  0.32750400  0.87711200  1
  O  O19  1  0.66908200  0.10375100  0.62614000  1
  O  O20  1  0.24089700  0.28355700  0.10235000  1
  O  O21  1  0.70626100  0.76848500  0.40110300  1
  O  O22  1  0.10375100  0.66908200  0.12614000  1
  O  O23  1  0.32750400  0.89155100  0.37711200  1
  O  O24  1  0.90743500  0.80924700  0.87494300  1
  O  O25  1  0.19092200  0.09334100  0.62571800  1
  O  O26  1  0.81716600  0.21693600  0.09087500  1
  O  O27  1  0.78254100  0.18471000  0.40787800  1
  O  O28  1  0.09334100  0.19092200  0.12571800  1
  O  O29  1  0.80924700  0.90743500  0.37494300  1
  O  O30  1  0.18471000  0.78254100  0.90787800  1
  O  O31  1  0.21693600  0.81716600  0.59087500  1
  O  O32  1  0.63191900  0.27832000  0.69831800  1
  O  O33  1  0.72375800  0.36504900  0.80117600  1
  O  O34  1  0.52429100  0.66946900  0.10786100  1
  O  O35  1  0.33517700  0.47228500  0.39054700  1
  O  O36  1  0.36504900  0.72375800  0.30117600  1
  O  O37  1  0.27832000  0.63191900  0.19831800  1
  O  O38  1  0.47228500  0.33517700  0.89054700  1
  O  O39  1  0.66946900  0.52429100  0.60786100  1
loop_
_geom_bond_atom_site_label_1
_geom_bond_atom_site_label_2
_geom_bond_distance
_geom_bond_site_symmetry_2
Ba0 O31 2.682258 1_555
Ba0 O30 2.691401 1_555
Ba0 O24 2.698382 1_455
Ba0 O25 2.705141 1_565
Ba0 O33 2.890397 1_465
Ba0 O38 2.896951 1_555
Ba0 O32 2.902915 1_465
Ba0 O39 2.913157 1_555
Ba1 O26 2.682258 1_555
Ba1 O27 2.691401 1_555
Ba1 O29 2.698382 1_545
Ba1 O28 2.705141 1_655
Ba1 O36 2.890397 1_645
Ba1 O35 2.896951 1_555
Ba1 O37 2.902915 1_645
Ba1 O34 2.913157 1_555
Ba2 O18 2.643409 1_555
Ba2 O3 2.692946 1_555
Ba2 O16 2.720982 1_555
Ba2 O0 2.855162 1_655
Ba2 O1 2.873034 1_555
Ba2 O17 3.058751 1_655
Ba2 O19 3.146025 1_565
Ba2 O2 3.300698 1_655
Ba3 O23 2.643409 1_555
Ba3 O6 2.692946 1_555
Ba3 O21 2.720982 1_555
Ba3 O5 2.855162 1_565
Ba3 O4 2.873034 1_555
Ba3 O20 3.058751 1_565
Ba3 O22 3.146025 1_655
Ba3 O7 3.300698 1_565
As0 O24 1.703024 1_455
As0 O0 1.725373 1_555
As0 O16 1.733369 1_455
As0 O13 1.745754 1_555
As1 O25 1.709001 1_565
As1 O1 1.730261 1_555
As1 O17 1.733499 1_565
As1 O12 1.752843 1_555
As2 O26 1.706926 1_456
As2 O2 1.723176 1_555
As2 O18 1.733242 1_455
As2 O15 1.745689 1_545
As3 O27 1.703138 1_565
As3 O3 1.726398 1_555
As3 O19 1.727675 1_565
As3 O14 1.749653 1_655
As4 O28 1.709001 1_655
As4 O4 1.730261 1_555
As4 O20 1.733499 1_655
As4 O9 1.752843 1_555
As5 O29 1.703024 1_545
As5 O5 1.725373 1_555
As5 O21 1.733369 1_545
As5 O8 1.745754 1_555
As6 O30 1.703138 1_654
As6 O6 1.726398 1_555
As6 O22 1.727675 1_655
As6 O11 1.749653 1_565
As7 O31 1.706926 1_545
As7 O7 1.723176 1_555
As7 O23 1.733242 1_545
As7 O10 1.745689 1_455
O0 V6 2.080745 1_555
O1 V7 2.096093 1_555
O2 V5 2.095495 1_546
O3 V4 2.056689 1_655
O4 V2 2.096093 1_555
O5 V3 2.080745 1_555
O6 V1 2.056689 1_564
O7 V0 2.095495 1_455
O8 V4 2.082560 1_555
O8 V0 2.216885 1_455
O9 V5 2.112688 1_555
O9 V1 2.234552 1_564
O10 V6 2.098743 1_555
O10 V2 2.223239 1_555
O11 V7 2.092012 1_554
O11 V3 2.218279 1_555
O12 V0 2.112688 1_555
O12 V4 2.234552 1_655
O13 V1 2.082560 1_555
O13 V5 2.216885 1_546
O14 V2 2.092012 1_555
O14 V6 2.218279 1_555
O15 V3 2.098743 1_556
O15 V7 2.223239 1_555
O16 V5 2.030140 1_556
O17 V4 2.048199 1_555
O18 V7 2.019355 1_555
O19 V6 2.038722 1_555
O20 V1 2.048199 1_554
O21 V0 2.030140 1_555
O22 V3 2.038722 1_555
O23 V2 2.019355 1_555
O24 V1 2.080882 1_565
O25 V0 2.092159 1_455
O26 V3 2.104832 1_555
O27 V2 2.066577 1_555
O28 V5 2.092159 1_545
O29 V4 2.080882 1_655
O30 V7 2.066577 1_555
O31 V6 2.104832 1_555
O32 V6 1.642053 1_555
O33 V7 1.642468 1_555
O34 V5 1.641795 1_555
O35 V4 1.641932 1_555
O36 V2 1.642468 1_555
O37 V3 1.642053 1_555
O38 V1 1.641932 1_555
O39 V0 1.641795 1_555
