# generated using pymatgen
data_Sr2HfCrO6
_symmetry_space_group_name_H-M   'P 1'
_cell_length_a   5.63910843
_cell_length_b   9.79535480
_cell_length_c   5.66653229
_cell_angle_alpha   73.78819021
_cell_angle_beta   119.81614034
_cell_angle_gamma   106.68753798
_symmetry_Int_Tables_number   1
_chemical_formula_structural   Sr2HfCrO6
_chemical_formula_sum   'Sr4 Hf2 Cr2 O12'
_cell_volume   256.60388395
_cell_formula_units_Z   2
loop_
 _symmetry_equiv_pos_site_id
 _symmetry_equiv_pos_as_xyz
  1  'x, y, z'
loop_
 _atom_site_type_symbol
 _atom_site_label
 _atom_site_symmetry_multiplicity
 _atom_site_fract_x
 _atom_site_fract_y
 _atom_site_fract_z
 _atom_site_occupancy
  Sr  Sr0  1  0.12527900  0.37493600  0.87548300  1
  Sr  Sr1  1  0.62450100  0.87456600  0.37463200  1
  Sr  Sr2  1  0.37559400  0.12543100  0.62555000  1
  Sr  Sr3  1  0.87472700  0.62515000  0.12440600  1
  Hf  Hf0  1  0.74961700  0.24997000  0.24942900  1
  Hf  Hf1  1  0.25036200  0.75010200  0.75049900  1
  Cr  Cr0  1  0.49984200  0.49983800  0.49988500  1
  Cr  Cr1  1  0.99985200  0.99980700  0.99998500  1
  O  O0  1  0.87913900  0.12231000  0.63534000  1
  O  O1  1  0.37631000  0.62250300  0.13118200  1
  O  O2  1  0.62373400  0.37755900  0.86870200  1
  O  O3  1  0.12091700  0.87772700  0.36478200  1
  O  O4  1  0.36311900  0.12113300  0.12151500  1
  O  O5  1  0.86046300  0.62077000  0.61888500  1
  O  O6  1  0.13961200  0.37925300  0.38103900  1
  O  O7  1  0.63696200  0.87891400  0.87861300  1
  O  O8  1  0.88038700  0.12088800  0.12146500  1
  O  O9  1  0.37847100  0.62063000  0.61888700  1
  O  O10  1  0.62152900  0.37944700  0.38099500  1
  O  O11  1  0.11958400  0.87906600  0.87872600  1
loop_
_geom_bond_atom_site_label_1
_geom_bond_atom_site_label_2
_geom_bond_distance
_geom_bond_site_symmetry_2
Hf0 O2 2.049698 1_554
Hf0 O4 2.056310 1_555
Hf0 O8 2.060939 1_555
Hf0 O10 2.067754 1_555
Hf0 O0 2.070864 1_555
Hf0 O6 2.072041 1_655
Hf1 O1 2.049561 1_556
Hf1 O7 2.056614 1_555
Hf1 O11 2.061075 1_555
Hf1 O9 2.067982 1_555
Hf1 O3 2.069940 1_555
Hf1 O5 2.071854 1_455
Cr0 O6 1.918581 1_555
Cr0 O10 1.919245 1_555
Cr0 O5 1.921531 1_555
Cr0 O9 1.921631 1_555
Cr0 O2 1.980237 1_555
Cr0 O1 1.981334 1_555
Cr1 O11 1.923670 1_655
Cr1 O8 1.926206 1_566
Cr1 O7 1.930400 1_555
Cr1 O4 1.933637 1_666
Cr1 O3 1.963240 1_656
Cr1 O0 1.964353 1_565
O0 Sr0 2.816229 1_655
O0 Sr2 2.818849 1_655
O0 Sr2 2.821221 1_555
O0 Sr1 2.832750 1_545
O1 Sr0 2.816866 1_554
O1 Sr3 2.817093 1_455
O1 Sr1 2.820529 1_555
O1 Sr3 2.822531 1_555
O2 Sr0 2.816796 1_655
O2 Sr3 2.817082 1_556
O2 Sr2 2.820261 1_555
O2 Sr0 2.822826 1_555
O3 Sr3 2.816449 1_455
O3 Sr1 2.818693 1_455
O3 Sr1 2.821391 1_555
O3 Sr2 2.832587 1_565
O4 Sr2 2.833697 1_555
O4 Sr2 2.834417 1_554
O4 Sr0 2.836071 1_554
O4 Sr1 2.840927 1_545
O5 Sr1 2.830822 1_555
O5 Sr3 2.830977 1_555
O5 Sr3 2.837512 1_556
O5 Sr0 2.844941 1_655
O6 Sr2 2.831114 1_555
O6 Sr0 2.831146 1_555
O6 Sr0 2.837346 1_554
O6 Sr3 2.845670 1_455
O7 Sr1 2.833571 1_555
O7 Sr1 2.834550 1_556
O7 Sr3 2.835518 1_556
O7 Sr2 2.840463 1_565
O8 Sr2 2.833135 1_655
O8 Sr0 2.836598 1_654
O8 Sr2 2.837247 1_554
O8 Sr1 2.843961 1_545
O9 Sr3 2.830234 1_455
O9 Sr1 2.834247 1_555
O9 Sr3 2.840217 1_556
O9 Sr0 2.842852 1_555
O10 Sr0 2.830268 1_655
O10 Sr2 2.835288 1_555
O10 Sr0 2.840179 1_554
O10 Sr3 2.842898 1_555
O11 Sr1 2.832821 1_455
O11 Sr3 2.834892 1_456
O11 Sr1 2.837571 1_556
O11 Sr2 2.844584 1_565
