# generated using pymatgen
data_RbLaMg6
_symmetry_space_group_name_H-M   'P 1'
_cell_length_a   5.42779300
_cell_length_b   7.23118600
_cell_length_c   12.06209700
_cell_angle_alpha   90.00000000
_cell_angle_beta   90.00000000
_cell_angle_gamma   90.00000000
_symmetry_Int_Tables_number   1
_chemical_formula_structural   RbLaMg6
_chemical_formula_sum   'Rb2 La2 Mg12'
_cell_volume   473.42983783
_cell_formula_units_Z   2
loop_
 _symmetry_equiv_pos_site_id
 _symmetry_equiv_pos_as_xyz
  1  'x, y, z'
loop_
 _atom_site_type_symbol
 _atom_site_label
 _atom_site_symmetry_multiplicity
 _atom_site_fract_x
 _atom_site_fract_y
 _atom_site_fract_z
 _atom_site_occupancy
  Rb  Rb0  1  0.00000000  0.00000000  0.14880100  1
  Rb  Rb1  1  0.00000000  0.50000000  0.64880100  1
  La  La0  1  0.50000000  0.00000000  0.34260600  1
  La  La1  1  0.50000000  0.50000000  0.84260600  1
  Mg  Mg0  1  0.50000000  0.21535100  0.58551300  1
  Mg  Mg1  1  0.50000000  0.78464900  0.58551300  1
  Mg  Mg2  1  0.50000000  0.00000000  0.84607300  1
  Mg  Mg3  1  0.00000000  0.24844100  0.41227100  1
  Mg  Mg4  1  0.00000000  0.75155900  0.41227100  1
  Mg  Mg5  1  0.00000000  0.00000000  0.66695700  1
  Mg  Mg6  1  0.50000000  0.71535100  0.08551300  1
  Mg  Mg7  1  0.50000000  0.28464900  0.08551300  1
  Mg  Mg8  1  0.50000000  0.50000000  0.34607300  1
  Mg  Mg9  1  0.00000000  0.74844100  0.91227100  1
  Mg  Mg10  1  0.00000000  0.25155900  0.91227100  1
  Mg  Mg11  1  0.00000000  0.50000000  0.16695700  1
loop_
_geom_bond_atom_site_label_1
_geom_bond_atom_site_label_2
_geom_bond_distance
_geom_bond_site_symmetry_2
La0 Mg1 3.318089 1_545
La0 Mg0 3.318089 1_555
La0 Mg3 3.361375 1_655
La0 Mg4 3.361375 1_545
La0 Mg3 3.361375 1_555
La0 Mg4 3.361375 1_645
La0 Rb0 3.581906 1_555
La0 Rb0 3.581906 1_655
La0 Mg8 3.615835 1_545
La0 Mg8 3.615835 1_555
La0 Mg7 3.722030 1_555
La0 Mg6 3.722030 1_545
La1 Mg7 3.318089 1_556
La1 Mg6 3.318089 1_556
La1 Mg9 3.361375 1_555
La1 Mg10 3.361375 1_555
La1 Mg10 3.361375 1_655
La1 Mg9 3.361375 1_655
La1 Rb1 3.581906 1_555
La1 Rb1 3.581906 1_655
La1 Mg2 3.615835 1_565
La1 Mg2 3.615835 1_555
La1 Mg1 3.722030 1_555
La1 Mg0 3.722030 1_555
Mg0 Mg1 3.114486 1_545
Mg0 Mg5 3.279531 1_655
Mg0 Mg5 3.279531 1_555
Mg0 Mg3 3.433537 1_655
Mg0 Mg3 3.433537 1_555
Mg0 Rb1 3.490673 1_555
Mg0 Rb1 3.490673 1_655
Mg0 Mg2 3.507539 1_555
Mg0 Mg8 3.546577 1_555
Mg1 Mg5 3.279531 1_665
Mg1 Mg5 3.279531 1_565
Mg1 Mg4 3.433537 1_555
Mg1 Mg4 3.433537 1_655
Mg1 Rb1 3.490673 1_555
Mg1 Rb1 3.490673 1_655
Mg1 Mg2 3.507539 1_565
Mg1 Mg8 3.546577 1_555
Mg2 Mg9 3.363306 1_645
Mg2 Mg9 3.363306 1_545
Mg2 Mg5 3.468870 1_655
Mg2 Mg5 3.468870 1_555
Mg2 Mg7 3.546577 1_556
Mg2 Mg6 3.546577 1_546
Mg3 Mg8 3.363306 1_555
Mg3 Mg8 3.363306 1_455
Mg3 Rb1 3.383622 1_555
Mg3 Mg5 3.558788 1_555
Mg3 Rb0 3.650642 1_555
Mg4 Mg8 3.363306 1_555
Mg4 Mg8 3.363306 1_455
Mg4 Rb1 3.383622 1_555
Mg4 Mg5 3.558788 1_565
Mg4 Rb0 3.650642 1_565
Mg5 Mg9 3.473428 1_545
Mg5 Rb1 3.622219 1_545
Mg5 Rb1 3.622219 1_555
Mg6 Mg7 3.114486 1_555
Mg6 Mg9 3.433537 1_554
Mg6 Mg9 3.433537 1_654
Mg6 Rb0 3.490673 1_565
Mg6 Rb0 3.490673 1_665
Mg6 Mg8 3.507539 1_555
Mg7 Rb0 3.490673 1_655
Mg7 Rb0 3.490673 1_555
Mg7 Mg8 3.507539 1_555
Mg9 Rb0 3.383622 1_566
Mg9 Rb1 3.650642 1_555
Mg10 Mg2 3.363306 1_555
Mg10 Mg2 3.363306 1_455
Mg10 Rb0 3.383622 1_556
Mg10 Mg7 3.433537 1_556
Mg10 Mg7 3.433537 1_456
Mg10 Mg5 3.473428 1_555
Mg10 Mg11 3.558788 1_556
Mg10 Rb1 3.650642 1_555
Mg11 Mg6 3.279531 1_455
Mg11 Mg6 3.279531 1_555
Mg11 Mg7 3.279531 1_455
Mg11 Mg7 3.279531 1_555
Mg11 Mg8 3.468870 1_455
Mg11 Mg8 3.468870 1_555
Mg11 Mg3 3.473428 1_555
Mg11 Mg4 3.473428 1_555
Mg11 Mg9 3.558788 1_554
Mg11 Rb0 3.622219 1_565
Mg11 Rb0 3.622219 1_555
