# generated using pymatgen
data_Li4Zn(PS4)2
_symmetry_space_group_name_H-M   'P 1'
_cell_length_a   10.06529192
_cell_length_b   10.17564167
_cell_length_c   25.59761469
_cell_angle_alpha   89.99998041
_cell_angle_beta   89.99998555
_cell_angle_gamma   105.05664175
_symmetry_Int_Tables_number   1
_chemical_formula_structural   Li4Zn(PS4)2
_chemical_formula_sum   'Li32 Zn8 P16 S64'
_cell_volume   2531.72300608
_cell_formula_units_Z   8
loop_
 _symmetry_equiv_pos_site_id
 _symmetry_equiv_pos_as_xyz
  1  'x, y, z'
loop_
 _atom_site_type_symbol
 _atom_site_label
 _atom_site_symmetry_multiplicity
 _atom_site_fract_x
 _atom_site_fract_y
 _atom_site_fract_z
 _atom_site_occupancy
  Li  Li0  1  0.13241491  0.88169408  0.92413975  1
  Li  Li1  1  0.61718294  0.37234403  0.92387476  1
  Li  Li2  1  0.11670635  0.86985711  0.67689748  1
  Li  Li3  1  0.62786199  0.38751613  0.67034911  1
  Li  Li4  1  0.12848982  0.88582000  0.42153299  1
  Li  Li5  1  0.61786072  0.37134084  0.42685103  1
  Li  Li6  1  0.60967948  0.37974709  0.17069636  1
  Li  Li7  1  0.88674583  0.63214711  0.82450234  1
  Li  Li8  1  0.38122123  0.13043174  0.57246831  1
  Li  Li9  1  0.88776991  0.62321357  0.32648427  1
  Li  Li10  1  0.37600933  0.12468261  0.07410501  1
  Li  Li11  1  0.87460366  0.62955092  0.07728685  1
  Li  Li12  1  0.88777089  0.12321357  0.92351575  1
  Li  Li13  1  0.38122213  0.63043079  0.67753265  1
  Li  Li14  1  0.88674672  0.13214708  0.42549861  1
  Li  Li15  1  0.37601026  0.62468171  0.17589498  1
  Li  Li16  1  0.87460358  0.12955002  0.17271318  1
  Li  Li17  1  0.61786070  0.87134083  0.82314993  1
  Li  Li18  1  0.12848888  0.38581909  0.82846797  1
  Li  Li19  1  0.62786107  0.88751706  0.57965182  1
  Li  Li20  1  0.11670549  0.36985808  0.57310346  1
  Li  Li21  1  0.61718290  0.87234309  0.32612526  1
  Li  Li22  1  0.13241588  0.38169405  0.32586028  1
  Li  Li23  1  0.60968039  0.87974709  0.07930366  1
  Li  Li24  1  0.76066821  0.76172166  0.96405911  1
  Li  Li25  1  0.26324427  0.26366489  0.71042617  1
  Li  Li26  1  0.76165884  0.76386635  0.46114813  1
  Li  Li27  1  0.75490866  0.76017137  0.21469673  1
  Li  Li28  1  0.76165887  0.26386639  0.78885185  1
  Li  Li29  1  0.26324426  0.76366483  0.53957475  1
  Li  Li30  1  0.76066820  0.26172161  0.28594088  1
  Li  Li31  1  0.75490869  0.26017140  0.03530419  1
  Zn  Zn0  1  0.12495224  0.88161220  0.17384257  1
  Zn  Zn1  1  0.37356670  0.11544661  0.82882079  1
  Zn  Zn2  1  0.87472049  0.61542263  0.57866246  1
  Zn  Zn3  1  0.37601250  0.12005655  0.32714590  1
  Zn  Zn4  1  0.37601332  0.62005654  0.92285411  1
  Zn  Zn5  1  0.87472123  0.11542174  0.67133838  1
  Zn  Zn6  1  0.37356675  0.61544572  0.42118012  1
  Zn  Zn7  1  0.12495306  0.38161156  0.07615747  1
  P  P0  1  0.50755913  0.49306898  0.79764312  1
  P  P1  1  0.99582489  0.00764224  0.79587918  1
  P  P2  1  0.49525547  0.50901984  0.54601284  1
  P  P3  1  0.00716979  0.99113583  0.54785902  1
  P  P4  1  0.50748405  0.48983546  0.29845997  1
  P  P5  1  0.00151704  0.00407081  0.29462079  1
  P  P6  1  0.49240314  0.50285278  0.04699892  1
  P  P7  1  0.99913606  0.00410566  0.04671057  1
  P  P8  1  0.50748400  0.98983535  0.95154010  1
  P  P9  1  0.00151715  0.50407099  0.95537923  1
  P  P10  1  0.49525552  0.00901986  0.70398770  1
  P  P11  1  0.00716975  0.49113565  0.70214132  1
  P  P12  1  0.50755915  0.99306896  0.45235687  1
  P  P13  1  0.99582493  0.50764235  0.45412086  1
  P  P14  1  0.49240310  0.00285273  0.20300117  1
  P  P15  1  0.99913598  0.50410556  0.20328982  1
  S  S0  1  0.16061766  0.95003894  0.82871367  1
  S  S1  1  0.66963901  0.44483423  0.83436978  1
  S  S2  1  0.16742995  0.94251946  0.58563515  1
  S  S3  1  0.66122833  0.44982930  0.57698645  1
  S  S4  1  0.16453629  0.94901409  0.32909594  1
  S  S5  1  0.66984191  0.44125866  0.33471759  1
  S  S6  1  0.15892838  0.95163925  0.08456030  1
  S  S7  1  0.65742520  0.44588445  0.07882067  1
  S  S8  1  0.44686523  0.14921259  0.91699867  1
  S  S9  1  0.95075884  0.66648492  0.92061489  1
  S  S10  1  0.44999983  0.17092904  0.66683339  1
  S  S11  1  0.94339330  0.64829373  0.66739899  1
  S  S12  1  0.44478109  0.14958436  0.41670634  1
  S  S13  1  0.94938761  0.67083869  0.41848959  1
  S  S14  1  0.44256346  0.15880831  0.16722995  1
  S  S15  1  0.94561809  0.67185955  0.16857854  1
  S  S16  1  0.44478113  0.64958434  0.83329363  1
  S  S17  1  0.94938740  0.17083863  0.83151043  1
  S  S18  1  0.44999966  0.67092901  0.58316678  1
  S  S19  1  0.94339315  0.14829365  0.58260122  1
  S  S20  1  0.44686509  0.64921234  0.33300142  1
  S  S21  1  0.95075807  0.16648422  0.32938511  1
  S  S22  1  0.44256344  0.65880831  0.08277001  1
  S  S23  1  0.94561806  0.17185949  0.08142143  1
  S  S24  1  0.66984184  0.94125864  0.91528251  1
  S  S25  1  0.16453622  0.44901425  0.92090407  1
  S  S26  1  0.66122823  0.94982951  0.67301370  1
  S  S27  1  0.16742958  0.44251942  0.66436500  1
  S  S28  1  0.66963904  0.94483455  0.41563015  1
  S  S29  1  0.16061756  0.45003893  0.42128635  1
  S  S30  1  0.65742528  0.94588438  0.17117937  1
  S  S31  1  0.15892819  0.45163947  0.16543980  1
  S  S32  1  0.33363680  0.32321204  0.80145455  1
  S  S33  1  0.83623483  0.84064528  0.79552159  1
  S  S34  1  0.33539404  0.34223477  0.54512507  1
  S  S35  1  0.83239232  0.82252077  0.55187139  1
  S  S36  1  0.33759378  0.32387264  0.29601165  1
  S  S37  1  0.83696234  0.83472573  0.30163373  1
  S  S38  1  0.32533042  0.33365865  0.04347489  1
  S  S39  1  0.82677017  0.84220405  0.05324369  1
  S  S40  1  0.33759359  0.82387264  0.95398831  1
  S  S41  1  0.83696240  0.33472591  0.94836630  1
  S  S42  1  0.33539422  0.84223453  0.70487502  1
  S  S43  1  0.83239261  0.32252080  0.69812870  1
  S  S44  1  0.33363688  0.82321201  0.44854545  1
  S  S45  1  0.83623492  0.34064529  0.45447846  1
  S  S46  1  0.32533010  0.83365871  0.20652510  1
  S  S47  1  0.82677009  0.34220385  0.19675637  1
  S  S48  1  0.55377391  0.55796645  0.96924768  1
  S  S49  1  0.06317573  0.05664574  0.97322670  1
  S  S50  1  0.55791263  0.55393992  0.72368243  1
  S  S51  1  0.05663500  0.06356140  0.71825736  1
  S  S52  1  0.55536053  0.56527592  0.46835280  1
  S  S53  1  0.05967110  0.05267932  0.47408997  1
  S  S54  1  0.55883306  0.55732295  0.22343078  1
  S  S55  1  0.05500044  0.05678079  0.21798710  1
  S  S56  1  0.55536042  0.06527591  0.78164742  1
  S  S57  1  0.05967166  0.55267969  0.77591040  1
  S  S58  1  0.55791253  0.05394017  0.52631760  1
  S  S59  1  0.05663488  0.56356140  0.53174271  1
  S  S60  1  0.55377365  0.05796638  0.28075230  1
  S  S61  1  0.06317586  0.55664601  0.27677360  1
  S  S62  1  0.55883274  0.05732288  0.02656921  1
  S  S63  1  0.05500070  0.55678085  0.03201290  1
loop_
_geom_bond_atom_site_label_1
_geom_bond_atom_site_label_2
_geom_bond_distance
_geom_bond_site_symmetry_2
Li0 S40 2.413760 1_555
Li0 S49 2.424534 1_565
Li0 S9 2.463047 1_455
Li0 S0 2.535420 1_555
Li1 S1 2.422753 1_555
Li1 S41 2.423446 1_555
Li1 S48 2.439317 1_555
Li1 S8 2.470373 1_555
Li2 S42 2.399671 1_555
Li2 S51 2.447600 1_565
Li2 S2 2.463448 1_555
Li2 S11 2.478276 1_455
Li3 S50 2.418013 1_555
Li3 S43 2.426628 1_555
Li3 S10 2.453647 1_555
Li3 S3 2.472982 1_555
Li4 S53 2.404919 1_565
Li4 S44 2.414766 1_555
Li4 S13 2.447949 1_455
Li4 S4 2.454114 1_555
Li5 S45 2.405324 1_555
Li5 S52 2.462453 1_555
Li5 S5 2.479628 1_555
Li5 S12 2.480286 1_555
Li6 S47 2.408154 1_555
Li6 S54 2.414459 1_555
Li6 S14 2.434519 1_555
Li6 S7 2.459022 1_555
Li7 S33 2.422892 1_555
Li7 S57 2.441674 1_655
Li7 S1 2.511582 1_555
Li7 S9 2.544228 1_555
Li8 S34 2.421606 1_555
Li8 S58 2.425589 1_555
Li8 S2 2.502523 1_545
Li8 S10 2.517060 1_555
Li9 S61 2.411717 1_655
Li9 S37 2.422866 1_555
Li9 S13 2.451514 1_555
Li9 S5 2.484742 1_555
Li10 S6 2.438728 1_545
Li10 S38 2.441384 1_555
Li10 S62 2.447848 1_555
Li10 S14 2.476059 1_555
Li11 S39 2.415416 1_555
Li11 S63 2.426286 1_655
Li11 S15 2.448928 1_555
Li11 S7 2.479980 1_555
Li12 S49 2.411713 1_655
Li12 S41 2.422873 1_555
Li12 S17 2.451511 1_555
Li12 S24 2.484749 1_545
Li13 S42 2.421610 1_555
Li13 S50 2.425568 1_555
Li13 S27 2.502530 1_555
Li13 S18 2.517077 1_555
Li14 S45 2.422889 1_555
Li14 S53 2.441657 1_655
Li14 S28 2.511589 1_545
Li14 S21 2.544247 1_555
Li15 S31 2.438730 1_555
Li15 S46 2.441399 1_555
Li15 S54 2.447838 1_555
Li15 S22 2.476057 1_555
Li16 S47 2.415424 1_555
Li16 S55 2.426280 1_655
Li16 S23 2.448929 1_555
Li16 S30 2.479974 1_545
Li17 S33 2.405330 1_555
Li17 S56 2.462461 1_565
Li17 S24 2.479607 1_555
Li17 S16 2.480283 1_555
Li18 S57 2.404930 1_555
Li18 S32 2.414777 1_555
Li18 S17 2.447939 1_455
Li18 S25 2.454094 1_555
Li19 S58 2.418016 1_565
Li19 S35 2.426645 1_555
Li19 S18 2.453649 1_555
Li19 S26 2.472963 1_555
Li20 S34 2.399687 1_555
Li20 S59 2.447597 1_555
Li20 S27 2.463428 1_555
Li20 S19 2.478279 1_455
Li21 S28 2.422755 1_555
Li21 S37 2.423442 1_555
Li21 S60 2.439325 1_565
Li21 S20 2.470369 1_555
Li22 S36 2.413753 1_555
Li22 S61 2.424537 1_555
Li22 S21 2.463060 1_455
Li22 S29 2.535420 1_555
Li23 S39 2.408145 1_555
Li23 S62 2.414463 1_565
Li23 S22 2.434523 1_555
Li23 S30 2.459022 1_555
Li24 S39 2.458041 1_556
Li24 S48 2.531752 1_555
Li24 S24 2.569039 1_555
Li24 S9 2.607674 1_555
Li25 S32 2.464856 1_555
Li25 S51 2.512152 1_555
Li25 S27 2.558201 1_555
Li25 S10 2.567232 1_555
Li26 S35 2.456707 1_555
Li26 S52 2.499837 1_555
Li26 S28 2.548052 1_555
Li26 S13 2.566736 1_555
Li27 S37 2.425784 1_555
Li27 S54 2.467595 1_555
Li27 S30 2.595789 1_555
Li27 S15 2.604229 1_555
Li28 S43 2.456704 1_555
Li28 S56 2.499838 1_555
Li28 S1 2.548049 1_555
Li28 S17 2.566735 1_555
Li29 S44 2.464878 1_555
Li29 S59 2.512154 1_555
Li29 S2 2.558191 1_555
Li29 S18 2.567222 1_555
Li30 S47 2.458038 1_555
Li30 S60 2.531754 1_555
Li30 S5 2.569041 1_555
Li30 S21 2.607672 1_555
Li31 S41 2.425804 1_554
Li31 S62 2.467600 1_555
Li31 S7 2.595781 1_555
Li31 S23 2.604218 1_555
P0 S50 2.015365 1_555
P0 S1 2.049911 1_555
P0 S16 2.071574 1_555
P0 S32 2.118826 1_555
P1 S33 2.012413 1_545
P1 S17 2.052146 1_555
P1 S0 2.075176 1_645
P1 S51 2.113141 1_655
P2 S34 2.012732 1_555
P2 S18 2.053352 1_555
P2 S3 2.074832 1_555
P2 S52 2.113185 1_555
P3 S53 2.016238 1_565
P3 S2 2.048500 1_555
P3 S19 2.072122 1_465
P3 S35 2.116828 1_455
P4 S5 2.048399 1_555
P4 S54 2.059830 1_555
P4 S36 2.068727 1_555
P4 S20 2.073226 1_555
P5 S21 2.054966 1_455
P5 S37 2.064480 1_445
P5 S4 2.064602 1_545
P5 S55 2.067726 1_555
P6 S22 2.005515 1_555
P6 S7 2.063663 1_555
P6 S38 2.072667 1_555
P6 S48 2.115935 1_554
P7 S49 2.015061 1_654
P7 S6 2.063166 1_645
P7 S39 2.065678 1_545
P7 S23 2.114527 1_555
P8 S24 2.048398 1_555
P8 S62 2.059829 1_566
P8 S40 2.068727 1_555
P8 S8 2.073227 1_565
P9 S9 2.054967 1_455
P9 S41 2.064481 1_455
P9 S25 2.064601 1_555
P9 S63 2.067726 1_556
P10 S42 2.012732 1_545
P10 S10 2.053355 1_555
P10 S26 2.074834 1_545
P10 S56 2.113177 1_555
P11 S57 2.016242 1_555
P11 S27 2.048498 1_555
P11 S11 2.072125 1_455
P11 S43 2.116825 1_455
P12 S58 2.015367 1_565
P12 S28 2.049910 1_555
P12 S12 2.071575 1_565
P12 S44 2.118826 1_555
P13 S45 2.012413 1_555
P13 S13 2.052145 1_555
P13 S29 2.075176 1_655
P13 S59 2.113142 1_655
P14 S14 2.005516 1_555
P14 S30 2.063665 1_545
P14 S46 2.072668 1_545
P14 S60 2.115933 1_555
P15 S61 2.015061 1_655
P15 S31 2.063166 1_655
P15 S47 2.065679 1_555
P15 S15 2.114532 1_555
S0 Zn1 2.356426 1_565
S3 Zn2 2.361677 1_555
S4 Zn3 2.374396 1_565
S6 Zn0 2.391906 1_555
S8 Zn1 2.371784 1_555
S11 Zn2 2.372550 1_555
S12 Zn3 2.391034 1_555
S15 Zn0 2.414593 1_655
S16 Zn4 2.391033 1_555
S19 Zn5 2.372563 1_555
S20 Zn6 2.371803 1_555
S23 Zn7 2.414593 1_655
S25 Zn4 2.374401 1_555
S26 Zn5 2.361677 1_565
S29 Zn6 2.356423 1_555
S31 Zn7 2.391909 1_555
S32 Zn1 2.358667 1_555
S35 Zn2 2.357803 1_555
S36 Zn3 2.345775 1_555
S38 Zn7 2.348830 1_555
S40 Zn4 2.345780 1_555
S43 Zn5 2.357808 1_555
S44 Zn6 2.358669 1_555
S46 Zn0 2.348837 1_555
S48 Zn4 2.366027 1_555
S51 Zn5 2.361259 1_455
S52 Zn6 2.356315 1_555
S55 Zn0 2.366811 1_545
S56 Zn1 2.356327 1_555
S59 Zn2 2.361278 1_455
S60 Zn3 2.366033 1_555
S63 Zn7 2.366820 1_555
