# generated using pymatgen
data_YMg30SiO32
_symmetry_space_group_name_H-M   'P 1'
_cell_length_a   8.64458300
_cell_length_b   8.64458300
_cell_length_c   8.64371500
_cell_angle_alpha   90.00000000
_cell_angle_beta   90.00000000
_cell_angle_gamma   90.00000000
_symmetry_Int_Tables_number   1
_chemical_formula_structural   YMg30SiO32
_chemical_formula_sum   'Y1 Mg30 Si1 O32'
_cell_volume   645.93458126
_cell_formula_units_Z   1
loop_
 _symmetry_equiv_pos_site_id
 _symmetry_equiv_pos_as_xyz
  1  'x, y, z'
loop_
 _atom_site_type_symbol
 _atom_site_label
 _atom_site_symmetry_multiplicity
 _atom_site_fract_x
 _atom_site_fract_y
 _atom_site_fract_z
 _atom_site_occupancy
  Y  Y0  1  0.00000000  0.00000000  0.00000000  1
  Mg  Mg0  1  0.50000000  0.00000000  0.00000000  1
  Mg  Mg1  1  0.00000000  0.50000000  0.00000000  1
  Mg  Mg2  1  0.00000000  0.00000000  0.50000000  1
  Mg  Mg3  1  0.50000000  0.00000000  0.50000000  1
  Mg  Mg4  1  0.00000000  0.50000000  0.50000000  1
  Mg  Mg5  1  0.50000000  0.50000000  0.50000000  1
  Mg  Mg6  1  0.25524200  0.25524200  0.00000000  1
  Mg  Mg7  1  0.74475800  0.25524200  0.00000000  1
  Mg  Mg8  1  0.25524200  0.74475800  0.00000000  1
  Mg  Mg9  1  0.74475800  0.74475800  0.00000000  1
  Mg  Mg10  1  0.25084400  0.25084400  0.50000000  1
  Mg  Mg11  1  0.74915600  0.25084400  0.50000000  1
  Mg  Mg12  1  0.25084400  0.74915600  0.50000000  1
  Mg  Mg13  1  0.74915600  0.74915600  0.50000000  1
  Mg  Mg14  1  0.25632900  0.00000000  0.25629600  1
  Mg  Mg15  1  0.74367100  0.00000000  0.25629600  1
  Mg  Mg16  1  0.24958600  0.50000000  0.25201500  1
  Mg  Mg17  1  0.75041400  0.50000000  0.25201500  1
  Mg  Mg18  1  0.25632900  0.00000000  0.74370400  1
  Mg  Mg19  1  0.74367100  0.00000000  0.74370400  1
  Mg  Mg20  1  0.24958600  0.50000000  0.74798500  1
  Mg  Mg21  1  0.75041400  0.50000000  0.74798500  1
  Mg  Mg22  1  0.00000000  0.25632900  0.25629600  1
  Mg  Mg23  1  0.50000000  0.24958600  0.25201500  1
  Mg  Mg24  1  0.00000000  0.74367100  0.25629600  1
  Mg  Mg25  1  0.50000000  0.75041400  0.25201500  1
  Mg  Mg26  1  0.00000000  0.25632900  0.74370400  1
  Mg  Mg27  1  0.50000000  0.24958600  0.74798500  1
  Mg  Mg28  1  0.00000000  0.74367100  0.74370400  1
  Mg  Mg29  1  0.50000000  0.75041400  0.74798500  1
  Si  Si0  1  0.50000000  0.50000000  0.00000000  1
  O  O0  1  0.00000000  0.00000000  0.25888500  1
  O  O1  1  0.50000000  0.00000000  0.25190600  1
  O  O2  1  0.00000000  0.50000000  0.25190600  1
  O  O3  1  0.50000000  0.50000000  0.26035800  1
  O  O4  1  0.00000000  0.00000000  0.74111500  1
  O  O5  1  0.50000000  0.00000000  0.74809400  1
  O  O6  1  0.00000000  0.50000000  0.74809400  1
  O  O7  1  0.50000000  0.50000000  0.73964200  1
  O  O8  1  0.25000000  0.25000000  0.24852600  1
  O  O9  1  0.75000000  0.25000000  0.24852600  1
  O  O10  1  0.25000000  0.75000000  0.24852600  1
  O  O11  1  0.75000000  0.75000000  0.24852600  1
  O  O12  1  0.25000000  0.25000000  0.75147400  1
  O  O13  1  0.75000000  0.25000000  0.75147400  1
  O  O14  1  0.25000000  0.75000000  0.75147400  1
  O  O15  1  0.75000000  0.75000000  0.75147400  1
  O  O16  1  0.25794400  0.00000000  0.00000000  1
  O  O17  1  0.74205600  0.00000000  0.00000000  1
  O  O18  1  0.23989600  0.50000000  0.00000000  1
  O  O19  1  0.76010400  0.50000000  0.00000000  1
  O  O20  1  0.25087500  0.00000000  0.50000000  1
  O  O21  1  0.74912500  0.00000000  0.50000000  1
  O  O22  1  0.24883600  0.50000000  0.50000000  1
  O  O23  1  0.75116400  0.50000000  0.50000000  1
  O  O24  1  0.00000000  0.25794400  0.00000000  1
  O  O25  1  0.50000000  0.23989600  0.00000000  1
  O  O26  1  0.00000000  0.74205600  0.00000000  1
  O  O27  1  0.50000000  0.76010400  0.00000000  1
  O  O28  1  0.00000000  0.25087500  0.50000000  1
  O  O29  1  0.50000000  0.24883600  0.50000000  1
  O  O30  1  0.00000000  0.74912500  0.50000000  1
  O  O31  1  0.50000000  0.75116400  0.50000000  1
loop_
_geom_bond_atom_site_label_1
_geom_bond_atom_site_label_2
_geom_bond_distance
_geom_bond_site_symmetry_2
Mg0 O25 2.073801 1_555
Mg0 O27 2.073801 1_545
Mg0 O16 2.092473 1_555
Mg0 O17 2.092473 1_555
Mg0 O5 2.177404 1_554
Mg0 O1 2.177404 1_555
Mg1 O19 2.073801 1_455
Mg1 O18 2.073801 1_555
Mg1 O24 2.092473 1_555
Mg1 O26 2.092473 1_555
Mg1 O6 2.177404 1_554
Mg1 O2 2.177404 1_555
Mg2 O4 2.084129 1_555
Mg2 O0 2.084129 1_555
Mg2 O30 2.168710 1_545
Mg2 O21 2.168710 1_455
Mg2 O20 2.168710 1_555
Mg2 O28 2.168710 1_555
Mg3 O1 2.144454 1_555
Mg3 O5 2.144454 1_555
Mg3 O31 2.151083 1_545
Mg3 O29 2.151083 1_555
Mg3 O20 2.153582 1_555
Mg3 O21 2.153582 1_555
Mg4 O2 2.144454 1_555
Mg4 O6 2.144454 1_555
Mg4 O23 2.151083 1_455
Mg4 O22 2.151083 1_555
Mg4 O28 2.153582 1_555
Mg4 O30 2.153582 1_555
Mg5 O3 2.071397 1_555
Mg5 O7 2.071397 1_555
Mg5 O22 2.171208 1_555
Mg5 O29 2.171208 1_555
Mg5 O23 2.171208 1_555
Mg5 O31 2.171208 1_555
Mg6 O25 2.119986 1_555
Mg6 O18 2.119986 1_555
Mg6 O12 2.149144 1_554
Mg6 O8 2.149144 1_555
Mg6 O24 2.206584 1_555
Mg6 O16 2.206584 1_555
Mg7 O19 2.119986 1_555
Mg7 O25 2.119986 1_555
Mg7 O9 2.149144 1_555
Mg7 O13 2.149144 1_554
Mg7 O24 2.206584 1_655
Mg7 O17 2.206584 1_555
Mg8 O27 2.119986 1_555
Mg8 O18 2.119986 1_555
Mg8 O10 2.149144 1_555
Mg8 O14 2.149144 1_554
Mg8 O16 2.206584 1_565
Mg8 O26 2.206584 1_555
Mg9 O19 2.119986 1_555
Mg9 O27 2.119986 1_555
Mg9 O11 2.149144 1_555
Mg9 O15 2.149144 1_554
Mg9 O17 2.206584 1_565
Mg9 O26 2.206584 1_655
Mg10 O22 2.153920 1_555
Mg10 O29 2.153920 1_555
Mg10 O20 2.168442 1_555
Mg10 O28 2.168442 1_555
Mg10 O12 2.173694 1_555
Mg10 O8 2.173694 1_555
Mg11 O23 2.153920 1_555
Mg11 O29 2.153920 1_555
Mg11 O28 2.168442 1_655
Mg11 O21 2.168442 1_555
Mg11 O9 2.173694 1_555
Mg11 O13 2.173694 1_555
Mg12 O31 2.153920 1_555
Mg12 O22 2.153920 1_555
Mg12 O20 2.168442 1_565
Mg12 O30 2.168442 1_555
Mg12 O10 2.173694 1_555
Mg12 O14 2.173694 1_555
Mg13 O23 2.153920 1_555
Mg13 O31 2.153920 1_555
Mg13 O21 2.168442 1_565
Mg13 O30 2.168442 1_655
Mg13 O11 2.173694 1_555
Mg13 O15 2.173694 1_555
Mg14 O1 2.106776 1_555
Mg14 O20 2.107035 1_555
Mg14 O8 2.162881 1_555
Mg14 O10 2.162881 1_545
Mg14 O16 2.215394 1_555
Mg14 O0 2.215970 1_555
Mg15 O1 2.106776 1_555
Mg15 O21 2.107035 1_555
Mg15 O9 2.162881 1_555
Mg15 O11 2.162881 1_545
Mg15 O17 2.215394 1_555
Mg15 O0 2.215970 1_655
Mg16 O22 2.143521 1_555
Mg16 O2 2.157567 1_555
Mg16 O8 2.161359 1_555
Mg16 O10 2.161359 1_555
Mg16 O3 2.165925 1_555
Mg16 O18 2.179956 1_555
Mg17 O23 2.143521 1_555
Mg17 O2 2.157567 1_655
Mg17 O11 2.161359 1_555
Mg17 O9 2.161359 1_555
Mg17 O3 2.165925 1_555
Mg17 O19 2.179956 1_555
Mg18 O5 2.106776 1_555
Mg18 O20 2.107035 1_555
Mg18 O14 2.162881 1_545
Mg18 O12 2.162881 1_555
Mg18 O16 2.215394 1_556
Mg18 O4 2.215970 1_555
Mg19 O5 2.106776 1_555
Mg19 O21 2.107035 1_555
Mg19 O15 2.162881 1_545
Mg19 O13 2.162881 1_555
Mg19 O17 2.215394 1_556
Mg19 O4 2.215970 1_655
Mg20 O22 2.143521 1_555
Mg20 O6 2.157567 1_555
Mg20 O14 2.161359 1_555
Mg20 O12 2.161359 1_555
Mg20 O7 2.165925 1_555
Mg20 O18 2.179956 1_556
Mg21 O23 2.143521 1_555
Mg21 O6 2.157567 1_655
Mg21 O15 2.161359 1_555
Mg21 O13 2.161359 1_555
Mg21 O7 2.165925 1_555
Mg21 O19 2.179956 1_556
Mg22 O2 2.106776 1_555
Mg22 O28 2.107035 1_555
Mg22 O8 2.162881 1_555
Mg22 O9 2.162881 1_455
Mg22 O24 2.215394 1_555
Mg22 O0 2.215970 1_555
Mg23 O29 2.143521 1_555
Mg23 O1 2.157567 1_555
Mg23 O8 2.161359 1_555
Mg23 O9 2.161359 1_555
Mg23 O3 2.165925 1_555
Mg23 O25 2.179956 1_555
Mg24 O2 2.106776 1_555
Mg24 O30 2.107035 1_555
Mg24 O10 2.162881 1_555
Mg24 O11 2.162881 1_455
Mg24 O26 2.215394 1_555
Mg24 O0 2.215970 1_565
Mg25 O31 2.143521 1_555
Mg25 O1 2.157567 1_565
Mg25 O11 2.161359 1_555
Mg25 O10 2.161359 1_555
Mg25 O3 2.165925 1_555
Mg25 O27 2.179956 1_555
Mg26 O6 2.106776 1_555
Mg26 O28 2.107035 1_555
Mg26 O13 2.162881 1_455
Mg26 O12 2.162881 1_555
Mg26 O24 2.215394 1_556
Mg26 O4 2.215970 1_555
Mg27 O29 2.143521 1_555
Mg27 O5 2.157567 1_555
Mg27 O13 2.161359 1_555
Mg27 O12 2.161359 1_555
Mg27 O7 2.165925 1_555
Mg27 O25 2.179956 1_556
Mg28 O6 2.106776 1_555
Mg28 O30 2.107035 1_555
Mg28 O14 2.162881 1_555
Mg28 O15 2.162881 1_455
Mg28 O26 2.215394 1_556
Mg28 O4 2.215970 1_565
Mg29 O31 2.143521 1_555
Mg29 O5 2.157567 1_565
Mg29 O14 2.161359 1_555
Mg29 O15 2.161359 1_555
Mg29 O7 2.165925 1_555
Mg29 O27 2.179956 1_556
O0 Y0 2.237728 1_555
O3 Si0 2.250460 1_555
O4 Y0 2.237728 1_556
O7 Si0 2.250460 1_556
O16 Y0 2.229818 1_555
O17 Y0 2.229818 1_655
O18 Si0 2.248491 1_555
O19 Si0 2.248491 1_555
O24 Y0 2.229818 1_555
O25 Si0 2.248491 1_555
O26 Y0 2.229818 1_565
O27 Si0 2.248491 1_555
