# generated using pymatgen
data_TbMg3
_symmetry_space_group_name_H-M   'P 1'
_cell_length_a   6.67671749
_cell_length_b   6.67671749
_cell_length_c   5.16797918
_cell_angle_alpha   90.00000000
_cell_angle_beta   90.00000000
_cell_angle_gamma   120.00004090
_symmetry_Int_Tables_number   1
_chemical_formula_structural   TbMg3
_chemical_formula_sum   'Tb2 Mg6'
_cell_volume   199.51576084
_cell_formula_units_Z   2
loop_
 _symmetry_equiv_pos_site_id
 _symmetry_equiv_pos_as_xyz
  1  'x, y, z'
loop_
 _atom_site_type_symbol
 _atom_site_label
 _atom_site_symmetry_multiplicity
 _atom_site_fract_x
 _atom_site_fract_y
 _atom_site_fract_z
 _atom_site_occupancy
  Tb  Tb0  1  0.66666700  0.33333300  0.25000000  1
  Tb  Tb1  1  0.33333300  0.66666700  0.75000000  1
  Mg  Mg0  1  0.16303028  0.32605955  0.25000000  1
  Mg  Mg1  1  0.67394045  0.83696972  0.25000000  1
  Mg  Mg2  1  0.16303028  0.83696972  0.25000000  1
  Mg  Mg3  1  0.83696972  0.16303028  0.75000000  1
  Mg  Mg4  1  0.32605955  0.16303028  0.75000000  1
  Mg  Mg5  1  0.83696972  0.67394045  0.75000000  1
loop_
_geom_bond_atom_site_label_1
_geom_bond_atom_site_label_2
_geom_bond_distance
_geom_bond_site_symmetry_2
Mg0 Mg4 3.198672 1_555
Mg0 Mg4 3.198672 1_554
Mg0 Mg3 3.198678 1_455
Mg0 Mg3 3.198678 1_454
Mg0 Tb1 3.248966 1_554
Mg0 Tb1 3.248966 1_555
Mg0 Mg1 3.265513 1_445
Mg0 Mg2 3.265515 1_545
Mg0 Tb0 3.338624 1_555
Mg0 Tb0 3.338624 1_455
Mg0 Mg1 3.411201 1_555
Mg0 Mg2 3.411203 1_555
Mg1 Mg5 3.198672 1_555
Mg1 Mg5 3.198672 1_554
Mg1 Mg3 3.198678 1_564
Mg1 Mg3 3.198678 1_565
Mg1 Tb1 3.248966 1_554
Mg1 Tb1 3.248966 1_555
Mg1 Mg2 3.265515 1_655
Mg1 Tb0 3.338624 1_555
Mg1 Tb0 3.338624 1_565
Mg1 Mg2 3.411203 1_555
Mg2 Mg5 3.198678 1_454
Mg2 Mg5 3.198678 1_455
Mg2 Mg4 3.198678 1_565
Mg2 Mg4 3.198678 1_564
Mg2 Tb1 3.248960 1_554
Mg2 Tb1 3.248960 1_555
Mg2 Tb0 3.338622 1_455
Mg2 Tb0 3.338622 1_565
Mg3 Tb0 3.248960 1_555
Mg3 Tb0 3.248960 1_556
Mg3 Mg5 3.265515 1_545
Mg3 Mg4 3.265515 1_655
Mg3 Tb1 3.338622 1_545
Mg3 Tb1 3.338622 1_655
Mg3 Mg5 3.411203 1_555
Mg3 Mg4 3.411203 1_555
Mg4 Tb0 3.248966 1_555
Mg4 Tb0 3.248966 1_556
Mg4 Mg5 3.265513 1_445
Mg4 Tb1 3.338624 1_555
Mg4 Tb1 3.338624 1_545
Mg4 Mg5 3.411201 1_555
Mg5 Tb0 3.248966 1_555
Mg5 Tb0 3.248966 1_556
Mg5 Tb1 3.338624 1_555
Mg5 Tb1 3.338624 1_655
