# generated using pymatgen
data_Ba4Hf3S10
_symmetry_space_group_name_H-M   'P 1'
_cell_length_a   18.23506889
_cell_length_b   18.23506889
_cell_length_c   18.23506889
_cell_angle_alpha   164.23357844
_cell_angle_beta   164.23357844
_cell_angle_gamma   22.36859029
_symmetry_Int_Tables_number   1
_chemical_formula_structural   Ba4Hf3S10
_chemical_formula_sum   'Ba4 Hf3 S10'
_cell_volume   447.58316421
_cell_formula_units_Z   1
loop_
 _symmetry_equiv_pos_site_id
 _symmetry_equiv_pos_as_xyz
  1  'x, y, z'
loop_
 _atom_site_type_symbol
 _atom_site_label
 _atom_site_symmetry_multiplicity
 _atom_site_fract_x
 _atom_site_fract_y
 _atom_site_fract_z
 _atom_site_occupancy
  Ba  Ba0  1  0.43147000  0.43147000  0.00000000  1
  Ba  Ba1  1  0.56853000  0.56853000  0.00000000  1
  Ba  Ba2  1  0.29966300  0.29966300  0.00000000  1
  Ba  Ba3  1  0.70033700  0.70033700  0.00000000  1
  Hf  Hf0  1  0.00000000  0.00000000  0.00000000  1
  Hf  Hf1  1  0.85749600  0.85749600  0.00000000  1
  Hf  Hf2  1  0.14250400  0.14250400  0.00000000  1
  S  S0  1  0.92951300  0.92951300  0.00000000  1
  S  S1  1  0.07048700  0.07048700  0.00000000  1
  S  S2  1  0.78780600  0.78780600  0.00000000  1
  S  S3  1  0.21219400  0.21219400  0.00000000  1
  S  S4  1  0.50000000  0.00000000  0.50000000  1
  S  S5  1  0.00000000  0.50000000  0.50000000  1
  S  S6  1  0.36073200  0.86073200  0.50000000  1
  S  S7  1  0.13926800  0.63926800  0.50000000  1
  S  S8  1  0.63926800  0.13926800  0.50000000  1
  S  S9  1  0.86073200  0.36073200  0.50000000  1
loop_
_geom_bond_atom_site_label_1
_geom_bond_atom_site_label_2
_geom_bond_distance
_geom_bond_site_symmetry_2
Ba0 S4 3.502367 1_565
Ba0 S5 3.502367 1_554
Ba0 S4 3.502367 1_554
Ba0 S5 3.502367 1_655
Ba0 S0 3.537667 1_455
Ba0 S0 3.537667 1_556
Ba0 S0 3.537667 1_444
Ba0 S0 3.537667 1_545
Ba0 S6 3.558116 1_555
Ba0 S9 3.558116 1_555
Ba0 S9 3.558116 1_454
Ba0 S6 3.558116 1_544
Ba1 S4 3.502367 1_565
Ba1 S5 3.502367 1_655
Ba1 S4 3.502367 1_554
Ba1 S5 3.502367 1_554
Ba1 S1 3.537667 1_554
Ba1 S1 3.537667 1_666
Ba1 S1 3.537667 1_565
Ba1 S1 3.537667 1_655
Ba1 S7 3.558116 1_655
Ba1 S8 3.558116 1_565
Ba1 S7 3.558116 1_554
Ba1 S8 3.558116 1_554
Ba2 S3 3.129423 1_555
Ba2 S6 3.320973 1_555
Ba2 S9 3.320973 1_555
Ba2 S6 3.320973 1_544
Ba2 S9 3.320973 1_454
Ba2 S2 3.562322 1_545
Ba2 S2 3.562322 1_455
Ba2 S2 3.562322 1_444
Ba2 S2 3.562322 1_556
Ba3 S2 3.129423 1_555
Ba3 S7 3.320973 1_554
Ba3 S8 3.320973 1_565
Ba3 S7 3.320973 1_655
Ba3 S8 3.320973 1_554
Ba3 S3 3.562322 1_554
Ba3 S3 3.562322 1_655
Ba3 S3 3.562322 1_565
Ba3 S3 3.562322 1_666
Hf0 S5 2.501018 1_555
Hf0 S4 2.501018 1_555
Hf0 S5 2.501018 1_544
Hf0 S4 2.501018 1_454
Hf0 S1 2.521849 1_555
Hf0 S0 2.521849 1_445
Hf1 S2 2.493335 1_555
Hf1 S9 2.503696 1_554
Hf1 S6 2.503696 1_554
Hf1 S9 2.503696 1_565
Hf1 S6 2.503696 1_655
Hf1 S0 2.576589 1_555
Hf2 S3 2.493335 1_555
Hf2 S7 2.503696 1_555
Hf2 S7 2.503696 1_544
Hf2 S8 2.503696 1_454
Hf2 S8 2.503696 1_555
Hf2 S1 2.576589 1_555
