# generated using pymatgen
data_LuZrF7
_symmetry_space_group_name_H-M   'P 1'
_cell_length_a   5.60520137
_cell_length_b   5.91326806
_cell_length_c   8.06899684
_cell_angle_alpha   103.00521425
_cell_angle_beta   90.00000000
_cell_angle_gamma   90.00000000
_symmetry_Int_Tables_number   1
_chemical_formula_structural   LuZrF7
_chemical_formula_sum   'Lu2 Zr2 F14'
_cell_volume   260.58723521
_cell_formula_units_Z   2
loop_
 _symmetry_equiv_pos_site_id
 _symmetry_equiv_pos_as_xyz
  1  'x, y, z'
loop_
 _atom_site_type_symbol
 _atom_site_label
 _atom_site_symmetry_multiplicity
 _atom_site_fract_x
 _atom_site_fract_y
 _atom_site_fract_z
 _atom_site_occupancy
  Lu  Lu0  1  0.69773387  0.65131220  0.68496901  1
  Lu  Lu1  1  0.19773387  0.34868780  0.31503099  1
  Zr  Zr0  1  0.70741117  0.81458500  0.22681969  1
  Zr  Zr1  1  0.20741117  0.18541500  0.77318031  1
  F  F0  1  0.89958029  0.46704832  0.47876062  1
  F  F1  1  0.39958029  0.53295168  0.52123938  1
  F  F2  1  0.43287856  0.91828968  0.76817444  1
  F  F3  1  0.93287856  0.08171032  0.23182556  1
  F  F4  1  0.94946041  0.94106771  0.75770548  1
  F  F5  1  0.44946041  0.05893229  0.24229452  1
  F  F6  1  0.98859750  0.45917548  0.78802747  1
  F  F7  1  0.48859750  0.54082452  0.21197253  1
  F  F8  1  0.69611448  0.75329938  0.97262164  1
  F  F9  1  0.19611448  0.24670062  0.02737836  1
  F  F10  1  0.69582037  0.86861618  0.48184739  1
  F  F11  1  0.19582037  0.13138382  0.51815261  1
  F  F12  1  0.50876234  0.37724035  0.77980712  1
  F  F13  1  0.00876234  0.62275965  0.22019288  1
loop_
_geom_bond_atom_site_label_1
_geom_bond_atom_site_label_2
_geom_bond_distance
_geom_bond_site_symmetry_2
F0 Lu0 2.102340 1_555
F0 Lu1 2.147563 1_655
F1 Lu1 2.102340 1_555
F1 Lu0 2.147563 1_555
F2 Zr1 2.016225 1_565
F2 Lu0 2.161012 1_555
F3 Zr0 2.016225 1_545
F3 Lu1 2.161012 1_655
F4 Zr1 2.027961 1_665
F4 Lu0 2.195100 1_555
F5 Zr0 2.027961 1_545
F5 Lu1 2.195100 1_555
F6 Zr1 2.012941 1_655
F6 Lu0 2.250699 1_555
F7 Zr0 2.012941 1_555
F7 Lu1 2.250699 1_555
F8 Zr0 2.001973 1_556
F8 Lu0 2.262991 1_555
F9 Zr1 2.001973 1_554
F9 Lu1 2.262991 1_555
F10 Zr0 2.011218 1_555
F10 Lu0 2.299012 1_555
F11 Zr1 2.011218 1_555
F11 Lu1 2.299012 1_555
F12 Zr1 2.028646 1_555
F12 Lu0 2.211852 1_555
F13 Zr0 2.028646 1_455
F13 Lu1 2.211852 1_555
