# generated using pymatgen
data_EuP3
_symmetry_space_group_name_H-M   'P 1'
_cell_length_a   6.73445512
_cell_length_b   6.73460838
_cell_length_c   8.36664208
_cell_angle_alpha   78.30832620
_cell_angle_beta   78.30871781
_cell_angle_gamma   66.28023064
_symmetry_Int_Tables_number   1
_chemical_formula_structural   EuP3
_chemical_formula_sum   'Eu4 P12'
_cell_volume   337.07785724
_cell_formula_units_Z   4
loop_
 _symmetry_equiv_pos_site_id
 _symmetry_equiv_pos_as_xyz
  1  'x, y, z'
loop_
 _atom_site_type_symbol
 _atom_site_label
 _atom_site_symmetry_multiplicity
 _atom_site_fract_x
 _atom_site_fract_y
 _atom_site_fract_z
 _atom_site_occupancy
  Eu  Eu0  1  0.70690691  0.70690891  0.22565770  1
  Eu  Eu1  1  0.29309885  0.29309685  0.77433285  1
  Eu  Eu2  1  0.04391576  0.04391476  0.26007875  1
  Eu  Eu3  1  0.95608519  0.95608619  0.73992206  1
  P  P0  1  0.32374953  0.32374852  0.15910359  1
  P  P1  1  0.67624770  0.67624970  0.84090372  1
  P  P2  1  0.42045637  0.42045837  0.36406604  1
  P  P3  1  0.57954518  0.57954318  0.63593259  1
  P  P4  1  0.15988356  0.64119004  0.02083530  1
  P  P5  1  0.64118804  0.15988456  0.02083630  1
  P  P6  1  0.84011014  0.35881275  0.97917284  1
  P  P7  1  0.35881375  0.84011014  0.97917184  1
  P  P8  1  0.09508108  0.60584646  0.48823340  1
  P  P9  1  0.60584745  0.09508008  0.48823640  1
  P  P10  1  0.90491128  0.39415920  0.51175931  1
  P  P11  1  0.39415820  0.90491228  0.51175631  1
loop_
_geom_bond_atom_site_label_1
_geom_bond_atom_site_label_2
_geom_bond_distance
_geom_bond_site_symmetry_2
Eu0 P11 2.989113 1_555
Eu0 P10 2.989125 1_555
Eu0 P4 3.088843 1_655
Eu0 P5 3.088880 1_565
Eu0 P2 3.157087 1_555
Eu0 P7 3.173426 1_554
Eu0 P6 3.173490 1_554
Eu0 P1 3.319776 1_554
Eu1 P9 2.989128 1_555
Eu1 P8 2.989141 1_555
Eu1 P6 3.088969 1_455
Eu1 P7 3.089001 1_545
Eu1 P3 3.157034 1_555
Eu1 P5 3.173504 1_556
Eu1 P4 3.173573 1_556
Eu1 P0 3.319885 1_556
Eu2 P6 2.974960 1_454
Eu2 P7 2.974976 1_544
Eu2 P0 3.063261 1_555
Eu2 P9 3.103622 1_455
Eu2 P8 3.103650 1_545
Eu2 P11 3.211116 1_545
Eu2 P10 3.211201 1_455
Eu2 P5 3.440170 1_455
Eu2 P4 3.440230 1_545
Eu3 P4 2.974985 1_656
Eu3 P5 2.975005 1_566
Eu3 P1 3.063297 1_555
Eu3 P11 3.103668 1_655
Eu3 P10 3.103697 1_565
Eu3 P9 3.211151 1_565
Eu3 P8 3.211236 1_655
Eu3 P7 3.440209 1_655
Eu3 P6 3.440273 1_565
P0 P5 2.177916 1_555
P0 P4 2.177952 1_555
P0 P2 2.244012 1_555
P1 P7 2.177893 1_555
P1 P6 2.177929 1_555
P1 P3 2.244047 1_555
P2 P8 2.200364 1_555
P2 P9 2.200407 1_555
P4 P7 2.185475 1_554
P5 P6 2.185475 1_554
P10 P3 2.200334 1_555
P10 P8 2.228080 1_655
P11 P3 2.200378 1_555
P11 P9 2.228085 1_565
