# generated using pymatgen
data_Lu2CoGe2
_symmetry_space_group_name_H-M   'P 1'
_cell_length_a   5.45556822
_cell_length_b   5.45556822
_cell_length_c   9.91939014
_cell_angle_alpha   64.95182556
_cell_angle_beta   64.95182556
_cell_angle_gamma   44.22414080
_symmetry_Int_Tables_number   1
_chemical_formula_structural   Lu2CoGe2
_chemical_formula_sum   'Lu4 Co2 Ge4'
_cell_volume   183.15565189
_cell_formula_units_Z   2
loop_
 _symmetry_equiv_pos_site_id
 _symmetry_equiv_pos_as_xyz
  1  'x, y, z'
loop_
 _atom_site_type_symbol
 _atom_site_label
 _atom_site_symmetry_multiplicity
 _atom_site_fract_x
 _atom_site_fract_y
 _atom_site_fract_z
 _atom_site_occupancy
  Lu  Lu0  1  0.18888585  0.18888585  0.88315457  1
  Lu  Lu1  1  0.81111415  0.81111415  0.11684543  1
  Lu  Lu2  1  0.00759199  0.00759199  0.66634644  1
  Lu  Lu3  1  0.99240801  0.99240801  0.33365356  1
  Co  Co0  1  0.27329437  0.27329437  0.34187545  1
  Co  Co1  1  0.72670563  0.72670563  0.65812455  1
  Ge  Ge0  1  0.48368686  0.48368686  0.87866049  1
  Ge  Ge1  1  0.51631314  0.51631314  0.12133951  1
  Ge  Ge2  1  0.34429817  0.34429817  0.56073449  1
  Ge  Ge3  1  0.65570183  0.65570183  0.43926551  1
loop_
_geom_bond_atom_site_label_1
_geom_bond_atom_site_label_2
_geom_bond_distance
_geom_bond_site_symmetry_2
Co0 Ge3 2.348167 1_455
Co0 Ge3 2.348167 1_545
Co0 Ge1 2.430758 1_555
Co0 Ge2 2.579215 1_555
Co0 Lu3 2.877557 1_445
Co0 Lu1 2.926761 1_545
Co0 Lu1 2.926761 1_455
Co0 Lu3 2.994109 1_545
Co0 Lu3 2.994109 1_455
Co0 Lu2 3.109980 1_555
Co1 Ge2 2.348167 1_565
Co1 Ge2 2.348167 1_655
Co1 Ge0 2.430758 1_555
Co1 Ge3 2.579215 1_555
Co1 Lu2 2.877557 1_665
Co1 Lu0 2.926761 1_655
Co1 Lu0 2.926761 1_565
Co1 Lu2 2.994109 1_655
Co1 Lu2 2.994109 1_565
Co1 Lu3 3.109980 1_555
Ge0 Ge1 2.574713 1_556
Ge0 Lu2 2.871549 1_655
Ge0 Lu2 2.871549 1_565
Ge0 Lu0 2.933654 1_655
Ge0 Lu0 2.933654 1_565
Ge0 Lu0 2.959924 1_555
Ge0 Lu1 3.012546 1_546
Ge0 Lu1 3.012546 1_456
Ge1 Lu3 2.871549 1_545
Ge1 Lu3 2.871549 1_455
Ge1 Lu1 2.933654 1_455
Ge1 Lu1 2.933654 1_545
Ge1 Lu1 2.959924 1_555
Ge1 Lu0 3.012546 1_654
Ge1 Lu0 3.012546 1_564
Ge2 Ge3 2.809661 1_555
Ge2 Lu0 2.846819 1_555
Ge2 Lu3 2.906923 1_545
Ge2 Lu3 2.906923 1_455
Ge2 Lu2 3.069729 1_555
Ge2 Lu2 3.101599 1_565
Ge2 Lu2 3.101599 1_655
Ge3 Lu1 2.846819 1_555
Ge3 Lu2 2.906923 1_565
Ge3 Lu2 2.906923 1_655
Ge3 Lu3 3.069729 1_555
Ge3 Lu3 3.101599 1_545
Ge3 Lu3 3.101599 1_455
