# generated using pymatgen
data_Li14Ce5Si11N19O7F2
_symmetry_space_group_name_H-M   'P 1'
_cell_length_a   7.69520290
_cell_length_b   10.09608373
_cell_length_c   17.24850853
_cell_angle_alpha   90.00000000
_cell_angle_beta   90.00000000
_cell_angle_gamma   90.00000000
_symmetry_Int_Tables_number   1
_chemical_formula_structural   Li14Ce5Si11N19O7F2
_chemical_formula_sum   'Li28 Ce10 Si22 N38 O14 F4'
_cell_volume   1340.06099635
_cell_formula_units_Z   2
loop_
 _symmetry_equiv_pos_site_id
 _symmetry_equiv_pos_as_xyz
  1  'x, y, z'
loop_
 _atom_site_type_symbol
 _atom_site_label
 _atom_site_symmetry_multiplicity
 _atom_site_fract_x
 _atom_site_fract_y
 _atom_site_fract_z
 _atom_site_occupancy
  Li  Li0  1  0.75000000  0.75575381  0.06579070  1
  Li  Li1  1  0.75000000  0.75095763  0.43592963  1
  Li  Li2  1  0.25000000  0.24904237  0.93592963  1
  Li  Li3  1  0.25000000  0.24424619  0.56579070  1
  Li  Li4  1  0.75000000  0.45670187  0.01248983  1
  Li  Li5  1  0.75000000  0.45511067  0.48761487  1
  Li  Li6  1  0.25000000  0.54488933  0.98761487  1
  Li  Li7  1  0.25000000  0.54329813  0.51248983  1
  Li  Li8  1  0.75000000  0.52807169  0.85189633  1
  Li  Li9  1  0.75000000  0.52763556  0.64798404  1
  Li  Li10  1  0.25000000  0.47236444  0.14798404  1
  Li  Li11  1  0.25000000  0.47192831  0.35189633  1
  Li  Li12  1  0.41169951  0.01055817  0.82709085  1
  Li  Li13  1  0.40318206  0.01322441  0.67141942  1
  Li  Li14  1  0.08830049  0.01055817  0.82709085  1
  Li  Li15  1  0.09681794  0.01322441  0.67141942  1
  Li  Li16  1  0.59681794  0.98677559  0.17141942  1
  Li  Li17  1  0.58830049  0.98944183  0.32709085  1
  Li  Li18  1  0.90318206  0.98677559  0.17141942  1
  Li  Li19  1  0.91169951  0.98944183  0.32709085  1
  Li  Li20  1  0.49784688  0.37655657  0.88450472  1
  Li  Li21  1  0.49691650  0.37605229  0.61515345  1
  Li  Li22  1  0.00215312  0.37655657  0.88450472  1
  Li  Li23  1  0.00308350  0.37605229  0.61515345  1
  Li  Li24  1  0.50308350  0.62394771  0.11515345  1
  Li  Li25  1  0.50215312  0.62344343  0.38450472  1
  Li  Li26  1  0.99691650  0.62394771  0.11515345  1
  Li  Li27  1  0.99784688  0.62344343  0.38450472  1
  Ce  Ce0  1  0.48888742  0.27201183  0.24995781  1
  Ce  Ce1  1  0.01111258  0.27201183  0.24995781  1
  Ce  Ce2  1  0.51111258  0.72798817  0.74995781  1
  Ce  Ce3  1  0.98888742  0.72798817  0.74995781  1
  Ce  Ce4  1  0.25000000  0.81539864  0.24997831  1
  Ce  Ce5  1  0.75000000  0.18460136  0.74997831  1
  Ce  Ce6  1  0.51126448  0.99782716  0.00430757  1
  Ce  Ce7  1  0.48873552  0.00217284  0.50430757  1
  Ce  Ce8  1  0.98873552  0.99782716  0.00430757  1
  Ce  Ce9  1  0.01126448  0.00217284  0.50430757  1
  Si  Si0  1  0.45490739  0.30290677  0.06425573  1
  Si  Si1  1  0.45491848  0.30291331  0.43576140  1
  Si  Si2  1  0.04509261  0.30290677  0.06425573  1
  Si  Si3  1  0.04508152  0.30291331  0.43576140  1
  Si  Si4  1  0.54508152  0.69708669  0.93576140  1
  Si  Si5  1  0.54509261  0.69709323  0.56425573  1
  Si  Si6  1  0.95491848  0.69708669  0.93576140  1
  Si  Si7  1  0.95490739  0.69709323  0.56425573  1
  Si  Si8  1  0.25000000  0.08144500  0.14853945  1
  Si  Si9  1  0.25000000  0.08166884  0.35163896  1
  Si  Si10  1  0.75000000  0.91833116  0.85163896  1
  Si  Si11  1  0.75000000  0.91855500  0.64853945  1
  Si  Si12  1  0.25000000  0.77113101  0.06685604  1
  Si  Si13  1  0.25000000  0.77131070  0.43308479  1
  Si  Si14  1  0.75000000  0.22868930  0.93308479  1
  Si  Si15  1  0.75000000  0.22886899  0.56685604  1
  Si  Si16  1  0.75000000  0.47844446  0.15788903  1
  Si  Si17  1  0.75000000  0.47842244  0.34206428  1
  Si  Si18  1  0.25000000  0.52157756  0.84206428  1
  Si  Si19  1  0.25000000  0.52155554  0.65788903  1
  Si  Si20  1  0.75000000  0.74092291  0.25017342  1
  Si  Si21  1  0.25000000  0.25907709  0.75017342  1
  N  N0  1  0.56045813  0.42401509  0.11782430  1
  N  N1  1  0.56014279  0.42367353  0.38174268  1
  N  N2  1  0.93954187  0.42401509  0.11782430  1
  N  N3  1  0.93985721  0.42367353  0.38174268  1
  N  N4  1  0.43985721  0.57632647  0.88174268  1
  N  N5  1  0.43954187  0.57598491  0.61782430  1
  N  N6  1  0.06014279  0.57632647  0.88174268  1
  N  N7  1  0.06045813  0.57598491  0.61782430  1
  N  N8  1  0.55626108  0.25467189  0.97908184  1
  N  N9  1  0.55761631  0.25634495  0.52070630  1
  N  N10  1  0.94373892  0.25467189  0.97908184  1
  N  N11  1  0.94238369  0.25634495  0.52070630  1
  N  N12  1  0.44238369  0.74365505  0.02070630  1
  N  N13  1  0.44373892  0.74532811  0.47908184  1
  N  N14  1  0.05761631  0.74365505  0.02070630  1
  N  N15  1  0.05626108  0.74532811  0.47908184  1
  N  N16  1  0.75000000  0.64736691  0.16618046  1
  N  N17  1  0.75000000  0.64750969  0.33436838  1
  N  N18  1  0.25000000  0.35249031  0.83436838  1
  N  N19  1  0.25000000  0.35263309  0.66618046  1
  N  N20  1  0.55744935  0.84329754  0.87837728  1
  N  N21  1  0.55811708  0.84223884  0.62240472  1
  N  N22  1  0.94255065  0.84329754  0.87837728  1
  N  N23  1  0.94188292  0.84223884  0.62240472  1
  N  N24  1  0.44188292  0.15776116  0.12240472  1
  N  N25  1  0.44255065  0.15670246  0.37837728  1
  N  N26  1  0.05811708  0.15776116  0.12240472  1
  N  N27  1  0.05744935  0.15670246  0.37837728  1
  N  N28  1  0.75000000  0.93451598  0.75010118  1
  N  N29  1  0.25000000  0.06548402  0.25010118  1
  N  N30  1  0.25000000  0.36162458  0.04111071  1
  N  N31  1  0.25000000  0.36168078  0.45853311  1
  N  N32  1  0.75000000  0.63831922  0.95853311  1
  N  N33  1  0.75000000  0.63837542  0.54111071  1
  N  N34  1  0.25000000  0.92782782  0.10522737  1
  N  N35  1  0.25000000  0.92766181  0.39444103  1
  N  N36  1  0.75000000  0.07233819  0.89444103  1
  N  N37  1  0.75000000  0.07217218  0.60522737  1
  O  O0  1  0.25000000  0.58983078  0.74993076  1
  O  O1  1  0.75000000  0.41016922  0.24993076  1
  O  O2  1  0.75000000  0.33491885  0.85661893  1
  O  O3  1  0.75000000  0.33450314  0.64362975  1
  O  O4  1  0.25000000  0.66549686  0.14362975  1
  O  O5  1  0.25000000  0.66508115  0.35661893  1
  O  O6  1  0.57355994  0.84292306  0.25048900  1
  O  O7  1  0.92644006  0.84292306  0.25048900  1
  O  O8  1  0.42644006  0.15707694  0.75048900  1
  O  O9  1  0.07355994  0.15707694  0.75048900  1
  O  O10  1  0.75000000  0.95161935  0.07860834  1
  O  O11  1  0.25000000  0.04838065  0.57860834  1
  O  O12  1  0.75000000  0.60974737  0.74990570  1
  O  O13  1  0.25000000  0.39025263  0.24990570  1
  F  F0  1  0.75000000  0.94660316  0.41224743  1
  F  F1  1  0.25000000  0.05339684  0.91224743  1
  F  F2  1  0.75000000  0.09304353  0.25101302  1
  F  F3  1  0.25000000  0.90695647  0.75101302  1
loop_
_geom_bond_atom_site_label_1
_geom_bond_atom_site_label_2
_geom_bond_distance
_geom_bond_site_symmetry_2
Li0 O10 1.989795 1_555
Li0 N16 2.048366 1_555
Li0 N32 2.197349 1_554
Li0 N14 2.494621 1_655
Li0 N12 2.494621 1_555
Li1 N17 2.039496 1_555
Li1 N33 2.140872 1_555
Li1 N13 2.472136 1_555
Li1 N15 2.472136 1_655
Li2 N18 2.039496 1_555
Li2 N30 2.140872 1_556
Li2 N8 2.472136 1_555
Li2 N10 2.472136 1_455
Li3 O11 1.989795 1_555
Li3 N19 2.048366 1_555
Li3 N31 2.197349 1_555
Li3 N11 2.494621 1_455
Li3 N9 2.494621 1_555
Li4 N32 2.056290 1_554
Li4 N0 2.353147 1_555
Li4 N2 2.353147 1_555
Li4 N10 2.591358 1_554
Li4 N8 2.591358 1_554
Li5 N33 2.067575 1_555
Li5 N3 2.360086 1_555
Li5 N1 2.360086 1_555
Li5 N11 2.558228 1_555
Li5 N9 2.558228 1_555
Li6 N30 2.067575 1_556
Li6 N6 2.360086 1_555
Li6 N4 2.360086 1_555
Li6 N12 2.558228 1_556
Li6 N14 2.558228 1_556
Li7 N31 2.056290 1_555
Li7 N7 2.353147 1_555
Li7 N5 2.353147 1_555
Li7 N15 2.591358 1_555
Li7 N13 2.591358 1_555
Li8 O12 1.942861 1_555
Li8 O2 1.951788 1_555
Li8 N32 2.149893 1_555
Li8 N4 2.489636 1_555
Li8 N6 2.489636 1_655
Li9 O12 1.943658 1_555
Li9 O3 1.951327 1_555
Li9 N33 2.155958 1_555
Li9 N7 2.493272 1_655
Li9 N5 2.493272 1_555
Li10 O13 1.943658 1_555
Li10 O4 1.951327 1_555
Li10 N30 2.155958 1_555
Li10 N2 2.493272 1_455
Li10 N0 2.493272 1_555
Li11 O13 1.942861 1_555
Li11 O5 1.951788 1_555
Li11 N31 2.149893 1_555
Li11 N3 2.489636 1_455
Li11 N1 2.489636 1_555
Li12 O8 1.986666 1_555
Li12 N20 2.211810 1_545
Li13 O8 2.000346 1_555
Li13 O11 2.019456 1_555
Li13 N21 2.261921 1_545
Li14 O9 1.986666 1_555
Li14 N22 2.211810 1_445
Li15 O9 2.000346 1_555
Li15 O11 2.019456 1_555
Li15 N23 2.261921 1_445
Li16 O6 2.000346 1_555
Li16 O10 2.019456 1_555
Li16 N24 2.261921 1_565
Li17 O6 1.986666 1_555
Li17 N25 2.211810 1_565
Li18 O7 2.000346 1_555
Li18 O10 2.019456 1_555
Li18 N26 2.261921 1_665
Li19 O7 1.986666 1_555
Li19 N27 2.211810 1_665
Li20 O2 2.042817 1_555
Li20 N4 2.066219 1_555
Li20 N8 2.092252 1_555
Li20 N18 2.108177 1_555
Li21 O3 2.051850 1_555
Li21 N5 2.066771 1_555
Li21 N9 2.081517 1_555
Li21 N19 2.107327 1_555
Li22 O2 2.042817 1_455
Li22 N6 2.066219 1_555
Li22 N10 2.092252 1_455
Li22 N18 2.108177 1_555
Li23 O3 2.051850 1_455
Li23 N7 2.066771 1_555
Li23 N11 2.081517 1_455
Li23 N19 2.107327 1_555
Li24 O4 2.051850 1_555
Li24 N0 2.066771 1_555
Li24 N12 2.081517 1_555
Li24 N16 2.107327 1_555
Li25 O5 2.042817 1_555
Li25 N1 2.066219 1_555
Li25 N13 2.092252 1_555
Li25 N17 2.108177 1_555
Li26 O4 2.051850 1_655
Li26 N2 2.066771 1_555
Li26 N14 2.081517 1_655
Li26 N16 2.107327 1_555
Li27 O5 2.042817 1_655
Li27 N3 2.066219 1_555
Li27 N15 2.092252 1_655
Li27 N17 2.108177 1_555
Ce0 O13 2.191891 1_555
Ce0 O1 2.446006 1_555
Ce0 N24 2.510339 1_555
Ce0 N25 2.527620 1_555
Ce0 F2 2.702311 1_555
Ce0 N29 2.779755 1_555
Ce0 N1 2.795022 1_555
Ce0 N0 2.802278 1_555
Ce1 O13 2.191891 1_555
Ce1 O1 2.446006 1_455
Ce1 N26 2.510339 1_555
Ce1 N27 2.527620 1_555
Ce1 F2 2.702311 1_455
Ce1 N29 2.779755 1_555
Ce1 N3 2.795022 1_455
Ce1 N2 2.802278 1_455
Ce2 O12 2.191891 1_555
Ce2 O0 2.446006 1_555
Ce2 N21 2.510339 1_555
Ce2 N20 2.527620 1_555
Ce2 F3 2.702311 1_555
Ce2 N28 2.779755 1_555
Ce2 N4 2.795022 1_555
Ce2 N5 2.802278 1_555
Ce3 O12 2.191891 1_555
Ce3 O0 2.446006 1_655
Ce3 N23 2.510339 1_555
Ce3 N22 2.527620 1_555
Ce3 F3 2.702311 1_655
Ce3 N28 2.779755 1_555
Ce3 N6 2.795022 1_655
Ce3 N7 2.802278 1_655
Ce4 O4 2.378087 1_555
Ce4 O5 2.384644 1_555
Ce4 O7 2.505334 1_455
Ce4 O6 2.505334 1_555
Ce4 N29 2.524884 1_565
Ce4 N35 2.737433 1_555
Ce4 N34 2.742652 1_555
Ce5 O3 2.378087 1_555
Ce5 O2 2.384644 1_555
Ce5 O8 2.505334 1_555
Ce5 O9 2.505334 1_655
Ce5 N28 2.524884 1_545
Ce5 N36 2.737433 1_555
Ce5 N37 2.742652 1_555
Ce6 O10 2.288030 1_555
Ce6 F1 2.622638 1_564
Ce6 N12 2.635536 1_555
Ce6 N8 2.652077 1_564
Ce6 N24 2.653620 1_565
Ce6 N20 2.697855 1_554
Ce6 N36 2.744461 1_564
Ce6 N34 2.751652 1_555
Ce7 O11 2.288030 1_555
Ce7 F0 2.622638 1_545
Ce7 N9 2.635536 1_555
Ce7 N13 2.652077 1_545
Ce7 N21 2.653620 1_545
Ce7 N25 2.697855 1_555
Ce7 N35 2.744461 1_545
Ce7 N37 2.751652 1_555
Ce8 O10 2.288030 1_555
Ce8 F1 2.622638 1_664
Ce8 N14 2.635536 1_655
Ce8 N10 2.652077 1_564
Ce8 N26 2.653620 1_665
Ce8 N22 2.697855 1_554
Ce8 N36 2.744461 1_564
Ce8 N34 2.751652 1_655
Ce9 O11 2.288030 1_555
Ce9 F0 2.622638 1_445
Ce9 N11 2.635536 1_455
Ce9 N15 2.652077 1_545
Ce9 N23 2.653620 1_445
Ce9 N27 2.697855 1_555
Ce9 N35 2.744461 1_545
Ce9 N37 2.751652 1_455
N0 Si16 1.704976 1_555
N0 Si0 1.734504 1_555
N1 Si17 1.705408 1_555
N1 Si1 1.735009 1_555
N2 Si16 1.704976 1_555
N2 Si2 1.734504 1_655
N3 Si17 1.705408 1_555
N3 Si3 1.735009 1_655
N4 Si18 1.705408 1_555
N4 Si4 1.735009 1_555
N5 Si19 1.704976 1_555
N5 Si5 1.734504 1_555
N6 Si18 1.705408 1_555
N6 Si6 1.735009 1_455
N7 Si19 1.704976 1_555
N7 Si7 1.734504 1_455
N8 Si14 1.709073 1_555
N8 Si0 1.733140 1_556
N9 Si15 1.703604 1_555
N9 Si1 1.729833 1_555
N10 Si14 1.709073 1_555
N10 Si2 1.733140 1_656
N11 Si15 1.703604 1_555
N11 Si3 1.729833 1_655
N12 Si12 1.703604 1_555
N12 Si4 1.729833 1_554
N13 Si13 1.709073 1_555
N13 Si5 1.733140 1_555
N14 Si12 1.703604 1_555
N14 Si6 1.729833 1_454
N15 Si13 1.709073 1_555
N15 Si7 1.733140 1_455
N16 Si16 1.711441 1_555
N16 Si20 1.729468 1_555
N17 Si17 1.712272 1_555
N17 Si20 1.731602 1_555
N18 Si18 1.712272 1_555
N18 Si21 1.731602 1_555
N19 Si19 1.711441 1_555
N19 Si21 1.729468 1_555
N20 Si10 1.726864 1_555
N20 Si4 1.779827 1_555
N21 Si11 1.725442 1_555
N21 Si5 1.778602 1_555
N22 Si10 1.726864 1_555
N22 Si6 1.779827 1_555
N23 Si11 1.725442 1_555
N23 Si7 1.778602 1_555
N24 Si8 1.725442 1_555
N24 Si0 1.778602 1_555
N25 Si9 1.726864 1_555
N25 Si1 1.779827 1_555
N26 Si8 1.725442 1_555
N26 Si2 1.778602 1_555
N27 Si9 1.726864 1_555
N27 Si3 1.779827 1_555
N28 Si10 1.758982 1_555
N28 Si11 1.759184 1_555
N29 Si9 1.758982 1_555
N29 Si8 1.759184 1_555
N30 Si2 1.731219 1_555
N30 Si0 1.731219 1_555
N31 Si3 1.729996 1_555
N31 Si1 1.729996 1_555
N32 Si6 1.729996 1_555
N32 Si4 1.729996 1_555
N33 Si7 1.731219 1_555
N33 Si5 1.731219 1_555
N34 Si12 1.714889 1_555
N34 Si8 1.721482 1_565
N35 Si13 1.713492 1_555
N35 Si9 1.721238 1_565
N36 Si14 1.713492 1_555
N36 Si10 1.721238 1_545
N37 Si15 1.714889 1_555
N37 Si11 1.721482 1_545
O0 Si19 1.730772 1_555
O0 Si18 1.732135 1_555
O1 Si16 1.730772 1_555
O1 Si17 1.732135 1_555
O2 Si14 1.699946 1_555
O3 Si15 1.700292 1_555
O4 Si12 1.700292 1_555
O5 Si13 1.699946 1_555
O6 Si20 1.704108 1_555
O7 Si20 1.704108 1_555
O8 Si21 1.704108 1_555
O9 Si21 1.704108 1_555
F0 Li17 1.973021 1_555
F0 Li19 1.973021 1_555
F0 Li1 2.017049 1_555
F1 Li14 1.973021 1_555
F1 Li12 1.973021 1_555
F1 Li2 2.017049 1_555
F2 Li17 2.089093 1_545
F2 Li19 2.089093 1_545
F2 Li16 2.103654 1_545
F2 Li18 2.103654 1_545
F3 Li12 2.089093 1_565
F3 Li14 2.089093 1_565
F3 Li13 2.103654 1_565
F3 Li15 2.103654 1_565
