# generated using pymatgen
data_Lu(MnSn)6
_symmetry_space_group_name_H-M   'P 1'
_cell_length_a   5.44245896
_cell_length_b   5.44245896
_cell_length_c   8.99853100
_cell_angle_alpha   90.00000000
_cell_angle_beta   90.00000000
_cell_angle_gamma   120.00001172
_symmetry_Int_Tables_number   1
_chemical_formula_structural   Lu(MnSn)6
_chemical_formula_sum   'Lu1 Mn6 Sn6'
_cell_volume   230.83014472
_cell_formula_units_Z   1
loop_
 _symmetry_equiv_pos_site_id
 _symmetry_equiv_pos_as_xyz
  1  'x, y, z'
loop_
 _atom_site_type_symbol
 _atom_site_label
 _atom_site_symmetry_multiplicity
 _atom_site_fract_x
 _atom_site_fract_y
 _atom_site_fract_z
 _atom_site_occupancy
  Lu  Lu0  1  0.00000000  0.00000000  0.00000000  1
  Mn  Mn0  1  0.50000000  0.50000000  0.75214200  1
  Mn  Mn1  1  0.50000000  0.00000000  0.75214200  1
  Mn  Mn2  1  0.00000000  0.50000000  0.75214200  1
  Mn  Mn3  1  0.50000000  0.50000000  0.24785800  1
  Mn  Mn4  1  0.50000000  0.00000000  0.24785800  1
  Mn  Mn5  1  0.00000000  0.50000000  0.24785800  1
  Sn  Sn0  1  0.66666700  0.33333300  0.00000000  1
  Sn  Sn1  1  0.33333300  0.66666700  0.00000000  1
  Sn  Sn2  1  0.66666700  0.33333300  0.50000000  1
  Sn  Sn3  1  0.33333300  0.66666700  0.50000000  1
  Sn  Sn4  1  0.00000000  0.00000000  0.66848100  1
  Sn  Sn5  1  0.00000000  0.00000000  0.33151900  1
loop_
_geom_bond_atom_site_label_1
_geom_bond_atom_site_label_2
_geom_bond_distance
_geom_bond_site_symmetry_2
Lu0 Sn5 2.983184 1_555
Lu0 Sn4 2.983184 1_554
Lu0 Sn1 3.142202 1_545
Lu0 Sn0 3.142202 1_455
Lu0 Sn0 3.142206 1_445
Lu0 Sn0 3.142206 1_555
Lu0 Sn1 3.142206 1_555
Lu0 Sn1 3.142206 1_445
Mn0 Mn2 2.721229 1_655
Mn0 Mn2 2.721229 1_555
Mn0 Mn1 2.721229 1_555
Mn0 Mn1 2.721229 1_565
Mn0 Sn1 2.728162 1_556
Mn0 Sn0 2.728162 1_556
Mn0 Sn2 2.759767 1_555
Mn0 Sn3 2.759767 1_555
Mn0 Sn4 2.823444 1_665
Mn0 Sn4 2.823444 1_555
Mn1 Mn2 2.721229 1_545
Mn1 Mn2 2.721229 1_655
Mn1 Sn1 2.728159 1_546
Mn1 Sn0 2.728159 1_556
Mn1 Sn2 2.759764 1_555
Mn1 Sn3 2.759764 1_545
Mn1 Sn4 2.823444 1_655
Mn1 Sn4 2.823444 1_555
Mn2 Sn1 2.728159 1_556
Mn2 Sn0 2.728159 1_456
Mn2 Sn2 2.759764 1_455
Mn2 Sn3 2.759764 1_555
Mn2 Sn4 2.823444 1_565
Mn2 Sn4 2.823444 1_555
Mn3 Mn4 2.721229 1_565
Mn3 Mn5 2.721229 1_655
Mn3 Mn4 2.721229 1_555
Mn3 Mn5 2.721229 1_555
Mn3 Sn1 2.728162 1_555
Mn3 Sn0 2.728162 1_555
Mn3 Sn2 2.759767 1_555
Mn3 Sn3 2.759767 1_555
Mn3 Sn5 2.823444 1_555
Mn3 Sn5 2.823444 1_665
Mn4 Mn5 2.721229 1_545
Mn4 Mn5 2.721229 1_655
Mn4 Sn0 2.728159 1_555
Mn4 Sn1 2.728159 1_545
Mn4 Sn2 2.759764 1_555
Mn4 Sn3 2.759764 1_545
Mn4 Sn5 2.823444 1_555
Mn4 Sn5 2.823444 1_655
Mn5 Sn1 2.728159 1_555
Mn5 Sn0 2.728159 1_455
Mn5 Sn2 2.759764 1_455
Mn5 Sn3 2.759764 1_555
Mn5 Sn5 2.823444 1_555
Mn5 Sn5 2.823444 1_565
Sn0 Sn1 3.142202 1_545
Sn0 Sn1 3.142202 1_655
Sn0 Sn1 3.142212 1_555
Sn2 Sn3 3.142202 1_545
Sn2 Sn3 3.142202 1_655
Sn2 Sn3 3.142212 1_555
Sn4 Sn5 3.032163 1_555
