# generated using pymatgen
data_BaLaTiCrO6
_symmetry_space_group_name_H-M   'P 1'
_cell_length_a   7.96480100
_cell_length_b   9.75484877
_cell_length_c   7.96480100
_cell_angle_alpha   65.90515959
_cell_angle_beta   90.00000000
_cell_angle_gamma   65.90515959
_symmetry_Int_Tables_number   1
_chemical_formula_structural   BaLaTiCrO6
_chemical_formula_sum   'Ba4 La4 Ti4 Cr4 O24'
_cell_volume   505.27148366
_cell_formula_units_Z   4
loop_
 _symmetry_equiv_pos_site_id
 _symmetry_equiv_pos_as_xyz
  1  'x, y, z'
loop_
 _atom_site_type_symbol
 _atom_site_label
 _atom_site_symmetry_multiplicity
 _atom_site_fract_x
 _atom_site_fract_y
 _atom_site_fract_z
 _atom_site_occupancy
  Ba  Ba0  1  0.25000000  0.50000000  0.75000000  1
  Ba  Ba1  1  0.50000000  0.00000000  0.50000000  1
  Ba  Ba2  1  0.75000000  0.50000000  0.25000000  1
  Ba  Ba3  1  0.00000000  0.00000000  0.00000000  1
  La  La0  1  0.75000000  0.50000000  0.75000000  1
  La  La1  1  0.00000000  0.00000000  0.50000000  1
  La  La2  1  0.25000000  0.50000000  0.25000000  1
  La  La3  1  0.50000000  0.00000000  0.00000000  1
  Ti  Ti0  1  0.37500000  0.75000000  0.37500000  1
  Ti  Ti1  1  0.62500000  0.25000000  0.12500000  1
  Ti  Ti2  1  0.87500000  0.75000000  0.87500000  1
  Ti  Ti3  1  0.12500000  0.25000000  0.62500000  1
  Cr  Cr0  1  0.12500000  0.25000000  0.12500000  1
  Cr  Cr1  1  0.37500000  0.75000000  0.87500000  1
  Cr  Cr2  1  0.87500000  0.75000000  0.37500000  1
  Cr  Cr3  1  0.62500000  0.25000000  0.62500000  1
  O  O0  1  0.62262500  0.75000000  0.37500000  1
  O  O1  1  0.87262500  0.25000000  0.12500000  1
  O  O2  1  0.12262500  0.75000000  0.87500000  1
  O  O3  1  0.37262500  0.25000000  0.62500000  1
  O  O4  1  0.12737500  0.75000000  0.37500000  1
  O  O5  1  0.37737500  0.25000000  0.12500000  1
  O  O6  1  0.62737500  0.75000000  0.87500000  1
  O  O7  1  0.87737500  0.25000000  0.62500000  1
  O  O8  1  0.37500000  0.75000000  0.12737500  1
  O  O9  1  0.62500000  0.25000000  0.87737500  1
  O  O10  1  0.87500000  0.75000000  0.62737500  1
  O  O11  1  0.12500000  0.25000000  0.37737500  1
  O  O12  1  0.37500000  0.75000000  0.62262500  1
  O  O13  1  0.62500000  0.25000000  0.37262500  1
  O  O14  1  0.87500000  0.75000000  0.12262500  1
  O  O15  1  0.12500000  0.25000000  0.87262500  1
  O  O16  1  0.49881200  0.50237500  0.49881200  1
  O  O17  1  0.74881200  0.00237500  0.24881200  1
  O  O18  1  0.99881200  0.50237500  0.99881200  1
  O  O19  1  0.24881200  0.00237500  0.74881200  1
  O  O20  1  0.25118800  0.99762500  0.25118800  1
  O  O21  1  0.50118800  0.49762500  0.00118800  1
  O  O22  1  0.75118800  0.99762500  0.75118800  1
  O  O23  1  0.00118800  0.49762500  0.50118800  1
loop_
_geom_bond_atom_site_label_1
_geom_bond_atom_site_label_2
_geom_bond_distance
_geom_bond_site_symmetry_2
Ba0 O23 2.816040 1_555
Ba0 O3 2.816046 1_555
Ba0 O15 2.816046 1_555
Ba0 O2 2.816046 1_555
Ba0 O12 2.816046 1_555
Ba0 O18 2.816046 1_455
Ba0 O16 2.816046 1_555
Ba0 O10 2.816046 1_455
Ba0 O4 2.816046 1_555
Ba0 O5 2.816046 1_556
Ba0 O9 2.816046 1_555
Ba0 O21 2.816052 1_556
Ba1 O20 2.816040 1_545
Ba1 O12 2.816046 1_545
Ba1 O0 2.816046 1_545
Ba1 O13 2.816046 1_555
Ba1 O3 2.816046 1_555
Ba1 O19 2.816046 1_555
Ba1 O17 2.816046 1_555
Ba1 O5 2.816046 1_555
Ba1 O11 2.816046 1_555
Ba1 O10 2.816046 1_545
Ba1 O6 2.816046 1_545
Ba1 O22 2.816052 1_545
Ba2 O21 2.816040 1_555
Ba2 O1 2.816046 1_555
Ba2 O13 2.816046 1_555
Ba2 O14 2.816046 1_555
Ba2 O0 2.816046 1_555
Ba2 O16 2.816046 1_555
Ba2 O18 2.816046 1_554
Ba2 O8 2.816046 1_555
Ba2 O6 2.816046 1_554
Ba2 O7 2.816046 1_555
Ba2 O11 2.816046 1_655
Ba2 O23 2.816052 1_655
Ba3 O22 2.816040 1_444
Ba3 O14 2.816046 1_445
Ba3 O2 2.816046 1_544
Ba3 O15 2.816046 1_554
Ba3 O1 2.816046 1_455
Ba3 O19 2.816046 1_554
Ba3 O17 2.816046 1_455
Ba3 O9 2.816046 1_454
Ba3 O7 2.816046 1_454
Ba3 O4 2.816046 1_545
Ba3 O8 2.816046 1_545
Ba3 O20 2.816052 1_545
La0 O18 2.816040 1_555
La0 O6 2.816046 1_555
La0 O10 2.816046 1_555
La0 O7 2.816046 1_555
La0 O9 2.816046 1_555
La0 O23 2.816046 1_655
La0 O21 2.816046 1_556
La0 O1 2.816046 1_556
La0 O15 2.816046 1_655
La0 O12 2.816046 1_555
La0 O0 2.816046 1_555
La0 O16 2.816052 1_555
La1 O19 2.816040 1_555
La1 O7 2.816046 1_455
La1 O11 2.816046 1_555
La1 O10 2.816046 1_445
La1 O4 2.816046 1_545
La1 O20 2.816046 1_545
La1 O22 2.816046 1_445
La1 O12 2.816046 1_545
La1 O2 2.816046 1_545
La1 O1 2.816046 1_455
La1 O13 2.816046 1_455
La1 O17 2.816052 1_455
La2 O16 2.816040 1_555
La2 O4 2.816046 1_555
La2 O8 2.816046 1_555
La2 O11 2.816046 1_555
La2 O5 2.816046 1_555
La2 O23 2.816046 1_555
La2 O21 2.816046 1_555
La2 O3 2.816046 1_555
La2 O13 2.816046 1_555
La2 O14 2.816046 1_455
La2 O2 2.816046 1_554
La2 O18 2.816052 1_454
La3 O17 2.816040 1_555
La3 O9 2.816046 1_554
La3 O5 2.816046 1_555
La3 O8 2.816046 1_545
La3 O6 2.816046 1_544
La3 O22 2.816046 1_544
La3 O20 2.816046 1_545
La3 O14 2.816046 1_545
La3 O0 2.816046 1_545
La3 O3 2.816046 1_554
La3 O15 2.816046 1_554
La3 O19 2.816052 1_554
Cr0 O11 2.010117 1_555
Cr0 O5 2.010117 1_555
Cr0 O15 2.010117 1_554
Cr0 O1 2.010117 1_455
Cr0 O18 2.010117 1_454
Cr0 O20 2.010117 1_545
Cr1 O6 2.010117 1_555
Cr1 O12 2.010117 1_555
Cr1 O2 2.010117 1_555
Cr1 O8 2.010117 1_556
Cr1 O21 2.010117 1_556
Cr1 O19 2.010117 1_565
Cr2 O14 2.010117 1_555
Cr2 O0 2.010117 1_555
Cr2 O10 2.010117 1_555
Cr2 O4 2.010117 1_655
Cr2 O17 2.010117 1_565
Cr2 O23 2.010117 1_655
Cr3 O7 2.010117 1_555
Cr3 O9 2.010117 1_555
Cr3 O13 2.010117 1_555
Cr3 O3 2.010117 1_555
Cr3 O22 2.010117 1_545
Cr3 O16 2.010117 1_555
O0 Ti0 1.972284 1_555
O1 Ti1 1.972284 1_555
O2 Ti2 1.972284 1_455
O3 Ti3 1.972284 1_555
O4 Ti0 1.972284 1_555
O5 Ti1 1.972284 1_555
O6 Ti2 1.972284 1_555
O7 Ti3 1.972284 1_655
O8 Ti0 1.972284 1_555
O9 Ti1 1.972284 1_556
O10 Ti2 1.972284 1_555
O11 Ti3 1.972284 1_555
O12 Ti0 1.972284 1_555
O13 Ti1 1.972284 1_555
O14 Ti2 1.972284 1_554
O15 Ti3 1.972284 1_555
O16 Ti0 1.972284 1_555
O17 Ti1 1.972284 1_555
O18 Ti2 1.972284 1_555
O19 Ti3 1.972284 1_555
O20 Ti0 1.972284 1_555
O21 Ti1 1.972284 1_555
O22 Ti2 1.972284 1_555
O23 Ti3 1.972284 1_555
