# generated using pymatgen
data_CoTeO4
_symmetry_space_group_name_H-M   'P 1'
_cell_length_a   4.65421648
_cell_length_b   10.33408923
_cell_length_c   5.56360623
_cell_angle_alpha   82.62995149
_cell_angle_beta   90.00001623
_cell_angle_gamma   90.00008669
_symmetry_Int_Tables_number   1
_chemical_formula_structural   CoTeO4
_chemical_formula_sum   'Co4 Te4 O16'
_cell_volume   265.38250003
_cell_formula_units_Z   4
loop_
 _symmetry_equiv_pos_site_id
 _symmetry_equiv_pos_as_xyz
  1  'x, y, z'
loop_
 _atom_site_type_symbol
 _atom_site_label
 _atom_site_symmetry_multiplicity
 _atom_site_fract_x
 _atom_site_fract_y
 _atom_site_fract_z
 _atom_site_occupancy
  Co  Co0  1  0.50001406  0.62499888  0.12494191  1
  Co  Co1  1  -0.00001916  0.12500179  0.12494166  1
  Co  Co2  1  0.50001148  0.12499929  0.62494270  1
  Co  Co3  1  -0.00001866  0.62500124  0.62493990  1
  Te  Te0  1  -0.00002384  0.37500750  0.37502387  1
  Te  Te1  1  -0.00004092  0.87503657  0.87496681  1
  Te  Te2  1  0.50003053  0.37500930  0.87502656  1
  Te  Te3  1  0.50004091  0.87503492  0.37496938  1
  O  O0  1  0.31776295  0.03912381  0.34787868  1
  O  O1  1  0.31776928  0.53910209  0.84789116  1
  O  O2  1  0.18223354  0.03912562  0.84787648  1
  O  O3  1  0.18223279  0.53910335  0.34789215  1
  O  O4  1  0.81780950  0.21086173  0.40206982  1
  O  O5  1  0.81781476  0.71088456  0.90204986  1
  O  O6  1  0.68219338  0.21086148  0.90206746  1
  O  O7  1  0.68218479  0.71088345  0.40204842  1
  O  O8  1  0.78274407  0.44835865  0.62976602  1
  O  O9  1  0.78274526  0.94837923  0.12973905  1
  O  O10  1  0.71725572  0.44835733  0.12976842  1
  O  O11  1  0.71725352  0.94837968  0.62973878  1
  O  O12  1  0.28267836  0.30160946  0.62038340  1
  O  O13  1  0.28268258  0.80163477  0.12034565  1
  O  O14  1  0.21732257  0.30161082  0.12038236  1
  O  O15  1  0.21732054  0.80163351  0.62034848  1
loop_
_geom_bond_atom_site_label_1
_geom_bond_atom_site_label_2
_geom_bond_distance
_geom_bond_site_symmetry_2
Co0 O5 2.056928 1_554
Co0 O3 2.057076 1_555
Co0 O1 2.057753 1_554
Co0 O7 2.057794 1_555
Co0 O10 2.083902 1_555
Co0 O13 2.084181 1_555
Co1 O6 2.056736 1_454
Co1 O0 2.056976 1_555
Co1 O2 2.057722 1_554
Co1 O4 2.057760 1_455
Co1 O9 2.083730 1_445
Co1 O14 2.083980 1_555
Co2 O4 2.056776 1_555
Co2 O2 2.056935 1_555
Co2 O0 2.057704 1_555
Co2 O6 2.057775 1_555
Co2 O11 2.083721 1_545
Co2 O12 2.083973 1_555
Co3 O7 2.056901 1_455
Co3 O1 2.057116 1_555
Co3 O3 2.057760 1_555
Co3 O5 2.057796 1_455
Co3 O8 2.083899 1_455
Co3 O15 2.084166 1_555
O0 Te3 1.884754 1_545
O1 Te2 1.884746 1_555
O2 Te1 1.884746 1_545
O3 Te0 1.884763 1_555
O4 Te0 1.885050 1_655
O5 Te1 1.885054 1_655
O6 Te2 1.885064 1_555
O7 Te3 1.885051 1_555
O8 Te0 1.970057 1_655
O8 Te2 1.975477 1_555
O9 Te1 1.970101 1_654
O9 Te3 1.975325 1_555
O10 Te2 1.970023 1_554
O10 Te0 1.975483 1_655
O11 Te3 1.970094 1_555
O11 Te1 1.975318 1_655
O12 Te2 1.970159 1_555
O12 Te0 1.975945 1_555
O13 Te3 1.970093 1_555
O13 Te1 1.976091 1_554
O14 Te0 1.970125 1_555
O14 Te2 1.975949 1_554
O15 Te1 1.970093 1_555
O15 Te3 1.976080 1_555
