# generated using pymatgen
data_MoS6N
_symmetry_space_group_name_H-M   'P 1'
_cell_length_a   12.46361216
_cell_length_b   12.83632784
_cell_length_c   19.87164593
_cell_angle_alpha   90.00000000
_cell_angle_beta   90.00000000
_cell_angle_gamma   89.90636135
_symmetry_Int_Tables_number   1
_chemical_formula_structural   MoS6N
_chemical_formula_sum   'Mo12 S72 N12'
_cell_volume   3179.20100742
_cell_formula_units_Z   12
loop_
 _symmetry_equiv_pos_site_id
 _symmetry_equiv_pos_as_xyz
  1  'x, y, z'
loop_
 _atom_site_type_symbol
 _atom_site_label
 _atom_site_symmetry_multiplicity
 _atom_site_fract_x
 _atom_site_fract_y
 _atom_site_fract_z
 _atom_site_occupancy
  Mo  Mo0  1  0.38126186  0.99998087  0.50003436  1
  Mo  Mo1  1  0.61873814  0.50001913  0.00003436  1
  Mo  Mo2  1  0.31382788  0.31290891  0.74742801  1
  Mo  Mo3  1  0.31350841  0.68723361  0.25249836  1
  Mo  Mo4  1  0.68617212  0.18709109  0.24742801  1
  Mo  Mo5  1  0.68649159  0.81276639  0.75249836  1
  Mo  Mo6  1  0.15614885  0.00009234  0.49995389  1
  Mo  Mo7  1  0.84385115  0.49990766  0.99995389  1
  Mo  Mo8  1  0.53912733  0.31300641  0.74460340  1
  Mo  Mo9  1  0.53874754  0.68697145  0.25514981  1
  Mo  Mo10  1  0.46087267  0.18699359  0.24460340  1
  Mo  Mo11  1  0.46125246  0.81302855  0.75514981  1
  S  S0  1  0.68395348  0.21518859  0.80315933  1
  S  S1  1  0.68325686  0.78445647  0.19643460  1
  S  S2  1  0.31604652  0.28481141  0.30315933  1
  S  S3  1  0.31674314  0.71554353  0.69643460  1
  S  S4  1  0.52509176  0.13140896  0.51154077  1
  S  S5  1  0.52548855  0.86843721  0.48847259  1
  S  S6  1  0.47490824  0.36859104  0.01154077  1
  S  S7  1  0.47451145  0.63156279  0.98847259  1
  S  S8  1  0.49263696  0.05172462  0.59640787  1
  S  S9  1  0.49260638  0.94819525  0.40363764  1
  S  S10  1  0.50736304  0.44827538  0.09640787  1
  S  S11  1  0.50739362  0.55180475  0.90363764  1
  S  S12  1  0.01278510  0.11646801  0.45603925  1
  S  S13  1  0.01322429  0.88379346  0.54411347  1
  S  S14  1  0.98721490  0.38353199  0.95603925  1
  S  S15  1  0.98677571  0.61620654  0.04411347  1
  S  S16  1  0.19116245  0.18657940  0.69757652  1
  S  S17  1  0.19138153  0.81394264  0.30275186  1
  S  S18  1  0.80883755  0.31342060  0.19757652  1
  S  S19  1  0.80861847  0.68605736  0.80275186  1
  S  S20  1  0.42293032  0.18114027  0.79979899  1
  S  S21  1  0.42230435  0.81887644  0.19998141  1
  S  S22  1  0.57706968  0.31885973  0.29979899  1
  S  S23  1  0.57769565  0.68112356  0.69998141  1
  S  S24  1  0.65545532  0.45924352  0.77634947  1
  S  S25  1  0.65624307  0.54137054  0.22363339  1
  S  S26  1  0.34454468  0.04075648  0.27634947  1
  S  S27  1  0.34375693  0.95862946  0.72363339  1
  S  S28  1  0.26250394  0.14864507  0.53145451  1
  S  S29  1  0.26282874  0.85135796  0.46855958  1
  S  S30  1  0.73749606  0.35135493  0.03145451  1
  S  S31  1  0.73717126  0.64864204  0.96855958  1
  S  S32  1  0.68297399  0.40534962  0.68311561  1
  S  S33  1  0.68255589  0.59459910  0.31703802  1
  S  S34  1  0.31702601  0.09465038  0.18311561  1
  S  S35  1  0.31744411  0.90540090  0.81703802  1
  S  S36  1  0.43444533  0.32528944  0.84641381  1
  S  S37  1  0.43395166  0.67454807  0.15338770  1
  S  S38  1  0.56555467  0.17471056  0.34641381  1
  S  S39  1  0.56604834  0.82545193  0.65338770  1
  S  S40  1  0.65394760  0.16764758  0.70925428  1
  S  S41  1  0.65284835  0.83214855  0.29021393  1
  S  S42  1  0.34605240  0.33235242  0.20925428  1
  S  S43  1  0.34715165  0.66785145  0.79021393  1
  S  S44  1  0.17651559  0.29237731  0.83711318  1
  S  S45  1  0.17617782  0.70763211  0.16279830  1
  S  S46  1  0.82348441  0.20762269  0.33711318  1
  S  S47  1  0.82382218  0.79236789  0.66279830  1
  S  S48  1  0.42820395  0.30114869  0.64553451  1
  S  S49  1  0.42796950  0.69898948  0.35433581  1
  S  S50  1  0.57179605  0.19885131  0.14553451  1
  S  S51  1  0.57203050  0.80101052  0.85433581  1
  S  S52  1  0.18962472  0.43589512  0.80028603  1
  S  S53  1  0.19013493  0.56398820  0.19955256  1
  S  S54  1  0.81037528  0.06410488  0.30028603  1
  S  S55  1  0.80986507  0.93601180  0.69955256  1
  S  S56  1  0.27262913  0.11257196  0.43006336  1
  S  S57  1  0.27274104  0.88750475  0.56993084  1
  S  S58  1  0.72737087  0.38742804  0.93006336  1
  S  S59  1  0.72725896  0.61249525  0.06993084  1
  S  S60  1  0.02563794  0.01939824  0.59016853  1
  S  S61  1  0.02532308  0.98089114  0.40989975  1
  S  S62  1  0.97436206  0.48060176  0.09016853  1
  S  S63  1  0.97467692  0.51910886  0.90989975  1
  S  S64  1  0.41897786  0.44422863  0.69139074  1
  S  S65  1  0.41901549  0.55586615  0.30856353  1
  S  S66  1  0.58102214  0.05577137  0.19139074  1
  S  S67  1  0.58098451  0.94413385  0.80856353  1
  S  S68  1  0.16647552  0.33109046  0.66417354  1
  S  S69  1  0.16644900  0.66927834  0.33580041  1
  S  S70  1  0.83352448  0.16890954  0.16417354  1
  S  S71  1  0.83355100  0.83072166  0.83580041  1
  N  N0  1  0.91390762  0.33273746  0.75980246  1
  N  N1  1  0.91361022  0.66781155  0.24080425  1
  N  N2  1  0.08609238  0.16726254  0.25980246  1
  N  N3  1  0.08638978  0.83218845  0.74080425  1
  N  N4  1  0.75265893  0.99701563  0.49914860  1
  N  N5  1  0.24734107  0.50298437  0.99914860  1
  N  N6  1  0.57995047  0.13311167  0.95548710  1
  N  N7  1  0.58008290  0.86689281  0.04476230  1
  N  N8  1  0.42004953  0.36688833  0.45548710  1
  N  N9  1  0.41991710  0.63310719  0.54476230  1
  N  N10  1  0.15444106  0.29178135  0.10078176  1
  N  N11  1  0.84555894  0.20821865  0.60078176  1
loop_
_geom_bond_atom_site_label_1
_geom_bond_atom_site_label_2
_geom_bond_distance
_geom_bond_site_symmetry_2
Mo0 S56 2.418447 1_565
Mo0 S57 2.418576 1_555
Mo0 S9 2.456440 1_555
Mo0 S8 2.457378 1_565
Mo0 S4 2.474243 1_565
Mo0 S5 2.474942 1_555
Mo0 S28 2.492604 1_565
Mo0 S29 2.493768 1_555
Mo1 S58 2.418447 1_554
Mo1 S59 2.418576 1_555
Mo1 S11 2.456440 1_554
Mo1 S10 2.457378 1_555
Mo1 S6 2.474243 1_555
Mo1 S7 2.474942 1_554
Mo1 S30 2.492604 1_555
Mo1 S31 2.493768 1_554
Mo2 S20 2.405315 1_555
Mo2 S64 2.409609 1_555
Mo2 S16 2.440586 1_555
Mo2 S52 2.446208 1_555
Mo2 S48 2.480731 1_555
Mo2 S36 2.480961 1_555
Mo2 S68 2.482540 1_555
Mo2 S44 2.485167 1_555
Mo3 S21 2.406399 1_555
Mo3 S65 2.409717 1_555
Mo3 S17 2.439569 1_555
Mo3 S53 2.445843 1_555
Mo3 S49 2.480712 1_555
Mo3 S69 2.480760 1_555
Mo3 S37 2.481550 1_555
Mo3 S45 2.484764 1_555
Mo4 S22 2.405315 1_555
Mo4 S66 2.409609 1_555
Mo4 S18 2.440586 1_555
Mo4 S54 2.446208 1_555
Mo4 S50 2.480731 1_555
Mo4 S38 2.480961 1_555
Mo4 S70 2.482540 1_555
Mo4 S46 2.485167 1_555
Mo5 S23 2.406399 1_555
Mo5 S67 2.409717 1_555
Mo5 S19 2.439569 1_555
Mo5 S55 2.445843 1_555
Mo5 S51 2.480712 1_555
Mo5 S71 2.480760 1_555
Mo5 S39 2.481550 1_555
Mo5 S47 2.484764 1_555
Mo6 S28 2.406946 1_555
Mo6 S29 2.407039 1_545
Mo6 S60 2.433077 1_555
Mo6 S61 2.433760 1_545
Mo6 S57 2.475297 1_545
Mo6 S56 2.475476 1_555
Mo6 S12 2.485380 1_555
Mo6 S13 2.486076 1_545
Mo7 S30 2.406946 1_556
Mo7 S31 2.407039 1_555
Mo7 S62 2.433077 1_556
Mo7 S63 2.433760 1_555
Mo7 S59 2.475297 1_556
Mo7 S58 2.475476 1_555
Mo7 S14 2.485380 1_555
Mo7 S15 2.486076 1_556
Mo8 S48 2.410562 1_555
Mo8 S36 2.412378 1_555
Mo8 S40 2.452379 1_555
Mo8 S24 2.456147 1_555
Mo8 S32 2.473713 1_555
Mo8 S20 2.484669 1_555
Mo8 S0 2.486238 1_555
Mo8 S64 2.487898 1_555
Mo9 S49 2.411269 1_555
Mo9 S37 2.412740 1_555
Mo9 S41 2.447314 1_555
Mo9 S25 2.453752 1_555
Mo9 S33 2.474681 1_555
Mo9 S21 2.483332 1_555
Mo9 S1 2.485675 1_555
Mo9 S65 2.488764 1_555
Mo10 S50 2.410562 1_555
Mo10 S38 2.412378 1_555
Mo10 S42 2.452379 1_555
Mo10 S26 2.456147 1_555
Mo10 S34 2.473713 1_555
Mo10 S22 2.484669 1_555
Mo10 S2 2.486238 1_555
Mo10 S66 2.487898 1_555
Mo11 S51 2.411269 1_555
Mo11 S39 2.412740 1_555
Mo11 S43 2.447314 1_555
Mo11 S27 2.453752 1_555
Mo11 S35 2.474681 1_555
Mo11 S23 2.483332 1_555
Mo11 S3 2.485675 1_555
Mo11 S67 2.488764 1_555
S0 S40 1.998787 1_555
S1 S41 1.997618 1_555
S2 S42 1.998787 1_555
S3 S43 1.997618 1_555
S4 S8 2.013782 1_555
S5 S9 2.014128 1_555
S10 S6 2.013782 1_555
S11 S7 2.014128 1_555
S12 S61 1.973032 1_545
S13 S60 1.972895 1_565
S14 S63 1.973032 1_555
S15 S62 1.972895 1_555
S16 S68 1.993588 1_555
S17 S69 1.994502 1_555
S18 S70 1.993588 1_555
S19 S71 1.994502 1_555
S20 S36 2.074440 1_555
S21 S37 2.075999 1_555
S22 S38 2.074440 1_555
S23 S39 2.075999 1_555
S24 S32 2.006984 1_555
S25 S33 2.005056 1_555
S26 S34 2.006984 1_555
S27 S35 2.005056 1_555
S28 S56 2.071135 1_555
S29 S57 2.070894 1_555
S30 S58 2.071135 1_554
S31 S59 2.070894 1_556
S44 S52 1.989243 1_555
S45 S53 1.990595 1_555
S46 S54 1.989243 1_555
S47 S55 1.990595 1_555
S48 S64 2.053306 1_555
S49 S65 2.053209 1_555
S50 S66 2.053306 1_555
S51 S67 2.053209 1_555
