# generated using pymatgen
data_Rb2U(PdSe2)3
_symmetry_space_group_name_H-M   'P 1'
_cell_length_a   11.74821883
_cell_length_b   10.14145217
_cell_length_c   9.30881963
_cell_angle_alpha   74.17687435
_cell_angle_beta   56.15255722
_cell_angle_gamma   49.67056844
_symmetry_Int_Tables_number   1
_chemical_formula_structural   Rb2U(PdSe2)3
_chemical_formula_sum   'Rb4 U2 Pd6 Se12'
_cell_volume   695.42219316
_cell_formula_units_Z   2
loop_
 _symmetry_equiv_pos_site_id
 _symmetry_equiv_pos_as_xyz
  1  'x, y, z'
loop_
 _atom_site_type_symbol
 _atom_site_label
 _atom_site_symmetry_multiplicity
 _atom_site_fract_x
 _atom_site_fract_y
 _atom_site_fract_z
 _atom_site_occupancy
  Rb  Rb0  1  0.75000000  0.75000000  0.75000000  1
  Rb  Rb1  1  0.25000000  0.25000000  0.25000000  1
  Rb  Rb2  1  0.30702900  0.69297100  0.30702900  1
  Rb  Rb3  1  0.69297100  0.30702900  0.69297100  1
  U  U0  1  0.83179600  0.83179600  0.16820400  1
  U  U1  1  0.16820400  0.16820400  0.83179600  1
  Pd  Pd0  1  0.50489500  0.17314700  0.49510500  1
  Pd  Pd1  1  0.82685300  0.49510500  0.17314700  1
  Pd  Pd2  1  0.49510500  0.82685300  0.50489500  1
  Pd  Pd3  1  0.17314700  0.50489500  0.82685300  1
  Pd  Pd4  1  0.83191400  0.16808600  0.16808600  1
  Pd  Pd5  1  0.16808600  0.83191400  0.83191400  1
  Se  Se0  1  0.82265100  0.97352800  0.39911200  1
  Se  Se1  1  0.80470900  0.39911200  0.97352800  1
  Se  Se2  1  0.39911200  0.80470900  0.82265100  1
  Se  Se3  1  0.97352800  0.82265100  0.80470900  1
  Se  Se4  1  0.17734900  0.02647200  0.60088800  1
  Se  Se5  1  0.19529100  0.60088800  0.02647200  1
  Se  Se6  1  0.60088800  0.19529100  0.17734900  1
  Se  Se7  1  0.02647200  0.17734900  0.19529100  1
  Se  Se8  1  0.81205500  0.59303600  0.40696400  1
  Se  Se9  1  0.18794500  0.40696400  0.59303600  1
  Se  Se10  1  0.40696400  0.18794500  0.81205500  1
  Se  Se11  1  0.59303600  0.81205500  0.18794500  1
loop_
_geom_bond_atom_site_label_1
_geom_bond_atom_site_label_2
_geom_bond_distance
_geom_bond_site_symmetry_2
Rb0 Se0 3.449233 1_555
Rb0 Se1 3.449233 1_555
Rb0 Se3 3.449233 1_555
Rb0 Se2 3.449233 1_555
Rb0 Se10 3.455282 1_565
Rb0 Se11 3.455282 1_556
Rb0 Se9 3.455282 1_655
Rb0 Se8 3.455282 1_555
Rb1 Se5 3.449233 1_555
Rb1 Se4 3.449233 1_555
Rb1 Se7 3.449233 1_555
Rb1 Se6 3.449233 1_555
Rb1 Se11 3.455282 1_545
Rb1 Se9 3.455282 1_555
Rb1 Se10 3.455282 1_554
Rb1 Se8 3.455282 1_455
Rb2 Se11 3.788208 1_555
Rb2 Se9 3.788208 1_555
Rb2 Se3 3.869941 1_455
Rb2 Se1 3.869941 1_554
Rb2 Se4 3.869941 1_565
Rb2 Se6 3.869941 1_555
Rb2 Se0 4.018948 1_455
Rb2 Se2 4.018948 1_554
Rb2 Se7 4.018948 1_565
Rb2 Se5 4.018948 1_555
Rb3 Se10 3.788208 1_555
Rb3 Se8 3.788208 1_555
Rb3 Se0 3.869941 1_545
Rb3 Se5 3.869941 1_556
Rb3 Se2 3.869941 1_555
Rb3 Se7 3.869941 1_655
Rb3 Se6 4.018948 1_556
Rb3 Se1 4.018948 1_555
Rb3 Se4 4.018948 1_655
Rb3 Se3 4.018948 1_545
Pd0 Se10 2.507558 1_555
Pd0 Se9 2.507558 1_555
Pd0 Se0 2.514201 1_545
Pd0 Se6 2.514201 1_555
Pd1 Se11 2.507558 1_555
Pd1 Se8 2.507558 1_555
Pd1 Se1 2.514201 1_554
Pd1 Se7 2.514201 1_655
Pd2 Se8 2.507558 1_555
Pd2 Se11 2.507558 1_555
Pd2 Se4 2.514201 1_565
Pd2 Se2 2.514201 1_555
Pd3 Se9 2.507558 1_555
Pd3 Se10 2.507558 1_555
Pd3 Se3 2.514201 1_455
Pd3 Se5 2.514201 1_556
Pd4 Se7 2.496627 1_655
Pd4 Se1 2.496627 1_554
Pd4 Se0 2.496627 1_545
Pd4 Se6 2.496627 1_555
Pd5 Se2 2.496627 1_555
Pd5 Se4 2.496627 1_565
Pd5 Se5 2.496627 1_556
Pd5 Se3 2.496627 1_455
Se0 U0 2.815239 1_555
Se1 U1 2.815239 1_655
Se2 U1 2.815239 1_565
Se3 U0 2.815239 1_556
Se4 U1 2.815239 1_555
Se5 U0 2.815239 1_455
Se6 U0 2.815239 1_545
Se7 U1 2.815239 1_554
Se8 U0 2.841567 1_555
Se9 U1 2.841567 1_555
Se10 U1 2.841567 1_555
Se11 U0 2.841567 1_555
