# generated using pymatgen
data_Mg14VMo
_symmetry_space_group_name_H-M   'P 1'
_cell_length_a   6.26582269
_cell_length_b   6.26582220
_cell_length_c   9.93637958
_cell_angle_alpha   90.00000000
_cell_angle_beta   90.00000000
_cell_angle_gamma   120.00000262
_symmetry_Int_Tables_number   1
_chemical_formula_structural   Mg14VMo
_chemical_formula_sum   'Mg14 V1 Mo1'
_cell_volume   337.84302905
_cell_formula_units_Z   1
loop_
 _symmetry_equiv_pos_site_id
 _symmetry_equiv_pos_as_xyz
  1  'x, y, z'
loop_
 _atom_site_type_symbol
 _atom_site_label
 _atom_site_symmetry_multiplicity
 _atom_site_fract_x
 _atom_site_fract_y
 _atom_site_fract_z
 _atom_site_occupancy
  Mg  Mg0  1  0.16882767  0.83441333  0.12500000  1
  Mg  Mg1  1  0.16899584  0.83449742  0.62500000  1
  Mg  Mg2  1  0.66558667  0.33117233  0.12500000  1
  Mg  Mg3  1  0.66550258  0.33100416  0.62500000  1
  Mg  Mg4  1  0.66558667  0.83441333  0.12500000  1
  Mg  Mg5  1  0.66550258  0.83449742  0.62500000  1
  Mg  Mg6  1  0.32593900  0.17406100  0.37834310  1
  Mg  Mg7  1  0.32593900  0.17406100  0.87165690  1
  Mg  Mg8  1  0.32593900  0.65187900  0.37834310  1
  Mg  Mg9  1  0.32593900  0.65187900  0.87165690  1
  Mg  Mg10  1  0.84812100  0.17406100  0.37834310  1
  Mg  Mg11  1  0.84812100  0.17406100  0.87165690  1
  Mg  Mg12  1  0.83333300  0.66666700  0.37477114  1
  Mg  Mg13  1  0.83333300  0.66666700  0.87522886  1
  V  V0  1  0.16666700  0.33333300  0.12500000  1
  Mo  Mo0  1  0.16666700  0.33333300  0.62500000  1
loop_
_geom_bond_atom_site_label_1
_geom_bond_atom_site_label_2
_geom_bond_distance
_geom_bond_site_symmetry_2
Mg0 Mg12 3.077939 1_455
Mg0 Mg13 3.077939 1_454
Mg0 Mg2 3.112604 1_565
Mg0 Mg4 3.112604 1_555
Mg0 Mg8 3.120898 1_555
Mg0 Mg9 3.120898 1_554
Mg0 Mg7 3.120905 1_564
Mg0 Mg6 3.120905 1_565
Mg0 V0 3.132933 1_555
Mg0 V0 3.132933 1_565
Mg0 Mg2 3.153219 1_455
Mg0 Mg4 3.153219 1_455
Mg1 Mg9 3.067309 1_555
Mg1 Mg8 3.067309 1_555
Mg1 Mg6 3.067315 1_565
Mg1 Mg7 3.067315 1_565
Mg1 Mg13 3.082147 1_455
Mg1 Mg12 3.082147 1_455
Mg1 Mg3 3.111023 1_565
Mg1 Mg5 3.111023 1_555
Mg1 Mo0 3.132937 1_555
Mg1 Mo0 3.132937 1_565
Mg1 Mg3 3.154799 1_455
Mg1 Mg5 3.154799 1_455
Mg2 Mg4 3.112604 1_545
Mg2 Mg6 3.120905 1_555
Mg2 Mg7 3.120905 1_554
Mg2 V0 3.132933 1_655
Mg2 V0 3.132933 1_555
Mg2 Mg4 3.153219 1_555
Mg3 Mg7 3.067315 1_555
Mg3 Mg6 3.067315 1_555
Mg3 Mg5 3.111023 1_545
Mg3 Mo0 3.132937 1_655
Mg3 Mo0 3.132937 1_555
Mg3 Mg5 3.154799 1_555
Mg4 Mg8 3.120905 1_555
Mg4 Mg9 3.120905 1_554
Mg4 V0 3.132933 1_555
Mg4 V0 3.132933 1_665
Mg5 Mg8 3.067315 1_555
Mg5 Mg9 3.067315 1_555
Mg5 Mo0 3.132937 1_555
Mg5 Mo0 3.132937 1_665
Mg6 Mg8 2.993923 1_555
Mg6 Mo0 2.999105 1_555
Mg6 V0 3.053637 1_555
Mg6 Mg8 3.271900 1_545
Mg7 Mg9 2.993923 1_555
Mg7 Mo0 2.999105 1_555
Mg7 V0 3.053637 1_556
Mg7 Mg9 3.271900 1_545
Mg8 Mo0 2.999111 1_555
Mg8 V0 3.053643 1_555
Mg9 Mo0 2.999111 1_555
Mg9 V0 3.053643 1_556
Mg10 Mg8 2.993923 1_655
Mg10 Mg6 2.993923 1_655
Mg10 Mo0 2.999111 1_655
Mg10 V0 3.053643 1_655
Mg10 Mg3 3.067309 1_555
Mg10 Mg5 3.067315 1_545
Mg10 Mg2 3.120898 1_555
Mg10 Mg4 3.120905 1_545
Mg10 Mg12 3.134140 1_545
Mg10 Mg12 3.134140 1_555
Mg10 Mg8 3.271900 1_545
Mg10 Mg6 3.271900 1_555
Mg11 Mg9 2.993923 1_655
Mg11 Mg7 2.993923 1_655
Mg11 Mo0 2.999111 1_655
Mg11 V0 3.053643 1_656
Mg11 Mg3 3.067309 1_555
Mg11 Mg5 3.067315 1_545
Mg11 Mg2 3.120898 1_556
Mg11 Mg4 3.120905 1_546
Mg11 Mg13 3.134140 1_545
Mg11 Mg13 3.134140 1_555
Mg11 Mg9 3.271900 1_545
Mg11 Mg7 3.271900 1_555
Mg12 Mg4 3.077933 1_555
Mg12 Mg2 3.077939 1_555
Mg12 Mg5 3.082141 1_555
Mg12 Mg3 3.082147 1_555
Mg12 Mg6 3.134140 1_665
Mg12 Mg6 3.134140 1_555
Mg12 Mg8 3.134140 1_555
Mg12 Mg8 3.134140 1_655
Mg13 Mg4 3.077933 1_556
Mg13 Mg2 3.077939 1_556
Mg13 Mg5 3.082141 1_555
Mg13 Mg3 3.082147 1_555
Mg13 Mg7 3.134140 1_665
Mg13 Mg7 3.134140 1_555
Mg13 Mg9 3.134140 1_555
Mg13 Mg9 3.134140 1_655
