# generated using pymatgen
data_LiPO3
_symmetry_space_group_name_H-M   'P 1'
_cell_length_a   5.52155800
_cell_length_b   13.31298000
_cell_length_c   19.66463186
_cell_angle_alpha   57.25981679
_cell_angle_beta   90.00000000
_cell_angle_gamma   90.00000000
_symmetry_Int_Tables_number   1
_chemical_formula_structural   LiPO3
_chemical_formula_sum   'Li20 P20 O60'
_cell_volume   1215.86885290
_cell_formula_units_Z   20
loop_
 _symmetry_equiv_pos_site_id
 _symmetry_equiv_pos_as_xyz
  1  'x, y, z'
loop_
 _atom_site_type_symbol
 _atom_site_label
 _atom_site_symmetry_multiplicity
 _atom_site_fract_x
 _atom_site_fract_y
 _atom_site_fract_z
 _atom_site_occupancy
  Li  Li0  1  0.50539300  0.87352200  0.18178000  1
  Li  Li1  1  0.49460700  0.87352200  0.68178000  1
  Li  Li2  1  0.51558100  0.11117000  0.06599600  1
  Li  Li3  1  0.48441900  0.11117000  0.56599600  1
  Li  Li4  1  0.49421600  0.34704300  0.95054300  1
  Li  Li5  1  0.50578400  0.34704300  0.45054300  1
  Li  Li6  1  0.49277600  0.58170300  0.83545200  1
  Li  Li7  1  0.50722400  0.58170300  0.33545200  1
  Li  Li8  1  0.00721700  0.72910600  0.75843400  1
  Li  Li9  1  0.99278300  0.72910600  0.25843400  1
  Li  Li10  1  0.47880600  0.37573700  0.68171400  1
  Li  Li11  1  0.52119400  0.37573700  0.18171400  1
  Li  Li12  1  0.52368700  0.61227500  0.56627000  1
  Li  Li13  1  0.47631300  0.61227500  0.06627000  1
  Li  Li14  1  0.46675000  0.84818200  0.44954700  1
  Li  Li15  1  0.53325000  0.84818200  0.94954700  1
  Li  Li16  1  0.52226300  0.08452000  0.33298400  1
  Li  Li17  1  0.47773700  0.08452000  0.83298400  1
  Li  Li18  1  0.03911100  0.23317100  0.25636600  1
  Li  Li19  1  0.96088900  0.23317100  0.75636600  1
  P  P0  1  0.81462300  0.99922100  0.99958700  1
  P  P1  1  0.18537700  0.99922100  0.49958700  1
  P  P2  1  0.15668300  0.20561300  0.90672000  1
  P  P3  1  0.84331700  0.20561300  0.40672000  1
  P  P4  1  0.81155600  0.40113700  0.80293900  1
  P  P5  1  0.18844400  0.40113700  0.30293900  1
  P  P6  1  0.17102300  0.59160500  0.69168900  1
  P  P7  1  0.82897700  0.59160500  0.19168900  1
  P  P8  1  0.84026100  0.79159900  0.59175100  1
  P  P9  1  0.15973900  0.79159900  0.09175100  1
  P  P10  1  0.15607000  0.66508000  0.42543300  1
  P  P11  1  0.84393000  0.66508000  0.92543300  1
  P  P12  1  0.82567800  0.86545200  0.32556200  1
  P  P13  1  0.17432200  0.86545200  0.82556200  1
  P  P14  1  0.18772200  0.05632300  0.21354500  1
  P  P15  1  0.81227800  0.05632300  0.71354500  1
  P  P16  1  0.84809900  0.25213400  0.11014400  1
  P  P17  1  0.15190100  0.25213400  0.61014400  1
  P  P18  1  0.19013300  0.45842000  0.01715500  1
  P  P19  1  0.80986700  0.45842000  0.51715500  1
  O  O0  1  0.93100000  0.12998500  0.96458700  1
  O  O1  1  0.06900000  0.12998500  0.46458700  1
  O  O2  1  0.04891300  0.34017900  0.85937200  1
  O  O3  1  0.95108700  0.34017900  0.35937200  1
  O  O4  1  0.91998200  0.51865000  0.72414400  1
  O  O5  1  0.08001800  0.51865000  0.22414400  1
  O  O6  1  0.07331900  0.70690400  0.60774100  1
  O  O7  1  0.92668100  0.70690400  0.10774100  1
  O  O8  1  0.05797800  0.91984800  0.02185200  1
  O  O9  1  0.94202200  0.91984800  0.52185200  1
  O  O10  1  0.92321900  0.74993600  0.40937800  1
  O  O11  1  0.07678100  0.74993600  0.90937800  1
  O  O12  1  0.07815900  0.93677400  0.29059600  1
  O  O13  1  0.92184100  0.93677400  0.79059600  1
  O  O14  1  0.95073500  0.11679900  0.15644500  1
  O  O15  1  0.04926500  0.11679900  0.65644500  1
  O  O16  1  0.08121300  0.32543200  0.05652000  1
  O  O17  1  0.91878700  0.32543200  0.55652000  1
  O  O18  1  0.05530900  0.53637100  0.49567300  1
  O  O19  1  0.94469100  0.53637100  0.99567300  1
  O  O20  1  0.67720500  0.97082700  0.07388900  1
  O  O21  1  0.32279500  0.97082700  0.57388900  1
  O  O22  1  0.68608200  0.99490900  0.93392600  1
  O  O23  1  0.31391800  0.99490900  0.43392600  1
  O  O24  1  0.35642400  0.20462500  0.95865100  1
  O  O25  1  0.64357600  0.20462500  0.45865100  1
  O  O26  1  0.20469500  0.17105600  0.84674300  1
  O  O27  1  0.79530500  0.17105600  0.34674300  1
  O  O28  1  0.64802600  0.43965800  0.84535300  1
  O  O29  1  0.35197400  0.43965800  0.34535300  1
  O  O30  1  0.71821900  0.32258300  0.77541000  1
  O  O31  1  0.28178100  0.32258300  0.27541000  1
  O  O32  1  0.24845400  0.63067000  0.74729500  1
  O  O33  1  0.75154600  0.63067000  0.24729500  1
  O  O34  1  0.34371000  0.52752000  0.66935200  1
  O  O35  1  0.65629000  0.52752000  0.16935200  1
  O  O36  1  0.78487900  0.79058400  0.66715900  1
  O  O37  1  0.21512100  0.79058400  0.16715900  1
  O  O38  1  0.64422300  0.76110500  0.55329200  1
  O  O39  1  0.35577700  0.76110500  0.05329200  1
  O  O40  1  0.35011000  0.69760900  0.46333500  1
  O  O41  1  0.64989000  0.69760900  0.96333500  1
  O  O42  1  0.21400400  0.66508700  0.35060600  1
  O  O43  1  0.78599600  0.66508700  0.85060600  1
  O  O44  1  0.65920700  0.93140600  0.34821500  1
  O  O45  1  0.34079300  0.93140600  0.84821500  1
  O  O46  1  0.74195600  0.82468800  0.27145800  1
  O  O47  1  0.25804400  0.82468800  0.77145800  1
  O  O48  1  0.27426600  0.13528000  0.24162500  1
  O  O49  1  0.72573400  0.13528000  0.74162500  1
  O  O50  1  0.35705000  0.01988000  0.17119900  1
  O  O51  1  0.64295000  0.01988000  0.67119900  1
  O  O52  1  0.79472800  0.28638000  0.17002700  1
  O  O53  1  0.20527200  0.28638000  0.67002700  1
  O  O54  1  0.65270500  0.25700400  0.05564000  1
  O  O55  1  0.34729500  0.25700400  0.55564000  1
  O  O56  1  0.32253000  0.46718100  0.08044100  1
  O  O57  1  0.67747000  0.46718100  0.58044100  1
  O  O58  1  0.32108600  0.48469000  0.94236600  1
  O  O59  1  0.67891400  0.48469000  0.44236600  1
loop_
_geom_bond_atom_site_label_1
_geom_bond_atom_site_label_2
_geom_bond_distance
_geom_bond_site_symmetry_2
Li0 O46 1.999645 1_555
Li0 O50 2.017961 1_565
Li0 O20 2.026470 1_555
Li0 O37 2.052809 1_555
Li1 O47 1.999645 1_555
Li1 O51 2.017961 1_565
Li1 O21 2.026470 1_555
Li1 O36 2.052809 1_555
Li2 O50 1.950263 1_555
Li2 O24 1.983772 1_554
Li2 O54 1.989078 1_555
Li2 O20 1.999419 1_545
Li3 O51 1.950263 1_555
Li3 O25 1.983772 1_555
Li3 O55 1.989078 1_555
Li3 O21 1.999419 1_545
Li4 O28 1.939476 1_555
Li4 O54 1.947888 1_556
Li4 O24 1.967775 1_555
Li4 O58 1.994742 1_555
Li5 O29 1.939476 1_555
Li5 O55 1.947888 1_555
Li5 O25 1.967775 1_555
Li5 O59 1.994742 1_555
Li6 O28 1.987593 1_555
Li6 O32 2.006927 1_555
Li6 O58 2.012425 1_555
Li6 O43 2.073688 1_555
Li7 O29 1.987593 1_555
Li7 O33 2.006927 1_555
Li7 O59 2.012425 1_555
Li7 O42 2.073688 1_555
Li8 O36 1.951827 1_455
Li8 O43 1.957737 1_455
Li8 O32 1.962156 1_555
Li8 O47 1.988823 1_555
Li9 O37 1.951827 1_655
Li9 O42 1.957737 1_655
Li9 O33 1.962156 1_555
Li9 O46 1.988823 1_555
Li10 O57 2.007225 1_555
Li10 O53 2.011173 1_555
Li10 O34 2.041410 1_555
Li10 O30 2.057368 1_555
Li11 O56 2.007225 1_555
Li11 O52 2.011173 1_555
Li11 O35 2.041410 1_555
Li11 O31 2.057368 1_555
Li12 O40 1.954256 1_555
Li12 O38 1.971537 1_555
Li12 O34 1.973755 1_555
Li12 O57 1.986865 1_555
Li13 O41 1.954256 1_554
Li13 O39 1.971537 1_555
Li13 O35 1.973755 1_555
Li13 O56 1.986865 1_555
Li14 O38 1.976875 1_555
Li14 O40 1.979576 1_555
Li14 O44 1.984801 1_555
Li14 O23 1.993265 1_555
Li15 O39 1.976875 1_556
Li15 O41 1.979576 1_555
Li15 O45 1.984801 1_555
Li15 O22 1.993265 1_555
Li16 O27 2.002623 1_555
Li16 O23 2.031095 1_545
Li16 O44 2.038668 1_545
Li16 O48 2.060607 1_555
Li17 O26 2.002623 1_555
Li17 O22 2.031095 1_545
Li17 O45 2.038668 1_545
Li17 O49 2.060607 1_555
Li18 O31 1.958241 1_555
Li18 O48 1.968993 1_555
Li18 O52 1.975932 1_455
Li18 O27 2.016166 1_455
Li19 O30 1.958241 1_555
Li19 O49 1.968993 1_555
Li19 O53 1.975932 1_655
Li19 O26 2.016166 1_655
O0 P0 1.619011 1_545
O0 P2 1.619308 1_655
O1 P1 1.619011 1_545
O1 P3 1.619308 1_455
O2 P2 1.620546 1_555
O2 P4 1.622833 1_455
O3 P3 1.620546 1_555
O3 P5 1.622833 1_655
O4 P4 1.607720 1_555
O4 P6 1.612927 1_655
O5 P5 1.607720 1_555
O5 P7 1.612927 1_455
O6 P6 1.622182 1_555
O6 P8 1.625637 1_455
O7 P7 1.622182 1_555
O7 P9 1.625637 1_655
O8 P9 1.606766 1_555
O8 P0 1.616597 1_454
O9 P8 1.606766 1_555
O9 P1 1.616597 1_655
O10 P12 1.621720 1_555
O10 P10 1.625764 1_655
O11 P13 1.621720 1_555
O11 P11 1.625764 1_455
O12 P14 1.608220 1_565
O12 P12 1.616058 1_455
O13 P15 1.608220 1_565
O13 P13 1.616058 1_655
O14 P16 1.619234 1_555
O14 P14 1.625862 1_655
O15 P17 1.619234 1_555
O15 P15 1.625862 1_455
O16 P16 1.614905 1_455
O16 P18 1.616490 1_555
O17 P17 1.614905 1_655
O17 P19 1.616490 1_555
O18 P10 1.610409 1_555
O18 P19 1.617974 1_455
O19 P11 1.610409 1_555
O19 P18 1.617974 1_656
O20 P0 1.502021 1_554
O21 P1 1.502021 1_555
O22 P0 1.501468 1_555
O23 P1 1.501468 1_555
O24 P2 1.498282 1_555
O25 P3 1.498282 1_555
O26 P2 1.503292 1_555
O27 P3 1.503292 1_555
O28 P4 1.495527 1_555
O29 P5 1.495527 1_555
O30 P4 1.504891 1_555
O31 P5 1.504891 1_555
O32 P6 1.504682 1_555
O33 P7 1.504682 1_555
O34 P6 1.495106 1_555
O35 P7 1.495106 1_555
O36 P8 1.506959 1_555
O37 P9 1.506959 1_555
O38 P8 1.496841 1_555
O39 P9 1.496841 1_555
O40 P10 1.496692 1_555
O41 P11 1.496692 1_555
O42 P10 1.505766 1_555
O43 P11 1.505766 1_555
O44 P12 1.495783 1_555
O45 P13 1.495783 1_555
O46 P12 1.504894 1_555
O47 P13 1.504894 1_555
O48 P14 1.505325 1_555
O49 P15 1.505325 1_555
O50 P14 1.496644 1_555
O51 P15 1.496644 1_555
O52 P16 1.504031 1_555
O53 P17 1.504031 1_555
O54 P16 1.497257 1_555
O55 P17 1.497257 1_555
O56 P18 1.501264 1_555
O57 P19 1.501264 1_555
O58 P18 1.500578 1_556
O59 P19 1.500578 1_555
