# generated using pymatgen
data_MgTiAlS4
_symmetry_space_group_name_H-M   'P 1'
_cell_length_a   7.35244974
_cell_length_b   7.31130344
_cell_length_c   7.31454511
_cell_angle_alpha   59.14206023
_cell_angle_beta   59.81274746
_cell_angle_gamma   59.82984758
_symmetry_Int_Tables_number   1
_chemical_formula_structural   MgTiAlS4
_chemical_formula_sum   'Mg2 Ti2 Al2 S8'
_cell_volume   275.44863682
_cell_formula_units_Z   2
loop_
 _symmetry_equiv_pos_site_id
 _symmetry_equiv_pos_as_xyz
  1  'x, y, z'
loop_
 _atom_site_type_symbol
 _atom_site_label
 _atom_site_symmetry_multiplicity
 _atom_site_fract_x
 _atom_site_fract_y
 _atom_site_fract_z
 _atom_site_occupancy
  Mg  Mg0  1  0.87491723  0.87503377  0.87514071  1
  Mg  Mg1  1  0.12508357  0.12497165  0.12485921  1
  Ti  Ti0  1  0.50000243  0.49999487  0.99999743  1
  Ti  Ti1  1  0.49999820  0.99999519  0.50000805  1
  Al  Al0  1  0.49999972  0.50001401  0.49998082  1
  Al  Al1  1  0.00000162  0.49999227  0.50001209  1
  S  S0  1  0.74769883  0.73553462  0.73552699  1
  S  S1  1  0.26029526  0.26506196  0.71424752  1
  S  S2  1  0.26037906  0.71424162  0.26506416  1
  S  S3  1  0.71876296  0.26450030  0.26445144  1
  S  S4  1  0.73961556  0.28575891  0.73492797  1
  S  S5  1  0.28123545  0.73549772  0.73554539  1
  S  S6  1  0.25230167  0.26445726  0.26448631  1
  S  S7  1  0.73971244  0.73494086  0.28575291  1
loop_
_geom_bond_atom_site_label_1
_geom_bond_atom_site_label_2
_geom_bond_distance
_geom_bond_site_symmetry_2
Mg0 S7 2.433743 1_556
Mg0 S4 2.433748 1_565
Mg0 S5 2.438376 1_655
Mg0 S0 2.438438 1_555
Mg1 S1 2.433740 1_554
Mg1 S2 2.433778 1_545
Mg1 S3 2.438388 1_455
Mg1 S6 2.438436 1_555
Al0 S3 2.447991 1_555
Al0 S5 2.448019 1_555
Al0 S7 2.452842 1_555
Al0 S1 2.452908 1_555
Al0 S2 2.453504 1_555
Al0 S4 2.453625 1_555
Al1 S0 2.448071 1_455
Al1 S6 2.448088 1_555
Al1 S4 2.452771 1_455
Al1 S2 2.452797 1_555
Al1 S1 2.453412 1_555
Al1 S7 2.453502 1_455
S0 Ti0 2.493301 1_555
S0 Ti1 2.494365 1_555
S1 Ti1 2.494478 1_545
S2 Ti0 2.494619 1_554
S3 Ti1 2.493418 1_545
S3 Ti0 2.494404 1_554
S4 Ti0 2.494581 1_555
S5 Ti1 2.493370 1_555
S5 Ti0 2.494424 1_555
S6 Ti0 2.493320 1_554
S6 Ti1 2.494358 1_545
S7 Ti1 2.494488 1_555
