# generated using pymatgen
data_Tm5Ni2Bi
_symmetry_space_group_name_H-M   'P 1'
_cell_length_a   8.54924100
_cell_length_b   8.54924100
_cell_length_c   8.54915513
_cell_angle_alpha   127.82926392
_cell_angle_beta   127.82926392
_cell_angle_gamma   76.90713017
_symmetry_Int_Tables_number   1
_chemical_formula_structural   Tm5Ni2Bi
_chemical_formula_sum   'Tm10 Ni4 Bi2'
_cell_volume   378.43800300
_cell_formula_units_Z   2
loop_
 _symmetry_equiv_pos_site_id
 _symmetry_equiv_pos_as_xyz
  1  'x, y, z'
loop_
 _atom_site_type_symbol
 _atom_site_label
 _atom_site_symmetry_multiplicity
 _atom_site_fract_x
 _atom_site_fract_y
 _atom_site_fract_z
 _atom_site_occupancy
  Tm  Tm0  1  0.00000000  0.00000000  0.00000000  1
  Tm  Tm1  1  0.50000000  0.50000000  0.00000000  1
  Tm  Tm2  1  0.78814220  0.28814220  0.81157123  1
  Tm  Tm3  1  0.21185780  0.71185780  0.18842877  1
  Tm  Tm4  1  0.47656005  0.97656005  0.18839140  1
  Tm  Tm5  1  0.28814671  0.47667937  0.49999038  1
  Tm  Tm6  1  0.02332063  0.21185329  0.50000962  1
  Tm  Tm7  1  0.52343995  0.02343995  0.81160860  1
  Tm  Tm8  1  0.71185329  0.52332063  0.50000962  1
  Tm  Tm9  1  0.97667937  0.78814671  0.49999038  1
  Ni  Ni0  1  0.13313298  0.63313298  0.76625674  1
  Ni  Ni1  1  0.86686702  0.36686702  0.23374326  1
  Ni  Ni2  1  0.63321138  0.86678862  0.50000000  1
  Ni  Ni3  1  0.36678862  0.13321138  0.50000000  1
  Bi  Bi0  1  0.24997995  0.25002005  0.00000000  1
  Bi  Bi1  1  0.75002005  0.74997995  0.00000000  1
loop_
_geom_bond_atom_site_label_1
_geom_bond_atom_site_label_2
_geom_bond_distance
_geom_bond_site_symmetry_2
Tm0 Tm7 3.348209 1_454
Tm0 Tm4 3.348209 1_545
Tm0 Tm2 3.348299 1_454
Tm0 Tm3 3.348299 1_545
Tm0 Tm8 3.348470 1_444
Tm0 Tm5 3.348470 1_555
Tm0 Tm9 3.348779 1_444
Tm0 Tm6 3.348779 1_555
Tm1 Tm4 3.348209 1_555
Tm1 Tm7 3.348209 1_554
Tm1 Tm2 3.348299 1_554
Tm1 Tm3 3.348299 1_555
Tm1 Tm6 3.348470 1_554
Tm1 Tm9 3.348470 1_555
Tm1 Tm5 3.348779 1_554
Tm1 Tm8 3.348779 1_555
Ni0 Tm8 2.808737 1_455
Ni0 Tm6 2.808737 1_555
Ni0 Tm5 2.808855 1_555
Ni0 Tm9 2.808855 1_455
Ni0 Ni1 2.830801 1_455
Ni0 Tm4 2.859389 1_556
Ni0 Tm3 2.859782 1_556
Ni0 Tm0 2.934370 1_566
Ni0 Tm1 2.934370 1_556
Ni1 Tm5 2.808737 1_655
Ni1 Tm9 2.808737 1_555
Ni1 Tm6 2.808855 1_655
Ni1 Tm8 2.808855 1_555
Ni1 Tm7 2.859389 1_554
Ni1 Tm2 2.859782 1_554
Ni1 Tm0 2.934370 1_655
Ni1 Tm1 2.934370 1_555
Ni2 Tm2 2.808931 1_565
Ni2 Tm3 2.808931 1_555
Ni2 Tm4 2.809282 1_555
Ni2 Tm7 2.809282 1_565
Ni2 Ni3 2.832928 1_565
Ni2 Tm8 2.860106 1_555
Ni2 Tm9 2.860106 1_555
Ni2 Tm0 2.933756 1_666
Ni2 Tm1 2.933756 1_555
Ni3 Tm2 2.808931 1_555
Ni3 Tm3 2.808931 1_545
Ni3 Tm7 2.809282 1_555
Ni3 Tm4 2.809282 1_545
Ni3 Tm6 2.860106 1_555
Ni3 Tm5 2.860106 1_555
Ni3 Tm0 2.933756 1_555
Ni3 Tm1 2.933756 1_556
Bi0 Tm6 3.247811 1_554
Bi0 Tm5 3.247811 1_555
Bi0 Tm9 3.247819 1_444
Bi0 Tm8 3.247819 1_555
Bi0 Tm2 3.248067 1_454
Bi0 Tm3 3.248067 1_555
Bi0 Tm4 3.248383 1_545
Bi0 Tm7 3.248383 1_554
Bi0 Tm0 3.347508 1_555
Bi0 Tm1 3.347508 1_555
Bi1 Tm8 3.247811 1_554
Bi1 Tm9 3.247811 1_555
Bi1 Tm6 3.247819 1_665
Bi1 Tm5 3.247819 1_554
Bi1 Tm3 3.248067 1_655
Bi1 Tm2 3.248067 1_554
Bi1 Tm7 3.248383 1_564
Bi1 Tm4 3.248383 1_555
Bi1 Tm0 3.347508 1_665
Bi1 Tm1 3.347508 1_555
