# generated using pymatgen
data_K3HWS4O
_symmetry_space_group_name_H-M   'P 1'
_cell_length_a   6.53956200
_cell_length_b   8.35518600
_cell_length_c   9.72050500
_cell_angle_alpha   90.00000000
_cell_angle_beta   90.00000000
_cell_angle_gamma   90.00000000
_symmetry_Int_Tables_number   1
_chemical_formula_structural   K3HWS4O
_chemical_formula_sum   'K6 H2 W2 S8 O2'
_cell_volume   531.12116959
_cell_formula_units_Z   2
loop_
 _symmetry_equiv_pos_site_id
 _symmetry_equiv_pos_as_xyz
  1  'x, y, z'
loop_
 _atom_site_type_symbol
 _atom_site_label
 _atom_site_symmetry_multiplicity
 _atom_site_fract_x
 _atom_site_fract_y
 _atom_site_fract_z
 _atom_site_occupancy
  K  K0  1  0.89434300  0.74443300  0.77258800  1
  K  K1  1  0.89434300  0.74443300  0.22741200  1
  K  K2  1  0.10565700  0.24443300  0.72741200  1
  K  K3  1  0.10565700  0.24443300  0.27258800  1
  K  K4  1  0.50315500  0.49665200  0.50000000  1
  K  K5  1  0.49684500  0.99665200  0.00000000  1
  H  H0  1  0.11339000  0.65961700  0.50000000  1
  H  H1  1  0.88661000  0.15961700  0.00000000  1
  W  W0  1  0.49808300  0.99114900  0.50000000  1
  W  W1  1  0.50191700  0.49114900  0.00000000  1
  S  S0  1  0.40553600  0.85122700  0.68683600  1
  S  S1  1  0.40553600  0.85122700  0.31316400  1
  S  S2  1  0.59446400  0.35122700  0.81316400  1
  S  S3  1  0.59446400  0.35122700  0.18683600  1
  S  S4  1  0.83792300  0.02266200  0.50000000  1
  S  S5  1  0.16207700  0.52266200  0.00000000  1
  S  S6  1  0.00060500  0.52376800  0.50000000  1
  S  S7  1  0.99939500  0.02376800  0.00000000  1
  O  O0  1  0.37009200  0.18139100  0.50000000  1
  O  O1  1  0.62990800  0.68139100  0.00000000  1
loop_
_geom_bond_atom_site_label_1
_geom_bond_atom_site_label_2
_geom_bond_distance
_geom_bond_site_symmetry_2
K0 O1 2.855601 1_556
K0 S5 3.374237 1_656
K0 S0 3.421860 1_555
K0 S4 3.544154 1_565
K0 S0 3.559000 1_655
K1 O1 2.855601 1_555
K1 S5 3.374237 1_655
K1 S1 3.421860 1_555
K1 S4 3.544154 1_565
K1 S1 3.559000 1_655
K2 O0 2.855601 1_555
K2 S4 3.374237 1_455
K2 S2 3.421860 1_555
K2 S5 3.544154 1_556
K2 S2 3.559000 1_455
K3 O0 2.855601 1_555
K3 S4 3.374237 1_455
K3 S3 3.421860 1_555
K3 S5 3.544154 1_555
K3 S3 3.559000 1_455
K4 O0 2.774076 1_555
K4 S2 3.331595 1_555
K4 S3 3.331595 1_555
K4 S1 3.533065 1_555
K4 S0 3.533065 1_555
K5 O1 2.774076 1_555
K5 S1 3.331595 1_555
K5 S0 3.331595 1_554
K5 S2 3.533065 1_564
K5 S3 3.533065 1_565
H0 S6 1.353634 1_555
H1 S7 1.353634 1_555
S0 W0 2.243076 1_555
S1 W0 2.243076 1_555
S2 W1 2.243076 1_556
S3 W1 2.243076 1_555
S4 W0 2.237947 1_545
S5 W1 2.237947 1_555
O0 W0 1.796416 1_545
O1 W1 1.796416 1_555
