# generated using pymatgen
data_KTlCl2
_symmetry_space_group_name_H-M   'P 1'
_cell_length_a   9.00440682
_cell_length_b   9.00439513
_cell_length_c   9.00615914
_cell_angle_alpha   119.99406716
_cell_angle_beta   119.99412228
_cell_angle_gamma   90.00010403
_symmetry_Int_Tables_number   1
_chemical_formula_structural   KTlCl2
_chemical_formula_sum   'K4 Tl4 Cl8'
_cell_volume   516.42991082
_cell_formula_units_Z   4
loop_
 _symmetry_equiv_pos_site_id
 _symmetry_equiv_pos_as_xyz
  1  'x, y, z'
loop_
 _atom_site_type_symbol
 _atom_site_label
 _atom_site_symmetry_multiplicity
 _atom_site_fract_x
 _atom_site_fract_y
 _atom_site_fract_z
 _atom_site_occupancy
  K  K0  1  0.62500000  0.87500005  0.25000030  1
  K  K1  1  0.62499954  0.37500005  0.24999988  1
  K  K2  1  0.62499992  0.37499964  0.74999971  1
  K  K3  1  0.12499996  0.37500005  0.75000020  1
  Tl  Tl0  1  0.12500003  0.37500004  0.25000018  1
  Tl  Tl1  1  0.12499988  0.87499999  0.24999982  1
  Tl  Tl2  1  0.12500002  0.87500003  0.75000005  1
  Tl  Tl3  1  0.62500021  0.87499995  0.74999994  1
  Cl  Cl0  1  0.38396876  0.12817547  0.25624344  1
  Cl  Cl1  1  0.87227126  0.12806444  0.25624315  1
  Cl  Cl2  1  0.37806265  0.13396929  0.75624342  1
  Cl  Cl3  1  0.86603134  0.62182488  0.24375681  1
  Cl  Cl4  1  0.37817760  0.62227086  0.75624343  1
  Cl  Cl5  1  0.37772906  0.62193548  0.24375661  1
  Cl  Cl6  1  0.87193709  0.61603089  0.74375663  1
  Cl  Cl7  1  0.87182267  0.12772890  0.74375641  1
loop_
_geom_bond_atom_site_label_1
_geom_bond_atom_site_label_2
_geom_bond_distance
_geom_bond_site_symmetry_2
Cl0 K2 3.145396 1_555
Cl0 K1 3.146429 1_555
Cl0 K0 3.147128 1_545
Cl0 Tl0 3.220890 1_555
Cl0 Tl1 3.221560 1_545
Cl0 Tl2 3.224920 1_544
Cl1 K3 3.145400 1_655
Cl1 K0 3.146389 1_545
Cl1 K1 3.147133 1_555
Cl1 Tl1 3.220890 1_645
Cl1 Tl0 3.221603 1_655
Cl1 Tl3 3.224920 1_544
Cl2 K1 3.145397 1_556
Cl2 K3 3.146399 1_555
Cl2 K2 3.147154 1_555
Cl2 Tl2 3.220854 1_545
Cl2 Tl3 3.221605 1_545
Cl2 Tl1 3.224921 1_545
Cl3 K2 3.145401 1_554
Cl3 K1 3.146434 1_555
Cl3 K0 3.147127 1_555
Cl3 Tl0 3.220892 1_655
Cl3 Tl1 3.221559 1_655
Cl3 Tl2 3.224919 1_655
Cl4 K0 3.145399 1_556
Cl4 K2 3.146400 1_555
Cl4 K3 3.147113 1_555
Cl4 Tl3 3.220898 1_555
Cl4 Tl2 3.221605 1_555
Cl4 Tl0 3.224921 1_555
Cl5 K3 3.145396 1_554
Cl5 K0 3.146383 1_555
Cl5 K1 3.147124 1_555
Cl5 Tl1 3.220893 1_555
Cl5 Tl0 3.221608 1_555
Cl5 Tl3 3.224921 1_555
Cl6 K1 3.145399 1_555
Cl6 K3 3.146401 1_655
Cl6 K2 3.147155 1_555
Cl6 Tl2 3.220855 1_655
Cl6 Tl3 3.221599 1_555
Cl6 Tl1 3.224918 1_656
Cl7 K0 3.145394 1_545
Cl7 K2 3.146400 1_555
Cl7 K3 3.147110 1_655
Cl7 Tl3 3.220896 1_545
Cl7 Tl2 3.221602 1_645
Cl7 Tl0 3.224924 1_656
