# generated using pymatgen
data_Ca(MoO2)2
_symmetry_space_group_name_H-M   'P 1'
_cell_length_a   7.30255497
_cell_length_b   7.30255497
_cell_length_c   9.84159186
_cell_angle_alpha   55.98253665
_cell_angle_beta   55.98253665
_cell_angle_gamma   26.30427297
_symmetry_Int_Tables_number   1
_chemical_formula_structural   Ca(MoO2)2
_chemical_formula_sum   'Ca2 Mo4 O8'
_cell_volume   190.35724201
_cell_formula_units_Z   2
loop_
 _symmetry_equiv_pos_site_id
 _symmetry_equiv_pos_as_xyz
  1  'x, y, z'
loop_
 _atom_site_type_symbol
 _atom_site_label
 _atom_site_symmetry_multiplicity
 _atom_site_fract_x
 _atom_site_fract_y
 _atom_site_fract_z
 _atom_site_occupancy
  Ca  Ca0  1  0.66042600  0.66042600  0.82276600  1
  Ca  Ca1  1  0.33957400  0.33957400  0.17723400  1
  Mo  Mo0  1  0.36331400  0.36331400  0.83103200  1
  Mo  Mo1  1  0.86187900  0.86187900  0.47108200  1
  Mo  Mo2  1  0.13812100  0.13812100  0.52891800  1
  Mo  Mo3  1  0.63668600  0.63668600  0.16896800  1
  O  O0  1  0.13225800  0.13225800  0.30830700  1
  O  O1  1  0.54626800  0.54626800  0.69711600  1
  O  O2  1  0.45373200  0.45373200  0.30288400  1
  O  O3  1  0.86774200  0.86774200  0.69169300  1
  O  O4  1  0.83515800  0.83515800  0.00838100  1
  O  O5  1  0.24086700  0.24086700  0.62515700  1
  O  O6  1  0.16484200  0.16484200  0.99161900  1
  O  O7  1  0.75913300  0.75913300  0.37484300  1
loop_
_geom_bond_atom_site_label_1
_geom_bond_atom_site_label_2
_geom_bond_distance
_geom_bond_site_symmetry_2
Ca0 O5 2.301187 1_655
Ca0 O5 2.301187 1_565
Ca0 O6 2.376198 1_565
Ca0 O6 2.376198 1_655
Ca0 O3 2.446864 1_555
Ca0 O1 2.544011 1_555
Ca1 O7 2.301187 1_545
Ca1 O7 2.301187 1_455
Ca1 O4 2.376198 1_545
Ca1 O4 2.376198 1_455
Ca1 O0 2.446864 1_555
Ca1 O2 2.544011 1_555
Mo0 O3 2.132177 1_545
Mo0 O3 2.132177 1_455
Mo0 O1 2.137035 1_555
Mo0 O4 2.272578 1_546
Mo0 O4 2.272578 1_456
Mo0 O6 2.310706 1_555
Mo1 O7 2.150030 1_555
Mo1 O2 2.173221 1_655
Mo1 O2 2.173221 1_565
Mo1 O3 2.220118 1_555
Mo1 O5 2.241335 1_655
Mo1 O5 2.241335 1_565
Mo2 O5 2.150030 1_555
Mo2 O1 2.173221 1_545
Mo2 O1 2.173221 1_455
Mo2 O0 2.220118 1_555
Mo2 O7 2.241335 1_545
Mo2 O7 2.241335 1_455
Mo3 O0 2.132177 1_655
Mo3 O0 2.132177 1_565
Mo3 O2 2.137035 1_555
Mo3 O6 2.272578 1_654
Mo3 O6 2.272578 1_564
Mo3 O4 2.310706 1_555
