# generated using pymatgen
data_Pb4Se3S
_symmetry_space_group_name_H-M   'P 1'
_cell_length_a   4.33339897
_cell_length_b   4.33339897
_cell_length_c   12.28561488
_cell_angle_alpha   90.00000000
_cell_angle_beta   90.00000000
_cell_angle_gamma   90.00000000
_symmetry_Int_Tables_number   1
_chemical_formula_structural   Pb4Se3S
_chemical_formula_sum   'Pb4 Se3 S1'
_cell_volume   230.70353482
_cell_formula_units_Z   1
loop_
 _symmetry_equiv_pos_site_id
 _symmetry_equiv_pos_as_xyz
  1  'x, y, z'
loop_
 _atom_site_type_symbol
 _atom_site_label
 _atom_site_symmetry_multiplicity
 _atom_site_fract_x
 _atom_site_fract_y
 _atom_site_fract_z
 _atom_site_occupancy
  Pb  Pb0  1  0.00000000  0.00000000  0.25467322  1
  Pb  Pb1  1  0.50000000  0.50000000  -0.00000000  1
  Pb  Pb2  1  0.00000000  0.00000000  0.74532678  1
  Pb  Pb3  1  0.50000000  0.50000000  0.50000000  1
  Se  Se0  1  0.50000000  0.50000000  0.25124632  1
  Se  Se1  1  0.00000000  0.00000000  -0.00000000  1
  Se  Se2  1  0.50000000  0.50000000  0.74875368  1
  S  S0  1  0.00000000  0.00000000  0.50000000  1
loop_
_geom_bond_atom_site_label_1
_geom_bond_atom_site_label_2
_geom_bond_distance
_geom_bond_site_symmetry_2
Pb0 S0 3.013990 1_555
Pb0 Se0 3.064465 1_555
Pb0 Se0 3.064465 1_445
Pb0 Se0 3.064465 1_455
Pb0 Se0 3.064465 1_545
Pb0 Se1 3.128817 1_555
Pb1 Se1 3.064176 1_665
Pb1 Se1 3.064176 1_555
Pb1 Se1 3.064176 1_565
Pb1 Se1 3.064176 1_655
Pb1 Se2 3.086716 1_554
Pb1 Se0 3.086716 1_555
Pb2 S0 3.013990 1_555
Pb2 Se2 3.064465 1_455
Pb2 Se2 3.064465 1_445
Pb2 Se2 3.064465 1_555
Pb2 Se2 3.064465 1_545
Pb2 Se1 3.128817 1_556
Pb3 Se2 3.056092 1_555
Pb3 Se0 3.056092 1_555
Pb3 S0 3.064176 1_565
Pb3 S0 3.064176 1_655
Pb3 S0 3.064176 1_555
Pb3 S0 3.064176 1_665
