# generated using pymatgen
data_ZrCoSi
_symmetry_space_group_name_H-M   'P 1'
_cell_length_a   3.89574215
_cell_length_b   6.45104785
_cell_length_c   7.05120703
_cell_angle_alpha   90.00045735
_cell_angle_beta   90.00000000
_cell_angle_gamma   90.00000000
_symmetry_Int_Tables_number   1
_chemical_formula_structural   ZrCoSi
_chemical_formula_sum   'Zr4 Co4 Si4'
_cell_volume   177.20824871
_cell_formula_units_Z   4
loop_
 _symmetry_equiv_pos_site_id
 _symmetry_equiv_pos_as_xyz
  1  'x, y, z'
loop_
 _atom_site_type_symbol
 _atom_site_label
 _atom_site_symmetry_multiplicity
 _atom_site_fract_x
 _atom_site_fract_y
 _atom_site_fract_z
 _atom_site_occupancy
  Zr  Zr0  1  0.25000000  0.00115424  0.30401232  1
  Zr  Zr1  1  0.25000000  0.50113878  0.19591840  1
  Zr  Zr2  1  0.75000000  0.99888304  0.69583993  1
  Zr  Zr3  1  0.75000000  0.49884276  0.80421418  1
  Co  Co0  1  0.25000000  0.14970224  0.93394904  1
  Co  Co1  1  0.25000000  0.64967658  0.56606149  1
  Co  Co2  1  0.75000000  0.85028613  0.06606306  1
  Co  Co3  1  0.75000000  0.35032552  0.43394217  1
  Si  Si0  1  0.25000000  0.28532343  0.60486997  1
  Si  Si1  1  0.25000000  0.78533502  0.89516395  1
  Si  Si2  1  0.75000000  0.71467202  0.39504146  1
  Si  Si3  1  0.75000000  0.21466126  0.10492403  1
loop_
_geom_bond_atom_site_label_1
_geom_bond_atom_site_label_2
_geom_bond_distance
_geom_bond_site_symmetry_2
Co0 Si3 2.328781 1_556
Co0 Si3 2.328781 1_456
Co0 Si1 2.366404 1_545
Co0 Si0 2.479871 1_555
Co0 Zr2 2.749488 1_445
Co0 Zr2 2.749488 1_545
Co0 Zr0 2.779801 1_556
Co0 Zr1 2.924377 1_556
Co0 Zr3 3.115129 1_455
Co0 Zr3 3.115129 1_555
Co1 Si2 2.328992 1_555
Co1 Si2 2.328992 1_455
Co1 Si0 2.366337 1_555
Co1 Si1 2.480097 1_555
Co1 Zr3 2.749719 1_455
Co1 Zr3 2.749719 1_555
Co1 Zr1 2.780292 1_555
Co1 Zr0 2.924961 1_565
Co1 Zr2 3.115516 1_455
Co1 Zr2 3.115516 1_555
Co2 Si1 2.328495 1_554
Co2 Si1 2.328495 1_654
Co2 Si3 2.366517 1_565
Co2 Si2 2.479190 1_555
Co2 Zr0 2.748912 1_665
Co2 Zr0 2.748912 1_565
Co2 Zr2 2.780967 1_554
Co2 Zr3 2.923874 1_554
Co2 Zr1 3.115410 1_655
Co2 Zr1 3.115410 1_555
Co3 Si0 2.328663 1_555
Co3 Si0 2.328663 1_655
Co3 Si2 2.366370 1_555
Co3 Si3 2.479554 1_555
Co3 Zr1 2.749117 1_555
Co3 Zr1 2.749117 1_655
Co3 Zr3 2.781099 1_555
Co3 Zr2 2.924110 1_545
Co3 Zr0 3.115665 1_655
Co3 Zr0 3.115665 1_555
Si0 Zr2 2.760469 1_445
Si0 Zr2 2.760469 1_545
Si0 Zr3 2.768976 1_455
Si0 Zr3 2.768976 1_555
Si0 Zr0 2.803729 1_555
Si1 Zr3 2.760653 1_455
Si1 Zr3 2.760653 1_555
Si1 Zr2 2.769007 1_555
Si1 Zr2 2.769007 1_455
Si1 Zr1 2.803315 1_556
Si2 Zr0 2.760747 1_665
Si2 Zr0 2.760747 1_565
Si2 Zr1 2.768229 1_555
Si2 Zr1 2.768229 1_655
Si2 Zr2 2.803590 1_555
Si3 Zr1 2.760663 1_655
Si3 Zr1 2.760663 1_555
Si3 Zr0 2.768032 1_555
Si3 Zr0 2.768032 1_655
Si3 Zr3 2.803015 1_554
