# generated using pymatgen
data_Sc5Si4
_symmetry_space_group_name_H-M   'P 1'
_cell_length_a   7.02952400
_cell_length_b   7.14176500
_cell_length_c   13.64316600
_cell_angle_alpha   90.00000000
_cell_angle_beta   90.00000000
_cell_angle_gamma   90.00000000
_symmetry_Int_Tables_number   1
_chemical_formula_structural   Sc5Si4
_chemical_formula_sum   'Sc20 Si16'
_cell_volume   684.93070689
_cell_formula_units_Z   4
loop_
 _symmetry_equiv_pos_site_id
 _symmetry_equiv_pos_as_xyz
  1  'x, y, z'
loop_
 _atom_site_type_symbol
 _atom_site_label
 _atom_site_symmetry_multiplicity
 _atom_site_fract_x
 _atom_site_fract_y
 _atom_site_fract_z
 _atom_site_occupancy
  Sc  Sc0  1  0.20797100  0.00142200  0.75000000  1
  Sc  Sc1  1  0.79202900  0.99857800  0.25000000  1
  Sc  Sc2  1  0.29202900  0.50142200  0.25000000  1
  Sc  Sc3  1  0.70797100  0.49857800  0.75000000  1
  Sc  Sc4  1  0.02358400  0.67909200  0.59934800  1
  Sc  Sc5  1  0.97641600  0.32090800  0.40065200  1
  Sc  Sc6  1  0.47641600  0.17909200  0.40065200  1
  Sc  Sc7  1  0.97641600  0.32090800  0.09934800  1
  Sc  Sc8  1  0.52358400  0.82090800  0.59934800  1
  Sc  Sc9  1  0.02358400  0.67909200  0.90065200  1
  Sc  Sc10  1  0.52358400  0.82090800  0.90065200  1
  Sc  Sc11  1  0.47641600  0.17909200  0.09934800  1
  Sc  Sc12  1  0.37603200  0.33137500  0.62108100  1
  Sc  Sc13  1  0.62396800  0.66862500  0.37891900  1
  Sc  Sc14  1  0.12396800  0.83137500  0.37891900  1
  Sc  Sc15  1  0.62396800  0.66862500  0.12108100  1
  Sc  Sc16  1  0.87603200  0.16862500  0.62108100  1
  Sc  Sc17  1  0.37603200  0.33137500  0.87891900  1
  Sc  Sc18  1  0.87603200  0.16862500  0.87891900  1
  Sc  Sc19  1  0.12396800  0.83137500  0.12108100  1
  Si  Si0  1  0.08076900  0.38960200  0.75000000  1
  Si  Si1  1  0.91923100  0.61039800  0.25000000  1
  Si  Si2  1  0.41923100  0.88960200  0.25000000  1
  Si  Si3  1  0.58076900  0.11039800  0.75000000  1
  Si  Si4  1  0.32602200  0.63403100  0.75000000  1
  Si  Si5  1  0.67397800  0.36596900  0.25000000  1
  Si  Si6  1  0.17397800  0.13403100  0.25000000  1
  Si  Si7  1  0.82602200  0.86596900  0.75000000  1
  Si  Si8  1  0.20895100  0.03295100  0.54119700  1
  Si  Si9  1  0.79104900  0.96704900  0.45880300  1
  Si  Si10  1  0.29104900  0.53295100  0.45880300  1
  Si  Si11  1  0.79104900  0.96704900  0.04119700  1
  Si  Si12  1  0.70895100  0.46704900  0.54119700  1
  Si  Si13  1  0.20895100  0.03295100  0.95880300  1
  Si  Si14  1  0.70895100  0.46704900  0.95880300  1
  Si  Si15  1  0.29104900  0.53295100  0.04119700  1
loop_
_geom_bond_atom_site_label_1
_geom_bond_atom_site_label_2
_geom_bond_distance
_geom_bond_site_symmetry_2
Sc0 Si3 2.733720 1_555
Sc0 Si4 2.751921 1_545
Sc0 Si7 2.853875 1_445
Sc0 Si13 2.857628 1_555
Sc0 Si8 2.857628 1_555
Sc0 Si0 2.912925 1_555
Sc1 Si2 2.733720 1_555
Sc1 Si5 2.751921 1_565
Sc1 Si6 2.853875 1_665
Sc1 Si9 2.857628 1_555
Sc1 Si11 2.857628 1_555
Sc1 Si1 2.912925 1_555
Sc2 Si1 2.733720 1_455
Sc2 Si6 2.751921 1_555
Sc2 Si5 2.853875 1_555
Sc2 Si10 2.857628 1_555
Sc2 Si15 2.857628 1_555
Sc2 Si2 2.912925 1_555
Sc3 Si0 2.733720 1_655
Sc3 Si7 2.751921 1_555
Sc3 Si4 2.853875 1_555
Sc3 Si14 2.857628 1_555
Sc3 Si12 2.857628 1_555
Sc3 Si3 2.912925 1_555
Sc4 Si12 2.795429 1_455
Sc4 Si7 2.816818 1_455
Sc4 Si10 2.881148 1_555
Sc4 Si0 2.942884 1_555
Sc4 Si8 2.951944 1_565
Sc4 Si4 2.974553 1_555
Sc4 Si9 3.252377 1_455
Sc5 Si10 2.795429 1_655
Sc5 Si6 2.816818 1_655
Sc5 Si12 2.881148 1_555
Sc5 Si1 2.942884 1_555
Sc5 Si9 2.951944 1_545
Sc5 Si5 2.974553 1_555
Sc5 Si8 3.252377 1_655
Sc6 Si9 2.795429 1_545
Sc6 Si5 2.816818 1_555
Sc6 Si8 2.881148 1_555
Sc6 Si2 2.942884 1_545
Sc6 Si10 2.951944 1_555
Sc6 Si6 2.974553 1_555
Sc6 Si12 3.252377 1_555
Sc7 Si15 2.795429 1_655
Sc7 Si6 2.816818 1_655
Sc7 Si14 2.881148 1_554
Sc7 Si1 2.942884 1_555
Sc7 Si11 2.951944 1_545
Sc7 Si5 2.974553 1_555
Sc7 Si13 3.252377 1_654
Sc8 Si8 2.795429 1_565
Sc8 Si4 2.816818 1_555
Sc8 Si9 2.881148 1_555
Sc8 Si3 2.942884 1_565
Sc8 Si12 2.951944 1_555
Sc8 Si7 2.974553 1_555
Sc8 Si10 3.252377 1_555
Sc9 Si14 2.795429 1_455
Sc9 Si7 2.816818 1_455
Sc9 Si15 2.881148 1_556
Sc9 Si0 2.942884 1_555
Sc9 Si13 2.951944 1_565
Sc9 Si4 2.974553 1_555
Sc9 Si11 3.252377 1_456
Sc10 Si13 2.795429 1_565
Sc10 Si4 2.816818 1_555
Sc10 Si11 2.881148 1_556
Sc10 Si3 2.942884 1_565
Sc10 Si14 2.951944 1_555
Sc10 Si7 2.974553 1_555
Sc10 Si15 3.252377 1_556
Sc11 Si11 2.795429 1_545
Sc11 Si5 2.816818 1_555
Sc11 Si13 2.881148 1_554
Sc11 Si2 2.942884 1_545
Sc11 Si15 2.951944 1_555
Sc11 Si6 2.974553 1_555
Sc11 Si14 3.252377 1_554
Sc12 Si8 2.666383 1_555
Sc12 Si10 2.707597 1_555
Sc12 Si0 2.752175 1_555
Sc12 Si12 2.757447 1_555
Sc12 Si3 2.766860 1_555
Sc12 Si4 2.808782 1_555
Sc13 Si9 2.666383 1_555
Sc13 Si12 2.707597 1_555
Sc13 Si1 2.752175 1_555
Sc13 Si10 2.757447 1_555
Sc13 Si2 2.766860 1_555
Sc13 Si5 2.808782 1_555
Sc14 Si10 2.666383 1_555
Sc14 Si8 2.707597 1_565
Sc14 Si2 2.752175 1_555
Sc14 Si9 2.757447 1_455
Sc14 Si1 2.766860 1_455
Sc14 Si6 2.808782 1_565
Sc15 Si11 2.666383 1_555
Sc15 Si14 2.707597 1_554
Sc15 Si1 2.752175 1_555
Sc15 Si15 2.757447 1_555
Sc15 Si2 2.766860 1_555
Sc15 Si5 2.808782 1_555
Sc16 Si12 2.666383 1_555
Sc16 Si9 2.707597 1_545
Sc16 Si3 2.752175 1_555
Sc16 Si8 2.757447 1_655
Sc16 Si0 2.766860 1_655
Sc16 Si7 2.808782 1_545
Sc17 Si13 2.666383 1_555
Sc17 Si15 2.707597 1_556
Sc17 Si0 2.752175 1_555
Sc17 Si14 2.757447 1_555
Sc17 Si3 2.766860 1_555
Sc17 Si4 2.808782 1_555
Sc18 Si14 2.666383 1_555
Sc18 Si11 2.707597 1_546
Sc18 Si3 2.752175 1_555
Sc18 Si13 2.757447 1_655
Sc18 Si0 2.766860 1_655
Sc18 Si7 2.808782 1_545
Sc19 Si15 2.666383 1_555
Sc19 Si13 2.707597 1_564
Sc19 Si2 2.752175 1_555
Sc19 Si11 2.757447 1_455
Sc19 Si1 2.766860 1_455
Sc19 Si6 2.808782 1_565
Si0 Si4 2.453472 1_555
Si1 Si5 2.453472 1_555
Si2 Si6 2.453472 1_565
Si3 Si7 2.453472 1_545
