# generated using pymatgen
data_Mg2VIn3S8
_symmetry_space_group_name_H-M   'P 1'
_cell_length_a   7.62239251
_cell_length_b   7.57440920
_cell_length_c   7.63214472
_cell_angle_alpha   60.02166382
_cell_angle_beta   60.05301199
_cell_angle_gamma   59.61499408
_symmetry_Int_Tables_number   1
_chemical_formula_structural   Mg2VIn3S8
_chemical_formula_sum   'Mg2 V1 In3 S8'
_cell_volume   310.83896244
_cell_formula_units_Z   1
loop_
 _symmetry_equiv_pos_site_id
 _symmetry_equiv_pos_as_xyz
  1  'x, y, z'
loop_
 _atom_site_type_symbol
 _atom_site_label
 _atom_site_symmetry_multiplicity
 _atom_site_fract_x
 _atom_site_fract_y
 _atom_site_fract_z
 _atom_site_occupancy
  Mg  Mg0  1  0.87592200  0.87245900  0.87581600  1
  Mg  Mg1  1  0.12409300  0.12748800  0.12419900  1
  V  V0  1  0.49999200  0.00001400  0.50000200  1
  In  In0  1  0.49997100  0.50004600  0.49997000  1
  In  In1  1  0.50005200  0.49997100  0.99998600  1
  In  In2  1  0.99996700  0.50000800  0.49997700  1
  S  S0  1  0.73056200  0.76234500  0.73081200  1
  S  S1  1  0.26919200  0.23643500  0.72456900  1
  S  S2  1  0.25695900  0.72903100  0.25803200  1
  S  S3  1  0.72390600  0.23790800  0.26875900  1
  S  S4  1  0.74297600  0.27092700  0.74196100  1
  S  S5  1  0.27612300  0.76210000  0.73130800  1
  S  S6  1  0.26945100  0.23759400  0.26925700  1
  S  S7  1  0.73084000  0.76366900  0.27535200  1
loop_
_geom_bond_atom_site_label_1
_geom_bond_atom_site_label_2
_geom_bond_distance
_geom_bond_site_symmetry_2
Mg0 S4 2.457255 1_565
Mg0 S5 2.490662 1_655
Mg0 S0 2.495910 1_555
Mg0 S7 2.498868 1_556
Mg1 S2 2.457186 1_545
Mg1 S3 2.490543 1_455
Mg1 S6 2.496193 1_555
Mg1 S1 2.499400 1_554
In0 S2 2.610217 1_555
In0 S4 2.610425 1_555
In0 S3 2.652462 1_555
In0 S5 2.652722 1_555
In0 S1 2.672407 1_555
In0 S7 2.672958 1_555
In1 S4 2.615420 1_555
In1 S2 2.615615 1_556
In1 S5 2.656668 1_555
In1 S3 2.656800 1_556
In1 S0 2.665635 1_555
In1 S6 2.666154 1_556
In2 S2 2.623224 1_655
In2 S4 2.623520 1_555
In2 S6 2.650845 1_655
In2 S0 2.650977 1_555
In2 S7 2.661003 1_555
In2 S1 2.661345 1_655
S0 V0 2.480715 1_565
S1 V0 2.471666 1_555
S3 V0 2.490057 1_555
S5 V0 2.489928 1_565
S6 V0 2.480205 1_555
S7 V0 2.471700 1_565
