# generated using pymatgen
data_Tm(CoB)4
_symmetry_space_group_name_H-M   'P 1'
_cell_length_a   4.99984800
_cell_length_b   4.99984800
_cell_length_c   6.95832900
_cell_angle_alpha   90.00000000
_cell_angle_beta   90.00000000
_cell_angle_gamma   90.00000000
_symmetry_Int_Tables_number   1
_chemical_formula_structural   Tm(CoB)4
_chemical_formula_sum   'Tm2 Co8 B8'
_cell_volume   173.94764850
_cell_formula_units_Z   2
loop_
 _symmetry_equiv_pos_site_id
 _symmetry_equiv_pos_as_xyz
  1  'x, y, z'
loop_
 _atom_site_type_symbol
 _atom_site_label
 _atom_site_symmetry_multiplicity
 _atom_site_fract_x
 _atom_site_fract_y
 _atom_site_fract_z
 _atom_site_occupancy
  Tm  Tm0  1  0.75000000  0.25000000  0.25000000  1
  Tm  Tm1  1  0.25000000  0.75000000  0.75000000  1
  Co  Co0  1  0.00338900  0.75000000  0.11199400  1
  Co  Co1  1  0.49661100  0.75000000  0.11199400  1
  Co  Co2  1  0.75000000  0.00338900  0.61199400  1
  Co  Co3  1  0.75000000  0.49661100  0.61199400  1
  Co  Co4  1  0.99661100  0.25000000  0.88800600  1
  Co  Co5  1  0.50338900  0.25000000  0.88800600  1
  Co  Co6  1  0.25000000  0.99661100  0.38800600  1
  Co  Co7  1  0.25000000  0.50338900  0.38800600  1
  B  B0  1  0.57507400  0.75000000  0.40747500  1
  B  B1  1  0.92492600  0.75000000  0.40747500  1
  B  B2  1  0.75000000  0.57507400  0.90747500  1
  B  B3  1  0.75000000  0.92492600  0.90747500  1
  B  B4  1  0.42492600  0.25000000  0.59252500  1
  B  B5  1  0.07507400  0.25000000  0.59252500  1
  B  B6  1  0.25000000  0.42492600  0.09252500  1
  B  B7  1  0.25000000  0.07507400  0.09252500  1
loop_
_geom_bond_atom_site_label_1
_geom_bond_atom_site_label_2
_geom_bond_distance
_geom_bond_site_symmetry_2
Co0 Tm1 2.804471 1_554
Co0 Tm0 2.962572 1_465
Co0 Tm0 2.962572 1_455
Co1 Tm1 2.804471 1_554
Co1 Tm0 2.962572 1_555
Co1 Tm0 2.962572 1_565
Co2 Tm0 2.804471 1_555
Co2 Tm1 2.962572 1_645
Co2 Tm1 2.962572 1_545
Co3 Tm0 2.804471 1_555
Co3 Tm1 2.962572 1_555
Co3 Tm1 2.962572 1_655
Co4 Tm0 2.804471 1_556
Co4 Tm1 2.962572 1_655
Co4 Tm1 2.962572 1_645
Co5 Tm0 2.804471 1_556
Co5 Tm1 2.962572 1_555
Co5 Tm1 2.962572 1_545
Co6 Tm1 2.804471 1_555
Co6 Tm0 2.962572 1_465
Co6 Tm0 2.962572 1_565
Co7 Tm1 2.804471 1_555
Co7 Tm0 2.962572 1_455
Co7 Tm0 2.962572 1_555
B0 B1 1.749207 1_555
B0 Co6 2.044591 1_555
B0 Co7 2.044591 1_555
B0 Co1 2.093146 1_555
B0 Co2 2.096480 1_565
B0 Co3 2.096480 1_555
B0 Tm0 2.866225 1_555
B0 Tm0 2.866225 1_565
B0 Tm1 2.884835 1_555
B1 Co6 2.044591 1_655
B1 Co7 2.044591 1_655
B1 Co0 2.093146 1_655
B1 Co2 2.096480 1_565
B1 Co3 2.096480 1_555
B1 Tm0 2.866225 1_555
B1 Tm0 2.866225 1_565
B1 Tm1 2.884835 1_655
B2 B3 1.749207 1_555
B2 Co4 2.044591 1_555
B2 Co5 2.044591 1_555
B2 Co3 2.093146 1_555
B2 Co0 2.096480 1_656
B2 Co1 2.096480 1_556
B2 Tm1 2.866225 1_655
B2 Tm1 2.866225 1_555
B2 Tm0 2.884835 1_556
B3 Co4 2.044591 1_565
B3 Co5 2.044591 1_565
B3 Co2 2.093146 1_565
B3 Co0 2.096480 1_656
B3 Co1 2.096480 1_556
B3 Tm1 2.866225 1_655
B3 Tm1 2.866225 1_555
B3 Tm0 2.884835 1_566
B4 B5 1.749207 1_555
B4 Co3 2.044591 1_555
B4 Co2 2.044591 1_555
B4 Co5 2.093146 1_555
B4 Co7 2.096480 1_555
B4 Co6 2.096480 1_545
B4 Tm1 2.866225 1_545
B4 Tm1 2.866225 1_555
B4 Tm0 2.884835 1_555
B5 Co3 2.044591 1_455
B5 Co2 2.044591 1_455
B5 Co4 2.093146 1_455
B5 Co7 2.096480 1_555
B5 Co6 2.096480 1_545
B5 Tm1 2.866225 1_555
B5 Tm1 2.866225 1_545
B5 Tm0 2.884835 1_455
B6 B7 1.749207 1_555
B6 Co1 2.044591 1_555
B6 Co0 2.044591 1_555
B6 Co7 2.093146 1_555
B6 Co5 2.096480 1_554
B6 Co4 2.096480 1_454
B6 Tm0 2.866225 1_555
B6 Tm0 2.866225 1_455
B6 Tm1 2.884835 1_554
B7 Co1 2.044591 1_545
B7 Co0 2.044591 1_545
B7 Co6 2.093146 1_545
B7 Co5 2.096480 1_554
B7 Co4 2.096480 1_454
B7 Tm0 2.866225 1_555
B7 Tm0 2.866225 1_455
B7 Tm1 2.884835 1_544
