# generated using pymatgen
data_Tm5(Si5Ir2)2
_symmetry_space_group_name_H-M   'P 1'
_cell_length_a   12.52669422
_cell_length_b   12.52666957
_cell_length_c   4.20970992
_cell_angle_alpha   89.99999617
_cell_angle_beta   90.00000109
_cell_angle_gamma   90.00020930
_symmetry_Int_Tables_number   1
_chemical_formula_structural   Tm5(Si5Ir2)2
_chemical_formula_sum   'Tm10 Si20 Ir8'
_cell_volume   660.57824794
_cell_formula_units_Z   2
loop_
 _symmetry_equiv_pos_site_id
 _symmetry_equiv_pos_as_xyz
  1  'x, y, z'
loop_
 _atom_site_type_symbol
 _atom_site_label
 _atom_site_symmetry_multiplicity
 _atom_site_fract_x
 _atom_site_fract_y
 _atom_site_fract_z
 _atom_site_occupancy
  Tm  Tm0  1  0.50000010  0.49999721  -0.00000001  1
  Tm  Tm1  1  0.00000072  0.00000297  0.00000001  1
  Tm  Tm2  1  0.67449104  0.17448801  0.50000001  1
  Tm  Tm3  1  0.32550751  0.82551410  0.49999995  1
  Tm  Tm4  1  0.17449117  0.32550196  0.49999995  1
  Tm  Tm5  1  0.82551117  0.67449588  0.50000002  1
  Tm  Tm6  1  0.88494120  0.38493624  0.49999995  1
  Tm  Tm7  1  0.11506316  0.61506811  0.49999999  1
  Tm  Tm8  1  0.38492736  0.11506364  0.49999998  1
  Tm  Tm9  1  0.61506946  0.88493076  0.49999993  1
  Si  Si0  1  0.56627892  0.06627574  0.00000003  1
  Si  Si1  1  0.43371655  0.93372098  0.00000003  1
  Si  Si2  1  0.06627971  0.43371768  0.00000000  1
  Si  Si3  1  0.93371877  0.56628518  -0.00000002  1
  Si  Si4  1  0.66465521  0.70141139  0.00000005  1
  Si  Si5  1  0.33534607  0.29858801  0.00000002  1
  Si  Si6  1  0.16465430  0.79859358  -0.00000002  1
  Si  Si7  1  0.83534647  0.20140789  -0.00000005  1
  Si  Si8  1  0.29858906  0.66465567  0.00000000  1
  Si  Si9  1  0.70140909  0.33534516  0.00000003  1
  Si  Si10  1  0.20140692  0.16465208  -0.00000006  1
  Si  Si11  1  0.79859214  0.83534857  0.00000006  1
  Si  Si12  1  0.65588643  0.50301706  0.50000002  1
  Si  Si13  1  0.34411327  0.49699121  0.50000001  1
  Si  Si14  1  0.15588319  0.99698151  0.50000001  1
  Si  Si15  1  0.84411779  0.00301016  0.50000000  1
  Si  Si16  1  0.49698493  0.65588913  0.50000002  1
  Si  Si17  1  0.50301350  0.34411308  0.49999999  1
  Si  Si18  1  0.00301422  0.15587917  0.50000004  1
  Si  Si19  1  0.99699067  0.84411796  0.50000003  1
  Ir  Ir0  1  0.74487517  0.51979591  -0.00000005  1
  Ir  Ir1  1  0.25512337  0.48019747  -0.00000000  1
  Ir  Ir2  1  0.24488692  0.98020465  -0.00000002  1
  Ir  Ir3  1  0.75511069  0.01980335  0.00000008  1
  Ir  Ir4  1  0.48020169  0.74489514  -0.00000002  1
  Ir  Ir5  1  0.51979908  0.25510407  -0.00000004  1
  Ir  Ir6  1  0.01980023  0.24486581  -0.00000002  1
  Ir  Ir7  1  0.98020176  0.75513252  0.00000010  1
loop_
_geom_bond_atom_site_label_1
_geom_bond_atom_site_label_2
_geom_bond_distance
_geom_bond_site_symmetry_2
Si0 Si1 2.348324 1_545
Si0 Tm2 2.846994 1_555
Si0 Tm2 2.846994 1_554
Si0 Tm9 3.156637 1_545
Si0 Tm9 3.156638 1_544
Si0 Tm8 3.156693 1_555
Si0 Tm8 3.156693 1_554
Si1 Tm3 2.846944 1_555
Si1 Tm3 2.846944 1_554
Si1 Tm8 3.156613 1_565
Si1 Tm8 3.156613 1_564
Si1 Tm9 3.156711 1_555
Si1 Tm9 3.156711 1_554
Si2 Si3 2.348433 1_455
Si2 Tm4 2.847015 1_555
Si2 Tm4 2.847016 1_554
Si2 Tm6 3.156556 1_455
Si2 Tm6 3.156557 1_454
Si2 Tm7 3.156666 1_554
Si2 Tm7 3.156666 1_555
Si3 Tm5 2.846963 1_554
Si3 Tm5 2.846963 1_555
Si3 Tm7 3.156613 1_654
Si3 Tm7 3.156613 1_655
Si3 Tm6 3.156638 1_555
Si3 Tm6 3.156638 1_554
Si4 Tm5 2.933308 1_555
Si4 Tm5 2.933308 1_554
Si4 Tm9 3.178227 1_555
Si4 Tm9 3.178227 1_554
Si4 Tm0 3.258833 1_555
Si5 Tm4 2.933296 1_555
Si5 Tm4 2.933297 1_554
Si5 Tm8 3.178261 1_555
Si5 Tm8 3.178261 1_554
Si5 Tm0 3.258776 1_555
Si6 Si8 2.372741 1_555
Si6 Tm3 2.933290 1_555
Si6 Tm3 2.933290 1_554
Si6 Tm7 3.178292 1_555
Si6 Tm7 3.178292 1_554
Si6 Tm1 3.258786 1_565
Si7 Si9 2.372758 1_555
Si7 Tm2 2.933308 1_554
Si7 Tm2 2.933308 1_555
Si7 Tm6 3.178327 1_554
Si7 Tm6 3.178327 1_555
Si7 Tm1 3.258748 1_655
Si8 Tm3 2.933329 1_555
Si8 Tm3 2.933329 1_554
Si8 Tm7 3.178290 1_555
Si8 Tm7 3.178290 1_554
Si8 Tm0 3.258842 1_555
Si9 Tm2 2.933317 1_555
Si9 Tm2 2.933318 1_554
Si9 Tm6 3.178355 1_555
Si9 Tm6 3.178355 1_554
Si9 Tm0 3.258771 1_555
Si10 Si5 2.372753 1_555
Si10 Tm4 2.933253 1_554
Si10 Tm4 2.933254 1_555
Si10 Tm8 3.178246 1_554
Si10 Tm8 3.178246 1_555
Si10 Tm1 3.258709 1_555
Si11 Si4 2.372745 1_555
Si11 Tm5 2.933282 1_555
Si11 Tm5 2.933283 1_554
Si11 Tm9 3.178251 1_555
Si11 Tm9 3.178251 1_554
Si11 Tm1 3.258774 1_665
Si12 Si16 2.762119 1_555
Si12 Si17 2.762138 1_555
Si12 Tm0 2.871418 1_556
Si12 Tm0 2.871418 1_555
Si12 Tm5 3.021433 1_555
Si12 Tm6 3.228130 1_555
Si13 Si16 2.762073 1_555
Si13 Si17 2.762160 1_555
Si13 Tm0 2.871420 1_556
Si13 Tm0 2.871420 1_555
Si13 Tm4 3.021502 1_555
Si13 Tm7 3.228055 1_555
Si14 Si19 2.761954 1_455
Si14 Si18 2.762057 1_565
Si14 Tm1 2.871385 1_565
Si14 Tm1 2.871385 1_566
Si14 Tm3 3.021338 1_555
Si14 Tm8 3.228009 1_565
Si15 Si18 2.762036 1_655
Si15 Si19 2.762042 1_545
Si15 Tm1 2.871387 1_655
Si15 Tm1 2.871387 1_656
Si15 Tm2 3.021453 1_555
Si15 Tm9 3.228040 1_545
Si16 Tm0 2.871462 1_556
Si16 Tm0 2.871462 1_555
Si16 Tm3 3.021433 1_555
Si16 Tm9 3.227991 1_555
Si17 Tm0 2.871395 1_555
Si17 Tm0 2.871396 1_556
Si17 Tm2 3.021435 1_555
Si17 Tm8 3.228087 1_555
Si18 Tm1 2.871328 1_556
Si18 Tm1 2.871328 1_555
Si18 Tm4 3.021399 1_555
Si18 Tm6 3.228107 1_455
Si19 Tm1 2.871402 1_665
Si19 Tm1 2.871402 1_666
Si19 Tm5 3.021415 1_555
Si19 Tm7 3.228023 1_655
Ir0 Si9 2.373840 1_555
Ir0 Si12 2.391071 1_554
Ir0 Si12 2.391072 1_555
Ir0 Si3 2.436211 1_555
Ir0 Si4 2.487090 1_555
Ir0 Tm5 3.034150 1_554
Ir0 Tm5 3.034151 1_555
Ir0 Tm0 3.077484 1_555
Ir0 Tm6 3.219132 1_555
Ir0 Tm6 3.219132 1_554
Ir1 Si8 2.373929 1_555
Ir1 Si13 2.391095 1_554
Ir1 Si13 2.391095 1_555
Ir1 Si2 2.436184 1_555
Ir1 Si5 2.487035 1_555
Ir1 Tm4 3.034099 1_555
Ir1 Tm4 3.034099 1_554
Ir1 Tm0 3.077506 1_555
Ir1 Tm7 3.219164 1_554
Ir1 Tm7 3.219164 1_555
Ir2 Si10 2.373843 1_565
Ir2 Si14 2.391157 1_554
Ir2 Si14 2.391158 1_555
Ir2 Si1 2.436029 1_555
Ir2 Si6 2.487097 1_555
Ir2 Tm3 3.034015 1_555
Ir2 Tm3 3.034016 1_554
Ir2 Tm1 3.077624 1_565
Ir2 Tm8 3.218946 1_564
Ir2 Tm8 3.218946 1_565
Ir3 Si11 2.373937 1_545
Ir3 Si15 2.391195 1_555
Ir3 Si15 2.391196 1_554
Ir3 Si0 2.436021 1_555
Ir3 Si7 2.487038 1_555
Ir3 Tm2 3.033964 1_555
Ir3 Tm2 3.033964 1_554
Ir3 Tm1 3.077674 1_655
Ir3 Tm9 3.219040 1_545
Ir3 Tm9 3.219041 1_544
Ir4 Si4 2.373932 1_555
Ir4 Si16 2.391177 1_554
Ir4 Si16 2.391177 1_555
Ir4 Si1 2.435983 1_555
Ir4 Si8 2.487153 1_555
Ir4 Tm3 3.034039 1_555
Ir4 Tm3 3.034039 1_554
Ir4 Tm0 3.077765 1_555
Ir4 Tm9 3.218971 1_555
Ir4 Tm9 3.218971 1_554
Ir5 Si5 2.373926 1_555
Ir5 Si17 2.391197 1_554
Ir5 Si17 2.391197 1_555
Ir5 Si0 2.435997 1_555
Ir5 Si9 2.487131 1_555
Ir5 Tm2 3.034010 1_554
Ir5 Tm2 3.034010 1_555
Ir5 Tm0 3.077706 1_555
Ir5 Tm8 3.219029 1_555
Ir5 Tm8 3.219029 1_554
Ir6 Si7 2.373857 1_455
Ir6 Si18 2.391066 1_554
Ir6 Si18 2.391066 1_555
Ir6 Si2 2.436278 1_555
Ir6 Si10 2.486961 1_555
Ir6 Tm4 3.034080 1_555
Ir6 Tm4 3.034081 1_554
Ir6 Tm1 3.077326 1_555
Ir6 Tm6 3.219158 1_454
Ir6 Tm6 3.219158 1_455
Ir7 Si6 2.373851 1_655
Ir7 Si19 2.391062 1_555
Ir7 Si19 2.391063 1_554
Ir7 Si3 2.436234 1_555
Ir7 Si11 2.487006 1_555
Ir7 Tm5 3.034079 1_555
Ir7 Tm5 3.034080 1_554
Ir7 Tm1 3.077421 1_665
Ir7 Tm7 3.219132 1_655
Ir7 Tm7 3.219132 1_654
