# generated using pymatgen
data_Sr2NiClO3
_symmetry_space_group_name_H-M   'P 1'
_cell_length_a   3.90846910
_cell_length_b   3.90842810
_cell_length_c   29.26471400
_cell_angle_alpha   89.99999608
_cell_angle_beta   90.00000000
_cell_angle_gamma   89.97355432
_symmetry_Int_Tables_number   1
_chemical_formula_structural   Sr2NiClO3
_chemical_formula_sum   'Sr8 Ni4 Cl4 O12'
_cell_volume   447.04685985
_cell_formula_units_Z   4
loop_
 _symmetry_equiv_pos_site_id
 _symmetry_equiv_pos_as_xyz
  1  'x, y, z'
loop_
 _atom_site_type_symbol
 _atom_site_label
 _atom_site_symmetry_multiplicity
 _atom_site_fract_x
 _atom_site_fract_y
 _atom_site_fract_z
 _atom_site_occupancy
  Sr  Sr0  1  0.25000000  0.25000000  0.45241600  1
  Sr  Sr1  1  0.25000000  0.25000000  0.95240600  1
  Sr  Sr2  1  0.75000000  0.75000000  0.04757800  1
  Sr  Sr3  1  0.75000000  0.75000000  0.54759000  1
  Sr  Sr4  1  0.25000000  0.25000000  0.32956900  1
  Sr  Sr5  1  0.25000000  0.25000000  0.82959200  1
  Sr  Sr6  1  0.75000000  0.75000000  0.17041200  1
  Sr  Sr7  1  0.75000000  0.75000000  0.67045500  1
  Ni  Ni0  1  0.75000000  0.75000100  0.89639600  1
  Ni  Ni1  1  0.25000000  0.24999900  0.10359100  1
  Ni  Ni2  1  0.75000000  0.75000000  0.39642800  1
  Ni  Ni3  1  0.25000100  0.24999900  0.60355100  1
  Cl  Cl0  1  0.75000000  0.75000000  0.28910700  1
  Cl  Cl1  1  0.75000100  0.75000000  0.78912400  1
  Cl  Cl2  1  0.25000000  0.25000100  0.21090100  1
  Cl  Cl3  1  0.25000000  0.25000000  0.71088000  1
  O  O0  1  0.75000000  0.75000000  0.46327400  1
  O  O1  1  0.75000000  0.75000000  0.96328200  1
  O  O2  1  0.24999900  0.24999900  0.03668700  1
  O  O3  1  0.25000000  0.25000000  0.53674100  1
  O  O4  1  0.25000000  0.75000100  0.38629800  1
  O  O5  1  0.25000000  0.75000000  0.88631300  1
  O  O6  1  0.75000000  0.25000000  0.38629400  1
  O  O7  1  0.75000000  0.25000000  0.88631500  1
  O  O8  1  0.75000000  0.25000100  0.11371100  1
  O  O9  1  0.75000000  0.25000000  0.61368900  1
  O  O10  1  0.25000000  0.74999900  0.11370800  1
  O  O11  1  0.25000000  0.75000000  0.61369300  1
loop_
_geom_bond_atom_site_label_1
_geom_bond_atom_site_label_2
_geom_bond_distance
_geom_bond_site_symmetry_2
Ni0 O1 1.957400 1_555
Ni0 O7 1.976353 1_565
Ni0 O7 1.976361 1_555
Ni0 O5 1.976386 1_655
Ni0 O5 1.976386 1_555
Ni1 O2 1.957926 1_555
Ni1 O10 1.976515 1_545
Ni1 O10 1.976515 1_555
Ni1 O8 1.976548 1_455
Ni1 O8 1.976548 1_555
Ni2 O0 1.956229 1_555
Ni2 O6 1.976589 1_565
Ni2 O6 1.976589 1_555
Ni2 O4 1.976592 1_555
Ni2 O4 1.976592 1_655
Ni3 O3 1.955176 1_555
Ni3 O11 1.976621 1_545
Ni3 O9 1.976623 1_555
Ni3 O11 1.976628 1_555
Ni3 O9 1.976631 1_455
Cl0 Sr4 3.006089 1_655
Cl0 Sr4 3.006089 1_565
Cl0 Sr4 3.007262 1_555
Cl0 Sr4 3.007262 1_665
Cl0 Sr6 3.473575 1_555
Cl1 Sr5 3.006156 1_655
Cl1 Sr5 3.006161 1_565
Cl1 Sr5 3.007329 1_665
Cl1 Sr5 3.007334 1_555
Cl1 Sr7 3.472814 1_555
Cl2 Sr6 3.006398 1_455
Cl2 Sr6 3.006403 1_545
Cl2 Sr6 3.007571 1_555
Cl2 Sr6 3.007576 1_445
Cl2 Sr4 3.472785 1_555
Cl3 Sr7 3.005663 1_455
Cl3 Sr7 3.005663 1_545
Cl3 Sr7 3.006836 1_555
Cl3 Sr7 3.006836 1_445
Cl3 Sr5 3.474073 1_555
O0 Sr3 2.467484 1_555
O0 Sr0 2.781264 1_565
O0 Sr0 2.781264 1_655
O0 Sr0 2.782531 1_665
O0 Sr0 2.782531 1_555
O1 Sr2 2.466898 1_556
O1 Sr1 2.781324 1_565
O1 Sr1 2.781324 1_655
O1 Sr1 2.782591 1_665
O1 Sr1 2.782591 1_555
O2 Sr1 2.466459 1_554
O2 Sr2 2.781374 1_545
O2 Sr2 2.781374 1_455
O2 Sr2 2.782636 1_445
O2 Sr2 2.782647 1_555
O3 Sr0 2.467747 1_555
O3 Sr3 2.781234 1_545
O3 Sr3 2.781234 1_455
O3 Sr3 2.782501 1_445
O3 Sr3 2.782501 1_555
O4 Sr4 2.564188 1_565
O4 Sr4 2.564194 1_555
O4 Sr0 2.750067 1_565
O4 Sr0 2.750073 1_555
O5 Sr5 2.564040 1_565
O5 Sr5 2.564040 1_555
O5 Sr1 2.749555 1_555
O5 Sr1 2.749555 1_565
O6 Sr4 2.564131 1_655
O6 Sr4 2.564131 1_555
O6 Sr0 2.750167 1_555
O6 Sr0 2.750167 1_655
O7 Sr5 2.564093 1_655
O7 Sr5 2.564093 1_555
O7 Sr1 2.749529 1_555
O7 Sr1 2.749529 1_655
O8 Sr6 2.563658 1_555
O8 Sr6 2.563664 1_545
O8 Sr2 2.750376 1_555
O8 Sr2 2.750382 1_545
O9 Sr7 2.564892 1_545
O9 Sr7 2.564893 1_555
O9 Sr3 2.749679 1_555
O9 Sr3 2.749679 1_545
O10 Sr6 2.563733 1_455
O10 Sr6 2.563733 1_555
O10 Sr2 2.750332 1_455
O10 Sr2 2.750332 1_555
O11 Sr7 2.564832 1_455
O11 Sr7 2.564832 1_555
O11 Sr3 2.749776 1_555
O11 Sr3 2.749776 1_455
