# generated using pymatgen
data_MgSi
_symmetry_space_group_name_H-M   'P 1'
_cell_length_a   4.62457500
_cell_length_b   5.08661809
_cell_length_c   10.40846233
_cell_angle_alpha   86.79855818
_cell_angle_beta   80.06032638
_cell_angle_gamma   85.79494846
_symmetry_Int_Tables_number   1
_chemical_formula_structural   MgSi
_chemical_formula_sum   'Mg6 Si6'
_cell_volume   240.28603119
_cell_formula_units_Z   6
loop_
 _symmetry_equiv_pos_site_id
 _symmetry_equiv_pos_as_xyz
  1  'x, y, z'
loop_
 _atom_site_type_symbol
 _atom_site_label
 _atom_site_symmetry_multiplicity
 _atom_site_fract_x
 _atom_site_fract_y
 _atom_site_fract_z
 _atom_site_occupancy
  Mg  Mg0  1  0.90531900  0.69032700  0.89514700  1
  Mg  Mg1  1  0.48719900  0.89109300  0.24422500  1
  Mg  Mg2  1  0.81954800  0.58103000  0.47253400  1
  Mg  Mg3  1  0.36444300  0.08272200  0.53069100  1
  Mg  Mg4  1  0.25268000  0.46280200  0.10662900  1
  Mg  Mg5  1  0.70486100  0.29294800  0.74587900  1
  Si  Si0  1  0.46283500  0.82851800  0.76852700  1
  Si  Si1  1  0.71744700  0.37594700  0.22424900  1
  Si  Si2  1  0.81252600  0.19121500  0.00659000  1
  Si  Si3  1  0.30377600  0.96266400  0.99025900  1
  Si  Si4  1  0.24093200  0.56254800  0.63792500  1
  Si  Si5  1  0.92854500  0.07834300  0.37720400  1
loop_
_geom_bond_atom_site_label_1
_geom_bond_atom_site_label_2
_geom_bond_distance
_geom_bond_site_symmetry_2
Mg0 Si0 2.652350 1_555
Mg0 Si3 2.729804 1_655
Mg0 Si2 2.762990 1_556
Mg0 Si0 2.804955 1_655
Mg0 Si2 2.831778 1_566
Mg0 Si4 2.934473 1_655
Mg0 Si3 3.045517 1_555
Mg1 Si1 2.740605 1_565
Mg1 Si1 2.760165 1_555
Mg1 Si5 2.837166 1_465
Mg1 Si5 2.897652 1_565
Mg1 Si3 2.908765 1_554
Mg1 Si2 3.056509 1_565
Mg2 Si5 2.715085 1_565
Mg2 Si5 2.774608 1_555
Mg2 Si4 2.807661 1_655
Mg2 Si4 2.925929 1_555
Mg2 Si1 2.963813 1_555
Mg3 Si4 2.721899 1_555
Mg3 Si5 2.781844 1_455
Mg3 Si5 2.813341 1_555
Mg3 Si0 2.819962 1_545
Mg3 Si4 2.871349 1_545
Mg4 Si1 2.621934 1_455
Mg4 Si1 2.649978 1_555
Mg4 Si3 2.762806 1_554
Mg4 Si3 2.855191 1_544
Mg4 Si2 2.898497 1_555
Mg4 Si2 2.905296 1_455
Mg5 Si0 2.669015 1_545
Mg5 Si4 2.823982 1_555
Mg5 Si2 2.855018 1_556
Mg5 Si0 2.874594 1_555
Mg5 Si4 2.941754 1_655
Si0 Si4 2.371050 1_555
Si0 Si3 2.418523 1_555
Si1 Si5 2.414500 1_555
Si1 Si2 2.458060 1_555
Si2 Si3 2.458258 1_644
Si2 Si3 2.734432 1_544
