# generated using pymatgen
data_Ce4GaSbS9
_symmetry_space_group_name_H-M   'P 1'
_cell_length_a   10.13370914
_cell_length_b   10.13370914
_cell_length_c   13.82777377
_cell_angle_alpha   90.00000000
_cell_angle_beta   90.00000000
_cell_angle_gamma   90.62304208
_symmetry_Int_Tables_number   1
_chemical_formula_structural   Ce4GaSbS9
_chemical_formula_sum   'Ce16 Ga4 Sb4 S36'
_cell_volume   1419.91863286
_cell_formula_units_Z   4
loop_
 _symmetry_equiv_pos_site_id
 _symmetry_equiv_pos_as_xyz
  1  'x, y, z'
loop_
 _atom_site_type_symbol
 _atom_site_label
 _atom_site_symmetry_multiplicity
 _atom_site_fract_x
 _atom_site_fract_y
 _atom_site_fract_z
 _atom_site_occupancy
  Ce  Ce0  1  0.78045165  0.00184068  0.81487751  1
  Ce  Ce1  1  0.99815932  0.21954835  0.18512249  1
  Ce  Ce2  1  0.28045165  0.50184068  0.68512249  1
  Ce  Ce3  1  0.49815932  0.71954835  0.31487751  1
  Ce  Ce4  1  0.73146339  0.92512170  0.10010763  1
  Ce  Ce5  1  0.07487830  0.26853661  0.89989237  1
  Ce  Ce6  1  0.23146339  0.42512170  0.39989237  1
  Ce  Ce7  1  0.57487830  0.76853661  0.60010763  1
  Ce  Ce8  1  0.78249180  0.55063239  0.82032243  1
  Ce  Ce9  1  0.44936761  0.21750820  0.17967757  1
  Ce  Ce10  1  0.28249180  0.05063239  0.67967757  1
  Ce  Ce11  1  0.94936761  0.71750820  0.32032243  1
  Ce  Ce12  1  0.72909792  0.04458033  0.39643062  1
  Ce  Ce13  1  0.95541967  0.27090208  0.60356938  1
  Ce  Ce14  1  0.22909792  0.54458033  0.10356938  1
  Ce  Ce15  1  0.45541967  0.77090208  0.89643062  1
  Ga  Ga0  1  0.73167506  0.47583687  0.09334495  1
  Ga  Ga1  1  0.52416313  0.26832494  0.90665505  1
  Ga  Ga2  1  0.23167506  0.97583687  0.40665505  1
  Ga  Ga3  1  0.02416313  0.76832494  0.59334495  1
  Sb  Sb0  1  0.58110595  0.26519594  0.61515735  1
  Sb  Sb1  1  0.73480406  0.41889405  0.38484265  1
  Sb  Sb2  1  0.08110595  0.76519594  0.88484265  1
  Sb  Sb3  1  0.23480406  0.91889405  0.11515735  1
  S  S0  1  0.53935733  0.46064267  0.00000000  1
  S  S1  1  0.03935733  0.96064267  0.50000000  1
  S  S2  1  0.91780106  0.46739615  0.99784417  1
  S  S3  1  0.53260385  0.08219894  0.00215583  1
  S  S4  1  0.41780106  0.96739615  0.50215583  1
  S  S5  1  0.03260385  0.58219894  0.49784417  1
  S  S6  1  0.72786806  0.66301810  0.18997810  1
  S  S7  1  0.33698190  0.27213194  0.81002190  1
  S  S8  1  0.22786806  0.16301810  0.31002190  1
  S  S9  1  0.83698190  0.77213194  0.68997810  1
  S  S10  1  0.70068315  0.27572171  0.79876042  1
  S  S11  1  0.72427829  0.29931685  0.20123958  1
  S  S12  1  0.20068315  0.77572171  0.70123958  1
  S  S13  1  0.22427829  0.79931685  0.29876042  1
  S  S14  1  0.54896985  0.98154502  0.25118354  1
  S  S15  1  0.01845498  0.45103015  0.74881646  1
  S  S16  1  0.04896985  0.48154502  0.24881646  1
  S  S17  1  0.51845498  0.95103015  0.75118354  1
  S  S18  1  0.55082005  0.26103133  0.42069588  1
  S  S19  1  0.73896867  0.44917995  0.57930412  1
  S  S20  1  0.05082005  0.76103133  0.07930412  1
  S  S21  1  0.23896867  0.94917995  0.92069588  1
  S  S22  1  0.74247473  0.08125668  0.59987096  1
  S  S23  1  0.91874332  0.25752527  0.40012904  1
  S  S24  1  0.24247473  0.58125668  0.90012904  1
  S  S25  1  0.41874332  0.75752527  0.09987096  1
  S  S26  1  0.72655968  0.77708504  0.93146722  1
  S  S27  1  0.22291496  0.27344032  0.06853278  1
  S  S28  1  0.22655968  0.27708504  0.56853278  1
  S  S29  1  0.72291496  0.77344032  0.43146722  1
  S  S30  1  0.90932820  0.97429242  0.25081863  1
  S  S31  1  0.02570758  0.09067180  0.74918137  1
  S  S32  1  0.40932820  0.47429242  0.24918137  1
  S  S33  1  0.52570758  0.59067180  0.75081863  1
  S  S34  1  0.90671647  0.09328353  0.00000000  1
  S  S35  1  0.40671647  0.59328353  0.50000000  1
loop_
_geom_bond_atom_site_label_1
_geom_bond_atom_site_label_2
_geom_bond_distance
_geom_bond_site_symmetry_2
Ce0 S31 2.786379 1_655
Ce0 S26 2.838629 1_545
Ce0 S17 2.839035 1_545
Ce0 S10 2.907732 1_555
Ce0 S9 2.959500 1_545
Ce0 S34 3.003805 1_556
Ce0 S22 3.105094 1_555
Ce1 S30 2.786379 1_545
Ce1 S27 2.838629 1_655
Ce1 S16 2.839035 1_655
Ce1 S11 2.907732 1_555
Ce1 S8 2.959500 1_655
Ce1 S34 3.003805 1_555
Ce1 S23 3.105094 1_555
Ce2 S33 2.786379 1_555
Ce2 S28 2.838629 1_555
Ce2 S15 2.839035 1_555
Ce2 S12 2.907732 1_555
Ce2 S7 2.959500 1_555
Ce2 S35 3.003805 1_555
Ce2 S24 3.105094 1_555
Ce3 S32 2.786379 1_555
Ce3 S29 2.838629 1_555
Ce3 S14 2.839035 1_555
Ce3 S13 2.907732 1_555
Ce3 S6 2.959500 1_555
Ce3 S35 3.003805 1_555
Ce3 S25 3.105094 1_555
Ce4 S26 2.772938 1_554
Ce4 S30 2.796525 1_555
Ce4 S34 2.812186 1_565
Ce4 S14 2.852030 1_555
Ce4 S3 2.915309 1_565
Ce4 S6 2.932289 1_555
Ce4 S25 3.579118 1_555
Ce5 S27 2.772938 1_556
Ce5 S31 2.796525 1_555
Ce5 S34 2.812186 1_456
Ce5 S15 2.852030 1_555
Ce5 S2 2.915309 1_455
Ce5 S7 2.932289 1_555
Ce5 S24 3.579118 1_555
Ce6 S28 2.772938 1_555
Ce6 S32 2.796525 1_555
Ce6 S35 2.812186 1_555
Ce6 S16 2.852030 1_555
Ce6 S5 2.915309 1_555
Ce6 S8 2.932289 1_555
Ce6 S23 3.579118 1_455
Ce7 S29 2.772938 1_555
Ce7 S33 2.796525 1_555
Ce7 S35 2.812186 1_555
Ce7 S17 2.852030 1_555
Ce7 S4 2.915309 1_555
Ce7 S9 2.932289 1_555
Ce7 S22 3.579118 1_565
Ce8 S15 2.786875 1_655
Ce8 S33 2.807596 1_555
Ce8 S26 2.824482 1_555
Ce8 S10 2.913245 1_555
Ce8 S9 2.926565 1_555
Ce8 S2 2.939810 1_555
Ce9 S14 2.786875 1_545
Ce9 S32 2.807596 1_555
Ce9 S27 2.824482 1_555
Ce9 S11 2.913245 1_555
Ce9 S8 2.926565 1_555
Ce9 S3 2.939810 1_555
Ce10 S17 2.786875 1_545
Ce10 S31 2.807596 1_555
Ce10 S28 2.824482 1_555
Ce10 S12 2.913245 1_545
Ce10 S7 2.926565 1_555
Ce10 S4 2.939810 1_545
Ce11 S16 2.786875 1_655
Ce11 S30 2.807596 1_555
Ce11 S29 2.824482 1_555
Ce11 S13 2.913245 1_655
Ce11 S6 2.926565 1_555
Ce11 S5 2.939810 1_655
Ce12 S14 2.783611 1_545
Ce12 S29 2.790072 1_545
Ce12 S30 2.815229 1_545
Ce12 S22 2.840616 1_555
Ce12 S23 2.874441 1_555
Ce12 S18 2.876431 1_555
Ce13 S15 2.783611 1_655
Ce13 S28 2.790072 1_655
Ce13 S31 2.815229 1_655
Ce13 S23 2.840616 1_555
Ce13 S22 2.874441 1_555
Ce13 S19 2.876431 1_555
Ce14 S16 2.783611 1_555
Ce14 S27 2.790072 1_555
Ce14 S32 2.815229 1_555
Ce14 S24 2.840616 1_554
Ce14 S25 2.874441 1_555
Ce14 S20 2.876431 1_555
Ce15 S17 2.783611 1_555
Ce15 S26 2.790072 1_555
Ce15 S33 2.815229 1_555
Ce15 S25 2.840616 1_556
Ce15 S24 2.874441 1_555
Ce15 S21 2.876431 1_555
Ga0 S2 2.304834 1_554
Ga0 S6 2.320898 1_555
Ga0 S11 2.329895 1_555
Ga0 S0 2.341240 1_555
Ga1 S3 2.304834 1_556
Ga1 S7 2.320898 1_555
Ga1 S10 2.329895 1_555
Ga1 S0 2.341240 1_556
Ga2 S4 2.304834 1_555
Ga2 S8 2.320898 1_565
Ga2 S13 2.329895 1_555
Ga2 S1 2.341240 1_555
Ga3 S5 2.304834 1_555
Ga3 S9 2.320898 1_455
Ga3 S12 2.329895 1_555
Ga3 S1 2.341240 1_555
S10 Sb0 2.814702 1_555
S11 Sb1 2.814702 1_555
S12 Sb2 2.814702 1_555
S13 Sb3 2.814702 1_555
S18 Sb1 2.493233 1_555
S18 Sb0 2.706704 1_555
S19 Sb0 2.493233 1_555
S19 Sb1 2.706704 1_555
S20 Sb3 2.493233 1_555
S20 Sb2 2.706704 1_554
S21 Sb2 2.493233 1_555
S21 Sb3 2.706704 1_556
S22 Sb0 2.501901 1_555
S23 Sb1 2.501901 1_555
S24 Sb2 2.501901 1_555
S25 Sb3 2.501901 1_555
