# generated using pymatgen
data_BaSrCeWO6
_symmetry_space_group_name_H-M   'P 1'
_cell_length_a   8.50601551
_cell_length_b   8.55854099
_cell_length_c   8.58136860
_cell_angle_alpha   90.00000000
_cell_angle_beta   90.00000000
_cell_angle_gamma   90.00000000
_symmetry_Int_Tables_number   1
_chemical_formula_structural   BaSrCeWO6
_chemical_formula_sum   'Ba4 Sr4 Ce4 W4 O24'
_cell_volume   624.71575985
_cell_formula_units_Z   4
loop_
 _symmetry_equiv_pos_site_id
 _symmetry_equiv_pos_as_xyz
  1  'x, y, z'
loop_
 _atom_site_type_symbol
 _atom_site_label
 _atom_site_symmetry_multiplicity
 _atom_site_fract_x
 _atom_site_fract_y
 _atom_site_fract_z
 _atom_site_occupancy
  Ba  Ba0  1  -0.00000000  0.00000000  -0.00000000  1
  Ba  Ba1  1  0.50000000  0.50000000  0.50000000  1
  Ba  Ba2  1  0.50000000  0.00000000  -0.00000000  1
  Ba  Ba3  1  -0.00000000  0.00000000  0.50000000  1
  Sr  Sr0  1  -0.00000000  0.50000000  0.50000000  1
  Sr  Sr1  1  0.50000000  0.00000000  0.50000000  1
  Sr  Sr2  1  0.50000000  0.50000000  -0.00000000  1
  Sr  Sr3  1  -0.00000000  0.50000000  -0.00000000  1
  Ce  Ce0  1  0.74999937  0.74692358  0.74939751  1
  Ce  Ce1  1  0.25000063  0.25307642  0.74939751  1
  Ce  Ce2  1  0.25000063  0.74692358  0.25060249  1
  Ce  Ce3  1  0.74999937  0.25307642  0.25060249  1
  W  W0  1  0.25038419  0.25261350  0.25053973  1
  W  W1  1  0.74961581  0.74738650  0.25053973  1
  W  W2  1  0.74961581  0.25261350  0.74946027  1
  W  W3  1  0.25038419  0.74738650  0.74946027  1
  O  O0  1  0.01146445  0.22730425  0.27639284  1
  O  O1  1  0.98853555  0.77269575  0.27639284  1
  O  O2  1  0.98853555  0.22730425  0.72360716  1
  O  O3  1  0.01146445  0.77269575  0.72360716  1
  O  O4  1  0.27243720  0.01169340  0.22733747  1
  O  O5  1  0.27243720  0.98830660  0.77266253  1
  O  O6  1  0.72756280  0.98830660  0.22733747  1
  O  O7  1  0.72756280  0.01169340  0.77266253  1
  O  O8  1  0.21939763  0.28519588  0.00680854  1
  O  O9  1  0.78060237  0.28519588  0.99319146  1
  O  O10  1  0.21939763  0.71480412  0.99319146  1
  O  O11  1  0.78060237  0.71480412  0.00680854  1
  O  O12  1  0.48730816  0.28878122  0.21587520  1
  O  O13  1  0.51269184  0.71121878  0.21587520  1
  O  O14  1  0.51269184  0.28878122  0.78412480  1
  O  O15  1  0.48730816  0.71121878  0.78412480  1
  O  O16  1  0.21734931  0.49055447  0.28544631  1
  O  O17  1  0.21734931  0.50944553  0.71455369  1
  O  O18  1  0.78265069  0.50944553  0.28544631  1
  O  O19  1  0.78265069  0.49055447  0.71455369  1
  O  O20  1  0.28614915  0.21940845  0.49262408  1
  O  O21  1  0.71385085  0.21940845  0.50737592  1
  O  O22  1  0.28614915  0.78059155  0.50737592  1
  O  O23  1  0.71385085  0.78059155  0.49262408  1
loop_
_geom_bond_atom_site_label_1
_geom_bond_atom_site_label_2
_geom_bond_distance
_geom_bond_site_symmetry_2
Ba0 O5 3.030847 1_544
Ba0 O7 3.030847 1_454
Ba0 O6 3.030847 1_445
Ba0 O4 3.030847 1_555
Ba0 O2 3.069142 1_454
Ba0 O3 3.069142 1_544
Ba0 O1 3.069142 1_445
Ba0 O0 3.069142 1_555
Ba0 O11 3.073095 1_445
Ba0 O10 3.073095 1_544
Ba0 O9 3.073095 1_454
Ba0 O8 3.073095 1_555
Ba1 O22 3.013274 1_555
Ba1 O20 3.013274 1_555
Ba1 O21 3.013274 1_555
Ba1 O23 3.013274 1_555
Ba1 O17 3.029315 1_555
Ba1 O18 3.029315 1_555
Ba1 O19 3.029315 1_555
Ba1 O16 3.029315 1_555
Ba1 O15 3.037144 1_555
Ba1 O12 3.037144 1_555
Ba1 O14 3.037144 1_555
Ba1 O13 3.037144 1_555
Ba2 O6 2.750027 1_545
Ba2 O7 2.750027 1_554
Ba2 O5 2.750027 1_544
Ba2 O4 2.750027 1_555
Ba2 O13 3.090626 1_545
Ba2 O15 3.090626 1_544
Ba2 O14 3.090626 1_554
Ba2 O12 3.090626 1_555
Ba3 O0 2.734240 1_555
Ba3 O2 2.734240 1_455
Ba3 O3 2.734240 1_545
Ba3 O1 2.734240 1_445
Ba3 O23 3.074818 1_445
Ba3 O21 3.074818 1_455
Ba3 O20 3.074818 1_555
Ba3 O22 3.074818 1_545
Ba3 O6 3.294677 1_445
Ba3 O4 3.294677 1_555
Ba3 O5 3.294677 1_545
Ba3 O7 3.294677 1_455
Ce0 O19 2.231774 1_555
Ce0 O11 2.241147 1_556
Ce0 O23 2.243400 1_555
Ce0 O3 2.245868 1_655
Ce0 O15 2.274858 1_555
Ce0 O7 2.282813 1_565
Ce1 O17 2.231774 1_555
Ce1 O8 2.241147 1_556
Ce1 O20 2.243400 1_555
Ce1 O2 2.245868 1_455
Ce1 O14 2.274858 1_555
Ce1 O5 2.282813 1_545
Ce2 O16 2.231774 1_555
Ce2 O10 2.241147 1_554
Ce2 O22 2.243400 1_555
Ce2 O1 2.245868 1_455
Ce2 O13 2.274858 1_555
Ce2 O4 2.282813 1_565
Ce3 O18 2.231774 1_555
Ce3 O9 2.241147 1_554
Ce3 O21 2.243400 1_555
Ce3 O0 2.245868 1_655
Ce3 O12 2.274858 1_555
Ce3 O6 2.282813 1_545
O0 W0 2.055772 1_555
O0 Sr0 3.022995 1_555
O1 W1 2.055772 1_555
O1 Sr0 3.022995 1_655
O2 W2 2.055772 1_555
O2 Sr0 3.022995 1_655
O3 W3 2.055772 1_555
O3 Sr0 3.022995 1_555
O4 W0 2.079991 1_555
O4 Sr1 3.038341 1_555
O5 W3 2.079991 1_555
O5 Sr1 3.038341 1_565
O6 W1 2.079991 1_555
O6 Sr1 3.038341 1_565
O7 W2 2.079991 1_555
O7 Sr1 3.038341 1_555
O8 W0 2.126453 1_555
O8 Sr3 2.620280 1_555
O8 Sr2 3.013307 1_555
O9 W2 2.126453 1_555
O9 Sr3 2.620280 1_656
O9 Sr2 3.013307 1_556
O10 W3 2.126453 1_555
O10 Sr3 2.620280 1_556
O10 Sr2 3.013307 1_556
O11 W1 2.126453 1_555
O11 Sr3 2.620280 1_655
O11 Sr2 3.013307 1_555
O12 W0 2.060498 1_555
O12 Sr2 2.590617 1_555
O13 W1 2.060498 1_555
O13 Sr2 2.590617 1_555
O14 W2 2.060498 1_555
O14 Sr2 2.590617 1_556
O15 W3 2.060498 1_555
O15 Sr2 2.590617 1_556
O16 W0 2.077432 1_555
O16 Sr0 2.610440 1_555
O16 Sr3 3.069961 1_555
O17 W3 2.077432 1_555
O17 Sr0 2.610440 1_555
O17 Sr3 3.069961 1_556
O18 W1 2.077432 1_555
O18 Sr0 2.610440 1_655
O18 Sr3 3.069961 1_655
O19 W2 2.077432 1_555
O19 Sr0 2.610440 1_655
O19 Sr3 3.069961 1_656
O20 W0 2.118717 1_555
O20 Sr1 2.615154 1_555
O21 W2 2.118717 1_555
O21 Sr1 2.615154 1_555
O22 W3 2.118717 1_555
O22 Sr1 2.615154 1_565
O23 W1 2.118717 1_555
O23 Sr1 2.615154 1_565
