# generated using pymatgen
data_CrCoSi
_symmetry_space_group_name_H-M   'P 1'
_cell_length_a   3.60066500
_cell_length_b   5.75563000
_cell_length_c   6.71716100
_cell_angle_alpha   90.00000000
_cell_angle_beta   90.00000000
_cell_angle_gamma   90.00000000
_symmetry_Int_Tables_number   1
_chemical_formula_structural   CrCoSi
_chemical_formula_sum   'Cr4 Co4 Si4'
_cell_volume   139.20708601
_cell_formula_units_Z   4
loop_
 _symmetry_equiv_pos_site_id
 _symmetry_equiv_pos_as_xyz
  1  'x, y, z'
loop_
 _atom_site_type_symbol
 _atom_site_label
 _atom_site_symmetry_multiplicity
 _atom_site_fract_x
 _atom_site_fract_y
 _atom_site_fract_z
 _atom_site_occupancy
  Cr  Cr0  1  0.25000000  0.02608400  0.32161600  1
  Cr  Cr1  1  0.25000000  0.52608400  0.17838400  1
  Cr  Cr2  1  0.75000000  0.97391600  0.67838400  1
  Cr  Cr3  1  0.75000000  0.47391600  0.82161600  1
  Co  Co0  1  0.25000000  0.14553800  0.94225200  1
  Co  Co1  1  0.25000000  0.64553800  0.55774800  1
  Co  Co2  1  0.75000000  0.85446200  0.05774800  1
  Co  Co3  1  0.75000000  0.35446200  0.44225200  1
  Si  Si0  1  0.25000000  0.26062700  0.62482400  1
  Si  Si1  1  0.25000000  0.76062700  0.87517600  1
  Si  Si2  1  0.75000000  0.73937300  0.37517600  1
  Si  Si3  1  0.75000000  0.23937300  0.12482400  1
loop_
_geom_bond_atom_site_label_1
_geom_bond_atom_site_label_2
_geom_bond_distance
_geom_bond_site_symmetry_2
Cr0 Si0 2.443457 1_555
Cr0 Si2 2.468562 1_445
Cr0 Si2 2.468562 1_545
Cr0 Si3 2.548648 1_455
Cr0 Si3 2.548648 1_555
Cr1 Si1 2.443457 1_554
Cr1 Si3 2.468562 1_555
Cr1 Si3 2.468562 1_455
Cr1 Si2 2.548648 1_455
Cr1 Si2 2.548648 1_555
Cr2 Si2 2.443457 1_555
Cr2 Si0 2.468562 1_665
Cr2 Si0 2.468562 1_565
Cr2 Si1 2.548648 1_555
Cr2 Si1 2.548648 1_655
Cr3 Si3 2.443457 1_556
Cr3 Si1 2.468562 1_555
Cr3 Si1 2.468562 1_655
Cr3 Si0 2.548648 1_655
Cr3 Si0 2.548648 1_555
Co0 Si0 2.232740 1_555
Co0 Si3 2.244294 1_556
Co0 Si3 2.244294 1_456
Co0 Si1 2.260758 1_545
Co0 Co2 2.578718 1_446
Co0 Co2 2.578718 1_546
Co0 Cr0 2.639370 1_556
Co0 Cr1 2.704286 1_556
Co0 Cr2 2.712653 1_445
Co0 Cr2 2.712653 1_545
Co0 Cr3 2.733133 1_455
Co0 Cr3 2.733133 1_555
Co1 Si1 2.232740 1_555
Co1 Si2 2.244294 1_455
Co1 Si2 2.244294 1_555
Co1 Si0 2.260758 1_555
Co1 Co3 2.578718 1_455
Co1 Co3 2.578718 1_555
Co1 Cr1 2.639370 1_555
Co1 Cr0 2.704286 1_565
Co1 Cr3 2.712653 1_555
Co1 Cr3 2.712653 1_455
Co1 Cr2 2.733133 1_555
Co1 Cr2 2.733133 1_455
Co2 Si2 2.232740 1_555
Co2 Si1 2.244294 1_554
Co2 Si1 2.244294 1_654
Co2 Si3 2.260758 1_565
Co2 Cr2 2.639370 1_554
Co2 Cr3 2.704286 1_554
Co2 Cr0 2.712653 1_665
Co2 Cr0 2.712653 1_565
Co2 Cr1 2.733133 1_555
Co2 Cr1 2.733133 1_655
Co3 Si3 2.232740 1_555
Co3 Si0 2.244294 1_555
Co3 Si0 2.244294 1_655
Co3 Si2 2.260758 1_555
Co3 Cr3 2.639370 1_555
Co3 Cr2 2.704286 1_545
Co3 Cr1 2.712653 1_655
Co3 Cr1 2.712653 1_555
Co3 Cr0 2.733133 1_555
Co3 Cr0 2.733133 1_655
