# generated using pymatgen
data_Na15Re7N19
_symmetry_space_group_name_H-M   'P 1'
_cell_length_a   6.14787471
_cell_length_b   11.93494754
_cell_length_c   18.38354187
_cell_angle_alpha   91.54215339
_cell_angle_beta   93.07826464
_cell_angle_gamma   100.86233692
_symmetry_Int_Tables_number   1
_chemical_formula_structural   Na15Re7N19
_chemical_formula_sum   'Na30 Re14 N38'
_cell_volume   1321.86120334
_cell_formula_units_Z   2
loop_
 _symmetry_equiv_pos_site_id
 _symmetry_equiv_pos_as_xyz
  1  'x, y, z'
loop_
 _atom_site_type_symbol
 _atom_site_label
 _atom_site_symmetry_multiplicity
 _atom_site_fract_x
 _atom_site_fract_y
 _atom_site_fract_z
 _atom_site_occupancy
  Na  Na0  1  0.54144500  0.62496600  0.44770900  1
  Na  Na1  1  0.45855500  0.37503400  0.55229100  1
  Na  Na2  1  0.56957700  0.14369000  0.63443300  1
  Na  Na3  1  0.43042300  0.85631000  0.36556700  1
  Na  Na4  1  0.71981900  0.01230000  0.19739100  1
  Na  Na5  1  0.28018100  0.98770000  0.80260900  1
  Na  Na6  1  0.89207000  0.02100700  0.38395500  1
  Na  Na7  1  0.10793000  0.97899300  0.61604500  1
  Na  Na8  1  0.84828800  0.77357500  0.29637300  1
  Na  Na9  1  0.15171200  0.22642500  0.70362700  1
  Na  Na10  1  0.85934400  0.16008800  0.83482200  1
  Na  Na11  1  0.14065600  0.83991200  0.16517800  1
  Na  Na12  1  0.86272500  0.90441800  0.89766900  1
  Na  Na13  1  0.13727500  0.09558200  0.10233100  1
  Na  Na14  1  0.73187600  0.08973900  0.00616100  1
  Na  Na15  1  0.26812400  0.91026100  0.99383900  1
  Na  Na16  1  0.63292100  0.91240300  0.53304900  1
  Na  Na17  1  0.36707900  0.08759700  0.46695100  1
  Na  Na18  1  0.68875200  0.48554800  0.28709100  1
  Na  Na19  1  0.31124800  0.51445200  0.71290900  1
  Na  Na20  1  0.98349600  0.35002100  0.02139500  1
  Na  Na21  1  0.01650400  0.64997900  0.97860500  1
  Na  Na22  1  0.87877700  0.68188400  0.78639000  1
  Na  Na23  1  0.12122300  0.31811600  0.21361000  1
  Na  Na24  1  0.72142300  0.25212800  0.38208200  1
  Na  Na25  1  0.27857700  0.74787200  0.61791800  1
  Na  Na26  1  0.57358600  0.36082600  0.84050000  1
  Na  Na27  1  0.42641400  0.63917400  0.15950000  1
  Na  Na28  1  0.00000000  0.50000000  0.50000000  1
  Na  Na29  1  0.50000000  0.50000000  0.00000000  1
  Re  Re0  1  0.59638100  0.25625500  0.13118800  1
  Re  Re1  1  0.40361900  0.74374500  0.86881200  1
  Re  Re2  1  0.79941100  0.38807000  0.69106000  1
  Re  Re3  1  0.20058900  0.61193000  0.30894000  1
  Re  Re4  1  0.74095700  0.64626800  0.61688100  1
  Re  Re5  1  0.25904300  0.35373200  0.38311900  1
  Re  Re6  1  0.02299100  0.78120000  0.46265500  1
  Re  Re7  1  0.97700900  0.21880000  0.53734500  1
  Re  Re8  1  0.90101200  0.55336100  0.13072800  1
  Re  Re9  1  0.09898800  0.44663900  0.86927200  1
  Re  Re10  1  0.68803000  0.91450300  0.71954000  1
  Re  Re11  1  0.31197000  0.08549700  0.28046000  1
  Re  Re12  1  0.68731300  0.80830100  0.05672200  1
  Re  Re13  1  0.31268700  0.19169900  0.94327800  1
  N  N0  1  0.84478100  0.19904500  0.12562200  1
  N  N1  1  0.15521900  0.80095500  0.87437800  1
  N  N2  1  0.86402600  0.31502800  0.60488600  1
  N  N3  1  0.13597400  0.68497200  0.39511400  1
  N  N4  1  0.55167600  0.04212200  0.32135400  1
  N  N5  1  0.44832400  0.95787800  0.67864600  1
  N  N6  1  0.59079400  0.81012100  0.79965700  1
  N  N7  1  0.40920600  0.18987900  0.20034300  1
  N  N8  1  0.68496700  0.42005300  0.13952900  1
  N  N9  1  0.31503300  0.57994700  0.86047100  1
  N  N10  1  0.53909800  0.41385900  0.41407900  1
  N  N11  1  0.46090200  0.58614100  0.58592100  1
  N  N12  1  0.75669700  0.10648000  0.50130400  1
  N  N13  1  0.24330300  0.89352000  0.49869600  1
  N  N14  1  0.91793900  0.67621500  0.53625000  1
  N  N15  1  0.08206100  0.32378500  0.46375000  1
  N  N16  1  0.94304500  0.91169500  0.05869800  1
  N  N17  1  0.05695500  0.08830500  0.94130200  1
  N  N18  1  0.78210200  0.82852100  0.42402300  1
  N  N19  1  0.21789800  0.17147900  0.57597700  1
  N  N20  1  0.75940700  0.78389100  0.66749700  1
  N  N21  1  0.24059300  0.21610900  0.33250300  1
  N  N22  1  0.86930800  0.47070300  0.91819900  1
  N  N23  1  0.13069200  0.52929700  0.08180100  1
  N  N24  1  0.56584800  0.77036300  0.95944200  1
  N  N25  1  0.43415200  0.22963700  0.04055800  1
  N  N26  1  0.75489300  0.66718800  0.08840500  1
  N  N27  1  0.24510700  0.33281200  0.91159500  1
  N  N28  1  0.92644300  0.02817900  0.73874800  1
  N  N29  1  0.07355700  0.97182100  0.26125200  1
  N  N30  1  0.00534200  0.61229300  0.22645800  1
  N  N31  1  0.99465800  0.38770700  0.77354200  1
  N  N32  1  0.88977600  0.55268800  0.67527400  1
  N  N33  1  0.11022400  0.44731200  0.32472600  1
  N  N34  1  0.51352600  0.34869400  0.70905100  1
  N  N35  1  0.48647400  0.65130600  0.29094900  1
  N  N36  1  0.48709600  0.85576800  0.11188300  1
  N  N37  1  0.51290400  0.14423200  0.88811700  1
loop_
_geom_bond_atom_site_label_1
_geom_bond_atom_site_label_2
_geom_bond_distance
_geom_bond_site_symmetry_2
N0 Re0 1.792997 1_555
N0 Na13 2.415127 1_655
N0 Na23 2.488993 1_655
N0 Na14 2.519404 1_555
N0 Na4 2.630635 1_555
N0 Na20 2.725350 1_555
N1 Re1 1.792997 1_555
N1 Na12 2.415127 1_455
N1 Na22 2.488993 1_455
N1 Na15 2.519404 1_555
N1 Na5 2.630635 1_555
N1 Na21 2.725350 1_555
N2 Re2 1.884454 1_555
N2 Re7 1.913032 1_555
N2 Na2 2.554182 1_555
N2 Na9 2.829278 1_655
N2 Na1 2.848335 1_555
N2 Na28 2.999497 1_655
N3 Re3 1.884454 1_555
N3 Re6 1.913032 1_555
N3 Na3 2.554182 1_555
N3 Na8 2.829278 1_455
N3 Na0 2.848335 1_555
N3 Na28 2.999497 1_555
N4 Re11 1.787287 1_555
N4 Na3 2.381878 1_545
N4 Na6 2.392285 1_555
N4 Na4 2.595491 1_555
N4 Na24 2.712181 1_555
N5 Re10 1.787287 1_555
N5 Na2 2.381878 1_565
N5 Na7 2.392285 1_555
N5 Na5 2.595491 1_555
N5 Na25 2.712181 1_555
N6 Re1 1.853573 1_555
N6 Re10 1.997807 1_555
N6 Na12 2.483186 1_555
N6 Na22 2.565953 1_555
N7 Re0 1.853573 1_555
N7 Re11 1.997807 1_555
N7 Na13 2.483186 1_555
N7 Na23 2.565953 1_555
N8 Re8 1.887368 1_555
N8 Re0 1.927551 1_555
N8 Na18 2.800465 1_555
N8 Na29 3.001729 1_555
N9 Re9 1.887368 1_555
N9 Re1 1.927551 1_555
N9 Na19 2.800465 1_555
N9 Na29 3.001729 1_556
N10 Re5 1.791758 1_555
N10 Na24 2.480622 1_555
N10 Na0 2.575279 1_555
N10 Na1 2.650985 1_555
N10 Na18 2.658927 1_555
N11 Re4 1.791758 1_555
N11 Na25 2.480622 1_555
N11 Na1 2.575279 1_555
N11 Na0 2.650985 1_555
N11 Na19 2.658927 1_555
N12 Re7 1.800565 1_555
N12 Na16 2.396038 1_545
N12 Na17 2.411141 1_555
N12 Na6 2.604141 1_555
N12 Na2 2.818995 1_555
N12 Na24 2.858053 1_555
N13 Re6 1.800565 1_555
N13 Na17 2.396038 1_565
N13 Na16 2.411141 1_555
N13 Na7 2.604141 1_555
N13 Na3 2.818995 1_555
N13 Na25 2.858053 1_555
N14 Re4 1.887843 1_555
N14 Re6 1.922922 1_655
N14 Na28 2.341428 1_655
N14 Na25 2.599992 1_655
N14 Na0 2.718317 1_555
N15 Re5 1.887843 1_555
N15 Re7 1.922922 1_455
N15 Na28 2.341428 1_555
N15 Na24 2.599992 1_455
N15 Na1 2.718317 1_555
N16 Re12 1.804480 1_555
N16 Na15 2.384086 1_654
N16 Na13 2.387585 1_665
N16 Na11 2.503757 1_655
N16 Na14 2.854676 1_565
N16 Na12 2.971138 1_554
N17 Re13 1.804480 1_555
N17 Na14 2.384086 1_456
N17 Na12 2.387585 1_445
N17 Na10 2.503757 1_455
N17 Na15 2.854676 1_545
N17 Na13 2.971138 1_556
N18 Re6 1.800123 1_655
N18 Na6 2.415876 1_565
N18 Na3 2.445265 1_555
N18 Na8 2.494537 1_555
N18 Na16 2.509194 1_555
N18 Na0 2.655576 1_555
N19 Re7 1.800123 1_455
N19 Na7 2.415876 1_545
N19 Na2 2.445265 1_555
N19 Na9 2.494537 1_555
N19 Na17 2.509194 1_555
N19 Na1 2.655576 1_555
N20 Re4 1.847366 1_555
N20 Re10 1.939211 1_555
N20 Na22 2.665636 1_555
N20 Na25 2.994083 1_555
N21 Re5 1.847366 1_555
N21 Re11 1.939211 1_555
N21 Na23 2.665636 1_555
N21 Na24 2.994083 1_555
N22 Re9 1.777840 1_655
N22 Na21 2.380039 1_655
N22 Na26 2.405622 1_555
N22 Na20 2.559597 1_556
N22 Na29 2.859414 1_556
N23 Re8 1.777840 1_455
N23 Na20 2.380039 1_455
N23 Na27 2.405622 1_555
N23 Na21 2.559597 1_554
N23 Na29 2.859414 1_555
N24 Re1 1.882863 1_555
N24 Re12 1.909556 1_556
N24 Na12 2.529905 1_555
N24 Na15 2.785184 1_555
N25 Re0 1.882863 1_555
N25 Re13 1.909556 1_554
N25 Na13 2.529905 1_555
N25 Na14 2.785184 1_555
N26 Re12 1.907577 1_555
N26 Re8 1.923461 1_555
N26 Na27 2.439397 1_555
N26 Na21 2.674740 1_654
N26 Na29 2.729811 1_555
N27 Re13 1.907577 1_555
N27 Re9 1.923461 1_555
N27 Na26 2.439397 1_555
N27 Na20 2.674740 1_456
N27 Na29 2.729811 1_556
N28 Re10 1.811870 1_545
N28 Na10 2.437504 1_555
N28 Na5 2.548224 1_645
N28 Na9 2.622276 1_655
N28 Na7 2.669022 1_645
N29 Re11 1.811870 1_565
N29 Na11 2.437504 1_555
N29 Na4 2.548224 1_465
N29 Na8 2.622276 1_455
N29 Na6 2.669022 1_465
N30 Re3 1.883322 1_555
N30 Re8 1.909270 1_455
N30 Na18 2.555986 1_455
N30 Na8 2.643874 1_455
N30 Na27 2.893082 1_555
N30 Na11 2.958848 1_555
N31 Re2 1.883322 1_555
N31 Re9 1.909270 1_655
N31 Na19 2.555986 1_655
N31 Na9 2.643874 1_655
N31 Na26 2.893082 1_555
N31 Na10 2.958848 1_555
N32 Re4 1.892355 1_555
N32 Re2 1.972194 1_555
N32 Na22 2.537601 1_555
N32 Na19 2.769683 1_655
N33 Re5 1.892355 1_555
N33 Re3 1.972194 1_555
N33 Na23 2.537601 1_555
N33 Na18 2.769683 1_455
N34 Re2 1.782928 1_555
N34 Na9 2.415006 1_555
N34 Na26 2.421147 1_555
N34 Na19 2.528717 1_555
N34 Na2 2.859146 1_555
N34 Na1 2.915826 1_555
N35 Re3 1.782928 1_555
N35 Na8 2.415006 1_555
N35 Na27 2.421147 1_555
N35 Na18 2.528717 1_555
N35 Na3 2.859146 1_555
N35 Na0 2.915826 1_555
N36 Re12 1.797316 1_555
N36 Na11 2.369441 1_555
N36 Na4 2.569276 1_565
N36 Na15 2.652670 1_554
N36 Na27 2.716848 1_555
N37 Re13 1.797316 1_555
N37 Na10 2.369441 1_555
N37 Na5 2.569276 1_545
N37 Na14 2.652670 1_556
N37 Na26 2.716848 1_555
