# generated using pymatgen
data_Zn3(GaN2)2
_symmetry_space_group_name_H-M   'P 1'
_cell_length_a   5.35060800
_cell_length_b   10.83914000
_cell_length_c   8.02397600
_cell_angle_alpha   90.00000000
_cell_angle_beta   90.00000000
_cell_angle_gamma   90.00000000
_symmetry_Int_Tables_number   1
_chemical_formula_structural   Zn3(GaN2)2
_chemical_formula_sum   'Zn12 Ga8 N16'
_cell_volume   465.35842541
_cell_formula_units_Z   4
loop_
 _symmetry_equiv_pos_site_id
 _symmetry_equiv_pos_as_xyz
  1  'x, y, z'
loop_
 _atom_site_type_symbol
 _atom_site_label
 _atom_site_symmetry_multiplicity
 _atom_site_fract_x
 _atom_site_fract_y
 _atom_site_fract_z
 _atom_site_occupancy
  Zn  Zn0  1  0.72643600  0.14629300  0.37553100  1
  Zn  Zn1  1  0.77356400  0.85370700  0.37553100  1
  Zn  Zn2  1  0.72643600  0.35370700  0.12446900  1
  Zn  Zn3  1  0.77356400  0.64629300  0.12446900  1
  Zn  Zn4  1  0.27356400  0.85370700  0.62446900  1
  Zn  Zn5  1  0.22643600  0.14629300  0.62446900  1
  Zn  Zn6  1  0.27356400  0.64629300  0.87553100  1
  Zn  Zn7  1  0.22643600  0.35370700  0.87553100  1
  Zn  Zn8  1  0.75000000  0.50000000  0.44487100  1
  Zn  Zn9  1  0.75000000  0.00000000  0.05512900  1
  Zn  Zn10  1  0.25000000  0.50000000  0.55512900  1
  Zn  Zn11  1  0.25000000  0.00000000  0.94487100  1
  Ga  Ga0  1  0.75000000  0.50000000  0.79851800  1
  Ga  Ga1  1  0.75000000  0.00000000  0.70148200  1
  Ga  Ga2  1  0.25000000  0.50000000  0.20148200  1
  Ga  Ga3  1  0.25000000  0.00000000  0.29851800  1
  Ga  Ga4  1  0.77781900  0.25000000  0.75000000  1
  Ga  Ga5  1  0.72218100  0.75000000  0.75000000  1
  Ga  Ga6  1  0.22218100  0.75000000  0.25000000  1
  Ga  Ga7  1  0.27781900  0.25000000  0.25000000  1
  N  N0  1  0.99599800  0.39592600  0.67170200  1
  N  N1  1  0.50400200  0.60407400  0.67170200  1
  N  N2  1  0.99599800  0.10407400  0.82829800  1
  N  N3  1  0.50400200  0.89592600  0.82829800  1
  N  N4  1  0.00400200  0.60407400  0.32829800  1
  N  N5  1  0.49599800  0.39592600  0.32829800  1
  N  N6  1  0.00400200  0.89592600  0.17170200  1
  N  N7  1  0.49599800  0.10407400  0.17170200  1
  N  N8  1  0.58917600  0.35652300  0.89538500  1
  N  N9  1  0.91082400  0.64347700  0.89538500  1
  N  N10  1  0.58917600  0.14347700  0.60461500  1
  N  N11  1  0.91082400  0.85652300  0.60461500  1
  N  N12  1  0.41082400  0.64347700  0.10461500  1
  N  N13  1  0.08917600  0.35652300  0.10461500  1
  N  N14  1  0.41082400  0.85652300  0.39538500  1
  N  N15  1  0.08917600  0.14347700  0.39538500  1
loop_
_geom_bond_atom_site_label_1
_geom_bond_atom_site_label_2
_geom_bond_distance
_geom_bond_site_symmetry_2
Ga0 N9 1.939883 1_555
Ga0 N8 1.939883 1_555
Ga0 N0 2.010094 1_555
Ga0 N1 2.010094 1_555
Ga1 N10 1.939883 1_555
Ga1 N11 1.939883 1_545
Ga1 N2 2.010094 1_555
Ga1 N3 2.010094 1_545
Ga2 N12 1.939883 1_555
Ga2 N13 1.939883 1_555
Ga2 N5 2.010094 1_555
Ga2 N4 2.010094 1_555
Ga3 N14 1.939883 1_545
Ga3 N15 1.939883 1_555
Ga3 N7 2.010094 1_555
Ga3 N6 2.010094 1_545
Ga4 N8 1.926867 1_555
Ga4 N10 1.926867 1_555
Ga4 N0 2.063814 1_555
Ga4 N2 2.063814 1_555
Ga5 N11 1.926867 1_555
Ga5 N9 1.926867 1_555
Ga5 N1 2.063814 1_555
Ga5 N3 2.063814 1_555
Ga6 N14 1.926867 1_555
Ga6 N12 1.926867 1_555
Ga6 N4 2.063814 1_555
Ga6 N6 2.063814 1_555
Ga7 N15 1.926867 1_555
Ga7 N13 1.926867 1_555
Ga7 N7 2.063814 1_555
Ga7 N5 2.063814 1_555
N0 Zn10 1.998634 1_655
N0 Zn7 2.098710 1_655
N0 Zn8 2.513513 1_555
N1 Zn10 1.998634 1_555
N1 Zn6 2.098710 1_555
N1 Zn8 2.513513 1_555
N2 Zn11 1.998634 1_655
N2 Zn5 2.098710 1_655
N2 Zn9 2.513513 1_556
N3 Zn11 1.998634 1_565
N3 Zn4 2.098710 1_555
N3 Zn9 2.513513 1_566
N4 Zn8 1.998634 1_455
N4 Zn3 2.098710 1_455
N4 Zn10 2.513513 1_555
N5 Zn8 1.998634 1_555
N5 Zn2 2.098710 1_555
N5 Zn10 2.513513 1_555
N6 Zn9 1.998634 1_465
N6 Zn1 2.098710 1_455
N6 Zn11 2.513513 1_564
N7 Zn9 1.998634 1_555
N7 Zn0 2.098710 1_555
N7 Zn11 2.513513 1_554
N8 Zn7 1.947646 1_555
N8 Zn2 1.979687 1_556
N9 Zn6 1.947646 1_655
N9 Zn3 1.979687 1_556
N10 Zn5 1.947646 1_555
N10 Zn0 1.979687 1_555
N11 Zn4 1.947646 1_655
N11 Zn1 1.979687 1_555
N12 Zn3 1.947646 1_555
N12 Zn6 1.979687 1_554
N13 Zn2 1.947646 1_455
N13 Zn7 1.979687 1_554
N14 Zn1 1.947646 1_555
N14 Zn4 1.979687 1_555
N15 Zn0 1.947646 1_455
N15 Zn5 1.979687 1_555
