# generated using pymatgen
data_MnBePO5
_symmetry_space_group_name_H-M   'P 1'
_cell_length_a   14.06423600
_cell_length_b   4.76763900
_cell_length_c   5.46092500
_cell_angle_alpha   76.18015603
_cell_angle_beta   90.00000000
_cell_angle_gamma   90.00000000
_symmetry_Int_Tables_number   1
_chemical_formula_structural   MnBePO5
_chemical_formula_sum   'Mn4 Be4 P4 O20'
_cell_volume   355.57239140
_cell_formula_units_Z   4
loop_
 _symmetry_equiv_pos_site_id
 _symmetry_equiv_pos_as_xyz
  1  'x, y, z'
loop_
 _atom_site_type_symbol
 _atom_site_label
 _atom_site_symmetry_multiplicity
 _atom_site_fract_x
 _atom_site_fract_y
 _atom_site_fract_z
 _atom_site_occupancy
  Mn  Mn0  1  0.07337000  0.11541500  0.75369600  1
  Mn  Mn1  1  0.57337000  0.88458500  0.74630400  1
  Mn  Mn2  1  0.92663000  0.88458500  0.24630400  1
  Mn  Mn3  1  0.42663000  0.11541500  0.25369600  1
  Be  Be0  1  0.24113100  0.21945400  0.94772800  1
  Be  Be1  1  0.74113100  0.78054600  0.55227200  1
  Be  Be2  1  0.75886900  0.78054600  0.05227200  1
  Be  Be3  1  0.25886900  0.21945400  0.44772800  1
  P  P0  1  0.39645200  0.47297500  0.71264300  1
  P  P1  1  0.89645200  0.52702500  0.78735700  1
  P  P2  1  0.60354800  0.52702500  0.28735700  1
  P  P3  1  0.10354800  0.47297500  0.21264300  1
  O  O0  1  0.46582300  0.26064900  0.88936200  1
  O  O1  1  0.96582300  0.73935100  0.61063800  1
  O  O2  1  0.53417700  0.73935100  0.11063800  1
  O  O3  1  0.03417700  0.26064900  0.38936200  1
  O  O4  1  0.13201700  0.34067800  0.98705000  1
  O  O5  1  0.63201700  0.65932200  0.51295000  1
  O  O6  1  0.86798300  0.65932200  0.01295000  1
  O  O7  1  0.36798300  0.34067800  0.48705000  1
  O  O8  1  0.30486200  0.50775800  0.84731400  1
  O  O9  1  0.80486200  0.49224200  0.65268600  1
  O  O10  1  0.69513800  0.49224200  0.15268600  1
  O  O11  1  0.19513800  0.50775800  0.34731400  1
  O  O12  1  0.44754900  0.76836100  0.60965200  1
  O  O13  1  0.94754900  0.23163900  0.89034800  1
  O  O14  1  0.55245100  0.23163900  0.39034800  1
  O  O15  1  0.05245100  0.76836100  0.10965200  1
  O  O16  1  0.20537600  0.06077800  0.71564500  1
  O  O17  1  0.70537600  0.93922200  0.78435500  1
  O  O18  1  0.79462400  0.93922200  0.28435500  1
  O  O19  1  0.29462400  0.06077800  0.21564500  1
loop_
_geom_bond_atom_site_label_1
_geom_bond_atom_site_label_2
_geom_bond_distance
_geom_bond_site_symmetry_2
Mn0 O16 1.893072 1_555
Mn0 O3 2.020804 1_555
Mn0 O4 2.027683 1_555
Mn0 O13 2.047651 1_455
Mn0 O15 2.250850 1_546
Mn0 O1 2.604221 1_445
Mn1 O17 1.893072 1_555
Mn1 O2 2.020804 1_556
Mn1 O5 2.027683 1_555
Mn1 O12 2.047651 1_555
Mn1 O14 2.250850 1_565
Mn1 O0 2.604221 1_565
Mn2 O18 1.893072 1_555
Mn2 O1 2.020804 1_555
Mn2 O6 2.027683 1_555
Mn2 O15 2.047651 1_655
Mn2 O13 2.250850 1_564
Mn2 O3 2.604221 1_665
Mn3 O19 1.893072 1_555
Mn3 O0 2.020804 1_554
Mn3 O7 2.027683 1_555
Mn3 O14 2.047651 1_555
Mn3 O12 2.250850 1_545
Mn3 O2 2.604221 1_545
Be0 O8 1.622757 1_555
Be0 O19 1.658352 1_556
Be0 O4 1.671659 1_555
Be0 O16 1.699855 1_555
Be1 O9 1.622757 1_555
Be1 O18 1.658352 1_555
Be1 O5 1.671659 1_555
Be1 O17 1.699855 1_555
Be2 O10 1.622757 1_555
Be2 O17 1.658352 1_554
Be2 O6 1.671659 1_555
Be2 O18 1.699855 1_555
Be3 O11 1.622757 1_555
Be3 O16 1.658352 1_555
Be3 O7 1.671659 1_555
Be3 O19 1.699855 1_555
O0 P0 1.562447 1_555
O1 P1 1.562447 1_555
O2 P2 1.562447 1_555
O3 P3 1.562447 1_555
O4 P3 1.564312 1_556
O5 P2 1.564312 1_555
O6 P1 1.564312 1_554
O7 P0 1.564312 1_555
O8 P0 1.511930 1_555
O9 P1 1.511930 1_555
O10 P2 1.511930 1_555
O11 P3 1.511930 1_555
O12 P0 1.561301 1_555
O13 P1 1.561301 1_555
O14 P2 1.561301 1_555
O15 P3 1.561301 1_555
