# generated using pymatgen
data_KMg30GaO32
_symmetry_space_group_name_H-M   'P 1'
_cell_length_a   8.58372700
_cell_length_b   8.58372700
_cell_length_c   8.59296700
_cell_angle_alpha   90.00000000
_cell_angle_beta   90.00000000
_cell_angle_gamma   90.00000000
_symmetry_Int_Tables_number   1
_chemical_formula_structural   KMg30GaO32
_chemical_formula_sum   'K1 Mg30 Ga1 O32'
_cell_volume   633.13298117
_cell_formula_units_Z   1
loop_
 _symmetry_equiv_pos_site_id
 _symmetry_equiv_pos_as_xyz
  1  'x, y, z'
loop_
 _atom_site_type_symbol
 _atom_site_label
 _atom_site_symmetry_multiplicity
 _atom_site_fract_x
 _atom_site_fract_y
 _atom_site_fract_z
 _atom_site_occupancy
  K  K0  1  0.00000000  0.00000000  0.00000000  1
  Mg  Mg0  1  0.00000000  0.50000000  0.00000000  1
  Mg  Mg1  1  0.50000000  0.00000000  0.00000000  1
  Mg  Mg2  1  0.00000000  0.00000000  0.50000000  1
  Mg  Mg3  1  0.00000000  0.50000000  0.50000000  1
  Mg  Mg4  1  0.50000000  0.00000000  0.50000000  1
  Mg  Mg5  1  0.50000000  0.50000000  0.50000000  1
  Mg  Mg6  1  0.24886100  0.24886100  0.00000000  1
  Mg  Mg7  1  0.24886100  0.75113900  0.00000000  1
  Mg  Mg8  1  0.75113900  0.24886100  0.00000000  1
  Mg  Mg9  1  0.75113900  0.75113900  0.00000000  1
  Mg  Mg10  1  0.24880500  0.24880500  0.50000000  1
  Mg  Mg11  1  0.24880500  0.75119500  0.50000000  1
  Mg  Mg12  1  0.75119500  0.24880500  0.50000000  1
  Mg  Mg13  1  0.75119500  0.75119500  0.50000000  1
  Mg  Mg14  1  0.00000000  0.25023100  0.25167300  1
  Mg  Mg15  1  0.00000000  0.74976900  0.25167300  1
  Mg  Mg16  1  0.50000000  0.24772600  0.25142500  1
  Mg  Mg17  1  0.50000000  0.75227400  0.25142500  1
  Mg  Mg18  1  0.00000000  0.25023100  0.74832700  1
  Mg  Mg19  1  0.00000000  0.74976900  0.74832700  1
  Mg  Mg20  1  0.50000000  0.24772600  0.74857500  1
  Mg  Mg21  1  0.50000000  0.75227400  0.74857500  1
  Mg  Mg22  1  0.25023100  0.00000000  0.25167300  1
  Mg  Mg23  1  0.24772600  0.50000000  0.25142500  1
  Mg  Mg24  1  0.74976900  0.00000000  0.25167300  1
  Mg  Mg25  1  0.75227400  0.50000000  0.25142500  1
  Mg  Mg26  1  0.25023100  0.00000000  0.74832700  1
  Mg  Mg27  1  0.24772600  0.50000000  0.74857500  1
  Mg  Mg28  1  0.74976900  0.00000000  0.74832700  1
  Mg  Mg29  1  0.75227400  0.50000000  0.74857500  1
  Ga  Ga0  1  0.50000000  0.50000000  0.00000000  1
  O  O0  1  0.00000000  0.00000000  0.27344300  1
  O  O1  1  0.00000000  0.50000000  0.25271500  1
  O  O2  1  0.50000000  0.00000000  0.25271500  1
  O  O3  1  0.50000000  0.50000000  0.24349600  1
  O  O4  1  0.00000000  0.00000000  0.72655700  1
  O  O5  1  0.00000000  0.50000000  0.74728500  1
  O  O6  1  0.50000000  0.00000000  0.74728500  1
  O  O7  1  0.50000000  0.50000000  0.75650400  1
  O  O8  1  0.25045300  0.25045300  0.24912500  1
  O  O9  1  0.25045300  0.74954700  0.24912500  1
  O  O10  1  0.74954700  0.25045300  0.24912500  1
  O  O11  1  0.74954700  0.74954700  0.24912500  1
  O  O12  1  0.25045300  0.25045300  0.75087500  1
  O  O13  1  0.25045300  0.74954700  0.75087500  1
  O  O14  1  0.74954700  0.25045300  0.75087500  1
  O  O15  1  0.74954700  0.74954700  0.75087500  1
  O  O16  1  0.00000000  0.27468500  0.00000000  1
  O  O17  1  0.00000000  0.72531500  0.00000000  1
  O  O18  1  0.50000000  0.26270200  0.00000000  1
  O  O19  1  0.50000000  0.73729800  0.00000000  1
  O  O20  1  0.00000000  0.25505900  0.50000000  1
  O  O21  1  0.00000000  0.74494100  0.50000000  1
  O  O22  1  0.50000000  0.25303400  0.50000000  1
  O  O23  1  0.50000000  0.74696600  0.50000000  1
  O  O24  1  0.27468500  0.00000000  0.00000000  1
  O  O25  1  0.26270200  0.50000000  0.00000000  1
  O  O26  1  0.72531500  0.00000000  0.00000000  1
  O  O27  1  0.73729800  0.50000000  0.00000000  1
  O  O28  1  0.25505900  0.00000000  0.50000000  1
  O  O29  1  0.25303400  0.50000000  0.50000000  1
  O  O30  1  0.74494100  0.00000000  0.50000000  1
  O  O31  1  0.74696600  0.50000000  0.50000000  1
loop_
_geom_bond_atom_site_label_1
_geom_bond_atom_site_label_2
_geom_bond_distance
_geom_bond_site_symmetry_2
K0 O0 2.349687 1_555
K0 O4 2.349687 1_554
K0 O24 2.357821 1_555
K0 O16 2.357821 1_555
K0 O26 2.357821 1_455
K0 O17 2.357821 1_545
Mg0 O17 1.934042 1_555
Mg0 O16 1.934042 1_555
Mg0 O1 2.171572 1_555
Mg0 O5 2.171572 1_554
Mg0 O27 2.254962 1_455
Mg0 O25 2.254962 1_555
Mg1 O26 1.934042 1_555
Mg1 O24 1.934042 1_555
Mg1 O2 2.171572 1_555
Mg1 O6 2.171572 1_554
Mg1 O19 2.254962 1_545
Mg1 O18 2.254962 1_555
Mg2 O0 1.946797 1_555
Mg2 O4 1.946797 1_555
Mg2 O20 2.189357 1_555
Mg2 O28 2.189357 1_555
Mg2 O30 2.189357 1_455
Mg2 O21 2.189357 1_545
Mg3 O21 2.102507 1_555
Mg3 O20 2.102507 1_555
Mg3 O5 2.124912 1_555
Mg3 O1 2.124912 1_555
Mg3 O31 2.171975 1_455
Mg3 O29 2.171975 1_555
Mg4 O30 2.102507 1_555
Mg4 O28 2.102507 1_555
Mg4 O6 2.124912 1_555
Mg4 O2 2.124912 1_555
Mg4 O23 2.171975 1_545
Mg4 O22 2.171975 1_555
Mg5 O31 2.119889 1_555
Mg5 O22 2.119889 1_555
Mg5 O23 2.119889 1_555
Mg5 O29 2.119889 1_555
Mg5 O7 2.204130 1_555
Mg5 O3 2.204130 1_555
Mg6 O8 2.140810 1_555
Mg6 O12 2.140810 1_554
Mg6 O16 2.147625 1_555
Mg6 O24 2.147625 1_555
Mg6 O25 2.158980 1_555
Mg6 O18 2.158980 1_555
Mg7 O9 2.140810 1_555
Mg7 O13 2.140810 1_554
Mg7 O24 2.147625 1_565
Mg7 O17 2.147625 1_555
Mg7 O25 2.158980 1_555
Mg7 O19 2.158980 1_555
Mg8 O10 2.140810 1_555
Mg8 O14 2.140810 1_554
Mg8 O16 2.147625 1_655
Mg8 O26 2.147625 1_555
Mg8 O27 2.158980 1_555
Mg8 O18 2.158980 1_555
Mg9 O11 2.140810 1_555
Mg9 O15 2.140810 1_554
Mg9 O26 2.147625 1_565
Mg9 O17 2.147625 1_655
Mg9 O27 2.158980 1_555
Mg9 O19 2.158980 1_555
Mg10 O20 2.136349 1_555
Mg10 O28 2.136349 1_555
Mg10 O12 2.155853 1_555
Mg10 O8 2.155853 1_555
Mg10 O29 2.156495 1_555
Mg10 O22 2.156495 1_555
Mg11 O21 2.136349 1_555
Mg11 O28 2.136349 1_565
Mg11 O13 2.155853 1_555
Mg11 O9 2.155853 1_555
Mg11 O29 2.156495 1_555
Mg11 O23 2.156495 1_555
Mg12 O30 2.136349 1_555
Mg12 O20 2.136349 1_655
Mg12 O14 2.155853 1_555
Mg12 O10 2.155853 1_555
Mg12 O22 2.156495 1_555
Mg12 O31 2.156495 1_555
Mg13 O21 2.136349 1_655
Mg13 O30 2.136349 1_565
Mg13 O15 2.155853 1_555
Mg13 O11 2.155853 1_555
Mg13 O31 2.156495 1_555
Mg13 O23 2.156495 1_555
Mg14 O20 2.134268 1_555
Mg14 O1 2.143968 1_555
Mg14 O8 2.149933 1_555
Mg14 O10 2.149933 1_455
Mg14 O0 2.156045 1_555
Mg14 O16 2.172781 1_555
Mg15 O21 2.134268 1_555
Mg15 O1 2.143968 1_555
Mg15 O9 2.149933 1_555
Mg15 O11 2.149933 1_455
Mg15 O0 2.156045 1_565
Mg15 O17 2.172781 1_555
Mg16 O2 2.126441 1_555
Mg16 O22 2.136483 1_555
Mg16 O10 2.142262 1_555
Mg16 O8 2.142262 1_555
Mg16 O18 2.164308 1_555
Mg16 O3 2.166523 1_555
Mg17 O2 2.126441 1_565
Mg17 O23 2.136483 1_555
Mg17 O11 2.142262 1_555
Mg17 O9 2.142262 1_555
Mg17 O19 2.164308 1_555
Mg17 O3 2.166523 1_555
Mg18 O20 2.134268 1_555
Mg18 O5 2.143968 1_555
Mg18 O12 2.149933 1_555
Mg18 O14 2.149933 1_455
Mg18 O4 2.156045 1_555
Mg18 O16 2.172781 1_556
Mg19 O21 2.134268 1_555
Mg19 O5 2.143968 1_555
Mg19 O13 2.149933 1_555
Mg19 O15 2.149933 1_455
Mg19 O4 2.156045 1_565
Mg19 O17 2.172781 1_556
Mg20 O6 2.126441 1_555
Mg20 O22 2.136483 1_555
Mg20 O14 2.142262 1_555
Mg20 O12 2.142262 1_555
Mg20 O18 2.164308 1_556
Mg20 O7 2.166523 1_555
Mg21 O6 2.126441 1_565
Mg21 O23 2.136483 1_555
Mg21 O15 2.142262 1_555
Mg21 O13 2.142262 1_555
Mg21 O19 2.164308 1_556
Mg21 O7 2.166523 1_555
Mg22 O28 2.134268 1_555
Mg22 O2 2.143968 1_555
Mg22 O8 2.149933 1_555
Mg22 O9 2.149933 1_545
Mg22 O0 2.156045 1_555
Mg22 O24 2.172781 1_555
Mg23 O1 2.126441 1_555
Mg23 O29 2.136483 1_555
Mg23 O9 2.142262 1_555
Mg23 O8 2.142262 1_555
Mg23 O25 2.164308 1_555
Mg23 O3 2.166523 1_555
Mg24 O30 2.134268 1_555
Mg24 O2 2.143968 1_555
Mg24 O10 2.149933 1_555
Mg24 O11 2.149933 1_545
Mg24 O0 2.156045 1_655
Mg24 O26 2.172781 1_555
Mg25 O1 2.126441 1_655
Mg25 O31 2.136483 1_555
Mg25 O11 2.142262 1_555
Mg25 O10 2.142262 1_555
Mg25 O27 2.164308 1_555
Mg25 O3 2.166523 1_555
Mg26 O28 2.134268 1_555
Mg26 O6 2.143968 1_555
Mg26 O12 2.149933 1_555
Mg26 O13 2.149933 1_545
Mg26 O4 2.156045 1_555
Mg26 O24 2.172781 1_556
Mg27 O5 2.126441 1_555
Mg27 O29 2.136483 1_555
Mg27 O13 2.142262 1_555
Mg27 O12 2.142262 1_555
Mg27 O25 2.164308 1_556
Mg27 O7 2.166523 1_555
Mg28 O30 2.134268 1_555
Mg28 O6 2.143968 1_555
Mg28 O14 2.149933 1_555
Mg28 O15 2.149933 1_545
Mg28 O4 2.156045 1_655
Mg28 O26 2.172781 1_556
Mg29 O5 2.126441 1_655
Mg29 O31 2.136483 1_555
Mg29 O15 2.142262 1_555
Mg29 O14 2.142262 1_555
Mg29 O27 2.164308 1_556
Mg29 O7 2.166523 1_555
Ga0 O27 2.036901 1_555
Ga0 O25 2.036901 1_555
Ga0 O18 2.036901 1_555
Ga0 O19 2.036901 1_555
Ga0 O3 2.092353 1_555
Ga0 O7 2.092353 1_554
