# generated using pymatgen
data_Nd(IO3)3
_symmetry_space_group_name_H-M   'P 1'
_cell_length_a   6.88410100
_cell_length_b   8.29498200
_cell_length_c   6.67401300
_cell_angle_alpha   90.00000000
_cell_angle_beta   90.00000000
_cell_angle_gamma   90.00000000
_symmetry_Int_Tables_number   1
_chemical_formula_structural   Nd(IO3)3
_chemical_formula_sum   'Nd2 I6 O18'
_cell_volume   381.10946051
_cell_formula_units_Z   2
loop_
 _symmetry_equiv_pos_site_id
 _symmetry_equiv_pos_as_xyz
  1  'x, y, z'
loop_
 _atom_site_type_symbol
 _atom_site_label
 _atom_site_symmetry_multiplicity
 _atom_site_fract_x
 _atom_site_fract_y
 _atom_site_fract_z
 _atom_site_occupancy
  Nd  Nd0  1  0.50000000  0.00000000  0.62136900  1
  Nd  Nd1  1  0.00000000  0.50000000  0.37863100  1
  I  I0  1  0.00000000  0.79555800  0.86480400  1
  I  I1  1  0.00000000  0.20444200  0.86480400  1
  I  I2  1  0.50000000  0.70444200  0.13519600  1
  I  I3  1  0.50000000  0.29555800  0.13519600  1
  I  I4  1  0.50000000  0.50000000  0.59288200  1
  I  I5  1  0.00000000  0.00000000  0.40711800  1
  O  O0  1  0.81887500  0.85769700  0.53923500  1
  O  O1  1  0.81887500  0.14230300  0.53923500  1
  O  O2  1  0.18112500  0.85769700  0.53923500  1
  O  O3  1  0.18112500  0.14230300  0.53923500  1
  O  O4  1  0.68112500  0.64230300  0.46076500  1
  O  O5  1  0.68112500  0.35769700  0.46076500  1
  O  O6  1  0.31887500  0.64230300  0.46076500  1
  O  O7  1  0.31887500  0.35769700  0.46076500  1
  O  O8  1  0.50000000  0.00000000  0.27062900  1
  O  O9  1  0.00000000  0.50000000  0.72937100  1
  O  O10  1  0.17980400  0.00000000  0.90975000  1
  O  O11  1  0.82019600  0.00000000  0.90975000  1
  O  O12  1  0.32019600  0.50000000  0.09025000  1
  O  O13  1  0.67980400  0.50000000  0.09025000  1
  O  O14  1  0.50000000  0.76119300  0.86399700  1
  O  O15  1  0.50000000  0.23880700  0.86399700  1
  O  O16  1  0.00000000  0.73880700  0.13600300  1
  O  O17  1  0.00000000  0.26119300  0.13600300  1
loop_
_geom_bond_atom_site_label_1
_geom_bond_atom_site_label_2
_geom_bond_distance
_geom_bond_site_symmetry_2
Nd0 O8 2.340843 1_555
Nd0 O0 2.551978 1_545
Nd0 O2 2.551978 1_545
Nd0 O1 2.551978 1_555
Nd0 O3 2.551978 1_555
Nd0 O15 2.558536 1_555
Nd0 O14 2.558536 1_545
Nd0 O10 2.926274 1_555
Nd0 O11 2.926274 1_555
Nd1 O9 2.340843 1_555
Nd1 O6 2.551978 1_555
Nd1 O4 2.551978 1_455
Nd1 O5 2.551978 1_455
Nd1 O7 2.551978 1_555
Nd1 O16 2.558536 1_555
Nd1 O17 2.558536 1_555
Nd1 O12 2.926274 1_555
Nd1 O13 2.926274 1_455
I0 O16 1.870201 1_556
I0 O10 2.120846 1_565
I0 O11 2.120846 1_465
I0 O2 2.557671 1_555
I0 O0 2.557671 1_455
I0 O9 2.612964 1_555
I1 O17 1.870201 1_556
I1 O10 2.120846 1_555
I1 O11 2.120846 1_455
I1 O3 2.557671 1_555
I1 O1 2.557671 1_455
I1 O9 2.612964 1_555
I2 O14 1.870201 1_554
I2 O12 2.120846 1_555
I2 O13 2.120846 1_555
I2 O6 2.557671 1_555
I2 O4 2.557671 1_555
I2 O8 2.612964 1_565
I3 O15 1.870201 1_554
I3 O12 2.120846 1_555
I3 O13 2.120846 1_555
I3 O7 2.557671 1_555
I3 O5 2.557671 1_555
I3 O8 2.612964 1_555
I4 O6 1.930168 1_555
I4 O4 1.930168 1_555
I4 O5 1.930168 1_555
I4 O7 1.930168 1_555
I5 O0 1.930168 1_445
I5 O1 1.930168 1_455
I5 O2 1.930168 1_545
I5 O3 1.930168 1_555
