# generated using pymatgen
data_Li4TiO4
_symmetry_space_group_name_H-M   'P 1'
_cell_length_a   9.26776200
_cell_length_b   9.42444122
_cell_length_c   9.42683219
_cell_angle_alpha   89.62135646
_cell_angle_beta   89.41121290
_cell_angle_gamma   89.51101475
_symmetry_Int_Tables_number   1
_chemical_formula_structural   Li4TiO4
_chemical_formula_sum   'Li32 Ti8 O32'
_cell_volume   823.28134622
_cell_formula_units_Z   8
loop_
 _symmetry_equiv_pos_site_id
 _symmetry_equiv_pos_as_xyz
  1  'x, y, z'
loop_
 _atom_site_type_symbol
 _atom_site_label
 _atom_site_symmetry_multiplicity
 _atom_site_fract_x
 _atom_site_fract_y
 _atom_site_fract_z
 _atom_site_occupancy
  Li  Li0  1  0.09981200  0.13362600  0.36036800  1
  Li  Li1  1  0.10469600  0.63541900  0.13595100  1
  Li  Li2  1  0.12433100  0.35441500  0.13191000  1
  Li  Li3  1  0.12450800  0.85971300  0.35332100  1
  Li  Li4  1  0.18000800  0.91783900  0.63483100  1
  Li  Li5  1  0.33166300  0.56863700  0.86459800  1
  Li  Li6  1  0.32898500  0.84427500  0.88935100  1
  Li  Li7  1  0.30682100  0.32486000  0.59901100  1
  Li  Li8  1  0.38004600  0.83594900  0.38739500  1
  Li  Li9  1  0.37623900  0.32781500  0.10505000  1
  Li  Li10  1  0.39804300  0.13174000  0.86163100  1
  Li  Li11  1  0.40266700  0.62823800  0.61619500  1
  Li  Li12  1  0.55304500  0.38408600  0.39572600  1
  Li  Li13  1  0.53954000  0.89285700  0.09756900  1
  Li  Li14  1  0.61636400  0.66416700  0.89137900  1
  Li  Li15  1  0.60076100  0.16009500  0.61703800  1
  Li  Li16  1  0.62782000  0.63113500  0.35799700  1
  Li  Li17  1  0.62219400  0.13164100  0.15080900  1
  Li  Li18  1  0.64746800  0.89291700  0.37821000  1
  Li  Li19  1  0.64964100  0.39565900  0.12394300  1
  Li  Li20  1  0.67269800  0.10373600  0.88443900  1
  Li  Li21  1  0.67665700  0.60260400  0.62204000  1
  Li  Li22  1  0.82753100  0.10133600  0.38431400  1
  Li  Li23  1  0.83223500  0.60096900  0.11785500  1
  Li  Li24  1  0.87774000  0.39331300  0.62206800  1
  Li  Li25  1  0.89267100  0.89726800  0.87413100  1
  Li  Li26  1  0.88523600  0.64112400  0.85643200  1
  Li  Li27  1  0.88695900  0.13687900  0.64220900  1
  Li  Li28  1  0.90533600  0.65569700  0.38844700  1
  Li  Li29  1  0.89422400  0.15419300  0.11451300  1
  Li  Li30  1  0.94386700  0.38989300  0.88779700  1
  Li  Li31  1  0.91333400  0.87638100  0.61138500  1
  Ti  Ti0  1  0.12598300  0.12566800  0.86544500  1
  Ti  Ti1  1  0.12383700  0.62003600  0.63176500  1
  Ti  Ti2  1  0.37740800  0.11894100  0.36176400  1
  Ti  Ti3  1  0.38350500  0.62100400  0.14837600  1
  Ti  Ti4  1  0.63195900  0.38463200  0.85071500  1
  Ti  Ti5  1  0.62675300  0.88162500  0.65359100  1
  Ti  Ti6  1  0.86483800  0.37753800  0.34793100  1
  Ti  Ti7  1  0.86306200  0.87743400  0.15135200  1
  O  O0  1  0.98476700  0.51880100  0.73455200  1
  O  O1  1  0.00720200  0.00866700  0.74474900  1
  O  O2  1  0.03327700  0.75186700  0.51086000  1
  O  O3  1  0.01995000  0.24083400  0.99158200  1
  O  O4  1  0.25518400  0.01516900  0.95212500  1
  O  O5  1  0.25229400  0.51043700  0.54575400  1
  O  O6  1  0.24738500  0.23451800  0.76527400  1
  O  O7  1  0.25056200  0.72687900  0.73916500  1
  O  O8  1  0.26521200  0.22987100  0.25006300  1
  O  O9  1  0.26561700  0.73199400  0.25340200  1
  O  O10  1  0.25082800  0.99633400  0.44949900  1
  O  O11  1  0.26284200  0.50261500  0.05349700  1
  O  O12  1  0.46807900  0.23292900  0.48927400  1
  O  O13  1  0.46601400  0.73094500  0.00577000  1
  O  O14  1  0.52154100  0.50763900  0.23742000  1
  O  O15  1  0.51240400  0.00037400  0.26930000  1
  O  O16  1  0.53429100  0.00815000  0.76380700  1
  O  O17  1  0.52749400  0.52036400  0.75649500  1
  O  O18  1  0.54629100  0.26438400  0.98407700  1
  O  O19  1  0.54317100  0.76017700  0.51966100  1
  O  O20  1  0.74954600  0.49663900  0.95978700  1
  O  O21  1  0.74234100  0.99492100  0.54121000  1
  O  O22  1  0.74356000  0.26729200  0.73976000  1
  O  O23  1  0.75316400  0.76975700  0.75474200  1
  O  O24  1  0.75061100  0.25980900  0.24360800  1
  O  O25  1  0.75652700  0.75731500  0.26291100  1
  O  O26  1  0.75618800  0.49592300  0.46408400  1
  O  O27  1  0.75146300  0.99644600  0.03985800  1
  O  O28  1  0.94883200  0.25099500  0.46969400  1
  O  O29  1  0.95003000  0.75313700  0.02764300  1
  O  O30  1  0.96605200  0.99700200  0.26221600  1
  O  O31  1  0.97062000  0.49762000  0.23600300  1
loop_
_geom_bond_atom_site_label_1
_geom_bond_atom_site_label_2
_geom_bond_distance
_geom_bond_site_symmetry_2
Li0 O30 2.029125 1_445
Li0 O28 2.050018 1_455
Li0 O8 2.057241 1_555
Li0 O10 2.077948 1_545
Li1 O31 2.026679 1_455
Li1 O11 2.068083 1_555
Li1 O29 2.077472 1_455
Li1 O9 2.085403 1_555
Li2 O3 1.973392 1_554
Li2 O11 2.035309 1_555
Li2 O8 2.075922 1_555
Li2 O31 2.183964 1_455
Li3 O10 1.978230 1_555
Li3 O2 1.980490 1_555
Li3 O9 2.002276 1_555
Li3 O30 2.132390 1_455
Li4 O10 1.999506 1_555
Li4 O1 2.079785 1_565
Li4 O7 2.145584 1_555
Li4 O2 2.398921 1_555
Li5 O11 1.983360 1_556
Li5 O7 2.040349 1_555
Li5 O17 2.119768 1_555
Li5 O13 2.398903 1_556
Li6 O4 1.843215 1_565
Li6 O7 1.952525 1_555
Li6 O13 1.986952 1_556
Li7 O6 1.859436 1_555
Li7 O5 1.882765 1_555
Li7 O12 2.003068 1_555
Li8 O9 1.934328 1_555
Li8 O10 2.006997 1_555
Li8 O19 2.087745 1_555
Li8 O15 2.264273 1_565
Li9 O8 1.936540 1_555
Li9 O11 2.006218 1_555
Li9 O18 2.024261 1_554
Li9 O14 2.518742 1_555
Li10 O4 1.917511 1_555
Li10 O6 1.924635 1_555
Li10 O16 1.940796 1_555
Li10 O18 2.205392 1_555
Li11 O5 1.915948 1_555
Li11 O19 2.014505 1_555
Li11 O17 2.028485 1_555
Li11 O7 2.038008 1_555
Li12 O12 1.848085 1_555
Li12 O14 1.910061 1_555
Li12 O26 2.266812 1_555
Li13 O13 1.894463 1_555
Li13 O15 1.928661 1_565
Li13 O27 2.260601 1_555
Li14 O13 1.861077 1_556
Li14 O17 2.048227 1_555
Li14 O23 2.056158 1_555
Li14 O20 2.098043 1_555
Li15 O12 1.854442 1_555
Li15 O22 2.044557 1_555
Li15 O16 2.077430 1_555
Li15 O21 2.148592 1_545
Li16 O25 1.904884 1_555
Li16 O14 1.917508 1_555
Li16 O26 2.005254 1_555
Li16 O19 2.097766 1_555
Li17 O24 1.923709 1_555
Li17 O15 1.947646 1_555
Li17 O27 2.029399 1_545
Li17 O18 2.124157 1_554
Li18 O15 1.907239 1_565
Li18 O25 1.951894 1_555
Li18 O21 2.029786 1_555
Li18 O19 2.061424 1_555
Li19 O14 1.906557 1_555
Li19 O24 1.941528 1_555
Li19 O20 2.030707 1_554
Li19 O18 2.062581 1_554
Li20 O27 1.921362 1_546
Li20 O16 1.952771 1_555
Li20 O18 2.124340 1_555
Li20 O22 2.153717 1_555
Li21 O26 1.938015 1_555
Li21 O17 2.021778 1_555
Li21 O23 2.147705 1_555
Li21 O19 2.154407 1_555
Li22 O21 1.945919 1_545
Li22 O30 1.975547 1_545
Li22 O28 1.990388 1_555
Li22 O24 2.115003 1_555
Li23 O31 1.956452 1_555
Li23 O20 1.957064 1_554
Li23 O29 1.990770 1_555
Li23 O25 2.126624 1_555
Li24 O0 1.888156 1_555
Li24 O22 2.041405 1_555
Li24 O28 2.070576 1_555
Li24 O26 2.102151 1_555
Li25 O1 1.921449 1_665
Li25 O29 2.049246 1_556
Li25 O23 2.111097 1_555
Li25 O27 2.232360 1_556
Li26 O0 1.864813 1_555
Li26 O23 1.967290 1_555
Li26 O29 2.033026 1_556
Li26 O20 2.090791 1_555
Li27 O1 1.902627 1_655
Li27 O22 2.020995 1_555
Li27 O28 2.024468 1_555
Li27 O21 2.136922 1_545
Li28 O2 1.902457 1_655
Li28 O25 2.053201 1_555
Li28 O31 2.155396 1_555
Li28 O26 2.165067 1_555
Li29 O3 1.828482 1_654
Li29 O24 2.050205 1_555
Li29 O27 2.126630 1_545
Li29 O30 2.133412 1_545
Li30 O3 1.845793 1_655
Li30 O0 1.918319 1_555
Li30 O20 2.160769 1_555
Li31 O2 1.865877 1_655
Li31 O1 1.988311 1_665
Li31 O21 2.044162 1_555
Li31 O23 2.237372 1_555
O0 Ti1 1.869073 1_655
O1 Ti0 1.945585 1_555
O2 Ti1 1.878889 1_555
O3 Ti0 1.879480 1_555
O4 Ti0 1.781441 1_555
O5 Ti1 1.764049 1_555
O6 Ti0 1.787465 1_555
O7 Ti1 1.864512 1_555
O8 Ti2 1.808963 1_555
O9 Ti3 1.800003 1_555
O10 Ti2 1.840103 1_565
O11 Ti3 1.830423 1_555
O12 Ti2 1.832559 1_555
O13 Ti3 1.854585 1_555
O14 Ti3 1.862669 1_555
O15 Ti2 1.881564 1_555
O16 Ti5 1.793410 1_545
O17 Ti4 1.828684 1_555
O18 Ti4 1.863109 1_555
O19 Ti5 1.886379 1_555
O20 Ti4 1.848271 1_555
O21 Ti5 1.841527 1_555
O22 Ti4 1.833097 1_555
O23 Ti5 1.838987 1_555
O24 Ti6 1.837053 1_555
O25 Ti7 1.828758 1_555
O26 Ti6 1.852562 1_555
O27 Ti7 1.849159 1_555
O28 Ti6 1.824887 1_555
O29 Ti7 1.834254 1_555
O30 Ti7 1.824147 1_555
O31 Ti6 1.826761 1_555
