# generated using pymatgen
data_Re4Xe3(O5F7)2
_symmetry_space_group_name_H-M   'P 1'
_cell_length_a   8.05226800
_cell_length_b   8.48629810
_cell_length_c   10.42850516
_cell_angle_alpha   88.12833066
_cell_angle_beta   110.96016946
_cell_angle_gamma   118.25621000
_symmetry_Int_Tables_number   1
_chemical_formula_structural   Re4Xe3(O5F7)2
_chemical_formula_sum   'Re4 Xe3 O10 F14'
_cell_volume   578.01895533
_cell_formula_units_Z   1
loop_
 _symmetry_equiv_pos_site_id
 _symmetry_equiv_pos_as_xyz
  1  'x, y, z'
loop_
 _atom_site_type_symbol
 _atom_site_label
 _atom_site_symmetry_multiplicity
 _atom_site_fract_x
 _atom_site_fract_y
 _atom_site_fract_z
 _atom_site_occupancy
  Re  Re0  1  0.43924100  0.68399900  0.28595000  1
  Re  Re1  1  0.56075900  0.31600100  0.71405000  1
  Re  Re2  1  0.01290400  0.00166900  0.24332400  1
  Re  Re3  1  0.98709600  0.99833100  0.75667600  1
  Xe  Xe0  1  0.00000000  0.50000000  0.50000000  1
  Xe  Xe1  1  0.34494700  0.66753700  0.86379700  1
  Xe  Xe2  1  0.65505300  0.33246300  0.13620300  1
  O  O0  1  0.18335900  0.53197600  0.23779900  1
  O  O1  1  0.81664100  0.46802400  0.76220100  1
  O  O2  1  0.20667800  0.10806800  0.18630400  1
  O  O3  1  0.79332200  0.89193200  0.81369600  1
  O  O4  1  0.07425800  0.16647100  0.37094700  1
  O  O5  1  0.92574200  0.83352900  0.62905300  1
  O  O6  1  0.26256400  0.72797900  0.66612900  1
  O  O7  1  0.73743600  0.27202100  0.33387100  1
  O  O8  1  0.49840100  0.79027900  0.44497400  1
  O  O9  1  0.50159900  0.20972100  0.55502600  1
  F  F0  1  0.42628300  0.59314700  0.09755200  1
  F  F1  1  0.57371700  0.40685300  0.90244800  1
  F  F2  1  0.74070600  0.83865700  0.30532300  1
  F  F3  1  0.25929400  0.16134300  0.69467700  1
  F  F4  1  0.52963200  0.51674100  0.35045800  1
  F  F5  1  0.47036800  0.48325900  0.64954200  1
  F  F6  1  0.40718100  0.86322500  0.18568300  1
  F  F7  1  0.59281900  0.13677500  0.81431700  1
  F  F8  1  0.81621000  0.04732100  0.10922000  1
  F  F9  1  0.18379000  0.95267900  0.89078000  1
  F  F10  1  0.86395300  0.77172400  0.11816500  1
  F  F11  1  0.13604700  0.22827600  0.88183500  1
  F  F12  1  0.11806500  0.87476300  0.36840300  1
  F  F13  1  0.88193500  0.12523700  0.63159700  1
loop_
_geom_bond_atom_site_label_1
_geom_bond_atom_site_label_2
_geom_bond_distance
_geom_bond_site_symmetry_2
O0 Re0 1.716730 1_555
O1 Re1 1.716730 1_555
O2 Re2 1.702423 1_555
O3 Re3 1.702423 1_555
O4 Re2 1.722889 1_555
O5 Re3 1.722889 1_555
O6 Xe1 2.056021 1_555
O6 Xe0 2.222611 1_555
O7 Xe2 2.056021 1_555
O7 Xe0 2.222611 1_655
O8 Re0 1.707725 1_555
O9 Re1 1.707725 1_555
F0 Re0 2.083632 1_555
F0 Xe1 2.432828 1_554
F1 Re1 2.083632 1_555
F1 Xe2 2.432828 1_556
F2 Re0 2.075066 1_555
F2 Re2 2.284810 1_665
F3 Re1 2.075066 1_555
F3 Re3 2.284810 1_445
F4 Re0 1.887466 1_555
F5 Re1 1.887466 1_555
F6 Re0 1.883638 1_555
F7 Re1 1.883638 1_555
F8 Re2 1.890853 1_655
F9 Re3 1.890853 1_455
F10 Re2 1.944320 1_665
F11 Re3 1.944320 1_445
F12 Re2 1.886742 1_565
F13 Re3 1.886742 1_545
