# generated using pymatgen
data_K2PtC2Cl2O5
_symmetry_space_group_name_H-M   'P 1'
_cell_length_a   7.31248600
_cell_length_b   7.90035778
_cell_length_c   10.57317980
_cell_angle_alpha   81.84616253
_cell_angle_beta   72.28899984
_cell_angle_gamma   62.68332168
_symmetry_Int_Tables_number   1
_chemical_formula_structural   K2PtC2Cl2O5
_chemical_formula_sum   'K4 Pt2 C4 Cl4 O10'
_cell_volume   516.98431853
_cell_formula_units_Z   2
loop_
 _symmetry_equiv_pos_site_id
 _symmetry_equiv_pos_as_xyz
  1  'x, y, z'
loop_
 _atom_site_type_symbol
 _atom_site_label
 _atom_site_symmetry_multiplicity
 _atom_site_fract_x
 _atom_site_fract_y
 _atom_site_fract_z
 _atom_site_occupancy
  K  K0  1  0.75185300  0.25437800  0.50003800  1
  K  K1  1  0.24814700  0.74562200  0.49996200  1
  K  K2  1  0.44963100  0.75742900  0.07503200  1
  K  K3  1  0.55036900  0.24257100  0.92496800  1
  Pt  Pt0  1  0.76456600  0.75377600  0.45792500  1
  Pt  Pt1  1  0.23543400  0.24622400  0.54207500  1
  C  C0  1  0.61748800  0.66130600  0.72649400  1
  C  C1  1  0.38251200  0.33869400  0.27350600  1
  C  C2  1  0.68461000  0.82027400  0.72992700  1
  C  C3  1  0.31539000  0.17972600  0.27007300  1
  Cl  Cl0  1  0.73207100  0.61093800  0.29573800  1
  Cl  Cl1  1  0.26792900  0.38906200  0.70426200  1
  Cl  Cl2  1  0.92725500  0.91392800  0.30531900  1
  Cl  Cl3  1  0.07274500  0.08607200  0.69468100  1
  O  O0  1  0.62924800  0.61678500  0.60870800  1
  O  O1  1  0.37075200  0.38321500  0.39129200  1
  O  O2  1  0.77478700  0.87276200  0.61460200  1
  O  O3  1  0.22521300  0.12723800  0.38539800  1
  O  O4  1  0.55678800  0.58509500  0.83088100  1
  O  O5  1  0.44321200  0.41490500  0.16911900  1
  O  O6  1  0.65198000  0.88962300  0.83728500  1
  O  O7  1  0.34802000  0.11037700  0.16271500  1
  O  O8  1  0.00443700  0.07687800  0.99726000  1
  O  O9  1  0.99556300  0.92312200  0.00274000  1
loop_
_geom_bond_atom_site_label_1
_geom_bond_atom_site_label_2
_geom_bond_distance
_geom_bond_site_symmetry_2
K0 O0 2.876108 1_555
K0 O3 3.010179 1_655
K0 O1 3.022982 1_555
K0 O2 3.034573 1_545
K1 O1 2.876108 1_555
K1 O2 3.010179 1_455
K1 O0 3.022982 1_555
K1 O3 3.034573 1_565
K2 O7 2.756705 1_565
K2 O5 2.763902 1_555
K2 O4 2.814011 1_554
K2 O6 2.830129 1_554
K2 O9 3.254799 1_455
K2 O8 3.338101 1_564
K3 O6 2.756705 1_545
K3 O4 2.763902 1_555
K3 O5 2.814011 1_556
K3 O7 2.830129 1_556
K3 O8 3.254799 1_655
K3 O9 3.338101 1_546
C0 O4 1.239520 1_555
C0 O0 1.308968 1_555
C1 O5 1.239520 1_555
C1 O1 1.308968 1_555
C2 O6 1.239851 1_555
C2 O2 1.308407 1_555
C3 O7 1.239851 1_555
C3 O3 1.308407 1_555
Cl0 Pt0 2.305107 1_555
Cl0 K0 3.272955 1_555
Cl0 K1 3.296036 1_555
Cl0 K2 3.320095 1_555
Cl1 Pt1 2.305107 1_555
Cl1 K1 3.272955 1_555
Cl1 K0 3.296036 1_555
Cl1 K3 3.320095 1_555
Cl2 Pt0 2.292193 1_555
Cl2 K0 3.148958 1_565
Cl2 K1 3.287522 1_655
Cl2 K2 3.592898 1_655
Cl3 Pt1 2.292193 1_555
Cl3 K1 3.148958 1_545
Cl3 K0 3.287522 1_455
Cl3 K3 3.592898 1_455
O0 Pt0 2.055666 1_555
O1 Pt1 2.055666 1_555
O2 Pt0 2.053054 1_555
O3 Pt1 2.053054 1_555
O8 O9 1.238235 1_446
