# generated using pymatgen
data_MgSn2O5
_symmetry_space_group_name_H-M   'P 1'
_cell_length_a   5.19845600
_cell_length_b   3.41917400
_cell_length_c   13.11878655
_cell_angle_alpha   75.58922540
_cell_angle_beta   90.00000000
_cell_angle_gamma   90.00000000
_symmetry_Int_Tables_number   1
_chemical_formula_structural   MgSn2O5
_chemical_formula_sum   'Mg2 Sn4 O10'
_cell_volume   225.84224265
_cell_formula_units_Z   2
loop_
 _symmetry_equiv_pos_site_id
 _symmetry_equiv_pos_as_xyz
  1  'x, y, z'
loop_
 _atom_site_type_symbol
 _atom_site_label
 _atom_site_symmetry_multiplicity
 _atom_site_fract_x
 _atom_site_fract_y
 _atom_site_fract_z
 _atom_site_occupancy
  Mg  Mg0  1  0.89581500  0.00000000  0.25000000  1
  Mg  Mg1  1  0.10418500  0.00000000  0.75000000  1
  Sn  Sn0  1  0.39949700  0.65072000  0.10602000  1
  Sn  Sn1  1  0.60050300  0.34928000  0.89398000  1
  Sn  Sn2  1  0.60050300  0.65072000  0.60602000  1
  Sn  Sn3  1  0.39949700  0.34928000  0.39398000  1
  O  O0  1  0.41152000  0.50000000  0.75000000  1
  O  O1  1  0.58848000  0.50000000  0.25000000  1
  O  O2  1  0.59073600  0.18598300  0.06794100  1
  O  O3  1  0.40926400  0.81401700  0.93205900  1
  O  O4  1  0.59073600  0.81401700  0.43205900  1
  O  O5  1  0.40926400  0.18598300  0.56794100  1
  O  O6  1  0.03902500  0.38213100  0.35404400  1
  O  O7  1  0.96097500  0.61786900  0.64595600  1
  O  O8  1  0.96097500  0.38213100  0.85404400  1
  O  O9  1  0.03902500  0.61786900  0.14595600  1
loop_
_geom_bond_atom_site_label_1
_geom_bond_atom_site_label_2
_geom_bond_distance
_geom_bond_site_symmetry_2
Mg0 O9 2.238766 1_645
Mg0 O6 2.238766 1_655
Mg0 O9 2.333471 1_655
Mg0 O6 2.333471 1_645
Mg0 O1 2.339921 1_555
Mg0 O1 2.339921 1_545
Mg1 O7 2.238766 1_445
Mg1 O8 2.238766 1_455
Mg1 O8 2.333471 1_445
Mg1 O7 2.333471 1_455
Mg1 O0 2.339921 1_545
Mg1 O0 2.339921 1_555
O0 Sn2 2.077005 1_555
O0 Sn1 2.077005 1_555
O1 Sn3 2.077005 1_555
O1 Sn0 2.077005 1_555
O2 Sn0 2.032804 1_545
O2 Sn0 2.039108 1_555
O2 Sn1 2.210956 1_554
O3 Sn1 2.032804 1_565
O3 Sn1 2.039108 1_555
O3 Sn0 2.210956 1_556
O4 Sn3 2.032804 1_565
O4 Sn3 2.039108 1_555
O4 Sn2 2.210956 1_555
O5 Sn2 2.032804 1_545
O5 Sn2 2.039108 1_555
O5 Sn3 2.210956 1_555
O6 Sn3 1.941469 1_555
O7 Sn2 1.941469 1_555
O8 Sn1 1.941469 1_555
O9 Sn0 1.941469 1_555
