# generated using pymatgen
data_Li2Zn(Cl2O)2
_symmetry_space_group_name_H-M   'P 1'
_cell_length_a   6.43845000
_cell_length_b   11.00127500
_cell_length_c   10.62992100
_cell_angle_alpha   90.00000000
_cell_angle_beta   90.00000000
_cell_angle_gamma   90.00000000
_symmetry_Int_Tables_number   1
_chemical_formula_structural   Li2Zn(Cl2O)2
_chemical_formula_sum   'Li8 Zn4 Cl16 O8'
_cell_volume   752.92962476
_cell_formula_units_Z   4
loop_
 _symmetry_equiv_pos_site_id
 _symmetry_equiv_pos_as_xyz
  1  'x, y, z'
loop_
 _atom_site_type_symbol
 _atom_site_label
 _atom_site_symmetry_multiplicity
 _atom_site_fract_x
 _atom_site_fract_y
 _atom_site_fract_z
 _atom_site_occupancy
  Li  Li0  1  0.28356000  0.63387500  0.82027500  1
  Li  Li1  1  0.78356000  0.86612500  0.17972500  1
  Li  Li2  1  0.71644000  0.13387500  0.67972500  1
  Li  Li3  1  0.21644000  0.36612500  0.32027500  1
  Li  Li4  1  0.79035100  0.81302100  0.75932600  1
  Li  Li5  1  0.29035100  0.68697900  0.24067400  1
  Li  Li6  1  0.20964900  0.31302100  0.74067400  1
  Li  Li7  1  0.70964900  0.18697900  0.25932600  1
  Zn  Zn0  1  0.28652900  0.95732600  0.54978600  1
  Zn  Zn1  1  0.78652900  0.54267400  0.45021500  1
  Zn  Zn2  1  0.71347100  0.45732600  0.95021400  1
  Zn  Zn3  1  0.21347100  0.04267400  0.04978600  1
  Cl  Cl0  1  0.90772700  0.95081000  0.53022500  1
  Cl  Cl1  1  0.40772700  0.54919000  0.46977500  1
  Cl  Cl2  1  0.09227300  0.45081000  0.96977500  1
  Cl  Cl3  1  0.59227300  0.04919000  0.03022500  1
  Cl  Cl4  1  0.36471500  0.83982000  0.71820200  1
  Cl  Cl5  1  0.86471500  0.66018000  0.28179800  1
  Cl  Cl6  1  0.63528500  0.33982000  0.78179800  1
  Cl  Cl7  1  0.13528500  0.16018000  0.21820200  1
  Cl  Cl8  1  0.82794300  0.62437300  0.64179000  1
  Cl  Cl9  1  0.32794300  0.87562700  0.35821000  1
  Cl  Cl10  1  0.17205800  0.12437300  0.85821000  1
  Cl  Cl11  1  0.67205700  0.37562700  0.14179000  1
  Cl  Cl12  1  0.60038700  0.65459900  0.94678100  1
  Cl  Cl13  1  0.10038700  0.84540100  0.05321900  1
  Cl  Cl14  1  0.39961300  0.15459900  0.55321900  1
  Cl  Cl15  1  0.89961300  0.34540100  0.44678100  1
  O  O0  1  0.78880700  0.96486900  0.66738900  1
  O  O1  1  0.28880700  0.53513100  0.33261100  1
  O  O2  1  0.21119300  0.46486900  0.83261100  1
  O  O3  1  0.71119300  0.03513100  0.16738900  1
  O  O4  1  0.05199500  0.74868600  0.83158900  1
  O  O5  1  0.55199500  0.75131400  0.16841100  1
  O  O6  1  0.94800500  0.24868600  0.66841100  1
  O  O7  1  0.44800500  0.25131400  0.33158900  1
loop_
_geom_bond_atom_site_label_1
_geom_bond_atom_site_label_2
_geom_bond_distance
_geom_bond_site_symmetry_2
Li0 O2 1.921253 1_555
Li0 O4 1.957714 1_555
Li1 O3 1.921253 1_565
Li1 O5 1.957714 1_555
Li2 O0 1.921253 1_545
Li2 O6 1.957714 1_555
Li3 O1 1.921253 1_555
Li3 O7 1.957714 1_555
Li4 O0 1.935413 1_555
Li4 O4 1.982121 1_655
Li5 O1 1.935413 1_555
Li5 O5 1.982121 1_555
Li6 O2 1.935413 1_555
Li6 O6 1.982121 1_455
Li7 O3 1.935413 1_555
Li7 O7 1.982121 1_555
Cl0 O0 1.654100 1_555
Cl0 Zn0 2.448795 1_655
Cl1 O1 1.654100 1_555
Cl1 Zn1 2.448794 1_555
Cl2 O2 1.654100 1_555
Cl2 Zn2 2.448795 1_455
Cl3 O3 1.654100 1_555
Cl3 Zn3 2.448795 1_555
Cl4 Zn0 2.264843 1_555
Cl4 Li0 2.565835 1_555
Cl4 Li4 2.790700 1_555
Cl5 Zn1 2.264851 1_555
Cl5 Li1 2.565835 1_555
Cl5 Li5 2.790700 1_655
Cl6 Zn2 2.264843 1_555
Cl6 Li2 2.565835 1_555
Cl6 Li6 2.790700 1_555
Cl7 Zn3 2.264843 1_555
Cl7 Li3 2.565835 1_555
Cl7 Li7 2.790700 1_455
Cl8 Zn1 2.241866 1_555
Cl8 Li4 2.434488 1_555
Cl9 Zn0 2.241876 1_555
Cl9 Li5 2.434488 1_555
Cl10 Zn3 2.241875 1_556
Cl10 Li6 2.434487 1_555
Cl11 Zn2 2.241876 1_554
Cl11 Li7 2.434488 1_555
Cl12 Zn2 2.289420 1_555
Cl12 Li0 2.453858 1_555
Cl12 Li4 2.916161 1_555
Cl13 Zn3 2.289420 1_565
Cl13 Li1 2.453858 1_455
Cl13 Li5 2.916161 1_555
Cl14 Zn0 2.289420 1_545
Cl14 Li2 2.453858 1_555
Cl14 Li6 2.916161 1_555
Cl15 Zn1 2.289420 1_555
Cl15 Li3 2.453858 1_655
Cl15 Li7 2.916161 1_555
