# generated using pymatgen
data_Sr2EuTa(CuO4)2
_symmetry_space_group_name_H-M   'P 1'
_cell_length_a   3.93116348
_cell_length_b   3.93116348
_cell_length_c   11.79691300
_cell_angle_alpha   90.00000000
_cell_angle_beta   90.00000000
_cell_angle_gamma   90.19076256
_symmetry_Int_Tables_number   1
_chemical_formula_structural   Sr2EuTa(CuO4)2
_chemical_formula_sum   'Sr2 Eu1 Ta1 Cu2 O8'
_cell_volume   182.30902893
_cell_formula_units_Z   1
loop_
 _symmetry_equiv_pos_site_id
 _symmetry_equiv_pos_as_xyz
  1  'x, y, z'
loop_
 _atom_site_type_symbol
 _atom_site_label
 _atom_site_symmetry_multiplicity
 _atom_site_fract_x
 _atom_site_fract_y
 _atom_site_fract_z
 _atom_site_occupancy
  Sr  Sr0  1  0.49948900  0.49948900  0.79896600  1
  Sr  Sr1  1  0.49948900  0.49948900  0.20103400  1
  Eu  Eu0  1  0.50034100  0.50034100  0.50000000  1
  Ta  Ta0  1  0.01893700  0.01893700  0.00000000  1
  Cu  Cu0  1  0.00047500  0.00047500  0.64397000  1
  Cu  Cu1  1  0.00047500  0.00047500  0.35603000  1
  O  O0  1  0.01496400  0.01496400  0.83210000  1
  O  O1  1  0.01496400  0.01496400  0.16790000  1
  O  O2  1  0.00024300  0.50099500  0.63205300  1
  O  O3  1  0.50099500  0.00024300  0.63205300  1
  O  O4  1  0.00024300  0.50099500  0.36794700  1
  O  O5  1  0.50099500  0.00024300  0.36794700  1
  O  O6  1  0.52556200  0.05082600  0.00000000  1
  O  O7  1  0.05082600  0.52556200  0.00000000  1
loop_
_geom_bond_atom_site_label_1
_geom_bond_atom_site_label_2
_geom_bond_distance
_geom_bond_site_symmetry_2
Eu0 O5 2.507741 1_565
Eu0 O2 2.507741 1_655
Eu0 O4 2.507741 1_655
Eu0 O3 2.507741 1_565
Eu0 O4 2.508359 1_555
Eu0 O5 2.508359 1_555
Eu0 O2 2.508359 1_555
Eu0 O3 2.508359 1_555
Cu0 O2 1.968561 1_545
Cu0 O3 1.968561 1_455
Cu0 O2 1.972645 1_555
Cu0 O3 1.972645 1_555
Cu0 O0 2.220810 1_555
Cu1 O5 1.968561 1_455
Cu1 O4 1.968561 1_545
Cu1 O4 1.972645 1_555
Cu1 O5 1.972645 1_555
Cu1 O1 2.220810 1_555
O0 Ta0 1.980824 1_556
O0 Sr0 2.717490 1_555
O0 Sr0 2.812990 1_545
O0 Sr0 2.812990 1_455
O0 Sr0 2.887589 1_445
O1 Ta0 1.980824 1_555
O1 Sr1 2.717490 1_555
O1 Sr1 2.812990 1_455
O1 Sr1 2.812990 1_545
O1 Sr1 2.887589 1_445
O2 Sr0 2.780139 1_555
O2 Sr0 2.784299 1_455
O3 Sr0 2.780139 1_555
O3 Sr0 2.784299 1_545
O4 Sr1 2.780139 1_555
O4 Sr1 2.784299 1_455
O5 Sr1 2.780139 1_555
O5 Sr1 2.784299 1_545
O6 Ta0 1.944001 1_655
O6 Ta0 1.995151 1_555
O6 Sr1 2.957529 1_555
O6 Sr0 2.957529 1_554
O6 Sr0 3.214191 1_544
O6 Sr1 3.214191 1_545
O7 Ta0 1.944001 1_565
O7 Ta0 1.995151 1_555
O7 Sr0 2.957529 1_554
O7 Sr1 2.957529 1_555
O7 Sr1 3.214191 1_455
O7 Sr0 3.214191 1_454
