# generated using pymatgen
data_La4Co2Sn5
_symmetry_space_group_name_H-M   'P 1'
_cell_length_a   7.53410012
_cell_length_b   7.53410012
_cell_length_c   11.15807953
_cell_angle_alpha   53.95774717
_cell_angle_beta   53.95774717
_cell_angle_gamma   35.89200392
_symmetry_Int_Tables_number   1
_chemical_formula_structural   La4Co2Sn5
_chemical_formula_sum   'La4 Co2 Sn5'
_cell_volume   291.78151113
_cell_formula_units_Z   1
loop_
 _symmetry_equiv_pos_site_id
 _symmetry_equiv_pos_as_xyz
  1  'x, y, z'
loop_
 _atom_site_type_symbol
 _atom_site_label
 _atom_site_symmetry_multiplicity
 _atom_site_fract_x
 _atom_site_fract_y
 _atom_site_fract_z
 _atom_site_occupancy
  La  La0  1  0.93745000  0.93745000  0.72229300  1
  La  La1  1  0.06255000  0.06255000  0.27770700  1
  La  La2  1  0.33150000  0.33150000  0.28421100  1
  La  La3  1  0.66850000  0.66850000  0.71578900  1
  Co  Co0  1  0.77283500  0.77283500  0.14066000  1
  Co  Co1  1  0.22716500  0.22716500  0.85934000  1
  Sn  Sn0  1  0.65361600  0.65361600  0.02213200  1
  Sn  Sn1  1  0.34638400  0.34638400  0.97786800  1
  Sn  Sn2  1  0.62667100  0.62667100  0.44203200  1
  Sn  Sn3  1  0.37332900  0.37332900  0.55796800  1
  Sn  Sn4  1  0.00000000  0.00000000  0.00000000  1
loop_
_geom_bond_atom_site_label_1
_geom_bond_atom_site_label_2
_geom_bond_distance
_geom_bond_site_symmetry_2
La0 Sn1 3.258930 1_565
La0 Sn1 3.258930 1_655
La0 Sn0 3.303054 1_556
La0 Sn3 3.417668 1_655
La0 Sn3 3.417668 1_565
La0 Sn2 3.468933 1_655
La0 Sn2 3.468933 1_565
La0 Sn4 3.720564 1_666
La1 Sn0 3.258930 1_455
La1 Sn0 3.258930 1_545
La1 Sn1 3.303054 1_554
La1 Sn2 3.417668 1_455
La1 Sn2 3.417668 1_545
La1 Sn3 3.468933 1_545
La1 Sn3 3.468933 1_455
La1 Sn4 3.720564 1_555
La2 Sn2 3.273484 1_545
La2 Sn2 3.273484 1_455
La2 Sn1 3.290514 1_554
La2 Sn4 3.435869 1_565
La2 Sn4 3.435869 1_655
La2 Sn3 3.457707 1_555
La2 Sn0 3.629158 1_555
La3 Sn3 3.273484 1_655
La3 Sn3 3.273484 1_565
La3 Sn0 3.290514 1_556
La3 Sn4 3.435869 1_656
La3 Sn4 3.435869 1_566
La3 Sn2 3.457707 1_555
La3 Sn1 3.629158 1_555
Co0 Sn4 2.597248 1_665
Co0 Sn2 2.642504 1_555
Co0 Sn1 2.726009 1_654
Co0 Sn1 2.726009 1_564
Co0 Sn0 2.732336 1_555
Co0 La2 3.213718 1_565
Co0 La2 3.213718 1_655
Co0 La1 3.333528 1_565
Co0 La1 3.333528 1_655
Co1 Sn4 2.597248 1_556
Co1 Sn3 2.642504 1_555
Co1 Sn0 2.726009 1_546
Co1 Sn0 2.726009 1_456
Co1 Sn1 2.732336 1_555
Co1 La3 3.213718 1_545
Co1 La3 3.213718 1_455
Co1 La0 3.333528 1_455
Co1 La0 3.333528 1_545
Sn0 Sn4 3.312377 1_655
Sn0 Sn4 3.312377 1_565
Sn1 Sn4 3.312377 1_656
Sn1 Sn4 3.312377 1_566
Sn2 Sn3 3.008550 1_555
