# generated using pymatgen
data_DyB2Ir3
_symmetry_space_group_name_H-M   'P 1'
_cell_length_a   6.30025786
_cell_length_b   10.86190171
_cell_length_c   10.86190171
_cell_angle_alpha   119.99754718
_cell_angle_beta   90.00085370
_cell_angle_gamma   90.00085370
_symmetry_Int_Tables_number   1
_chemical_formula_structural   DyB2Ir3
_chemical_formula_sum   'Dy8 B16 Ir24'
_cell_volume   643.74137961
_cell_formula_units_Z   8
loop_
 _symmetry_equiv_pos_site_id
 _symmetry_equiv_pos_as_xyz
  1  'x, y, z'
loop_
 _atom_site_type_symbol
 _atom_site_label
 _atom_site_symmetry_multiplicity
 _atom_site_fract_x
 _atom_site_fract_y
 _atom_site_fract_z
 _atom_site_occupancy
  Dy  Dy0_0  1  0.25000000  0.25000000  0.25000000  1
  Dy  Dy0_1  1  0.25000000  0.25000000  0.75000000  1
  Dy  Dy0_2  1  0.25000000  0.75000000  0.25000000  1
  Dy  Dy0_3  1  0.25000000  0.75000000  0.75000000  1
  Dy  Dy0_4  1  0.75000000  0.25000000  0.25000000  1
  Dy  Dy0_5  1  0.75000000  0.25000000  0.75000000  1
  Dy  Dy0_6  1  0.75000000  0.75000000  0.25000000  1
  Dy  Dy0_7  1  0.75000000  0.75000000  0.75000000  1
  B  B0_0  1  0.25000000  0.41666645  0.08333355  1
  B  B0_1  1  0.25000000  0.41666645  0.58333355  1
  B  B0_2  1  0.25000000  0.91666645  0.08333355  1
  B  B0_3  1  0.25000000  0.91666645  0.58333355  1
  B  B0_4  1  0.75000000  0.41666645  0.08333355  1
  B  B0_5  1  0.75000000  0.41666645  0.58333355  1
  B  B0_6  1  0.75000000  0.91666645  0.08333355  1
  B  B0_7  1  0.75000000  0.91666645  0.58333355  1
  B  B1_0  1  0.25000000  0.08333355  0.41666645  1
  B  B1_1  1  0.25000000  0.08333355  0.91666645  1
  B  B1_2  1  0.25000000  0.58333355  0.41666645  1
  B  B1_3  1  0.25000000  0.58333355  0.91666645  1
  B  B1_4  1  0.75000000  0.08333355  0.41666645  1
  B  B1_5  1  0.75000000  0.08333355  0.91666645  1
  B  B1_6  1  0.75000000  0.58333355  0.41666645  1
  B  B1_7  1  0.75000000  0.58333355  0.91666645  1
  Ir  Ir0_0  1  0.00000000  0.25000000  0.00000000  1
  Ir  Ir0_1  1  0.00000000  0.25000000  0.50000000  1
  Ir  Ir0_2  1  0.00000000  0.75000000  0.00000000  1
  Ir  Ir0_3  1  0.00000000  0.75000000  0.50000000  1
  Ir  Ir0_4  1  0.50000000  0.25000000  0.00000000  1
  Ir  Ir0_5  1  0.50000000  0.25000000  0.50000000  1
  Ir  Ir0_6  1  0.50000000  0.75000000  0.00000000  1
  Ir  Ir0_7  1  0.50000000  0.75000000  0.50000000  1
  Ir  Ir1_0  1  0.00000000  0.00000000  0.25000000  1
  Ir  Ir1_1  1  0.00000000  0.00000000  0.75000000  1
  Ir  Ir1_2  1  0.00000000  0.50000000  0.25000000  1
  Ir  Ir1_3  1  0.00000000  0.50000000  0.75000000  1
  Ir  Ir1_4  1  0.50000000  0.00000000  0.25000000  1
  Ir  Ir1_5  1  0.50000000  0.00000000  0.75000000  1
  Ir  Ir1_6  1  0.50000000  0.50000000  0.25000000  1
  Ir  Ir1_7  1  0.50000000  0.50000000  0.75000000  1
  Ir  Ir2_0  1  0.00000000  0.00000000  0.00000000  1
  Ir  Ir2_1  1  0.00000000  0.00000000  0.50000000  1
  Ir  Ir2_2  1  0.00000000  0.50000000  0.00000000  1
  Ir  Ir2_3  1  0.00000000  0.50000000  0.50000000  1
  Ir  Ir2_4  1  0.50000000  0.00000000  0.00000000  1
  Ir  Ir2_5  1  0.50000000  1.00000000  0.50000000  1
  Ir  Ir2_6  1  0.50000000  0.50000000  0.00000000  1
  Ir  Ir2_7  1  0.50000000  0.50000000  0.50000000  1
loop_
_geom_bond_atom_site_label_1
_geom_bond_atom_site_label_2
_geom_bond_distance
_geom_bond_site_symmetry_2
Dy0_0 Ir0_5 3.139189 1_555
Dy0_0 Ir1_6 3.139189 1_555
Dy0_0 Ir1_0 3.139189 1_555
Dy0_0 Ir0_0 3.139189 1_555
Dy0_0 Ir0_1 3.139230 1_555
Dy0_0 Ir1_2 3.139230 1_555
Dy0_0 Ir1_4 3.139230 1_555
Dy0_0 Ir0_4 3.139230 1_555
Dy0_0 Ir2_0 3.139256 1_555
Dy0_0 Ir2_7 3.139256 1_555
Dy0_0 Ir2_3 3.139337 1_555
Dy0_0 Ir2_4 3.139337 1_555
Dy0_0 Dy0_4 3.150129 1_555
Dy0_0 Dy0_4 3.150129 1_455
Dy0_1 Ir1_1 3.139189 1_555
Dy0_1 Ir0_4 3.139189 1_556
Dy0_1 Ir1_7 3.139189 1_555
Dy0_1 Ir0_1 3.139189 1_555
Dy0_1 Ir0_0 3.139230 1_556
Dy0_1 Ir1_5 3.139230 1_555
Dy0_1 Ir1_3 3.139230 1_555
Dy0_1 Ir0_5 3.139230 1_555
Dy0_1 Ir2_6 3.139256 1_556
Dy0_1 Ir2_1 3.139256 1_555
Dy0_1 Ir2_2 3.139337 1_556
Dy0_1 Ir2_5 3.139337 1_545
Dy0_1 Dy0_5 3.150129 1_555
Dy0_1 Dy0_5 3.150129 1_455
Dy0_2 Ir1_4 3.139189 1_565
Dy0_2 Ir0_2 3.139189 1_555
Dy0_2 Ir1_2 3.139189 1_555
Dy0_2 Ir0_7 3.139189 1_555
Dy0_2 Ir1_6 3.139230 1_555
Dy0_2 Ir0_3 3.139230 1_555
Dy0_2 Ir0_6 3.139230 1_555
Dy0_2 Ir1_0 3.139230 1_565
Dy0_2 Ir2_5 3.139256 1_555
Dy0_2 Ir2_2 3.139256 1_555
Dy0_2 Ir2_1 3.139337 1_565
Dy0_2 Ir2_6 3.139337 1_555
Dy0_2 Dy0_6 3.150129 1_555
Dy0_2 Dy0_6 3.150129 1_455
Dy0_3 Ir0_6 3.139189 1_556
Dy0_3 Ir1_5 3.139189 1_565
Dy0_3 Ir0_3 3.139189 1_555
Dy0_3 Ir1_3 3.139189 1_555
Dy0_3 Ir0_2 3.139230 1_556
Dy0_3 Ir1_7 3.139230 1_555
Dy0_3 Ir1_1 3.139230 1_565
Dy0_3 Ir0_7 3.139230 1_555
Dy0_3 Ir2_4 3.139256 1_566
Dy0_3 Ir2_3 3.139256 1_555
Dy0_3 Ir2_0 3.139337 1_566
Dy0_3 Ir2_7 3.139337 1_555
Dy0_3 Dy0_7 3.150129 1_555
Dy0_3 Dy0_7 3.150129 1_455
Dy0_4 Ir1_4 3.139189 1_555
Dy0_4 Ir0_4 3.139189 1_555
Dy0_4 Ir0_1 3.139189 1_655
Dy0_4 Ir1_2 3.139189 1_655
Dy0_4 Ir0_5 3.139230 1_555
Dy0_4 Ir1_0 3.139230 1_655
Dy0_4 Ir1_6 3.139230 1_555
Dy0_4 Ir0_0 3.139230 1_655
Dy0_4 Ir2_4 3.139256 1_555
Dy0_4 Ir2_3 3.139256 1_655
Dy0_4 Ir2_0 3.139337 1_655
Dy0_4 Ir2_7 3.139337 1_555
Dy0_5 Ir0_0 3.139189 1_656
Dy0_5 Ir1_5 3.139189 1_555
Dy0_5 Ir1_3 3.139189 1_655
Dy0_5 Ir0_5 3.139189 1_555
Dy0_5 Ir1_1 3.139230 1_655
Dy0_5 Ir0_4 3.139230 1_556
Dy0_5 Ir0_1 3.139230 1_655
Dy0_5 Ir1_7 3.139230 1_555
Dy0_5 Ir2_5 3.139256 1_545
Dy0_5 Ir2_2 3.139256 1_656
Dy0_5 Ir2_1 3.139337 1_655
Dy0_5 Ir2_6 3.139337 1_556
Dy0_6 Ir1_6 3.139189 1_555
Dy0_6 Ir0_6 3.139189 1_555
Dy0_6 Ir0_3 3.139189 1_655
Dy0_6 Ir1_0 3.139189 1_665
Dy0_6 Ir1_2 3.139230 1_655
Dy0_6 Ir0_2 3.139230 1_655
Dy0_6 Ir0_7 3.139230 1_555
Dy0_6 Ir1_4 3.139230 1_565
Dy0_6 Ir2_6 3.139256 1_555
Dy0_6 Ir2_1 3.139256 1_665
Dy0_6 Ir2_2 3.139337 1_655
Dy0_6 Ir2_5 3.139337 1_555
Dy0_7 Ir0_2 3.139189 1_656
Dy0_7 Ir1_7 3.139189 1_555
Dy0_7 Ir0_7 3.139189 1_555
Dy0_7 Ir1_1 3.139189 1_665
Dy0_7 Ir0_6 3.139230 1_556
Dy0_7 Ir1_5 3.139230 1_565
Dy0_7 Ir1_3 3.139230 1_655
Dy0_7 Ir0_3 3.139230 1_655
Dy0_7 Ir2_7 3.139256 1_555
Dy0_7 Ir2_0 3.139256 1_666
Dy0_7 Ir2_4 3.139337 1_566
Dy0_7 Ir2_3 3.139337 1_655
B0_0 Ir2_2 2.222322 1_555
B0_0 Ir2_6 2.222322 1_555
B0_0 Ir1_6 2.222330 1_555
B0_0 Ir0_0 2.222330 1_555
B0_0 Ir1_2 2.222388 1_555
B0_0 Ir0_4 2.222388 1_555
B0_0 Dy0_0 3.135518 1_555
B0_0 Dy0_1 3.135640 1_554
B0_0 Dy0_2 3.135640 1_555
B0_1 Ir2_3 2.222322 1_555
B0_1 Ir2_7 2.222322 1_555
B0_1 Ir1_7 2.222330 1_555
B0_1 Ir0_1 2.222330 1_555
B0_1 Ir1_3 2.222388 1_555
B0_1 Ir0_5 2.222388 1_555
B0_1 Dy0_1 3.135518 1_555
B0_1 Dy0_3 3.135640 1_555
B0_1 Dy0_0 3.135640 1_555
B0_2 Ir2_0 2.222322 1_565
B0_2 Ir2_4 2.222322 1_565
B0_2 Ir1_4 2.222330 1_565
B0_2 Ir0_2 2.222330 1_555
B0_2 Ir1_0 2.222388 1_565
B0_2 Ir0_6 2.222388 1_555
B0_2 Dy0_2 3.135518 1_555
B0_2 Dy0_0 3.135640 1_565
B0_2 Dy0_3 3.135640 1_554
B0_3 Ir2_5 2.222322 1_555
B0_3 Ir2_1 2.222322 1_565
B0_3 Ir1_5 2.222330 1_565
B0_3 Ir0_3 2.222330 1_555
B0_3 Ir1_1 2.222388 1_565
B0_3 Ir0_7 2.222388 1_555
B0_3 Dy0_3 3.135518 1_555
B0_3 Dy0_1 3.135640 1_565
B0_3 Dy0_2 3.135640 1_555
B0_4 Ir2_6 2.222322 1_555
B0_4 Ir2_2 2.222322 1_655
B0_4 Ir0_4 2.222330 1_555
B0_4 Ir1_2 2.222330 1_655
B0_4 Ir1_6 2.222388 1_555
B0_4 Ir0_0 2.222388 1_655
B0_4 Dy0_4 3.135518 1_555
B0_4 Dy0_6 3.135640 1_555
B0_4 Dy0_5 3.135640 1_554
B0_5 Ir2_3 2.222322 1_655
B0_5 Ir2_7 2.222322 1_555
B0_5 Ir1_3 2.222330 1_655
B0_5 Ir0_5 2.222330 1_555
B0_5 Ir1_7 2.222388 1_555
B0_5 Ir0_1 2.222388 1_655
B0_5 Dy0_5 3.135518 1_555
B0_5 Dy0_7 3.135640 1_555
B0_5 Dy0_4 3.135640 1_555
B0_6 Ir2_0 2.222322 1_665
B0_6 Ir2_4 2.222322 1_565
B0_6 Ir1_0 2.222330 1_665
B0_6 Ir0_6 2.222330 1_555
B0_6 Ir1_4 2.222388 1_565
B0_6 Ir0_2 2.222388 1_655
B0_6 Dy0_6 3.135518 1_555
B0_6 Dy0_7 3.135640 1_554
B0_6 Dy0_4 3.135640 1_565
B0_7 Ir2_5 2.222322 1_555
B0_7 Ir2_1 2.222322 1_665
B0_7 Ir1_1 2.222330 1_665
B0_7 Ir0_7 2.222330 1_555
B0_7 Ir1_5 2.222388 1_565
B0_7 Ir0_3 2.222388 1_655
B0_7 Dy0_7 3.135518 1_555
B0_7 Dy0_5 3.135640 1_565
B0_7 Dy0_6 3.135640 1_555
B1_0 Ir2_1 2.222322 1_555
B1_0 Ir2_5 2.222322 1_545
B1_0 Ir0_5 2.222330 1_555
B1_0 Ir1_0 2.222330 1_555
B1_0 Ir1_4 2.222388 1_555
B1_0 Ir0_1 2.222388 1_555
B1_0 Dy0_0 3.135518 1_555
B1_0 Dy0_1 3.135640 1_555
B1_0 Dy0_2 3.135640 1_545
B1_1 Ir2_4 2.222322 1_556
B1_1 Ir2_0 2.222322 1_556
B1_1 Ir0_4 2.222330 1_556
B1_1 Ir1_1 2.222330 1_555
B1_1 Ir0_0 2.222388 1_556
B1_1 Ir1_5 2.222388 1_555
B1_1 Dy0_1 3.135518 1_555
B1_1 Dy0_0 3.135640 1_556
B1_1 Dy0_3 3.135640 1_545
B1_2 Ir2_7 2.222322 1_555
B1_2 Ir2_3 2.222322 1_555
B1_2 Ir0_7 2.222330 1_555
B1_2 Ir1_2 2.222330 1_555
B1_2 Ir0_3 2.222388 1_555
B1_2 Ir1_6 2.222388 1_555
B1_2 Dy0_2 3.135518 1_555
B1_2 Dy0_0 3.135640 1_555
B1_2 Dy0_3 3.135640 1_555
B1_3 Ir2_2 2.222322 1_556
B1_3 Ir2_6 2.222322 1_556
B1_3 Ir0_6 2.222330 1_556
B1_3 Ir1_3 2.222330 1_555
B1_3 Ir0_2 2.222388 1_556
B1_3 Ir1_7 2.222388 1_555
B1_3 Dy0_3 3.135518 1_555
B1_3 Dy0_2 3.135640 1_556
B1_3 Dy0_1 3.135640 1_555
B1_4 Ir2_5 2.222322 1_545
B1_4 Ir2_1 2.222322 1_655
B1_4 Ir1_4 2.222330 1_555
B1_4 Ir0_1 2.222330 1_655
B1_4 Ir0_5 2.222388 1_555
B1_4 Ir1_0 2.222388 1_655
B1_4 Dy0_4 3.135518 1_555
B1_4 Dy0_5 3.135640 1_555
B1_4 Dy0_6 3.135640 1_545
B1_5 Ir2_0 2.222322 1_656
B1_5 Ir2_4 2.222322 1_556
B1_5 Ir0_0 2.222330 1_656
B1_5 Ir1_5 2.222330 1_555
B1_5 Ir0_4 2.222388 1_556
B1_5 Ir1_1 2.222388 1_655
B1_5 Dy0_5 3.135518 1_555
B1_5 Dy0_4 3.135640 1_556
B1_5 Dy0_7 3.135640 1_545
B1_6 Ir2_7 2.222322 1_555
B1_6 Ir2_3 2.222322 1_655
B1_6 Ir0_3 2.222330 1_655
B1_6 Ir1_6 2.222330 1_555
B1_6 Ir0_7 2.222388 1_555
B1_6 Ir1_2 2.222388 1_655
B1_6 Dy0_6 3.135518 1_555
B1_6 Dy0_7 3.135640 1_555
B1_6 Dy0_4 3.135640 1_555
B1_7 Ir2_6 2.222322 1_556
B1_7 Ir2_2 2.222322 1_656
B1_7 Ir0_2 2.222330 1_656
B1_7 Ir1_7 2.222330 1_555
B1_7 Ir0_6 2.222388 1_556
B1_7 Ir1_3 2.222388 1_655
B1_7 Dy0_7 3.135518 1_555
B1_7 Dy0_6 3.135640 1_556
B1_7 Dy0_5 3.135640 1_555
