# generated using pymatgen
data_Mg2Ga
_symmetry_space_group_name_H-M   'P 1'
_cell_length_a   15.96813353
_cell_length_b   15.96813353
_cell_length_c   9.52026200
_cell_angle_alpha   90.00000000
_cell_angle_beta   90.00000000
_cell_angle_gamma   155.90431978
_symmetry_Int_Tables_number   1
_chemical_formula_structural   Mg2Ga
_chemical_formula_sum   'Mg32 Ga16'
_cell_volume   991.05049832
_cell_formula_units_Z   16
loop_
 _symmetry_equiv_pos_site_id
 _symmetry_equiv_pos_as_xyz
  1  'x, y, z'
loop_
 _atom_site_type_symbol
 _atom_site_label
 _atom_site_symmetry_multiplicity
 _atom_site_fract_x
 _atom_site_fract_y
 _atom_site_fract_z
 _atom_site_occupancy
  Mg  Mg0_0  1  0.00082900  0.49917050  0.00000000  1
  Mg  Mg0_1  1  0.00082900  0.49917050  0.50000000  1
  Mg  Mg0_2  1  0.00082900  0.99917050  0.00000000  1
  Mg  Mg0_3  1  0.00082900  0.99917050  0.50000000  1
  Mg  Mg0_4  1  0.50082900  0.49917050  0.00000000  1
  Mg  Mg0_5  1  0.50082900  0.49917050  0.50000000  1
  Mg  Mg0_6  1  0.50082900  0.99917050  0.00000000  1
  Mg  Mg0_7  1  0.50082900  0.99917050  0.50000000  1
  Mg  Mg1_0  1  0.16404650  0.33595350  0.00000000  1
  Mg  Mg1_1  1  0.16404650  0.33595350  0.50000000  1
  Mg  Mg1_2  1  0.16404650  0.83595350  0.00000000  1
  Mg  Mg1_3  1  0.16404650  0.83595350  0.50000000  1
  Mg  Mg1_4  1  0.66404650  0.33595350  0.00000000  1
  Mg  Mg1_5  1  0.66404650  0.33595350  0.50000000  1
  Mg  Mg1_6  1  0.66404650  0.83595350  0.00000000  1
  Mg  Mg1_7  1  0.66404650  0.83595350  0.50000000  1
  Mg  Mg2_0  1  0.33218050  0.16781950  0.00000000  1
  Mg  Mg2_1  1  0.33218050  0.16781950  0.50000000  1
  Mg  Mg2_2  1  0.33218050  0.66781950  0.00000000  1
  Mg  Mg2_3  1  0.33218050  0.66781950  0.50000000  1
  Mg  Mg2_4  1  0.83218050  0.16781950  0.00000000  1
  Mg  Mg2_5  1  0.83218050  0.16781950  0.50000000  1
  Mg  Mg2_6  1  0.83218050  0.66781950  0.00000000  1
  Mg  Mg2_7  1  0.83218050  0.66781950  0.50000000  1
  Mg  Mg3_0  1  0.22359050  0.27640950  0.25000000  1
  Mg  Mg3_1  1  0.22359050  0.27640950  0.75000000  1
  Mg  Mg3_2  1  0.22359050  0.77640950  0.25000000  1
  Mg  Mg3_3  1  0.22359050  0.77640950  0.75000000  1
  Mg  Mg3_4  1  0.72359050  0.27640950  0.25000000  1
  Mg  Mg3_5  1  0.72359050  0.27640950  0.75000000  1
  Mg  Mg3_6  1  0.72359050  0.77640950  0.25000000  1
  Mg  Mg3_7  1  0.72359050  0.77640950  0.75000000  1
  Ga  Ga0_0  1  0.05727800  0.44272200  0.25000000  1
  Ga  Ga0_1  1  0.05727800  0.44272200  0.75000000  1
  Ga  Ga0_2  1  0.05727800  0.94272200  0.25000000  1
  Ga  Ga0_3  1  0.05727800  0.94272200  0.75000000  1
  Ga  Ga0_4  1  0.55727800  0.44272200  0.25000000  1
  Ga  Ga0_5  1  0.55727800  0.44272200  0.75000000  1
  Ga  Ga0_6  1  0.55727800  0.94272200  0.25000000  1
  Ga  Ga0_7  1  0.55727800  0.94272200  0.75000000  1
  Ga  Ga1_0  1  0.38874150  0.11125850  0.25000000  1
  Ga  Ga1_1  1  0.38874150  0.11125850  0.75000000  1
  Ga  Ga1_2  1  0.38874150  0.61125850  0.25000000  1
  Ga  Ga1_3  1  0.38874150  0.61125850  0.75000000  1
  Ga  Ga1_4  1  0.88874150  0.11125850  0.25000000  1
  Ga  Ga1_5  1  0.88874150  0.11125850  0.75000000  1
  Ga  Ga1_6  1  0.88874150  0.61125850  0.25000000  1
  Ga  Ga1_7  1  0.88874150  0.61125850  0.75000000  1
loop_
_geom_bond_atom_site_label_1
_geom_bond_atom_site_label_2
_geom_bond_distance
_geom_bond_site_symmetry_2
Mg0_0 Mg3_4 3.027490 1_455
Mg0_0 Mg3_5 3.027490 1_454
Mg0_0 Mg3_2 3.027492 1_555
Mg0_0 Mg3_3 3.027492 1_554
Mg0_1 Mg3_5 3.027490 1_455
Mg0_1 Mg3_4 3.027490 1_455
Mg0_1 Mg3_3 3.027492 1_555
Mg0_1 Mg3_2 3.027492 1_555
Mg0_2 Mg3_6 3.027490 1_455
Mg0_2 Mg3_7 3.027490 1_454
Mg0_2 Mg3_0 3.027492 1_565
Mg0_2 Mg3_1 3.027492 1_564
Mg0_3 Mg3_7 3.027490 1_455
Mg0_3 Mg3_6 3.027490 1_455
Mg0_3 Mg3_1 3.027492 1_565
Mg0_3 Mg3_0 3.027492 1_565
Mg0_4 Mg3_0 3.027490 1_555
Mg0_4 Mg3_1 3.027490 1_554
Mg0_4 Mg3_6 3.027492 1_555
Mg0_4 Mg3_7 3.027492 1_554
Mg0_5 Mg3_1 3.027490 1_555
Mg0_5 Mg3_0 3.027490 1_555
Mg0_5 Mg3_7 3.027492 1_555
Mg0_5 Mg3_6 3.027492 1_555
Mg0_6 Mg3_2 3.027490 1_555
Mg0_6 Mg3_3 3.027490 1_554
Mg0_6 Mg3_4 3.027492 1_565
Mg0_6 Mg3_5 3.027492 1_564
Mg0_7 Mg3_3 3.027490 1_555
Mg0_7 Mg3_2 3.027490 1_555
Mg0_7 Mg3_5 3.027492 1_565
Mg0_7 Mg3_4 3.027492 1_565
Mg1_0 Mg3_0 3.020480 1_555
Mg1_0 Mg3_1 3.020480 1_554
Mg1_1 Mg3_1 3.020480 1_555
Mg1_1 Mg3_0 3.020480 1_555
Mg1_2 Mg3_2 3.020480 1_555
Mg1_2 Mg3_3 3.020480 1_554
Mg1_3 Mg3_3 3.020480 1_555
Mg1_3 Mg3_2 3.020480 1_555
Mg1_4 Mg3_4 3.020480 1_555
Mg1_4 Mg3_5 3.020480 1_554
Mg1_5 Mg3_5 3.020480 1_555
Mg1_5 Mg3_4 3.020480 1_555
Mg1_6 Mg3_6 3.020480 1_555
Mg1_6 Mg3_7 3.020480 1_554
Mg1_7 Mg3_7 3.020480 1_555
Mg1_7 Mg3_6 3.020480 1_555
Mg3_0 Mg3_6 3.333002 1_445
Mg3_0 Mg3_6 3.333002 1_555
Mg3_1 Mg3_7 3.333002 1_445
Mg3_1 Mg3_7 3.333002 1_555
Mg3_2 Mg3_4 3.333002 1_565
Mg3_2 Mg3_4 3.333002 1_455
Mg3_3 Mg3_5 3.333002 1_455
Mg3_3 Mg3_5 3.333002 1_565
Ga0_0 Mg0_1 2.961937 1_555
Ga0_0 Mg0_0 2.961937 1_555
Ga0_0 Mg2_2 3.007802 1_555
Ga0_0 Mg2_3 3.007802 1_555
Ga0_0 Mg2_5 3.007802 1_455
Ga0_0 Mg2_4 3.007802 1_455
Ga0_0 Ga1_2 3.041524 1_555
Ga0_0 Ga1_4 3.041524 1_455
Ga0_0 Mg3_4 3.099865 1_455
Ga0_0 Mg3_2 3.099865 1_555
Ga0_1 Mg0_1 2.961937 1_555
Ga0_1 Mg0_0 2.961937 1_556
Ga0_1 Mg2_3 3.007802 1_555
Ga0_1 Mg2_5 3.007802 1_455
Ga0_1 Mg2_2 3.007802 1_556
Ga0_1 Mg2_4 3.007802 1_456
Ga0_1 Ga1_3 3.041524 1_555
Ga0_1 Ga1_5 3.041524 1_455
Ga0_1 Mg3_5 3.099865 1_455
Ga0_1 Mg3_3 3.099865 1_555
Ga0_2 Mg0_3 2.961937 1_555
Ga0_2 Mg0_2 2.961937 1_555
Ga0_2 Mg2_0 3.007802 1_565
Ga0_2 Mg2_1 3.007802 1_565
Ga0_2 Mg2_7 3.007802 1_455
Ga0_2 Mg2_6 3.007802 1_455
Ga0_2 Ga1_6 3.041524 1_455
Ga0_2 Ga1_0 3.041524 1_565
Ga0_2 Mg3_6 3.099865 1_455
Ga0_2 Mg3_0 3.099865 1_565
Ga0_3 Mg0_3 2.961937 1_555
Ga0_3 Mg0_2 2.961937 1_556
Ga0_3 Mg2_1 3.007802 1_565
Ga0_3 Mg2_7 3.007802 1_455
Ga0_3 Mg2_0 3.007802 1_566
Ga0_3 Mg2_6 3.007802 1_456
Ga0_3 Ga1_7 3.041524 1_455
Ga0_3 Ga1_1 3.041524 1_565
Ga0_3 Mg3_7 3.099865 1_455
Ga0_3 Mg3_1 3.099865 1_565
Ga0_4 Mg0_5 2.961937 1_555
Ga0_4 Mg0_4 2.961937 1_555
Ga0_4 Mg2_6 3.007802 1_555
Ga0_4 Mg2_7 3.007802 1_555
Ga0_4 Mg2_1 3.007802 1_555
Ga0_4 Mg2_0 3.007802 1_555
Ga0_4 Ga1_6 3.041524 1_555
Ga0_4 Ga1_0 3.041524 1_555
Ga0_4 Mg3_0 3.099865 1_555
Ga0_4 Mg3_6 3.099865 1_555
Ga0_5 Mg0_5 2.961937 1_555
Ga0_5 Mg0_4 2.961937 1_556
Ga0_5 Mg2_7 3.007802 1_555
Ga0_5 Mg2_1 3.007802 1_555
Ga0_5 Mg2_6 3.007802 1_556
Ga0_5 Mg2_0 3.007802 1_556
Ga0_5 Ga1_7 3.041524 1_555
Ga0_5 Ga1_1 3.041524 1_555
Ga0_5 Mg3_1 3.099865 1_555
Ga0_5 Mg3_7 3.099865 1_555
Ga0_6 Mg0_6 2.961937 1_555
Ga0_6 Mg0_7 2.961937 1_555
Ga0_6 Mg2_4 3.007802 1_565
Ga0_6 Mg2_5 3.007802 1_565
Ga0_6 Mg2_2 3.007802 1_555
Ga0_6 Mg2_3 3.007802 1_555
Ga0_6 Ga1_4 3.041524 1_565
Ga0_6 Ga1_2 3.041524 1_555
Ga0_6 Mg3_2 3.099865 1_555
Ga0_6 Mg3_4 3.099865 1_565
Ga0_7 Mg0_7 2.961937 1_555
Ga0_7 Mg0_6 2.961937 1_556
Ga0_7 Mg2_5 3.007802 1_565
Ga0_7 Mg2_3 3.007802 1_555
Ga0_7 Mg2_4 3.007802 1_566
Ga0_7 Mg2_2 3.007802 1_556
Ga0_7 Ga1_5 3.041524 1_565
Ga0_7 Ga1_3 3.041524 1_555
Ga0_7 Mg3_3 3.099865 1_555
Ga0_7 Mg3_5 3.099865 1_565
Ga1_0 Mg2_1 2.964025 1_555
Ga1_0 Mg2_0 2.964025 1_555
Ga1_0 Mg1_5 3.011077 1_555
Ga1_0 Mg1_4 3.011077 1_555
Ga1_0 Mg1_2 3.011077 1_545
Ga1_0 Mg1_3 3.011077 1_545
Ga1_0 Mg3_2 3.130514 1_545
Ga1_0 Mg3_4 3.130514 1_555
Ga1_1 Mg2_1 2.964025 1_555
Ga1_1 Mg2_0 2.964025 1_556
Ga1_1 Mg1_5 3.011077 1_555
Ga1_1 Mg1_4 3.011077 1_556
Ga1_1 Mg1_3 3.011077 1_545
Ga1_1 Mg1_2 3.011077 1_546
Ga1_1 Mg3_3 3.130514 1_545
Ga1_1 Mg3_5 3.130514 1_555
Ga1_2 Mg2_2 2.964025 1_555
Ga1_2 Mg2_3 2.964025 1_555
Ga1_2 Mg1_6 3.011077 1_555
Ga1_2 Mg1_7 3.011077 1_555
Ga1_2 Mg1_0 3.011077 1_555
Ga1_2 Mg1_1 3.011077 1_555
Ga1_2 Mg3_0 3.130514 1_555
Ga1_2 Mg3_6 3.130514 1_555
Ga1_3 Mg2_3 2.964025 1_555
Ga1_3 Mg2_2 2.964025 1_556
Ga1_3 Mg1_7 3.011077 1_555
Ga1_3 Mg1_6 3.011077 1_556
Ga1_3 Mg1_1 3.011077 1_555
Ga1_3 Mg1_0 3.011077 1_556
Ga1_3 Mg3_1 3.130514 1_555
Ga1_3 Mg3_7 3.130514 1_555
Ga1_4 Mg2_4 2.964025 1_555
Ga1_4 Mg2_5 2.964025 1_555
Ga1_4 Mg1_1 3.011077 1_655
Ga1_4 Mg1_0 3.011077 1_655
Ga1_4 Mg1_7 3.011077 1_545
Ga1_4 Mg1_6 3.011077 1_545
Ga1_4 Mg3_6 3.130514 1_545
Ga1_4 Mg3_0 3.130514 1_655
Ga1_5 Mg2_5 2.964025 1_555
Ga1_5 Mg2_4 2.964025 1_556
Ga1_5 Mg1_1 3.011077 1_655
Ga1_5 Mg1_7 3.011077 1_545
Ga1_5 Mg1_0 3.011077 1_656
Ga1_5 Mg1_6 3.011077 1_546
Ga1_5 Mg3_7 3.130514 1_545
Ga1_5 Mg3_1 3.130514 1_655
Ga1_6 Mg2_7 2.964025 1_555
Ga1_6 Mg2_6 2.964025 1_555
Ga1_6 Mg1_3 3.011077 1_655
Ga1_6 Mg1_2 3.011077 1_655
Ga1_6 Mg1_5 3.011077 1_555
Ga1_6 Mg1_4 3.011077 1_555
Ga1_6 Mg3_4 3.130514 1_555
Ga1_6 Mg3_2 3.130514 1_655
Ga1_7 Mg2_7 2.964025 1_555
Ga1_7 Mg2_6 2.964025 1_556
Ga1_7 Mg1_3 3.011077 1_655
Ga1_7 Mg1_2 3.011077 1_656
Ga1_7 Mg1_5 3.011077 1_555
Ga1_7 Mg1_4 3.011077 1_556
Ga1_7 Mg3_5 3.130514 1_555
Ga1_7 Mg3_3 3.130514 1_655
