# generated using pymatgen
data_CsGa9Au5
_symmetry_space_group_name_H-M   'P 1'
_cell_length_a   7.82838947
_cell_length_b   7.82838947
_cell_length_c   12.41850600
_cell_angle_alpha   90.00000000
_cell_angle_beta   90.00000000
_cell_angle_gamma   119.99999553
_symmetry_Int_Tables_number   1
_chemical_formula_structural   CsGa9Au5
_chemical_formula_sum   'Cs2 Ga18 Au10'
_cell_volume   659.09019526
_cell_formula_units_Z   2
loop_
 _symmetry_equiv_pos_site_id
 _symmetry_equiv_pos_as_xyz
  1  'x, y, z'
loop_
 _atom_site_type_symbol
 _atom_site_label
 _atom_site_symmetry_multiplicity
 _atom_site_fract_x
 _atom_site_fract_y
 _atom_site_fract_z
 _atom_site_occupancy
  Cs  Cs0  1  0.00000000  0.00000000  0.50000000  1
  Cs  Cs1  1  0.00000000  0.00000000  0.00000000  1
  Ga  Ga0  1  0.46142100  0.92284200  0.40223500  1
  Ga  Ga1  1  0.07715800  0.53857900  0.40223500  1
  Ga  Ga2  1  0.46142100  0.53857900  0.40223500  1
  Ga  Ga3  1  0.53857900  0.07715800  0.59776500  1
  Ga  Ga4  1  0.92284200  0.46142100  0.59776500  1
  Ga  Ga5  1  0.53857900  0.46142100  0.59776500  1
  Ga  Ga6  1  0.53857900  0.07715800  0.90223500  1
  Ga  Ga7  1  0.92284200  0.46142100  0.90223500  1
  Ga  Ga8  1  0.53857900  0.46142100  0.90223500  1
  Ga  Ga9  1  0.46142100  0.92284200  0.09776500  1
  Ga  Ga10  1  0.07715800  0.53857900  0.09776500  1
  Ga  Ga11  1  0.46142100  0.53857900  0.09776500  1
  Ga  Ga12  1  0.80578600  0.61157200  0.25000000  1
  Ga  Ga13  1  0.38842800  0.19421400  0.25000000  1
  Ga  Ga14  1  0.80578600  0.19421400  0.25000000  1
  Ga  Ga15  1  0.19421400  0.38842800  0.75000000  1
  Ga  Ga16  1  0.61157200  0.80578600  0.75000000  1
  Ga  Ga17  1  0.19421400  0.80578600  0.75000000  1
  Au  Au0  1  0.66666700  0.33333300  0.41667500  1
  Au  Au1  1  0.33333300  0.66666700  0.58332500  1
  Au  Au2  1  0.33333300  0.66666700  0.91667500  1
  Au  Au3  1  0.66666700  0.33333300  0.08332500  1
  Au  Au4  1  0.19032500  0.80967500  0.25000000  1
  Au  Au5  1  0.19032500  0.38065000  0.25000000  1
  Au  Au6  1  0.61935000  0.80967500  0.25000000  1
  Au  Au7  1  0.80967500  0.19032500  0.75000000  1
  Au  Au8  1  0.80967500  0.61935000  0.75000000  1
  Au  Au9  1  0.38065000  0.19032500  0.75000000  1
loop_
_geom_bond_atom_site_label_1
_geom_bond_atom_site_label_2
_geom_bond_distance
_geom_bond_site_symmetry_2
Cs0 Ga14 4.071044 1_455
Cs0 Ga17 4.071044 1_545
Cs0 Ga12 4.071044 1_445
Cs0 Ga15 4.071044 1_555
Cs0 Ga16 4.071044 1_445
Cs0 Ga13 4.071044 1_555
Cs0 Ga1 4.131414 1_545
Cs0 Ga3 4.131414 1_455
Cs0 Ga4 4.131414 1_455
Cs0 Ga0 4.131414 1_545
Cs0 Ga4 4.131414 1_445
Cs0 Ga3 4.131414 1_555
Cs0 Ga1 4.131414 1_555
Cs0 Ga0 4.131414 1_445
Cs0 Ga5 4.131414 1_445
Cs0 Ga2 4.131414 1_555
Cs0 Ga2 4.131414 1_445
Cs0 Ga5 4.131414 1_555
Cs1 Ga14 4.071044 1_455
Cs1 Ga17 4.071044 1_544
Cs1 Ga12 4.071044 1_445
Cs1 Ga16 4.071044 1_444
Cs1 Ga15 4.071044 1_554
Cs1 Ga13 4.071044 1_555
Cs1 Ga6 4.131414 1_454
Cs1 Ga9 4.131414 1_545
Cs1 Ga10 4.131414 1_545
Cs1 Ga7 4.131414 1_454
Cs1 Ga7 4.131414 1_444
Cs1 Ga9 4.131414 1_445
Cs1 Ga10 4.131414 1_555
Cs1 Ga6 4.131414 1_554
Cs1 Ga8 4.131414 1_444
Cs1 Ga11 4.131414 1_445
Cs1 Ga11 4.131414 1_555
Cs1 Ga8 4.131414 1_554
Au0 Ga0 2.788730 1_545
Au0 Ga1 2.788730 1_655
Au0 Ga2 2.788736 1_555
Au0 Ga14 2.800459 1_555
Au0 Ga12 2.800463 1_555
Au0 Ga13 2.800463 1_555
Au0 Ga4 2.841433 1_555
Au0 Ga3 2.841433 1_555
Au0 Ga5 2.841437 1_555
Au1 Ga4 2.788730 1_455
Au1 Ga3 2.788730 1_565
Au1 Ga5 2.788736 1_555
Au1 Ga17 2.800459 1_555
Au1 Ga15 2.800463 1_555
Au1 Ga16 2.800463 1_555
Au1 Ga1 2.841433 1_555
Au1 Ga0 2.841433 1_555
Au1 Ga2 2.841437 1_555
Au2 Ga7 2.788730 1_455
Au2 Ga6 2.788730 1_565
Au2 Ga8 2.788736 1_555
Au2 Ga17 2.800459 1_555
Au2 Ga15 2.800463 1_555
Au2 Ga16 2.800463 1_555
Au2 Ga10 2.841433 1_556
Au2 Ga9 2.841433 1_556
Au2 Ga11 2.841437 1_556
Au3 Ga9 2.788730 1_545
Au3 Ga10 2.788730 1_655
Au3 Ga11 2.788736 1_555
Au3 Ga14 2.800459 1_555
Au3 Ga12 2.800463 1_555
Au3 Ga13 2.800463 1_555
Au3 Ga7 2.841433 1_554
Au3 Ga6 2.841433 1_554
Au3 Ga8 2.841437 1_554
Au4 Ga12 2.607415 1_455
Au4 Ga13 2.607415 1_565
Au4 Ga10 2.642489 1_555
Au4 Ga0 2.642489 1_555
Au4 Ga1 2.642489 1_555
Au4 Ga9 2.642489 1_555
Au4 Cs0 4.037134 1_565
Au4 Cs1 4.037134 1_565
Au5 Ga13 2.607414 1_555
Au5 Ga14 2.607415 1_455
Au5 Ga10 2.642489 1_555
Au5 Ga1 2.642489 1_555
Au5 Ga11 2.642489 1_555
Au5 Ga2 2.642489 1_555
Au5 Cs0 4.037134 1_555
Au5 Cs1 4.037134 1_555
Au6 Ga12 2.607414 1_555
Au6 Ga14 2.607415 1_565
Au6 Ga0 2.642489 1_555
Au6 Ga9 2.642489 1_555
Au6 Ga11 2.642489 1_555
Au6 Ga2 2.642489 1_555
Au6 Cs1 4.037134 1_665
Au6 Cs0 4.037134 1_665
Au7 Ga16 2.607415 1_545
Au7 Ga15 2.607415 1_655
Au7 Ga4 2.642489 1_555
Au7 Ga3 2.642489 1_555
Au7 Ga7 2.642489 1_555
Au7 Ga6 2.642489 1_555
Au7 Cs1 4.037134 1_656
Au7 Cs0 4.037134 1_655
Au8 Ga16 2.607414 1_555
Au8 Ga17 2.607415 1_655
Au8 Ga4 2.642489 1_555
Au8 Ga7 2.642489 1_555
Au8 Ga5 2.642489 1_555
Au8 Ga8 2.642489 1_555
Au8 Cs1 4.037134 1_666
Au8 Cs0 4.037134 1_665
Au9 Ga15 2.607414 1_555
Au9 Ga17 2.607415 1_545
Au9 Ga6 2.642489 1_555
Au9 Ga3 2.642489 1_555
Au9 Ga5 2.642489 1_555
Au9 Ga8 2.642489 1_555
Au9 Cs1 4.037134 1_556
Au9 Cs0 4.037134 1_555
