# generated using pymatgen
data_NbCrFe
_symmetry_space_group_name_H-M   'P 1'
_cell_length_a   4.88492457
_cell_length_b   4.88492457
_cell_length_c   7.80250300
_cell_angle_alpha   90.00000000
_cell_angle_beta   90.00000000
_cell_angle_gamma   120.76324468
_symmetry_Int_Tables_number   1
_chemical_formula_structural   NbCrFe
_chemical_formula_sum   'Nb4 Cr4 Fe4'
_cell_volume   159.98840735
_cell_formula_units_Z   4
loop_
 _symmetry_equiv_pos_site_id
 _symmetry_equiv_pos_as_xyz
  1  'x, y, z'
loop_
 _atom_site_type_symbol
 _atom_site_label
 _atom_site_symmetry_multiplicity
 _atom_site_fract_x
 _atom_site_fract_y
 _atom_site_fract_z
 _atom_site_occupancy
  Nb  Nb0  1  0.33315700  0.66684300  0.19243400  1
  Nb  Nb1  1  0.66580700  0.33419300  0.31467600  1
  Nb  Nb2  1  0.66580700  0.33419300  0.68532400  1
  Nb  Nb3  1  0.33315700  0.66684300  0.80756600  1
  Cr  Cr0  1  0.99914000  0.00086000  0.25909600  1
  Cr  Cr1  1  0.99914000  0.00086000  0.74090400  1
  Cr  Cr2  1  0.82989400  0.65833000  0.00000000  1
  Cr  Cr3  1  0.34167000  0.17010600  0.00000000  1
  Fe  Fe0  1  0.82917800  0.17082200  0.00000000  1
  Fe  Fe1  1  0.17163000  0.34111100  0.50000000  1
  Fe  Fe2  1  0.65888900  0.82837000  0.50000000  1
  Fe  Fe3  1  0.17253700  0.82746300  0.50000000  1
loop_
_geom_bond_atom_site_label_1
_geom_bond_atom_site_label_2
_geom_bond_distance
_geom_bond_site_symmetry_2
Nb0 Nb1 2.959472 1_455
Nb0 Nb1 2.959472 1_565
Nb0 Nb1 2.981945 1_555
Nb0 Nb3 3.002934 1_554
Nb1 Nb2 2.891982 1_555
Nb2 Nb3 2.959472 1_655
Nb2 Nb3 2.959472 1_545
Nb2 Nb3 2.981945 1_555
Cr0 Fe1 2.360716 1_655
Cr0 Fe2 2.360716 1_545
Cr0 Fe3 2.387881 1_645
Cr0 Cr3 2.480915 1_655
Cr0 Cr2 2.480915 1_545
Cr0 Fe0 2.484080 1_555
Cr0 Nb1 2.832024 1_545
Cr0 Nb1 2.832024 1_655
Cr0 Nb0 2.843663 1_655
Cr0 Nb0 2.843663 1_545
Cr0 Nb1 2.864114 1_555
Cr0 Nb0 2.884189 1_645
Cr1 Fe1 2.360716 1_655
Cr1 Fe2 2.360716 1_545
Cr1 Fe3 2.387881 1_645
Cr1 Cr3 2.480915 1_656
Cr1 Cr2 2.480915 1_546
Cr1 Fe0 2.484080 1_556
Cr1 Nb2 2.832024 1_655
Cr1 Nb2 2.832024 1_545
Cr1 Nb3 2.843663 1_545
Cr1 Nb3 2.843663 1_655
Cr1 Nb2 2.864114 1_555
Cr1 Nb3 2.884189 1_645
Cr2 Cr3 2.357371 1_555
Cr2 Fe0 2.379653 1_555
Cr2 Cr3 2.471091 1_665
Cr2 Fe0 2.505276 1_565
Cr2 Nb2 2.807056 1_554
Cr2 Nb1 2.807056 1_555
Cr2 Nb0 2.862741 1_655
Cr2 Nb3 2.862741 1_654
Cr2 Nb3 2.871824 1_554
Cr2 Nb0 2.871824 1_555
Cr3 Fe0 2.379653 1_555
Cr3 Fe0 2.505276 1_455
Cr3 Nb2 2.807056 1_554
Cr3 Nb1 2.807056 1_555
Cr3 Nb3 2.862741 1_544
Cr3 Nb0 2.862741 1_545
Cr3 Nb0 2.871824 1_555
Cr3 Nb3 2.871824 1_554
Fe0 Nb2 2.820216 1_554
Fe0 Nb1 2.820216 1_555
Fe0 Nb0 2.843247 1_655
Fe0 Nb3 2.843247 1_654
Fe0 Nb3 2.843247 1_544
Fe0 Nb0 2.843247 1_545
Fe1 Fe2 2.352712 1_555
Fe1 Fe3 2.373530 1_555
Fe1 Fe2 2.475750 1_445
Fe1 Fe3 2.511401 1_545
Fe1 Nb3 2.762071 1_555
Fe1 Nb0 2.762071 1_555
Fe1 Nb1 2.828951 1_555
Fe1 Nb2 2.828951 1_555
Fe1 Nb2 2.848156 1_455
Fe1 Nb1 2.848156 1_455
Fe2 Fe3 2.373530 1_555
Fe2 Fe3 2.511401 1_655
Fe2 Nb3 2.762071 1_555
Fe2 Nb0 2.762071 1_555
Fe2 Nb1 2.828951 1_555
Fe2 Nb2 2.828951 1_555
Fe2 Nb1 2.848156 1_565
Fe2 Nb2 2.848156 1_565
Fe3 Nb3 2.760432 1_555
Fe3 Nb0 2.760432 1_555
Fe3 Nb2 2.814724 1_455
Fe3 Nb1 2.814724 1_565
Fe3 Nb1 2.814724 1_455
Fe3 Nb2 2.814724 1_565
