# generated using pymatgen
data_Cs2CaV2O7
_symmetry_space_group_name_H-M   'P 1'
_cell_length_a   6.18591200
_cell_length_b   10.74737500
_cell_length_c   15.75679602
_cell_angle_alpha   62.92181095
_cell_angle_beta   90.00000000
_cell_angle_gamma   90.00000000
_symmetry_Int_Tables_number   1
_chemical_formula_structural   Cs2CaV2O7
_chemical_formula_sum   'Cs8 Ca4 V8 O28'
_cell_volume   932.72249420
_cell_formula_units_Z   4
loop_
 _symmetry_equiv_pos_site_id
 _symmetry_equiv_pos_as_xyz
  1  'x, y, z'
loop_
 _atom_site_type_symbol
 _atom_site_label
 _atom_site_symmetry_multiplicity
 _atom_site_fract_x
 _atom_site_fract_y
 _atom_site_fract_z
 _atom_site_occupancy
  Cs  Cs0  1  0.22789700  0.03342800  0.82808400  1
  Cs  Cs1  1  0.27210300  0.03342800  0.32808400  1
  Cs  Cs2  1  0.77210300  0.96657200  0.17191600  1
  Cs  Cs3  1  0.72789700  0.96657200  0.67191600  1
  Cs  Cs4  1  0.76708500  0.51477400  0.35033200  1
  Cs  Cs5  1  0.73291500  0.51477400  0.85033200  1
  Cs  Cs6  1  0.23291500  0.48522600  0.64966800  1
  Cs  Cs7  1  0.26708500  0.48522600  0.14966800  1
  Ca  Ca0  1  0.25595900  0.23629200  0.51458900  1
  Ca  Ca1  1  0.24404100  0.23629200  0.01458900  1
  Ca  Ca2  1  0.74404100  0.76370800  0.48541100  1
  Ca  Ca3  1  0.75595900  0.76370800  0.98541100  1
  V  V0  1  0.22887100  0.82866800  0.62193800  1
  V  V1  1  0.27112900  0.82866800  0.12193800  1
  V  V2  1  0.77112900  0.17133200  0.37806200  1
  V  V3  1  0.72887100  0.17133200  0.87806200  1
  V  V4  1  0.23829400  0.66541300  0.86776300  1
  V  V5  1  0.26170600  0.66541300  0.36776300  1
  V  V6  1  0.76170600  0.33458700  0.13223700  1
  V  V7  1  0.73829400  0.33458700  0.63223700  1
  O  O0  1  0.42933500  0.81170200  0.55313300  1
  O  O1  1  0.07066500  0.81170200  0.05313300  1
  O  O2  1  0.57066500  0.18829800  0.44686700  1
  O  O3  1  0.92933500  0.18829800  0.94686700  1
  O  O4  1  0.98091000  0.77831000  0.59813600  1
  O  O5  1  0.51909000  0.77831000  0.09813600  1
  O  O6  1  0.01909000  0.22169000  0.40186400  1
  O  O7  1  0.48091000  0.22169000  0.90186400  1
  O  O8  1  0.21988300  0.99427600  0.61395900  1
  O  O9  1  0.28011700  0.99427600  0.11395900  1
  O  O10  1  0.78011700  0.00572400  0.38604100  1
  O  O11  1  0.71988300  0.00572400  0.88604100  1
  O  O12  1  0.30306300  0.70378900  0.74444000  1
  O  O13  1  0.19693700  0.70378900  0.24444000  1
  O  O14  1  0.69693700  0.29621100  0.25556000  1
  O  O15  1  0.80306300  0.29621100  0.75556000  1
  O  O16  1  0.99997600  0.74672600  0.87112000  1
  O  O17  1  0.50002400  0.74672600  0.37112000  1
  O  O18  1  0.00002400  0.25327400  0.12888000  1
  O  O19  1  0.49997600  0.25327400  0.62888000  1
  O  O20  1  0.21495200  0.48675100  0.92786000  1
  O  O21  1  0.28504800  0.48675100  0.42786000  1
  O  O22  1  0.78504800  0.51324900  0.07214000  1
  O  O23  1  0.71495200  0.51324900  0.57214000  1
  O  O24  1  0.45415100  0.72527200  0.90754300  1
  O  O25  1  0.04584900  0.72527200  0.40754300  1
  O  O26  1  0.54584900  0.27472800  0.09245700  1
  O  O27  1  0.95415100  0.27472800  0.59245700  1
loop_
_geom_bond_atom_site_label_1
_geom_bond_atom_site_label_2
_geom_bond_distance
_geom_bond_site_symmetry_2
Cs0 O11 3.152340 1_555
Cs0 O7 3.168023 1_555
Cs0 O16 3.168557 1_445
Cs0 O11 3.248163 1_455
Cs0 O24 3.274114 1_545
Cs0 O1 3.392038 1_546
Cs0 O19 3.393470 1_555
Cs0 O3 3.538436 1_455
Cs0 O8 3.585439 1_545
Cs0 O15 3.640082 1_455
Cs1 O10 3.152340 1_455
Cs1 O6 3.168023 1_555
Cs1 O17 3.168557 1_545
Cs1 O10 3.248163 1_555
Cs1 O25 3.274114 1_545
Cs1 O0 3.392038 1_545
Cs1 O18 3.393470 1_555
Cs1 O2 3.538436 1_555
Cs1 O9 3.585439 1_545
Cs1 O14 3.640082 1_555
Cs2 O9 3.152340 1_555
Cs2 O5 3.168023 1_555
Cs2 O18 3.168557 1_665
Cs2 O9 3.248163 1_655
Cs2 O26 3.274114 1_565
Cs2 O3 3.392038 1_564
Cs2 O17 3.393470 1_555
Cs2 O1 3.538436 1_655
Cs2 O10 3.585439 1_565
Cs2 O13 3.640082 1_655
Cs3 O8 3.152340 1_655
Cs3 O4 3.168023 1_555
Cs3 O19 3.168557 1_565
Cs3 O8 3.248163 1_555
Cs3 O27 3.274114 1_565
Cs3 O2 3.392038 1_565
Cs3 O16 3.393470 1_555
Cs3 O0 3.538436 1_555
Cs3 O11 3.585439 1_565
Cs3 O12 3.640082 1_555
Cs4 O17 3.129579 1_555
Cs4 O21 3.184243 1_555
Cs4 O6 3.268437 1_655
Cs4 O25 3.280381 1_655
Cs4 O13 3.300792 1_655
Cs4 O14 3.336081 1_555
Cs4 O2 3.352973 1_555
Cs4 O21 3.393248 1_655
Cs4 O23 3.502432 1_555
Cs4 O27 3.686345 1_555
Cs5 O16 3.129579 1_555
Cs5 O20 3.184243 1_655
Cs5 O7 3.268437 1_555
Cs5 O24 3.280381 1_555
Cs5 O12 3.300792 1_555
Cs5 O15 3.336081 1_555
Cs5 O3 3.352973 1_555
Cs5 O20 3.393248 1_555
Cs5 O22 3.502432 1_556
Cs5 O26 3.686345 1_556
Cs6 O19 3.129579 1_555
Cs6 O23 3.184243 1_555
Cs6 O4 3.268437 1_455
Cs6 O27 3.280381 1_455
Cs6 O15 3.300792 1_455
Cs6 O12 3.336081 1_555
Cs6 O0 3.352973 1_555
Cs6 O23 3.393248 1_455
Cs6 O21 3.502432 1_555
Cs6 O25 3.686345 1_555
Cs7 O18 3.129579 1_555
Cs7 O22 3.184243 1_455
Cs7 O5 3.268437 1_555
Cs7 O26 3.280381 1_555
Cs7 O14 3.300792 1_555
Cs7 O13 3.336081 1_555
Cs7 O1 3.352973 1_555
Cs7 O22 3.393248 1_555
Cs7 O20 3.502432 1_554
Cs7 O24 3.686345 1_554
Ca0 O8 2.357764 1_545
Ca0 O6 2.362243 1_555
Ca0 O27 2.371288 1_455
Ca0 O2 2.386553 1_555
Ca0 O21 2.407614 1_555
Ca0 O19 2.419532 1_555
Ca1 O9 2.357764 1_545
Ca1 O7 2.362243 1_554
Ca1 O26 2.371288 1_555
Ca1 O3 2.386553 1_454
Ca1 O20 2.407614 1_554
Ca1 O18 2.419532 1_555
Ca2 O10 2.357764 1_565
Ca2 O4 2.362243 1_555
Ca2 O25 2.371288 1_655
Ca2 O0 2.386553 1_555
Ca2 O23 2.407614 1_555
Ca2 O17 2.419532 1_555
Ca3 O11 2.357764 1_565
Ca3 O5 2.362243 1_556
Ca3 O24 2.371288 1_555
Ca3 O1 2.386553 1_656
Ca3 O22 2.407614 1_556
Ca3 O16 2.419532 1_555
O0 V0 1.710650 1_555
O1 V1 1.710650 1_555
O2 V2 1.710650 1_555
O3 V3 1.710650 1_555
O4 V0 1.723691 1_655
O5 V1 1.723691 1_555
O6 V2 1.723691 1_455
O7 V3 1.723691 1_555
O8 V0 1.727150 1_555
O9 V1 1.727150 1_555
O10 V2 1.727150 1_555
O11 V3 1.727150 1_555
O12 V4 1.837639 1_555
O12 V0 1.838264 1_555
O13 V5 1.837639 1_555
O13 V1 1.838264 1_555
O14 V6 1.837639 1_555
O14 V2 1.838264 1_555
O15 V7 1.837639 1_555
O15 V3 1.838264 1_555
O16 V4 1.726816 1_655
O17 V5 1.726816 1_555
O18 V6 1.726816 1_455
O19 V7 1.726816 1_555
O20 V4 1.717306 1_555
O21 V5 1.717306 1_555
O22 V6 1.717306 1_555
O23 V7 1.717306 1_555
O24 V4 1.719541 1_555
O25 V5 1.719541 1_555
O26 V6 1.719541 1_555
O27 V7 1.719541 1_555
