# generated using pymatgen
data_ZnSnAs2
_symmetry_space_group_name_H-M   'P 1'
_cell_length_a   7.27257114
_cell_length_b   7.27257114
_cell_length_c   7.27257119
_cell_angle_alpha   33.64292982
_cell_angle_beta   33.64292982
_cell_angle_gamma   33.64293939
_symmetry_Int_Tables_number   1
_chemical_formula_structural   ZnSnAs2
_chemical_formula_sum   'Zn1 Sn1 As2'
_cell_volume   105.17486268
_cell_formula_units_Z   1
loop_
 _symmetry_equiv_pos_site_id
 _symmetry_equiv_pos_as_xyz
  1  'x, y, z'
loop_
 _atom_site_type_symbol
 _atom_site_label
 _atom_site_symmetry_multiplicity
 _atom_site_fract_x
 _atom_site_fract_y
 _atom_site_fract_z
 _atom_site_occupancy
  Zn  Zn0  1  0.63488700  0.63488700  0.63488700  1
  Sn  Sn0  1  0.11695400  0.11695400  0.11695400  1
  As  As0  1  0.99038000  0.99038000  0.99038000  1
  As  As1  1  0.50778000  0.50778000  0.50778000  1
loop_
_geom_bond_atom_site_label_1
_geom_bond_atom_site_label_2
_geom_bond_distance
_geom_bond_site_symmetry_2
As0 Zn0 2.472550 1_556
As0 Zn0 2.472550 1_655
As0 Zn0 2.472550 1_565
As0 Sn0 2.602812 1_666
As1 Zn0 2.613772 1_555
As1 Sn0 2.702514 1_556
As1 Sn0 2.702514 1_565
As1 Sn0 2.702514 1_655
