# generated using pymatgen
data_Ca3Si4(BiO7)2
_symmetry_space_group_name_H-M   'P 1'
_cell_length_a   9.88877394
_cell_length_b   9.88877394
_cell_length_c   10.77139370
_cell_angle_alpha   58.90351327
_cell_angle_beta   58.90351327
_cell_angle_gamma   48.56273061
_symmetry_Int_Tables_number   1
_chemical_formula_structural   Ca3Si4(BiO7)2
_chemical_formula_sum   'Ca6 Si8 Bi4 O28'
_cell_volume   650.66149981
_cell_formula_units_Z   2
loop_
 _symmetry_equiv_pos_site_id
 _symmetry_equiv_pos_as_xyz
  1  'x, y, z'
loop_
 _atom_site_type_symbol
 _atom_site_label
 _atom_site_symmetry_multiplicity
 _atom_site_fract_x
 _atom_site_fract_y
 _atom_site_fract_z
 _atom_site_occupancy
  Ca  Ca0  1  0.25259200  0.15962400  0.53478400  1
  Ca  Ca1  1  0.84037600  0.74740800  0.96521600  1
  Ca  Ca2  1  0.15962400  0.25259200  0.03478400  1
  Ca  Ca3  1  0.65849400  0.34150600  0.25000000  1
  Ca  Ca4  1  0.74740800  0.84037600  0.46521600  1
  Ca  Ca5  1  0.34150600  0.65849400  0.75000000  1
  Si  Si0  1  0.08809900  0.53035800  0.66885200  1
  Si  Si1  1  0.53035800  0.08809900  0.16885200  1
  Si  Si2  1  0.24959400  0.49208700  0.13892600  1
  Si  Si3  1  0.49208700  0.24959400  0.63892600  1
  Si  Si4  1  0.46964200  0.91190100  0.83114800  1
  Si  Si5  1  0.75040600  0.50791300  0.86107400  1
  Si  Si6  1  0.50791300  0.75040600  0.36107400  1
  Si  Si7  1  0.91190100  0.46964200  0.33114800  1
  Bi  Bi0  1  0.22897700  0.77102300  0.25000000  1
  Bi  Bi1  1  0.77102300  0.22897700  0.75000000  1
  Bi  Bi2  1  0.00000000  0.00000000  0.00000000  1
  Bi  Bi3  1  0.00000000  0.00000000  0.50000000  1
  O  O0  1  0.33267300  0.84516500  0.49889300  1
  O  O1  1  0.89716400  0.94326100  0.75368000  1
  O  O2  1  0.60346100  0.51452600  0.82833300  1
  O  O3  1  0.94326100  0.89716400  0.25368000  1
  O  O4  1  0.94361600  0.28305700  0.47660600  1
  O  O5  1  0.48852900  0.08237900  0.80319900  1
  O  O6  1  0.51452600  0.60346100  0.32833300  1
  O  O7  1  0.71694300  0.05638400  0.02339400  1
  O  O8  1  0.51147100  0.91762100  0.19680100  1
  O  O9  1  0.70906600  0.65252600  0.39690500  1
  O  O10  1  0.10283600  0.05673900  0.24632000  1
  O  O11  1  0.05638400  0.71694300  0.52339400  1
  O  O12  1  0.91762100  0.51147100  0.69680100  1
  O  O13  1  0.84516500  0.33267300  0.99889300  1
  O  O14  1  0.65252600  0.70906600  0.89690500  1
  O  O15  1  0.28305700  0.94361600  0.97660600  1
  O  O16  1  0.47656200  0.91724600  0.67551900  1
  O  O17  1  0.29093400  0.34747400  0.60309500  1
  O  O18  1  0.08275400  0.52343800  0.82448100  1
  O  O19  1  0.34747400  0.29093400  0.10309500  1
  O  O20  1  0.08237900  0.48852900  0.30319900  1
  O  O21  1  0.05673900  0.10283600  0.74632000  1
  O  O22  1  0.91724600  0.47656200  0.17551900  1
  O  O23  1  0.39653900  0.48547400  0.17166700  1
  O  O24  1  0.52343800  0.08275400  0.32448100  1
  O  O25  1  0.48547400  0.39653900  0.67166700  1
  O  O26  1  0.15483500  0.66732700  0.00110700  1
  O  O27  1  0.66732700  0.15483500  0.50110700  1
loop_
_geom_bond_atom_site_label_1
_geom_bond_atom_site_label_2
_geom_bond_distance
_geom_bond_site_symmetry_2
Ca0 O21 2.194881 1_555
Ca0 O16 2.374179 1_545
Ca0 O24 2.387368 1_555
Ca0 O17 2.601572 1_555
Ca0 O4 2.733026 1_455
Ca0 O0 2.848234 1_545
Ca0 O20 2.888690 1_555
Ca1 O1 2.194881 1_555
Ca1 O18 2.374179 1_655
Ca1 O22 2.387368 1_556
Ca1 O14 2.601572 1_555
Ca1 O7 2.733026 1_566
Ca1 O26 2.848234 1_656
Ca1 O8 2.888690 1_556
Ca2 O10 2.194881 1_555
Ca2 O22 2.374179 1_455
Ca2 O18 2.387368 1_554
Ca2 O19 2.601572 1_555
Ca2 O15 2.733026 1_544
Ca2 O13 2.848234 1_454
Ca2 O5 2.888690 1_554
Ca3 O6 2.363178 1_555
Ca3 O23 2.363178 1_555
Ca3 O27 2.367305 1_555
Ca3 O13 2.367305 1_554
Ca4 O3 2.194881 1_555
Ca4 O24 2.374179 1_565
Ca4 O16 2.387368 1_555
Ca4 O9 2.601572 1_555
Ca4 O11 2.733026 1_655
Ca4 O27 2.848234 1_565
Ca4 O12 2.888690 1_555
Ca5 O2 2.363178 1_555
Ca5 O25 2.363178 1_555
Ca5 O0 2.367305 1_555
Ca5 O26 2.367305 1_556
Bi0 O3 2.193377 1_455
Bi0 O10 2.193377 1_565
Bi0 O6 2.500982 1_555
Bi0 O23 2.500982 1_555
Bi0 O11 2.502120 1_555
Bi0 O15 2.502120 1_554
Bi1 O1 2.193377 1_545
Bi1 O21 2.193377 1_655
Bi1 O2 2.500982 1_555
Bi1 O25 2.500982 1_555
Bi1 O7 2.502120 1_556
Bi1 O4 2.502120 1_555
Bi2 O3 2.262000 1_445
Bi2 O21 2.262000 1_554
Bi2 O15 2.357986 1_544
Bi2 O7 2.357986 1_455
Bi2 O13 2.545227 1_454
Bi2 O26 2.545227 1_545
Bi3 O1 2.262000 1_445
Bi3 O10 2.262000 1_555
Bi3 O4 2.357986 1_455
Bi3 O11 2.357986 1_545
Bi3 O0 2.545227 1_545
Bi3 O27 2.545227 1_455
O0 Si6 1.647755 1_555
O2 Si5 1.618617 1_555
O4 Si7 1.647136 1_555
O5 Si4 1.673894 1_545
O5 Si3 1.690207 1_555
O6 Si6 1.618617 1_555
O7 Si1 1.647136 1_555
O8 Si1 1.673894 1_565
O8 Si6 1.690207 1_555
O9 Si7 1.688159 1_555
O9 Si6 1.703329 1_555
O11 Si0 1.647136 1_555
O12 Si0 1.673894 1_655
O12 Si5 1.690207 1_555
O13 Si5 1.647755 1_555
O14 Si4 1.688159 1_555
O14 Si5 1.703329 1_555
O15 Si4 1.647136 1_555
O16 Si4 1.616281 1_555
O17 Si0 1.688159 1_555
O17 Si3 1.703329 1_555
O18 Si0 1.616281 1_555
O19 Si1 1.688159 1_555
O19 Si2 1.703329 1_555
O20 Si7 1.673894 1_455
O20 Si2 1.690207 1_555
O22 Si7 1.616281 1_555
O23 Si2 1.618617 1_555
O24 Si1 1.616281 1_555
O25 Si3 1.618617 1_555
O26 Si2 1.647755 1_555
O27 Si3 1.647755 1_555
