# generated using pymatgen
data_BaCeEuSbO6
_symmetry_space_group_name_H-M   'P 1'
_cell_length_a   6.00908068
_cell_length_b   6.10957217
_cell_length_c   8.56802919
_cell_angle_alpha   90.16178858
_cell_angle_beta   90.27212002
_cell_angle_gamma   90.51648583
_symmetry_Int_Tables_number   1
_chemical_formula_structural   BaCeEuSbO6
_chemical_formula_sum   'Ba2 Ce2 Eu2 Sb2 O12'
_cell_volume   314.53968229
_cell_formula_units_Z   2
loop_
 _symmetry_equiv_pos_site_id
 _symmetry_equiv_pos_as_xyz
  1  'x, y, z'
loop_
 _atom_site_type_symbol
 _atom_site_label
 _atom_site_symmetry_multiplicity
 _atom_site_fract_x
 _atom_site_fract_y
 _atom_site_fract_z
 _atom_site_occupancy
  Ba  Ba0  1  0.51129597  0.53928563  0.24947029  1
  Ba  Ba1  1  0.48870403  0.46071437  0.75052971  1
  Ce  Ce0  1  -0.00000000  0.50000000  -0.00000000  1
  Ce  Ce1  1  0.50000000  -0.00000000  0.50000000  1
  Eu  Eu0  1  0.98885431  0.04498570  0.25160532  1
  Eu  Eu1  1  0.01114569  0.95501430  0.74839468  1
  Sb  Sb0  1  0.50000000  -0.00000000  -0.00000000  1
  Sb  Sb1  1  -0.00000000  0.50000000  0.50000000  1
  O  O0  1  0.21715969  0.19334296  0.95450123  1
  O  O1  1  0.27342871  0.70515847  0.54253312  1
  O  O2  1  0.78284031  0.80665704  0.04549877  1
  O  O3  1  0.72657129  0.29484153  0.45746688  1
  O  O4  1  0.29798084  0.72535489  0.95741917  1
  O  O5  1  0.19105970  0.21474545  0.54391597  1
  O  O6  1  0.70201916  0.27464511  0.04258083  1
  O  O7  1  0.80894030  0.78525455  0.45608403  1
  O  O8  1  0.40798246  0.98901779  0.23804114  1
  O  O9  1  0.07278205  0.47514376  0.26180721  1
  O  O10  1  0.59201754  0.01098221  0.76195886  1
  O  O11  1  0.92721795  0.52485624  0.73819279  1
loop_
_geom_bond_atom_site_label_1
_geom_bond_atom_site_label_2
_geom_bond_distance
_geom_bond_site_symmetry_2
Ba0 O9 2.663189 1_555
Ba0 O6 2.665784 1_555
Ba0 O3 2.666032 1_555
Ba0 O8 2.824252 1_555
Ba0 O2 2.894880 1_555
Ba0 O7 2.915062 1_555
Ba0 O4 3.034599 1_554
Ba0 O1 3.069348 1_555
Ba1 O11 2.663189 1_555
Ba1 O4 2.665784 1_555
Ba1 O1 2.666032 1_555
Ba1 O10 2.824252 1_555
Ba1 O0 2.894880 1_555
Ba1 O5 2.915062 1_555
Ba1 O6 3.034599 1_556
Ba1 O3 3.069348 1_555
Ce0 O6 2.280253 1_455
Ce0 O4 2.280253 1_554
Ce0 O11 2.289096 1_454
Ce0 O9 2.289096 1_555
Ce0 O0 2.325890 1_554
Ce0 O2 2.325890 1_455
Ce1 O3 2.279371 1_555
Ce1 O1 2.279371 1_545
Ce1 O10 2.309673 1_555
Ce1 O8 2.309673 1_545
Ce1 O7 2.314538 1_545
Ce1 O5 2.314538 1_555
Eu0 O8 2.547888 1_645
Eu0 O2 2.589099 1_545
Eu0 O7 2.599825 1_545
Eu0 O9 2.672675 1_655
Eu0 O3 2.824877 1_555
Eu0 O6 2.859282 1_555
Eu0 O5 2.959467 1_655
Eu0 O0 3.034391 1_654
Eu1 O10 2.547888 1_465
Eu1 O0 2.589099 1_565
Eu1 O5 2.599825 1_565
Eu1 O11 2.672675 1_455
Eu1 O1 2.824877 1_555
Eu1 O4 2.859282 1_555
Eu1 O7 2.959467 1_455
Eu1 O2 3.034391 1_456
O0 Sb0 2.113879 1_556
O1 Sb1 2.087613 1_555
O2 Sb0 2.113879 1_565
O3 Sb1 2.087613 1_655
O4 Sb0 2.092356 1_566
O5 Sb1 2.129006 1_555
O6 Sb0 2.092356 1_555
O7 Sb1 2.129006 1_655
O8 Sb0 2.116790 1_565
O9 Sb1 2.094589 1_555
O10 Sb0 2.116790 1_556
O11 Sb1 2.094589 1_655
