# generated using pymatgen
data_Li3H4IN2
_symmetry_space_group_name_H-M   'P 1'
_cell_length_a   7.21833981
_cell_length_b   7.32901951
_cell_length_c   11.86408000
_cell_angle_alpha   90.00000000
_cell_angle_beta   90.00000000
_cell_angle_gamma   120.50353978
_symmetry_Int_Tables_number   1
_chemical_formula_structural   Li3H4IN2
_chemical_formula_sum   'Li12 H16 I4 N8'
_cell_volume   540.78152969
_cell_formula_units_Z   4
loop_
 _symmetry_equiv_pos_site_id
 _symmetry_equiv_pos_as_xyz
  1  'x, y, z'
loop_
 _atom_site_type_symbol
 _atom_site_label
 _atom_site_symmetry_multiplicity
 _atom_site_fract_x
 _atom_site_fract_y
 _atom_site_fract_z
 _atom_site_occupancy
  Li  Li0  1  0.88672500  0.10147200  0.12861000  1
  Li  Li1  1  0.23195400  0.11596700  0.17000000  1
  Li  Li2  1  0.88674800  0.78527900  0.12861200  1
  Li  Li3  1  0.11327500  0.89852800  0.62861000  1
  Li  Li4  1  0.76804600  0.88403300  0.67000000  1
  Li  Li5  1  0.11325200  0.21472100  0.62861200  1
  Li  Li6  1  0.76537700  0.16293800  0.28553600  1
  Li  Li7  1  0.19478600  0.09737400  0.37169500  1
  Li  Li8  1  0.76540900  0.60241800  0.28552600  1
  Li  Li9  1  0.23462300  0.83706200  0.78553600  1
  Li  Li10  1  0.80521400  0.90262600  0.87169500  1
  Li  Li11  1  0.23459100  0.39758200  0.78552600  1
  H  H0  1  0.20216600  0.42752300  0.22861700  1
  H  H1  1  0.20217900  0.77462400  0.22861900  1
  H  H2  1  0.53029000  0.76513600  0.22132300  1
  H  H3  1  0.79783400  0.57247700  0.72861700  1
  H  H4  1  0.79782100  0.22537600  0.72861900  1
  H  H5  1  0.46971000  0.23486400  0.72132300  1
  H  H6  1  0.09344400  0.31097400  0.34199400  1
  H  H7  1  0.09344500  0.78246600  0.34199400  1
  H  H8  1  0.70908700  0.85454000  0.32032100  1
  H  H9  1  0.90655600  0.68902600  0.84199400  1
  H  H10  1  0.90655500  0.21753400  0.84199400  1
  H  H11  1  0.29091300  0.14546000  0.82032100  1
  H  H12  1  0.11873100  0.16863400  0.98438300  1
  H  H13  1  0.11873800  0.95008800  0.98437900  1
  H  H14  1  0.88126900  0.83136600  0.48438300  1
  H  H15  1  0.88126200  0.04991200  0.48437900  1
  I  I0  1  0.33466400  0.66733300  0.58884400  1
  I  I1  1  0.66533600  0.33266700  0.08884400  1
  I  I2  1  0.35525200  0.67764100  0.95914700  1
  I  I3  1  0.64474800  0.32235900  0.45914700  1
  N  N0  1  0.10688800  0.83032800  0.25901300  1
  N  N1  1  0.69281900  0.84641100  0.23360400  1
  N  N2  1  0.10687900  0.27654200  0.25901400  1
  N  N3  1  0.89311200  0.16967200  0.75901300  1
  N  N4  1  0.30718100  0.15358900  0.73360400  1
  N  N5  1  0.89312100  0.72345800  0.75901400  1
  N  N6  1  0.02866900  0.01433300  0.01156800  1
  N  N7  1  0.97133100  0.98566700  0.51156800  1
loop_
_geom_bond_atom_site_label_1
_geom_bond_atom_site_label_2
_geom_bond_distance
_geom_bond_site_symmetry_2
Li0 N6 2.012500 1_655
Li0 N1 2.085428 1_545
Li0 N2 2.120217 1_655
Li0 Li6 2.199321 1_555
Li1 N2 2.096193 1_555
Li1 N0 2.096234 1_545
Li1 N6 2.265285 1_555
Li2 N6 2.012469 1_665
Li2 N1 2.085333 1_555
Li2 N0 2.120128 1_655
Li2 Li8 2.199388 1_555
Li3 N7 2.012500 1_455
Li3 N4 2.085428 1_565
Li3 N5 2.120217 1_455
Li3 Li9 2.199321 1_555
Li4 N5 2.096193 1_555
Li4 N3 2.096234 1_565
Li4 N7 2.265285 1_555
Li5 N7 2.012469 1_445
Li5 N4 2.085333 1_555
Li5 N3 2.120128 1_455
Li6 N2 2.187521 1_655
Li6 N1 2.191367 1_545
Li7 N7 2.164529 1_445
Li7 N0 2.181676 1_545
Li7 N2 2.181746 1_555
Li8 N0 2.187471 1_655
Li8 N1 2.191576 1_555
Li9 N5 2.187521 1_455
Li9 N4 2.191367 1_565
Li10 N6 2.164529 1_666
Li10 N3 2.181676 1_565
Li10 N5 2.181746 1_555
Li11 N3 2.187471 1_455
Li11 N4 2.191576 1_555
Li11 Li5 2.199388 1_555
H0 N2 1.027097 1_555
H1 N0 1.027088 1_555
H2 N1 1.021265 1_555
H3 N5 1.027097 1_555
H4 N3 1.027088 1_555
H5 N4 1.021265 1_555
H6 N2 1.033022 1_555
H6 Li7 2.067023 1_555
H6 Li6 2.150672 1_455
H7 N0 1.033022 1_555
H7 Li7 2.066893 1_565
H7 Li8 2.150559 1_455
H8 N1 1.033780 1_555
H8 Li6 2.124107 1_565
H8 Li8 2.124317 1_555
H9 N5 1.033022 1_555
H9 Li10 2.067023 1_555
H9 Li9 2.150672 1_655
H10 N3 1.033022 1_555
H10 Li10 2.066893 1_545
H10 Li11 2.150559 1_655
H11 N4 1.033780 1_555
H11 Li9 2.124107 1_545
H11 Li11 2.124317 1_555
H12 N6 1.029168 1_556
H13 N6 1.029185 1_566
H14 N7 1.029168 1_555
H15 N7 1.029185 1_545
I0 Li4 2.862149 1_555
I0 Li3 2.897655 1_555
I0 Li5 2.898039 1_555
I0 Li11 2.902683 1_555
I0 Li9 2.902818 1_555
I1 Li1 2.862149 1_555
I1 Li0 2.897655 1_555
I1 Li2 2.898039 1_555
I1 Li8 2.902683 1_555
I1 Li6 2.902818 1_555
I2 Li9 2.720051 1_555
I2 Li11 2.720242 1_555
I2 Li10 2.984596 1_555
I3 Li6 2.720051 1_555
I3 Li8 2.720242 1_555
I3 Li7 2.984596 1_555
