# generated using pymatgen
data_Pr2ScNbO7
_symmetry_space_group_name_H-M   'P 1'
_cell_length_a   7.56656850
_cell_length_b   7.56656850
_cell_length_c   7.56656850
_cell_angle_alpha   120.48140725
_cell_angle_beta   119.51348676
_cell_angle_gamma   90.00646574
_symmetry_Int_Tables_number   1
_chemical_formula_structural   Pr2ScNbO7
_chemical_formula_sum   'Pr4 Sc2 Nb2 O14'
_cell_volume   306.30912417
_cell_formula_units_Z   2
loop_
 _symmetry_equiv_pos_site_id
 _symmetry_equiv_pos_as_xyz
  1  'x, y, z'
loop_
 _atom_site_type_symbol
 _atom_site_label
 _atom_site_symmetry_multiplicity
 _atom_site_fract_x
 _atom_site_fract_y
 _atom_site_fract_z
 _atom_site_occupancy
  Pr  Pr0  1  0.50000000  0.50000000  0.50000000  1
  Pr  Pr1  1  0.50000000  0.00000000  0.00000000  1
  Pr  Pr2  1  0.50000000  0.50000000  0.00000000  1
  Pr  Pr3  1  0.00000000  0.50000000  0.50000000  1
  Sc  Sc0  1  0.00000000  0.00000000  0.50000000  1
  Sc  Sc1  1  0.00000000  0.50000000  0.00000000  1
  Nb  Nb0  1  0.00000000  0.00000000  0.00000000  1
  Nb  Nb1  1  0.50000000  0.00000000  0.50000000  1
  O  O0  1  0.32034400  0.07034400  0.25000000  1
  O  O1  1  0.90803800  0.65803800  0.25000000  1
  O  O2  1  0.33908600  0.67841700  0.26599100  1
  O  O3  1  0.91242500  0.07309500  0.23400900  1
  O  O4  1  0.33908600  0.07309500  0.66067000  1
  O  O5  1  0.91242500  0.67841700  0.83933000  1
  O  O6  1  0.67965600  0.92965600  0.75000000  1
  O  O7  1  0.09196200  0.34196200  0.75000000  1
  O  O8  1  0.66091400  0.32158300  0.73400900  1
  O  O9  1  0.08757500  0.92690500  0.76599100  1
  O  O10  1  0.66091400  0.92690500  0.33933000  1
  O  O11  1  0.08757500  0.32158300  0.16067000  1
  O  O12  1  0.37717100  0.62717100  0.75000000  1
  O  O13  1  0.62282900  0.37282900  0.25000000  1
loop_
_geom_bond_atom_site_label_1
_geom_bond_atom_site_label_2
_geom_bond_distance
_geom_bond_site_symmetry_2
Nb0 O11 2.010650 1_555
Nb0 O5 2.010650 1_444
Nb0 O3 2.010657 1_455
Nb0 O9 2.010657 1_544
Nb0 O6 2.048807 1_444
Nb0 O0 2.048807 1_555
Nb1 O2 2.010651 1_545
Nb1 O8 2.010651 1_555
Nb1 O4 2.010657 1_555
Nb1 O10 2.010657 1_545
Nb1 O6 2.048807 1_545
Nb1 O0 2.048807 1_555
O0 Pr1 2.687335 1_555
O0 Pr0 2.687335 1_555
O1 Sc1 2.120054 1_655
O1 Sc0 2.120054 1_665
O1 Pr3 2.547674 1_655
O1 Pr2 2.547674 1_555
O2 Sc1 2.147348 1_555
O2 Pr0 2.596444 1_555
O2 Pr2 2.648385 1_555
O3 Sc0 2.147347 1_655
O3 Pr1 2.596438 1_555
O3 Pr3 2.648385 1_655
O4 Sc0 2.147347 1_555
O4 Pr1 2.596438 1_556
O4 Pr2 2.648385 1_556
O5 Sc1 2.147354 1_656
O5 Pr0 2.596438 1_555
O5 Pr3 2.648385 1_655
O6 Pr1 2.687335 1_566
O6 Pr0 2.687335 1_555
O7 Sc0 2.120054 1_555
O7 Sc1 2.120054 1_556
O7 Pr3 2.547674 1_555
O7 Pr2 2.547674 1_556
O8 Sc1 2.147348 1_656
O8 Pr0 2.596444 1_555
O8 Pr2 2.648385 1_556
O9 Sc0 2.147347 1_565
O9 Pr1 2.596438 1_566
O9 Pr3 2.648385 1_555
O10 Sc0 2.147347 1_665
O10 Pr1 2.596438 1_565
O10 Pr2 2.648385 1_555
O11 Sc1 2.147354 1_555
O11 Pr0 2.596438 1_555
O11 Pr3 2.648385 1_555
O12 Pr1 2.292098 1_566
O12 Pr0 2.292098 1_555
O12 Pr3 2.341516 1_555
O12 Pr2 2.341516 1_556
O13 Pr0 2.292098 1_555
O13 Pr1 2.292098 1_555
O13 Pr2 2.341516 1_555
O13 Pr3 2.341516 1_655
