# generated using pymatgen
data_Ho5In3
_symmetry_space_group_name_H-M   'P 1'
_cell_length_a   6.12519800
_cell_length_b   9.11267708
_cell_length_c   9.11267708
_cell_angle_alpha   83.51457059
_cell_angle_beta   70.36170442
_cell_angle_gamma   70.36170442
_symmetry_Int_Tables_number   1
_chemical_formula_structural   Ho5In3
_chemical_formula_sum   'Ho10 In6'
_cell_volume   451.19048148
_cell_formula_units_Z   2
loop_
 _symmetry_equiv_pos_site_id
 _symmetry_equiv_pos_as_xyz
  1  'x, y, z'
loop_
 _atom_site_type_symbol
 _atom_site_label
 _atom_site_symmetry_multiplicity
 _atom_site_fract_x
 _atom_site_fract_y
 _atom_site_fract_z
 _atom_site_occupancy
  Ho  Ho0  1  0.71869000  0.86218300  0.70043700  1
  Ho  Ho1  1  0.28131000  0.13781700  0.29956300  1
  Ho  Ho2  1  0.78131000  0.29956300  0.13781700  1
  Ho  Ho3  1  0.21869000  0.70043700  0.86218300  1
  Ho  Ho4  1  0.58087300  0.70043700  0.13781700  1
  Ho  Ho5  1  0.41912700  0.29956300  0.86218300  1
  Ho  Ho6  1  0.08087300  0.13781700  0.70043700  1
  Ho  Ho7  1  0.91912700  0.86218300  0.29956300  1
  Ho  Ho8  1  0.75000000  0.50000000  0.50000000  1
  Ho  Ho9  1  0.25000000  0.50000000  0.50000000  1
  In  In0  1  0.16256600  0.50000000  0.17486800  1
  In  In1  1  0.83743400  0.50000000  0.82513200  1
  In  In2  1  0.33743400  0.82513200  0.50000000  1
  In  In3  1  0.66256600  0.17486800  0.50000000  1
  In  In4  1  0.25000000  0.00000000  0.00000000  1
  In  In5  1  0.75000000  0.00000000  0.00000000  1
loop_
_geom_bond_atom_site_label_1
_geom_bond_atom_site_label_2
_geom_bond_distance
_geom_bond_site_symmetry_2
Ho0 In3 3.187688 1_565
Ho0 In4 3.217793 1_566
Ho0 In5 3.217793 1_566
Ho0 In1 3.287551 1_555
Ho0 Ho7 3.440549 1_555
Ho0 In2 3.527035 1_555
Ho0 In2 3.527035 1_655
Ho0 Ho3 3.637820 1_655
Ho0 Ho3 3.637820 1_555
Ho0 Ho8 3.868703 1_555
Ho0 Ho9 3.868703 1_655
Ho0 Ho6 3.869867 1_565
Ho0 Ho6 3.869867 1_665
Ho0 Ho4 4.002327 1_556
Ho0 Ho5 4.002327 1_565
Ho1 In2 3.187688 1_545
Ho1 In4 3.217793 1_555
Ho1 In5 3.217793 1_555
Ho1 In0 3.287551 1_555
Ho1 Ho6 3.440549 1_555
Ho1 In3 3.527035 1_455
Ho1 In3 3.527035 1_555
Ho1 Ho2 3.637820 1_455
Ho1 Ho2 3.637820 1_555
Ho1 Ho8 3.868703 1_455
Ho1 Ho9 3.868703 1_555
Ho1 Ho7 3.869867 1_545
Ho1 Ho7 3.869867 1_445
Ho1 Ho4 4.002327 1_545
Ho1 Ho5 4.002327 1_554
Ho2 In1 3.187688 1_554
Ho2 In5 3.217793 1_555
Ho2 In4 3.217793 1_655
Ho2 In3 3.287551 1_555
Ho2 Ho4 3.440549 1_555
Ho2 In0 3.527035 1_555
Ho2 In0 3.527035 1_655
Ho2 Ho9 3.868703 1_555
Ho2 Ho8 3.868703 1_555
Ho2 Ho5 3.869867 1_654
Ho2 Ho5 3.869867 1_554
Ho2 Ho7 4.002327 1_545
Ho2 Ho6 4.002327 1_654
Ho3 In0 3.187688 1_556
Ho3 In5 3.217793 1_466
Ho3 In4 3.217793 1_566
Ho3 In2 3.287551 1_555
Ho3 Ho5 3.440549 1_555
Ho3 In1 3.527035 1_455
Ho3 In1 3.527035 1_555
Ho3 Ho9 3.868703 1_555
Ho3 Ho8 3.868703 1_555
Ho3 Ho4 3.869867 1_456
Ho3 Ho4 3.869867 1_556
Ho3 Ho7 4.002327 1_456
Ho3 Ho6 4.002327 1_565
Ho4 In1 3.187688 1_554
Ho4 In4 3.217793 1_565
Ho4 In5 3.217793 1_565
Ho4 In2 3.287551 1_555
Ho4 In0 3.527035 1_555
Ho4 In0 3.527035 1_655
Ho4 Ho7 3.637820 1_555
Ho4 Ho7 3.637820 1_455
Ho4 Ho9 3.868703 1_555
Ho4 Ho8 3.868703 1_555
Ho5 In0 3.187688 1_556
Ho5 In4 3.217793 1_556
Ho5 In5 3.217793 1_556
Ho5 In3 3.287551 1_555
Ho5 In1 3.527035 1_455
Ho5 In1 3.527035 1_555
Ho5 Ho6 3.637820 1_555
Ho5 Ho6 3.637820 1_655
Ho5 Ho9 3.868703 1_555
Ho5 Ho8 3.868703 1_555
Ho6 In2 3.187688 1_545
Ho6 In5 3.217793 1_456
Ho6 In4 3.217793 1_556
Ho6 In1 3.287551 1_455
Ho6 In3 3.527035 1_455
Ho6 In3 3.527035 1_555
Ho6 Ho9 3.868703 1_555
Ho6 Ho8 3.868703 1_455
Ho7 In3 3.187688 1_565
Ho7 In5 3.217793 1_565
Ho7 In4 3.217793 1_665
Ho7 In0 3.287551 1_655
Ho7 In2 3.527035 1_555
Ho7 In2 3.527035 1_655
Ho7 Ho8 3.868703 1_555
Ho7 Ho9 3.868703 1_655
Ho8 Ho9 3.062599 1_655
Ho8 Ho9 3.062599 1_555
Ho8 In2 3.183030 1_555
Ho8 In3 3.183030 1_555
Ho8 In0 3.183030 1_655
Ho8 In1 3.183030 1_555
Ho9 In0 3.183030 1_555
Ho9 In3 3.183030 1_555
Ho9 In1 3.183030 1_455
Ho9 In2 3.183030 1_555
In4 In5 3.062599 1_555
In4 In5 3.062599 1_455
