# generated using pymatgen
data_Cs3Ca
_symmetry_space_group_name_H-M   'P 1'
_cell_length_a   10.19121827
_cell_length_b   10.19121827
_cell_length_c   7.96734100
_cell_angle_alpha   90.00000000
_cell_angle_beta   90.00000000
_cell_angle_gamma   120.00000178
_symmetry_Int_Tables_number   1
_chemical_formula_structural   Cs3Ca
_chemical_formula_sum   'Cs6 Ca2'
_cell_volume   716.63206419
_cell_formula_units_Z   2
loop_
 _symmetry_equiv_pos_site_id
 _symmetry_equiv_pos_as_xyz
  1  'x, y, z'
loop_
 _atom_site_type_symbol
 _atom_site_label
 _atom_site_symmetry_multiplicity
 _atom_site_fract_x
 _atom_site_fract_y
 _atom_site_fract_z
 _atom_site_occupancy
  Cs  Cs0  1  0.17319500  0.34639100  0.25000000  1
  Cs  Cs1  1  0.65360900  0.82680500  0.25000000  1
  Cs  Cs2  1  0.17319500  0.82680500  0.25000000  1
  Cs  Cs3  1  0.82680500  0.65360900  0.75000000  1
  Cs  Cs4  1  0.34639100  0.17319500  0.75000000  1
  Cs  Cs5  1  0.82680500  0.17319500  0.75000000  1
  Ca  Ca0  1  0.33333300  0.66666700  0.75000000  1
  Ca  Ca1  1  0.66666700  0.33333300  0.25000000  1
loop_
_geom_bond_atom_site_label_1
_geom_bond_atom_site_label_2
_geom_bond_distance
_geom_bond_site_symmetry_2
Cs0 Cs1 4.896004 1_555
Cs0 Cs2 4.896004 1_555
Cs0 Cs5 5.021556 1_455
Cs0 Cs5 5.021556 1_454
Cs0 Cs4 5.021567 1_555
Cs0 Cs4 5.021567 1_554
Cs0 Cs1 5.295214 1_445
Cs0 Cs2 5.295214 1_545
Cs1 Cs2 4.896004 1_555
Cs1 Cs5 5.021556 1_564
Cs1 Cs5 5.021556 1_565
Cs1 Cs3 5.021567 1_554
Cs1 Cs3 5.021567 1_555
Cs1 Cs2 5.295214 1_655
Cs2 Cs3 5.021556 1_454
Cs2 Cs4 5.021556 1_564
Cs2 Cs4 5.021556 1_565
Cs2 Cs3 5.021556 1_455
Cs3 Cs4 4.896004 1_555
Cs3 Cs5 4.896004 1_555
Cs3 Cs4 5.295214 1_665
Cs3 Cs5 5.295214 1_565
Cs4 Cs5 4.896004 1_555
Cs4 Cs5 5.295214 1_455
Ca0 Cs0 4.884661 1_556
Ca0 Cs1 4.884661 1_555
Ca0 Cs1 4.884661 1_556
Ca0 Cs0 4.884661 1_555
Ca0 Cs2 4.884661 1_555
Ca0 Cs2 4.884661 1_556
Ca1 Cs3 4.884661 1_554
Ca1 Cs4 4.884661 1_554
Ca1 Cs3 4.884661 1_555
Ca1 Cs4 4.884661 1_555
Ca1 Cs5 4.884661 1_555
Ca1 Cs5 4.884661 1_554
