# generated using pymatgen
data_Ni2As3Pd4
_symmetry_space_group_name_H-M   'P 1'
_cell_length_a   3.72149400
_cell_length_b   6.33057748
_cell_length_c   6.66316009
_cell_angle_alpha   121.75911825
_cell_angle_beta   90.00000000
_cell_angle_gamma   90.00000000
_symmetry_Int_Tables_number   1
_chemical_formula_structural   Ni2As3Pd4
_chemical_formula_sum   'Ni2 As3 Pd4'
_cell_volume   133.47409181
_cell_formula_units_Z   1
loop_
 _symmetry_equiv_pos_site_id
 _symmetry_equiv_pos_as_xyz
  1  'x, y, z'
loop_
 _atom_site_type_symbol
 _atom_site_label
 _atom_site_symmetry_multiplicity
 _atom_site_fract_x
 _atom_site_fract_y
 _atom_site_fract_z
 _atom_site_occupancy
  Ni  Ni0  1  0.00000000  0.25471600  0.99512000  1
  Ni  Ni1  1  0.00000000  0.74542700  0.74025300  1
  As  As0  1  0.50000000  0.99998000  0.98159300  1
  As  As1  1  0.00000000  0.34275700  0.68442900  1
  As  As2  1  0.00000000  0.65718600  0.34163700  1
  Pd  Pd0  1  0.00000000  0.99996300  0.25596600  1
  Pd  Pd1  1  0.50000000  0.59303900  0.99544500  1
  Pd  Pd2  1  0.50000000  0.40691500  0.40246000  1
  Pd  Pd3  1  0.50000000  0.99991800  0.60309600  1
loop_
_geom_bond_atom_site_label_1
_geom_bond_atom_site_label_2
_geom_bond_distance
_geom_bond_site_symmetry_2
Ni0 Pd1 2.836322 1_555
Ni0 Pd1 2.836322 1_455
Ni0 Pd3 2.907221 1_445
Ni0 Pd3 2.907221 1_545
Ni0 Pd0 2.927883 1_546
Ni0 Pd2 3.000753 1_556
Ni0 Pd2 3.000753 1_456
Ni1 Pd2 2.836047 1_555
Ni1 Pd2 2.836047 1_455
Ni1 Pd3 2.905702 1_555
Ni1 Pd3 2.905702 1_455
Ni1 Pd0 2.928415 1_556
Ni1 Pd1 3.001859 1_555
Ni1 Pd1 3.001859 1_455
As0 Ni1 2.432531 1_655
As0 Ni1 2.432531 1_555
As0 Ni0 2.432705 1_565
As0 Ni0 2.432705 1_665
As0 Pd3 2.521780 1_555
As0 Pd0 2.608615 1_556
As0 Pd0 2.608615 1_656
As0 Pd1 2.625926 1_555
As0 Pd2 2.625951 1_566
As1 Ni1 2.374507 1_555
As1 Ni0 2.410586 1_555
As1 Pd0 2.517522 1_545
As1 Pd1 2.609770 1_455
As1 Pd1 2.609770 1_555
As1 Pd3 2.688567 1_445
As1 Pd3 2.688567 1_545
As1 Pd2 2.821445 1_555
As1 Pd2 2.821445 1_455
As2 Ni0 2.372733 1_554
As2 Ni1 2.409298 1_555
As2 Pd0 2.517666 1_555
As2 Pd2 2.610126 1_455
As2 Pd2 2.610126 1_555
As2 Pd3 2.688102 1_455
As2 Pd3 2.688102 1_555
As2 Pd1 2.821737 1_454
As2 Pd1 2.821737 1_554
Pd0 Pd1 2.899031 1_454
Pd0 Pd1 2.899031 1_554
Pd0 Pd2 2.899133 1_565
Pd0 Pd2 2.899133 1_465
Pd0 Pd3 2.968663 1_455
Pd0 Pd3 2.968663 1_555
