# generated using pymatgen
data_FeAg3
_symmetry_space_group_name_H-M   'P 1'
_cell_length_a   5.77704635
_cell_length_b   5.77704635
_cell_length_c   4.63966600
_cell_angle_alpha   90.00000000
_cell_angle_beta   90.00000000
_cell_angle_gamma   120.00000402
_symmetry_Int_Tables_number   1
_chemical_formula_structural   FeAg3
_chemical_formula_sum   'Fe2 Ag6'
_cell_volume   134.10007967
_cell_formula_units_Z   2
loop_
 _symmetry_equiv_pos_site_id
 _symmetry_equiv_pos_as_xyz
  1  'x, y, z'
loop_
 _atom_site_type_symbol
 _atom_site_label
 _atom_site_symmetry_multiplicity
 _atom_site_fract_x
 _atom_site_fract_y
 _atom_site_fract_z
 _atom_site_occupancy
  Fe  Fe0  1  0.33333300  0.66666700  0.75000000  1
  Fe  Fe1  1  0.66666700  0.33333300  0.25000000  1
  Ag  Ag0  1  0.16940600  0.33881200  0.25000000  1
  Ag  Ag1  1  0.66118800  0.83059400  0.25000000  1
  Ag  Ag2  1  0.16940600  0.83059400  0.25000000  1
  Ag  Ag3  1  0.83059400  0.66118800  0.75000000  1
  Ag  Ag4  1  0.33881200  0.16940600  0.75000000  1
  Ag  Ag5  1  0.83059400  0.16940600  0.75000000  1
loop_
_geom_bond_atom_site_label_1
_geom_bond_atom_site_label_2
_geom_bond_distance
_geom_bond_site_symmetry_2
Ag0 Ag1 2.841047 1_555
Ag0 Ag2 2.841047 1_555
Ag0 Fe0 2.841152 1_554
Ag0 Fe0 2.841152 1_555
Ag0 Ag5 2.873150 1_455
Ag0 Ag5 2.873150 1_454
Ag0 Ag4 2.873150 1_555
Ag0 Ag4 2.873150 1_554
Ag0 Fe1 2.888650 1_455
Ag0 Fe1 2.888656 1_555
Ag0 Ag1 2.935999 1_445
Ag0 Ag2 2.935999 1_545
Ag1 Ag2 2.841047 1_555
Ag1 Fe0 2.841152 1_554
Ag1 Fe0 2.841152 1_555
Ag1 Ag5 2.873150 1_565
Ag1 Ag5 2.873150 1_564
Ag1 Ag3 2.873150 1_554
Ag1 Ag3 2.873150 1_555
Ag1 Fe1 2.888650 1_565
Ag1 Fe1 2.888656 1_555
Ag1 Ag2 2.935999 1_655
Ag2 Fe0 2.841150 1_555
Ag2 Fe0 2.841150 1_554
Ag2 Ag4 2.873150 1_564
Ag2 Ag4 2.873150 1_565
Ag2 Ag3 2.873150 1_454
Ag2 Ag3 2.873150 1_455
Ag2 Fe1 2.888653 1_455
Ag2 Fe1 2.888653 1_565
Ag3 Ag4 2.841047 1_555
Ag3 Ag5 2.841047 1_555
Ag3 Fe1 2.841152 1_556
Ag3 Fe1 2.841152 1_555
Ag3 Fe0 2.888650 1_655
Ag3 Fe0 2.888656 1_555
Ag3 Ag4 2.935999 1_665
Ag3 Ag5 2.935999 1_565
Ag4 Ag5 2.841047 1_555
Ag4 Fe1 2.841152 1_556
Ag4 Fe1 2.841152 1_555
Ag4 Fe0 2.888650 1_545
Ag4 Fe0 2.888656 1_555
Ag4 Ag5 2.935999 1_455
Ag5 Fe1 2.841150 1_556
Ag5 Fe1 2.841150 1_555
Ag5 Fe0 2.888653 1_545
Ag5 Fe0 2.888653 1_655
