# generated using pymatgen
data_Sn3Ir2Se3
_symmetry_space_group_name_H-M   'P 1'
_cell_length_a   9.02740976
_cell_length_b   9.02740977
_cell_length_c   9.02740882
_cell_angle_alpha   89.94148377
_cell_angle_beta   89.94148376
_cell_angle_gamma   89.94148800
_symmetry_Int_Tables_number   1
_chemical_formula_structural   Sn3Ir2Se3
_chemical_formula_sum   'Sn12 Ir8 Se12'
_cell_volume   735.67965165
_cell_formula_units_Z   4
loop_
 _symmetry_equiv_pos_site_id
 _symmetry_equiv_pos_as_xyz
  1  'x, y, z'
loop_
 _atom_site_type_symbol
 _atom_site_label
 _atom_site_symmetry_multiplicity
 _atom_site_fract_x
 _atom_site_fract_y
 _atom_site_fract_z
 _atom_site_occupancy
  Sn  Sn0  1  0.50062828  0.34958985  0.16796160  1
  Sn  Sn1  1  0.16796160  0.50062828  0.34958985  1
  Sn  Sn2  1  0.34958985  0.16796160  0.50062828  1
  Sn  Sn3  1  0.49937172  0.65041015  0.83203840  1
  Sn  Sn4  1  0.83203840  0.49937172  0.65041015  1
  Sn  Sn5  1  0.65041015  0.83203840  0.49937172  1
  Sn  Sn6  1  0.99837109  0.84882730  0.33259828  1
  Sn  Sn7  1  0.33259828  0.99837109  0.84882730  1
  Sn  Sn8  1  0.84882730  0.33259828  0.99837109  1
  Sn  Sn9  1  0.00162891  0.15117270  0.66740172  1
  Sn  Sn10  1  0.66740172  0.00162891  0.15117270  1
  Sn  Sn11  1  0.15117270  0.66740172  0.00162891  1
  Ir  Ir0  1  0.24587803  0.24587803  0.24587803  1
  Ir  Ir1  1  0.75412197  0.75412197  0.75412197  1
  Ir  Ir2  1  0.24482019  0.74545726  0.74492213  1
  Ir  Ir3  1  0.74492213  0.24482019  0.74545726  1
  Ir  Ir4  1  0.74545726  0.74492213  0.24482019  1
  Ir  Ir5  1  0.75517981  0.25454274  0.25507787  1
  Ir  Ir6  1  0.25507787  0.75517981  0.25454274  1
  Ir  Ir7  1  0.25454274  0.25507787  0.75517981  1
  Se  Se0  1  0.65299487  0.99858791  0.85193029  1
  Se  Se1  1  0.85193029  0.65299487  0.99858791  1
  Se  Se2  1  0.99858791  0.85193029  0.65299487  1
  Se  Se3  1  0.34700513  0.00141209  0.14806971  1
  Se  Se4  1  0.14806971  0.34700513  0.00141209  1
  Se  Se5  1  0.00141209  0.14806971  0.34700513  1
  Se  Se6  1  0.15250435  0.49962245  0.64900617  1
  Se  Se7  1  0.64900617  0.15250435  0.49962245  1
  Se  Se8  1  0.49962245  0.64900617  0.15250435  1
  Se  Se9  1  0.84749565  0.50037755  0.35099383  1
  Se  Se10  1  0.35099383  0.84749565  0.50037755  1
  Se  Se11  1  0.50037755  0.35099383  0.84749565  1
loop_
_geom_bond_atom_site_label_1
_geom_bond_atom_site_label_2
_geom_bond_distance
_geom_bond_site_symmetry_2
Ir0 Se4 2.545904 1_555
Ir0 Se5 2.545904 1_555
Ir0 Se3 2.545904 1_555
Ir0 Sn2 2.580666 1_555
Ir0 Sn0 2.580667 1_555
Ir0 Sn1 2.580667 1_555
Ir1 Se1 2.545904 1_555
Ir1 Se2 2.545904 1_555
Ir1 Se0 2.545904 1_555
Ir1 Sn5 2.580666 1_555
Ir1 Sn3 2.580667 1_555
Ir1 Sn4 2.580667 1_555
Ir2 Se6 2.525569 1_555
Ir2 Se2 2.559556 1_455
Ir2 Sn11 2.564258 1_556
Ir2 Sn3 2.575560 1_555
Ir2 Se10 2.575658 1_555
Ir2 Sn7 2.594251 1_555
Ir3 Se7 2.525569 1_555
Ir3 Se0 2.559556 1_545
Ir3 Sn9 2.564258 1_655
Ir3 Sn4 2.575560 1_555
Ir3 Se11 2.575659 1_555
Ir3 Sn8 2.594251 1_555
Ir4 Se8 2.525569 1_555
Ir4 Se1 2.559556 1_554
Ir4 Sn10 2.564258 1_565
Ir4 Sn5 2.575560 1_555
Ir4 Se9 2.575659 1_555
Ir4 Sn6 2.594251 1_555
Ir5 Se9 2.525569 1_555
Ir5 Se5 2.559556 1_655
Ir5 Sn8 2.564258 1_554
Ir5 Sn0 2.575560 1_555
Ir5 Se7 2.575658 1_555
Ir5 Sn10 2.594251 1_555
Ir6 Se10 2.525569 1_555
Ir6 Se3 2.559556 1_565
Ir6 Sn6 2.564258 1_455
Ir6 Sn1 2.575560 1_555
Ir6 Se8 2.575659 1_555
Ir6 Sn11 2.594251 1_555
Ir7 Se11 2.525569 1_555
Ir7 Se4 2.559556 1_556
Ir7 Sn7 2.564258 1_545
Ir7 Sn2 2.575560 1_555
Ir7 Se6 2.575659 1_555
Ir7 Sn9 2.594251 1_555
Se0 Sn10 2.704814 1_566
Se0 Sn7 2.892518 1_555
Se1 Sn11 2.704814 1_656
Se1 Sn8 2.892518 1_555
Se2 Sn9 2.704814 1_665
Se2 Sn6 2.892518 1_555
Se3 Sn7 2.704814 1_544
Se3 Sn10 2.892518 1_555
Se4 Sn8 2.704814 1_454
Se4 Sn11 2.892518 1_555
Se5 Sn6 2.704814 1_445
Se5 Sn9 2.892518 1_555
Se6 Sn1 2.706417 1_555
Se6 Sn4 2.892995 1_455
Se7 Sn2 2.706417 1_555
Se7 Sn5 2.892995 1_545
Se8 Sn0 2.706417 1_555
Se8 Sn3 2.892995 1_554
Se9 Sn4 2.706417 1_555
Se9 Sn1 2.892995 1_655
Se10 Sn5 2.706417 1_555
Se10 Sn2 2.892995 1_565
Se11 Sn3 2.706417 1_555
Se11 Sn0 2.892995 1_556
