# generated using pymatgen
data_MgSi
_symmetry_space_group_name_H-M   'P 1'
_cell_length_a   5.47217900
_cell_length_b   5.92829261
_cell_length_c   13.86498459
_cell_angle_alpha   82.70734411
_cell_angle_beta   84.99790528
_cell_angle_gamma   88.32284955
_symmetry_Int_Tables_number   1
_chemical_formula_structural   MgSi
_chemical_formula_sum   'Mg12 Si12'
_cell_volume   444.37647884
_cell_formula_units_Z   12
loop_
 _symmetry_equiv_pos_site_id
 _symmetry_equiv_pos_as_xyz
  1  'x, y, z'
loop_
 _atom_site_type_symbol
 _atom_site_label
 _atom_site_symmetry_multiplicity
 _atom_site_fract_x
 _atom_site_fract_y
 _atom_site_fract_z
 _atom_site_occupancy
  Mg  Mg0  1  0.74355800  0.49043600  0.72867500  1
  Mg  Mg1  1  0.69269800  0.56999600  0.40676400  1
  Mg  Mg2  1  0.48791100  0.72614500  0.06636400  1
  Mg  Mg3  1  0.88827000  0.98817200  0.73276800  1
  Mg  Mg4  1  0.64716900  0.06999700  0.40409700  1
  Mg  Mg5  1  0.97837800  0.22310400  0.06575700  1
  Mg  Mg6  1  0.35283100  0.93000300  0.59590300  1
  Mg  Mg7  1  0.25644200  0.50956400  0.27132500  1
  Mg  Mg8  1  0.51208900  0.27385500  0.93363600  1
  Mg  Mg9  1  0.30730200  0.43000400  0.59323600  1
  Mg  Mg10  1  0.11173000  0.01182800  0.26723200  1
  Mg  Mg11  1  0.02162200  0.77689600  0.93424300  1
  Si  Si0  1  0.25511000  0.61097100  0.77048000  1
  Si  Si1  1  0.17553100  0.75436400  0.43801000  1
  Si  Si2  1  0.97858300  0.71688900  0.12921700  1
  Si  Si3  1  0.36124400  0.12687600  0.76715300  1
  Si  Si4  1  0.16231000  0.20824800  0.43614400  1
  Si  Si5  1  0.46157600  0.21508200  0.13064400  1
  Si  Si6  1  0.82446900  0.24563600  0.56199000  1
  Si  Si7  1  0.63875600  0.87312400  0.23284700  1
  Si  Si8  1  0.02141700  0.28311100  0.87078300  1
  Si  Si9  1  0.83769000  0.79175200  0.56385600  1
  Si  Si10  1  0.74489000  0.38902900  0.22952000  1
  Si  Si11  1  0.53842400  0.78491800  0.86935600  1
loop_
_geom_bond_atom_site_label_1
_geom_bond_atom_site_label_2
_geom_bond_distance
_geom_bond_site_symmetry_2
Mg0 Si9 2.736900 1_555
Mg0 Si8 2.739154 1_655
Mg0 Si0 2.777412 1_555
Mg0 Si6 2.877273 1_555
Mg0 Si11 2.912108 1_555
Mg0 Si3 3.013988 1_555
Mg0 Si0 3.031148 1_655
Mg1 Si10 2.792984 1_555
Mg1 Si6 2.826357 1_555
Mg1 Si7 2.850273 1_555
Mg1 Si9 2.862021 1_555
Mg1 Mg4 2.963138 1_565
Mg1 Si1 2.975251 1_655
Mg1 Mg4 2.987010 1_555
Mg1 Si1 3.019392 1_555
Mg2 Si11 2.700244 1_554
Mg2 Si7 2.766542 1_555
Mg2 Si2 2.846721 1_455
Mg2 Si2 2.891226 1_555
Mg2 Si5 3.051555 1_555
Mg2 Si5 3.134602 1_565
Mg3 Si6 2.693257 1_565
Mg3 Si11 2.761670 1_555
Mg3 Si9 2.782363 1_555
Mg3 Si3 2.835750 1_665
Mg3 Si8 2.901201 1_665
Mg3 Si0 2.987801 1_655
Mg3 Si3 2.990271 1_565
Mg3 Mg6 3.075073 1_655
Mg4 Si4 2.769188 1_555
Mg4 Si7 2.779875 1_545
Mg4 Si6 2.797544 1_555
Mg4 Si9 2.844076 1_545
Mg4 Si10 2.897092 1_555
Mg4 Mg6 3.020983 1_545
Mg4 Si4 3.043308 1_655
Mg4 Si1 3.198597 1_545
Mg5 Si8 2.672011 1_654
Mg5 Si10 2.782643 1_555
Mg5 Si5 2.863522 1_655
Mg5 Si5 2.891841 1_555
Mg5 Si2 3.018235 1_545
Mg5 Si2 3.161887 1_555
Mg6 Si9 2.769188 1_555
Mg6 Si3 2.779875 1_565
Mg6 Si1 2.797544 1_555
Mg6 Si4 2.844076 1_565
Mg6 Si0 2.897092 1_555
Mg6 Mg9 2.963138 1_565
Mg6 Mg9 2.987010 1_555
Mg6 Si9 3.043308 1_455
Mg6 Si6 3.198597 1_565
Mg7 Si4 2.736900 1_555
Mg7 Si2 2.739154 1_455
Mg7 Si10 2.777412 1_555
Mg7 Si1 2.877273 1_555
Mg7 Si5 2.912108 1_555
Mg7 Si7 3.013988 1_555
Mg7 Si10 3.031148 1_455
Mg8 Si5 2.700244 1_556
Mg8 Si3 2.766542 1_555
Mg8 Si8 2.846721 1_655
Mg8 Si8 2.891226 1_555
Mg8 Si11 3.051555 1_555
Mg8 Si11 3.134602 1_545
Mg9 Si0 2.792984 1_555
Mg9 Si1 2.826357 1_555
Mg9 Si3 2.850273 1_555
Mg9 Si4 2.862021 1_555
Mg9 Si6 2.975251 1_455
Mg9 Si6 3.019392 1_555
Mg10 Si1 2.693257 1_545
Mg10 Si5 2.761670 1_555
Mg10 Si4 2.782363 1_555
Mg10 Si7 2.835750 1_445
Mg10 Si2 2.901201 1_445
Mg10 Si10 2.987801 1_455
Mg10 Si7 2.990271 1_545
Mg10 Mg4 3.075073 1_455
Mg11 Si2 2.672011 1_456
Mg11 Si0 2.782643 1_555
Mg11 Si11 2.863522 1_455
Mg11 Si11 2.891841 1_555
Mg11 Si8 3.018235 1_565
Mg11 Si8 3.161887 1_555
Si0 Si11 2.483845 1_555
Si0 Si8 2.548785 1_555
Si1 Si9 2.454202 1_455
Si1 Si4 2.686510 1_565
Si2 Si7 2.480226 1_555
Si3 Si8 2.480226 1_555
Si4 Si6 2.454202 1_455
Si5 Si7 2.540265 1_545
Si6 Si9 2.686510 1_545
Si10 Si5 2.483845 1_555
Si10 Si2 2.548785 1_555
Si11 Si3 2.540265 1_565
