# generated using pymatgen
data_K3Na5VMo7O20
_symmetry_space_group_name_H-M   'P 1'
_cell_length_a   11.42797247
_cell_length_b   11.72108896
_cell_length_c   17.17419700
_cell_angle_alpha   110.12577079
_cell_angle_beta   108.99746279
_cell_angle_gamma   89.89680258
_symmetry_Int_Tables_number   1
_chemical_formula_structural   K3Na5VMo7O20
_chemical_formula_sum   'K12 Na20 V4 Mo28 O80'
_cell_volume   2026.54269888
_cell_formula_units_Z   4
loop_
 _symmetry_equiv_pos_site_id
 _symmetry_equiv_pos_as_xyz
  1  'x, y, z'
loop_
 _atom_site_type_symbol
 _atom_site_label
 _atom_site_symmetry_multiplicity
 _atom_site_fract_x
 _atom_site_fract_y
 _atom_site_fract_z
 _atom_site_occupancy
  K  K0  1  0.30517400  0.06598400  0.10961500  1
  K  K1  1  0.30546100  0.56392400  0.11047300  1
  K  K2  1  0.80284400  0.06525200  0.10982600  1
  K  K3  1  0.80210700  0.56504100  0.10949400  1
  K  K4  1  0.20072600  0.93385200  0.39545500  1
  K  K5  1  0.19120300  0.92235800  0.87867500  1
  K  K6  1  0.68911100  0.42733800  0.87923600  1
  K  K7  1  0.05575700  0.29549100  0.11095600  1
  K  K8  1  0.05145300  0.79305700  0.10799000  1
  K  K9  1  0.55559200  0.29450500  0.11008600  1
  K  K10  1  0.55470500  0.79479600  0.10849300  1
  K  K11  1  0.94274700  0.70254000  0.87947800  1
  Na  Na0  1  0.29798700  0.07145300  0.60796200  1
  Na  Na1  1  0.30795100  0.56961200  0.60970100  1
  Na  Na2  1  0.80250600  0.06809700  0.60418000  1
  Na  Na3  1  0.80892100  0.56767600  0.60361100  1
  Na  Na4  1  0.20003000  0.43711700  0.40525000  1
  Na  Na5  1  0.19883800  0.43048800  0.88847800  1
  Na  Na6  1  0.69846100  0.43630700  0.40374900  1
  Na  Na7  1  0.69978800  0.93520600  0.40257500  1
  Na  Na8  1  0.69807000  0.92963200  0.89273600  1
  Na  Na9  1  0.05722800  0.28954200  0.60799800  1
  Na  Na10  1  0.05718700  0.78447800  0.60569000  1
  Na  Na11  1  0.55349000  0.28905400  0.60436600  1
  Na  Na12  1  0.55074000  0.78300500  0.60376800  1
  Na  Na13  1  0.44913000  0.21786000  0.40428300  1
  Na  Na14  1  0.44264700  0.21099300  0.89120000  1
  Na  Na15  1  0.44820400  0.71784500  0.40387700  1
  Na  Na16  1  0.44914700  0.70867200  0.88869000  1
  Na  Na17  1  0.95026300  0.21824600  0.40421900  1
  Na  Na18  1  0.94608000  0.21233400  0.89301700  1
  Na  Na19  1  0.94993000  0.71688700  0.40368100  1
  V  V0  1  0.10621100  0.57966300  0.74274300  1
  V  V1  1  0.59501700  0.58833800  0.74443500  1
  V  V2  1  0.35105800  0.41214200  0.74783400  1
  V  V3  1  0.34859600  0.90961000  0.74432100  1
  Mo  Mo0  1  0.00380600  0.99796300  0.99396700  1
  Mo  Mo1  1  0.01176800  0.00167100  0.50348100  1
  Mo  Mo2  1  0.00330800  0.49481600  0.99330800  1
  Mo  Mo3  1  0.01329900  0.50075700  0.50347000  1
  Mo  Mo4  1  0.50009500  0.99462600  0.98943800  1
  Mo  Mo5  1  0.51326400  0.00270800  0.50383600  1
  Mo  Mo6  1  0.50059100  0.49547900  0.99172300  1
  Mo  Mo7  1  0.51268500  0.50149200  0.50449400  1
  Mo  Mo8  1  0.25355300  0.24796900  0.99311500  1
  Mo  Mo9  1  0.26269500  0.25489600  0.50604600  1
  Mo  Mo10  1  0.25217000  0.74373300  0.99140500  1
  Mo  Mo11  1  0.26321200  0.75178000  0.50535900  1
  Mo  Mo12  1  0.75254000  0.24504300  0.99184100  1
  Mo  Mo13  1  0.76285500  0.24982100  0.50101200  1
  Mo  Mo14  1  0.75099200  0.74674500  0.99206700  1
  Mo  Mo15  1  0.76311100  0.75124100  0.50250400  1
  Mo  Mo16  1  0.09700900  0.10406600  0.25812100  1
  Mo  Mo17  1  0.09499800  0.08971000  0.74622300  1
  Mo  Mo18  1  0.09653000  0.59218200  0.25726500  1
  Mo  Mo19  1  0.59895200  0.10082900  0.25756600  1
  Mo  Mo20  1  0.58850600  0.08331400  0.74394800  1
  Mo  Mo21  1  0.59748700  0.59843800  0.25810600  1
  Mo  Mo22  1  0.34956500  0.41031700  0.26028900  1
  Mo  Mo23  1  0.35253800  0.90962800  0.25362500  1
  Mo  Mo24  1  0.84737400  0.40961800  0.25939500  1
  Mo  Mo25  1  0.84992800  0.40737500  0.74169500  1
  Mo  Mo26  1  0.84556700  0.91103000  0.25871200  1
  Mo  Mo27  1  0.83694500  0.90992700  0.74377200  1
  O  O0  1  0.12685200  0.12505000  0.48961000  1
  O  O1  1  0.12070400  0.11940500  0.98115600  1
  O  O2  1  0.12866600  0.61855600  0.48791100  1
  O  O3  1  0.12326200  0.61179000  0.98073100  1
  O  O4  1  0.62666600  0.11747400  0.48221200  1
  O  O5  1  0.61838200  0.11057700  0.97337300  1
  O  O6  1  0.62811800  0.62012700  0.48690200  1
  O  O7  1  0.61819200  0.61856700  0.98114200  1
  O  O8  1  0.13268500  0.37633100  0.00339400  1
  O  O9  1  0.14731800  0.38766700  0.52275500  1
  O  O10  1  0.13345200  0.87633800  0.00632300  1
  O  O11  1  0.14453500  0.88330400  0.52164600  1
  O  O12  1  0.62938500  0.37281200  0.00172700  1
  O  O13  1  0.64759600  0.38648200  0.52296100  1
  O  O14  1  0.62887200  0.87470900  0.99825900  1
  O  O15  1  0.64694700  0.88657700  0.52222500  1
  O  O16  1  0.38209400  0.12282700  0.49189700  1
  O  O17  1  0.37281100  0.11698700  0.98012000  1
  O  O18  1  0.37940600  0.61763600  0.48919400  1
  O  O19  1  0.36885900  0.61167200  0.97526300  1
  O  O20  1  0.87523400  0.11322800  0.48079800  1
  O  O21  1  0.87094000  0.11446200  0.97887000  1
  O  O22  1  0.87711300  0.61571200  0.48356300  1
  O  O23  1  0.87091700  0.61503000  0.98262300  1
  O  O24  1  0.38221300  0.37827100  0.00329700  1
  O  O25  1  0.39640600  0.38756700  0.52264800  1
  O  O26  1  0.38169500  0.87346600  0.00050600  1
  O  O27  1  0.39949400  0.88868600  0.52635600  1
  O  O28  1  0.88427600  0.37654800  0.00545800  1
  O  O29  1  0.89589800  0.38446100  0.51976500  1
  O  O30  1  0.87875900  0.87907700  0.00221400  1
  O  O31  1  0.89616900  0.88699500  0.52272300  1
  O  O32  1  0.07389000  0.09045100  0.13852500  1
  O  O33  1  0.08812900  0.11346900  0.63973700  1
  O  O34  1  0.07686500  0.58802900  0.14120200  1
  O  O35  1  0.09008400  0.60491300  0.64286100  1
  O  O36  1  0.57633700  0.08476400  0.13763200  1
  O  O37  1  0.59029300  0.11429500  0.64229000  1
  O  O38  1  0.57440500  0.58638400  0.13900000  1
  O  O39  1  0.57681800  0.61041900  0.64359300  1
  O  O40  1  0.45938200  0.38909300  0.36509300  1
  O  O41  1  0.43199200  0.39629000  0.85097400  1
  O  O42  1  0.45107500  0.89025000  0.36295300  1
  O  O43  1  0.42801900  0.89649400  0.84844500  1
  O  O44  1  0.95920400  0.38836100  0.36351700  1
  O  O45  1  0.93967700  0.39183100  0.85249100  1
  O  O46  1  0.95101400  0.88707400  0.36321900  1
  O  O47  1  0.94257800  0.90385400  0.85403200  1
  O  O48  1  0.32846200  0.30468500  0.14100800  1
  O  O49  1  0.33366500  0.29181200  0.64569100  1
  O  O50  1  0.33231200  0.79755800  0.13726800  1
  O  O51  1  0.33744900  0.78725500  0.64381200  1
  O  O52  1  0.82548900  0.30235300  0.14052800  1
  O  O53  1  0.84040700  0.27218300  0.63752800  1
  O  O54  1  0.82406900  0.80497500  0.13940300  1
  O  O55  1  0.83947500  0.77869400  0.64119700  1
  O  O56  1  0.20722900  0.22450600  0.36594700  1
  O  O57  1  0.19631500  0.21348400  0.85432400  1
  O  O58  1  0.21227000  0.70830700  0.36534700  1
  O  O59  1  0.18186400  0.69082800  0.84997000  1
  O  O60  1  0.70889500  0.22675800  0.36194400  1
  O  O61  1  0.69858100  0.19977000  0.85254400  1
  O  O62  1  0.70729000  0.72493900  0.36289700  1
  O  O63  1  0.68001100  0.70024200  0.85015800  1
  O  O64  1  0.44007300  0.07013900  0.26991000  1
  O  O65  1  0.41880500  0.05763600  0.74694700  1
  O  O66  1  0.43812600  0.56724600  0.27023900  1
  O  O67  1  0.43457600  0.55184100  0.74777600  1
  O  O68  1  0.93980700  0.06631400  0.26995000  1
  O  O69  1  0.92448000  0.06168700  0.74717400  1
  O  O70  1  0.93607200  0.56611600  0.26887700  1
  O  O71  1  0.93972900  0.54379400  0.73225100  1
  O  O72  1  0.18828200  0.44802800  0.27070000  1
  O  O73  1  0.18636800  0.43986300  0.74471600  1
  O  O74  1  0.18996100  0.95668800  0.25330200  1
  O  O75  1  0.18300300  0.93948300  0.73375000  1
  O  O76  1  0.68701100  0.45265500  0.27013200  1
  O  O77  1  0.67800300  0.44732100  0.73316100  1
  O  O78  1  0.68492300  0.95295100  0.26837900  1
  O  O79  1  0.66561300  0.92996200  0.74606100  1
loop_
_geom_bond_atom_site_label_1
_geom_bond_atom_site_label_2
_geom_bond_distance
_geom_bond_site_symmetry_2
K0 O10 2.640982 1_545
K0 O48 2.657178 1_555
K0 O64 2.665067 1_555
K0 O26 2.741871 1_545
K0 O1 2.760682 1_554
K0 O17 2.817207 1_554
K0 O32 2.840501 1_555
K0 O36 2.973485 1_555
K1 O50 2.617038 1_555
K1 O8 2.642756 1_555
K1 O66 2.654644 1_555
K1 O24 2.679640 1_555
K1 O3 2.729585 1_554
K1 O34 2.824047 1_555
K1 O19 2.867319 1_554
K1 O38 2.947788 1_555
K1 O48 3.252832 1_555
K2 O52 2.640764 1_555
K2 O68 2.680804 1_555
K2 O30 2.681771 1_545
K2 O14 2.683841 1_544
K2 O36 2.776376 1_555
K2 O5 2.802557 1_554
K2 O21 2.833796 1_554
K2 O32 2.972182 1_655
K2 O54 3.256892 1_545
K3 O70 2.661701 1_555
K3 O54 2.675876 1_555
K3 O12 2.676953 1_555
K3 O28 2.706235 1_555
K3 O7 2.756956 1_554
K3 O23 2.775796 1_554
K3 O38 2.803495 1_555
K3 O34 3.002855 1_655
K4 O74 2.510193 1_555
K4 O58 2.525080 1_555
K4 O0 2.595764 1_565
K4 O16 2.683714 1_565
K4 O11 2.692828 1_555
K4 O46 2.742060 1_455
K4 O27 2.825610 1_555
K4 O42 3.097761 1_555
K5 O75 2.536913 1_555
K5 O59 2.581699 1_555
K5 O1 2.683315 1_565
K5 O10 2.699908 1_556
K5 O26 2.701954 1_556
K5 O47 2.730420 1_455
K5 O17 2.733993 1_565
K5 O43 2.913615 1_555
K6 O61 2.554680 1_555
K6 O77 2.561557 1_555
K6 O7 2.638409 1_555
K6 O12 2.676084 1_556
K6 O23 2.689944 1_555
K6 O28 2.786317 1_556
K6 O41 2.820582 1_555
K6 O45 3.050255 1_555
K7 O32 2.600062 1_555
K7 O28 2.625264 1_455
K7 O72 2.635544 1_555
K7 O8 2.710725 1_555
K7 O1 2.772277 1_554
K7 O21 2.773728 1_454
K7 O52 2.833800 1_455
K7 O48 2.984307 1_555
K8 O74 2.560726 1_555
K8 O34 2.649103 1_555
K8 O10 2.668541 1_555
K8 O30 2.670332 1_455
K8 O23 2.697823 1_454
K8 O54 2.814694 1_455
K8 O3 2.816054 1_554
K8 O50 3.080436 1_555
K9 O36 2.654983 1_555
K9 O76 2.657628 1_555
K9 O24 2.668287 1_555
K9 O12 2.686413 1_555
K9 O17 2.731077 1_554
K9 O48 2.808256 1_555
K9 O5 2.878076 1_554
K9 O52 2.951819 1_555
K10 O26 2.642327 1_555
K10 O78 2.652847 1_555
K10 O38 2.663555 1_555
K10 O14 2.729052 1_554
K10 O7 2.737783 1_554
K10 O50 2.740602 1_555
K10 O19 2.797517 1_554
K10 O54 2.943759 1_555
K10 O36 3.258067 1_565
K11 O47 2.543197 1_555
K11 O71 2.561733 1_555
K11 O23 2.657821 1_555
K11 O30 2.693714 1_556
K11 O3 2.709327 1_655
K11 O10 2.741577 1_656
K11 O63 2.876830 1_555
K11 O59 2.931768 1_655
Na0 O65 2.397850 1_555
Na0 O49 2.436654 1_555
Na0 O11 2.491570 1_545
Na0 O0 2.576279 1_555
Na0 O27 2.623440 1_545
Na0 O33 2.637197 1_555
Na0 O16 2.708365 1_555
Na1 O51 2.410517 1_555
Na1 O67 2.421846 1_555
Na1 O9 2.487081 1_555
Na1 O25 2.567267 1_555
Na1 O2 2.633127 1_555
Na1 O18 2.677795 1_555
Na1 O35 2.729798 1_555
Na1 O39 2.942414 1_555
Na2 O53 2.266547 1_555
Na2 O69 2.424367 1_555
Na2 O15 2.447837 1_545
Na2 O31 2.555749 1_545
Na2 O4 2.617329 1_555
Na2 O20 2.716666 1_555
Na2 O37 2.718051 1_555
Na3 O55 2.326752 1_555
Na3 O71 2.338345 1_555
Na3 O13 2.480957 1_555
Na3 O29 2.543489 1_555
Na3 O6 2.609950 1_555
Na3 O22 2.649810 1_555
Na3 O39 2.949973 1_555
Na4 O72 2.318501 1_555
Na4 O56 2.355941 1_555
Na4 O2 2.423443 1_555
Na4 O9 2.523690 1_555
Na4 O18 2.598051 1_555
Na4 O44 2.618051 1_455
Na4 O25 2.700751 1_555
Na5 O57 2.403529 1_555
Na5 O73 2.466962 1_555
Na5 O3 2.517809 1_555
Na5 O19 2.541245 1_555
Na5 O8 2.589357 1_556
Na5 O24 2.605795 1_556
Na5 O45 2.824758 1_455
Na5 O41 2.934415 1_555
Na6 O60 2.324539 1_555
Na6 O76 2.329549 1_555
Na6 O6 2.439585 1_555
Na6 O13 2.543528 1_555
Na6 O22 2.584362 1_555
Na6 O40 2.604525 1_555
Na6 O29 2.707689 1_555
Na7 O62 2.329656 1_555
Na7 O78 2.336376 1_555
Na7 O4 2.420724 1_565
Na7 O20 2.551684 1_565
Na7 O15 2.554849 1_555
Na7 O42 2.705315 1_555
Na7 O31 2.719677 1_555
Na8 O79 2.425175 1_555
Na8 O5 2.457274 1_565
Na8 O14 2.462081 1_555
Na8 O63 2.521343 1_555
Na8 O30 2.526805 1_556
Na8 O21 2.586854 1_565
Na8 O43 2.919992 1_555
Na9 O33 2.308065 1_555
Na9 O73 2.387877 1_555
Na9 O29 2.503402 1_455
Na9 O9 2.582687 1_555
Na9 O0 2.614265 1_555
Na9 O20 2.705441 1_455
Na9 O53 2.707246 1_455
Na10 O75 2.325101 1_555
Na10 O35 2.396692 1_555
Na10 O31 2.514645 1_455
Na10 O11 2.552321 1_555
Na10 O22 2.626106 1_455
Na10 O2 2.627529 1_555
Na10 O55 2.753810 1_455
Na11 O77 2.344209 1_555
Na11 O37 2.352351 1_555
Na11 O25 2.448054 1_555
Na11 O16 2.514824 1_555
Na11 O13 2.548965 1_555
Na11 O4 2.716199 1_555
Na11 O49 2.821413 1_555
Na12 O39 2.337944 1_555
Na12 O79 2.384347 1_555
Na12 O27 2.432879 1_555
Na12 O18 2.518595 1_555
Na12 O15 2.611692 1_555
Na12 O6 2.639612 1_555
Na12 O51 2.735713 1_555
Na13 O64 2.330180 1_555
Na13 O40 2.340240 1_555
Na13 O16 2.449231 1_555
Na13 O25 2.542163 1_555
Na13 O4 2.568906 1_555
Na13 O56 2.632720 1_555
Na13 O13 2.727447 1_555
Na14 O65 2.437355 1_555
Na14 O17 2.477449 1_555
Na14 O41 2.487168 1_555
Na14 O24 2.508133 1_556
Na14 O12 2.579616 1_556
Na14 O5 2.588340 1_555
Na14 O57 2.679235 1_555
Na15 O66 2.331825 1_555
Na15 O42 2.360343 1_555
Na15 O18 2.466249 1_555
Na15 O58 2.551218 1_555
Na15 O27 2.569818 1_555
Na15 O6 2.603664 1_555
Na15 O15 2.728641 1_555
Na16 O67 2.437406 1_555
Na16 O43 2.513778 1_555
Na16 O19 2.529894 1_555
Na16 O26 2.533509 1_556
Na16 O7 2.553061 1_555
Na16 O14 2.554387 1_555
Na16 O59 2.898294 1_555
Na16 O63 2.915321 1_555
Na17 O44 2.341206 1_555
Na17 O68 2.344880 1_555
Na17 O20 2.414976 1_555
Na17 O29 2.501451 1_555
Na17 O0 2.565960 1_655
Na17 O60 2.624991 1_555
Na17 O9 2.721835 1_655
Na18 O45 2.426963 1_555
Na18 O69 2.451116 1_555
Na18 O21 2.493837 1_555
Na18 O28 2.501583 1_556
Na18 O1 2.572993 1_655
Na18 O8 2.590628 1_656
Na18 O61 2.675040 1_555
Na19 O46 2.328473 1_555
Na19 O70 2.335549 1_555
Na19 O22 2.418126 1_555
Na19 O31 2.557509 1_555
Na19 O2 2.609270 1_655
Na19 O62 2.639784 1_555
Na19 O11 2.686625 1_655
Mo0 O21 2.053575 1_465
Mo0 O10 2.065985 1_556
Mo0 O1 2.067111 1_565
Mo0 O30 2.068510 1_456
Mo0 O47 2.136757 1_455
Mo0 O32 2.199264 1_566
Mo1 O20 2.059978 1_455
Mo1 O31 2.063344 1_445
Mo1 O11 2.075175 1_545
Mo1 O0 2.079821 1_555
Mo1 O33 2.125810 1_555
Mo1 O46 2.185595 1_445
Mo2 O8 2.033745 1_556
Mo2 O28 2.050909 1_456
Mo2 O3 2.051583 1_555
Mo2 O23 2.073069 1_455
Mo2 O45 2.164231 1_455
Mo2 O34 2.248389 1_556
Mo3 O9 2.043769 1_555
Mo3 O2 2.050817 1_555
Mo3 O29 2.061551 1_455
Mo3 O22 2.077875 1_455
Mo3 O35 2.148561 1_555
Mo3 O44 2.179771 1_455
Mo4 O14 2.039181 1_555
Mo4 O17 2.048727 1_565
Mo4 O26 2.060057 1_556
Mo4 O5 2.063489 1_565
Mo4 O43 2.157094 1_555
Mo4 O36 2.249915 1_566
Mo5 O15 2.064151 1_545
Mo5 O16 2.064527 1_555
Mo5 O4 2.071314 1_555
Mo5 O27 2.077375 1_545
Mo5 O37 2.154261 1_555
Mo5 O42 2.187667 1_545
Mo6 O24 2.031419 1_556
Mo6 O19 2.044875 1_555
Mo6 O12 2.064183 1_556
Mo6 O7 2.065686 1_555
Mo6 O41 2.155206 1_555
Mo6 O38 2.236973 1_556
Mo7 O25 2.051518 1_555
Mo7 O18 2.054329 1_555
Mo7 O13 2.064754 1_555
Mo7 O6 2.078523 1_555
Mo7 O39 2.153761 1_555
Mo7 O40 2.172860 1_555
Mo8 O8 2.042358 1_556
Mo8 O24 2.044975 1_556
Mo8 O1 2.051858 1_555
Mo8 O17 2.054006 1_555
Mo8 O57 2.143768 1_555
Mo8 O48 2.247344 1_556
Mo9 O9 2.043112 1_555
Mo9 O0 2.057553 1_555
Mo9 O25 2.062566 1_555
Mo9 O16 2.065565 1_555
Mo9 O49 2.148855 1_555
Mo9 O56 2.176235 1_555
Mo10 O19 2.046720 1_555
Mo10 O26 2.054660 1_556
Mo10 O3 2.057376 1_555
Mo10 O10 2.065607 1_556
Mo10 O59 2.150560 1_555
Mo10 O50 2.221041 1_556
Mo11 O11 2.058367 1_555
Mo11 O18 2.060232 1_555
Mo11 O2 2.068579 1_555
Mo11 O27 2.091837 1_555
Mo11 O51 2.134052 1_555
Mo11 O58 2.151076 1_555
Mo12 O21 2.043811 1_555
Mo12 O12 2.055582 1_556
Mo12 O28 2.056231 1_556
Mo12 O5 2.069618 1_555
Mo12 O61 2.133574 1_555
Mo12 O52 2.258894 1_556
Mo13 O20 2.057544 1_555
Mo13 O29 2.060567 1_555
Mo13 O4 2.066340 1_555
Mo13 O13 2.083986 1_555
Mo13 O53 2.139209 1_555
Mo13 O60 2.180625 1_555
Mo14 O14 2.046440 1_555
Mo14 O7 2.055340 1_555
Mo14 O30 2.055391 1_556
Mo14 O23 2.062234 1_555
Mo14 O63 2.166846 1_555
Mo14 O54 2.236930 1_556
Mo15 O22 2.058998 1_555
Mo15 O31 2.061393 1_555
Mo15 O6 2.066277 1_555
Mo15 O15 2.075750 1_555
Mo15 O55 2.158470 1_555
Mo15 O62 2.178740 1_555
Mo16 O56 1.922885 1_555
Mo16 O32 1.932700 1_555
Mo16 O68 1.940830 1_455
Mo16 O74 2.017793 1_545
Mo17 O57 1.909225 1_555
Mo17 O33 1.919687 1_555
Mo17 O69 1.982979 1_455
Mo17 O75 2.008027 1_545
Mo18 O34 1.915124 1_555
Mo18 O58 1.927958 1_555
Mo18 O70 1.943614 1_455
Mo18 O72 2.027796 1_555
Mo19 O60 1.920987 1_555
Mo19 O36 1.931733 1_555
Mo19 O64 1.943300 1_555
Mo19 O78 2.025001 1_545
Mo20 O37 1.907867 1_555
Mo20 O61 1.910717 1_555
Mo20 O65 1.982946 1_555
Mo20 O79 2.006736 1_545
Mo21 O62 1.926675 1_555
Mo21 O38 1.929708 1_555
Mo21 O66 1.948242 1_555
Mo21 O76 2.026850 1_555
Mo22 O40 1.926905 1_555
Mo22 O48 1.929166 1_555
Mo22 O72 1.944669 1_555
Mo22 O66 2.028451 1_555
Mo23 O50 1.914741 1_555
Mo23 O74 1.935944 1_555
Mo23 O42 1.939357 1_555
Mo23 O64 2.020142 1_565
Mo24 O44 1.926301 1_555
Mo24 O52 1.926972 1_555
Mo24 O76 1.949268 1_555
Mo24 O70 2.027906 1_555
Mo25 O53 1.909535 1_555
Mo25 O45 1.916560 1_555
Mo25 O71 1.982162 1_555
Mo25 O77 1.989320 1_555
Mo26 O46 1.920896 1_555
Mo26 O54 1.929943 1_555
Mo26 O78 1.943794 1_555
Mo26 O68 2.034666 1_565
Mo27 O55 1.907488 1_555
Mo27 O47 1.911110 1_555
Mo27 O79 1.983046 1_555
Mo27 O69 2.016197 1_565
O35 V0 1.790943 1_555
O39 V1 1.784211 1_555
O41 V2 1.785183 1_555
O43 V3 1.782482 1_555
O49 V2 1.782529 1_555
O51 V3 1.790675 1_555
O59 V0 1.775595 1_555
O63 V1 1.782727 1_555
O65 V3 1.893071 1_545
O67 V2 1.897232 1_555
O67 V1 1.906904 1_555
O71 V0 1.885863 1_655
O73 V0 1.880929 1_555
O73 V2 1.895994 1_555
O75 V3 1.885309 1_555
O77 V1 1.887468 1_555
