# generated using pymatgen
data_NiH24C6S6(N7O3)2
_symmetry_space_group_name_H-M   'P 1'
_cell_length_a   9.62435500
_cell_length_b   12.50701138
_cell_length_c   13.77945900
_cell_angle_alpha   78.96494274
_cell_angle_beta   69.55987398
_cell_angle_gamma   67.37125619
_symmetry_Int_Tables_number   1
_chemical_formula_structural   NiH24C6S6(N7O3)2
_chemical_formula_sum   'Ni2 H48 C12 S12 N28 O12'
_cell_volume   1431.45494914
_cell_formula_units_Z   2
loop_
 _symmetry_equiv_pos_site_id
 _symmetry_equiv_pos_as_xyz
  1  'x, y, z'
loop_
 _atom_site_type_symbol
 _atom_site_label
 _atom_site_symmetry_multiplicity
 _atom_site_fract_x
 _atom_site_fract_y
 _atom_site_fract_z
 _atom_site_occupancy
  Ni  Ni0  1  0.50000000  0.50000000  0.00000000  1
  Ni  Ni1  1  0.00000000  0.00000000  0.50000000  1
  H  H0  1  0.85407800  0.03009100  0.91155300  1
  H  H1  1  0.79572300  0.46990900  0.58844700  1
  H  H2  1  0.14592200  0.96990900  0.08844700  1
  H  H3  1  0.20427700  0.53009100  0.41155300  1
  H  H4  1  0.95520200  0.12889000  0.86775800  1
  H  H5  1  0.95185000  0.37111000  0.63224200  1
  H  H6  1  0.04479800  0.87111000  0.13224200  1
  H  H7  1  0.04815000  0.62889000  0.36775800  1
  H  H8  1  0.58124600  0.09860400  0.99383300  1
  H  H9  1  0.67368300  0.40139600  0.50616700  1
  H  H10  1  0.41875400  0.90139600  0.00616700  1
  H  H11  1  0.32631700  0.59860400  0.49383300  1
  H  H12  1  0.47818700  0.24916500  0.99628100  1
  H  H13  1  0.72363300  0.25083500  0.50371900  1
  H  H14  1  0.52181300  0.75083500  0.00371900  1
  H  H15  1  0.27636700  0.74916500  0.49628100  1
  H  H16  1  0.40762700  0.39760300  0.71434100  1
  H  H17  1  0.51957100  0.10239700  0.78565900  1
  H  H18  1  0.59237300  0.60239700  0.28565900  1
  H  H19  1  0.48042900  0.89760300  0.21434100  1
  H  H20  1  0.51077700  0.40670400  0.79480200  1
  H  H21  1  0.71228200  0.09329600  0.70519800  1
  H  H22  1  0.48922300  0.59329600  0.20519800  1
  H  H23  1  0.28771800  0.90670400  0.29480200  1
  H  H24  1  0.15308600  0.40462700  0.78259100  1
  H  H25  1  0.34030400  0.09537300  0.71740900  1
  H  H26  1  0.84691400  0.59537300  0.21740900  1
  H  H27  1  0.65969600  0.90462700  0.28259100  1
  H  H28  1  0.04615500  0.44031900  0.91175500  1
  H  H29  1  0.39822900  0.05968100  0.58824500  1
  H  H30  1  0.95384500  0.55968100  0.08824500  1
  H  H31  1  0.60177100  0.94031900  0.41175500  1
  H  H32  1  0.15333800  0.78001700  0.82779300  1
  H  H33  1  0.76114900  0.71998300  0.67220700  1
  H  H34  1  0.84666200  0.21998300  0.17220700  1
  H  H35  1  0.23885100  0.28001700  0.32779300  1
  H  H36  1  0.22621700  0.70519000  0.93116700  1
  H  H37  1  0.86257400  0.79481000  0.56883300  1
  H  H38  1  0.77378300  0.29481000  0.06883300  1
  H  H39  1  0.13742600  0.20519000  0.43116700  1
  H  H40  1  0.31678800  0.78505900  0.66384400  1
  H  H41  1  0.76569100  0.71494100  0.83615600  1
  H  H42  1  0.68321200  0.21494100  0.33615600  1
  H  H43  1  0.23430900  0.28505900  0.16384400  1
  H  H44  1  0.51867100  0.70244200  0.63242100  1
  H  H45  1  0.85353500  0.79755800  0.86757900  1
  H  H46  1  0.48132900  0.29755800  0.36757900  1
  H  H47  1  0.14646500  0.20244200  0.13242100  1
  C  C0  1  0.71604300  0.20310700  0.92773200  1
  C  C1  1  0.84688300  0.29689300  0.57226800  1
  C  C2  1  0.28395700  0.79689300  0.07226800  1
  C  C3  1  0.15311700  0.70310700  0.42773200  1
  C  C4  1  0.27930900  0.42492400  0.86722900  1
  C  C5  1  0.57146200  0.07507600  0.63277100  1
  C  C6  1  0.72069100  0.57507600  0.13277100  1
  C  C7  1  0.42853800  0.92492400  0.36722900  1
  C  C8  1  0.39275700  0.69576200  0.78767600  1
  C  C9  1  0.87619500  0.80423800  0.71232400  1
  C  C10  1  0.60724300  0.30423800  0.21232400  1
  C  C11  1  0.12380500  0.19576200  0.28767600  1
  S  S0  1  0.72367900  0.34103000  0.90051300  1
  S  S1  1  0.96522200  0.15897000  0.59948700  1
  S  S2  1  0.27632100  0.65897000  0.09948700  1
  S  S3  1  0.03477800  0.84103000  0.40051300  1
  S  S4  1  0.27263600  0.44880500  0.98805500  1
  S  S5  1  0.70949600  0.05119500  0.51194500  1
  S  S6  1  0.72736400  0.55119500  0.01194500  1
  S  S7  1  0.29050400  0.94880500  0.48805500  1
  S  S8  1  0.55629200  0.60949500  0.82478400  1
  S  S9  1  0.99057200  0.89050500  0.67521600  1
  S  S10  1  0.44370800  0.39050500  0.17521600  1
  S  S11  1  0.00942800  0.10949500  0.32478400  1
  N  N0  1  0.85084000  0.11396000  0.89615200  1
  N  N1  1  0.86095200  0.38604000  0.60384800  1
  N  N2  1  0.14916000  0.88604000  0.10384800  1
  N  N3  1  0.13904800  0.61396000  0.39615200  1
  N  N4  1  0.58228700  0.18143200  0.97695300  1
  N  N5  1  0.74067200  0.31856800  0.52304700  1
  N  N6  1  0.41771300  0.81856800  0.02304700  1
  N  N7  1  0.25932800  0.68143200  0.47695300  1
  N  N8  1  0.41086300  0.40468200  0.78641200  1
  N  N9  1  0.60195700  0.09531800  0.71358800  1
  N  N10  1  0.58913700  0.59531800  0.21358800  1
  N  N11  1  0.39804300  0.90468200  0.28641200  1
  N  N12  1  0.14915800  0.42441900  0.85269400  1
  N  N13  1  0.42627200  0.07558100  0.64730600  1
  N  N14  1  0.85084200  0.57558100  0.14730600  1
  N  N15  1  0.57372800  0.92441900  0.35269400  1
  N  N16  1  0.24641800  0.72850600  0.85372900  1
  N  N17  1  0.82865300  0.77149400  0.64627100  1
  N  N18  1  0.75358200  0.27149400  0.14627100  1
  N  N19  1  0.17134700  0.22850600  0.35372900  1
  N  N20  1  0.41193200  0.73317600  0.68762000  1
  N  N21  1  0.83272900  0.76682400  0.81238000  1
  N  N22  1  0.58806800  0.26682400  0.31238000  1
  N  N23  1  0.16727100  0.23317600  0.18762000  1
  N  N24  1  0.21416600  0.12198700  0.93358000  1
  N  N25  1  0.26973300  0.37801300  0.56642000  1
  N  N26  1  0.78583400  0.87801300  0.06642000  1
  N  N27  1  0.73026700  0.62198700  0.43358000  1
  O  O0  1  0.10720200  0.14404300  0.02059900  1
  O  O1  1  0.27184400  0.35595700  0.47940100  1
  O  O2  1  0.89279800  0.85595700  0.97940100  1
  O  O3  1  0.72815600  0.64404300  0.52059900  1
  O  O4  1  0.17657900  0.13429200  0.85166800  1
  O  O5  1  0.16253800  0.36570800  0.64833200  1
  O  O6  1  0.82342100  0.86570800  0.14833200  1
  O  O7  1  0.83746200  0.63429200  0.35166800  1
  O  O8  1  0.35900600  0.08628600  0.92941900  1
  O  O9  1  0.37471100  0.41371400  0.57058100  1
  O  O10  1  0.64099400  0.91371400  0.07058100  1
  O  O11  1  0.62528900  0.58628600  0.42941900  1
loop_
_geom_bond_atom_site_label_1
_geom_bond_atom_site_label_2
_geom_bond_distance
_geom_bond_site_symmetry_2
Ni0 S2 2.480980 1_555
Ni0 S0 2.480980 1_554
Ni0 S10 2.527792 1_555
Ni0 S8 2.527792 1_554
Ni0 S6 2.568175 1_555
Ni0 S4 2.568175 1_554
Ni1 S3 2.480980 1_545
Ni1 S1 2.480980 1_455
Ni1 S11 2.527793 1_555
Ni1 S9 2.527793 1_445
Ni1 S5 2.568175 1_455
Ni1 S7 2.568175 1_545
H0 N0 1.020074 1_555
H1 N1 1.020071 1_555
H2 N2 1.020074 1_555
H3 N3 1.020071 1_555
H4 N0 1.019156 1_555
H5 N1 1.019156 1_555
H6 N2 1.019156 1_555
H7 N3 1.019156 1_555
H8 N4 1.020525 1_555
H9 N5 1.020525 1_555
H10 N6 1.020525 1_555
H11 N7 1.020525 1_555
H12 N4 1.019433 1_555
H13 N5 1.019433 1_555
H14 N6 1.019433 1_555
H15 N7 1.019433 1_555
H16 N8 1.025885 1_555
H17 N9 1.025885 1_555
H18 N10 1.025885 1_555
H19 N11 1.025885 1_555
H20 N8 1.017927 1_555
H21 N9 1.017917 1_555
H22 N10 1.017927 1_555
H23 N11 1.017917 1_555
H24 N12 1.026964 1_555
H25 N13 1.026968 1_555
H26 N14 1.026964 1_555
H27 N15 1.026968 1_555
H28 N12 1.015562 1_555
H29 N13 1.015568 1_555
H30 N14 1.015562 1_555
H31 N15 1.015568 1_555
H32 N16 1.018162 1_555
H33 N17 1.018155 1_555
H34 N18 1.018162 1_555
H35 N19 1.018155 1_555
H36 N16 1.020318 1_555
H37 N17 1.020318 1_555
H38 N18 1.020318 1_555
H39 N19 1.020318 1_555
H40 N20 1.018735 1_555
H41 N21 1.018743 1_555
H42 N22 1.018735 1_555
H43 N23 1.018743 1_555
H44 N20 1.021725 1_555
H45 N21 1.021725 1_555
H46 N22 1.021725 1_555
H47 N23 1.021725 1_555
C0 N4 1.333795 1_555
C0 N0 1.339372 1_555
C0 S0 1.718237 1_555
C1 N5 1.333803 1_555
C1 N1 1.339367 1_555
C1 S1 1.718233 1_555
C2 N6 1.333795 1_555
C2 N2 1.339372 1_555
C2 S2 1.718237 1_555
C3 N7 1.333803 1_555
C3 N3 1.339367 1_555
C3 S3 1.718233 1_555
C4 N8 1.335575 1_555
C4 N12 1.338286 1_555
C4 S4 1.722268 1_555
C5 N9 1.335575 1_555
C5 N13 1.338277 1_555
C5 S5 1.722267 1_555
C6 N10 1.335575 1_555
C6 N14 1.338286 1_555
C6 S6 1.722268 1_555
C7 N11 1.335575 1_555
C7 N15 1.338277 1_555
C7 S7 1.722267 1_555
C8 N16 1.335389 1_555
C8 N20 1.340017 1_555
C8 S8 1.716664 1_555
C9 N17 1.335389 1_555
C9 N21 1.340017 1_555
C9 S9 1.716672 1_555
C10 N18 1.335389 1_555
C10 N22 1.340017 1_555
C10 S10 1.716664 1_555
C11 N19 1.335389 1_555
C11 N23 1.340017 1_555
C11 S11 1.716672 1_555
N24 O4 1.266636 1_555
N24 O0 1.272629 1_556
N24 O8 1.273136 1_555
N25 O5 1.266641 1_555
N25 O1 1.272629 1_555
N25 O9 1.273136 1_555
N26 O6 1.266636 1_555
N26 O2 1.272629 1_554
N26 O10 1.273136 1_555
N27 O7 1.266641 1_555
N27 O3 1.272629 1_555
N27 O11 1.273136 1_555
