# generated using pymatgen
data_Dy5Mg
_symmetry_space_group_name_H-M   'P 1'
_cell_length_a   6.58335735
_cell_length_b   6.58335735
_cell_length_c   6.58335683
_cell_angle_alpha   55.49905558
_cell_angle_beta   55.49905558
_cell_angle_gamma   55.49905993
_symmetry_Int_Tables_number   1
_chemical_formula_structural   Dy5Mg
_chemical_formula_sum   'Dy5 Mg1'
_cell_volume   180.67197590
_cell_formula_units_Z   1
loop_
 _symmetry_equiv_pos_site_id
 _symmetry_equiv_pos_as_xyz
  1  'x, y, z'
loop_
 _atom_site_type_symbol
 _atom_site_label
 _atom_site_symmetry_multiplicity
 _atom_site_fract_x
 _atom_site_fract_y
 _atom_site_fract_z
 _atom_site_occupancy
  Dy  Dy0  1  0.50000000  0.16043905  0.83956095  1
  Dy  Dy1  1  0.16043905  0.83956095  0.50000000  1
  Dy  Dy2  1  0.83956095  0.50000000  0.16043905  1
  Dy  Dy3  1  0.33209609  0.33209609  0.33209609  1
  Dy  Dy4  1  0.66790391  0.66790391  0.66790391  1
  Mg  Mg0  1  -0.00000000  0.00000000  0.00000000  1
loop_
_geom_bond_atom_site_label_1
_geom_bond_atom_site_label_2
_geom_bond_distance
_geom_bond_site_symmetry_2
Dy0 Dy3 3.418863 1_556
Dy0 Dy4 3.418863 1_545
Dy0 Mg0 3.435486 1_556
Dy0 Mg0 3.435486 1_656
Dy0 Dy3 3.485888 1_555
Dy0 Dy4 3.485888 1_555
Dy0 Dy1 3.506860 1_546
Dy0 Dy1 3.506860 1_645
Dy0 Dy2 3.506860 1_456
Dy0 Dy2 3.506860 1_546
Dy0 Dy2 3.605583 1_555
Dy0 Dy1 3.605583 1_555
Dy1 Dy4 3.418863 1_455
Dy1 Dy3 3.418863 1_565
Dy1 Mg0 3.435486 1_565
Dy1 Mg0 3.435486 1_566
Dy1 Dy3 3.485888 1_555
Dy1 Dy4 3.485888 1_555
Dy1 Dy2 3.506860 1_456
Dy1 Dy2 3.506860 1_465
Dy1 Dy2 3.605583 1_555
Dy2 Dy4 3.418863 1_554
Dy2 Dy3 3.418863 1_655
Dy2 Mg0 3.435486 1_665
Dy2 Mg0 3.435486 1_655
Dy2 Dy4 3.485888 1_555
Dy2 Dy3 3.485888 1_555
Dy3 Mg0 3.539516 1_556
Dy3 Mg0 3.539516 1_565
Dy3 Mg0 3.539516 1_655
Dy3 Dy4 3.539696 1_554
Dy3 Dy4 3.539696 1_455
Dy3 Dy4 3.539696 1_545
Dy4 Mg0 3.539516 1_665
Dy4 Mg0 3.539516 1_656
Dy4 Mg0 3.539516 1_566
