# generated using pymatgen
data_Rb4U3(AsO8)2
_symmetry_space_group_name_H-M   'P 1'
_cell_length_a   17.65169900
_cell_length_b   7.16757500
_cell_length_c   7.22161743
_cell_angle_alpha   89.08124371
_cell_angle_beta   90.00000000
_cell_angle_gamma   90.00000000
_symmetry_Int_Tables_number   1
_chemical_formula_structural   Rb4U3(AsO8)2
_chemical_formula_sum   'Rb8 U6 As4 O32'
_cell_volume   913.56068024
_cell_formula_units_Z   2
loop_
 _symmetry_equiv_pos_site_id
 _symmetry_equiv_pos_as_xyz
  1  'x, y, z'
loop_
 _atom_site_type_symbol
 _atom_site_label
 _atom_site_symmetry_multiplicity
 _atom_site_fract_x
 _atom_site_fract_y
 _atom_site_fract_z
 _atom_site_occupancy
  Rb  Rb0  1  0.88464700  0.53653000  0.10562800  1
  Rb  Rb1  1  0.38464700  0.46347000  0.89437100  1
  Rb  Rb2  1  0.11535300  0.46347000  0.89437100  1
  Rb  Rb3  1  0.61535300  0.53653000  0.10562800  1
  Rb  Rb4  1  0.25000000  0.95764800  0.94748300  1
  Rb  Rb5  1  0.75000000  0.04235200  0.05251700  1
  Rb  Rb6  1  0.00000000  0.00000000  0.00000000  1
  Rb  Rb7  1  0.50000000  0.00000000  0.00000000  1
  U  U0  1  0.25000000  0.28247200  0.42123600  1
  U  U1  1  0.75000000  0.71752800  0.57876400  1
  U  U2  1  0.14442900  0.78089600  0.42281400  1
  U  U3  1  0.64442900  0.21910400  0.57718600  1
  U  U4  1  0.85557100  0.21910400  0.57718600  1
  U  U5  1  0.35557100  0.78089600  0.42281400  1
  As  As0  1  0.05404700  0.28407300  0.39973200  1
  As  As1  1  0.55404700  0.71592700  0.60026800  1
  As  As2  1  0.94595300  0.71592700  0.60026800  1
  As  As3  1  0.44595300  0.28407300  0.39973200  1
  O  O0  1  0.01659800  0.33345900  0.19039800  1
  O  O1  1  0.51659800  0.66654100  0.80960200  1
  O  O2  1  0.98340200  0.66654100  0.80960200  1
  O  O3  1  0.48340200  0.33345900  0.19039800  1
  O  O4  1  0.99015000  0.24092000  0.57582400  1
  O  O5  1  0.49015000  0.75908000  0.42417600  1
  O  O6  1  0.00985000  0.75908000  0.42417600  1
  O  O7  1  0.50985000  0.24092000  0.57582400  1
  O  O8  1  0.11840100  0.10151300  0.38028400  1
  O  O9  1  0.61840100  0.89848700  0.61971600  1
  O  O10  1  0.88159900  0.89848700  0.61971600  1
  O  O11  1  0.38159900  0.10151300  0.38028400  1
  O  O12  1  0.12144400  0.44615700  0.47115800  1
  O  O13  1  0.62144400  0.55384300  0.52884200  1
  O  O14  1  0.87855600  0.55384300  0.52884200  1
  O  O15  1  0.37855600  0.44615700  0.47115800  1
  O  O16  1  0.25000000  0.26009100  0.67685300  1
  O  O17  1  0.75000000  0.73990900  0.32314700  1
  O  O18  1  0.25000000  0.30577500  0.16586800  1
  O  O19  1  0.75000000  0.69422500  0.83413200  1
  O  O20  1  0.25000000  0.59871000  0.43094300  1
  O  O21  1  0.75000000  0.40129000  0.56905700  1
  O  O22  1  0.25000000  0.96321000  0.39893100  1
  O  O23  1  0.75000000  0.03679000  0.60106900  1
  O  O24  1  0.14533100  0.80543300  0.67797600  1
  O  O25  1  0.64533100  0.19456700  0.32202400  1
  O  O26  1  0.85466900  0.19456700  0.32202400  1
  O  O27  1  0.35466900  0.80543300  0.67797600  1
  O  O28  1  0.13747000  0.75995400  0.16686500  1
  O  O29  1  0.63747000  0.24004600  0.83313500  1
  O  O30  1  0.86253000  0.24004600  0.83313500  1
  O  O31  1  0.36253000  0.75995400  0.16686500  1
loop_
_geom_bond_atom_site_label_1
_geom_bond_atom_site_label_2
_geom_bond_distance
_geom_bond_site_symmetry_2
As0 O0 1.682391 1_555
As0 O4 1.724046 1_455
As0 O8 1.740179 1_555
As0 O12 1.746499 1_555
As1 O1 1.682391 1_555
As1 O5 1.724046 1_555
As1 O9 1.740179 1_555
As1 O13 1.746499 1_555
As2 O2 1.682391 1_555
As2 O6 1.724046 1_655
As2 O10 1.740179 1_555
As2 O14 1.746499 1_555
As3 O3 1.682391 1_555
As3 O7 1.724046 1_555
As3 O11 1.740179 1_555
As3 O15 1.746499 1_555
O0 Rb6 2.791835 1_555
O0 Rb0 2.808866 1_455
O0 Rb2 2.900581 1_554
O1 Rb7 2.791835 1_566
O1 Rb1 2.808864 1_555
O1 Rb3 2.900576 1_556
O2 Rb6 2.791835 1_666
O2 Rb2 2.808864 1_655
O2 Rb0 2.900576 1_556
O3 Rb7 2.791835 1_555
O3 Rb3 2.808866 1_555
O3 Rb1 2.900581 1_554
O4 U4 2.380699 1_555
O5 U5 2.380699 1_555
O6 U2 2.380699 1_555
O7 U3 2.380699 1_555
O8 U2 2.358770 1_545
O8 U0 2.679206 1_555
O9 U3 2.358770 1_565
O9 U1 2.679206 1_555
O10 U4 2.358770 1_565
O10 U1 2.679206 1_555
O11 U5 2.358770 1_545
O11 U0 2.679206 1_555
O12 U2 2.452778 1_555
O12 U0 2.582519 1_555
O12 Rb2 3.062676 1_555
O13 U3 2.452778 1_555
O13 U1 2.582519 1_555
O13 Rb3 3.062683 1_555
O14 U4 2.452778 1_555
O14 U1 2.582519 1_555
O14 Rb0 3.062683 1_555
O15 U5 2.452778 1_555
O15 U0 2.582519 1_555
O15 Rb1 3.062676 1_555
O16 U0 1.850361 1_555
O16 Rb4 2.895348 1_545
O16 Rb1 3.211677 1_555
O16 Rb2 3.211677 1_555
O17 U1 1.850361 1_555
O17 Rb5 2.895348 1_565
O17 Rb0 3.211680 1_555
O17 Rb3 3.211680 1_555
O18 U0 1.849049 1_555
O18 Rb4 2.973142 1_544
O18 Rb1 3.271018 1_554
O18 Rb2 3.271018 1_554
O19 U1 1.849049 1_555
O19 Rb5 2.973142 1_566
O19 Rb0 3.271014 1_556
O19 Rb3 3.271014 1_556
O20 U0 2.268867 1_555
O20 U5 2.275708 1_555
O20 U2 2.275708 1_555
O21 U1 2.268867 1_555
O21 U4 2.275708 1_555
O21 U3 2.275708 1_555
O22 U5 2.280959 1_555
O22 U2 2.280959 1_555
O22 U0 2.296572 1_565
O22 Rb4 3.261068 1_554
O23 U4 2.280959 1_555
O23 U3 2.280959 1_555
O23 U1 2.296572 1_545
O23 Rb5 3.261068 1_556
O24 U2 1.853930 1_555
O24 Rb4 2.908603 1_555
O24 Rb2 2.933752 1_555
O25 U3 1.853930 1_555
O25 Rb5 2.908603 1_555
O25 Rb3 2.933756 1_555
O26 U4 1.853930 1_555
O26 Rb5 2.908603 1_555
O26 Rb0 2.933756 1_555
O27 U5 1.853930 1_555
O27 Rb4 2.908603 1_555
O27 Rb1 2.933752 1_555
O28 U2 1.860907 1_555
O28 Rb4 2.896793 1_554
O28 Rb2 2.945314 1_554
O28 Rb6 3.199092 1_565
O29 U3 1.860907 1_555
O29 Rb5 2.896793 1_556
O29 Rb3 2.945309 1_556
O29 Rb7 3.199092 1_556
O30 U4 1.860907 1_555
O30 Rb5 2.896793 1_556
O30 Rb0 2.945309 1_556
O30 Rb6 3.199092 1_656
O31 U5 1.860907 1_555
O31 Rb4 2.896793 1_554
O31 Rb1 2.945314 1_554
O31 Rb7 3.199092 1_565
