# generated using pymatgen
data_LiB11
_symmetry_space_group_name_H-M   'P 1'
_cell_length_a   4.94736876
_cell_length_b   4.94736876
_cell_length_c   4.94736876
_cell_angle_alpha   60.00000000
_cell_angle_beta   60.00000000
_cell_angle_gamma   60.00000000
_symmetry_Int_Tables_number   1
_chemical_formula_structural   LiB11
_chemical_formula_sum   'Li1 B11'
_cell_volume   85.62643240
_cell_formula_units_Z   1
loop_
 _symmetry_equiv_pos_site_id
 _symmetry_equiv_pos_as_xyz
  1  'x, y, z'
loop_
 _atom_site_type_symbol
 _atom_site_label
 _atom_site_symmetry_multiplicity
 _atom_site_fract_x
 _atom_site_fract_y
 _atom_site_fract_z
 _atom_site_occupancy
  Li  Li0  1  0.25000000  0.25000000  0.25000000  1
  B  B0  1  0.75000000  0.75000000  0.75000000  1
  B  B1  1  0.32144100  0.32144100  0.67855900  1
  B  B2  1  0.67855900  0.32144100  0.67855900  1
  B  B3  1  0.32144100  0.67855900  0.67855900  1
  B  B4  1  0.67855900  0.67855900  0.32144100  1
  B  B5  1  0.32144100  0.67855900  0.32144100  1
  B  B6  1  0.67855900  0.32144100  0.32144100  1
  B  B7  1  0.27867800  0.90710700  0.90710700  1
  B  B8  1  0.90710700  0.27867800  0.90710700  1
  B  B9  1  0.90710700  0.90710700  0.90710700  1
  B  B10  1  0.90710700  0.90710700  0.27867800  1
loop_
_geom_bond_atom_site_label_1
_geom_bond_atom_site_label_2
_geom_bond_distance
_geom_bond_site_symmetry_2
B0 B9 1.903906 1_555
B0 B7 1.903910 1_555
B0 B10 1.903910 1_555
B0 B8 1.903910 1_555
B1 B5 1.766794 1_555
B1 B2 1.766794 1_555
B1 B3 1.766794 1_555
B1 B6 1.766794 1_555
B1 B7 1.844414 1_545
B1 B8 1.844414 1_455
B1 Li0 2.523680 1_556
B1 Li0 2.523680 1_555
B2 B4 1.766794 1_555
B2 B3 1.766794 1_555
B2 B6 1.766794 1_555
B2 B8 1.844410 1_555
B2 B9 1.844412 1_545
B2 Li0 2.523680 1_556
B2 Li0 2.523680 1_655
B3 B4 1.766794 1_555
B3 B5 1.766794 1_555
B3 B7 1.844410 1_555
B3 B9 1.844412 1_455
B3 Li0 2.523680 1_556
B3 Li0 2.523680 1_565
B4 B5 1.766794 1_555
B4 B6 1.766794 1_555
B4 B9 1.844412 1_554
B4 Li0 2.523680 1_655
B4 Li0 2.523680 1_565
B5 B6 1.766794 1_555
B5 B7 1.844414 1_554
B5 Li0 2.523680 1_565
B5 Li0 2.523680 1_555
B6 B8 1.844414 1_554
B6 Li0 2.523680 1_555
B6 Li0 2.523680 1_655
B7 B8 1.838299 1_465
B7 B9 1.838299 1_455
B8 B9 1.838299 1_545
B10 B7 1.838299 1_654
B10 B8 1.838299 1_564
B10 B9 1.838299 1_554
B10 B4 1.844410 1_555
B10 B5 1.844414 1_655
B10 B6 1.844414 1_565
