# generated using pymatgen
data_SrMg14NbO16
_symmetry_space_group_name_H-M   'P 1'
_cell_length_a   8.70769896
_cell_length_b   8.82870149
_cell_length_c   4.42261205
_cell_angle_alpha   90.00000000
_cell_angle_beta   90.00000000
_cell_angle_gamma   90.00000000
_symmetry_Int_Tables_number   1
_chemical_formula_structural   SrMg14NbO16
_chemical_formula_sum   'Sr1 Mg14 Nb1 O16'
_cell_volume   340.00013087
_cell_formula_units_Z   1
loop_
 _symmetry_equiv_pos_site_id
 _symmetry_equiv_pos_as_xyz
  1  'x, y, z'
loop_
 _atom_site_type_symbol
 _atom_site_label
 _atom_site_symmetry_multiplicity
 _atom_site_fract_x
 _atom_site_fract_y
 _atom_site_fract_z
 _atom_site_occupancy
  Sr  Sr0  1  0.00000000  0.00000000  -0.00000000  1
  Mg  Mg0  1  0.50000000  0.00000000  -0.00000000  1
  Mg  Mg1  1  0.50000000  0.50000000  -0.00000000  1
  Mg  Mg2  1  0.00000000  0.25252277  0.50000000  1
  Mg  Mg3  1  0.00000000  0.74747723  0.50000000  1
  Mg  Mg4  1  0.50000000  0.25027325  0.50000000  1
  Mg  Mg5  1  0.50000000  0.74972675  0.50000000  1
  Mg  Mg6  1  0.26024939  0.00000000  0.50000000  1
  Mg  Mg7  1  0.25602635  0.50000000  0.50000000  1
  Mg  Mg8  1  0.73975061  0.00000000  0.50000000  1
  Mg  Mg9  1  0.74397365  0.50000000  0.50000000  1
  Mg  Mg10  1  0.25832562  0.25260232  0.00000000  1
  Mg  Mg11  1  0.25832562  0.74739768  -0.00000000  1
  Mg  Mg12  1  0.74167438  0.25260232  0.00000000  1
  Mg  Mg13  1  0.74167438  0.74739768  -0.00000000  1
  Nb  Nb0  1  0.00000000  0.50000000  -0.00000000  1
  O  O0  1  0.27247778  0.00000000  -0.00000000  1
  O  O1  1  0.26280960  0.50000000  0.00000000  1
  O  O2  1  0.72752222  0.00000000  0.00000000  1
  O  O3  1  0.73719040  0.50000000  -0.00000000  1
  O  O4  1  0.24901482  0.25028664  0.50000000  1
  O  O5  1  0.24901482  0.74971336  0.50000000  1
  O  O6  1  0.75098518  0.25028664  0.50000000  1
  O  O7  1  0.75098518  0.74971336  0.50000000  1
  O  O8  1  0.00000000  0.00000000  0.50000000  1
  O  O9  1  0.00000000  0.50000000  0.50000000  1
  O  O10  1  0.50000000  0.00000000  0.50000000  1
  O  O11  1  0.50000000  0.50000000  0.50000000  1
  O  O12  1  0.00000000  0.25922873  -0.00000000  1
  O  O13  1  0.00000000  0.74077127  0.00000000  1
  O  O14  1  0.50000000  0.25350118  0.00000000  1
  O  O15  1  0.50000000  0.74649882  -0.00000000  1
loop_
_geom_bond_atom_site_label_1
_geom_bond_atom_site_label_2
_geom_bond_distance
_geom_bond_site_symmetry_2
Mg0 O2 1.981195 1_555
Mg0 O0 1.981195 1_555
Mg0 O10 2.211306 1_554
Mg0 O10 2.211306 1_555
Mg0 O15 2.238086 1_545
Mg0 O14 2.238086 1_555
Mg1 O3 2.065383 1_555
Mg1 O1 2.065383 1_555
Mg1 O14 2.176264 1_555
Mg1 O15 2.176264 1_555
Mg1 O11 2.211306 1_554
Mg1 O11 2.211306 1_555
Mg2 O6 2.168436 1_455
Mg2 O4 2.168436 1_555
Mg2 O9 2.184903 1_555
Mg2 O12 2.212098 1_556
Mg2 O12 2.212098 1_555
Mg2 O8 2.229448 1_555
Mg3 O7 2.168436 1_455
Mg3 O5 2.168436 1_555
Mg3 O9 2.184903 1_555
Mg3 O13 2.212098 1_555
Mg3 O13 2.212098 1_556
Mg3 O8 2.229448 1_565
Mg4 O6 2.185503 1_555
Mg4 O4 2.185503 1_555
Mg4 O11 2.204763 1_555
Mg4 O10 2.209588 1_555
Mg4 O14 2.211490 1_556
Mg4 O14 2.211490 1_555
Mg5 O5 2.185503 1_555
Mg5 O7 2.185503 1_555
Mg5 O11 2.204763 1_555
Mg5 O10 2.209588 1_565
Mg5 O15 2.211490 1_556
Mg5 O15 2.211490 1_555
Mg6 O10 2.087676 1_555
Mg6 O5 2.211870 1_545
Mg6 O4 2.211870 1_555
Mg6 O0 2.213868 1_555
Mg6 O0 2.213868 1_556
Mg6 O8 2.266173 1_555
Mg7 O11 2.124449 1_555
Mg7 O5 2.205490 1_555
Mg7 O4 2.205490 1_555
Mg7 O1 2.212095 1_555
Mg7 O1 2.212095 1_556
Mg7 O9 2.229400 1_555
Mg8 O10 2.087676 1_555
Mg8 O6 2.211870 1_555
Mg8 O7 2.211870 1_545
Mg8 O2 2.213868 1_556
Mg8 O2 2.213868 1_555
Mg8 O8 2.266173 1_655
Mg9 O11 2.124449 1_555
Mg9 O6 2.205490 1_555
Mg9 O7 2.205490 1_555
Mg9 O3 2.212095 1_556
Mg9 O3 2.212095 1_555
Mg9 O9 2.229400 1_655
Mg10 O14 2.104443 1_555
Mg10 O1 2.184549 1_555
Mg10 O4 2.212886 1_554
Mg10 O4 2.212886 1_555
Mg10 O0 2.233553 1_555
Mg10 O12 2.250182 1_555
Mg11 O15 2.104443 1_555
Mg11 O1 2.184549 1_555
Mg11 O5 2.212886 1_554
Mg11 O5 2.212886 1_555
Mg11 O0 2.233553 1_565
Mg11 O13 2.250182 1_555
Mg12 O14 2.104443 1_555
Mg12 O3 2.184549 1_555
Mg12 O6 2.212886 1_554
Mg12 O6 2.212886 1_555
Mg12 O2 2.233553 1_555
Mg12 O12 2.250182 1_655
Mg13 O15 2.104443 1_555
Mg13 O3 2.184549 1_555
Mg13 O7 2.212886 1_554
Mg13 O7 2.212886 1_555
Mg13 O2 2.233553 1_565
Mg13 O13 2.250182 1_655
Nb0 O13 2.125698 1_555
Nb0 O12 2.125698 1_555
Nb0 O9 2.211306 1_554
Nb0 O9 2.211306 1_555
Nb0 O1 2.288467 1_555
Nb0 O3 2.288467 1_455
O0 Sr0 2.372654 1_555
O2 Sr0 2.372654 1_655
O8 Sr0 2.211306 1_556
O8 Sr0 2.211306 1_555
O12 Sr0 2.288653 1_555
O13 Sr0 2.288653 1_565
