# generated using pymatgen
data_Lu(Al2Cu)4
_symmetry_space_group_name_H-M   'P 1'
_cell_length_a   6.65439842
_cell_length_b   6.65439842
_cell_length_c   6.65439842
_cell_angle_alpha   98.28612324
_cell_angle_beta   98.28612324
_cell_angle_gamma   135.37885950
_symmetry_Int_Tables_number   1
_chemical_formula_structural   Lu(Al2Cu)4
_chemical_formula_sum   'Lu1 Al8 Cu4'
_cell_volume   191.48199358
_cell_formula_units_Z   1
loop_
 _symmetry_equiv_pos_site_id
 _symmetry_equiv_pos_as_xyz
  1  'x, y, z'
loop_
 _atom_site_type_symbol
 _atom_site_label
 _atom_site_symmetry_multiplicity
 _atom_site_fract_x
 _atom_site_fract_y
 _atom_site_fract_z
 _atom_site_occupancy
  Lu  Lu0  1  0.00000000  -0.00000000  0.00000000  1
  Al  Al0  1  0.00000000  0.34760990  0.34760990  1
  Al  Al1  1  -0.00000000  0.65239010  0.65239010  1
  Al  Al2  1  0.65239010  -0.00000000  0.65239010  1
  Al  Al3  1  0.34760990  0.00000000  0.34760990  1
  Al  Al4  1  0.50000000  0.28241279  0.78241279  1
  Al  Al5  1  0.50000000  0.71758721  0.21758721  1
  Al  Al6  1  0.71758721  0.50000000  0.21758721  1
  Al  Al7  1  0.28241279  0.50000000  0.78241279  1
  Cu  Cu0  1  0.00000000  -0.00000000  0.50000000  1
  Cu  Cu1  1  0.50000000  0.50000000  0.50000000  1
  Cu  Cu2  1  0.50000000  -0.00000000  0.00000000  1
  Cu  Cu3  1  0.00000000  0.50000000  0.00000000  1
loop_
_geom_bond_atom_site_label_1
_geom_bond_atom_site_label_2
_geom_bond_distance
_geom_bond_site_symmetry_2
Al0 Al1 2.653493 1_555
Al0 Cu3 2.656128 1_555
Al0 Cu0 2.656128 1_555
Al0 Cu2 2.656128 1_455
Al0 Cu1 2.656128 1_555
Al0 Al5 2.768226 1_445
Al0 Al5 2.768226 1_555
Al0 Al7 2.793875 1_555
Al0 Al6 2.793875 1_455
Al0 Lu0 3.026379 1_555
Al1 Cu0 2.656128 1_565
Al1 Cu2 2.656128 1_566
Al1 Cu3 2.656128 1_556
Al1 Cu1 2.656128 1_455
Al1 Al4 2.768226 1_455
Al1 Al4 2.768226 1_565
Al1 Al7 2.793875 1_555
Al1 Al6 2.793875 1_455
Al1 Lu0 3.026379 1_566
Al2 Al3 2.653493 1_555
Al2 Cu0 2.656128 1_655
Al2 Cu3 2.656128 1_656
Al2 Cu1 2.656128 1_545
Al2 Cu2 2.656128 1_556
Al2 Al7 2.768226 1_545
Al2 Al7 2.768226 1_655
Al2 Al4 2.793875 1_555
Al2 Al5 2.793875 1_545
Al2 Lu0 3.026379 1_656
Al3 Cu3 2.656128 1_545
Al3 Cu0 2.656128 1_555
Al3 Cu2 2.656128 1_555
Al3 Cu1 2.656128 1_555
Al3 Al6 2.768226 1_445
Al3 Al6 2.768226 1_555
Al3 Al4 2.793875 1_555
Al3 Al5 2.793875 1_545
Al3 Lu0 3.026379 1_555
Al4 Cu1 2.532284 1_555
Al4 Cu3 2.532284 1_656
Al4 Cu0 2.532284 1_555
Al4 Cu2 2.532284 1_556
Al4 Lu0 3.157572 1_556
Al4 Lu0 3.157572 1_666
Al5 Cu3 2.532284 1_555
Al5 Cu0 2.532284 1_665
Al5 Cu2 2.532284 1_565
Al5 Cu1 2.532284 1_555
Al5 Lu0 3.157572 1_555
Al5 Lu0 3.157572 1_665
Al6 Cu3 2.532284 1_655
Al6 Cu0 2.532284 1_665
Al6 Cu2 2.532284 1_555
Al6 Cu1 2.532284 1_555
Al6 Lu0 3.157572 1_665
Al6 Lu0 3.157572 1_555
Al7 Cu0 2.532284 1_555
Al7 Cu1 2.532284 1_555
Al7 Cu2 2.532284 1_566
Al7 Cu3 2.532284 1_556
Al7 Lu0 3.157572 1_556
Al7 Lu0 3.157572 1_666
Cu0 Cu1 2.526188 1_555
Cu0 Cu1 2.526188 1_445
Cu0 Lu0 3.327199 1_556
Cu0 Lu0 3.327199 1_555
Cu1 Lu0 3.327199 1_555
Cu1 Lu0 3.327199 1_666
Cu2 Cu3 2.526188 1_655
Cu2 Cu3 2.526188 1_545
Cu2 Lu0 3.327199 1_555
Cu2 Lu0 3.327199 1_655
Cu3 Lu0 3.327199 1_555
Cu3 Lu0 3.327199 1_565
