# generated using pymatgen
data_SrLa2Mn2O7
_symmetry_space_group_name_H-M   'P 1'
_cell_length_a   5.57680340
_cell_length_b   5.57620377
_cell_length_c   10.65156177
_cell_angle_alpha   89.99994553
_cell_angle_beta   105.17924057
_cell_angle_gamma   89.99998547
_symmetry_Int_Tables_number   1
_chemical_formula_structural   SrLa2Mn2O7
_chemical_formula_sum   'Sr2 La4 Mn4 O14'
_cell_volume   319.67944947
_cell_formula_units_Z   2
loop_
 _symmetry_equiv_pos_site_id
 _symmetry_equiv_pos_as_xyz
  1  'x, y, z'
loop_
 _atom_site_type_symbol
 _atom_site_label
 _atom_site_symmetry_multiplicity
 _atom_site_fract_x
 _atom_site_fract_y
 _atom_site_fract_z
 _atom_site_occupancy
  Sr  Sr0  1  0.68412000  0.00001100  0.36805900  1
  Sr  Sr1  1  0.18422800  0.49999700  0.36826900  1
  La  La0  1  0.50709100  0.00000000  0.01392500  1
  La  La1  1  0.00700600  0.49999700  0.01378900  1
  La  La2  1  0.81846800  0.49999900  0.63677900  1
  La  La3  1  0.31816700  0.00000000  0.63609300  1
  Mn  Mn0  1  0.90231600  0.00000500  0.80450600  1
  Mn  Mn1  1  0.09774500  0.00000000  0.19538700  1
  Mn  Mn2  1  0.40323400  0.50000300  0.80634400  1
  Mn  Mn3  1  0.60128300  0.50000400  0.20244200  1
  O  O0  1  0.80298200  0.00000700  0.60643000  1
  O  O1  1  0.30397700  0.49993800  0.60842600  1
  O  O2  1  0.70691400  0.50000300  0.41426300  1
  O  O3  1  0.20796300  0.00000400  0.41645100  1
  O  O4  1  0.99331800  0.00000300  0.98680500  1
  O  O5  1  0.49622000  0.50000300  0.99231000  1
  O  O6  1  0.66040900  0.75867200  0.80199500  1
  O  O7  1  0.14172300  0.24129200  0.80210000  1
  O  O8  1  0.14171900  0.75871000  0.80209600  1
  O  O9  1  0.66040900  0.24133700  0.80199300  1
  O  O10  1  0.84935800  0.75968000  0.18038700  1
  O  O11  1  0.33097600  0.24095600  0.18040700  1
  O  O12  1  0.33097300  0.75905100  0.18038900  1
  O  O13  1  0.84940100  0.24032700  0.18035700  1
loop_
_geom_bond_atom_site_label_1
_geom_bond_atom_site_label_2
_geom_bond_distance
_geom_bond_site_symmetry_2
La0 O13 2.609717 1_555
La0 O10 2.609718 1_545
La0 O12 2.612613 1_545
La0 O11 2.612775 1_555
La0 O5 2.796926 1_544
La0 O5 2.796959 1_554
La0 O4 2.801138 1_554
La0 O4 2.803470 1_454
La0 O7 2.940291 1_554
La0 O8 2.940324 1_544
La0 O6 2.940836 1_544
La0 O9 2.940875 1_554
La1 O12 2.611692 1_555
La1 O11 2.611753 1_555
La1 O13 2.614114 1_455
La1 O10 2.614524 1_455
La1 O5 2.796885 1_554
La1 O5 2.797376 1_454
La1 O4 2.801834 1_454
La1 O4 2.801900 1_464
La1 O7 2.935446 1_554
La1 O8 2.935492 1_554
La1 O9 2.936373 1_454
La1 O6 2.936399 1_454
La2 O2 2.287453 1_555
La2 O9 2.601255 1_555
La2 O6 2.601307 1_555
La2 O8 2.601787 1_655
La2 O7 2.601805 1_655
La2 O1 2.801866 1_655
La2 O1 2.805321 1_555
La2 O0 2.805460 1_555
La2 O0 2.805548 1_565
La3 O3 2.257908 1_555
La3 O6 2.609629 1_545
La3 O9 2.609647 1_555
La3 O8 2.610799 1_545
La3 O7 2.610827 1_555
La3 O1 2.802227 1_555
La3 O1 2.802916 1_545
La3 O0 2.803084 1_555
La3 O0 2.806968 1_455
Mn0 O4 1.874024 1_555
Mn0 O7 1.900372 1_655
Mn0 O8 1.900396 1_645
Mn0 O9 1.900721 1_555
Mn0 O6 1.900729 1_545
Mn0 O0 2.036211 1_555
Mn1 O13 1.903562 1_455
Mn1 O10 1.903738 1_445
Mn1 O11 1.905580 1_555
Mn1 O12 1.905591 1_545
Mn1 O4 2.144211 1_454
Mn1 O3 2.272526 1_555
Mn2 O5 1.911720 1_555
Mn2 O1 2.034587 1_555
Mn2 O9 2.043127 1_555
Mn2 O6 2.043135 1_555
Mn2 O8 2.043422 1_555
Mn2 O7 2.043430 1_555
Mn3 O12 2.056397 1_555
Mn3 O11 2.056405 1_555
Mn3 O10 2.058175 1_555
Mn3 O13 2.058440 1_555
Mn3 O5 2.160145 1_554
Mn3 O2 2.177509 1_555
O0 Sr0 2.450441 1_555
O1 Sr1 2.468801 1_555
O2 Sr1 2.826467 1_555
O2 Sr0 2.828227 1_555
O2 Sr0 2.828314 1_565
O2 Sr1 2.829941 1_655
O3 Sr0 2.830463 1_455
O3 Sr1 2.831718 1_555
O3 Sr1 2.831796 1_545
O3 Sr0 2.834396 1_555
O10 Sr0 2.757859 1_565
O10 Sr1 2.762642 1_655
O11 Sr0 2.759974 1_555
O11 Sr1 2.760057 1_555
O12 Sr0 2.760129 1_565
O12 Sr1 2.760239 1_555
O13 Sr0 2.758202 1_555
O13 Sr1 2.762665 1_655
