# generated using pymatgen
data_Li3Mn3CoO8
_symmetry_space_group_name_H-M   'P 1'
_cell_length_a   5.92037724
_cell_length_b   6.02751396
_cell_length_c   10.12662742
_cell_angle_alpha   105.20782248
_cell_angle_beta   88.62156940
_cell_angle_gamma   59.67687880
_symmetry_Int_Tables_number   1
_chemical_formula_structural   Li3Mn3CoO8
_chemical_formula_sum   'Li6 Mn6 Co2 O16'
_cell_volume   295.64802271
_cell_formula_units_Z   2
loop_
 _symmetry_equiv_pos_site_id
 _symmetry_equiv_pos_as_xyz
  1  'x, y, z'
loop_
 _atom_site_type_symbol
 _atom_site_label
 _atom_site_symmetry_multiplicity
 _atom_site_fract_x
 _atom_site_fract_y
 _atom_site_fract_z
 _atom_site_occupancy
  Li  Li0  1  0.97521600  0.49954200  0.98877200  1
  Li  Li1  1  0.54052600  0.50674700  0.52681700  1
  Li  Li2  1  0.74374800  0.49719400  0.25088100  1
  Li  Li3  1  0.25308400  0.50739300  0.75093900  1
  Li  Li4  1  0.47897200  0.50006800  0.01269500  1
  Li  Li5  1  0.02210500  0.48929800  0.47983900  1
  Mn  Mn0  1  0.25351500  0.01645900  0.75239800  1
  Mn  Mn1  1  0.01159000  0.99253700  0.49819800  1
  Mn  Mn2  1  0.24855100  0.98583300  0.24674900  1
  Mn  Mn3  1  0.74442400  0.99128700  0.24908300  1
  Mn  Mn4  1  0.49207200  0.00102900  0.99995600  1
  Mn  Mn5  1  0.75452800  0.01061000  0.75104000  1
  Co  Co0  1  0.99521600  0.00112900  0.99974900  1
  Co  Co1  1  0.50270700  0.00017000  0.49986400  1
  O  O0  1  0.90140500  0.22918500  0.37440300  1
  O  O1  1  0.34463800  0.25614500  0.86920800  1
  O  O2  1  0.59233000  0.74404500  0.12947400  1
  O  O3  1  0.15879000  0.77449700  0.62835100  1
  O  O4  1  0.12984500  0.20159300  0.11910500  1
  O  O5  1  0.66514600  0.21446600  0.61933400  1
  O  O6  1  0.64124900  0.19876600  0.11528300  1
  O  O7  1  0.17470000  0.21955700  0.62199800  1
  O  O8  1  0.38466800  0.19425100  0.36146800  1
  O  O9  1  0.89767300  0.21254400  0.87139400  1
  O  O10  1  0.10002800  0.79119300  0.12887400  1
  O  O11  1  0.61077100  0.80235500  0.63595200  1
  O  O12  1  0.83527300  0.77795500  0.38022700  1
  O  O13  1  0.34428700  0.80165900  0.88062300  1
  O  O14  1  0.34930600  0.77984900  0.37398000  1
  O  O15  1  0.85363700  0.80264200  0.88334700  1
loop_
_geom_bond_atom_site_label_1
_geom_bond_atom_site_label_2
_geom_bond_distance
_geom_bond_site_symmetry_2
Li0 O1 2.025462 1_655
Li0 O9 2.089381 1_555
Li0 O2 2.170307 1_556
Li0 O15 2.174394 1_555
Li0 O4 2.333845 1_656
Li0 O10 2.388059 1_656
Li1 O3 2.025866 1_555
Li1 O5 2.027932 1_555
Li1 O11 2.075170 1_555
Li1 O0 2.150182 1_555
Li1 O14 2.434343 1_555
Li2 O2 2.048147 1_555
Li2 O14 2.153667 1_555
Li2 O0 2.153893 1_555
Li2 O12 2.161084 1_555
Li2 O4 2.161887 1_655
Li2 O6 2.309940 1_555
Li3 O1 2.043417 1_555
Li3 O7 2.141009 1_555
Li3 O3 2.149211 1_555
Li3 O15 2.214379 1_455
Li3 O13 2.222905 1_555
Li3 O5 2.259363 1_555
Li4 O2 2.033185 1_555
Li4 O10 2.076370 1_555
Li4 O6 2.139285 1_555
Li4 O1 2.240751 1_554
Li4 O9 2.320811 1_554
Li4 O13 2.364811 1_554
Li5 O8 2.027388 1_555
Li5 O12 2.073505 1_455
Li5 O0 2.097259 1_455
Li5 O7 2.310717 1_555
Li5 O11 2.366431 1_455
Li5 O3 2.445116 1_555
Mn0 O1 1.923170 1_555
Mn0 O7 1.939342 1_555
Mn0 O11 1.963415 1_545
Mn0 O13 1.965746 1_545
Mn0 O9 1.975774 1_455
Mn0 O3 1.979420 1_545
Mn1 O14 1.915252 1_555
Mn1 O5 1.936158 1_465
Mn1 O3 2.007832 1_555
Mn1 O0 2.017341 1_465
Mn1 O12 2.191426 1_455
Mn1 O7 2.206618 1_565
Mn2 O2 1.912416 1_555
Mn2 O14 1.919830 1_555
Mn2 O4 1.964378 1_565
Mn2 O8 1.969457 1_565
Mn2 O0 1.969758 1_465
Mn2 O10 1.982899 1_555
Mn3 O8 1.962184 1_565
Mn3 O10 1.977703 1_655
Mn3 O6 1.982525 1_565
Mn3 O12 1.984533 1_555
Mn3 O2 2.226933 1_555
Mn3 O0 2.231179 1_565
Mn4 O6 1.986638 1_556
Mn4 O15 1.989825 1_545
Mn4 O4 2.002172 1_556
Mn4 O13 2.005148 1_545
Mn4 O2 2.155649 1_546
Mn4 O1 2.155921 1_555
Mn5 O5 1.950868 1_555
Mn5 O15 1.971553 1_545
Mn5 O9 1.999524 1_555
Mn5 O11 2.004317 1_545
Mn5 O3 2.187963 1_645
Mn5 O1 2.194501 1_555
Co0 O13 1.944720 1_645
Co0 O4 1.951612 1_656
Co0 O9 1.951632 1_555
Co0 O6 1.951820 1_556
Co0 O10 1.952011 1_646
Co0 O15 1.960520 1_545
Co1 O7 1.866233 1_555
Co1 O12 1.873343 1_545
Co1 O11 1.965806 1_545
Co1 O8 1.975551 1_555
Co1 O5 2.132464 1_555
Co1 O14 2.144481 1_545
