# generated using pymatgen
data_MgIn2
_symmetry_space_group_name_H-M   'P 1'
_cell_length_a   13.14985869
_cell_length_b   13.14985869
_cell_length_c   15.32293752
_cell_angle_alpha   74.91303769
_cell_angle_beta   74.91303769
_cell_angle_gamma   28.64991245
_symmetry_Int_Tables_number   1
_chemical_formula_structural   MgIn2
_chemical_formula_sum   'Mg16 In32'
_cell_volume   1223.68201525
_cell_formula_units_Z   16
loop_
 _symmetry_equiv_pos_site_id
 _symmetry_equiv_pos_as_xyz
  1  'x, y, z'
loop_
 _atom_site_type_symbol
 _atom_site_label
 _atom_site_symmetry_multiplicity
 _atom_site_fract_x
 _atom_site_fract_y
 _atom_site_fract_z
 _atom_site_occupancy
  Mg  Mg0_0  1  0.18014350  0.18014350  0.01374050  1
  Mg  Mg0_1  1  0.18014350  0.18014350  0.51374050  1
  Mg  Mg0_2  1  0.18014350  0.68014350  0.01374050  1
  Mg  Mg0_3  1  0.18014350  0.68014350  0.51374050  1
  Mg  Mg0_4  1  0.68014350  0.18014350  0.01374050  1
  Mg  Mg0_5  1  0.68014350  0.18014350  0.51374050  1
  Mg  Mg0_6  1  0.68014350  0.68014350  0.01374050  1
  Mg  Mg0_7  1  0.68014350  0.68014350  0.51374050  1
  Mg  Mg1_0  1  0.31985650  0.31985650  0.48625950  1
  Mg  Mg1_1  1  0.31985650  0.31985650  0.98625950  1
  Mg  Mg1_2  1  0.31985650  0.81985650  0.48625950  1
  Mg  Mg1_3  1  0.31985650  0.81985650  0.98625950  1
  Mg  Mg1_4  1  0.81985650  0.31985650  0.48625950  1
  Mg  Mg1_5  1  0.81985650  0.31985650  0.98625950  1
  Mg  Mg1_6  1  0.81985650  0.81985650  0.48625950  1
  Mg  Mg1_7  1  0.81985650  0.81985650  0.98625950  1
  In  In0_0  1  0.01360750  0.01360750  0.35340150  1
  In  In0_1  1  0.01360750  0.01360750  0.85340150  1
  In  In0_2  1  0.01360750  0.51360750  0.35340150  1
  In  In0_3  1  0.01360750  0.51360750  0.85340150  1
  In  In0_4  1  0.51360750  0.01360750  0.35340150  1
  In  In0_5  1  0.51360750  0.01360750  0.85340150  1
  In  In0_6  1  0.51360750  0.51360750  0.35340150  1
  In  In0_7  1  0.51360750  0.51360750  0.85340150  1
  In  In1_0  1  0.15245850  0.15245850  0.32354750  1
  In  In1_1  1  0.15245850  0.15245850  0.82354750  1
  In  In1_2  1  0.15245850  0.65245850  0.32354750  1
  In  In1_3  1  0.15245850  0.65245850  0.82354750  1
  In  In1_4  1  0.65245850  0.15245850  0.32354750  1
  In  In1_5  1  0.65245850  0.15245850  0.82354750  1
  In  In1_6  1  0.65245850  0.65245850  0.32354750  1
  In  In1_7  1  0.65245850  0.65245850  0.82354750  1
  In  In2_0  1  0.34754150  0.34754150  0.17645250  1
  In  In2_1  1  0.34754150  0.34754150  0.67645250  1
  In  In2_2  1  0.34754150  0.84754150  0.17645250  1
  In  In2_3  1  0.34754150  0.84754150  0.67645250  1
  In  In2_4  1  0.84754150  0.34754150  0.17645250  1
  In  In2_5  1  0.84754150  0.34754150  0.67645250  1
  In  In2_6  1  0.84754150  0.84754150  0.17645250  1
  In  In2_7  1  0.84754150  0.84754150  0.67645250  1
  In  In3_0  1  0.48639250  0.48639250  0.14659850  1
  In  In3_1  1  0.48639250  0.48639250  0.64659850  1
  In  In3_2  1  0.48639250  0.98639250  0.14659850  1
  In  In3_3  1  0.48639250  0.98639250  0.64659850  1
  In  In3_4  1  0.98639250  0.48639250  0.14659850  1
  In  In3_5  1  0.98639250  0.48639250  0.64659850  1
  In  In3_6  1  0.98639250  0.98639250  0.14659850  1
  In  In3_7  1  0.98639250  0.98639250  0.64659850  1
loop_
_geom_bond_atom_site_label_1
_geom_bond_atom_site_label_2
_geom_bond_distance
_geom_bond_site_symmetry_2
Mg0_0 Mg0_6 3.253552 1_545
Mg0_0 Mg0_6 3.253552 1_455
Mg0_0 Mg1_5 3.370090 1_454
Mg0_0 Mg1_3 3.370090 1_544
Mg0_0 Mg1_1 3.470829 1_554
Mg0_1 Mg0_7 3.253552 1_455
Mg0_1 Mg0_7 3.253552 1_545
Mg0_1 Mg1_2 3.370090 1_545
Mg0_1 Mg1_4 3.370090 1_455
Mg0_1 Mg1_0 3.470829 1_555
Mg0_2 Mg0_4 3.253552 1_555
Mg0_2 Mg0_4 3.253552 1_465
Mg0_2 Mg1_7 3.370090 1_454
Mg0_2 Mg1_1 3.370090 1_554
Mg0_2 Mg1_3 3.470829 1_554
Mg0_3 Mg0_5 3.253552 1_555
Mg0_3 Mg0_5 3.253552 1_465
Mg0_3 Mg1_6 3.370090 1_455
Mg0_3 Mg1_0 3.370090 1_555
Mg0_3 Mg1_2 3.470829 1_555
Mg0_4 Mg1_7 3.370090 1_544
Mg0_4 Mg1_1 3.370090 1_554
Mg0_4 Mg1_5 3.470829 1_554
Mg0_5 Mg1_6 3.370090 1_545
Mg0_5 Mg1_0 3.370090 1_555
Mg0_5 Mg1_4 3.470829 1_555
Mg0_6 Mg1_3 3.370090 1_554
Mg0_6 Mg1_5 3.370090 1_554
Mg0_6 Mg1_7 3.470829 1_554
Mg0_7 Mg1_2 3.370090 1_555
Mg0_7 Mg1_4 3.370090 1_555
Mg0_7 Mg1_6 3.470829 1_555
Mg1_0 Mg1_6 3.253552 1_545
Mg1_0 Mg1_6 3.253552 1_455
Mg1_1 Mg1_7 3.253552 1_455
Mg1_1 Mg1_7 3.253552 1_545
Mg1_2 Mg1_4 3.253552 1_555
Mg1_2 Mg1_4 3.253552 1_465
Mg1_3 Mg1_5 3.253552 1_555
Mg1_3 Mg1_5 3.253552 1_465
In0_0 Mg0_3 3.224679 1_545
In0_0 Mg0_5 3.224679 1_455
In0_0 Mg1_4 3.226914 1_455
In0_0 Mg1_2 3.226914 1_545
In0_0 In0_6 3.253552 1_545
In0_0 In0_6 3.253552 1_455
In0_0 In2_4 3.384782 1_455
In0_0 In2_2 3.384782 1_545
In0_0 In1_2 3.402014 1_545
In0_0 In1_4 3.402014 1_455
In0_0 In3_6 3.420980 1_445
In0_0 In1_0 3.443621 1_555
In0_1 Mg0_2 3.224679 1_546
In0_1 Mg0_4 3.224679 1_456
In0_1 Mg1_5 3.226914 1_455
In0_1 Mg1_3 3.226914 1_545
In0_1 In0_7 3.253552 1_545
In0_1 In0_7 3.253552 1_455
In0_1 In2_3 3.384782 1_545
In0_1 In2_5 3.384782 1_455
In0_1 In1_3 3.402014 1_545
In0_1 In1_5 3.402014 1_455
In0_1 In3_7 3.420980 1_445
In0_1 In1_1 3.443621 1_555
In0_2 Mg0_1 3.224679 1_555
In0_2 Mg0_7 3.224679 1_455
In0_2 Mg1_0 3.226914 1_555
In0_2 Mg1_6 3.226914 1_455
In0_2 In0_4 3.253552 1_555
In0_2 In0_4 3.253552 1_465
In0_2 In2_0 3.384782 1_555
In0_2 In2_6 3.384782 1_455
In0_2 In1_6 3.402014 1_455
In0_2 In1_0 3.402014 1_555
In0_2 In3_4 3.420980 1_455
In0_2 In1_2 3.443621 1_555
In0_3 Mg0_6 3.224679 1_456
In0_3 Mg0_0 3.224679 1_556
In0_3 Mg1_1 3.226914 1_555
In0_3 Mg1_7 3.226914 1_455
In0_3 In0_5 3.253552 1_555
In0_3 In0_5 3.253552 1_465
In0_3 In2_1 3.384782 1_555
In0_3 In2_7 3.384782 1_455
In0_3 In1_7 3.402014 1_455
In0_3 In1_1 3.402014 1_555
In0_3 In3_5 3.420980 1_455
In0_3 In1_3 3.443621 1_555
In0_4 Mg0_7 3.224679 1_545
In0_4 Mg0_1 3.224679 1_555
In0_4 Mg1_0 3.226914 1_555
In0_4 Mg1_6 3.226914 1_545
In0_4 In2_0 3.384782 1_555
In0_4 In2_6 3.384782 1_545
In0_4 In1_6 3.402014 1_545
In0_4 In1_0 3.402014 1_555
In0_4 In3_2 3.420980 1_545
In0_4 In1_4 3.443621 1_555
In0_5 Mg0_0 3.224679 1_556
In0_5 Mg0_6 3.224679 1_546
In0_5 Mg1_1 3.226914 1_555
In0_5 Mg1_7 3.226914 1_545
In0_5 In2_1 3.384782 1_555
In0_5 In2_7 3.384782 1_545
In0_5 In1_7 3.402014 1_545
In0_5 In1_1 3.402014 1_555
In0_5 In3_3 3.420980 1_545
In0_5 In1_5 3.443621 1_555
In0_6 Mg0_5 3.224679 1_555
In0_6 Mg0_3 3.224679 1_555
In0_6 Mg1_4 3.226914 1_555
In0_6 Mg1_2 3.226914 1_555
In0_6 In2_2 3.384782 1_555
In0_6 In2_4 3.384782 1_555
In0_6 In1_2 3.402014 1_555
In0_6 In1_4 3.402014 1_555
In0_6 In3_0 3.420980 1_555
In0_6 In1_6 3.443621 1_555
In0_7 Mg0_2 3.224679 1_556
In0_7 Mg0_4 3.224679 1_556
In0_7 Mg1_5 3.226914 1_555
In0_7 Mg1_3 3.226914 1_555
In0_7 In2_3 3.384782 1_555
In0_7 In2_5 3.384782 1_555
In0_7 In1_3 3.402014 1_555
In0_7 In1_5 3.402014 1_555
In0_7 In3_1 3.420980 1_555
In0_7 In1_7 3.443621 1_555
In1_0 Mg0_1 3.177347 1_555
In1_0 Mg1_4 3.236274 1_455
In1_0 Mg1_2 3.236274 1_545
In1_0 In1_6 3.253552 1_545
In1_0 In1_6 3.253552 1_455
In1_0 In2_4 3.373356 1_455
In1_0 In2_2 3.373356 1_545
In1_0 In3_4 3.384782 1_455
In1_0 In3_2 3.384782 1_545
In1_1 Mg0_0 3.177347 1_556
In1_1 Mg1_3 3.236274 1_545
In1_1 Mg1_5 3.236274 1_455
In1_1 In1_7 3.253552 1_545
In1_1 In1_7 3.253552 1_455
In1_1 In2_5 3.373356 1_455
In1_1 In2_3 3.373356 1_545
In1_1 In3_3 3.384782 1_545
In1_1 In3_5 3.384782 1_455
In1_2 Mg0_3 3.177347 1_555
In1_2 Mg1_6 3.236274 1_455
In1_2 Mg1_0 3.236274 1_555
In1_2 In1_4 3.253552 1_465
In1_2 In1_4 3.253552 1_555
In1_2 In2_6 3.373356 1_455
In1_2 In2_0 3.373356 1_555
In1_2 In3_6 3.384782 1_455
In1_2 In3_0 3.384782 1_555
In1_3 Mg0_2 3.177347 1_556
In1_3 Mg1_7 3.236274 1_455
In1_3 Mg1_1 3.236274 1_555
In1_3 In1_5 3.253552 1_555
In1_3 In1_5 3.253552 1_465
In1_3 In2_7 3.373356 1_455
In1_3 In2_1 3.373356 1_555
In1_3 In3_7 3.384782 1_455
In1_3 In3_1 3.384782 1_555
In1_4 Mg0_5 3.177347 1_555
In1_4 Mg1_6 3.236274 1_545
In1_4 Mg1_0 3.236274 1_555
In1_4 In2_6 3.373356 1_545
In1_4 In2_0 3.373356 1_555
In1_4 In3_0 3.384782 1_555
In1_4 In3_6 3.384782 1_545
In1_5 Mg0_4 3.177347 1_556
In1_5 Mg1_7 3.236274 1_545
In1_5 Mg1_1 3.236274 1_555
In1_5 In2_7 3.373356 1_545
In1_5 In2_1 3.373356 1_555
In1_5 In3_1 3.384782 1_555
In1_5 In3_7 3.384782 1_545
In1_6 Mg0_7 3.177347 1_555
In1_6 Mg1_2 3.236274 1_555
In1_6 Mg1_4 3.236274 1_555
In1_6 In2_2 3.373356 1_555
In1_6 In2_4 3.373356 1_555
In1_6 In3_4 3.384782 1_555
In1_6 In3_2 3.384782 1_555
In1_7 Mg0_6 3.177347 1_556
In1_7 Mg1_3 3.236274 1_555
In1_7 Mg1_5 3.236274 1_555
In1_7 In2_3 3.373356 1_555
In1_7 In2_5 3.373356 1_555
In1_7 In3_3 3.384782 1_555
In1_7 In3_5 3.384782 1_555
In2_0 Mg1_1 3.177347 1_554
In2_0 Mg0_4 3.236274 1_555
In2_0 Mg0_2 3.236274 1_555
In2_0 In2_6 3.253552 1_545
In2_0 In2_6 3.253552 1_455
In2_0 In3_2 3.402014 1_545
In2_0 In3_4 3.402014 1_455
In2_0 In3_0 3.443621 1_555
In2_1 Mg1_0 3.177347 1_555
In2_1 Mg0_5 3.236274 1_555
In2_1 Mg0_3 3.236274 1_555
In2_1 In2_7 3.253552 1_545
In2_1 In2_7 3.253552 1_455
In2_1 In3_3 3.402014 1_545
In2_1 In3_5 3.402014 1_455
In2_1 In3_1 3.443621 1_555
In2_2 Mg1_3 3.177347 1_554
In2_2 Mg0_6 3.236274 1_555
In2_2 Mg0_0 3.236274 1_565
In2_2 In2_4 3.253552 1_555
In2_2 In2_4 3.253552 1_465
In2_2 In3_6 3.402014 1_455
In2_2 In3_0 3.402014 1_555
In2_2 In3_2 3.443621 1_555
In2_3 Mg1_2 3.177347 1_555
In2_3 Mg0_7 3.236274 1_555
In2_3 Mg0_1 3.236274 1_565
In2_3 In2_5 3.253552 1_555
In2_3 In2_5 3.253552 1_465
In2_3 In3_7 3.402014 1_455
In2_3 In3_1 3.402014 1_555
In2_3 In3_3 3.443621 1_555
In2_4 Mg1_5 3.177347 1_554
In2_4 Mg0_6 3.236274 1_555
In2_4 Mg0_0 3.236274 1_655
In2_4 In3_6 3.402014 1_545
In2_4 In3_0 3.402014 1_555
In2_4 In3_4 3.443621 1_555
In2_5 Mg1_4 3.177347 1_555
In2_5 Mg0_7 3.236274 1_555
In2_5 Mg0_1 3.236274 1_655
In2_5 In3_7 3.402014 1_545
In2_5 In3_1 3.402014 1_555
In2_5 In3_5 3.443621 1_555
In2_6 Mg1_7 3.177347 1_554
In2_6 Mg0_4 3.236274 1_565
In2_6 Mg0_2 3.236274 1_655
In2_6 In3_2 3.402014 1_555
In2_6 In3_4 3.402014 1_555
In2_6 In3_6 3.443621 1_555
In2_7 Mg1_6 3.177347 1_555
In2_7 Mg0_5 3.236274 1_565
In2_7 Mg0_3 3.236274 1_655
In2_7 In3_3 3.402014 1_555
In2_7 In3_5 3.402014 1_555
In2_7 In3_7 3.443621 1_555
In3_0 Mg1_5 3.224679 1_554
In3_0 Mg1_3 3.224679 1_554
In3_0 Mg0_2 3.226914 1_555
In3_0 Mg0_4 3.226914 1_555
In3_0 In3_6 3.253552 1_545
In3_0 In3_6 3.253552 1_455
In3_1 Mg1_4 3.224679 1_555
In3_1 Mg1_2 3.224679 1_555
In3_1 Mg0_3 3.226914 1_555
In3_1 Mg0_5 3.226914 1_555
In3_1 In3_7 3.253552 1_545
In3_1 In3_7 3.253552 1_455
In3_2 Mg1_1 3.224679 1_564
In3_2 Mg1_7 3.224679 1_554
In3_2 Mg0_6 3.226914 1_555
In3_2 Mg0_0 3.226914 1_565
In3_2 In3_4 3.253552 1_555
In3_2 In3_4 3.253552 1_465
In3_3 Mg1_0 3.224679 1_565
In3_3 Mg1_6 3.224679 1_555
In3_3 Mg0_7 3.226914 1_555
In3_3 Mg0_1 3.226914 1_565
In3_3 In3_5 3.253552 1_555
In3_3 In3_5 3.253552 1_465
In3_4 Mg1_1 3.224679 1_654
In3_4 Mg1_7 3.224679 1_554
In3_4 Mg0_6 3.226914 1_555
In3_4 Mg0_0 3.226914 1_655
In3_5 Mg1_0 3.224679 1_655
In3_5 Mg1_6 3.224679 1_555
In3_5 Mg0_7 3.226914 1_555
In3_5 Mg0_1 3.226914 1_655
In3_6 Mg1_5 3.224679 1_564
In3_6 Mg1_3 3.224679 1_654
In3_6 Mg0_4 3.226914 1_565
In3_6 Mg0_2 3.226914 1_655
In3_7 Mg1_2 3.224679 1_655
In3_7 Mg1_4 3.224679 1_565
In3_7 Mg0_5 3.226914 1_565
In3_7 Mg0_3 3.226914 1_655
