# generated using pymatgen
data_Na2ZrN2
_symmetry_space_group_name_H-M   'P 1'
_cell_length_a   3.35728603
_cell_length_b   3.35728603
_cell_length_c   8.88552000
_cell_angle_alpha   90.00000000
_cell_angle_beta   90.00000000
_cell_angle_gamma   120.00000062
_symmetry_Int_Tables_number   1
_chemical_formula_structural   Na2ZrN2
_chemical_formula_sum   'Na2 Zr1 N2'
_cell_volume   86.73415759
_cell_formula_units_Z   1
loop_
 _symmetry_equiv_pos_site_id
 _symmetry_equiv_pos_as_xyz
  1  'x, y, z'
loop_
 _atom_site_type_symbol
 _atom_site_label
 _atom_site_symmetry_multiplicity
 _atom_site_fract_x
 _atom_site_fract_y
 _atom_site_fract_z
 _atom_site_occupancy
  Na  Na0  1  0.66666700  0.33333300  0.29326800  1
  Na  Na1  1  0.33333300  0.66666700  0.70673200  1
  Zr  Zr0  1  0.00000000  0.00000000  0.00000000  1
  N  N0  1  0.66666700  0.33333300  0.86862600  1
  N  N1  1  0.33333300  0.66666700  0.13137400  1
loop_
_geom_bond_atom_site_label_1
_geom_bond_atom_site_label_2
_geom_bond_distance
_geom_bond_site_symmetry_2
N0 Zr0 2.262690 1_656
N0 Zr0 2.262693 1_556
N0 Zr0 2.262693 1_666
N0 Na1 2.413801 1_545
N0 Na1 2.413801 1_655
N0 Na1 2.413805 1_555
N1 Zr0 2.262690 1_565
N1 Zr0 2.262693 1_555
N1 Zr0 2.262693 1_665
N1 Na0 2.413801 1_455
N1 Na0 2.413801 1_565
N1 Na0 2.413805 1_555
