# generated using pymatgen
data_BaSrSmWO6
_symmetry_space_group_name_H-M   'P 1'
_cell_length_a   6.02580755
_cell_length_b   6.05372455
_cell_length_c   8.48466136
_cell_angle_alpha   89.82612547
_cell_angle_beta   90.73250987
_cell_angle_gamma   89.88828722
_symmetry_Int_Tables_number   1
_chemical_formula_structural   BaSrSmWO6
_chemical_formula_sum   'Ba2 Sr2 Sm2 W2 O12'
_cell_volume   309.48105957
_cell_formula_units_Z   2
loop_
 _symmetry_equiv_pos_site_id
 _symmetry_equiv_pos_as_xyz
  1  'x, y, z'
loop_
 _atom_site_type_symbol
 _atom_site_label
 _atom_site_symmetry_multiplicity
 _atom_site_fract_x
 _atom_site_fract_y
 _atom_site_fract_z
 _atom_site_occupancy
  Ba  Ba0  1  0.99311550  0.02533674  0.25059928  1
  Ba  Ba1  1  0.00688450  0.97466326  0.74940072  1
  Sr  Sr0  1  0.50658265  0.53539721  0.24761495  1
  Sr  Sr1  1  0.49341735  0.46460279  0.75238505  1
  Sm  Sm0  1  0.00000000  0.50000000  -0.00000000  1
  Sm  Sm1  1  0.50000000  0.00000000  0.50000000  1
  W  W0  1  0.50000000  0.00000000  -0.00000000  1
  W  W1  1  0.00000000  0.50000000  0.50000000  1
  O  O0  1  0.23667404  0.20179570  0.97638965  1
  O  O1  1  0.26625930  0.69842521  0.53781782  1
  O  O2  1  0.76332596  0.79820430  0.02361035  1
  O  O3  1  0.73374070  0.30157479  0.46218218  1
  O  O4  1  0.30313234  0.72759704  0.96010351  1
  O  O5  1  0.20702428  0.23844714  0.53917545  1
  O  O6  1  0.69686766  0.27240296  0.03989649  1
  O  O7  1  0.79297572  0.76155286  0.46082455  1
  O  O8  1  0.44056829  0.97471152  0.23044059  1
  O  O9  1  0.07579736  0.50168554  0.27029002  1
  O  O10  1  0.55943171  0.02528848  0.76955941  1
  O  O11  1  0.92420264  0.49831446  0.72970998  1
loop_
_geom_bond_atom_site_label_1
_geom_bond_atom_site_label_2
_geom_bond_distance
_geom_bond_site_symmetry_2
Ba0 O7 2.689095 1_545
Ba0 O8 2.720645 1_645
Ba0 O2 2.733572 1_545
Ba0 O6 2.917449 1_555
Ba0 O3 2.922639 1_555
Ba0 O9 2.932264 1_655
Ba0 O0 2.964182 1_654
Ba0 O5 3.043980 1_655
Ba0 O9 3.211509 1_645
Ba1 O5 2.689095 1_565
Ba1 O10 2.720645 1_465
Ba1 O0 2.733572 1_565
Ba1 O4 2.917449 1_555
Ba1 O1 2.922639 1_555
Ba1 O11 2.932264 1_455
Ba1 O2 2.964182 1_456
Ba1 O7 3.043980 1_455
Ba1 O11 3.211509 1_465
O0 W0 2.008254 1_556
O0 Sm0 2.309203 1_556
O0 Sr1 2.933147 1_555
O1 W1 2.028977 1_555
O1 Sm1 2.331907 1_565
O1 Sr1 2.665463 1_555
O1 Sr0 3.038795 1_555
O2 W0 2.008254 1_565
O2 Sm0 2.309203 1_655
O2 Sr0 2.933147 1_555
O3 W1 2.028977 1_655
O3 Sm1 2.331907 1_555
O3 Sr0 2.665463 1_555
O3 Sr1 3.038795 1_555
O4 W0 2.059608 1_566
O4 Sm0 2.317816 1_556
O4 Sr1 2.649002 1_555
O4 Sr0 2.950991 1_556
O5 W1 2.037712 1_555
O5 Sm1 2.306258 1_555
O5 Sr1 2.840695 1_555
O6 W0 2.059608 1_555
O6 Sm0 2.317816 1_655
O6 Sr0 2.649002 1_555
O6 Sr1 2.950991 1_554
O7 W1 2.037712 1_655
O7 Sm1 2.306258 1_565
O7 Sr0 2.840695 1_555
O8 W0 1.997708 1_565
O8 Sm1 2.316032 1_565
O8 Sr0 2.691540 1_555
O9 W1 2.007491 1_555
O9 Sm0 2.332682 1_555
O9 Sr0 2.613731 1_555
O10 W0 1.997708 1_556
O10 Sm1 2.316032 1_555
O10 Sr1 2.691540 1_555
O11 W1 2.007491 1_655
O11 Sm0 2.332682 1_656
O11 Sr1 2.613731 1_555
