# generated using pymatgen
data_NbNi2
_symmetry_space_group_name_H-M   'P 1'
_cell_length_a   4.79210230
_cell_length_b   4.79210230
_cell_length_c   7.78637000
_cell_angle_alpha   90.00000000
_cell_angle_beta   90.00000000
_cell_angle_gamma   120.00271015
_symmetry_Int_Tables_number   1
_chemical_formula_structural   NbNi2
_chemical_formula_sum   'Nb4 Ni8'
_cell_volume   154.84813176
_cell_formula_units_Z   4
loop_
 _symmetry_equiv_pos_site_id
 _symmetry_equiv_pos_as_xyz
  1  'x, y, z'
loop_
 _atom_site_type_symbol
 _atom_site_label
 _atom_site_symmetry_multiplicity
 _atom_site_fract_x
 _atom_site_fract_y
 _atom_site_fract_z
 _atom_site_occupancy
  Nb  Nb0  1  0.66671500  0.33328500  0.55517800  1
  Nb  Nb1  1  0.33328500  0.66671500  0.44482200  1
  Nb  Nb2  1  0.33328500  0.66671500  0.05517800  1
  Nb  Nb3  1  0.66671500  0.33328500  0.94482200  1
  Ni  Ni0  1  0.00000000  0.00000000  0.50000000  1
  Ni  Ni1  1  0.00000000  0.00000000  0.00000000  1
  Ni  Ni2  1  0.16881100  0.33763500  0.75000000  1
  Ni  Ni3  1  0.16878900  0.83121100  0.75000000  1
  Ni  Ni4  1  0.66236500  0.83118900  0.75000000  1
  Ni  Ni5  1  0.83118900  0.66236500  0.25000000  1
  Ni  Ni6  1  0.83121100  0.16878900  0.25000000  1
  Ni  Ni7  1  0.33763500  0.16881100  0.25000000  1
loop_
_geom_bond_atom_site_label_1
_geom_bond_atom_site_label_2
_geom_bond_distance
_geom_bond_site_symmetry_2
Nb0 Ni6 2.740562 1_555
Nb0 Ni5 2.740716 1_555
Nb0 Ni7 2.740716 1_555
Nb0 Ni0 2.799522 1_655
Nb0 Ni0 2.800005 1_555
Nb0 Ni0 2.800005 1_665
Nb0 Ni4 2.835617 1_545
Nb0 Ni2 2.835617 1_655
Nb0 Ni3 2.835850 1_655
Nb0 Ni3 2.835850 1_545
Nb0 Ni2 2.836258 1_555
Nb0 Ni4 2.836258 1_555
Nb0 Nb1 2.896629 1_655
Nb0 Nb1 2.896629 1_545
Nb0 Nb1 2.897887 1_555
Nb0 Nb3 3.033912 1_555
Nb1 Ni3 2.740562 1_555
Nb1 Ni4 2.740716 1_555
Nb1 Ni2 2.740716 1_555
Nb1 Ni0 2.799522 1_565
Nb1 Ni0 2.800005 1_555
Nb1 Ni0 2.800005 1_665
Nb1 Ni5 2.835617 1_455
Nb1 Ni7 2.835617 1_565
Nb1 Ni6 2.835850 1_565
Nb1 Ni6 2.835850 1_455
Nb1 Ni7 2.836258 1_555
Nb1 Ni5 2.836258 1_555
Nb1 Nb2 3.033912 1_555
Nb2 Ni3 2.740562 1_554
Nb2 Ni4 2.740716 1_554
Nb2 Ni2 2.740716 1_554
Nb2 Ni1 2.799522 1_565
Nb2 Ni1 2.800005 1_555
Nb2 Ni1 2.800005 1_665
Nb2 Ni5 2.835617 1_455
Nb2 Ni7 2.835617 1_565
Nb2 Ni6 2.835850 1_565
Nb2 Ni6 2.835850 1_455
Nb2 Ni7 2.836258 1_555
Nb2 Ni5 2.836258 1_555
Nb2 Nb3 2.896629 1_564
Nb2 Nb3 2.896629 1_454
Nb2 Nb3 2.897887 1_554
Nb3 Ni6 2.740562 1_556
Nb3 Ni5 2.740716 1_556
Nb3 Ni7 2.740716 1_556
Nb3 Ni1 2.799522 1_656
Nb3 Ni1 2.800005 1_556
Nb3 Ni1 2.800005 1_666
Nb3 Ni4 2.835617 1_545
Nb3 Ni2 2.835617 1_655
Nb3 Ni3 2.835850 1_655
Nb3 Ni3 2.835850 1_545
Nb3 Ni2 2.836258 1_555
Nb3 Ni4 2.836258 1_555
Ni0 Ni3 2.398335 1_545
Ni0 Ni6 2.398335 1_455
Ni0 Ni7 2.398440 1_555
Ni0 Ni2 2.398440 1_555
Ni0 Ni4 2.398440 1_445
Ni0 Ni5 2.398440 1_445
Ni1 Ni6 2.398335 1_455
Ni1 Ni3 2.398335 1_544
Ni1 Ni7 2.398440 1_555
Ni1 Ni2 2.398440 1_554
Ni1 Ni4 2.398440 1_444
Ni1 Ni5 2.398440 1_445
Ni2 Ni4 2.365064 1_555
Ni2 Ni3 2.365319 1_555
Ni2 Ni3 2.426783 1_545
Ni2 Ni4 2.426842 1_445
Ni3 Ni4 2.365319 1_555
Ni3 Ni4 2.426783 1_455
Ni5 Ni7 2.365064 1_555
Ni5 Ni6 2.365319 1_555
Ni5 Ni6 2.426783 1_565
Ni5 Ni7 2.426842 1_665
Ni6 Ni7 2.365319 1_555
Ni6 Ni7 2.426783 1_655
