# generated using pymatgen
data_BaSm(CoO3)2
_symmetry_space_group_name_H-M   'P 1'
_cell_length_a   3.96718300
_cell_length_b   7.73499600
_cell_length_c   7.74271600
_cell_angle_alpha   90.00000000
_cell_angle_beta   90.00000000
_cell_angle_gamma   90.00000000
_symmetry_Int_Tables_number   1
_chemical_formula_structural   BaSm(CoO3)2
_chemical_formula_sum   'Ba2 Sm2 Co4 O12'
_cell_volume   237.59410305
_cell_formula_units_Z   2
loop_
 _symmetry_equiv_pos_site_id
 _symmetry_equiv_pos_as_xyz
  1  'x, y, z'
loop_
 _atom_site_type_symbol
 _atom_site_label
 _atom_site_symmetry_multiplicity
 _atom_site_fract_x
 _atom_site_fract_y
 _atom_site_fract_z
 _atom_site_occupancy
  Ba  Ba0  1  0.50000000  0.00000000  0.24792500  1
  Ba  Ba1  1  0.50000000  0.00000000  0.75207500  1
  Sm  Sm0  1  0.50000000  0.50000000  0.24349500  1
  Sm  Sm1  1  0.50000000  0.50000000  0.75650500  1
  Co  Co0  1  0.00000000  0.74651000  0.50000000  1
  Co  Co1  1  0.00000000  0.25349000  0.50000000  1
  Co  Co2  1  0.00000000  0.74480400  0.00000000  1
  Co  Co3  1  0.00000000  0.25519600  0.00000000  1
  O  O0  1  0.00000000  0.00000000  0.00000000  1
  O  O1  1  0.00000000  0.00000000  0.50000000  1
  O  O2  1  0.00000000  0.50000000  0.50000000  1
  O  O3  1  0.00000000  0.50000000  0.00000000  1
  O  O4  1  0.50000000  0.71485500  0.00000000  1
  O  O5  1  0.50000000  0.28514500  0.00000000  1
  O  O6  1  0.50000000  0.72320200  0.50000000  1
  O  O7  1  0.50000000  0.27679800  0.50000000  1
  O  O8  1  0.00000000  0.72744200  0.24009500  1
  O  O9  1  0.00000000  0.72744200  0.75990500  1
  O  O10  1  0.00000000  0.27255800  0.75990500  1
  O  O11  1  0.00000000  0.27255800  0.24009500  1
loop_
_geom_bond_atom_site_label_1
_geom_bond_atom_site_label_2
_geom_bond_distance
_geom_bond_site_symmetry_2
Ba0 O0 2.760353 1_555
Ba0 O0 2.760353 1_655
Ba0 O1 2.782794 1_655
Ba0 O1 2.782794 1_555
Ba0 O8 2.895335 1_545
Ba0 O8 2.895335 1_645
Ba0 O11 2.895335 1_555
Ba0 O11 2.895335 1_655
Ba0 O7 2.897124 1_555
Ba0 O6 2.897124 1_545
Ba0 O4 2.923964 1_545
Ba0 O5 2.923964 1_555
Ba1 O0 2.760353 1_656
Ba1 O0 2.760353 1_556
Ba1 O1 2.782794 1_655
Ba1 O1 2.782794 1_555
Ba1 O9 2.895335 1_645
Ba1 O9 2.895335 1_545
Ba1 O10 2.895335 1_655
Ba1 O10 2.895335 1_555
Ba1 O7 2.897124 1_555
Ba1 O6 2.897124 1_545
Ba1 O5 2.923964 1_556
Ba1 O4 2.923964 1_546
Co0 O2 1.906754 1_555
Co0 O1 1.960744 1_565
Co0 O6 1.991768 1_455
Co0 O6 1.991768 1_555
Co0 O8 2.017768 1_555
Co0 O9 2.017768 1_555
Co1 O2 1.906754 1_555
Co1 O1 1.960744 1_555
Co1 O7 1.991768 1_455
Co1 O7 1.991768 1_555
Co1 O11 2.017768 1_555
Co1 O10 2.017768 1_555
Co2 O9 1.863832 1_554
Co2 O8 1.863832 1_555
Co2 O3 1.893558 1_555
Co2 O0 1.973940 1_565
Co2 O4 1.997073 1_555
Co2 O4 1.997073 1_455
Co3 O10 1.863832 1_554
Co3 O11 1.863832 1_555
Co3 O3 1.893558 1_555
Co3 O0 1.973940 1_555
Co3 O5 1.997073 1_455
Co3 O5 1.997073 1_555
O2 Sm0 2.806958 1_455
O2 Sm0 2.806958 1_555
O2 Sm1 2.806958 1_455
O2 Sm1 2.806958 1_555
O3 Sm0 2.736611 1_455
O3 Sm0 2.736611 1_555
O3 Sm1 2.736611 1_454
O3 Sm1 2.736611 1_554
O4 Sm0 2.513230 1_555
O4 Sm1 2.513230 1_554
O5 Sm0 2.513230 1_555
O5 Sm1 2.513230 1_554
O6 Sm1 2.631551 1_555
O6 Sm0 2.631551 1_555
O7 Sm1 2.631551 1_555
O7 Sm0 2.631551 1_555
O8 Sm0 2.651478 1_455
O8 Sm0 2.651478 1_555
O9 Sm1 2.651478 1_555
O9 Sm1 2.651478 1_455
O10 Sm1 2.651478 1_455
O10 Sm1 2.651478 1_555
O11 Sm0 2.651478 1_555
O11 Sm0 2.651478 1_455
