# generated using pymatgen
data_LaGd(BrO)2
_symmetry_space_group_name_H-M   'P 1'
_cell_length_a   4.03463600
_cell_length_b   4.03463600
_cell_length_c   8.04942400
_cell_angle_alpha   90.00000000
_cell_angle_beta   90.00000000
_cell_angle_gamma   90.00000000
_symmetry_Int_Tables_number   1
_chemical_formula_structural   LaGd(BrO)2
_chemical_formula_sum   'La1 Gd1 Br2 O2'
_cell_volume   131.03083931
_cell_formula_units_Z   1
loop_
 _symmetry_equiv_pos_site_id
 _symmetry_equiv_pos_as_xyz
  1  'x, y, z'
loop_
 _atom_site_type_symbol
 _atom_site_label
 _atom_site_symmetry_multiplicity
 _atom_site_fract_x
 _atom_site_fract_y
 _atom_site_fract_z
 _atom_site_occupancy
  La  La0  1  0.00000000  0.00000000  0.84833700  1
  Gd  Gd0  1  0.50000000  0.50000000  0.14451800  1
  Br  Br0  1  0.50000000  0.50000000  0.64914700  1
  Br  Br1  1  0.00000000  0.00000000  0.34740300  1
  O  O0  1  0.50000000  0.00000000  0.00529800  1
  O  O1  1  0.00000000  0.50000000  0.00529800  1
loop_
_geom_bond_atom_site_label_1
_geom_bond_atom_site_label_2
_geom_bond_distance
_geom_bond_site_symmetry_2
La0 O1 2.380308 1_546
La0 O0 2.380308 1_456
La0 O0 2.380308 1_556
La0 O1 2.380308 1_556
Gd0 O1 2.307684 1_555
Gd0 O0 2.307684 1_565
Gd0 O1 2.307684 1_655
Gd0 O0 2.307684 1_555
Br0 La0 3.272602 1_655
Br0 La0 3.272602 1_555
Br0 La0 3.272602 1_665
Br0 La0 3.272602 1_565
Br1 Gd0 3.287276 1_445
Br1 Gd0 3.287276 1_545
Br1 Gd0 3.287276 1_455
Br1 Gd0 3.287276 1_555
