# generated using pymatgen
data_Be2Si2O5
_symmetry_space_group_name_H-M   'P 1'
_cell_length_a   3.33127200
_cell_length_b   3.33127200
_cell_length_c   6.68098300
_cell_angle_alpha   90.00000000
_cell_angle_beta   90.00000000
_cell_angle_gamma   90.00000000
_symmetry_Int_Tables_number   1
_chemical_formula_structural   Be2Si2O5
_chemical_formula_sum   'Be2 Si2 O5'
_cell_volume   74.14136128
_cell_formula_units_Z   1
loop_
 _symmetry_equiv_pos_site_id
 _symmetry_equiv_pos_as_xyz
  1  'x, y, z'
loop_
 _atom_site_type_symbol
 _atom_site_label
 _atom_site_symmetry_multiplicity
 _atom_site_fract_x
 _atom_site_fract_y
 _atom_site_fract_z
 _atom_site_occupancy
  Be  Be0  1  0.50000000  0.50000000  0.24817600  1
  Be  Be1  1  0.50000000  0.50000000  0.75182400  1
  Si  Si0  1  0.00000000  0.00000000  0.00000000  1
  Si  Si1  1  0.00000000  0.00000000  0.50000000  1
  O  O0  1  0.50000000  0.00000000  0.17289000  1
  O  O1  1  0.50000000  0.00000000  0.82711000  1
  O  O2  1  0.00000000  0.50000000  0.17289000  1
  O  O3  1  0.00000000  0.50000000  0.82711000  1
  O  O4  1  0.50000000  0.50000000  0.50000000  1
loop_
_geom_bond_atom_site_label_1
_geom_bond_atom_site_label_2
_geom_bond_distance
_geom_bond_site_symmetry_2
Be0 O4 1.682432 1_555
Be0 O0 1.739924 1_565
Be0 O2 1.739924 1_655
Be0 O2 1.739924 1_555
Be0 O0 1.739924 1_555
Be1 O4 1.682432 1_555
Be1 O1 1.739924 1_555
Be1 O3 1.739924 1_655
Be1 O1 1.739924 1_565
Be1 O3 1.739924 1_555
O0 Si0 2.026954 1_555
O0 Si0 2.026954 1_655
O1 Si0 2.026954 1_656
O1 Si0 2.026954 1_556
O2 Si0 2.026954 1_555
O2 Si0 2.026954 1_565
O3 Si0 2.026954 1_566
O3 Si0 2.026954 1_556
O4 Si1 2.355565 1_565
O4 Si1 2.355565 1_555
O4 Si1 2.355565 1_655
O4 Si1 2.355565 1_665
