# generated using pymatgen
data_LaHoSi2O7
_symmetry_space_group_name_H-M   'P 1'
_cell_length_a   8.65292100
_cell_length_b   5.44292300
_cell_length_c   14.02653273
_cell_angle_alpha   67.68807119
_cell_angle_beta   90.00000000
_cell_angle_gamma   90.00000000
_symmetry_Int_Tables_number   1
_chemical_formula_structural   LaHoSi2O7
_chemical_formula_sum   'La4 Ho4 Si8 O28'
_cell_volume   611.15075162
_cell_formula_units_Z   4
loop_
 _symmetry_equiv_pos_site_id
 _symmetry_equiv_pos_as_xyz
  1  'x, y, z'
loop_
 _atom_site_type_symbol
 _atom_site_label
 _atom_site_symmetry_multiplicity
 _atom_site_fract_x
 _atom_site_fract_y
 _atom_site_fract_z
 _atom_site_occupancy
  La  La0  1  0.80533300  0.48408600  0.77136000  1
  La  La1  1  0.30533300  0.51591400  0.72864000  1
  La  La2  1  0.19466700  0.51591400  0.22864000  1
  La  La3  1  0.69466700  0.48408600  0.27136000  1
  Ho  Ho0  1  0.60768900  0.18245100  0.59017600  1
  Ho  Ho1  1  0.10768900  0.81754900  0.90982400  1
  Ho  Ho2  1  0.39231100  0.81754900  0.40982400  1
  Ho  Ho3  1  0.89231100  0.18245100  0.09017600  1
  Si  Si0  1  0.24475700  0.25132800  0.02120200  1
  Si  Si1  1  0.74475700  0.74867200  0.47879800  1
  Si  Si2  1  0.75524300  0.74867200  0.97879800  1
  Si  Si3  1  0.25524300  0.25132800  0.52120200  1
  Si  Si4  1  0.50182600  0.04585800  0.18202100  1
  Si  Si5  1  0.00182600  0.95414200  0.31797900  1
  Si  Si6  1  0.49817400  0.95414200  0.81797900  1
  Si  Si7  1  0.99817400  0.04585800  0.68202100  1
  O  O0  1  0.41876600  0.20763000  0.07074000  1
  O  O1  1  0.91876600  0.79237000  0.42926000  1
  O  O2  1  0.58123400  0.79237000  0.92926000  1
  O  O3  1  0.08123400  0.20763000  0.57074000  1
  O  O4  1  0.25189900  0.46359600  0.90281700  1
  O  O5  1  0.75189900  0.53640400  0.59718300  1
  O  O6  1  0.74810100  0.53640400  0.09718300  1
  O  O7  1  0.24810100  0.46359600  0.40281700  1
  O  O8  1  0.15644200  0.97081800  0.04005500  1
  O  O9  1  0.65644200  0.02918200  0.45994500  1
  O  O10  1  0.84355800  0.02918200  0.95994500  1
  O  O11  1  0.34355800  0.97081800  0.54005500  1
  O  O12  1  0.13077500  0.41360600  0.07433000  1
  O  O13  1  0.63077500  0.58639400  0.42567000  1
  O  O14  1  0.86922500  0.58639400  0.92567000  1
  O  O15  1  0.36922500  0.41360600  0.57433000  1
  O  O16  1  0.42265400  0.75464400  0.24413700  1
  O  O17  1  0.92265400  0.24535600  0.25586300  1
  O  O18  1  0.57734600  0.24535600  0.75586300  1
  O  O19  1  0.07734600  0.75464400  0.74413700  1
  O  O20  1  0.48057600  0.20787400  0.25971100  1
  O  O21  1  0.98057600  0.79212600  0.24028900  1
  O  O22  1  0.51942400  0.79212600  0.74028900  1
  O  O23  1  0.01942400  0.20787400  0.75971100  1
  O  O24  1  0.68119700  0.97634800  0.16825600  1
  O  O25  1  0.18119700  0.02365200  0.33174400  1
  O  O26  1  0.31880300  0.02365200  0.83174400  1
  O  O27  1  0.81880300  0.97634800  0.66825600  1
loop_
_geom_bond_atom_site_label_1
_geom_bond_atom_site_label_2
_geom_bond_distance
_geom_bond_site_symmetry_2
La0 O5 2.394860 1_555
La0 O18 2.416998 1_555
La0 O23 2.430069 1_655
La0 O14 2.493125 1_555
La0 O27 2.518289 1_555
La0 O19 2.725327 1_655
La0 O10 2.874722 1_555
La0 O22 2.926883 1_555
La1 O4 2.394860 1_555
La1 O19 2.416998 1_555
La1 O22 2.430069 1_555
La1 O15 2.493125 1_555
La1 O26 2.518289 1_555
La1 O18 2.725327 1_555
La1 O11 2.874722 1_555
La1 O23 2.926883 1_555
La2 O7 2.394860 1_555
La2 O16 2.416998 1_555
La2 O21 2.430069 1_455
La2 O12 2.493125 1_555
La2 O25 2.518289 1_555
La2 O17 2.725327 1_455
La2 O8 2.874722 1_555
La2 O20 2.926883 1_555
La3 O6 2.394860 1_555
La3 O17 2.416998 1_555
La3 O20 2.430069 1_555
La3 O13 2.493125 1_555
La3 O24 2.518289 1_555
La3 O16 2.725327 1_555
La3 O9 2.874722 1_555
La3 O21 2.926883 1_555
Ho0 O27 2.205005 1_545
Ho0 O9 2.316847 1_555
Ho0 O5 2.328537 1_555
Ho0 O15 2.382791 1_555
Ho0 O22 2.476630 1_545
Ho0 O18 2.488250 1_555
Ho0 O13 2.519149 1_555
Ho0 O11 2.767588 1_545
Ho1 O26 2.205005 1_565
Ho1 O8 2.316847 1_556
Ho1 O4 2.328537 1_555
Ho1 O14 2.382791 1_455
Ho1 O23 2.476630 1_565
Ho1 O19 2.488250 1_555
Ho1 O12 2.519149 1_556
Ho1 O10 2.767588 1_465
Ho2 O25 2.205005 1_565
Ho2 O11 2.316847 1_555
Ho2 O7 2.328537 1_555
Ho2 O13 2.382791 1_555
Ho2 O20 2.476630 1_565
Ho2 O16 2.488250 1_555
Ho2 O15 2.519149 1_555
Ho2 O9 2.767588 1_565
Ho3 O24 2.205005 1_545
Ho3 O10 2.316847 1_554
Ho3 O6 2.328537 1_555
Ho3 O12 2.382791 1_655
Ho3 O21 2.476630 1_545
Ho3 O17 2.488250 1_555
Ho3 O14 2.519149 1_554
Ho3 O8 2.767588 1_645
O0 Si0 1.637372 1_555
O0 Si4 1.638491 1_555
O1 Si1 1.637372 1_555
O1 Si5 1.638491 1_655
O2 Si2 1.637372 1_555
O2 Si6 1.638491 1_555
O3 Si3 1.637372 1_555
O3 Si7 1.638491 1_455
O4 Si0 1.624597 1_556
O5 Si1 1.624597 1_555
O6 Si2 1.624597 1_554
O7 Si3 1.624597 1_555
O8 Si0 1.636594 1_565
O9 Si1 1.636594 1_545
O10 Si2 1.636594 1_545
O11 Si3 1.636594 1_565
O12 Si0 1.675711 1_555
O13 Si1 1.675711 1_555
O14 Si2 1.675711 1_555
O15 Si3 1.675711 1_555
O16 Si4 1.640803 1_565
O17 Si5 1.640803 1_645
O18 Si6 1.640803 1_545
O19 Si7 1.640803 1_465
O20 Si4 1.651848 1_555
O21 Si5 1.651848 1_655
O22 Si6 1.651848 1_555
O23 Si7 1.651848 1_455
O24 Si4 1.626298 1_565
O25 Si5 1.626298 1_545
O26 Si6 1.626298 1_545
O27 Si7 1.626298 1_565
