# generated using pymatgen
data_Ba2SmCrO6
_symmetry_space_group_name_H-M   'P 1'
_cell_length_a   8.41273529
_cell_length_b   8.41273529
_cell_length_c   8.41273529
_cell_angle_alpha   90.00000000
_cell_angle_beta   90.00000000
_cell_angle_gamma   90.00000000
_symmetry_Int_Tables_number   1
_chemical_formula_structural   Ba2SmCrO6
_chemical_formula_sum   'Ba8 Sm4 Cr4 O24'
_cell_volume   595.40389538
_cell_formula_units_Z   4
loop_
 _symmetry_equiv_pos_site_id
 _symmetry_equiv_pos_as_xyz
  1  'x, y, z'
loop_
 _atom_site_type_symbol
 _atom_site_label
 _atom_site_symmetry_multiplicity
 _atom_site_fract_x
 _atom_site_fract_y
 _atom_site_fract_z
 _atom_site_occupancy
  Ba  Ba0  1  0.50000000  0.50000000  0.50000000  1
  Ba  Ba1  1  -0.00000000  0.00000000  -0.00000000  1
  Ba  Ba2  1  -0.00000000  0.00000000  0.50000000  1
  Ba  Ba3  1  -0.00000000  0.50000000  -0.00000000  1
  Ba  Ba4  1  0.50000000  0.00000000  -0.00000000  1
  Ba  Ba5  1  0.50000000  0.50000000  -0.00000000  1
  Ba  Ba6  1  0.50000000  0.00000000  0.50000000  1
  Ba  Ba7  1  -0.00000000  0.50000000  0.50000000  1
  Sm  Sm0  1  0.25000000  0.25000000  0.25000000  1
  Sm  Sm1  1  0.25000000  0.75000000  0.75000000  1
  Sm  Sm2  1  0.75000000  0.25000000  0.75000000  1
  Sm  Sm3  1  0.75000000  0.75000000  0.25000000  1
  Cr  Cr0  1  0.75000000  0.75000000  0.75000000  1
  Cr  Cr1  1  0.75000000  0.25000000  0.25000000  1
  Cr  Cr2  1  0.25000000  0.75000000  0.25000000  1
  Cr  Cr3  1  0.25000000  0.25000000  0.75000000  1
  O  O0  1  0.23933326  0.26213405  0.52281904  1
  O  O1  1  0.23933326  0.73786595  0.47718096  1
  O  O2  1  0.76066674  0.26213405  0.47718096  1
  O  O3  1  0.76066674  0.73786595  0.52281904  1
  O  O4  1  0.26213405  0.52281904  0.23933326  1
  O  O5  1  0.73786595  0.47718096  0.23933326  1
  O  O6  1  0.26213405  0.47718096  0.76066674  1
  O  O7  1  0.73786595  0.52281904  0.76066674  1
  O  O8  1  0.52281904  0.23933326  0.26213405  1
  O  O9  1  0.47718096  0.23933326  0.73786595  1
  O  O10  1  0.47718096  0.76066674  0.26213405  1
  O  O11  1  0.52281904  0.76066674  0.73786595  1
  O  O12  1  0.26066674  0.23786595  0.97718096  1
  O  O13  1  0.26066674  0.76213405  0.02281904  1
  O  O14  1  0.73933326  0.23786595  0.02281904  1
  O  O15  1  0.73933326  0.76213405  0.97718096  1
  O  O16  1  0.23786595  0.97718096  0.26066674  1
  O  O17  1  0.76213405  0.02281904  0.26066674  1
  O  O18  1  0.23786595  0.02281904  0.73933326  1
  O  O19  1  0.76213405  0.97718096  0.73933326  1
  O  O20  1  0.97718096  0.26066674  0.23786595  1
  O  O21  1  0.02281904  0.26066674  0.76213405  1
  O  O22  1  0.02281904  0.73933326  0.23786595  1
  O  O23  1  0.97718096  0.73933326  0.76213405  1
loop_
_geom_bond_atom_site_label_1
_geom_bond_atom_site_label_2
_geom_bond_distance
_geom_bond_site_symmetry_2
Ba0 O7 2.974923 1_555
Ba0 O10 2.974923 1_555
Ba0 O0 2.974923 1_555
Ba0 O9 2.974923 1_555
Ba0 O3 2.974923 1_555
Ba0 O2 2.974923 1_555
Ba0 O1 2.974923 1_555
Ba0 O4 2.974923 1_555
Ba0 O11 2.974923 1_555
Ba0 O8 2.974923 1_555
Ba0 O5 2.974923 1_555
Ba0 O6 2.974923 1_555
Ba1 O17 2.974923 1_455
Ba1 O15 2.974923 1_444
Ba1 O14 2.974923 1_455
Ba1 O19 2.974923 1_444
Ba1 O20 2.974923 1_455
Ba1 O22 2.974923 1_545
Ba1 O16 2.974923 1_545
Ba1 O18 2.974923 1_554
Ba1 O21 2.974923 1_554
Ba1 O23 2.974923 1_444
Ba1 O12 2.974923 1_554
Ba1 O13 2.974923 1_545
Ba2 O19 2.845213 1_445
Ba2 O16 2.845213 1_545
Ba2 O18 2.845213 1_555
Ba2 O17 2.845213 1_455
Ba2 O3 2.992326 1_445
Ba2 O1 2.992326 1_545
Ba2 O0 2.992326 1_555
Ba2 O2 2.992326 1_455
Ba2 O20 3.115918 1_455
Ba2 O23 3.115918 1_445
Ba2 O21 3.115918 1_555
Ba2 O22 3.115918 1_545
Ba3 O21 2.845213 1_554
Ba3 O23 2.845213 1_454
Ba3 O22 2.845213 1_555
Ba3 O20 2.845213 1_455
Ba3 O7 2.992326 1_454
Ba3 O4 2.992326 1_555
Ba3 O5 2.992326 1_455
Ba3 O6 2.992326 1_554
Ba3 O13 3.115918 1_555
Ba3 O14 3.115918 1_455
Ba3 O15 3.115918 1_454
Ba3 O12 3.115918 1_554
Ba4 O14 2.845213 1_555
Ba4 O12 2.845213 1_554
Ba4 O13 2.845213 1_545
Ba4 O15 2.845213 1_544
Ba4 O9 2.992326 1_554
Ba4 O11 2.992326 1_544
Ba4 O8 2.992326 1_555
Ba4 O10 2.992326 1_545
Ba4 O17 3.115918 1_555
Ba4 O19 3.115918 1_544
Ba4 O16 3.115918 1_545
Ba4 O18 3.115918 1_554
Ba5 O4 2.845213 1_555
Ba5 O5 2.845213 1_555
Ba5 O6 2.845213 1_554
Ba5 O7 2.845213 1_554
Ba5 O12 2.992326 1_554
Ba5 O14 2.992326 1_555
Ba5 O15 2.992326 1_554
Ba5 O13 2.992326 1_555
Ba5 O10 3.115918 1_555
Ba5 O8 3.115918 1_555
Ba5 O11 3.115918 1_554
Ba5 O9 3.115918 1_554
Ba6 O8 2.845213 1_555
Ba6 O10 2.845213 1_545
Ba6 O9 2.845213 1_555
Ba6 O11 2.845213 1_545
Ba6 O16 2.992326 1_545
Ba6 O18 2.992326 1_555
Ba6 O19 2.992326 1_545
Ba6 O17 2.992326 1_555
Ba6 O0 3.115918 1_555
Ba6 O2 3.115918 1_555
Ba6 O3 3.115918 1_545
Ba6 O1 3.115918 1_545
Ba7 O2 2.845213 1_455
Ba7 O1 2.845213 1_555
Ba7 O3 2.845213 1_455
Ba7 O0 2.845213 1_555
Ba7 O21 2.992326 1_555
Ba7 O22 2.992326 1_555
Ba7 O23 2.992326 1_455
Ba7 O20 2.992326 1_455
Ba7 O7 3.115918 1_455
Ba7 O4 3.115918 1_555
Ba7 O5 3.115918 1_455
Ba7 O6 3.115918 1_555
Cr0 O3 1.916040 1_555
Cr0 O15 1.916040 1_555
Cr0 O23 1.916040 1_555
Cr0 O11 1.916040 1_555
Cr0 O7 1.916040 1_555
Cr0 O19 1.916040 1_555
Cr1 O2 1.916040 1_555
Cr1 O14 1.916040 1_555
Cr1 O17 1.916040 1_555
Cr1 O8 1.916040 1_555
Cr1 O5 1.916040 1_555
Cr1 O20 1.916040 1_555
Cr2 O1 1.916040 1_555
Cr2 O13 1.916040 1_555
Cr2 O4 1.916040 1_555
Cr2 O10 1.916040 1_555
Cr2 O22 1.916040 1_555
Cr2 O16 1.916040 1_555
Cr3 O0 1.916040 1_555
Cr3 O12 1.916040 1_555
Cr3 O21 1.916040 1_555
Cr3 O18 1.916040 1_555
Cr3 O6 1.916040 1_555
Cr3 O9 1.916040 1_555
O0 Sm0 2.299175 1_555
O1 Sm1 2.299175 1_555
O2 Sm2 2.299175 1_555
O3 Sm3 2.299175 1_555
O4 Sm0 2.299175 1_555
O5 Sm3 2.299175 1_555
O6 Sm1 2.299175 1_555
O7 Sm2 2.299175 1_555
O8 Sm0 2.299175 1_555
O9 Sm2 2.299175 1_555
O10 Sm3 2.299175 1_555
O11 Sm1 2.299175 1_555
O12 Sm0 2.299175 1_556
O13 Sm1 2.299175 1_554
O14 Sm2 2.299175 1_554
O15 Sm3 2.299175 1_556
O16 Sm0 2.299175 1_565
O17 Sm3 2.299175 1_545
O18 Sm1 2.299175 1_545
O19 Sm2 2.299175 1_565
O20 Sm0 2.299175 1_655
O21 Sm2 2.299175 1_455
O22 Sm3 2.299175 1_455
O23 Sm1 2.299175 1_655
