# generated using pymatgen
data_PrGa4Os
_symmetry_space_group_name_H-M   'P 1'
_cell_length_a   7.70927200
_cell_length_b   8.86281700
_cell_length_c   9.76620300
_cell_angle_alpha   90.00000000
_cell_angle_beta   90.00000000
_cell_angle_gamma   90.00000000
_symmetry_Int_Tables_number   1
_chemical_formula_structural   PrGa4Os
_chemical_formula_sum   'Pr6 Ga24 Os6'
_cell_volume   667.28428668
_cell_formula_units_Z   6
loop_
 _symmetry_equiv_pos_site_id
 _symmetry_equiv_pos_as_xyz
  1  'x, y, z'
loop_
 _atom_site_type_symbol
 _atom_site_label
 _atom_site_symmetry_multiplicity
 _atom_site_fract_x
 _atom_site_fract_y
 _atom_site_fract_z
 _atom_site_occupancy
  Pr  Pr0  1  0.32016500  0.50000000  0.75000000  1
  Pr  Pr1  1  0.67983500  0.50000000  0.25000000  1
  Pr  Pr2  1  0.83891200  0.24900800  0.75000000  1
  Pr  Pr3  1  0.16108800  0.75099200  0.25000000  1
  Pr  Pr4  1  0.83891200  0.75099200  0.75000000  1
  Pr  Pr5  1  0.16108800  0.24900800  0.25000000  1
  Ga  Ga0  1  0.17864200  0.23622700  0.57524900  1
  Ga  Ga1  1  0.82135800  0.76377300  0.42475100  1
  Ga  Ga2  1  0.17864200  0.76377300  0.92475100  1
  Ga  Ga3  1  0.82135800  0.23622700  0.42475100  1
  Ga  Ga4  1  0.82135800  0.23622700  0.07524900  1
  Ga  Ga5  1  0.17864200  0.76377300  0.57524900  1
  Ga  Ga6  1  0.82135800  0.76377300  0.07524900  1
  Ga  Ga7  1  0.17864200  0.23622700  0.92475100  1
  Ga  Ga8  1  0.13004100  0.00000000  0.75000000  1
  Ga  Ga9  1  0.86995900  0.00000000  0.25000000  1
  Ga  Ga10  1  0.33786500  0.00000000  0.06101600  1
  Ga  Ga11  1  0.66213500  0.00000000  0.93898400  1
  Ga  Ga12  1  0.33786500  0.00000000  0.43898400  1
  Ga  Ga13  1  0.66213500  0.00000000  0.56101600  1
  Ga  Ga14  1  0.45270600  0.15634400  0.75000000  1
  Ga  Ga15  1  0.54729400  0.84365600  0.25000000  1
  Ga  Ga16  1  0.45270600  0.84365600  0.75000000  1
  Ga  Ga17  1  0.54729400  0.15634400  0.25000000  1
  Ga  Ga18  1  0.65642700  0.50000000  0.58528300  1
  Ga  Ga19  1  0.34357300  0.50000000  0.41471700  1
  Ga  Ga20  1  0.65642700  0.50000000  0.91471700  1
  Ga  Ga21  1  0.34357300  0.50000000  0.08528300  1
  Ga  Ga22  1  0.00000000  0.50000000  0.50000000  1
  Ga  Ga23  1  0.00000000  0.50000000  0.00000000  1
  Os  Os0  1  0.50000000  0.25922900  0.50000000  1
  Os  Os1  1  0.50000000  0.74077100  0.50000000  1
  Os  Os2  1  0.50000000  0.74077100  0.00000000  1
  Os  Os3  1  0.50000000  0.25922900  0.00000000  1
  Os  Os4  1  0.00000000  0.00000000  0.50000000  1
  Os  Os5  1  0.00000000  0.00000000  0.00000000  1
loop_
_geom_bond_atom_site_label_1
_geom_bond_atom_site_label_2
_geom_bond_distance
_geom_bond_site_symmetry_2
Ga0 Os0 2.592166 1_555
Ga0 Os4 2.611526 1_555
Ga0 Ga8 2.726970 1_555
Ga0 Ga12 2.767862 1_555
Ga0 Ga14 2.806774 1_555
Ga0 Ga22 2.811037 1_555
Ga0 Pr0 3.093252 1_555
Ga0 Pr2 3.128103 1_455
Ga0 Pr5 3.181347 1_555
Ga1 Os1 2.592166 1_555
Ga1 Os4 2.611526 1_665
Ga1 Ga9 2.726970 1_565
Ga1 Ga13 2.767862 1_565
Ga1 Ga15 2.806774 1_555
Ga1 Ga22 2.811037 1_655
Ga1 Pr1 3.093252 1_555
Ga1 Pr3 3.128103 1_655
Ga1 Pr4 3.181347 1_555
Ga2 Os2 2.592166 1_556
Ga2 Os5 2.611526 1_566
Ga2 Ga8 2.726970 1_565
Ga2 Ga23 2.811037 1_556
Ga2 Pr0 3.093252 1_555
Ga2 Pr4 3.128103 1_455
Ga2 Pr3 3.181347 1_556
Ga3 Os0 2.592166 1_555
Ga3 Os4 2.611526 1_655
Ga3 Ga9 2.726970 1_555
Ga3 Pr1 3.093252 1_555
Ga3 Pr5 3.128103 1_655
Ga3 Pr2 3.181347 1_555
Ga4 Os3 2.592166 1_555
Ga4 Os5 2.611526 1_655
Ga4 Ga9 2.726970 1_555
Ga4 Pr1 3.093252 1_555
Ga4 Pr5 3.128103 1_655
Ga4 Pr2 3.181347 1_554
Ga5 Os1 2.592166 1_555
Ga5 Os4 2.611526 1_565
Ga5 Ga8 2.726970 1_565
Ga5 Pr0 3.093252 1_555
Ga5 Pr4 3.128103 1_455
Ga5 Pr3 3.181347 1_555
Ga6 Os2 2.592166 1_555
Ga6 Os5 2.611526 1_665
Ga6 Ga9 2.726970 1_565
Ga6 Pr1 3.093252 1_555
Ga6 Pr3 3.128103 1_655
Ga6 Pr4 3.181347 1_554
Ga7 Os3 2.592166 1_556
Ga7 Os5 2.611526 1_556
Ga7 Ga8 2.726970 1_555
Ga7 Pr0 3.093252 1_555
Ga7 Pr2 3.128103 1_455
Ga7 Pr5 3.181347 1_556
Ga8 Os4 2.639360 1_555
Ga8 Os5 2.639360 1_556
Ga8 Pr2 3.147660 1_455
Ga8 Pr4 3.147660 1_445
Ga9 Os4 2.639360 1_655
Ga9 Os5 2.639360 1_655
Ga9 Pr5 3.147660 1_655
Ga9 Pr3 3.147660 1_645
Ga10 Os5 2.671987 1_555
Ga10 Os3 2.682527 1_555
Ga10 Os2 2.682527 1_545
Ga10 Ga7 2.767862 1_554
Ga10 Ga2 2.767862 1_544
Ga10 Ga11 2.769439 1_554
Ga10 Ga17 2.816598 1_555
Ga10 Ga15 2.816598 1_545
Ga10 Pr5 3.183425 1_555
Ga10 Pr3 3.183425 1_545
Ga11 Os5 2.671987 1_656
Ga11 Os3 2.682527 1_556
Ga11 Os2 2.682527 1_546
Ga11 Ga4 2.767862 1_556
Ga11 Ga6 2.767862 1_546
Ga11 Ga14 2.816598 1_555
Ga11 Ga16 2.816598 1_545
Ga11 Pr2 3.183425 1_555
Ga11 Pr4 3.183425 1_545
Ga12 Os4 2.671987 1_555
Ga12 Os0 2.682527 1_555
Ga12 Os1 2.682527 1_545
Ga12 Ga5 2.767862 1_545
Ga12 Ga13 2.769439 1_555
Ga12 Ga17 2.816598 1_555
Ga12 Ga15 2.816598 1_545
Ga12 Pr5 3.183425 1_555
Ga12 Pr3 3.183425 1_545
Ga13 Os4 2.671987 1_655
Ga13 Os1 2.682527 1_545
Ga13 Os0 2.682527 1_555
Ga13 Ga3 2.767862 1_555
Ga13 Ga14 2.816598 1_555
Ga13 Ga16 2.816598 1_545
Ga13 Pr2 3.183425 1_555
Ga13 Pr4 3.183425 1_545
Ga14 Os3 2.631649 1_556
Ga14 Os0 2.631649 1_555
Ga14 Ga16 2.771297 1_545
Ga14 Ga7 2.806774 1_555
Ga14 Ga8 2.847409 1_555
Ga14 Pr2 3.088558 1_555
Ga14 Pr0 3.212588 1_555
Ga15 Os2 2.631649 1_555
Ga15 Os1 2.631649 1_555
Ga15 Ga17 2.771297 1_565
Ga15 Ga6 2.806774 1_555
Ga15 Ga9 2.847409 1_565
Ga15 Pr3 3.088558 1_555
Ga15 Pr1 3.212588 1_555
Ga16 Os2 2.631649 1_556
Ga16 Os1 2.631649 1_555
Ga16 Ga5 2.806774 1_555
Ga16 Ga2 2.806774 1_555
Ga16 Ga8 2.847409 1_565
Ga16 Pr4 3.088558 1_555
Ga16 Pr0 3.212588 1_555
Ga17 Os0 2.631649 1_555
Ga17 Os3 2.631649 1_555
Ga17 Ga4 2.806774 1_555
Ga17 Ga3 2.806774 1_555
Ga17 Ga9 2.847409 1_555
Ga17 Pr5 3.088558 1_555
Ga17 Pr1 3.212588 1_555
Ga18 Os1 2.588738 1_555
Ga18 Os0 2.588738 1_555
Ga18 Ga22 2.776564 1_655
Ga18 Pr0 3.050900 1_555
Ga18 Pr4 3.084693 1_555
Ga18 Pr2 3.084693 1_555
Ga18 Pr1 3.279411 1_555
Ga19 Os0 2.588738 1_555
Ga19 Os1 2.588738 1_555
Ga19 Ga22 2.776564 1_555
Ga19 Pr1 3.050900 1_555
Ga19 Pr3 3.084693 1_555
Ga19 Pr5 3.084693 1_555
Ga19 Pr0 3.279411 1_555
Ga20 Os2 2.588738 1_556
Ga20 Os3 2.588738 1_556
Ga20 Ga23 2.776564 1_656
Ga20 Pr0 3.050900 1_555
Ga20 Pr4 3.084693 1_555
Ga20 Pr2 3.084693 1_555
Ga20 Pr1 3.279411 1_556
Ga21 Os3 2.588738 1_555
Ga21 Os2 2.588738 1_555
Ga21 Ga23 2.776564 1_555
Ga21 Pr1 3.050900 1_555
Ga21 Pr3 3.084693 1_555
Ga21 Pr5 3.084693 1_555
Ga21 Pr0 3.279411 1_554
Ga22 Ga5 2.811037 1_555
Ga22 Ga3 2.811037 1_455
Ga22 Pr0 3.471797 1_555
Ga22 Pr1 3.471797 1_455
Ga22 Pr3 3.528710 1_555
Ga22 Pr4 3.528710 1_455
Ga22 Pr5 3.528710 1_555
Ga22 Pr2 3.528710 1_455
Ga23 Ga6 2.811037 1_455
Ga23 Ga7 2.811037 1_554
Ga23 Ga4 2.811037 1_455
Ga23 Pr0 3.471797 1_554
Ga23 Pr1 3.471797 1_455
Ga23 Pr3 3.528710 1_555
Ga23 Pr4 3.528710 1_454
Ga23 Pr5 3.528710 1_555
Ga23 Pr2 3.528710 1_454
Os0 Pr1 3.526590 1_555
Os0 Pr0 3.526590 1_555
Os1 Pr0 3.526590 1_555
Os1 Pr1 3.526590 1_555
Os2 Pr1 3.526590 1_555
Os2 Pr0 3.526590 1_554
Os3 Pr1 3.526590 1_555
Os3 Pr0 3.526590 1_554
