# generated using pymatgen
data_MgSn5
_symmetry_space_group_name_H-M   'P 1'
_cell_length_a   18.10338397
_cell_length_b   18.10338397
_cell_length_c   11.02702200
_cell_angle_alpha   90.00000000
_cell_angle_beta   90.00000000
_cell_angle_gamma   159.05978793
_symmetry_Int_Tables_number   1
_chemical_formula_structural   MgSn5
_chemical_formula_sum   'Mg8 Sn40'
_cell_volume   1291.58947614
_cell_formula_units_Z   8
loop_
 _symmetry_equiv_pos_site_id
 _symmetry_equiv_pos_as_xyz
  1  'x, y, z'
loop_
 _atom_site_type_symbol
 _atom_site_label
 _atom_site_symmetry_multiplicity
 _atom_site_fract_x
 _atom_site_fract_y
 _atom_site_fract_z
 _atom_site_occupancy
  Mg  Mg0_0  1  0.38872750  0.11127250  0.25000000  1
  Mg  Mg0_1  1  0.38872750  0.11127250  0.75000000  1
  Mg  Mg0_2  1  0.38872750  0.61127250  0.25000000  1
  Mg  Mg0_3  1  0.38872750  0.61127250  0.75000000  1
  Mg  Mg0_4  1  0.88872750  0.11127250  0.25000000  1
  Mg  Mg0_5  1  0.88872750  0.11127250  0.75000000  1
  Mg  Mg0_6  1  0.88872750  0.61127250  0.25000000  1
  Mg  Mg0_7  1  0.88872750  0.61127250  0.75000000  1
  Sn  Sn0_0  1  0.49977400  0.00022600  0.00000000  1
  Sn  Sn0_1  1  0.49977400  0.00022600  0.50000000  1
  Sn  Sn0_2  1  0.49977400  0.50022600  0.00000000  1
  Sn  Sn0_3  1  0.49977400  0.50022600  0.50000000  1
  Sn  Sn0_4  1  0.99977400  0.00022600  0.00000000  1
  Sn  Sn0_5  1  0.99977400  0.00022600  0.50000000  1
  Sn  Sn0_6  1  0.99977400  0.50022600  0.00000000  1
  Sn  Sn0_7  1  0.99977400  0.50022600  0.50000000  1
  Sn  Sn1_0  1  0.16536000  0.33464000  0.00000000  1
  Sn  Sn1_1  1  0.16536000  0.33464000  0.50000000  1
  Sn  Sn1_2  1  0.16536000  0.83464000  0.00000000  1
  Sn  Sn1_3  1  0.16536000  0.83464000  0.50000000  1
  Sn  Sn1_4  1  0.66536000  0.33464000  0.00000000  1
  Sn  Sn1_5  1  0.66536000  0.33464000  0.50000000  1
  Sn  Sn1_6  1  0.66536000  0.83464000  0.00000000  1
  Sn  Sn1_7  1  0.66536000  0.83464000  0.50000000  1
  Sn  Sn2_0  1  0.33433200  0.16566800  0.00000000  1
  Sn  Sn2_1  1  0.33433200  0.16566800  0.50000000  1
  Sn  Sn2_2  1  0.33433200  0.66566800  0.00000000  1
  Sn  Sn2_3  1  0.33433200  0.66566800  0.50000000  1
  Sn  Sn2_4  1  0.83433200  0.16566800  0.00000000  1
  Sn  Sn2_5  1  0.83433200  0.16566800  0.50000000  1
  Sn  Sn2_6  1  0.83433200  0.66566800  0.00000000  1
  Sn  Sn2_7  1  0.83433200  0.66566800  0.50000000  1
  Sn  Sn3_0  1  0.05767250  0.44232750  0.25000000  1
  Sn  Sn3_1  1  0.05767250  0.44232750  0.75000000  1
  Sn  Sn3_2  1  0.05767250  0.94232750  0.25000000  1
  Sn  Sn3_3  1  0.05767250  0.94232750  0.75000000  1
  Sn  Sn3_4  1  0.55767250  0.44232750  0.25000000  1
  Sn  Sn3_5  1  0.55767250  0.44232750  0.75000000  1
  Sn  Sn3_6  1  0.55767250  0.94232750  0.25000000  1
  Sn  Sn3_7  1  0.55767250  0.94232750  0.75000000  1
  Sn  Sn4_0  1  0.22080000  0.27920000  0.25000000  1
  Sn  Sn4_1  1  0.22080000  0.27920000  0.75000000  1
  Sn  Sn4_2  1  0.22080000  0.77920000  0.25000000  1
  Sn  Sn4_3  1  0.22080000  0.77920000  0.75000000  1
  Sn  Sn4_4  1  0.72080000  0.27920000  0.25000000  1
  Sn  Sn4_5  1  0.72080000  0.27920000  0.75000000  1
  Sn  Sn4_6  1  0.72080000  0.77920000  0.25000000  1
  Sn  Sn4_7  1  0.72080000  0.77920000  0.75000000  1
loop_
_geom_bond_atom_site_label_1
_geom_bond_atom_site_label_2
_geom_bond_distance
_geom_bond_site_symmetry_2
Mg0_0 Mg0_6 3.289792 1_555
Mg0_0 Mg0_6 3.289792 1_445
Mg0_0 Sn3_2 3.321741 1_545
Mg0_0 Sn3_4 3.321741 1_555
Mg0_0 Sn1_4 3.347313 1_555
Mg0_0 Sn1_5 3.347313 1_555
Mg0_0 Sn1_2 3.347313 1_545
Mg0_0 Sn1_3 3.347313 1_545
Mg0_0 Sn4_2 3.353262 1_545
Mg0_0 Sn4_4 3.353262 1_555
Mg0_0 Sn2_0 3.369047 1_555
Mg0_0 Sn2_1 3.369047 1_555
Mg0_1 Mg0_7 3.289792 1_445
Mg0_1 Mg0_7 3.289792 1_555
Mg0_1 Sn3_5 3.321741 1_555
Mg0_1 Sn3_3 3.321741 1_545
Mg0_1 Sn1_4 3.347313 1_556
Mg0_1 Sn1_5 3.347313 1_555
Mg0_1 Sn1_3 3.347313 1_545
Mg0_1 Sn1_2 3.347313 1_546
Mg0_1 Sn4_3 3.353262 1_545
Mg0_1 Sn4_5 3.353262 1_555
Mg0_1 Sn2_1 3.369047 1_555
Mg0_1 Sn2_0 3.369047 1_556
Mg0_2 Mg0_4 3.289792 1_455
Mg0_2 Mg0_4 3.289792 1_565
Mg0_2 Sn3_6 3.321741 1_555
Mg0_2 Sn3_0 3.321741 1_555
Mg0_2 Sn1_6 3.347313 1_555
Mg0_2 Sn1_7 3.347313 1_555
Mg0_2 Sn1_1 3.347313 1_555
Mg0_2 Sn1_0 3.347313 1_555
Mg0_2 Sn4_6 3.353262 1_555
Mg0_2 Sn4_0 3.353262 1_555
Mg0_2 Sn2_2 3.369047 1_555
Mg0_2 Sn2_3 3.369047 1_555
Mg0_3 Mg0_5 3.289792 1_455
Mg0_3 Mg0_5 3.289792 1_565
Mg0_3 Sn3_1 3.321741 1_555
Mg0_3 Sn3_7 3.321741 1_555
Mg0_3 Sn1_6 3.347313 1_556
Mg0_3 Sn1_7 3.347313 1_555
Mg0_3 Sn1_1 3.347313 1_555
Mg0_3 Sn1_0 3.347313 1_556
Mg0_3 Sn4_7 3.353262 1_555
Mg0_3 Sn4_1 3.353262 1_555
Mg0_3 Sn2_3 3.369047 1_555
Mg0_3 Sn2_2 3.369047 1_556
Mg0_4 Sn3_6 3.321741 1_545
Mg0_4 Sn3_0 3.321741 1_655
Mg0_4 Sn1_0 3.347313 1_655
Mg0_4 Sn1_1 3.347313 1_655
Mg0_4 Sn1_6 3.347313 1_545
Mg0_4 Sn1_7 3.347313 1_545
Mg0_4 Sn4_6 3.353262 1_545
Mg0_4 Sn4_0 3.353262 1_655
Mg0_4 Sn2_4 3.369047 1_555
Mg0_4 Sn2_5 3.369047 1_555
Mg0_5 Sn3_7 3.321741 1_545
Mg0_5 Sn3_1 3.321741 1_655
Mg0_5 Sn1_1 3.347313 1_655
Mg0_5 Sn1_0 3.347313 1_656
Mg0_5 Sn1_7 3.347313 1_545
Mg0_5 Sn1_6 3.347313 1_546
Mg0_5 Sn4_7 3.353262 1_545
Mg0_5 Sn4_1 3.353262 1_655
Mg0_5 Sn2_4 3.369047 1_556
Mg0_5 Sn2_5 3.369047 1_555
Mg0_6 Sn3_2 3.321741 1_655
Mg0_6 Sn3_4 3.321741 1_555
Mg0_6 Sn1_3 3.347313 1_655
Mg0_6 Sn1_4 3.347313 1_555
Mg0_6 Sn1_5 3.347313 1_555
Mg0_6 Sn1_2 3.347313 1_655
Mg0_6 Sn4_2 3.353262 1_655
Mg0_6 Sn4_4 3.353262 1_555
Mg0_6 Sn2_7 3.369047 1_555
Mg0_6 Sn2_6 3.369047 1_555
Mg0_7 Sn3_5 3.321741 1_555
Mg0_7 Sn3_3 3.321741 1_655
Mg0_7 Sn1_3 3.347313 1_655
Mg0_7 Sn1_5 3.347313 1_555
Mg0_7 Sn1_2 3.347313 1_656
Mg0_7 Sn1_4 3.347313 1_556
Mg0_7 Sn4_3 3.353262 1_655
Mg0_7 Sn4_5 3.353262 1_555
Mg0_7 Sn2_7 3.369047 1_555
Mg0_7 Sn2_6 3.369047 1_556
Sn0_0 Sn0_6 3.289792 1_555
Sn0_0 Sn0_6 3.289792 1_445
Sn0_0 Sn4_5 3.371877 1_554
Sn0_0 Sn4_4 3.371877 1_555
Sn0_0 Sn4_2 3.371877 1_545
Sn0_0 Sn4_3 3.371877 1_544
Sn0_0 Sn1_2 3.426154 1_545
Sn0_0 Sn1_4 3.426154 1_555
Sn0_0 Sn2_2 3.430652 1_545
Sn0_0 Sn2_4 3.430652 1_555
Sn0_0 Sn3_6 3.442256 1_545
Sn0_0 Sn3_7 3.442256 1_544
Sn0_1 Sn0_7 3.289792 1_555
Sn0_1 Sn0_7 3.289792 1_445
Sn0_1 Sn4_4 3.371877 1_555
Sn0_1 Sn4_5 3.371877 1_555
Sn0_1 Sn4_3 3.371877 1_545
Sn0_1 Sn4_2 3.371877 1_545
Sn0_1 Sn1_3 3.426154 1_545
Sn0_1 Sn1_5 3.426154 1_555
Sn0_1 Sn2_3 3.430652 1_545
Sn0_1 Sn2_5 3.430652 1_555
Sn0_1 Sn3_6 3.442256 1_545
Sn0_1 Sn3_7 3.442256 1_545
Sn0_2 Sn0_4 3.289792 1_565
Sn0_2 Sn0_4 3.289792 1_455
Sn0_2 Sn4_1 3.371877 1_554
Sn0_2 Sn4_0 3.371877 1_555
Sn0_2 Sn4_6 3.371877 1_555
Sn0_2 Sn4_7 3.371877 1_554
Sn0_2 Sn1_0 3.426154 1_555
Sn0_2 Sn1_6 3.426154 1_555
Sn0_2 Sn2_6 3.430652 1_555
Sn0_2 Sn2_0 3.430652 1_555
Sn0_2 Sn3_4 3.442256 1_555
Sn0_2 Sn3_5 3.442256 1_554
Sn0_3 Sn0_5 3.289792 1_565
Sn0_3 Sn0_5 3.289792 1_455
Sn0_3 Sn4_0 3.371877 1_555
Sn0_3 Sn4_1 3.371877 1_555
Sn0_3 Sn4_6 3.371877 1_555
Sn0_3 Sn4_7 3.371877 1_555
Sn0_3 Sn1_1 3.426154 1_555
Sn0_3 Sn1_7 3.426154 1_555
Sn0_3 Sn2_7 3.430652 1_555
Sn0_3 Sn2_1 3.430652 1_555
Sn0_3 Sn3_4 3.442256 1_555
Sn0_3 Sn3_5 3.442256 1_555
Sn0_4 Sn4_0 3.371877 1_655
Sn0_4 Sn4_7 3.371877 1_544
Sn0_4 Sn4_1 3.371877 1_654
Sn0_4 Sn4_6 3.371877 1_545
Sn0_4 Sn1_0 3.426154 1_655
Sn0_4 Sn1_6 3.426154 1_545
Sn0_4 Sn2_6 3.430652 1_545
Sn0_4 Sn2_0 3.430652 1_655
Sn0_4 Sn3_3 3.442256 1_644
Sn0_4 Sn3_2 3.442256 1_645
Sn0_5 Sn4_0 3.371877 1_655
Sn0_5 Sn4_7 3.371877 1_545
Sn0_5 Sn4_1 3.371877 1_655
Sn0_5 Sn4_6 3.371877 1_545
Sn0_5 Sn1_1 3.426154 1_655
Sn0_5 Sn1_7 3.426154 1_545
Sn0_5 Sn2_7 3.430652 1_545
Sn0_5 Sn2_1 3.430652 1_655
Sn0_5 Sn3_3 3.442256 1_645
Sn0_5 Sn3_2 3.442256 1_645
Sn0_6 Sn4_4 3.371877 1_555
Sn0_6 Sn4_5 3.371877 1_554
Sn0_6 Sn4_2 3.371877 1_655
Sn0_6 Sn4_3 3.371877 1_654
Sn0_6 Sn1_2 3.426154 1_655
Sn0_6 Sn1_4 3.426154 1_555
Sn0_6 Sn2_2 3.430652 1_655
Sn0_6 Sn2_4 3.430652 1_555
Sn0_6 Sn3_1 3.442256 1_654
Sn0_6 Sn3_0 3.442256 1_655
Sn0_7 Sn4_4 3.371877 1_555
Sn0_7 Sn4_5 3.371877 1_555
Sn0_7 Sn4_2 3.371877 1_655
Sn0_7 Sn4_3 3.371877 1_655
Sn0_7 Sn1_3 3.426154 1_655
Sn0_7 Sn1_5 3.426154 1_555
Sn0_7 Sn2_5 3.430652 1_555
Sn0_7 Sn2_3 3.430652 1_655
Sn0_7 Sn3_1 3.442256 1_655
Sn0_7 Sn3_0 3.442256 1_655
Sn1_0 Sn2_4 3.320906 1_455
Sn1_0 Sn2_2 3.320906 1_555
Sn1_1 Sn2_5 3.320906 1_455
Sn1_1 Sn2_3 3.320906 1_555
Sn1_2 Sn2_0 3.320906 1_565
Sn1_2 Sn2_6 3.320906 1_455
Sn1_3 Sn2_1 3.320906 1_565
Sn1_3 Sn2_7 3.320906 1_455
Sn1_4 Sn2_0 3.320906 1_555
Sn1_4 Sn2_6 3.320906 1_555
Sn1_5 Sn2_1 3.320906 1_555
Sn1_5 Sn2_7 3.320906 1_555
Sn1_6 Sn2_4 3.320906 1_565
Sn1_6 Sn2_2 3.320906 1_555
Sn1_7 Sn2_5 3.320906 1_565
Sn1_7 Sn2_3 3.320906 1_555
Sn2_0 Sn2_6 3.289792 1_555
Sn2_0 Sn2_6 3.289792 1_445
Sn2_0 Sn3_4 3.347586 1_555
Sn2_0 Sn3_2 3.347586 1_545
Sn2_0 Sn3_5 3.347586 1_554
Sn2_0 Sn3_3 3.347586 1_544
Sn2_1 Sn2_7 3.289792 1_555
Sn2_1 Sn2_7 3.289792 1_445
Sn2_1 Sn3_4 3.347586 1_555
Sn2_1 Sn3_5 3.347586 1_555
Sn2_1 Sn3_2 3.347586 1_545
Sn2_1 Sn3_3 3.347586 1_545
Sn2_2 Sn2_4 3.289792 1_565
Sn2_2 Sn2_4 3.289792 1_455
Sn2_2 Sn3_7 3.347586 1_554
Sn2_2 Sn3_1 3.347586 1_554
Sn2_2 Sn3_6 3.347586 1_555
Sn2_2 Sn3_0 3.347586 1_555
Sn2_3 Sn2_5 3.289792 1_455
Sn2_3 Sn2_5 3.289792 1_565
Sn2_3 Sn3_6 3.347586 1_555
Sn2_3 Sn3_0 3.347586 1_555
Sn2_3 Sn3_1 3.347586 1_555
Sn2_3 Sn3_7 3.347586 1_555
Sn2_4 Sn3_0 3.347586 1_655
Sn2_4 Sn3_1 3.347586 1_654
Sn2_4 Sn3_6 3.347586 1_545
Sn2_4 Sn3_7 3.347586 1_544
Sn2_5 Sn3_0 3.347586 1_655
Sn2_5 Sn3_1 3.347586 1_655
Sn2_5 Sn3_6 3.347586 1_545
Sn2_5 Sn3_7 3.347586 1_545
Sn2_6 Sn3_5 3.347586 1_554
Sn2_6 Sn3_3 3.347586 1_654
Sn2_6 Sn3_2 3.347586 1_655
Sn2_6 Sn3_4 3.347586 1_555
Sn2_7 Sn3_3 3.347586 1_655
Sn2_7 Sn3_2 3.347586 1_655
Sn2_7 Sn3_4 3.347586 1_555
Sn2_7 Sn3_5 3.347586 1_555
