# generated using pymatgen
data_U3(Ga2Cu)4
_symmetry_space_group_name_H-M   'P 1'
_cell_length_a   4.09295100
_cell_length_b   4.09295100
_cell_length_c   16.07285336
_cell_angle_alpha   82.68496229
_cell_angle_beta   82.68496229
_cell_angle_gamma   90.00000000
_symmetry_Int_Tables_number   1
_chemical_formula_structural   U3(Ga2Cu)4
_chemical_formula_sum   'U3 Ga8 Cu4'
_cell_volume   264.85536768
_cell_formula_units_Z   1
loop_
 _symmetry_equiv_pos_site_id
 _symmetry_equiv_pos_as_xyz
  1  'x, y, z'
loop_
 _atom_site_type_symbol
 _atom_site_label
 _atom_site_symmetry_multiplicity
 _atom_site_fract_x
 _atom_site_fract_y
 _atom_site_fract_z
 _atom_site_occupancy
  U  U0  1  0.99758100  0.99758100  0.00483800  1
  U  U1  1  0.33575200  0.33575200  0.32849500  1
  U  U2  1  0.66666700  0.66666700  0.66666700  1
  Ga  Ga0  1  0.75050300  0.25050300  0.49899400  1
  Ga  Ga1  1  0.08283000  0.58283000  0.83433900  1
  Ga  Ga2  1  0.45825800  0.45825800  0.08348300  1
  Ga  Ga3  1  0.79704700  0.79704700  0.40590600  1
  Ga  Ga4  1  0.12818100  0.12818100  0.74363800  1
  Ga  Ga5  1  0.87507500  0.87507500  0.24985000  1
  Ga  Ga6  1  0.20515300  0.20515300  0.58969600  1
  Ga  Ga7  1  0.53628600  0.53628600  0.92742700  1
  Cu  Cu0  1  0.91666700  0.41666700  0.16666700  1
  Cu  Cu1  1  0.24992600  0.74992600  0.50014800  1
  Cu  Cu2  1  0.58340700  0.08340700  0.83318500  1
  Cu  Cu3  1  0.41666700  0.91666700  0.16666700  1
loop_
_geom_bond_atom_site_label_1
_geom_bond_atom_site_label_2
_geom_bond_distance
_geom_bond_site_symmetry_2
Ga0 Ga6 2.498886 1_555
Ga0 Ga6 2.498893 1_655
Ga0 Ga3 2.520727 1_545
Ga0 Ga3 2.520727 1_555
Ga0 U2 3.348955 1_545
Ga0 U2 3.348958 1_555
Ga0 U1 3.384432 1_655
Ga0 U1 3.384435 1_555
Ga1 Ga4 2.498879 1_555
Ga1 Ga4 2.498882 1_565
Ga1 Ga7 2.520727 1_555
Ga1 Ga7 2.520727 1_455
Ga1 U2 3.348941 1_455
Ga1 U2 3.348947 1_555
Ga1 U0 3.384432 1_446
Ga1 U0 3.384435 1_456
Ga2 Ga7 2.467267 1_554
Ga2 U0 3.149940 1_445
Ga2 U0 3.149943 1_545
Ga2 U0 3.149943 1_455
Ga2 U0 3.149945 1_555
Ga3 Ga5 2.467267 1_555
Ga3 U1 3.142290 1_665
Ga3 U1 3.142293 1_655
Ga3 U1 3.142293 1_565
Ga3 U1 3.142295 1_555
Ga4 Ga6 2.433844 1_555
Ga4 U2 3.139587 1_445
Ga4 U2 3.139590 1_455
Ga4 U2 3.139590 1_545
Ga4 U2 3.139592 1_555
Ga5 U1 3.149940 1_665
Ga5 U1 3.149943 1_655
Ga5 U1 3.149943 1_565
Ga5 U1 3.149945 1_555
Ga6 U2 3.139587 1_555
Ga6 U2 3.139590 1_545
Ga6 U2 3.139590 1_455
Ga6 U2 3.139592 1_445
Ga7 U0 3.142290 1_446
Ga7 U0 3.142293 1_546
Ga7 U0 3.142293 1_456
Ga7 U0 3.142295 1_556
Cu0 Ga5 2.432619 1_555
Cu0 Ga5 2.432622 1_545
Cu0 Ga2 2.432625 1_655
Cu0 Ga2 2.432632 1_555
Cu0 U1 3.276291 1_655
Cu0 U1 3.276297 1_555
Cu0 U0 3.276305 1_555
Cu0 U0 3.276308 1_545
Cu1 Ga6 2.488461 1_555
Cu1 Ga6 2.488468 1_565
Cu1 Ga3 2.531422 1_455
Cu1 Ga3 2.531423 1_555
Cu1 Ga0 2.894211 1_455
Cu1 Ga0 2.894211 1_465
Cu1 Ga0 2.894211 1_555
Cu1 Ga0 2.894211 1_565
Cu1 U2 3.334532 1_455
Cu1 U2 3.334534 1_555
Cu1 U1 3.398982 1_565
Cu1 U1 3.398984 1_555
Cu2 Ga4 2.488454 1_555
Cu2 Ga4 2.488457 1_655
Cu2 Ga7 2.531422 1_555
Cu2 Ga7 2.531423 1_545
Cu2 Ga1 2.894211 1_655
Cu2 Ga1 2.894211 1_645
Cu2 Ga1 2.894211 1_555
Cu2 Ga1 2.894211 1_545
Cu2 U2 3.334518 1_545
Cu2 U2 3.334523 1_555
Cu2 U0 3.398982 1_446
Cu2 U0 3.398984 1_546
Cu3 Ga5 2.432619 1_555
Cu3 Ga5 2.432622 1_455
Cu3 Ga2 2.432625 1_565
Cu3 Ga2 2.432632 1_555
Cu3 U1 3.276291 1_565
Cu3 U1 3.276297 1_555
Cu3 U0 3.276305 1_555
Cu3 U0 3.276308 1_455
