# generated using pymatgen
data_MgTi5
_symmetry_space_group_name_H-M   'P 1'
_cell_length_a   15.59176762
_cell_length_b   15.59176762
_cell_length_c   9.64105600
_cell_angle_alpha   90.00000000
_cell_angle_beta   90.00000000
_cell_angle_gamma   158.46172283
_symmetry_Int_Tables_number   1
_chemical_formula_structural   MgTi5
_chemical_formula_sum   'Mg8 Ti40'
_cell_volume   860.45185865
_cell_formula_units_Z   8
loop_
 _symmetry_equiv_pos_site_id
 _symmetry_equiv_pos_as_xyz
  1  'x, y, z'
loop_
 _atom_site_type_symbol
 _atom_site_label
 _atom_site_symmetry_multiplicity
 _atom_site_fract_x
 _atom_site_fract_y
 _atom_site_fract_z
 _atom_site_occupancy
  Mg  Mg0_0  1  0.38798300  0.11201700  0.25000000  1
  Mg  Mg0_1  1  0.38798300  0.11201700  0.75000000  1
  Mg  Mg0_2  1  0.38798300  0.61201700  0.25000000  1
  Mg  Mg0_3  1  0.38798300  0.61201700  0.75000000  1
  Mg  Mg0_4  1  0.88798300  0.11201700  0.25000000  1
  Mg  Mg0_5  1  0.88798300  0.11201700  0.75000000  1
  Mg  Mg0_6  1  0.88798300  0.61201700  0.25000000  1
  Mg  Mg0_7  1  0.88798300  0.61201700  0.75000000  1
  Ti  Ti0_0  1  0.00016150  0.49983850  0.00000000  1
  Ti  Ti0_1  1  0.00016150  0.49983850  0.50000000  1
  Ti  Ti0_2  1  0.00016150  0.99983850  0.00000000  1
  Ti  Ti0_3  1  0.00016150  0.99983850  0.50000000  1
  Ti  Ti0_4  1  0.50016150  0.49983850  0.00000000  1
  Ti  Ti0_5  1  0.50016150  0.49983850  0.50000000  1
  Ti  Ti0_6  1  0.50016150  0.99983850  0.00000000  1
  Ti  Ti0_7  1  0.50016150  0.99983850  0.50000000  1
  Ti  Ti1_0  1  0.16892050  0.33107950  0.00000000  1
  Ti  Ti1_1  1  0.16892050  0.33107950  0.50000000  1
  Ti  Ti1_2  1  0.16892050  0.83107950  0.00000000  1
  Ti  Ti1_3  1  0.16892050  0.83107950  0.50000000  1
  Ti  Ti1_4  1  0.66892050  0.33107950  0.00000000  1
  Ti  Ti1_5  1  0.66892050  0.33107950  0.50000000  1
  Ti  Ti1_6  1  0.66892050  0.83107950  0.00000000  1
  Ti  Ti1_7  1  0.66892050  0.83107950  0.50000000  1
  Ti  Ti2_0  1  0.33103500  0.16896500  0.00000000  1
  Ti  Ti2_1  1  0.33103500  0.16896500  0.50000000  1
  Ti  Ti2_2  1  0.33103500  0.66896500  0.00000000  1
  Ti  Ti2_3  1  0.33103500  0.66896500  0.50000000  1
  Ti  Ti2_4  1  0.83103500  0.16896500  0.00000000  1
  Ti  Ti2_5  1  0.83103500  0.16896500  0.50000000  1
  Ti  Ti2_6  1  0.83103500  0.66896500  0.00000000  1
  Ti  Ti2_7  1  0.83103500  0.66896500  0.50000000  1
  Ti  Ti3_0  1  0.05424000  0.44576000  0.25000000  1
  Ti  Ti3_1  1  0.05424000  0.44576000  0.75000000  1
  Ti  Ti3_2  1  0.05424000  0.94576000  0.25000000  1
  Ti  Ti3_3  1  0.05424000  0.94576000  0.75000000  1
  Ti  Ti3_4  1  0.55424000  0.44576000  0.25000000  1
  Ti  Ti3_5  1  0.55424000  0.44576000  0.75000000  1
  Ti  Ti3_6  1  0.55424000  0.94576000  0.25000000  1
  Ti  Ti3_7  1  0.55424000  0.94576000  0.75000000  1
  Ti  Ti4_0  1  0.22432650  0.27567350  0.25000000  1
  Ti  Ti4_1  1  0.22432650  0.27567350  0.75000000  1
  Ti  Ti4_2  1  0.22432650  0.77567350  0.25000000  1
  Ti  Ti4_3  1  0.22432650  0.77567350  0.75000000  1
  Ti  Ti4_4  1  0.72432650  0.27567350  0.25000000  1
  Ti  Ti4_5  1  0.72432650  0.27567350  0.75000000  1
  Ti  Ti4_6  1  0.72432650  0.77567350  0.25000000  1
  Ti  Ti4_7  1  0.72432650  0.77567350  0.75000000  1
loop_
_geom_bond_atom_site_label_1
_geom_bond_atom_site_label_2
_geom_bond_distance
_geom_bond_site_symmetry_2
Mg0_0 Mg0_6 2.913356 1_555
Mg0_0 Mg0_6 2.913356 1_445
Mg0_0 Ti3_2 2.950126 1_545
Mg0_0 Ti3_4 2.950126 1_555
Mg0_0 Ti1_2 2.971450 1_545
Mg0_0 Ti1_3 2.971450 1_545
Mg0_0 Ti1_4 2.971450 1_555
Mg0_0 Ti1_5 2.971450 1_555
Mg0_0 Ti2_0 2.975378 1_555
Mg0_0 Ti2_1 2.975378 1_555
Mg0_0 Ti4_2 3.019658 1_545
Mg0_0 Ti4_4 3.019658 1_555
Mg0_1 Mg0_7 2.913356 1_555
Mg0_1 Mg0_7 2.913356 1_445
Mg0_1 Ti3_3 2.950126 1_545
Mg0_1 Ti3_5 2.950126 1_555
Mg0_1 Ti1_3 2.971450 1_545
Mg0_1 Ti1_2 2.971450 1_546
Mg0_1 Ti1_4 2.971450 1_556
Mg0_1 Ti1_5 2.971450 1_555
Mg0_1 Ti2_0 2.975378 1_556
Mg0_1 Ti2_1 2.975378 1_555
Mg0_1 Ti4_3 3.019658 1_545
Mg0_1 Ti4_5 3.019658 1_555
Mg0_2 Mg0_4 2.913356 1_455
Mg0_2 Mg0_4 2.913356 1_565
Mg0_2 Ti3_0 2.950126 1_555
Mg0_2 Ti3_6 2.950126 1_555
Mg0_2 Ti1_0 2.971450 1_555
Mg0_2 Ti1_1 2.971450 1_555
Mg0_2 Ti1_7 2.971450 1_555
Mg0_2 Ti1_6 2.971450 1_555
Mg0_2 Ti2_3 2.975378 1_555
Mg0_2 Ti2_2 2.975378 1_555
Mg0_2 Ti4_6 3.019658 1_555
Mg0_2 Ti4_0 3.019658 1_555
Mg0_3 Mg0_5 2.913356 1_565
Mg0_3 Mg0_5 2.913356 1_455
Mg0_3 Ti3_1 2.950126 1_555
Mg0_3 Ti3_7 2.950126 1_555
Mg0_3 Ti1_1 2.971450 1_555
Mg0_3 Ti1_0 2.971450 1_556
Mg0_3 Ti1_7 2.971450 1_555
Mg0_3 Ti1_6 2.971450 1_556
Mg0_3 Ti2_3 2.975378 1_555
Mg0_3 Ti2_2 2.975378 1_556
Mg0_3 Ti4_7 3.019658 1_555
Mg0_3 Ti4_1 3.019658 1_555
Mg0_4 Ti3_6 2.950126 1_545
Mg0_4 Ti3_0 2.950126 1_655
Mg0_4 Ti1_6 2.971450 1_545
Mg0_4 Ti1_7 2.971450 1_545
Mg0_4 Ti1_1 2.971450 1_655
Mg0_4 Ti1_0 2.971450 1_655
Mg0_4 Ti2_5 2.975378 1_555
Mg0_4 Ti2_4 2.975378 1_555
Mg0_4 Ti4_0 3.019658 1_655
Mg0_4 Ti4_6 3.019658 1_545
Mg0_5 Ti3_7 2.950126 1_545
Mg0_5 Ti3_1 2.950126 1_655
Mg0_5 Ti1_7 2.971450 1_545
Mg0_5 Ti1_6 2.971450 1_546
Mg0_5 Ti1_1 2.971450 1_655
Mg0_5 Ti1_0 2.971450 1_656
Mg0_5 Ti2_5 2.975378 1_555
Mg0_5 Ti2_4 2.975378 1_556
Mg0_5 Ti4_1 3.019658 1_655
Mg0_5 Ti4_7 3.019658 1_545
Mg0_6 Ti3_4 2.950126 1_555
Mg0_6 Ti3_2 2.950126 1_655
Mg0_6 Ti1_4 2.971450 1_555
Mg0_6 Ti1_5 2.971450 1_555
Mg0_6 Ti1_2 2.971450 1_655
Mg0_6 Ti1_3 2.971450 1_655
Mg0_6 Ti2_7 2.975378 1_555
Mg0_6 Ti2_6 2.975378 1_555
Mg0_6 Ti4_2 3.019658 1_655
Mg0_6 Ti4_4 3.019658 1_555
Mg0_7 Ti3_5 2.950126 1_555
Mg0_7 Ti3_3 2.950126 1_655
Mg0_7 Ti1_4 2.971450 1_556
Mg0_7 Ti1_5 2.971450 1_555
Mg0_7 Ti1_2 2.971450 1_656
Mg0_7 Ti1_3 2.971450 1_655
Mg0_7 Ti2_7 2.975378 1_555
Mg0_7 Ti2_6 2.975378 1_556
Mg0_7 Ti4_3 3.019658 1_655
Mg0_7 Ti4_5 3.019658 1_555
Ti0_0 Ti2_2 2.874012 1_555
Ti0_0 Ti2_4 2.874012 1_455
Ti0_0 Ti1_4 2.883723 1_455
Ti0_0 Ti1_2 2.883723 1_555
Ti0_0 Ti0_6 2.913356 1_555
Ti0_0 Ti0_6 2.913356 1_445
Ti0_0 Ti3_1 2.924704 1_554
Ti0_0 Ti3_0 2.924704 1_555
Ti0_0 Ti4_3 2.925347 1_554
Ti0_0 Ti4_2 2.925347 1_555
Ti0_0 Ti4_4 2.925347 1_455
Ti0_0 Ti4_5 2.925347 1_454
Ti0_1 Ti2_3 2.874012 1_555
Ti0_1 Ti2_5 2.874012 1_455
Ti0_1 Ti1_5 2.883723 1_455
Ti0_1 Ti1_3 2.883723 1_555
Ti0_1 Ti0_7 2.913356 1_555
Ti0_1 Ti0_7 2.913356 1_445
Ti0_1 Ti3_1 2.924704 1_555
Ti0_1 Ti3_0 2.924704 1_555
Ti0_1 Ti4_3 2.925347 1_555
Ti0_1 Ti4_2 2.925347 1_555
Ti0_1 Ti4_5 2.925347 1_455
Ti0_1 Ti4_4 2.925347 1_455
Ti0_2 Ti2_6 2.874012 1_455
Ti0_2 Ti2_0 2.874012 1_565
Ti0_2 Ti1_0 2.883723 1_565
Ti0_2 Ti1_6 2.883723 1_455
Ti0_2 Ti0_4 2.913356 1_455
Ti0_2 Ti0_4 2.913356 1_565
Ti0_2 Ti3_3 2.924704 1_554
Ti0_2 Ti3_2 2.924704 1_555
Ti0_2 Ti4_0 2.925347 1_565
Ti0_2 Ti4_1 2.925347 1_564
Ti0_2 Ti4_6 2.925347 1_455
Ti0_2 Ti4_7 2.925347 1_454
Ti0_3 Ti2_7 2.874012 1_455
Ti0_3 Ti2_1 2.874012 1_565
Ti0_3 Ti1_1 2.883723 1_565
Ti0_3 Ti1_7 2.883723 1_455
Ti0_3 Ti0_5 2.913356 1_455
Ti0_3 Ti0_5 2.913356 1_565
Ti0_3 Ti3_3 2.924704 1_555
Ti0_3 Ti3_2 2.924704 1_555
Ti0_3 Ti4_1 2.925347 1_565
Ti0_3 Ti4_0 2.925347 1_565
Ti0_3 Ti4_6 2.925347 1_455
Ti0_3 Ti4_7 2.925347 1_455
Ti0_4 Ti2_6 2.874012 1_555
Ti0_4 Ti2_0 2.874012 1_555
Ti0_4 Ti1_6 2.883723 1_555
Ti0_4 Ti1_0 2.883723 1_555
Ti0_4 Ti3_5 2.924704 1_554
Ti0_4 Ti3_4 2.924704 1_555
Ti0_4 Ti4_7 2.925347 1_554
Ti0_4 Ti4_6 2.925347 1_555
Ti0_4 Ti4_1 2.925347 1_554
Ti0_4 Ti4_0 2.925347 1_555
Ti0_5 Ti2_7 2.874012 1_555
Ti0_5 Ti2_1 2.874012 1_555
Ti0_5 Ti1_1 2.883723 1_555
Ti0_5 Ti1_7 2.883723 1_555
Ti0_5 Ti3_4 2.924704 1_555
Ti0_5 Ti3_5 2.924704 1_555
Ti0_5 Ti4_7 2.925347 1_555
Ti0_5 Ti4_6 2.925347 1_555
Ti0_5 Ti4_0 2.925347 1_555
Ti0_5 Ti4_1 2.925347 1_555
Ti0_6 Ti2_2 2.874012 1_555
Ti0_6 Ti2_4 2.874012 1_565
Ti0_6 Ti1_4 2.883723 1_565
Ti0_6 Ti1_2 2.883723 1_555
Ti0_6 Ti3_6 2.924704 1_555
Ti0_6 Ti3_7 2.924704 1_554
Ti0_6 Ti4_4 2.925347 1_565
Ti0_6 Ti4_5 2.925347 1_564
Ti0_6 Ti4_3 2.925347 1_554
Ti0_6 Ti4_2 2.925347 1_555
Ti0_7 Ti2_3 2.874012 1_555
Ti0_7 Ti2_5 2.874012 1_565
Ti0_7 Ti1_5 2.883723 1_565
Ti0_7 Ti1_3 2.883723 1_555
Ti0_7 Ti3_6 2.924704 1_555
Ti0_7 Ti3_7 2.924704 1_555
Ti0_7 Ti4_4 2.925347 1_565
Ti0_7 Ti4_5 2.925347 1_565
Ti0_7 Ti4_3 2.925347 1_555
Ti0_7 Ti4_2 2.925347 1_555
Ti1_0 Ti1_6 2.913356 1_445
Ti1_0 Ti1_6 2.913356 1_555
Ti1_0 Ti4_1 2.947929 1_554
Ti1_0 Ti4_0 2.947929 1_555
Ti1_0 Ti2_4 3.061121 1_455
Ti1_0 Ti2_2 3.061121 1_555
Ti1_1 Ti1_7 2.913356 1_445
Ti1_1 Ti1_7 2.913356 1_555
Ti1_1 Ti4_0 2.947929 1_555
Ti1_1 Ti4_1 2.947929 1_555
Ti1_1 Ti2_5 3.061121 1_455
Ti1_1 Ti2_3 3.061121 1_555
Ti1_2 Ti1_4 2.913356 1_455
Ti1_2 Ti1_4 2.913356 1_565
Ti1_2 Ti4_2 2.947929 1_555
Ti1_2 Ti4_3 2.947929 1_554
Ti1_2 Ti2_0 3.061121 1_565
Ti1_2 Ti2_6 3.061121 1_455
Ti1_3 Ti1_5 2.913356 1_455
Ti1_3 Ti1_5 2.913356 1_565
Ti1_3 Ti4_3 2.947929 1_555
Ti1_3 Ti4_2 2.947929 1_555
Ti1_3 Ti2_1 3.061121 1_565
Ti1_3 Ti2_7 3.061121 1_455
Ti1_4 Ti4_5 2.947929 1_554
Ti1_4 Ti4_4 2.947929 1_555
Ti1_4 Ti2_0 3.061121 1_555
Ti1_4 Ti2_6 3.061121 1_555
Ti1_5 Ti4_5 2.947929 1_555
Ti1_5 Ti4_4 2.947929 1_555
Ti1_5 Ti2_1 3.061121 1_555
Ti1_5 Ti2_7 3.061121 1_555
Ti1_6 Ti4_6 2.947929 1_555
Ti1_6 Ti4_7 2.947929 1_554
Ti1_6 Ti2_2 3.061121 1_555
Ti1_6 Ti2_4 3.061121 1_565
Ti1_7 Ti4_6 2.947929 1_555
Ti1_7 Ti4_7 2.947929 1_555
Ti1_7 Ti2_3 3.061121 1_555
Ti1_7 Ti2_5 3.061121 1_565
Ti2_0 Ti2_6 2.913356 1_555
Ti2_0 Ti2_6 2.913356 1_445
Ti2_0 Ti3_2 2.933440 1_545
Ti2_0 Ti3_3 2.933440 1_544
Ti2_0 Ti3_5 2.933440 1_554
Ti2_0 Ti3_4 2.933440 1_555
Ti2_1 Ti2_7 2.913356 1_555
Ti2_1 Ti2_7 2.913356 1_445
Ti2_1 Ti3_2 2.933440 1_545
Ti2_1 Ti3_3 2.933440 1_545
Ti2_1 Ti3_5 2.933440 1_555
Ti2_1 Ti3_4 2.933440 1_555
Ti2_2 Ti2_4 2.913356 1_455
Ti2_2 Ti2_4 2.913356 1_565
Ti2_2 Ti3_1 2.933440 1_554
Ti2_2 Ti3_0 2.933440 1_555
Ti2_2 Ti3_7 2.933440 1_554
Ti2_2 Ti3_6 2.933440 1_555
Ti2_3 Ti2_5 2.913356 1_455
Ti2_3 Ti2_5 2.913356 1_565
Ti2_3 Ti3_0 2.933440 1_555
Ti2_3 Ti3_1 2.933440 1_555
Ti2_3 Ti3_7 2.933440 1_555
Ti2_3 Ti3_6 2.933440 1_555
Ti2_4 Ti3_0 2.933440 1_655
Ti2_4 Ti3_6 2.933440 1_545
Ti2_4 Ti3_1 2.933440 1_654
Ti2_4 Ti3_7 2.933440 1_544
Ti2_5 Ti3_0 2.933440 1_655
Ti2_5 Ti3_7 2.933440 1_545
Ti2_5 Ti3_1 2.933440 1_655
Ti2_5 Ti3_6 2.933440 1_545
Ti2_6 Ti3_4 2.933440 1_555
Ti2_6 Ti3_5 2.933440 1_554
Ti2_6 Ti3_3 2.933440 1_654
Ti2_6 Ti3_2 2.933440 1_655
Ti2_7 Ti3_5 2.933440 1_555
Ti2_7 Ti3_4 2.933440 1_555
Ti2_7 Ti3_2 2.933440 1_655
Ti2_7 Ti3_3 2.933440 1_655
Ti3_0 Ti4_2 2.848699 1_555
Ti3_0 Ti4_4 2.848699 1_455
Ti3_0 Ti3_6 2.913356 1_445
Ti3_0 Ti3_6 2.913356 1_555
Ti3_1 Ti4_3 2.848699 1_555
Ti3_1 Ti4_5 2.848699 1_455
Ti3_1 Ti3_7 2.913356 1_445
Ti3_1 Ti3_7 2.913356 1_555
Ti3_2 Ti4_0 2.848699 1_565
Ti3_2 Ti4_6 2.848699 1_455
Ti3_2 Ti3_4 2.913356 1_565
Ti3_2 Ti3_4 2.913356 1_455
Ti3_3 Ti4_1 2.848699 1_565
Ti3_3 Ti4_7 2.848699 1_455
Ti3_3 Ti3_5 2.913356 1_455
Ti3_3 Ti3_5 2.913356 1_565
Ti3_4 Ti4_6 2.848699 1_555
Ti3_4 Ti4_0 2.848699 1_555
Ti3_5 Ti4_7 2.848699 1_555
Ti3_5 Ti4_1 2.848699 1_555
Ti3_6 Ti4_4 2.848699 1_565
Ti3_6 Ti4_2 2.848699 1_555
Ti3_7 Ti4_5 2.848699 1_565
Ti3_7 Ti4_3 2.848699 1_555
Ti4_0 Ti4_6 2.913356 1_555
Ti4_0 Ti4_6 2.913356 1_445
Ti4_1 Ti4_7 2.913356 1_555
Ti4_1 Ti4_7 2.913356 1_445
Ti4_2 Ti4_4 2.913356 1_455
Ti4_2 Ti4_4 2.913356 1_565
Ti4_3 Ti4_5 2.913356 1_455
Ti4_3 Ti4_5 2.913356 1_565
