# generated using pymatgen
data_SrLaVO4
_symmetry_space_group_name_H-M   'P 1'
_cell_length_a   3.94938333
_cell_length_b   7.84568989
_cell_length_c   6.92389927
_cell_angle_alpha   106.53233171
_cell_angle_beta   106.54105498
_cell_angle_gamma   90.03739361
_symmetry_Int_Tables_number   1
_chemical_formula_structural   SrLaVO4
_chemical_formula_sum   'Sr2 La2 V2 O8'
_cell_volume   196.38055310
_cell_formula_units_Z   2
loop_
 _symmetry_equiv_pos_site_id
 _symmetry_equiv_pos_as_xyz
  1  'x, y, z'
loop_
 _atom_site_type_symbol
 _atom_site_label
 _atom_site_symmetry_multiplicity
 _atom_site_fract_x
 _atom_site_fract_y
 _atom_site_fract_z
 _atom_site_occupancy
  Sr  Sr0  1  0.64346600  0.32156400  0.28709200  1
  Sr  Sr1  1  0.64465600  0.82151200  0.28772100  1
  La  La0  1  0.35658700  0.67875700  0.71340700  1
  La  La1  1  0.35552200  0.17817200  0.71239900  1
  V  V0  1  0.00281300  0.00126200  0.00477100  1
  V  V1  1  0.00189700  0.50123700  0.00475900  1
  O  O0  1  0.83426000  0.41613400  0.66765800  1
  O  O1  1  0.83391500  0.91786400  0.66818600  1
  O  O2  1  0.17408000  0.58787200  0.34929800  1
  O  O3  1  0.17436100  0.08618900  0.34724200  1
  O  O4  1  0.49280000  0.49662200  0.98729900  1
  O  O5  1  0.49362800  0.99658600  0.98550900  1
  O  O6  1  0.99662200  0.74798400  0.99247200  1
  O  O7  1  0.99539200  0.24824700  0.99218800  1
loop_
_geom_bond_atom_site_label_1
_geom_bond_atom_site_label_2
_geom_bond_distance
_geom_bond_site_symmetry_2
La0 O2 2.307654 1_555
La0 O5 2.608518 1_555
La0 O4 2.624891 1_555
La0 O6 2.649034 1_455
La0 O6 2.652893 1_555
La0 O1 2.799431 1_555
La0 O1 2.801719 1_455
La0 O0 2.802177 1_455
La0 O0 2.806894 1_555
La1 O3 2.314296 1_555
La1 O5 2.617238 1_545
La1 O4 2.619792 1_555
La1 O7 2.653640 1_455
La1 O7 2.654395 1_555
La1 O1 2.790700 1_445
La1 O0 2.791182 1_455
La1 O1 2.795160 1_545
La1 O0 2.795431 1_555
O0 V1 2.136481 1_656
O0 Sr0 2.411965 1_555
O1 V0 2.133229 1_666
O1 Sr1 2.411318 1_555
O2 V1 2.183617 1_555
O2 Sr1 2.802847 1_455
O2 Sr1 2.808450 1_555
O2 Sr0 2.812597 1_455
O2 Sr0 2.816920 1_555
O3 V0 2.170530 1_555
O3 Sr1 2.806220 1_445
O3 Sr1 2.808147 1_545
O3 Sr0 2.808676 1_555
O3 Sr0 2.815208 1_455
O4 V1 1.976307 1_556
O4 V1 1.979274 1_656
O4 Sr1 2.730194 1_556
O4 Sr0 2.733018 1_556
O5 V0 1.976746 1_666
O5 V0 1.980178 1_566
O5 Sr0 2.734184 1_566
O5 Sr1 2.747201 1_556
O6 V1 1.961672 1_656
O6 V0 1.964440 1_666
O6 Sr1 2.718827 1_556
O6 Sr1 2.722103 1_656
O7 V1 1.961715 1_656
O7 V0 1.964203 1_656
O7 Sr0 2.716715 1_556
O7 Sr0 2.721212 1_656
