# generated using pymatgen
data_Sn9Pd13
_symmetry_space_group_name_H-M   'P 1'
_cell_length_a   8.98541109
_cell_length_b   8.98541109
_cell_length_c   17.13476200
_cell_angle_alpha   90.00000000
_cell_angle_beta   90.00000000
_cell_angle_gamma   119.99999327
_symmetry_Int_Tables_number   1
_chemical_formula_structural   Sn9Pd13
_chemical_formula_sum   'Sn27 Pd39'
_cell_volume   1198.07674845
_cell_formula_units_Z   3
loop_
 _symmetry_equiv_pos_site_id
 _symmetry_equiv_pos_as_xyz
  1  'x, y, z'
loop_
 _atom_site_type_symbol
 _atom_site_label
 _atom_site_symmetry_multiplicity
 _atom_site_fract_x
 _atom_site_fract_y
 _atom_site_fract_z
 _atom_site_occupancy
  Sn  Sn0  1  0.19286900  0.30691000  0.58175800  1
  Sn  Sn1  1  0.69309000  0.88595900  0.91509200  1
  Sn  Sn2  1  0.30691000  0.19286900  0.41824200  1
  Sn  Sn3  1  0.11404100  0.80713100  0.24842500  1
  Sn  Sn4  1  0.88595900  0.69309000  0.08490800  1
  Sn  Sn5  1  0.80713100  0.11404100  0.75157500  1
  Sn  Sn6  1  0.61575300  0.30576400  0.57806400  1
  Sn  Sn7  1  0.69423600  0.30998900  0.91139700  1
  Sn  Sn8  1  0.30576400  0.61575300  0.42193600  1
  Sn  Sn9  1  0.69001100  0.38424700  0.24473100  1
  Sn  Sn10  1  0.30998900  0.69423600  0.08860300  1
  Sn  Sn11  1  0.38424700  0.69001100  0.75526900  1
  Sn  Sn12  1  0.49695400  0.00000000  0.33333300  1
  Sn  Sn13  1  0.00000000  0.49695400  0.66666700  1
  Sn  Sn14  1  0.50304600  0.50304600  0.00000000  1
  Sn  Sn15  1  0.11608600  0.31049800  0.91081400  1
  Sn  Sn16  1  0.68950200  0.80558800  0.24414800  1
  Sn  Sn17  1  0.31049800  0.11608600  0.08918600  1
  Sn  Sn18  1  0.19441200  0.88391400  0.57748100  1
  Sn  Sn19  1  0.80558800  0.68950200  0.75585200  1
  Sn  Sn20  1  0.88391400  0.19441200  0.42251900  1
  Sn  Sn21  1  0.33538500  0.16797000  0.75337200  1
  Sn  Sn22  1  0.83203000  0.16741500  0.08670600  1
  Sn  Sn23  1  0.16797000  0.33538500  0.24662800  1
  Sn  Sn24  1  0.83258500  0.66461500  0.42003900  1
  Sn  Sn25  1  0.16741500  0.83203000  0.91329400  1
  Sn  Sn26  1  0.66461500  0.83258500  0.57996100  1
  Pd  Pd0  1  0.15984500  0.33796600  0.74821600  1
  Pd  Pd1  1  0.66203400  0.82187900  0.08154900  1
  Pd  Pd2  1  0.33796600  0.15984500  0.25178400  1
  Pd  Pd3  1  0.17812100  0.84015500  0.41488200  1
  Pd  Pd4  1  0.82187900  0.66203400  0.91845100  1
  Pd  Pd5  1  0.84015500  0.17812100  0.58511800  1
  Pd  Pd6  1  0.49532700  0.00000000  0.83333300  1
  Pd  Pd7  1  0.00000000  0.49532700  0.16666700  1
  Pd  Pd8  1  0.50467300  0.50467300  0.50000000  1
  Pd  Pd9  1  0.33861800  0.17877000  0.92506900  1
  Pd  Pd10  1  0.82123000  0.15984800  0.25840200  1
  Pd  Pd11  1  0.17877000  0.33861800  0.07493100  1
  Pd  Pd12  1  0.84015200  0.66138200  0.59173600  1
  Pd  Pd13  1  0.15984800  0.82123000  0.74159800  1
  Pd  Pd14  1  0.66138200  0.84015200  0.40826400  1
  Pd  Pd15  1  0.00204000  0.00000000  0.83333300  1
  Pd  Pd16  1  0.00000000  0.00204000  0.16666700  1
  Pd  Pd17  1  0.99796000  0.99796000  0.50000000  1
  Pd  Pd18  1  0.50058600  0.00022300  0.66632800  1
  Pd  Pd19  1  0.99977700  0.50036300  0.99966200  1
  Pd  Pd20  1  0.00022300  0.50058600  0.33367200  1
  Pd  Pd21  1  0.49963700  0.49941400  0.33299500  1
  Pd  Pd22  1  0.50036300  0.99977700  0.00033800  1
  Pd  Pd23  1  0.49941400  0.49963700  0.66700500  1
  Pd  Pd24  1  0.31867300  0.65916900  0.58715300  1
  Pd  Pd25  1  0.34083100  0.65950500  0.92048600  1
  Pd  Pd26  1  0.65916900  0.31867300  0.41284700  1
  Pd  Pd27  1  0.34049500  0.68132700  0.25381900  1
  Pd  Pd28  1  0.65950500  0.34083100  0.07951400  1
  Pd  Pd29  1  0.68132700  0.34049500  0.74618100  1
  Pd  Pd30  1  0.99994500  0.00000000  0.33333300  1
  Pd  Pd31  1  0.00000000  0.99994500  0.66666700  1
  Pd  Pd32  1  0.00005500  0.00005500  0.00000000  1
  Pd  Pd33  1  0.00291000  0.50579800  0.83005100  1
  Pd  Pd34  1  0.49420200  0.49711200  0.16338400  1
  Pd  Pd35  1  0.50579800  0.00291000  0.16994900  1
  Pd  Pd36  1  0.50288800  0.99709000  0.49671800  1
  Pd  Pd37  1  0.49711200  0.49420200  0.83661600  1
  Pd  Pd38  1  0.99709000  0.50288800  0.50328200  1
loop_
_geom_bond_atom_site_label_1
_geom_bond_atom_site_label_2
_geom_bond_distance
_geom_bond_site_symmetry_2
Pd0 Sn21 2.690387 1_555
Pd0 Sn11 2.776379 1_555
Pd0 Sn5 2.778354 1_455
Pd0 Sn15 2.807259 1_555
Pd0 Sn13 2.847460 1_555
Pd0 Pd33 2.890569 1_555
Pd0 Sn0 2.895492 1_555
Pd0 Pd31 2.979596 1_545
Pd0 Pd23 2.987288 1_555
Pd0 Pd15 3.008927 1_555
Pd0 Pd37 3.032266 1_555
Pd1 Sn22 2.690388 1_565
Pd1 Sn10 2.776380 1_555
Pd1 Sn4 2.778354 1_555
Pd1 Sn16 2.807276 1_555
Pd1 Sn14 2.847461 1_555
Pd1 Pd34 2.890570 1_555
Pd1 Sn1 2.895475 1_554
Pd1 Pd32 2.979596 1_665
Pd1 Pd22 2.987288 1_555
Pd1 Pd16 3.008935 1_665
Pd1 Pd35 3.032265 1_565
Pd2 Sn23 2.690387 1_555
Pd2 Sn9 2.776379 1_555
Pd2 Sn3 2.778354 1_545
Pd2 Sn17 2.807259 1_555
Pd2 Sn12 2.847460 1_555
Pd2 Pd35 2.890569 1_555
Pd2 Sn2 2.895492 1_555
Pd2 Pd30 2.979596 1_455
Pd2 Pd21 2.987288 1_555
Pd2 Pd34 3.032266 1_555
Pd3 Sn24 2.690388 1_455
Pd3 Sn8 2.776380 1_555
Pd3 Sn2 2.778355 1_565
Pd3 Sn18 2.807276 1_555
Pd3 Sn12 2.847461 1_565
Pd3 Pd36 2.890578 1_555
Pd3 Sn3 2.895475 1_555
Pd3 Pd30 2.979596 1_465
Pd3 Pd38 3.032266 1_455
Pd4 Sn25 2.690388 1_655
Pd4 Sn7 2.776380 1_555
Pd4 Sn1 2.778354 1_555
Pd4 Sn19 2.807276 1_555
Pd4 Sn14 2.847461 1_556
Pd4 Sn4 2.895475 1_556
Pd5 Sn26 2.690388 1_545
Pd5 Sn6 2.776380 1_555
Pd5 Sn0 2.778355 1_655
Pd5 Sn20 2.807276 1_555
Pd5 Sn13 2.847461 1_655
Pd5 Sn5 2.895475 1_555
Pd6 Sn11 2.786332 1_545
Pd6 Sn7 2.786332 1_555
Pd6 Sn5 2.826853 1_555
Pd6 Sn1 2.826862 1_545
Pd6 Sn21 2.896476 1_555
Pd6 Sn25 2.896476 1_545
Pd6 Pd9 3.048876 1_555
Pd7 Sn9 2.786332 1_455
Pd7 Sn10 2.786332 1_555
Pd7 Sn3 2.826853 1_555
Pd7 Sn4 2.826862 1_455
Pd7 Sn23 2.896476 1_555
Pd7 Sn22 2.896476 1_455
Pd8 Sn8 2.786332 1_555
Pd8 Sn6 2.786332 1_555
Pd8 Sn0 2.826854 1_555
Pd8 Sn2 2.826854 1_555
Pd8 Sn26 2.896476 1_555
Pd8 Sn24 2.896476 1_555
Pd9 Sn25 2.705793 1_545
Pd9 Sn15 2.797414 1_555
Pd9 Sn7 2.808548 1_555
Pd9 Sn14 2.831317 1_556
Pd9 Sn17 2.854244 1_556
Pd9 Sn21 2.943252 1_555
Pd10 Sn23 2.705792 1_655
Pd10 Sn16 2.797413 1_545
Pd10 Sn9 2.808547 1_555
Pd10 Sn12 2.831317 1_555
Pd10 Sn20 2.854244 1_555
Pd10 Pd35 2.884795 1_555
Pd10 Pd30 2.931988 1_555
Pd10 Sn22 2.943235 1_555
Pd10 Pd20 2.949541 1_655
Pd10 Pd7 3.048867 1_655
Pd10 Pd16 3.056037 1_655
Pd11 Sn22 2.705793 1_455
Pd11 Sn17 2.797414 1_555
Pd11 Sn10 2.808548 1_555
Pd11 Sn14 2.831317 1_555
Pd11 Sn15 2.854244 1_554
Pd11 Pd34 2.884795 1_555
Pd11 Pd32 2.931988 1_555
Pd11 Sn23 2.943252 1_555
Pd11 Pd19 2.949533 1_454
Pd11 Pd7 3.048876 1_555
Pd11 Pd16 3.056046 1_555
Pd12 Sn26 2.705793 1_555
Pd12 Sn18 2.797414 1_655
Pd12 Sn6 2.808548 1_555
Pd12 Sn13 2.831317 1_655
Pd12 Sn19 2.854227 1_555
Pd12 Pd38 2.884804 1_555
Pd12 Pd31 2.931988 1_655
Pd12 Sn24 2.943252 1_555
Pd12 Pd23 2.949533 1_555
Pd12 Pd8 3.048876 1_555
Pd12 Pd17 3.056046 1_555
Pd13 Sn21 2.705792 1_565
Pd13 Sn19 2.797413 1_455
Pd13 Sn11 2.808547 1_555
Pd13 Sn13 2.831317 1_555
Pd13 Sn18 2.854244 1_555
Pd13 Pd33 2.884795 1_555
Pd13 Pd31 2.931988 1_555
Pd13 Sn25 2.943235 1_555
Pd13 Pd18 2.949541 1_565
Pd13 Pd6 3.048867 1_565
Pd13 Pd15 3.056037 1_565
Pd14 Sn24 2.705793 1_555
Pd14 Sn20 2.797414 1_565
Pd14 Sn8 2.808548 1_555
Pd14 Sn12 2.831317 1_565
Pd14 Sn16 2.854227 1_555
Pd14 Pd36 2.884804 1_555
Pd14 Pd30 2.931988 1_565
Pd14 Sn26 2.943252 1_555
Pd14 Pd21 2.949533 1_555
Pd14 Pd8 3.048876 1_555
Pd14 Pd17 3.056046 1_555
Pd15 Sn15 2.781639 1_555
Pd15 Sn19 2.781639 1_445
Pd15 Sn5 2.806125 1_455
Pd15 Sn1 2.806134 1_445
Pd15 Pd31 2.855840 1_545
Pd15 Pd32 2.855857 1_556
Pd15 Sn25 2.933590 1_545
Pd15 Sn21 2.933590 1_555
Pd15 Pd4 3.008935 1_445
Pd15 Pd9 3.056046 1_555
Pd16 Sn17 2.781639 1_555
Pd16 Sn16 2.781639 1_445
Pd16 Sn3 2.806125 1_545
Pd16 Sn4 2.806134 1_445
Pd16 Pd30 2.855840 1_455
Pd16 Pd32 2.855857 1_555
Pd16 Sn22 2.933590 1_455
Pd16 Sn23 2.933590 1_555
Pd16 Pd2 3.008927 1_555
Pd17 Sn18 2.781638 1_655
Pd17 Sn20 2.781638 1_565
Pd17 Sn2 2.806126 1_665
Pd17 Sn0 2.806126 1_665
Pd17 Pd30 2.855857 1_565
Pd17 Pd31 2.855857 1_655
Pd17 Sn26 2.933590 1_555
Pd17 Sn24 2.933590 1_555
Pd17 Pd5 3.008935 1_565
Pd17 Pd3 3.008935 1_655
Pd18 Sn5 2.819479 1_555
Pd18 Sn6 2.838033 1_555
Pd18 Sn18 2.846618 1_545
Pd18 Pd6 2.861965 1_555
Pd18 Sn11 2.875933 1_545
Pd18 Pd36 2.906537 1_545
Pd18 Sn26 2.975119 1_545
Pd18 Pd29 2.982009 1_555
Pd18 Pd24 2.982343 1_545
Pd18 Pd5 2.987280 1_555
Pd18 Sn21 2.989519 1_555
Pd19 Sn4 2.819470 1_556
Pd19 Sn7 2.838042 1_555
Pd19 Sn15 2.846627 1_655
Pd19 Pd7 2.861965 1_656
Pd19 Sn10 2.875933 1_656
Pd19 Pd33 2.906554 1_655
Pd19 Sn25 2.975128 1_655
Pd19 Pd28 2.982001 1_556
Pd19 Pd25 2.982351 1_655
Pd19 Pd4 2.987288 1_555
Pd19 Sn22 2.989520 1_556
Pd20 Sn3 2.819479 1_555
Pd20 Sn8 2.838033 1_555
Pd20 Sn20 2.846618 1_455
Pd20 Pd7 2.861965 1_555
Pd20 Sn9 2.875933 1_455
Pd20 Pd38 2.906537 1_455
Pd20 Sn24 2.975119 1_455
Pd20 Pd27 2.982009 1_555
Pd20 Pd26 2.982343 1_455
Pd20 Pd3 2.987280 1_555
Pd20 Sn23 2.989519 1_555
Pd21 Sn2 2.819479 1_555
Pd21 Sn9 2.838033 1_555
Pd21 Sn16 2.846618 1_555
Pd21 Pd8 2.861965 1_555
Pd21 Sn8 2.875932 1_555
Pd21 Pd34 2.906554 1_555
Pd21 Sn23 2.975120 1_555
Pd21 Pd26 2.982008 1_555
Pd21 Pd27 2.982358 1_555
Pd21 Sn24 2.989520 1_555
Pd22 Sn1 2.819470 1_554
Pd22 Sn10 2.838042 1_555
Pd22 Sn17 2.846627 1_565
Pd22 Pd6 2.861965 1_564
Pd22 Sn7 2.875933 1_564
Pd22 Pd35 2.906554 1_565
Pd22 Pd9 2.949533 1_564
Pd22 Sn22 2.975128 1_565
Pd22 Pd25 2.982001 1_554
Pd22 Pd28 2.982351 1_565
Pd22 Sn25 2.989520 1_554
Pd23 Sn0 2.819479 1_555
Pd23 Sn11 2.838033 1_555
Pd23 Sn19 2.846618 1_555
Pd23 Pd8 2.861965 1_555
Pd23 Sn6 2.875932 1_555
Pd23 Pd37 2.906554 1_555
Pd23 Sn21 2.975120 1_555
Pd23 Pd24 2.982008 1_555
Pd23 Pd29 2.982358 1_555
Pd23 Sn26 2.989520 1_555
Pd24 Sn26 2.694803 1_555
Pd24 Sn18 2.758072 1_555
Pd24 Sn0 2.779722 1_555
Pd24 Sn13 2.829537 1_555
Pd24 Sn8 2.852138 1_555
Pd24 Pd38 2.886014 1_455
Pd24 Sn11 2.925525 1_555
Pd24 Pd8 3.044750 1_555
Pd24 Pd36 3.055258 1_555
Pd25 Sn25 2.694795 1_555
Pd25 Sn15 2.758080 1_555
Pd25 Sn1 2.779721 1_555
Pd25 Sn14 2.829543 1_556
Pd25 Sn11 2.852138 1_555
Pd25 Pd37 2.886012 1_555
Pd25 Sn10 2.925541 1_556
Pd25 Pd6 3.044743 1_565
Pd25 Pd33 3.055258 1_555
Pd26 Sn24 2.694803 1_555
Pd26 Sn20 2.758072 1_555
Pd26 Sn2 2.779722 1_555
Pd26 Sn12 2.829537 1_555
Pd26 Sn6 2.852138 1_555
Pd26 Pd36 2.886014 1_545
Pd26 Sn9 2.925525 1_555
Pd26 Pd8 3.044750 1_555
Pd26 Pd38 3.055258 1_555
Pd27 Sn23 2.694802 1_555
Pd27 Sn16 2.758080 1_555
Pd27 Sn3 2.779713 1_555
Pd27 Sn12 2.829537 1_565
Pd27 Sn10 2.852120 1_555
Pd27 Pd35 2.886005 1_565
Pd27 Sn8 2.925542 1_555
Pd27 Pd7 3.044735 1_555
Pd27 Pd34 3.055264 1_555
Pd28 Sn22 2.694795 1_555
Pd28 Sn17 2.758080 1_555
Pd28 Sn4 2.779721 1_555
Pd28 Sn14 2.829543 1_555
Pd28 Sn9 2.852138 1_555
Pd28 Pd34 2.886012 1_555
Pd28 Sn7 2.925541 1_554
Pd28 Pd7 3.044743 1_655
Pd28 Pd35 3.055258 1_555
Pd29 Sn21 2.694802 1_555
Pd29 Sn19 2.758080 1_555
Pd29 Sn5 2.779713 1_555
Pd29 Sn13 2.829537 1_655
Pd29 Sn7 2.852120 1_555
Pd29 Pd33 2.886005 1_655
Pd29 Sn6 2.925542 1_555
Pd29 Pd6 3.044735 1_555
Pd29 Pd37 3.055264 1_555
Pd30 Sn3 2.819166 1_645
Pd30 Sn2 2.819175 1_655
Pd30 Sn16 2.880121 1_545
Pd30 Sn20 2.880130 1_555
Pd30 Sn23 3.003071 1_655
Pd30 Sn24 3.003080 1_545
Pd31 Sn5 2.819166 1_465
Pd31 Sn0 2.819175 1_565
Pd31 Sn19 2.880121 1_455
Pd31 Sn18 2.880130 1_555
Pd31 Pd5 2.979596 1_465
Pd31 Sn21 3.003071 1_565
Pd31 Sn26 3.003080 1_455
Pd32 Sn4 2.819166 1_445
Pd32 Sn1 2.819166 1_444
Pd32 Sn15 2.880130 1_554
Pd32 Sn17 2.880130 1_555
Pd32 Pd9 2.931988 1_554
Pd32 Pd4 2.979596 1_444
Pd32 Sn25 3.003079 1_544
Pd32 Sn22 3.003079 1_455
Pd33 Sn15 2.795223 1_555
Pd33 Sn13 2.800425 1_555
Pd33 Sn7 2.801991 1_455
Pd33 Sn25 2.911897 1_555
Pd33 Pd4 3.032265 1_455
Pd33 Sn19 3.226658 1_455
Pd33 Sn11 3.232770 1_555
Pd33 Sn5 3.331884 1_455
Pd34 Sn16 2.795232 1_555
Pd34 Sn14 2.800425 1_555
Pd34 Sn9 2.801999 1_555
Pd34 Sn23 2.911905 1_555
Pd34 Sn17 3.226651 1_555
Pd34 Sn10 3.232763 1_555
Pd34 Sn4 3.331884 1_555
Pd35 Sn17 2.795223 1_555
Pd35 Sn12 2.800425 1_555
Pd35 Sn10 2.801991 1_545
Pd35 Sn22 2.911897 1_555
Pd35 Sn16 3.226658 1_545
Pd35 Sn9 3.232770 1_555
Pd35 Sn3 3.331884 1_545
Pd36 Sn18 2.795223 1_555
Pd36 Sn12 2.800442 1_565
Pd36 Sn6 2.801991 1_565
Pd36 Sn26 2.911897 1_555
Pd36 Pd5 3.032266 1_565
Pd36 Sn20 3.226658 1_565
Pd36 Sn8 3.232770 1_555
Pd36 Sn2 3.331883 1_565
Pd37 Sn19 2.795232 1_555
Pd37 Sn14 2.800425 1_556
Pd37 Sn11 2.801999 1_555
Pd37 Pd9 2.884795 1_555
Pd37 Pd4 2.890570 1_555
Pd37 Sn21 2.911905 1_555
Pd37 Sn15 3.226651 1_555
Pd37 Sn7 3.232763 1_555
Pd37 Sn1 3.331884 1_555
Pd38 Sn20 2.795223 1_555
Pd38 Sn13 2.800442 1_655
Pd38 Sn8 2.801991 1_655
Pd38 Pd5 2.890578 1_555
Pd38 Sn24 2.911897 1_555
Pd38 Sn18 3.226658 1_655
Pd38 Sn6 3.232770 1_555
Pd38 Sn0 3.331883 1_655
