# generated using pymatgen
data_Sr3Ir2O7
_symmetry_space_group_name_H-M   'P 1'
_cell_length_a   3.99753148
_cell_length_b   3.99753148
_cell_length_c   10.71263385
_cell_angle_alpha   80.30441358
_cell_angle_beta   80.30441358
_cell_angle_gamma   93.08849199
_symmetry_Int_Tables_number   1
_chemical_formula_structural   Sr3Ir2O7
_chemical_formula_sum   'Sr3 Ir2 O7'
_cell_volume   165.73824948
_cell_formula_units_Z   1
loop_
 _symmetry_equiv_pos_site_id
 _symmetry_equiv_pos_as_xyz
  1  'x, y, z'
loop_
 _atom_site_type_symbol
 _atom_site_label
 _atom_site_symmetry_multiplicity
 _atom_site_fract_x
 _atom_site_fract_y
 _atom_site_fract_z
 _atom_site_occupancy
  Sr  Sr0  1  0.50000000  0.50000000  0.00000000  1
  Sr  Sr1  1  0.69487800  0.69487800  0.63003700  1
  Sr  Sr2  1  0.30512200  0.30512200  0.36996300  1
  Ir  Ir0  1  0.10251300  0.10251300  0.80335300  1
  Ir  Ir1  1  0.89748700  0.89748700  0.19664700  1
  O  O0  1  0.19595300  0.19595300  0.60802500  1
  O  O1  1  0.80404700  0.80404700  0.39197500  1
  O  O2  1  0.00000000  0.00000000  0.00000000  1
  O  O3  1  0.60998500  0.17045900  0.80553900  1
  O  O4  1  0.17045900  0.60998500  0.80553900  1
  O  O5  1  0.39001500  0.82954100  0.19446100  1
  O  O6  1  0.82954100  0.39001500  0.19446100  1
loop_
_geom_bond_atom_site_label_1
_geom_bond_atom_site_label_2
_geom_bond_distance
_geom_bond_site_symmetry_2
Ir0 O4 1.998778 1_545
Ir0 O3 1.998778 1_455
Ir0 O0 2.028779 1_555
Ir0 O3 2.036775 1_555
Ir0 O4 2.036775 1_555
Ir0 O2 2.043040 1_556
Ir1 O6 1.998778 1_565
Ir1 O5 1.998778 1_655
Ir1 O1 2.028779 1_555
Ir1 O6 2.036775 1_555
Ir1 O5 2.036775 1_555
Ir1 O2 2.043040 1_665
O0 Sr2 2.472755 1_555
O0 Sr1 2.707322 1_445
O0 Sr1 2.810621 1_555
O0 Sr1 2.911285 1_545
O0 Sr1 2.911285 1_455
O1 Sr1 2.472755 1_555
O1 Sr2 2.707322 1_665
O1 Sr2 2.810621 1_555
O1 Sr2 2.911285 1_565
O1 Sr2 2.911285 1_655
O2 Sr0 2.749479 1_445
O2 Sr0 2.749479 1_555
O2 Sr0 2.901831 1_545
O2 Sr0 2.901831 1_455
O3 Sr1 2.534874 1_555
O3 Sr0 2.635651 1_556
O3 Sr1 2.884930 1_545
O3 Sr0 3.065984 1_546
O4 Sr1 2.534874 1_555
O4 Sr0 2.635651 1_556
O4 Sr1 2.884930 1_455
O4 Sr0 3.065984 1_456
O5 Sr2 2.534874 1_555
O5 Sr0 2.635651 1_555
O5 Sr2 2.884930 1_565
O5 Sr0 3.065984 1_565
O6 Sr2 2.534874 1_555
O6 Sr0 2.635651 1_555
O6 Sr2 2.884930 1_655
O6 Sr0 3.065984 1_655
