# generated using pymatgen
data_LiTiFe5O8
_symmetry_space_group_name_H-M   'P 1'
_cell_length_a   6.18928671
_cell_length_b   6.26428233
_cell_length_c   6.18680740
_cell_angle_alpha   90.18875335
_cell_angle_beta   59.96997819
_cell_angle_gamma   119.61685234
_symmetry_Int_Tables_number   1
_chemical_formula_structural   LiTiFe5O8
_chemical_formula_sum   'Li1 Ti1 Fe5 O8'
_cell_volume   170.78669099
_cell_formula_units_Z   1
loop_
 _symmetry_equiv_pos_site_id
 _symmetry_equiv_pos_as_xyz
  1  'x, y, z'
loop_
 _atom_site_type_symbol
 _atom_site_label
 _atom_site_symmetry_multiplicity
 _atom_site_fract_x
 _atom_site_fract_y
 _atom_site_fract_z
 _atom_site_occupancy
  Li  Li0  1  0.75476700  0.38133900  0.37178200  1
  Ti  Ti0  1  0.47941800  0.96953400  0.51089400  1
  Fe  Fe0  1  0.23983400  0.11013400  0.13069200  1
  Fe  Fe1  1  0.76575400  0.89899800  0.86754400  1
  Fe  Fe2  1  0.48453300  0.51368600  0.50749900  1
  Fe  Fe3  1  0.02160200  0.51376200  0.97041300  1
  Fe  Fe4  1  0.02152200  0.51360800  0.50759600  1
  O  O0  1  0.97569500  0.71557700  0.26422800  1
  O  O1  1  0.94742700  0.22599000  0.27527300  1
  O  O2  1  0.50354900  0.22670000  0.71940700  1
  O  O3  1  0.50324700  0.22593400  0.27532300  1
  O  O4  1  0.01356100  0.27004100  0.74283800  1
  O  O5  1  0.02574800  0.77013900  0.73788200  1
  O  O6  1  0.50675000  0.76929300  0.25581300  1
  O  O7  1  0.50659300  0.77026700  0.73781400  1
loop_
_geom_bond_atom_site_label_1
_geom_bond_atom_site_label_2
_geom_bond_distance
_geom_bond_site_symmetry_2
Li0 O0 1.721940 1_555
Li0 O3 1.776341 1_555
Li0 O1 1.776487 1_555
Li0 O2 1.777468 1_555
Fe0 O0 2.032711 1_445
Fe0 O3 2.066843 1_555
Fe0 O1 2.067803 1_455
Fe0 O2 2.085481 1_554
Fe1 O4 1.911533 1_665
Fe1 O6 1.967606 1_556
Fe1 O5 1.967768 1_655
Fe1 O7 1.968045 1_555
Fe2 Li0 2.037186 1_555
Fe2 O4 2.077428 1_555
Fe2 O6 2.142869 1_555
Fe2 O7 2.143631 1_555
Fe2 O0 2.176928 1_555
Fe2 O2 2.311647 1_555
Fe2 O3 2.312734 1_555
Fe3 Li0 2.033865 1_456
Fe3 O4 2.072832 1_555
Fe3 O5 2.141759 1_555
Fe3 O7 2.141864 1_555
Fe3 O0 2.192316 1_456
Fe3 O3 2.312949 1_456
Fe3 O1 2.314212 1_456
Fe4 Li0 2.037222 1_455
Fe4 O4 2.077772 1_555
Fe4 O6 2.142622 1_555
Fe4 O5 2.143273 1_555
Fe4 O0 2.177819 1_455
Fe4 O2 2.311004 1_455
Fe4 O1 2.312675 1_455
O1 Ti0 2.070261 1_545
O2 Ti0 2.054999 1_545
O3 Ti0 2.071657 1_545
O5 Ti0 2.003697 1_555
O6 Ti0 2.005505 1_555
O7 Ti0 2.003203 1_555
