# generated using pymatgen
data_Tl(V3S4)4
_symmetry_space_group_name_H-M   'P 1'
_cell_length_a   7.07879422
_cell_length_b   9.20866350
_cell_length_c   9.94547910
_cell_angle_alpha   117.93369466
_cell_angle_beta   110.84277893
_cell_angle_gamma   89.98803615
_symmetry_Int_Tables_number   1
_chemical_formula_structural   Tl(V3S4)4
_chemical_formula_sum   'Tl1 V12 S16'
_cell_volume   524.29972902
_cell_formula_units_Z   1
loop_
 _symmetry_equiv_pos_site_id
 _symmetry_equiv_pos_as_xyz
  1  'x, y, z'
loop_
 _atom_site_type_symbol
 _atom_site_label
 _atom_site_symmetry_multiplicity
 _atom_site_fract_x
 _atom_site_fract_y
 _atom_site_fract_z
 _atom_site_occupancy
  Tl  Tl0  1  0.19747511  0.99940456  0.99990478  1
  V  V0  1  0.18936400  0.65231569  0.13034587  1
  V  V1  1  0.69024198  0.65463722  0.13047611  1
  V  V2  1  0.38564788  0.86216784  0.51830476  1
  V  V3  1  0.87949285  0.86008685  0.51326440  1
  V  V4  1  0.30135976  0.49061189  0.35635560  1
  V  V5  1  0.80119304  0.48701152  0.34952469  1
  V  V6  1  0.80858917  0.34773436  0.86949099  1
  V  V7  1  0.31009724  0.34886175  0.86976217  1
  V  V8  1  0.62130601  0.13886868  0.48642116  1
  V  V9  1  0.11324796  0.13809528  0.48453075  1
  V  V10  1  0.69438440  0.51028954  0.64698081  1
  V  V11  1  0.19967088  0.50912632  0.64412435  1
  S  S0  1  0.95953051  0.33608388  0.66934227  1
  S  S1  1  0.45755751  0.33066940  0.66679817  1
  S  S2  1  0.04163641  0.66795040  0.33263349  1
  S  S3  1  0.53952060  0.66533574  0.33120802  1
  S  S4  1  0.77962306  0.95761376  0.31182393  1
  S  S5  1  0.28279250  0.95898049  0.31571548  1
  S  S6  1  0.94576184  0.68389181  0.64389194  1
  S  S7  1  0.44933129  0.68929774  0.65022731  1
  S  S8  1  0.64589568  0.35630948  0.04249686  1
  S  S9  1  0.14643142  0.35710529  0.04485741  1
  S  S10  1  0.21694137  0.04130701  0.68789412  1
  S  S11  1  0.72143116  0.04231969  0.68933953  1
  S  S12  1  0.05006075  0.30993958  0.34969217  1
  S  S13  1  0.55084972  0.31206171  0.35195627  1
  S  S14  1  0.35296354  0.64599726  0.95589885  1
  S  S15  1  0.85295337  0.64592425  0.95673775  1
loop_
_geom_bond_atom_site_label_1
_geom_bond_atom_site_label_2
_geom_bond_distance
_geom_bond_site_symmetry_2
S0 V8 2.479308 1_555
S0 V9 2.483800 1_655
S0 V11 2.484098 1_655
S0 V10 2.486300 1_555
S0 V7 2.530945 1_655
S0 V6 2.535536 1_555
S1 V10 2.475271 1_555
S1 V11 2.477296 1_555
S1 V8 2.488312 1_555
S1 V9 2.493435 1_555
S1 V7 2.524841 1_555
S1 V6 2.530188 1_555
S2 V4 2.480675 1_555
S2 V3 2.482674 1_455
S2 V5 2.483613 1_455
S2 V2 2.499272 1_555
S2 V0 2.527350 1_555
S2 V1 2.540685 1_455
S3 V3 2.478925 1_555
S3 V4 2.484307 1_555
S3 V5 2.489930 1_555
S3 V2 2.493151 1_555
S3 V0 2.530033 1_555
S3 V1 2.542627 1_555
S4 V8 2.392854 1_565
S4 V9 2.393824 1_665
S4 V1 2.431376 1_555
S4 V3 2.449008 1_555
S5 V9 2.412132 1_565
S5 V8 2.416666 1_565
S5 V2 2.454231 1_555
S5 V0 2.463016 1_555
S5 Tl0 3.180246 1_554
S6 V5 2.408557 1_555
S6 V10 2.410218 1_555
S6 V11 2.412445 1_655
S6 V3 2.466034 1_555
S6 Tl0 3.166647 1_655
S7 V11 2.389622 1_555
S7 V10 2.390871 1_555
S7 V4 2.408136 1_555
S7 V2 2.448356 1_555
S8 V6 2.361342 1_554
S8 V7 2.364338 1_554
S8 V1 2.442142 1_555
S8 V5 2.479867 1_555
S9 V6 2.378993 1_454
S9 V7 2.385856 1_554
S9 V0 2.420008 1_555
S9 V4 2.515200 1_555
S9 Tl0 3.148849 1_544
S10 V2 2.412061 1_545
S10 V3 2.416873 1_445
S10 V9 2.460911 1_555
S10 V7 2.465803 1_555
S11 V3 2.403085 1_545
S11 V2 2.403342 1_545
S11 V6 2.448214 1_555
S11 V8 2.455314 1_555
S12 V4 2.398117 1_555
S12 V5 2.400340 1_455
S12 V11 2.412995 1_555
S12 V9 2.462456 1_555
S13 V5 2.409297 1_555
S13 V4 2.410556 1_555
S13 V10 2.415573 1_555
S13 V8 2.470649 1_555
S14 V1 2.375283 1_556
S14 V0 2.385334 1_556
S14 V7 2.435591 1_555
S14 V11 2.515032 1_555
S15 V1 2.367505 1_556
S15 V0 2.373720 1_656
S15 V6 2.442499 1_555
S15 V10 2.499083 1_555
