# generated using pymatgen
data_Ca(BiO2)2
_symmetry_space_group_name_H-M   'P 1'
_cell_length_a   7.06847980
_cell_length_b   7.06847980
_cell_length_c   7.06847980
_cell_angle_alpha   60.00000000
_cell_angle_beta   60.00000000
_cell_angle_gamma   60.00000000
_symmetry_Int_Tables_number   1
_chemical_formula_structural   Ca(BiO2)2
_chemical_formula_sum   'Ca2 Bi4 O8'
_cell_volume   249.72560045
_cell_formula_units_Z   2
loop_
 _symmetry_equiv_pos_site_id
 _symmetry_equiv_pos_as_xyz
  1  'x, y, z'
loop_
 _atom_site_type_symbol
 _atom_site_label
 _atom_site_symmetry_multiplicity
 _atom_site_fract_x
 _atom_site_fract_y
 _atom_site_fract_z
 _atom_site_occupancy
  Ca  Ca0  1  0.25000000  0.25000000  0.25000000  1
  Ca  Ca1  1  0.00000000  0.00000000  0.00000000  1
  Bi  Bi0  1  0.62500000  0.62500000  0.12500000  1
  Bi  Bi1  1  0.62500000  0.12500000  0.62500000  1
  Bi  Bi2  1  0.62500000  0.62500000  0.62500000  1
  Bi  Bi3  1  0.12500000  0.62500000  0.62500000  1
  O  O0  1  0.86708100  0.39875600  0.86708100  1
  O  O1  1  0.86708100  0.86708100  0.86708100  1
  O  O2  1  0.39875600  0.86708100  0.86708100  1
  O  O3  1  0.38291900  0.38291900  0.85124400  1
  O  O4  1  0.85124400  0.38291900  0.38291900  1
  O  O5  1  0.38291900  0.38291900  0.38291900  1
  O  O6  1  0.86708100  0.86708100  0.39875600  1
  O  O7  1  0.38291900  0.85124400  0.38291900  1
loop_
_geom_bond_atom_site_label_1
_geom_bond_atom_site_label_2
_geom_bond_distance
_geom_bond_site_symmetry_2
Ca0 O3 2.301376 1_554
Ca0 O7 2.301376 1_545
Ca0 O4 2.301376 1_455
Ca0 O5 2.301382 1_555
Ca1 O0 2.301376 1_454
Ca1 O6 2.301376 1_445
Ca1 O2 2.301376 1_544
Ca1 O1 2.301382 1_444
Bi0 O1 2.422512 1_554
Bi0 O5 2.422512 1_555
Bi0 O7 2.422517 1_555
Bi0 O4 2.422517 1_555
Bi0 O2 2.422517 1_554
Bi0 O0 2.422517 1_554
Bi1 O1 2.422512 1_545
Bi1 O5 2.422512 1_555
Bi1 O2 2.422517 1_545
Bi1 O4 2.422517 1_555
Bi1 O6 2.422517 1_545
Bi1 O3 2.422517 1_555
Bi2 O2 2.422512 1_555
Bi2 O6 2.422512 1_555
Bi2 O3 2.422512 1_555
Bi2 O0 2.422512 1_555
Bi2 O7 2.422512 1_555
Bi2 O4 2.422512 1_555
Bi3 O1 2.422512 1_455
Bi3 O5 2.422512 1_555
Bi3 O7 2.422517 1_555
Bi3 O6 2.422517 1_455
Bi3 O0 2.422517 1_455
Bi3 O3 2.422517 1_555
