# generated using pymatgen
data_Eu2BiSbO6
_symmetry_space_group_name_H-M   'P 1'
_cell_length_a   8.50917748
_cell_length_b   8.50917748
_cell_length_c   8.50917748
_cell_angle_alpha   90.00000000
_cell_angle_beta   90.00000000
_cell_angle_gamma   90.00000000
_symmetry_Int_Tables_number   1
_chemical_formula_structural   Eu2BiSbO6
_chemical_formula_sum   'Eu8 Bi4 Sb4 O24'
_cell_volume   616.11636733
_cell_formula_units_Z   4
loop_
 _symmetry_equiv_pos_site_id
 _symmetry_equiv_pos_as_xyz
  1  'x, y, z'
loop_
 _atom_site_type_symbol
 _atom_site_label
 _atom_site_symmetry_multiplicity
 _atom_site_fract_x
 _atom_site_fract_y
 _atom_site_fract_z
 _atom_site_occupancy
  Eu  Eu0  1  0.50000000  0.50000000  0.50000000  1
  Eu  Eu1  1  0.00000000  0.00000000  0.00000000  1
  Eu  Eu2  1  0.00000000  0.00000000  0.50000000  1
  Eu  Eu3  1  0.00000000  0.50000000  0.00000000  1
  Eu  Eu4  1  0.50000000  0.00000000  0.00000000  1
  Eu  Eu5  1  0.50000000  0.50000000  0.00000000  1
  Eu  Eu6  1  0.50000000  0.00000000  0.50000000  1
  Eu  Eu7  1  -0.00000000  0.50000000  0.50000000  1
  Bi  Bi0  1  0.75000000  0.75000000  0.75000000  1
  Bi  Bi1  1  0.75000000  0.25000000  0.25000000  1
  Bi  Bi2  1  0.25000000  0.75000000  0.25000000  1
  Bi  Bi3  1  0.25000000  0.25000000  0.75000000  1
  Sb  Sb0  1  0.25000000  0.25000000  0.25000000  1
  Sb  Sb1  1  0.25000000  0.75000000  0.75000000  1
  Sb  Sb2  1  0.75000000  0.25000000  0.75000000  1
  Sb  Sb3  1  0.75000000  0.75000000  0.25000000  1
  O  O0  1  0.20974963  0.29975683  0.48037507  1
  O  O1  1  0.20974963  0.70024317  0.51962493  1
  O  O2  1  0.79025037  0.29975683  0.51962493  1
  O  O3  1  0.79025037  0.70024317  0.48037507  1
  O  O4  1  0.29975683  0.48037507  0.20974963  1
  O  O5  1  0.70024317  0.51962493  0.20974963  1
  O  O6  1  0.29975683  0.51962493  0.79025037  1
  O  O7  1  0.70024317  0.48037507  0.79025037  1
  O  O8  1  0.48037507  0.20974963  0.29975683  1
  O  O9  1  0.51962493  0.20974963  0.70024317  1
  O  O10  1  0.51962493  0.79025037  0.29975683  1
  O  O11  1  0.48037507  0.79025037  0.70024317  1
  O  O12  1  0.29025037  0.20024317  0.01962493  1
  O  O13  1  0.29025037  0.79975683  0.98037507  1
  O  O14  1  0.70974963  0.20024317  0.98037507  1
  O  O15  1  0.70974963  0.79975683  0.01962493  1
  O  O16  1  0.20024317  0.01962493  0.29025037  1
  O  O17  1  0.79975683  0.98037507  0.29025037  1
  O  O18  1  0.20024317  0.98037507  0.70974963  1
  O  O19  1  0.79975683  0.01962493  0.70974963  1
  O  O20  1  0.01962493  0.29025037  0.20024317  1
  O  O21  1  0.98037507  0.29025037  0.79975683  1
  O  O22  1  0.98037507  0.70974963  0.20024317  1
  O  O23  1  0.01962493  0.70974963  0.79975683  1
loop_
_geom_bond_atom_site_label_1
_geom_bond_atom_site_label_2
_geom_bond_distance
_geom_bond_site_symmetry_2
Eu0 O8 3.005170 1_555
Eu0 O7 3.005170 1_555
Eu0 O5 3.005170 1_555
Eu0 O9 3.005170 1_555
Eu0 O10 3.005170 1_555
Eu0 O2 3.005170 1_555
Eu0 O0 3.005170 1_555
Eu0 O3 3.005170 1_555
Eu0 O11 3.005170 1_555
Eu0 O4 3.005170 1_555
Eu0 O1 3.005170 1_555
Eu0 O6 3.005170 1_555
Eu1 O22 3.005170 1_445
Eu1 O20 3.005170 1_555
Eu1 O18 3.005170 1_544
Eu1 O16 3.005170 1_555
Eu1 O14 3.005170 1_454
Eu1 O23 3.005170 1_544
Eu1 O15 3.005170 1_445
Eu1 O12 3.005170 1_555
Eu1 O19 3.005170 1_454
Eu1 O21 3.005170 1_454
Eu1 O13 3.005170 1_544
Eu1 O17 3.005170 1_445
Eu2 O17 2.473192 1_445
Eu2 O19 2.473192 1_455
Eu2 O16 2.473192 1_555
Eu2 O18 2.473192 1_545
Eu2 O1 3.117591 1_545
Eu2 O0 3.117591 1_555
Eu2 O2 3.117591 1_455
Eu2 O3 3.117591 1_445
Eu3 O22 2.473192 1_455
Eu3 O20 2.473192 1_555
Eu3 O23 2.473192 1_554
Eu3 O21 2.473192 1_454
Eu3 O4 3.117591 1_555
Eu3 O5 3.117591 1_455
Eu3 O6 3.117591 1_554
Eu3 O7 3.117591 1_454
Eu4 O12 2.473192 1_555
Eu4 O14 2.473192 1_554
Eu4 O13 2.473192 1_544
Eu4 O15 2.473192 1_545
Eu4 O9 3.117591 1_554
Eu4 O11 3.117591 1_544
Eu4 O8 3.117591 1_555
Eu4 O10 3.117591 1_545
Eu5 O5 2.473192 1_555
Eu5 O7 2.473192 1_554
Eu5 O6 2.473192 1_554
Eu5 O4 2.473192 1_555
Eu5 O12 3.117591 1_555
Eu5 O13 3.117591 1_554
Eu5 O14 3.117591 1_554
Eu5 O15 3.117591 1_555
Eu6 O8 2.473192 1_555
Eu6 O9 2.473192 1_555
Eu6 O11 2.473192 1_545
Eu6 O10 2.473192 1_545
Eu6 O17 3.117591 1_545
Eu6 O16 3.117591 1_555
Eu6 O19 3.117591 1_555
Eu6 O18 3.117591 1_545
Eu7 O0 2.473192 1_555
Eu7 O1 2.473192 1_555
Eu7 O2 2.473192 1_455
Eu7 O3 2.473192 1_455
Eu7 O20 3.117591 1_555
Eu7 O23 3.117591 1_555
Eu7 O21 3.117591 1_455
Eu7 O22 3.117591 1_455
Bi0 O19 2.358032 1_565
Bi0 O11 2.358032 1_555
Bi0 O23 2.358032 1_655
Bi0 O15 2.358032 1_556
Bi0 O7 2.358032 1_555
Bi0 O3 2.358032 1_555
Bi1 O14 2.358032 1_554
Bi1 O8 2.358032 1_555
Bi1 O20 2.358032 1_655
Bi1 O5 2.358032 1_555
Bi1 O17 2.358032 1_545
Bi1 O2 2.358032 1_555
Bi2 O4 2.358032 1_555
Bi2 O1 2.358032 1_555
Bi2 O16 2.358032 1_565
Bi2 O22 2.358032 1_455
Bi2 O13 2.358032 1_554
Bi2 O10 2.358032 1_555
Bi3 O0 2.358032 1_555
Bi3 O21 2.358032 1_455
Bi3 O6 2.358032 1_555
Bi3 O12 2.358032 1_556
Bi3 O9 2.358032 1_555
Bi3 O18 2.358032 1_545
O0 Sb0 2.034539 1_555
O1 Sb1 2.034539 1_555
O2 Sb2 2.034539 1_555
O3 Sb3 2.034539 1_555
O4 Sb0 2.034539 1_555
O5 Sb3 2.034539 1_555
O6 Sb1 2.034539 1_555
O7 Sb2 2.034539 1_555
O8 Sb0 2.034539 1_555
O9 Sb2 2.034539 1_555
O10 Sb3 2.034539 1_555
O11 Sb1 2.034539 1_555
O12 Sb0 2.034539 1_555
O13 Sb1 2.034539 1_555
O14 Sb2 2.034539 1_555
O15 Sb3 2.034539 1_555
O16 Sb0 2.034539 1_555
O17 Sb3 2.034539 1_555
O18 Sb1 2.034539 1_555
O19 Sb2 2.034539 1_555
O20 Sb0 2.034539 1_555
O21 Sb2 2.034539 1_555
O22 Sb3 2.034539 1_555
O23 Sb1 2.034539 1_555
