# generated using pymatgen
data_Li7Mn2(CoO4)3
_symmetry_space_group_name_H-M   'P 1'
_cell_length_a   2.94629584
_cell_length_b   2.94629584
_cell_length_c   29.26865600
_cell_angle_alpha   90.00000000
_cell_angle_beta   90.00000000
_cell_angle_gamma   119.99999644
_symmetry_Int_Tables_number   1
_chemical_formula_structural   Li7Mn2(CoO4)3
_chemical_formula_sum   'Li7 Mn2 Co3 O12'
_cell_volume   220.03214532
_cell_formula_units_Z   1
loop_
 _symmetry_equiv_pos_site_id
 _symmetry_equiv_pos_as_xyz
  1  'x, y, z'
loop_
 _atom_site_type_symbol
 _atom_site_label
 _atom_site_symmetry_multiplicity
 _atom_site_fract_x
 _atom_site_fract_y
 _atom_site_fract_z
 _atom_site_occupancy
  Li  Li0  1  0.00000000  0.00000000  0.25402200  1
  Li  Li1  1  0.33333300  0.66666700  0.42056000  1
  Li  Li2  1  0.66666700  0.33333300  0.58112800  1
  Li  Li3  1  0.00000000  0.00000000  0.74821300  1
  Li  Li4  1  0.33333300  0.66666700  0.91293400  1
  Li  Li5  1  0.66666700  0.33333300  0.08340600  1
  Li  Li6  1  0.00000000  0.00000000  0.49986300  1
  Mn  Mn0  1  0.00000000  0.00000000  0.99967000  1
  Mn  Mn1  1  0.33333300  0.66666700  0.16717000  1
  Co  Co0  1  0.66666700  0.33333300  0.33354700  1
  Co  Co1  1  0.33333300  0.66666700  0.66670000  1
  Co  Co2  1  0.66666700  0.33333300  0.83292400  1
  O  O0  1  0.00000000  0.00000000  0.36735000  1
  O  O1  1  0.33333300  0.66666700  0.54177800  1
  O  O2  1  0.66666700  0.33333300  0.70624700  1
  O  O3  1  0.00000000  0.00000000  0.87067600  1
  O  O4  1  0.33333300  0.66666700  0.03869300  1
  O  O5  1  0.66666700  0.33333300  0.20486600  1
  O  O6  1  0.00000000  0.00000000  0.12799100  1
  O  O7  1  0.33333300  0.66666700  0.29571300  1
  O  O8  1  0.66666700  0.33333300  0.45757100  1
  O  O9  1  0.00000000  0.00000000  0.62959100  1
  O  O10  1  0.33333300  0.66666700  0.79765000  1
  O  O11  1  0.66666700  0.33333300  0.96173700  1
loop_
_geom_bond_atom_site_label_1
_geom_bond_atom_site_label_2
_geom_bond_distance
_geom_bond_site_symmetry_2
Li0 O7 2.093450 1_545
Li0 O7 2.093452 1_445
Li0 O7 2.093452 1_555
Li0 O5 2.227889 1_455
Li0 O5 2.227891 1_555
Li0 O5 2.227891 1_445
Li1 O8 2.016682 1_455
Li1 O8 2.016682 1_565
Li1 O8 2.016686 1_555
Li1 O0 2.306295 1_565
Li1 O0 2.306297 1_665
Li1 O0 2.306297 1_555
Li2 O1 2.054266 1_545
Li2 O1 2.054266 1_655
Li2 O1 2.054270 1_555
Li2 O9 2.214845 1_655
Li2 O9 2.214847 1_555
Li2 O9 2.214847 1_665
Li3 O2 2.098151 1_455
Li3 O2 2.098154 1_555
Li3 O2 2.098154 1_445
Li3 O10 2.233209 1_545
Li3 O10 2.233212 1_445
Li3 O10 2.233212 1_555
Li4 O3 2.103166 1_565
Li4 O3 2.103168 1_555
Li4 O3 2.103168 1_665
Li4 O11 2.221231 1_455
Li4 O11 2.221231 1_565
Li4 O11 2.221235 1_555
Li5 O6 2.143927 1_655
Li5 O6 2.143929 1_665
Li5 O6 2.143929 1_555
Li5 O4 2.146210 1_545
Li5 O4 2.146210 1_655
Li5 O4 2.146214 1_555
Li6 O1 2.097278 1_545
Li6 O1 2.097280 1_555
Li6 O1 2.097280 1_445
Li6 O8 2.103751 1_455
Li6 O8 2.103754 1_555
Li6 O8 2.103754 1_445
Mn0 O11 2.031304 1_455
Mn0 O11 2.031307 1_445
Mn0 O11 2.031307 1_555
Mn0 O4 2.048916 1_546
Mn0 O4 2.048918 1_556
Mn0 O4 2.048918 1_446
Mn1 O5 2.027521 1_455
Mn1 O5 2.027521 1_565
Mn1 O5 2.027526 1_555
Mn1 O6 2.051464 1_565
Mn1 O6 2.051467 1_665
Mn1 O6 2.051467 1_555
Co0 O0 1.967841 1_655
Co0 O0 1.967843 1_665
Co0 O0 1.967843 1_555
Co0 O7 2.029722 1_545
Co0 O7 2.029722 1_655
Co0 O7 2.029726 1_555
Co1 O9 2.018224 1_565
Co1 O9 2.018226 1_665
Co1 O9 2.018226 1_555
Co1 O2 2.057505 1_455
Co1 O2 2.057505 1_565
Co1 O2 2.057509 1_555
Co2 O10 1.989835 1_545
Co2 O10 1.989835 1_655
Co2 O10 1.989839 1_555
Co2 O3 2.028414 1_655
Co2 O3 2.028416 1_555
Co2 O3 2.028416 1_665
