# generated using pymatgen
data_Mg6MnNi
_symmetry_space_group_name_H-M   'P 1'
_cell_length_a   4.79823200
_cell_length_b   6.03165400
_cell_length_c   10.46464900
_cell_angle_alpha   90.00000000
_cell_angle_beta   90.00000000
_cell_angle_gamma   90.00000000
_symmetry_Int_Tables_number   1
_chemical_formula_structural   Mg6MnNi
_chemical_formula_sum   'Mg12 Mn2 Ni2'
_cell_volume   302.86028695
_cell_formula_units_Z   2
loop_
 _symmetry_equiv_pos_site_id
 _symmetry_equiv_pos_as_xyz
  1  'x, y, z'
loop_
 _atom_site_type_symbol
 _atom_site_label
 _atom_site_symmetry_multiplicity
 _atom_site_fract_x
 _atom_site_fract_y
 _atom_site_fract_z
 _atom_site_occupancy
  Mg  Mg0  1  0.00000000  0.26347400  0.08832400  1
  Mg  Mg1  1  0.00000000  0.73652600  0.08832400  1
  Mg  Mg2  1  0.00000000  0.00000000  0.33485200  1
  Mg  Mg3  1  0.50000000  0.74124400  0.40995500  1
  Mg  Mg4  1  0.50000000  0.25875600  0.40995500  1
  Mg  Mg5  1  0.50000000  0.00000000  0.16416700  1
  Mg  Mg6  1  0.00000000  0.76347400  0.58832400  1
  Mg  Mg7  1  0.00000000  0.23652600  0.58832400  1
  Mg  Mg8  1  0.00000000  0.50000000  0.83485200  1
  Mg  Mg9  1  0.50000000  0.24124400  0.90995500  1
  Mg  Mg10  1  0.50000000  0.75875600  0.90995500  1
  Mg  Mg11  1  0.50000000  0.50000000  0.66416700  1
  Mn  Mn0  1  0.00000000  0.50000000  0.32337400  1
  Mn  Mn1  1  0.00000000  0.00000000  0.82337400  1
  Ni  Ni0  1  0.50000000  0.50000000  0.18104800  1
  Ni  Ni1  1  0.50000000  0.00000000  0.68104800  1
loop_
_geom_bond_atom_site_label_1
_geom_bond_atom_site_label_2
_geom_bond_distance
_geom_bond_site_symmetry_2
Mg0 Mn0 2.843503 1_555
Mg0 Mg1 2.853286 1_555
Mg0 Ni0 2.955097 1_555
Mg0 Ni0 2.955097 1_455
Mg0 Mg5 2.985159 1_555
Mg0 Mg5 2.985159 1_455
Mg0 Mg8 3.011817 1_554
Mg0 Mg2 3.030020 1_555
Mg0 Mg9 3.042666 1_554
Mg0 Mg9 3.042666 1_454
Mg0 Mg1 3.178368 1_545
Mg0 Mn1 3.195757 1_554
Mg1 Mn0 2.843503 1_555
Mg1 Ni0 2.955097 1_555
Mg1 Ni0 2.955097 1_455
Mg1 Mg5 2.985159 1_465
Mg1 Mg5 2.985159 1_565
Mg1 Mg8 3.011817 1_554
Mg1 Mg2 3.030020 1_565
Mg1 Mg10 3.042666 1_454
Mg1 Mg10 3.042666 1_554
Mg1 Mn1 3.195757 1_564
Mg2 Mg3 2.968047 1_545
Mg2 Mg3 2.968047 1_445
Mg2 Mg4 2.968047 1_555
Mg2 Mg4 2.968047 1_455
Mg2 Mg5 2.991007 1_455
Mg2 Mg5 2.991007 1_555
Mg2 Mg6 3.011817 1_545
Mg2 Mg7 3.011817 1_555
Mg2 Mn0 3.018218 1_545
Mg2 Mn0 3.018218 1_555
Mg3 Ni0 2.802750 1_555
Mg3 Mg4 2.910201 1_555
Mg3 Mn0 2.948556 1_555
Mg3 Mn0 2.948556 1_655
Mg3 Mg5 3.008569 1_565
Mg3 Mg6 3.042666 1_555
Mg3 Mg6 3.042666 1_655
Mg3 Mg4 3.121453 1_565
Mg3 Ni1 3.237874 1_565
Mg4 Ni0 2.802750 1_555
Mg4 Mn0 2.948556 1_555
Mg4 Mn0 2.948556 1_655
Mg4 Mg5 3.008569 1_555
Mg4 Mg7 3.042666 1_555
Mg4 Mg7 3.042666 1_655
Mg4 Ni1 3.237874 1_555
Mg5 Ni0 3.020996 1_545
Mg5 Ni0 3.020996 1_555
Mg5 Mg9 3.032192 1_554
Mg6 Mn1 2.843503 1_565
Mg6 Mg7 2.853286 1_565
Mg6 Ni1 2.955097 1_465
Mg6 Ni1 2.955097 1_565
Mg6 Mg8 3.030020 1_555
Mg6 Mg7 3.178368 1_555
Mg6 Mn0 3.195757 1_555
Mg7 Mn1 2.843503 1_555
Mg7 Ni1 2.955097 1_455
Mg7 Ni1 2.955097 1_555
Mg7 Mg8 3.030020 1_555
Mg7 Mn0 3.195757 1_555
Mg8 Mg9 2.968047 1_555
Mg8 Mg9 2.968047 1_455
Mg8 Mn1 3.018218 1_565
Mg8 Mn1 3.018218 1_555
Mg9 Ni1 2.802750 1_555
Mg9 Mn1 2.948556 1_555
Mg9 Mn1 2.948556 1_655
Mg9 Ni0 3.237874 1_556
Mg10 Ni1 2.802750 1_565
Mg10 Mg9 2.910201 1_565
Mg10 Mn1 2.948556 1_565
Mg10 Mn1 2.948556 1_665
Mg10 Mg8 2.968047 1_655
Mg10 Mg8 2.968047 1_555
Mg10 Mg11 3.008569 1_555
Mg10 Mg5 3.032192 1_566
Mg10 Mg9 3.121453 1_555
Mg10 Ni0 3.237874 1_556
Mg11 Mg7 2.985159 1_555
Mg11 Mg7 2.985159 1_655
Mg11 Mg6 2.985159 1_555
Mg11 Mg6 2.985159 1_655
Mg11 Mg8 2.991007 1_655
Mg11 Mg8 2.991007 1_555
Mg11 Mg9 3.008569 1_555
Mg11 Ni1 3.020996 1_565
Mg11 Ni1 3.020996 1_555
Mg11 Mg3 3.032192 1_555
Mg11 Mg4 3.032192 1_555
Mn0 Ni0 2.823835 1_555
Mn0 Ni0 2.823835 1_455
Mn1 Ni1 2.823835 1_455
Mn1 Ni1 2.823835 1_555
