# generated using pymatgen
data_UTe3O8
_symmetry_space_group_name_H-M   'P 1'
_cell_length_a   11.41693100
_cell_length_b   11.41693100
_cell_length_c   11.41693100
_cell_angle_alpha   90.00000000
_cell_angle_beta   90.00000000
_cell_angle_gamma   90.00000000
_symmetry_Int_Tables_number   1
_chemical_formula_structural   UTe3O8
_chemical_formula_sum   'U8 Te24 O64'
_cell_volume   1488.15486686
_cell_formula_units_Z   8
loop_
 _symmetry_equiv_pos_site_id
 _symmetry_equiv_pos_as_xyz
  1  'x, y, z'
loop_
 _atom_site_type_symbol
 _atom_site_label
 _atom_site_symmetry_multiplicity
 _atom_site_fract_x
 _atom_site_fract_y
 _atom_site_fract_z
 _atom_site_occupancy
  U  U0  1  0.50000000  0.50000000  0.00000000  1
  U  U1  1  0.50000000  0.00000000  0.50000000  1
  U  U2  1  0.00000000  0.50000000  0.50000000  1
  U  U3  1  0.00000000  0.00000000  0.00000000  1
  U  U4  1  0.00000000  0.00000000  0.50000000  1
  U  U5  1  0.00000000  0.50000000  0.00000000  1
  U  U6  1  0.50000000  0.00000000  0.00000000  1
  U  U7  1  0.50000000  0.50000000  0.50000000  1
  Te  Te0  1  0.45297900  0.75900900  0.28282600  1
  Te  Te1  1  0.54702100  0.25900900  0.21717400  1
  Te  Te2  1  0.04702100  0.24099100  0.78282600  1
  Te  Te3  1  0.95297900  0.74099100  0.71717400  1
  Te  Te4  1  0.28282600  0.45297900  0.75900900  1
  Te  Te5  1  0.21717400  0.54702100  0.25900900  1
  Te  Te6  1  0.78282600  0.04702100  0.24099100  1
  Te  Te7  1  0.71717400  0.95297900  0.74099100  1
  Te  Te8  1  0.75900900  0.28282600  0.45297900  1
  Te  Te9  1  0.25900900  0.21717400  0.54702100  1
  Te  Te10  1  0.24099100  0.78282600  0.04702100  1
  Te  Te11  1  0.74099100  0.71717400  0.95297900  1
  Te  Te12  1  0.54702100  0.24099100  0.71717400  1
  Te  Te13  1  0.45297900  0.74099100  0.78282600  1
  Te  Te14  1  0.95297900  0.75900900  0.21717400  1
  Te  Te15  1  0.04702100  0.25900900  0.28282600  1
  Te  Te16  1  0.71717400  0.54702100  0.24099100  1
  Te  Te17  1  0.78282600  0.45297900  0.74099100  1
  Te  Te18  1  0.21717400  0.95297900  0.75900900  1
  Te  Te19  1  0.28282600  0.04702100  0.25900900  1
  Te  Te20  1  0.24099100  0.71717400  0.54702100  1
  Te  Te21  1  0.74099100  0.78282600  0.45297900  1
  Te  Te22  1  0.75900900  0.21717400  0.95297900  1
  Te  Te23  1  0.25900900  0.28282600  0.04702100  1
  O  O0  1  0.39874900  0.67613200  0.41946700  1
  O  O1  1  0.60125100  0.17613200  0.08053300  1
  O  O2  1  0.10125100  0.32386800  0.91946700  1
  O  O3  1  0.89874900  0.82386800  0.58053300  1
  O  O4  1  0.41946700  0.39874900  0.67613200  1
  O  O5  1  0.08053300  0.60125100  0.17613200  1
  O  O6  1  0.91946700  0.10125100  0.32386800  1
  O  O7  1  0.58053300  0.89874900  0.82386800  1
  O  O8  1  0.67613200  0.41946700  0.39874900  1
  O  O9  1  0.17613200  0.08053300  0.60125100  1
  O  O10  1  0.32386800  0.91946700  0.10125100  1
  O  O11  1  0.82386800  0.58053300  0.89874900  1
  O  O12  1  0.60125100  0.32386800  0.58053300  1
  O  O13  1  0.39874900  0.82386800  0.91946700  1
  O  O14  1  0.89874900  0.67613200  0.08053300  1
  O  O15  1  0.10125100  0.17613200  0.41946700  1
  O  O16  1  0.58053300  0.60125100  0.32386800  1
  O  O17  1  0.91946700  0.39874900  0.82386800  1
  O  O18  1  0.08053300  0.89874900  0.67613200  1
  O  O19  1  0.41946700  0.10125100  0.17613200  1
  O  O20  1  0.32386800  0.58053300  0.60125100  1
  O  O21  1  0.82386800  0.91946700  0.39874900  1
  O  O22  1  0.67613200  0.08053300  0.89874900  1
  O  O23  1  0.17613200  0.41946700  0.10125100  1
  O  O24  1  0.09028300  0.84077200  0.11384200  1
  O  O25  1  0.90971700  0.34077200  0.38615800  1
  O  O26  1  0.40971700  0.15922800  0.61384200  1
  O  O27  1  0.59028300  0.65922800  0.88615800  1
  O  O28  1  0.11384200  0.09028300  0.84077200  1
  O  O29  1  0.38615800  0.90971700  0.34077200  1
  O  O30  1  0.61384200  0.40971700  0.15922800  1
  O  O31  1  0.88615800  0.59028300  0.65922800  1
  O  O32  1  0.84077200  0.11384200  0.09028300  1
  O  O33  1  0.34077200  0.38615800  0.90971700  1
  O  O34  1  0.15922800  0.61384200  0.40971700  1
  O  O35  1  0.65922800  0.88615800  0.59028300  1
  O  O36  1  0.90971700  0.15922800  0.88615800  1
  O  O37  1  0.09028300  0.65922800  0.61384200  1
  O  O38  1  0.59028300  0.84077200  0.38615800  1
  O  O39  1  0.40971700  0.34077200  0.11384200  1
  O  O40  1  0.88615800  0.90971700  0.15922800  1
  O  O41  1  0.61384200  0.09028300  0.65922800  1
  O  O42  1  0.38615800  0.59028300  0.84077200  1
  O  O43  1  0.11384200  0.40971700  0.34077200  1
  O  O44  1  0.15922800  0.88615800  0.90971700  1
  O  O45  1  0.65922800  0.61384200  0.09028300  1
  O  O46  1  0.84077200  0.38615800  0.59028300  1
  O  O47  1  0.34077200  0.11384200  0.40971700  1
  O  O48  1  0.40643900  0.59356100  0.09356100  1
  O  O49  1  0.59356100  0.09356100  0.40643900  1
  O  O50  1  0.09356100  0.40643900  0.59356100  1
  O  O51  1  0.90643900  0.90643900  0.90643900  1
  O  O52  1  0.59356100  0.40643900  0.90643900  1
  O  O53  1  0.40643900  0.90643900  0.59356100  1
  O  O54  1  0.90643900  0.59356100  0.40643900  1
  O  O55  1  0.09356100  0.09356100  0.09356100  1
  O  O56  1  0.90664600  0.09335400  0.59335400  1
  O  O57  1  0.09335400  0.59335400  0.90664600  1
  O  O58  1  0.59335400  0.90664600  0.09335400  1
  O  O59  1  0.40664600  0.40664600  0.40664600  1
  O  O60  1  0.09335400  0.90664600  0.40664600  1
  O  O61  1  0.90664600  0.40664600  0.09335400  1
  O  O62  1  0.40664600  0.09335400  0.90664600  1
  O  O63  1  0.59335400  0.59335400  0.59335400  1
loop_
_geom_bond_atom_site_label_1
_geom_bond_atom_site_label_2
_geom_bond_distance
_geom_bond_site_symmetry_2
O0 Te0 1.926732 1_555
O0 Te20 2.363113 1_555
O0 U7 2.495058 1_555
O1 Te1 1.926732 1_555
O1 Te22 2.363113 1_554
O1 U6 2.495058 1_555
O2 Te2 1.926732 1_555
O2 Te23 2.363113 1_556
O2 U5 2.495058 1_556
O3 Te3 1.926732 1_555
O3 Te21 2.363113 1_555
O3 U4 2.495058 1_665
O4 Te4 1.926732 1_555
O4 Te12 2.363113 1_555
O4 U7 2.495058 1_555
O5 Te5 1.926732 1_555
O5 Te14 2.363113 1_455
O5 U5 2.495058 1_555
O6 Te6 1.926732 1_555
O6 Te15 2.363113 1_655
O6 U4 2.495058 1_655
O7 Te7 1.926732 1_555
O7 Te13 2.363113 1_555
O7 U6 2.495058 1_566
O8 Te8 1.926732 1_555
O8 Te16 2.363113 1_555
O8 U7 2.495058 1_555
O9 Te9 1.926732 1_555
O9 Te18 2.363113 1_545
O9 U4 2.495058 1_555
O10 Te10 1.926732 1_555
O10 Te19 2.363113 1_565
O10 U6 2.495058 1_565
O11 Te11 1.926732 1_555
O11 Te17 2.363113 1_555
O11 U5 2.495058 1_656
O12 Te12 1.926732 1_555
O12 Te8 2.363113 1_555
O12 U7 2.495058 1_555
O13 Te13 1.926732 1_555
O13 Te10 2.363113 1_556
O13 U6 2.495058 1_566
O14 Te14 1.926732 1_555
O14 Te11 2.363113 1_554
O14 U5 2.495058 1_655
O15 Te15 1.926732 1_555
O15 Te9 2.363113 1_555
O15 U4 2.495058 1_555
O16 Te16 1.926732 1_555
O16 Te0 2.363113 1_555
O16 U7 2.495058 1_555
O17 Te17 1.926732 1_555
O17 Te2 2.363113 1_655
O17 U5 2.495058 1_656
O18 Te18 1.926732 1_555
O18 Te3 2.363113 1_455
O18 U4 2.495058 1_565
O19 Te19 1.926732 1_555
O19 Te1 2.363113 1_555
O19 U6 2.495058 1_555
O20 Te20 1.926732 1_555
O20 Te4 2.363113 1_555
O20 U7 2.495058 1_555
O21 Te21 1.926732 1_555
O21 Te6 2.363113 1_565
O21 U4 2.495058 1_665
O22 Te22 1.926732 1_555
O22 Te7 2.363113 1_545
O22 U6 2.495058 1_556
O23 Te23 1.926732 1_555
O23 Te5 2.363113 1_555
O23 U5 2.495058 1_555
O24 Te10 1.995047 1_555
O24 Te14 2.172672 1_455
O24 U3 2.460993 1_565
O25 Te8 1.995047 1_555
O25 Te15 2.172672 1_655
O25 U2 2.460993 1_655
O26 Te9 1.995047 1_555
O26 Te12 2.172672 1_555
O26 U1 2.460993 1_555
O27 Te11 1.995047 1_555
O27 Te13 2.172672 1_555
O27 U0 2.460993 1_556
O28 Te2 1.995047 1_555
O28 Te18 2.172672 1_545
O28 U3 2.460993 1_556
O29 Te0 1.995047 1_555
O29 Te19 2.172672 1_565
O29 U1 2.460993 1_565
O30 Te1 1.995047 1_555
O30 Te16 2.172672 1_555
O30 U0 2.460993 1_555
O31 Te3 1.995047 1_555
O31 Te17 2.172672 1_555
O31 U2 2.460993 1_655
O32 Te6 1.995047 1_555
O32 Te22 2.172672 1_554
O32 U3 2.460993 1_655
O33 Te4 1.995047 1_555
O33 Te23 2.172672 1_556
O33 U0 2.460993 1_556
O34 Te5 1.995047 1_555
O34 Te20 2.172672 1_555
O34 U2 2.460993 1_555
O35 Te7 1.995047 1_555
O35 Te21 2.172672 1_555
O35 U1 2.460993 1_565
O36 Te22 1.995047 1_555
O36 Te2 2.172672 1_655
O36 U3 2.460993 1_656
O37 Te20 1.995047 1_555
O37 Te3 2.172672 1_455
O37 U2 2.460993 1_555
O38 Te21 1.995047 1_555
O38 Te0 2.172672 1_555
O38 U1 2.460993 1_565
O39 Te23 1.995047 1_555
O39 Te1 2.172672 1_555
O39 U0 2.460993 1_555
O40 Te14 1.995047 1_555
O40 Te6 2.172672 1_565
O40 U3 2.460993 1_665
O41 Te12 1.995047 1_555
O41 Te7 2.172672 1_545
O41 U1 2.460993 1_555
O42 Te13 1.995047 1_555
O42 Te4 2.172672 1_555
O42 U0 2.460993 1_556
O43 Te15 1.995047 1_555
O43 Te5 2.172672 1_555
O43 U2 2.460993 1_555
O44 Te18 1.995047 1_555
O44 Te10 2.172672 1_556
O44 U3 2.460993 1_566
O45 Te16 1.995047 1_555
O45 Te11 2.172672 1_554
O45 U0 2.460993 1_555
O46 Te17 1.995047 1_555
O46 Te8 2.172672 1_555
O46 U2 2.460993 1_655
O47 Te19 1.995047 1_555
O47 Te9 2.172672 1_555
O47 U1 2.460993 1_555
O48 U0 1.850141 1_555
O49 U1 1.850141 1_555
O50 U2 1.850141 1_555
O51 U3 1.850141 1_666
O52 U0 1.850141 1_556
O53 U1 1.850141 1_565
O54 U2 1.850141 1_655
O55 U3 1.850141 1_555
O56 U4 1.846048 1_655
O57 U5 1.846048 1_556
O58 U6 1.846048 1_565
O59 U7 1.846048 1_555
O60 U4 1.846048 1_565
O61 U5 1.846048 1_655
O62 U6 1.846048 1_556
O63 U7 1.846048 1_555
