# generated using pymatgen
data_NaNdSiO4
_symmetry_space_group_name_H-M   'P 1'
_cell_length_a   5.49237855
_cell_length_b   9.30207881
_cell_length_c   20.87290144
_cell_angle_alpha   90.00000000
_cell_angle_beta   90.00000000
_cell_angle_gamma   90.00000000
_symmetry_Int_Tables_number   1
_chemical_formula_structural   NaNdSiO4
_chemical_formula_sum   'Na12 Nd12 Si12 O48'
_cell_volume   1066.40776683
_cell_formula_units_Z   12
loop_
 _symmetry_equiv_pos_site_id
 _symmetry_equiv_pos_as_xyz
  1  'x, y, z'
loop_
 _atom_site_type_symbol
 _atom_site_label
 _atom_site_symmetry_multiplicity
 _atom_site_fract_x
 _atom_site_fract_y
 _atom_site_fract_z
 _atom_site_occupancy
  Na  Na0  1  0.95654940  0.43299002  0.05519442  1
  Na  Na1  1  0.45654940  0.56700998  0.94480558  1
  Na  Na2  1  0.95654940  0.06700998  0.55519442  1
  Na  Na3  1  0.45654940  0.93299002  0.44480558  1
  Na  Na4  1  0.01731293  0.07415007  0.22282248  1
  Na  Na5  1  0.51731293  0.92584993  0.77717752  1
  Na  Na6  1  0.01731293  0.42584993  0.72282248  1
  Na  Na7  1  0.51731293  0.57415007  0.27717752  1
  Na  Na8  1  0.00255045  0.42788508  0.39069289  1
  Na  Na9  1  0.50255045  0.57211492  0.60930711  1
  Na  Na10  1  0.00255045  0.07211492  0.89069289  1
  Na  Na11  1  0.50255045  0.92788508  0.10930711  1
  Nd  Nd0  1  0.52728556  0.30369661  0.16647382  1
  Nd  Nd1  1  0.02728556  0.69630339  0.83352618  1
  Nd  Nd2  1  0.52728556  0.19630339  0.66647382  1
  Nd  Nd3  1  0.02728556  0.80369661  0.33352618  1
  Nd  Nd4  1  0.50911867  0.19878940  0.33279878  1
  Nd  Nd5  1  0.00911867  0.80121060  0.66720122  1
  Nd  Nd6  1  0.50911867  0.30121060  0.83279878  1
  Nd  Nd7  1  0.00911867  0.69878940  0.16720122  1
  Nd  Nd8  1  0.46182601  0.30382307  0.49982687  1
  Nd  Nd9  1  0.96182601  0.69617693  0.50017313  1
  Nd  Nd10  1  0.46182601  0.19617693  0.99982687  1
  Nd  Nd11  1  0.96182601  0.80382307  0.00017313  1
  Si  Si0  1  0.00467557  0.08563410  0.07692124  1
  Si  Si1  1  0.50467557  0.91436590  0.92307876  1
  Si  Si2  1  0.00467557  0.41436590  0.57692124  1
  Si  Si3  1  0.50467557  0.58563410  0.42307876  1
  Si  Si4  1  0.00654617  0.41670373  0.24337260  1
  Si  Si5  1  0.50654617  0.58329627  0.75662740  1
  Si  Si6  1  0.00654617  0.08329627  0.74337260  1
  Si  Si7  1  0.50654617  0.91670373  0.25662740  1
  Si  Si8  1  0.97306496  0.08659694  0.40904616  1
  Si  Si9  1  0.47306496  0.91340306  0.59095384  1
  Si  Si10  1  0.97306496  0.41340306  0.90904616  1
  Si  Si11  1  0.47306496  0.58659694  0.09095384  1
  O  O0  1  0.44582418  0.42942380  0.39132253  1
  O  O1  1  0.94582418  0.57057620  0.60867747  1
  O  O2  1  0.44582418  0.07057620  0.89132253  1
  O  O3  1  0.94582418  0.92942380  0.10867747  1
  O  O4  1  0.07061540  0.44040373  0.50113899  1
  O  O5  1  0.57061540  0.55959627  0.49886101  1
  O  O6  1  0.07061540  0.05959627  0.00113899  1
  O  O7  1  0.57061540  0.94040373  0.99886101  1
  O  O8  1  0.77319842  0.19298046  0.08446090  1
  O  O9  1  0.27319842  0.80701954  0.91553910  1
  O  O10  1  0.77319842  0.30701954  0.58446090  1
  O  O11  1  0.27319842  0.69298046  0.41553910  1
  O  O12  1  0.25302641  0.15496310  0.10700633  1
  O  O13  1  0.75302641  0.84503690  0.89299367  1
  O  O14  1  0.25302641  0.34503690  0.60700633  1
  O  O15  1  0.75302641  0.65496310  0.39299367  1
  O  O16  1  0.57155739  0.07433311  0.22602142  1
  O  O17  1  0.07155739  0.92566689  0.77397858  1
  O  O18  1  0.57155739  0.42566689  0.72602142  1
  O  O19  1  0.07155739  0.57433311  0.27397858  1
  O  O20  1  0.93584508  0.06126458  0.33232666  1
  O  O21  1  0.94008404  0.43794377  0.16734053  1
  O  O22  1  0.94008404  0.06205623  0.66734053  1
  O  O23  1  0.44008404  0.93794377  0.33265947  1
  O  O24  1  0.22924031  0.30346961  0.25384284  1
  O  O25  1  0.72924031  0.69653039  0.74615716  1
  O  O26  1  0.22924031  0.19653039  0.75384284  1
  O  O27  1  0.72924031  0.80346961  0.24615716  1
  O  O28  1  0.75288073  0.35623870  0.27366144  1
  O  O29  1  0.25288073  0.64376130  0.72633856  1
  O  O30  1  0.75288073  0.14376130  0.77366144  1
  O  O31  1  0.25288073  0.85623870  0.22633856  1
  O  O32  1  0.45851276  0.42867498  0.05677594  1
  O  O33  1  0.95851276  0.57132502  0.94322406  1
  O  O34  1  0.45851276  0.07132502  0.55677594  1
  O  O35  1  0.95851276  0.92867498  0.44322406  1
  O  O36  1  0.73346500  0.66114929  0.07529772  1
  O  O37  1  0.23346500  0.33885071  0.92470228  1
  O  O38  1  0.73346500  0.83885071  0.57529772  1
  O  O39  1  0.23346500  0.16114929  0.42470228  1
  O  O40  1  0.25081855  0.69034921  0.06840596  1
  O  O41  1  0.75081855  0.30965079  0.93159404  1
  O  O42  1  0.25081855  0.80965079  0.56840596  1
  O  O43  1  0.75081855  0.19034921  0.43159404  1
  O  O44  1  0.43584508  0.56126458  0.16767334  1
  O  O45  1  0.93584508  0.43873542  0.83232666  1
  O  O46  1  0.43584508  0.93873542  0.66767334  1
  O  O47  1  0.44008404  0.56205623  0.83265947  1
loop_
_geom_bond_atom_site_label_1
_geom_bond_atom_site_label_2
_geom_bond_distance
_geom_bond_site_symmetry_2
Na0 O21 2.343014 1_555
Na0 O36 2.486311 1_555
Na0 O8 2.524229 1_555
Na0 O33 2.668001 1_554
Na0 O32 2.735899 1_555
Na0 O32 2.757463 1_655
Na0 O40 2.901618 1_655
Na1 O47 2.343014 1_555
Na1 O37 2.486311 1_555
Na1 O9 2.524229 1_555
Na1 O32 2.668001 1_556
Na1 O33 2.735899 1_455
Na1 O33 2.757463 1_555
Na1 O41 2.901618 1_555
Na2 O22 2.343014 1_555
Na2 O38 2.486311 1_545
Na2 O10 2.524229 1_555
Na2 O35 2.668001 1_545
Na2 O34 2.735899 1_555
Na2 O34 2.757463 1_655
Na2 O42 2.901618 1_645
Na3 O23 2.343014 1_555
Na3 O39 2.486311 1_565
Na3 O11 2.524229 1_555
Na3 O34 2.668001 1_565
Na3 O35 2.735899 1_455
Na3 O35 2.757463 1_555
Na3 O43 2.901618 1_565
Na4 O20 2.332138 1_455
Na4 O31 2.405872 1_545
Na4 O16 2.449169 1_455
Na4 O24 2.514840 1_555
Na4 O3 2.764608 1_445
Na4 O12 2.843426 1_555
Na5 O46 2.332138 1_555
Na5 O30 2.405872 1_565
Na5 O17 2.449169 1_555
Na5 O25 2.514840 1_555
Na5 O2 2.764608 1_565
Na5 O13 2.843426 1_555
Na6 O45 2.332138 1_455
Na6 O29 2.405872 1_555
Na6 O18 2.449169 1_455
Na6 O26 2.514840 1_555
Na6 O1 2.764608 1_455
Na6 O14 2.843426 1_555
Na7 O44 2.332138 1_555
Na7 O28 2.405872 1_555
Na7 O19 2.449169 1_555
Na7 O27 2.514840 1_555
Na7 O0 2.764608 1_555
Na7 O15 2.843426 1_555
Na8 O4 2.338347 1_555
Na8 O0 2.434705 1_555
Na8 O15 2.518397 1_455
Na8 O43 2.742751 1_455
Na8 O19 2.816796 1_555
Na8 O39 2.875547 1_555
Na8 O28 2.879546 1_455
Na8 O11 2.925662 1_555
Na9 O5 2.338347 1_555
Na9 O1 2.434705 1_555
Na9 O14 2.518397 1_555
Na9 O42 2.742751 1_555
Na9 O18 2.816796 1_555
Na9 O38 2.875547 1_555
Na9 O29 2.879546 1_555
Na9 O10 2.925662 1_555
Na10 O6 2.338347 1_556
Na10 O2 2.434705 1_555
Na10 O13 2.518397 1_445
Na10 O41 2.742751 1_455
Na10 O17 2.816796 1_545
Na10 O37 2.875547 1_555
Na10 O30 2.879546 1_455
Na10 O9 2.925662 1_545
Na11 O7 2.338347 1_554
Na11 O3 2.434705 1_555
Na11 O12 2.518397 1_565
Na11 O40 2.742751 1_555
Na11 O16 2.816796 1_565
Na11 O36 2.875547 1_555
Na11 O31 2.879546 1_555
Na11 O8 2.925662 1_565
Nd0 O12 2.392473 1_555
Nd0 O8 2.411502 1_555
Nd0 O44 2.448117 1_555
Nd0 O24 2.450588 1_555
Nd0 O16 2.481143 1_555
Nd0 O21 2.588470 1_555
Nd0 O32 2.595574 1_555
Nd0 O28 2.603789 1_555
Nd1 O13 2.392473 1_455
Nd1 O9 2.411502 1_555
Nd1 O45 2.448117 1_455
Nd1 O25 2.450588 1_455
Nd1 O17 2.481143 1_555
Nd1 O47 2.588470 1_555
Nd1 O33 2.595574 1_455
Nd1 O29 2.603789 1_555
Nd2 O14 2.392473 1_555
Nd2 O10 2.411502 1_555
Nd2 O46 2.448117 1_545
Nd2 O26 2.450588 1_555
Nd2 O18 2.481143 1_555
Nd2 O22 2.588470 1_555
Nd2 O34 2.595574 1_555
Nd2 O30 2.603789 1_555
Nd3 O15 2.392473 1_455
Nd3 O11 2.411502 1_555
Nd3 O20 2.448117 1_465
Nd3 O27 2.450588 1_455
Nd3 O19 2.481143 1_555
Nd3 O23 2.588470 1_555
Nd3 O35 2.595574 1_455
Nd3 O31 2.603789 1_555
Nd4 O28 2.336923 1_555
Nd4 O43 2.453747 1_555
Nd4 O24 2.455033 1_555
Nd4 O23 2.455855 1_545
Nd4 O39 2.468728 1_555
Nd4 O0 2.493133 1_555
Nd4 O16 2.534802 1_555
Nd4 O20 2.670159 1_555
Nd5 O29 2.336923 1_555
Nd5 O42 2.453747 1_555
Nd5 O25 2.455033 1_455
Nd5 O22 2.455855 1_465
Nd5 O38 2.468728 1_455
Nd5 O1 2.493133 1_455
Nd5 O17 2.534802 1_555
Nd5 O46 2.670159 1_555
Nd6 O30 2.336923 1_555
Nd6 O41 2.453747 1_555
Nd6 O26 2.455033 1_555
Nd6 O47 2.455855 1_555
Nd6 O37 2.468728 1_555
Nd6 O2 2.493133 1_555
Nd6 O18 2.534802 1_555
Nd6 O45 2.670159 1_555
Nd7 O31 2.336923 1_555
Nd7 O40 2.453747 1_555
Nd7 O27 2.455033 1_455
Nd7 O21 2.455855 1_455
Nd7 O36 2.468728 1_455
Nd7 O3 2.493133 1_455
Nd7 O19 2.534802 1_555
Nd7 O44 2.670159 1_555
Nd8 O43 2.379485 1_555
Nd8 O39 2.406934 1_555
Nd8 O5 2.453187 1_555
Nd8 O10 2.458924 1_555
Nd8 O34 2.467926 1_555
Nd8 O4 2.496336 1_555
Nd8 O14 2.543023 1_555
Nd8 O0 2.549918 1_555
Nd9 O42 2.379485 1_655
Nd9 O38 2.406934 1_555
Nd9 O4 2.453187 1_655
Nd9 O11 2.458924 1_655
Nd9 O35 2.467926 1_555
Nd9 O5 2.496336 1_555
Nd9 O15 2.543023 1_555
Nd9 O1 2.549918 1_555
Nd10 O41 2.379485 1_555
Nd10 O37 2.406934 1_555
Nd10 O7 2.453187 1_545
Nd10 O8 2.458924 1_556
Nd10 O32 2.467926 1_556
Nd10 O6 2.496336 1_556
Nd10 O12 2.543023 1_556
Nd10 O2 2.549918 1_555
Nd11 O40 2.379485 1_655
Nd11 O36 2.406934 1_555
Nd11 O6 2.453187 1_665
Nd11 O9 2.458924 1_654
Nd11 O33 2.467926 1_554
Nd11 O7 2.496336 1_554
Nd11 O13 2.543023 1_554
Nd11 O3 2.549918 1_555
O0 Si3 1.629505 1_555
O1 Si2 1.629505 1_655
O2 Si1 1.629505 1_545
O3 Si0 1.629505 1_665
O4 Si2 1.640703 1_555
O5 Si3 1.640703 1_555
O6 Si0 1.640703 1_555
O7 Si1 1.640703 1_555
O8 Si0 1.624258 1_655
O9 Si1 1.624258 1_555
O10 Si2 1.624258 1_655
O11 Si3 1.624258 1_555
O12 Si0 1.634269 1_555
O13 Si1 1.634269 1_555
O14 Si2 1.634269 1_555
O15 Si3 1.634269 1_555
O16 Si7 1.638776 1_545
O17 Si6 1.638776 1_565
O18 Si5 1.638776 1_555
O19 Si4 1.638776 1_555
O20 Si8 1.631462 1_555
O21 Si4 1.640393 1_655
O22 Si6 1.640393 1_655
O23 Si7 1.640393 1_555
O24 Si4 1.628881 1_555
O25 Si5 1.628881 1_555
O26 Si6 1.628881 1_555
O27 Si7 1.628881 1_555
O28 Si4 1.630070 1_655
O29 Si5 1.630070 1_555
O30 Si6 1.630070 1_655
O31 Si7 1.630070 1_555
O32 Si11 1.635018 1_555
O33 Si10 1.635018 1_555
O34 Si9 1.635018 1_545
O35 Si8 1.635018 1_565
O36 Si11 1.622726 1_555
O37 Si10 1.622726 1_455
O38 Si9 1.622726 1_555
O39 Si8 1.622726 1_455
O40 Si11 1.625717 1_555
O41 Si10 1.625717 1_555
O42 Si9 1.625717 1_555
O43 Si8 1.625717 1_555
O44 Si11 1.631462 1_555
O45 Si10 1.631462 1_555
O46 Si9 1.631462 1_555
O47 Si5 1.640393 1_555
