# generated using pymatgen
data_Mn5Ga4Pd3
_symmetry_space_group_name_H-M   'P 1'
_cell_length_a   4.34233870
_cell_length_b   4.34233870
_cell_length_c   10.73293800
_cell_angle_alpha   90.00000000
_cell_angle_beta   90.00000000
_cell_angle_gamma   119.97785641
_symmetry_Int_Tables_number   1
_chemical_formula_structural   Mn5Ga4Pd3
_chemical_formula_sum   'Mn5 Ga4 Pd3'
_cell_volume   175.30467781
_cell_formula_units_Z   1
loop_
 _symmetry_equiv_pos_site_id
 _symmetry_equiv_pos_as_xyz
  1  'x, y, z'
loop_
 _atom_site_type_symbol
 _atom_site_label
 _atom_site_symmetry_multiplicity
 _atom_site_fract_x
 _atom_site_fract_y
 _atom_site_fract_z
 _atom_site_occupancy
  Mn  Mn0  1  0.99998700  0.00001300  0.24644700  1
  Mn  Mn1  1  0.00000200  0.99999800  0.74723400  1
  Mn  Mn2  1  0.99998700  0.00001300  0.00355300  1
  Mn  Mn3  1  0.00000200  0.99999800  0.50276600  1
  Mn  Mn4  1  0.66676700  0.33323300  0.12500000  1
  Ga  Ga0  1  0.66666100  0.33333900  0.37487900  1
  Ga  Ga1  1  0.66666100  0.33333900  0.87512100  1
  Ga  Ga2  1  0.33333400  0.66666600  0.12500000  1
  Ga  Ga3  1  0.33332900  0.66667100  0.62500000  1
  Pd  Pd0  1  0.66666500  0.33333500  0.62500000  1
  Pd  Pd1  1  0.33330300  0.66669700  0.37158300  1
  Pd  Pd2  1  0.33330300  0.66669700  0.87841700  1
loop_
_geom_bond_atom_site_label_1
_geom_bond_atom_site_label_2
_geom_bond_distance
_geom_bond_site_symmetry_2
Mn0 Mn2 2.606966 1_555
Mn0 Mn3 2.751056 1_645
Mn0 Mn4 2.824658 1_555
Mn0 Mn4 2.826537 1_545
Mn0 Mn4 2.826537 1_655
Mn0 Pd1 2.843783 1_645
Mn0 Pd1 2.844695 1_655
Mn0 Pd1 2.844695 1_545
Mn1 Mn3 2.623860 1_555
Mn1 Mn2 2.751056 1_466
Mn1 Pd0 2.829346 1_465
Mn1 Pd0 2.830053 1_455
Mn1 Pd0 2.830053 1_565
Mn1 Pd2 2.874906 1_555
Mn1 Pd2 2.875956 1_455
Mn1 Pd2 2.875956 1_565
Mn2 Mn4 2.824658 1_555
Mn2 Mn4 2.826537 1_545
Mn2 Mn4 2.826537 1_655
Mn2 Pd2 2.843783 1_644
Mn2 Pd2 2.844695 1_654
Mn2 Pd2 2.844695 1_544
Mn3 Pd0 2.829346 1_465
Mn3 Pd0 2.830053 1_455
Mn3 Pd0 2.830053 1_565
Mn3 Pd1 2.874906 1_555
Mn3 Pd1 2.875956 1_455
Mn3 Pd1 2.875956 1_565
Ga0 Pd1 2.507206 1_555
Ga0 Pd1 2.507767 1_655
Ga0 Pd1 2.507767 1_545
Ga0 Mn4 2.681936 1_555
Ga0 Pd0 2.684533 1_555
Ga0 Mn3 2.858011 1_645
Ga0 Mn3 2.858671 1_655
Ga0 Mn3 2.858671 1_545
Ga0 Mn0 2.860726 1_555
Ga0 Mn0 2.861534 1_455
Ga0 Mn0 2.861534 1_565
Ga1 Pd2 2.507206 1_555
Ga1 Pd2 2.507767 1_655
Ga1 Pd2 2.507767 1_545
Ga1 Mn4 2.681936 1_556
Ga1 Pd0 2.684533 1_555
Ga1 Mn1 2.858011 1_645
Ga1 Mn1 2.858671 1_655
Ga1 Mn1 2.858671 1_545
Ga1 Mn2 2.860726 1_556
Ga1 Mn2 2.861534 1_566
Ga1 Mn2 2.861534 1_456
Ga2 Mn4 2.507235 1_455
Ga2 Mn4 2.507235 1_565
Ga2 Mn4 2.507520 1_555
Ga2 Pd2 2.646560 1_554
Ga2 Pd1 2.646560 1_555
Ga2 Mn0 2.825506 1_465
Ga2 Mn2 2.825506 1_465
Ga2 Mn0 2.826114 1_455
Ga2 Mn0 2.826114 1_565
Ga2 Mn2 2.826114 1_455
Ga2 Mn2 2.826114 1_565
Ga3 Pd0 2.506791 1_555
Ga3 Pd0 2.507600 1_565
Ga3 Pd0 2.507600 1_455
Ga3 Pd2 2.719909 1_555
Ga3 Pd1 2.719909 1_555
Ga3 Mn1 2.829279 1_555
Ga3 Mn3 2.829279 1_555
Ga3 Mn1 2.830086 1_655
Ga3 Mn1 2.830086 1_545
Ga3 Mn3 2.830086 1_655
Ga3 Mn3 2.830086 1_545
