# generated using pymatgen
data_UCoSe3
_symmetry_space_group_name_H-M   'P 1'
_cell_length_a   6.22802000
_cell_length_b   7.16554400
_cell_length_c   8.92309000
_cell_angle_alpha   90.00000000
_cell_angle_beta   90.00000000
_cell_angle_gamma   90.00000000
_symmetry_Int_Tables_number   1
_chemical_formula_structural   UCoSe3
_chemical_formula_sum   'U4 Co4 Se12'
_cell_volume   398.21208788
_cell_formula_units_Z   4
loop_
 _symmetry_equiv_pos_site_id
 _symmetry_equiv_pos_as_xyz
  1  'x, y, z'
loop_
 _atom_site_type_symbol
 _atom_site_label
 _atom_site_symmetry_multiplicity
 _atom_site_fract_x
 _atom_site_fract_y
 _atom_site_fract_z
 _atom_site_occupancy
  U  U0  1  0.42751100  0.86796700  0.25000000  1
  U  U1  1  0.07248900  0.36796700  0.25000000  1
  U  U2  1  0.57248900  0.13203300  0.75000000  1
  U  U3  1  0.92751100  0.63203300  0.75000000  1
  Co  Co0  1  0.50000000  0.50000000  0.00000000  1
  Co  Co1  1  0.00000000  0.00000000  0.50000000  1
  Co  Co2  1  0.50000000  0.50000000  0.50000000  1
  Co  Co3  1  0.00000000  0.00000000  0.00000000  1
  Se  Se0  1  0.65370800  0.53633500  0.25000000  1
  Se  Se1  1  0.84629200  0.03633500  0.25000000  1
  Se  Se2  1  0.34629200  0.46366500  0.75000000  1
  Se  Se3  1  0.15370800  0.96366500  0.75000000  1
  Se  Se4  1  0.65590100  0.82047800  0.55099500  1
  Se  Se5  1  0.84409900  0.32047800  0.94900500  1
  Se  Se6  1  0.34409900  0.17952200  0.05099400  1
  Se  Se7  1  0.15590100  0.67952200  0.44900600  1
  Se  Se8  1  0.34409900  0.17952200  0.44900600  1
  Se  Se9  1  0.15590100  0.67952200  0.05099400  1
  Se  Se10  1  0.65590100  0.82047800  0.94900500  1
  Se  Se11  1  0.84409900  0.32047800  0.55099500  1
loop_
_geom_bond_atom_site_label_1
_geom_bond_atom_site_label_2
_geom_bond_distance
_geom_bond_site_symmetry_2
Co0 Se0 2.441424 1_555
Co0 Se2 2.441424 1_554
Co0 Se6 2.534413 1_555
Co0 Se10 2.534415 1_554
Co0 Se9 2.540569 1_555
Co0 Se5 2.540570 1_554
Co1 Se1 2.441424 1_455
Co1 Se3 2.441424 1_545
Co1 Se7 2.534413 1_545
Co1 Se11 2.534415 1_455
Co1 Se8 2.540569 1_555
Co1 Se4 2.540570 1_445
Co2 Se0 2.441424 1_555
Co2 Se2 2.441424 1_555
Co2 Se8 2.534413 1_555
Co2 Se4 2.534415 1_555
Co2 Se7 2.540569 1_555
Co2 Se11 2.540570 1_555
Co3 Se1 2.441424 1_455
Co3 Se3 2.441424 1_544
Co3 Se9 2.534413 1_545
Co3 Se5 2.534415 1_454
Co3 Se6 2.540569 1_555
Co3 Se10 2.540570 1_444
Se0 U0 2.762520 1_555
Se0 U1 2.873691 1_655
Se1 U1 2.762520 1_655
Se1 U0 2.873691 1_545
Se2 U2 2.762520 1_555
Se2 U3 2.873691 1_455
Se3 U3 2.762520 1_455
Se3 U2 2.873691 1_565
Se4 U3 2.799656 1_555
Se4 U2 2.899484 1_565
Se4 U0 3.058205 1_555
Se5 U2 2.799656 1_555
Se5 U3 2.899484 1_555
Se5 U1 3.058205 1_656
Se6 U1 2.799662 1_555
Se6 U0 2.899489 1_545
Se6 U2 3.058197 1_554
Se7 U0 2.799662 1_555
Se7 U1 2.899489 1_555
Se7 U3 3.058197 1_455
Se8 U1 2.799662 1_555
Se8 U0 2.899489 1_545
Se8 U2 3.058197 1_555
Se9 U0 2.799662 1_555
Se9 U1 2.899489 1_555
Se9 U3 3.058197 1_454
Se10 U3 2.799656 1_555
Se10 U2 2.899484 1_565
Se10 U0 3.058205 1_556
Se11 U2 2.799656 1_555
Se11 U3 2.899484 1_555
Se11 U1 3.058205 1_655
