# generated using pymatgen
data_Ca(FeO2)2
_symmetry_space_group_name_H-M   'P 1'
_cell_length_a   6.26593507
_cell_length_b   6.26593507
_cell_length_c   6.26593507
_cell_angle_alpha   120.01551067
_cell_angle_beta   119.99625237
_cell_angle_gamma   89.98981402
_symmetry_Int_Tables_number   1
_chemical_formula_structural   Ca(FeO2)2
_chemical_formula_sum   'Ca2 Fe4 O8'
_cell_volume   173.94183179
_cell_formula_units_Z   2
loop_
 _symmetry_equiv_pos_site_id
 _symmetry_equiv_pos_as_xyz
  1  'x, y, z'
loop_
 _atom_site_type_symbol
 _atom_site_label
 _atom_site_symmetry_multiplicity
 _atom_site_fract_x
 _atom_site_fract_y
 _atom_site_fract_z
 _atom_site_occupancy
  Ca  Ca0  1  0.00000000  0.00000000  0.50000000  1
  Ca  Ca1  1  0.00000000  0.50000000  0.00000000  1
  Fe  Fe0  1  0.61106400  0.86106400  0.75000000  1
  Fe  Fe1  1  0.38893600  0.13893600  0.25000000  1
  Fe  Fe2  1  0.50000000  0.50000000  0.00000000  1
  Fe  Fe3  1  0.00000000  0.50000000  0.50000000  1
  O  O0  1  0.28108800  0.27161000  0.00947800  1
  O  O1  1  0.25979400  0.27511600  0.51532200  1
  O  O2  1  0.76213100  0.27161000  0.49052200  1
  O  O3  1  0.25979400  0.74447200  0.98467800  1
  O  O4  1  0.74020600  0.25552800  0.01532200  1
  O  O5  1  0.74020600  0.72488400  0.48467800  1
  O  O6  1  0.23786900  0.72839000  0.50947800  1
  O  O7  1  0.71891200  0.72839000  0.99052200  1
loop_
_geom_bond_atom_site_label_1
_geom_bond_atom_site_label_2
_geom_bond_distance
_geom_bond_site_symmetry_2
Ca0 O0 2.265647 1_556
Ca0 O7 2.265647 1_444
Ca0 O2 2.265651 1_455
Ca0 O6 2.265651 1_545
Ca0 O1 2.304335 1_555
Ca0 O5 2.304335 1_445
Ca1 O2 2.265647 1_454
Ca1 O6 2.265647 1_555
Ca1 O7 2.265647 1_454
Ca1 O0 2.265647 1_555
Ca1 O4 2.304335 1_455
Ca1 O3 2.304335 1_554
Fe0 O6 1.911551 1_555
Fe0 O7 1.911556 1_555
Fe0 O4 2.018020 1_566
Fe0 O5 2.018020 1_555
Fe1 O2 1.911551 1_555
Fe1 O0 1.911556 1_555
Fe1 O3 2.018020 1_544
Fe1 O1 2.018020 1_555
Fe2 O7 2.024899 1_554
Fe2 O0 2.024899 1_555
Fe2 O3 2.150110 1_554
Fe2 O4 2.150110 1_555
Fe2 O5 2.150110 1_555
Fe2 O1 2.150110 1_554
Fe3 O2 2.024904 1_455
Fe3 O6 2.024904 1_555
Fe3 O4 2.150110 1_455
Fe3 O5 2.150110 1_455
Fe3 O3 2.150110 1_555
Fe3 O1 2.150110 1_555
