# generated using pymatgen
data_HoCd6
_symmetry_space_group_name_H-M   'P 1'
_cell_length_a   13.63299171
_cell_length_b   13.63299171
_cell_length_c   13.63299171
_cell_angle_alpha   110.23388834
_cell_angle_beta   109.74804601
_cell_angle_gamma   108.43702589
_symmetry_Int_Tables_number   1
_chemical_formula_structural   HoCd6
_chemical_formula_sum   'Ho12 Cd72'
_cell_volume   1950.01413736
_cell_formula_units_Z   12
loop_
 _symmetry_equiv_pos_site_id
 _symmetry_equiv_pos_as_xyz
  1  'x, y, z'
loop_
 _atom_site_type_symbol
 _atom_site_label
 _atom_site_symmetry_multiplicity
 _atom_site_fract_x
 _atom_site_fract_y
 _atom_site_fract_z
 _atom_site_occupancy
  Ho  Ho0  1  0.80791500  0.50970300  0.70178800  1
  Ho  Ho1  1  0.19208500  0.49029700  0.29821200  1
  Ho  Ho2  1  0.19208500  0.89387300  0.70178800  1
  Ho  Ho3  1  0.80791500  0.10612700  0.29821200  1
  Ho  Ho4  1  0.10870200  0.30176900  0.80693300  1
  Ho  Ho5  1  0.89129800  0.69823100  0.19306700  1
  Ho  Ho6  1  0.49483600  0.30176900  0.19306700  1
  Ho  Ho7  1  0.50516400  0.69823100  0.80693300  1
  Ho  Ho8  1  0.30106900  0.18959600  0.49066500  1
  Ho  Ho9  1  0.69893100  0.81040400  0.50933500  1
  Ho  Ho10  1  0.30106900  0.81040400  0.11147300  1
  Ho  Ho11  1  0.69893100  0.18959600  0.88852700  1
  Cd  Cd0  1  0.58996900  0.58996900  0.00000000  1
  Cd  Cd1  1  0.41003100  0.41003100  0.00000000  1
  Cd  Cd2  1  0.59477100  0.00000000  0.59477100  1
  Cd  Cd3  1  0.40522900  0.00000000  0.40522900  1
  Cd  Cd4  1  0.00000000  0.40445800  0.40445800  1
  Cd  Cd5  1  0.00000000  0.59554200  0.59554200  1
  Cd  Cd6  1  0.59584900  0.24984300  0.65399300  1
  Cd  Cd7  1  0.40415100  0.75015700  0.34600700  1
  Cd  Cd8  1  0.40415100  0.05814400  0.65399300  1
  Cd  Cd9  1  0.59584900  0.94185600  0.34600700  1
  Cd  Cd10  1  0.94065000  0.34595300  0.59469600  1
  Cd  Cd11  1  0.05935000  0.65404700  0.40530400  1
  Cd  Cd12  1  0.75125700  0.34595300  0.40530400  1
  Cd  Cd13  1  0.24874300  0.65404700  0.59469600  1
  Cd  Cd14  1  0.34471700  0.40425800  0.74897500  1
  Cd  Cd15  1  0.65528300  0.59574200  0.25102500  1
  Cd  Cd16  1  0.34471700  0.59574200  0.94045900  1
  Cd  Cd17  1  0.65528300  0.40425800  0.05954100  1
  Cd  Cd18  1  0.50000000  0.31032100  0.81032100  1
  Cd  Cd19  1  0.50000000  0.68967900  0.18967900  1
  Cd  Cd20  1  0.69044500  0.19044500  0.50000000  1
  Cd  Cd21  1  0.30955500  0.80955500  0.50000000  1
  Cd  Cd22  1  0.18767600  0.50000000  0.68767600  1
  Cd  Cd23  1  0.81232400  0.50000000  0.31232400  1
  Cd  Cd24  1  0.00007200  0.67891900  0.00182300  1
  Cd  Cd25  1  0.32290500  0.32108100  0.32115300  1
  Cd  Cd26  1  0.99992800  0.00175100  0.67884700  1
  Cd  Cd27  1  0.67709500  0.99824900  0.99817700  1
  Cd  Cd28  1  0.99992800  0.32108100  0.99817700  1
  Cd  Cd29  1  0.67709500  0.67891900  0.67884700  1
  Cd  Cd30  1  0.00007200  0.99824900  0.32115300  1
  Cd  Cd31  1  0.32290500  0.00175100  0.00182300  1
  Cd  Cd32  1  0.77835700  0.45579100  0.91851000  1
  Cd  Cd33  1  0.46272000  0.54420900  0.32256600  1
  Cd  Cd34  1  0.22164300  0.14015400  0.67743400  1
  Cd  Cd35  1  0.53728000  0.85984600  0.08149000  1
  Cd  Cd36  1  0.86046700  0.08384200  0.54254900  1
  Cd  Cd37  1  0.13953300  0.68208200  0.22337500  1
  Cd  Cd38  1  0.54129300  0.31791800  0.45745100  1
  Cd  Cd39  1  0.45870700  0.91615800  0.77662500  1
  Cd  Cd40  1  0.31868900  0.45912200  0.54048000  1
  Cd  Cd41  1  0.91864100  0.77820900  0.45952000  1
  Cd  Cd42  1  0.08135900  0.54087800  0.85956800  1
  Cd  Cd43  1  0.68131100  0.22179100  0.14043200  1
  Cd  Cd44  1  0.22164300  0.54420900  0.08149000  1
  Cd  Cd45  1  0.53728000  0.45579100  0.67743400  1
  Cd  Cd46  1  0.77835700  0.85984600  0.32256600  1
  Cd  Cd47  1  0.46272000  0.14015400  0.91851000  1
  Cd  Cd48  1  0.13953300  0.91615800  0.45745100  1
  Cd  Cd49  1  0.86046700  0.31791800  0.77662500  1
  Cd  Cd50  1  0.45870700  0.68208200  0.54254900  1
  Cd  Cd51  1  0.54129300  0.08384200  0.22337500  1
  Cd  Cd52  1  0.68131100  0.54087800  0.45952000  1
  Cd  Cd53  1  0.08135900  0.22179100  0.54048000  1
  Cd  Cd54  1  0.91864100  0.45912200  0.14043200  1
  Cd  Cd55  1  0.31868900  0.77820900  0.85956800  1
  Cd  Cd56  1  0.91509600  0.82462100  0.90952500  1
  Cd  Cd57  1  0.08490400  0.17537900  0.09047500  1
  Cd  Cd58  1  0.08490400  0.99442900  0.90952500  1
  Cd  Cd59  1  0.91509600  0.00557100  0.09047500  1
  Cd  Cd60  1  0.74286500  0.64871400  0.90584900  1
  Cd  Cd61  1  0.25713500  0.35128600  0.09415100  1
  Cd  Cd62  1  0.25713500  0.16298400  0.90584900  1
  Cd  Cd63  1  0.74286500  0.83701600  0.09415100  1
  Cd  Cd64  1  0.85624600  0.09065200  0.76559400  1
  Cd  Cd65  1  0.14375400  0.90934800  0.23440600  1
  Cd  Cd66  1  0.32505800  0.09065200  0.23440600  1
  Cd  Cd67  1  0.67494200  0.90934800  0.76559400  1
  Cd  Cd68  1  0.09507100  0.24072000  0.33579200  1
  Cd  Cd69  1  0.90492900  0.75928000  0.66420800  1
  Cd  Cd70  1  0.09507100  0.75928000  0.85435100  1
  Cd  Cd71  1  0.90492900  0.24072000  0.14564900  1
loop_
_geom_bond_atom_site_label_1
_geom_bond_atom_site_label_2
_geom_bond_distance
_geom_bond_site_symmetry_2
Cd0 Cd63 2.845509 1_555
Cd0 Cd60 2.845509 1_554
Cd0 Cd1 2.868626 1_555
Cd0 Cd16 3.196998 1_554
Cd0 Cd17 3.196998 1_555
Cd0 Cd15 3.196998 1_555
Cd0 Cd14 3.196998 1_554
Cd0 Cd19 3.287187 1_555
Cd0 Cd18 3.287187 1_554
Cd0 Ho7 3.486109 1_554
Cd0 Ho5 3.486109 1_555
Cd1 Cd62 2.845509 1_554
Cd1 Cd61 2.845509 1_555
Cd1 Cd17 3.196998 1_555
Cd1 Cd15 3.196998 1_555
Cd1 Cd14 3.196998 1_554
Cd1 Cd16 3.196998 1_554
Cd1 Cd19 3.287187 1_555
Cd1 Cd18 3.287187 1_554
Cd1 Ho4 3.486109 1_554
Cd1 Ho6 3.486109 1_555
Cd2 Cd3 2.973572 1_555
Cd2 Cd64 3.044749 1_555
Cd2 Cd67 3.044749 1_545
Cd2 Cd8 3.211180 1_555
Cd2 Cd9 3.211180 1_545
Cd2 Cd7 3.211186 1_545
Cd2 Cd6 3.211193 1_555
Cd2 Ho11 3.378005 1_555
Cd2 Ho9 3.378005 1_545
Cd2 Cd20 3.380625 1_555
Cd2 Cd21 3.380625 1_545
Cd3 Cd65 3.044749 1_545
Cd3 Cd66 3.044749 1_555
Cd3 Cd8 3.211180 1_555
Cd3 Cd9 3.211180 1_545
Cd3 Cd6 3.211186 1_555
Cd3 Cd7 3.211193 1_545
Cd3 Ho8 3.378005 1_555
Cd3 Ho10 3.378005 1_545
Cd4 Cd68 2.956961 1_555
Cd4 Cd71 2.956963 1_455
Cd4 Cd5 2.979670 1_555
Cd4 Ho1 3.481717 1_555
Cd4 Ho3 3.481717 1_455
Cd5 Cd69 2.956961 1_455
Cd5 Cd70 2.956963 1_555
Cd5 Ho2 3.481717 1_555
Cd5 Ho0 3.481717 1_455
Cd6 Cd8 3.056115 1_555
Cd6 Ho0 3.461984 1_555
Cd6 Ho8 3.518942 1_555
Cd6 Ho11 3.518956 1_555
Cd7 Cd9 3.056115 1_555
Cd7 Ho1 3.461984 1_555
Cd7 Ho9 3.518942 1_555
Cd7 Ho10 3.518956 1_555
Cd8 Ho2 3.461994 1_545
Cd8 Ho11 3.518947 1_555
Cd8 Ho8 3.518947 1_555
Cd9 Ho3 3.461994 1_565
Cd9 Ho9 3.518947 1_555
Cd9 Ho10 3.518947 1_555
Cd10 Cd22 2.856392 1_655
Cd10 Cd20 2.890209 1_555
Cd10 Cd12 2.971227 1_555
Cd10 Cd53 3.039399 1_655
Cd10 Cd42 3.039408 1_655
Cd10 Cd36 3.117072 1_555
Cd10 Cd49 3.117081 1_555
Cd10 Cd4 3.233863 1_655
Cd10 Cd5 3.233870 1_655
Cd10 Ho4 3.403303 1_655
Cd10 Ho3 3.532101 1_555
Cd10 Ho0 3.532115 1_555
Cd11 Cd23 2.856392 1_455
Cd11 Cd21 2.890209 1_555
Cd11 Cd13 2.971227 1_555
Cd11 Cd41 3.039399 1_455
Cd11 Cd54 3.039408 1_455
Cd11 Cd48 3.117072 1_555
Cd11 Cd37 3.117081 1_555
Cd11 Cd5 3.233863 1_555
Cd11 Cd4 3.233870 1_555
Cd11 Ho5 3.403303 1_455
Cd11 Ho2 3.532101 1_555
Cd11 Ho1 3.532115 1_555
Cd12 Cd23 2.856403 1_555
Cd12 Cd20 2.890198 1_555
Cd12 Cd52 3.039399 1_555
Cd12 Cd43 3.039411 1_555
Cd12 Cd38 3.117073 1_555
Cd12 Cd51 3.117073 1_555
Cd12 Cd5 3.233869 1_655
Cd12 Cd4 3.233869 1_655
Cd12 Ho6 3.403309 1_555
Cd12 Ho3 3.532103 1_555
Cd12 Ho0 3.532103 1_555
Cd13 Cd22 2.856403 1_555
Cd13 Cd21 2.890198 1_555
Cd13 Cd40 3.039399 1_555
Cd13 Cd55 3.039411 1_555
Cd13 Cd50 3.117073 1_555
Cd13 Cd39 3.117073 1_555
Cd13 Cd4 3.233869 1_555
Cd13 Cd5 3.233869 1_555
Cd13 Ho7 3.403309 1_555
Cd13 Ho1 3.532103 1_555
Cd13 Ho2 3.532103 1_555
Cd14 Cd18 2.842586 1_555
Cd14 Cd22 2.880743 1_555
Cd14 Cd16 2.985907 1_555
Cd14 Cd34 3.061727 1_555
Cd14 Cd45 3.061727 1_555
Cd14 Cd53 3.117928 1_555
Cd14 Cd40 3.117936 1_555
Cd14 Ho8 3.416655 1_555
Cd14 Ho7 3.545068 1_555
Cd14 Ho4 3.545068 1_555
Cd15 Cd19 2.842586 1_555
Cd15 Cd23 2.880743 1_555
Cd15 Cd17 2.985907 1_555
Cd15 Cd33 3.061727 1_555
Cd15 Cd46 3.061727 1_555
Cd15 Cd41 3.117928 1_555
Cd15 Cd52 3.117936 1_555
Cd15 Ho9 3.416655 1_555
Cd15 Ho5 3.545068 1_555
Cd15 Ho6 3.545068 1_555
Cd16 Cd19 2.842586 1_556
Cd16 Cd22 2.880743 1_555
Cd16 Cd35 3.061726 1_556
Cd16 Cd44 3.061739 1_556
Cd16 Cd42 3.117925 1_555
Cd16 Cd55 3.117928 1_555
Cd16 Ho10 3.416655 1_556
Cd16 Ho7 3.545068 1_555
Cd16 Ho4 3.545068 1_555
Cd17 Cd18 2.842586 1_554
Cd17 Cd23 2.880743 1_555
Cd17 Cd47 3.061726 1_554
Cd17 Cd32 3.061739 1_554
Cd17 Cd54 3.117925 1_555
Cd17 Cd43 3.117928 1_555
Cd17 Ho11 3.416655 1_554
Cd17 Ho5 3.545068 1_555
Cd17 Ho6 3.545068 1_555
Cd18 Cd6 2.877034 1_555
Cd18 Cd8 2.877036 1_555
Cd18 Cd47 3.153287 1_555
Cd18 Cd45 3.153297 1_555
Cd18 Cd34 3.153297 1_555
Cd18 Cd32 3.153299 1_555
Cd18 Ho11 3.644684 1_555
Cd18 Ho8 3.644684 1_555
Cd19 Cd7 2.877034 1_555
Cd19 Cd9 2.877036 1_555
Cd19 Cd35 3.153287 1_555
Cd19 Cd33 3.153297 1_555
Cd19 Cd46 3.153297 1_555
Cd19 Cd44 3.153299 1_555
Cd19 Ho9 3.644684 1_555
Cd19 Ho10 3.644684 1_555
Cd20 Cd9 2.835577 1_545
Cd20 Cd6 2.835579 1_555
Cd20 Cd38 3.102675 1_555
Cd20 Cd51 3.102675 1_555
Cd20 Cd49 3.102675 1_555
Cd20 Cd36 3.102675 1_555
Cd20 Cd3 3.380625 1_555
Cd20 Ho3 3.661713 1_555
Cd20 Ho0 3.661713 1_555
Cd21 Cd8 2.835577 1_565
Cd21 Cd7 2.835579 1_555
Cd21 Cd48 3.102675 1_555
Cd21 Cd37 3.102675 1_555
Cd21 Cd50 3.102675 1_555
Cd21 Cd39 3.102675 1_555
Cd21 Cd3 3.380625 1_565
Cd21 Ho1 3.661713 1_555
Cd21 Ho2 3.661713 1_555
Cd22 Cd40 3.131421 1_555
Cd22 Cd42 3.131422 1_555
Cd22 Cd55 3.131422 1_555
Cd22 Cd53 3.131422 1_555
Cd22 Cd5 3.299772 1_555
Cd22 Cd4 3.299772 1_555
Cd22 Ho4 3.672547 1_555
Cd22 Ho7 3.672547 1_555
Cd23 Cd52 3.131421 1_555
Cd23 Cd54 3.131422 1_555
Cd23 Cd41 3.131422 1_555
Cd23 Cd43 3.131422 1_555
Cd23 Cd5 3.299772 1_655
Cd23 Cd4 3.299772 1_655
Cd23 Ho6 3.672547 1_555
Cd23 Ho5 3.672547 1_555
Cd24 Cd37 2.952451 1_555
Cd24 Cd42 2.962725 1_554
Cd24 Cd65 2.963127 1_555
Cd24 Cd56 3.011695 1_454
Cd24 Cd32 3.025545 1_454
Cd24 Cd70 3.050459 1_554
Cd24 Cd60 3.129004 1_454
Cd24 Ho0 3.365253 1_454
Cd24 Ho5 3.383912 1_455
Cd24 Ho10 3.411017 1_555
Cd25 Cd38 2.952440 1_555
Cd25 Cd40 2.962729 1_555
Cd25 Cd66 2.963120 1_555
Cd25 Cd57 3.011703 1_555
Cd25 Cd33 3.025545 1_555
Cd25 Cd68 3.050479 1_555
Cd25 Cd61 3.129004 1_555
Cd25 Ho1 3.365262 1_555
Cd25 Ho6 3.383899 1_555
Cd25 Ho8 3.411019 1_555
Cd26 Cd36 2.952451 1_555
Cd26 Cd41 2.962718 1_545
Cd26 Cd64 2.963127 1_555
Cd26 Cd58 3.011695 1_645
Cd26 Cd34 3.025549 1_655
Cd26 Cd69 3.050453 1_545
Cd26 Cd62 3.129004 1_655
Cd26 Ho2 3.365253 1_645
Cd26 Ho4 3.383912 1_655
Cd26 Ho9 3.411017 1_545
Cd27 Cd39 2.952443 1_555
Cd27 Cd43 2.962711 1_566
Cd27 Cd67 2.963133 1_555
Cd27 Cd59 3.011708 1_566
Cd27 Cd35 3.025553 1_556
Cd27 Cd71 3.050465 1_566
Cd27 Cd63 3.129009 1_556
Cd27 Ho3 3.365252 1_566
Cd27 Ho7 3.383911 1_555
Cd27 Ho11 3.411017 1_565
Cd28 Cd49 2.952451 1_555
Cd28 Cd54 2.962725 1_556
Cd28 Cd64 2.963127 1_555
Cd28 Cd57 3.011695 1_656
Cd28 Cd44 3.025545 1_656
Cd28 Cd71 3.050459 1_556
Cd28 Cd61 3.129004 1_656
Cd28 Ho1 3.365253 1_656
Cd28 Ho4 3.383912 1_655
Cd28 Ho11 3.411017 1_555
Cd29 Cd50 2.952440 1_555
Cd29 Cd52 2.962729 1_555
Cd29 Cd67 2.963120 1_555
Cd29 Cd56 3.011703 1_555
Cd29 Cd45 3.025545 1_555
Cd29 Cd69 3.050479 1_555
Cd29 Cd60 3.129004 1_555
Cd29 Ho0 3.365262 1_555
Cd29 Ho7 3.383899 1_555
Cd29 Ho9 3.411019 1_555
Cd30 Cd48 2.952451 1_555
Cd30 Cd53 2.962718 1_565
Cd30 Cd65 2.963127 1_555
Cd30 Cd59 3.011695 1_465
Cd30 Cd46 3.025549 1_455
Cd30 Cd68 3.050453 1_565
Cd30 Cd63 3.129004 1_455
Cd30 Ho3 3.365253 1_465
Cd30 Ho5 3.383912 1_455
Cd30 Ho8 3.411017 1_565
Cd31 Cd51 2.952443 1_555
Cd31 Cd55 2.962711 1_544
Cd31 Cd66 2.963133 1_555
Cd31 Cd58 3.011708 1_544
Cd31 Cd47 3.025553 1_554
Cd31 Cd70 3.050465 1_544
Cd31 Cd62 3.129009 1_554
Cd31 Ho2 3.365252 1_544
Cd31 Ho6 3.383911 1_555
Cd31 Ho10 3.411017 1_545
Cd32 Cd60 2.871232 1_555
Cd32 Cd54 2.958549 1_556
Cd32 Cd49 2.967631 1_555
Cd32 Cd6 3.097196 1_555
Cd32 Ho11 3.270892 1_555
Cd32 Ho0 3.398729 1_555
Cd32 Ho5 3.410912 1_556
Cd33 Cd61 2.871237 1_555
Cd33 Cd52 2.958553 1_555
Cd33 Cd50 2.967638 1_555
Cd33 Cd7 3.097195 1_555
Cd33 Ho9 3.270887 1_555
Cd33 Ho1 3.398743 1_555
Cd33 Ho6 3.410903 1_555
Cd34 Cd62 2.871237 1_555
Cd34 Cd53 2.958546 1_555
Cd34 Cd48 2.967638 1_545
Cd34 Cd8 3.097208 1_555
Cd34 Ho8 3.270887 1_555
Cd34 Ho2 3.398743 1_545
Cd34 Ho4 3.410903 1_555
Cd35 Cd63 2.871240 1_555
Cd35 Cd55 2.958553 1_554
Cd35 Cd51 2.967634 1_565
Cd35 Cd9 3.097195 1_555
Cd35 Ho10 3.270880 1_555
Cd35 Ho3 3.398741 1_565
Cd35 Ho7 3.410915 1_554
Cd36 Cd46 2.967638 1_545
Cd36 Cd53 3.019625 1_655
Cd36 Cd64 3.030605 1_555
Cd36 Cd9 3.066591 1_545
Cd36 Ho3 3.305513 1_555
Cd36 Ho4 3.355766 1_655
Cd36 Ho9 3.452109 1_545
Cd37 Cd44 2.967631 1_555
Cd37 Cd54 3.019618 1_455
Cd37 Cd65 3.030605 1_555
Cd37 Cd7 3.066595 1_555
Cd37 Ho1 3.305513 1_555
Cd37 Ho5 3.355766 1_455
Cd37 Ho10 3.452109 1_555
Cd38 Cd45 2.967638 1_555
Cd38 Cd52 3.019614 1_555
Cd38 Cd66 3.030605 1_555
Cd38 Cd6 3.066582 1_555
Cd38 Ho0 3.305513 1_555
Cd38 Ho6 3.355766 1_555
Cd38 Ho8 3.452109 1_555
Cd39 Cd47 2.967634 1_565
Cd39 Cd55 3.019625 1_555
Cd39 Cd67 3.030605 1_555
Cd39 Cd8 3.066591 1_565
Cd39 Ho2 3.305513 1_555
Cd39 Ho7 3.355766 1_555
Cd39 Ho11 3.452109 1_565
Cd40 Cd68 2.951047 1_555
Cd40 Cd45 2.958553 1_555
Cd40 Cd50 3.019614 1_555
Cd40 Ho7 3.257515 1_555
Cd40 Ho8 3.409667 1_555
Cd40 Ho1 3.413363 1_555
Cd41 Cd69 2.951032 1_555
Cd41 Cd46 2.958546 1_555
Cd41 Cd48 3.019625 1_655
Cd41 Ho5 3.257520 1_555
Cd41 Ho9 3.409654 1_555
Cd41 Ho2 3.413371 1_655
Cd42 Cd70 2.951060 1_555
Cd42 Cd44 2.958549 1_556
Cd42 Cd49 3.019618 1_455
Cd42 Ho4 3.257507 1_555
Cd42 Ho10 3.409660 1_556
Cd42 Ho0 3.413377 1_455
Cd43 Cd71 2.951046 1_555
Cd43 Cd47 2.958553 1_554
Cd43 Cd51 3.019625 1_555
Cd43 Ho6 3.257520 1_555
Cd43 Ho11 3.409654 1_554
Cd43 Ho3 3.413371 1_555
Cd44 Cd61 2.871232 1_555
Cd44 Cd7 3.097196 1_555
Cd44 Ho10 3.270892 1_555
Cd44 Ho1 3.398729 1_555
Cd44 Ho4 3.410912 1_554
Cd45 Cd60 2.871237 1_555
Cd45 Cd6 3.097195 1_555
Cd45 Ho8 3.270887 1_555
Cd45 Ho0 3.398743 1_555
Cd45 Ho7 3.410903 1_555
Cd46 Cd63 2.871237 1_555
Cd46 Cd9 3.097208 1_555
Cd46 Ho9 3.270887 1_555
Cd46 Ho3 3.398743 1_565
Cd46 Ho5 3.410903 1_555
Cd47 Cd62 2.871240 1_555
Cd47 Cd8 3.097195 1_555
Cd47 Ho11 3.270880 1_555
Cd47 Ho2 3.398741 1_545
Cd47 Ho6 3.410915 1_556
Cd48 Cd65 3.030605 1_555
Cd48 Cd8 3.066591 1_565
Cd48 Ho2 3.305513 1_555
Cd48 Ho5 3.355766 1_455
Cd48 Ho8 3.452109 1_565
Cd49 Cd64 3.030605 1_555
Cd49 Cd6 3.066595 1_555
Cd49 Ho0 3.305513 1_555
Cd49 Ho4 3.355766 1_655
Cd49 Ho11 3.452109 1_555
Cd50 Cd67 3.030605 1_555
Cd50 Cd7 3.066582 1_555
Cd50 Ho1 3.305513 1_555
Cd50 Ho7 3.355766 1_555
Cd50 Ho9 3.452109 1_555
Cd51 Cd66 3.030605 1_555
Cd51 Cd9 3.066591 1_545
Cd51 Ho3 3.305513 1_555
Cd51 Ho6 3.355766 1_555
Cd51 Ho10 3.452109 1_545
Cd52 Cd69 2.951047 1_555
Cd52 Ho6 3.257515 1_555
Cd52 Ho9 3.409667 1_555
Cd52 Ho0 3.413363 1_555
Cd53 Cd68 2.951032 1_555
Cd53 Ho4 3.257520 1_555
Cd53 Ho8 3.409654 1_555
Cd53 Ho3 3.413371 1_455
Cd54 Cd71 2.951060 1_555
Cd54 Ho5 3.257507 1_555
Cd54 Ho11 3.409660 1_554
Cd54 Ho1 3.413377 1_655
Cd55 Cd70 2.951046 1_555
Cd55 Ho7 3.257520 1_555
Cd55 Ho10 3.409654 1_556
Cd55 Ho2 3.413371 1_555
Cd56 Cd58 2.707130 1_655
Cd56 Cd60 2.746357 1_555
Cd56 Cd59 2.821645 1_566
Cd56 Cd70 3.089598 1_655
Cd56 Cd69 3.089611 1_555
Cd56 Ho0 3.662386 1_555
Cd57 Cd59 2.707130 1_455
Cd57 Cd61 2.746357 1_555
Cd57 Cd58 2.821645 1_544
Cd57 Cd71 3.089598 1_455
Cd57 Cd68 3.089611 1_555
Cd57 Ho1 3.662386 1_555
Cd58 Cd62 2.746357 1_565
Cd58 Cd70 3.089598 1_555
Cd58 Cd69 3.089604 1_455
Cd58 Ho2 3.662386 1_555
Cd59 Cd63 2.746357 1_545
Cd59 Cd71 3.089598 1_555
Cd59 Cd68 3.089604 1_655
Cd59 Ho3 3.662386 1_555
Cd60 Cd63 2.936288 1_556
Cd60 Ho0 3.346753 1_555
Cd60 Ho7 3.440327 1_555
Cd60 Ho5 3.440327 1_556
Cd61 Cd62 2.936288 1_554
Cd61 Ho1 3.346753 1_555
Cd61 Ho4 3.440327 1_554
Cd61 Ho6 3.440327 1_555
Cd62 Ho2 3.346753 1_545
Cd62 Ho4 3.440327 1_555
Cd62 Ho6 3.440327 1_556
Cd63 Ho3 3.346753 1_565
Cd63 Ho7 3.440327 1_554
Cd63 Ho5 3.440327 1_555
Cd64 Cd67 2.890403 1_545
Cd64 Ho4 3.427604 1_655
Cd64 Ho11 3.452976 1_555
Cd64 Ho9 3.452976 1_545
Cd65 Cd66 2.890403 1_565
Cd65 Ho5 3.427604 1_455
Cd65 Ho8 3.452976 1_565
Cd65 Ho10 3.452976 1_555
Cd66 Ho6 3.427604 1_555
Cd66 Ho8 3.452976 1_555
Cd66 Ho10 3.452976 1_545
Cd67 Ho7 3.427604 1_555
Cd67 Ho11 3.452976 1_565
Cd67 Ho9 3.452976 1_555
Cd68 Cd71 2.982993 1_455
Cd68 Ho8 3.328606 1_555
Cd68 Ho3 3.522182 1_455
Cd68 Ho1 3.522196 1_555
Cd69 Cd70 2.982993 1_655
Cd69 Ho9 3.328606 1_555
Cd69 Ho2 3.522182 1_655
Cd69 Ho0 3.522196 1_555
Cd70 Ho10 3.328612 1_556
Cd70 Ho2 3.522187 1_555
Cd70 Ho0 3.522187 1_455
Cd71 Ho11 3.328612 1_554
Cd71 Ho1 3.522187 1_655
Cd71 Ho3 3.522187 1_555
