# generated using pymatgen
data_Yb2Nd3(GaO4)3
_symmetry_space_group_name_H-M   'P 1'
_cell_length_a   11.29082179
_cell_length_b   11.29082179
_cell_length_c   11.29082179
_cell_angle_alpha   109.47122063
_cell_angle_beta   109.47122063
_cell_angle_gamma   109.47122063
_symmetry_Int_Tables_number   1
_chemical_formula_structural   Yb2Nd3(GaO4)3
_chemical_formula_sum   'Yb8 Nd12 Ga12 O48'
_cell_volume   1108.03828761
_cell_formula_units_Z   4
loop_
 _symmetry_equiv_pos_site_id
 _symmetry_equiv_pos_as_xyz
  1  'x, y, z'
loop_
 _atom_site_type_symbol
 _atom_site_label
 _atom_site_symmetry_multiplicity
 _atom_site_fract_x
 _atom_site_fract_y
 _atom_site_fract_z
 _atom_site_occupancy
  Yb  Yb0  1  0.00000000  0.00000000  0.00000000  1
  Yb  Yb1  1  0.50000000  0.00000000  0.50000000  1
  Yb  Yb2  1  0.00000000  0.50000000  0.50000000  1
  Yb  Yb3  1  0.50000000  0.00000000  0.00000000  1
  Yb  Yb4  1  0.50000000  0.50000000  0.00000000  1
  Yb  Yb5  1  0.50000000  0.50000000  0.50000000  1
  Yb  Yb6  1  0.00000000  0.00000000  0.50000000  1
  Yb  Yb7  1  0.00000000  0.50000000  0.00000000  1
  Nd  Nd0  1  0.25000000  0.37500000  0.12500000  1
  Nd  Nd1  1  0.75000000  0.62500000  0.87500000  1
  Nd  Nd2  1  0.75000000  0.12500000  0.37500000  1
  Nd  Nd3  1  0.12500000  0.25000000  0.37500000  1
  Nd  Nd4  1  0.37500000  0.75000000  0.12500000  1
  Nd  Nd5  1  0.25000000  0.87500000  0.62500000  1
  Nd  Nd6  1  0.87500000  0.75000000  0.62500000  1
  Nd  Nd7  1  0.62500000  0.25000000  0.87500000  1
  Nd  Nd8  1  0.37500000  0.12500000  0.25000000  1
  Nd  Nd9  1  0.62500000  0.87500000  0.75000000  1
  Nd  Nd10  1  0.12500000  0.37500000  0.75000000  1
  Nd  Nd11  1  0.87500000  0.62500000  0.25000000  1
  Ga  Ga0  1  0.25000000  0.62500000  0.37500000  1
  Ga  Ga1  1  0.75000000  0.37500000  0.62500000  1
  Ga  Ga2  1  0.75000000  0.87500000  0.12500000  1
  Ga  Ga3  1  0.37500000  0.25000000  0.62500000  1
  Ga  Ga4  1  0.62500000  0.75000000  0.37500000  1
  Ga  Ga5  1  0.25000000  0.12500000  0.87500000  1
  Ga  Ga6  1  0.12500000  0.75000000  0.87500000  1
  Ga  Ga7  1  0.87500000  0.25000000  0.12500000  1
  Ga  Ga8  1  0.62500000  0.37500000  0.25000000  1
  Ga  Ga9  1  0.37500000  0.62500000  0.75000000  1
  Ga  Ga10  1  0.87500000  0.12500000  0.75000000  1
  Ga  Ga11  1  0.12500000  0.87500000  0.25000000  1
  O  O0  1  0.46832700  0.37017500  0.27728100  1
  O  O1  1  0.53167300  0.62982500  0.72271900  1
  O  O2  1  0.59289400  0.19104600  0.22271900  1
  O  O3  1  0.90710600  0.12982500  0.59815200  1
  O  O4  1  0.27728100  0.46832700  0.37017500  1
  O  O5  1  0.30895400  0.90710600  0.27728100  1
  O  O6  1  0.40710600  0.80895400  0.77728100  1
  O  O7  1  0.09289400  0.87017500  0.40184800  1
  O  O8  1  0.72271900  0.53167300  0.62982500  1
  O  O9  1  0.69104600  0.09289400  0.72271900  1
  O  O10  1  0.03167300  0.30895400  0.90184800  1
  O  O11  1  0.22271900  0.59289400  0.19104600  1
  O  O12  1  0.12982500  0.03167300  0.22271900  1
  O  O13  1  0.96832700  0.69104600  0.09815200  1
  O  O14  1  0.77728100  0.40710600  0.80895400  1
  O  O15  1  0.87017500  0.96832700  0.77728100  1
  O  O16  1  0.59815200  0.90710600  0.12982500  1
  O  O17  1  0.19104600  0.46832700  0.59815200  1
  O  O18  1  0.40184800  0.09289400  0.87017500  1
  O  O19  1  0.80895400  0.53167300  0.40184800  1
  O  O20  1  0.90184800  0.03167300  0.30895400  1
  O  O21  1  0.37017500  0.59289400  0.90184800  1
  O  O22  1  0.09815200  0.96832700  0.69104600  1
  O  O23  1  0.62982500  0.40710600  0.09815200  1
  O  O24  1  0.37017500  0.27728100  0.46832700  1
  O  O25  1  0.59289400  0.90184800  0.37017500  1
  O  O26  1  0.62982500  0.72271900  0.53167300  1
  O  O27  1  0.40710600  0.09815200  0.62982500  1
  O  O28  1  0.12982500  0.59815200  0.90710600  1
  O  O29  1  0.03167300  0.22271900  0.12982500  1
  O  O30  1  0.87017500  0.40184800  0.09289400  1
  O  O31  1  0.96832700  0.77728100  0.87017500  1
  O  O32  1  0.30895400  0.90184800  0.03167300  1
  O  O33  1  0.90710600  0.27728100  0.30895400  1
  O  O34  1  0.69104600  0.09815200  0.96832700  1
  O  O35  1  0.09289400  0.72271900  0.69104600  1
  O  O36  1  0.19104600  0.22271900  0.59289400  1
  O  O37  1  0.46832700  0.59815200  0.19104600  1
  O  O38  1  0.80895400  0.77728100  0.40710600  1
  O  O39  1  0.53167300  0.40184800  0.80895400  1
  O  O40  1  0.27728100  0.30895400  0.90710600  1
  O  O41  1  0.72271900  0.69104600  0.09289400  1
  O  O42  1  0.22271900  0.12982500  0.03167300  1
  O  O43  1  0.77728100  0.87017500  0.96832700  1
  O  O44  1  0.90184800  0.37017500  0.59289400  1
  O  O45  1  0.09815200  0.62982500  0.40710600  1
  O  O46  1  0.59815200  0.19104600  0.46832700  1
  O  O47  1  0.40184800  0.80895400  0.53167300  1
loop_
_geom_bond_atom_site_label_1
_geom_bond_atom_site_label_2
_geom_bond_distance
_geom_bond_site_symmetry_2
Nd0 O4 2.477666 1_555
Nd0 O42 2.477666 1_555
Nd0 O11 2.477666 1_555
Nd0 O40 2.477666 1_554
Nd0 O29 2.522352 1_555
Nd0 O0 2.522352 1_555
Nd0 O10 2.522352 1_554
Nd0 O37 2.522352 1_555
Nd1 O14 2.477666 1_555
Nd1 O8 2.477666 1_555
Nd1 O43 2.477666 1_555
Nd1 O41 2.477666 1_556
Nd1 O31 2.522352 1_555
Nd1 O1 2.522352 1_555
Nd1 O13 2.522352 1_556
Nd1 O39 2.522352 1_555
Nd2 O46 2.477666 1_555
Nd2 O20 2.477666 1_555
Nd2 O44 2.477666 1_555
Nd2 O16 2.477666 1_545
Nd2 O33 2.522352 1_555
Nd2 O2 2.522352 1_555
Nd2 O3 2.522352 1_555
Nd2 O25 2.522352 1_545
Nd3 O24 2.477666 1_555
Nd3 O33 2.477666 1_455
Nd3 O29 2.477666 1_555
Nd3 O36 2.477666 1_555
Nd3 O4 2.522352 1_555
Nd3 O12 2.522352 1_555
Nd3 O17 2.522352 1_555
Nd3 O20 2.522352 1_455
Nd4 O37 2.477666 1_555
Nd4 O32 2.477666 1_555
Nd4 O25 2.477666 1_555
Nd4 O28 2.477666 1_554
Nd4 O11 2.522352 1_555
Nd4 O5 2.522352 1_555
Nd4 O16 2.522352 1_555
Nd4 O21 2.522352 1_554
Nd5 O18 2.477666 1_565
Nd5 O22 2.477666 1_555
Nd5 O47 2.477666 1_555
Nd5 O45 2.477666 1_555
Nd5 O35 2.522352 1_555
Nd5 O7 2.522352 1_555
Nd5 O6 2.522352 1_555
Nd5 O27 2.522352 1_565
Nd6 O38 2.477666 1_555
Nd6 O26 2.477666 1_555
Nd6 O35 2.477666 1_655
Nd6 O31 2.477666 1_555
Nd6 O8 2.522352 1_555
Nd6 O15 2.522352 1_555
Nd6 O19 2.522352 1_555
Nd6 O22 2.522352 1_655
Nd7 O27 2.477666 1_555
Nd7 O39 2.477666 1_555
Nd7 O30 2.477666 1_556
Nd7 O34 2.477666 1_555
Nd7 O23 2.522352 1_556
Nd7 O9 2.522352 1_555
Nd7 O14 2.522352 1_555
Nd7 O18 2.522352 1_555
Nd8 O0 2.477666 1_555
Nd8 O12 2.477666 1_555
Nd8 O2 2.477666 1_555
Nd8 O5 2.477666 1_545
Nd8 O46 2.522352 1_555
Nd8 O32 2.522352 1_545
Nd8 O24 2.522352 1_555
Nd8 O42 2.522352 1_555
Nd9 O6 2.477666 1_555
Nd9 O15 2.477666 1_555
Nd9 O9 2.477666 1_565
Nd9 O1 2.477666 1_555
Nd9 O26 2.522352 1_555
Nd9 O43 2.522352 1_555
Nd9 O47 2.522352 1_555
Nd9 O34 2.522352 1_565
Nd10 O17 2.477666 1_555
Nd10 O10 2.477666 1_555
Nd10 O21 2.477666 1_555
Nd10 O3 2.477666 1_455
Nd10 O40 2.522352 1_555
Nd10 O44 2.522352 1_455
Nd10 O28 2.522352 1_555
Nd10 O36 2.522352 1_555
Nd11 O23 2.477666 1_555
Nd11 O19 2.477666 1_555
Nd11 O7 2.477666 1_655
Nd11 O13 2.477666 1_555
Nd11 O41 2.522352 1_555
Nd11 O30 2.522352 1_555
Nd11 O45 2.522352 1_655
Nd11 O38 2.522352 1_555
Ga0 O47 1.880768 1_555
Ga0 O4 1.880768 1_555
Ga0 O45 1.880768 1_555
Ga0 O11 1.880768 1_555
Ga1 O8 1.880768 1_555
Ga1 O14 1.880768 1_555
Ga1 O44 1.880768 1_555
Ga1 O46 1.880768 1_555
Ga2 O16 1.880768 1_555
Ga2 O41 1.880768 1_555
Ga2 O43 1.880768 1_554
Ga2 O20 1.880768 1_565
Ga3 O39 1.880768 1_555
Ga3 O27 1.880768 1_555
Ga3 O24 1.880768 1_555
Ga3 O36 1.880768 1_555
Ga4 O38 1.880768 1_555
Ga4 O25 1.880768 1_555
Ga4 O26 1.880768 1_555
Ga4 O37 1.880768 1_555
Ga5 O22 1.880768 1_545
Ga5 O18 1.880768 1_555
Ga5 O40 1.880768 1_555
Ga5 O42 1.880768 1_556
Ga6 O35 1.880768 1_555
Ga6 O31 1.880768 1_455
Ga6 O28 1.880768 1_555
Ga6 O32 1.880768 1_556
Ga7 O34 1.880768 1_554
Ga7 O30 1.880768 1_555
Ga7 O33 1.880768 1_555
Ga7 O29 1.880768 1_655
Ga8 O19 1.880768 1_555
Ga8 O23 1.880768 1_555
Ga8 O0 1.880768 1_555
Ga8 O2 1.880768 1_555
Ga9 O6 1.880768 1_555
Ga9 O21 1.880768 1_555
Ga9 O1 1.880768 1_555
Ga9 O17 1.880768 1_555
Ga10 O9 1.880768 1_555
Ga10 O15 1.880768 1_545
Ga10 O3 1.880768 1_555
Ga10 O10 1.880768 1_655
Ga11 O7 1.880768 1_555
Ga11 O13 1.880768 1_455
Ga11 O5 1.880768 1_555
Ga11 O12 1.880768 1_565
O0 Yb5 2.278986 1_555
O1 Yb5 2.278986 1_555
O2 Yb3 2.278986 1_555
O3 Yb6 2.278986 1_655
O4 Yb5 2.278986 1_555
O5 Yb1 2.278986 1_565
O6 Yb3 2.278986 1_566
O7 Yb6 2.278986 1_565
O8 Yb5 2.278986 1_555
O9 Yb1 2.278986 1_555
O10 Yb7 2.278986 1_556
O11 Yb7 2.278986 1_555
O12 Yb0 2.278986 1_555
O13 Yb7 2.278986 1_655
O14 Yb7 2.278986 1_656
O15 Yb0 2.278986 1_666
O16 Yb3 2.278986 1_565
O17 Yb2 2.278986 1_555
O18 Yb3 2.278986 1_556
O19 Yb2 2.278986 1_655
O20 Yb6 2.278986 1_655
O21 Yb4 2.278986 1_556
O22 Yb6 2.278986 1_565
O23 Yb4 2.278986 1_555
O24 Yb5 2.278986 1_555
O25 Yb1 2.278986 1_565
O26 Yb5 2.278986 1_555
O27 Yb1 2.278986 1_555
O28 Yb7 2.278986 1_556
O29 Yb0 2.278986 1_555
O30 Yb7 2.278986 1_655
O31 Yb0 2.278986 1_666
O32 Yb3 2.278986 1_565
O33 Yb2 2.278986 1_655
O34 Yb3 2.278986 1_556
O35 Yb2 2.278986 1_555
O36 Yb6 2.278986 1_555
O37 Yb4 2.278986 1_555
O38 Yb6 2.278986 1_665
O39 Yb4 2.278986 1_556
O40 Yb4 2.278986 1_556
O41 Yb4 2.278986 1_555
O42 Yb0 2.278986 1_555
O43 Yb0 2.278986 1_666
O44 Yb2 2.278986 1_655
O45 Yb2 2.278986 1_555
O46 Yb1 2.278986 1_555
O47 Yb1 2.278986 1_565
