# generated using pymatgen
data_Mg2Ti
_symmetry_space_group_name_H-M   'P 1'
_cell_length_a   12.04362494
_cell_length_b   12.04362494
_cell_length_c   14.89626823
_cell_angle_alpha   75.23922172
_cell_angle_beta   75.23922172
_cell_angle_gamma   28.42559568
_symmetry_Int_Tables_number   1
_chemical_formula_structural   Mg2Ti
_chemical_formula_sum   'Mg32 Ti16'
_cell_volume   992.36379559
_cell_formula_units_Z   16
loop_
 _symmetry_equiv_pos_site_id
 _symmetry_equiv_pos_as_xyz
  1  'x, y, z'
loop_
 _atom_site_type_symbol
 _atom_site_label
 _atom_site_symmetry_multiplicity
 _atom_site_fract_x
 _atom_site_fract_y
 _atom_site_fract_z
 _atom_site_occupancy
  Mg  Mg0_0  1  0.00177050  0.00177050  0.49913900  1
  Mg  Mg0_1  1  0.00177050  0.00177050  0.99913900  1
  Mg  Mg0_2  1  0.00177050  0.50177050  0.49913900  1
  Mg  Mg0_3  1  0.00177050  0.50177050  0.99913900  1
  Mg  Mg0_4  1  0.50177050  0.00177050  0.49913900  1
  Mg  Mg0_5  1  0.50177050  0.00177050  0.99913900  1
  Mg  Mg0_6  1  0.50177050  0.50177050  0.49913900  1
  Mg  Mg0_7  1  0.50177050  0.50177050  0.99913900  1
  Mg  Mg1_0  1  0.16659750  0.16659750  0.16625000  1
  Mg  Mg1_1  1  0.16659750  0.16659750  0.66625000  1
  Mg  Mg1_2  1  0.16659750  0.66659750  0.16625000  1
  Mg  Mg1_3  1  0.16659750  0.66659750  0.66625000  1
  Mg  Mg1_4  1  0.66659750  0.16659750  0.16625000  1
  Mg  Mg1_5  1  0.66659750  0.16659750  0.66625000  1
  Mg  Mg1_6  1  0.66659750  0.66659750  0.16625000  1
  Mg  Mg1_7  1  0.66659750  0.66659750  0.66625000  1
  Mg  Mg2_0  1  0.33464250  0.33464250  0.32908250  1
  Mg  Mg2_1  1  0.33464250  0.33464250  0.82908250  1
  Mg  Mg2_2  1  0.33464250  0.83464250  0.32908250  1
  Mg  Mg2_3  1  0.33464250  0.83464250  0.82908250  1
  Mg  Mg2_4  1  0.83464250  0.33464250  0.32908250  1
  Mg  Mg2_5  1  0.83464250  0.33464250  0.82908250  1
  Mg  Mg2_6  1  0.83464250  0.83464250  0.32908250  1
  Mg  Mg2_7  1  0.83464250  0.83464250  0.82908250  1
  Mg  Mg3_0  1  0.13793500  0.13793500  0.47440750  1
  Mg  Mg3_1  1  0.13793500  0.13793500  0.97440750  1
  Mg  Mg3_2  1  0.13793500  0.63793500  0.47440750  1
  Mg  Mg3_3  1  0.13793500  0.63793500  0.97440750  1
  Mg  Mg3_4  1  0.63793500  0.13793500  0.47440750  1
  Mg  Mg3_5  1  0.63793500  0.13793500  0.97440750  1
  Mg  Mg3_6  1  0.63793500  0.63793500  0.47440750  1
  Mg  Mg3_7  1  0.63793500  0.63793500  0.97440750  1
  Ti  Ti0_0  1  0.29825350  0.29825350  0.15311200  1
  Ti  Ti0_1  1  0.29825350  0.29825350  0.65311200  1
  Ti  Ti0_2  1  0.29825350  0.79825350  0.15311200  1
  Ti  Ti0_3  1  0.29825350  0.79825350  0.65311200  1
  Ti  Ti0_4  1  0.79825350  0.29825350  0.15311200  1
  Ti  Ti0_5  1  0.79825350  0.29825350  0.65311200  1
  Ti  Ti0_6  1  0.79825350  0.79825350  0.15311200  1
  Ti  Ti0_7  1  0.79825350  0.79825350  0.65311200  1
  Ti  Ti1_0  1  0.47746800  0.47746800  0.29467600  1
  Ti  Ti1_1  1  0.47746800  0.47746800  0.79467600  1
  Ti  Ti1_2  1  0.47746800  0.97746800  0.29467600  1
  Ti  Ti1_3  1  0.47746800  0.97746800  0.79467600  1
  Ti  Ti1_4  1  0.97746800  0.47746800  0.29467600  1
  Ti  Ti1_5  1  0.97746800  0.47746800  0.79467600  1
  Ti  Ti1_6  1  0.97746800  0.97746800  0.29467600  1
  Ti  Ti1_7  1  0.97746800  0.97746800  0.79467600  1
loop_
_geom_bond_atom_site_label_1
_geom_bond_atom_site_label_2
_geom_bond_distance
_geom_bond_site_symmetry_2
Mg0_0 Mg0_6 2.956998 1_455
Mg0_0 Mg0_6 2.956998 1_545
Mg0_0 Mg3_0 3.103033 1_555
Mg0_0 Mg1_3 3.120191 1_545
Mg0_0 Mg1_5 3.120191 1_455
Mg0_0 Mg2_2 3.125831 1_545
Mg0_0 Mg2_4 3.125831 1_455
Mg0_0 Mg3_4 3.146693 1_455
Mg0_0 Mg3_2 3.146693 1_545
Mg0_0 Ti0_3 3.151714 1_545
Mg0_0 Ti0_5 3.151714 1_455
Mg0_0 Ti1_6 3.241456 1_445
Mg0_1 Mg0_7 2.956998 1_455
Mg0_1 Mg0_7 2.956998 1_545
Mg0_1 Mg3_1 3.103033 1_555
Mg0_1 Mg1_4 3.120191 1_456
Mg0_1 Mg1_2 3.120191 1_546
Mg0_1 Mg2_3 3.125831 1_545
Mg0_1 Mg2_5 3.125831 1_455
Mg0_1 Mg3_5 3.146693 1_455
Mg0_1 Mg3_3 3.146693 1_545
Mg0_1 Ti0_2 3.151714 1_546
Mg0_1 Ti0_4 3.151714 1_456
Mg0_1 Ti1_7 3.241456 1_445
Mg0_2 Mg0_4 2.956998 1_555
Mg0_2 Mg0_4 2.956998 1_465
Mg0_2 Mg3_2 3.103033 1_555
Mg0_2 Mg1_1 3.120191 1_555
Mg0_2 Mg1_7 3.120191 1_455
Mg0_2 Mg2_6 3.125831 1_455
Mg0_2 Mg2_0 3.125831 1_555
Mg0_2 Mg3_0 3.146693 1_555
Mg0_2 Mg3_6 3.146693 1_455
Mg0_2 Ti0_7 3.151714 1_455
Mg0_2 Ti0_1 3.151714 1_555
Mg0_2 Ti1_4 3.241456 1_455
Mg0_3 Mg0_5 2.956998 1_555
Mg0_3 Mg0_5 2.956998 1_465
Mg0_3 Mg3_3 3.103033 1_555
Mg0_3 Mg1_0 3.120191 1_556
Mg0_3 Mg1_6 3.120191 1_456
Mg0_3 Mg2_7 3.125831 1_455
Mg0_3 Mg2_1 3.125831 1_555
Mg0_3 Mg3_1 3.146693 1_555
Mg0_3 Mg3_7 3.146693 1_455
Mg0_3 Ti0_6 3.151714 1_456
Mg0_3 Ti0_0 3.151714 1_556
Mg0_3 Ti1_5 3.241456 1_455
Mg0_4 Mg3_4 3.103033 1_555
Mg0_4 Mg1_1 3.120191 1_555
Mg0_4 Mg1_7 3.120191 1_545
Mg0_4 Mg2_6 3.125831 1_545
Mg0_4 Mg2_0 3.125831 1_555
Mg0_4 Mg3_0 3.146693 1_555
Mg0_4 Mg3_6 3.146693 1_545
Mg0_4 Ti0_7 3.151714 1_545
Mg0_4 Ti0_1 3.151714 1_555
Mg0_4 Ti1_2 3.241456 1_545
Mg0_5 Mg3_5 3.103033 1_555
Mg0_5 Mg1_0 3.120191 1_556
Mg0_5 Mg1_6 3.120191 1_546
Mg0_5 Mg2_7 3.125831 1_545
Mg0_5 Mg2_1 3.125831 1_555
Mg0_5 Mg3_1 3.146693 1_555
Mg0_5 Mg3_7 3.146693 1_545
Mg0_5 Ti0_0 3.151714 1_556
Mg0_5 Ti0_6 3.151714 1_546
Mg0_5 Ti1_3 3.241456 1_545
Mg0_6 Mg3_6 3.103033 1_555
Mg0_6 Mg1_5 3.120191 1_555
Mg0_6 Mg1_3 3.120191 1_555
Mg0_6 Mg2_2 3.125831 1_555
Mg0_6 Mg2_4 3.125831 1_555
Mg0_6 Mg3_2 3.146693 1_555
Mg0_6 Mg3_4 3.146693 1_555
Mg0_6 Ti0_5 3.151714 1_555
Mg0_6 Ti0_3 3.151714 1_555
Mg0_6 Ti1_0 3.241456 1_555
Mg0_7 Mg3_7 3.103033 1_555
Mg0_7 Mg1_4 3.120191 1_556
Mg0_7 Mg1_2 3.120191 1_556
Mg0_7 Mg2_5 3.125831 1_555
Mg0_7 Mg2_3 3.125831 1_555
Mg0_7 Mg3_3 3.146693 1_555
Mg0_7 Mg3_5 3.146693 1_555
Mg0_7 Ti0_2 3.151714 1_556
Mg0_7 Ti0_4 3.151714 1_556
Mg0_7 Ti1_1 3.241456 1_555
Mg1_0 Mg1_6 2.956998 1_545
Mg1_0 Mg1_6 2.956998 1_455
Mg1_0 Ti0_0 3.028616 1_555
Mg1_0 Mg2_2 3.048205 1_545
Mg1_0 Mg2_4 3.048205 1_455
Mg1_0 Ti1_2 3.048813 1_545
Mg1_0 Ti1_4 3.048813 1_455
Mg1_0 Mg3_1 3.101605 1_554
Mg1_0 Ti0_4 3.185045 1_455
Mg1_0 Ti0_2 3.185045 1_545
Mg1_1 Mg1_7 2.956998 1_455
Mg1_1 Mg1_7 2.956998 1_545
Mg1_1 Ti0_1 3.028616 1_555
Mg1_1 Mg2_3 3.048205 1_545
Mg1_1 Mg2_5 3.048205 1_455
Mg1_1 Ti1_5 3.048813 1_455
Mg1_1 Ti1_3 3.048813 1_545
Mg1_1 Mg3_0 3.101605 1_555
Mg1_1 Ti0_5 3.185045 1_455
Mg1_1 Ti0_3 3.185045 1_545
Mg1_2 Mg1_4 2.956998 1_555
Mg1_2 Mg1_4 2.956998 1_465
Mg1_2 Ti0_2 3.028616 1_555
Mg1_2 Mg2_0 3.048205 1_555
Mg1_2 Mg2_6 3.048205 1_455
Mg1_2 Ti1_6 3.048813 1_455
Mg1_2 Ti1_0 3.048813 1_555
Mg1_2 Mg3_3 3.101605 1_554
Mg1_2 Ti0_6 3.185045 1_455
Mg1_2 Ti0_0 3.185045 1_555
Mg1_3 Mg1_5 2.956998 1_555
Mg1_3 Mg1_5 2.956998 1_465
Mg1_3 Ti0_3 3.028616 1_555
Mg1_3 Mg2_1 3.048205 1_555
Mg1_3 Mg2_7 3.048205 1_455
Mg1_3 Ti1_7 3.048813 1_455
Mg1_3 Ti1_1 3.048813 1_555
Mg1_3 Mg3_2 3.101605 1_555
Mg1_3 Ti0_1 3.185045 1_555
Mg1_3 Ti0_7 3.185045 1_455
Mg1_4 Ti0_4 3.028616 1_555
Mg1_4 Mg2_0 3.048205 1_555
Mg1_4 Mg2_6 3.048205 1_545
Mg1_4 Ti1_0 3.048813 1_555
Mg1_4 Ti1_6 3.048813 1_545
Mg1_4 Mg3_5 3.101605 1_554
Mg1_4 Ti0_0 3.185045 1_555
Mg1_4 Ti0_6 3.185045 1_545
Mg1_5 Ti0_5 3.028616 1_555
Mg1_5 Mg2_1 3.048205 1_555
Mg1_5 Mg2_7 3.048205 1_545
Mg1_5 Ti1_7 3.048813 1_545
Mg1_5 Ti1_1 3.048813 1_555
Mg1_5 Mg3_4 3.101605 1_555
Mg1_5 Ti0_1 3.185045 1_555
Mg1_5 Ti0_7 3.185045 1_545
Mg1_6 Ti0_6 3.028616 1_555
Mg1_6 Mg2_4 3.048205 1_555
Mg1_6 Mg2_2 3.048205 1_555
Mg1_6 Ti1_4 3.048813 1_555
Mg1_6 Ti1_2 3.048813 1_555
Mg1_6 Mg3_7 3.101605 1_554
Mg1_6 Ti0_4 3.185045 1_555
Mg1_6 Ti0_2 3.185045 1_555
Mg1_7 Ti0_7 3.028616 1_555
Mg1_7 Mg2_3 3.048205 1_555
Mg1_7 Mg2_5 3.048205 1_555
Mg1_7 Ti1_5 3.048813 1_555
Mg1_7 Ti1_3 3.048813 1_555
Mg1_7 Mg3_6 3.101605 1_555
Mg1_7 Ti0_5 3.185045 1_555
Mg1_7 Ti0_3 3.185045 1_555
Mg2_0 Mg2_6 2.956998 1_455
Mg2_0 Mg2_6 2.956998 1_545
Mg2_0 Ti0_0 2.960401 1_555
Mg2_0 Ti1_2 3.063570 1_545
Mg2_0 Ti1_4 3.063570 1_455
Mg2_0 Mg3_4 3.136371 1_555
Mg2_0 Mg3_2 3.136371 1_555
Mg2_0 Ti1_0 3.238242 1_555
Mg2_1 Mg2_7 2.956998 1_545
Mg2_1 Mg2_7 2.956998 1_455
Mg2_1 Ti0_1 2.960401 1_555
Mg2_1 Ti1_3 3.063570 1_545
Mg2_1 Ti1_5 3.063570 1_455
Mg2_1 Mg3_3 3.136371 1_555
Mg2_1 Mg3_5 3.136371 1_555
Mg2_1 Ti1_1 3.238242 1_555
Mg2_2 Mg2_4 2.956998 1_555
Mg2_2 Mg2_4 2.956998 1_465
Mg2_2 Ti0_2 2.960401 1_555
Mg2_2 Ti1_6 3.063570 1_455
Mg2_2 Ti1_0 3.063570 1_555
Mg2_2 Mg3_6 3.136371 1_555
Mg2_2 Mg3_0 3.136371 1_565
Mg2_2 Ti1_2 3.238242 1_555
Mg2_3 Mg2_5 2.956998 1_555
Mg2_3 Mg2_5 2.956998 1_465
Mg2_3 Ti0_3 2.960401 1_555
Mg2_3 Ti1_1 3.063570 1_555
Mg2_3 Ti1_7 3.063570 1_455
Mg2_3 Mg3_7 3.136371 1_555
Mg2_3 Mg3_1 3.136371 1_565
Mg2_3 Ti1_3 3.238242 1_555
Mg2_4 Ti0_4 2.960401 1_555
Mg2_4 Ti1_6 3.063570 1_545
Mg2_4 Ti1_0 3.063570 1_555
Mg2_4 Mg3_6 3.136371 1_555
Mg2_4 Mg3_0 3.136371 1_655
Mg2_4 Ti1_4 3.238242 1_555
Mg2_5 Ti0_5 2.960401 1_555
Mg2_5 Ti1_1 3.063570 1_555
Mg2_5 Ti1_7 3.063570 1_545
Mg2_5 Mg3_7 3.136371 1_555
Mg2_5 Mg3_1 3.136371 1_655
Mg2_5 Ti1_5 3.238242 1_555
Mg2_6 Ti0_6 2.960401 1_555
Mg2_6 Ti1_4 3.063570 1_555
Mg2_6 Ti1_2 3.063570 1_555
Mg2_6 Mg3_2 3.136371 1_655
Mg2_6 Mg3_4 3.136371 1_565
Mg2_6 Ti1_6 3.238242 1_555
Mg2_7 Ti0_7 2.960401 1_555
Mg2_7 Ti1_5 3.063570 1_555
Mg2_7 Ti1_3 3.063570 1_555
Mg2_7 Mg3_3 3.136371 1_655
Mg2_7 Mg3_5 3.136371 1_565
Mg2_7 Ti1_7 3.238242 1_555
Mg3_0 Mg3_6 2.956998 1_455
Mg3_0 Mg3_6 2.956998 1_545
Mg3_0 Ti0_3 3.275240 1_545
Mg3_0 Ti0_5 3.275240 1_455
Mg3_0 Ti1_2 3.283658 1_545
Mg3_0 Ti1_4 3.283658 1_455
Mg3_1 Mg3_7 2.956998 1_455
Mg3_1 Mg3_7 2.956998 1_545
Mg3_1 Ti0_4 3.275240 1_456
Mg3_1 Ti0_2 3.275240 1_546
Mg3_1 Ti1_3 3.283658 1_545
Mg3_1 Ti1_5 3.283658 1_455
Mg3_2 Mg3_4 2.956998 1_555
Mg3_2 Mg3_4 2.956998 1_465
Mg3_2 Ti0_1 3.275240 1_555
Mg3_2 Ti0_7 3.275240 1_455
Mg3_2 Ti1_0 3.283658 1_555
Mg3_2 Ti1_6 3.283658 1_455
Mg3_3 Mg3_5 2.956998 1_555
Mg3_3 Mg3_5 2.956998 1_465
Mg3_3 Ti0_0 3.275240 1_556
Mg3_3 Ti0_6 3.275240 1_456
Mg3_3 Ti1_7 3.283658 1_455
Mg3_3 Ti1_1 3.283658 1_555
Mg3_4 Ti0_1 3.275240 1_555
Mg3_4 Ti0_7 3.275240 1_545
Mg3_4 Ti1_0 3.283658 1_555
Mg3_4 Ti1_6 3.283658 1_545
Mg3_5 Ti0_6 3.275240 1_546
Mg3_5 Ti0_0 3.275240 1_556
Mg3_5 Ti1_7 3.283658 1_545
Mg3_5 Ti1_1 3.283658 1_555
Mg3_6 Ti0_5 3.275240 1_555
Mg3_6 Ti0_3 3.275240 1_555
Mg3_6 Ti1_4 3.283658 1_555
Mg3_6 Ti1_2 3.283658 1_555
Mg3_7 Ti0_4 3.275240 1_556
Mg3_7 Ti0_2 3.275240 1_556
Mg3_7 Ti1_3 3.283658 1_555
Mg3_7 Ti1_5 3.283658 1_555
Ti0_0 Ti1_2 2.744559 1_545
Ti0_0 Ti1_4 2.744559 1_455
Ti0_0 Ti0_6 2.956998 1_455
Ti0_0 Ti0_6 2.956998 1_545
Ti0_1 Ti1_3 2.744559 1_545
Ti0_1 Ti1_5 2.744559 1_455
Ti0_1 Ti0_7 2.956998 1_545
Ti0_1 Ti0_7 2.956998 1_455
Ti0_2 Ti1_6 2.744559 1_455
Ti0_2 Ti1_0 2.744559 1_555
Ti0_2 Ti0_4 2.956998 1_465
Ti0_2 Ti0_4 2.956998 1_555
Ti0_3 Ti1_1 2.744559 1_555
Ti0_3 Ti1_7 2.744559 1_455
Ti0_3 Ti0_5 2.956998 1_555
Ti0_3 Ti0_5 2.956998 1_465
Ti0_4 Ti1_0 2.744559 1_555
Ti0_4 Ti1_6 2.744559 1_545
Ti0_5 Ti1_1 2.744559 1_555
Ti0_5 Ti1_7 2.744559 1_545
Ti0_6 Ti1_2 2.744559 1_555
Ti0_6 Ti1_4 2.744559 1_555
Ti0_7 Ti1_3 2.744559 1_555
Ti0_7 Ti1_5 2.744559 1_555
Ti1_0 Ti1_6 2.956998 1_455
Ti1_0 Ti1_6 2.956998 1_545
Ti1_1 Ti1_7 2.956998 1_455
Ti1_1 Ti1_7 2.956998 1_545
Ti1_2 Ti1_4 2.956998 1_465
Ti1_2 Ti1_4 2.956998 1_555
Ti1_3 Ti1_5 2.956998 1_555
Ti1_3 Ti1_5 2.956998 1_465
