# generated using pymatgen
data_LuCuS2
_symmetry_space_group_name_H-M   'P 1'
_cell_length_a   3.87297346
_cell_length_b   6.17937004
_cell_length_c   13.07088051
_cell_angle_alpha   90.00000000
_cell_angle_beta   90.00000000
_cell_angle_gamma   90.00000000
_symmetry_Int_Tables_number   1
_chemical_formula_structural   LuCuS2
_chemical_formula_sum   'Lu4 Cu4 S8'
_cell_volume   312.81932051
_cell_formula_units_Z   4
loop_
 _symmetry_equiv_pos_site_id
 _symmetry_equiv_pos_as_xyz
  1  'x, y, z'
loop_
 _atom_site_type_symbol
 _atom_site_label
 _atom_site_symmetry_multiplicity
 _atom_site_fract_x
 _atom_site_fract_y
 _atom_site_fract_z
 _atom_site_occupancy
  Lu  Lu0  1  0.24898123  0.74760817  0.63472729  1
  Lu  Lu1  1  0.74898123  0.75239183  0.36527271  1
  Lu  Lu2  1  0.75101877  0.24760817  0.86527271  1
  Lu  Lu3  1  0.25101877  0.25239183  0.13472729  1
  Cu  Cu0  1  0.74487204  0.36709375  0.54375775  1
  Cu  Cu1  1  0.24487204  0.13290625  0.45624225  1
  Cu  Cu2  1  0.25512796  0.86709375  0.95624225  1
  Cu  Cu3  1  0.75512796  0.63290625  0.04375775  1
  S  S0  1  0.74903301  0.51046728  0.70562123  1
  S  S1  1  0.24903301  0.98953272  0.29437877  1
  S  S2  1  0.25096699  0.01046728  0.79437877  1
  S  S3  1  0.75096699  0.48953272  0.20562123  1
  S  S4  1  0.74826938  0.98898545  0.54065619  1
  S  S5  1  0.24826938  0.51101455  0.45934381  1
  S  S6  1  0.25173062  0.48898545  0.95934381  1
  S  S7  1  0.75173062  0.01101455  0.04065619  1
loop_
_geom_bond_atom_site_label_1
_geom_bond_atom_site_label_2
_geom_bond_distance
_geom_bond_site_symmetry_2
Lu0 S0 2.599081 1_455
Lu0 S0 2.599379 1_555
Lu0 S2 2.644446 1_565
Lu0 S5 2.718938 1_555
Lu0 S4 2.734220 1_555
Lu0 S4 2.738122 1_455
Lu1 S1 2.599081 1_555
Lu1 S1 2.599379 1_655
Lu1 S3 2.644446 1_555
Lu1 S4 2.718938 1_555
Lu1 S5 2.734220 1_655
Lu1 S5 2.738122 1_555
Lu2 S2 2.599081 1_655
Lu2 S2 2.599379 1_555
Lu2 S0 2.644446 1_555
Lu2 S7 2.718938 1_556
Lu2 S6 2.734220 1_555
Lu2 S6 2.738122 1_655
Lu3 S3 2.599081 1_555
Lu3 S3 2.599379 1_455
Lu3 S1 2.644446 1_545
Lu3 S6 2.718938 1_554
Lu3 S7 2.734220 1_455
Lu3 S7 2.738122 1_555
Cu0 S0 2.293766 1_555
Cu0 S4 2.336860 1_545
Cu0 S5 2.389044 1_555
Cu0 S5 2.410281 1_655
Cu1 S1 2.293766 1_545
Cu1 S5 2.336860 1_555
Cu1 S4 2.389044 1_445
Cu1 S4 2.410281 1_545
Cu2 S2 2.293766 1_565
Cu2 S6 2.336860 1_555
Cu2 S7 2.389044 1_566
Cu2 S7 2.410281 1_466
Cu3 S3 2.293766 1_555
Cu3 S7 2.336860 1_565
Cu3 S6 2.389044 1_654
Cu3 S6 2.410281 1_554
