# generated using pymatgen
data_Y7Cu3(GeSe7)3
_symmetry_space_group_name_H-M   'P 1'
_cell_length_a   10.25500512
_cell_length_b   10.25915892
_cell_length_c   18.31293268
_cell_angle_alpha   90.06286031
_cell_angle_beta   89.72565673
_cell_angle_gamma   119.77149106
_symmetry_Int_Tables_number   1
_chemical_formula_structural   Y7Cu3(GeSe7)3
_chemical_formula_sum   'Y14 Cu6 Ge6 Se42'
_cell_volume   1672.34597770
_cell_formula_units_Z   2
loop_
 _symmetry_equiv_pos_site_id
 _symmetry_equiv_pos_as_xyz
  1  'x, y, z'
loop_
 _atom_site_type_symbol
 _atom_site_label
 _atom_site_symmetry_multiplicity
 _atom_site_fract_x
 _atom_site_fract_y
 _atom_site_fract_z
 _atom_site_occupancy
  Y  Y0  1  0.86857445  0.64506841  0.08224746  1
  Y  Y1  1  0.86263672  0.63952331  0.75106100  1
  Y  Y2  1  0.22272988  0.86414614  0.25020074  1
  Y  Y3  1  0.21806439  0.86065093  0.58266152  1
  Y  Y4  1  0.63781797  0.77633670  0.25324856  1
  Y  Y5  1  0.64402251  0.77837029  0.58359360  1
  Y  Y6  1  0.64065553  0.77631124  0.91634257  1
  Y  Y7  1  0.35652608  0.21949860  0.08474630  1
  Y  Y8  1  0.35842024  0.22430214  0.41569554  1
  Y  Y9  1  0.36101814  0.22338875  0.75271193  1
  Y  Y10  1  0.77992648  0.13942147  0.08212416  1
  Y  Y11  1  0.77688008  0.13533047  0.41587576  1
  Y  Y12  1  0.13436484  0.35890246  0.58319645  1
  Y  Y13  1  0.13396852  0.35733133  0.91565013  1
  Cu  Cu0  1  0.00101139  0.00745855  0.23039923  1
  Cu  Cu1  1  0.00111985  0.00023539  0.56390518  1
  Cu  Cu2  1  0.00312882  0.99807499  0.89825175  1
  Cu  Cu3  1  0.00070595  0.99966662  0.06390612  1
  Cu  Cu4  1  0.99901862  0.99679206  0.39847607  1
  Cu  Cu5  1  0.99402496  0.00138571  0.73052734  1
  Ge  Ge0  1  0.66818563  0.33547013  0.28017751  1
  Ge  Ge1  1  0.66661354  0.32815104  0.61091526  1
  Ge  Ge2  1  0.66703144  0.33402117  0.94403332  1
  Ge  Ge3  1  0.33098262  0.66187723  0.11112400  1
  Ge  Ge4  1  0.33379788  0.66710407  0.44412016  1
  Ge  Ge5  1  0.33146422  0.66761084  0.78025820  1
  Se  Se0  1  0.57553047  0.48584419  0.00098462  1
  Se  Se1  1  0.56635043  0.48086269  0.32931582  1
  Se  Se2  1  0.57624770  0.48405108  0.66516602  1
  Se  Se3  1  0.48493809  0.90803718  0.16477157  1
  Se  Se4  1  0.48535299  0.90895740  0.50001230  1
  Se  Se5  1  0.49194778  0.90882170  0.83073673  1
  Se  Se6  1  0.91095019  0.42715157  0.99800601  1
  Se  Se7  1  0.90851068  0.41724438  0.33124426  1
  Se  Se8  1  0.91326956  0.43286975  0.66335800  1
  Se  Se9  1  0.09006717  0.57925729  0.16720436  1
  Se  Se10  1  0.09053153  0.57504878  0.49734491  1
  Se  Se11  1  0.08562213  0.56735220  0.82962337  1
  Se  Se12  1  0.51854900  0.09305324  0.99731689  1
  Se  Se13  1  0.51195210  0.08841408  0.33153866  1
  Se  Se14  1  0.51059798  0.08811294  0.66866654  1
  Se  Se15  1  0.43351521  0.51836864  0.16557090  1
  Se  Se16  1  0.42663453  0.51643164  0.49855498  1
  Se  Se17  1  0.42367282  0.51273289  0.83165360  1
  Se  Se18  1  0.33356136  0.66696841  0.31591359  1
  Se  Se19  1  0.33304609  0.66672979  0.64977764  1
  Se  Se20  1  0.33417469  0.66613281  0.98175608  1
  Se  Se21  1  0.66636008  0.33376646  0.14962077  1
  Se  Se22  1  0.66757928  0.33203719  0.48154567  1
  Se  Se23  1  0.66805437  0.33504035  0.81589609  1
  Se  Se24  1  0.84070845  0.10576501  0.23991984  1
  Se  Se25  1  0.83987036  0.10168810  0.56905648  1
  Se  Se26  1  0.83943291  0.09652463  0.90915178  1
  Se  Se27  1  0.73766808  0.84028150  0.07200255  1
  Se  Se28  1  0.73946710  0.83989751  0.40439798  1
  Se  Se29  1  0.73536800  0.84263162  0.74005177  1
  Se  Se30  1  0.10348412  0.26259997  0.06849926  1
  Se  Se31  1  0.09897086  0.25818619  0.40851656  1
  Se  Se32  1  0.10422903  0.26224504  0.73737455  1
  Se  Se33  1  0.89832944  0.74332941  0.23449369  1
  Se  Se34  1  0.89917829  0.74018682  0.57467582  1
  Se  Se35  1  0.89745323  0.73817863  0.90460016  1
  Se  Se36  1  0.26191012  0.15910456  0.23902994  1
  Se  Se37  1  0.26444201  0.16086550  0.57136620  1
  Se  Se38  1  0.26039398  0.15888713  0.90640342  1
  Se  Se39  1  0.16173691  0.89941505  0.07399327  1
  Se  Se40  1  0.15991753  0.89956744  0.40709882  1
  Se  Se41  1  0.15773254  0.90092919  0.73531672  1
loop_
_geom_bond_atom_site_label_1
_geom_bond_atom_site_label_2
_geom_bond_distance
_geom_bond_site_symmetry_2
Cu0 Se24 2.322356 1_455
Cu0 Se36 2.339572 1_555
Cu0 Se33 2.371328 1_445
Cu0 Y4 3.299476 1_445
Cu1 Se34 2.340685 1_445
Cu1 Se25 2.352477 1_455
Cu1 Se37 2.368572 1_555
Cu1 Y3 3.207885 1_545
Cu1 Y5 3.229987 1_445
Cu1 Y12 3.246561 1_555
Cu2 Se38 2.320615 1_565
Cu2 Se35 2.329622 1_455
Cu2 Se26 2.357570 1_465
Cu2 Y13 3.252140 1_565
Cu3 Se39 2.347123 1_555
Cu3 Se30 2.360348 1_565
Cu3 Se27 2.363986 1_455
Cu3 Y0 3.207193 1_455
Cu3 Y7 3.222682 1_565
Cu3 Y10 3.241693 1_465
Cu4 Se40 2.319407 1_655
Cu4 Se28 2.330280 1_555
Cu4 Se31 2.355178 1_665
Cu5 Se29 2.329137 1_545
Cu5 Se32 2.334958 1_655
Cu5 Se41 2.368144 1_645
Cu5 Y1 3.281700 1_545
Ge0 Se7 2.370522 1_555
Ge0 Se1 2.379128 1_555
Ge0 Se21 2.391016 1_555
Ge0 Se13 2.415328 1_555
Ge1 Se22 2.369406 1_555
Ge1 Se8 2.407696 1_555
Ge1 Se14 2.412348 1_555
Ge1 Se2 2.421468 1_555
Ge2 Se23 2.346553 1_555
Ge2 Se12 2.373807 1_555
Ge2 Se6 2.407269 1_555
Ge2 Se0 2.415112 1_556
Ge3 Se20 2.369326 1_554
Ge3 Se9 2.403117 1_555
Ge3 Se15 2.412049 1_555
Ge3 Se3 2.425968 1_555
Ge4 Se18 2.347849 1_555
Ge4 Se10 2.388405 1_555
Ge4 Se16 2.400720 1_555
Ge4 Se4 2.408243 1_555
Ge5 Se11 2.374073 1_555
Ge5 Se5 2.377370 1_555
Ge5 Se19 2.389497 1_555
Ge5 Se17 2.410097 1_555
Se0 Y7 2.957227 1_555
Se0 Y0 3.012720 1_555
Se0 Y6 3.122909 1_554
Se1 Y8 2.894858 1_555
Se1 Y4 3.075663 1_555
Se2 Y9 2.950786 1_555
Se2 Y1 3.005091 1_555
Se2 Y5 3.122119 1_555
Se3 Y2 2.939313 1_555
Se3 Y4 3.006920 1_555
Se3 Y10 3.147959 1_565
Se4 Y3 2.943240 1_555
Se4 Y5 2.996409 1_555
Se4 Y11 3.126343 1_565
Se5 Y6 2.952586 1_555
Se6 Y0 2.918513 1_556
Se6 Y10 2.990522 1_556
Se6 Y13 3.099964 1_655
Se7 Y11 2.949866 1_555
Se8 Y1 2.902020 1_555
Se8 Y12 3.089656 1_655
Se9 Y2 2.960502 1_555
Se9 Y0 3.097550 1_455
Se10 Y12 2.931787 1_555
Se10 Y3 2.990093 1_555
Se11 Y13 2.906193 1_555
Se11 Y1 3.092316 1_455
Se12 Y10 2.931722 1_556
Se12 Y7 3.019514 1_556
Se13 Y11 2.956037 1_555
Se13 Y8 2.991566 1_555
Se13 Y2 3.093101 1_545
Se14 Y9 2.955453 1_555
Se14 Y3 3.163989 1_545
Se15 Y4 2.913448 1_555
Se15 Y7 3.132512 1_555
Se16 Y5 2.948083 1_555
Se16 Y12 3.024640 1_555
Se16 Y8 3.113206 1_555
Se17 Y6 2.952486 1_555
Se17 Y13 2.998686 1_555
Se17 Y9 3.069152 1_555
Se18 Y4 2.967001 1_555
Se18 Y2 3.022201 1_555
Se19 Y3 3.034451 1_555
Se19 Y12 3.039188 1_555
Se19 Y5 3.047896 1_555
Se20 Y6 3.004954 1_555
Se20 Y13 3.045214 1_555
Se21 Y10 3.024284 1_555
Se21 Y7 3.035676 1_555
Se21 Y0 3.070730 1_555
Se22 Y11 3.000543 1_555
Se22 Y8 3.046505 1_555
Se23 Y1 2.990750 1_555
Se23 Y9 3.002540 1_555
Se24 Y4 2.970598 1_545
Se24 Y10 3.015178 1_555
Se24 Y11 3.328407 1_555
Se25 Y12 2.871027 1_655
Se25 Y5 2.913405 1_545
Se25 Y11 2.940470 1_555
Se26 Y13 2.876355 1_655
Se26 Y6 2.883189 1_545
Se26 Y10 3.293188 1_556
Se27 Y10 2.884307 1_565
Se27 Y0 2.919151 1_555
Se27 Y6 2.986802 1_554
Se27 Y4 3.435219 1_555
Se28 Y11 2.867447 1_565
Se28 Y4 2.919286 1_555
Se28 Y5 3.389037 1_555
Se29 Y1 2.964813 1_555
Se29 Y5 2.988279 1_555
Se29 Y6 3.338772 1_555
Se30 Y7 2.857445 1_555
Se30 Y10 2.915060 1_455
Se30 Y13 2.927997 1_554
Se31 Y8 2.852922 1_555
Se31 Y11 2.894583 1_455
Se31 Y12 3.326224 1_555
Se32 Y9 2.867450 1_555
Se32 Y12 2.957054 1_555
Se32 Y13 3.377914 1_555
Se33 Y4 2.873874 1_555
Se33 Y0 2.929026 1_555
Se33 Y2 2.932517 1_655
Se34 Y5 2.835583 1_555
Se34 Y3 2.869400 1_655
Se34 Y1 3.354413 1_555
Se35 Y6 2.855154 1_555
Se35 Y1 2.949969 1_555
Se35 Y0 3.361610 1_556
Se36 Y2 2.855391 1_545
Se36 Y7 2.947664 1_555
Se36 Y8 3.355944 1_555
Se37 Y3 2.881115 1_545
Se37 Y12 2.939693 1_555
Se37 Y8 2.972243 1_555
Se37 Y9 3.437603 1_555
Se38 Y13 2.910794 1_555
Se38 Y9 2.953390 1_555
Se38 Y7 3.382716 1_556
Se39 Y0 2.841835 1_455
Se39 Y7 2.881048 1_565
Se39 Y2 3.343878 1_555
Se40 Y8 2.921407 1_565
Se40 Y2 3.002509 1_555
Se40 Y3 3.333052 1_555
Se41 Y1 2.892562 1_455
Se41 Y9 2.923458 1_565
Se41 Y3 2.933176 1_555
