# generated using pymatgen
data_Pr2Co16Cu
_symmetry_space_group_name_H-M   'P 1'
_cell_length_a   6.32857012
_cell_length_b   6.32857012
_cell_length_c   6.32857003
_cell_angle_alpha   83.65629618
_cell_angle_beta   83.65629618
_cell_angle_gamma   83.65630328
_symmetry_Int_Tables_number   1
_chemical_formula_structural   Pr2Co16Cu
_chemical_formula_sum   'Pr2 Co16 Cu1'
_cell_volume   249.12744480
_cell_formula_units_Z   1
loop_
 _symmetry_equiv_pos_site_id
 _symmetry_equiv_pos_as_xyz
  1  'x, y, z'
loop_
 _atom_site_type_symbol
 _atom_site_label
 _atom_site_symmetry_multiplicity
 _atom_site_fract_x
 _atom_site_fract_y
 _atom_site_fract_z
 _atom_site_occupancy
  Pr  Pr0  1  0.65588000  0.65588000  0.65588000  1
  Pr  Pr1  1  0.34462300  0.34462300  0.34462300  1
  Co  Co0  1  0.71715300  0.28345000  0.99995400  1
  Co  Co1  1  0.99995400  0.71715300  0.28345000  1
  Co  Co2  1  0.28345000  0.99995400  0.71715300  1
  Co  Co3  1  0.99995400  0.28345000  0.71715300  1
  Co  Co4  1  0.71715300  0.99995400  0.28345000  1
  Co  Co5  1  0.28345000  0.71715300  0.99995400  1
  Co  Co6  1  0.34512900  0.34512900  0.84757500  1
  Co  Co7  1  0.84757500  0.34512900  0.34512900  1
  Co  Co8  1  0.34512900  0.84757500  0.34512900  1
  Co  Co9  1  0.65757500  0.65757500  0.15025900  1
  Co  Co10  1  0.15025900  0.65757500  0.65757500  1
  Co  Co11  1  0.65757500  0.15025900  0.65757500  1
  Co  Co12  1  0.99751500  0.99751500  0.50418700  1
  Co  Co13  1  0.50418700  0.99751500  0.99751500  1
  Co  Co14  1  0.99751500  0.50418700  0.99751500  1
  Co  Co15  1  0.89700400  0.89700400  0.89700400  1
  Cu  Cu0  1  0.09892200  0.09892200  0.09892200  1
loop_
_geom_bond_atom_site_label_1
_geom_bond_atom_site_label_2
_geom_bond_distance
_geom_bond_site_symmetry_2
Co0 Co14 2.374179 1_555
Co0 Co13 2.375069 1_545
Co0 Co3 2.387132 1_555
Co0 Co4 2.392998 1_546
Co0 Co11 2.490365 1_555
Co0 Co7 2.502714 1_556
Co0 Co6 2.615508 1_555
Co0 Co9 2.621837 1_556
Co0 Cu0 2.672567 1_656
Co0 Co15 2.697090 1_545
Co0 Pr0 3.049187 1_555
Co0 Pr1 3.051962 1_556
Co1 Co12 2.374179 1_555
Co1 Co14 2.375069 1_554
Co1 Co4 2.387132 1_555
Co1 Co5 2.392998 1_654
Co1 Co9 2.490365 1_555
Co1 Co8 2.502714 1_655
Co1 Co7 2.615508 1_555
Co1 Co10 2.621837 1_655
Co1 Cu0 2.672567 1_665
Co1 Co15 2.697090 1_554
Co1 Pr0 3.049187 1_555
Co1 Pr1 3.051962 1_655
Co2 Co5 2.387132 1_555
Co2 Co3 2.392998 1_465
Co2 Co6 2.502714 1_565
Co2 Co8 2.615508 1_555
Co2 Cu0 2.672567 1_566
Co2 Pr0 3.049187 1_555
Co2 Pr1 3.051962 1_565
Co3 Co6 2.502714 1_655
Co3 Co7 2.615508 1_555
Co3 Cu0 2.672567 1_656
Co3 Pr0 3.049187 1_555
Co3 Pr1 3.051962 1_655
Co4 Co9 2.490365 1_555
Co4 Co7 2.502714 1_565
Co4 Co8 2.615508 1_555
Co4 Cu0 2.672567 1_665
Co4 Pr0 3.049187 1_555
Co4 Pr1 3.051962 1_565
Co5 Co8 2.502714 1_556
Co5 Co6 2.615508 1_555
Co5 Co9 2.621837 1_556
Co5 Cu0 2.672567 1_566
Co5 Pr0 3.049187 1_555
Co5 Pr1 3.051962 1_556
Co6 Cu0 2.612834 1_556
Co6 Pr0 3.001178 1_555
Co6 Pr1 3.144899 1_556
Co6 Pr1 3.183678 1_555
Co7 Co9 2.477901 1_555
Co7 Cu0 2.612835 1_655
Co7 Pr0 3.001178 1_555
Co7 Pr1 3.144899 1_655
Co7 Pr1 3.183678 1_555
Co8 Co9 2.477901 1_555
Co8 Cu0 2.612835 1_565
Co8 Pr0 3.001178 1_555
Co8 Pr1 3.144899 1_565
Co8 Pr1 3.183678 1_555
Co9 Pr1 3.024598 1_555
Co9 Pr0 3.131123 1_554
Co9 Pr0 3.197527 1_555
Co10 Co14 2.406506 1_455
Co10 Co12 2.406506 1_455
Co10 Co8 2.477901 1_555
Co10 Co6 2.477901 1_555
Co10 Co2 2.490365 1_555
Co10 Co5 2.490365 1_555
Co10 Co15 2.568022 1_455
Co10 Co3 2.621836 1_455
Co10 Pr1 3.024598 1_555
Co10 Pr0 3.131123 1_455
Co10 Pr0 3.197527 1_555
Co11 Co13 2.406506 1_545
Co11 Co12 2.406506 1_545
Co11 Co7 2.477901 1_555
Co11 Co6 2.477901 1_555
Co11 Co3 2.490365 1_555
Co11 Co15 2.568022 1_545
Co11 Co2 2.621836 1_545
Co11 Co4 2.621837 1_545
Co11 Pr1 3.024598 1_555
Co11 Pr0 3.131123 1_545
Co11 Pr0 3.197527 1_555
Co12 Co4 2.374179 1_555
Co12 Co2 2.375069 1_655
Co12 Co3 2.375069 1_565
Co12 Co8 2.452277 1_655
Co12 Co7 2.452277 1_565
Co12 Co15 2.525826 1_555
Co12 Cu0 2.601000 1_665
Co12 Pr0 3.222773 1_555
Co12 Pr1 3.279731 1_665
Co13 Co5 2.374179 1_555
Co13 Co2 2.374179 1_555
Co13 Co4 2.375069 1_556
Co13 Co9 2.406506 1_556
Co13 Co8 2.452276 1_556
Co13 Co6 2.452277 1_565
Co13 Co15 2.525826 1_555
Co13 Cu0 2.601000 1_566
Co13 Pr0 3.222773 1_555
Co13 Pr1 3.279731 1_566
Co14 Co3 2.374179 1_555
Co14 Co5 2.375069 1_655
Co14 Co9 2.406506 1_556
Co14 Co7 2.452276 1_556
Co14 Co6 2.452277 1_655
Co14 Co15 2.525826 1_555
Co14 Cu0 2.601000 1_656
Co14 Pr0 3.222773 1_555
Co14 Pr1 3.279731 1_656
Co15 Cu0 2.445662 1_666
Co15 Co9 2.568022 1_556
Co15 Co3 2.697090 1_565
Co15 Co2 2.697090 1_655
Co15 Co4 2.697090 1_556
Co15 Co5 2.697090 1_655
Co15 Pr0 2.920531 1_555
Cu0 Pr1 2.975968 1_555
