# generated using pymatgen
data_Nd8Ni18P11
_symmetry_space_group_name_H-M   'P 1'
_cell_length_a   18.29184436
_cell_length_b   18.29184436
_cell_length_c   3.93273200
_cell_angle_alpha   90.00000000
_cell_angle_beta   90.00000000
_cell_angle_gamma   120.00000130
_symmetry_Int_Tables_number   1
_chemical_formula_structural   Nd8Ni18P11
_chemical_formula_sum   'Nd16 Ni36 P22'
_cell_volume   1139.56728475
_cell_formula_units_Z   2
loop_
 _symmetry_equiv_pos_site_id
 _symmetry_equiv_pos_as_xyz
  1  'x, y, z'
loop_
 _atom_site_type_symbol
 _atom_site_label
 _atom_site_symmetry_multiplicity
 _atom_site_fract_x
 _atom_site_fract_y
 _atom_site_fract_z
 _atom_site_occupancy
  Nd  Nd0  1  0.81050100  0.18949900  0.50000000  1
  Nd  Nd1  1  0.81050100  0.62100200  0.50000000  1
  Nd  Nd2  1  0.37899800  0.18949900  0.50000000  1
  Nd  Nd3  1  0.59362100  0.40637900  0.50000000  1
  Nd  Nd4  1  0.59362100  0.18724100  0.50000000  1
  Nd  Nd5  1  0.81275900  0.40637900  0.50000000  1
  Nd  Nd6  1  0.11253400  0.88746600  0.00000000  1
  Nd  Nd7  1  0.11253400  0.22506900  0.00000000  1
  Nd  Nd8  1  0.77493100  0.88746600  0.00000000  1
  Nd  Nd9  1  0.33461100  0.88507600  0.00000000  1
  Nd  Nd10  1  0.11492400  0.44953600  0.00000000  1
  Nd  Nd11  1  0.11492400  0.66538900  0.00000000  1
  Nd  Nd12  1  0.55046400  0.66538900  0.00000000  1
  Nd  Nd13  1  0.55046400  0.88507600  0.00000000  1
  Nd  Nd14  1  0.33461100  0.44953600  0.00000000  1
  Nd  Nd15  1  0.33333300  0.66666700  0.00000000  1
  Ni  Ni0  1  0.04356000  0.95644000  0.50000000  1
  Ni  Ni1  1  0.04356000  0.08711900  0.50000000  1
  Ni  Ni2  1  0.91288100  0.95644000  0.50000000  1
  Ni  Ni3  1  0.40953400  0.03712100  0.50000000  1
  Ni  Ni4  1  0.96287900  0.37241300  0.50000000  1
  Ni  Ni5  1  0.96287900  0.59046600  0.50000000  1
  Ni  Ni6  1  0.62758700  0.59046600  0.50000000  1
  Ni  Ni7  1  0.62758700  0.03712100  0.50000000  1
  Ni  Ni8  1  0.40953400  0.37241300  0.50000000  1
  Ni  Ni9  1  0.73386500  0.69712300  0.00000000  1
  Ni  Ni10  1  0.30287700  0.03674200  0.00000000  1
  Ni  Ni11  1  0.30287700  0.26613500  0.00000000  1
  Ni  Ni12  1  0.96325800  0.26613500  0.00000000  1
  Ni  Ni13  1  0.96325800  0.69712300  0.00000000  1
  Ni  Ni14  1  0.73386500  0.03674200  0.00000000  1
  Ni  Ni15  1  0.51759700  0.48240300  0.00000000  1
  Ni  Ni16  1  0.51759700  0.03519500  0.00000000  1
  Ni  Ni17  1  0.96480500  0.48240300  0.00000000  1
  Ni  Ni18  1  0.73919300  0.26080700  0.00000000  1
  Ni  Ni19  1  0.73919300  0.47838700  0.00000000  1
  Ni  Ni20  1  0.52161300  0.26080700  0.00000000  1
  Ni  Ni21  1  0.40654200  0.59345800  0.50000000  1
  Ni  Ni22  1  0.40654200  0.81308400  0.50000000  1
  Ni  Ni23  1  0.18691600  0.59345800  0.50000000  1
  Ni  Ni24  1  0.83173800  0.79610600  0.50000000  1
  Ni  Ni25  1  0.20389400  0.03563200  0.50000000  1
  Ni  Ni26  1  0.20389400  0.16826200  0.50000000  1
  Ni  Ni27  1  0.96436800  0.16826200  0.50000000  1
  Ni  Ni28  1  0.96436800  0.79610600  0.50000000  1
  Ni  Ni29  1  0.83173800  0.03563200  0.50000000  1
  Ni  Ni30  1  0.94959900  0.05040100  0.00000000  1
  Ni  Ni31  1  0.94959900  0.89919800  0.00000000  1
  Ni  Ni32  1  0.10080200  0.05040100  0.00000000  1
  Ni  Ni33  1  0.18820700  0.81179300  0.50000000  1
  Ni  Ni34  1  0.18820700  0.37641500  0.50000000  1
  Ni  Ni35  1  0.62358500  0.81179300  0.50000000  1
  P  P0  1  0.66666700  0.33333300  0.00000000  1
  P  P1  1  0.47879100  0.52120900  0.50000000  1
  P  P2  1  0.47879100  0.95758200  0.50000000  1
  P  P3  1  0.04241800  0.52120900  0.50000000  1
  P  P4  1  0.45094300  0.11645700  0.00000000  1
  P  P5  1  0.88354300  0.33448600  0.00000000  1
  P  P6  1  0.88354300  0.54905700  0.00000000  1
  P  P7  1  0.66551400  0.54905700  0.00000000  1
  P  P8  1  0.66551400  0.11645700  0.00000000  1
  P  P9  1  0.45094300  0.33448600  0.00000000  1
  P  P10  1  0.88125400  0.11874600  0.00000000  1
  P  P11  1  0.88125400  0.76250800  0.00000000  1
  P  P12  1  0.23749200  0.11874600  0.00000000  1
  P  P13  1  0.69208400  0.73813100  0.50000000  1
  P  P14  1  0.26186900  0.95395300  0.50000000  1
  P  P15  1  0.26186900  0.30791600  0.50000000  1
  P  P16  1  0.04604700  0.30791600  0.50000000  1
  P  P17  1  0.04604700  0.73813100  0.50000000  1
  P  P18  1  0.69208400  0.95395300  0.50000000  1
  P  P19  1  0.26109700  0.73890300  0.50000000  1
  P  P20  1  0.26109700  0.52219300  0.50000000  1
  P  P21  1  0.47780700  0.73890300  0.50000000  1
loop_
_geom_bond_atom_site_label_1
_geom_bond_atom_site_label_2
_geom_bond_distance
_geom_bond_site_symmetry_2
Nd0 P10 2.981858 1_555
Nd0 P10 2.981858 1_556
Nd0 Ni18 2.995099 1_555
Nd0 Ni18 2.995099 1_556
Nd0 P8 3.023548 1_555
Nd0 P8 3.023548 1_556
Nd0 P5 3.023548 1_555
Nd0 P5 3.023548 1_556
Nd0 Ni29 3.027493 1_555
Nd0 Ni27 3.027493 1_555
Nd0 Ni7 3.104472 1_555
Nd0 Ni4 3.104472 1_555
Nd0 Ni12 3.118062 1_556
Nd0 Ni12 3.118062 1_555
Nd0 Ni14 3.118062 1_555
Nd0 Ni14 3.118062 1_556
Nd1 P11 2.981858 1_556
Nd1 P11 2.981858 1_555
Nd1 Ni19 2.995087 1_556
Nd1 Ni19 2.995087 1_555
Nd1 P7 3.023548 1_555
Nd1 P7 3.023548 1_556
Nd1 P6 3.023548 1_555
Nd1 P6 3.023548 1_556
Nd1 Ni28 3.027493 1_555
Nd1 Ni24 3.027493 1_555
Nd1 Ni6 3.104472 1_555
Nd1 Ni5 3.104472 1_555
Nd1 Ni13 3.118062 1_555
Nd1 Ni13 3.118062 1_556
Nd1 Ni9 3.118062 1_555
Nd1 Ni9 3.118062 1_556
Nd2 P12 2.981858 1_555
Nd2 P12 2.981858 1_556
Nd2 Ni20 2.995087 1_555
Nd2 Ni20 2.995087 1_556
Nd2 P9 3.023548 1_556
Nd2 P9 3.023548 1_555
Nd2 P4 3.023548 1_555
Nd2 P4 3.023548 1_556
Nd2 Ni25 3.027493 1_555
Nd2 Ni26 3.027493 1_555
Nd2 Ni8 3.104472 1_555
Nd2 Ni3 3.104472 1_555
Nd2 Ni10 3.118062 1_556
Nd2 Ni10 3.118062 1_555
Nd2 Ni11 3.118062 1_555
Nd2 Ni11 3.118062 1_556
Nd3 P9 2.995857 1_556
Nd3 P9 2.995857 1_555
Nd3 P7 2.995857 1_555
Nd3 P7 2.995857 1_556
Nd3 Ni20 3.030610 1_555
Nd3 Ni20 3.030610 1_556
Nd3 Ni19 3.030610 1_555
Nd3 Ni19 3.030610 1_556
Nd3 P0 3.036849 1_555
Nd3 P0 3.036849 1_556
Nd3 Ni8 3.103637 1_555
Nd3 Ni6 3.103637 1_555
Nd3 Ni15 3.109350 1_555
Nd3 Ni15 3.109350 1_556
Nd4 P8 2.995845 1_555
Nd4 P8 2.995845 1_556
Nd4 P4 2.995857 1_555
Nd4 P4 2.995857 1_556
Nd4 Ni18 3.030610 1_555
Nd4 Ni18 3.030610 1_556
Nd4 Ni20 3.030634 1_555
Nd4 Ni20 3.030634 1_556
Nd4 P0 3.036849 1_555
Nd4 P0 3.036849 1_556
Nd4 Ni7 3.103619 1_555
Nd4 Ni3 3.103630 1_555
Nd4 Ni16 3.109326 1_556
Nd4 Ni16 3.109326 1_555
Nd5 P5 2.995845 1_555
Nd5 P5 2.995845 1_556
Nd5 P6 2.995857 1_555
Nd5 P6 2.995857 1_556
Nd5 Ni18 3.030610 1_556
Nd5 Ni18 3.030610 1_555
Nd5 Ni19 3.030634 1_555
Nd5 Ni19 3.030634 1_556
Nd5 P0 3.036849 1_555
Nd5 P0 3.036849 1_556
Nd5 Ni4 3.103619 1_555
Nd5 Ni5 3.103630 1_555
Nd5 Ni17 3.109326 1_555
Nd5 Ni17 3.109326 1_556
Nd6 Ni0 2.939722 1_554
Nd6 Ni0 2.939722 1_555
Nd6 Ni28 3.078226 1_454
Nd6 Ni28 3.078226 1_455
Nd6 Ni25 3.078226 1_565
Nd6 Ni25 3.078226 1_564
Nd6 P17 3.079816 1_554
Nd6 P17 3.079816 1_555
Nd6 P14 3.079816 1_554
Nd6 P14 3.079816 1_555
Nd6 Ni32 3.093270 1_565
Nd6 Ni31 3.093270 1_455
Nd6 Ni33 3.100744 1_554
Nd6 Ni33 3.100744 1_555
Nd6 Ni13 3.173524 1_455
Nd6 Ni10 3.173524 1_565
Nd7 Ni1 2.939746 1_555
Nd7 Ni1 2.939746 1_554
Nd7 Ni27 3.078224 1_454
Nd7 Ni27 3.078224 1_455
Nd7 Ni26 3.078237 1_554
Nd7 Ni26 3.078237 1_555
Nd7 P16 3.079803 1_555
Nd7 P16 3.079803 1_554
Nd7 P15 3.079815 1_554
Nd7 P15 3.079815 1_555
Nd7 Ni30 3.093280 1_455
Nd7 Ni32 3.093288 1_555
Nd7 Ni34 3.100744 1_554
Nd7 Ni34 3.100744 1_555
Nd7 Ni12 3.173512 1_455
Nd7 Ni11 3.173529 1_555
Nd8 Ni2 2.939746 1_554
Nd8 Ni2 2.939746 1_555
Nd8 Ni29 3.078224 1_565
Nd8 Ni29 3.078224 1_564
Nd8 Ni24 3.078237 1_554
Nd8 Ni24 3.078237 1_555
Nd8 P18 3.079803 1_554
Nd8 P18 3.079803 1_555
Nd8 P13 3.079815 1_555
Nd8 P13 3.079815 1_554
Nd8 Ni30 3.093280 1_565
Nd8 Ni31 3.093288 1_555
Nd8 Ni35 3.100744 1_554
Nd8 Ni35 3.100744 1_555
Nd8 Ni14 3.173512 1_565
Nd8 Ni9 3.173529 1_555
Nd9 P14 2.983414 1_555
Nd9 P14 2.983414 1_554
Nd9 Ni22 3.010747 1_555
Nd9 Ni22 3.010747 1_554
Nd9 P2 3.013841 1_555
Nd9 P2 3.013841 1_554
Nd9 P19 3.037837 1_555
Nd9 P19 3.037837 1_554
Nd9 Ni33 3.040618 1_555
Nd9 Ni33 3.040618 1_554
Nd9 Ni16 3.090722 1_565
Nd9 Ni10 3.105446 1_565
Nd9 Ni3 3.109379 1_565
Nd9 Ni3 3.109379 1_564
Nd10 P16 2.983426 1_555
Nd10 P16 2.983426 1_554
Nd10 Ni23 3.010735 1_554
Nd10 Ni23 3.010735 1_555
Nd10 P3 3.013829 1_554
Nd10 P3 3.013829 1_555
Nd10 P20 3.037837 1_554
Nd10 P20 3.037837 1_555
Nd10 Ni34 3.040618 1_554
Nd10 Ni34 3.040618 1_555
Nd10 Ni17 3.090722 1_455
Nd10 Ni12 3.105458 1_455
Nd10 Ni4 3.109379 1_454
Nd10 Ni4 3.109379 1_455
Nd11 P17 2.983414 1_554
Nd11 P17 2.983414 1_555
Nd11 Ni23 3.010747 1_555
Nd11 Ni23 3.010747 1_554
Nd11 P3 3.013841 1_554
Nd11 P3 3.013841 1_555
Nd11 P19 3.037837 1_555
Nd11 P19 3.037837 1_554
Nd11 Ni33 3.040618 1_555
Nd11 Ni33 3.040618 1_554
Nd11 Ni17 3.090722 1_455
Nd11 Ni13 3.105446 1_455
Nd11 Ni5 3.109379 1_454
Nd11 Ni5 3.109379 1_455
Nd12 P13 2.983425 1_555
Nd12 P13 2.983425 1_554
Nd12 Ni21 3.010735 1_555
Nd12 Ni21 3.010735 1_554
Nd12 P1 3.013841 1_554
Nd12 P1 3.013841 1_555
Nd12 P21 3.037813 1_555
Nd12 P21 3.037813 1_554
Nd12 Ni35 3.040618 1_555
Nd12 Ni35 3.040618 1_554
Nd12 Ni15 3.090722 1_555
Nd12 Ni9 3.105464 1_555
Nd12 Ni6 3.109391 1_555
Nd12 Ni6 3.109391 1_554
Nd13 P18 2.983426 1_554
Nd13 P18 2.983426 1_555
Nd13 Ni22 3.010735 1_554
Nd13 Ni22 3.010735 1_555
Nd13 P2 3.013829 1_555
Nd13 P2 3.013829 1_554
Nd13 P21 3.037837 1_555
Nd13 P21 3.037837 1_554
Nd13 Ni35 3.040618 1_554
Nd13 Ni35 3.040618 1_555
Nd13 Ni16 3.090722 1_565
Nd13 Ni14 3.105458 1_565
Nd13 Ni7 3.109379 1_565
Nd13 Ni7 3.109379 1_564
Nd14 P15 2.983425 1_554
Nd14 P15 2.983425 1_555
Nd14 Ni21 3.010735 1_554
Nd14 Ni21 3.010735 1_555
Nd14 P1 3.013841 1_554
Nd14 P1 3.013841 1_555
Nd14 P20 3.037813 1_554
Nd14 P20 3.037813 1_555
Nd14 Ni34 3.040618 1_554
Nd14 Ni34 3.040618 1_555
Nd14 Ni15 3.090722 1_555
Nd14 Ni11 3.105464 1_555
Nd14 Ni8 3.109391 1_554
Nd14 Ni8 3.109391 1_555
Nd15 P19 3.017338 1_555
Nd15 P19 3.017338 1_554
Nd15 P21 3.017362 1_555
Nd15 P21 3.017362 1_554
Nd15 P20 3.017362 1_555
Nd15 P20 3.017362 1_554
Nd15 Ni23 3.040775 1_554
Nd15 Ni23 3.040775 1_555
Nd15 Ni22 3.040775 1_554
Nd15 Ni22 3.040775 1_555
Nd15 Ni21 3.040787 1_554
Nd15 Ni21 3.040787 1_555
Ni0 Ni2 2.390360 1_455
Ni0 Ni1 2.390360 1_565
Ni0 Ni32 2.473323 1_565
Ni0 Ni32 2.473323 1_566
Ni0 Ni31 2.473323 1_455
Ni0 Ni31 2.473323 1_456
Ni0 Ni25 2.539946 1_565
Ni0 Ni28 2.539946 1_455
Ni1 Ni2 2.390360 1_445
Ni1 Ni32 2.473314 1_556
Ni1 Ni32 2.473314 1_555
Ni1 Ni30 2.473324 1_456
Ni1 Ni30 2.473324 1_455
Ni1 Ni26 2.539946 1_555
Ni1 Ni27 2.539962 1_455
Ni2 Ni31 2.473314 1_555
Ni2 Ni31 2.473314 1_556
Ni2 Ni30 2.473324 1_566
Ni2 Ni30 2.473324 1_565
Ni2 Ni24 2.539946 1_555
Ni2 Ni29 2.539962 1_565
Ni3 P4 2.333902 1_555
Ni3 P4 2.333902 1_556
Ni3 P14 2.345416 1_545
Ni3 P2 2.358983 1_545
Ni4 P5 2.333902 1_555
Ni4 P5 2.333902 1_556
Ni4 P16 2.345416 1_655
Ni4 P3 2.358983 1_655
Ni5 P6 2.333902 1_555
Ni5 P6 2.333902 1_556
Ni5 P17 2.345416 1_655
Ni5 P3 2.358983 1_655
Ni6 P7 2.333902 1_555
Ni6 P7 2.333902 1_556
Ni6 P13 2.345416 1_555
Ni6 P1 2.358983 1_555
Ni7 P8 2.333902 1_555
Ni7 P8 2.333902 1_556
Ni7 P18 2.345416 1_545
Ni7 P2 2.358983 1_545
Ni8 P9 2.333902 1_556
Ni8 P9 2.333902 1_555
Ni8 P15 2.345416 1_555
Ni8 P1 2.358983 1_555
Ni9 P11 2.339761 1_555
Ni9 P7 2.347845 1_555
Ni9 P13 2.363603 1_555
Ni9 P13 2.363603 1_554
Ni10 P12 2.339761 1_555
Ni10 P4 2.347845 1_555
Ni10 P14 2.363603 1_544
Ni10 P14 2.363603 1_545
Ni11 P12 2.339761 1_555
Ni11 P9 2.347845 1_555
Ni11 P15 2.363603 1_555
Ni11 P15 2.363603 1_554
Ni12 P10 2.339761 1_555
Ni12 P5 2.347845 1_555
Ni12 P16 2.363603 1_655
Ni12 P16 2.363603 1_654
Ni13 P11 2.339761 1_555
Ni13 P6 2.347845 1_555
Ni13 P17 2.363603 1_655
Ni13 P17 2.363603 1_654
Ni14 P10 2.339761 1_555
Ni14 P8 2.347845 1_555
Ni14 P18 2.363603 1_544
Ni14 P18 2.363603 1_545
Ni15 P1 2.319091 1_554
Ni15 P1 2.319091 1_555
Ni15 P9 2.346989 1_555
Ni15 P7 2.346989 1_555
Ni16 P2 2.319100 1_544
Ni16 P2 2.319100 1_545
Ni16 P4 2.346973 1_555
Ni16 P8 2.346988 1_555
Ni17 P3 2.319100 1_655
Ni17 P3 2.319100 1_654
Ni17 P6 2.346973 1_555
Ni17 P5 2.346988 1_555
Ni18 P5 2.286843 1_555
Ni18 P8 2.286843 1_555
Ni18 P0 2.297798 1_555
Ni19 P7 2.286827 1_555
Ni19 P6 2.286843 1_555
Ni19 P0 2.297830 1_555
Ni20 P9 2.286827 1_555
Ni20 P4 2.286843 1_555
Ni20 P0 2.297830 1_555
Ni21 P1 2.289022 1_555
Ni21 P21 2.304178 1_555
Ni21 P20 2.304178 1_555
Ni22 P2 2.289022 1_555
Ni22 P19 2.304178 1_555
Ni22 P21 2.304194 1_555
Ni23 P3 2.289022 1_555
Ni23 P19 2.304178 1_555
Ni23 P20 2.304194 1_555
Ni24 P13 2.222884 1_555
Ni24 P11 2.370927 1_556
Ni24 P11 2.370927 1_555
Ni25 P14 2.222884 1_545
Ni25 P12 2.370927 1_555
Ni25 P12 2.370927 1_556
Ni26 P15 2.222884 1_555
Ni26 P12 2.370927 1_555
Ni26 P12 2.370927 1_556
Ni27 P16 2.222884 1_655
Ni27 P10 2.370927 1_555
Ni27 P10 2.370927 1_556
Ni28 P17 2.222884 1_655
Ni28 P11 2.370927 1_555
Ni28 P11 2.370927 1_556
Ni29 P18 2.222884 1_545
Ni29 P10 2.370927 1_555
Ni29 P10 2.370927 1_556
Ni30 P10 2.165334 1_555
Ni31 P11 2.165334 1_555
Ni32 P12 2.165334 1_555
Ni33 P17 2.252480 1_555
Ni33 P14 2.252480 1_555
Ni33 P19 2.309330 1_555
Ni34 P16 2.252480 1_555
Ni34 P15 2.252496 1_555
Ni34 P20 2.309299 1_555
Ni35 P18 2.252480 1_555
Ni35 P13 2.252496 1_555
Ni35 P21 2.309299 1_555
