# generated using pymatgen
data_Tl6Si2O7
_symmetry_space_group_name_H-M   'P 1'
_cell_length_a   9.44360763
_cell_length_b   9.44360763
_cell_length_c   4.88120800
_cell_angle_alpha   90.00000000
_cell_angle_beta   90.00000000
_cell_angle_gamma   119.99999738
_symmetry_Int_Tables_number   1
_chemical_formula_structural   Tl6Si2O7
_chemical_formula_sum   'Tl6 Si2 O7'
_cell_volume   376.99346847
_cell_formula_units_Z   1
loop_
 _symmetry_equiv_pos_site_id
 _symmetry_equiv_pos_as_xyz
  1  'x, y, z'
loop_
 _atom_site_type_symbol
 _atom_site_label
 _atom_site_symmetry_multiplicity
 _atom_site_fract_x
 _atom_site_fract_y
 _atom_site_fract_z
 _atom_site_occupancy
  Tl  Tl0  1  0.29178700  0.31661600  0.74257300  1
  Tl  Tl1  1  0.68338400  0.97517200  0.74257300  1
  Tl  Tl2  1  0.02482800  0.70821300  0.74257300  1
  Tl  Tl3  1  0.42523200  0.06026500  0.20569000  1
  Tl  Tl4  1  0.93973500  0.36496700  0.20569000  1
  Tl  Tl5  1  0.63503300  0.57476800  0.20569000  1
  Si  Si0  1  0.00000000  0.00000000  0.23341100  1
  Si  Si1  1  0.66666700  0.33333300  0.67041500  1
  O  O0  1  0.86381700  0.05295900  0.23218200  1
  O  O1  1  0.94704100  0.81085800  0.23218200  1
  O  O2  1  0.18914200  0.13618300  0.23218200  1
  O  O3  1  0.78585100  0.26084300  0.77027700  1
  O  O4  1  0.73915700  0.52500800  0.77027700  1
  O  O5  1  0.47499200  0.21414900  0.77027700  1
  O  O6  1  0.66666700  0.33333300  0.32995700  1
loop_
_geom_bond_atom_site_label_1
_geom_bond_atom_site_label_2
_geom_bond_distance
_geom_bond_site_symmetry_2
O0 Si0 1.596025 1_655
O0 Tl4 2.664587 1_555
O1 Si0 1.596025 1_665
O1 Tl5 2.664587 1_555
O2 Si0 1.596025 1_555
O2 Tl3 2.664587 1_555
O3 Si1 1.656365 1_555
O3 Tl1 2.371091 1_545
O3 Tl4 2.483315 1_556
O4 Si1 1.656374 1_555
O4 Tl2 2.371092 1_655
O4 Tl5 2.483315 1_556
O5 Si1 1.656373 1_555
O5 Tl0 2.371099 1_555
O5 Tl3 2.483315 1_556
O6 Si1 1.661846 1_555
O6 Tl4 2.517288 1_555
O6 Tl3 2.517292 1_555
O6 Tl5 2.517297 1_555
