# generated using pymatgen
data_LaGe2Ir3
_symmetry_space_group_name_H-M   'P 1'
_cell_length_a   5.69417371
_cell_length_b   5.69417371
_cell_length_c   3.85579700
_cell_angle_alpha   90.00000000
_cell_angle_beta   90.00000000
_cell_angle_gamma   119.99999660
_symmetry_Int_Tables_number   1
_chemical_formula_structural   LaGe2Ir3
_chemical_formula_sum   'La1 Ge2 Ir3'
_cell_volume   108.26952490
_cell_formula_units_Z   1
loop_
 _symmetry_equiv_pos_site_id
 _symmetry_equiv_pos_as_xyz
  1  'x, y, z'
loop_
 _atom_site_type_symbol
 _atom_site_label
 _atom_site_symmetry_multiplicity
 _atom_site_fract_x
 _atom_site_fract_y
 _atom_site_fract_z
 _atom_site_occupancy
  La  La0  1  0.00000000  0.00000000  0.00000000  1
  Ge  Ge0  1  0.66666700  0.33333300  0.00000000  1
  Ge  Ge1  1  0.33333300  0.66666700  0.00000000  1
  Ir  Ir0  1  0.50000000  0.50000000  0.50000000  1
  Ir  Ir1  1  0.50000000  0.00000000  0.50000000  1
  Ir  Ir2  1  0.00000000  0.50000000  0.50000000  1
loop_
_geom_bond_atom_site_label_1
_geom_bond_atom_site_label_2
_geom_bond_distance
_geom_bond_site_symmetry_2
Ge0 Ir1 2.533526 1_554
Ge0 Ir2 2.533526 1_655
Ge0 Ir2 2.533526 1_654
Ge0 Ir1 2.533526 1_555
Ge0 Ir0 2.533529 1_555
Ge0 Ir0 2.533529 1_554
Ge0 La0 3.287529 1_655
Ge0 La0 3.287534 1_555
Ge0 La0 3.287534 1_665
Ge1 Ir2 2.533526 1_555
Ge1 Ir2 2.533526 1_554
Ge1 Ir1 2.533526 1_565
Ge1 Ir1 2.533526 1_564
Ge1 Ir0 2.533529 1_555
Ge1 Ir0 2.533529 1_554
Ge1 La0 3.287529 1_565
Ge1 La0 3.287534 1_555
Ge1 La0 3.287534 1_665
Ir0 La0 3.438415 1_556
Ir0 La0 3.438415 1_555
Ir0 La0 3.438415 1_666
Ir0 La0 3.438415 1_665
Ir1 La0 3.438415 1_655
Ir1 La0 3.438415 1_656
Ir1 La0 3.438415 1_555
Ir1 La0 3.438415 1_556
Ir2 La0 3.438415 1_566
Ir2 La0 3.438415 1_565
Ir2 La0 3.438415 1_555
Ir2 La0 3.438415 1_556
