# generated using pymatgen
data_Ce2Sn3
_symmetry_space_group_name_H-M   'P 1'
_cell_length_a   6.42733471
_cell_length_b   8.46330906
_cell_length_c   11.14483940
_cell_angle_alpha   107.03047569
_cell_angle_beta   96.67203035
_cell_angle_gamma   100.10539184
_symmetry_Int_Tables_number   1
_chemical_formula_structural   Ce2Sn3
_chemical_formula_sum   'Ce8 Sn12'
_cell_volume   561.54845287
_cell_formula_units_Z   4
loop_
 _symmetry_equiv_pos_site_id
 _symmetry_equiv_pos_as_xyz
  1  'x, y, z'
loop_
 _atom_site_type_symbol
 _atom_site_label
 _atom_site_symmetry_multiplicity
 _atom_site_fract_x
 _atom_site_fract_y
 _atom_site_fract_z
 _atom_site_occupancy
  Ce  Ce0  1  0.33472155  0.03524282  0.74446554  1
  Ce  Ce1  1  0.66527845  0.96475718  0.25553446  1
  Ce  Ce2  1  0.95549256  0.25281529  0.05242042  1
  Ce  Ce3  1  0.04450744  0.74718471  0.94757958  1
  Ce  Ce4  1  0.55787502  0.43125993  0.33542305  1
  Ce  Ce5  1  0.44212498  0.56874007  0.66457695  1
  Ce  Ce6  1  0.12740547  0.75513920  0.38364526  1
  Ce  Ce7  1  0.87259453  0.24486080  0.61635474  1
  Sn  Sn0  1  0.04740347  0.35353752  0.37691201  1
  Sn  Sn1  1  0.95259653  0.64646248  0.62308799  1
  Sn  Sn2  1  0.35548823  0.16709108  0.49706021  1
  Sn  Sn3  1  0.64451177  0.83290892  0.50293979  1
  Sn  Sn4  1  0.43556920  0.16936000  0.05019312  1
  Sn  Sn5  1  0.56443080  0.83064000  0.94980688  1
  Sn  Sn6  1  0.32366687  0.60042623  0.13857479  1
  Sn  Sn7  1  0.67633313  0.39957377  0.86142521  1
  Sn  Sn8  1  0.21948956  0.40460659  0.86330317  1
  Sn  Sn9  1  0.78051044  0.59539341  0.13669683  1
  Sn  Sn10  1  0.17380297  0.03883700  0.22210138  1
  Sn  Sn11  1  0.82619703  0.96116300  0.77789862  1
loop_
_geom_bond_atom_site_label_1
_geom_bond_atom_site_label_2
_geom_bond_distance
_geom_bond_site_symmetry_2
Ce0 Sn4 3.206446 1_556
Ce0 Sn7 3.260746 1_555
Ce0 Sn8 3.269557 1_555
Ce0 Sn2 3.271263 1_555
Ce0 Sn11 3.303855 1_445
Ce0 Sn11 3.326973 1_545
Ce0 Sn1 3.531777 1_445
Ce0 Sn3 3.726186 1_545
Ce1 Sn5 3.206446 1_554
Ce1 Sn6 3.260746 1_555
Ce1 Sn9 3.269557 1_555
Ce1 Sn3 3.271263 1_555
Ce1 Sn10 3.303855 1_665
Ce1 Sn10 3.326973 1_565
Ce1 Sn0 3.531777 1_665
Ce1 Sn2 3.726186 1_565
Ce2 Sn9 3.216809 1_555
Ce2 Sn11 3.226396 1_544
Ce2 Sn6 3.248240 1_655
Ce2 Sn8 3.259435 1_654
Ce2 Sn7 3.276625 1_554
Ce2 Sn4 3.285242 1_655
Ce2 Sn4 3.287670 1_555
Ce2 Sn10 3.332524 1_655
Ce2 Sn0 3.416887 1_655
Ce3 Sn8 3.216809 1_555
Ce3 Sn10 3.226396 1_566
Ce3 Sn7 3.248240 1_455
Ce3 Sn9 3.259435 1_456
Ce3 Sn6 3.276625 1_556
Ce3 Sn5 3.285242 1_455
Ce3 Sn5 3.287670 1_555
Ce3 Sn11 3.332524 1_455
Ce3 Sn1 3.416887 1_455
Ce4 Sn4 3.211951 1_555
Ce4 Sn9 3.274676 1_555
Ce4 Sn3 3.275279 1_555
Ce4 Sn6 3.310211 1_555
Ce4 Sn0 3.333536 1_655
Ce4 Sn0 3.344339 1_555
Ce4 Sn2 3.437858 1_555
Ce4 Sn10 3.558189 1_555
Ce4 Sn1 3.619405 1_555
Ce4 Ce5 3.715100 1_555
Ce5 Sn5 3.211951 1_555
Ce5 Sn8 3.274676 1_555
Ce5 Sn2 3.275279 1_555
Ce5 Sn7 3.310211 1_555
Ce5 Sn1 3.333536 1_455
Ce5 Sn1 3.344339 1_555
Ce5 Sn3 3.437858 1_555
Ce5 Sn11 3.558189 1_555
Ce5 Sn0 3.619405 1_555
Ce6 Sn9 3.116141 1_455
Ce6 Sn6 3.170318 1_555
Ce6 Sn3 3.307598 1_555
Ce6 Sn1 3.316819 1_455
Ce6 Sn0 3.324266 1_555
Ce6 Sn2 3.331175 1_565
Ce6 Sn10 3.391284 1_565
Ce6 Sn3 3.605144 1_455
Ce7 Sn8 3.116141 1_655
Ce7 Sn7 3.170318 1_555
Ce7 Sn2 3.307598 1_555
Ce7 Sn0 3.316819 1_655
Ce7 Sn1 3.324266 1_555
Ce7 Sn3 3.331175 1_545
Ce7 Sn11 3.391284 1_545
Ce7 Sn2 3.605144 1_655
Sn0 Sn10 3.020569 1_555
Sn0 Sn2 3.149923 1_555
Sn0 Sn1 3.313468 1_455
Sn1 Sn11 3.020569 1_555
Sn1 Sn3 3.149923 1_555
Sn4 Sn5 3.053757 1_544
Sn6 Sn9 2.946469 1_555
Sn6 Sn8 2.960025 1_554
Sn7 Sn8 2.946469 1_555
Sn7 Sn9 2.960025 1_556
Sn10 Sn2 2.950851 1_555
Sn10 Sn4 3.009669 1_555
Sn11 Sn3 2.950851 1_555
Sn11 Sn5 3.009669 1_555
