# generated using pymatgen
data_Li9Mn2Co5O16
_symmetry_space_group_name_H-M   'P 1'
_cell_length_a   3.00905200
_cell_length_b   9.95954087
_cell_length_c   10.08182331
_cell_angle_alpha   106.77024251
_cell_angle_beta   91.53396620
_cell_angle_gamma   93.04068838
_symmetry_Int_Tables_number   1
_chemical_formula_structural   Li9Mn2Co5O16
_chemical_formula_sum   'Li9 Mn2 Co5 O16'
_cell_volume   288.60260751
_cell_formula_units_Z   1
loop_
 _symmetry_equiv_pos_site_id
 _symmetry_equiv_pos_as_xyz
  1  'x, y, z'
loop_
 _atom_site_type_symbol
 _atom_site_label
 _atom_site_symmetry_multiplicity
 _atom_site_fract_x
 _atom_site_fract_y
 _atom_site_fract_z
 _atom_site_occupancy
  Li  Li0  1  0.99668500  0.00250500  0.25655000  1
  Li  Li1  1  0.50626700  0.25164900  0.74331700  1
  Li  Li2  1  0.99363500  0.50145200  0.25022200  1
  Li  Li3  1  0.50301500  0.25000000  0.25402000  1
  Li  Li4  1  0.00636500  0.49854800  0.74977800  1
  Li  Li5  1  0.49373300  0.74835100  0.25668300  1
  Li  Li6  1  0.49698500  0.75000000  0.74598000  1
  Li  Li7  1  0.00331500  0.99749500  0.74345000  1
  Li  Li8  1  0.50000000  0.00000000  0.50000000  1
  Mn  Mn0  1  0.99874500  0.75081900  0.00145100  1
  Mn  Mn1  1  0.00125500  0.24918100  0.99854900  1
  Co  Co0  1  0.50000000  0.50000000  0.50000000  1
  Co  Co1  1  0.99937900  0.24063100  0.49858900  1
  Co  Co2  1  0.50000000  0.50000000  0.00000000  1
  Co  Co3  1  0.00062100  0.75936900  0.50141100  1
  Co  Co4  1  0.50000000  0.00000000  0.00000000  1
  O  O0  1  0.47331000  0.87603400  0.11712100  1
  O  O1  1  0.99528800  0.14216100  0.61577200  1
  O  O2  1  0.47144900  0.37584500  0.11564500  1
  O  O3  1  0.96886600  0.12168000  0.11293800  1
  O  O4  1  0.47034900  0.37814400  0.61409600  1
  O  O5  1  0.97100600  0.62096500  0.11378200  1
  O  O6  1  0.00979800  0.62868300  0.61026800  1
  O  O7  1  0.48536100  0.86521400  0.61469700  1
  O  O8  1  0.51463900  0.13478600  0.38530300  1
  O  O9  1  0.02899400  0.37903500  0.88621800  1
  O  O10  1  0.52965100  0.62185600  0.38590400  1
  O  O11  1  0.99020200  0.37131700  0.38973200  1
  O  O12  1  0.52855100  0.62415500  0.88435500  1
  O  O13  1  0.00471200  0.85783900  0.38422800  1
  O  O14  1  0.03113400  0.87832000  0.88706200  1
  O  O15  1  0.52669000  0.12396600  0.88287900  1
loop_
_geom_bond_atom_site_label_1
_geom_bond_atom_site_label_2
_geom_bond_distance
_geom_bond_site_symmetry_2
Li0 O3 2.123180 1_555
Li0 O8 2.129958 1_655
Li0 O0 2.166107 1_545
Li0 O13 2.192202 1_645
Li0 O8 2.200294 1_555
Li0 O0 2.212982 1_645
Li1 O1 2.028248 1_455
Li1 O4 2.061588 1_555
Li1 O1 2.114294 1_555
Li1 O15 2.153338 1_555
Li1 O9 2.184371 1_655
Li1 O9 2.235403 1_555
Li2 O5 2.064473 1_555
Li2 O2 2.138368 1_555
Li2 O10 2.142830 1_555
Li2 O10 2.154237 1_655
Li2 O11 2.170152 1_555
Li2 O2 2.188330 1_655
Li3 O8 1.986955 1_555
Li3 O11 2.057111 1_555
Li3 O2 2.130895 1_555
Li3 O3 2.202378 1_455
Li3 O3 2.206626 1_555
Li3 O11 2.251638 1_455
Li4 O9 2.064473 1_555
Li4 O12 2.138368 1_555
Li4 O4 2.142830 1_555
Li4 O4 2.154237 1_455
Li4 O6 2.170152 1_555
Li4 O12 2.188330 1_455
Li5 O13 2.028248 1_655
Li5 O10 2.061588 1_555
Li5 O13 2.114294 1_555
Li5 O0 2.153338 1_555
Li5 O5 2.184371 1_455
Li5 O5 2.235403 1_555
Li6 O7 1.986955 1_555
Li6 O6 2.057111 1_555
Li6 O12 2.130895 1_555
Li6 O14 2.202378 1_655
Li6 O14 2.206626 1_555
Li6 O6 2.251638 1_655
Li7 O14 2.123180 1_555
Li7 O7 2.129958 1_455
Li7 O15 2.166107 1_565
Li7 O1 2.192202 1_465
Li7 O7 2.200294 1_555
Li7 O15 2.212982 1_465
Li8 O8 2.008330 1_555
Li8 O7 2.008330 1_545
Li8 O13 2.077855 1_545
Li8 O1 2.077855 1_555
Li8 O13 2.245625 1_645
Li8 O1 2.245625 1_455
Mn0 O14 1.946789 1_654
Mn0 O5 1.949597 1_555
Mn0 O0 1.958825 1_655
Mn0 O12 1.961804 1_554
Mn0 O0 2.209881 1_555
Mn0 O12 2.231889 1_654
Mn1 O3 1.946789 1_456
Mn1 O9 1.949597 1_555
Mn1 O15 1.958825 1_455
Mn1 O2 1.961804 1_556
Mn1 O15 2.209881 1_555
Mn1 O2 2.231889 1_456
Co0 O10 1.898329 1_555
Co0 O4 1.898329 1_555
Co0 O11 2.027202 1_455
Co0 O6 2.027202 1_655
Co0 O11 2.126111 1_555
Co0 O6 2.126111 1_555
Co1 O1 1.739487 1_555
Co1 O8 1.896354 1_555
Co1 O11 1.930236 1_555
Co1 O4 2.006383 1_655
Co1 O8 2.095954 1_655
Co1 O4 2.275101 1_555
Co2 O9 1.926220 1_554
Co2 O5 1.926220 1_555
Co2 O12 1.929190 1_554
Co2 O2 1.929190 1_555
Co2 O5 2.191979 1_455
Co2 O9 2.191979 1_654
Co3 O13 1.739487 1_555
Co3 O7 1.896354 1_555
Co3 O6 1.930236 1_555
Co3 O10 2.006383 1_455
Co3 O7 2.095954 1_455
Co3 O10 2.275101 1_555
Co4 O14 1.921433 1_544
Co4 O3 1.921433 1_555
Co4 O15 1.939307 1_554
Co4 O0 1.939307 1_545
Co4 O3 2.196817 1_455
Co4 O14 2.196817 1_644
