# generated using pymatgen
data_Na2Mn(SiO3)2
_symmetry_space_group_name_H-M   'P 1'
_cell_length_a   7.46025500
_cell_length_b   10.41894800
_cell_length_c   10.46338400
_cell_angle_alpha   90.00000000
_cell_angle_beta   90.00000000
_cell_angle_gamma   90.00000000
_symmetry_Int_Tables_number   1
_chemical_formula_structural   Na2Mn(SiO3)2
_chemical_formula_sum   'Na12 Mn6 Si12 O36'
_cell_volume   813.29800480
_cell_formula_units_Z   6
loop_
 _symmetry_equiv_pos_site_id
 _symmetry_equiv_pos_as_xyz
  1  'x, y, z'
loop_
 _atom_site_type_symbol
 _atom_site_label
 _atom_site_symmetry_multiplicity
 _atom_site_fract_x
 _atom_site_fract_y
 _atom_site_fract_z
 _atom_site_occupancy
  Na  Na0  1  0.01973200  0.23486100  0.76623500  1
  Na  Na1  1  0.98026800  0.23486100  0.23376500  1
  Na  Na2  1  0.48026800  0.26513900  0.26623500  1
  Na  Na3  1  0.51973200  0.26513900  0.73376500  1
  Na  Na4  1  0.98026800  0.76513900  0.23376500  1
  Na  Na5  1  0.01973200  0.76513900  0.76623500  1
  Na  Na6  1  0.51973200  0.73486100  0.73376500  1
  Na  Na7  1  0.48026800  0.73486100  0.26623500  1
  Na  Na8  1  0.50000000  0.00000000  0.00000000  1
  Na  Na9  1  0.00000000  0.50000000  0.50000000  1
  Na  Na10  1  0.00000000  0.50000000  0.00000000  1
  Na  Na11  1  0.50000000  0.00000000  0.50000000  1
  Mn  Mn0  1  0.50000000  0.50000000  0.50000000  1
  Mn  Mn1  1  0.00000000  0.00000000  0.00000000  1
  Mn  Mn2  1  0.23275600  0.50000000  0.26293200  1
  Mn  Mn3  1  0.76724400  0.50000000  0.73706800  1
  Mn  Mn4  1  0.26724400  0.00000000  0.76293200  1
  Mn  Mn5  1  0.73275600  0.00000000  0.23706800  1
  Si  Si0  1  0.21742700  0.22764500  0.49295300  1
  Si  Si1  1  0.78257300  0.22764500  0.50704700  1
  Si  Si2  1  0.28257300  0.27235500  0.99295300  1
  Si  Si3  1  0.71742700  0.27235500  0.00704700  1
  Si  Si4  1  0.78257300  0.77235500  0.50704700  1
  Si  Si5  1  0.21742700  0.77235500  0.49295300  1
  Si  Si6  1  0.71742700  0.72764500  0.00704700  1
  Si  Si7  1  0.28257300  0.72764500  0.99295300  1
  Si  Si8  1  0.25201400  0.50000000  0.77958400  1
  Si  Si9  1  0.74798600  0.50000000  0.22041600  1
  Si  Si10  1  0.24798600  0.00000000  0.27958400  1
  Si  Si11  1  0.75201400  0.00000000  0.72041600  1
  O  O0  1  0.44468000  0.50000000  0.70819300  1
  O  O1  1  0.55532000  0.50000000  0.29180700  1
  O  O2  1  0.05532000  0.00000000  0.20819300  1
  O  O3  1  0.94468000  0.00000000  0.79180700  1
  O  O4  1  0.05986500  0.50000000  0.70694500  1
  O  O5  1  0.94013500  0.50000000  0.29305500  1
  O  O6  1  0.44013500  0.00000000  0.20694500  1
  O  O7  1  0.55986500  0.00000000  0.79305500  1
  O  O8  1  0.24405100  0.37295100  0.87407700  1
  O  O9  1  0.75594900  0.37295100  0.12592300  1
  O  O10  1  0.25594900  0.12704900  0.37407700  1
  O  O11  1  0.74405100  0.12704900  0.62592300  1
  O  O12  1  0.75594900  0.62704900  0.12592300  1
  O  O13  1  0.24405100  0.62704900  0.87407700  1
  O  O14  1  0.74405100  0.87295100  0.62592300  1
  O  O15  1  0.25594900  0.87295100  0.37407700  1
  O  O16  1  0.21282600  0.33737800  0.12541600  1
  O  O17  1  0.78717400  0.33737800  0.87458400  1
  O  O18  1  0.28717400  0.16262200  0.62541600  1
  O  O19  1  0.71282600  0.16262200  0.37458400  1
  O  O20  1  0.78717400  0.66262200  0.87458400  1
  O  O21  1  0.21282600  0.66262200  0.12541600  1
  O  O22  1  0.71282600  0.83737800  0.37458400  1
  O  O23  1  0.28717400  0.83737800  0.62541600  1
  O  O24  1  0.20268100  0.13733800  0.94081900  1
  O  O25  1  0.79731900  0.13733800  0.05918100  1
  O  O26  1  0.29731900  0.36266200  0.44081900  1
  O  O27  1  0.70268100  0.36266200  0.55918100  1
  O  O28  1  0.79731900  0.86266200  0.05918100  1
  O  O29  1  0.20268100  0.86266200  0.94081900  1
  O  O30  1  0.70268100  0.63733800  0.55918100  1
  O  O31  1  0.29731900  0.63733800  0.44081900  1
  O  O32  1  0.50000000  0.24917400  0.00000000  1
  O  O33  1  0.00000000  0.25082600  0.50000000  1
  O  O34  1  0.50000000  0.75082600  0.00000000  1
  O  O35  1  0.00000000  0.74917400  0.50000000  1
loop_
_geom_bond_atom_site_label_1
_geom_bond_atom_site_label_2
_geom_bond_distance
_geom_bond_site_symmetry_2
Na0 O17 2.331560 1_455
Na0 O8 2.478670 1_555
Na0 O24 2.496440 1_555
Na0 O3 2.524464 1_455
Na0 O18 2.591966 1_555
Na0 O11 2.765324 1_455
Na0 O33 2.794561 1_555
Na0 O4 2.847059 1_555
Na1 O16 2.331560 1_655
Na1 O9 2.478670 1_555
Na1 O25 2.496440 1_555
Na1 O2 2.524464 1_655
Na1 O19 2.591966 1_555
Na1 O10 2.765324 1_655
Na1 O33 2.794561 1_655
Na1 O5 2.847059 1_555
Na2 O19 2.331560 1_555
Na2 O10 2.478670 1_555
Na2 O26 2.496440 1_555
Na2 O1 2.524464 1_555
Na2 O16 2.591966 1_555
Na2 O9 2.765324 1_555
Na2 O32 2.794561 1_555
Na2 O6 2.847059 1_555
Na3 O18 2.331560 1_555
Na3 O11 2.478670 1_555
Na3 O27 2.496440 1_555
Na3 O0 2.524464 1_555
Na3 O17 2.591966 1_555
Na3 O8 2.765324 1_555
Na3 O32 2.794561 1_556
Na3 O7 2.847059 1_555
Na4 O21 2.331560 1_655
Na4 O12 2.478670 1_555
Na4 O28 2.496440 1_555
Na4 O2 2.524464 1_665
Na4 O22 2.591966 1_555
Na4 O15 2.765324 1_655
Na4 O35 2.794561 1_655
Na4 O5 2.847059 1_555
Na5 O20 2.331560 1_455
Na5 O13 2.478670 1_555
Na5 O29 2.496440 1_555
Na5 O3 2.524464 1_465
Na5 O23 2.591966 1_555
Na5 O14 2.765324 1_455
Na5 O35 2.794561 1_555
Na5 O4 2.847059 1_555
Na6 O23 2.331560 1_555
Na6 O14 2.478670 1_555
Na6 O30 2.496440 1_555
Na6 O0 2.524464 1_555
Na6 O20 2.591966 1_555
Na6 O13 2.765324 1_555
Na6 O34 2.794561 1_556
Na6 O7 2.847059 1_565
Na7 O22 2.331560 1_555
Na7 O15 2.478670 1_555
Na7 O31 2.496440 1_555
Na7 O1 2.524464 1_555
Na7 O21 2.591966 1_555
Na7 O12 2.765324 1_555
Na7 O34 2.794561 1_555
Na7 O6 2.847059 1_565
Na8 O7 2.210922 1_554
Na8 O6 2.210922 1_555
Na8 O32 2.596131 1_555
Na8 O34 2.596131 1_545
Na8 O25 2.711242 1_555
Na8 O24 2.711242 1_554
Na8 O29 2.711242 1_544
Na8 O28 2.711242 1_545
Na9 O4 2.210922 1_555
Na9 O5 2.210922 1_455
Na9 O33 2.596131 1_555
Na9 O35 2.596131 1_555
Na9 O30 2.711242 1_455
Na9 O27 2.711242 1_455
Na9 O31 2.711242 1_555
Na9 O26 2.711242 1_555
Na10 O13 2.608281 1_554
Na10 O8 2.608281 1_554
Na10 O12 2.608281 1_455
Na10 O9 2.608281 1_455
Na10 O21 2.667170 1_555
Na10 O16 2.667170 1_555
Na10 O20 2.667170 1_454
Na10 O17 2.667170 1_454
Na11 O10 2.608281 1_555
Na11 O11 2.608281 1_555
Na11 O14 2.608281 1_545
Na11 O15 2.608281 1_545
Na11 O18 2.667170 1_555
Na11 O23 2.667170 1_545
Na11 O19 2.667170 1_555
Na11 O22 2.667170 1_545
Mn0 O27 2.171929 1_555
Mn0 O30 2.171929 1_555
Mn0 O31 2.171929 1_555
Mn0 O26 2.171929 1_555
Mn0 O0 2.217152 1_555
Mn0 O1 2.217152 1_555
Mn1 O25 2.171929 1_455
Mn1 O24 2.171929 1_554
Mn1 O28 2.171929 1_445
Mn1 O29 2.171929 1_544
Mn1 O2 2.217152 1_555
Mn1 O3 2.217152 1_454
Mn2 O5 2.205664 1_455
Mn2 O21 2.227849 1_555
Mn2 O16 2.227849 1_555
Mn2 O31 2.396655 1_555
Mn2 O26 2.396655 1_555
Mn2 O1 2.425302 1_555
Mn3 O4 2.205664 1_655
Mn3 O20 2.227849 1_555
Mn3 O17 2.227849 1_555
Mn3 O30 2.396655 1_555
Mn3 O27 2.396655 1_555
Mn3 O0 2.425302 1_555
Mn4 O7 2.205664 1_555
Mn4 O18 2.227849 1_555
Mn4 O23 2.227849 1_545
Mn4 O24 2.396655 1_555
Mn4 O29 2.396655 1_545
Mn4 O3 2.425302 1_455
Mn5 O6 2.205664 1_555
Mn5 O19 2.227849 1_555
Mn5 O22 2.227849 1_545
Mn5 O25 2.396655 1_555
Mn5 O28 2.396655 1_545
Mn5 O2 2.425302 1_655
O0 Si8 1.619857 1_555
O1 Si9 1.619857 1_555
O2 Si10 1.619857 1_555
O3 Si11 1.619857 1_555
O4 Si8 1.622511 1_555
O5 Si9 1.622511 1_555
O6 Si10 1.622511 1_555
O7 Si11 1.622511 1_555
O8 Si2 1.651746 1_555
O8 Si8 1.653274 1_555
O9 Si3 1.651746 1_555
O9 Si9 1.653274 1_555
O10 Si0 1.651746 1_555
O10 Si10 1.653274 1_555
O11 Si1 1.651746 1_555
O11 Si11 1.653274 1_555
O12 Si6 1.651746 1_555
O12 Si9 1.653274 1_555
O13 Si7 1.651746 1_555
O13 Si8 1.653274 1_555
O14 Si4 1.651746 1_555
O14 Si11 1.653274 1_565
O15 Si5 1.651746 1_555
O15 Si10 1.653274 1_565
O16 Si2 1.628109 1_554
O17 Si3 1.628109 1_556
O18 Si0 1.628109 1_555
O19 Si1 1.628109 1_555
O20 Si6 1.628109 1_556
O21 Si7 1.628109 1_554
O22 Si4 1.628109 1_555
O23 Si5 1.628109 1_555
O24 Si2 1.622253 1_555
O25 Si3 1.622253 1_555
O26 Si0 1.622253 1_555
O27 Si1 1.622253 1_555
O28 Si6 1.622253 1_555
O29 Si7 1.622253 1_555
O30 Si4 1.622253 1_555
O31 Si5 1.622253 1_555
O32 Si3 1.641600 1_555
O32 Si2 1.641600 1_554
O33 Si0 1.641600 1_555
O33 Si1 1.641600 1_455
O34 Si6 1.641600 1_555
O34 Si7 1.641600 1_554
O35 Si5 1.641600 1_555
O35 Si4 1.641600 1_455
