# generated using pymatgen
data_MgSi2
_symmetry_space_group_name_H-M   'P 1'
_cell_length_a   6.02384000
_cell_length_b   7.37907400
_cell_length_c   9.44752100
_cell_angle_alpha   90.00000000
_cell_angle_beta   90.00000000
_cell_angle_gamma   90.00000000
_symmetry_Int_Tables_number   1
_chemical_formula_structural   MgSi2
_chemical_formula_sum   'Mg8 Si16'
_cell_volume   419.94572018
_cell_formula_units_Z   8
loop_
 _symmetry_equiv_pos_site_id
 _symmetry_equiv_pos_as_xyz
  1  'x, y, z'
loop_
 _atom_site_type_symbol
 _atom_site_label
 _atom_site_symmetry_multiplicity
 _atom_site_fract_x
 _atom_site_fract_y
 _atom_site_fract_z
 _atom_site_occupancy
  Mg  Mg0  1  0.75000000  0.88675700  0.63855600  1
  Mg  Mg1  1  0.25000000  0.70493400  0.10223200  1
  Mg  Mg2  1  0.75000000  0.20493400  0.39776800  1
  Mg  Mg3  1  0.25000000  0.38675700  0.86144400  1
  Mg  Mg4  1  0.25000000  0.11324300  0.36144400  1
  Mg  Mg5  1  0.75000000  0.29506600  0.89776800  1
  Mg  Mg6  1  0.25000000  0.79506600  0.60223200  1
  Mg  Mg7  1  0.75000000  0.61324300  0.13855600  1
  Si  Si0  1  0.94767600  0.49945900  0.63007200  1
  Si  Si1  1  0.45165500  0.32213700  0.13775700  1
  Si  Si2  1  0.95165500  0.82213700  0.36224300  1
  Si  Si3  1  0.44767600  0.99945900  0.86992800  1
  Si  Si4  1  0.05232400  0.50054100  0.36992800  1
  Si  Si5  1  0.54834500  0.67786300  0.86224300  1
  Si  Si6  1  0.04834500  0.17786300  0.63775700  1
  Si  Si7  1  0.55232400  0.00054100  0.13007200  1
  Si  Si8  1  0.54834500  0.82213700  0.36224300  1
  Si  Si9  1  0.05232400  0.99945900  0.86992800  1
  Si  Si10  1  0.55232400  0.49945900  0.63007200  1
  Si  Si11  1  0.04834500  0.32213700  0.13775700  1
  Si  Si12  1  0.45165500  0.17786300  0.63775700  1
  Si  Si13  1  0.94767600  0.00054100  0.13007200  1
  Si  Si14  1  0.44767600  0.50054100  0.36992800  1
  Si  Si15  1  0.95165500  0.67786300  0.86224300  1
loop_
_geom_bond_atom_site_label_1
_geom_bond_atom_site_label_2
_geom_bond_distance
_geom_bond_site_symmetry_2
Mg0 Si6 2.800754 1_665
Mg0 Si12 2.800754 1_565
Mg0 Si5 2.884029 1_555
Mg0 Si15 2.884029 1_555
Mg0 Si2 2.918480 1_555
Mg0 Si8 2.918480 1_555
Mg0 Si3 2.964175 1_555
Mg0 Si9 2.964175 1_655
Mg0 Si10 3.097087 1_555
Mg0 Si0 3.097087 1_555
Mg1 Si13 2.853746 1_465
Mg1 Si7 2.853746 1_565
Mg1 Si5 2.900073 1_554
Mg1 Si15 2.900073 1_454
Mg1 Si1 3.093071 1_555
Mg1 Si11 3.093071 1_555
Mg1 Si8 3.164178 1_555
Mg1 Si2 3.164178 1_455
Mg1 Si4 3.176296 1_555
Mg1 Si14 3.176296 1_555
Mg2 Si14 2.853746 1_555
Mg2 Si4 2.853746 1_655
Mg2 Si12 2.900073 1_555
Mg2 Si6 2.900073 1_655
Mg2 Si8 3.093071 1_545
Mg2 Si2 3.093071 1_545
Mg2 Si1 3.164178 1_555
Mg2 Si11 3.164178 1_655
Mg2 Si7 3.176296 1_555
Mg2 Si13 3.176296 1_555
Mg3 Si5 2.800754 1_555
Mg3 Si15 2.800754 1_455
Mg3 Si12 2.884029 1_555
Mg3 Si6 2.884029 1_555
Mg3 Si11 2.918480 1_556
Mg3 Si1 2.918480 1_556
Mg3 Si0 2.964175 1_455
Mg3 Si10 2.964175 1_555
Mg3 Si3 3.097087 1_545
Mg3 Si9 3.097087 1_545
Mg4 Si2 2.800754 1_445
Mg4 Si8 2.800754 1_545
Mg4 Si1 2.884029 1_555
Mg4 Si11 2.884029 1_555
Mg4 Si12 2.918480 1_555
Mg4 Si6 2.918480 1_555
Mg4 Si13 2.964175 1_455
Mg4 Si7 2.964175 1_555
Mg4 Si14 3.097087 1_555
Mg4 Si4 3.097087 1_555
Mg5 Si9 2.853746 1_645
Mg5 Si3 2.853746 1_545
Mg5 Si1 2.900073 1_556
Mg5 Si11 2.900073 1_656
Mg5 Si5 3.093071 1_555
Mg5 Si15 3.093071 1_555
Mg5 Si6 3.164178 1_655
Mg5 Si12 3.164178 1_555
Mg5 Si10 3.176296 1_555
Mg5 Si0 3.176296 1_555
Mg6 Si10 2.853746 1_555
Mg6 Si0 2.853746 1_455
Mg6 Si8 2.900073 1_555
Mg6 Si2 2.900073 1_455
Mg6 Si12 3.093071 1_565
Mg6 Si6 3.093071 1_565
Mg6 Si5 3.164178 1_555
Mg6 Si15 3.164178 1_455
Mg6 Si9 3.176296 1_555
Mg6 Si3 3.176296 1_555
Mg7 Si1 2.800754 1_555
Mg7 Si11 2.800754 1_655
Mg7 Si8 2.884029 1_555
Mg7 Si2 2.884029 1_555
Mg7 Si5 2.918480 1_554
Mg7 Si15 2.918480 1_554
Mg7 Si4 2.964175 1_655
Mg7 Si14 2.964175 1_555
Mg7 Si7 3.097087 1_565
Mg7 Si13 3.097087 1_565
Si0 Si10 2.381537 1_555
Si0 Si6 2.450412 1_655
Si0 Si4 2.537285 1_655
Si0 Si15 2.558283 1_555
Si1 Si11 2.429475 1_555
Si1 Si7 2.450412 1_555
Si1 Si14 2.558283 1_555
Si2 Si8 2.429475 1_555
Si2 Si4 2.450412 1_655
Si3 Si9 2.381537 1_555
Si3 Si5 2.450412 1_555
Si3 Si7 2.537285 1_566
Si6 Si9 2.558283 1_545
Si7 Si8 2.558283 1_545
Si10 Si12 2.450412 1_555
Si10 Si14 2.537285 1_555
Si10 Si5 2.558283 1_555
Si11 Si13 2.450412 1_455
Si11 Si4 2.558283 1_555
Si12 Si6 2.429475 1_555
Si12 Si3 2.558283 1_545
Si13 Si7 2.381537 1_555
Si13 Si9 2.537285 1_644
Si13 Si2 2.558283 1_545
Si14 Si4 2.381537 1_555
Si14 Si8 2.450412 1_555
Si15 Si5 2.429475 1_555
Si15 Si9 2.450412 1_655
