# generated using pymatgen
data_Ti13Sb3
_symmetry_space_group_name_H-M   'P 1'
_cell_length_a   4.75317053
_cell_length_b   5.69570085
_cell_length_c   10.45582745
_cell_angle_alpha   90.00000000
_cell_angle_beta   90.00000000
_cell_angle_gamma   90.00000000
_symmetry_Int_Tables_number   1
_chemical_formula_structural   Ti13Sb3
_chemical_formula_sum   'Ti13 Sb3'
_cell_volume   283.06682556
_cell_formula_units_Z   1
loop_
 _symmetry_equiv_pos_site_id
 _symmetry_equiv_pos_as_xyz
  1  'x, y, z'
loop_
 _atom_site_type_symbol
 _atom_site_label
 _atom_site_symmetry_multiplicity
 _atom_site_fract_x
 _atom_site_fract_y
 _atom_site_fract_z
 _atom_site_occupancy
  Ti  Ti0  1  0.50000000  -0.00000000  0.18017975  1
  Ti  Ti1  1  0.50000000  0.50000000  0.67844206  1
  Ti  Ti2  1  0.50000000  0.73698695  0.42091617  1
  Ti  Ti3  1  0.50000000  0.24470036  0.93627643  1
  Ti  Ti4  1  0.50000000  0.26301305  0.42091617  1
  Ti  Ti5  1  0.50000000  0.75529964  0.93627643  1
  Ti  Ti6  1  -0.00000000  0.50000000  0.31873437  1
  Ti  Ti7  1  -0.00000000  -0.00000000  0.82089610  1
  Ti  Ti8  1  -0.00000000  0.75748041  0.07209028  1
  Ti  Ti9  1  0.00000000  0.26071144  0.57345235  1
  Ti  Ti10  1  0.00000000  0.24251959  0.07209028  1
  Ti  Ti11  1  -0.00000000  0.73928856  0.57345235  1
  Ti  Ti12  1  0.50000000  0.50000000  0.16611436  1
  Sb  Sb0  1  0.50000000  -0.00000000  0.66579967  1
  Sb  Sb1  1  0.00000000  -0.00000000  0.33348447  1
  Sb  Sb2  1  -0.00000000  0.50000000  0.83083175  1
loop_
_geom_bond_atom_site_label_1
_geom_bond_atom_site_label_2
_geom_bond_distance
_geom_bond_site_symmetry_2
Ti0 Ti12 2.851645 1_545
Ti0 Ti12 2.851645 1_555
Ti0 Ti5 2.906215 1_544
Ti0 Ti3 2.906215 1_554
Ti0 Ti4 2.929150 1_555
Ti0 Ti2 2.929150 1_545
Ti0 Ti10 2.972116 1_555
Ti0 Ti8 2.972116 1_545
Ti0 Ti8 2.972116 1_645
Ti0 Ti10 2.972116 1_655
Ti1 Ti11 2.951400 1_655
Ti1 Ti9 2.951400 1_655
Ti1 Ti11 2.951400 1_555
Ti1 Ti9 2.951400 1_555
Ti1 Ti4 3.012030 1_555
Ti1 Ti2 3.012030 1_555
Ti1 Ti3 3.063031 1_555
Ti1 Ti5 3.063031 1_555
Ti2 Ti4 2.699614 1_555
Ti2 Ti6 2.934554 1_555
Ti2 Ti6 2.934554 1_655
Ti2 Ti4 2.996087 1_565
Ti3 Ti5 2.787480 1_545
Ti3 Ti5 2.908221 1_555
Ti3 Ti7 3.007667 1_555
Ti3 Ti7 3.007667 1_655
Ti4 Ti9 2.862169 1_655
Ti4 Ti9 2.862169 1_555
Ti4 Ti6 2.934554 1_555
Ti4 Ti6 2.934554 1_655
Ti5 Ti8 2.768545 1_556
Ti5 Ti8 2.768545 1_656
Ti5 Ti7 3.007667 1_565
Ti5 Ti7 3.007667 1_665
Ti6 Ti8 2.966694 1_555
Ti6 Ti9 2.991762 1_555
Ti7 Ti8 2.967532 1_546
Ti7 Ti9 2.983083 1_555
Ti10 Ti8 2.762638 1_545
Ti10 Ti3 2.768545 1_554
Ti10 Ti3 2.768545 1_454
Ti10 Ti8 2.933063 1_555
Ti10 Ti12 2.960634 1_455
Ti10 Ti12 2.960634 1_555
Ti10 Ti6 2.966694 1_555
Ti10 Ti7 2.967532 1_554
Ti11 Ti9 2.725832 1_555
Ti11 Ti2 2.862169 1_455
Ti11 Ti2 2.862169 1_555
Ti11 Ti9 2.969869 1_565
Ti11 Ti7 2.983083 1_565
Ti11 Ti6 2.991762 1_555
Ti12 Ti5 2.808834 1_554
Ti12 Ti3 2.808834 1_554
Ti12 Ti6 2.862627 1_555
Ti12 Ti6 2.862627 1_655
Ti12 Ti8 2.960634 1_555
Ti12 Ti8 2.960634 1_655
Ti12 Ti2 2.986595 1_555
Ti12 Ti4 2.986595 1_555
Sb0 Ti1 2.850917 1_545
Sb0 Ti1 2.850917 1_555
Sb0 Ti7 2.877142 1_555
Sb0 Ti7 2.877142 1_655
Sb0 Ti9 2.964036 1_655
Sb0 Ti11 2.964036 1_645
Sb0 Ti9 2.964036 1_555
Sb0 Ti11 2.964036 1_545
Sb0 Ti4 2.966494 1_555
Sb0 Ti2 2.966494 1_545
Sb0 Ti5 3.152844 1_545
Sb0 Ti3 3.152844 1_555
Sb1 Ti6 2.852023 1_555
Sb1 Ti6 2.852023 1_545
Sb1 Ti0 2.866624 1_455
Sb1 Ti0 2.866624 1_555
Sb1 Ti9 2.915549 1_555
Sb1 Ti11 2.915549 1_545
Sb1 Ti2 2.954319 1_545
Sb1 Ti4 2.954319 1_555
Sb1 Ti2 2.954319 1_445
Sb1 Ti4 2.954319 1_455
Sb1 Ti10 3.062325 1_555
Sb1 Ti8 3.062325 1_545
Sb2 Ti7 2.849745 1_555
Sb2 Ti7 2.849745 1_565
Sb2 Ti1 2.861285 1_555
Sb2 Ti1 2.861285 1_455
Sb2 Ti10 2.917878 1_556
Sb2 Ti8 2.917878 1_556
Sb2 Ti5 2.996352 1_555
Sb2 Ti3 2.996352 1_455
Sb2 Ti3 2.996352 1_555
Sb2 Ti5 2.996352 1_455
Sb2 Ti9 3.016561 1_555
Sb2 Ti11 3.016561 1_555
