# generated using pymatgen
data_UMnC2
_symmetry_space_group_name_H-M   'P 1'
_cell_length_a   5.22318800
_cell_length_b   2.77390900
_cell_length_c   12.25490000
_cell_angle_alpha   90.00000000
_cell_angle_beta   90.00000000
_cell_angle_gamma   90.00000000
_symmetry_Int_Tables_number   1
_chemical_formula_structural   UMnC2
_chemical_formula_sum   'U4 Mn4 C8'
_cell_volume   177.55693485
_cell_formula_units_Z   4
loop_
 _symmetry_equiv_pos_site_id
 _symmetry_equiv_pos_as_xyz
  1  'x, y, z'
loop_
 _atom_site_type_symbol
 _atom_site_label
 _atom_site_symmetry_multiplicity
 _atom_site_fract_x
 _atom_site_fract_y
 _atom_site_fract_z
 _atom_site_occupancy
  U  U0  1  0.37889200  0.25000000  0.08849700  1
  U  U1  1  0.87889200  0.25000000  0.41150300  1
  U  U2  1  0.62110800  0.75000000  0.91150300  1
  U  U3  1  0.12110800  0.75000000  0.58849700  1
  Mn  Mn0  1  0.10334900  0.25000000  0.80382100  1
  Mn  Mn1  1  0.60334900  0.25000000  0.69617900  1
  Mn  Mn2  1  0.89665100  0.75000000  0.19617900  1
  Mn  Mn3  1  0.39665100  0.75000000  0.30382100  1
  C  C0  1  0.14805100  0.25000000  0.25348900  1
  C  C1  1  0.64805100  0.25000000  0.24651100  1
  C  C2  1  0.85194900  0.75000000  0.74651100  1
  C  C3  1  0.35194900  0.75000000  0.75348900  1
  C  C4  1  0.99637400  0.25000000  0.96870900  1
  C  C5  1  0.49637400  0.25000000  0.53129100  1
  C  C6  1  0.00362600  0.75000000  0.03129100  1
  C  C7  1  0.50362600  0.75000000  0.46870900  1
loop_
_geom_bond_atom_site_label_1
_geom_bond_atom_site_label_2
_geom_bond_distance
_geom_bond_site_symmetry_2
C0 Mn3 1.997539 1_555
C0 Mn3 1.997539 1_545
C0 Mn2 2.034985 1_455
C0 Mn2 2.034985 1_445
C0 U0 2.354166 1_555
C0 U1 2.392966 1_455
C1 Mn2 1.997539 1_545
C1 Mn2 1.997539 1_555
C1 Mn3 2.034985 1_555
C1 Mn3 2.034985 1_545
C1 U1 2.354166 1_555
C1 U0 2.392966 1_555
C2 Mn1 1.997539 1_555
C2 Mn1 1.997539 1_565
C2 Mn0 2.034985 1_655
C2 Mn0 2.034985 1_665
C2 U2 2.354166 1_555
C2 U3 2.392966 1_655
C3 Mn0 1.997539 1_565
C3 Mn0 1.997539 1_555
C3 Mn1 2.034985 1_555
C3 Mn1 2.034985 1_565
C3 U3 2.354166 1_555
C3 U2 2.392966 1_555
C4 C6 1.585329 1_646
C4 C6 1.585329 1_656
C4 Mn0 2.096515 1_655
C4 U0 2.479285 1_656
C4 U2 2.501410 1_555
C4 U2 2.501410 1_545
C5 C7 1.585329 1_545
C5 C7 1.585329 1_555
C5 Mn1 2.096515 1_555
C5 U1 2.479285 1_555
C5 U3 2.501410 1_545
C5 U3 2.501410 1_555
C6 Mn2 2.096515 1_455
C6 U2 2.479285 1_454
C6 U0 2.501410 1_565
C6 U0 2.501410 1_555
C7 Mn3 2.096515 1_555
C7 U3 2.479285 1_555
C7 U1 2.501410 1_555
C7 U1 2.501410 1_565
