# generated using pymatgen
data_Nd4NiS7
_symmetry_space_group_name_H-M   'P 1'
_cell_length_a   9.80764772
_cell_length_b   9.80764772
_cell_length_c   6.86166200
_cell_angle_alpha   90.00000000
_cell_angle_beta   90.00000000
_cell_angle_gamma   119.99999813
_symmetry_Int_Tables_number   1
_chemical_formula_structural   Nd4NiS7
_chemical_formula_sum   'Nd8 Ni2 S14'
_cell_volume   571.59665359
_cell_formula_units_Z   2
loop_
 _symmetry_equiv_pos_site_id
 _symmetry_equiv_pos_as_xyz
  1  'x, y, z'
loop_
 _atom_site_type_symbol
 _atom_site_label
 _atom_site_symmetry_multiplicity
 _atom_site_fract_x
 _atom_site_fract_y
 _atom_site_fract_z
 _atom_site_occupancy
  Nd  Nd0  1  0.66666700  0.33333300  0.83591700  1
  Nd  Nd1  1  0.33333300  0.66666700  0.33591700  1
  Nd  Nd2  1  0.62712400  0.84232000  0.79073600  1
  Nd  Nd3  1  0.21519600  0.37287600  0.79073600  1
  Nd  Nd4  1  0.37287600  0.15768000  0.29073600  1
  Nd  Nd5  1  0.15768000  0.78480400  0.79073600  1
  Nd  Nd6  1  0.78480400  0.62712400  0.29073600  1
  Nd  Nd7  1  0.84232000  0.21519600  0.29073600  1
  Ni  Ni0  1  0.00000000  0.00000000  0.96433700  1
  Ni  Ni1  1  0.00000000  0.00000000  0.46433700  1
  S  S0  1  0.48676900  0.55712400  0.54798000  1
  S  S1  1  0.07035400  0.51323100  0.54798000  1
  S  S2  1  0.51323100  0.44287600  0.04798000  1
  S  S3  1  0.44287600  0.92964600  0.54798000  1
  S  S4  1  0.92964600  0.48676900  0.04798000  1
  S  S5  1  0.55712400  0.07035400  0.04798000  1
  S  S6  1  0.66666700  0.33333300  0.44939200  1
  S  S7  1  0.33333300  0.66666700  0.94939200  1
  S  S8  1  0.90283400  0.12486000  0.67940200  1
  S  S9  1  0.22202600  0.09716600  0.67940200  1
  S  S10  1  0.09716600  0.87514000  0.17940200  1
  S  S11  1  0.87514000  0.77797400  0.67940200  1
  S  S12  1  0.77797400  0.90283400  0.17940200  1
  S  S13  1  0.12486000  0.22202600  0.17940200  1
loop_
_geom_bond_atom_site_label_1
_geom_bond_atom_site_label_2
_geom_bond_distance
_geom_bond_site_symmetry_2
Nd0 S6 2.652204 1_555
Nd0 S2 2.674488 1_556
Nd0 S5 2.674488 1_556
Nd0 S4 2.674488 1_556
Nd1 S7 2.652204 1_554
Nd1 S0 2.674488 1_555
Nd1 S3 2.674488 1_555
Nd1 S1 2.674488 1_555
Nd2 S7 2.737067 1_555
Nd2 S8 2.842745 1_565
Nd2 S3 2.884644 1_555
Nd2 S11 2.904096 1_555
Nd2 S0 2.939882 1_555
Nd2 S12 2.962325 1_556
Nd2 S5 3.181860 1_566
Nd3 S7 2.737068 1_555
Nd3 S9 2.842745 1_555
Nd3 S0 2.884638 1_555
Nd3 S8 2.904096 1_455
Nd3 S1 2.939889 1_555
Nd3 S13 2.962325 1_556
Nd3 S2 3.181868 1_556
Nd4 S6 2.737067 1_555
Nd4 S10 2.842745 1_545
Nd4 S5 2.884644 1_555
Nd4 S13 2.904096 1_555
Nd4 S2 2.939882 1_555
Nd4 S9 2.962325 1_555
Nd4 S3 3.181860 1_545
Nd5 S7 2.737060 1_555
Nd5 S11 2.842745 1_455
Nd5 S1 2.884636 1_555
Nd5 S9 2.904096 1_565
Nd5 S3 2.939882 1_555
Nd5 S10 2.962325 1_556
Nd5 S4 3.181866 1_456
Nd6 S6 2.737068 1_555
Nd6 S12 2.842745 1_555
Nd6 S2 2.884638 1_555
Nd6 S10 2.904096 1_655
Nd6 S4 2.939889 1_555
Nd6 S11 2.962325 1_555
Nd6 S0 3.181868 1_555
Nd7 S6 2.737060 1_555
Nd7 S13 2.842745 1_655
Nd7 S4 2.884636 1_555
Nd7 S12 2.904096 1_545
Nd7 S5 2.939882 1_555
Nd7 S8 2.962325 1_555
Nd7 S1 3.181866 1_655
Ni0 S10 2.398426 1_546
Ni0 S12 2.398426 1_446
Ni0 S13 2.398426 1_556
Ni0 S8 2.719792 1_455
Ni0 S9 2.719792 1_555
Ni0 S11 2.719792 1_445
Ni1 S8 2.398426 1_455
Ni1 S9 2.398426 1_555
Ni1 S11 2.398426 1_445
Ni1 S10 2.719792 1_545
Ni1 S12 2.719792 1_445
Ni1 S13 2.719792 1_555
