# generated using pymatgen
data_LiCrPO5
_symmetry_space_group_name_H-M   'P 1'
_cell_length_a   7.13038039
_cell_length_b   6.39915746
_cell_length_c   7.44473994
_cell_angle_alpha   90.01407144
_cell_angle_beta   90.14417161
_cell_angle_gamma   89.97223345
_symmetry_Int_Tables_number   1
_chemical_formula_structural   LiCrPO5
_chemical_formula_sum   'Li4 Cr4 P4 O20'
_cell_volume   339.69064642
_cell_formula_units_Z   4
loop_
 _symmetry_equiv_pos_site_id
 _symmetry_equiv_pos_as_xyz
  1  'x, y, z'
loop_
 _atom_site_type_symbol
 _atom_site_label
 _atom_site_symmetry_multiplicity
 _atom_site_fract_x
 _atom_site_fract_y
 _atom_site_fract_z
 _atom_site_occupancy
  Li  Li0  1  0.99893690  0.00228130  0.99954410  1
  Li  Li1  1  0.49895809  0.50031067  0.50010416  1
  Li  Li2  1  0.49942957  0.99914862  0.49946965  1
  Li  Li3  1  0.99809268  0.49684924  0.99864412  1
  Cr  Cr0  1  0.86167062  0.75002288  0.26942517  1
  Cr  Cr1  1  0.63755646  0.24879957  0.77102684  1
  Cr  Cr2  1  0.36591937  0.74996295  0.22725120  1
  Cr  Cr3  1  0.13966811  0.24909839  0.73048808  1
  P  P0  1  0.12469159  0.74976574  0.62653857  1
  P  P1  1  0.37223949  0.24977122  0.12521803  1
  P  P2  1  0.62967796  0.74968108  0.87323455  1
  P  P3  1  0.87437637  0.24982811  0.37381256  1
  O  O0  1  0.13077716  0.94188434  0.75560009  1
  O  O1  1  0.87076889  0.05870124  0.24575767  1
  O  O2  1  0.87079925  0.44123650  0.24621130  1
  O  O3  1  0.88792413  0.25365197  0.81794454  1
  O  O4  1  0.05642145  0.24930888  0.48580597  1
  O  O5  1  0.13020941  0.75005029  0.17936722  1
  O  O6  1  0.13103831  0.55833102  0.75543129  1
  O  O7  1  0.39049799  0.25270345  0.67608360  1
  O  O8  1  0.19454268  0.24955638  0.00347452  1
  O  O9  1  0.80628317  0.75024030  0.99617314  1
  O  O10  1  0.37100073  0.05871308  0.25255715  1
  O  O11  1  0.37106580  0.44120531  0.25219176  1
  O  O12  1  0.94256162  0.75019812  0.51747415  1
  O  O13  1  0.44880128  0.75010505  0.99051123  1
  O  O14  1  0.55303933  0.24907681  0.01104662  1
  O  O15  1  0.59076010  0.74994458  0.32334519  1
  O  O16  1  0.62722758  0.55842052  0.74773661  1
  O  O17  1  0.62686256  0.94143085  0.74763160  1
  O  O18  1  0.69529106  0.24947470  0.49575349  1
  O  O19  1  0.30291029  0.75023883  0.50514483  1
loop_
_geom_bond_atom_site_label_1
_geom_bond_atom_site_label_2
_geom_bond_distance
_geom_bond_site_symmetry_2
Li0 O1 2.081634 1_556
Li0 O0 2.083080 1_645
Li0 O8 2.109956 1_656
Li0 O9 2.119176 1_545
Li0 O3 2.244167 1_555
Li0 O5 2.294963 1_646
Li1 O16 2.089259 1_555
Li1 O11 2.091070 1_555
Li1 O19 2.124016 1_555
Li1 O18 2.129635 1_555
Li1 O15 2.172177 1_555
Li1 O7 2.198268 1_555
Li2 O10 2.086717 1_565
Li2 O17 2.089707 1_555
Li2 O19 2.122464 1_555
Li2 O18 2.125925 1_565
Li2 O15 2.165330 1_555
Li2 O7 2.228815 1_565
Li3 O6 2.083562 1_655
Li3 O2 2.087211 1_556
Li3 O8 2.113115 1_656
Li3 O9 2.120811 1_555
Li3 O3 2.200814 1_555
Li3 O5 2.305853 1_656
Cr0 O12 1.933255 1_555
Cr0 O15 1.973952 1_555
Cr0 O1 1.984274 1_565
Cr0 O2 1.984524 1_555
Cr0 O5 2.030362 1_655
Cr0 O9 2.071296 1_554
Cr1 O3 1.818482 1_555
Cr1 O14 1.887207 1_556
Cr1 O7 1.896638 1_555
Cr1 O17 1.976046 1_545
Cr1 O16 1.990239 1_555
Cr1 O18 2.091299 1_555
Cr2 O5 1.717214 1_555
Cr2 O15 1.753929 1_555
Cr2 O13 1.860321 1_554
Cr2 O11 1.984852 1_555
Cr2 O10 1.984996 1_565
Cr2 O19 2.118172 1_555
Cr3 O7 1.834951 1_555
Cr3 O3 1.911210 1_455
Cr3 O4 1.914447 1_555
Cr3 O0 1.975889 1_545
Cr3 O6 1.988414 1_555
Cr3 O8 2.068671 1_556
O0 P0 1.560691 1_555
O1 P3 1.550709 1_555
O2 P3 1.550404 1_555
O4 P3 1.540992 1_455
O6 P0 1.556859 1_555
O8 P1 1.555987 1_555
O9 P2 1.554874 1_555
O10 P1 1.547318 1_555
O11 P1 1.547179 1_555
O12 P0 1.529862 1_655
O13 P2 1.559275 1_555
O14 P1 1.545946 1_555
O16 P2 1.539657 1_555
O17 P2 1.542999 1_555
O18 P3 1.568620 1_555
O19 P0 1.561217 1_555
