# generated using pymatgen
data_Cs3CdH5
_symmetry_space_group_name_H-M   'P 1'
_cell_length_a   8.68994054
_cell_length_b   8.68994054
_cell_length_c   8.68994054
_cell_angle_alpha   122.17080419
_cell_angle_beta   122.17080419
_cell_angle_gamma   86.27946064
_symmetry_Int_Tables_number   1
_chemical_formula_structural   Cs3CdH5
_chemical_formula_sum   'Cs6 Cd2 H10'
_cell_volume   447.76535050
_cell_formula_units_Z   2
loop_
 _symmetry_equiv_pos_site_id
 _symmetry_equiv_pos_as_xyz
  1  'x, y, z'
loop_
 _atom_site_type_symbol
 _atom_site_label
 _atom_site_symmetry_multiplicity
 _atom_site_fract_x
 _atom_site_fract_y
 _atom_site_fract_z
 _atom_site_occupancy
  Cs  Cs0  1  0.81940190  0.31940190  0.13880280  1
  Cs  Cs1  1  0.68059810  0.81940190  0.50000000  1
  Cs  Cs2  1  0.31940190  0.18059810  0.50000000  1
  Cs  Cs3  1  0.18059810  0.68059810  0.86119720  1
  Cs  Cs4  1  0.25000000  0.25000000  -0.00000000  1
  Cs  Cs5  1  0.75000000  0.75000000  -0.00000000  1
  Cd  Cd0  1  0.25000000  0.75000000  0.50000000  1
  Cd  Cd1  1  0.75000000  0.25000000  0.50000000  1
  H  H0  1  -0.00000000  0.00000000  -0.00000000  1
  H  H1  1  0.50000000  0.50000000  -0.00000000  1
  H  H2  1  0.28646711  0.53927172  0.50000000  1
  H  H3  1  0.03927172  0.78646711  0.50000000  1
  H  H4  1  0.78646711  0.28646711  0.74719539  1
  H  H5  1  0.53927172  0.03927172  0.25280461  1
  H  H6  1  0.46072828  0.96072828  0.74719539  1
  H  H7  1  0.21353289  0.71353289  0.25280461  1
  H  H8  1  0.96072828  0.21353289  0.50000000  1
  H  H9  1  0.71353289  0.46072828  0.50000000  1
loop_
_geom_bond_atom_site_label_1
_geom_bond_atom_site_label_2
_geom_bond_distance
_geom_bond_site_symmetry_2
Cs0 H1 3.083359 1_555
Cs0 H0 3.083359 1_655
Cs0 H4 3.111407 1_554
Cs0 H6 3.111416 1_544
Cs0 H3 3.321151 1_655
Cs0 H2 3.321151 1_655
Cs0 H8 3.321159 1_555
Cs0 H9 3.321159 1_555
Cs1 H0 3.083361 1_666
Cs1 H1 3.083361 1_555
Cs1 H3 3.111416 1_655
Cs1 H9 3.111416 1_555
Cs1 H5 3.321151 1_565
Cs1 H4 3.321151 1_565
Cs1 H6 3.321151 1_555
Cs1 H7 3.321151 1_555
Cs2 H0 3.083361 1_555
Cs2 H1 3.083361 1_556
Cs2 H8 3.111416 1_455
Cs2 H2 3.111416 1_555
Cs2 H6 3.321151 1_545
Cs2 H7 3.321151 1_545
Cs2 H5 3.321151 1_555
Cs2 H4 3.321151 1_555
Cs3 H1 3.083359 1_556
Cs3 H0 3.083359 1_566
Cs3 H7 3.111407 1_556
Cs3 H5 3.111416 1_566
Cs3 H8 3.321151 1_455
Cs3 H9 3.321151 1_455
Cs3 H2 3.321159 1_555
Cs3 H3 3.321159 1_555
Cs4 H1 3.170474 1_555
Cs4 H0 3.170474 1_555
Cs5 H1 3.170474 1_555
Cs5 H0 3.170474 1_665
Cd0 H2 1.838060 1_555
Cd0 H3 1.838060 1_555
Cd0 H6 1.838060 1_555
Cd0 H7 1.838060 1_555
Cd1 H9 1.838060 1_555
Cd1 H4 1.838060 1_555
Cd1 H5 1.838060 1_555
Cd1 H8 1.838060 1_555
