# generated using pymatgen
data_ZnCuBiO5
_symmetry_space_group_name_H-M   'P 1'
_cell_length_a   10.96116300
_cell_length_b   5.16722900
_cell_length_c   8.00886411
_cell_angle_alpha   73.48366129
_cell_angle_beta   90.00000000
_cell_angle_gamma   90.00000000
_symmetry_Int_Tables_number   1
_chemical_formula_structural   ZnCuBiO5
_chemical_formula_sum   'Zn4 Cu4 Bi4 O20'
_cell_volume   434.89611700
_cell_formula_units_Z   4
loop_
 _symmetry_equiv_pos_site_id
 _symmetry_equiv_pos_as_xyz
  1  'x, y, z'
loop_
 _atom_site_type_symbol
 _atom_site_label
 _atom_site_symmetry_multiplicity
 _atom_site_fract_x
 _atom_site_fract_y
 _atom_site_fract_z
 _atom_site_occupancy
  Zn  Zn0  1  0.08800700  0.53740900  0.81047000  1
  Zn  Zn1  1  0.91199300  0.46259100  0.18953000  1
  Zn  Zn2  1  0.58800700  0.46259100  0.68953000  1
  Zn  Zn3  1  0.41199300  0.53740900  0.31047000  1
  Cu  Cu0  1  0.35963800  0.15751000  0.03716800  1
  Cu  Cu1  1  0.64036200  0.84249000  0.96283200  1
  Cu  Cu2  1  0.85963800  0.84249000  0.46283200  1
  Cu  Cu3  1  0.14036200  0.15751000  0.53716800  1
  Bi  Bi0  1  0.89795000  0.01493000  0.83791600  1
  Bi  Bi1  1  0.10205000  0.98507000  0.16208400  1
  Bi  Bi2  1  0.60205000  0.01493000  0.33791600  1
  Bi  Bi3  1  0.39795000  0.98507000  0.66208400  1
  O  O0  1  0.93513400  0.74140200  0.68154100  1
  O  O1  1  0.02104300  0.27863000  0.66195800  1
  O  O2  1  0.79097100  0.13149100  0.28560600  1
  O  O3  1  0.46121500  0.74316200  0.49474400  1
  O  O4  1  0.70589900  0.74994400  0.54916500  1
  O  O5  1  0.79410100  0.74994400  0.04916500  1
  O  O6  1  0.47895700  0.27863000  0.16195800  1
  O  O7  1  0.52104300  0.72137000  0.83804200  1
  O  O8  1  0.53878500  0.25683800  0.50525600  1
  O  O9  1  0.43513400  0.25859800  0.81845900  1
  O  O10  1  0.29410100  0.25005600  0.45083500  1
  O  O11  1  0.06486600  0.25859800  0.31845900  1
  O  O12  1  0.56486600  0.74140200  0.18154100  1
  O  O13  1  0.20589900  0.25005600  0.95083500  1
  O  O14  1  0.96121500  0.25683800  0.00525600  1
  O  O15  1  0.03878500  0.74316200  0.99474400  1
  O  O16  1  0.20902900  0.86850900  0.71439400  1
  O  O17  1  0.97895700  0.72137000  0.33804200  1
  O  O18  1  0.29097100  0.86850900  0.21439400  1
  O  O19  1  0.70902900  0.13149100  0.78560600  1
loop_
_geom_bond_atom_site_label_1
_geom_bond_atom_site_label_2
_geom_bond_distance
_geom_bond_site_symmetry_2
Cu0 O13 1.832626 1_554
Cu0 O6 1.859227 1_555
Cu0 O9 1.872315 1_554
Cu0 O18 1.898956 1_545
Cu1 O5 1.832626 1_556
Cu1 O7 1.859227 1_555
Cu1 O12 1.872315 1_556
Cu1 O19 1.898956 1_565
Cu2 O4 1.832626 1_555
Cu2 O17 1.859227 1_555
Cu2 O0 1.872315 1_555
Cu2 O2 1.898956 1_565
Cu3 O10 1.832626 1_555
Cu3 O1 1.859227 1_555
Cu3 O11 1.872315 1_555
Cu3 O16 1.898956 1_545
Bi0 O1 2.138049 1_655
Bi0 O19 2.164023 1_555
Bi0 O5 2.171594 1_546
Bi0 O0 2.176851 1_545
Bi0 O14 2.189069 1_556
Bi0 O15 2.220314 1_645
Bi1 O17 2.138049 1_455
Bi1 O18 2.164023 1_555
Bi1 O13 2.171594 1_564
Bi1 O11 2.176851 1_565
Bi1 O15 2.189069 1_554
Bi1 O14 2.220314 1_465
Bi2 O6 2.138049 1_555
Bi2 O2 2.164023 1_555
Bi2 O4 2.171594 1_545
Bi2 O12 2.176851 1_545
Bi2 O8 2.189069 1_555
Bi2 O3 2.220314 1_545
Bi3 O7 2.138049 1_555
Bi3 O16 2.164023 1_555
Bi3 O10 2.171594 1_565
Bi3 O9 2.176851 1_565
Bi3 O3 2.189069 1_555
Bi3 O8 2.220314 1_565
O0 Zn0 2.089569 1_655
O1 Zn0 2.155407 1_555
O2 Zn1 2.128463 1_555
O3 Zn3 2.119344 1_555
O3 Zn2 2.276196 1_555
O4 Zn2 2.046764 1_555
O5 Zn1 2.046764 1_555
O6 Zn3 2.155407 1_555
O7 Zn2 2.155407 1_555
O8 Zn2 2.119344 1_555
O8 Zn3 2.276196 1_555
O9 Zn2 2.089569 1_555
O10 Zn3 2.046764 1_555
O11 Zn1 2.089569 1_455
O12 Zn3 2.089569 1_555
O13 Zn0 2.046764 1_555
O14 Zn1 2.119344 1_555
O14 Zn0 2.276196 1_654
O15 Zn0 2.119344 1_555
O15 Zn1 2.276196 1_456
O16 Zn0 2.128463 1_555
O17 Zn1 2.155407 1_555
O18 Zn3 2.128463 1_555
O19 Zn2 2.128463 1_555
