# generated using pymatgen
data_Li3Co3SbO8
_symmetry_space_group_name_H-M   'P 1'
_cell_length_a   6.07022235
_cell_length_b   10.42518866
_cell_length_c   6.04953541
_cell_angle_alpha   72.91643176
_cell_angle_beta   120.01822092
_cell_angle_gamma   105.85777679
_symmetry_Int_Tables_number   1
_chemical_formula_structural   Li3Co3SbO8
_chemical_formula_sum   'Li6 Co6 Sb2 O16'
_cell_volume   313.14703960
_cell_formula_units_Z   2
loop_
 _symmetry_equiv_pos_site_id
 _symmetry_equiv_pos_as_xyz
  1  'x, y, z'
loop_
 _atom_site_type_symbol
 _atom_site_label
 _atom_site_symmetry_multiplicity
 _atom_site_fract_x
 _atom_site_fract_y
 _atom_site_fract_z
 _atom_site_occupancy
  Li  Li0  1  0.00000200  0.99995300  0.50001200  1
  Li  Li1  1  0.49995200  0.50004100  0.99996700  1
  Li  Li2  1  0.74462300  0.75486900  0.74419300  1
  Li  Li3  1  0.25538700  0.24511200  0.25580200  1
  Li  Li4  1  0.49995000  0.00000300  0.50002200  1
  Li  Li5  1  0.00005800  0.49999000  0.99997300  1
  Co  Co0  1  0.25260200  0.74989900  0.25267800  1
  Co  Co1  1  0.74740800  0.25010800  0.74733200  1
  Co  Co2  1  0.99997000  0.50001400  0.50003600  1
  Co  Co3  1  0.49996400  0.00000800  0.99988400  1
  Co  Co4  1  0.75016400  0.74933100  0.24705300  1
  Co  Co5  1  0.24980900  0.25069100  0.75296400  1
  Sb  Sb0  1  0.49997900  0.49996300  0.50003300  1
  Sb  Sb1  1  0.00004100  0.00002900  0.99996700  1
  O  O0  1  0.38044800  0.12814800  0.66482600  1
  O  O1  1  0.88719900  0.62619000  0.17250400  1
  O  O2  1  0.61967200  0.87179500  0.33512900  1
  O  O3  1  0.11273300  0.37386300  0.82756500  1
  O  O4  1  0.64963700  0.88394800  0.88667100  1
  O  O5  1  0.14046200  0.39101900  0.39288000  1
  O  O6  1  0.35047500  0.11602800  0.11326700  1
  O  O7  1  0.85942200  0.60899800  0.60719100  1
  O  O8  1  0.39298300  0.62285400  0.15268300  1
  O  O9  1  0.89184200  0.12230600  0.65233600  1
  O  O10  1  0.60685700  0.37710100  0.84732000  1
  O  O11  1  0.10831900  0.87772500  0.34766800  1
  O  O12  1  0.12670900  0.88279000  0.89230900  1
  O  O13  1  0.60980500  0.37901500  0.38593200  1
  O  O14  1  0.87339600  0.11724800  0.10763400  1
  O  O15  1  0.39013800  0.62096500  0.61418100  1
loop_
_geom_bond_atom_site_label_1
_geom_bond_atom_site_label_2
_geom_bond_distance
_geom_bond_site_symmetry_2
Li0 O11 2.158598 1_555
Li0 O9 2.158901 1_465
Li0 O12 2.167861 1_555
Li0 O14 2.168720 1_465
Li0 O2 2.214325 1_455
Li0 O0 2.214914 1_565
Li1 O15 2.157409 1_555
Li1 O13 2.158583 1_556
Li1 O8 2.159621 1_556
Li1 O10 2.160105 1_555
Li1 O3 2.237516 1_555
Li1 O1 2.237588 1_556
Li2 O4 2.118712 1_555
Li2 O15 2.123139 1_555
Li2 O12 2.212031 1_655
Li2 O2 2.245002 1_555
Li2 O7 2.320059 1_555
Li2 O1 2.368736 1_556
Li3 O6 2.119409 1_555
Li3 O13 2.122911 1_555
Li3 O14 2.211397 1_455
Li3 O0 2.244895 1_555
Li3 O5 2.321200 1_555
Li3 O3 2.368649 1_554
Li4 O4 2.138264 1_545
Li4 O6 2.138569 1_555
Li4 O11 2.228871 1_545
Li4 O9 2.230079 1_555
Li4 O0 2.310993 1_555
Li4 O2 2.312839 1_545
Li5 O7 2.140185 1_455
Li5 O5 2.140652 1_556
Li5 O8 2.236956 1_556
Li5 O10 2.238223 1_455
Li5 O3 2.301215 1_555
Li5 O1 2.303145 1_456
Co0 O15 2.084658 1_555
Co0 O12 2.095999 1_554
Co0 O8 2.109407 1_555
Co0 O11 2.112931 1_555
Co0 O2 2.131079 1_555
Co0 O1 2.132179 1_455
Co1 O13 2.084143 1_555
Co1 O14 2.095598 1_556
Co1 O10 2.109674 1_555
Co1 O9 2.113411 1_555
Co1 O0 2.130784 1_555
Co1 O3 2.131964 1_655
Co2 O3 1.930813 1_655
Co2 O1 1.930950 1_555
Co2 O5 1.988512 1_655
Co2 O7 1.988672 1_555
Co2 O15 2.217946 1_655
Co2 O13 2.218131 1_555
Co3 O0 1.971508 1_555
Co3 O2 1.972645 1_546
Co3 O6 2.113503 1_556
Co3 O4 2.113939 1_545
Co3 O12 2.128197 1_545
Co3 O14 2.129032 1_556
Co4 O1 1.960231 1_555
Co4 O2 1.978880 1_555
Co4 O8 2.099256 1_555
Co4 O4 2.105762 1_554
Co4 O11 2.110228 1_655
Co4 O7 2.130412 1_555
Co5 O3 1.960880 1_555
Co5 O0 1.980449 1_555
Co5 O10 2.098378 1_555
Co5 O6 2.105603 1_556
Co5 O9 2.109371 1_455
Co5 O5 2.130164 1_555
O4 Sb1 2.020016 1_665
O5 Sb0 2.033556 1_555
O6 Sb1 2.019796 1_554
O7 Sb0 2.033553 1_555
O8 Sb0 1.996550 1_555
O9 Sb1 1.994871 1_655
O10 Sb0 1.996174 1_555
O11 Sb1 1.995275 1_564
O12 Sb1 1.997892 1_565
O13 Sb0 1.985438 1_555
O14 Sb1 1.997661 1_654
O15 Sb0 1.986166 1_555
