# generated using pymatgen
data_KVTeO5
_symmetry_space_group_name_H-M   'P 1'
_cell_length_a   11.89466300
_cell_length_b   6.54655300
_cell_length_c   7.07389012
_cell_angle_alpha   73.02279324
_cell_angle_beta   90.00000000
_cell_angle_gamma   90.00000000
_symmetry_Int_Tables_number   1
_chemical_formula_structural   KVTeO5
_chemical_formula_sum   'K4 V4 Te4 O20'
_cell_volume   526.83211261
_cell_formula_units_Z   4
loop_
 _symmetry_equiv_pos_site_id
 _symmetry_equiv_pos_as_xyz
  1  'x, y, z'
loop_
 _atom_site_type_symbol
 _atom_site_label
 _atom_site_symmetry_multiplicity
 _atom_site_fract_x
 _atom_site_fract_y
 _atom_site_fract_z
 _atom_site_occupancy
  K  K0  1  0.31239000  0.17760500  0.83643100  1
  K  K1  1  0.81239000  0.82239500  0.66356900  1
  K  K2  1  0.68761000  0.82239500  0.16356900  1
  K  K3  1  0.18761000  0.17760500  0.33643100  1
  V  V0  1  0.12144300  0.65144900  0.59403200  1
  V  V1  1  0.62144300  0.34855100  0.90596800  1
  V  V2  1  0.87855700  0.34855100  0.40596800  1
  V  V3  1  0.37855700  0.65144900  0.09403200  1
  Te  Te0  1  0.94633100  0.23629200  0.89811400  1
  Te  Te1  1  0.44633100  0.76370800  0.60188600  1
  Te  Te2  1  0.05366900  0.76370800  0.10188600  1
  Te  Te3  1  0.55366900  0.23629200  0.39811400  1
  O  O0  1  0.08972500  0.11412400  0.98768600  1
  O  O1  1  0.58972500  0.88587600  0.51231400  1
  O  O2  1  0.91027500  0.88587600  0.01231400  1
  O  O3  1  0.41027500  0.11412400  0.48768600  1
  O  O4  1  0.01692200  0.53350800  0.78054400  1
  O  O5  1  0.51692200  0.46649200  0.71945600  1
  O  O6  1  0.98307800  0.46649200  0.21945600  1
  O  O7  1  0.48307800  0.53350800  0.28054400  1
  O  O8  1  0.20094500  0.82369700  0.66905500  1
  O  O9  1  0.70094500  0.17630300  0.83094500  1
  O  O10  1  0.79905500  0.17630300  0.33094500  1
  O  O11  1  0.29905500  0.82369700  0.16905500  1
  O  O12  1  0.44963100  0.80731800  0.86278100  1
  O  O13  1  0.94963100  0.19268200  0.63721900  1
  O  O14  1  0.55036900  0.19268200  0.13721900  1
  O  O15  1  0.05036900  0.80731800  0.36278100  1
  O  O16  1  0.29795600  0.46589900  0.04828500  1
  O  O17  1  0.79795600  0.53410100  0.45171500  1
  O  O18  1  0.70204400  0.53410100  0.95171500  1
  O  O19  1  0.20204400  0.46589900  0.54828500  1
loop_
_geom_bond_atom_site_label_1
_geom_bond_atom_site_label_2
_geom_bond_distance
_geom_bond_site_symmetry_2
K0 O19 2.681960 1_555
K0 O16 2.736630 1_556
K0 O11 2.783139 1_546
K0 O0 2.841221 1_555
K0 O3 2.865842 1_555
K0 O12 2.883053 1_545
K0 O5 3.044046 1_555
K0 O8 3.182603 1_545
K1 O18 2.681960 1_555
K1 O17 2.736630 1_555
K1 O10 2.783139 1_565
K1 O1 2.841221 1_555
K1 O2 2.865842 1_556
K1 O13 2.883053 1_565
K1 O4 3.044046 1_655
K1 O9 3.182603 1_565
K2 O17 2.681960 1_555
K2 O18 2.736630 1_554
K2 O9 2.783139 1_564
K2 O2 2.841221 1_555
K2 O1 2.865842 1_555
K2 O14 2.883053 1_565
K2 O7 3.044046 1_555
K2 O10 3.182603 1_565
K3 O16 2.681960 1_555
K3 O19 2.736630 1_555
K3 O8 2.783139 1_545
K3 O3 2.841221 1_555
K3 O0 2.865842 1_554
K3 O15 2.883053 1_545
K3 O6 3.044046 1_455
K3 O11 3.182603 1_545
O0 Te0 1.911632 1_455
O0 Te2 2.239825 1_546
O1 Te1 1.911632 1_555
O1 Te3 2.239825 1_565
O2 Te2 1.911632 1_655
O2 Te0 2.239825 1_564
O3 Te3 1.911632 1_555
O3 Te1 2.239825 1_545
O4 V0 1.813182 1_555
O4 Te0 2.058543 1_455
O5 V1 1.813182 1_555
O5 Te1 2.058543 1_555
O6 V2 1.813182 1_555
O6 Te2 2.058543 1_655
O7 V3 1.813182 1_555
O7 Te3 2.058543 1_555
O8 V0 1.672402 1_555
O9 V1 1.672402 1_555
O10 V2 1.672402 1_555
O11 V3 1.672402 1_555
O12 V3 1.859333 1_556
O12 Te1 1.948531 1_555
O13 V2 1.859333 1_555
O13 Te0 1.948531 1_555
O14 V1 1.859333 1_554
O14 Te3 1.948531 1_555
O15 V0 1.859333 1_555
O15 Te2 1.948531 1_555
O16 V3 1.651955 1_555
O17 V2 1.651955 1_555
O18 V1 1.651955 1_555
O19 V0 1.651955 1_555
