# generated using pymatgen
data_MgCuAs2O7
_symmetry_space_group_name_H-M   'P 1'
_cell_length_a   8.49696400
_cell_length_b   7.20986600
_cell_length_c   9.77614552
_cell_angle_alpha   67.65483780
_cell_angle_beta   90.00000000
_cell_angle_gamma   90.00000000
_symmetry_Int_Tables_number   1
_chemical_formula_structural   MgCuAs2O7
_chemical_formula_sum   'Mg4 Cu4 As8 O28'
_cell_volume   553.93430263
_cell_formula_units_Z   4
loop_
 _symmetry_equiv_pos_site_id
 _symmetry_equiv_pos_as_xyz
  1  'x, y, z'
loop_
 _atom_site_type_symbol
 _atom_site_label
 _atom_site_symmetry_multiplicity
 _atom_site_fract_x
 _atom_site_fract_y
 _atom_site_fract_z
 _atom_site_occupancy
  Mg  Mg0  1  0.07340900  0.73253400  0.89868800  1
  Mg  Mg1  1  0.57340900  0.26746600  0.60131200  1
  Mg  Mg2  1  0.92659100  0.26746600  0.10131200  1
  Mg  Mg3  1  0.42659100  0.73253400  0.39868800  1
  Cu  Cu0  1  0.94171400  0.20162100  0.66929600  1
  Cu  Cu1  1  0.44171400  0.79837900  0.83070400  1
  Cu  Cu2  1  0.05828600  0.79837900  0.33070400  1
  Cu  Cu3  1  0.55828600  0.20162100  0.16929600  1
  As  As0  1  0.77397200  0.56079600  0.75398100  1
  As  As1  1  0.27397200  0.43920400  0.74601900  1
  As  As2  1  0.22602800  0.43920400  0.24601900  1
  As  As3  1  0.72602800  0.56079600  0.25398100  1
  As  As4  1  0.72205700  0.96505100  0.96448800  1
  As  As5  1  0.22205700  0.03494900  0.53551200  1
  As  As6  1  0.27794300  0.03494900  0.03551200  1
  As  As7  1  0.77794300  0.96505100  0.46448800  1
  O  O0  1  0.72562200  0.14144300  0.04388000  1
  O  O1  1  0.22562200  0.85855700  0.45612000  1
  O  O2  1  0.27437800  0.85855700  0.95612000  1
  O  O3  1  0.77437800  0.14144300  0.54388000  1
  O  O4  1  0.58918800  0.63630000  0.77097600  1
  O  O5  1  0.08918800  0.36370000  0.72902400  1
  O  O6  1  0.41081200  0.36370000  0.22902400  1
  O  O7  1  0.91081200  0.63630000  0.27097600  1
  O  O8  1  0.90080600  0.52848200  0.89568400  1
  O  O9  1  0.40080600  0.47151800  0.60431600  1
  O  O10  1  0.09919400  0.47151800  0.10431600  1
  O  O11  1  0.59919400  0.52848200  0.39568400  1
  O  O12  1  0.86495300  0.74339700  0.59475000  1
  O  O13  1  0.36495300  0.25660300  0.90525000  1
  O  O14  1  0.13504700  0.25660300  0.40525000  1
  O  O15  1  0.63504700  0.74339700  0.09475000  1
  O  O16  1  0.91705000  0.01197500  0.32768700  1
  O  O17  1  0.41705000  0.98802500  0.17231300  1
  O  O18  1  0.08295000  0.98802500  0.67231300  1
  O  O19  1  0.58295000  0.01197500  0.82768700  1
  O  O20  1  0.73665300  0.35655600  0.20298300  1
  O  O21  1  0.23665300  0.64344400  0.29701700  1
  O  O22  1  0.26334700  0.64344400  0.79701700  1
  O  O23  1  0.76334700  0.35655600  0.70298300  1
  O  O24  1  0.59781400  0.92977300  0.40629100  1
  O  O25  1  0.09781400  0.07022700  0.09370900  1
  O  O26  1  0.40218600  0.07022700  0.59370900  1
  O  O27  1  0.90218600  0.92977300  0.90629100  1
loop_
_geom_bond_atom_site_label_1
_geom_bond_atom_site_label_2
_geom_bond_distance
_geom_bond_site_symmetry_2
Mg0 O27 2.055440 1_455
Mg0 O8 2.085432 1_455
Mg0 O2 2.108246 1_555
Mg0 O22 2.119112 1_555
Mg0 O10 2.180386 1_556
Mg0 O18 2.279849 1_555
Mg1 O26 2.055440 1_555
Mg1 O9 2.085432 1_555
Mg1 O3 2.108246 1_555
Mg1 O23 2.119112 1_555
Mg1 O11 2.180386 1_555
Mg1 O19 2.279849 1_555
Mg2 O25 2.055440 1_655
Mg2 O10 2.085432 1_655
Mg2 O0 2.108246 1_555
Mg2 O20 2.119112 1_555
Mg2 O8 2.180386 1_554
Mg2 O16 2.279849 1_555
Mg3 O24 2.055440 1_555
Mg3 O11 2.085432 1_555
Mg3 O1 2.108246 1_555
Mg3 O21 2.119112 1_555
Mg3 O9 2.180386 1_555
Mg3 O17 2.279849 1_555
Cu0 O18 1.943737 1_645
Cu0 O5 1.948216 1_655
Cu0 O23 1.983175 1_555
Cu0 O3 2.029206 1_555
Cu0 O27 2.422697 1_545
Cu1 O19 1.943737 1_565
Cu1 O4 1.948216 1_555
Cu1 O22 1.983175 1_555
Cu1 O2 2.029206 1_555
Cu1 O26 2.422697 1_565
Cu2 O16 1.943737 1_465
Cu2 O7 1.948216 1_455
Cu2 O21 1.983175 1_555
Cu2 O1 2.029206 1_555
Cu2 O25 2.422697 1_565
Cu3 O17 1.943737 1_545
Cu3 O6 1.948216 1_555
Cu3 O20 1.983175 1_555
Cu3 O0 2.029206 1_555
Cu3 O24 2.422697 1_545
As0 O4 1.690545 1_555
As0 O8 1.699823 1_555
As0 O23 1.727232 1_555
As0 O12 1.787675 1_555
As1 O5 1.690545 1_555
As1 O9 1.699823 1_555
As1 O22 1.727232 1_555
As1 O13 1.787675 1_555
As2 O6 1.690545 1_555
As2 O10 1.699823 1_555
As2 O21 1.727232 1_555
As2 O14 1.787675 1_555
As3 O7 1.690545 1_555
As3 O11 1.699823 1_555
As3 O20 1.727232 1_555
As3 O15 1.787675 1_555
As4 O27 1.685528 1_555
As4 O19 1.719336 1_565
As4 O0 1.723730 1_566
As4 O15 1.781788 1_556
As5 O26 1.685528 1_555
As5 O18 1.719336 1_545
As5 O1 1.723730 1_545
As5 O14 1.781788 1_555
As6 O25 1.685528 1_555
As6 O17 1.719336 1_545
As6 O2 1.723730 1_544
As6 O13 1.781788 1_554
As7 O24 1.685528 1_555
As7 O16 1.719336 1_565
As7 O3 1.723730 1_565
As7 O12 1.781788 1_555
