# generated using pymatgen
data_Eu2CuSi3
_symmetry_space_group_name_H-M   'P 1'
_cell_length_a   4.07778734
_cell_length_b   4.07659900
_cell_length_c   8.77888300
_cell_angle_alpha   90.00000000
_cell_angle_beta   90.00000000
_cell_angle_gamma   60.00411880
_symmetry_Int_Tables_number   1
_chemical_formula_structural   Eu2CuSi3
_chemical_formula_sum   'Eu2 Cu1 Si3'
_cell_volume   126.38935089
_cell_formula_units_Z   1
loop_
 _symmetry_equiv_pos_site_id
 _symmetry_equiv_pos_as_xyz
  1  'x, y, z'
loop_
 _atom_site_type_symbol
 _atom_site_label
 _atom_site_symmetry_multiplicity
 _atom_site_fract_x
 _atom_site_fract_y
 _atom_site_fract_z
 _atom_site_occupancy
  Eu  Eu0  1  0.99992200  0.00009600  0.00771100  1
  Eu  Eu1  1  0.99992200  0.00009600  0.49228900  1
  Cu  Cu0  1  0.66661900  0.66671400  0.25000000  1
  Si  Si0  1  0.66663600  0.66656000  0.75000000  1
  Si  Si1  1  0.33338100  0.33315000  0.25000000  1
  Si  Si2  1  0.33332000  0.33338300  0.75000000  1
loop_
_geom_bond_atom_site_label_1
_geom_bond_atom_site_label_2
_geom_bond_distance
_geom_bond_site_symmetry_2
Eu0 Si1 3.172165 1_655
Eu0 Si1 3.172601 1_555
Eu0 Si1 3.173153 1_645
Eu0 Si0 3.264225 1_554
Eu0 Si2 3.264859 1_644
Eu0 Si2 3.264929 1_654
Eu0 Si2 3.265071 1_554
Eu0 Si0 3.265278 1_544
Eu0 Si0 3.265356 1_644
Eu1 Si1 3.172165 1_655
Eu1 Si1 3.172601 1_555
Eu1 Si1 3.173153 1_645
Eu1 Si0 3.264225 1_555
Eu1 Si2 3.264859 1_645
Eu1 Si2 3.264929 1_655
Eu1 Si2 3.265071 1_555
Eu1 Si0 3.265278 1_545
Eu1 Si0 3.265356 1_645
Cu0 Si1 2.352909 1_565
Cu0 Si1 2.354397 1_555
Cu0 Si1 2.354746 1_655
Cu0 Eu0 3.172294 1_555
Cu0 Eu1 3.172294 1_555
Cu0 Eu1 3.172615 1_565
Cu0 Eu0 3.172615 1_565
Cu0 Eu1 3.173010 1_465
Cu0 Eu0 3.173010 1_465
Si0 Si2 2.353307 1_555
Si0 Si2 2.354275 1_565
Si0 Si2 2.354471 1_655
