# generated using pymatgen
data_Tm2PbS4
_symmetry_space_group_name_H-M   'P 1'
_cell_length_a   14.79789042
_cell_length_b   14.79789042
_cell_length_c   12.07741800
_cell_angle_alpha   90.00000000
_cell_angle_beta   90.00000000
_cell_angle_gamma   149.10178973
_symmetry_Int_Tables_number   1
_chemical_formula_structural   Tm2PbS4
_chemical_formula_sum   'Tm16 Pb8 S32'
_cell_volume   1358.08320790
_cell_formula_units_Z   8
loop_
 _symmetry_equiv_pos_site_id
 _symmetry_equiv_pos_as_xyz
  1  'x, y, z'
loop_
 _atom_site_type_symbol
 _atom_site_label
 _atom_site_symmetry_multiplicity
 _atom_site_fract_x
 _atom_site_fract_y
 _atom_site_fract_z
 _atom_site_occupancy
  Tm  Tm0  1  0.06828500  0.93171500  0.91194800  1
  Tm  Tm1  1  0.93171500  0.06828500  0.41194800  1
  Tm  Tm2  1  0.56883800  0.43116200  0.91986400  1
  Tm  Tm3  1  0.43116200  0.56883800  0.41986400  1
  Tm  Tm4  1  0.43020900  0.06978800  0.78740500  1
  Tm  Tm5  1  0.93021200  0.56979100  0.78740500  1
  Tm  Tm6  1  0.56979100  0.93021200  0.28740500  1
  Tm  Tm7  1  0.06978800  0.43020900  0.28740500  1
  Tm  Tm8  1  0.32680600  0.17216500  0.26670300  1
  Tm  Tm9  1  0.82783500  0.67319400  0.26670300  1
  Tm  Tm10  1  0.67319400  0.82783500  0.76670300  1
  Tm  Tm11  1  0.17216500  0.32680600  0.76670300  1
  Tm  Tm12  1  0.67430700  0.32569300  0.43300800  1
  Tm  Tm13  1  0.32569300  0.67430700  0.93300800  1
  Tm  Tm14  1  0.17512600  0.82487400  0.42986200  1
  Tm  Tm15  1  0.82487400  0.17512600  0.92986200  1
  Pb  Pb0  1  0.53796500  0.46203500  0.61973900  1
  Pb  Pb1  1  0.46203500  0.53796500  0.11973900  1
  Pb  Pb2  1  0.04712300  0.95287700  0.56364000  1
  Pb  Pb3  1  0.95287700  0.04712300  0.06364000  1
  Pb  Pb4  1  0.46217300  0.04088600  0.09646600  1
  Pb  Pb5  1  0.95911400  0.53782700  0.09646600  1
  Pb  Pb6  1  0.53782700  0.95911400  0.59646600  1
  Pb  Pb7  1  0.04088600  0.46217300  0.59646600  1
  S  S0  1  0.51660800  0.48339200  0.31793900  1
  S  S1  1  0.48339200  0.51660800  0.81793900  1
  S  S2  1  0.70817400  0.29182600  0.64555500  1
  S  S3  1  0.29182600  0.70817400  0.14555500  1
  S  S4  1  0.16196400  0.83803600  0.93646400  1
  S  S5  1  0.83803600  0.16196400  0.43646400  1
  S  S6  1  0.66283600  0.33716400  0.93849800  1
  S  S7  1  0.33716400  0.66283600  0.43849800  1
  S  S8  1  0.36109100  0.13671600  0.47580900  1
  S  S9  1  0.86328400  0.63890900  0.47580900  1
  S  S10  1  0.63890900  0.86328400  0.97580900  1
  S  S11  1  0.13671600  0.36109100  0.97580900  1
  S  S12  1  0.20857100  0.79142900  0.64495300  1
  S  S13  1  0.79142900  0.20857100  0.14495300  1
  S  S14  1  0.48620900  0.01710700  0.38416900  1
  S  S15  1  0.98289300  0.51379100  0.38416900  1
  S  S16  1  0.51379100  0.98289300  0.88416900  1
  S  S17  1  0.01710700  0.48620900  0.88416900  1
  S  S18  1  0.63988600  0.36011400  0.22541400  1
  S  S19  1  0.36011400  0.63988600  0.72541400  1
  S  S20  1  0.28829700  0.20671100  0.05802300  1
  S  S21  1  0.79328900  0.71170300  0.05802300  1
  S  S22  1  0.71170300  0.79328900  0.55802300  1
  S  S23  1  0.20671100  0.28829700  0.55802300  1
  S  S24  1  0.01995200  0.98004800  0.33398100  1
  S  S25  1  0.98004800  0.01995200  0.83398100  1
  S  S26  1  0.33971000  0.16565400  0.76748100  1
  S  S27  1  0.83434600  0.66029000  0.76748100  1
  S  S28  1  0.66029000  0.83434600  0.26748100  1
  S  S29  1  0.16565400  0.33971000  0.26748100  1
  S  S30  1  0.14030400  0.85969600  0.22282200  1
  S  S31  1  0.85969600  0.14030400  0.72282200  1
loop_
_geom_bond_atom_site_label_1
_geom_bond_atom_site_label_2
_geom_bond_distance
_geom_bond_site_symmetry_2
Pb0 S1 2.855442 1_555
Pb0 S27 2.990730 1_555
Pb0 S26 2.990730 1_555
Pb0 S23 3.092855 1_555
Pb0 S22 3.092855 1_555
Pb1 S0 2.855442 1_555
Pb1 S28 2.990730 1_555
Pb1 S29 2.990730 1_555
Pb1 S21 3.092855 1_555
Pb1 S20 3.092855 1_555
Pb2 S24 2.879950 1_555
Pb2 S8 2.901864 1_565
Pb2 S9 2.901864 1_455
Pb2 S23 3.178326 1_565
Pb2 S22 3.178326 1_455
Pb3 S25 2.879950 1_554
Pb3 S11 2.901864 1_654
Pb3 S10 2.901864 1_544
Pb3 S20 3.178326 1_655
Pb3 S21 3.178326 1_545
Pb4 S16 3.003158 1_544
Pb4 S6 3.055652 1_554
Pb4 S13 3.080745 1_555
Pb4 S4 3.097560 1_544
Pb4 S3 3.105953 1_545
Pb4 S30 3.207387 1_545
Pb4 S18 3.215087 1_555
Pb5 S17 3.003158 1_654
Pb5 S6 3.055652 1_554
Pb5 S13 3.080745 1_555
Pb5 S4 3.097560 1_654
Pb5 S3 3.105953 1_655
Pb5 S30 3.207387 1_655
Pb5 S18 3.215087 1_555
Pb6 S14 3.003158 1_565
Pb6 S7 3.055652 1_555
Pb6 S12 3.080745 1_555
Pb6 S5 3.097560 1_565
Pb6 S2 3.105953 1_565
Pb6 S31 3.207387 1_565
Pb6 S19 3.215087 1_555
Pb7 S15 3.003158 1_455
Pb7 S7 3.055652 1_555
Pb7 S12 3.080745 1_555
Pb7 S5 3.097560 1_455
Pb7 S2 3.105953 1_455
Pb7 S31 3.207387 1_455
Pb7 S19 3.215087 1_555
S0 Tm8 2.698715 1_555
S0 Tm9 2.698715 1_555
S0 Tm3 2.730675 1_555
S1 Tm11 2.698715 1_555
S1 Tm10 2.698715 1_555
S1 Tm2 2.730675 1_555
S2 Tm4 2.730567 1_555
S2 Tm5 2.730567 1_555
S2 Tm12 2.742798 1_555
S3 Tm7 2.730567 1_555
S3 Tm6 2.730567 1_555
S3 Tm13 2.742798 1_554
S4 Tm0 2.688679 1_555
S4 Tm5 2.719634 1_455
S4 Tm4 2.719634 1_565
S5 Tm1 2.688679 1_555
S5 Tm6 2.719634 1_545
S5 Tm7 2.719634 1_655
S6 Tm2 2.690853 1_555
S6 Tm4 2.731351 1_555
S6 Tm5 2.731351 1_555
S7 Tm3 2.690853 1_555
S7 Tm7 2.731351 1_555
S7 Tm6 2.731351 1_555
S8 Tm12 2.706686 1_555
S8 Tm8 2.714270 1_555
S8 Tm14 2.716996 1_545
S9 Tm12 2.706686 1_555
S9 Tm9 2.714270 1_555
S9 Tm14 2.716996 1_655
S10 Tm13 2.706686 1_555
S10 Tm10 2.714270 1_555
S10 Tm15 2.716996 1_565
S11 Tm13 2.706686 1_555
S11 Tm11 2.714270 1_555
S11 Tm15 2.716996 1_455
S12 Tm4 2.738442 1_565
S12 Tm5 2.738442 1_455
S12 Tm14 2.767402 1_555
S13 Tm6 2.738442 1_545
S13 Tm7 2.738442 1_655
S13 Tm15 2.767402 1_554
S14 Tm14 2.667305 1_545
S14 Tm12 2.671067 1_555
S14 Tm6 2.697844 1_545
S15 Tm14 2.667305 1_655
S15 Tm12 2.671067 1_555
S15 Tm7 2.697844 1_655
S16 Tm15 2.667305 1_565
S16 Tm13 2.671067 1_555
S16 Tm4 2.697844 1_565
S17 Tm15 2.667305 1_455
S17 Tm13 2.671067 1_555
S17 Tm5 2.697844 1_455
S18 Tm12 2.692618 1_555
S18 Tm9 2.708267 1_555
S18 Tm8 2.708267 1_555
S19 Tm13 2.692618 1_555
S19 Tm10 2.708267 1_555
S19 Tm11 2.708267 1_555
S20 Tm2 2.717879 1_554
S20 Tm8 2.727269 1_555
S20 Tm0 2.744983 1_544
S21 Tm2 2.717879 1_554
S21 Tm9 2.727269 1_555
S21 Tm0 2.744983 1_654
S22 Tm3 2.717879 1_555
S22 Tm10 2.727269 1_555
S22 Tm1 2.744983 1_565
S23 Tm3 2.717879 1_555
S23 Tm11 2.727269 1_555
S23 Tm1 2.744983 1_455
S24 Tm8 2.684601 1_565
S24 Tm9 2.684601 1_455
S24 Tm1 2.687453 1_465
S25 Tm11 2.684601 1_655
S25 Tm10 2.684601 1_545
S25 Tm0 2.687453 1_645
S26 Tm4 2.669115 1_555
S26 Tm0 2.701590 1_545
S26 Tm2 2.730940 1_555
S27 Tm5 2.669115 1_555
S27 Tm0 2.701590 1_655
S27 Tm2 2.730940 1_555
S28 Tm6 2.669115 1_555
S28 Tm1 2.701590 1_565
S28 Tm3 2.730940 1_555
S29 Tm7 2.669115 1_555
S29 Tm1 2.701590 1_455
S29 Tm3 2.730940 1_555
S30 Tm14 2.690591 1_555
S30 Tm9 2.716181 1_455
S30 Tm8 2.716181 1_565
S31 Tm15 2.690591 1_555
S31 Tm10 2.716181 1_545
S31 Tm11 2.716181 1_655
