# generated using pymatgen
data_Hg4SbO6
_symmetry_space_group_name_H-M   'P 1'
_cell_length_a   8.62416260
_cell_length_b   8.62416260
_cell_length_c   4.83651122
_cell_angle_alpha   74.21240220
_cell_angle_beta   74.21240220
_cell_angle_gamma   133.63517101
_symmetry_Int_Tables_number   1
_chemical_formula_structural   Hg4SbO6
_chemical_formula_sum   'Hg4 Sb1 O6'
_cell_volume   188.16000593
_cell_formula_units_Z   1
loop_
 _symmetry_equiv_pos_site_id
 _symmetry_equiv_pos_as_xyz
  1  'x, y, z'
loop_
 _atom_site_type_symbol
 _atom_site_label
 _atom_site_symmetry_multiplicity
 _atom_site_fract_x
 _atom_site_fract_y
 _atom_site_fract_z
 _atom_site_occupancy
  Hg  Hg0  1  0.10568900  0.89431100  0.00000000  1
  Hg  Hg1  1  0.89431100  0.10568900  0.00000000  1
  Hg  Hg2  1  0.27893000  0.72107000  0.00000000  1
  Hg  Hg3  1  0.72107000  0.27893000  0.00000000  1
  Sb  Sb0  1  0.50000000  0.50000000  0.00000000  1
  O  O0  1  0.74322300  0.74322300  0.44365900  1
  O  O1  1  0.82102700  0.61237800  0.94553800  1
  O  O2  1  0.61237800  0.82102700  0.94553800  1
  O  O3  1  0.38762200  0.17897300  0.05446200  1
  O  O4  1  0.17897300  0.38762200  0.05446200  1
  O  O5  1  0.25677700  0.25677700  0.55634100  1
loop_
_geom_bond_atom_site_label_1
_geom_bond_atom_site_label_2
_geom_bond_distance
_geom_bond_site_symmetry_2
Hg0 O3 2.114330 1_565
Hg0 O1 2.114330 1_454
Hg0 O0 2.298048 1_455
Hg0 O5 2.298048 1_564
Hg1 O2 2.114330 1_544
Hg1 O4 2.114330 1_655
Hg1 O0 2.298048 1_545
Hg1 O5 2.298048 1_654
Hg2 O2 2.263879 1_554
Hg2 O4 2.263879 1_555
Hg3 O1 2.263879 1_554
Hg3 O3 2.263879 1_555
O0 Sb0 1.955787 1_556
O1 Sb0 2.105902 1_556
O2 Sb0 2.105902 1_556
O3 Sb0 2.105902 1_555
O4 Sb0 2.105902 1_555
O5 Sb0 1.955787 1_555
