# generated using pymatgen
data_AlCo(WO4)2
_symmetry_space_group_name_H-M   'P 1'
_cell_length_a   5.69805000
_cell_length_b   5.02879900
_cell_length_c   10.35443284
_cell_angle_alpha   61.95880377
_cell_angle_beta   90.00000000
_cell_angle_gamma   90.00000000
_symmetry_Int_Tables_number   1
_chemical_formula_structural   AlCo(WO4)2
_chemical_formula_sum   'Al2 Co2 W4 O16'
_cell_volume   261.86990994
_cell_formula_units_Z   2
loop_
 _symmetry_equiv_pos_site_id
 _symmetry_equiv_pos_as_xyz
  1  'x, y, z'
loop_
 _atom_site_type_symbol
 _atom_site_label
 _atom_site_symmetry_multiplicity
 _atom_site_fract_x
 _atom_site_fract_y
 _atom_site_fract_z
 _atom_site_occupancy
  Al  Al0  1  0.65540400  0.00000000  0.75000000  1
  Al  Al1  1  0.34459600  0.00000000  0.25000000  1
  Co  Co0  1  0.35547500  0.50000000  0.75000000  1
  Co  Co1  1  0.64452500  0.50000000  0.25000000  1
  W  W0  1  0.17171600  0.24226000  0.50225600  1
  W  W1  1  0.17171600  0.75774000  0.99774400  1
  W  W2  1  0.82828400  0.75774000  0.49774400  1
  W  W3  1  0.82828400  0.24226000  0.00225600  1
  O  O0  1  0.39849800  0.74757000  0.87072700  1
  O  O1  1  0.39849800  0.25243000  0.62927300  1
  O  O2  1  0.60150200  0.25243000  0.12927300  1
  O  O3  1  0.60150200  0.74757000  0.37072700  1
  O  O4  1  0.88877800  0.18245700  0.38668300  1
  O  O5  1  0.88877800  0.81754300  0.11331700  1
  O  O6  1  0.11122200  0.81754300  0.61331700  1
  O  O7  1  0.11122200  0.18245700  0.88668300  1
  O  O8  1  0.64113600  0.20577000  0.86252600  1
  O  O9  1  0.64113600  0.79423000  0.63747400  1
  O  O10  1  0.35886400  0.79423000  0.13747400  1
  O  O11  1  0.35886400  0.20577000  0.36252600  1
  O  O12  1  0.88179700  0.69197100  0.88777400  1
  O  O13  1  0.11820300  0.30802900  0.11222600  1
  O  O14  1  0.88179700  0.30802900  0.61222600  1
  O  O15  1  0.11820300  0.69197100  0.38777400  1
loop_
_geom_bond_atom_site_label_1
_geom_bond_atom_site_label_2
_geom_bond_distance
_geom_bond_site_symmetry_2
Al0 O9 1.889049 1_545
Al0 O8 1.889049 1_555
Al0 O1 1.955759 1_555
Al0 O0 1.955759 1_545
Al0 O14 2.005240 1_555
Al0 O12 2.005240 1_545
Al1 O10 1.889049 1_545
Al1 O11 1.889049 1_555
Al1 O3 1.955759 1_545
Al1 O2 1.955759 1_555
Al1 O13 2.005240 1_555
Al1 O15 2.005240 1_545
Co0 O7 2.089282 1_555
Co0 O6 2.089282 1_555
Co0 O8 2.139015 1_555
Co0 O9 2.139015 1_555
Co0 O0 2.153131 1_555
Co0 O1 2.153131 1_555
Co1 O5 2.089282 1_555
Co1 O4 2.089282 1_555
Co1 O10 2.139015 1_555
Co1 O11 2.139015 1_555
Co1 O3 2.153131 1_555
Co1 O2 2.153131 1_555
O0 W1 1.861558 1_555
O1 W0 1.861558 1_555
O2 W3 1.861558 1_555
O3 W2 1.861558 1_555
O4 W2 1.921895 1_545
O4 W0 2.111886 1_655
O5 W3 1.921895 1_565
O5 W1 2.111886 1_654
O6 W0 1.921895 1_565
O6 W2 2.111886 1_455
O7 W1 1.921895 1_545
O7 W3 2.111886 1_456
O8 W3 1.874502 1_556
O9 W2 1.874502 1_555
O10 W1 1.874502 1_554
O11 W0 1.874502 1_555
O12 W3 2.022881 1_556
O12 W1 2.118744 1_655
O13 W1 2.022881 1_554
O13 W3 2.118744 1_455
O14 W2 2.022881 1_555
O14 W0 2.118744 1_655
O15 W0 2.022881 1_555
O15 W2 2.118744 1_455
