# generated using pymatgen
data_MnGa2(CuSe2)3
_symmetry_space_group_name_H-M   'P 1'
_cell_length_a   13.15245374
_cell_length_b   12.53608190
_cell_length_c   6.86134650
_cell_angle_alpha   79.53569125
_cell_angle_beta   69.60033431
_cell_angle_gamma   30.86397445
_symmetry_Int_Tables_number   1
_chemical_formula_structural   MnGa2(CuSe2)3
_chemical_formula_sum   'Mn2 Ga4 Cu6 Se12'
_cell_volume   527.44594882
_cell_formula_units_Z   2
loop_
 _symmetry_equiv_pos_site_id
 _symmetry_equiv_pos_as_xyz
  1  'x, y, z'
loop_
 _atom_site_type_symbol
 _atom_site_label
 _atom_site_symmetry_multiplicity
 _atom_site_fract_x
 _atom_site_fract_y
 _atom_site_fract_z
 _atom_site_occupancy
  Mn  Mn0  1  0.41625054  0.08374946  0.41625054  1
  Mn  Mn1  1  0.16625054  0.83374946  0.16625054  1
  Ga  Ga0  1  0.75587405  0.41291917  0.07690930  1
  Ga  Ga1  1  0.07690930  0.75429748  0.75587405  1
  Ga  Ga2  1  0.49570252  0.17309070  0.83708083  1
  Ga  Ga3  1  0.83708083  0.49412595  0.49570252  1
  Cu  Cu0  1  0.58583053  0.25005106  0.24548848  1
  Cu  Cu1  1  0.91827308  0.58172692  0.91827308  1
  Cu  Cu2  1  0.24548848  0.91862993  0.58583053  1
  Cu  Cu3  1  -0.00005106  0.66416947  0.33137007  1
  Cu  Cu4  1  0.33137007  0.00451152  -0.00005106  1
  Cu  Cu5  1  0.66827308  0.33172692  0.66827308  1
  Se  Se0  1  0.70688018  0.62915220  0.87303821  1
  Se  Se1  1  0.03783087  0.96089681  0.55168549  1
  Se  Se2  1  0.37366288  0.29912046  0.20827938  1
  Se  Se3  1  0.20827938  0.11893627  0.37366288  1
  Se  Se4  1  0.55168549  0.44958582  0.03783087  1
  Se  Se5  1  0.87303821  0.79092941  0.70688018  1
  Se  Se6  1  0.28910319  0.21216913  0.80041418  1
  Se  Se7  1  0.62084780  0.54311982  0.45907059  1
  Se  Se8  1  0.95087954  0.87633712  0.13106373  1
  Se  Se9  1  0.45907059  0.37696179  0.62084780  1
  Se  Se10  1  0.80041418  0.69831451  0.28910319  1
  Se  Se11  1  0.13106373  0.04172062  0.95087954  1
loop_
_geom_bond_atom_site_label_1
_geom_bond_atom_site_label_2
_geom_bond_distance
_geom_bond_site_symmetry_2
Mn0 Se10 2.486505 1_545
Mn0 Se6 2.486508 1_555
Mn0 Se2 2.490167 1_555
Mn0 Se3 2.490177 1_555
Mn1 Se1 2.486502 1_555
Mn1 Se4 2.486505 1_555
Mn1 Se8 2.490163 1_455
Mn1 Se11 2.490173 1_564
Ga0 Se11 2.411934 1_654
Ga0 Se4 2.415261 1_555
Ga0 Se0 2.443803 1_554
Ga0 Se7 2.454698 1_555
Ga1 Se8 2.411937 1_456
Ga1 Se1 2.415251 1_555
Ga1 Se5 2.443803 1_455
Ga1 Se9 2.454698 1_555
Ga2 Se2 2.411930 1_556
Ga2 Se6 2.415248 1_555
Ga2 Se9 2.443803 1_555
Ga2 Se5 2.454698 1_545
Ga3 Se3 2.411934 1_655
Ga3 Se10 2.415258 1_555
Ga3 Se7 2.443803 1_555
Ga3 Se0 2.454698 1_555
Cu0 Se8 2.389330 1_545
Cu0 Se4 2.389899 1_555
Cu0 Se2 2.392337 1_555
Cu0 Se9 2.425927 1_555
Cu1 Se6 2.392629 1_655
Cu1 Se10 2.392632 1_556
Cu1 Se0 2.424213 1_555
Cu1 Se5 2.424213 1_555
Cu2 Se11 2.389333 1_565
Cu2 Se1 2.389909 1_555
Cu2 Se3 2.392327 1_565
Cu2 Se7 2.425927 1_555
Cu3 Se2 2.389330 1_555
Cu3 Se10 2.389896 1_455
Cu3 Se8 2.392334 1_455
Cu3 Se5 2.425927 1_455
Cu4 Se3 2.389327 1_555
Cu4 Se6 2.389906 1_554
Cu4 Se11 2.392324 1_554
Cu4 Se0 2.425927 1_544
Cu5 Se4 2.392626 1_556
Cu5 Se1 2.392629 1_645
Cu5 Se9 2.424213 1_555
Cu5 Se7 2.424213 1_555
