# generated using pymatgen
data_SrAs
_symmetry_space_group_name_H-M   'P 1'
_cell_length_a   8.30432385
_cell_length_b   8.30432329
_cell_length_c   6.24636555
_cell_angle_alpha   90.00000000
_cell_angle_beta   90.00000000
_cell_angle_gamma   119.99999409
_symmetry_Int_Tables_number   1
_chemical_formula_structural   SrAs
_chemical_formula_sum   'Sr6 As6'
_cell_volume   373.04960045
_cell_formula_units_Z   6
loop_
 _symmetry_equiv_pos_site_id
 _symmetry_equiv_pos_as_xyz
  1  'x, y, z'
loop_
 _atom_site_type_symbol
 _atom_site_label
 _atom_site_symmetry_multiplicity
 _atom_site_fract_x
 _atom_site_fract_y
 _atom_site_fract_z
 _atom_site_occupancy
  Sr  Sr0  1  -0.00000000  0.64599782  0.50000000  1
  Sr  Sr1  1  0.35400218  0.35400218  0.50000000  1
  Sr  Sr2  1  0.64599782  -0.00000000  0.50000000  1
  Sr  Sr3  1  -0.00000000  0.31112893  -0.00000000  1
  Sr  Sr4  1  0.68887107  0.68887107  -0.00000000  1
  Sr  Sr5  1  0.31112893  -0.00000000  -0.00000000  1
  As  As0  1  0.66666700  0.33333300  0.20560509  1
  As  As1  1  0.66666700  0.33333300  0.79439491  1
  As  As2  1  0.33333300  0.66666700  0.79439491  1
  As  As3  1  0.33333300  0.66666700  0.20560509  1
  As  As4  1  0.00000000  -0.00000000  0.70033400  1
  As  As5  1  0.00000000  -0.00000000  0.29966600  1
loop_
_geom_bond_atom_site_label_1
_geom_bond_atom_site_label_2
_geom_bond_distance
_geom_bond_site_symmetry_2
As0 As1 2.568569 1_554
As0 Sr3 3.139459 1_655
As0 Sr5 3.139463 1_555
As0 Sr4 3.139466 1_555
As0 Sr2 3.255501 1_555
As0 Sr0 3.255504 1_655
As0 Sr1 3.255508 1_555
As1 Sr3 3.139459 1_656
As1 Sr5 3.139463 1_556
As1 Sr4 3.139466 1_556
As1 Sr2 3.255501 1_555
As1 Sr0 3.255504 1_655
As1 Sr1 3.255508 1_555
As2 As3 2.568569 1_556
As2 Sr5 3.139459 1_566
As2 Sr3 3.139463 1_556
As2 Sr4 3.139467 1_556
As2 Sr0 3.255501 1_555
As2 Sr2 3.255504 1_565
As2 Sr1 3.255508 1_555
As3 Sr5 3.139459 1_565
As3 Sr3 3.139463 1_555
As3 Sr4 3.139467 1_555
As3 Sr0 3.255501 1_555
As3 Sr2 3.255504 1_565
As3 Sr1 3.255508 1_555
As4 As5 2.502719 1_555
As4 Sr3 3.190503 1_556
As4 Sr5 3.190503 1_556
As4 Sr4 3.190503 1_446
As4 Sr0 3.195000 1_545
As4 Sr2 3.195000 1_455
As4 Sr1 3.195000 1_555
As5 Sr3 3.190503 1_555
As5 Sr5 3.190503 1_555
As5 Sr4 3.190503 1_445
As5 Sr0 3.195000 1_545
As5 Sr2 3.195000 1_455
As5 Sr1 3.195000 1_555
