# generated using pymatgen
data_KRb2AsI6
_symmetry_space_group_name_H-M   'P 1'
_cell_length_a   8.81814058
_cell_length_b   8.81814058
_cell_length_c   8.81814058
_cell_angle_alpha   60.00000000
_cell_angle_beta   60.00000000
_cell_angle_gamma   60.00000000
_symmetry_Int_Tables_number   1
_chemical_formula_structural   KRb2AsI6
_chemical_formula_sum   'K1 Rb2 As1 I6'
_cell_volume   484.85966403
_cell_formula_units_Z   1
loop_
 _symmetry_equiv_pos_site_id
 _symmetry_equiv_pos_as_xyz
  1  'x, y, z'
loop_
 _atom_site_type_symbol
 _atom_site_label
 _atom_site_symmetry_multiplicity
 _atom_site_fract_x
 _atom_site_fract_y
 _atom_site_fract_z
 _atom_site_occupancy
  K  K0  1  0.50000000  0.50000000  0.50000000  1
  Rb  Rb0  1  0.75000000  0.75000000  0.75000000  1
  Rb  Rb1  1  0.25000000  0.25000000  0.25000000  1
  As  As0  1  0.00000000  0.00000000  0.00000000  1
  I  I0  1  0.76949100  0.23050900  0.23050900  1
  I  I1  1  0.23050900  0.23050900  0.76949100  1
  I  I2  1  0.23050900  0.76949100  0.76949100  1
  I  I3  1  0.23050900  0.76949100  0.23050900  1
  I  I4  1  0.76949100  0.23050900  0.76949100  1
  I  I5  1  0.76949100  0.76949100  0.23050900  1
loop_
_geom_bond_atom_site_label_1
_geom_bond_atom_site_label_2
_geom_bond_distance
_geom_bond_site_symmetry_2
As0 I4 2.874616 1_454
As0 I5 2.874616 1_445
As0 I2 2.874616 1_544
As0 I1 2.874616 1_554
As0 I0 2.874616 1_455
As0 I3 2.874616 1_545
I0 K0 3.360751 1_555
I1 K0 3.360751 1_555
I2 K0 3.360751 1_555
I3 K0 3.360751 1_555
I4 K0 3.360751 1_555
I5 K0 3.360751 1_555
