# generated using pymatgen
data_Lu2PbS4
_symmetry_space_group_name_H-M   'P 1'
_cell_length_a   3.88704826
_cell_length_b   11.92761408
_cell_length_c   14.08429137
_cell_angle_alpha   90.00000000
_cell_angle_beta   90.00000000
_cell_angle_gamma   90.00000000
_symmetry_Int_Tables_number   1
_chemical_formula_structural   Lu2PbS4
_chemical_formula_sum   'Lu8 Pb4 S16'
_cell_volume   652.99298040
_cell_formula_units_Z   4
loop_
 _symmetry_equiv_pos_site_id
 _symmetry_equiv_pos_as_xyz
  1  'x, y, z'
loop_
 _atom_site_type_symbol
 _atom_site_label
 _atom_site_symmetry_multiplicity
 _atom_site_fract_x
 _atom_site_fract_y
 _atom_site_fract_z
 _atom_site_occupancy
  Lu  Lu0  1  0.25000000  0.44098482  0.38767703  1
  Lu  Lu1  1  0.25000000  0.94098482  0.11232297  1
  Lu  Lu2  1  0.75000000  0.55901518  0.61232297  1
  Lu  Lu3  1  0.75000000  0.05901518  0.88767703  1
  Lu  Lu4  1  0.25000000  0.41493442  0.90138712  1
  Lu  Lu5  1  0.25000000  0.91493442  0.59861288  1
  Lu  Lu6  1  0.75000000  0.58506558  0.09861288  1
  Lu  Lu7  1  0.75000000  0.08506558  0.40138712  1
  Pb  Pb0  1  0.25000000  0.76077380  0.33521327  1
  Pb  Pb1  1  0.25000000  0.26077380  0.16478673  1
  Pb  Pb2  1  0.75000000  0.23922620  0.66478673  1
  Pb  Pb3  1  0.75000000  0.73922620  0.83521327  1
  S  S0  1  0.25000000  0.20313818  0.83460688  1
  S  S1  1  0.25000000  0.70313818  0.66539312  1
  S  S2  1  0.75000000  0.79686182  0.16539312  1
  S  S3  1  0.75000000  0.29686182  0.33460688  1
  S  S4  1  0.25000000  0.12403499  0.52967090  1
  S  S5  1  0.25000000  0.62403499  0.97032910  1
  S  S6  1  0.75000000  0.87596501  0.47032910  1
  S  S7  1  0.75000000  0.37596501  0.02967090  1
  S  S8  1  0.25000000  0.03031904  0.28476980  1
  S  S9  1  0.25000000  0.53031904  0.21523020  1
  S  S10  1  0.75000000  0.96968096  0.71523020  1
  S  S11  1  0.75000000  0.46968096  0.78476980  1
  S  S12  1  0.25000000  0.41080602  0.57392085  1
  S  S13  1  0.25000000  0.91080602  0.92607915  1
  S  S14  1  0.75000000  0.58919398  0.42607915  1
  S  S15  1  0.75000000  0.08919398  0.07392085  1
loop_
_geom_bond_atom_site_label_1
_geom_bond_atom_site_label_2
_geom_bond_distance
_geom_bond_site_symmetry_2
Lu0 S12 2.647695 1_555
Lu0 S9 2.652247 1_555
Lu0 S14 2.682326 1_555
Lu0 S14 2.682326 1_455
Lu0 S3 2.700201 1_455
Lu0 S3 2.700201 1_555
Lu1 S13 2.647695 1_554
Lu1 S8 2.652247 1_565
Lu1 S15 2.682326 1_565
Lu1 S15 2.682326 1_465
Lu1 S2 2.700201 1_555
Lu1 S2 2.700201 1_455
Lu2 S14 2.647695 1_555
Lu2 S11 2.652247 1_555
Lu2 S12 2.682326 1_555
Lu2 S12 2.682326 1_655
Lu2 S1 2.700201 1_555
Lu2 S1 2.700201 1_655
Lu3 S15 2.647695 1_556
Lu3 S10 2.652247 1_545
Lu3 S13 2.682326 1_645
Lu3 S13 2.682326 1_545
Lu3 S0 2.700201 1_555
Lu3 S0 2.700201 1_655
Lu4 S11 2.627052 1_555
Lu4 S11 2.627052 1_455
Lu4 S5 2.676421 1_555
Lu4 S7 2.694033 1_456
Lu4 S7 2.694033 1_556
Lu4 S0 2.695635 1_555
Lu5 S10 2.627052 1_555
Lu5 S10 2.627052 1_455
Lu5 S4 2.676421 1_565
Lu5 S6 2.694033 1_555
Lu5 S6 2.694033 1_455
Lu5 S1 2.695635 1_555
Lu6 S9 2.627052 1_655
Lu6 S9 2.627052 1_555
Lu6 S7 2.676421 1_555
Lu6 S5 2.694033 1_654
Lu6 S5 2.694033 1_554
Lu6 S2 2.695635 1_555
Lu7 S8 2.627052 1_655
Lu7 S8 2.627052 1_555
Lu7 S6 2.676421 1_545
Lu7 S4 2.694033 1_555
Lu7 S4 2.694033 1_655
Lu7 S3 2.695635 1_555
Pb0 S6 3.047375 1_455
Pb0 S6 3.047375 1_555
Pb0 S14 3.098942 1_555
Pb0 S14 3.098942 1_455
Pb0 S2 3.111793 1_455
Pb0 S2 3.111793 1_555
Pb1 S7 3.047375 1_455
Pb1 S7 3.047375 1_555
Pb1 S15 3.098942 1_555
Pb1 S15 3.098942 1_455
Pb1 S3 3.111793 1_555
Pb1 S3 3.111793 1_455
Pb2 S4 3.047375 1_555
Pb2 S4 3.047375 1_655
Pb2 S12 3.098942 1_655
Pb2 S12 3.098942 1_555
Pb2 S0 3.111793 1_655
Pb2 S0 3.111793 1_555
Pb3 S5 3.047375 1_555
Pb3 S5 3.047375 1_655
Pb3 S13 3.098942 1_555
Pb3 S13 3.098942 1_655
Pb3 S1 3.111793 1_655
Pb3 S1 3.111793 1_555
