# generated using pymatgen
data_SrCa7FeCo7O24
_symmetry_space_group_name_H-M   'P 1'
_cell_length_a   7.58903788
_cell_length_b   7.58903788
_cell_length_c   7.58903868
_cell_angle_alpha   89.97306618
_cell_angle_beta   89.97306618
_cell_angle_gamma   89.97307250
_symmetry_Int_Tables_number   1
_chemical_formula_structural   SrCa7FeCo7O24
_chemical_formula_sum   'Sr1 Ca7 Fe1 Co7 O24'
_cell_volume   437.07912350
_cell_formula_units_Z   1
loop_
 _symmetry_equiv_pos_site_id
 _symmetry_equiv_pos_as_xyz
  1  'x, y, z'
loop_
 _atom_site_type_symbol
 _atom_site_label
 _atom_site_symmetry_multiplicity
 _atom_site_fract_x
 _atom_site_fract_y
 _atom_site_fract_z
 _atom_site_occupancy
  Sr  Sr0  1  0.75056600  0.75056600  0.75056600  1
  Ca  Ca0  1  0.24803200  0.24803200  0.75219400  1
  Ca  Ca1  1  0.75193800  0.24800400  0.75193800  1
  Ca  Ca2  1  0.24829300  0.24829300  0.24829300  1
  Ca  Ca3  1  0.75219400  0.24803200  0.24803200  1
  Ca  Ca4  1  0.24800400  0.75193800  0.75193800  1
  Ca  Ca5  1  0.24803200  0.75219400  0.24803200  1
  Ca  Ca6  1  0.75193800  0.75193800  0.24800400  1
  Fe  Fe0  1  0.00054700  0.00054700  0.00054700  1
  Co  Co0  1  0.49939000  0.00072500  0.00072500  1
  Co  Co1  1  0.00072500  0.00072500  0.49939000  1
  Co  Co2  1  0.49898400  0.00122600  0.49898400  1
  Co  Co3  1  0.00072500  0.49939000  0.00072500  1
  Co  Co4  1  0.49898400  0.49898400  0.00122600  1
  Co  Co5  1  0.00122600  0.49898400  0.49898400  1
  Co  Co6  1  0.49908500  0.49908500  0.49908500  1
  O  O0  1  0.00118400  0.25423200  0.00118400  1
  O  O1  1  0.49932800  0.24739600  0.00108600  1
  O  O2  1  0.00108600  0.24739600  0.49932800  1
  O  O3  1  0.49921500  0.25210500  0.49921500  1
  O  O4  1  0.00286600  0.74565100  0.00286600  1
  O  O5  1  0.49699900  0.75278500  0.00283400  1
  O  O6  1  0.00283400  0.75278500  0.49699900  1
  O  O7  1  0.49710600  0.74775000  0.49710600  1
  O  O8  1  0.00286600  0.00286600  0.74565100  1
  O  O9  1  0.49699900  0.00283400  0.75278500  1
  O  O10  1  0.00118400  0.00118400  0.25423200  1
  O  O11  1  0.49932800  0.00108600  0.24739600  1
  O  O12  1  0.00283400  0.49699900  0.75278500  1
  O  O13  1  0.49710600  0.49710600  0.74775000  1
  O  O14  1  0.00108600  0.49932800  0.24739600  1
  O  O15  1  0.49921500  0.49921500  0.25210500  1
  O  O16  1  0.25423200  0.00118400  0.00118400  1
  O  O17  1  0.74565100  0.00286600  0.00286600  1
  O  O18  1  0.24739600  0.00108600  0.49932800  1
  O  O19  1  0.75278500  0.00283400  0.49699900  1
  O  O20  1  0.24739600  0.49932800  0.00108600  1
  O  O21  1  0.75278500  0.49699900  0.00283400  1
  O  O22  1  0.25210500  0.49921500  0.49921500  1
  O  O23  1  0.74775000  0.49710600  0.49710600  1
loop_
_geom_bond_atom_site_label_1
_geom_bond_atom_site_label_2
_geom_bond_distance
_geom_bond_site_symmetry_2
Ca0 O8 2.632369 1_555
Ca0 O12 2.651276 1_555
Ca0 O9 2.651276 1_555
Ca0 O16 2.660611 1_556
Ca0 O0 2.660611 1_556
Ca0 O13 2.674010 1_555
Ca0 O2 2.682947 1_555
Ca0 O18 2.682947 1_555
Ca0 O1 2.684802 1_556
Ca0 O20 2.684802 1_556
Ca0 O22 2.705022 1_555
Ca0 O3 2.705022 1_555
Ca1 O17 2.662002 1_556
Ca1 O8 2.662002 1_655
Ca1 O0 2.676115 1_656
Ca1 O12 2.683207 1_655
Ca1 O21 2.683207 1_556
Ca1 O9 2.684861 1_555
Ca1 O19 2.684861 1_555
Ca1 O1 2.691999 1_556
Ca1 O2 2.691999 1_655
Ca1 O23 2.703967 1_555
Ca1 O13 2.703967 1_555
Ca1 O3 2.713150 1_555
Ca2 O10 2.653078 1_555
Ca2 O0 2.653079 1_555
Ca2 O16 2.653079 1_555
Ca2 O20 2.673155 1_555
Ca2 O1 2.673155 1_555
Ca2 O18 2.673155 1_555
Ca2 O2 2.673155 1_555
Ca2 O14 2.673155 1_555
Ca2 O11 2.673155 1_555
Ca2 O15 2.693833 1_555
Ca2 O22 2.693833 1_555
Ca2 O3 2.693833 1_555
Ca3 O17 2.632369 1_555
Ca3 O21 2.651276 1_555
Ca3 O19 2.651276 1_555
Ca3 O0 2.660611 1_655
Ca3 O10 2.660611 1_655
Ca3 O23 2.674010 1_555
Ca3 O11 2.682947 1_555
Ca3 O1 2.682947 1_555
Ca3 O14 2.684802 1_655
Ca3 O2 2.684802 1_655
Ca3 O3 2.705022 1_555
Ca3 O15 2.705022 1_555
Ca4 O4 2.662002 1_556
Ca4 O8 2.662002 1_565
Ca4 O16 2.676115 1_566
Ca4 O9 2.683207 1_565
Ca4 O5 2.683207 1_556
Ca4 O12 2.684861 1_555
Ca4 O6 2.684861 1_555
Ca4 O20 2.691999 1_556
Ca4 O18 2.691999 1_565
Ca4 O7 2.703967 1_555
Ca4 O13 2.703967 1_555
Ca4 O22 2.713150 1_555
Ca5 O4 2.632369 1_555
Ca5 O5 2.651276 1_555
Ca5 O6 2.651276 1_555
Ca5 O16 2.660611 1_565
Ca5 O10 2.660611 1_565
Ca5 O7 2.674010 1_555
Ca5 O14 2.682947 1_555
Ca5 O20 2.682947 1_555
Ca5 O11 2.684802 1_565
Ca5 O18 2.684802 1_565
Ca5 O22 2.705022 1_555
Ca5 O15 2.705022 1_555
Ca6 O17 2.662002 1_565
Ca6 O4 2.662002 1_655
Ca6 O10 2.676115 1_665
Ca6 O6 2.683207 1_655
Ca6 O19 2.683207 1_565
Ca6 O21 2.684861 1_555
Ca6 O5 2.684861 1_555
Ca6 O11 2.691999 1_565
Ca6 O14 2.691999 1_655
Ca6 O7 2.703967 1_555
Ca6 O23 2.703967 1_555
Ca6 O15 2.713150 1_555
Fe0 O0 1.925242 1_555
Fe0 O16 1.925242 1_555
Fe0 O10 1.925242 1_555
Fe0 O4 1.934559 1_545
Fe0 O17 1.934559 1_455
Fe0 O8 1.934559 1_554
Co0 O16 1.860517 1_555
Co0 O17 1.869041 1_555
Co0 O1 1.871999 1_555
Co0 O11 1.871999 1_555
Co0 O5 1.881783 1_545
Co0 O9 1.881783 1_554
Co1 O10 1.860517 1_555
Co1 O8 1.869041 1_555
Co1 O18 1.871999 1_555
Co1 O2 1.871999 1_555
Co1 O6 1.881783 1_545
Co1 O19 1.881783 1_455
Co2 O3 1.903933 1_555
Co2 O18 1.909312 1_555
Co2 O11 1.909312 1_555
Co2 O7 1.923758 1_545
Co2 O19 1.926202 1_555
Co2 O9 1.926202 1_555
Co3 O0 1.860517 1_555
Co3 O4 1.869041 1_555
Co3 O20 1.871999 1_555
Co3 O14 1.871999 1_555
Co3 O21 1.881783 1_455
Co3 O12 1.881783 1_554
Co4 O15 1.903934 1_555
Co4 O20 1.909312 1_555
Co4 O1 1.909312 1_555
Co4 O13 1.923758 1_554
Co4 O21 1.926202 1_555
Co4 O5 1.926202 1_555
Co5 O22 1.903933 1_555
Co5 O2 1.909312 1_555
Co5 O14 1.909312 1_555
Co5 O23 1.923758 1_455
Co5 O6 1.926202 1_555
Co5 O12 1.926202 1_555
Co6 O3 1.874340 1_555
Co6 O22 1.874340 1_555
Co6 O15 1.874340 1_555
Co6 O7 1.887234 1_555
Co6 O23 1.887234 1_555
Co6 O13 1.887234 1_555
O4 Sr0 2.708683 1_454
O5 Sr0 2.713865 1_554
O6 Sr0 2.713865 1_455
O7 Sr0 2.721002 1_555
O8 Sr0 2.708683 1_445
O9 Sr0 2.713865 1_545
O12 Sr0 2.713865 1_455
O13 Sr0 2.721002 1_555
O17 Sr0 2.708683 1_544
O19 Sr0 2.713865 1_545
O21 Sr0 2.713865 1_554
O23 Sr0 2.721002 1_555
