# generated using pymatgen
data_NaBeSb
_symmetry_space_group_name_H-M   'P 1'
_cell_length_a   4.41151334
_cell_length_b   4.41151334
_cell_length_c   4.41151334
_cell_angle_alpha   60.00000000
_cell_angle_beta   60.00000000
_cell_angle_gamma   60.00000000
_symmetry_Int_Tables_number   1
_chemical_formula_structural   NaBeSb
_chemical_formula_sum   'Na1 Be1 Sb1'
_cell_volume   60.70826112
_cell_formula_units_Z   1
loop_
 _symmetry_equiv_pos_site_id
 _symmetry_equiv_pos_as_xyz
  1  'x, y, z'
loop_
 _atom_site_type_symbol
 _atom_site_label
 _atom_site_symmetry_multiplicity
 _atom_site_fract_x
 _atom_site_fract_y
 _atom_site_fract_z
 _atom_site_occupancy
  Na  Na0  1  0.00000000  0.00000000  0.00000000  1
  Be  Be0  1  0.75000000  0.75000000  0.75000000  1
  Sb  Sb0  1  0.50000000  0.50000000  0.50000000  1
loop_
_geom_bond_atom_site_label_1
_geom_bond_atom_site_label_2
_geom_bond_distance
_geom_bond_site_symmetry_2
Na0 Sb0 3.119411 1_445
Na0 Sb0 3.119411 1_455
Na0 Sb0 3.119411 1_454
Na0 Sb0 3.119411 1_554
Na0 Sb0 3.119411 1_545
Na0 Sb0 3.119411 1_544
Be0 Sb0 2.701489 1_655
Be0 Sb0 2.701489 1_556
Be0 Sb0 2.701489 1_555
Be0 Sb0 2.701489 1_565
Be0 Na0 2.701489 1_566
Be0 Na0 2.701489 1_656
Be0 Na0 2.701489 1_666
Be0 Na0 2.701489 1_665
