# generated using pymatgen
data_SbO2
_symmetry_space_group_name_H-M   'P 1'
_cell_length_a   6.71490661
_cell_length_b   6.71490661
_cell_length_c   6.71490661
_cell_angle_alpha   60.00000000
_cell_angle_beta   60.00000000
_cell_angle_gamma   60.00000000
_symmetry_Int_Tables_number   1
_chemical_formula_structural   SbO2
_chemical_formula_sum   'Sb4 O8'
_cell_volume   214.09421540
_cell_formula_units_Z   4
loop_
 _symmetry_equiv_pos_site_id
 _symmetry_equiv_pos_as_xyz
  1  'x, y, z'
loop_
 _atom_site_type_symbol
 _atom_site_label
 _atom_site_symmetry_multiplicity
 _atom_site_fract_x
 _atom_site_fract_y
 _atom_site_fract_z
 _atom_site_occupancy
  Sb  Sb0  1  0.12500000  0.12500000  0.12500000  1
  Sb  Sb1  1  0.12500000  0.12500000  0.62500000  1
  Sb  Sb2  1  0.12500000  0.62500000  0.12500000  1
  Sb  Sb3  1  0.62500000  0.12500000  0.12500000  1
  O  O0  1  0.93913400  0.35362200  0.35362200  1
  O  O1  1  0.35362200  0.35362200  0.35362200  1
  O  O2  1  0.31086600  0.89637800  0.89637800  1
  O  O3  1  0.89637800  0.89637800  0.31086600  1
  O  O4  1  0.89637800  0.89637800  0.89637800  1
  O  O5  1  0.89637800  0.31086600  0.89637800  1
  O  O6  1  0.35362200  0.93913400  0.35362200  1
  O  O7  1  0.35362200  0.35362200  0.93913400  1
loop_
_geom_bond_atom_site_label_1
_geom_bond_atom_site_label_2
_geom_bond_distance
_geom_bond_site_symmetry_2
O0 Sb0 2.189967 1_655
O0 Sb2 2.189967 1_655
O0 Sb1 2.189967 1_655
O1 Sb3 2.189967 1_555
O1 Sb2 2.189967 1_555
O1 Sb1 2.189967 1_555
O2 Sb0 2.189967 1_566
O2 Sb1 2.189967 1_565
O2 Sb2 2.189967 1_556
O3 Sb3 2.189967 1_565
O3 Sb2 2.189967 1_655
O3 Sb0 2.189967 1_665
O4 Sb1 2.189967 1_665
O4 Sb3 2.189967 1_566
O4 Sb2 2.189967 1_656
O5 Sb0 2.189967 1_656
O5 Sb3 2.189967 1_556
O5 Sb1 2.189967 1_655
O6 Sb1 2.189967 1_565
O6 Sb3 2.189967 1_565
O6 Sb0 2.189967 1_565
O7 Sb3 2.189967 1_556
O7 Sb0 2.189967 1_556
O7 Sb2 2.189967 1_556
