# generated using pymatgen
data_CsZn4P3
_symmetry_space_group_name_H-M   'P 1'
_cell_length_a   4.05437115
_cell_length_b   4.05437115
_cell_length_c   10.43245374
_cell_angle_alpha   90.00000000
_cell_angle_beta   90.00000000
_cell_angle_gamma   90.00000000
_symmetry_Int_Tables_number   1
_chemical_formula_structural   CsZn4P3
_chemical_formula_sum   'Cs1 Zn4 P3'
_cell_volume   171.48789655
_cell_formula_units_Z   1
loop_
 _symmetry_equiv_pos_site_id
 _symmetry_equiv_pos_as_xyz
  1  'x, y, z'
loop_
 _atom_site_type_symbol
 _atom_site_label
 _atom_site_symmetry_multiplicity
 _atom_site_fract_x
 _atom_site_fract_y
 _atom_site_fract_z
 _atom_site_occupancy
  Cs  Cs0  1  -0.00000000  0.00000000  0.50000000  1
  Zn  Zn0  1  0.50000000  0.00000000  0.84843954  1
  Zn  Zn1  1  -0.00000000  0.50000000  0.84843954  1
  Zn  Zn2  1  0.50000000  -0.00000000  0.15156046  1
  Zn  Zn3  1  0.00000000  0.50000000  0.15156046  1
  P  P0  1  0.50000000  0.50000000  0.72670474  1
  P  P1  1  0.50000000  0.50000000  0.27329526  1
  P  P2  1  -0.00000000  0.00000000  0.00000000  1
loop_
_geom_bond_atom_site_label_1
_geom_bond_atom_site_label_2
_geom_bond_distance
_geom_bond_site_symmetry_2
Cs0 P0 3.716530 1_555
Cs0 P0 3.716530 1_445
Cs0 P0 3.716530 1_545
Cs0 P0 3.716530 1_455
Cs0 P1 3.716530 1_455
Cs0 P1 3.716530 1_545
Cs0 P1 3.716530 1_445
Cs0 P1 3.716530 1_555
P0 Zn0 2.392146 1_565
P0 Zn1 2.392146 1_655
P0 Zn0 2.392146 1_555
P0 Zn1 2.392146 1_555
P1 Zn3 2.392146 1_555
P1 Zn2 2.392146 1_565
P1 Zn3 2.392146 1_655
P1 Zn2 2.392146 1_555
P2 Zn1 2.570896 1_554
P2 Zn0 2.570896 1_554
P2 Zn2 2.570896 1_555
P2 Zn0 2.570896 1_454
P2 Zn3 2.570896 1_545
P2 Zn3 2.570896 1_555
P2 Zn1 2.570896 1_544
P2 Zn2 2.570896 1_455
