# generated using pymatgen
data_Sm3Sb4S9
_symmetry_space_group_name_H-M   'P 1'
_cell_length_a   3.84981340
_cell_length_b   15.86498109
_cell_length_c   24.58837634
_cell_angle_alpha   90.00000000
_cell_angle_beta   90.00000000
_cell_angle_gamma   90.00000000
_symmetry_Int_Tables_number   1
_chemical_formula_structural   Sm3Sb4S9
_chemical_formula_sum   'Sm12 Sb16 S36'
_cell_volume   1501.78959226
_cell_formula_units_Z   4
loop_
 _symmetry_equiv_pos_site_id
 _symmetry_equiv_pos_as_xyz
  1  'x, y, z'
loop_
 _atom_site_type_symbol
 _atom_site_label
 _atom_site_symmetry_multiplicity
 _atom_site_fract_x
 _atom_site_fract_y
 _atom_site_fract_z
 _atom_site_occupancy
  Sm  Sm0  1  0.75000000  0.37105651  0.06339246  1
  Sm  Sm1  1  0.75000000  0.87105651  0.43660754  1
  Sm  Sm2  1  0.25000000  0.62894349  0.93660754  1
  Sm  Sm3  1  0.25000000  0.12894349  0.56339246  1
  Sm  Sm4  1  0.75000000  0.17416900  0.17800505  1
  Sm  Sm5  1  0.75000000  0.67416900  0.32199495  1
  Sm  Sm6  1  0.25000000  0.82583100  0.82199495  1
  Sm  Sm7  1  0.25000000  0.32583100  0.67800505  1
  Sm  Sm8  1  0.75000000  0.45962618  0.23262515  1
  Sm  Sm9  1  0.75000000  0.95962618  0.26737485  1
  Sm  Sm10  1  0.25000000  0.54037382  0.76737485  1
  Sm  Sm11  1  0.25000000  0.04037382  0.73262515  1
  Sb  Sb0  1  0.75000000  0.35446146  0.50070263  1
  Sb  Sb1  1  0.75000000  0.85446146  0.99929737  1
  Sb  Sb2  1  0.25000000  0.64553854  0.49929737  1
  Sb  Sb3  1  0.25000000  0.14553854  0.00070263  1
  Sb  Sb4  1  0.75000000  0.04230369  0.91222302  1
  Sb  Sb5  1  0.75000000  0.54230369  0.58777698  1
  Sb  Sb6  1  0.25000000  0.95769631  0.08777698  1
  Sb  Sb7  1  0.25000000  0.45769631  0.41222302  1
  Sb  Sb8  1  0.75000000  0.39768364  0.89681612  1
  Sb  Sb9  1  0.75000000  0.89768364  0.60318388  1
  Sb  Sb10  1  0.25000000  0.60231636  0.10318388  1
  Sb  Sb11  1  0.25000000  0.10231636  0.39681612  1
  Sb  Sb12  1  0.75000000  0.23495681  0.82394972  1
  Sb  Sb13  1  0.75000000  0.73495681  0.67605028  1
  Sb  Sb14  1  0.25000000  0.76504319  0.17605028  1
  Sb  Sb15  1  0.25000000  0.26504319  0.32394972  1
  S  S0  1  0.75000000  0.24585006  0.60193555  1
  S  S1  1  0.75000000  0.74585006  0.89806445  1
  S  S2  1  0.25000000  0.75414994  0.39806445  1
  S  S3  1  0.25000000  0.25414994  0.10193555  1
  S  S4  1  0.75000000  0.04882760  0.63823170  1
  S  S5  1  0.75000000  0.54882760  0.86176830  1
  S  S6  1  0.25000000  0.95117240  0.36176830  1
  S  S7  1  0.25000000  0.45117240  0.13823170  1
  S  S8  1  0.75000000  0.45027654  0.70740651  1
  S  S9  1  0.75000000  0.95027654  0.79259349  1
  S  S10  1  0.25000000  0.54972346  0.29259349  1
  S  S11  1  0.25000000  0.04972346  0.20740651  1
  S  S12  1  0.75000000  0.20386256  0.72560198  1
  S  S13  1  0.75000000  0.70386256  0.77439802  1
  S  S14  1  0.25000000  0.79613744  0.27439802  1
  S  S15  1  0.25000000  0.29613744  0.22560198  1
  S  S16  1  0.75000000  0.06946987  0.07761889  1
  S  S17  1  0.75000000  0.56946987  0.42238111  1
  S  S18  1  0.25000000  0.93053013  0.92238111  1
  S  S19  1  0.25000000  0.43053013  0.57761889  1
  S  S20  1  0.75000000  0.05518610  0.46508644  1
  S  S21  1  0.75000000  0.55518610  0.03491356  1
  S  S22  1  0.25000000  0.94481390  0.53491356  1
  S  S23  1  0.25000000  0.44481390  0.96508644  1
  S  S24  1  0.75000000  0.25292488  0.97650455  1
  S  S25  1  0.75000000  0.75292488  0.52349545  1
  S  S26  1  0.25000000  0.74707512  0.02349545  1
  S  S27  1  0.25000000  0.24707512  0.47650455  1
  S  S28  1  0.75000000  0.13019887  0.30949561  1
  S  S29  1  0.75000000  0.63019887  0.19050439  1
  S  S30  1  0.25000000  0.86980113  0.69050439  1
  S  S31  1  0.25000000  0.36980113  0.80949561  1
  S  S32  1  0.75000000  0.37458659  0.33579288  1
  S  S33  1  0.75000000  0.87458659  0.16420712  1
  S  S34  1  0.25000000  0.62541341  0.66420712  1
  S  S35  1  0.25000000  0.12541341  0.83579288  1
loop_
_geom_bond_atom_site_label_1
_geom_bond_atom_site_label_2
_geom_bond_distance
_geom_bond_site_symmetry_2
S0 Sm3 2.836091 1_655
S0 Sm3 2.836091 1_555
S0 Sm7 2.968814 1_555
S0 Sm7 2.968814 1_655
S0 Sb0 3.027378 1_555
S1 Sm2 2.836091 1_555
S1 Sm2 2.836091 1_655
S1 Sm6 2.968814 1_555
S1 Sm6 2.968814 1_655
S1 Sb1 3.027378 1_555
S2 Sm1 2.836091 1_555
S2 Sm1 2.836091 1_455
S2 Sm5 2.968814 1_555
S2 Sm5 2.968814 1_455
S2 Sb2 3.027378 1_555
S3 Sm0 2.836091 1_455
S3 Sm0 2.836091 1_555
S3 Sm4 2.968814 1_455
S3 Sm4 2.968814 1_555
S3 Sb3 3.027378 1_555
S4 Sb9 2.548049 1_545
S4 Sm3 2.950771 1_555
S4 Sm3 2.950771 1_655
S4 Sm11 3.018312 1_655
S4 Sm11 3.018312 1_555
S5 Sb8 2.548049 1_555
S5 Sm2 2.950771 1_555
S5 Sm2 2.950771 1_655
S5 Sm10 3.018312 1_655
S5 Sm10 3.018312 1_555
S6 Sb11 2.548049 1_565
S6 Sm1 2.950771 1_555
S6 Sm1 2.950771 1_455
S6 Sm9 3.018312 1_455
S6 Sm9 3.018312 1_555
S7 Sb10 2.548049 1_555
S7 Sm0 2.950771 1_555
S7 Sm0 2.950771 1_455
S7 Sm8 3.018312 1_455
S7 Sm8 3.018312 1_555
S8 Sm10 2.814720 1_655
S8 Sm10 2.814720 1_555
S8 Sm7 2.850590 1_655
S8 Sm7 2.850590 1_555
S9 Sm11 2.814720 1_565
S9 Sm11 2.814720 1_665
S9 Sm6 2.850590 1_655
S9 Sm6 2.850590 1_555
S10 Sm8 2.814720 1_555
S10 Sm8 2.814720 1_455
S10 Sm5 2.850590 1_555
S10 Sm5 2.850590 1_455
S11 Sm9 2.814720 1_445
S11 Sm9 2.814720 1_545
S11 Sm4 2.850590 1_555
S11 Sm4 2.850590 1_455
S12 Sb12 2.468015 1_555
S12 Sm7 2.969726 1_555
S12 Sm7 2.969726 1_655
S12 Sm11 3.234595 1_555
S12 Sm11 3.234595 1_655
S13 Sb13 2.468015 1_555
S13 Sm6 2.969726 1_655
S13 Sm6 2.969726 1_555
S13 Sm10 3.234595 1_555
S13 Sm10 3.234595 1_655
S14 Sb14 2.468015 1_555
S14 Sm5 2.969726 1_455
S14 Sm5 2.969726 1_555
S14 Sm9 3.234595 1_455
S14 Sm9 3.234595 1_555
S15 Sb15 2.468015 1_555
S15 Sm4 2.969726 1_555
S15 Sm4 2.969726 1_455
S15 Sm8 3.234595 1_455
S15 Sm8 3.234595 1_555
S16 Sb6 2.629105 1_645
S16 Sb6 2.629105 1_545
S16 Sb3 2.956097 1_655
S16 Sb3 2.956097 1_555
S16 Sm4 2.975189 1_555
S17 Sb7 2.629105 1_555
S17 Sb7 2.629105 1_655
S17 Sb2 2.956097 1_655
S17 Sb2 2.956097 1_555
S17 Sm5 2.975189 1_555
S18 Sb4 2.629105 1_565
S18 Sb4 2.629105 1_465
S18 Sb1 2.956097 1_455
S18 Sb1 2.956097 1_555
S18 Sm6 2.975189 1_555
S19 Sb5 2.629105 1_455
S19 Sb5 2.629105 1_555
S19 Sb0 2.956097 1_555
S19 Sb0 2.956097 1_455
S19 Sm7 2.975189 1_555
S20 Sb11 2.661248 1_555
S20 Sb11 2.661248 1_655
S20 Sm1 3.003969 1_545
S20 Sm3 3.304138 1_555
S20 Sm3 3.304138 1_655
S21 Sb10 2.661248 1_555
S21 Sb10 2.661248 1_655
S21 Sm0 3.003969 1_555
S21 Sm2 3.304138 1_654
S21 Sm2 3.304138 1_554
S22 Sb9 2.661248 1_455
S22 Sb9 2.661248 1_555
S22 Sm3 3.003969 1_565
S22 Sm1 3.304138 1_455
S22 Sm1 3.304138 1_555
S23 Sb8 2.661248 1_555
S23 Sb8 2.661248 1_455
S23 Sm2 3.003969 1_555
S23 Sm0 3.304138 1_456
S23 Sm0 3.304138 1_556
S24 Sb3 2.638525 1_556
S24 Sb3 2.638525 1_656
S24 Sm0 2.841972 1_556
S24 Sb8 3.018879 1_555
S25 Sb2 2.638525 1_655
S25 Sb2 2.638525 1_555
S25 Sm1 2.841972 1_555
S25 Sb9 3.018879 1_555
S26 Sb1 2.638525 1_454
S26 Sb1 2.638525 1_554
S26 Sm2 2.841972 1_554
S26 Sb10 3.018879 1_555
S27 Sb0 2.638525 1_555
S27 Sb0 2.638525 1_455
S27 Sm3 2.841972 1_555
S27 Sb11 3.018879 1_555
S28 Sm9 2.897549 1_545
S28 Sb15 2.899688 1_655
S28 Sb15 2.899688 1_555
S28 Sb11 2.917336 1_655
S28 Sb11 2.917336 1_555
S28 Sm4 3.307539 1_555
S29 Sm8 2.897549 1_555
S29 Sb14 2.899688 1_555
S29 Sb14 2.899688 1_655
S29 Sb10 2.917336 1_555
S29 Sb10 2.917336 1_655
S29 Sm5 3.307539 1_555
S30 Sm11 2.897549 1_565
S30 Sb13 2.899688 1_555
S30 Sb13 2.899688 1_455
S30 Sb9 2.917336 1_455
S30 Sb9 2.917336 1_555
S30 Sm6 3.307539 1_555
S31 Sm10 2.897549 1_555
S31 Sb12 2.899688 1_455
S31 Sb12 2.899688 1_555
S31 Sb8 2.917336 1_555
S31 Sb8 2.917336 1_455
S31 Sm7 3.307539 1_555
S32 Sb15 2.609670 1_555
S32 Sb15 2.609670 1_655
S32 Sm8 2.873185 1_555
S32 Sb7 2.995921 1_555
S32 Sb7 2.995921 1_655
S33 Sb14 2.609670 1_555
S33 Sb14 2.609670 1_655
S33 Sm9 2.873185 1_555
S33 Sb6 2.995921 1_655
S33 Sb6 2.995921 1_555
S34 Sb13 2.609670 1_555
S34 Sb13 2.609670 1_455
S34 Sm10 2.873185 1_555
S34 Sb5 2.995921 1_455
S34 Sb5 2.995921 1_555
S35 Sb12 2.609670 1_455
S35 Sb12 2.609670 1_555
S35 Sm11 2.873185 1_555
S35 Sb4 2.995921 1_455
S35 Sb4 2.995921 1_555
