# generated using pymatgen
data_BaMg14Mo
_symmetry_space_group_name_H-M   'P 1'
_cell_length_a   6.53311966
_cell_length_b   6.43413233
_cell_length_c   10.46928915
_cell_angle_alpha   90.00000000
_cell_angle_beta   90.00000000
_cell_angle_gamma   119.50004712
_symmetry_Int_Tables_number   1
_chemical_formula_structural   BaMg14Mo
_chemical_formula_sum   'Ba1 Mg14 Mo1'
_cell_volume   383.02257332
_cell_formula_units_Z   1
loop_
 _symmetry_equiv_pos_site_id
 _symmetry_equiv_pos_as_xyz
  1  'x, y, z'
loop_
 _atom_site_type_symbol
 _atom_site_label
 _atom_site_symmetry_multiplicity
 _atom_site_fract_x
 _atom_site_fract_y
 _atom_site_fract_z
 _atom_site_occupancy
  Ba  Ba0  1  0.14447725  0.32223813  0.12500000  1
  Mg  Mg0  1  0.17090095  0.33544997  0.62500000  1
  Mg  Mg1  1  0.16353949  0.83176925  0.62500000  1
  Mg  Mg2  1  0.64888441  0.32047098  0.12500000  1
  Mg  Mg3  1  0.66396914  0.33841376  0.62500000  1
  Mg  Mg4  1  0.64888441  0.82841243  0.12500000  1
  Mg  Mg5  1  0.66396914  0.82555438  0.62500000  1
  Mg  Mg6  1  0.33725205  0.15524571  0.38130166  1
  Mg  Mg7  1  0.33725205  0.15524571  0.86869834  1
  Mg  Mg8  1  0.33725205  0.68200734  0.38130166  1
  Mg  Mg9  1  0.33725205  0.68200734  0.86869834  1
  Mg  Mg10  1  0.82354869  0.16177484  0.39646881  1
  Mg  Mg11  1  0.82354869  0.16177484  0.85353119  1
  Mg  Mg12  1  0.85082031  0.67541066  0.35786248  1
  Mg  Mg13  1  0.85082031  0.67541066  0.89213752  1
  Mo  Mo0  1  0.19762900  0.84881400  0.12500000  1
loop_
_geom_bond_atom_site_label_1
_geom_bond_atom_site_label_2
_geom_bond_distance
_geom_bond_site_symmetry_2
Ba0 Mo0 3.231231 1_555
Ba0 Mo0 3.231231 1_545
Ba0 Mg4 3.232183 1_445
Ba0 Mg2 3.232184 1_455
Ba0 Mg4 3.300966 1_555
Ba0 Mg2 3.300966 1_555
Ba0 Mg7 3.357581 1_554
Ba0 Mg6 3.357581 1_555
Ba0 Mg9 3.357587 1_554
Ba0 Mg8 3.357587 1_555
Ba0 Mg10 3.377499 1_455
Ba0 Mg11 3.377499 1_454
Mg0 Mg11 3.102471 1_455
Mg0 Mg10 3.102471 1_455
Mg0 Mg6 3.205594 1_555
Mg0 Mg7 3.205594 1_555
Mg0 Mg8 3.205601 1_555
Mg0 Mg9 3.205601 1_555
Mg0 Mg5 3.211926 1_555
Mg0 Mg3 3.211926 1_555
Mg0 Mg1 3.217338 1_545
Mg0 Mg1 3.217339 1_555
Mg0 Mg5 3.321278 1_445
Mg0 Mg3 3.321278 1_455
Mg1 Mg8 3.130948 1_555
Mg1 Mg9 3.130948 1_555
Mg1 Mg6 3.130954 1_565
Mg1 Mg7 3.130954 1_565
Mg1 Mg3 3.244249 1_455
Mg1 Mg5 3.244249 1_455
Mg1 Mg3 3.289241 1_565
Mg1 Mg5 3.289242 1_555
Mg1 Mg12 3.314154 1_455
Mg1 Mg13 3.314154 1_455
Mg2 Mo0 3.014910 1_545
Mg2 Mg4 3.165970 1_545
Mg2 Mg7 3.216158 1_554
Mg2 Mg6 3.216158 1_555
Mg2 Mg4 3.268163 1_555
Mg2 Mo0 3.522228 1_655
Mg3 Mg5 3.134327 1_555
Mg3 Mg6 3.158621 1_555
Mg3 Mg7 3.158621 1_555
Mg3 Mg5 3.299805 1_545
Mg4 Mo0 3.014910 1_555
Mg4 Mg8 3.216158 1_555
Mg4 Mg9 3.216158 1_554
Mg4 Mo0 3.522229 1_655
Mg5 Mg9 3.158622 1_555
Mg5 Mg8 3.158622 1_555
Mg6 Mg8 3.044878 1_545
Mg6 Mo0 3.185627 1_545
Mg6 Mg8 3.389254 1_555
Mg7 Mg9 3.044878 1_545
Mg7 Mo0 3.185627 1_546
Mg7 Mg9 3.389254 1_555
Mg8 Mo0 3.185621 1_555
Mg9 Mo0 3.185621 1_556
Mg10 Mg3 3.044644 1_555
Mg10 Mg5 3.044650 1_545
Mg10 Mg8 3.160551 1_545
Mg10 Mg6 3.160551 1_555
Mg10 Mg12 3.246063 1_545
Mg10 Mg12 3.246063 1_555
Mg10 Mg8 3.380701 1_655
Mg10 Mg6 3.380701 1_655
Mg10 Mg2 3.401418 1_555
Mg10 Mg4 3.401424 1_545
Mg11 Mg3 3.044644 1_555
Mg11 Mg5 3.044650 1_545
Mg11 Mg9 3.160551 1_545
Mg11 Mg7 3.160551 1_555
Mg11 Mg13 3.246063 1_545
Mg11 Mg13 3.246063 1_555
Mg11 Mg9 3.380701 1_655
Mg11 Mg7 3.380701 1_655
Mg11 Mg2 3.401418 1_556
Mg11 Mg4 3.401424 1_546
Mg12 Mo0 3.135629 1_655
Mg12 Mg4 3.151511 1_555
Mg12 Mg2 3.151518 1_555
Mg12 Mg6 3.166754 1_665
Mg12 Mg8 3.166754 1_655
Mg12 Mg5 3.377360 1_555
Mg12 Mg3 3.377366 1_555
Mg12 Mg6 3.385211 1_555
Mg12 Mg8 3.385211 1_555
Mg13 Mo0 3.135629 1_656
Mg13 Mg4 3.151511 1_556
Mg13 Mg2 3.151518 1_556
Mg13 Mg7 3.166754 1_665
Mg13 Mg9 3.166754 1_655
Mg13 Mg5 3.377360 1_555
Mg13 Mg3 3.377366 1_555
Mg13 Mg7 3.385211 1_555
Mg13 Mg9 3.385211 1_555
