# generated using pymatgen
data_CeCo5H3
_symmetry_space_group_name_H-M   'P 1'
_cell_length_a   5.04876879
_cell_length_b   5.04876879
_cell_length_c   8.03705800
_cell_angle_alpha   90.00000000
_cell_angle_beta   90.00000000
_cell_angle_gamma   119.69967318
_symmetry_Int_Tables_number   1
_chemical_formula_structural   CeCo5H3
_chemical_formula_sum   'Ce2 Co10 H6'
_cell_volume   177.95289697
_cell_formula_units_Z   2
loop_
 _symmetry_equiv_pos_site_id
 _symmetry_equiv_pos_as_xyz
  1  'x, y, z'
loop_
 _atom_site_type_symbol
 _atom_site_label
 _atom_site_symmetry_multiplicity
 _atom_site_fract_x
 _atom_site_fract_y
 _atom_site_fract_z
 _atom_site_occupancy
  Ce  Ce0  1  0.00000000  0.00000000  0.00000000  1
  Ce  Ce1  1  0.00000000  0.00000000  0.50000000  1
  Co  Co0  1  0.50000000  0.00000000  0.76672800  1
  Co  Co1  1  0.50000000  0.00000000  0.23327200  1
  Co  Co2  1  0.00000000  0.50000000  0.73327200  1
  Co  Co3  1  0.00000000  0.50000000  0.26672800  1
  Co  Co4  1  0.29604500  0.59207400  0.00000000  1
  Co  Co5  1  0.70395500  0.40792600  0.00000000  1
  Co  Co6  1  0.40792600  0.70395500  0.50000000  1
  Co  Co7  1  0.59207400  0.29604500  0.50000000  1
  Co  Co8  1  0.50000000  0.50000000  0.75000000  1
  Co  Co9  1  0.50000000  0.50000000  0.25000000  1
  H  H0  1  0.86392600  0.13607400  0.75000000  1
  H  H1  1  0.13607400  0.86392600  0.25000000  1
  H  H2  1  0.13607400  0.86392600  0.75000000  1
  H  H3  1  0.86392600  0.13607400  0.25000000  1
  H  H4  1  0.50000000  0.00000000  0.00000000  1
  H  H5  1  0.00000000  0.50000000  0.50000000  1
loop_
_geom_bond_atom_site_label_1
_geom_bond_atom_site_label_2
_geom_bond_distance
_geom_bond_site_symmetry_2
Ce0 H1 2.334263 1_545
Ce0 H2 2.334263 1_544
Ce0 H0 2.334263 1_454
Ce0 H3 2.334263 1_455
Ce0 H4 2.524384 1_455
Ce0 H4 2.524384 1_555
Ce0 Co4 2.596596 1_555
Ce0 Co5 2.596596 1_445
Ce1 H1 2.334263 1_545
Ce1 H0 2.334263 1_455
Ce1 H3 2.334263 1_455
Ce1 H2 2.334263 1_545
Ce1 H5 2.524384 1_555
Ce1 H5 2.524384 1_545
Ce1 Co7 2.596596 1_555
Ce1 Co6 2.596596 1_445
Co0 H2 1.617158 1_545
Co0 H0 1.617158 1_555
Co0 H4 1.874821 1_556
Co0 Co8 2.527962 1_555
Co0 Co8 2.527962 1_545
Co1 H1 1.617158 1_545
Co1 H3 1.617158 1_555
Co1 H4 1.874821 1_555
Co1 Co9 2.527962 1_545
Co1 Co9 2.527962 1_555
Co2 H0 1.617158 1_455
Co2 H2 1.617158 1_555
Co2 H5 1.874821 1_555
Co2 Co8 2.527962 1_555
Co2 Co8 2.527962 1_455
Co3 H1 1.617158 1_555
Co3 H3 1.617158 1_455
Co3 H5 1.874821 1_555
Co3 Co9 2.527962 1_455
Co3 Co9 2.527962 1_555
Co4 H4 1.788998 1_565
Co4 Co8 2.405803 1_554
Co4 Co9 2.405803 1_555
Co5 H4 1.788998 1_555
Co5 Co9 2.405803 1_555
Co5 Co8 2.405803 1_554
Co6 H5 1.788998 1_555
Co6 Co8 2.405803 1_555
Co6 Co9 2.405803 1_555
Co7 H5 1.788998 1_655
Co7 Co8 2.405803 1_555
Co7 Co9 2.405803 1_555
