# generated using pymatgen
data_Sr6Nb2O11
_symmetry_space_group_name_H-M   'P 1'
_cell_length_a   5.99701600
_cell_length_b   6.01942961
_cell_length_c   19.83650935
_cell_angle_alpha   97.34834954
_cell_angle_beta   90.39770414
_cell_angle_gamma   119.66265572
_symmetry_Int_Tables_number   1
_chemical_formula_structural   Sr6Nb2O11
_chemical_formula_sum   'Sr12 Nb4 O22'
_cell_volume   615.06906617
_cell_formula_units_Z   2
loop_
 _symmetry_equiv_pos_site_id
 _symmetry_equiv_pos_as_xyz
  1  'x, y, z'
loop_
 _atom_site_type_symbol
 _atom_site_label
 _atom_site_symmetry_multiplicity
 _atom_site_fract_x
 _atom_site_fract_y
 _atom_site_fract_z
 _atom_site_occupancy
  Sr  Sr0  1  0.29858200  0.59814100  0.93025900  1
  Sr  Sr1  1  0.69496400  0.30895200  0.88324300  1
  Sr  Sr2  1  0.82059500  0.44040900  0.70329300  1
  Sr  Sr3  1  0.15859500  0.12287000  0.62289400  1
  Sr  Sr4  1  0.03910700  0.99716400  0.80177900  1
  Sr  Sr5  1  0.36300200  0.20401300  0.42518100  1
  Sr  Sr6  1  0.71723800  0.87067500  0.38359400  1
  Sr  Sr7  1  0.82619700  0.92445400  0.20066700  1
  Sr  Sr8  1  0.50257900  0.79743500  0.57528800  1
  Sr  Sr9  1  0.20972600  0.61668600  0.11666900  1
  Sr  Sr10  1  0.05318800  0.53852100  0.29630200  1
  Sr  Sr11  1  0.54337900  0.30308700  0.07736700  1
  Nb  Nb0  1  0.98031800  0.94827900  0.00306500  1
  Nb  Nb1  1  0.43118100  0.71905400  0.75177400  1
  Nb  Nb2  1  0.92930600  0.49694300  0.49974400  1
  Nb  Nb3  1  0.44506800  0.21582400  0.25130400  1
  O  O0  1  0.58038700  0.56907100  0.81540100  1
  O  O1  1  0.65130600  0.05933300  0.78710100  1
  O  O2  1  0.82483000  0.59645500  0.97241100  1
  O  O3  1  0.95968100  0.11235600  0.92127000  1
  O  O4  1  0.13205500  0.63907000  0.82852400  1
  O  O5  1  0.22840900  0.37716600  0.71697200  1
  O  O6  1  0.02220900  0.43289400  0.58593800  1
  O  O7  1  0.72272600  0.79548100  0.67122200  1
  O  O8  1  0.27723600  0.86847300  0.69226700  1
  O  O9  1  0.55243900  0.23614100  0.54029300  1
  O  O10  1  0.83930000  0.31951600  0.41838000  1
  O  O11  1  0.59635300  0.51814400  0.30720300  1
  O  O12  1  0.30264600  0.61526600  0.46180500  1
  O  O13  1  0.30423500  0.93791100  0.00406000  1
  O  O14  1  0.92012400  0.81254500  0.49579300  1
  O  O15  1  0.15176900  0.00248700  0.33032800  1
  O  O16  1  0.64374900  0.07202700  0.29306200  1
  O  O17  1  0.24938800  0.91222100  0.19682100  1
  O  O18  1  0.16594400  0.29799200  0.03675300  1
  O  O19  1  0.75784400  0.36472800  0.17462300  1
  O  O20  1  0.27074300  0.37479200  0.20443200  1
  O  O21  1  0.70955300  0.81170400  0.08269600  1
loop_
_geom_bond_atom_site_label_1
_geom_bond_atom_site_label_2
_geom_bond_distance
_geom_bond_site_symmetry_2
Nb0 O18 1.851353 1_665
Nb0 O2 1.852664 1_554
Nb0 O13 1.974210 1_655
Nb0 O3 2.037518 1_564
Nb0 O21 2.203219 1_555
Nb1 O5 1.827152 1_555
Nb1 O1 1.836538 1_565
Nb1 O8 2.032969 1_555
Nb1 O0 2.069804 1_555
Nb1 O4 2.266755 1_555
Nb1 O7 2.291818 1_555
Nb2 O10 1.735885 1_555
Nb2 O6 1.936601 1_655
Nb2 O14 1.939012 1_555
Nb2 O12 2.160693 1_655
Nb2 O9 2.248532 1_555
Nb3 O11 1.788854 1_555
Nb3 O17 1.799839 1_545
Nb3 O16 2.011346 1_555
Nb3 O20 2.019233 1_555
Nb3 O19 2.315105 1_555
Nb3 O15 2.348971 1_555
O0 Sr1 2.515126 1_555
O0 Sr4 2.730023 1_655
O0 Sr0 2.884766 1_555
O0 Sr2 2.885918 1_555
O1 Sr1 2.198642 1_555
O1 Sr4 2.552126 1_645
O1 Sr2 2.783913 1_555
O2 Sr1 2.143345 1_555
O2 Sr11 2.888074 1_556
O2 Sr0 2.962718 1_655
O2 Sr0 3.264399 1_555
O3 Sr4 2.499614 1_645
O3 Sr1 2.561408 1_555
O3 Sr0 2.586957 1_655
O4 Sr0 2.339521 1_555
O4 Sr4 2.591544 1_555
O4 Sr1 2.726435 1_455
O4 Sr2 2.838077 1_455
O5 Sr3 2.150607 1_555
O5 Sr2 2.671810 1_455
O5 Sr4 2.791349 1_545
O6 Sr3 2.557606 1_555
O6 Sr2 2.636168 1_455
O6 Sr8 2.651199 1_555
O7 Sr8 2.313167 1_555
O7 Sr2 2.627099 1_555
O7 Sr3 2.656061 1_665
O7 Sr4 2.937420 1_655
O8 Sr3 2.519669 1_565
O8 Sr2 2.711978 1_455
O8 Sr8 2.784830 1_555
O8 Sr4 2.840076 1_555
O9 Sr5 2.485075 1_555
O9 Sr8 2.689826 1_545
O9 Sr3 2.733806 1_555
O10 Sr6 2.422830 1_545
O10 Sr5 2.593092 1_555
O10 Sr10 2.904029 1_655
O11 Sr6 2.228083 1_555
O11 Sr10 2.692558 1_655
O11 Sr5 3.093384 1_555
O12 Sr8 2.395259 1_555
O12 Sr5 2.686526 1_555
O12 Sr6 2.798677 1_555
O13 Sr11 2.244177 1_565
O13 Sr0 2.343507 1_554
O13 Sr9 3.014542 1_555
O14 Sr6 2.671945 1_555
O14 Sr3 2.827065 1_665
O14 Sr8 2.937876 1_555
O14 Sr5 3.044678 1_665
O15 Sr5 2.116259 1_555
O15 Sr10 2.546156 1_545
O15 Sr6 2.596694 1_445
O15 Sr7 3.059664 1_445
O16 Sr7 2.432848 1_545
O16 Sr6 2.441877 1_545
O16 Sr10 2.654319 1_655
O17 Sr9 2.145126 1_555
O17 Sr7 2.576493 1_455
O17 Sr10 2.981050 1_555
O18 Sr9 2.231552 1_555
O18 Sr11 2.381808 1_555
O18 Sr0 2.817213 1_554
O19 Sr11 2.196325 1_555
O19 Sr9 2.717869 1_655
O19 Sr10 2.741923 1_655
O19 Sr7 2.980105 1_545
O19 Sr7 3.157763 1_555
O20 Sr9 2.540027 1_555
O20 Sr10 2.615502 1_555
O20 Sr7 2.693261 1_445
O20 Sr11 3.112876 1_555
O21 Sr7 2.351013 1_555
O21 Sr11 2.696939 1_555
O21 Sr9 2.750390 1_555
