# generated using pymatgen
data_Ba(SmS2)2
_symmetry_space_group_name_H-M   'P 1'
_cell_length_a   4.14375172
_cell_length_b   12.37614667
_cell_length_c   14.78997259
_cell_angle_alpha   90.00000000
_cell_angle_beta   90.00000000
_cell_angle_gamma   90.00000000
_symmetry_Int_Tables_number   1
_chemical_formula_structural   Ba(SmS2)2
_chemical_formula_sum   'Ba4 Sm8 S16'
_cell_volume   758.48420748
_cell_formula_units_Z   4
loop_
 _symmetry_equiv_pos_site_id
 _symmetry_equiv_pos_as_xyz
  1  'x, y, z'
loop_
 _atom_site_type_symbol
 _atom_site_label
 _atom_site_symmetry_multiplicity
 _atom_site_fract_x
 _atom_site_fract_y
 _atom_site_fract_z
 _atom_site_occupancy
  Ba  Ba0  1  0.25000000  0.75400895  0.34073980  1
  Ba  Ba1  1  0.25000000  0.25400895  0.15926020  1
  Ba  Ba2  1  0.75000000  0.24599105  0.65926020  1
  Ba  Ba3  1  0.75000000  0.74599105  0.84073980  1
  Sm  Sm0  1  0.25000000  0.42411885  0.89605843  1
  Sm  Sm1  1  0.25000000  0.92411885  0.60394157  1
  Sm  Sm2  1  0.75000000  0.57588115  0.10394157  1
  Sm  Sm3  1  0.75000000  0.07588115  0.39605843  1
  Sm  Sm4  1  0.25000000  0.42512036  0.39226585  1
  Sm  Sm5  1  0.25000000  0.92512036  0.10773415  1
  Sm  Sm6  1  0.75000000  0.57487964  0.60773415  1
  Sm  Sm7  1  0.75000000  0.07487964  0.89226585  1
  S  S0  1  0.25000000  0.21100069  0.82951806  1
  S  S1  1  0.25000000  0.71100069  0.67048194  1
  S  S2  1  0.75000000  0.78899931  0.17048194  1
  S  S3  1  0.75000000  0.28899931  0.32951806  1
  S  S4  1  0.25000000  0.12879346  0.52117325  1
  S  S5  1  0.25000000  0.62879346  0.97882675  1
  S  S6  1  0.75000000  0.87120654  0.47882675  1
  S  S7  1  0.75000000  0.37120654  0.02117325  1
  S  S8  1  0.25000000  0.51718739  0.21752346  1
  S  S9  1  0.25000000  0.01718739  0.28247654  1
  S  S10  1  0.75000000  0.48281261  0.78247654  1
  S  S11  1  0.75000000  0.98281261  0.71752346  1
  S  S12  1  0.25000000  0.42236799  0.57922354  1
  S  S13  1  0.25000000  0.92236799  0.92077646  1
  S  S14  1  0.75000000  0.57763201  0.42077646  1
  S  S15  1  0.75000000  0.07763201  0.07922354  1
loop_
_geom_bond_atom_site_label_1
_geom_bond_atom_site_label_2
_geom_bond_distance
_geom_bond_site_symmetry_2
Ba0 S14 3.234010 1_455
Ba0 S14 3.234010 1_555
Ba0 S6 3.250767 1_455
Ba0 S6 3.250767 1_555
Ba0 S2 3.289540 1_455
Ba0 S2 3.289540 1_555
Ba0 S9 3.369195 1_565
Ba0 S8 3.451292 1_555
Ba1 S15 3.234010 1_555
Ba1 S15 3.234010 1_455
Ba1 S7 3.250767 1_455
Ba1 S7 3.250767 1_555
Ba1 S3 3.289540 1_455
Ba1 S3 3.289540 1_555
Ba1 S8 3.369195 1_555
Ba1 S9 3.451292 1_555
Ba2 S12 3.234010 1_555
Ba2 S12 3.234010 1_655
Ba2 S4 3.250767 1_555
Ba2 S4 3.250767 1_655
Ba2 S0 3.289540 1_555
Ba2 S0 3.289540 1_655
Ba2 S11 3.369195 1_545
Ba2 S10 3.451292 1_555
Ba3 S13 3.234010 1_655
Ba3 S13 3.234010 1_555
Ba3 S5 3.250767 1_555
Ba3 S5 3.250767 1_655
Ba3 S1 3.289540 1_555
Ba3 S1 3.289540 1_655
Ba3 S10 3.369195 1_555
Ba3 S11 3.451292 1_555
S0 Sm0 2.815200 1_555
S0 Sm7 2.827010 1_455
S0 Sm7 2.827010 1_555
S1 Sm1 2.815200 1_555
S1 Sm6 2.827010 1_555
S1 Sm6 2.827010 1_455
S2 Sm2 2.815200 1_555
S2 Sm5 2.827010 1_655
S2 Sm5 2.827010 1_555
S3 Sm3 2.815200 1_555
S3 Sm4 2.827010 1_655
S3 Sm4 2.827010 1_555
S4 Sm1 2.813367 1_545
S4 Sm3 2.854058 1_555
S4 Sm3 2.854058 1_455
S5 Sm0 2.813367 1_555
S5 Sm2 2.854058 1_456
S5 Sm2 2.854058 1_556
S6 Sm3 2.813367 1_565
S6 Sm1 2.854058 1_655
S6 Sm1 2.854058 1_555
S7 Sm2 2.813367 1_555
S7 Sm0 2.854058 1_554
S7 Sm0 2.854058 1_654
S8 Sm2 2.764472 1_555
S8 Sm2 2.764472 1_455
S8 Sm4 2.824468 1_555
S9 Sm3 2.764472 1_455
S9 Sm3 2.764472 1_555
S9 Sm5 2.824468 1_545
S10 Sm0 2.764472 1_555
S10 Sm0 2.764472 1_655
S10 Sm6 2.824468 1_555
S11 Sm1 2.764472 1_655
S11 Sm1 2.764472 1_555
S11 Sm7 2.824468 1_565
S12 Sm4 2.765309 1_555
S12 Sm6 2.834282 1_555
S12 Sm6 2.834282 1_455
S13 Sm5 2.765309 1_556
S13 Sm7 2.834282 1_465
S13 Sm7 2.834282 1_565
S14 Sm6 2.765309 1_555
S14 Sm4 2.834282 1_555
S14 Sm4 2.834282 1_655
S15 Sm7 2.765309 1_554
S15 Sm5 2.834282 1_545
S15 Sm5 2.834282 1_645
