# generated using pymatgen
data_Li4NbCr5O12
_symmetry_space_group_name_H-M   'P 1'
_cell_length_a   5.23076189
_cell_length_b   20.97525074
_cell_length_c   5.23880637
_cell_angle_alpha   93.63290904
_cell_angle_beta   119.94943949
_cell_angle_gamma   82.70818443
_symmetry_Int_Tables_number   1
_chemical_formula_structural   Li4NbCr5O12
_chemical_formula_sum   'Li8 Nb2 Cr10 O24'
_cell_volume   494.00293553
_cell_formula_units_Z   2
loop_
 _symmetry_equiv_pos_site_id
 _symmetry_equiv_pos_as_xyz
  1  'x, y, z'
loop_
 _atom_site_type_symbol
 _atom_site_label
 _atom_site_symmetry_multiplicity
 _atom_site_fract_x
 _atom_site_fract_y
 _atom_site_fract_z
 _atom_site_occupancy
  Li  Li0  1  0.11358300  0.35394600  0.66238100  1
  Li  Li1  1  0.11361400  0.85419100  0.66224400  1
  Li  Li2  1  0.54868200  0.14606100  0.66235200  1
  Li  Li3  1  0.54864500  0.64580900  0.66220800  1
  Li  Li4  1  0.45112600  0.35394400  0.33751600  1
  Li  Li5  1  0.45144900  0.85419100  0.33790700  1
  Li  Li6  1  0.88624000  0.14605800  0.33753400  1
  Li  Li7  1  0.88649200  0.64580900  0.33790400  1
  Nb  Nb0  1  0.99995100  0.00013300  0.99998100  1
  Nb  Nb1  1  0.00009700  0.49989600  0.99999500  1
  Cr  Cr0  1  0.49987500  0.75003100  0.00011500  1
  Cr  Cr1  1  0.49998300  0.24997600  0.99995200  1
  Cr  Cr2  1  0.16290900  0.24997900  0.32601500  1
  Cr  Cr3  1  0.16309200  0.75004300  0.32615600  1
  Cr  Cr4  1  0.83687100  0.24998000  0.67386300  1
  Cr  Cr5  1  0.83698400  0.75005900  0.67398200  1
  Cr  Cr6  1  0.33467000  0.49990800  0.66921000  1
  Cr  Cr7  1  0.33467400  0.00005800  0.66919400  1
  Cr  Cr8  1  0.66546200  0.00006200  0.33074100  1
  Cr  Cr9  1  0.66544600  0.49989800  0.33076800  1
  O  O0  1  0.15152500  0.30197800  0.99993600  1
  O  O1  1  0.15093700  0.80245000  0.00008000  1
  O  O2  1  0.84827900  0.19802400  0.99993600  1
  O  O3  1  0.84912300  0.69755000  0.00008200  1
  O  O4  1  0.30748900  0.04805200  0.99999000  1
  O  O5  1  0.30749800  0.54784700  0.99999100  1
  O  O6  1  0.69262900  0.45194200  0.99999000  1
  O  O7  1  0.69262900  0.95214200  0.99997900  1
  O  O8  1  0.97477600  0.05042900  0.33330600  1
  O  O9  1  0.97485700  0.55019100  0.33332200  1
  O  O10  1  0.35858800  0.44956300  0.33328500  1
  O  O11  1  0.35853000  0.94980400  0.33329600  1
  O  O12  1  0.64146500  0.05043100  0.66665600  1
  O  O13  1  0.64152800  0.55019200  0.66666200  1
  O  O14  1  0.02529900  0.44956500  0.66669800  1
  O  O15  1  0.02523800  0.94980100  0.66669300  1
  O  O16  1  0.19266200  0.19849400  0.65485200  1
  O  O17  1  0.19239600  0.69828000  0.65443200  1
  O  O18  1  0.46203800  0.30151000  0.65486000  1
  O  O19  1  0.46203600  0.80172100  0.65441200  1
  O  O20  1  0.53775800  0.19849300  0.34502400  1
  O  O21  1  0.53804200  0.69828200  0.34573700  1
  O  O22  1  0.80712200  0.30151100  0.34501300  1
  O  O23  1  0.80770800  0.80171700  0.34575300  1
loop_
_geom_bond_atom_site_label_1
_geom_bond_atom_site_label_2
_geom_bond_distance
_geom_bond_site_symmetry_2
Li0 O14 2.001474 1_555
Li0 O18 2.022561 1_555
Li0 O22 2.024430 1_455
Li0 O0 2.047854 1_555
Li1 O15 2.001387 1_555
Li1 O23 2.021809 1_455
Li1 O19 2.023430 1_555
Li1 O1 2.047676 1_556
Li2 O12 2.001805 1_555
Li2 O16 2.022772 1_555
Li2 O20 2.024180 1_555
Li2 O2 2.047824 1_555
Li3 O13 2.001561 1_555
Li3 O21 2.021669 1_555
Li3 O17 2.023536 1_555
Li3 O3 2.047688 1_556
Li4 O10 2.001458 1_555
Li4 O22 2.022673 1_555
Li4 O18 2.024303 1_555
Li4 O0 2.047860 1_554
Li5 O11 2.001463 1_555
Li5 O19 2.021820 1_555
Li5 O23 2.023458 1_555
Li5 O1 2.047650 1_555
Li6 O8 2.001792 1_555
Li6 O20 2.022600 1_555
Li6 O16 2.024248 1_655
Li6 O2 2.047981 1_554
Li7 O9 2.001588 1_555
Li7 O17 2.021842 1_655
Li7 O21 2.023582 1_555
Li7 O3 2.047517 1_555
Nb0 O7 2.002046 1_545
Nb0 O4 2.002096 1_655
Nb0 O12 2.034799 1_555
Nb0 O8 2.034817 1_556
Nb0 O15 2.035246 1_645
Nb0 O11 2.035281 1_646
Nb1 O5 2.001910 1_555
Nb1 O6 2.002232 1_455
Nb1 O9 2.034962 1_456
Nb1 O13 2.034983 1_455
Nb1 O10 2.035066 1_556
Nb1 O14 2.035087 1_555
Cr0 O1 2.007628 1_555
Cr0 O3 2.009701 1_555
Cr0 O21 2.080775 1_555
Cr0 O23 2.080864 1_555
Cr0 O17 2.080990 1_554
Cr0 O19 2.081135 1_554
Cr1 O2 2.000698 1_555
Cr1 O0 2.001791 1_555
Cr1 O20 2.075993 1_556
Cr1 O16 2.076095 1_555
Cr1 O22 2.076243 1_556
Cr1 O18 2.076325 1_555
Cr2 O16 2.020784 1_555
Cr2 O18 2.021455 1_555
Cr2 O2 2.055855 1_454
Cr2 O0 2.056548 1_554
Cr2 O20 2.074090 1_555
Cr2 O22 2.074217 1_455
Cr3 O19 2.021509 1_555
Cr3 O17 2.022654 1_555
Cr3 O1 2.059682 1_555
Cr3 O3 2.060838 1_455
Cr3 O23 2.075075 1_455
Cr3 O21 2.075709 1_555
Cr4 O20 2.020873 1_555
Cr4 O22 2.021409 1_555
Cr4 O2 2.055942 1_555
Cr4 O0 2.056422 1_655
Cr4 O16 2.073876 1_655
Cr4 O18 2.074404 1_555
Cr5 O23 2.021228 1_555
Cr5 O21 2.022686 1_555
Cr5 O1 2.059604 1_656
Cr5 O3 2.061073 1_556
Cr5 O19 2.074880 1_555
Cr5 O17 2.075980 1_655
Cr6 O5 2.005755 1_555
Cr6 O6 2.006008 1_555
Cr6 O13 2.035161 1_555
Cr6 O14 2.035850 1_555
Cr6 O9 2.043423 1_455
Cr6 O10 2.044171 1_555
Cr7 O7 2.005551 1_545
Cr7 O4 2.006358 1_555
Cr7 O15 2.035050 1_545
Cr7 O12 2.035994 1_555
Cr7 O11 2.043045 1_545
Cr7 O8 2.044451 1_455
Cr8 O7 2.005483 1_544
Cr8 O4 2.006195 1_554
Cr8 O11 2.035172 1_545
Cr8 O8 2.035789 1_555
Cr8 O15 2.043277 1_645
Cr8 O12 2.044530 1_555
Cr9 O5 2.005820 1_554
Cr9 O6 2.005922 1_554
Cr9 O9 2.035287 1_555
Cr9 O10 2.035753 1_555
Cr9 O13 2.043546 1_555
Cr9 O14 2.044084 1_655
