# generated using pymatgen
data_La2Al6CuAu
_symmetry_space_group_name_H-M   'P 1'
_cell_length_a   4.34381000
_cell_length_b   4.34381000
_cell_length_c   10.85863700
_cell_angle_alpha   90.00000000
_cell_angle_beta   90.00000000
_cell_angle_gamma   90.00000000
_symmetry_Int_Tables_number   1
_chemical_formula_structural   La2Al6CuAu
_chemical_formula_sum   'La2 Al6 Cu1 Au1'
_cell_volume   204.88820451
_cell_formula_units_Z   1
loop_
 _symmetry_equiv_pos_site_id
 _symmetry_equiv_pos_as_xyz
  1  'x, y, z'
loop_
 _atom_site_type_symbol
 _atom_site_label
 _atom_site_symmetry_multiplicity
 _atom_site_fract_x
 _atom_site_fract_y
 _atom_site_fract_z
 _atom_site_occupancy
  La  La0  1  0.00000000  0.00000000  0.99717100  1
  La  La1  1  0.50000000  0.50000000  0.48988700  1
  Al  Al0  1  0.50000000  0.00000000  0.24402900  1
  Al  Al1  1  0.00000000  0.50000000  0.75505600  1
  Al  Al2  1  0.00000000  0.50000000  0.24402900  1
  Al  Al3  1  0.50000000  0.00000000  0.75505600  1
  Al  Al4  1  0.00000000  0.00000000  0.39516700  1
  Al  Al5  1  0.50000000  0.50000000  0.90715800  1
  Cu  Cu0  1  0.50000000  0.50000000  0.13067900  1
  Au  Au0  1  0.00000000  0.00000000  0.62776800  1
loop_
_geom_bond_atom_site_label_1
_geom_bond_atom_site_label_2
_geom_bond_distance
_geom_bond_site_symmetry_2
Al0 Cu0 2.496418 1_555
Al0 Cu0 2.496418 1_545
Al0 La1 3.441566 1_555
Al0 La1 3.441566 1_545
Al0 La0 3.449996 1_654
Al0 La0 3.449996 1_554
Al1 Au0 2.574408 1_555
Al1 Au0 2.574408 1_565
Al1 La0 3.410134 1_555
Al1 La0 3.410134 1_565
Al1 La1 3.606656 1_455
Al1 La1 3.606656 1_555
Al2 Cu0 2.496418 1_455
Al2 Cu0 2.496418 1_555
Al2 La1 3.441566 1_455
Al2 La1 3.441566 1_555
Al2 La0 3.449996 1_564
Al2 La0 3.449996 1_554
Al3 Au0 2.574408 1_555
Al3 Au0 2.574408 1_655
Al3 La0 3.410134 1_555
Al3 La0 3.410134 1_655
Al3 La1 3.606656 1_555
Al3 La1 3.606656 1_545
Al4 Au0 2.525730 1_555
Al4 La1 3.239169 1_445
Al4 La1 3.239169 1_455
Al4 La1 3.239169 1_555
Al4 La1 3.239169 1_545
Al5 Cu0 2.427133 1_556
Al5 La0 3.223304 1_555
Al5 La0 3.223304 1_565
Al5 La0 3.223304 1_655
Al5 La0 3.223304 1_665
Cu0 La0 3.396471 1_664
Cu0 La0 3.396471 1_554
Cu0 La0 3.396471 1_564
Cu0 La0 3.396471 1_654
Au0 La1 3.417009 1_555
Au0 La1 3.417009 1_545
Au0 La1 3.417009 1_445
Au0 La1 3.417009 1_455
