# generated using pymatgen
data_CsYb3
_symmetry_space_group_name_H-M   'P 1'
_cell_length_a   7.19085118
_cell_length_b   7.19085118
_cell_length_c   7.19085118
_cell_angle_alpha   131.11064440
_cell_angle_beta   131.11064440
_cell_angle_gamma   71.63734719
_symmetry_Int_Tables_number   1
_chemical_formula_structural   CsYb3
_chemical_formula_sum   'Cs1 Yb3'
_cell_volume   206.52140431
_cell_formula_units_Z   1
loop_
 _symmetry_equiv_pos_site_id
 _symmetry_equiv_pos_as_xyz
  1  'x, y, z'
loop_
 _atom_site_type_symbol
 _atom_site_label
 _atom_site_symmetry_multiplicity
 _atom_site_fract_x
 _atom_site_fract_y
 _atom_site_fract_z
 _atom_site_occupancy
  Cs  Cs0  1  0.00000000  0.00000000  0.00000000  1
  Yb  Yb0  1  0.75000000  0.25000000  0.50000000  1
  Yb  Yb1  1  0.25000000  0.75000000  0.50000000  1
  Yb  Yb2  1  0.50000000  0.50000000  0.00000000  1
loop_
_geom_bond_atom_site_label_1
_geom_bond_atom_site_label_2
_geom_bond_distance
_geom_bond_site_symmetry_2
Cs0 Yb1 4.165863 1_544
Cs0 Yb1 4.165863 1_545
Cs0 Yb1 4.165863 1_444
Cs0 Yb0 4.165863 1_455
Cs0 Yb0 4.165863 1_454
Cs0 Yb0 4.165863 1_555
Cs0 Yb0 4.165863 1_444
Cs0 Yb1 4.165863 1_555
Cs0 Yb2 4.208244 1_455
Cs0 Yb2 4.208244 1_545
Cs0 Yb2 4.208244 1_556
Cs0 Yb2 4.208244 1_444
Yb0 Yb2 4.165863 1_555
Yb0 Yb2 4.165863 1_656
Yb0 Yb2 4.165863 1_545
Yb0 Yb2 4.165863 1_556
Yb0 Yb1 4.208244 1_555
Yb0 Yb1 4.208244 1_656
Yb0 Yb1 4.208244 1_544
Yb0 Yb1 4.208244 1_645
Yb1 Yb2 4.165863 1_555
Yb1 Yb2 4.165863 1_556
Yb1 Yb2 4.165863 1_566
Yb1 Yb2 4.165863 1_455
