# generated using pymatgen
data_B8O
_symmetry_space_group_name_H-M   'P 1'
_cell_length_a   5.12474424
_cell_length_b   5.12474424
_cell_length_c   9.12262817
_cell_angle_alpha   72.80102427
_cell_angle_beta   72.80102427
_cell_angle_gamma   62.35500415
_symmetry_Int_Tables_number   1
_chemical_formula_structural   B8O
_chemical_formula_sum   'B24 O3'
_cell_volume   199.15796018
_cell_formula_units_Z   3
loop_
 _symmetry_equiv_pos_site_id
 _symmetry_equiv_pos_as_xyz
  1  'x, y, z'
loop_
 _atom_site_type_symbol
 _atom_site_label
 _atom_site_symmetry_multiplicity
 _atom_site_fract_x
 _atom_site_fract_y
 _atom_site_fract_z
 _atom_site_occupancy
  B  B0  1  0.16922916  0.50080907  0.50197692  1
  B  B1  1  0.66096596  -0.00028176  0.99710513  1
  B  B2  1  0.33413371  0.33413371  0.66966075  1
  B  B3  1  0.83185152  0.83185152  0.16614950  1
  B  B4  1  0.50080907  0.16922916  0.50197692  1
  B  B5  1  -0.00028176  0.66096596  0.99710513  1
  B  B6  1  0.33564361  0.99632640  0.99249915  1
  B  B7  1  0.83566231  0.50469773  0.50791143  1
  B  B8  1  0.16482285  0.16482285  0.82698323  1
  B  B9  1  0.67107824  0.67107824  0.33678892  1
  B  B10  1  0.99632640  0.33564361  0.99249915  1
  B  B11  1  0.50469773  0.83566231  0.50791143  1
  B  B12  1  0.75556501  0.31450000  0.88967926  1
  B  B13  1  0.28008356  0.80502053  0.40122607  1
  B  B14  1  0.53729397  0.53729397  0.68341929  1
  B  B15  1  0.04015387  0.04015387  0.15888699  1
  B  B16  1  0.31450000  0.75556501  0.88967926  1
  B  B17  1  0.80502053  0.28008356  0.40122607  1
  B  B18  1  0.72274527  0.20152153  0.60488225  1
  B  B19  1  0.22537812  0.69554783  0.09652380  1
  B  B20  1  0.95797319  0.95797319  0.83612388  1
  B  B21  1  0.46344287  0.46344287  0.33840871  1
  B  B22  1  0.20152153  0.72274527  0.60488225  1
  B  B23  1  0.69554783  0.22537812  0.09652380  1
  O  O0  1  0.07165240  0.07165240  0.30978366  1
  O  O1  1  0.92684240  0.92684240  0.68987131  1
  O  O2  1  0.43483866  0.43483866  0.18781574  1
loop_
_geom_bond_atom_site_label_1
_geom_bond_atom_site_label_2
_geom_bond_distance
_geom_bond_site_symmetry_2
B0 B7 1.685178 1_455
B0 B4 1.759386 1_555
B0 B22 1.760752 1_555
B0 B2 1.762312 1_555
B0 B21 1.762709 1_555
B0 B13 1.806575 1_555
B1 B6 1.688300 1_545
B1 B20 1.755258 1_545
B1 B23 1.759794 1_556
B1 B3 1.788895 1_546
B1 B5 1.797443 1_645
B1 B12 1.818686 1_555
B2 B8 1.670709 1_555
B2 B22 1.750092 1_555
B2 B4 1.762312 1_555
B3 B9 1.701151 1_555
B3 B5 1.788895 1_654
B6 B8 1.760982 1_565
B7 B9 1.788727 1_555
B10 B5 1.688300 1_655
B10 B8 1.760982 1_655
B10 B15 1.781642 1_656
B10 B23 1.794978 1_556
B10 B6 1.800441 1_645
B10 B12 1.811772 1_555
B11 B4 1.685178 1_565
B11 B7 1.756121 1_555
B11 B9 1.788727 1_555
B11 B13 1.793748 1_555
B11 B22 1.802828 1_555
B11 B14 1.844659 1_555
B12 B20 1.767043 1_545
B12 B23 1.772373 1_556
B12 B8 1.836156 1_655
B12 B14 2.210072 1_555
B12 B16 2.340321 1_555
B13 O0 1.484036 1_565
B13 B9 1.759948 1_555
B14 B18 1.785030 1_555
B14 B22 1.785030 1_555
B14 B2 1.828714 1_555
B14 B7 1.844659 1_555
B14 B16 2.210072 1_555
B15 O0 1.494681 1_555
B15 B6 1.781642 1_544
B15 B3 1.804804 1_445
B16 B20 1.767043 1_455
B16 B19 1.772373 1_556
B16 B6 1.811772 1_555
B16 B5 1.818686 1_555
B16 B8 1.836156 1_565
B17 O0 1.484036 1_655
B17 B9 1.759948 1_555
B17 B7 1.793748 1_555
B17 B4 1.806575 1_555
B18 O1 1.464405 1_545
B18 B2 1.750092 1_555
B18 B4 1.760752 1_555
B18 B7 1.802828 1_555
B19 O2 1.473323 1_555
B19 B5 1.759794 1_554
B19 B3 1.776547 1_455
B19 B6 1.794978 1_554
B20 O1 1.451342 1_555
B20 B5 1.755258 1_655
B20 B8 1.786787 1_665
B21 O2 1.479339 1_555
B21 B4 1.762709 1_555
B21 B9 1.815728 1_555
B22 O1 1.464405 1_455
B23 O2 1.473323 1_555
B23 B3 1.776547 1_545
