# generated using pymatgen
data_Tb3Ge13Os4
_symmetry_space_group_name_H-M   'P 1'
_cell_length_a   9.02973998
_cell_length_b   9.02973998
_cell_length_c   9.02973998
_cell_angle_alpha   90.00000000
_cell_angle_beta   90.00000000
_cell_angle_gamma   90.00000000
_symmetry_Int_Tables_number   1
_chemical_formula_structural   Tb3Ge13Os4
_chemical_formula_sum   'Tb6 Ge26 Os8'
_cell_volume   736.25072204
_cell_formula_units_Z   2
loop_
 _symmetry_equiv_pos_site_id
 _symmetry_equiv_pos_as_xyz
  1  'x, y, z'
loop_
 _atom_site_type_symbol
 _atom_site_label
 _atom_site_symmetry_multiplicity
 _atom_site_fract_x
 _atom_site_fract_y
 _atom_site_fract_z
 _atom_site_occupancy
  Tb  Tb0  1  -0.00000000  0.50000000  0.75000000  1
  Tb  Tb1  1  0.50000000  0.25000000  0.00000000  1
  Tb  Tb2  1  0.75000000  -0.00000000  0.50000000  1
  Tb  Tb3  1  -0.00000000  0.50000000  0.25000000  1
  Tb  Tb4  1  0.50000000  0.75000000  0.00000000  1
  Tb  Tb5  1  0.25000000  -0.00000000  0.50000000  1
  Ge  Ge0  1  0.50000000  0.50000000  0.50000000  1
  Ge  Ge1  1  -0.00000000  -0.00000000  0.00000000  1
  Ge  Ge2  1  0.79477645  0.35616869  0.50000000  1
  Ge  Ge3  1  0.64383131  0.50000000  0.79477645  1
  Ge  Ge4  1  0.50000000  0.20522355  0.64383131  1
  Ge  Ge5  1  0.20522355  0.64383131  0.50000000  1
  Ge  Ge6  1  0.35616869  0.50000000  0.20522355  1
  Ge  Ge7  1  0.50000000  0.79477645  0.35616869  1
  Ge  Ge8  1  0.79477645  0.64383131  0.50000000  1
  Ge  Ge9  1  0.64383131  0.50000000  0.20522355  1
  Ge  Ge10  1  0.20522355  0.35616869  0.50000000  1
  Ge  Ge11  1  0.35616869  0.50000000  0.79477645  1
  Ge  Ge12  1  0.50000000  0.79477645  0.64383131  1
  Ge  Ge13  1  0.50000000  0.20522355  0.35616869  1
  Ge  Ge14  1  0.29477645  -0.00000000  0.85616869  1
  Ge  Ge15  1  0.14383131  0.29477645  0.00000000  1
  Ge  Ge16  1  -0.00000000  0.14383131  0.70522355  1
  Ge  Ge17  1  0.70522355  -0.00000000  0.14383131  1
  Ge  Ge18  1  0.85616869  0.70522355  0.00000000  1
  Ge  Ge19  1  -0.00000000  0.85616869  0.29477645  1
  Ge  Ge20  1  0.29477645  -0.00000000  0.14383131  1
  Ge  Ge21  1  0.14383131  0.70522355  0.00000000  1
  Ge  Ge22  1  0.70522355  -0.00000000  0.85616869  1
  Ge  Ge23  1  0.85616869  0.29477645  0.00000000  1
  Ge  Ge24  1  -0.00000000  0.14383131  0.29477645  1
  Ge  Ge25  1  -0.00000000  0.85616869  0.70522355  1
  Os  Os0  1  0.75000000  0.25000000  0.75000000  1
  Os  Os1  1  0.25000000  0.75000000  0.25000000  1
  Os  Os2  1  0.75000000  0.75000000  0.25000000  1
  Os  Os3  1  0.25000000  0.25000000  0.75000000  1
  Os  Os4  1  0.25000000  0.75000000  0.75000000  1
  Os  Os5  1  0.75000000  0.25000000  0.25000000  1
  Os  Os6  1  0.25000000  0.25000000  0.25000000  1
  Os  Os7  1  0.75000000  0.75000000  0.75000000  1
loop_
_geom_bond_atom_site_label_1
_geom_bond_atom_site_label_2
_geom_bond_distance
_geom_bond_site_symmetry_2
Ge0 Ge7 2.961708 1_555
Ge0 Ge2 2.961708 1_555
Ge0 Ge6 2.961708 1_555
Ge0 Ge11 2.961708 1_555
Ge0 Ge13 2.961708 1_555
Ge0 Ge10 2.961708 1_555
Ge0 Ge4 2.961708 1_555
Ge0 Ge3 2.961708 1_555
Ge0 Ge9 2.961708 1_555
Ge0 Ge5 2.961708 1_555
Ge0 Ge8 2.961708 1_555
Ge0 Ge12 2.961708 1_555
Ge1 Ge16 2.961708 1_554
Ge1 Ge17 2.961708 1_455
Ge1 Ge18 2.961708 1_445
Ge1 Ge21 2.961708 1_545
Ge1 Ge22 2.961708 1_454
Ge1 Ge25 2.961708 1_544
Ge1 Ge14 2.961708 1_554
Ge1 Ge20 2.961708 1_555
Ge1 Ge19 2.961708 1_545
Ge1 Ge24 2.961708 1_555
Ge1 Ge15 2.961708 1_555
Ge1 Ge23 2.961708 1_455
Ge2 Os5 2.485668 1_555
Ge2 Os0 2.485668 1_555
Ge2 Ge8 2.597519 1_555
Ge2 Tb3 3.196377 1_655
Ge2 Tb0 3.196377 1_655
Ge2 Tb2 3.241426 1_555
Ge3 Os0 2.485668 1_555
Ge3 Os7 2.485668 1_555
Ge3 Tb1 3.196377 1_556
Ge3 Tb4 3.196377 1_556
Ge3 Tb0 3.241426 1_655
Ge4 Os0 2.485668 1_555
Ge4 Os3 2.485668 1_555
Ge4 Tb5 3.196377 1_555
Ge4 Tb2 3.196377 1_555
Ge4 Tb1 3.241426 1_556
Ge5 Os4 2.485668 1_555
Ge5 Os1 2.485668 1_555
Ge5 Tb0 3.196377 1_555
Ge5 Tb3 3.196377 1_555
Ge5 Tb5 3.241426 1_565
Ge6 Os1 2.485668 1_555
Ge6 Os6 2.485668 1_555
Ge6 Ge9 2.597519 1_555
Ge6 Tb1 3.196377 1_555
Ge6 Tb4 3.196377 1_555
Ge6 Tb3 3.241426 1_555
Ge7 Os1 2.485668 1_555
Ge7 Os2 2.485668 1_555
Ge7 Tb2 3.196377 1_565
Ge7 Tb5 3.196377 1_565
Ge7 Tb4 3.241426 1_555
Ge8 Os7 2.485668 1_555
Ge8 Os2 2.485668 1_555
Ge8 Tb3 3.196377 1_655
Ge8 Tb0 3.196377 1_655
Ge8 Tb2 3.241426 1_565
Ge9 Os5 2.485668 1_555
Ge9 Os2 2.485668 1_555
Ge9 Tb1 3.196377 1_555
Ge9 Tb4 3.196377 1_555
Ge9 Tb3 3.241426 1_655
Ge10 Os3 2.485668 1_555
Ge10 Os6 2.485668 1_555
Ge10 Ge5 2.597519 1_555
Ge10 Tb0 3.196377 1_555
Ge10 Tb3 3.196377 1_555
Ge10 Tb5 3.241426 1_555
Ge11 Os4 2.485668 1_555
Ge11 Os3 2.485668 1_555
Ge11 Ge3 2.597519 1_555
Ge11 Tb4 3.196377 1_556
Ge11 Tb1 3.196377 1_556
Ge11 Tb0 3.241426 1_555
Ge12 Os7 2.485668 1_555
Ge12 Os4 2.485668 1_555
Ge12 Ge7 2.597519 1_555
Ge12 Tb5 3.196377 1_565
Ge12 Tb2 3.196377 1_565
Ge12 Tb4 3.241426 1_556
Ge13 Os5 2.485668 1_555
Ge13 Os6 2.485668 1_555
Ge13 Ge4 2.597519 1_555
Ge13 Tb5 3.196377 1_555
Ge13 Tb2 3.196377 1_555
Ge13 Tb1 3.241426 1_555
Ge14 Os4 2.485668 1_545
Ge14 Os3 2.485668 1_555
Ge14 Ge20 2.597519 1_556
Ge14 Tb1 3.196377 1_556
Ge14 Tb4 3.196377 1_546
Ge14 Tb5 3.241426 1_555
Ge15 Os3 2.485668 1_554
Ge15 Os6 2.485668 1_555
Ge15 Ge23 2.597519 1_455
Ge15 Tb3 3.196377 1_555
Ge15 Tb0 3.196377 1_554
Ge15 Tb1 3.241426 1_555
Ge16 Os0 2.485668 1_455
Ge16 Os3 2.485668 1_555
Ge16 Ge25 2.597519 1_545
Ge16 Tb2 3.196377 1_455
Ge16 Tb5 3.196377 1_555
Ge16 Tb0 3.241426 1_555
Ge17 Os5 2.485668 1_555
Ge17 Os2 2.485668 1_545
Ge17 Ge22 2.597519 1_554
Ge17 Tb1 3.196377 1_555
Ge17 Tb4 3.196377 1_545
Ge17 Tb2 3.241426 1_555
Ge18 Os2 2.485668 1_555
Ge18 Os7 2.485668 1_554
Ge18 Ge21 2.597519 1_655
Ge18 Tb3 3.196377 1_655
Ge18 Tb0 3.196377 1_654
Ge18 Tb4 3.241426 1_555
Ge19 Os2 2.485668 1_455
Ge19 Os1 2.485668 1_555
Ge19 Ge24 2.597519 1_565
Ge19 Tb2 3.196377 1_465
Ge19 Tb5 3.196377 1_565
Ge19 Tb3 3.241426 1_555
Ge20 Os1 2.485668 1_545
Ge20 Os6 2.485668 1_555
Ge20 Tb4 3.196377 1_545
Ge20 Tb1 3.196377 1_555
Ge20 Tb5 3.241426 1_555
Ge21 Os1 2.485668 1_555
Ge21 Os4 2.485668 1_554
Ge21 Tb3 3.196377 1_555
Ge21 Tb0 3.196377 1_554
Ge21 Tb4 3.241426 1_555
Ge22 Os7 2.485668 1_545
Ge22 Os0 2.485668 1_555
Ge22 Tb4 3.196377 1_546
Ge22 Tb1 3.196377 1_556
Ge22 Tb2 3.241426 1_555
Ge23 Os5 2.485668 1_555
Ge23 Os0 2.485668 1_554
Ge23 Tb0 3.196377 1_654
Ge23 Tb3 3.196377 1_655
Ge23 Tb1 3.241426 1_555
Ge24 Os6 2.485668 1_555
Ge24 Os5 2.485668 1_455
Ge24 Tb2 3.196377 1_455
Ge24 Tb5 3.196377 1_555
Ge24 Tb3 3.241426 1_555
Ge25 Os4 2.485668 1_555
Ge25 Os7 2.485668 1_455
Ge25 Tb2 3.196377 1_465
Ge25 Tb5 3.196377 1_565
Ge25 Tb0 3.241426 1_555
Os0 Tb2 3.192495 1_555
Os0 Tb1 3.192495 1_556
Os0 Tb0 3.192495 1_655
Os1 Tb5 3.192495 1_565
Os1 Tb3 3.192495 1_555
Os1 Tb4 3.192495 1_555
Os2 Tb3 3.192495 1_655
Os2 Tb4 3.192495 1_555
Os2 Tb2 3.192495 1_565
Os3 Tb5 3.192495 1_555
Os3 Tb0 3.192495 1_555
Os3 Tb1 3.192495 1_556
Os4 Tb5 3.192495 1_565
Os4 Tb0 3.192495 1_555
Os4 Tb4 3.192495 1_556
Os5 Tb2 3.192495 1_555
Os5 Tb3 3.192495 1_655
Os5 Tb1 3.192495 1_555
Os6 Tb5 3.192495 1_555
Os6 Tb3 3.192495 1_555
Os6 Tb1 3.192495 1_555
Os7 Tb2 3.192495 1_565
Os7 Tb4 3.192495 1_556
Os7 Tb0 3.192495 1_655
