# generated using pymatgen
data_La5Sb3
_symmetry_space_group_name_H-M   'P 1'
_cell_length_a   6.67453722
_cell_length_b   9.58851073
_cell_length_c   9.58836306
_cell_angle_alpha   120.00112842
_cell_angle_beta   90.00014215
_cell_angle_gamma   89.99978023
_symmetry_Int_Tables_number   1
_chemical_formula_structural   La5Sb3
_chemical_formula_sum   'La10 Sb6'
_cell_volume   531.42561140
_cell_formula_units_Z   2
loop_
 _symmetry_equiv_pos_site_id
 _symmetry_equiv_pos_as_xyz
  1  'x, y, z'
loop_
 _atom_site_type_symbol
 _atom_site_label
 _atom_site_symmetry_multiplicity
 _atom_site_fract_x
 _atom_site_fract_y
 _atom_site_fract_z
 _atom_site_occupancy
  La  La0  1  0.50000764  0.33333190  0.66666352  1
  La  La1  1  0.50001639  0.66666779  0.33333693  1
  La  La2  1  -0.00000875  0.66666795  0.33333664  1
  La  La3  1  0.00000380  0.33333443  0.66666676  1
  La  La4  1  0.74999340  0.25478023  0.00000326  1
  La  La5  1  0.74999277  0.74510004  0.74511881  1
  La  La6  1  0.74998917  0.99998528  0.25485083  1
  La  La7  1  0.25000285  0.74521469  0.00000264  1
  La  La8  1  0.25000809  0.25489855  0.25488384  1
  La  La9  1  0.25000719  0.00001729  0.74510818  1
  Sb  Sb0  1  0.74998436  0.61749564  0.00001660  1
  Sb  Sb1  1  0.74998700  0.38251342  0.38251058  1
  Sb  Sb2  1  0.74999182  0.00000025  0.61748991  1
  Sb  Sb3  1  0.25001593  0.38251894  0.00001997  1
  Sb  Sb4  1  0.25000301  0.61749583  0.61750020  1
  Sb  Sb5  1  0.25000533  -0.00002222  0.38249136  1
loop_
_geom_bond_atom_site_label_1
_geom_bond_atom_site_label_2
_geom_bond_distance
_geom_bond_site_symmetry_2
La0 Sb1 3.422633 1_555
La0 Sb2 3.422665 1_555
La0 Sb0 3.422711 1_556
La0 Sb4 3.422735 1_555
La0 Sb3 3.422817 1_556
La0 Sb5 3.422840 1_555
La1 Sb0 3.422487 1_555
La1 Sb3 3.422556 1_555
La1 Sb2 3.422581 1_565
La1 Sb1 3.422598 1_555
La1 Sb5 3.422634 1_565
La1 Sb4 3.422780 1_555
La2 Sb0 3.422605 1_455
La2 Sb3 3.422631 1_555
La2 Sb5 3.422652 1_565
La2 Sb2 3.422654 1_465
La2 Sb1 3.422722 1_455
La2 Sb4 3.422770 1_555
La3 Sb4 3.422725 1_555
La3 Sb1 3.422760 1_455
La3 Sb2 3.422777 1_455
La3 Sb0 3.422823 1_456
La3 Sb5 3.422856 1_555
La3 Sb3 3.422858 1_556
La4 Sb1 3.234091 1_555
La4 Sb2 3.234133 1_554
La4 Sb0 3.477837 1_555
La4 Sb3 3.554761 1_555
La4 Sb3 3.555052 1_655
La5 Sb0 3.234335 1_556
La5 Sb2 3.234556 1_565
La5 Sb1 3.476683 1_555
La5 Sb4 3.554441 1_555
La5 Sb4 3.554566 1_655
La6 Sb0 3.234094 1_555
La6 Sb1 3.234470 1_565
La6 Sb2 3.477043 1_565
La6 Sb5 3.554517 1_565
La6 Sb5 3.554714 1_665
La7 Sb5 3.233924 1_565
La7 Sb4 3.234073 1_554
La7 Sb3 3.477795 1_555
La7 Sb0 3.554772 1_555
La7 Sb0 3.555012 1_455
La8 Sb3 3.234144 1_555
La8 Sb5 3.234587 1_555
La8 Sb4 3.476773 1_555
La8 Sb1 3.554404 1_555
La8 Sb1 3.554665 1_455
La9 Sb3 3.234322 1_556
La9 Sb4 3.234503 1_545
La9 Sb5 3.476712 1_555
La9 Sb2 3.554408 1_555
La9 Sb2 3.554595 1_455
