# generated using pymatgen
data_H7C4(N3O2)3
_symmetry_space_group_name_H-M   'P 1'
_cell_length_a   7.36702600
_cell_length_b   9.62911934
_cell_length_c   17.08662394
_cell_angle_alpha   94.63560531
_cell_angle_beta   90.00000000
_cell_angle_gamma   90.00000000
_symmetry_Int_Tables_number   1
_chemical_formula_structural   H7C4(N3O2)3
_chemical_formula_sum   'H28 C16 N36 O24'
_cell_volume   1208.12552779
_cell_formula_units_Z   4
loop_
 _symmetry_equiv_pos_site_id
 _symmetry_equiv_pos_as_xyz
  1  'x, y, z'
loop_
 _atom_site_type_symbol
 _atom_site_label
 _atom_site_symmetry_multiplicity
 _atom_site_fract_x
 _atom_site_fract_y
 _atom_site_fract_z
 _atom_site_occupancy
  H  H0  1  0.71728300  0.41320700  0.97396800  1
  H  H1  1  0.21728300  0.58679300  0.02603200  1
  H  H2  1  0.38067100  0.81394500  0.72813400  1
  H  H3  1  0.88067100  0.18605500  0.27186600  1
  H  H4  1  0.97431400  0.69392700  0.64430300  1
  H  H5  1  0.47431400  0.30607300  0.35569700  1
  H  H6  1  0.57283600  0.40795500  0.28693600  1
  H  H7  1  0.07283600  0.59204500  0.71306400  1
  H  H8  1  0.58889800  0.85217300  0.77541500  1
  H  H9  1  0.08889800  0.14782700  0.22458500  1
  H  H10  1  0.83357700  0.56566500  0.95208500  1
  H  H11  1  0.33357700  0.43433500  0.04791500  1
  H  H12  1  0.93166400  0.41371000  0.47212000  1
  H  H13  1  0.43166400  0.58629000  0.52788000  1
  H  H14  1  0.56073900  0.14542300  0.72517100  1
  H  H15  1  0.06073900  0.85457700  0.27482900  1
  H  H16  1  0.71704400  0.70632200  0.85957900  1
  H  H17  1  0.21704400  0.29367800  0.14042100  1
  H  H18  1  0.68809000  0.70641400  0.15232600  1
  H  H19  1  0.18809000  0.29358600  0.84767400  1
  H  H20  1  0.81744800  0.56886700  0.45284100  1
  H  H21  1  0.31744800  0.43113300  0.54715900  1
  H  H22  1  0.76792600  0.18489900  0.77306400  1
  H  H23  1  0.26792600  0.81510100  0.22693600  1
  H  H24  1  0.58818800  0.60382200  0.22019000  1
  H  H25  1  0.08818800  0.39617800  0.77981000  1
  H  H26  1  0.94166800  0.71626700  0.36490400  1
  H  H27  1  0.44166800  0.28373300  0.63509600  1
  C  C0  1  0.55321100  0.94274800  0.40551100  1
  C  C1  1  0.05321100  0.05725200  0.59448900  1
  C  C2  1  0.68401700  0.32471800  0.69684000  1
  C  C3  1  0.18401700  0.67528200  0.30316000  1
  C  C4  1  0.09299400  0.93356400  0.90192000  1
  C  C5  1  0.59299400  0.06643600  0.09808000  1
  C  C6  1  0.82831600  0.52184700  0.66554700  1
  C  C7  1  0.32831600  0.47815300  0.33445300  1
  C  C8  1  0.59276600  0.52544700  0.89391500  1
  C  C9  1  0.09276600  0.47455300  0.10608500  1
  C  C10  1  0.55958300  0.46981000  0.60459500  1
  C  C11  1  0.05958300  0.53019000  0.39540500  1
  C  C12  1  0.32754300  0.47086300  0.83080900  1
  C  C13  1  0.82754300  0.52913700  0.16919100  1
  C  C14  1  0.46943700  0.66979400  0.80098000  1
  C  C15  1  0.96943700  0.33020600  0.19902000  1
  N  N0  1  0.48302800  0.78609800  0.76406600  1
  N  N1  1  0.98302800  0.21390200  0.23593400  1
  N  N2  1  0.60698300  0.64125400  0.85192200  1
  N  N3  1  0.10698300  0.35874600  0.14807800  1
  N  N4  1  0.66667900  0.21151300  0.73630400  1
  N  N5  1  0.16667900  0.78848700  0.26369600  1
  N  N6  1  0.54389100  0.80868700  0.43126000  1
  N  N7  1  0.04389100  0.19131300  0.56874000  1
  N  N8  1  0.91308200  0.95749800  0.56793500  1
  N  N9  1  0.41308200  0.04250200  0.43206500  1
  N  N10  1  0.96694300  0.98098400  0.85078200  1
  N  N11  1  0.46694300  0.01901600  0.14921800  1
  N  N12  1  0.96983500  0.60831300  0.67512500  1
  N  N13  1  0.46983500  0.39168700  0.32487500  1
  N  N14  1  0.10729500  0.80059000  0.92613900  1
  N  N15  1  0.60729500  0.19941000  0.07386100  1
  N  N16  1  0.72511300  0.96350300  0.06449700  1
  N  N17  1  0.22511300  0.03649700  0.93550300  1
  N  N18  1  0.82561200  0.40933300  0.70895100  1
  N  N19  1  0.32561200  0.59066700  0.29104900  1
  N  N20  1  0.92470000  0.50296500  0.44377000  1
  N  N21  1  0.42470000  0.49703600  0.55623000  1
  N  N22  1  0.54874500  0.35126700  0.64444100  1
  N  N23  1  0.04874500  0.64873300  0.35555900  1
  N  N24  1  0.69982500  0.55557400  0.61382100  1
  N  N25  1  0.19982500  0.44442500  0.38617900  1
  N  N26  1  0.69049700  0.61920200  0.18170600  1
  N  N27  1  0.19049700  0.38079800  0.81829400  1
  N  N28  1  0.72449400  0.50120000  0.94452100  1
  N  N29  1  0.22449400  0.49880000  0.05547900  1
  N  N30  1  0.68887100  0.98882600  0.35715900  1
  N  N31  1  0.18887100  0.01117400  0.64284100  1
  N  N32  1  0.45216100  0.44005000  0.88494300  1
  N  N33  1  0.95216100  0.55995000  0.11505700  1
  N  N34  1  0.32911700  0.58416400  0.78813700  1
  N  N35  1  0.82911700  0.41583600  0.21186300  1
  O  O0  1  0.84836400  0.90156000  0.81887900  1
  O  O1  1  0.34836400  0.09844000  0.18112100  1
  O  O2  1  0.69494100  0.91196100  0.99709400  1
  O  O3  1  0.19494100  0.08803900  0.00290600  1
  O  O4  1  0.97859800  0.10882600  0.83783900  1
  O  O5  1  0.47859800  0.89117400  0.16216100  1
  O  O6  1  0.99584500  0.70680800  0.90356600  1
  O  O7  1  0.49584500  0.29319200  0.09643400  1
  O  O8  1  0.85522100  0.93536300  0.10617800  1
  O  O9  1  0.35522100  0.06463700  0.89382200  1
  O  O10  1  0.82844000  0.91669700  0.34173900  1
  O  O11  1  0.32844000  0.08330300  0.65826100  1
  O  O12  1  0.16408100  0.89528600  0.67103300  1
  O  O13  1  0.66408100  0.10471400  0.32896700  1
  O  O14  1  0.23963900  0.77902600  0.97073200  1
  O  O15  1  0.73963900  0.22097400  0.02926800  1
  O  O16  1  0.75273000  0.99289200  0.57848400  1
  O  O17  1  0.25273000  0.00710800  0.42151600  1
  O  O18  1  0.65314900  0.71620600  0.40463300  1
  O  O19  1  0.15314900  0.28379400  0.59536700  1
  O  O20  1  0.42311100  0.78573400  0.48043900  1
  O  O21  1  0.92311100  0.21426600  0.51956100  1
  O  O22  1  0.96379600  0.84348500  0.53630000  1
  O  O23  1  0.46379600  0.15651500  0.46370000  1
loop_
_geom_bond_atom_site_label_1
_geom_bond_atom_site_label_2
_geom_bond_distance
_geom_bond_site_symmetry_2
H0 N28 1.021175 1_555
H1 N29 1.021175 1_555
H2 N0 1.021797 1_555
H3 N1 1.021797 1_555
H4 N12 1.014018 1_555
H5 N13 1.014018 1_555
H6 N13 1.018319 1_555
H7 N12 1.018319 1_455
H8 N0 1.015276 1_555
H9 N1 1.015276 1_455
H10 N28 1.017279 1_555
H11 N29 1.017279 1_555
H12 N20 1.021383 1_555
H13 N21 1.021374 1_555
H14 N4 1.015249 1_555
H15 N5 1.015249 1_555
H16 N2 1.026578 1_555
H17 N3 1.026578 1_555
H18 N26 1.012762 1_555
H19 N27 1.012762 1_555
H20 N20 1.017407 1_555
H21 N21 1.017413 1_555
H22 N4 1.021057 1_555
H23 N5 1.021057 1_555
H24 N26 1.018893 1_555
H25 N27 1.018893 1_555
H26 N23 1.026577 1_655
H27 N22 1.026577 1_555
C0 N30 1.391939 1_555
C0 N6 1.398742 1_555
C0 N9 1.457317 1_565
C1 N31 1.391939 1_555
C1 N7 1.398742 1_555
C1 N8 1.457317 1_445
C2 N18 1.329491 1_555
C2 N4 1.333437 1_555
C2 N22 1.377341 1_555
C3 N19 1.329491 1_555
C3 N5 1.333437 1_555
C3 N23 1.377341 1_555
C4 N10 1.377972 1_455
C4 N14 1.381114 1_555
C4 N17 1.472103 1_565
C5 N11 1.377972 1_555
C5 N15 1.381114 1_555
C5 N16 1.472103 1_545
C6 N12 1.336012 1_555
C6 N24 1.352425 1_555
C6 N18 1.361639 1_555
C7 N13 1.336012 1_555
C7 N25 1.352427 1_555
C7 N19 1.361639 1_555
C8 N32 1.323732 1_555
C8 N28 1.332886 1_555
C8 N2 1.377905 1_555
C9 N33 1.323732 1_455
C9 N29 1.332886 1_555
C9 N3 1.377905 1_555
C10 N24 1.324099 1_555
C10 N21 1.331949 1_555
C10 N22 1.377849 1_555
C11 N25 1.324105 1_555
C11 N20 1.331947 1_455
C11 N23 1.377849 1_555
C12 N27 1.336863 1_555
C12 N32 1.353070 1_555
C12 N34 1.360362 1_555
C13 N26 1.336863 1_555
C13 N33 1.353070 1_555
C13 N35 1.360362 1_555
C14 N34 1.329435 1_555
C14 N0 1.332747 1_555
C14 N2 1.377903 1_555
C15 N35 1.329435 1_555
C15 N1 1.332747 1_555
C15 N3 1.377903 1_655
N6 O20 1.255668 1_555
N6 O18 1.257931 1_555
N7 O21 1.255668 1_455
N7 O19 1.257931 1_555
N8 O16 1.238638 1_555
N8 O22 1.241414 1_555
N9 O17 1.238638 1_555
N9 O23 1.241414 1_555
N10 O0 1.256101 1_555
N10 O4 1.271086 1_565
N11 O1 1.256101 1_555
N11 O5 1.271086 1_545
N14 O6 1.257805 1_455
N14 O14 1.264846 1_555
N15 O7 1.257805 1_555
N15 O15 1.264846 1_555
N16 O2 1.236820 1_554
N16 O8 1.237160 1_555
N17 O3 1.236820 1_556
N17 O9 1.237160 1_555
N30 O10 1.256757 1_555
N30 O13 1.263927 1_565
N31 O11 1.256757 1_555
N31 O12 1.263927 1_545
