# generated using pymatgen
data_BaMg14Fe
_symmetry_space_group_name_H-M   'P 1'
_cell_length_a   6.61973572
_cell_length_b   6.61973572
_cell_length_c   10.43138300
_cell_angle_alpha   90.00000000
_cell_angle_beta   90.00000000
_cell_angle_gamma   124.51780054
_symmetry_Int_Tables_number   1
_chemical_formula_structural   BaMg14Fe
_chemical_formula_sum   'Ba1 Mg14 Fe1'
_cell_volume   376.63801025
_cell_formula_units_Z   1
loop_
 _symmetry_equiv_pos_site_id
 _symmetry_equiv_pos_as_xyz
  1  'x, y, z'
loop_
 _atom_site_type_symbol
 _atom_site_label
 _atom_site_symmetry_multiplicity
 _atom_site_fract_x
 _atom_site_fract_y
 _atom_site_fract_z
 _atom_site_occupancy
  Ba  Ba0  1  0.32591000  0.67409000  0.50000000  1
  Mg  Mg0  1  0.82894800  0.17105200  0.00000000  1
  Mg  Mg1  1  0.33356000  0.66644000  0.00000000  1
  Mg  Mg2  1  0.31618300  0.16656300  0.50000000  1
  Mg  Mg3  1  0.33527300  0.17476500  0.00000000  1
  Mg  Mg4  1  0.83343700  0.68381700  0.50000000  1
  Mg  Mg5  1  0.82523500  0.66472700  0.00000000  1
  Mg  Mg6  1  0.15854100  0.31933200  0.24741000  1
  Mg  Mg7  1  0.15854100  0.31933200  0.75259000  1
  Mg  Mg8  1  0.68066800  0.84145900  0.24741000  1
  Mg  Mg9  1  0.68066800  0.84145900  0.75259000  1
  Mg  Mg10  1  0.67753000  0.32247000  0.27092300  1
  Mg  Mg11  1  0.67753000  0.32247000  0.72907700  1
  Mg  Mg12  1  0.16389200  0.83610800  0.23468100  1
  Mg  Mg13  1  0.16389200  0.83610800  0.76531900  1
  Fe  Fe0  1  0.84020100  0.15979900  0.50000000  1
loop_
_geom_bond_atom_site_label_1
_geom_bond_atom_site_label_2
_geom_bond_distance
_geom_bond_site_symmetry_2
Ba0 Fe0 3.085882 1_565
Ba0 Fe0 3.085882 1_455
Ba0 Mg8 3.276622 1_555
Ba0 Mg9 3.276622 1_555
Ba0 Mg6 3.276622 1_555
Ba0 Mg7 3.276622 1_555
Ba0 Mg2 3.296955 1_565
Ba0 Mg4 3.296955 1_455
Ba0 Mg2 3.323631 1_555
Ba0 Mg4 3.323631 1_555
Ba0 Mg12 3.356202 1_555
Ba0 Mg13 3.356202 1_555
Mg0 Mg1 3.081809 1_545
Mg0 Mg1 3.081809 1_655
Mg0 Mg9 3.155527 1_544
Mg0 Mg8 3.155527 1_545
Mg0 Mg7 3.155527 1_654
Mg0 Mg6 3.155527 1_655
Mg0 Mg3 3.281989 1_555
Mg0 Mg5 3.281989 1_555
Mg0 Mg10 3.336900 1_555
Mg0 Mg11 3.336900 1_554
Mg0 Mg5 3.337871 1_545
Mg0 Mg3 3.337871 1_655
Mg1 Mg13 3.153660 1_554
Mg1 Mg12 3.153660 1_555
Mg1 Mg9 3.204002 1_554
Mg1 Mg8 3.204002 1_555
Mg1 Mg7 3.204002 1_554
Mg1 Mg6 3.204002 1_555
Mg1 Mg5 3.261198 1_555
Mg1 Mg3 3.261198 1_555
Mg1 Mg3 3.358564 1_565
Mg1 Mg5 3.358564 1_455
Mg2 Mg4 2.975004 1_445
Mg2 Mg4 3.187666 1_555
Mg2 Mg6 3.201599 1_555
Mg2 Mg7 3.201599 1_555
Mg3 Mg5 3.019474 1_555
Mg3 Mg5 3.143196 1_445
Mg3 Mg7 3.195951 1_554
Mg3 Mg6 3.195951 1_555
Mg4 Mg8 3.201599 1_555
Mg4 Mg9 3.201599 1_555
Mg5 Mg9 3.195951 1_554
Mg5 Mg8 3.195951 1_555
Mg6 Mg8 2.944974 1_445
Mg6 Mg8 3.217696 1_555
Mg7 Mg9 2.944974 1_445
Mg7 Mg9 3.217696 1_555
Mg10 Mg12 3.108551 1_655
Mg10 Mg12 3.108551 1_545
Mg10 Mg4 3.114355 1_555
Mg10 Mg2 3.114355 1_555
Mg10 Mg8 3.205380 1_545
Mg10 Mg6 3.205380 1_655
Mg10 Mg5 3.400797 1_555
Mg10 Mg3 3.400797 1_555
Mg10 Mg6 3.432616 1_555
Mg10 Mg8 3.432616 1_555
Mg11 Mg13 3.108551 1_655
Mg11 Mg13 3.108551 1_545
Mg11 Mg2 3.114355 1_555
Mg11 Mg4 3.114355 1_555
Mg11 Mg9 3.205380 1_545
Mg11 Mg7 3.205380 1_655
Mg11 Mg3 3.400797 1_556
Mg11 Mg5 3.400797 1_556
Mg11 Mg7 3.432616 1_555
Mg11 Mg9 3.432616 1_555
Mg12 Mg3 3.069747 1_565
Mg12 Mg5 3.069747 1_455
Mg12 Mg6 3.221757 1_565
Mg12 Mg8 3.221757 1_455
Mg12 Mg4 3.310909 1_455
Mg12 Mg2 3.310909 1_565
Mg12 Mg8 3.403564 1_555
Mg12 Mg6 3.403564 1_555
Mg13 Mg3 3.069747 1_566
Mg13 Mg5 3.069747 1_456
Mg13 Mg7 3.221757 1_565
Mg13 Mg9 3.221757 1_455
Mg13 Mg4 3.310909 1_455
Mg13 Mg2 3.310909 1_565
Mg13 Mg9 3.403564 1_555
Mg13 Mg7 3.403564 1_555
Fe0 Mg11 3.056712 1_555
Fe0 Mg10 3.056712 1_555
Fe0 Mg4 3.125720 1_545
Fe0 Mg2 3.125720 1_655
Fe0 Mg8 3.158547 1_545
Fe0 Mg6 3.158547 1_655
Fe0 Mg7 3.158547 1_655
Fe0 Mg9 3.158547 1_545
Fe0 Mg4 3.494428 1_555
Fe0 Mg2 3.494428 1_555
