# generated using pymatgen
data_K2Al2Si3(HO5)2
_symmetry_space_group_name_H-M   'P 1'
_cell_length_a   14.13179874
_cell_length_b   10.51995590
_cell_length_c   10.49791462
_cell_angle_alpha   84.50052166
_cell_angle_beta   47.81588768
_cell_angle_gamma   47.68359066
_symmetry_Int_Tables_number   1
_chemical_formula_structural   K2Al2Si3(HO5)2
_chemical_formula_sum   'K4 Al4 Si6 H4 O20'
_cell_volume   649.70782794
_cell_formula_units_Z   2
loop_
 _symmetry_equiv_pos_site_id
 _symmetry_equiv_pos_as_xyz
  1  'x, y, z'
loop_
 _atom_site_type_symbol
 _atom_site_label
 _atom_site_symmetry_multiplicity
 _atom_site_fract_x
 _atom_site_fract_y
 _atom_site_fract_z
 _atom_site_occupancy
  K  K0  1  0.37399000  0.41755200  0.33608400  1
  K  K1  1  0.87237400  0.33608400  0.41755200  1
  K  K2  1  0.91391600  0.37762600  0.87601000  1
  K  K3  1  0.83244800  0.87601000  0.37762600  1
  Al  Al0  1  0.74447200  0.86505200  0.91231600  1
  Al  Al1  1  0.47816100  0.91231600  0.86505200  1
  Al  Al2  1  0.33768400  0.77183900  0.50552800  1
  Al  Al3  1  0.38494800  0.50552800  0.77183900  1
  Si  Si0  1  0.00010700  0.49989300  0.49989300  1
  Si  Si1  1  0.75010700  0.24989300  0.24989300  1
  Si  Si2  1  0.98929700  0.85042700  0.89949500  1
  Si  Si3  1  0.26078200  0.89949500  0.85042700  1
  Si  Si4  1  0.35050500  0.98921800  0.26070300  1
  Si  Si5  1  0.39957300  0.26070300  0.98921800  1
  H  H0  1  0.81272100  0.22158200  0.72304900  1
  H  H1  1  0.24264800  0.72304900  0.22158200  1
  H  H2  1  0.52695100  0.00735200  0.43727900  1
  H  H3  1  0.02841800  0.43727900  0.00735200  1
  O  O0  1  0.85743300  0.84652600  0.94571200  1
  O  O1  1  0.35032800  0.94571200  0.84652600  1
  O  O2  1  0.30428800  0.89967200  0.39256700  1
  O  O3  1  0.40347400  0.39256700  0.89967200  1
  O  O4  1  0.15810800  0.78593300  0.65488800  1
  O  O5  1  0.40107100  0.65488800  0.78593300  1
  O  O6  1  0.59511200  0.84892900  0.09189200  1
  O  O7  1  0.46406700  0.09189200  0.84892900  1
  O  O8  1  0.61722900  0.48074300  0.28589600  1
  O  O9  1  0.61613200  0.28589600  0.48074300  1
  O  O10  1  0.96410400  0.63386800  0.63277100  1
  O  O11  1  0.76925700  0.63277200  0.63386800  1
  O  O12  1  0.56211300  0.12752500  0.98011800  1
  O  O13  1  0.33024400  0.98011800  0.12752500  1
  O  O14  1  0.26988200  0.91975600  0.68788700  1
  O  O15  1  0.12247500  0.68788700  0.91975600  1
  O  O16  1  0.79145200  0.11449500  0.10751500  1
  O  O17  1  0.98653900  0.10751500  0.11449500  1
  O  O18  1  0.14248500  0.26346100  0.45854800  1
  O  O19  1  0.13550500  0.45854800  0.26346100  1
loop_
_geom_bond_atom_site_label_1
_geom_bond_atom_site_label_2
_geom_bond_distance
_geom_bond_site_symmetry_2
K0 O10 2.795014 1_455
K0 O16 2.802830 1_555
K0 O12 2.874471 1_554
K0 O4 2.894974 1_555
K1 O11 2.795023 1_555
K1 O17 2.802819 1_555
K1 O13 2.874471 1_645
K1 O5 2.894974 1_555
K2 O8 2.795014 1_556
K2 O18 2.802828 1_655
K2 O14 2.874471 1_645
K2 O6 2.894974 1_556
K3 O9 2.795014 1_565
K3 O19 2.802825 1_655
K3 O15 2.874471 1_654
K3 O7 2.894974 1_565
Al0 O0 1.740358 1_555
Al0 O12 1.761892 1_565
Al0 O6 1.764803 1_556
Al0 O10 1.769668 1_555
Al1 O1 1.740385 1_555
Al1 O13 1.761890 1_556
Al1 O7 1.764795 1_565
Al1 O11 1.769661 1_555
Al2 O2 1.740369 1_555
Al2 O14 1.761899 1_555
Al2 O4 1.764795 1_555
Al2 O8 1.769664 1_555
Al3 O3 1.740375 1_555
Al3 O15 1.761888 1_555
Al3 O5 1.764806 1_555
Al3 O9 1.769661 1_555
H0 K1 3.072910 1_555
H1 K0 3.072910 1_555
H2 K3 3.072910 1_545
H3 K2 3.072910 1_454
O0 Si2 1.610749 1_555
O1 Si3 1.610721 1_555
O2 Si4 1.610732 1_555
O3 Si5 1.610739 1_555
O4 Si2 1.634838 1_455
O5 Si3 1.634840 1_555
O6 Si4 1.634843 1_555
O7 Si5 1.634832 1_555
O8 Si1 1.627665 1_555
O9 Si1 1.627665 1_555
O10 Si0 1.627665 1_655
O11 Si0 1.627661 1_655
O12 Si5 1.626661 1_555
O13 Si4 1.626650 1_555
O14 Si3 1.626661 1_555
O15 Si2 1.626653 1_455
O16 Si1 1.648914 1_555
O16 Si2 1.675726 1_544
O17 Si1 1.648926 1_555
O17 Si3 1.675726 1_644
O18 Si0 1.648922 1_555
O18 Si4 1.675726 1_545
O19 Si0 1.648922 1_555
O19 Si5 1.675726 1_554
