# generated using pymatgen
data_NdCO4
_symmetry_space_group_name_H-M   'P 1'
_cell_length_a   4.82809600
_cell_length_b   6.52059800
_cell_length_c   10.69732500
_cell_angle_alpha   90.00000000
_cell_angle_beta   90.00000000
_cell_angle_gamma   90.00000000
_symmetry_Int_Tables_number   1
_chemical_formula_structural   NdCO4
_chemical_formula_sum   'Nd4 C4 O16'
_cell_volume   336.77396785
_cell_formula_units_Z   4
loop_
 _symmetry_equiv_pos_site_id
 _symmetry_equiv_pos_as_xyz
  1  'x, y, z'
loop_
 _atom_site_type_symbol
 _atom_site_label
 _atom_site_symmetry_multiplicity
 _atom_site_fract_x
 _atom_site_fract_y
 _atom_site_fract_z
 _atom_site_occupancy
  Nd  Nd0  1  0.75000000  0.31923700  0.39369700  1
  Nd  Nd1  1  0.75000000  0.81923700  0.10630300  1
  Nd  Nd2  1  0.25000000  0.68076300  0.60630300  1
  Nd  Nd3  1  0.25000000  0.18076300  0.89369700  1
  C  C0  1  0.75000000  0.27307500  0.10706200  1
  C  C1  1  0.75000000  0.77307500  0.39293800  1
  C  C2  1  0.25000000  0.72692500  0.89293800  1
  C  C3  1  0.25000000  0.22692500  0.60706200  1
  O  O0  1  0.75000000  0.73481100  0.63802600  1
  O  O1  1  0.75000000  0.23481100  0.86197400  1
  O  O2  1  0.25000000  0.26518900  0.36197400  1
  O  O3  1  0.25000000  0.76518900  0.13802600  1
  O  O4  1  0.75000000  0.45130500  0.16087000  1
  O  O5  1  0.75000000  0.95130500  0.33913000  1
  O  O6  1  0.25000000  0.54869500  0.83913000  1
  O  O7  1  0.25000000  0.04869500  0.66087000  1
  O  O8  1  0.52076300  0.17474900  0.08765500  1
  O  O9  1  0.97923700  0.67474900  0.41234500  1
  O  O10  1  0.02076300  0.82525100  0.91234500  1
  O  O11  1  0.47923700  0.32525100  0.58765500  1
  O  O12  1  0.47923700  0.82525100  0.91234500  1
  O  O13  1  0.02076300  0.32525100  0.58765500  1
  O  O14  1  0.97923700  0.17474900  0.08765500  1
  O  O15  1  0.52076300  0.67474900  0.41234500  1
loop_
_geom_bond_atom_site_label_1
_geom_bond_atom_site_label_2
_geom_bond_distance
_geom_bond_site_symmetry_2
Nd0 O13 2.452635 1_655
Nd0 O11 2.452635 1_555
Nd0 O2 2.463126 1_655
Nd0 O2 2.463126 1_555
Nd0 O5 2.469127 1_545
Nd0 O9 2.576543 1_555
Nd0 O15 2.576543 1_555
Nd0 O4 2.635302 1_555
Nd1 O12 2.452635 1_554
Nd1 O10 2.452635 1_654
Nd1 O3 2.463126 1_655
Nd1 O3 2.463126 1_555
Nd1 O4 2.469127 1_555
Nd1 O14 2.576543 1_565
Nd1 O8 2.576543 1_565
Nd1 O5 2.635302 1_555
Nd2 O15 2.452635 1_555
Nd2 O9 2.452635 1_455
Nd2 O0 2.463126 1_455
Nd2 O0 2.463126 1_555
Nd2 O7 2.469127 1_565
Nd2 O13 2.576543 1_555
Nd2 O11 2.576543 1_555
Nd2 O6 2.635302 1_555
Nd3 O8 2.452635 1_556
Nd3 O14 2.452635 1_456
Nd3 O1 2.463126 1_555
Nd3 O1 2.463126 1_455
Nd3 O6 2.469127 1_555
Nd3 O12 2.576543 1_545
Nd3 O10 2.576543 1_545
Nd3 O7 2.635302 1_555
C0 O8 1.295810 1_555
C0 O14 1.295810 1_555
C0 O4 1.296899 1_555
C1 O9 1.295810 1_555
C1 O15 1.295810 1_555
C1 O5 1.296899 1_555
C2 O12 1.295810 1_555
C2 O10 1.295810 1_555
C2 O6 1.296899 1_555
C3 O11 1.295810 1_555
C3 O13 1.295810 1_555
C3 O7 1.296899 1_555
