# generated using pymatgen
data_CaBe(SiO4)3
_symmetry_space_group_name_H-M   'P 1'
_cell_length_a   18.22546600
_cell_length_b   5.12948800
_cell_length_c   11.09954525
_cell_angle_alpha   72.68414653
_cell_angle_beta   90.00000000
_cell_angle_gamma   90.00000000
_symmetry_Int_Tables_number   1
_chemical_formula_structural   CaBe(SiO4)3
_chemical_formula_sum   'Ca4 Be4 Si12 O48'
_cell_volume   990.63799086
_cell_formula_units_Z   4
loop_
 _symmetry_equiv_pos_site_id
 _symmetry_equiv_pos_as_xyz
  1  'x, y, z'
loop_
 _atom_site_type_symbol
 _atom_site_label
 _atom_site_symmetry_multiplicity
 _atom_site_fract_x
 _atom_site_fract_y
 _atom_site_fract_z
 _atom_site_occupancy
  Ca  Ca0  1  0.97574300  0.50000000  0.25000000  1
  Ca  Ca1  1  0.02425700  0.50000000  0.75000000  1
  Ca  Ca2  1  0.51072100  0.50000000  0.25000000  1
  Ca  Ca3  1  0.48927900  0.50000000  0.75000000  1
  Be  Be0  1  0.83469400  0.66480900  0.04707900  1
  Be  Be1  1  0.16530600  0.33519100  0.95292100  1
  Be  Be2  1  0.83469400  0.33519100  0.45292100  1
  Be  Be3  1  0.16530600  0.66480900  0.54707900  1
  Si  Si0  1  0.92100400  0.86757300  0.45081800  1
  Si  Si1  1  0.07899600  0.13242700  0.54918200  1
  Si  Si2  1  0.92100400  0.13242700  0.04918200  1
  Si  Si3  1  0.07899600  0.86757300  0.95081800  1
  Si  Si4  1  0.57535200  0.85715300  0.45695000  1
  Si  Si5  1  0.42464800  0.14284700  0.54305000  1
  Si  Si6  1  0.57535200  0.14284700  0.04305000  1
  Si  Si7  1  0.42464800  0.85715300  0.95695000  1
  Si  Si8  1  0.66584900  0.67094100  0.03079000  1
  Si  Si9  1  0.33415100  0.32905900  0.96921000  1
  Si  Si10  1  0.66584900  0.32905900  0.46921000  1
  Si  Si11  1  0.33415100  0.67094100  0.53079000  1
  O  O0  1  0.60929000  0.83091700  0.10341600  1
  O  O1  1  0.39071000  0.16908300  0.89658400  1
  O  O2  1  0.60929000  0.16908300  0.39658400  1
  O  O3  1  0.39071000  0.83091700  0.60341600  1
  O  O4  1  0.88956500  0.82679700  0.10898200  1
  O  O5  1  0.11043500  0.17320300  0.89101800  1
  O  O6  1  0.88956500  0.17320300  0.39101800  1
  O  O7  1  0.11043500  0.82679700  0.60898200  1
  O  O8  1  0.50133400  0.81642100  0.38083800  1
  O  O9  1  0.49866600  0.18357900  0.61916200  1
  O  O10  1  0.50133400  0.18357900  0.11916200  1
  O  O11  1  0.49866600  0.81642100  0.88083800  1
  O  O12  1  0.99514000  0.83487200  0.36740900  1
  O  O13  1  0.00486000  0.16512800  0.63259100  1
  O  O14  1  0.99514000  0.16512800  0.13259100  1
  O  O15  1  0.00486000  0.83487200  0.86740900  1
  O  O16  1  0.32794800  0.80493600  0.37792100  1
  O  O17  1  0.67205200  0.19506400  0.62207900  1
  O  O18  1  0.32794800  0.19506400  0.12207900  1
  O  O19  1  0.67205200  0.80493600  0.87792100  1
  O  O20  1  0.83803000  0.77392900  0.88996700  1
  O  O21  1  0.16197000  0.22607100  0.11003300  1
  O  O22  1  0.83803000  0.22607100  0.61003300  1
  O  O23  1  0.16197000  0.77392900  0.38996700  1
  O  O24  1  0.94290500  0.78062200  0.60169000  1
  O  O25  1  0.05709500  0.21937800  0.39831000  1
  O  O26  1  0.94290500  0.21937800  0.89831000  1
  O  O27  1  0.05709500  0.78062200  0.10169000  1
  O  O28  1  0.43732000  0.79269800  0.10863000  1
  O  O29  1  0.56268000  0.20730200  0.89137000  1
  O  O30  1  0.43732000  0.20730200  0.39137000  1
  O  O31  1  0.56268000  0.79269800  0.60863000  1
  O  O32  1  0.74983300  0.68708100  0.07158100  1
  O  O33  1  0.25016700  0.31291900  0.92841900  1
  O  O34  1  0.74983300  0.31291900  0.42841900  1
  O  O35  1  0.25016700  0.68708100  0.57158100  1
  O  O36  1  0.75400300  0.59103900  0.70078200  1
  O  O37  1  0.24599700  0.40896100  0.29921800  1
  O  O38  1  0.75400300  0.40896100  0.79921800  1
  O  O39  1  0.24599700  0.59103900  0.20078200  1
  O  O40  1  0.86580300  0.63410600  0.43151100  1
  O  O41  1  0.13419700  0.36589400  0.56848900  1
  O  O42  1  0.86580300  0.36589400  0.06848900  1
  O  O43  1  0.13419700  0.63410600  0.93151100  1
  O  O44  1  0.63264900  0.64056000  0.42431000  1
  O  O45  1  0.36735100  0.35944000  0.57569000  1
  O  O46  1  0.63264900  0.35944000  0.07569000  1
  O  O47  1  0.36735100  0.64056000  0.92431000  1
loop_
_geom_bond_atom_site_label_1
_geom_bond_atom_site_label_2
_geom_bond_distance
_geom_bond_site_symmetry_2
Ca0 O27 2.360015 1_655
Ca0 O25 2.360015 1_655
Ca0 O12 2.471108 1_555
Ca0 O14 2.471108 1_555
Ca0 O4 2.482931 1_555
Ca0 O6 2.482931 1_555
Ca1 O24 2.360015 1_455
Ca1 O26 2.360015 1_455
Ca1 O15 2.471108 1_555
Ca1 O13 2.471108 1_555
Ca1 O7 2.482931 1_555
Ca1 O5 2.482931 1_555
Ca2 O28 2.259113 1_555
Ca2 O30 2.259113 1_555
Ca2 O8 2.485114 1_555
Ca2 O10 2.485114 1_555
Ca2 O0 2.666785 1_555
Ca2 O2 2.666785 1_555
Ca3 O31 2.259113 1_555
Ca3 O29 2.259113 1_555
Ca3 O11 2.485114 1_555
Ca3 O9 2.485114 1_555
Ca3 O1 2.666785 1_555
Ca3 O3 2.666785 1_555
Be0 O32 1.580373 1_555
Be0 O4 1.581921 1_555
Be0 O42 1.584924 1_555
Be0 O20 1.666443 1_554
Be1 O33 1.580373 1_555
Be1 O5 1.581921 1_555
Be1 O43 1.584924 1_555
Be1 O21 1.666443 1_556
Be2 O34 1.580373 1_555
Be2 O6 1.581921 1_555
Be2 O40 1.584924 1_555
Be2 O22 1.666443 1_555
Be3 O35 1.580373 1_555
Be3 O7 1.581921 1_555
Be3 O41 1.584924 1_555
Be3 O23 1.666443 1_555
O0 Si6 1.659361 1_565
O0 Si8 1.667198 1_555
O1 Si7 1.659361 1_545
O1 Si9 1.667198 1_555
O2 Si4 1.659361 1_545
O2 Si10 1.667198 1_555
O3 Si5 1.659361 1_565
O3 Si11 1.667198 1_555
O4 Si2 1.614687 1_565
O5 Si3 1.614687 1_545
O6 Si0 1.614687 1_545
O7 Si1 1.614687 1_565
O8 Si4 1.637761 1_555
O9 Si5 1.637761 1_555
O10 Si6 1.637761 1_555
O11 Si7 1.637761 1_555
O12 Si0 1.674315 1_555
O13 Si1 1.674315 1_555
O14 Si2 1.674315 1_555
O15 Si3 1.674315 1_555
O16 Si11 1.634017 1_555
O17 Si10 1.634017 1_555
O18 Si9 1.634017 1_554
O19 Si8 1.634017 1_556
O24 Si0 1.648624 1_555
O25 Si1 1.648624 1_555
O26 Si2 1.648624 1_556
O27 Si3 1.648624 1_554
O28 Si7 1.632709 1_554
O29 Si6 1.632709 1_556
O30 Si5 1.632709 1_555
O31 Si4 1.632709 1_555
O32 Si8 1.605317 1_555
O33 Si9 1.605317 1_555
O34 Si10 1.605317 1_555
O35 Si11 1.605317 1_555
O36 O38 1.207728 1_555
O37 O39 1.207728 1_555
O40 Si0 1.626353 1_555
O41 Si1 1.626353 1_555
O42 Si2 1.626353 1_555
O43 Si3 1.626353 1_555
O44 Si10 1.641209 1_555
O44 Si4 1.641856 1_555
O45 Si11 1.641209 1_555
O45 Si5 1.641856 1_555
O46 Si8 1.641209 1_555
O46 Si6 1.641856 1_555
O47 Si9 1.641209 1_555
O47 Si7 1.641856 1_555
