# generated using pymatgen
data_Li3Nd2(BO3)3
_symmetry_space_group_name_H-M   'P 1'
_cell_length_a   14.22914700
_cell_length_b   5.84481800
_cell_length_c   9.41275245
_cell_angle_alpha   66.89802895
_cell_angle_beta   90.00000000
_cell_angle_gamma   90.00000000
_symmetry_Int_Tables_number   1
_chemical_formula_structural   Li3Nd2(BO3)3
_chemical_formula_sum   'Li12 Nd8 B12 O36'
_cell_volume   720.05169620
_cell_formula_units_Z   4
loop_
 _symmetry_equiv_pos_site_id
 _symmetry_equiv_pos_as_xyz
  1  'x, y, z'
loop_
 _atom_site_type_symbol
 _atom_site_label
 _atom_site_symmetry_multiplicity
 _atom_site_fract_x
 _atom_site_fract_y
 _atom_site_fract_z
 _atom_site_occupancy
  Li  Li0  1  0.66509100  0.42598600  0.50311900  1
  Li  Li1  1  0.88768600  0.95051900  0.20852900  1
  Li  Li2  1  0.38768600  0.04948100  0.29147100  1
  Li  Li3  1  0.11231400  0.04948100  0.79147100  1
  Li  Li4  1  0.61231400  0.95051900  0.70852900  1
  Li  Li5  1  0.83490900  0.42598600  0.00311900  1
  Li  Li6  1  0.33490900  0.57401400  0.49688100  1
  Li  Li7  1  0.16509100  0.57401400  0.99688100  1
  Li  Li8  1  0.71500400  0.58113300  0.71025600  1
  Li  Li9  1  0.21500400  0.41886700  0.78974400  1
  Li  Li10  1  0.28499600  0.41886700  0.28974400  1
  Li  Li11  1  0.78499600  0.58113300  0.21025600  1
  Nd  Nd0  1  0.50320600  0.65323000  0.15858800  1
  Nd  Nd1  1  0.00320600  0.34677000  0.34141200  1
  Nd  Nd2  1  0.49679400  0.34677000  0.84141200  1
  Nd  Nd3  1  0.99679400  0.65323000  0.65858800  1
  Nd  Nd4  1  0.66372200  0.05898500  0.30764100  1
  Nd  Nd5  1  0.16372200  0.94101500  0.19235900  1
  Nd  Nd6  1  0.33627800  0.94101500  0.69235900  1
  Nd  Nd7  1  0.83627800  0.05898500  0.80764100  1
  B  B0  1  0.01547800  0.26303700  0.98647600  1
  B  B1  1  0.82312500  0.11384300  0.48200600  1
  B  B2  1  0.32312500  0.88615700  0.01799400  1
  B  B3  1  0.17687500  0.88615700  0.51799400  1
  B  B4  1  0.67687500  0.11384300  0.98200600  1
  B  B5  1  0.51547800  0.73696300  0.51352400  1
  B  B6  1  0.48452200  0.26303700  0.48647600  1
  B  B7  1  0.98452200  0.73696300  0.01352400  1
  B  B8  1  0.83679600  0.61547000  0.47180900  1
  B  B9  1  0.33679600  0.38453000  0.02819100  1
  B  B10  1  0.16320400  0.38453000  0.52819100  1
  B  B11  1  0.66320400  0.61547000  0.97180900  1
  O  O0  1  0.89645700  0.69296800  0.08003500  1
  O  O1  1  0.49265600  0.15809700  0.64632000  1
  O  O2  1  0.00734400  0.15809700  0.14632000  1
  O  O3  1  0.50734400  0.84190300  0.35368000  1
  O  O4  1  0.60354300  0.69296800  0.58003500  1
  O  O5  1  0.99265600  0.84190300  0.85368000  1
  O  O6  1  0.10354300  0.30703200  0.91996500  1
  O  O7  1  0.39645700  0.30703200  0.41996500  1
  O  O8  1  0.83180700  0.50385600  0.63170500  1
  O  O9  1  0.33180700  0.49614400  0.86829500  1
  O  O10  1  0.16819300  0.49614400  0.36829500  1
  O  O11  1  0.66819300  0.50385600  0.13170500  1
  O  O12  1  0.92596900  0.66194400  0.40676800  1
  O  O13  1  0.42596900  0.33805600  0.09323200  1
  O  O14  1  0.07403100  0.33805600  0.59323200  1
  O  O15  1  0.57403100  0.66194400  0.90676800  1
  O  O16  1  0.75795400  0.68464300  0.37873800  1
  O  O17  1  0.25795400  0.31535700  0.12126200  1
  O  O18  1  0.24204600  0.31535700  0.62126200  1
  O  O19  1  0.74204600  0.68464300  0.87873800  1
  O  O20  1  0.90517000  0.04217800  0.56924000  1
  O  O21  1  0.40517000  0.95782200  0.93076000  1
  O  O22  1  0.09483000  0.95782200  0.43076000  1
  O  O23  1  0.59483000  0.04217800  0.06924000  1
  O  O24  1  0.73746400  0.09504000  0.55420200  1
  O  O25  1  0.23746400  0.90496000  0.94579800  1
  O  O26  1  0.26253600  0.90496000  0.44579800  1
  O  O27  1  0.56418200  0.32219800  0.39347800  1
  O  O28  1  0.83087200  0.21288400  0.32190400  1
  O  O29  1  0.33087200  0.78711600  0.17809600  1
  O  O30  1  0.16912800  0.78711600  0.67809600  1
  O  O31  1  0.66912800  0.21288400  0.82190400  1
  O  O32  1  0.93581800  0.32219800  0.89347800  1
  O  O33  1  0.43581800  0.67780200  0.60652200  1
  O  O34  1  0.06418200  0.67780200  0.10652200  1
  O  O35  1  0.76253600  0.09504000  0.05420200  1
loop_
_geom_bond_atom_site_label_1
_geom_bond_atom_site_label_2
_geom_bond_distance
_geom_bond_site_symmetry_2
Li0 O27 1.996499 1_555
Li0 O16 2.003317 1_555
Li0 O24 2.074469 1_555
Li0 O4 2.147731 1_555
Li1 O12 2.038053 1_555
Li1 O2 2.038705 1_665
Li1 O35 2.243200 1_565
Li1 O0 2.274472 1_555
Li1 O28 2.329838 1_565
Li1 O16 2.536848 1_555
Li2 O13 2.038053 1_555
Li2 O3 2.038705 1_545
Li2 O26 2.243200 1_545
Li2 O7 2.274472 1_555
Li2 O29 2.329838 1_545
Li2 O17 2.536848 1_555
Li3 O14 2.038053 1_555
Li3 O5 2.038705 1_445
Li3 O25 2.243200 1_545
Li3 O6 2.274472 1_555
Li3 O30 2.329838 1_545
Li3 O18 2.536848 1_555
Li4 O15 2.038053 1_555
Li4 O1 2.038705 1_565
Li4 O24 2.243200 1_565
Li4 O4 2.274472 1_555
Li4 O31 2.329838 1_565
Li4 O19 2.536848 1_555
Li5 O32 1.996499 1_554
Li5 O19 2.003317 1_554
Li5 O35 2.074469 1_555
Li5 O0 2.147731 1_555
Li6 O33 1.996499 1_555
Li6 O18 2.003317 1_555
Li6 O26 2.074469 1_555
Li6 O7 2.147731 1_555
Li7 O34 1.996499 1_556
Li7 O17 2.003317 1_556
Li7 O25 2.074469 1_555
Li7 O6 2.147731 1_555
Li8 O8 1.942943 1_555
Li8 O19 1.944740 1_555
Li8 O4 1.953545 1_555
Li8 O31 2.094783 1_555
Li9 O9 1.942943 1_555
Li9 O18 1.944740 1_555
Li9 O6 1.953545 1_555
Li9 O30 2.094783 1_555
Li10 O10 1.942943 1_555
Li10 O17 1.944740 1_555
Li10 O7 1.953545 1_555
Li10 O29 2.094783 1_555
Li11 O11 1.942943 1_555
Li11 O16 1.944740 1_555
Li11 O0 1.953545 1_555
Li11 O28 2.094783 1_555
Nd0 O13 2.422611 1_555
Nd0 O27 2.455141 1_555
Nd0 O23 2.464693 1_565
Nd0 O3 2.486136 1_555
Nd0 O11 2.551662 1_555
Nd0 O15 2.557712 1_554
Nd0 O21 2.591951 1_554
Nd0 O29 2.602300 1_555
Nd0 O7 2.923684 1_555
Nd1 O12 2.422611 1_455
Nd1 O34 2.455141 1_555
Nd1 O22 2.464693 1_545
Nd1 O2 2.486136 1_555
Nd1 O10 2.551662 1_555
Nd1 O14 2.557712 1_555
Nd1 O20 2.591951 1_455
Nd1 O28 2.602300 1_455
Nd1 O0 2.923684 1_455
Nd2 O15 2.422611 1_555
Nd2 O33 2.455141 1_555
Nd2 O21 2.464693 1_545
Nd2 O1 2.486136 1_555
Nd2 O9 2.551662 1_555
Nd2 O13 2.557712 1_556
Nd2 O23 2.591951 1_556
Nd2 O31 2.602300 1_555
Nd2 O4 2.923684 1_555
Nd3 O14 2.422611 1_655
Nd3 O32 2.455141 1_555
Nd3 O20 2.464693 1_565
Nd3 O5 2.486136 1_555
Nd3 O8 2.551662 1_555
Nd3 O12 2.557712 1_555
Nd3 O22 2.591951 1_655
Nd3 O30 2.602300 1_655
Nd3 O6 2.923684 1_655
Nd4 O16 2.425665 1_545
Nd4 O27 2.449715 1_555
Nd4 O11 2.475563 1_555
Nd4 O23 2.485790 1_555
Nd4 O3 2.513437 1_545
Nd4 O28 2.564899 1_555
Nd4 O24 2.629715 1_555
Nd4 O35 2.705132 1_555
Nd4 O4 2.753081 1_545
Nd5 O17 2.425665 1_565
Nd5 O34 2.449715 1_555
Nd5 O10 2.475563 1_555
Nd5 O22 2.485790 1_555
Nd5 O2 2.513437 1_565
Nd5 O29 2.564899 1_555
Nd5 O25 2.629715 1_554
Nd5 O26 2.705132 1_555
Nd5 O6 2.753081 1_564
Nd6 O18 2.425665 1_565
Nd6 O33 2.449715 1_555
Nd6 O9 2.475563 1_555
Nd6 O21 2.485790 1_555
Nd6 O1 2.513437 1_565
Nd6 O30 2.564899 1_555
Nd6 O26 2.629715 1_555
Nd6 O25 2.705132 1_555
Nd6 O7 2.753081 1_565
Nd7 O19 2.425665 1_545
Nd7 O32 2.449715 1_555
Nd7 O8 2.475563 1_555
Nd7 O20 2.485790 1_555
Nd7 O5 2.513437 1_545
Nd7 O31 2.564899 1_555
Nd7 O35 2.629715 1_556
Nd7 O24 2.705132 1_555
Nd7 O0 2.753081 1_546
B0 O6 1.379118 1_555
B0 O2 1.388939 1_556
B0 O32 1.390364 1_455
B1 O24 1.378750 1_555
B1 O28 1.390583 1_555
B1 O20 1.393796 1_555
B2 O25 1.378750 1_554
B2 O29 1.390583 1_555
B2 O21 1.393796 1_554
B3 O26 1.378750 1_555
B3 O30 1.390583 1_555
B3 O22 1.393796 1_555
B4 O35 1.378750 1_556
B4 O31 1.390583 1_555
B4 O23 1.393796 1_556
B5 O4 1.379118 1_555
B5 O3 1.388939 1_555
B5 O33 1.390364 1_555
B6 O7 1.379118 1_555
B6 O1 1.388939 1_555
B6 O27 1.390364 1_555
B7 O0 1.379118 1_555
B7 O5 1.388939 1_554
B7 O34 1.390364 1_655
B8 O16 1.382585 1_555
B8 O8 1.387565 1_555
B8 O12 1.388555 1_555
B9 O17 1.382585 1_555
B9 O9 1.387565 1_554
B9 O13 1.388555 1_555
B10 O18 1.382585 1_555
B10 O10 1.387565 1_555
B10 O14 1.388555 1_555
B11 O19 1.382585 1_555
B11 O11 1.387565 1_556
B11 O15 1.388555 1_555
