# generated using pymatgen
data_Th2Ni7
_symmetry_space_group_name_H-M   'P 1'
_cell_length_a   4.97627786
_cell_length_b   4.97627800
_cell_length_c   12.73928880
_cell_angle_alpha   78.73703579
_cell_angle_beta   78.73703458
_cell_angle_gamma   59.99999905
_symmetry_Int_Tables_number   1
_chemical_formula_structural   Th2Ni7
_chemical_formula_sum   'Th4 Ni14'
_cell_volume   266.16419549
_cell_formula_units_Z   2
loop_
 _symmetry_equiv_pos_site_id
 _symmetry_equiv_pos_as_xyz
  1  'x, y, z'
loop_
 _atom_site_type_symbol
 _atom_site_label
 _atom_site_symmetry_multiplicity
 _atom_site_fract_x
 _atom_site_fract_y
 _atom_site_fract_z
 _atom_site_occupancy
  Th  Th0  1  0.95005800  0.95005800  0.14982700  1
  Th  Th1  1  0.04994200  0.04994200  0.85017300  1
  Th  Th2  1  0.85498600  0.85498600  0.43504300  1
  Th  Th3  1  0.14501400  0.14501400  0.56495700  1
  Ni  Ni0  1  0.38951900  0.38951900  0.32861700  1
  Ni  Ni1  1  0.89234500  0.38951900  0.32861700  1
  Ni  Ni2  1  0.38951900  0.89234500  0.32861700  1
  Ni  Ni3  1  0.61048100  0.61048100  0.67138300  1
  Ni  Ni4  1  0.10765500  0.61048100  0.67138300  1
  Ni  Ni5  1  0.61048100  0.10765500  0.67138300  1
  Ni  Ni6  1  0.00000000  0.50000000  0.00000000  1
  Ni  Ni7  1  0.50000000  0.00000000  0.00000000  1
  Ni  Ni8  1  0.50000000  0.50000000  0.00000000  1
  Ni  Ni9  1  0.72154300  0.72154300  0.83537000  1
  Ni  Ni10  1  0.27845700  0.27845700  0.16463000  1
  Ni  Ni11  1  0.61167100  0.61167100  0.16498800  1
  Ni  Ni12  1  0.38832900  0.38832900  0.83501200  1
  Ni  Ni13  1  0.50000000  0.50000000  0.50000000  1
loop_
_geom_bond_atom_site_label_1
_geom_bond_atom_site_label_2
_geom_bond_distance
_geom_bond_site_symmetry_2
Ni0 Ni1 2.474076 1_455
Ni0 Ni2 2.474076 1_545
Ni0 Ni10 2.486486 1_555
Ni0 Ni11 2.492231 1_555
Ni0 Ni1 2.502202 1_555
Ni0 Ni2 2.502202 1_555
Ni0 Ni13 2.571253 1_555
Ni0 Th2 2.817016 1_455
Ni0 Th2 2.817016 1_545
Ni0 Th3 3.262550 1_555
Ni0 Th0 3.333881 1_545
Ni0 Th0 3.333881 1_455
Ni1 Ni2 2.474076 1_645
Ni1 Ni10 2.486488 1_655
Ni1 Ni11 2.492229 1_555
Ni1 Ni2 2.502202 1_555
Ni1 Ni13 2.571253 1_555
Ni1 Th2 2.817014 1_545
Ni1 Th2 2.817018 1_555
Ni1 Th3 3.262548 1_655
Ni1 Th0 3.333879 1_545
Ni1 Th0 3.333883 1_555
Ni2 Th2 2.817014 1_455
Ni2 Th2 2.817018 1_555
Ni2 Th3 3.262548 1_565
Ni2 Th0 3.333879 1_455
Ni2 Th0 3.333883 1_555
Ni3 Ni4 2.474076 1_655
Ni3 Ni5 2.474076 1_565
Ni3 Ni9 2.486486 1_555
Ni3 Ni4 2.502202 1_555
Ni3 Ni5 2.502202 1_555
Ni3 Th3 2.817016 1_655
Ni3 Th3 2.817016 1_565
Ni3 Th2 3.262550 1_555
Ni3 Th1 3.333881 1_565
Ni3 Th1 3.333881 1_655
Ni4 Ni5 2.474076 1_465
Ni4 Ni9 2.486488 1_455
Ni4 Ni5 2.502202 1_555
Ni4 Th3 2.817014 1_565
Ni4 Th3 2.817018 1_555
Ni4 Th2 3.262548 1_455
Ni4 Th1 3.333879 1_565
Ni4 Th1 3.333883 1_555
Ni5 Ni9 2.486488 1_545
Ni5 Th3 2.817014 1_655
Ni5 Th3 2.817018 1_555
Ni5 Th2 3.262548 1_545
Ni5 Th1 3.333879 1_655
Ni5 Th1 3.333883 1_555
Ni6 Ni7 2.488139 1_465
Ni6 Ni7 2.488139 1_555
Ni6 Ni8 2.488139 1_555
Ni6 Ni8 2.488139 1_455
Ni6 Ni9 2.497686 1_454
Ni6 Th0 3.106223 1_445
Ni6 Th1 3.106223 1_564
Ni6 Th0 3.106227 1_455
Ni6 Th1 3.106227 1_554
Ni7 Ni8 2.488139 1_545
Ni7 Ni8 2.488139 1_555
Ni7 Ni9 2.497686 1_544
Ni7 Th1 3.106223 1_654
Ni7 Th0 3.106223 1_445
Ni7 Th0 3.106227 1_545
Ni7 Th1 3.106227 1_554
Ni8 Ni9 2.497683 1_554
Ni8 Th0 3.106225 1_455
Ni8 Th1 3.106225 1_654
Ni8 Th0 3.106225 1_545
Ni8 Th1 3.106225 1_564
Ni9 Th1 2.878923 1_565
Ni9 Th1 2.878924 1_665
Ni9 Th1 2.878924 1_655
Ni10 Ni2 2.486488 1_545
Ni10 Ni8 2.497683 1_555
Ni10 Ni7 2.497686 1_555
Ni10 Ni6 2.497686 1_555
Ni10 Ni11 2.873059 1_455
Ni10 Ni11 2.873059 1_555
Ni10 Ni11 2.873059 1_545
Ni10 Th0 2.878923 1_545
Ni10 Th0 2.878924 1_455
Ni10 Th0 2.878924 1_445
Ni11 Ni2 2.492229 1_555
Ni11 Ni6 2.501320 1_655
Ni11 Ni7 2.501320 1_565
Ni11 Ni8 2.501322 1_555
Ni11 Th0 2.879210 1_455
Ni11 Th0 2.879211 1_555
Ni11 Th0 2.879211 1_545
Ni12 Ni5 2.492229 1_555
Ni12 Ni4 2.492229 1_555
Ni12 Ni3 2.492231 1_555
Ni12 Ni6 2.501320 1_556
Ni12 Ni7 2.501320 1_556
Ni12 Ni8 2.501322 1_556
Ni12 Ni9 2.873059 1_455
Ni12 Ni9 2.873059 1_545
Ni12 Ni9 2.873059 1_555
Ni12 Th1 2.879210 1_655
Ni12 Th1 2.879211 1_555
Ni12 Th1 2.879211 1_565
Ni13 Ni4 2.571253 1_555
Ni13 Ni3 2.571253 1_555
Ni13 Ni5 2.571253 1_555
Ni13 Ni2 2.571253 1_555
Ni13 Th2 2.984020 1_455
Ni13 Th3 2.984020 1_655
Ni13 Th2 2.984020 1_545
Ni13 Th3 2.984020 1_565
Ni13 Th2 2.984024 1_555
Ni13 Th3 2.984024 1_555
