# generated using pymatgen
data_LaMg14Zr
_symmetry_space_group_name_H-M   'P 1'
_cell_length_a   6.59143514
_cell_length_b   6.40266672
_cell_length_c   10.44795327
_cell_angle_alpha   90.00000000
_cell_angle_beta   90.00000000
_cell_angle_gamma   119.05709052
_symmetry_Int_Tables_number   1
_chemical_formula_structural   LaMg14Zr
_chemical_formula_sum   'La1 Mg14 Zr1'
_cell_volume   385.43505094
_cell_formula_units_Z   1
loop_
 _symmetry_equiv_pos_site_id
 _symmetry_equiv_pos_as_xyz
  1  'x, y, z'
loop_
 _atom_site_type_symbol
 _atom_site_label
 _atom_site_symmetry_multiplicity
 _atom_site_fract_x
 _atom_site_fract_y
 _atom_site_fract_z
 _atom_site_occupancy
  La  La0  1  0.16398500  0.83199200  0.12500000  1
  Mg  Mg0  1  0.16595017  0.33297458  0.62500000  1
  Mg  Mg1  1  0.16631417  0.83315659  0.62500000  1
  Mg  Mg2  1  0.66389616  0.33341707  0.12500000  1
  Mg  Mg3  1  0.66595820  0.33276418  0.62500000  1
  Mg  Mg4  1  0.66389616  0.83047809  0.12500000  1
  Mg  Mg5  1  0.66595820  0.83319302  0.62500000  1
  Mg  Mg6  1  0.33587241  0.17382642  0.38149796  1
  Mg  Mg7  1  0.33587241  0.17382642  0.86850204  1
  Mg  Mg8  1  0.33587241  0.66204698  0.38149796  1
  Mg  Mg9  1  0.33587241  0.66204698  0.86850204  1
  Mg  Mg10  1  0.83593305  0.16796703  0.37280557  1
  Mg  Mg11  1  0.83593305  0.16796703  0.87719443  1
  Mg  Mg12  1  0.82754199  0.66377149  0.38176631  1
  Mg  Mg13  1  0.82754199  0.66377149  0.86823369  1
  Zr  Zr0  1  0.17360224  0.33680062  0.12500000  1
loop_
_geom_bond_atom_site_label_1
_geom_bond_atom_site_label_2
_geom_bond_distance
_geom_bond_site_symmetry_2
La0 Zr0 3.201813 1_565
La0 Zr0 3.201813 1_555
La0 Mg2 3.291606 1_455
La0 Mg4 3.291606 1_455
La0 Mg9 3.293458 1_554
La0 Mg8 3.293458 1_555
La0 Mg6 3.293464 1_565
La0 Mg7 3.293464 1_564
La0 Mg2 3.299850 1_565
La0 Mg4 3.299851 1_555
La0 Mg12 3.309781 1_455
La0 Mg13 3.309781 1_454
Mg0 Mg6 3.142261 1_555
Mg0 Mg7 3.142261 1_555
Mg0 Mg8 3.142268 1_555
Mg0 Mg9 3.142268 1_555
Mg0 Mg1 3.201334 1_545
Mg0 Mg1 3.201334 1_555
Mg0 Mg10 3.249380 1_455
Mg0 Mg11 3.249380 1_455
Mg0 Mg5 3.295010 1_445
Mg0 Mg3 3.295011 1_455
Mg0 Mg5 3.296425 1_555
Mg0 Mg3 3.296425 1_555
Mg1 Mg9 3.179803 1_555
Mg1 Mg8 3.179803 1_555
Mg1 Mg6 3.179810 1_565
Mg1 Mg7 3.179810 1_565
Mg1 Mg13 3.204411 1_455
Mg1 Mg12 3.204411 1_455
Mg1 Mg3 3.293258 1_565
Mg1 Mg5 3.293258 1_555
Mg1 Mg3 3.298177 1_455
Mg1 Mg5 3.298177 1_455
Mg2 Mg4 3.182516 1_555
Mg2 Mg4 3.220151 1_545
Mg2 Zr0 3.242318 1_555
Mg2 Mg7 3.279435 1_554
Mg2 Mg6 3.279435 1_555
Mg2 Zr0 3.349226 1_655
Mg3 Mg6 3.176658 1_555
Mg3 Mg7 3.176658 1_555
Mg3 Mg5 3.198588 1_545
Mg3 Mg5 3.204079 1_555
Mg4 Zr0 3.242317 1_555
Mg4 Mg9 3.279435 1_554
Mg4 Mg8 3.279435 1_555
Mg4 Zr0 3.349226 1_665
Mg5 Mg8 3.176658 1_555
Mg5 Mg9 3.176658 1_555
Mg6 Mg8 3.125914 1_555
Mg6 Zr0 3.240175 1_555
Mg6 Mg8 3.276753 1_545
Mg7 Mg9 3.125914 1_555
Mg7 Zr0 3.240175 1_556
Mg7 Mg9 3.276753 1_545
Mg8 Zr0 3.240181 1_555
Mg9 Zr0 3.240181 1_556
Mg10 Mg12 3.203067 1_555
Mg10 Mg12 3.203067 1_545
Mg10 Mg2 3.205951 1_555
Mg10 Mg4 3.205958 1_545
Mg10 Mg3 3.234139 1_555
Mg10 Mg5 3.234145 1_545
Mg10 Zr0 3.238602 1_655
Mg10 Mg8 3.278519 1_655
Mg10 Mg6 3.278519 1_655
Mg10 Mg8 3.315744 1_545
Mg10 Mg6 3.315744 1_555
Mg11 Mg13 3.203067 1_555
Mg11 Mg13 3.203067 1_545
Mg11 Mg2 3.205951 1_556
Mg11 Mg4 3.205958 1_546
Mg11 Mg3 3.234139 1_555
Mg11 Mg5 3.234145 1_545
Mg11 Zr0 3.238602 1_656
Mg11 Mg9 3.278519 1_655
Mg11 Mg7 3.278519 1_655
Mg11 Mg9 3.315744 1_545
Mg11 Mg7 3.315744 1_555
Mg12 Mg5 3.145072 1_555
Mg12 Mg3 3.145078 1_555
Mg12 Mg6 3.235461 1_555
Mg12 Mg8 3.235461 1_555
Mg12 Mg4 3.258515 1_555
Mg12 Mg2 3.258521 1_555
Mg12 Mg6 3.356004 1_665
Mg12 Mg8 3.356005 1_655
Mg13 Mg5 3.145072 1_555
Mg13 Mg3 3.145078 1_555
Mg13 Mg7 3.235461 1_555
Mg13 Mg9 3.235461 1_555
Mg13 Mg4 3.258515 1_556
Mg13 Mg2 3.258521 1_556
Mg13 Mg7 3.356004 1_665
Mg13 Mg9 3.356005 1_655
