# generated using pymatgen
data_Cs2MgSi5O12
_symmetry_space_group_name_H-M   'P 1'
_cell_length_a   13.89775200
_cell_length_b   13.91041200
_cell_length_c   13.92318300
_cell_angle_alpha   90.00000000
_cell_angle_beta   90.00000000
_cell_angle_gamma   90.00000000
_symmetry_Int_Tables_number   1
_chemical_formula_structural   Cs2MgSi5O12
_chemical_formula_sum   'Cs16 Mg8 Si40 O96'
_cell_volume   2691.67785878
_cell_formula_units_Z   8
loop_
 _symmetry_equiv_pos_site_id
 _symmetry_equiv_pos_as_xyz
  1  'x, y, z'
loop_
 _atom_site_type_symbol
 _atom_site_label
 _atom_site_symmetry_multiplicity
 _atom_site_fract_x
 _atom_site_fract_y
 _atom_site_fract_z
 _atom_site_occupancy
  Cs  Cs0  1  0.85445100  0.62824500  0.13780000  1
  Cs  Cs1  1  0.14554900  0.12824500  0.36220000  1
  Cs  Cs2  1  0.64554900  0.37175500  0.63780000  1
  Cs  Cs3  1  0.35445100  0.87175500  0.86220000  1
  Cs  Cs4  1  0.14554900  0.37175500  0.86220000  1
  Cs  Cs5  1  0.85445100  0.87175500  0.63780000  1
  Cs  Cs6  1  0.35445100  0.62824500  0.36220000  1
  Cs  Cs7  1  0.64554900  0.12824500  0.13780000  1
  Cs  Cs8  1  0.61135900  0.88357400  0.39557200  1
  Cs  Cs9  1  0.38864100  0.38357400  0.10442800  1
  Cs  Cs10  1  0.88864100  0.11642600  0.89557200  1
  Cs  Cs11  1  0.11135900  0.61642600  0.60442800  1
  Cs  Cs12  1  0.38864100  0.11642600  0.60442800  1
  Cs  Cs13  1  0.61135900  0.61642600  0.89557200  1
  Cs  Cs14  1  0.11135900  0.88357400  0.10442800  1
  Cs  Cs15  1  0.88864100  0.38357400  0.39557200  1
  Mg  Mg0  1  0.06922900  0.87774200  0.83793000  1
  Mg  Mg1  1  0.93077100  0.37774200  0.66207000  1
  Mg  Mg2  1  0.43077100  0.12225800  0.33793000  1
  Mg  Mg3  1  0.56922900  0.62225800  0.16207000  1
  Mg  Mg4  1  0.93077100  0.12225800  0.16207000  1
  Mg  Mg5  1  0.06922900  0.62225800  0.33793000  1
  Mg  Mg6  1  0.56922900  0.87774200  0.66207000  1
  Mg  Mg7  1  0.43077100  0.37774200  0.83793000  1
  Si  Si0  1  0.40018800  0.62649200  0.66681200  1
  Si  Si1  1  0.59981200  0.12649200  0.83318800  1
  Si  Si2  1  0.09981200  0.37350800  0.16681200  1
  Si  Si3  1  0.90018800  0.87350800  0.33318800  1
  Si  Si4  1  0.59981200  0.37350800  0.33318800  1
  Si  Si5  1  0.40018800  0.87350800  0.16681200  1
  Si  Si6  1  0.90018800  0.62649200  0.83318800  1
  Si  Si7  1  0.09981200  0.12649200  0.66681200  1
  Si  Si8  1  0.36154000  0.08821500  0.11819200  1
  Si  Si9  1  0.63846000  0.58821500  0.38180800  1
  Si  Si10  1  0.13846000  0.91178500  0.61819200  1
  Si  Si11  1  0.86154000  0.41178500  0.88180800  1
  Si  Si12  1  0.63846000  0.91178500  0.88180800  1
  Si  Si13  1  0.36154000  0.41178500  0.61819200  1
  Si  Si14  1  0.86154000  0.08821500  0.38180800  1
  Si  Si15  1  0.13846000  0.58821500  0.11819200  1
  Si  Si16  1  0.88947600  0.15493800  0.59605100  1
  Si  Si17  1  0.11052400  0.65493800  0.90394900  1
  Si  Si18  1  0.61052400  0.84506200  0.09605100  1
  Si  Si19  1  0.38947600  0.34506200  0.40394900  1
  Si  Si20  1  0.11052400  0.84506200  0.40394900  1
  Si  Si21  1  0.88947600  0.34506200  0.09605100  1
  Si  Si22  1  0.38947600  0.15493800  0.90394900  1
  Si  Si23  1  0.61052400  0.65493800  0.59605100  1
  Si  Si24  1  0.18072500  0.40895900  0.37163100  1
  Si  Si25  1  0.81927500  0.90895900  0.12836900  1
  Si  Si26  1  0.31927500  0.59104100  0.87163100  1
  Si  Si27  1  0.68072500  0.09104100  0.62836900  1
  Si  Si28  1  0.81927500  0.59104100  0.62836900  1
  Si  Si29  1  0.18072500  0.09104100  0.87163100  1
  Si  Si30  1  0.68072500  0.40895900  0.12836900  1
  Si  Si31  1  0.31927500  0.90895900  0.37163100  1
  Si  Si32  1  0.64887600  0.33171400  0.92001500  1
  Si  Si33  1  0.35112400  0.83171400  0.57998500  1
  Si  Si34  1  0.85112400  0.66828600  0.42001500  1
  Si  Si35  1  0.14887600  0.16828600  0.07998500  1
  Si  Si36  1  0.35112400  0.66828600  0.07998500  1
  Si  Si37  1  0.64887600  0.16828600  0.42001500  1
  Si  Si38  1  0.14887600  0.33171400  0.57998500  1
  Si  Si39  1  0.85112400  0.83171400  0.92001500  1
  O  O0  1  0.84576800  0.96954400  0.37350200  1
  O  O1  1  0.15423200  0.46954400  0.12649800  1
  O  O2  1  0.65423200  0.03045600  0.87350200  1
  O  O3  1  0.34576800  0.53045600  0.62649800  1
  O  O4  1  0.15423200  0.03045600  0.62649800  1
  O  O5  1  0.84576800  0.53045600  0.87350200  1
  O  O6  1  0.34576800  0.96954400  0.12649800  1
  O  O7  1  0.65423200  0.46954400  0.37350200  1
  O  O8  1  0.59383300  0.60636500  0.48965600  1
  O  O9  1  0.40616700  0.10636500  0.01034400  1
  O  O10  1  0.90616700  0.39363500  0.98965600  1
  O  O11  1  0.09383300  0.89363500  0.51034400  1
  O  O12  1  0.40616700  0.39363500  0.51034400  1
  O  O13  1  0.59383300  0.89363500  0.98965600  1
  O  O14  1  0.09383300  0.60636500  0.01034400  1
  O  O15  1  0.90616700  0.10636500  0.48965600  1
  O  O16  1  0.51718900  0.88240500  0.16125000  1
  O  O17  1  0.48281100  0.38240500  0.33875000  1
  O  O18  1  0.98281100  0.11759500  0.66125000  1
  O  O19  1  0.01718900  0.61759500  0.83875000  1
  O  O20  1  0.48281100  0.11759500  0.83875000  1
  O  O21  1  0.51718900  0.61759500  0.66125000  1
  O  O22  1  0.01718900  0.88240500  0.33875000  1
  O  O23  1  0.98281100  0.38240500  0.16125000  1
  O  O24  1  0.37698600  0.23160600  0.40687800  1
  O  O25  1  0.62301400  0.73160600  0.09312200  1
  O  O26  1  0.12301400  0.76839400  0.90687800  1
  O  O27  1  0.87698600  0.26839400  0.59312200  1
  O  O28  1  0.62301400  0.76839400  0.59312200  1
  O  O29  1  0.37698600  0.26839400  0.90687800  1
  O  O30  1  0.87698600  0.23160600  0.09312200  1
  O  O31  1  0.12301400  0.73160600  0.40687800  1
  O  O32  1  0.62707700  0.14520700  0.72039300  1
  O  O33  1  0.37292300  0.64520700  0.77960700  1
  O  O34  1  0.87292300  0.85479300  0.22039300  1
  O  O35  1  0.12707700  0.35479300  0.27960700  1
  O  O36  1  0.37292300  0.85479300  0.27960700  1
  O  O37  1  0.62707700  0.35479300  0.22039300  1
  O  O38  1  0.12707700  0.14520700  0.77960700  1
  O  O39  1  0.87292300  0.64520700  0.72039300  1
  O  O40  1  0.24689900  0.86522400  0.62439100  1
  O  O41  1  0.75310100  0.36522400  0.87560900  1
  O  O42  1  0.25310100  0.13477600  0.12439100  1
  O  O43  1  0.74689900  0.63477600  0.37560900  1
  O  O44  1  0.75310100  0.13477600  0.37560900  1
  O  O45  1  0.24689900  0.63477600  0.12439100  1
  O  O46  1  0.74689900  0.86522400  0.87560900  1
  O  O47  1  0.25310100  0.36522400  0.62439100  1
  O  O48  1  0.35211000  0.48285200  0.88743400  1
  O  O49  1  0.64789000  0.98285200  0.61256600  1
  O  O50  1  0.14789000  0.51714800  0.38743400  1
  O  O51  1  0.85211000  0.01714800  0.11256600  1
  O  O52  1  0.64789000  0.51714800  0.11256600  1
  O  O53  1  0.35211000  0.01714800  0.38743400  1
  O  O54  1  0.85211000  0.48285200  0.61256600  1
  O  O55  1  0.14789000  0.98285200  0.88743400  1
  O  O56  1  0.15346500  0.16363100  0.96148600  1
  O  O57  1  0.84653500  0.66363100  0.53851400  1
  O  O58  1  0.34653500  0.83636900  0.46148600  1
  O  O59  1  0.65346500  0.33636900  0.03851400  1
  O  O60  1  0.84653500  0.83636900  0.03851400  1
  O  O61  1  0.15346500  0.33636900  0.46148600  1
  O  O62  1  0.65346500  0.16363100  0.53851400  1
  O  O63  1  0.34653500  0.66363100  0.96148600  1
  O  O64  1  0.06497900  0.39401900  0.62612800  1
  O  O65  1  0.93502100  0.89401900  0.87387200  1
  O  O66  1  0.43502100  0.60598100  0.12612800  1
  O  O67  1  0.56497900  0.10598100  0.37387200  1
  O  O68  1  0.93502100  0.60598100  0.37387200  1
  O  O69  1  0.06497900  0.10598100  0.12612800  1
  O  O70  1  0.56497900  0.39401900  0.87387200  1
  O  O71  1  0.43502100  0.89401900  0.62612800  1
  O  O72  1  0.85909700  0.71437100  0.89903300  1
  O  O73  1  0.14090300  0.21437100  0.60096700  1
  O  O74  1  0.64090300  0.28562900  0.39903300  1
  O  O75  1  0.35909700  0.78562900  0.10096700  1
  O  O76  1  0.14090300  0.28562900  0.10096700  1
  O  O77  1  0.85909700  0.78562900  0.39903300  1
  O  O78  1  0.35909700  0.71437100  0.60096700  1
  O  O79  1  0.64090300  0.21437100  0.89903300  1
  O  O80  1  0.06983900  0.63128000  0.19869400  1
  O  O81  1  0.93016100  0.13128000  0.30130600  1
  O  O82  1  0.43016100  0.36872000  0.69869400  1
  O  O83  1  0.56983900  0.86872000  0.80130600  1
  O  O84  1  0.93016100  0.36872000  0.80130600  1
  O  O85  1  0.06983900  0.86872000  0.69869400  1
  O  O86  1  0.56983900  0.63128000  0.30130600  1
  O  O87  1  0.43016100  0.13128000  0.19869400  1
  O  O88  1  0.79817700  0.40172900  0.14822300  1
  O  O89  1  0.20182300  0.90172900  0.35177700  1
  O  O90  1  0.70182300  0.59827100  0.64822300  1
  O  O91  1  0.29817700  0.09827100  0.85177700  1
  O  O92  1  0.20182300  0.59827100  0.85177700  1
  O  O93  1  0.79817700  0.09827100  0.64822300  1
  O  O94  1  0.29817700  0.40172900  0.35177700  1
  O  O95  1  0.70182300  0.90172900  0.14822300  1
loop_
_geom_bond_atom_site_label_1
_geom_bond_atom_site_label_2
_geom_bond_distance
_geom_bond_site_symmetry_2
Cs0 O80 3.111448 1_655
Cs0 O60 3.210081 1_555
Cs0 O88 3.249781 1_555
Cs0 O52 3.279150 1_555
Cs0 O34 3.364443 1_555
Cs0 O68 3.486155 1_555
Cs0 O72 3.534275 1_554
Cs0 O25 3.577679 1_555
Cs0 O43 3.633948 1_555
Cs1 O81 3.111448 1_455
Cs1 O61 3.210081 1_555
Cs1 O89 3.249781 1_545
Cs1 O53 3.279150 1_555
Cs1 O35 3.364443 1_555
Cs1 O69 3.486155 1_555
Cs1 O73 3.534275 1_555
Cs1 O24 3.577679 1_555
Cs1 O42 3.633948 1_555
Cs2 O82 3.111448 1_555
Cs2 O62 3.210081 1_555
Cs2 O90 3.249781 1_555
Cs2 O54 3.279150 1_555
Cs2 O32 3.364443 1_555
Cs2 O70 3.486155 1_555
Cs2 O74 3.534275 1_555
Cs2 O27 3.577679 1_555
Cs2 O41 3.633948 1_555
Cs3 O83 3.111448 1_555
Cs3 O63 3.210081 1_555
Cs3 O91 3.249781 1_565
Cs3 O55 3.279150 1_555
Cs3 O33 3.364443 1_555
Cs3 O71 3.486155 1_555
Cs3 O75 3.534275 1_556
Cs3 O26 3.577679 1_555
Cs3 O40 3.633948 1_555
Cs4 O84 3.111448 1_455
Cs4 O56 3.210081 1_555
Cs4 O92 3.249781 1_555
Cs4 O48 3.279150 1_555
Cs4 O38 3.364443 1_555
Cs4 O64 3.486155 1_555
Cs4 O76 3.534275 1_556
Cs4 O29 3.577679 1_555
Cs4 O47 3.633948 1_555
Cs5 O85 3.111448 1_655
Cs5 O57 3.210081 1_555
Cs5 O93 3.249781 1_565
Cs5 O49 3.279150 1_555
Cs5 O39 3.364443 1_555
Cs5 O65 3.486155 1_555
Cs5 O77 3.534275 1_555
Cs5 O28 3.577679 1_555
Cs5 O46 3.633948 1_555
Cs6 O86 3.111448 1_555
Cs6 O58 3.210081 1_555
Cs6 O94 3.249781 1_555
Cs6 O50 3.279150 1_555
Cs6 O36 3.364443 1_555
Cs6 O66 3.486155 1_555
Cs6 O78 3.534275 1_555
Cs6 O31 3.577679 1_555
Cs6 O45 3.633948 1_555
Cs7 O87 3.111448 1_555
Cs7 O59 3.210081 1_555
Cs7 O95 3.249781 1_545
Cs7 O51 3.279150 1_555
Cs7 O37 3.364443 1_555
Cs7 O67 3.486155 1_555
Cs7 O79 3.534275 1_554
Cs7 O30 3.577679 1_555
Cs7 O44 3.633948 1_555
Cs8 O67 3.174617 1_565
Cs8 O28 3.187267 1_555
Cs8 O49 3.360483 1_555
Cs8 O0 3.483897 1_555
Cs8 O16 3.515260 1_555
Cs8 O95 3.674887 1_555
Cs8 O77 3.703088 1_555
Cs8 O36 3.707829 1_555
Cs8 O86 3.791077 1_555
Cs9 O66 3.174617 1_555
Cs9 O29 3.187267 1_554
Cs9 O48 3.360483 1_554
Cs9 O1 3.483897 1_555
Cs9 O17 3.515260 1_555
Cs9 O94 3.674887 1_555
Cs9 O76 3.703088 1_555
Cs9 O37 3.707829 1_555
Cs9 O87 3.791077 1_555
Cs10 O65 3.174617 1_545
Cs10 O30 3.187267 1_556
Cs10 O51 3.360483 1_556
Cs10 O2 3.483897 1_555
Cs10 O18 3.515260 1_555
Cs10 O93 3.674887 1_555
Cs10 O79 3.703088 1_555
Cs10 O38 3.707829 1_655
Cs10 O84 3.791077 1_555
Cs11 O64 3.174617 1_555
Cs11 O31 3.187267 1_555
Cs11 O50 3.360483 1_555
Cs11 O3 3.483897 1_555
Cs11 O19 3.515260 1_555
Cs11 O92 3.674887 1_555
Cs11 O78 3.703088 1_555
Cs11 O39 3.707829 1_455
Cs11 O85 3.791077 1_555
Cs12 O71 3.174617 1_545
Cs12 O24 3.187267 1_555
Cs12 O53 3.360483 1_555
Cs12 O4 3.483897 1_555
Cs12 O20 3.515260 1_555
Cs12 O91 3.674887 1_555
Cs12 O73 3.703088 1_555
Cs12 O32 3.707829 1_555
Cs12 O82 3.791077 1_555
Cs13 O70 3.174617 1_555
Cs13 O25 3.187267 1_556
Cs13 O52 3.360483 1_556
Cs13 O5 3.483897 1_555
Cs13 O21 3.515260 1_555
Cs13 O90 3.674887 1_555
Cs13 O72 3.703088 1_555
Cs13 O33 3.707829 1_555
Cs13 O83 3.791077 1_555
Cs14 O69 3.174617 1_565
Cs14 O26 3.187267 1_554
Cs14 O55 3.360483 1_554
Cs14 O6 3.483897 1_555
Cs14 O22 3.515260 1_555
Cs14 O89 3.674887 1_555
Cs14 O75 3.703088 1_555
Cs14 O34 3.707829 1_455
Cs14 O80 3.791077 1_555
Cs15 O68 3.174617 1_555
Cs15 O27 3.187267 1_555
Cs15 O54 3.360483 1_555
Cs15 O7 3.483897 1_555
Cs15 O23 3.515260 1_555
Cs15 O88 3.674887 1_555
Cs15 O74 3.703088 1_555
Cs15 O35 3.707829 1_655
Cs15 O81 3.791077 1_555
Mg0 O85 1.942685 1_555
Mg0 O65 1.944383 1_455
Mg0 O26 1.947811 1_555
Mg0 O55 1.951406 1_555
Mg1 O84 1.942685 1_555
Mg1 O64 1.944383 1_655
Mg1 O27 1.947811 1_555
Mg1 O54 1.951406 1_555
Mg2 O87 1.942685 1_555
Mg2 O67 1.944383 1_555
Mg2 O24 1.947811 1_555
Mg2 O53 1.951406 1_555
Mg3 O86 1.942685 1_555
Mg3 O66 1.944383 1_555
Mg3 O25 1.947811 1_555
Mg3 O52 1.951406 1_555
Mg4 O81 1.942685 1_555
Mg4 O69 1.944383 1_655
Mg4 O30 1.947811 1_555
Mg4 O51 1.951406 1_555
Mg5 O80 1.942685 1_555
Mg5 O68 1.944383 1_455
Mg5 O31 1.947811 1_555
Mg5 O50 1.951406 1_555
Mg6 O83 1.942685 1_555
Mg6 O71 1.944383 1_555
Mg6 O28 1.947811 1_555
Mg6 O49 1.951406 1_555
Mg7 O82 1.942685 1_555
Mg7 O70 1.944383 1_555
Mg7 O29 1.947811 1_555
Mg7 O48 1.951406 1_555
O0 Si3 1.634534 1_555
O0 Si14 1.669263 1_565
O1 Si2 1.634534 1_555
O1 Si15 1.669263 1_555
O2 Si1 1.634534 1_555
O2 Si12 1.669263 1_545
O3 Si0 1.634534 1_555
O3 Si13 1.669263 1_555
O4 Si7 1.634534 1_555
O4 Si10 1.669263 1_545
O5 Si6 1.634534 1_555
O5 Si11 1.669263 1_555
O6 Si5 1.634534 1_555
O6 Si8 1.669263 1_565
O7 Si4 1.634534 1_555
O7 Si9 1.669263 1_555
O8 Si9 1.644133 1_555
O8 Si23 1.644615 1_555
O9 Si8 1.644133 1_555
O9 Si22 1.644615 1_554
O10 Si11 1.644133 1_555
O10 Si21 1.644615 1_556
O11 Si10 1.644133 1_555
O11 Si20 1.644615 1_555
O12 Si13 1.644133 1_555
O12 Si19 1.644615 1_555
O13 Si12 1.644133 1_555
O13 Si18 1.644615 1_556
O14 Si15 1.644133 1_555
O14 Si17 1.644615 1_554
O15 Si14 1.644133 1_555
O15 Si16 1.644615 1_555
O16 Si5 1.632592 1_555
O16 Si18 1.666279 1_555
O17 Si4 1.632592 1_555
O17 Si19 1.666279 1_555
O18 Si7 1.632592 1_655
O18 Si16 1.666279 1_555
O19 Si6 1.632592 1_455
O19 Si17 1.666279 1_555
O20 Si1 1.632592 1_555
O20 Si22 1.666279 1_555
O21 Si0 1.632592 1_555
O21 Si23 1.666279 1_555
O22 Si3 1.632592 1_455
O22 Si20 1.666279 1_555
O23 Si2 1.632592 1_655
O23 Si21 1.666279 1_555
O24 Si19 1.588261 1_555
O25 Si18 1.588261 1_555
O26 Si17 1.588261 1_555
O27 Si16 1.588261 1_555
O28 Si23 1.588261 1_555
O29 Si22 1.588261 1_555
O30 Si21 1.588261 1_555
O31 Si20 1.588261 1_555
O32 Si1 1.636373 1_555
O32 Si27 1.662908 1_555
O33 Si0 1.636373 1_555
O33 Si26 1.662908 1_555
O34 Si3 1.636373 1_555
O34 Si25 1.662908 1_555
O35 Si2 1.636373 1_555
O35 Si24 1.662908 1_555
O36 Si5 1.636373 1_555
O36 Si31 1.662908 1_555
O37 Si4 1.636373 1_555
O37 Si30 1.662908 1_555
O38 Si7 1.636373 1_555
O38 Si29 1.662908 1_555
O39 Si6 1.636373 1_555
O39 Si28 1.662908 1_555
O40 Si33 1.642461 1_555
O40 Si10 1.642610 1_555
O41 Si32 1.642461 1_555
O41 Si11 1.642610 1_555
O42 Si35 1.642461 1_555
O42 Si8 1.642610 1_555
O43 Si34 1.642461 1_555
O43 Si9 1.642610 1_555
O44 Si37 1.642461 1_555
O44 Si14 1.642610 1_555
O45 Si36 1.642461 1_555
O45 Si15 1.642610 1_555
O46 Si39 1.642461 1_555
O46 Si12 1.642610 1_555
O47 Si38 1.642461 1_555
O47 Si13 1.642610 1_555
O48 Si26 1.587935 1_555
O49 Si27 1.587935 1_565
O50 Si24 1.587935 1_555
O51 Si25 1.587935 1_545
O52 Si30 1.587935 1_555
O53 Si31 1.587935 1_545
O54 Si28 1.587935 1_555
O55 Si29 1.587935 1_565
O56 Si29 1.651759 1_555
O56 Si35 1.652385 1_556
O57 Si28 1.651759 1_555
O57 Si34 1.652385 1_555
O58 Si31 1.651759 1_555
O58 Si33 1.652385 1_555
O59 Si30 1.651759 1_555
O59 Si32 1.652385 1_554
O60 Si25 1.651759 1_555
O60 Si39 1.652385 1_554
O61 Si24 1.651759 1_555
O61 Si38 1.652385 1_555
O62 Si27 1.651759 1_555
O62 Si37 1.652385 1_555
O63 Si26 1.651759 1_555
O63 Si36 1.652385 1_556
O64 Si38 1.588524 1_555
O65 Si39 1.588524 1_555
O66 Si36 1.588524 1_555
O67 Si37 1.588524 1_555
O68 Si34 1.588524 1_555
O69 Si35 1.588524 1_555
O70 Si32 1.588524 1_555
O71 Si33 1.588524 1_555
O72 Si6 1.631238 1_555
O72 Si39 1.661924 1_555
O73 Si7 1.631238 1_555
O73 Si38 1.661924 1_555
O74 Si4 1.631238 1_555
O74 Si37 1.661924 1_555
O75 Si5 1.631238 1_555
O75 Si36 1.661924 1_555
O76 Si2 1.631238 1_555
O76 Si35 1.661924 1_555
O77 Si3 1.631238 1_555
O77 Si34 1.661924 1_555
O78 Si0 1.631238 1_555
O78 Si33 1.661924 1_555
O79 Si1 1.631238 1_555
O79 Si32 1.661924 1_555
O80 Si15 1.588917 1_555
O81 Si14 1.588917 1_555
O82 Si13 1.588917 1_555
O83 Si12 1.588917 1_555
O84 Si11 1.588917 1_555
O85 Si10 1.588917 1_555
O86 Si9 1.588917 1_555
O87 Si8 1.588917 1_555
O88 Si30 1.658612 1_555
O88 Si21 1.661023 1_555
O89 Si31 1.658612 1_555
O89 Si20 1.661023 1_555
O90 Si28 1.658612 1_555
O90 Si23 1.661023 1_555
O91 Si29 1.658612 1_555
O91 Si22 1.661023 1_555
O92 Si26 1.658612 1_555
O92 Si17 1.661023 1_555
O93 Si27 1.658612 1_555
O93 Si16 1.661023 1_555
O94 Si24 1.658612 1_555
O94 Si19 1.661023 1_555
O95 Si25 1.658612 1_555
O95 Si18 1.661023 1_555
