# generated using pymatgen
data_Ce11In9Ni4
_symmetry_space_group_name_H-M   'P 1'
_cell_length_a   26.04096326
_cell_length_b   26.04096326
_cell_length_c   7.39206400
_cell_angle_alpha   90.00000000
_cell_angle_beta   90.00000000
_cell_angle_gamma   112.24577834
_symmetry_Int_Tables_number   1
_chemical_formula_structural   Ce11In9Ni4
_chemical_formula_sum   'Ce88 In72 Ni32'
_cell_volume   4639.68319704
_cell_formula_units_Z   8
loop_
 _symmetry_equiv_pos_site_id
 _symmetry_equiv_pos_as_xyz
  1  'x, y, z'
loop_
 _atom_site_type_symbol
 _atom_site_label
 _atom_site_symmetry_multiplicity
 _atom_site_fract_x
 _atom_site_fract_y
 _atom_site_fract_z
 _atom_site_occupancy
  Ce  Ce0_0  1  0.20790850  0.03527250  0.00000000  1
  Ce  Ce0_1  1  0.20790850  0.03527250  0.50000000  1
  Ce  Ce0_2  1  0.20790850  0.53527250  0.00000000  1
  Ce  Ce0_3  1  0.20790850  0.53527250  0.50000000  1
  Ce  Ce0_4  1  0.70790850  0.03527250  0.00000000  1
  Ce  Ce0_5  1  0.70790850  0.03527250  0.50000000  1
  Ce  Ce0_6  1  0.70790850  0.53527250  0.00000000  1
  Ce  Ce0_7  1  0.70790850  0.53527250  0.50000000  1
  Ce  Ce1_0  1  0.29209150  0.46472750  0.00000000  1
  Ce  Ce1_1  1  0.29209150  0.46472750  0.50000000  1
  Ce  Ce1_2  1  0.29209150  0.96472750  0.00000000  1
  Ce  Ce1_3  1  0.29209150  0.96472750  0.50000000  1
  Ce  Ce1_4  1  0.79209150  0.46472750  0.00000000  1
  Ce  Ce1_5  1  0.79209150  0.46472750  0.50000000  1
  Ce  Ce1_6  1  0.79209150  0.96472750  0.00000000  1
  Ce  Ce1_7  1  0.79209150  0.96472750  0.50000000  1
  Ce  Ce2_0  1  0.03527250  0.20790850  0.00000000  1
  Ce  Ce2_1  1  0.03527250  0.20790850  0.50000000  1
  Ce  Ce2_2  1  0.03527250  0.70790850  0.00000000  1
  Ce  Ce2_3  1  0.03527250  0.70790850  0.50000000  1
  Ce  Ce2_4  1  0.53527250  0.20790850  0.00000000  1
  Ce  Ce2_5  1  0.53527250  0.20790850  0.50000000  1
  Ce  Ce2_6  1  0.53527250  0.70790850  0.00000000  1
  Ce  Ce2_7  1  0.53527250  0.70790850  0.50000000  1
  Ce  Ce3_0  1  0.46472750  0.29209150  0.00000000  1
  Ce  Ce3_1  1  0.46472750  0.29209150  0.50000000  1
  Ce  Ce3_2  1  0.46472750  0.79209150  0.00000000  1
  Ce  Ce3_3  1  0.46472750  0.79209150  0.50000000  1
  Ce  Ce3_4  1  0.96472750  0.29209150  0.00000000  1
  Ce  Ce3_5  1  0.96472750  0.29209150  0.50000000  1
  Ce  Ce3_6  1  0.96472750  0.79209150  0.00000000  1
  Ce  Ce3_7  1  0.96472750  0.79209150  0.50000000  1
  Ce  Ce4_0  1  0.07818200  0.42181800  0.00000000  1
  Ce  Ce4_1  1  0.07818200  0.42181800  0.50000000  1
  Ce  Ce4_2  1  0.07818200  0.92181800  0.00000000  1
  Ce  Ce4_3  1  0.07818200  0.92181800  0.50000000  1
  Ce  Ce4_4  1  0.57818200  0.42181800  0.00000000  1
  Ce  Ce4_5  1  0.57818200  0.42181800  0.50000000  1
  Ce  Ce4_6  1  0.57818200  0.92181800  0.00000000  1
  Ce  Ce4_7  1  0.57818200  0.92181800  0.50000000  1
  Ce  Ce5_0  1  0.42181800  0.07818200  0.00000000  1
  Ce  Ce5_1  1  0.42181800  0.07818200  0.50000000  1
  Ce  Ce5_2  1  0.42181800  0.57818200  0.00000000  1
  Ce  Ce5_3  1  0.42181800  0.57818200  0.50000000  1
  Ce  Ce5_4  1  0.92181800  0.07818200  0.00000000  1
  Ce  Ce5_5  1  0.92181800  0.07818200  0.50000000  1
  Ce  Ce5_6  1  0.92181800  0.57818200  0.00000000  1
  Ce  Ce5_7  1  0.92181800  0.57818200  0.50000000  1
  Ce  Ce6_0  1  0.18774850  0.31225150  0.00000000  1
  Ce  Ce6_1  1  0.18774850  0.31225150  0.50000000  1
  Ce  Ce6_2  1  0.18774850  0.81225150  0.00000000  1
  Ce  Ce6_3  1  0.18774850  0.81225150  0.50000000  1
  Ce  Ce6_4  1  0.68774850  0.31225150  0.00000000  1
  Ce  Ce6_5  1  0.68774850  0.31225150  0.50000000  1
  Ce  Ce6_6  1  0.68774850  0.81225150  0.00000000  1
  Ce  Ce6_7  1  0.68774850  0.81225150  0.50000000  1
  Ce  Ce7_0  1  0.31225150  0.18774850  0.00000000  1
  Ce  Ce7_1  1  0.31225150  0.18774850  0.50000000  1
  Ce  Ce7_2  1  0.31225150  0.68774850  0.00000000  1
  Ce  Ce7_3  1  0.31225150  0.68774850  0.50000000  1
  Ce  Ce7_4  1  0.81225150  0.18774850  0.00000000  1
  Ce  Ce7_5  1  0.81225150  0.18774850  0.50000000  1
  Ce  Ce7_6  1  0.81225150  0.68774850  0.00000000  1
  Ce  Ce7_7  1  0.81225150  0.68774850  0.50000000  1
  Ce  Ce8_0  1  0.15656850  0.15656850  0.00000000  1
  Ce  Ce8_1  1  0.15656850  0.15656850  0.50000000  1
  Ce  Ce8_2  1  0.15656850  0.65656850  0.00000000  1
  Ce  Ce8_3  1  0.15656850  0.65656850  0.50000000  1
  Ce  Ce8_4  1  0.65656850  0.15656850  0.00000000  1
  Ce  Ce8_5  1  0.65656850  0.15656850  0.50000000  1
  Ce  Ce8_6  1  0.65656850  0.65656850  0.00000000  1
  Ce  Ce8_7  1  0.65656850  0.65656850  0.50000000  1
  Ce  Ce9_0  1  0.34343150  0.34343150  0.00000000  1
  Ce  Ce9_1  1  0.34343150  0.34343150  0.50000000  1
  Ce  Ce9_2  1  0.34343150  0.84343150  0.00000000  1
  Ce  Ce9_3  1  0.34343150  0.84343150  0.50000000  1
  Ce  Ce9_4  1  0.84343150  0.34343150  0.00000000  1
  Ce  Ce9_5  1  0.84343150  0.34343150  0.50000000  1
  Ce  Ce9_6  1  0.84343150  0.84343150  0.00000000  1
  Ce  Ce9_7  1  0.84343150  0.84343150  0.50000000  1
  Ce  Ce10_0  1  0.00000000  0.00000000  0.00000000  1
  Ce  Ce10_1  1  0.00000000  0.00000000  0.50000000  1
  Ce  Ce10_2  1  0.00000000  0.50000000  0.00000000  1
  Ce  Ce10_3  1  0.00000000  0.50000000  0.50000000  1
  Ce  Ce10_4  1  0.50000000  0.00000000  0.00000000  1
  Ce  Ce10_5  1  0.50000000  0.00000000  0.50000000  1
  Ce  Ce10_6  1  0.50000000  0.50000000  0.00000000  1
  Ce  Ce10_7  1  0.50000000  0.50000000  0.50000000  1
  In  In0_0  1  0.18411000  0.41881400  0.25000000  1
  In  In0_1  1  0.18411000  0.41881400  0.75000000  1
  In  In0_2  1  0.18411000  0.91881400  0.25000000  1
  In  In0_3  1  0.18411000  0.91881400  0.75000000  1
  In  In0_4  1  0.68411000  0.41881400  0.25000000  1
  In  In0_5  1  0.68411000  0.41881400  0.75000000  1
  In  In0_6  1  0.68411000  0.91881400  0.25000000  1
  In  In0_7  1  0.68411000  0.91881400  0.75000000  1
  In  In1_0  1  0.31589000  0.08118600  0.25000000  1
  In  In1_1  1  0.31589000  0.08118600  0.75000000  1
  In  In1_2  1  0.31589000  0.58118600  0.25000000  1
  In  In1_3  1  0.31589000  0.58118600  0.75000000  1
  In  In1_4  1  0.81589000  0.08118600  0.25000000  1
  In  In1_5  1  0.81589000  0.08118600  0.75000000  1
  In  In1_6  1  0.81589000  0.58118600  0.25000000  1
  In  In1_7  1  0.81589000  0.58118600  0.75000000  1
  In  In2_0  1  0.41881400  0.18411000  0.25000000  1
  In  In2_1  1  0.41881400  0.18411000  0.75000000  1
  In  In2_2  1  0.41881400  0.68411000  0.25000000  1
  In  In2_3  1  0.41881400  0.68411000  0.75000000  1
  In  In2_4  1  0.91881400  0.18411000  0.25000000  1
  In  In2_5  1  0.91881400  0.18411000  0.75000000  1
  In  In2_6  1  0.91881400  0.68411000  0.25000000  1
  In  In2_7  1  0.91881400  0.68411000  0.75000000  1
  In  In3_0  1  0.08118600  0.31589000  0.25000000  1
  In  In3_1  1  0.08118600  0.31589000  0.75000000  1
  In  In3_2  1  0.08118600  0.81589000  0.25000000  1
  In  In3_3  1  0.08118600  0.81589000  0.75000000  1
  In  In3_4  1  0.58118600  0.31589000  0.25000000  1
  In  In3_5  1  0.58118600  0.31589000  0.75000000  1
  In  In3_6  1  0.58118600  0.81589000  0.25000000  1
  In  In3_7  1  0.58118600  0.81589000  0.75000000  1
  In  In4_0  1  0.11073400  0.04075000  0.25000000  1
  In  In4_1  1  0.11073400  0.04075000  0.75000000  1
  In  In4_2  1  0.11073400  0.54075000  0.25000000  1
  In  In4_3  1  0.11073400  0.54075000  0.75000000  1
  In  In4_4  1  0.61073400  0.04075000  0.25000000  1
  In  In4_5  1  0.61073400  0.04075000  0.75000000  1
  In  In4_6  1  0.61073400  0.54075000  0.25000000  1
  In  In4_7  1  0.61073400  0.54075000  0.75000000  1
  In  In5_0  1  0.38926600  0.45925000  0.25000000  1
  In  In5_1  1  0.38926600  0.45925000  0.75000000  1
  In  In5_2  1  0.38926600  0.95925000  0.25000000  1
  In  In5_3  1  0.38926600  0.95925000  0.75000000  1
  In  In5_4  1  0.88926600  0.45925000  0.25000000  1
  In  In5_5  1  0.88926600  0.45925000  0.75000000  1
  In  In5_6  1  0.88926600  0.95925000  0.25000000  1
  In  In5_7  1  0.88926600  0.95925000  0.75000000  1
  In  In6_0  1  0.04075000  0.11073400  0.25000000  1
  In  In6_1  1  0.04075000  0.11073400  0.75000000  1
  In  In6_2  1  0.04075000  0.61073400  0.25000000  1
  In  In6_3  1  0.04075000  0.61073400  0.75000000  1
  In  In6_4  1  0.54075000  0.11073400  0.25000000  1
  In  In6_5  1  0.54075000  0.11073400  0.75000000  1
  In  In6_6  1  0.54075000  0.61073400  0.25000000  1
  In  In6_7  1  0.54075000  0.61073400  0.75000000  1
  In  In7_0  1  0.45925000  0.38926600  0.25000000  1
  In  In7_1  1  0.45925000  0.38926600  0.75000000  1
  In  In7_2  1  0.45925000  0.88926600  0.25000000  1
  In  In7_3  1  0.45925000  0.88926600  0.75000000  1
  In  In7_4  1  0.95925000  0.38926600  0.25000000  1
  In  In7_5  1  0.95925000  0.38926600  0.75000000  1
  In  In7_6  1  0.95925000  0.88926600  0.25000000  1
  In  In7_7  1  0.95925000  0.88926600  0.75000000  1
  In  In8_0  1  0.25000000  0.25000000  0.25000000  1
  In  In8_1  1  0.25000000  0.25000000  0.75000000  1
  In  In8_2  1  0.25000000  0.75000000  0.25000000  1
  In  In8_3  1  0.25000000  0.75000000  0.75000000  1
  In  In8_4  1  0.75000000  0.25000000  0.25000000  1
  In  In8_5  1  0.75000000  0.25000000  0.75000000  1
  In  In8_6  1  0.75000000  0.75000000  0.25000000  1
  In  In8_7  1  0.75000000  0.75000000  0.75000000  1
  Ni  Ni0_0  1  0.22546900  0.12594750  0.25000000  1
  Ni  Ni0_1  1  0.22546900  0.12594750  0.75000000  1
  Ni  Ni0_2  1  0.22546900  0.62594750  0.25000000  1
  Ni  Ni0_3  1  0.22546900  0.62594750  0.75000000  1
  Ni  Ni0_4  1  0.72546900  0.12594750  0.25000000  1
  Ni  Ni0_5  1  0.72546900  0.12594750  0.75000000  1
  Ni  Ni0_6  1  0.72546900  0.62594750  0.25000000  1
  Ni  Ni0_7  1  0.72546900  0.62594750  0.75000000  1
  Ni  Ni1_0  1  0.27453100  0.37405250  0.25000000  1
  Ni  Ni1_1  1  0.27453100  0.37405250  0.75000000  1
  Ni  Ni1_2  1  0.27453100  0.87405250  0.25000000  1
  Ni  Ni1_3  1  0.27453100  0.87405250  0.75000000  1
  Ni  Ni1_4  1  0.77453100  0.37405250  0.25000000  1
  Ni  Ni1_5  1  0.77453100  0.37405250  0.75000000  1
  Ni  Ni1_6  1  0.77453100  0.87405250  0.25000000  1
  Ni  Ni1_7  1  0.77453100  0.87405250  0.75000000  1
  Ni  Ni2_0  1  0.12594750  0.22546900  0.25000000  1
  Ni  Ni2_1  1  0.12594750  0.22546900  0.75000000  1
  Ni  Ni2_2  1  0.12594750  0.72546900  0.25000000  1
  Ni  Ni2_3  1  0.12594750  0.72546900  0.75000000  1
  Ni  Ni2_4  1  0.62594750  0.22546900  0.25000000  1
  Ni  Ni2_5  1  0.62594750  0.22546900  0.75000000  1
  Ni  Ni2_6  1  0.62594750  0.72546900  0.25000000  1
  Ni  Ni2_7  1  0.62594750  0.72546900  0.75000000  1
  Ni  Ni3_0  1  0.37405250  0.27453100  0.25000000  1
  Ni  Ni3_1  1  0.37405250  0.27453100  0.75000000  1
  Ni  Ni3_2  1  0.37405250  0.77453100  0.25000000  1
  Ni  Ni3_3  1  0.37405250  0.77453100  0.75000000  1
  Ni  Ni3_4  1  0.87405250  0.27453100  0.25000000  1
  Ni  Ni3_5  1  0.87405250  0.27453100  0.75000000  1
  Ni  Ni3_6  1  0.87405250  0.77453100  0.25000000  1
  Ni  Ni3_7  1  0.87405250  0.77453100  0.75000000  1
loop_
_geom_bond_atom_site_label_1
_geom_bond_atom_site_label_2
_geom_bond_distance
_geom_bond_site_symmetry_2
Ce0_0 Ni0_0 2.895216 1_555
Ce0_0 Ni0_1 2.895216 1_554
Ce0_0 In4_1 3.179988 1_554
Ce0_0 In4_0 3.179988 1_555
Ce0_0 In1_1 3.194700 1_554
Ce0_0 In1_0 3.194700 1_555
Ce0_0 Ce1_2 3.351090 1_545
Ce0_0 In0_3 3.401969 1_544
Ce0_0 In0_2 3.401969 1_545
Ce0_0 Ce4_2 3.547402 1_545
Ce0_1 Ni0_0 2.895216 1_555
Ce0_1 Ni0_1 2.895216 1_555
Ce0_1 In4_1 3.179988 1_555
Ce0_1 In4_0 3.179988 1_555
Ce0_1 In1_0 3.194700 1_555
Ce0_1 In1_1 3.194700 1_555
Ce0_1 Ce1_3 3.351090 1_545
Ce0_1 In0_3 3.401969 1_545
Ce0_1 In0_2 3.401969 1_545
Ce0_1 Ce4_3 3.547402 1_545
Ce0_2 Ni0_3 2.895216 1_554
Ce0_2 Ni0_2 2.895216 1_555
Ce0_2 In4_2 3.179988 1_555
Ce0_2 In4_3 3.179988 1_554
Ce0_2 In1_2 3.194700 1_555
Ce0_2 In1_3 3.194700 1_554
Ce0_2 Ce1_0 3.351090 1_555
Ce0_2 In0_0 3.401969 1_555
Ce0_2 In0_1 3.401969 1_554
Ce0_2 Ce4_0 3.547402 1_555
Ce0_3 Ni0_3 2.895216 1_555
Ce0_3 Ni0_2 2.895216 1_555
Ce0_3 In4_2 3.179988 1_555
Ce0_3 In4_3 3.179988 1_555
Ce0_3 In1_2 3.194700 1_555
Ce0_3 In1_3 3.194700 1_555
Ce0_3 Ce1_1 3.351090 1_555
Ce0_3 In0_0 3.401969 1_555
Ce0_3 In0_1 3.401969 1_555
Ce0_3 Ce4_1 3.547402 1_555
Ce0_4 Ni0_4 2.895216 1_555
Ce0_4 Ni0_5 2.895216 1_554
Ce0_4 In4_5 3.179988 1_554
Ce0_4 In4_4 3.179988 1_555
Ce0_4 In1_5 3.194700 1_554
Ce0_4 In1_4 3.194700 1_555
Ce0_4 Ce1_6 3.351090 1_545
Ce0_4 In0_7 3.401969 1_544
Ce0_4 In0_6 3.401969 1_545
Ce0_4 Ce4_6 3.547402 1_545
Ce0_5 Ni0_4 2.895216 1_555
Ce0_5 Ni0_5 2.895216 1_555
Ce0_5 In4_4 3.179988 1_555
Ce0_5 In4_5 3.179988 1_555
Ce0_5 In1_5 3.194700 1_555
Ce0_5 In1_4 3.194700 1_555
Ce0_5 Ce1_7 3.351090 1_545
Ce0_5 In0_6 3.401969 1_545
Ce0_5 In0_7 3.401969 1_545
Ce0_5 Ce4_7 3.547402 1_545
Ce0_6 Ni0_6 2.895216 1_555
Ce0_6 Ni0_7 2.895216 1_554
Ce0_6 In4_6 3.179988 1_555
Ce0_6 In4_7 3.179988 1_554
Ce0_6 In1_7 3.194700 1_554
Ce0_6 In1_6 3.194700 1_555
Ce0_6 Ce1_4 3.351090 1_555
Ce0_6 In0_4 3.401969 1_555
Ce0_6 In0_5 3.401969 1_554
Ce0_6 Ce4_4 3.547402 1_555
Ce0_7 Ni0_6 2.895216 1_555
Ce0_7 Ni0_7 2.895216 1_555
Ce0_7 In4_6 3.179988 1_555
Ce0_7 In4_7 3.179988 1_555
Ce0_7 In1_7 3.194700 1_555
Ce0_7 In1_6 3.194700 1_555
Ce0_7 Ce1_5 3.351090 1_555
Ce0_7 In0_4 3.401969 1_555
Ce0_7 In0_5 3.401969 1_555
Ce0_7 Ce4_5 3.547402 1_555
Ce1_0 Ni1_0 2.895216 1_555
Ce1_0 Ni1_1 2.895216 1_554
Ce1_0 In5_0 3.179988 1_555
Ce1_0 In5_1 3.179988 1_554
Ce1_0 In0_0 3.194700 1_555
Ce1_0 In0_1 3.194700 1_554
Ce1_0 In1_3 3.401969 1_554
Ce1_0 In1_2 3.401969 1_555
Ce1_0 Ce5_2 3.547402 1_555
Ce1_1 Ni1_1 2.895216 1_555
Ce1_1 Ni1_0 2.895216 1_555
Ce1_1 In5_0 3.179988 1_555
Ce1_1 In5_1 3.179988 1_555
Ce1_1 In0_0 3.194700 1_555
Ce1_1 In0_1 3.194700 1_555
Ce1_1 In1_2 3.401969 1_555
Ce1_1 In1_3 3.401969 1_555
Ce1_1 Ce5_3 3.547402 1_555
Ce1_2 Ni1_3 2.895216 1_554
Ce1_2 Ni1_2 2.895216 1_555
Ce1_2 In5_2 3.179988 1_555
Ce1_2 In5_3 3.179988 1_554
Ce1_2 In0_3 3.194700 1_554
Ce1_2 In0_2 3.194700 1_555
Ce1_2 In1_0 3.401969 1_565
Ce1_2 In1_1 3.401969 1_564
Ce1_2 Ce5_0 3.547402 1_565
Ce1_3 Ni1_3 2.895216 1_555
Ce1_3 Ni1_2 2.895216 1_555
Ce1_3 In5_2 3.179988 1_555
Ce1_3 In5_3 3.179988 1_555
Ce1_3 In0_3 3.194700 1_555
Ce1_3 In0_2 3.194700 1_555
Ce1_3 In1_0 3.401969 1_565
Ce1_3 In1_1 3.401969 1_565
Ce1_3 Ce5_1 3.547402 1_565
Ce1_4 Ni1_4 2.895216 1_555
Ce1_4 Ni1_5 2.895216 1_554
Ce1_4 In5_4 3.179988 1_555
Ce1_4 In5_5 3.179988 1_554
Ce1_4 In0_4 3.194700 1_555
Ce1_4 In0_5 3.194700 1_554
Ce1_4 In1_6 3.401969 1_555
Ce1_4 In1_7 3.401969 1_554
Ce1_4 Ce5_6 3.547402 1_555
Ce1_5 Ni1_4 2.895216 1_555
Ce1_5 Ni1_5 2.895216 1_555
Ce1_5 In5_5 3.179988 1_555
Ce1_5 In5_4 3.179988 1_555
Ce1_5 In0_4 3.194700 1_555
Ce1_5 In0_5 3.194700 1_555
Ce1_5 In1_6 3.401969 1_555
Ce1_5 In1_7 3.401969 1_555
Ce1_5 Ce5_7 3.547402 1_555
Ce1_6 Ni1_6 2.895216 1_555
Ce1_6 Ni1_7 2.895216 1_554
Ce1_6 In5_6 3.179988 1_555
Ce1_6 In5_7 3.179988 1_554
Ce1_6 In0_6 3.194700 1_555
Ce1_6 In0_7 3.194700 1_554
Ce1_6 In1_5 3.401969 1_564
Ce1_6 In1_4 3.401969 1_565
Ce1_6 Ce5_4 3.547402 1_565
Ce1_7 Ni1_6 2.895216 1_555
Ce1_7 Ni1_7 2.895216 1_555
Ce1_7 In5_6 3.179988 1_555
Ce1_7 In5_7 3.179988 1_555
Ce1_7 In0_7 3.194700 1_555
Ce1_7 In0_6 3.194700 1_555
Ce1_7 In1_5 3.401969 1_565
Ce1_7 In1_4 3.401969 1_565
Ce1_7 Ce5_5 3.547402 1_565
Ce2_0 Ni2_0 2.895216 1_555
Ce2_0 Ni2_1 2.895216 1_554
Ce2_0 In6_0 3.179988 1_555
Ce2_0 In6_1 3.179988 1_554
Ce2_0 In3_0 3.194700 1_555
Ce2_0 In3_1 3.194700 1_554
Ce2_0 Ce3_4 3.351090 1_455
Ce2_0 In2_5 3.401969 1_454
Ce2_0 In2_4 3.401969 1_455
Ce2_0 Ce5_4 3.547402 1_455
Ce2_1 Ni2_0 2.895216 1_555
Ce2_1 Ni2_1 2.895216 1_555
Ce2_1 In6_0 3.179988 1_555
Ce2_1 In6_1 3.179988 1_555
Ce2_1 In3_1 3.194700 1_555
Ce2_1 In3_0 3.194700 1_555
Ce2_1 Ce3_5 3.351090 1_455
Ce2_1 In2_5 3.401969 1_455
Ce2_1 In2_4 3.401969 1_455
Ce2_1 Ce5_5 3.547402 1_455
Ce2_2 Ni2_3 2.895216 1_554
Ce2_2 Ni2_2 2.895216 1_555
Ce2_2 In6_3 3.179988 1_554
Ce2_2 In6_2 3.179988 1_555
Ce2_2 In3_3 3.194700 1_554
Ce2_2 In3_2 3.194700 1_555
Ce2_2 Ce3_6 3.351090 1_455
Ce2_2 In2_6 3.401969 1_455
Ce2_2 In2_7 3.401969 1_454
Ce2_2 Ce5_6 3.547402 1_455
Ce2_3 Ni2_3 2.895216 1_555
Ce2_3 Ni2_2 2.895216 1_555
Ce2_3 In6_3 3.179988 1_555
Ce2_3 In6_2 3.179988 1_555
Ce2_3 In3_2 3.194700 1_555
Ce2_3 In3_3 3.194700 1_555
Ce2_3 Ce3_7 3.351090 1_455
Ce2_3 In2_7 3.401969 1_455
Ce2_3 In2_6 3.401969 1_455
Ce2_3 Ce5_7 3.547402 1_455
Ce2_4 Ni2_5 2.895216 1_554
Ce2_4 Ni2_4 2.895216 1_555
Ce2_4 In6_5 3.179988 1_554
Ce2_4 In6_4 3.179988 1_555
Ce2_4 In3_4 3.194700 1_555
Ce2_4 In3_5 3.194700 1_554
Ce2_4 Ce3_0 3.351090 1_555
Ce2_4 In2_1 3.401969 1_554
Ce2_4 In2_0 3.401969 1_555
Ce2_4 Ce5_0 3.547402 1_555
Ce2_5 Ni2_4 2.895216 1_555
Ce2_5 Ni2_5 2.895216 1_555
Ce2_5 In6_5 3.179988 1_555
Ce2_5 In6_4 3.179988 1_555
Ce2_5 In3_4 3.194700 1_555
Ce2_5 In3_5 3.194700 1_555
Ce2_5 Ce3_1 3.351090 1_555
Ce2_5 In2_0 3.401969 1_555
Ce2_5 In2_1 3.401969 1_555
Ce2_5 Ce5_1 3.547402 1_555
Ce2_6 Ni2_6 2.895216 1_555
Ce2_6 Ni2_7 2.895216 1_554
Ce2_6 In6_6 3.179988 1_555
Ce2_6 In6_7 3.179988 1_554
Ce2_6 In3_7 3.194700 1_554
Ce2_6 In3_6 3.194700 1_555
Ce2_6 Ce3_2 3.351090 1_555
Ce2_6 In2_2 3.401969 1_555
Ce2_6 In2_3 3.401969 1_554
Ce2_6 Ce5_2 3.547402 1_555
Ce2_7 Ni2_6 2.895216 1_555
Ce2_7 Ni2_7 2.895216 1_555
Ce2_7 In6_6 3.179988 1_555
Ce2_7 In6_7 3.179988 1_555
Ce2_7 In3_6 3.194700 1_555
Ce2_7 In3_7 3.194700 1_555
Ce2_7 Ce3_3 3.351090 1_555
Ce2_7 In2_3 3.401969 1_555
Ce2_7 In2_2 3.401969 1_555
Ce2_7 Ce5_3 3.547402 1_555
Ce3_0 Ni3_1 2.895216 1_554
Ce3_0 Ni3_0 2.895216 1_555
Ce3_0 In7_1 3.179988 1_554
Ce3_0 In7_0 3.179988 1_555
Ce3_0 In2_0 3.194700 1_555
Ce3_0 In2_1 3.194700 1_554
Ce3_0 In3_4 3.401969 1_555
Ce3_0 In3_5 3.401969 1_554
Ce3_0 Ce4_4 3.547402 1_555
Ce3_1 Ni3_1 2.895216 1_555
Ce3_1 Ni3_0 2.895216 1_555
Ce3_1 In7_1 3.179988 1_555
Ce3_1 In7_0 3.179988 1_555
Ce3_1 In2_0 3.194700 1_555
Ce3_1 In2_1 3.194700 1_555
Ce3_1 In3_5 3.401969 1_555
Ce3_1 In3_4 3.401969 1_555
Ce3_1 Ce4_5 3.547402 1_555
Ce3_2 Ni3_2 2.895216 1_555
Ce3_2 Ni3_3 2.895216 1_554
Ce3_2 In7_2 3.179988 1_555
Ce3_2 In7_3 3.179988 1_554
Ce3_2 In2_2 3.194700 1_555
Ce3_2 In2_3 3.194700 1_554
Ce3_2 In3_7 3.401969 1_554
Ce3_2 In3_6 3.401969 1_555
Ce3_2 Ce4_6 3.547402 1_555
Ce3_3 Ni3_2 2.895216 1_555
Ce3_3 Ni3_3 2.895216 1_555
Ce3_3 In7_2 3.179988 1_555
Ce3_3 In7_3 3.179988 1_555
Ce3_3 In2_3 3.194700 1_555
Ce3_3 In2_2 3.194700 1_555
Ce3_3 In3_6 3.401969 1_555
Ce3_3 In3_7 3.401969 1_555
Ce3_3 Ce4_7 3.547402 1_555
Ce3_4 Ni3_5 2.895216 1_554
Ce3_4 Ni3_4 2.895216 1_555
Ce3_4 In7_5 3.179988 1_554
Ce3_4 In7_4 3.179988 1_555
Ce3_4 In2_4 3.194700 1_555
Ce3_4 In2_5 3.194700 1_554
Ce3_4 In3_0 3.401969 1_655
Ce3_4 In3_1 3.401969 1_654
Ce3_4 Ce4_0 3.547402 1_655
Ce3_5 Ni3_5 2.895216 1_555
Ce3_5 Ni3_4 2.895216 1_555
Ce3_5 In7_5 3.179988 1_555
Ce3_5 In7_4 3.179988 1_555
Ce3_5 In2_4 3.194700 1_555
Ce3_5 In2_5 3.194700 1_555
Ce3_5 In3_1 3.401969 1_655
Ce3_5 In3_0 3.401969 1_655
Ce3_5 Ce4_1 3.547402 1_655
Ce3_6 Ni3_6 2.895216 1_555
Ce3_6 Ni3_7 2.895216 1_554
Ce3_6 In7_6 3.179988 1_555
Ce3_6 In7_7 3.179988 1_554
Ce3_6 In2_6 3.194700 1_555
Ce3_6 In2_7 3.194700 1_554
Ce3_6 In3_2 3.401969 1_655
Ce3_6 In3_3 3.401969 1_654
Ce3_6 Ce4_2 3.547402 1_655
Ce3_7 Ni3_6 2.895216 1_555
Ce3_7 Ni3_7 2.895216 1_555
Ce3_7 In7_6 3.179988 1_555
Ce3_7 In7_7 3.179988 1_555
Ce3_7 In2_7 3.194700 1_555
Ce3_7 In2_6 3.194700 1_555
Ce3_7 In3_2 3.401969 1_655
Ce3_7 In3_3 3.401969 1_655
Ce3_7 Ce4_3 3.547402 1_655
Ce4_0 In3_1 3.345715 1_554
Ce4_0 In3_0 3.345715 1_555
Ce4_0 In0_0 3.345715 1_555
Ce4_0 In0_1 3.345715 1_554
Ce4_0 In7_5 3.426070 1_454
Ce4_0 In7_4 3.426070 1_455
Ce4_0 In4_3 3.426070 1_554
Ce4_0 In4_2 3.426070 1_555
Ce4_0 Ce4_1 3.696032 1_555
Ce4_0 Ce4_1 3.696032 1_554
Ce4_1 In3_0 3.345715 1_555
Ce4_1 In3_1 3.345715 1_555
Ce4_1 In0_0 3.345715 1_555
Ce4_1 In0_1 3.345715 1_555
Ce4_1 In7_5 3.426070 1_455
Ce4_1 In7_4 3.426070 1_455
Ce4_1 In4_2 3.426070 1_555
Ce4_1 In4_3 3.426070 1_555
Ce4_2 In3_2 3.345715 1_555
Ce4_2 In3_3 3.345715 1_554
Ce4_2 In0_3 3.345715 1_554
Ce4_2 In0_2 3.345715 1_555
Ce4_2 In7_6 3.426070 1_455
Ce4_2 In7_7 3.426070 1_454
Ce4_2 In4_0 3.426070 1_565
Ce4_2 In4_1 3.426070 1_564
Ce4_2 Ce4_3 3.696032 1_554
Ce4_2 Ce4_3 3.696032 1_555
Ce4_3 In3_3 3.345715 1_555
Ce4_3 In3_2 3.345715 1_555
Ce4_3 In0_2 3.345715 1_555
Ce4_3 In0_3 3.345715 1_555
Ce4_3 In7_7 3.426070 1_455
Ce4_3 In7_6 3.426070 1_455
Ce4_3 In4_0 3.426070 1_565
Ce4_3 In4_1 3.426070 1_565
Ce4_4 In3_5 3.345715 1_554
Ce4_4 In3_4 3.345715 1_555
Ce4_4 In0_5 3.345715 1_554
Ce4_4 In0_4 3.345715 1_555
Ce4_4 In7_1 3.426070 1_554
Ce4_4 In7_0 3.426070 1_555
Ce4_4 In4_7 3.426070 1_554
Ce4_4 In4_6 3.426070 1_555
Ce4_4 Ce4_5 3.696032 1_555
Ce4_4 Ce4_5 3.696032 1_554
Ce4_5 In3_4 3.345715 1_555
Ce4_5 In3_5 3.345715 1_555
Ce4_5 In0_5 3.345715 1_555
Ce4_5 In0_4 3.345715 1_555
Ce4_5 In7_1 3.426070 1_555
Ce4_5 In7_0 3.426070 1_555
Ce4_5 In4_7 3.426070 1_555
Ce4_5 In4_6 3.426070 1_555
Ce4_6 In3_7 3.345715 1_554
Ce4_6 In3_6 3.345715 1_555
Ce4_6 In0_7 3.345715 1_554
Ce4_6 In0_6 3.345715 1_555
Ce4_6 In7_2 3.426070 1_555
Ce4_6 In7_3 3.426070 1_554
Ce4_6 In4_4 3.426070 1_565
Ce4_6 In4_5 3.426070 1_564
Ce4_6 Ce4_7 3.696032 1_555
Ce4_6 Ce4_7 3.696032 1_554
Ce4_7 In3_7 3.345715 1_555
Ce4_7 In3_6 3.345715 1_555
Ce4_7 In0_7 3.345715 1_555
Ce4_7 In0_6 3.345715 1_555
Ce4_7 In7_2 3.426070 1_555
Ce4_7 In7_3 3.426070 1_555
Ce4_7 In4_5 3.426070 1_565
Ce4_7 In4_4 3.426070 1_565
Ce5_0 In1_0 3.345715 1_555
Ce5_0 In1_1 3.345715 1_554
Ce5_0 In2_0 3.345715 1_555
Ce5_0 In2_1 3.345715 1_554
Ce5_0 In5_2 3.426070 1_545
Ce5_0 In5_3 3.426070 1_544
Ce5_0 In6_5 3.426070 1_554
Ce5_0 In6_4 3.426070 1_555
Ce5_0 Ce5_1 3.696032 1_554
Ce5_0 Ce5_1 3.696032 1_555
Ce5_1 In1_1 3.345715 1_555
Ce5_1 In1_0 3.345715 1_555
Ce5_1 In2_0 3.345715 1_555
Ce5_1 In2_1 3.345715 1_555
Ce5_1 In5_2 3.426070 1_545
Ce5_1 In5_3 3.426070 1_545
Ce5_1 In6_5 3.426070 1_555
Ce5_1 In6_4 3.426070 1_555
Ce5_2 In1_3 3.345715 1_554
Ce5_2 In1_2 3.345715 1_555
Ce5_2 In2_3 3.345715 1_554
Ce5_2 In2_2 3.345715 1_555
Ce5_2 In5_0 3.426070 1_555
Ce5_2 In5_1 3.426070 1_554
Ce5_2 In6_6 3.426070 1_555
Ce5_2 In6_7 3.426070 1_554
Ce5_2 Ce5_3 3.696032 1_555
Ce5_2 Ce5_3 3.696032 1_554
Ce5_3 In1_2 3.345715 1_555
Ce5_3 In1_3 3.345715 1_555
Ce5_3 In2_3 3.345715 1_555
Ce5_3 In2_2 3.345715 1_555
Ce5_3 In5_0 3.426070 1_555
Ce5_3 In5_1 3.426070 1_555
Ce5_3 In6_7 3.426070 1_555
Ce5_3 In6_6 3.426070 1_555
Ce5_4 In1_5 3.345715 1_554
Ce5_4 In1_4 3.345715 1_555
Ce5_4 In2_4 3.345715 1_555
Ce5_4 In2_5 3.345715 1_554
Ce5_4 In5_6 3.426070 1_545
Ce5_4 In5_7 3.426070 1_544
Ce5_4 In6_1 3.426070 1_654
Ce5_4 In6_0 3.426070 1_655
Ce5_4 Ce5_5 3.696032 1_555
Ce5_4 Ce5_5 3.696032 1_554
Ce5_5 In1_5 3.345715 1_555
Ce5_5 In1_4 3.345715 1_555
Ce5_5 In2_4 3.345715 1_555
Ce5_5 In2_5 3.345715 1_555
Ce5_5 In5_6 3.426070 1_545
Ce5_5 In5_7 3.426070 1_545
Ce5_5 In6_1 3.426070 1_655
Ce5_5 In6_0 3.426070 1_655
Ce5_6 In1_6 3.345715 1_555
Ce5_6 In1_7 3.345715 1_554
Ce5_6 In2_7 3.345715 1_554
Ce5_6 In2_6 3.345715 1_555
Ce5_6 In5_4 3.426070 1_555
Ce5_6 In5_5 3.426070 1_554
Ce5_6 In6_2 3.426070 1_655
Ce5_6 In6_3 3.426070 1_654
Ce5_6 Ce5_7 3.696032 1_554
Ce5_6 Ce5_7 3.696032 1_555
Ce5_7 In1_6 3.345715 1_555
Ce5_7 In1_7 3.345715 1_555
Ce5_7 In2_7 3.345715 1_555
Ce5_7 In2_6 3.345715 1_555
Ce5_7 In5_5 3.426070 1_555
Ce5_7 In5_4 3.426070 1_555
Ce5_7 In6_2 3.426070 1_655
Ce5_7 In6_3 3.426070 1_655
Ce6_0 Ni2_1 2.891117 1_554
Ce6_0 Ni2_0 2.891117 1_555
Ce6_0 Ni1_0 2.891117 1_555
Ce6_0 Ni1_1 2.891117 1_554
Ce6_0 In8_1 3.265086 1_554
Ce6_0 In8_0 3.265086 1_555
Ce6_0 In3_0 3.365084 1_555
Ce6_0 In3_1 3.365084 1_554
Ce6_0 In0_0 3.365084 1_555
Ce6_0 In0_1 3.365084 1_554
Ce6_1 Ni2_1 2.891117 1_555
Ce6_1 Ni2_0 2.891117 1_555
Ce6_1 Ni1_0 2.891117 1_555
Ce6_1 Ni1_1 2.891117 1_555
Ce6_1 In8_1 3.265086 1_555
Ce6_1 In8_0 3.265086 1_555
Ce6_1 In3_1 3.365084 1_555
Ce6_1 In3_0 3.365084 1_555
Ce6_1 In0_0 3.365084 1_555
Ce6_1 In0_1 3.365084 1_555
Ce6_2 Ni2_3 2.891117 1_554
Ce6_2 Ni2_2 2.891117 1_555
Ce6_2 Ni1_2 2.891117 1_555
Ce6_2 Ni1_3 2.891117 1_554
Ce6_2 In8_3 3.265086 1_554
Ce6_2 In8_2 3.265086 1_555
Ce6_2 In3_3 3.365084 1_554
Ce6_2 In3_2 3.365084 1_555
Ce6_2 In0_3 3.365084 1_554
Ce6_2 In0_2 3.365084 1_555
Ce6_3 Ni2_3 2.891117 1_555
Ce6_3 Ni2_2 2.891117 1_555
Ce6_3 Ni1_2 2.891117 1_555
Ce6_3 Ni1_3 2.891117 1_555
Ce6_3 In8_2 3.265086 1_555
Ce6_3 In8_3 3.265086 1_555
Ce6_3 In3_3 3.365084 1_555
Ce6_3 In3_2 3.365084 1_555
Ce6_3 In0_3 3.365084 1_555
Ce6_3 In0_2 3.365084 1_555
Ce6_4 Ni2_5 2.891117 1_554
Ce6_4 Ni2_4 2.891117 1_555
Ce6_4 Ni1_4 2.891117 1_555
Ce6_4 Ni1_5 2.891117 1_554
Ce6_4 In8_4 3.265086 1_555
Ce6_4 In8_5 3.265086 1_554
Ce6_4 In3_5 3.365084 1_554
Ce6_4 In3_4 3.365084 1_555
Ce6_4 In0_5 3.365084 1_554
Ce6_4 In0_4 3.365084 1_555
Ce6_5 Ni2_5 2.891117 1_555
Ce6_5 Ni2_4 2.891117 1_555
Ce6_5 Ni1_4 2.891117 1_555
Ce6_5 Ni1_5 2.891117 1_555
Ce6_5 In8_4 3.265086 1_555
Ce6_5 In8_5 3.265086 1_555
Ce6_5 In3_5 3.365084 1_555
Ce6_5 In3_4 3.365084 1_555
Ce6_5 In0_4 3.365084 1_555
Ce6_5 In0_5 3.365084 1_555
Ce6_6 Ni2_7 2.891117 1_554
Ce6_6 Ni2_6 2.891117 1_555
Ce6_6 Ni1_6 2.891117 1_555
Ce6_6 Ni1_7 2.891117 1_554
Ce6_6 In8_6 3.265086 1_555
Ce6_6 In8_7 3.265086 1_554
Ce6_6 In3_7 3.365084 1_554
Ce6_6 In3_6 3.365084 1_555
Ce6_6 In0_7 3.365084 1_554
Ce6_6 In0_6 3.365084 1_555
Ce6_7 Ni2_7 2.891117 1_555
Ce6_7 Ni2_6 2.891117 1_555
Ce6_7 Ni1_6 2.891117 1_555
Ce6_7 Ni1_7 2.891117 1_555
Ce6_7 In8_6 3.265086 1_555
Ce6_7 In8_7 3.265086 1_555
Ce6_7 In3_6 3.365084 1_555
Ce6_7 In3_7 3.365084 1_555
Ce6_7 In0_7 3.365084 1_555
Ce6_7 In0_6 3.365084 1_555
Ce7_0 Ni0_1 2.891117 1_554
Ce7_0 Ni0_0 2.891117 1_555
Ce7_0 Ni3_1 2.891117 1_554
Ce7_0 Ni3_0 2.891117 1_555
Ce7_0 In8_1 3.265086 1_554
Ce7_0 In8_0 3.265086 1_555
Ce7_0 In1_1 3.365084 1_554
Ce7_0 In1_0 3.365084 1_555
Ce7_0 In2_1 3.365084 1_554
Ce7_0 In2_0 3.365084 1_555
Ce7_1 Ni0_1 2.891117 1_555
Ce7_1 Ni0_0 2.891117 1_555
Ce7_1 Ni3_1 2.891117 1_555
Ce7_1 Ni3_0 2.891117 1_555
Ce7_1 In8_1 3.265086 1_555
Ce7_1 In8_0 3.265086 1_555
Ce7_1 In1_1 3.365084 1_555
Ce7_1 In1_0 3.365084 1_555
Ce7_1 In2_1 3.365084 1_555
Ce7_1 In2_0 3.365084 1_555
Ce7_2 Ni0_2 2.891117 1_555
Ce7_2 Ni0_3 2.891117 1_554
Ce7_2 Ni3_3 2.891117 1_554
Ce7_2 Ni3_2 2.891117 1_555
Ce7_2 In8_3 3.265086 1_554
Ce7_2 In8_2 3.265086 1_555
Ce7_2 In1_3 3.365084 1_554
Ce7_2 In1_2 3.365084 1_555
Ce7_2 In2_3 3.365084 1_554
Ce7_2 In2_2 3.365084 1_555
Ce7_3 Ni0_2 2.891117 1_555
Ce7_3 Ni0_3 2.891117 1_555
Ce7_3 Ni3_3 2.891117 1_555
Ce7_3 Ni3_2 2.891117 1_555
Ce7_3 In8_2 3.265086 1_555
Ce7_3 In8_3 3.265086 1_555
Ce7_3 In1_2 3.365084 1_555
Ce7_3 In1_3 3.365084 1_555
Ce7_3 In2_3 3.365084 1_555
Ce7_3 In2_2 3.365084 1_555
Ce7_4 Ni0_5 2.891117 1_554
Ce7_4 Ni0_4 2.891117 1_555
Ce7_4 Ni3_5 2.891117 1_554
Ce7_4 Ni3_4 2.891117 1_555
Ce7_4 In8_4 3.265086 1_555
Ce7_4 In8_5 3.265086 1_554
Ce7_4 In1_4 3.365084 1_555
Ce7_4 In1_5 3.365084 1_554
Ce7_4 In2_5 3.365084 1_554
Ce7_4 In2_4 3.365084 1_555
Ce7_5 Ni0_4 2.891117 1_555
Ce7_5 Ni0_5 2.891117 1_555
Ce7_5 Ni3_5 2.891117 1_555
Ce7_5 Ni3_4 2.891117 1_555
Ce7_5 In8_4 3.265086 1_555
Ce7_5 In8_5 3.265086 1_555
Ce7_5 In1_4 3.365084 1_555
Ce7_5 In1_5 3.365084 1_555
Ce7_5 In2_4 3.365084 1_555
Ce7_5 In2_5 3.365084 1_555
Ce7_6 Ni0_6 2.891117 1_555
Ce7_6 Ni0_7 2.891117 1_554
Ce7_6 Ni3_6 2.891117 1_555
Ce7_6 Ni3_7 2.891117 1_554
Ce7_6 In8_6 3.265086 1_555
Ce7_6 In8_7 3.265086 1_554
Ce7_6 In1_6 3.365084 1_555
Ce7_6 In1_7 3.365084 1_554
Ce7_6 In2_7 3.365084 1_554
Ce7_6 In2_6 3.365084 1_555
Ce7_7 Ni0_6 2.891117 1_555
Ce7_7 Ni0_7 2.891117 1_555
Ce7_7 Ni3_6 2.891117 1_555
Ce7_7 Ni3_7 2.891117 1_555
Ce7_7 In8_6 3.265086 1_555
Ce7_7 In8_7 3.265086 1_555
Ce7_7 In1_6 3.365084 1_555
Ce7_7 In1_7 3.365084 1_555
Ce7_7 In2_6 3.365084 1_555
Ce7_7 In2_7 3.365084 1_555
Ce8_0 Ni2_1 2.890256 1_554
Ce8_0 Ni2_0 2.890256 1_555
Ce8_0 Ni0_0 2.890256 1_555
Ce8_0 Ni0_1 2.890256 1_554
Ce8_0 In8_1 3.282136 1_554
Ce8_0 In8_0 3.282136 1_555
Ce8_0 In4_0 3.348212 1_555
Ce8_0 In4_1 3.348212 1_554
Ce8_0 In6_1 3.348212 1_554
Ce8_0 In6_0 3.348212 1_555
Ce8_1 Ni2_1 2.890256 1_555
Ce8_1 Ni2_0 2.890256 1_555
Ce8_1 Ni0_1 2.890256 1_555
Ce8_1 Ni0_0 2.890256 1_555
Ce8_1 In8_1 3.282136 1_555
Ce8_1 In8_0 3.282136 1_555
Ce8_1 In4_0 3.348212 1_555
Ce8_1 In4_1 3.348212 1_555
Ce8_1 In6_0 3.348212 1_555
Ce8_1 In6_1 3.348212 1_555
Ce8_2 Ni0_3 2.890256 1_554
Ce8_2 Ni0_2 2.890256 1_555
Ce8_2 Ni2_3 2.890256 1_554
Ce8_2 Ni2_2 2.890256 1_555
Ce8_2 In8_3 3.282136 1_554
Ce8_2 In8_2 3.282136 1_555
Ce8_2 In4_3 3.348212 1_554
Ce8_2 In4_2 3.348212 1_555
Ce8_2 In6_2 3.348212 1_555
Ce8_2 In6_3 3.348212 1_554
Ce8_3 Ni0_3 2.890256 1_555
Ce8_3 Ni0_2 2.890256 1_555
Ce8_3 Ni2_2 2.890256 1_555
Ce8_3 Ni2_3 2.890256 1_555
Ce8_3 In8_3 3.282136 1_555
Ce8_3 In8_2 3.282136 1_555
Ce8_3 In4_3 3.348212 1_555
Ce8_3 In4_2 3.348212 1_555
Ce8_3 In6_2 3.348212 1_555
Ce8_3 In6_3 3.348212 1_555
Ce8_4 Ni2_4 2.890256 1_555
Ce8_4 Ni2_5 2.890256 1_554
Ce8_4 Ni0_5 2.890256 1_554
Ce8_4 Ni0_4 2.890256 1_555
Ce8_4 In8_4 3.282136 1_555
Ce8_4 In8_5 3.282136 1_554
Ce8_4 In6_5 3.348212 1_554
Ce8_4 In6_4 3.348212 1_555
Ce8_4 In4_5 3.348212 1_554
Ce8_4 In4_4 3.348212 1_555
Ce8_5 Ni2_4 2.890256 1_555
Ce8_5 Ni2_5 2.890256 1_555
Ce8_5 Ni0_4 2.890256 1_555
Ce8_5 Ni0_5 2.890256 1_555
Ce8_5 In8_4 3.282136 1_555
Ce8_5 In8_5 3.282136 1_555
Ce8_5 In6_4 3.348212 1_555
Ce8_5 In6_5 3.348212 1_555
Ce8_5 In4_4 3.348212 1_555
Ce8_5 In4_5 3.348212 1_555
Ce8_6 Ni2_7 2.890256 1_554
Ce8_6 Ni2_6 2.890256 1_555
Ce8_6 Ni0_6 2.890256 1_555
Ce8_6 Ni0_7 2.890256 1_554
Ce8_6 In8_6 3.282136 1_555
Ce8_6 In8_7 3.282136 1_554
Ce8_6 In6_6 3.348212 1_555
Ce8_6 In4_6 3.348212 1_555
Ce8_6 In4_7 3.348212 1_554
Ce8_6 In6_7 3.348212 1_554
Ce8_7 Ni2_7 2.890256 1_555
Ce8_7 Ni2_6 2.890256 1_555
Ce8_7 Ni0_6 2.890256 1_555
Ce8_7 Ni0_7 2.890256 1_555
Ce8_7 In8_6 3.282136 1_555
Ce8_7 In8_7 3.282136 1_555
Ce8_7 In6_6 3.348212 1_555
Ce8_7 In4_7 3.348212 1_555
Ce8_7 In4_6 3.348212 1_555
Ce8_7 In6_7 3.348212 1_555
Ce9_0 Ni3_0 2.890256 1_555
Ce9_0 Ni3_1 2.890256 1_554
Ce9_0 Ni1_0 2.890256 1_555
Ce9_0 Ni1_1 2.890256 1_554
Ce9_0 In8_1 3.282136 1_554
Ce9_0 In8_0 3.282136 1_555
Ce9_0 In7_1 3.348212 1_554
Ce9_0 In7_0 3.348212 1_555
Ce9_0 In5_0 3.348212 1_555
Ce9_0 In5_1 3.348212 1_554
Ce9_1 Ni3_0 2.890256 1_555
Ce9_1 Ni3_1 2.890256 1_555
Ce9_1 Ni1_0 2.890256 1_555
Ce9_1 Ni1_1 2.890256 1_555
Ce9_1 In8_1 3.282136 1_555
Ce9_1 In8_0 3.282136 1_555
Ce9_1 In7_1 3.348212 1_555
Ce9_1 In7_0 3.348212 1_555
Ce9_1 In5_0 3.348212 1_555
Ce9_1 In5_1 3.348212 1_555
Ce9_2 Ni1_2 2.890256 1_555
Ce9_2 Ni1_3 2.890256 1_554
Ce9_2 Ni3_2 2.890256 1_555
Ce9_2 Ni3_3 2.890256 1_554
Ce9_2 In8_2 3.282136 1_555
Ce9_2 In8_3 3.282136 1_554
Ce9_2 In5_2 3.348212 1_555
Ce9_2 In5_3 3.348212 1_554
Ce9_2 In7_2 3.348212 1_555
Ce9_2 In7_3 3.348212 1_554
Ce9_3 Ni1_2 2.890256 1_555
Ce9_3 Ni1_3 2.890256 1_555
Ce9_3 Ni3_3 2.890256 1_555
Ce9_3 Ni3_2 2.890256 1_555
Ce9_3 In8_2 3.282136 1_555
Ce9_3 In8_3 3.282136 1_555
Ce9_3 In7_3 3.348212 1_555
Ce9_3 In5_3 3.348212 1_555
Ce9_3 In5_2 3.348212 1_555
Ce9_3 In7_2 3.348212 1_555
Ce9_4 Ni3_5 2.890256 1_554
Ce9_4 Ni3_4 2.890256 1_555
Ce9_4 Ni1_5 2.890256 1_554
Ce9_4 Ni1_4 2.890256 1_555
Ce9_4 In8_5 3.282136 1_554
Ce9_4 In8_4 3.282136 1_555
Ce9_4 In5_4 3.348212 1_555
Ce9_4 In7_5 3.348212 1_554
Ce9_4 In5_5 3.348212 1_554
Ce9_4 In7_4 3.348212 1_555
Ce9_5 Ni3_5 2.890256 1_555
Ce9_5 Ni3_4 2.890256 1_555
Ce9_5 Ni1_5 2.890256 1_555
Ce9_5 Ni1_4 2.890256 1_555
Ce9_5 In8_5 3.282136 1_555
Ce9_5 In8_4 3.282136 1_555
Ce9_5 In5_5 3.348212 1_555
Ce9_5 In5_4 3.348212 1_555
Ce9_5 In7_5 3.348212 1_555
Ce9_5 In7_4 3.348212 1_555
Ce9_6 Ni3_7 2.890256 1_554
Ce9_6 Ni3_6 2.890256 1_555
Ce9_6 Ni1_7 2.890256 1_554
Ce9_6 Ni1_6 2.890256 1_555
Ce9_6 In8_6 3.282136 1_555
Ce9_6 In8_7 3.282136 1_554
Ce9_6 In5_6 3.348212 1_555
Ce9_6 In5_7 3.348212 1_554
Ce9_6 In7_6 3.348212 1_555
Ce9_6 In7_7 3.348212 1_554
Ce9_7 Ni3_6 2.890256 1_555
Ce9_7 Ni1_7 2.890256 1_555
Ce9_7 Ni1_6 2.890256 1_555
Ce9_7 Ni3_7 2.890256 1_555
Ce9_7 In8_7 3.282136 1_555
Ce9_7 In8_6 3.282136 1_555
Ce9_7 In5_6 3.348212 1_555
Ce9_7 In5_7 3.348212 1_555
Ce9_7 In7_6 3.348212 1_555
Ce9_7 In7_7 3.348212 1_555
Ce10_0 In5_6 3.246473 1_445
Ce10_0 In5_7 3.246473 1_444
Ce10_0 In6_0 3.246473 1_555
Ce10_0 In6_1 3.246473 1_554
Ce10_0 In4_0 3.246473 1_555
Ce10_0 In4_1 3.246473 1_554
Ce10_0 In7_6 3.246473 1_445
Ce10_0 In7_7 3.246473 1_444
Ce10_0 Ce5_4 3.380608 1_455
Ce10_0 Ce4_2 3.380608 1_545
Ce10_0 Ce10_1 3.696032 1_555
Ce10_0 Ce10_1 3.696032 1_554
Ce10_1 In5_7 3.246473 1_445
Ce10_1 In5_6 3.246473 1_445
Ce10_1 In6_0 3.246473 1_555
Ce10_1 In6_1 3.246473 1_555
Ce10_1 In4_1 3.246473 1_555
Ce10_1 In4_0 3.246473 1_555
Ce10_1 In7_6 3.246473 1_445
Ce10_1 In7_7 3.246473 1_445
Ce10_1 Ce5_5 3.380608 1_455
Ce10_1 Ce4_3 3.380608 1_545
Ce10_2 In7_4 3.246473 1_455
Ce10_2 In7_5 3.246473 1_454
Ce10_2 In5_4 3.246473 1_455
Ce10_2 In5_5 3.246473 1_454
Ce10_2 In4_2 3.246473 1_555
Ce10_2 In4_3 3.246473 1_554
Ce10_2 In6_2 3.246473 1_555
Ce10_2 In6_3 3.246473 1_554
Ce10_2 Ce5_6 3.380608 1_455
Ce10_2 Ce4_0 3.380608 1_555
Ce10_2 Ce10_3 3.696032 1_554
Ce10_2 Ce10_3 3.696032 1_555
Ce10_3 In7_4 3.246473 1_455
Ce10_3 In7_5 3.246473 1_455
Ce10_3 In5_5 3.246473 1_455
Ce10_3 In5_4 3.246473 1_455
Ce10_3 In4_3 3.246473 1_555
Ce10_3 In4_2 3.246473 1_555
Ce10_3 In6_2 3.246473 1_555
Ce10_3 In6_3 3.246473 1_555
Ce10_3 Ce5_7 3.380608 1_455
Ce10_3 Ce4_1 3.380608 1_555
Ce10_4 In5_2 3.246473 1_545
Ce10_4 In5_3 3.246473 1_544
Ce10_4 In6_4 3.246473 1_555
Ce10_4 In4_5 3.246473 1_554
Ce10_4 In4_4 3.246473 1_555
Ce10_4 In6_5 3.246473 1_554
Ce10_4 In7_2 3.246473 1_545
Ce10_4 In7_3 3.246473 1_544
Ce10_4 Ce5_0 3.380608 1_555
Ce10_4 Ce4_6 3.380608 1_545
Ce10_4 Ce10_5 3.696032 1_554
Ce10_4 Ce10_5 3.696032 1_555
Ce10_5 In5_2 3.246473 1_545
Ce10_5 In5_3 3.246473 1_545
Ce10_5 In6_4 3.246473 1_555
Ce10_5 In4_4 3.246473 1_555
Ce10_5 In6_5 3.246473 1_555
Ce10_5 In4_5 3.246473 1_555
Ce10_5 In7_3 3.246473 1_545
Ce10_5 In7_2 3.246473 1_545
Ce10_5 Ce5_1 3.380608 1_555
Ce10_5 Ce4_7 3.380608 1_545
Ce10_6 In7_1 3.246473 1_554
Ce10_6 In5_0 3.246473 1_555
Ce10_6 In5_1 3.246473 1_554
Ce10_6 In7_0 3.246473 1_555
Ce10_6 In6_6 3.246473 1_555
Ce10_6 In6_7 3.246473 1_554
Ce10_6 In4_6 3.246473 1_555
Ce10_6 In4_7 3.246473 1_554
Ce10_6 Ce4_4 3.380608 1_555
Ce10_6 Ce5_2 3.380608 1_555
Ce10_6 Ce10_7 3.696032 1_555
Ce10_6 Ce10_7 3.696032 1_554
Ce10_7 In7_1 3.246473 1_555
Ce10_7 In5_0 3.246473 1_555
Ce10_7 In7_0 3.246473 1_555
Ce10_7 In5_1 3.246473 1_555
Ce10_7 In6_6 3.246473 1_555
Ce10_7 In6_7 3.246473 1_555
Ce10_7 In4_6 3.246473 1_555
Ce10_7 In4_7 3.246473 1_555
Ce10_7 Ce4_5 3.380608 1_555
Ce10_7 Ce5_3 3.380608 1_555
In0_0 In3_0 2.988004 1_555
In0_0 Ni1_0 2.996869 1_555
In0_1 In3_1 2.988004 1_555
In0_1 Ni1_1 2.996869 1_555
In0_2 In3_2 2.988004 1_555
In0_2 Ni1_2 2.996869 1_555
In0_3 In3_3 2.988004 1_555
In0_3 Ni1_3 2.996869 1_555
In0_4 In3_4 2.988004 1_555
In0_4 Ni1_4 2.996869 1_555
In0_5 In3_5 2.988004 1_555
In0_5 Ni1_5 2.996869 1_555
In0_6 In3_6 2.988004 1_555
In0_6 Ni1_6 2.996869 1_555
In0_7 In3_7 2.988004 1_555
In0_7 Ni1_7 2.996869 1_555
In1_0 In2_0 2.988004 1_555
In1_0 Ni0_0 2.996869 1_555
In1_1 In2_1 2.988004 1_555
In1_1 Ni0_1 2.996869 1_555
In1_2 In2_2 2.988004 1_555
In1_2 Ni0_2 2.996869 1_555
In1_3 In2_3 2.988004 1_555
In1_3 Ni0_3 2.996869 1_555
In1_4 In2_4 2.988004 1_555
In1_4 Ni0_4 2.996869 1_555
In1_5 In2_5 2.988004 1_555
In1_5 Ni0_5 2.996869 1_555
In1_6 In2_6 2.988004 1_555
In1_6 Ni0_6 2.996869 1_555
In1_7 In2_7 2.988004 1_555
In1_7 Ni0_7 2.996869 1_555
In2_0 Ni3_0 2.996869 1_555
In2_1 Ni3_1 2.996869 1_555
In2_2 Ni3_2 2.996869 1_555
In2_3 Ni3_3 2.996869 1_555
In2_4 Ni3_4 2.996869 1_555
In2_5 Ni3_5 2.996869 1_555
In2_6 Ni3_6 2.996869 1_555
In2_7 Ni3_7 2.996869 1_555
In3_0 Ni2_0 2.996869 1_555
In3_1 Ni2_1 2.996869 1_555
In3_2 Ni2_2 2.996869 1_555
In3_3 Ni2_3 2.996869 1_555
In3_4 Ni2_4 2.996869 1_555
In3_5 Ni2_5 2.996869 1_555
In3_6 Ni2_6 2.996869 1_555
In3_7 Ni2_7 2.996869 1_555
In4_0 Ni0_0 2.971568 1_555
In4_0 In6_0 3.026125 1_555
In4_1 Ni0_1 2.971568 1_555
In4_1 In6_1 3.026125 1_555
In4_2 Ni0_2 2.971568 1_555
In4_2 In6_2 3.026125 1_555
In4_3 Ni0_3 2.971568 1_555
In4_3 In6_3 3.026125 1_555
In4_4 Ni0_4 2.971568 1_555
In4_4 In6_4 3.026125 1_555
In4_5 Ni0_5 2.971568 1_555
In4_5 In6_5 3.026125 1_555
In4_6 Ni0_6 2.971568 1_555
In4_6 In6_6 3.026125 1_555
In4_7 Ni0_7 2.971568 1_555
In4_7 In6_7 3.026125 1_555
In5_0 Ni1_0 2.971568 1_555
In5_0 In7_0 3.026125 1_555
In5_1 Ni1_1 2.971568 1_555
In5_1 In7_1 3.026125 1_555
In5_2 Ni1_2 2.971568 1_555
In5_2 In7_2 3.026125 1_555
In5_3 Ni1_3 2.971568 1_555
In5_3 In7_3 3.026125 1_555
In5_4 Ni1_4 2.971568 1_555
In5_4 In7_4 3.026125 1_555
In5_5 Ni1_5 2.971568 1_555
In5_5 In7_5 3.026125 1_555
In5_6 Ni1_6 2.971568 1_555
In5_6 In7_6 3.026125 1_555
In5_7 Ni1_7 2.971568 1_555
In5_7 In7_7 3.026125 1_555
In6_0 Ni2_0 2.971568 1_555
In6_1 Ni2_1 2.971568 1_555
In6_2 Ni2_2 2.971568 1_555
In6_3 Ni2_3 2.971568 1_555
In6_4 Ni2_4 2.971568 1_555
In6_5 Ni2_5 2.971568 1_555
In6_6 Ni2_6 2.971568 1_555
In6_7 Ni2_7 2.971568 1_555
In7_0 Ni3_0 2.971568 1_555
In7_1 Ni3_1 2.971568 1_555
In7_2 Ni3_2 2.971568 1_555
In7_3 Ni3_3 2.971568 1_555
In7_4 Ni3_4 2.971568 1_555
In7_5 Ni3_5 2.971568 1_555
In7_6 Ni3_6 2.971568 1_555
In7_7 Ni3_7 2.971568 1_555
In8_0 Ni2_0 3.046531 1_555
In8_0 Ni0_0 3.046531 1_555
In8_0 Ni1_0 3.046531 1_555
In8_0 Ni3_0 3.046531 1_555
In8_1 Ni2_1 3.046531 1_555
In8_1 Ni0_1 3.046531 1_555
In8_1 Ni1_1 3.046531 1_555
In8_1 Ni3_1 3.046531 1_555
In8_2 Ni2_2 3.046531 1_555
In8_2 Ni0_2 3.046531 1_555
In8_2 Ni1_2 3.046531 1_555
In8_2 Ni3_2 3.046531 1_555
In8_3 Ni2_3 3.046531 1_555
In8_3 Ni0_3 3.046531 1_555
In8_3 Ni1_3 3.046531 1_555
In8_3 Ni3_3 3.046531 1_555
In8_4 Ni2_4 3.046531 1_555
In8_4 Ni0_4 3.046531 1_555
In8_4 Ni1_4 3.046531 1_555
In8_4 Ni3_4 3.046531 1_555
In8_5 Ni2_5 3.046531 1_555
In8_5 Ni0_5 3.046531 1_555
In8_5 Ni1_5 3.046531 1_555
In8_5 Ni3_5 3.046531 1_555
In8_6 Ni2_6 3.046531 1_555
In8_6 Ni1_6 3.046531 1_555
In8_6 Ni3_6 3.046531 1_555
In8_6 Ni0_6 3.046531 1_555
In8_7 Ni2_7 3.046531 1_555
In8_7 Ni1_7 3.046531 1_555
In8_7 Ni3_7 3.046531 1_555
In8_7 Ni0_7 3.046531 1_555
