# generated using pymatgen
data_Li7Mn2(CoO4)3
_symmetry_space_group_name_H-M   'P 1'
_cell_length_a   2.94705209
_cell_length_b   2.94705209
_cell_length_c   29.42811100
_cell_angle_alpha   90.00000000
_cell_angle_beta   90.00000000
_cell_angle_gamma   120.00000198
_symmetry_Int_Tables_number   1
_chemical_formula_structural   Li7Mn2(CoO4)3
_chemical_formula_sum   'Li7 Mn2 Co3 O12'
_cell_volume   221.34444767
_cell_formula_units_Z   1
loop_
 _symmetry_equiv_pos_site_id
 _symmetry_equiv_pos_as_xyz
  1  'x, y, z'
loop_
 _atom_site_type_symbol
 _atom_site_label
 _atom_site_symmetry_multiplicity
 _atom_site_fract_x
 _atom_site_fract_y
 _atom_site_fract_z
 _atom_site_occupancy
  Li  Li0  1  0.66666700  0.33333300  0.07463900  1
  Li  Li1  1  0.00000000  0.00000000  0.25483000  1
  Li  Li2  1  0.33333300  0.66666700  0.41641000  1
  Li  Li3  1  0.66666700  0.33333300  0.58359000  1
  Li  Li4  1  0.00000000  0.00000000  0.74517000  1
  Li  Li5  1  0.33333300  0.66666700  0.92536100  1
  Li  Li6  1  0.00000000  0.00000000  0.00000000  1
  Mn  Mn0  1  0.66666700  0.33333300  0.83242600  1
  Mn  Mn1  1  0.33333300  0.66666700  0.16757400  1
  Co  Co0  1  0.66666700  0.33333300  0.33398500  1
  Co  Co1  1  0.00000000  0.00000000  0.50000000  1
  Co  Co2  1  0.33333300  0.66666700  0.66601500  1
  O  O0  1  0.66666700  0.33333300  0.20538500  1
  O  O1  1  0.00000000  0.00000000  0.37068800  1
  O  O2  1  0.33333300  0.66666700  0.53662500  1
  O  O3  1  0.66666700  0.33333300  0.70392100  1
  O  O4  1  0.00000000  0.00000000  0.86714600  1
  O  O5  1  0.33333300  0.66666700  0.04265400  1
  O  O6  1  0.66666700  0.33333300  0.95734600  1
  O  O7  1  0.00000000  0.00000000  0.13285400  1
  O  O8  1  0.33333300  0.66666700  0.29607900  1
  O  O9  1  0.66666700  0.33333300  0.46337500  1
  O  O10  1  0.00000000  0.00000000  0.62931200  1
  O  O11  1  0.33333300  0.66666700  0.79461500  1
loop_
_geom_bond_atom_site_label_1
_geom_bond_atom_site_label_2
_geom_bond_distance
_geom_bond_site_symmetry_2
Li0 O5 1.944479 1_545
Li0 O5 1.944479 1_655
Li0 O5 1.944484 1_555
Li0 O7 2.414527 1_655
Li0 O7 2.414529 1_555
Li0 O7 2.414529 1_665
Li1 O8 2.090105 1_545
Li1 O8 2.090107 1_555
Li1 O8 2.090107 1_445
Li1 O0 2.238810 1_455
Li1 O0 2.238812 1_445
Li1 O0 2.238812 1_555
Li2 O1 2.169202 1_565
Li2 O1 2.169204 1_665
Li2 O1 2.169204 1_555
Li2 O9 2.192079 1_455
Li2 O9 2.192079 1_565
Li2 O9 2.192083 1_555
Li3 O10 2.169202 1_655
Li3 O10 2.169204 1_665
Li3 O10 2.169204 1_555
Li3 O2 2.192079 1_655
Li3 O2 2.192079 1_545
Li3 O2 2.192083 1_555
Li4 O3 2.090105 1_455
Li4 O3 2.090107 1_445
Li4 O3 2.090107 1_555
Li4 O11 2.238810 1_545
Li4 O11 2.238812 1_445
Li4 O11 2.238812 1_555
Li5 O6 1.944479 1_455
Li5 O6 1.944479 1_565
Li5 O6 1.944484 1_555
Li5 O4 2.414527 1_565
Li5 O4 2.414529 1_555
Li5 O4 2.414529 1_665
Li6 O5 2.114386 1_545
Li6 O6 2.114386 1_454
Li6 O5 2.114388 1_555
Li6 O5 2.114388 1_445
Li6 O6 2.114388 1_554
Li6 O6 2.114388 1_444
Mn0 O4 1.984690 1_655
Mn0 O4 1.984692 1_555
Mn0 O4 1.984692 1_665
Mn0 O11 2.033015 1_655
Mn0 O11 2.033015 1_545
Mn0 O11 2.033019 1_555
Mn1 O7 1.984690 1_565
Mn1 O7 1.984692 1_665
Mn1 O7 1.984692 1_555
Mn1 O0 2.033015 1_455
Mn1 O0 2.033015 1_565
Mn1 O0 2.033019 1_555
Co0 O1 2.015353 1_655
Co0 O1 2.015355 1_665
Co0 O1 2.015355 1_555
Co0 O8 2.034546 1_545
Co0 O8 2.034546 1_655
Co0 O8 2.034550 1_555
Co1 O2 2.014124 1_545
Co1 O9 2.014124 1_455
Co1 O2 2.014126 1_555
Co1 O9 2.014126 1_555
Co1 O2 2.014126 1_445
Co1 O9 2.014126 1_445
Co2 O10 2.015353 1_565
Co2 O10 2.015355 1_665
Co2 O10 2.015355 1_555
Co2 O3 2.034546 1_455
Co2 O3 2.034546 1_565
Co2 O3 2.034550 1_555
