# generated using pymatgen
data_BaCoN2
_symmetry_space_group_name_H-M   'P 1'
_cell_length_a   6.42570507
_cell_length_b   11.47366370
_cell_length_c   7.69218600
_cell_angle_alpha   90.00000000
_cell_angle_beta   90.00000000
_cell_angle_gamma   26.77351758
_symmetry_Int_Tables_number   1
_chemical_formula_structural   BaCoN2
_chemical_formula_sum   'Ba4 Co4 N8'
_cell_volume   255.46633172
_cell_formula_units_Z   4
loop_
 _symmetry_equiv_pos_site_id
 _symmetry_equiv_pos_as_xyz
  1  'x, y, z'
loop_
 _atom_site_type_symbol
 _atom_site_label
 _atom_site_symmetry_multiplicity
 _atom_site_fract_x
 _atom_site_fract_y
 _atom_site_fract_z
 _atom_site_occupancy
  Ba  Ba0  1  0.00000000  0.15870700  0.55975400  1
  Ba  Ba1  1  0.00000000  0.84129300  0.44024600  1
  Ba  Ba2  1  0.00000000  0.34129300  0.05975400  1
  Ba  Ba3  1  0.00000000  0.65870700  0.94024600  1
  Co  Co0  1  0.00000000  0.44693800  0.63410000  1
  Co  Co1  1  0.00000000  0.55306200  0.36590000  1
  Co  Co2  1  0.00000000  0.05306200  0.13410000  1
  Co  Co3  1  0.00000000  0.94693800  0.86590000  1
  N  N0  1  0.00000000  0.11076700  0.91205200  1
  N  N1  1  0.00000000  0.88923300  0.08794800  1
  N  N2  1  0.00000000  0.38923300  0.41205200  1
  N  N3  1  0.00000000  0.61076700  0.58794800  1
  N  N4  1  0.50000000  0.65438500  0.75000000  1
  N  N5  1  0.50000000  0.84561500  0.25000000  1
  N  N6  1  0.50000000  0.34561500  0.25000000  1
  N  N7  1  0.50000000  0.15438500  0.75000000  1
loop_
_geom_bond_atom_site_label_1
_geom_bond_atom_site_label_2
_geom_bond_distance
_geom_bond_site_symmetry_2
Ba0 N0 2.765201 1_555
Ba0 N2 2.878671 1_555
Ba0 N6 2.880248 1_455
Ba0 N5 2.880248 1_545
Ba0 N3 2.954325 1_455
Ba0 N3 2.954325 1_645
Ba1 N1 2.765201 1_555
Ba1 N3 2.878671 1_555
Ba1 N4 2.880248 1_555
Ba1 N7 2.880248 1_465
Ba1 N2 2.954325 1_655
Ba1 N2 2.954325 1_465
Ba2 N2 2.765201 1_555
Ba2 N0 2.878671 1_554
Ba2 N7 2.880248 1_554
Ba2 N4 2.880248 1_454
Ba2 N1 2.954325 1_645
Ba2 N1 2.954325 1_455
Ba3 N3 2.765201 1_555
Ba3 N1 2.878671 1_556
Ba3 N5 2.880248 1_456
Ba3 N6 2.880248 1_556
Ba3 N0 2.954325 1_465
Ba3 N0 2.954325 1_655
Co0 N4 1.768560 1_455
Co0 N7 1.768560 1_555
Co0 N2 1.831868 1_555
Co0 N3 1.912949 1_555
Co1 N6 1.768560 1_555
Co1 N5 1.768560 1_455
Co1 N3 1.831868 1_555
Co1 N2 1.912949 1_555
Co2 N5 1.768560 1_545
Co2 N6 1.768560 1_455
Co2 N0 1.831868 1_554
Co2 N1 1.912949 1_545
Co3 N7 1.768560 1_465
Co3 N4 1.768560 1_555
Co3 N1 1.831868 1_556
Co3 N0 1.912949 1_565
