# generated using pymatgen
data_HoCrTeO6
_symmetry_space_group_name_H-M   'P 1'
_cell_length_a   5.19590055
_cell_length_b   5.19574461
_cell_length_c   9.73057700
_cell_angle_alpha   90.00185226
_cell_angle_beta   89.99907256
_cell_angle_gamma   119.99901423
_symmetry_Int_Tables_number   1
_chemical_formula_structural   HoCrTeO6
_chemical_formula_sum   'Ho2 Cr2 Te2 O12'
_cell_volume   227.50040033
_cell_formula_units_Z   2
loop_
 _symmetry_equiv_pos_site_id
 _symmetry_equiv_pos_as_xyz
  1  'x, y, z'
loop_
 _atom_site_type_symbol
 _atom_site_label
 _atom_site_symmetry_multiplicity
 _atom_site_fract_x
 _atom_site_fract_y
 _atom_site_fract_z
 _atom_site_occupancy
  Ho  Ho0  1  0.00000000  0.00000000  0.00000000  1
  Ho  Ho1  1  0.00000000  0.00000000  0.50000000  1
  Cr  Cr0  1  0.33331100  0.66665500  0.25000000  1
  Cr  Cr1  1  0.66668900  0.33334500  0.75000000  1
  Te  Te0  1  0.33333200  0.66666600  0.75000000  1
  Te  Te1  1  0.66666800  0.33333400  0.25000000  1
  O  O0  1  0.36343000  0.35338800  0.13883000  1
  O  O1  1  0.64658100  0.01001000  0.13883400  1
  O  O2  1  0.98996500  0.63655300  0.13883300  1
  O  O3  1  0.63657000  0.64661200  0.86117000  1
  O  O4  1  0.35341900  0.98999000  0.86116600  1
  O  O5  1  0.01003500  0.36344700  0.86116700  1
  O  O6  1  0.64658100  0.63657200  0.36116600  1
  O  O7  1  0.36343000  0.01004200  0.36117000  1
  O  O8  1  0.98996500  0.35341200  0.36116700  1
  O  O9  1  0.35341900  0.36342800  0.63883400  1
  O  O10  1  0.63657000  0.98995800  0.63883000  1
  O  O11  1  0.01003500  0.64658800  0.63883300  1
loop_
_geom_bond_atom_site_label_1
_geom_bond_atom_site_label_2
_geom_bond_distance
_geom_bond_site_symmetry_2
Ho0 O3 2.301063 1_444
Ho0 O0 2.301063 1_555
Ho0 O1 2.301142 1_455
Ho0 O4 2.301142 1_544
Ho0 O5 2.301172 1_554
Ho0 O2 2.301172 1_445
Ho1 O10 2.301063 1_445
Ho1 O7 2.301063 1_555
Ho1 O9 2.301140 1_555
Ho1 O6 2.301140 1_445
Ho1 O11 2.301172 1_545
Ho1 O8 2.301172 1_455
Cr0 O8 2.024410 1_455
Cr0 O2 2.024412 1_455
Cr0 O6 2.024469 1_555
Cr0 O1 2.024474 1_565
Cr0 O0 2.024482 1_555
Cr0 O7 2.024486 1_565
Cr1 O11 2.024410 1_655
Cr1 O5 2.024412 1_655
Cr1 O9 2.024469 1_555
Cr1 O4 2.024474 1_545
Cr1 O3 2.024482 1_555
Cr1 O10 2.024486 1_545
O0 Te1 1.956467 1_555
O1 Te1 1.956436 1_555
O2 Te1 1.956427 1_555
O3 Te0 1.956467 1_555
O4 Te0 1.956436 1_555
O5 Te0 1.956427 1_555
O6 Te1 1.956440 1_555
O7 Te1 1.956466 1_555
O8 Te1 1.956428 1_555
O9 Te0 1.956440 1_555
O10 Te0 1.956466 1_555
O11 Te0 1.956428 1_555
