# generated using pymatgen
data_K2Al2O2F9
_symmetry_space_group_name_H-M   'P 1'
_cell_length_a   11.01362100
_cell_length_b   3.78041300
_cell_length_c   11.19621067
_cell_angle_alpha   89.92091016
_cell_angle_beta   90.00000000
_cell_angle_gamma   90.00000000
_symmetry_Int_Tables_number   1
_chemical_formula_structural   K2Al2O2F9
_chemical_formula_sum   'K4 Al4 O4 F18'
_cell_volume   466.16538632
_cell_formula_units_Z   2
loop_
 _symmetry_equiv_pos_site_id
 _symmetry_equiv_pos_as_xyz
  1  'x, y, z'
loop_
 _atom_site_type_symbol
 _atom_site_label
 _atom_site_symmetry_multiplicity
 _atom_site_fract_x
 _atom_site_fract_y
 _atom_site_fract_z
 _atom_site_occupancy
  K  K0  1  0.81718300  0.99952700  0.85478000  1
  K  K1  1  0.18281700  0.00047300  0.14522000  1
  K  K2  1  0.68281700  0.99952700  0.35478000  1
  K  K3  1  0.31718300  0.00047300  0.64522000  1
  Al  Al0  1  0.60669400  0.49928000  0.63141100  1
  Al  Al1  1  0.39330600  0.50072000  0.36858900  1
  Al  Al2  1  0.89330600  0.49928000  0.13141100  1
  Al  Al3  1  0.10669400  0.50072000  0.86858900  1
  O  O0  1  0.93538800  0.38861300  0.56879800  1
  O  O1  1  0.43538800  0.61138700  0.93120200  1
  O  O2  1  0.06461200  0.61138700  0.43120200  1
  O  O3  1  0.56461200  0.38861300  0.06879800  1
  F  F0  1  0.60026200  0.99954000  0.62099800  1
  F  F1  1  0.39973800  0.00046000  0.37900200  1
  F  F2  1  0.89973800  0.99954000  0.12099800  1
  F  F3  1  0.10026200  0.00046000  0.87900200  1
  F  F4  1  0.70343500  0.49950700  0.75426100  1
  F  F5  1  0.29656500  0.50049300  0.24573900  1
  F  F6  1  0.79656500  0.49950700  0.25426100  1
  F  F7  1  0.20343500  0.50049300  0.74573900  1
  F  F8  1  0.47226900  0.49855400  0.72562400  1
  F  F9  1  0.52773100  0.50144600  0.27437600  1
  F  F10  1  0.02773100  0.49855400  0.22562400  1
  F  F11  1  0.97226900  0.50144600  0.77437600  1
  F  F12  1  0.73233500  0.50126400  0.52418400  1
  F  F13  1  0.26766500  0.49873600  0.47581600  1
  F  F14  1  0.76766500  0.50126400  0.02418400  1
  F  F15  1  0.23233500  0.49873600  0.97581600  1
  F  F16  1  0.50000000  0.50000000  0.50000000  1
  F  F17  1  0.00000000  0.50000000  0.00000000  1
loop_
_geom_bond_atom_site_label_1
_geom_bond_atom_site_label_2
_geom_bond_distance
_geom_bond_site_symmetry_2
Al0 F4 1.739857 1_555
Al0 F8 1.817845 1_555
Al0 F12 1.831971 1_555
Al0 F16 1.882967 1_555
Al0 F0 1.894303 1_545
Al0 F0 1.895943 1_555
Al1 F5 1.739857 1_555
Al1 F9 1.817845 1_555
Al1 F13 1.831971 1_555
Al1 F16 1.882967 1_555
Al1 F1 1.894303 1_565
Al1 F1 1.895943 1_555
Al2 F6 1.739857 1_555
Al2 F10 1.817845 1_655
Al2 F14 1.831971 1_555
Al2 F17 1.882967 1_655
Al2 F2 1.894303 1_545
Al2 F2 1.895943 1_555
Al3 F7 1.739857 1_555
Al3 F11 1.817845 1_455
Al3 F15 1.831971 1_555
Al3 F17 1.882967 1_556
Al3 F3 1.894303 1_565
Al3 F3 1.895943 1_555
F4 K0 2.530370 1_545
F4 K0 2.532802 1_555
F5 K1 2.530370 1_565
F5 K1 2.532802 1_555
F6 K2 2.530370 1_545
F6 K2 2.532802 1_555
F7 K3 2.530370 1_565
F7 K3 2.532802 1_555
F8 K3 2.697786 1_555
F8 K3 2.706197 1_565
F9 K2 2.697786 1_555
F9 K2 2.706197 1_545
F10 K1 2.697786 1_555
F10 K1 2.706197 1_565
F11 K0 2.697786 1_555
F11 K0 2.706197 1_545
F12 K2 2.726366 1_555
F12 K2 2.739072 1_545
F13 K3 2.726366 1_555
F13 K3 2.739072 1_565
F14 K0 2.726366 1_554
F14 K0 2.739072 1_544
F15 K1 2.726366 1_556
F15 K1 2.739072 1_566
