# generated using pymatgen
data_Ti2CrFe3(PO4)6
_symmetry_space_group_name_H-M   'P 1'
_cell_length_a   8.32878547
_cell_length_b   8.32878490
_cell_length_c   8.32878552
_cell_angle_alpha   63.33651833
_cell_angle_beta   63.33651453
_cell_angle_gamma   63.33651756
_symmetry_Int_Tables_number   1
_chemical_formula_structural   Ti2CrFe3(PO4)6
_chemical_formula_sum   'Ti2 Cr1 Fe3 P6 O24'
_cell_volume   438.71729915
_cell_formula_units_Z   1
loop_
 _symmetry_equiv_pos_site_id
 _symmetry_equiv_pos_as_xyz
  1  'x, y, z'
loop_
 _atom_site_type_symbol
 _atom_site_label
 _atom_site_symmetry_multiplicity
 _atom_site_fract_x
 _atom_site_fract_y
 _atom_site_fract_z
 _atom_site_occupancy
  Ti  Ti0  1  0.00605200  0.00605200  0.00605200  1
  Ti  Ti1  1  0.49606200  0.49606200  0.49606200  1
  Cr  Cr0  1  0.85995800  0.85995800  0.85995800  1
  Fe  Fe0  1  0.14400900  0.14400900  0.14400900  1
  Fe  Fe1  1  0.35488100  0.35488100  0.35488100  1
  Fe  Fe2  1  0.64497700  0.64497700  0.64497700  1
  P  P0  1  0.04427600  0.74888600  0.45855500  1
  P  P1  1  0.45855500  0.04427600  0.74888600  1
  P  P2  1  0.74888600  0.45855500  0.04427600  1
  P  P3  1  0.24930200  0.54856900  0.94985400  1
  P  P4  1  0.54856900  0.94985400  0.24930200  1
  P  P5  1  0.94985400  0.24930200  0.54856900  1
  O  O0  1  0.09997900  0.32605000  0.51256700  1
  O  O1  1  0.32605000  0.51256700  0.09997900  1
  O  O2  1  0.05846100  0.89518600  0.25169700  1
  O  O3  1  0.51256700  0.09997900  0.32605000  1
  O  O4  1  0.00359400  0.82557600  0.61068400  1
  O  O5  1  0.25077800  0.60429200  0.43967200  1
  O  O6  1  0.25169700  0.05846100  0.89518600  1
  O  O7  1  0.43967200  0.25077800  0.60429200  1
  O  O8  1  0.17139300  0.39809000  0.98862900  1
  O  O9  1  0.60429200  0.43967200  0.25077800  1
  O  O10  1  0.09916900  0.75700600  0.93358100  1
  O  O11  1  0.39809000  0.98862900  0.17139300  1
  O  O12  1  0.61068400  0.00359400  0.82557600  1
  O  O13  1  0.89518600  0.25169700  0.05846100  1
  O  O14  1  0.39942100  0.56433700  0.74236600  1
  O  O15  1  0.82557600  0.61068400  0.00359400  1
  O  O16  1  0.56433700  0.74236600  0.39942100  1
  O  O17  1  0.75700600  0.93358100  0.09916900  1
  O  O18  1  0.74236600  0.39942100  0.56433700  1
  O  O19  1  0.98862900  0.17139300  0.39809000  1
  O  O20  1  0.49904800  0.89255100  0.67048900  1
  O  O21  1  0.93358100  0.09916900  0.75700600  1
  O  O22  1  0.67048900  0.49904800  0.89255100  1
  O  O23  1  0.89255100  0.67048900  0.49904800  1
loop_
_geom_bond_atom_site_label_1
_geom_bond_atom_site_label_2
_geom_bond_distance
_geom_bond_site_symmetry_2
Cr0 O15 1.954622 1_556
Cr0 O4 1.954622 1_655
Cr0 O12 1.954623 1_565
Cr0 O21 2.042539 1_565
Cr0 O17 2.042539 1_556
Cr0 O10 2.042539 1_655
Fe0 O8 1.978736 1_554
Fe0 O19 1.978736 1_455
Fe0 O11 1.978736 1_545
Fe0 O2 2.165734 1_545
Fe0 O6 2.165734 1_554
Fe0 O13 2.165734 1_455
Fe1 O3 1.990426 1_555
Fe1 O0 1.990426 1_555
Fe1 O1 1.990426 1_555
Fe1 O5 2.171684 1_555
Fe1 O9 2.171684 1_555
Fe1 O7 2.171684 1_555
Fe2 O20 1.919985 1_555
Fe2 O23 1.919985 1_555
Fe2 O22 1.919985 1_555
Fe2 O18 2.132323 1_555
Fe2 O14 2.132323 1_555
Fe2 O16 2.132323 1_555
O0 P5 1.506890 1_455
O1 P3 1.506890 1_554
O2 P0 1.590403 1_555
O2 Ti0 1.993293 1_565
O3 P4 1.506890 1_545
O4 P0 1.508312 1_555
O5 P0 1.581581 1_555
O5 Ti1 2.008742 1_555
O6 P1 1.590403 1_555
O6 Ti0 1.993293 1_556
O7 P1 1.581581 1_555
O7 Ti1 2.008742 1_555
O8 P3 1.508205 1_555
O9 P2 1.581581 1_555
O9 Ti1 2.008742 1_555
O10 P3 1.608847 1_555
O10 Ti0 2.127925 1_566
O11 P4 1.508205 1_555
O12 P1 1.508312 1_555
O13 P2 1.590403 1_555
O13 Ti0 1.993293 1_655
O14 P3 1.603557 1_555
O14 Ti1 2.081767 1_555
O15 P2 1.508312 1_555
O16 P4 1.603557 1_555
O16 Ti1 2.081767 1_555
O17 P4 1.608847 1_555
O17 Ti0 2.127925 1_665
O18 P5 1.603557 1_555
O18 Ti1 2.081767 1_555
O19 P5 1.508205 1_555
O20 P1 1.515716 1_565
O21 P5 1.608847 1_555
O21 Ti0 2.127926 1_656
O22 P2 1.515716 1_556
O23 P0 1.515716 1_655
