# generated using pymatgen
data_DyHSe
_symmetry_space_group_name_H-M   'P 1'
_cell_length_a   3.82685996
_cell_length_b   3.82685996
_cell_length_c   3.90631106
_cell_angle_alpha   90.00000000
_cell_angle_beta   90.00000000
_cell_angle_gamma   120.00000131
_symmetry_Int_Tables_number   1
_chemical_formula_structural   DyHSe
_chemical_formula_sum   'Dy1 H1 Se1'
_cell_volume   49.54303275
_cell_formula_units_Z   1
loop_
 _symmetry_equiv_pos_site_id
 _symmetry_equiv_pos_as_xyz
  1  'x, y, z'
loop_
 _atom_site_type_symbol
 _atom_site_label
 _atom_site_symmetry_multiplicity
 _atom_site_fract_x
 _atom_site_fract_y
 _atom_site_fract_z
 _atom_site_occupancy
  Dy  Dy0  1  0.00000000  0.00000000  0.00000000  1
  H  H0  1  0.33333300  0.66666700  -0.00000000  1
  Se  Se0  1  0.66666700  0.33333300  0.50000000  1
loop_
_geom_bond_atom_site_label_1
_geom_bond_atom_site_label_2
_geom_bond_distance
_geom_bond_site_symmetry_2
Dy0 H0 2.209436 1_545
Dy0 H0 2.209440 1_555
Dy0 H0 2.209440 1_445
Dy0 Se0 2.948970 1_455
Dy0 Se0 2.948970 1_454
Dy0 Se0 2.948973 1_444
Dy0 Se0 2.948973 1_445
Dy0 Se0 2.948973 1_555
Dy0 Se0 2.948973 1_554
