# generated using pymatgen
data_La6Mn9Al5
_symmetry_space_group_name_H-M   'P 1'
_cell_length_a   8.30043500
_cell_length_b   8.30043500
_cell_length_c   13.14734271
_cell_angle_alpha   108.40124894
_cell_angle_beta   108.40124894
_cell_angle_gamma   90.00000000
_symmetry_Int_Tables_number   1
_chemical_formula_structural   La6Mn9Al5
_chemical_formula_sum   'La12 Mn18 Al10'
_cell_volume   810.54294332
_cell_formula_units_Z   2
loop_
 _symmetry_equiv_pos_site_id
 _symmetry_equiv_pos_as_xyz
  1  'x, y, z'
loop_
 _atom_site_type_symbol
 _atom_site_label
 _atom_site_symmetry_multiplicity
 _atom_site_fract_x
 _atom_site_fract_y
 _atom_site_fract_z
 _atom_site_occupancy
  La  La0  1  0.35772800  0.85772800  0.38093400  1
  La  La1  1  0.64227200  0.14227200  0.61906600  1
  La  La2  1  0.02320600  0.52320600  0.38093400  1
  La  La3  1  0.52320600  0.35772800  0.38093400  1
  La  La4  1  0.14227200  0.97679400  0.61906600  1
  La  La5  1  0.97679400  0.47679400  0.61906600  1
  La  La6  1  0.47679400  0.64227200  0.61906600  1
  La  La7  1  0.85772800  0.02320600  0.38093400  1
  La  La8  1  0.10665900  0.10665900  0.21331800  1
  La  La9  1  0.89334100  0.89334100  0.78668200  1
  La  La10  1  0.39334100  0.39334100  0.78668200  1
  La  La11  1  0.60665900  0.60665900  0.21331800  1
  Mn  Mn0  1  0.07026600  0.21058300  0.00000000  1
  Mn  Mn1  1  0.92973400  0.78941700  0.00000000  1
  Mn  Mn2  1  0.78941700  0.07026600  0.00000000  1
  Mn  Mn3  1  0.42973400  0.71058300  0.00000000  1
  Mn  Mn4  1  0.21058300  0.92973400  0.00000000  1
  Mn  Mn5  1  0.57026600  0.28941700  0.00000000  1
  Mn  Mn6  1  0.71058300  0.57026600  0.00000000  1
  Mn  Mn7  1  0.28941700  0.42973400  0.00000000  1
  Mn  Mn8  1  0.22799500  0.72799500  0.10707500  1
  Mn  Mn9  1  0.77200500  0.27200500  0.89292500  1
  Mn  Mn10  1  0.87908000  0.37908000  0.10707500  1
  Mn  Mn11  1  0.37908000  0.22799500  0.10707500  1
  Mn  Mn12  1  0.27200500  0.12092000  0.89292500  1
  Mn  Mn13  1  0.12092000  0.62092000  0.89292500  1
  Mn  Mn14  1  0.62092000  0.77200500  0.89292500  1
  Mn  Mn15  1  0.72799500  0.87908000  0.10707500  1
  Mn  Mn16  1  0.00000000  0.50000000  0.00000000  1
  Mn  Mn17  1  0.50000000  0.00000000  0.00000000  1
  Al  Al0  1  0.71438000  0.21438000  0.18653500  1
  Al  Al1  1  0.28562000  0.78562000  0.81346500  1
  Al  Al2  1  0.47215500  0.97215500  0.18653500  1
  Al  Al3  1  0.97215500  0.71438000  0.18653500  1
  Al  Al4  1  0.78562000  0.52784500  0.81346500  1
  Al  Al5  1  0.52784500  0.02784500  0.81346500  1
  Al  Al6  1  0.02784500  0.28562000  0.81346500  1
  Al  Al7  1  0.21438000  0.47215500  0.18653500  1
  Al  Al8  1  0.25000000  0.25000000  0.50000000  1
  Al  Al9  1  0.75000000  0.75000000  0.50000000  1
loop_
_geom_bond_atom_site_label_1
_geom_bond_atom_site_label_2
_geom_bond_distance
_geom_bond_site_symmetry_2
La0 Mn8 3.222928 1_555
La0 La1 3.409058 1_565
La0 La11 3.666597 1_555
La0 La8 3.666597 1_565
La0 La2 3.926816 1_555
La0 La6 3.944413 1_555
La0 La4 3.944413 1_555
La1 Mn9 3.222928 1_555
La1 La9 3.666597 1_545
La1 La10 3.666597 1_555
La1 La5 3.926816 1_555
La1 La7 3.944413 1_555
La1 La3 3.944413 1_555
La2 Mn10 3.222928 1_455
La2 La5 3.409058 1_455
La2 La8 3.666597 1_555
La2 La4 3.944413 1_555
La2 La6 3.944413 1_555
La3 Mn11 3.222928 1_555
La3 La6 3.409058 1_555
La3 La8 3.666597 1_555
La3 La7 3.926816 1_555
La3 La5 3.944413 1_555
La4 Mn12 3.222928 1_565
La4 La7 3.409058 1_465
La4 La9 3.666597 1_455
La4 La6 3.926816 1_555
La5 Mn13 3.222928 1_655
La5 La9 3.666597 1_555
La5 La7 3.944413 1_555
La6 Mn14 3.222928 1_555
La6 La9 3.666597 1_555
La7 Mn15 3.222928 1_545
La7 La8 3.666597 1_655
La8 Mn1 3.113429 1_445
La8 Mn2 3.113429 1_455
La8 Mn4 3.113429 1_545
La8 Mn0 3.113429 1_555
La8 Mn15 3.310702 1_445
La8 Mn8 3.310702 1_545
La8 Mn10 3.310702 1_455
La8 Mn11 3.310702 1_555
La9 Mn0 3.113429 1_666
La9 Mn4 3.113429 1_656
La9 Mn2 3.113429 1_566
La9 Mn1 3.113429 1_556
La9 Mn12 3.310702 1_665
La9 Mn9 3.310702 1_565
La9 Mn13 3.310702 1_655
La9 Mn14 3.310702 1_555
La10 Mn6 3.113429 1_556
La10 Mn3 3.113429 1_556
La10 Mn5 3.113429 1_556
La10 Mn7 3.113429 1_556
La10 Mn14 3.310702 1_555
La10 Mn9 3.310702 1_555
La10 Mn13 3.310702 1_555
La10 Mn12 3.310702 1_555
La10 La4 3.666597 1_545
La10 La5 3.666597 1_455
La10 La6 3.666597 1_555
La11 Mn7 3.113429 1_555
La11 Mn5 3.113429 1_555
La11 Mn3 3.113429 1_555
La11 Mn6 3.113429 1_555
La11 Mn11 3.310702 1_555
La11 Mn8 3.310702 1_555
La11 Mn10 3.310702 1_555
La11 Mn15 3.310702 1_555
La11 La7 3.666597 1_565
La11 La2 3.666597 1_655
La11 La3 3.666597 1_555
Mn0 Mn16 2.472074 1_555
Mn0 Mn11 2.483241 1_555
Mn0 Mn12 2.483241 1_554
Mn0 Mn7 2.572523 1_555
Mn0 Mn9 2.573628 1_454
Mn0 Mn10 2.573628 1_455
Mn0 Mn4 2.605927 1_545
Mn0 Mn2 2.605927 1_455
Mn1 Mn16 2.472074 1_655
Mn1 Mn14 2.483241 1_554
Mn1 Mn15 2.483241 1_555
Mn1 Mn6 2.572523 1_555
Mn1 Mn8 2.573628 1_655
Mn1 Mn13 2.573628 1_654
Mn1 Mn4 2.605927 1_655
Mn1 Mn2 2.605927 1_565
Mn2 Mn9 2.483241 1_554
Mn2 Mn5 2.572523 1_555
Mn3 Mn8 2.483241 1_555
Mn3 Mn4 2.572523 1_555
Mn3 Mn7 2.605927 1_555
Mn3 Mn6 2.605927 1_555
Mn4 Mn8 2.483241 1_555
Mn5 Mn9 2.483241 1_554
Mn5 Mn7 2.605927 1_555
Mn5 Mn6 2.605927 1_555
Mn6 Mn9 2.573628 1_554
Mn7 Mn8 2.573628 1_555
Mn10 Mn16 2.404296 1_655
Mn10 Mn2 2.483241 1_555
Mn10 Mn5 2.483241 1_555
Mn10 Mn9 2.519373 1_554
Mn10 Mn6 2.573628 1_555
Mn11 Mn17 2.404296 1_555
Mn11 Mn7 2.483241 1_555
Mn11 Mn12 2.519373 1_554
Mn11 Mn4 2.573628 1_545
Mn11 Mn5 2.573628 1_555
Mn12 Mn17 2.404296 1_556
Mn12 Mn7 2.483241 1_556
Mn12 Mn5 2.573628 1_556
Mn12 Mn4 2.573628 1_546
Mn13 Mn16 2.404296 1_556
Mn13 Mn4 2.483241 1_556
Mn13 Mn3 2.483241 1_556
Mn13 Mn8 2.519373 1_556
Mn13 Mn7 2.573628 1_556
Mn14 Mn17 2.404296 1_566
Mn14 Mn6 2.483241 1_556
Mn14 Mn15 2.519373 1_556
Mn14 Mn2 2.573628 1_566
Mn14 Mn3 2.573628 1_556
Mn15 Mn17 2.404296 1_565
Mn15 Mn6 2.483241 1_555
Mn15 Mn3 2.573628 1_555
Mn15 Mn2 2.573628 1_565
Mn16 Mn8 2.404296 1_555
Mn16 Mn9 2.404296 1_454
Mn16 Mn6 2.472074 1_455
Mn16 Mn7 2.472074 1_555
Mn17 Mn2 2.472074 1_555
Mn17 Mn5 2.472074 1_555
Mn17 Mn3 2.472074 1_545
Mn17 Mn4 2.472074 1_545
Al0 Mn10 2.575368 1_555
Al0 Mn17 2.614768 1_555
Al0 Mn2 2.635440 1_555
Al0 Mn5 2.635440 1_555
Al0 Mn15 2.662499 1_545
Al0 Mn11 2.662499 1_555
Al0 Al2 2.843379 1_545
Al0 La8 3.316696 1_655
Al0 La11 3.316696 1_555
Al0 La3 3.332656 1_555
Al0 La7 3.332656 1_555
Al0 La2 3.376633 1_655
Al1 Mn13 2.575368 1_555
Al1 Mn17 2.614768 1_566
Al1 Mn4 2.635440 1_556
Al1 Mn3 2.635440 1_556
Al1 Mn12 2.662499 1_565
Al1 Mn14 2.662499 1_555
Al1 Al5 2.843379 1_565
Al1 La10 3.316696 1_555
Al1 La9 3.316696 1_455
Al1 La4 3.332656 1_555
Al1 La6 3.332656 1_555
Al1 La5 3.376633 1_455
Al2 Mn8 2.575368 1_555
Al2 Mn17 2.614768 1_565
Al2 Mn3 2.635440 1_555
Al2 Mn4 2.635440 1_555
Al2 Mn11 2.662499 1_565
Al2 Mn15 2.662499 1_555
Al2 La11 3.316696 1_555
Al2 La8 3.316696 1_565
Al2 La7 3.332656 1_565
Al2 La3 3.332656 1_565
Al2 La0 3.376633 1_555
Al3 Mn15 2.575368 1_555
Al3 Mn16 2.614768 1_655
Al3 Mn6 2.635440 1_555
Al3 Mn1 2.635440 1_555
Al3 Mn10 2.662499 1_555
Al3 Mn8 2.662499 1_655
Al3 Al7 2.843379 1_655
Al3 La8 3.316696 1_665
Al3 La11 3.316696 1_555
Al3 La0 3.332656 1_655
Al3 La2 3.332656 1_655
Al3 La7 3.376633 1_565
Al4 Mn14 2.575368 1_555
Al4 Mn16 2.614768 1_656
Al4 Mn1 2.635440 1_556
Al4 Mn6 2.635440 1_556
Al4 Mn13 2.662499 1_655
Al4 Mn9 2.662499 1_555
Al4 Al6 2.843379 1_655
Al4 La10 3.316696 1_555
Al4 La9 3.316696 1_555
Al4 La1 3.332656 1_555
Al4 La5 3.332656 1_555
Al4 La6 3.376633 1_555
Al5 Mn9 2.575368 1_555
Al5 Mn17 2.614768 1_556
Al5 Mn2 2.635440 1_556
Al5 Mn5 2.635440 1_556
Al5 Mn14 2.662499 1_545
Al5 Mn12 2.662499 1_555
Al5 La9 3.316696 1_545
Al5 La10 3.316696 1_555
Al5 La6 3.332656 1_545
Al5 La4 3.332656 1_545
Al5 La1 3.376633 1_555
Al6 Mn12 2.575368 1_555
Al6 Mn16 2.614768 1_556
Al6 Mn7 2.635440 1_556
Al6 Mn0 2.635440 1_556
Al6 Mn13 2.662499 1_555
Al6 Mn9 2.662499 1_455
Al6 La9 3.316696 1_445
Al6 La10 3.316696 1_555
Al6 La1 3.332656 1_455
Al6 La5 3.332656 1_455
Al6 La4 3.376633 1_545
Al7 Mn11 2.575368 1_555
Al7 Mn16 2.614768 1_555
Al7 Mn0 2.635440 1_555
Al7 Mn7 2.635440 1_555
Al7 Mn10 2.662499 1_455
Al7 Mn8 2.662499 1_555
Al7 La11 3.316696 1_555
Al7 La8 3.316696 1_555
Al7 La0 3.332656 1_555
Al7 La2 3.332656 1_555
Al7 La3 3.376633 1_555
Al8 La10 3.372677 1_555
Al8 La8 3.372677 1_555
Al8 La6 3.393755 1_555
Al8 La7 3.393755 1_455
Al8 La1 3.393755 1_555
Al8 La0 3.393755 1_545
Al8 La2 3.393755 1_555
Al8 La5 3.393755 1_455
Al8 La3 3.393755 1_555
Al8 La4 3.393755 1_545
Al9 La9 3.372677 1_555
Al9 La11 3.372677 1_555
Al9 La4 3.393755 1_655
Al9 La3 3.393755 1_555
Al9 La1 3.393755 1_565
Al9 La0 3.393755 1_555
Al9 La2 3.393755 1_655
Al9 La5 3.393755 1_555
Al9 La7 3.393755 1_565
Al9 La6 3.393755 1_555
