# generated using pymatgen
data_ScRhO3
_symmetry_space_group_name_H-M   'P 1'
_cell_length_a   5.12282800
_cell_length_b   5.54180700
_cell_length_c   7.57429700
_cell_angle_alpha   90.00000000
_cell_angle_beta   90.00000000
_cell_angle_gamma   90.00000000
_symmetry_Int_Tables_number   1
_chemical_formula_structural   ScRhO3
_chemical_formula_sum   'Sc4 Rh4 O12'
_cell_volume   215.03220186
_cell_formula_units_Z   4
loop_
 _symmetry_equiv_pos_site_id
 _symmetry_equiv_pos_as_xyz
  1  'x, y, z'
loop_
 _atom_site_type_symbol
 _atom_site_label
 _atom_site_symmetry_multiplicity
 _atom_site_fract_x
 _atom_site_fract_y
 _atom_site_fract_z
 _atom_site_occupancy
  Sc  Sc0  1  0.53396400  0.08069700  0.25000000  1
  Sc  Sc1  1  0.46603600  0.91930300  0.75000000  1
  Sc  Sc2  1  0.96603600  0.58069700  0.25000000  1
  Sc  Sc3  1  0.03396400  0.41930300  0.75000000  1
  Rh  Rh0  1  0.50000000  0.50000000  0.50000000  1
  Rh  Rh1  1  0.50000000  0.50000000  0.00000000  1
  Rh  Rh2  1  0.00000000  0.00000000  0.50000000  1
  Rh  Rh3  1  0.00000000  0.00000000  0.00000000  1
  O  O0  1  0.15414600  0.92785200  0.25000000  1
  O  O1  1  0.84585400  0.07214800  0.75000000  1
  O  O2  1  0.34585400  0.42785200  0.25000000  1
  O  O3  1  0.65414600  0.57214800  0.75000000  1
  O  O4  1  0.17191000  0.68387700  0.57694300  1
  O  O5  1  0.82809000  0.31612300  0.07694300  1
  O  O6  1  0.82809000  0.31612300  0.42305700  1
  O  O7  1  0.17191000  0.68387700  0.92305700  1
  O  O8  1  0.67191000  0.81612300  0.42305700  1
  O  O9  1  0.32809000  0.18387700  0.92305700  1
  O  O10  1  0.32809000  0.18387700  0.57694300  1
  O  O11  1  0.67191000  0.81612300  0.07694300  1
loop_
_geom_bond_atom_site_label_1
_geom_bond_atom_site_label_2
_geom_bond_distance
_geom_bond_site_symmetry_2
O0 Rh3 2.090229 1_565
O0 Rh2 2.090229 1_565
O0 Sc0 2.122118 1_565
O0 Sc2 2.151718 1_455
O1 Rh3 2.090229 1_656
O1 Rh2 2.090229 1_655
O1 Sc1 2.122118 1_545
O1 Sc3 2.151718 1_655
O2 Rh0 2.090229 1_555
O2 Rh1 2.090229 1_555
O2 Sc2 2.122118 1_455
O2 Sc0 2.151718 1_555
O3 Rh0 2.090229 1_555
O3 Rh1 2.090229 1_556
O3 Sc3 2.122118 1_655
O3 Sc1 2.151718 1_555
O4 Rh2 2.045567 1_565
O4 Rh0 2.050108 1_555
O4 Sc3 2.089818 1_555
O4 Sc1 2.385514 1_555
O4 Sc2 2.751661 1_455
O5 Rh3 2.045567 1_655
O5 Rh1 2.050108 1_555
O5 Sc2 2.089818 1_555
O5 Sc0 2.385514 1_555
O5 Sc3 2.751661 1_654
O6 Rh2 2.045567 1_655
O6 Rh0 2.050108 1_555
O6 Sc2 2.089818 1_555
O6 Sc0 2.385514 1_555
O6 Sc3 2.751661 1_655
O7 Rh3 2.045567 1_566
O7 Rh1 2.050108 1_556
O7 Sc3 2.089818 1_555
O7 Sc1 2.385514 1_555
O7 Sc2 2.751661 1_456
O8 Rh0 2.045567 1_555
O8 Rh2 2.050108 1_665
O8 Sc0 2.089818 1_565
O8 Sc2 2.385514 1_555
O8 Sc1 2.751661 1_555
O9 Rh1 2.045567 1_556
O9 Rh3 2.050108 1_556
O9 Sc1 2.089818 1_545
O9 Sc3 2.385514 1_555
O9 Sc0 2.751661 1_556
O10 Rh0 2.045567 1_555
O10 Rh2 2.050108 1_555
O10 Sc1 2.089818 1_545
O10 Sc3 2.385514 1_555
O10 Sc0 2.751661 1_555
O11 Rh1 2.045567 1_555
O11 Rh3 2.050108 1_665
O11 Sc0 2.089818 1_565
O11 Sc2 2.385514 1_555
O11 Sc1 2.751661 1_554
