# generated using pymatgen
data_Y5Si4
_symmetry_space_group_name_H-M   'P 1'
_cell_length_a   7.67733568
_cell_length_b   7.52995684
_cell_length_c   14.66967396
_cell_angle_alpha   85.72713161
_cell_angle_beta   89.99947980
_cell_angle_gamma   90.00162996
_symmetry_Int_Tables_number   1
_chemical_formula_structural   Y5Si4
_chemical_formula_sum   'Y20 Si16'
_cell_volume   845.69680082
_cell_formula_units_Z   4
loop_
 _symmetry_equiv_pos_site_id
 _symmetry_equiv_pos_as_xyz
  1  'x, y, z'
loop_
 _atom_site_type_symbol
 _atom_site_label
 _atom_site_symmetry_multiplicity
 _atom_site_fract_x
 _atom_site_fract_y
 _atom_site_fract_z
 _atom_site_occupancy
  Y  Y0  1  0.32042394  0.50827173  0.60135567  1
  Y  Y1  1  0.82041663  0.99172833  0.39865585  1
  Y  Y2  1  0.67957606  0.49172827  0.39864433  1
  Y  Y3  1  0.17958337  0.00827167  0.60134415  1
  Y  Y4  1  0.68367683  0.52507010  0.10139132  1
  Y  Y5  1  0.18366582  0.97493162  0.89862420  1
  Y  Y6  1  0.31632317  0.47492990  0.89860868  1
  Y  Y7  1  0.81633418  0.02506838  0.10137580  1
  Y  Y8  1  0.17802362  0.67488950  0.12119859  1
  Y  Y9  1  0.67804332  0.82505519  0.87880453  1
  Y  Y10  1  0.82197638  0.32511050  0.87880141  1
  Y  Y11  1  0.32195668  0.17494481  0.12119547  1
  Y  Y12  1  0.16282607  0.64135033  0.38164723  1
  Y  Y13  1  0.66284731  0.85860282  0.61837063  1
  Y  Y14  1  0.83717393  0.35864967  0.61835277  1
  Y  Y15  1  0.33715269  0.14139718  0.38162937  1
  Y  Y16  1  0.50376932  0.82567680  0.25385776  1
  Y  Y17  1  0.00376543  0.67425059  0.74613769  1
  Y  Y18  1  0.49623068  0.17432320  0.74614224  1
  Y  Y19  1  0.99623457  0.32574941  0.25386231  1
  Si  Si0  1  0.47369576  0.85771825  0.04178950  1
  Si  Si1  1  0.97367596  0.64225779  0.95822120  1
  Si  Si2  1  0.52630424  0.14228175  0.95821050  1
  Si  Si3  1  0.02632404  0.35774221  0.04177880  1
  Si  Si4  1  0.46682288  0.79004304  0.45636859  1
  Si  Si5  1  0.96679743  0.70992045  0.54363822  1
  Si  Si6  1  0.53317712  0.20995696  0.54363141  1
  Si  Si7  1  0.03320257  0.29007955  0.45636178  1
  Si  Si8  1  0.10884386  0.95317848  0.24813234  1
  Si  Si9  1  0.60884731  0.54680218  0.75186922  1
  Si  Si10  1  0.89115614  0.04682152  0.75186766  1
  Si  Si11  1  0.39115269  0.45319782  0.24813078  1
  Si  Si12  1  0.37149054  0.78738508  0.75201414  1
  Si  Si13  1  0.87147808  0.71260953  0.24798472  1
  Si  Si14  1  0.62850946  0.21261492  0.24798586  1
  Si  Si15  1  0.12852192  0.28739047  0.75201528  1
loop_
_geom_bond_atom_site_label_1
_geom_bond_atom_site_label_2
_geom_bond_distance
_geom_bond_site_symmetry_2
Si0 Si2 2.422031 1_564
Si0 Y8 2.857599 1_555
Si0 Y9 2.885468 1_554
Si0 Y11 2.972318 1_565
Si0 Y4 3.051456 1_555
Si0 Y7 3.071776 1_565
Si0 Y16 3.110922 1_555
Si0 Y5 3.141938 1_554
Si1 Si3 2.421662 1_656
Si1 Y9 2.857372 1_555
Si1 Y8 2.885357 1_656
Si1 Y10 2.971748 1_555
Si1 Y5 3.051546 1_655
Si1 Y6 3.071931 1_655
Si1 Y17 3.111147 1_655
Si1 Y4 3.141709 1_556
Si2 Y10 2.857599 1_555
Si2 Y11 2.885468 1_556
Si2 Y9 2.972318 1_545
Si2 Y6 3.051456 1_555
Si2 Y5 3.071776 1_545
Si2 Y18 3.110922 1_555
Si2 Y7 3.141938 1_556
Si3 Y11 2.857372 1_555
Si3 Y10 2.885357 1_454
Si3 Y8 2.971748 1_555
Si3 Y7 3.051546 1_455
Si3 Y4 3.071931 1_455
Si3 Y19 3.111147 1_455
Si3 Y6 3.141709 1_554
Si4 Y12 2.843402 1_555
Si4 Y13 2.891721 1_555
Si4 Y2 2.952028 1_555
Si4 Y15 2.959850 1_565
Si4 Y16 2.976426 1_555
Si4 Y0 3.100987 1_555
Si4 Y1 3.193848 1_555
Si4 Y3 3.550671 1_565
Si5 Y13 2.843178 1_555
Si5 Y12 2.891614 1_655
Si5 Y3 2.952227 1_665
Si5 Y14 2.959018 1_555
Si5 Y17 2.976288 1_655
Si5 Y1 3.101124 1_555
Si5 Y0 3.194039 1_655
Si5 Y2 3.550582 1_555
Si6 Y14 2.843402 1_555
Si6 Y15 2.891721 1_555
Si6 Y0 2.952028 1_555
Si6 Y13 2.959850 1_545
Si6 Y18 2.976426 1_555
Si6 Y2 3.100987 1_555
Si6 Y3 3.193848 1_555
Si6 Y1 3.550671 1_545
Si7 Y15 2.843178 1_555
Si7 Y14 2.891614 1_455
Si7 Y1 2.952227 1_445
Si7 Y12 2.959018 1_555
Si7 Y19 2.976288 1_455
Si7 Y3 3.101124 1_555
Si7 Y2 3.194039 1_455
Si7 Y0 3.550582 1_555
Si8 Y11 2.910226 1_565
Si8 Y19 2.942835 1_465
Si8 Y8 2.953311 1_555
Si8 Y12 2.972553 1_555
Si8 Y15 3.054452 1_565
Si8 Y7 3.130101 1_465
Si8 Y1 3.155776 1_455
Si8 Y16 3.179598 1_555
Si9 Y10 2.910031 1_555
Si9 Y18 2.942140 1_555
Si9 Y9 2.953128 1_555
Si9 Y13 2.972251 1_555
Si9 Y14 3.054494 1_555
Si9 Y6 3.129945 1_555
Si9 Y0 3.155647 1_555
Si9 Y17 3.179370 1_655
Si10 Si15 2.569582 1_655
Si10 Y9 2.910226 1_545
Si10 Y17 2.942835 1_645
Si10 Y10 2.953311 1_555
Si10 Y14 2.972553 1_555
Si10 Y13 3.054452 1_545
Si10 Y5 3.130101 1_645
Si10 Y3 3.155776 1_655
Si10 Y18 3.179598 1_555
Si11 Si14 2.569678 1_555
Si11 Y8 2.910031 1_555
Si11 Y16 2.942140 1_555
Si11 Y11 2.953128 1_555
Si11 Y15 2.972251 1_555
Si11 Y12 3.054494 1_555
Si11 Y4 3.129945 1_555
Si11 Y2 3.155647 1_555
Si11 Y19 3.179370 1_455
Si12 Si9 2.569678 1_555
Si12 Y17 2.951973 1_555
Si12 Y13 2.996302 1_555
Si12 Y5 3.025221 1_555
Si12 Y9 3.026157 1_555
Si12 Y3 3.045471 1_565
Si12 Y18 3.062062 1_565
Si12 Y6 3.096051 1_555
Si12 Y0 3.185534 1_555
Si13 Si8 2.569582 1_655
Si13 Y16 2.951748 1_555
Si13 Y12 2.996520 1_655
Si13 Y4 3.024905 1_555
Si13 Y8 3.026113 1_655
Si13 Y2 3.045263 1_555
Si13 Y19 3.061592 1_555
Si13 Y7 3.096204 1_565
Si13 Y1 3.185706 1_555
Si14 Y19 2.951973 1_555
Si14 Y15 2.996302 1_555
Si14 Y7 3.025221 1_555
Si14 Y11 3.026157 1_555
Si14 Y1 3.045471 1_545
Si14 Y16 3.062062 1_545
Si14 Y4 3.096051 1_555
Si14 Y2 3.185534 1_555
Si15 Y18 2.951748 1_555
Si15 Y14 2.996520 1_455
Si15 Y6 3.024905 1_555
Si15 Y10 3.026113 1_455
Si15 Y0 3.045263 1_555
Si15 Y17 3.061592 1_555
Si15 Y5 3.096204 1_545
Si15 Y3 3.185706 1_555
