# generated using pymatgen
data_Y2(Al3Ir)3
_symmetry_space_group_name_H-M   'P 1'
_cell_length_a   7.50636946
_cell_length_b   7.50636946
_cell_length_c   9.44011712
_cell_angle_alpha   90.00000000
_cell_angle_beta   90.00000000
_cell_angle_gamma   119.49975308
_symmetry_Int_Tables_number   1
_chemical_formula_structural   Y2(Al3Ir)3
_chemical_formula_sum   'Y4 Al18 Ir6'
_cell_volume   462.95106810
_cell_formula_units_Z   2
loop_
 _symmetry_equiv_pos_site_id
 _symmetry_equiv_pos_as_xyz
  1  'x, y, z'
loop_
 _atom_site_type_symbol
 _atom_site_label
 _atom_site_symmetry_multiplicity
 _atom_site_fract_x
 _atom_site_fract_y
 _atom_site_fract_z
 _atom_site_occupancy
  Y  Y0  1  0.99486689  0.67103983  0.25000000  1
  Y  Y1  1  0.00513311  0.32896017  0.75000000  1
  Y  Y2  1  0.67103983  0.99486689  0.25000000  1
  Y  Y3  1  0.32896017  0.00513311  0.75000000  1
  Al  Al0  1  0.13001543  0.13001543  0.25000000  1
  Al  Al1  1  0.86998457  0.86998457  0.75000000  1
  Al  Al2  1  0.00190569  0.33510590  0.07316240  1
  Al  Al3  1  0.99809431  0.66489410  0.92683760  1
  Al  Al4  1  0.99809431  0.66489410  0.57316240  1
  Al  Al5  1  0.33510590  0.00190569  0.42683760  1
  Al  Al6  1  0.00190569  0.33510590  0.42683760  1
  Al  Al7  1  0.66489410  0.99809431  0.57316240  1
  Al  Al8  1  0.66489410  0.99809431  0.92683760  1
  Al  Al9  1  0.33510590  0.00190569  0.07316240  1
  Al  Al10  1  0.33408549  0.33408549  0.55036773  1
  Al  Al11  1  0.66591451  0.66591451  0.44963227  1
  Al  Al12  1  0.66591451  0.66591451  0.05036773  1
  Al  Al13  1  0.33408549  0.33408549  0.94963227  1
  Al  Al14  1  0.33900948  0.54702714  0.25000000  1
  Al  Al15  1  0.66099052  0.45297286  0.75000000  1
  Al  Al16  1  0.54702714  0.33900948  0.25000000  1
  Al  Al17  1  0.45297286  0.66099052  0.75000000  1
  Ir  Ir0  1  0.67201676  0.32798324  -0.00000000  1
  Ir  Ir1  1  0.32798324  0.67201676  -0.00000000  1
  Ir  Ir2  1  0.32798324  0.67201676  0.50000000  1
  Ir  Ir3  1  0.67201676  0.32798324  0.50000000  1
  Ir  Ir4  1  0.00000000  -0.00000000  -0.00000000  1
  Ir  Ir5  1  0.00000000  -0.00000000  0.50000000  1
loop_
_geom_bond_atom_site_label_1
_geom_bond_atom_site_label_2
_geom_bond_distance
_geom_bond_site_symmetry_2
Al0 Ir4 2.556686 1_555
Al0 Ir5 2.556686 1_555
Al0 Al16 2.724570 1_555
Al0 Al14 2.724570 1_555
Al0 Al6 2.745822 1_555
Al0 Al5 2.745822 1_555
Al0 Al9 2.745822 1_555
Al0 Al2 2.745822 1_555
Al0 Y0 3.075178 1_445
Al0 Y2 3.075178 1_445
Al1 Ir4 2.556686 1_666
Al1 Ir5 2.556686 1_665
Al1 Al17 2.724570 1_555
Al1 Al15 2.724570 1_555
Al1 Al8 2.745822 1_555
Al1 Al3 2.745822 1_555
Al1 Al7 2.745822 1_555
Al1 Al4 2.745822 1_555
Al1 Y3 3.075178 1_665
Al1 Y1 3.075178 1_665
Al2 Ir0 2.545857 1_455
Al2 Ir1 2.601450 1_555
Al2 Ir4 2.601761 1_555
Al2 Al3 2.847241 1_454
Al2 Al8 2.899073 1_444
Al2 Y2 3.038243 1_445
Al2 Y0 3.046224 1_455
Al2 Y1 3.051316 1_554
Al3 Ir1 2.545857 1_656
Al3 Ir0 2.601450 1_556
Al3 Ir4 2.601761 1_666
Al3 Al9 2.899073 1_666
Al3 Y3 3.038243 1_665
Al3 Y1 3.046224 1_655
Al3 Y0 3.051316 1_556
Al4 Ir2 2.545857 1_655
Al4 Ir3 2.601450 1_555
Al4 Ir5 2.601761 1_665
Al4 Al6 2.847241 1_655
Al4 Al5 2.899073 1_665
Al4 Y3 3.038243 1_665
Al4 Y1 3.046224 1_655
Al4 Y0 3.051316 1_555
Al5 Ir2 2.545857 1_545
Al5 Ir3 2.601450 1_555
Al5 Ir5 2.601761 1_555
Al5 Al7 2.847241 1_545
Al5 Y0 3.038243 1_445
Al5 Y2 3.046224 1_545
Al5 Y3 3.051316 1_555
Al6 Ir3 2.545857 1_455
Al6 Ir2 2.601450 1_555
Al6 Ir5 2.601761 1_555
Al6 Al7 2.899073 1_445
Al6 Y2 3.038243 1_445
Al6 Y0 3.046224 1_455
Al6 Y1 3.051316 1_555
Al7 Ir3 2.545857 1_565
Al7 Ir2 2.601450 1_555
Al7 Ir5 2.601761 1_665
Al7 Y1 3.038243 1_665
Al7 Y3 3.046224 1_565
Al7 Y2 3.051316 1_555
Al8 Ir0 2.545857 1_566
Al8 Ir1 2.601450 1_556
Al8 Ir4 2.601761 1_666
Al8 Al9 2.847241 1_566
Al8 Y1 3.038243 1_665
Al8 Y3 3.046224 1_565
Al8 Y2 3.051316 1_556
Al9 Ir1 2.545857 1_545
Al9 Ir0 2.601450 1_555
Al9 Ir4 2.601761 1_555
Al9 Y0 3.038243 1_445
Al9 Y2 3.046224 1_545
Al9 Y3 3.051316 1_554
Al10 Ir5 2.571056 1_555
Al10 Ir3 2.603293 1_555
Al10 Ir2 2.603293 1_555
Al10 Al11 2.683769 1_555
Al10 Al6 2.756105 1_555
Al10 Al5 2.756105 1_555
Al10 Al17 2.865789 1_555
Al10 Al15 2.865789 1_555
Al10 Y1 3.091374 1_555
Al10 Y3 3.091374 1_555
Al11 Ir5 2.571056 1_665
Al11 Ir3 2.603293 1_555
Al11 Ir2 2.603293 1_555
Al11 Al4 2.756105 1_555
Al11 Al7 2.756105 1_555
Al11 Al14 2.865789 1_555
Al11 Al16 2.865789 1_555
Al11 Y2 3.091374 1_555
Al11 Y0 3.091374 1_555
Al12 Ir4 2.571056 1_665
Al12 Ir0 2.603293 1_555
Al12 Ir1 2.603293 1_555
Al12 Al13 2.683769 1_554
Al12 Al8 2.756105 1_554
Al12 Al3 2.756105 1_554
Al12 Al14 2.865789 1_555
Al12 Al16 2.865789 1_555
Al12 Y2 3.091374 1_555
Al12 Y0 3.091374 1_555
Al13 Ir4 2.571056 1_556
Al13 Ir0 2.603293 1_556
Al13 Ir1 2.603293 1_556
Al13 Al2 2.756105 1_556
Al13 Al9 2.756105 1_556
Al13 Al17 2.865789 1_555
Al13 Al15 2.865789 1_555
Al13 Y1 3.091374 1_555
Al13 Y3 3.091374 1_555
Al14 Ir2 2.556036 1_555
Al14 Ir1 2.556036 1_555
Al14 Al16 2.697681 1_555
Al14 Al2 2.784975 1_555
Al14 Al6 2.784975 1_555
Al14 Y2 3.043206 1_555
Al14 Y0 3.147705 1_455
Al15 Ir3 2.556036 1_555
Al15 Ir0 2.556036 1_556
Al15 Al17 2.697681 1_555
Al15 Al3 2.784975 1_555
Al15 Al4 2.784975 1_555
Al15 Y3 3.043206 1_555
Al15 Y1 3.147705 1_655
Al16 Ir3 2.556036 1_555
Al16 Ir0 2.556036 1_555
Al16 Al5 2.784975 1_555
Al16 Al9 2.784975 1_555
Al16 Y0 3.043206 1_555
Al16 Y2 3.147705 1_545
Al17 Ir2 2.556036 1_555
Al17 Ir1 2.556036 1_556
Al17 Al8 2.784975 1_555
Al17 Al7 2.784975 1_555
Al17 Y1 3.043206 1_555
Al17 Y3 3.147705 1_565
