# generated using pymatgen
data_Ti(WO4)2
_symmetry_space_group_name_H-M   'P 1'
_cell_length_a   5.02268900
_cell_length_b   5.23129011
_cell_length_c   6.88705349
_cell_angle_alpha   108.43648222
_cell_angle_beta   91.68631694
_cell_angle_gamma   105.10703739
_symmetry_Int_Tables_number   1
_chemical_formula_structural   Ti(WO4)2
_chemical_formula_sum   'Ti1 W2 O8'
_cell_volume   164.49723803
_cell_formula_units_Z   1
loop_
 _symmetry_equiv_pos_site_id
 _symmetry_equiv_pos_as_xyz
  1  'x, y, z'
loop_
 _atom_site_type_symbol
 _atom_site_label
 _atom_site_symmetry_multiplicity
 _atom_site_fract_x
 _atom_site_fract_y
 _atom_site_fract_z
 _atom_site_occupancy
  Ti  Ti0  1  0.50000000  0.00000000  0.00000000  1
  W  W0  1  0.24541100  0.52688800  0.17998000  1
  W  W1  1  0.75458900  0.47311200  0.82002000  1
  O  O0  1  0.16803900  0.71145700  0.41615400  1
  O  O1  1  0.36863400  0.24759200  0.23058000  1
  O  O2  1  0.13237900  0.71102000  0.96503800  1
  O  O3  1  0.40721500  0.22852300  0.84522700  1
  O  O4  1  0.63136600  0.75240800  0.76942000  1
  O  O5  1  0.83196100  0.28854300  0.58384600  1
  O  O6  1  0.86762100  0.28898000  0.03496200  1
  O  O7  1  0.59278500  0.77147700  0.15477300  1
loop_
_geom_bond_atom_site_label_1
_geom_bond_atom_site_label_2
_geom_bond_distance
_geom_bond_site_symmetry_2
O0 W0 1.722894 1_555
O1 W0 1.849310 1_555
O1 Ti0 1.959826 1_555
O2 W1 2.004572 1_455
O2 Ti0 2.010302 1_566
O2 W0 2.139855 1_556
O3 W1 1.925131 1_555
O3 Ti0 1.962065 1_556
O4 W1 1.849310 1_555
O4 Ti0 1.959826 1_566
O5 W1 1.722894 1_555
O6 W0 2.004572 1_655
O6 Ti0 2.010302 1_555
O6 W1 2.139855 1_554
O7 W0 1.925131 1_555
O7 Ti0 1.962065 1_565
