# generated using pymatgen
data_BaYb3
_symmetry_space_group_name_H-M   'P 1'
_cell_length_a   5.69938000
_cell_length_b   5.69938000
_cell_length_c   5.69938000
_cell_angle_alpha   90.00000000
_cell_angle_beta   90.00000000
_cell_angle_gamma   90.00000000
_symmetry_Int_Tables_number   1
_chemical_formula_structural   BaYb3
_chemical_formula_sum   'Ba1 Yb3'
_cell_volume   185.13257517
_cell_formula_units_Z   1
loop_
 _symmetry_equiv_pos_site_id
 _symmetry_equiv_pos_as_xyz
  1  'x, y, z'
loop_
 _atom_site_type_symbol
 _atom_site_label
 _atom_site_symmetry_multiplicity
 _atom_site_fract_x
 _atom_site_fract_y
 _atom_site_fract_z
 _atom_site_occupancy
  Ba  Ba0  1  0.00000000  0.00000000  0.00000000  1
  Yb  Yb0  1  0.00000000  0.50000000  0.50000000  1
  Yb  Yb1  1  0.50000000  0.00000000  0.50000000  1
  Yb  Yb2  1  0.50000000  0.50000000  0.00000000  1
loop_
_geom_bond_atom_site_label_1
_geom_bond_atom_site_label_2
_geom_bond_distance
_geom_bond_site_symmetry_2
Ba0 Yb2 4.030070 1_555
Ba0 Yb2 4.030070 1_545
Ba0 Yb1 4.030070 1_554
Ba0 Yb2 4.030070 1_445
Ba0 Yb0 4.030070 1_554
Ba0 Yb0 4.030070 1_545
Ba0 Yb1 4.030070 1_455
Ba0 Yb0 4.030070 1_555
Ba0 Yb2 4.030070 1_455
Ba0 Yb1 4.030070 1_454
Ba0 Yb1 4.030070 1_555
Ba0 Yb0 4.030070 1_544
Yb0 Yb2 4.030070 1_456
Yb0 Yb2 4.030070 1_555
Yb0 Yb1 4.030070 1_565
Yb0 Yb2 4.030070 1_556
Yb0 Yb1 4.030070 1_455
Yb0 Yb2 4.030070 1_455
Yb0 Yb1 4.030070 1_555
Yb0 Yb1 4.030070 1_465
Yb1 Yb2 4.030070 1_555
Yb1 Yb2 4.030070 1_545
Yb1 Yb2 4.030070 1_556
Yb1 Yb2 4.030070 1_546
