# generated using pymatgen
data_Nd12Ni6Pb
_symmetry_space_group_name_H-M   'P 1'
_cell_length_a   8.70524132
_cell_length_b   8.70524132
_cell_length_c   8.70524132
_cell_angle_alpha   109.47122063
_cell_angle_beta   109.47122063
_cell_angle_gamma   109.47122063
_symmetry_Int_Tables_number   1
_chemical_formula_structural   Nd12Ni6Pb
_chemical_formula_sum   'Nd12 Ni6 Pb1'
_cell_volume   507.83257320
_cell_formula_units_Z   1
loop_
 _symmetry_equiv_pos_site_id
 _symmetry_equiv_pos_as_xyz
  1  'x, y, z'
loop_
 _atom_site_type_symbol
 _atom_site_label
 _atom_site_symmetry_multiplicity
 _atom_site_fract_x
 _atom_site_fract_y
 _atom_site_fract_z
 _atom_site_occupancy
  Nd  Nd0  1  0.81284756  0.69152660  0.50437415  1
  Nd  Nd1  1  0.18715244  0.30847340  0.49562585  1
  Nd  Nd2  1  0.18715244  0.69152660  0.87868004  1
  Nd  Nd3  1  0.81284756  0.30847340  0.12131996  1
  Nd  Nd4  1  0.69152660  0.50437415  0.81284756  1
  Nd  Nd5  1  0.30847340  0.49562585  0.18715244  1
  Nd  Nd6  1  0.69152660  0.87868004  0.18715244  1
  Nd  Nd7  1  0.30847340  0.12131996  0.81284756  1
  Nd  Nd8  1  0.50437415  0.81284756  0.69152660  1
  Nd  Nd9  1  0.49562585  0.18715244  0.30847340  1
  Nd  Nd10  1  0.12131996  0.81284756  0.30847340  1
  Nd  Nd11  1  0.87868004  0.18715244  0.69152660  1
  Ni  Ni0  1  0.88007878  0.38007878  0.50000000  1
  Ni  Ni1  1  0.11992122  0.61992122  0.50000000  1
  Ni  Ni2  1  0.38007878  0.50000000  0.88007878  1
  Ni  Ni3  1  0.61992122  0.50000000  0.11992122  1
  Ni  Ni4  1  0.50000000  0.88007878  0.38007878  1
  Ni  Ni5  1  0.50000000  0.11992122  0.61992122  1
  Pb  Pb0  1  -0.00000000  -0.00000000  0.00000000  1
loop_
_geom_bond_atom_site_label_1
_geom_bond_atom_site_label_2
_geom_bond_distance
_geom_bond_site_symmetry_2
Nd0 Ni3 2.732633 1_555
Nd0 Ni1 2.949344 1_655
Nd0 Ni0 2.949344 1_555
Nd0 Pb0 3.626815 1_666
Nd0 Ni4 3.671721 1_555
Nd1 Ni2 2.732633 1_555
Nd1 Ni0 2.949344 1_455
Nd1 Ni1 2.949344 1_555
Nd1 Pb0 3.626815 1_555
Nd1 Ni5 3.671721 1_555
Nd2 Ni2 2.732633 1_555
Nd2 Ni0 2.949349 1_455
Nd2 Ni1 2.949353 1_555
Nd2 Pb0 3.626814 1_566
Nd2 Ni4 3.671714 1_556
Nd3 Ni3 2.732633 1_555
Nd3 Ni1 2.949349 1_655
Nd3 Ni0 2.949353 1_555
Nd3 Pb0 3.626814 1_655
Nd3 Ni5 3.671714 1_554
Nd4 Ni5 2.732633 1_555
Nd4 Ni3 2.949344 1_556
Nd4 Ni2 2.949344 1_555
Nd4 Pb0 3.626815 1_666
Nd4 Ni0 3.671721 1_555
Nd5 Ni4 2.732633 1_555
Nd5 Ni2 2.949344 1_554
Nd5 Ni3 2.949344 1_555
Nd5 Pb0 3.626815 1_555
Nd5 Ni1 3.671721 1_555
Nd6 Ni4 2.732633 1_555
Nd6 Ni2 2.949349 1_554
Nd6 Ni3 2.949353 1_555
Nd6 Pb0 3.626814 1_665
Nd6 Ni0 3.671714 1_565
Nd7 Ni5 2.732633 1_555
Nd7 Ni3 2.949349 1_556
Nd7 Ni2 2.949353 1_555
Nd7 Pb0 3.626814 1_556
Nd7 Ni1 3.671714 1_545
Nd8 Ni1 2.732633 1_555
Nd8 Ni5 2.949344 1_565
Nd8 Ni4 2.949344 1_555
Nd8 Pb0 3.626815 1_666
Nd8 Ni2 3.671721 1_555
Nd9 Ni0 2.732633 1_555
Nd9 Ni4 2.949344 1_545
Nd9 Ni5 2.949344 1_555
Nd9 Pb0 3.626815 1_555
Nd9 Ni3 3.671721 1_555
Nd10 Ni1 2.732633 1_555
Nd10 Ni5 2.949349 1_565
Nd10 Ni4 2.949353 1_555
Nd10 Pb0 3.626814 1_565
Nd10 Ni3 3.671714 1_455
Nd11 Ni0 2.732633 1_555
Nd11 Ni4 2.949349 1_545
Nd11 Ni5 2.949353 1_555
Nd11 Pb0 3.626814 1_656
Nd11 Ni2 3.671714 1_655
Ni0 Ni1 2.410883 1_655
Ni2 Ni3 2.410883 1_556
Ni4 Ni5 2.410883 1_565
