# generated using pymatgen
data_Na2MoH2O3F4
_symmetry_space_group_name_H-M   'P 1'
_cell_length_a   5.50311200
_cell_length_b   5.83138000
_cell_length_c   19.46319800
_cell_angle_alpha   90.00000000
_cell_angle_beta   90.00000000
_cell_angle_gamma   90.00000000
_symmetry_Int_Tables_number   1
_chemical_formula_structural   Na2MoH2O3F4
_chemical_formula_sum   'Na8 Mo4 H8 O12 F16'
_cell_volume   624.58837315
_cell_formula_units_Z   4
loop_
 _symmetry_equiv_pos_site_id
 _symmetry_equiv_pos_as_xyz
  1  'x, y, z'
loop_
 _atom_site_type_symbol
 _atom_site_label
 _atom_site_symmetry_multiplicity
 _atom_site_fract_x
 _atom_site_fract_y
 _atom_site_fract_z
 _atom_site_occupancy
  Na  Na0  1  0.26127600  0.76163200  0.36182300  1
  Na  Na1  1  0.23872400  0.23836800  0.86182300  1
  Na  Na2  1  0.76127600  0.73836800  0.63817700  1
  Na  Na3  1  0.73872400  0.26163200  0.13817700  1
  Na  Na4  1  0.73976600  0.81770100  0.25027600  1
  Na  Na5  1  0.76023400  0.18229900  0.75027600  1
  Na  Na6  1  0.23976600  0.68229900  0.74972400  1
  Na  Na7  1  0.26023400  0.31770100  0.24972400  1
  Mo  Mo0  1  0.76513800  0.26049000  0.36408600  1
  Mo  Mo1  1  0.73486200  0.73951000  0.86408600  1
  Mo  Mo2  1  0.26513800  0.23951000  0.63591400  1
  Mo  Mo3  1  0.23486200  0.76049000  0.13591400  1
  H  H0  1  0.30275100  0.97231600  0.49805600  1
  H  H1  1  0.19724900  0.02768400  0.99805600  1
  H  H2  1  0.80275100  0.52768400  0.50194400  1
  H  H3  1  0.69724900  0.47231600  0.00194400  1
  H  H4  1  0.50509300  0.78502700  0.49504800  1
  H  H5  1  0.99490700  0.21497300  0.99504800  1
  H  H6  1  0.00509300  0.71497300  0.50495200  1
  H  H7  1  0.49490700  0.28502700  0.00495200  1
  O  O0  1  0.64201300  0.28435200  0.44567700  1
  O  O1  1  0.85798700  0.71564800  0.94567700  1
  O  O2  1  0.14201300  0.21564800  0.55432300  1
  O  O3  1  0.35798700  0.78435200  0.05432300  1
  O  O4  1  0.03426700  0.41519800  0.37053300  1
  O  O5  1  0.46573300  0.58480200  0.87053300  1
  O  O6  1  0.53426700  0.08480200  0.62946700  1
  O  O7  1  0.96573300  0.91519800  0.12946700  1
  O  O8  1  0.33728100  0.81814700  0.48034500  1
  O  O9  1  0.16271900  0.18185300  0.98034500  1
  O  O10  1  0.83728100  0.68185300  0.51965500  1
  O  O11  1  0.66271900  0.31814700  0.01965500  1
  F  F0  1  0.85991600  0.20576000  0.25740400  1
  F  F1  1  0.64008400  0.79424000  0.75740400  1
  F  F2  1  0.35991600  0.29424000  0.74259600  1
  F  F3  1  0.14008400  0.70576000  0.24259600  1
  F  F4  1  0.90206300  0.95176100  0.37137900  1
  F  F5  1  0.59793700  0.04823900  0.87137900  1
  F  F6  1  0.40206300  0.54823900  0.62862100  1
  F  F7  1  0.09793700  0.45176100  0.12862100  1
  F  F8  1  0.47524800  0.07319800  0.32250500  1
  F  F9  1  0.02475200  0.92680200  0.82250500  1
  F  F10  1  0.97524800  0.42680200  0.67749500  1
  F  F11  1  0.52475200  0.57319800  0.17749500  1
  F  F12  1  0.57384100  0.51916200  0.32468900  1
  F  F13  1  0.92615900  0.48083800  0.82468900  1
  F  F14  1  0.07384100  0.98083800  0.67531100  1
  F  F15  1  0.42615900  0.01916200  0.17531100  1
loop_
_geom_bond_atom_site_label_1
_geom_bond_atom_site_label_2
_geom_bond_distance
_geom_bond_site_symmetry_2
Na0 O8 2.367480 1_555
Na0 O4 2.381290 1_555
Na1 O9 2.367480 1_555
Na1 O5 2.381290 1_555
Na2 O10 2.367480 1_555
Na2 O6 2.381290 1_565
Na3 O11 2.367480 1_555
Na3 O7 2.381290 1_545
Na4 O7 2.719988 1_555
Na5 O6 2.719988 1_555
Na6 O5 2.719988 1_555
Na7 O4 2.719988 1_555
Mo0 O0 1.732131 1_555
Mo0 O4 1.738718 1_655
Mo1 O1 1.732131 1_555
Mo1 O5 1.738718 1_555
Mo2 O2 1.732131 1_555
Mo2 O6 1.738718 1_555
Mo3 O3 1.732131 1_555
Mo3 O7 1.738718 1_455
H0 O8 0.981412 1_555
H1 O9 0.981412 1_555
H2 O10 0.981412 1_555
H3 O11 0.981412 1_555
H4 O8 0.985913 1_555
H5 O9 0.985913 1_655
H6 O10 0.985913 1_455
H7 O11 0.985913 1_555
F0 Mo0 2.164537 1_555
F0 Na7 2.302529 1_655
F0 Na4 2.361617 1_545
F0 Na3 2.436360 1_555
F1 Mo1 2.164537 1_555
F1 Na6 2.302529 1_555
F1 Na5 2.361617 1_565
F1 Na2 2.436360 1_555
F2 Mo2 2.164537 1_555
F2 Na5 2.302529 1_555
F2 Na6 2.361617 1_555
F2 Na1 2.436360 1_555
F3 Mo3 2.164537 1_555
F3 Na4 2.302529 1_455
F3 Na7 2.361617 1_555
F3 Na0 2.436360 1_555
F4 Mo0 1.956801 1_565
F4 Na0 2.274101 1_655
F4 Na4 2.639040 1_555
F5 Mo1 1.956801 1_545
F5 Na1 2.274101 1_555
F5 Na5 2.639040 1_555
F6 Mo2 1.956801 1_555
F6 Na2 2.274101 1_555
F6 Na6 2.639040 1_555
F7 Mo3 1.956801 1_555
F7 Na3 2.274101 1_455
F7 Na7 2.639040 1_555
F8 Mo0 2.095895 1_555
F8 Na0 2.296329 1_545
F8 Na7 2.332288 1_555
F8 Na4 2.512982 1_545
F9 Mo1 2.095895 1_455
F9 Na1 2.296329 1_565
F9 Na6 2.332288 1_555
F9 Na5 2.512982 1_465
F10 Mo2 2.095895 1_655
F10 Na2 2.296329 1_555
F10 Na5 2.332288 1_555
F10 Na6 2.512982 1_655
F11 Mo3 2.095895 1_555
F11 Na3 2.296329 1_555
F11 Na4 2.332288 1_555
F11 Na7 2.512982 1_555
F12 Mo0 1.992868 1_555
F12 Na0 2.340993 1_555
F12 Na4 2.441739 1_555
F12 Na7 2.547044 1_555
F13 Mo1 1.992868 1_555
F13 Na1 2.340993 1_655
F13 Na5 2.441739 1_555
F13 Na6 2.547044 1_655
F14 Mo2 1.992868 1_565
F14 Na2 2.340993 1_455
F14 Na6 2.441739 1_555
F14 Na5 2.547044 1_465
F15 Mo3 1.992868 1_545
F15 Na3 2.340993 1_555
F15 Na7 2.441739 1_555
F15 Na4 2.547044 1_545
