# generated using pymatgen
data_CaHo(WO3)2
_symmetry_space_group_name_H-M   'P 1'
_cell_length_a   5.78243800
_cell_length_b   5.49720900
_cell_length_c   9.79321213
_cell_angle_alpha   55.99498033
_cell_angle_beta   90.00000000
_cell_angle_gamma   90.00000000
_symmetry_Int_Tables_number   1
_chemical_formula_structural   CaHo(WO3)2
_chemical_formula_sum   'Ca2 Ho2 W4 O12'
_cell_volume   258.06371354
_cell_formula_units_Z   2
loop_
 _symmetry_equiv_pos_site_id
 _symmetry_equiv_pos_as_xyz
  1  'x, y, z'
loop_
 _atom_site_type_symbol
 _atom_site_label
 _atom_site_symmetry_multiplicity
 _atom_site_fract_x
 _atom_site_fract_y
 _atom_site_fract_z
 _atom_site_occupancy
  Ca  Ca0  1  0.80369800  0.23801200  0.25122300  1
  Ca  Ca1  1  0.19630200  0.23801200  0.75122300  1
  Ho  Ho0  1  0.31283200  0.77275100  0.25013400  1
  Ho  Ho1  1  0.68716800  0.77275100  0.75013400  1
  W  W0  1  0.75220100  0.00114300  0.00082400  1
  W  W1  1  0.75172200  0.50104900  0.50000300  1
  W  W2  1  0.24779900  0.00114300  0.50082400  1
  W  W3  1  0.24827800  0.50104900  0.00000300  1
  O  O0  1  0.80580300  0.38379100  0.75309900  1
  O  O1  1  0.05540500  0.10902600  0.06542800  1
  O  O2  1  0.06617700  0.75904000  0.43278200  1
  O  O3  1  0.54863300  0.22156500  0.06784100  1
  O  O4  1  0.53732900  0.87657200  0.43102400  1
  O  O5  1  0.31671100  0.63691000  0.74767300  1
  O  O6  1  0.19419700  0.38379100  0.25309900  1
  O  O7  1  0.94459500  0.10902600  0.56542800  1
  O  O8  1  0.93382300  0.75904000  0.93278200  1
  O  O9  1  0.46267100  0.87657200  0.93102400  1
  O  O10  1  0.45136700  0.22156500  0.56784100  1
  O  O11  1  0.68328900  0.63691000  0.24767300  1
loop_
_geom_bond_atom_site_label_1
_geom_bond_atom_site_label_2
_geom_bond_distance
_geom_bond_site_symmetry_2
Ca0 O11 2.282366 1_555
Ca0 O4 2.346793 1_545
Ca0 O3 2.364396 1_555
Ca0 O6 2.399529 1_655
Ca0 O2 2.676056 1_645
Ca0 O1 2.715689 1_655
Ca0 O7 2.862603 1_555
Ca0 O8 2.916214 1_554
Ca1 O5 2.282366 1_555
Ca1 O9 2.346793 1_545
Ca1 O10 2.364396 1_555
Ca1 O0 2.399529 1_455
Ca1 O8 2.676056 1_445
Ca1 O7 2.715689 1_455
Ca1 O1 2.862603 1_556
Ca1 O2 2.916214 1_555
Ho0 O6 2.230217 1_555
Ho0 O2 2.255794 1_555
Ho0 O1 2.272630 1_565
Ho0 O11 2.273131 1_555
Ho0 O3 2.491335 1_565
Ho0 O4 2.505986 1_555
Ho1 O0 2.230217 1_555
Ho1 O8 2.255794 1_555
Ho1 O7 2.272630 1_565
Ho1 O5 2.273131 1_555
Ho1 O10 2.491335 1_565
Ho1 O9 2.505986 1_555
O0 W0 2.167566 1_556
O0 W1 2.206759 1_555
O1 W0 2.060486 1_455
O1 W3 2.180388 1_555
O2 W2 2.076104 1_565
O2 W1 2.169499 1_455
O3 W0 2.043063 1_555
O3 W3 2.162538 1_555
O4 W2 2.064631 1_565
O4 W1 2.166767 1_555
O5 W2 2.144246 1_565
O5 W3 2.180938 1_556
O6 W2 2.167566 1_555
O6 W3 2.206759 1_555
O7 W2 2.060486 1_655
O7 W1 2.180388 1_555
O8 W0 2.076104 1_566
O8 W3 2.169499 1_656
O9 W0 2.064631 1_566
O9 W3 2.166767 1_556
O10 W2 2.043063 1_555
O10 W1 2.162538 1_555
O11 W0 2.144246 1_565
O11 W1 2.180938 1_555
