# generated using pymatgen
data_K2BaMgCo(NO2)6
_symmetry_space_group_name_H-M   'P 1'
_cell_length_a   8.23638904
_cell_length_b   8.23638902
_cell_length_c   8.37809058
_cell_angle_alpha   126.46222334
_cell_angle_beta   126.46222380
_cell_angle_gamma   77.93423456
_symmetry_Int_Tables_number   1
_chemical_formula_structural   K2BaMgCo(NO2)6
_chemical_formula_sum   'K2 Ba1 Mg1 Co1 N6 O12'
_cell_volume   358.37497059
_cell_formula_units_Z   1
loop_
 _symmetry_equiv_pos_site_id
 _symmetry_equiv_pos_as_xyz
  1  'x, y, z'
loop_
 _atom_site_type_symbol
 _atom_site_label
 _atom_site_symmetry_multiplicity
 _atom_site_fract_x
 _atom_site_fract_y
 _atom_site_fract_z
 _atom_site_occupancy
  K  K0  1  0.29581800  0.79581800  0.50000000  1
  K  K1  1  0.79581900  0.29581900  0.50000000  1
  Ba  Ba0  1  0.60202100  0.60202100  0.00000000  1
  Mg  Mg0  1  0.35027000  0.35027000  0.00000000  1
  Co  Co0  1  0.99376400  0.99376400  0.00000000  1
  N  N0  1  0.19655800  0.78561200  0.00000000  1
  N  N1  1  0.78561300  0.19655900  0.00000100  1
  N  N2  1  0.19505300  0.19505400  0.44142300  1
  N  N3  1  0.75363100  0.75363100  0.55857700  1
  N  N4  1  0.15761100  0.15761200  0.99999900  1
  N  N5  1  0.84155800  0.84155800  0.00000000  1
  O  O0  1  0.61452400  0.15724400  0.80204300  1
  O  O1  1  0.81248100  0.35520200  0.19795800  1
  O  O2  1  0.15724400  0.61452400  0.80204300  1
  O  O3  1  0.35520100  0.81248100  0.19795700  1
  O  O4  1  0.32588600  0.11179400  0.00000100  1
  O  O5  1  0.59601300  0.59601400  0.39652000  1
  O  O6  1  0.89194000  0.67820600  0.00000000  1
  O  O7  1  0.67820700  0.89194000  0.00000000  1
  O  O8  1  0.80115900  0.80115900  0.47353100  1
  O  O9  1  0.32762700  0.32762700  0.52646900  1
  O  O10  1  0.19949300  0.19949400  0.60348000  1
  O  O11  1  0.11179300  0.32588500  0.00000000  1
loop_
_geom_bond_atom_site_label_1
_geom_bond_atom_site_label_2
_geom_bond_distance
_geom_bond_site_symmetry_2
K0 O3 2.928083 1_555
K0 O0 2.928083 1_565
K0 O5 2.953668 1_555
K0 O10 2.953677 1_565
K0 O6 3.084362 1_455
K0 O7 3.084365 1_556
K0 O11 3.234332 1_555
K0 O4 3.234334 1_566
K1 O1 2.928069 1_555
K1 O2 2.928073 1_655
K1 O10 2.953663 1_655
K1 O5 2.953672 1_555
K1 O6 3.084363 1_556
K1 O7 3.084365 1_545
K1 O4 3.234329 1_555
K1 O11 3.234336 1_656
Ba0 O6 2.592714 1_555
Ba0 O7 2.592717 1_555
Ba0 O8 2.603080 1_555
Ba0 O9 2.603082 1_554
Ba0 O1 3.000869 1_555
Ba0 O3 3.000871 1_555
Ba0 O2 3.000871 1_554
Ba0 O0 3.000871 1_554
Mg0 O4 2.015759 1_555
Mg0 O11 2.015764 1_555
Mg0 O10 2.226715 1_554
Mg0 O5 2.226715 1_555
Co0 N5 1.949409 1_555
Co0 N4 2.098516 1_664
Co0 N1 2.128834 1_565
Co0 N0 2.128834 1_655
Co0 N3 2.397567 1_554
Co0 N2 2.397568 1_665
N0 O3 1.271147 1_555
N0 O2 1.271147 1_554
N1 O1 1.271150 1_555
N1 O0 1.271152 1_554
N2 O9 1.241479 1_555
N2 O10 1.314774 1_555
N3 O8 1.241484 1_555
N3 O5 1.314779 1_555
N4 O11 1.358172 1_556
N4 O4 1.358184 1_556
N5 O7 1.322478 1_555
N5 O6 1.322486 1_555
