# generated using pymatgen
data_FeH18C6N6O13
_symmetry_space_group_name_H-M   'P 1'
_cell_length_a   7.09942481
_cell_length_b   14.06883900
_cell_length_c   17.01165396
_cell_angle_alpha   98.29217240
_cell_angle_beta   90.00000000
_cell_angle_gamma   90.00000000
_symmetry_Int_Tables_number   1
_chemical_formula_structural   FeH18C6N6O13
_chemical_formula_sum   'Fe4 H72 C24 N24 O52'
_cell_volume   1681.37169656
_cell_formula_units_Z   4
loop_
 _symmetry_equiv_pos_site_id
 _symmetry_equiv_pos_as_xyz
  1  'x, y, z'
loop_
 _atom_site_type_symbol
 _atom_site_label
 _atom_site_symmetry_multiplicity
 _atom_site_fract_x
 _atom_site_fract_y
 _atom_site_fract_z
 _atom_site_occupancy
  Fe  Fe0  1  0.18366967  0.06235420  0.82203593  1
  Fe  Fe1  1  0.81633033  0.93764580  0.17796407  1
  Fe  Fe2  1  0.68366967  0.43764580  0.67796407  1
  Fe  Fe3  1  0.31633033  0.56235420  0.32203593  1
  H  H0  1  0.20046564  0.18698272  0.96728397  1
  H  H1  1  0.79953436  0.81301728  0.03271603  1
  H  H2  1  0.70046564  0.31301728  0.53271603  1
  H  H3  1  0.29953436  0.68698272  0.46728397  1
  H  H4  1  0.36469276  0.40956414  0.76676323  1
  H  H5  1  0.63530724  0.59043586  0.23323677  1
  H  H6  1  0.86469276  0.09043586  0.73323677  1
  H  H7  1  0.13530724  0.90956414  0.26676323  1
  H  H8  1  0.51188364  0.43227213  0.39229688  1
  H  H9  1  0.48811636  0.56772787  0.60770312  1
  H  H10  1  0.01188364  0.06772787  0.10770312  1
  H  H11  1  0.98811636  0.93227213  0.89229688  1
  H  H12  1  0.17151123  0.23028788  0.60306667  1
  H  H13  1  0.82848877  0.76971212  0.39693333  1
  H  H14  1  0.67151123  0.26971212  0.89693333  1
  H  H15  1  0.32848877  0.73028788  0.10306667  1
  H  H16  1  0.60877863  0.53156551  0.43062655  1
  H  H17  1  0.39122137  0.46843449  0.56937345  1
  H  H18  1  0.10877863  0.96843449  0.06937345  1
  H  H19  1  0.89122137  0.03156551  0.93062655  1
  H  H20  1  0.71242852  0.80371463  0.78779594  1
  H  H21  1  0.28757148  0.19628537  0.21220406  1
  H  H22  1  0.21242852  0.69628537  0.71220406  1
  H  H23  1  0.78757148  0.30371463  0.28779594  1
  H  H24  1  0.47516176  0.17969211  0.79423821  1
  H  H25  1  0.52483824  0.82030789  0.20576179  1
  H  H26  1  0.97516176  0.32030789  0.70576179  1
  H  H27  1  0.02483824  0.67969211  0.29423821  1
  H  H28  1  0.36526927  0.32707599  0.69459882  1
  H  H29  1  0.63473073  0.67292401  0.30540118  1
  H  H30  1  0.86526927  0.17292401  0.80540118  1
  H  H31  1  0.13473073  0.82707599  0.19459882  1
  H  H32  1  0.25156788  0.86861786  0.53673105  1
  H  H33  1  0.74843212  0.13138214  0.46326895  1
  H  H34  1  0.75156788  0.63138214  0.96326895  1
  H  H35  1  0.24843212  0.36861786  0.03673105  1
  H  H36  1  0.69860944  0.16051077  0.99655102  1
  H  H37  1  0.30139056  0.83948923  0.00344898  1
  H  H38  1  0.19860944  0.33948923  0.50344898  1
  H  H39  1  0.80139056  0.66051077  0.49655102  1
  H  H40  1  0.18867901  0.19616656  0.68682106  1
  H  H41  1  0.81132099  0.80383344  0.31317894  1
  H  H42  1  0.68867901  0.30383344  0.81317894  1
  H  H43  1  0.31132099  0.69616656  0.18682106  1
  H  H44  1  0.71804921  0.78309540  0.64474008  1
  H  H45  1  0.28195079  0.21690460  0.35525992  1
  H  H46  1  0.21804921  0.71690460  0.85525992  1
  H  H47  1  0.78195079  0.28309540  0.14474008  1
  H  H48  1  0.22695706  0.03833204  0.52658569  1
  H  H49  1  0.77304294  0.96166796  0.47341431  1
  H  H50  1  0.72695706  0.46166796  0.97341431  1
  H  H51  1  0.27304294  0.53833204  0.02658569  1
  H  H52  1  0.19393875  0.25452826  0.90085280  1
  H  H53  1  0.80606125  0.74547174  0.09914720  1
  H  H54  1  0.69393875  0.24547174  0.59914720  1
  H  H55  1  0.30606125  0.75452826  0.40085280  1
  H  H56  1  0.51314330  0.97034012  0.83715399  1
  H  H57  1  0.48685670  0.02965988  0.16284601  1
  H  H58  1  0.01314330  0.52965988  0.66284601  1
  H  H59  1  0.98685670  0.47034012  0.33715399  1
  H  H60  1  0.83177478  0.56679481  0.53585547  1
  H  H61  1  0.16822522  0.43320519  0.46414453  1
  H  H62  1  0.33177478  0.93320519  0.96414453  1
  H  H63  1  0.66822522  0.06679481  0.03585547  1
  H  H64  1  0.48059486  0.09544093  0.72308392  1
  H  H65  1  0.51940514  0.90455907  0.27691608  1
  H  H66  1  0.98059486  0.40455907  0.77691608  1
  H  H67  1  0.01940514  0.59544093  0.22308392  1
  H  H68  1  0.51299370  0.04398723  0.91619034  1
  H  H69  1  0.48700630  0.95601277  0.08380966  1
  H  H70  1  0.01299370  0.45601277  0.58380966  1
  H  H71  1  0.98700630  0.54398723  0.41619034  1
  C  C0  1  0.25955332  0.64012719  0.94963750  1
  C  C1  1  0.74044668  0.35987281  0.05036250  1
  C  C2  1  0.75955332  0.85987281  0.55036250  1
  C  C3  1  0.24044668  0.14012719  0.44963750  1
  C  C4  1  0.21345691  0.46806351  0.91136225  1
  C  C5  1  0.78654309  0.53193649  0.08863775  1
  C  C6  1  0.71345691  0.03193649  0.58863775  1
  C  C7  1  0.28654309  0.96806351  0.41136225  1
  C  C8  1  0.24748237  0.76839312  0.61569292  1
  C  C9  1  0.75251763  0.23160688  0.38430708  1
  C  C10  1  0.74748237  0.73160688  0.88430708  1
  C  C11  1  0.25251763  0.26839312  0.11569292  1
  C  C12  1  0.20190335  0.94157559  0.65104879  1
  C  C13  1  0.79809665  0.05842441  0.34895121  1
  C  C14  1  0.70190335  0.55842441  0.84895121  1
  C  C15  1  0.29809665  0.44157559  0.15104879  1
  C  C16  1  0.19188515  0.84350138  0.75220861  1
  C  C17  1  0.80811485  0.15649862  0.24779139  1
  C  C18  1  0.69188515  0.65649862  0.74779139  1
  C  C19  1  0.30811485  0.34350138  0.25220861  1
  C  C20  1  0.68728741  0.93028343  0.68605894  1
  C  C21  1  0.31271259  0.06971657  0.31394106  1
  C  C22  1  0.18728741  0.56971657  0.81394106  1
  C  C23  1  0.81271259  0.43028343  0.18605894  1
  N  N0  1  0.22097956  0.76406150  0.69463197  1
  N  N1  1  0.77902044  0.23593850  0.30536803  1
  N  N2  1  0.72097956  0.73593850  0.80536803  1
  N  N3  1  0.27902044  0.26406150  0.19463197  1
  N  N4  1  0.18243636  0.48016752  0.83452265  1
  N  N5  1  0.81756364  0.51983248  0.16547735  1
  N  N6  1  0.68243636  0.01983248  0.66547735  1
  N  N7  1  0.31756364  0.98016752  0.33452265  1
  N  N8  1  0.18496582  0.93265322  0.72951190  1
  N  N9  1  0.81503418  0.06734678  0.27048810  1
  N  N10  1  0.68496582  0.56734678  0.77048810  1
  N  N11  1  0.31503418  0.43265322  0.22951190  1
  N  N12  1  0.23560320  0.85945581  0.59590170  1
  N  N13  1  0.76439680  0.14054419  0.40409830  1
  N  N14  1  0.73560320  0.64054419  0.90409830  1
  N  N15  1  0.26439680  0.35945581  0.09590170  1
  N  N16  1  0.22757508  0.64812192  0.87150819  1
  N  N17  1  0.77242492  0.35187808  0.12849181  1
  N  N18  1  0.72757508  0.85187808  0.62849181  1
  N  N19  1  0.27242492  0.14812192  0.37150819  1
  N  N20  1  0.25026468  0.54857404  0.96766424  1
  N  N21  1  0.74973532  0.45142596  0.03233576  1
  N  N22  1  0.75026468  0.95142596  0.53233576  1
  N  N23  1  0.24973532  0.04857404  0.46766424  1
  O  O0  1  0.39200453  0.13472466  0.75922511  1
  O  O1  1  0.60799547  0.86527534  0.24077489  1
  O  O2  1  0.89200453  0.36527534  0.74077489  1
  O  O3  1  0.10799547  0.63472466  0.25922511  1
  O  O4  1  0.49826014  0.50199596  0.40100276  1
  O  O5  1  0.50173986  0.49800404  0.59899724  1
  O  O6  1  0.99826014  0.99800404  0.09899724  1
  O  O7  1  0.00173986  0.00199596  0.90100276  1
  O  O8  1  0.16849943  0.25339180  0.66086066  1
  O  O9  1  0.83150057  0.74660820  0.33913934  1
  O  O10  1  0.66849943  0.24660820  0.83913934  1
  O  O11  1  0.33150057  0.75339180  0.16086066  1
  O  O12  1  0.19123087  0.18682858  0.90894278  1
  O  O13  1  0.80876913  0.81317142  0.09105722  1
  O  O14  1  0.69123087  0.31317142  0.59105722  1
  O  O15  1  0.30876913  0.68682858  0.40894278  1
  O  O16  1  0.65739481  0.91412232  0.75589659  1
  O  O17  1  0.34260519  0.08587768  0.24410341  1
  O  O18  1  0.15739481  0.58587768  0.74410341  1
  O  O19  1  0.84260519  0.41412232  0.25589659  1
  O  O20  1  0.68920044  0.08977236  0.98431369  1
  O  O21  1  0.31079956  0.91022764  0.01568631  1
  O  O22  1  0.18920044  0.41022764  0.51568631  1
  O  O23  1  0.81079956  0.58977236  0.48431369  1
  O  O24  1  0.45063451  0.37185448  0.72852498  1
  O  O25  1  0.54936549  0.62814552  0.27147502  1
  O  O26  1  0.95063451  0.12814552  0.77147502  1
  O  O27  1  0.04936549  0.87185448  0.22852498  1
  O  O28  1  0.27906398  0.69527277  0.56701786  1
  O  O29  1  0.72093602  0.30472723  0.43298214  1
  O  O30  1  0.77906398  0.80472723  0.93298214  1
  O  O31  1  0.22093602  0.19527277  0.06701786  1
  O  O32  1  0.18966204  0.02069149  0.62570583  1
  O  O33  1  0.81033796  0.97930851  0.37429417  1
  O  O34  1  0.68966204  0.47930851  0.87429417  1
  O  O35  1  0.31033796  0.52069149  0.12570583  1
  O  O36  1  0.21038652  0.38737386  0.93451531  1
  O  O37  1  0.78961348  0.61262614  0.06548469  1
  O  O38  1  0.71038652  0.11262614  0.56548469  1
  O  O39  1  0.28961348  0.88737386  0.43451531  1
  O  O40  1  0.17314131  0.82952132  0.82295673  1
  O  O41  1  0.82685869  0.17047868  0.17704327  1
  O  O42  1  0.67314131  0.67047868  0.67704327  1
  O  O43  1  0.32685869  0.32952132  0.32295673  1
  O  O44  1  0.29508719  0.71125552  0.00007418  1
  O  O45  1  0.70491281  0.28874448  0.99992582  1
  O  O46  1  0.79508719  0.78874448  0.49992582  1
  O  O47  1  0.20491281  0.21125552  0.50007418  1
  O  O48  1  0.42856208  0.00110514  0.87984364  1
  O  O49  1  0.57143792  0.99889486  0.12015636  1
  O  O50  1  0.92856208  0.49889486  0.62015636  1
  O  O51  1  0.07143792  0.50110514  0.37984364  1
loop_
_geom_bond_atom_site_label_1
_geom_bond_atom_site_label_2
_geom_bond_distance
_geom_bond_site_symmetry_2
Fe0 O12 2.123342 1_555
Fe0 O7 2.126724 1_555
Fe0 O26 2.136187 1_455
Fe0 O0 2.163287 1_555
Fe0 O48 2.230865 1_555
Fe0 N8 2.231314 1_545
Fe1 O13 2.123342 1_555
Fe1 O6 2.126724 1_555
Fe1 O27 2.136187 1_655
Fe1 O1 2.163287 1_555
Fe1 O49 2.230865 1_555
Fe1 N9 2.231314 1_565
Fe2 O14 2.123342 1_555
Fe2 O5 2.126724 1_555
Fe2 O24 2.136187 1_555
Fe2 O2 2.163287 1_555
Fe2 O50 2.230865 1_555
Fe2 N10 2.231314 1_555
Fe3 O15 2.123342 1_555
Fe3 O4 2.126724 1_555
Fe3 O25 2.136187 1_555
Fe3 O3 2.163287 1_555
Fe3 O51 2.230865 1_555
Fe3 N11 2.231314 1_555
H0 O12 0.994333 1_555
H0 O31 1.690038 1_556
H1 O13 0.994333 1_555
H1 O30 1.690038 1_554
H2 O14 0.994333 1_555
H2 O29 1.690038 1_555
H3 O15 0.994333 1_555
H3 O28 1.690038 1_555
H4 O24 0.988601 1_555
H5 O25 0.988601 1_555
H6 O26 0.988601 1_555
H7 O27 0.988601 1_555
H8 O4 0.975507 1_555
H9 O5 0.975507 1_555
H10 O6 0.975507 1_445
H11 O7 0.975507 1_665
H12 O8 0.990232 1_555
H13 O9 0.990232 1_555
H14 O10 0.990232 1_555
H15 O11 0.990232 1_555
H16 O4 0.991051 1_555
H17 O5 0.991051 1_555
H18 O6 0.991051 1_455
H19 O7 0.991051 1_655
H20 N2 1.041386 1_555
H21 N3 1.041386 1_555
H22 N0 1.041386 1_555
H23 N1 1.041386 1_555
H24 O0 0.997423 1_555
H25 O1 0.997423 1_555
H26 O2 0.997423 1_555
H27 O3 0.997423 1_555
H28 O24 0.996184 1_555
H29 O25 0.996184 1_555
H30 O26 0.996184 1_555
H31 O27 0.996184 1_555
H32 N12 1.039284 1_555
H33 N13 1.039284 1_555
H34 N14 1.039284 1_555
H35 N15 1.039284 1_555
H36 O20 0.989181 1_555
H37 O21 0.989181 1_555
H38 O22 0.989181 1_555
H39 O23 0.989181 1_555
H40 O8 0.983001 1_555
H41 O9 0.983001 1_555
H42 O10 0.983001 1_555
H43 O11 0.983001 1_555
H44 N18 1.046211 1_555
H45 N19 1.046211 1_555
H46 N16 1.046211 1_555
H47 N17 1.046211 1_555
H48 N23 1.045601 1_555
H49 N22 1.045601 1_555
H50 N21 1.045601 1_556
H51 N20 1.045601 1_554
H52 O12 0.981983 1_555
H53 O13 0.981983 1_555
H54 O14 0.981983 1_555
H55 O15 0.981983 1_555
H56 O48 0.992293 1_565
H57 O49 0.992293 1_545
H58 O50 0.992293 1_455
H59 O51 0.992293 1_655
H60 O23 0.988550 1_555
H61 O22 0.988550 1_555
H62 O21 0.988550 1_556
H63 O20 0.988550 1_554
H64 O0 0.990460 1_555
H65 O1 0.990460 1_555
H66 O2 0.990460 1_555
H67 O3 0.990460 1_555
H68 O48 0.998995 1_555
H69 O49 0.998995 1_555
H70 O50 0.998995 1_455
H71 O51 0.998995 1_655
C0 O44 1.246416 1_556
C0 N20 1.367988 1_555
C0 N16 1.368884 1_555
C1 O45 1.246416 1_554
C1 N21 1.367988 1_555
C1 N17 1.368884 1_555
C2 O46 1.246416 1_555
C2 N22 1.367988 1_555
C2 N18 1.368884 1_555
C3 O47 1.246416 1_555
C3 N23 1.367988 1_555
C3 N19 1.368884 1_555
C4 O36 1.254305 1_555
C4 N4 1.360292 1_555
C4 N20 1.398466 1_555
C5 O37 1.254305 1_555
C5 N5 1.360292 1_555
C5 N21 1.398466 1_555
C6 O38 1.254305 1_555
C6 N6 1.360292 1_555
C6 N22 1.398466 1_545
C7 O39 1.254305 1_555
C7 N7 1.360292 1_555
C7 N23 1.398466 1_565
C8 O28 1.244382 1_555
C8 N0 1.366037 1_555
C8 N12 1.373397 1_555
C9 O29 1.244382 1_555
C9 N1 1.366037 1_555
C9 N13 1.373397 1_555
C10 O30 1.244382 1_555
C10 N2 1.366037 1_555
C10 N14 1.373397 1_555
C11 O31 1.244382 1_555
C11 N3 1.366037 1_555
C11 N15 1.373397 1_555
C12 O32 1.253300 1_565
C12 N8 1.363892 1_555
C12 N12 1.399824 1_555
C13 O33 1.253300 1_545
C13 N9 1.363892 1_555
C13 N13 1.399824 1_555
C14 O34 1.253300 1_555
C14 N10 1.363892 1_555
C14 N14 1.399824 1_555
C15 O35 1.253300 1_555
C15 N11 1.363892 1_555
C15 N15 1.399824 1_555
C16 O40 1.254267 1_555
C16 N8 1.365414 1_555
C16 N0 1.391176 1_555
C17 O41 1.254267 1_555
C17 N9 1.365414 1_555
C17 N1 1.391176 1_555
C18 O42 1.254267 1_555
C18 N10 1.365414 1_555
C18 N2 1.391176 1_555
C19 O43 1.254267 1_555
C19 N11 1.365414 1_555
C19 N3 1.391176 1_555
C20 O16 1.259413 1_555
C20 N6 1.355815 1_565
C20 N18 1.395004 1_555
C21 O17 1.259413 1_555
C21 N7 1.355815 1_545
C21 N19 1.395004 1_555
C22 O18 1.259413 1_555
C22 N4 1.355815 1_555
C22 N16 1.395004 1_555
C23 O19 1.259413 1_555
C23 N5 1.355815 1_555
C23 N17 1.395004 1_555
