# generated using pymatgen
data_Sr2LiSi3
_symmetry_space_group_name_H-M   'P 1'
_cell_length_a   11.75320930
_cell_length_b   10.07512015
_cell_length_c   8.54053293
_cell_angle_alpha   77.83859770
_cell_angle_beta   56.91896266
_cell_angle_gamma   45.26259313
_symmetry_Int_Tables_number   1
_chemical_formula_structural   Sr2LiSi3
_chemical_formula_sum   'Sr8 Li4 Si12'
_cell_volume   575.78824688
_cell_formula_units_Z   4
loop_
 _symmetry_equiv_pos_site_id
 _symmetry_equiv_pos_as_xyz
  1  'x, y, z'
loop_
 _atom_site_type_symbol
 _atom_site_label
 _atom_site_symmetry_multiplicity
 _atom_site_fract_x
 _atom_site_fract_y
 _atom_site_fract_z
 _atom_site_occupancy
  Sr  Sr0  1  0.12407297  0.12409734  0.87591372  1
  Sr  Sr1  1  0.87592744  0.87590839  0.12408509  1
  Sr  Sr2  1  0.12592098  0.12591430  0.37409011  1
  Sr  Sr3  1  0.37407173  0.37409629  0.12591854  1
  Sr  Sr4  1  0.62446768  0.62447982  0.37552501  1
  Sr  Sr5  1  0.37553319  0.37552155  0.62447407  1
  Sr  Sr6  1  0.62552747  0.62552645  0.87447463  1
  Sr  Sr7  1  0.87447041  0.87447702  0.62552626  1
  Li  Li0  1  0.08308579  0.41699476  0.08290958  1
  Li  Li1  1  0.83307240  0.16699267  0.83292137  1
  Li  Li2  1  0.16692326  0.83301855  0.16707746  1
  Li  Li3  1  0.41692122  0.08300014  0.41708870  1
  Si  Si0  1  0.91308754  0.59265248  0.42661473  1
  Si  Si1  1  0.06763458  0.42662822  0.59266280  1
  Si  Si2  1  0.42657938  0.06767533  0.91312469  1
  Si  Si3  1  0.59264024  0.91308709  0.06768597  1
  Si  Si4  1  0.33692498  0.65734352  0.82337639  1
  Si  Si5  1  0.65734764  0.33690754  0.18232420  1
  Si  Si6  1  0.82342692  0.18232799  0.33686743  1
  Si  Si7  1  0.18235811  0.82336161  0.65734695  1
  Si  Si8  1  0.91083500  0.58916360  0.91084583  1
  Si  Si9  1  0.58915655  0.91084179  0.58916411  1
  Si  Si10  1  0.33915694  0.66083313  0.33915780  1
  Si  Si11  1  0.66086257  0.33915643  0.66082154  1
loop_
_geom_bond_atom_site_label_1
_geom_bond_atom_site_label_2
_geom_bond_distance
_geom_bond_site_symmetry_2
Li0 Si8 2.548950 1_454
Li0 Si2 2.558464 1_554
Li0 Si0 2.559183 1_455
Li0 Sr3 3.352896 1_555
Li0 Sr2 3.354680 1_555
Li0 Sr5 3.360786 1_554
Li0 Sr4 3.362110 1_455
Li0 Sr1 3.366398 1_455
Li0 Sr0 3.366427 1_554
Li1 Si11 2.548914 1_555
Li1 Si7 2.558799 1_645
Li1 Si5 2.558944 1_556
Li1 Sr0 3.352995 1_655
Li1 Sr1 3.354598 1_546
Li1 Sr7 3.361503 1_545
Li1 Sr6 3.361641 1_555
Li1 Sr2 3.365733 1_655
Li1 Sr3 3.366874 1_556
Li2 Si10 2.548946 1_555
Li2 Si6 2.558435 1_465
Li2 Si4 2.559206 1_554
Li2 Sr1 3.352973 1_455
Li2 Sr0 3.354568 1_564
Li2 Sr7 3.360929 1_455
Li2 Sr6 3.361962 1_554
Li2 Sr2 3.366367 1_565
Li2 Sr3 3.366510 1_555
Li3 Si9 2.548922 1_545
Li3 Si1 2.558792 1_555
Li3 Si3 2.558957 1_545
Li3 Sr2 3.352909 1_555
Li3 Sr3 3.354710 1_555
Li3 Sr4 3.361515 1_545
Li3 Sr5 3.361591 1_555
Li3 Sr0 3.365632 1_555
Li3 Sr1 3.366965 1_545
Si0 Sr7 3.245104 1_555
Si0 Sr6 3.317908 1_555
Si0 Sr3 3.346295 1_655
Si0 Sr1 3.373648 1_555
Si0 Sr2 3.417067 1_655
Si0 Sr4 3.438877 1_555
Si1 Sr6 3.245030 1_455
Si1 Sr7 3.318108 1_455
Si1 Sr2 3.346399 1_555
Si1 Sr0 3.373642 1_555
Si1 Sr3 3.416826 1_555
Si1 Sr5 3.438883 1_555
Si2 Sr6 3.245704 1_545
Si2 Sr7 3.317870 1_545
Si2 Sr2 3.346356 1_556
Si2 Sr0 3.373036 1_555
Si2 Sr3 3.416466 1_556
Si2 Sr5 3.439574 1_555
Si3 Sr7 3.245569 1_554
Si3 Sr6 3.317787 1_554
Si3 Sr3 3.346941 1_565
Si3 Sr1 3.373007 1_555
Si3 Sr2 3.416433 1_565
Si3 Sr4 3.439272 1_555
Si4 Sr5 3.245111 1_555
Si4 Sr4 3.317837 1_555
Si4 Sr1 3.346385 1_456
Si4 Sr3 3.373674 1_556
Si4 Sr0 3.417142 1_565
Si4 Sr6 3.438787 1_555
Si5 Sr5 3.245446 1_555
Si5 Sr4 3.317902 1_555
Si5 Sr1 3.346815 1_545
Si5 Sr3 3.372851 1_555
Si5 Sr0 3.416546 1_654
Si5 Sr6 3.439407 1_554
Si6 Sr4 3.245691 1_555
Si6 Sr5 3.317913 1_555
Si6 Sr0 3.346277 1_654
Si6 Sr2 3.373006 1_655
Si6 Sr1 3.416455 1_545
Si6 Sr7 3.439650 1_545
Si7 Sr4 3.245111 1_555
Si7 Sr5 3.317988 1_555
Si7 Sr0 3.346571 1_565
Si7 Sr2 3.373810 1_565
Si7 Sr1 3.416719 1_456
Si7 Sr7 3.438752 1_455
Si8 Sr6 3.291647 1_555
Si8 Sr7 3.292389 1_555
Si8 Sr5 3.395806 1_655
Si8 Sr4 3.395919 1_556
Si8 Sr1 3.400565 1_556
Si8 Sr0 3.400983 1_655
Si9 Sr7 3.291661 1_555
Si9 Sr6 3.292347 1_555
Si9 Sr4 3.395749 1_555
Si9 Sr5 3.396220 1_565
Si9 Sr0 3.400565 1_565
Si9 Sr1 3.400804 1_555
Si10 Sr4 3.291724 1_555
Si10 Sr5 3.292349 1_555
Si10 Sr7 3.395695 1_455
Si10 Sr6 3.395985 1_554
Si10 Sr3 3.400429 1_555
Si10 Sr2 3.401122 1_565
Si11 Sr5 3.291761 1_555
Si11 Sr4 3.292300 1_555
Si11 Sr6 3.395681 1_555
Si11 Sr7 3.396271 1_545
Si11 Sr2 3.400388 1_655
Si11 Sr3 3.400947 1_556
