# generated using pymatgen
data_RbSO4
_symmetry_space_group_name_H-M   'P 1'
_cell_length_a   5.40190200
_cell_length_b   14.21454800
_cell_length_c   16.26499418
_cell_angle_alpha   65.41358510
_cell_angle_beta   90.00000000
_cell_angle_gamma   90.00000000
_symmetry_Int_Tables_number   1
_chemical_formula_structural   RbSO4
_chemical_formula_sum   'Rb8 S8 O32'
_cell_volume   1135.68390937
_cell_formula_units_Z   8
loop_
 _symmetry_equiv_pos_site_id
 _symmetry_equiv_pos_as_xyz
  1  'x, y, z'
loop_
 _atom_site_type_symbol
 _atom_site_label
 _atom_site_symmetry_multiplicity
 _atom_site_fract_x
 _atom_site_fract_y
 _atom_site_fract_z
 _atom_site_occupancy
  Rb  Rb0  1  0.78551800  0.00948900  0.22078100  1
  Rb  Rb1  1  0.28551800  0.49051100  0.77921900  1
  Rb  Rb2  1  0.21448200  0.99051100  0.77921900  1
  Rb  Rb3  1  0.71448200  0.50948900  0.22078100  1
  Rb  Rb4  1  0.13154100  0.15637200  0.44459000  1
  Rb  Rb5  1  0.63154100  0.34362800  0.55541000  1
  Rb  Rb6  1  0.86845900  0.84362800  0.55541000  1
  Rb  Rb7  1  0.36845900  0.65637200  0.44459000  1
  S  S0  1  0.56330700  0.33814300  0.04606100  1
  S  S1  1  0.06330700  0.16185700  0.95393900  1
  S  S2  1  0.43669300  0.66185700  0.95393900  1
  S  S3  1  0.93669300  0.83814300  0.04606100  1
  S  S4  1  0.19780100  0.45571600  0.36811200  1
  S  S5  1  0.69780100  0.04428400  0.63188800  1
  S  S6  1  0.80219900  0.54428400  0.63188800  1
  S  S7  1  0.30219900  0.95571600  0.36811200  1
  O  O0  1  0.19822600  0.43317800  0.28576700  1
  O  O1  1  0.69822600  0.06682200  0.71423300  1
  O  O2  1  0.80177400  0.56682200  0.71423300  1
  O  O3  1  0.30177400  0.93317800  0.28576700  1
  O  O4  1  0.12095000  0.36173200  0.44922100  1
  O  O5  1  0.62095000  0.13826800  0.55077900  1
  O  O6  1  0.87905000  0.63826800  0.55077900  1
  O  O7  1  0.37905000  0.86173200  0.44922100  1
  O  O8  1  0.01917400  0.54158700  0.35456100  1
  O  O9  1  0.51917400  0.95841300  0.64543900  1
  O  O10  1  0.98082600  0.45841300  0.64543900  1
  O  O11  1  0.48082600  0.04158700  0.35456100  1
  O  O12  1  0.45160400  0.48839400  0.38190400  1
  O  O13  1  0.95160400  0.01160600  0.61809600  1
  O  O14  1  0.54839600  0.51160600  0.61809600  1
  O  O15  1  0.04839600  0.98839400  0.38190400  1
  O  O16  1  0.76745100  0.40891100  0.03538900  1
  O  O17  1  0.26745100  0.09108900  0.96461100  1
  O  O18  1  0.23254900  0.59108900  0.96461100  1
  O  O19  1  0.73254900  0.90891100  0.03538900  1
  O  O20  1  0.48301000  0.28873900  0.21545400  1
  O  O21  1  0.98301000  0.21126100  0.78454600  1
  O  O22  1  0.51699000  0.71126100  0.78454600  1
  O  O23  1  0.01699000  0.78873900  0.21545400  1
  O  O24  1  0.62421700  0.23097100  0.06664600  1
  O  O25  1  0.12421700  0.26902900  0.93335400  1
  O  O26  1  0.37578300  0.76902900  0.93335400  1
  O  O27  1  0.87578300  0.73097100  0.06664600  1
  O  O28  1  0.31268400  0.22400800  0.24127400  1
  O  O29  1  0.81268400  0.27599200  0.75872600  1
  O  O30  1  0.68731600  0.77599200  0.75872600  1
  O  O31  1  0.18731600  0.72400800  0.24127400  1
loop_
_geom_bond_atom_site_label_1
_geom_bond_atom_site_label_2
_geom_bond_distance
_geom_bond_site_symmetry_2
O0 S4 1.501175 1_555
O0 Rb3 2.858021 1_455
O0 Rb3 3.019437 1_555
O1 S5 1.501175 1_555
O1 Rb2 2.858021 1_545
O1 Rb2 3.019437 1_645
O2 S6 1.501175 1_555
O2 Rb1 2.858021 1_655
O2 Rb1 3.019437 1_555
O3 S7 1.501175 1_555
O3 Rb0 2.858021 1_565
O3 Rb0 3.019437 1_465
O4 S4 1.493620 1_555
O4 Rb4 2.951788 1_555
O4 Rb5 3.109473 1_455
O4 Rb5 3.207323 1_555
O5 S5 1.493620 1_555
O5 Rb5 2.951788 1_555
O5 Rb4 3.109473 1_555
O5 Rb4 3.207323 1_655
O6 S6 1.493620 1_555
O6 Rb6 2.951788 1_555
O6 Rb7 3.109473 1_655
O6 Rb7 3.207323 1_555
O7 S7 1.493620 1_555
O7 Rb7 2.951788 1_555
O7 Rb6 3.109473 1_555
O7 Rb6 3.207323 1_455
O8 S4 1.498565 1_555
O8 Rb3 2.911703 1_455
O8 Rb7 3.217852 1_555
O9 S5 1.498565 1_565
O9 Rb2 2.911703 1_555
O9 Rb6 3.217852 1_555
O10 S6 1.498565 1_555
O10 Rb1 2.911703 1_655
O10 Rb5 3.217852 1_555
O11 S7 1.498565 1_545
O11 Rb0 2.911703 1_555
O11 Rb4 3.217852 1_555
O12 S4 1.494151 1_555
O12 Rb5 2.882881 1_555
O12 Rb3 2.884512 1_555
O12 Rb7 2.994724 1_555
O13 S5 1.494151 1_555
O13 Rb4 2.882881 1_655
O13 Rb2 2.884512 1_645
O13 Rb6 2.994724 1_545
O14 S6 1.494151 1_555
O14 Rb7 2.882881 1_555
O14 Rb1 2.884512 1_555
O14 Rb5 2.994724 1_555
O15 S7 1.494151 1_555
O15 Rb6 2.882881 1_455
O15 Rb0 2.884512 1_465
O15 Rb4 2.994724 1_565
O16 S0 1.453558 1_555
O17 S1 1.453558 1_555
O18 S2 1.453558 1_555
O19 S3 1.453558 1_555
O20 O28 1.244186 1_555
O20 Rb3 3.412241 1_555
O21 O29 1.244186 1_555
O21 Rb2 3.412241 1_645
O22 O30 1.244186 1_555
O22 Rb1 3.412241 1_555
O23 O31 1.244186 1_555
O23 Rb0 3.412241 1_465
O24 S0 1.454881 1_555
O24 Rb0 3.223058 1_555
O25 S1 1.454881 1_555
O25 Rb1 3.223058 1_555
O26 S2 1.454881 1_555
O26 Rb2 3.223058 1_555
O27 S3 1.454881 1_555
O27 Rb3 3.223058 1_555
O28 Rb4 3.189358 1_555
O29 Rb5 3.189358 1_555
O30 Rb6 3.189358 1_555
O31 Rb7 3.189358 1_555
