# generated using pymatgen
data_BaSrGa4
_symmetry_space_group_name_H-M   'P 1'
_cell_length_a   4.34991282
_cell_length_b   4.34991282
_cell_length_c   9.99704080
_cell_angle_alpha   90.00000000
_cell_angle_beta   90.00000000
_cell_angle_gamma   119.99999142
_symmetry_Int_Tables_number   1
_chemical_formula_structural   BaSrGa4
_chemical_formula_sum   'Ba1 Sr1 Ga4'
_cell_volume   163.81861089
_cell_formula_units_Z   1
loop_
 _symmetry_equiv_pos_site_id
 _symmetry_equiv_pos_as_xyz
  1  'x, y, z'
loop_
 _atom_site_type_symbol
 _atom_site_label
 _atom_site_symmetry_multiplicity
 _atom_site_fract_x
 _atom_site_fract_y
 _atom_site_fract_z
 _atom_site_occupancy
  Ba  Ba0  1  -0.00000000  0.00000000  0.50000000  1
  Sr  Sr0  1  -0.00000000  0.00000000  0.00000000  1
  Ga  Ga0  1  0.66666700  0.33333300  0.76054415  1
  Ga  Ga1  1  0.66666700  0.33333300  0.23945585  1
  Ga  Ga2  1  0.33333300  0.66666700  0.76054415  1
  Ga  Ga3  1  0.33333300  0.66666700  0.23945585  1
loop_
_geom_bond_atom_site_label_1
_geom_bond_atom_site_label_2
_geom_bond_distance
_geom_bond_site_symmetry_2
Ba0 Ga3 3.618224 1_545
Ba0 Ga1 3.618224 1_455
Ba0 Ga2 3.618224 1_545
Ba0 Ga0 3.618224 1_455
Ba0 Ga2 3.618226 1_445
Ba0 Ga3 3.618226 1_445
Ba0 Ga0 3.618226 1_555
Ba0 Ga0 3.618226 1_445
Ba0 Ga1 3.618226 1_555
Ba0 Ga3 3.618226 1_555
Ba0 Ga1 3.618226 1_445
Ba0 Ga2 3.618226 1_555
Ga0 Ga2 2.511421 1_545
Ga0 Ga2 2.511421 1_655
Ga0 Ga2 2.511428 1_555
Ga0 Sr0 3.469546 1_656
Ga0 Sr0 3.469549 1_556
Ga0 Sr0 3.469549 1_666
Ga1 Ga3 2.511421 1_545
Ga1 Ga3 2.511421 1_655
Ga1 Ga3 2.511428 1_555
Ga1 Sr0 3.469546 1_655
Ga1 Sr0 3.469549 1_555
Ga1 Sr0 3.469549 1_665
Ga2 Sr0 3.469546 1_566
Ga2 Sr0 3.469549 1_666
Ga2 Sr0 3.469549 1_556
Ga3 Sr0 3.469546 1_565
Ga3 Sr0 3.469549 1_555
Ga3 Sr0 3.469549 1_665
