# generated using pymatgen
data_Li6Mn3CoO10
_symmetry_space_group_name_H-M   'P 1'
_cell_length_a   2.99301400
_cell_length_b   5.08601376
_cell_length_c   12.54516799
_cell_angle_alpha   100.88367711
_cell_angle_beta   88.10285733
_cell_angle_gamma   103.50602068
_symmetry_Int_Tables_number   1
_chemical_formula_structural   Li6Mn3CoO10
_chemical_formula_sum   'Li6 Mn3 Co1 O10'
_cell_volume   182.33564327
_cell_formula_units_Z   1
loop_
 _symmetry_equiv_pos_site_id
 _symmetry_equiv_pos_as_xyz
  1  'x, y, z'
loop_
 _atom_site_type_symbol
 _atom_site_label
 _atom_site_symmetry_multiplicity
 _atom_site_fract_x
 _atom_site_fract_y
 _atom_site_fract_z
 _atom_site_occupancy
  Li  Li0  1  0.30510400  0.59893700  0.10374400  1
  Li  Li1  1  0.89779300  0.79095200  0.30192900  1
  Li  Li2  1  0.47191500  0.98517000  0.49051000  1
  Li  Li3  1  0.11370200  0.21275500  0.70134600  1
  Li  Li4  1  0.69915700  0.40124400  0.90100100  1
  Li  Li5  1  0.21580800  0.41500900  0.39835200  1
  Mn  Mn0  1  0.00472800  0.00400300  0.00407900  1
  Mn  Mn1  1  0.79434900  0.59587100  0.59197100  1
  Mn  Mn2  1  0.38970400  0.79406000  0.80009900  1
  Co  Co0  1  0.61190500  0.20740900  0.20984500  1
  O  O0  1  0.67222200  0.28544900  0.06054000  1
  O  O1  1  0.26644400  0.47164300  0.24552700  1
  O  O2  1  0.85855000  0.70567100  0.46090900  1
  O  O3  1  0.40364000  0.86131300  0.64877500  1
  O  O4  1  0.07255900  0.08670400  0.85417800  1
  O  O5  1  0.93586700  0.91991200  0.14792000  1
  O  O6  1  0.54736000  0.10154200  0.33403700  1
  O  O7  1  0.19643500  0.34297700  0.55497000  1
  O  O8  1  0.72016600  0.51034400  0.74385800  1
  O  O9  1  0.32259100  0.70903500  0.94641100  1
loop_
_geom_bond_atom_site_label_1
_geom_bond_atom_site_label_2
_geom_bond_distance
_geom_bond_site_symmetry_2
Li0 O1 1.995628 1_555
Li0 O0 2.120323 1_555
Li0 O9 2.146835 1_554
Li0 O5 2.157299 1_455
Li0 O0 2.180577 1_455
Li0 O5 2.196429 1_555
Li1 O6 2.064781 1_565
Li1 O2 2.113540 1_555
Li1 O5 2.145956 1_555
Li1 O1 2.169531 1_655
Li1 O6 2.194178 1_665
Li1 O1 2.220353 1_555
Li2 O2 2.009567 1_555
Li2 O2 2.038551 1_455
Li2 O6 2.145124 1_565
Li2 O7 2.178637 1_565
Li2 O3 2.183107 1_555
Li2 O7 2.526882 1_665
Li3 O7 2.055378 1_555
Li3 O8 2.084716 1_555
Li3 O8 2.109237 1_455
Li3 O4 2.124592 1_555
Li3 O3 2.150444 1_545
Li3 O3 2.453519 1_445
Li4 O9 2.119014 1_555
Li4 O8 2.141680 1_555
Li4 O4 2.142444 1_655
Li4 O9 2.150833 1_655
Li4 O4 2.176727 1_555
Li4 O0 2.184349 1_556
Li5 O1 1.987603 1_555
Li5 O2 2.046784 1_455
Li5 O7 2.062128 1_555
Li5 O6 2.092301 1_555
Li5 O2 2.198986 1_555
Li5 O6 2.307967 1_455
Mn0 O5 1.925434 1_445
Mn0 O0 1.943447 1_455
Mn0 O9 1.972399 1_544
Mn0 O4 1.997017 1_554
Mn0 O0 2.217439 1_555
Mn0 O9 2.280266 1_444
Mn1 O2 1.824241 1_555
Mn1 O7 1.943886 1_655
Mn1 O7 1.956212 1_555
Mn1 O3 2.004212 1_555
Mn1 O8 2.027097 1_555
Mn1 O3 2.056400 1_655
Mn2 O8 1.947885 1_555
Mn2 O4 1.952576 1_565
Mn2 O9 1.957345 1_555
Mn2 O3 1.988947 1_555
Mn2 O8 2.225812 1_455
Mn2 O4 2.267657 1_665
Co0 O6 1.732891 1_555
Co0 O1 1.861925 1_555
Co0 O5 1.966000 1_545
Co0 O0 1.980747 1_555
Co0 O1 2.108420 1_655
Co0 O5 2.264695 1_445
