# generated using pymatgen
data_Er4Ge6Ir7
_symmetry_space_group_name_H-M   'P 1'
_cell_length_a   7.19874210
_cell_length_b   7.19874210
_cell_length_c   7.19874210
_cell_angle_alpha   109.47122063
_cell_angle_beta   109.47122063
_cell_angle_gamma   109.47122063
_symmetry_Int_Tables_number   1
_chemical_formula_structural   Er4Ge6Ir7
_chemical_formula_sum   'Er4 Ge6 Ir7'
_cell_volume   287.17587586
_cell_formula_units_Z   1
loop_
 _symmetry_equiv_pos_site_id
 _symmetry_equiv_pos_as_xyz
  1  'x, y, z'
loop_
 _atom_site_type_symbol
 _atom_site_label
 _atom_site_symmetry_multiplicity
 _atom_site_fract_x
 _atom_site_fract_y
 _atom_site_fract_z
 _atom_site_occupancy
  Er  Er0  1  0.00000000  -0.00000000  0.50000000  1
  Er  Er1  1  0.00000000  0.50000000  -0.00000000  1
  Er  Er2  1  0.50000000  0.00000000  -0.00000000  1
  Er  Er3  1  0.50000000  0.50000000  0.50000000  1
  Ge  Ge0  1  0.68211422  0.68211422  0.00000000  1
  Ge  Ge1  1  0.31788578  -0.00000000  0.31788578  1
  Ge  Ge2  1  -0.00000000  0.31788578  0.31788578  1
  Ge  Ge3  1  0.31788578  0.31788578  -0.00000000  1
  Ge  Ge4  1  0.68211422  0.00000000  0.68211422  1
  Ge  Ge5  1  0.00000000  0.68211422  0.68211422  1
  Ir  Ir0  1  0.75000000  0.25000000  0.50000000  1
  Ir  Ir1  1  0.75000000  0.50000000  0.25000000  1
  Ir  Ir2  1  0.50000000  0.25000000  0.75000000  1
  Ir  Ir3  1  0.25000000  0.50000000  0.75000000  1
  Ir  Ir4  1  0.25000000  0.75000000  0.50000000  1
  Ir  Ir5  1  0.50000000  0.75000000  0.25000000  1
  Ir  Ir6  1  0.00000000  -0.00000000  -0.00000000  1
loop_
_geom_bond_atom_site_label_1
_geom_bond_atom_site_label_2
_geom_bond_distance
_geom_bond_site_symmetry_2
Er0 Ir1 2.938874 1_445
Er0 Ir5 2.938874 1_445
Er0 Ir2 2.938874 1_555
Er0 Ir3 2.938874 1_555
Er0 Ir4 2.938874 1_545
Er0 Ir0 2.938874 1_455
Er0 Ge2 2.992559 1_555
Er0 Ge3 2.992559 1_556
Er0 Ge5 2.992559 1_545
Er0 Ge4 2.992559 1_455
Er0 Ge1 2.992559 1_555
Er0 Ge0 2.992559 1_445
Er1 Ir2 2.938874 1_454
Er1 Ir5 2.938874 1_555
Er1 Ir4 2.938874 1_555
Er1 Ir0 2.938874 1_454
Er1 Ir1 2.938874 1_455
Er1 Ir3 2.938874 1_554
Er1 Ge1 2.992559 1_565
Er1 Ge4 2.992559 1_454
Er1 Ge2 2.992559 1_555
Er1 Ge0 2.992559 1_455
Er1 Ge5 2.992559 1_554
Er1 Ge3 2.992559 1_555
Er2 Ir1 2.938874 1_555
Er2 Ir3 2.938874 1_544
Er2 Ir4 2.938874 1_544
Er2 Ir5 2.938874 1_545
Er2 Ir2 2.938874 1_554
Er2 Ir0 2.938874 1_555
Er2 Ge1 2.992559 1_555
Er2 Ge2 2.992559 1_655
Er2 Ge3 2.992559 1_555
Er2 Ge5 2.992559 1_544
Er2 Ge0 2.992559 1_545
Er2 Ge4 2.992559 1_554
Er3 Ir4 2.938874 1_555
Er3 Ir1 2.938874 1_555
Er3 Ir5 2.938874 1_555
Er3 Ir2 2.938874 1_555
Er3 Ir3 2.938874 1_555
Er3 Ir0 2.938874 1_555
Er3 Ge2 2.992559 1_555
Er3 Ge1 2.992559 1_555
Er3 Ge3 2.992559 1_555
Er3 Ge0 2.992559 1_556
Er3 Ge5 2.992559 1_655
Er3 Ge4 2.992559 1_565
Ge0 Ir2 2.571011 1_554
Ge0 Ir3 2.571011 1_554
Ge0 Ir1 2.571011 1_555
Ge0 Ir5 2.571011 1_555
Ge0 Ir6 2.642391 1_665
Ge1 Ir0 2.571011 1_555
Ge1 Ir4 2.571011 1_545
Ge1 Ir5 2.571011 1_545
Ge1 Ir2 2.571011 1_555
Ge1 Ir6 2.642391 1_555
Ge2 Ir4 2.571011 1_555
Ge2 Ir0 2.571011 1_455
Ge2 Ir3 2.571011 1_555
Ge2 Ir1 2.571011 1_455
Ge2 Ir6 2.642391 1_555
Ge3 Ir2 2.571011 1_554
Ge3 Ir3 2.571011 1_554
Ge3 Ir1 2.571011 1_555
Ge3 Ir5 2.571011 1_555
Ge3 Ir6 2.642391 1_555
Ge4 Ir0 2.571011 1_555
Ge4 Ir4 2.571011 1_545
Ge4 Ir5 2.571011 1_545
Ge4 Ir2 2.571011 1_555
Ge4 Ir6 2.642391 1_656
Ge5 Ir4 2.571011 1_555
Ge5 Ir0 2.571011 1_455
Ge5 Ir3 2.571011 1_555
Ge5 Ir1 2.571011 1_455
Ge5 Ir6 2.642391 1_566
