# generated using pymatgen
data_Nb5V(FeSe10)2
_symmetry_space_group_name_H-M   'P 1'
_cell_length_a   3.52697900
_cell_length_b   9.39559560
_cell_length_c   18.89116218
_cell_angle_alpha   86.17015368
_cell_angle_beta   90.00000000
_cell_angle_gamma   90.00000000
_symmetry_Int_Tables_number   1
_chemical_formula_structural   Nb5V(FeSe10)2
_chemical_formula_sum   'Nb5 V1 Fe2 Se20'
_cell_volume   624.61860997
_cell_formula_units_Z   1
loop_
 _symmetry_equiv_pos_site_id
 _symmetry_equiv_pos_as_xyz
  1  'x, y, z'
loop_
 _atom_site_type_symbol
 _atom_site_label
 _atom_site_symmetry_multiplicity
 _atom_site_fract_x
 _atom_site_fract_y
 _atom_site_fract_z
 _atom_site_occupancy
  Nb  Nb0  1  0.75000000  0.40706200  0.31683600  1
  Nb  Nb1  1  0.75000000  0.90564000  0.81764500  1
  Nb  Nb2  1  0.25000000  0.09649600  0.18050800  1
  Nb  Nb3  1  0.25000000  0.59649300  0.68110700  1
  Nb  Nb4  1  0.25000000  0.08887100  0.45756800  1
  V  V0  1  0.25000000  0.59437000  0.95591700  1
  Fe  Fe0  1  0.75000000  0.39818800  0.04854800  1
  Fe  Fe1  1  0.75000000  0.90141700  0.54892900  1
  Se  Se0  1  0.25000000  0.57911800  0.37811800  1
  Se  Se1  1  0.25000000  0.07713800  0.87902000  1
  Se  Se2  1  0.75000000  0.92339700  0.12029100  1
  Se  Se3  1  0.75000000  0.42418600  0.62059200  1
  Se  Se4  1  0.25000000  0.19574400  0.31547800  1
  Se  Se5  1  0.25000000  0.69387800  0.81780800  1
  Se  Se6  1  0.75000000  0.30904600  0.17653800  1
  Se  Se7  1  0.75000000  0.80829500  0.67708900  1
  Se  Se8  1  0.25000000  0.58454300  0.25227000  1
  Se  Se9  1  0.25000000  0.08425000  0.75310300  1
  Se  Se10  1  0.75000000  0.91767500  0.24603900  1
  Se  Se11  1  0.75000000  0.41800300  0.74658400  1
  Se  Se12  1  0.75000000  0.30568200  0.45589500  1
  Se  Se13  1  0.75000000  0.79673700  0.95503500  1
  Se  Se14  1  0.25000000  0.21774700  0.04473700  1
  Se  Se15  1  0.25000000  0.71828600  0.54464300  1
  Se  Se16  1  0.75000000  0.91077000  0.42025600  1
  Se  Se17  1  0.75000000  0.42460500  0.92295900  1
  Se  Se18  1  0.25000000  0.56204000  0.07978900  1
  Se  Se19  1  0.25000000  0.06032000  0.58669800  1
loop_
_geom_bond_atom_site_label_1
_geom_bond_atom_site_label_2
_geom_bond_distance
_geom_bond_site_symmetry_2
Nb0 Se4 2.656954 1_655
Nb0 Se4 2.656954 1_555
Nb0 Se8 2.665822 1_655
Nb0 Se8 2.665822 1_555
Nb0 Se0 2.704337 1_655
Nb0 Se0 2.704337 1_555
Nb0 Se12 2.733878 1_555
Nb0 Se6 2.863342 1_555
Nb1 Se5 2.658517 1_555
Nb1 Se5 2.658517 1_655
Nb1 Se9 2.671959 1_565
Nb1 Se9 2.671959 1_665
Nb1 Se1 2.701879 1_665
Nb1 Se1 2.701879 1_565
Nb1 Se13 2.725543 1_555
Nb1 Se7 2.865551 1_555
Nb2 Se6 2.661514 1_455
Nb2 Se6 2.661514 1_555
Nb2 Se10 2.680936 1_445
Nb2 Se10 2.680936 1_545
Nb2 Se2 2.701145 1_445
Nb2 Se2 2.701145 1_545
Nb2 Se14 2.736067 1_555
Nb2 Se4 2.772786 1_555
Nb3 Se7 2.656238 1_555
Nb3 Se7 2.656238 1_455
Nb3 Se11 2.678655 1_455
Nb3 Se11 2.678655 1_555
Nb3 Se3 2.699067 1_555
Nb3 Se3 2.699067 1_455
Nb3 Se15 2.749777 1_555
Nb3 Se5 2.796759 1_555
Nb4 Se19 2.436246 1_555
Nb4 Se16 2.562118 1_445
Nb4 Se16 2.562118 1_545
Nb4 Se12 2.692943 1_555
Nb4 Se12 2.692943 1_455
Nb4 Se4 2.802391 1_555
Fe0 Se17 2.368924 1_554
Fe0 Se18 2.439180 1_555
Fe0 Se18 2.439180 1_655
Fe0 Se14 2.450632 1_655
Fe0 Se14 2.450632 1_555
Fe0 Se6 2.505413 1_555
Fe1 Se16 2.426498 1_555
Fe1 Se19 2.447508 1_565
Fe1 Se19 2.447508 1_665
Fe1 Se15 2.468929 1_555
Fe1 Se15 2.468929 1_655
Fe1 Se7 2.518773 1_555
Se0 Se8 2.374555 1_555
Se1 Se9 2.375191 1_555
Se5 V0 2.712072 1_555
Se10 Se2 2.372541 1_555
Se11 Se3 2.376962 1_555
Se13 V0 2.592509 1_555
Se13 V0 2.592509 1_655
Se17 V0 2.484829 1_555
Se17 V0 2.484829 1_655
Se18 V0 2.339512 1_554
