# generated using pymatgen
data_CaTi2O4
_symmetry_space_group_name_H-M   'P 1'
_cell_length_a   6.31177629
_cell_length_b   6.31177629
_cell_length_c   6.31177629
_cell_angle_alpha   121.11639085
_cell_angle_beta   121.11639085
_cell_angle_gamma   88.07699159
_symmetry_Int_Tables_number   1
_chemical_formula_structural   CaTi2O4
_chemical_formula_sum   'Ca2 Ti4 O8'
_cell_volume   174.69616402
_cell_formula_units_Z   2
loop_
 _symmetry_equiv_pos_site_id
 _symmetry_equiv_pos_as_xyz
  1  'x, y, z'
loop_
 _atom_site_type_symbol
 _atom_site_label
 _atom_site_symmetry_multiplicity
 _atom_site_fract_x
 _atom_site_fract_y
 _atom_site_fract_z
 _atom_site_occupancy
  Ca  Ca0  1  0.50000000  0.50000000  0.00000000  1
  Ca  Ca1  1  0.25000000  0.75000000  0.50000000  1
  Ti  Ti0  1  0.87500000  0.12500000  0.25000000  1
  Ti  Ti1  1  0.37500000  0.12500000  0.25000000  1
  Ti  Ti2  1  0.87500000  0.62500000  0.75000000  1
  Ti  Ti3  1  0.87500000  0.12500000  0.75000000  1
  O  O0  1  0.67612400  0.89617600  0.77994800  1
  O  O1  1  0.10382400  0.88377200  0.77994800  1
  O  O2  1  0.10382400  0.32387600  0.22005200  1
  O  O3  1  0.07387600  0.35382400  0.72005200  1
  O  O4  1  0.63377200  0.35382400  0.27994800  1
  O  O5  1  0.64617600  0.36622800  0.72005200  1
  O  O6  1  0.11622800  0.89617600  0.22005200  1
  O  O7  1  0.64617600  0.92612400  0.27994800  1
loop_
_geom_bond_atom_site_label_1
_geom_bond_atom_site_label_2
_geom_bond_distance
_geom_bond_site_symmetry_2
Ca0 O7 2.185643 1_555
Ca0 O3 2.185643 1_554
Ca0 O4 2.185643 1_555
Ca0 O5 2.185643 1_554
Ca1 O1 2.185643 1_555
Ca1 O0 2.185643 1_555
Ca1 O2 2.185643 1_555
Ca1 O6 2.185643 1_555
O0 Ti2 2.075487 1_555
O0 Ti0 2.075487 1_566
O0 Ti3 2.084814 1_565
O1 Ti1 2.075487 1_566
O1 Ti3 2.075487 1_465
O1 Ti2 2.084814 1_455
O2 Ti3 2.075487 1_454
O2 Ti1 2.075487 1_555
O2 Ti0 2.084814 1_455
O3 Ti0 2.075487 1_455
O3 Ti2 2.075487 1_455
O3 Ti3 2.084814 1_455
O4 Ti0 2.075487 1_555
O4 Ti2 2.075487 1_555
O4 Ti1 2.084814 1_555
O5 Ti1 2.075487 1_555
O5 Ti3 2.075487 1_555
O5 Ti2 2.084814 1_555
O6 Ti0 2.075487 1_465
O6 Ti2 2.075487 1_454
O6 Ti1 2.084814 1_565
O7 Ti1 2.075487 1_565
O7 Ti3 2.075487 1_565
O7 Ti0 2.084814 1_565
