# generated using pymatgen
data_Er4Fe34C3
_symmetry_space_group_name_H-M   'P 1'
_cell_length_a   6.47537575
_cell_length_b   6.44075953
_cell_length_c   12.90166851
_cell_angle_alpha   82.98602850
_cell_angle_beta   83.46869026
_cell_angle_gamma   83.54200502
_symmetry_Int_Tables_number   1
_chemical_formula_structural   Er4Fe34C3
_chemical_formula_sum   'Er4 Fe34 C3'
_cell_volume   527.93007306
_cell_formula_units_Z   1
loop_
 _symmetry_equiv_pos_site_id
 _symmetry_equiv_pos_as_xyz
  1  'x, y, z'
loop_
 _atom_site_type_symbol
 _atom_site_label
 _atom_site_symmetry_multiplicity
 _atom_site_fract_x
 _atom_site_fract_y
 _atom_site_fract_z
 _atom_site_occupancy
  Er  Er0  1  0.66351900  0.65433900  0.32751600  1
  Er  Er1  1  0.66110800  0.66029100  0.82592400  1
  Er  Er2  1  0.33648100  0.34566100  0.17248400  1
  Er  Er3  1  0.33889200  0.33970900  0.67407600  1
  Fe  Fe0  1  0.90227700  0.90380700  0.45216900  1
  Fe  Fe1  1  0.90477400  0.90421500  0.95062800  1
  Fe  Fe2  1  0.09772300  0.09619300  0.04783100  1
  Fe  Fe3  1  0.09522600  0.09578500  0.54937200  1
  Fe  Fe4  1  0.34150000  0.34472700  0.42628400  1
  Fe  Fe5  1  0.34315500  0.34259900  0.92421100  1
  Fe  Fe6  1  0.34173700  0.85099100  0.17221600  1
  Fe  Fe7  1  0.34410600  0.84951400  0.67315600  1
  Fe  Fe8  1  0.85251100  0.34490100  0.17292000  1
  Fe  Fe9  1  0.84893700  0.34479000  0.67306900  1
  Fe  Fe10  1  0.65850000  0.65527300  0.07371600  1
  Fe  Fe11  1  0.65684500  0.65740100  0.57578900  1
  Fe  Fe12  1  0.65826300  0.14900900  0.32778400  1
  Fe  Fe13  1  0.65589400  0.15048600  0.82684400  1
  Fe  Fe14  1  0.14748900  0.65509900  0.32708000  1
  Fe  Fe15  1  0.15106300  0.65521000  0.82693100  1
  Fe  Fe16  1  0.28481300  0.71568200  0.50006400  1
  Fe  Fe17  1  0.28445800  0.71546000  0.99985800  1
  Fe  Fe18  1  0.71611400  0.99965300  0.14201100  1
  Fe  Fe19  1  0.70924600  0.00000700  0.64653100  1
  Fe  Fe20  1  0.00140900  0.29062600  0.35458100  1
  Fe  Fe21  1  0.99918800  0.29135900  0.85374600  1
  Fe  Fe22  1  0.28388600  0.00034700  0.35798900  1
  Fe  Fe23  1  0.29075400  0.99999300  0.85346900  1
  Fe  Fe24  1  0.99859100  0.70937400  0.14541900  1
  Fe  Fe25  1  0.00081200  0.70864100  0.64625400  1
  Fe  Fe26  1  0.71518700  0.28431800  0.99993600  1
  Fe  Fe27  1  0.71554200  0.28454000  0.50014200  1
  Fe  Fe28  1  0.00000000  0.00000000  0.25000000  1
  Fe  Fe29  1  0.00000000  0.00000000  0.75000000  1
  Fe  Fe30  1  0.99899500  0.49988800  0.50036400  1
  Fe  Fe31  1  0.00100500  0.50011200  0.99963600  1
  Fe  Fe32  1  0.50034500  0.99806200  0.99897200  1
  Fe  Fe33  1  0.49965500  0.00193700  0.50102800  1
  C  C0  1  0.49878500  0.49961300  0.99963500  1
  C  C1  1  0.50121500  0.50038700  0.50036500  1
  C  C2  1  0.50000000  0.00000000  0.25000000  1
loop_
_geom_bond_atom_site_label_1
_geom_bond_atom_site_label_2
_geom_bond_distance
_geom_bond_site_symmetry_2
Er0 Fe24 3.027010 1_555
Er0 Fe20 3.036098 1_655
Er0 Fe0 3.051866 1_555
Er0 Fe8 3.052028 1_555
Er0 Fe14 3.133806 1_655
Er0 Fe28 3.279592 1_665
Er0 Fe30 3.279604 1_555
Er0 Fe14 3.341585 1_555
Er0 Fe33 3.361345 1_565
Er1 Fe19 2.998988 1_565
Er1 Fe25 3.021066 1_655
Er1 Fe1 3.049380 1_555
Er1 Fe7 3.058531 1_555
Er1 Fe21 3.060725 1_555
Er1 Fe9 3.061826 1_555
Er1 Fe23 3.079014 1_555
Er1 Fe13 3.155068 1_565
Er1 Fe15 3.170618 1_655
Er1 Fe29 3.260376 1_665
Er1 Fe13 3.286060 1_555
Er1 Fe15 3.305107 1_555
Er1 Fe32 3.308936 1_555
Er1 Fe31 3.313327 1_655
Er2 Fe20 3.027010 1_555
Er2 Fe24 3.036098 1_455
Er2 Fe2 3.051866 1_555
Er2 Fe14 3.052028 1_555
Er2 Fe8 3.133806 1_455
Er2 Fe28 3.279592 1_555
Er2 Fe31 3.279604 1_554
Er2 Fe8 3.341585 1_555
Er2 Fe32 3.361349 1_544
Er3 Fe23 2.998988 1_545
Er3 Fe21 3.021066 1_455
Er3 Fe3 3.049380 1_555
Er3 Fe13 3.058531 1_555
Er3 Fe25 3.060725 1_555
Er3 Fe15 3.061826 1_555
Er3 Fe19 3.079014 1_555
Er3 Fe7 3.155068 1_545
Er3 Fe9 3.170618 1_455
Er3 Fe29 3.260376 1_555
Er3 Fe7 3.286060 1_555
Er3 Fe9 3.305107 1_555
Er3 Fe33 3.308941 1_555
Er3 Fe30 3.313327 1_455
Fe0 Fe3 2.396942 1_665
Fe0 Fe30 2.621816 1_555
Fe0 Fe28 2.627859 1_665
Fe0 Fe33 2.635660 1_565
Fe0 Fe11 2.638324 1_555
Fe0 Fe12 2.638685 1_565
Fe0 Fe14 2.677311 1_655
Fe0 Fe27 2.718810 1_565
Fe0 Fe22 2.728965 1_665
Fe0 Fe16 2.734230 1_655
Fe0 Fe20 2.759383 1_665
Fe0 Fe25 2.769774 1_655
Fe0 Fe19 2.779657 1_565
Fe1 Fe2 2.396942 1_666
Fe1 Fe29 2.606397 1_665
Fe1 Fe31 2.623961 1_655
Fe1 Fe32 2.641411 1_555
Fe1 Fe10 2.648211 1_556
Fe1 Fe13 2.656213 1_565
Fe1 Fe15 2.670796 1_655
Fe1 Fe17 2.724040 1_655
Fe1 Fe26 2.726145 1_565
Fe1 Fe18 2.735425 1_556
Fe1 Fe21 2.749831 1_565
Fe1 Fe23 2.764764 1_655
Fe1 Fe24 2.768629 1_556
Fe2 Fe31 2.621816 1_554
Fe2 Fe28 2.627859 1_555
Fe2 Fe32 2.635661 1_544
Fe2 Fe5 2.638324 1_554
Fe2 Fe6 2.638685 1_545
Fe2 Fe8 2.677311 1_455
Fe2 Fe26 2.734230 1_454
Fe2 Fe24 2.759383 1_445
Fe2 Fe21 2.769774 1_454
Fe2 Fe23 2.779657 1_544
Fe3 Fe30 2.623961 1_455
Fe3 Fe33 2.641412 1_555
Fe3 Fe4 2.648211 1_555
Fe3 Fe7 2.656213 1_545
Fe3 Fe9 2.670796 1_455
Fe10 Fe32 2.459528 1_554
Fe10 Fe31 2.466474 1_654
Fe10 Fe8 2.527556 1_555
Fe10 Fe24 2.557688 1_555
Fe11 Fe33 2.466413 1_565
Fe11 Fe30 2.475851 1_555
Fe11 Fe9 2.520123 1_555
Fe11 Fe7 2.539159 1_555
Fe11 Fe19 2.558936 1_565
Fe11 Fe25 2.568193 1_655
Fe12 Fe28 2.465215 1_655
Fe12 Fe33 2.475377 1_555
Fe12 Fe8 2.517070 1_555
Fe12 Fe20 2.568357 1_655
Fe13 Fe32 2.468022 1_545
Fe13 Fe29 2.476609 1_655
Fe13 Fe9 2.499232 1_555
Fe13 Fe5 2.539159 1_555
Fe13 Fe21 2.567371 1_555
Fe13 Fe26 2.572376 1_555
Fe13 Fe19 2.600585 1_555
Fe13 Fe23 2.626300 1_545
Fe14 Fe28 2.456643 1_565
Fe14 Fe30 2.470517 1_455
Fe14 Fe6 2.517070 1_555
Fe14 Fe4 2.527556 1_555
Fe14 Fe22 2.573373 1_565
Fe14 Fe16 2.581866 1_555
Fe14 Fe20 2.598284 1_555
Fe14 Fe24 2.604431 1_455
Fe15 Fe29 2.463220 1_565
Fe15 Fe31 2.467604 1_555
Fe15 Fe7 2.499232 1_555
Fe15 Fe5 2.520123 1_555
Fe15 Fe23 2.564136 1_555
Fe15 Fe17 2.568955 1_555
Fe15 Fe25 2.596816 1_555
Fe15 Fe21 2.611853 1_455
Fe16 Fe33 2.433369 1_565
Fe16 Fe30 2.435747 1_455
Fe16 Fe25 2.479956 1_555
Fe16 Fe7 2.572376 1_555
Fe16 Fe3 2.726145 1_565
Fe17 Fe32 2.414764 1_555
Fe17 Fe31 2.422305 1_555
Fe17 Fe23 2.465999 1_555
Fe17 Fe24 2.482420 1_456
Fe17 Fe2 2.718810 1_566
Fe18 Fe28 2.429954 1_665
Fe18 Fe32 2.439733 1_554
Fe18 Fe24 2.464165 1_555
Fe18 Fe8 2.573373 1_565
Fe18 Fe2 2.728965 1_665
Fe19 Fe29 2.428674 1_655
Fe19 Fe33 2.436430 1_555
Fe19 Fe27 2.465999 1_555
Fe19 Fe25 2.507857 1_645
Fe19 Fe9 2.564136 1_555
Fe19 Fe7 2.626300 1_545
Fe19 Fe3 2.764764 1_655
Fe20 Fe28 2.438832 1_555
Fe20 Fe30 2.441737 1_455
Fe20 Fe22 2.464165 1_555
Fe20 Fe27 2.482420 1_455
Fe20 Fe4 2.557688 1_555
Fe20 Fe8 2.604431 1_455
Fe20 Fe3 2.768629 1_555
Fe21 Fe29 2.433669 1_655
Fe21 Fe31 2.444855 1_655
Fe21 Fe26 2.479956 1_555
Fe21 Fe23 2.507857 1_645
Fe21 Fe5 2.568193 1_655
Fe21 Fe9 2.596816 1_555
Fe22 Fe28 2.429954 1_555
Fe22 Fe33 2.439732 1_555
Fe22 Fe3 2.735425 1_555
Fe23 Fe29 2.428674 1_565
Fe23 Fe32 2.436429 1_555
Fe23 Fe5 2.558936 1_565
Fe23 Fe7 2.600585 1_555
Fe24 Fe28 2.438832 1_665
Fe24 Fe31 2.441737 1_654
Fe24 Fe6 2.568357 1_655
Fe24 Fe8 2.598284 1_555
Fe25 Fe29 2.433669 1_565
Fe25 Fe30 2.444855 1_455
Fe25 Fe7 2.567371 1_555
Fe25 Fe9 2.611853 1_455
Fe25 Fe3 2.749831 1_565
Fe26 Fe32 2.433375 1_545
Fe26 Fe31 2.435747 1_655
Fe26 Fe8 2.581866 1_556
Fe27 Fe33 2.414770 1_555
Fe27 Fe30 2.422305 1_555
Fe27 Fe9 2.568955 1_555
Fe27 Fe3 2.724040 1_655
Fe28 Fe8 2.456643 1_455
Fe28 Fe6 2.465215 1_545
Fe29 Fe9 2.463220 1_455
Fe29 Fe7 2.476609 1_545
Fe29 Fe3 2.606397 1_555
Fe30 Fe4 2.466474 1_655
Fe30 Fe9 2.467604 1_555
Fe31 Fe8 2.470517 1_456
Fe31 Fe5 2.475851 1_555
Fe32 Fe5 2.466418 1_565
Fe32 Fe6 2.475375 1_556
Fe33 Fe4 2.459534 1_555
Fe33 Fe7 2.468019 1_545
C0 Fe17 1.850645 1_555
C0 Fe26 1.857221 1_555
C0 Fe5 1.917782 1_555
C0 Fe10 1.918429 1_556
C0 Er2 2.494405 1_556
C0 Er1 2.518128 1_555
C1 Fe27 1.850645 1_555
C1 Fe16 1.857221 1_555
C1 Fe11 1.917782 1_555
C1 Fe4 1.918429 1_555
C1 Er0 2.494405 1_555
C1 Er3 2.518128 1_555
C2 Fe18 1.859033 1_545
C2 Fe22 1.859033 1_555
C2 Fe12 1.915425 1_555
C2 Fe6 1.915425 1_545
C2 Er0 2.498936 1_545
C2 Er2 2.498936 1_555
