# generated using pymatgen
data_Ti2CuNi
_symmetry_space_group_name_H-M   'P 1'
_cell_length_a   2.87371700
_cell_length_b   4.25110000
_cell_length_c   4.52261900
_cell_angle_alpha   90.00000000
_cell_angle_beta   90.00000000
_cell_angle_gamma   90.00000000
_symmetry_Int_Tables_number   1
_chemical_formula_structural   Ti2CuNi
_chemical_formula_sum   'Ti2 Cu1 Ni1'
_cell_volume   55.25038660
_cell_formula_units_Z   1
loop_
 _symmetry_equiv_pos_site_id
 _symmetry_equiv_pos_as_xyz
  1  'x, y, z'
loop_
 _atom_site_type_symbol
 _atom_site_label
 _atom_site_symmetry_multiplicity
 _atom_site_fract_x
 _atom_site_fract_y
 _atom_site_fract_z
 _atom_site_occupancy
  Ti  Ti0  1  0.50000000  0.00000000  0.22105300  1
  Ti  Ti1  1  0.50000000  0.50000000  0.77934200  1
  Cu  Cu0  1  0.00000000  0.50000000  0.31009800  1
  Ni  Ni0  1  0.00000000  0.00000000  0.68950700  1
loop_
_geom_bond_atom_site_label_1
_geom_bond_atom_site_label_2
_geom_bond_distance
_geom_bond_site_symmetry_2
Cu0 Ti1 2.562878 1_455
Cu0 Ti1 2.562878 1_555
Cu0 Ti0 2.597057 1_555
Cu0 Ti0 2.597057 1_465
Cu0 Ti0 2.597057 1_565
Cu0 Ti0 2.597057 1_455
Cu0 Ti1 2.797591 1_454
Cu0 Ti1 2.797591 1_554
Ni0 Ti0 2.559921 1_555
Ni0 Ti0 2.559921 1_455
Ni0 Ti1 2.597614 1_445
Ni0 Ti1 2.597614 1_555
Ni0 Ti1 2.597614 1_545
Ni0 Ti1 2.597614 1_455
Ni0 Ti0 2.800657 1_456
Ni0 Ti0 2.800657 1_556
