# generated using pymatgen
data_LiHfMg30O31
_symmetry_space_group_name_H-M   'P 1'
_cell_length_a   8.53610800
_cell_length_b   8.55739300
_cell_length_c   8.56941800
_cell_angle_alpha   90.00000000
_cell_angle_beta   90.00000000
_cell_angle_gamma   90.00000000
_symmetry_Int_Tables_number   1
_chemical_formula_structural   LiHfMg30O31
_chemical_formula_sum   'Li1 Hf1 Mg30 O31'
_cell_volume   625.96882710
_cell_formula_units_Z   1
loop_
 _symmetry_equiv_pos_site_id
 _symmetry_equiv_pos_as_xyz
  1  'x, y, z'
loop_
 _atom_site_type_symbol
 _atom_site_label
 _atom_site_symmetry_multiplicity
 _atom_site_fract_x
 _atom_site_fract_y
 _atom_site_fract_z
 _atom_site_occupancy
  Li  Li0  1  0.00005200  0.00000000  0.00000000  1
  Hf  Hf0  1  0.98735000  0.50000000  0.00000000  1
  Mg  Mg0  1  0.99982800  0.00000000  0.50000000  1
  Mg  Mg1  1  0.00136100  0.50000000  0.50000000  1
  Mg  Mg2  1  0.49971800  0.00000000  0.00000000  1
  Mg  Mg3  1  0.50006100  0.50000000  0.00000000  1
  Mg  Mg4  1  0.50012000  0.00000000  0.50000000  1
  Mg  Mg5  1  0.49985300  0.50000000  0.50000000  1
  Mg  Mg6  1  0.99991100  0.75773900  0.74644700  1
  Mg  Mg7  1  0.99991100  0.24226100  0.74644700  1
  Mg  Mg8  1  0.99991100  0.75773900  0.25355300  1
  Mg  Mg9  1  0.99991100  0.24226100  0.25355300  1
  Mg  Mg10  1  0.50021700  0.75130400  0.74946300  1
  Mg  Mg11  1  0.50021700  0.24869600  0.74946300  1
  Mg  Mg12  1  0.50021700  0.75130400  0.25053700  1
  Mg  Mg13  1  0.50021700  0.24869600  0.25053700  1
  Mg  Mg14  1  0.74615800  0.75886200  0.00000000  1
  Mg  Mg15  1  0.74615800  0.24113800  0.00000000  1
  Mg  Mg16  1  0.74955100  0.75201100  0.50000000  1
  Mg  Mg17  1  0.74955100  0.24798900  0.50000000  1
  Mg  Mg18  1  0.25241900  0.75674400  0.00000000  1
  Mg  Mg19  1  0.25241900  0.24325600  0.00000000  1
  Mg  Mg20  1  0.25039300  0.75119200  0.50000000  1
  Mg  Mg21  1  0.25039300  0.24880800  0.50000000  1
  Mg  Mg22  1  0.75228400  0.00000000  0.75181700  1
  Mg  Mg23  1  0.74792200  0.50000000  0.74556200  1
  Mg  Mg24  1  0.75228400  0.00000000  0.24818300  1
  Mg  Mg25  1  0.74792200  0.50000000  0.25443800  1
  Mg  Mg26  1  0.24769400  0.00000000  0.75253700  1
  Mg  Mg27  1  0.25298100  0.50000000  0.74707900  1
  Mg  Mg28  1  0.24769400  0.00000000  0.24746300  1
  Mg  Mg29  1  0.25298100  0.50000000  0.25292100  1
  O  O0  1  0.74412300  0.00000000  0.00000000  1
  O  O1  1  0.74923400  0.00000000  0.50000000  1
  O  O2  1  0.75021200  0.50000000  0.50000000  1
  O  O3  1  0.25584600  0.00000000  0.00000000  1
  O  O4  1  0.25053300  0.50000000  0.00000000  1
  O  O5  1  0.25073900  0.00000000  0.50000000  1
  O  O6  1  0.25176300  0.50000000  0.50000000  1
  O  O7  1  0.75033400  0.75179300  0.74837700  1
  O  O8  1  0.75033400  0.24820700  0.74837700  1
  O  O9  1  0.75033400  0.75179300  0.25162300  1
  O  O10  1  0.75033400  0.24820700  0.25162300  1
  O  O11  1  0.24947600  0.74974300  0.75097400  1
  O  O12  1  0.24947600  0.25025700  0.75097400  1
  O  O13  1  0.24947600  0.74974300  0.24902600  1
  O  O14  1  0.24947600  0.25025700  0.24902600  1
  O  O15  1  0.99955300  0.74152000  0.00000000  1
  O  O16  1  0.99955300  0.25848000  0.00000000  1
  O  O17  1  0.00017100  0.74881600  0.50000000  1
  O  O18  1  0.00017100  0.25118400  0.50000000  1
  O  O19  1  0.50002300  0.74840900  0.00000000  1
  O  O20  1  0.50002300  0.25159100  0.00000000  1
  O  O21  1  0.49969400  0.74913100  0.50000000  1
  O  O22  1  0.49969400  0.25086900  0.50000000  1
  O  O23  1  0.00027200  0.00000000  0.74410900  1
  O  O24  1  0.00623700  0.50000000  0.74414100  1
  O  O25  1  0.00027200  0.00000000  0.25589100  1
  O  O26  1  0.00623700  0.50000000  0.25585900  1
  O  O27  1  0.49965500  0.00000000  0.74951400  1
  O  O28  1  0.49971900  0.50000000  0.74960900  1
  O  O29  1  0.49965500  0.00000000  0.25048600  1
  O  O30  1  0.49971900  0.50000000  0.25039100  1
loop_
_geom_bond_atom_site_label_1
_geom_bond_atom_site_label_2
_geom_bond_distance
_geom_bond_site_symmetry_2
Li0 O3 2.183485 1_555
Li0 O0 2.184638 1_455
Li0 O25 2.192838 1_555
Li0 O23 2.192838 1_554
Li0 O15 2.211919 1_445
Li0 O16 2.211919 1_455
Hf0 O16 2.069405 1_555
Hf0 O15 2.069405 1_555
Hf0 O26 2.198482 1_655
Hf0 O24 2.198482 1_654
Hf0 O4 2.246559 1_655
Mg0 O25 2.091875 1_655
Mg0 O23 2.091875 1_655
Mg0 O1 2.139097 1_555
Mg0 O5 2.141803 1_655
Mg0 O18 2.149482 1_655
Mg0 O17 2.149482 1_645
Mg1 O24 2.092560 1_555
Mg1 O26 2.092560 1_555
Mg1 O17 2.129241 1_555
Mg1 O18 2.129241 1_555
Mg1 O6 2.137459 1_555
Mg1 O2 2.143835 1_455
Mg2 O3 2.081718 1_555
Mg2 O0 2.086267 1_555
Mg2 O29 2.146519 1_555
Mg2 O27 2.146519 1_554
Mg2 O19 2.152965 1_545
Mg2 O20 2.152965 1_555
Mg3 O20 2.125733 1_555
Mg3 O19 2.125733 1_555
Mg3 O4 2.129998 1_555
Mg3 O30 2.145707 1_555
Mg3 O28 2.145707 1_554
Mg4 O1 2.126464 1_555
Mg4 O5 2.128743 1_555
Mg4 O29 2.138193 1_555
Mg4 O27 2.138193 1_555
Mg4 O22 2.146788 1_555
Mg4 O21 2.146788 1_545
Mg5 O6 2.117723 1_555
Mg5 O22 2.131912 1_555
Mg5 O21 2.131912 1_555
Mg5 O2 2.137091 1_555
Mg5 O28 2.139004 1_555
Mg5 O30 2.139004 1_555
Mg6 O23 2.073222 1_665
Mg6 O17 2.113288 1_655
Mg6 O7 2.131088 1_555
Mg6 O11 2.131765 1_655
Mg6 O15 2.177232 1_556
Mg6 O24 2.206323 1_655
Mg7 O23 2.073222 1_655
Mg7 O18 2.113288 1_655
Mg7 O8 2.131088 1_555
Mg7 O12 2.131765 1_655
Mg7 O16 2.177232 1_556
Mg7 O24 2.206323 1_655
Mg8 O25 2.073222 1_665
Mg8 O17 2.113288 1_655
Mg8 O9 2.131088 1_555
Mg8 O13 2.131765 1_655
Mg8 O15 2.177232 1_555
Mg8 O26 2.206323 1_655
Mg9 O25 2.073222 1_655
Mg9 O18 2.113288 1_655
Mg9 O10 2.131088 1_555
Mg9 O14 2.131765 1_655
Mg9 O16 2.177232 1_555
Mg9 O26 2.206323 1_655
Mg10 O27 2.128195 1_565
Mg10 O7 2.135050 1_555
Mg10 O21 2.137838 1_555
Mg10 O11 2.140433 1_555
Mg10 O19 2.147100 1_556
Mg10 O28 2.150512 1_555
Mg11 O27 2.128195 1_555
Mg11 O8 2.135050 1_555
Mg11 O22 2.137838 1_555
Mg11 O12 2.140433 1_555
Mg11 O20 2.147100 1_556
Mg11 O28 2.150512 1_555
Mg12 O29 2.128195 1_565
Mg12 O9 2.135050 1_555
Mg12 O21 2.137838 1_555
Mg12 O13 2.140433 1_555
Mg12 O19 2.147100 1_555
Mg12 O30 2.150512 1_555
Mg13 O29 2.128195 1_555
Mg13 O10 2.135050 1_555
Mg13 O22 2.137838 1_555
Mg13 O14 2.140433 1_555
Mg13 O20 2.147100 1_555
Mg13 O30 2.150512 1_555
Mg14 O0 2.063586 1_565
Mg14 O19 2.102938 1_555
Mg14 O9 2.157406 1_555
Mg14 O7 2.157406 1_554
Mg14 O15 2.168092 1_555
Mg15 O0 2.063586 1_555
Mg15 O20 2.102938 1_555
Mg15 O10 2.157406 1_555
Mg15 O8 2.157406 1_554
Mg15 O16 2.168092 1_555
Mg16 O1 2.122141 1_565
Mg16 O7 2.128458 1_555
Mg16 O9 2.128458 1_555
Mg16 O21 2.132949 1_555
Mg16 O17 2.139494 1_655
Mg16 O2 2.156565 1_555
Mg17 O1 2.122141 1_555
Mg17 O8 2.128458 1_555
Mg17 O10 2.128458 1_555
Mg17 O22 2.132949 1_555
Mg17 O18 2.139494 1_655
Mg17 O2 2.156565 1_555
Mg18 O3 2.081843 1_565
Mg18 O19 2.114778 1_555
Mg18 O13 2.134996 1_555
Mg18 O11 2.134996 1_554
Mg18 O15 2.162419 1_455
Mg18 O4 2.197118 1_555
Mg19 O3 2.081843 1_555
Mg19 O20 2.114778 1_555
Mg19 O14 2.134996 1_555
Mg19 O12 2.134996 1_554
Mg19 O16 2.162419 1_455
Mg19 O4 2.197118 1_555
Mg20 O21 2.128133 1_555
Mg20 O5 2.129150 1_565
Mg20 O17 2.136019 1_555
Mg20 O6 2.149580 1_555
Mg20 O11 2.150751 1_555
Mg20 O13 2.150751 1_555
Mg21 O22 2.128133 1_555
Mg21 O5 2.129150 1_555
Mg21 O18 2.136019 1_555
Mg21 O6 2.149580 1_555
Mg21 O12 2.150751 1_555
Mg21 O14 2.150751 1_555
Mg22 O23 2.117883 1_655
Mg22 O8 2.124275 1_555
Mg22 O7 2.124275 1_545
Mg22 O0 2.127924 1_556
Mg22 O27 2.156559 1_555
Mg22 O1 2.158082 1_555
Mg23 O2 2.104414 1_555
Mg23 O28 2.118971 1_555
Mg23 O7 2.154925 1_555
Mg23 O8 2.154925 1_555
Mg23 O24 2.205038 1_655
Mg24 O25 2.117883 1_655
Mg24 O10 2.124275 1_555
Mg24 O9 2.124275 1_545
Mg24 O0 2.127924 1_555
Mg24 O29 2.156559 1_555
Mg24 O1 2.158082 1_555
Mg25 O2 2.104414 1_555
Mg25 O30 2.118971 1_555
Mg25 O9 2.154925 1_555
Mg25 O10 2.154925 1_555
Mg25 O26 2.205038 1_655
Mg26 O23 2.113255 1_555
Mg26 O3 2.121755 1_556
Mg26 O12 2.141643 1_555
Mg26 O11 2.141643 1_545
Mg26 O27 2.150922 1_555
Mg26 O5 2.164251 1_555
Mg27 O28 2.106294 1_555
Mg27 O24 2.106384 1_555
Mg27 O6 2.117349 1_555
Mg27 O11 2.137619 1_555
Mg27 O12 2.137619 1_555
Mg27 O4 2.167487 1_556
Mg28 O25 2.113255 1_555
Mg28 O3 2.121755 1_555
Mg28 O14 2.141643 1_555
Mg28 O13 2.141643 1_545
Mg28 O29 2.150922 1_555
Mg28 O5 2.164251 1_555
Mg29 O30 2.106294 1_555
Mg29 O26 2.106384 1_555
Mg29 O6 2.117349 1_555
Mg29 O13 2.137619 1_555
Mg29 O14 2.137619 1_555
Mg29 O4 2.167487 1_555
