# generated using pymatgen
data_K2Ce2Fe4O11
_symmetry_space_group_name_H-M   'P 1'
_cell_length_a   8.81727839
_cell_length_b   8.81727839
_cell_length_c   3.89906300
_cell_angle_alpha   90.00000000
_cell_angle_beta   90.00000000
_cell_angle_gamma   126.68071952
_symmetry_Int_Tables_number   1
_chemical_formula_structural   K2Ce2Fe4O11
_chemical_formula_sum   'K2 Ce2 Fe4 O11'
_cell_volume   243.10344448
_cell_formula_units_Z   1
loop_
 _symmetry_equiv_pos_site_id
 _symmetry_equiv_pos_as_xyz
  1  'x, y, z'
loop_
 _atom_site_type_symbol
 _atom_site_label
 _atom_site_symmetry_multiplicity
 _atom_site_fract_x
 _atom_site_fract_y
 _atom_site_fract_z
 _atom_site_occupancy
  K  K0  1  0.50000000  0.00000000  0.50000000  1
  K  K1  1  0.00000000  0.50000000  0.50000000  1
  Ce  Ce0  1  0.23437900  0.23437900  0.50000000  1
  Ce  Ce1  1  0.76562100  0.76562100  0.50000000  1
  Fe  Fe0  1  0.63038300  0.36961700  0.00000000  1
  Fe  Fe1  1  0.36961700  0.63038300  0.00000000  1
  Fe  Fe2  1  0.87345400  0.12654600  0.00000000  1
  Fe  Fe3  1  0.12654600  0.87345400  0.00000000  1
  O  O0  1  0.35628600  0.16730200  0.00000000  1
  O  O1  1  0.83269800  0.64371400  0.00000000  1
  O  O2  1  0.64371400  0.83269800  0.00000000  1
  O  O3  1  0.16730200  0.35628600  0.00000000  1
  O  O4  1  0.58643400  0.41356600  0.50000000  1
  O  O5  1  0.41356600  0.58643400  0.50000000  1
  O  O6  1  0.89288400  0.10711600  0.50000000  1
  O  O7  1  0.10711600  0.89288400  0.50000000  1
  O  O8  1  0.74985900  0.25014100  0.00000000  1
  O  O9  1  0.25014100  0.74985900  0.00000000  1
  O  O10  1  0.00000000  0.00000000  0.00000000  1
loop_
_geom_bond_atom_site_label_1
_geom_bond_atom_site_label_2
_geom_bond_distance
_geom_bond_site_symmetry_2
K0 O9 2.777337 1_546
K0 O9 2.777337 1_545
K0 O8 2.777337 1_555
K0 O8 2.777337 1_556
K0 O7 2.997269 1_545
K0 O6 2.997269 1_555
K0 O2 3.132997 1_545
K0 O2 3.132997 1_546
K0 O0 3.132997 1_555
K0 O0 3.132997 1_556
K0 O5 3.249276 1_545
K0 O4 3.249276 1_555
K1 O9 2.777337 1_555
K1 O8 2.777337 1_455
K1 O8 2.777337 1_456
K1 O9 2.777337 1_556
K1 O6 2.997269 1_455
K1 O7 2.997269 1_555
K1 O3 3.132997 1_555
K1 O3 3.132997 1_556
K1 O1 3.132997 1_456
K1 O1 3.132997 1_455
K1 O5 3.249276 1_555
K1 O4 3.249276 1_455
Ce0 O3 2.462796 1_556
Ce0 O3 2.462796 1_555
Ce0 O0 2.462796 1_555
Ce0 O0 2.462796 1_556
Ce0 O5 2.504541 1_555
Ce0 O4 2.504541 1_555
Ce0 O7 2.507783 1_545
Ce0 O6 2.507783 1_455
Ce0 O10 2.690703 1_555
Ce0 O10 2.690703 1_556
Ce1 O1 2.462796 1_555
Ce1 O1 2.462796 1_556
Ce1 O2 2.462796 1_556
Ce1 O2 2.462796 1_555
Ce1 O5 2.504541 1_555
Ce1 O4 2.504541 1_555
Ce1 O6 2.507783 1_565
Ce1 O7 2.507783 1_655
Ce1 O10 2.690703 1_666
Ce1 O10 2.690703 1_665
Fe0 O8 1.882916 1_555
Fe0 O0 1.967836 1_555
Fe0 O1 1.967836 1_555
Fe0 O4 2.068914 1_555
Fe0 O4 2.068914 1_554
Fe1 O9 1.882916 1_555
Fe1 O3 1.967836 1_555
Fe1 O2 1.967836 1_555
Fe1 O5 2.068914 1_555
Fe1 O5 2.068914 1_554
Fe2 O8 1.947831 1_555
Fe2 O6 1.973433 1_554
Fe2 O6 1.973433 1_555
Fe2 O10 1.994338 1_655
Fe2 O2 2.132138 1_545
Fe2 O3 2.132138 1_655
Fe3 O9 1.947831 1_555
Fe3 O7 1.973433 1_555
Fe3 O7 1.973433 1_554
Fe3 O10 1.994338 1_565
Fe3 O1 2.132138 1_455
Fe3 O0 2.132138 1_565
