# generated using pymatgen
data_YMnFeO5
_symmetry_space_group_name_H-M   'P 1'
_cell_length_a   5.80758200
_cell_length_b   7.34716900
_cell_length_c   8.63872800
_cell_angle_alpha   90.00000000
_cell_angle_beta   90.00000000
_cell_angle_gamma   90.00000000
_symmetry_Int_Tables_number   1
_chemical_formula_structural   YMnFeO5
_chemical_formula_sum   'Y4 Mn4 Fe4 O20'
_cell_volume   368.60835947
_cell_formula_units_Z   4
loop_
 _symmetry_equiv_pos_site_id
 _symmetry_equiv_pos_as_xyz
  1  'x, y, z'
loop_
 _atom_site_type_symbol
 _atom_site_label
 _atom_site_symmetry_multiplicity
 _atom_site_fract_x
 _atom_site_fract_y
 _atom_site_fract_z
 _atom_site_occupancy
  Y  Y0  1  0.50000000  0.36716000  0.33084400  1
  Y  Y1  1  0.50000000  0.63284000  0.66915600  1
  Y  Y2  1  0.50000000  0.13284000  0.83084400  1
  Y  Y3  1  0.50000000  0.86716000  0.16915600  1
  Mn  Mn0  1  0.25061500  0.00000000  0.50000000  1
  Mn  Mn1  1  0.74938500  0.00000000  0.50000000  1
  Mn  Mn2  1  0.74938500  0.50000000  0.00000000  1
  Mn  Mn3  1  0.25061500  0.50000000  0.00000000  1
  Fe  Fe0  1  0.00000000  0.10650200  0.14692300  1
  Fe  Fe1  1  0.00000000  0.89349800  0.85307700  1
  Fe  Fe2  1  0.00000000  0.39349800  0.64692300  1
  Fe  Fe3  1  0.00000000  0.60650200  0.35307700  1
  O  O0  1  0.23288200  0.00000000  0.00000000  1
  O  O1  1  0.76711800  0.00000000  0.00000000  1
  O  O2  1  0.76711800  0.50000000  0.50000000  1
  O  O3  1  0.23288200  0.50000000  0.50000000  1
  O  O4  1  0.00000000  0.34941300  0.07075400  1
  O  O5  1  0.00000000  0.65058700  0.92924600  1
  O  O6  1  0.00000000  0.15058700  0.57075400  1
  O  O7  1  0.00000000  0.84941300  0.42924600  1
  O  O8  1  0.25879700  0.10744800  0.29559100  1
  O  O9  1  0.74120300  0.89255200  0.70440900  1
  O  O10  1  0.25879700  0.89255200  0.70440900  1
  O  O11  1  0.74120300  0.39255200  0.79559100  1
  O  O12  1  0.74120300  0.10744800  0.29559100  1
  O  O13  1  0.25879700  0.60744800  0.20440900  1
  O  O14  1  0.74120300  0.60744800  0.20440900  1
  O  O15  1  0.25879700  0.39255200  0.79559100  1
  O  O16  1  0.50000000  0.33870300  0.05785500  1
  O  O17  1  0.50000000  0.66129700  0.94214500  1
  O  O18  1  0.50000000  0.16129700  0.55785500  1
  O  O19  1  0.50000000  0.83870300  0.44214500  1
loop_
_geom_bond_atom_site_label_1
_geom_bond_atom_site_label_2
_geom_bond_distance
_geom_bond_site_symmetry_2
Mn0 O6 1.927712 1_555
Mn0 O7 1.927712 1_545
Mn0 O10 1.934849 1_545
Mn0 O8 1.934849 1_555
Mn0 O18 1.936967 1_555
Mn0 O19 1.936967 1_545
Mn1 O6 1.927712 1_655
Mn1 O7 1.927712 1_645
Mn1 O9 1.934849 1_545
Mn1 O12 1.934849 1_555
Mn1 O18 1.936967 1_555
Mn1 O19 1.936967 1_545
Mn2 O5 1.927712 1_654
Mn2 O4 1.927712 1_655
Mn2 O14 1.934849 1_555
Mn2 O11 1.934849 1_554
Mn2 O17 1.936967 1_554
Mn2 O16 1.936967 1_555
Mn3 O5 1.927712 1_554
Mn3 O4 1.927712 1_555
Mn3 O13 1.934849 1_555
Mn3 O15 1.934849 1_554
Mn3 O16 1.936967 1_555
Mn3 O17 1.936967 1_554
Fe0 O4 1.902144 1_555
Fe0 O8 1.976979 1_555
Fe0 O12 1.976979 1_455
Fe0 O0 2.013066 1_555
Fe0 O1 2.013066 1_455
Fe1 O5 1.902144 1_555
Fe1 O10 1.976979 1_555
Fe1 O9 1.976979 1_455
Fe1 O0 2.013066 1_566
Fe1 O1 2.013066 1_466
Fe2 O6 1.902144 1_555
Fe2 O15 1.976979 1_555
Fe2 O11 1.976979 1_455
Fe2 O3 2.013066 1_555
Fe2 O2 2.013066 1_455
Fe3 O7 1.902144 1_555
Fe3 O13 1.976979 1_555
Fe3 O14 1.976979 1_455
Fe3 O3 2.013066 1_555
Fe3 O2 2.013066 1_455
O0 Y3 2.344037 1_545
O0 Y2 2.344037 1_554
O1 Y3 2.344037 1_545
O1 Y2 2.344037 1_554
O2 Y1 2.344037 1_555
O2 Y0 2.344037 1_555
O3 Y1 2.344037 1_555
O3 Y0 2.344037 1_555
O8 Y0 2.386636 1_555
O8 Y3 2.504398 1_545
O9 Y1 2.386636 1_555
O9 Y2 2.504398 1_565
O10 Y1 2.386636 1_555
O10 Y2 2.504398 1_565
O11 Y2 2.386636 1_555
O11 Y1 2.504398 1_555
O12 Y0 2.386636 1_555
O12 Y3 2.504398 1_545
O13 Y3 2.386636 1_555
O13 Y0 2.504398 1_555
O14 Y3 2.386636 1_555
O14 Y0 2.504398 1_555
O15 Y2 2.386636 1_555
O15 Y1 2.504398 1_555
O16 Y0 2.367528 1_555
O16 Y2 2.476600 1_554
O17 Y1 2.367528 1_555
O17 Y3 2.476600 1_556
O18 Y2 2.367528 1_555
O18 Y0 2.476600 1_555
O19 Y3 2.367528 1_555
O19 Y1 2.476600 1_555
