# generated using pymatgen
data_YCrO3
_symmetry_space_group_name_H-M   'P 1'
_cell_length_a   6.08692776
_cell_length_b   6.08692776
_cell_length_c   12.01284600
_cell_angle_alpha   90.00000000
_cell_angle_beta   90.00000000
_cell_angle_gamma   119.99999737
_symmetry_Int_Tables_number   1
_chemical_formula_structural   YCrO3
_chemical_formula_sum   'Y6 Cr6 O18'
_cell_volume   385.45425811
_cell_formula_units_Z   6
loop_
 _symmetry_equiv_pos_site_id
 _symmetry_equiv_pos_as_xyz
  1  'x, y, z'
loop_
 _atom_site_type_symbol
 _atom_site_label
 _atom_site_symmetry_multiplicity
 _atom_site_fract_x
 _atom_site_fract_y
 _atom_site_fract_z
 _atom_site_occupancy
  Y  Y0  1  0.66666700  0.33333300  0.23365800  1
  Y  Y1  1  0.33333300  0.66666700  0.73365800  1
  Y  Y2  1  0.66666700  0.33333300  0.73365800  1
  Y  Y3  1  0.33333300  0.66666700  0.23365800  1
  Y  Y4  1  0.00000000  0.00000000  0.77675600  1
  Y  Y5  1  0.00000000  0.00000000  0.27675600  1
  Cr  Cr0  1  0.66658400  0.00000000  0.50115900  1
  Cr  Cr1  1  0.66658400  0.66658400  0.00115900  1
  Cr  Cr2  1  0.00000000  0.33341600  0.00115900  1
  Cr  Cr3  1  0.00000000  0.66658400  0.50115900  1
  Cr  Cr4  1  0.33341600  0.33341600  0.50115900  1
  Cr  Cr5  1  0.33341600  0.00000000  0.00115900  1
  O  O0  1  0.66666700  0.33333300  0.01913200  1
  O  O1  1  0.33333300  0.66666700  0.51913200  1
  O  O2  1  0.66666700  0.33333300  0.51913200  1
  O  O3  1  0.33333300  0.66666700  0.01913200  1
  O  O4  1  0.00000000  0.00000000  0.97955100  1
  O  O5  1  0.00000000  0.00000000  0.47955100  1
  O  O6  1  0.36006200  0.00000000  0.83873300  1
  O  O7  1  0.36006200  0.36006200  0.33873300  1
  O  O8  1  0.00000000  0.63993800  0.33873300  1
  O  O9  1  0.00000000  0.36006200  0.83873300  1
  O  O10  1  0.63993800  0.63993800  0.83873300  1
  O  O11  1  0.63993800  0.00000000  0.33873300  1
  O  O12  1  0.30662300  0.00000000  0.16447900  1
  O  O13  1  0.30662300  0.30662300  0.66447900  1
  O  O14  1  0.00000000  0.69337700  0.66447900  1
  O  O15  1  0.00000000  0.30662300  0.16447900  1
  O  O16  1  0.69337700  0.69337700  0.16447900  1
  O  O17  1  0.69337700  0.00000000  0.66447900  1
loop_
_geom_bond_atom_site_label_1
_geom_bond_atom_site_label_2
_geom_bond_distance
_geom_bond_site_symmetry_2
Cr0 O11 1.957928 1_555
Cr0 O17 1.968705 1_555
Cr0 O2 2.040178 1_555
Cr0 O1 2.040181 1_545
Cr0 O5 2.046012 1_655
Cr1 O10 1.957928 1_554
Cr1 O16 1.968705 1_555
Cr1 O3 2.040184 1_555
Cr1 O0 2.040184 1_555
Cr1 O4 2.046012 1_664
Cr2 O9 1.957928 1_554
Cr2 O15 1.968705 1_555
Cr2 O0 2.040178 1_455
Cr2 O3 2.040181 1_555
Cr2 O4 2.046012 1_554
Cr3 O8 1.957928 1_555
Cr3 O14 1.968705 1_555
Cr3 O1 2.040178 1_555
Cr3 O2 2.040181 1_455
Cr3 O5 2.046012 1_565
Cr4 O7 1.957928 1_555
Cr4 O13 1.968705 1_555
Cr4 O1 2.040184 1_555
Cr4 O2 2.040184 1_555
Cr4 O5 2.046012 1_555
Cr5 O6 1.957928 1_554
Cr5 O12 1.968705 1_555
Cr5 O3 2.040178 1_545
Cr5 O0 2.040181 1_555
Cr5 O4 2.046012 1_554
O0 Y0 2.577068 1_555
O1 Y1 2.577068 1_555
O2 Y2 2.577068 1_555
O3 Y3 2.577068 1_555
O4 Y4 2.436145 1_555
O5 Y5 2.436145 1_555
O6 Y4 2.314678 1_555
O6 Y1 2.325160 1_545
O6 Y2 2.325163 1_555
O7 Y5 2.314678 1_555
O7 Y3 2.325166 1_555
O7 Y0 2.325166 1_555
O8 Y5 2.314678 1_565
O8 Y3 2.325160 1_555
O8 Y0 2.325163 1_455
O9 Y4 2.314678 1_555
O9 Y2 2.325160 1_455
O9 Y1 2.325163 1_555
O10 Y4 2.314678 1_665
O10 Y2 2.325166 1_555
O10 Y1 2.325166 1_555
O11 Y5 2.314678 1_655
O11 Y0 2.325160 1_555
O11 Y3 2.325163 1_545
O12 Y3 2.272370 1_545
O12 Y0 2.272373 1_555
O12 Y5 2.302735 1_555
O13 Y1 2.272375 1_555
O13 Y2 2.272375 1_555
O13 Y4 2.302735 1_555
O14 Y1 2.272370 1_555
O14 Y2 2.272373 1_455
O14 Y4 2.302735 1_565
O15 Y0 2.272370 1_455
O15 Y3 2.272373 1_555
O15 Y5 2.302735 1_555
O16 Y0 2.272375 1_555
O16 Y3 2.272375 1_555
O16 Y5 2.302735 1_665
O17 Y2 2.272370 1_555
O17 Y1 2.272373 1_545
O17 Y4 2.302735 1_655
