# generated using pymatgen
data_Mg30CdSnO32
_symmetry_space_group_name_H-M   'P 1'
_cell_length_a   8.63983000
_cell_length_b   8.63983000
_cell_length_c   8.63946100
_cell_angle_alpha   90.00000000
_cell_angle_beta   90.00000000
_cell_angle_gamma   90.00000000
_symmetry_Int_Tables_number   1
_chemical_formula_structural   Mg30CdSnO32
_chemical_formula_sum   'Mg30 Cd1 Sn1 O32'
_cell_volume   644.90692883
_cell_formula_units_Z   1
loop_
 _symmetry_equiv_pos_site_id
 _symmetry_equiv_pos_as_xyz
  1  'x, y, z'
loop_
 _atom_site_type_symbol
 _atom_site_label
 _atom_site_symmetry_multiplicity
 _atom_site_fract_x
 _atom_site_fract_y
 _atom_site_fract_z
 _atom_site_occupancy
  Mg  Mg0  1  0.50000000  0.00000000  0.00000000  1
  Mg  Mg1  1  0.00000000  0.50000000  0.00000000  1
  Mg  Mg2  1  0.00000000  0.00000000  0.50000000  1
  Mg  Mg3  1  0.50000000  0.00000000  0.50000000  1
  Mg  Mg4  1  0.00000000  0.50000000  0.50000000  1
  Mg  Mg5  1  0.50000000  0.50000000  0.50000000  1
  Mg  Mg6  1  0.25190000  0.25190000  0.00000000  1
  Mg  Mg7  1  0.74810000  0.25190000  0.00000000  1
  Mg  Mg8  1  0.25190000  0.74810000  0.00000000  1
  Mg  Mg9  1  0.74810000  0.74810000  0.00000000  1
  Mg  Mg10  1  0.25018400  0.25018400  0.50000000  1
  Mg  Mg11  1  0.74981600  0.25018400  0.50000000  1
  Mg  Mg12  1  0.25018400  0.74981600  0.50000000  1
  Mg  Mg13  1  0.74981600  0.74981600  0.50000000  1
  Mg  Mg14  1  0.25411900  0.00000000  0.25405700  1
  Mg  Mg15  1  0.74588100  0.00000000  0.25405700  1
  Mg  Mg16  1  0.24805000  0.50000000  0.25232100  1
  Mg  Mg17  1  0.75195000  0.50000000  0.25232100  1
  Mg  Mg18  1  0.25411900  0.00000000  0.74594300  1
  Mg  Mg19  1  0.74588100  0.00000000  0.74594300  1
  Mg  Mg20  1  0.24805000  0.50000000  0.74767900  1
  Mg  Mg21  1  0.75195000  0.50000000  0.74767900  1
  Mg  Mg22  1  0.00000000  0.25411900  0.25405700  1
  Mg  Mg23  1  0.50000000  0.24805000  0.25232100  1
  Mg  Mg24  1  0.00000000  0.74588100  0.25405700  1
  Mg  Mg25  1  0.50000000  0.75195000  0.25232100  1
  Mg  Mg26  1  0.00000000  0.25411900  0.74594300  1
  Mg  Mg27  1  0.50000000  0.24805000  0.74767900  1
  Mg  Mg28  1  0.00000000  0.74588100  0.74594300  1
  Mg  Mg29  1  0.50000000  0.75195000  0.74767900  1
  Cd  Cd0  1  0.50000000  0.50000000  0.00000000  1
  Sn  Sn0  1  0.00000000  0.00000000  0.00000000  1
  O  O0  1  0.00000000  0.00000000  0.26984800  1
  O  O1  1  0.50000000  0.00000000  0.25440800  1
  O  O2  1  0.00000000  0.50000000  0.25440800  1
  O  O3  1  0.50000000  0.50000000  0.26429000  1
  O  O4  1  0.00000000  0.00000000  0.73015200  1
  O  O5  1  0.50000000  0.00000000  0.74559200  1
  O  O6  1  0.00000000  0.50000000  0.74559200  1
  O  O7  1  0.50000000  0.50000000  0.73571000  1
  O  O8  1  0.24996600  0.24996600  0.24910500  1
  O  O9  1  0.75003400  0.24996600  0.24910500  1
  O  O10  1  0.24996600  0.75003400  0.24910500  1
  O  O11  1  0.75003400  0.75003400  0.24910500  1
  O  O12  1  0.24996600  0.24996600  0.75089500  1
  O  O13  1  0.75003400  0.24996600  0.75089500  1
  O  O14  1  0.24996600  0.75003400  0.75089500  1
  O  O15  1  0.75003400  0.75003400  0.75089500  1
  O  O16  1  0.26841900  0.00000000  0.00000000  1
  O  O17  1  0.73158100  0.00000000  0.00000000  1
  O  O18  1  0.23868100  0.50000000  0.00000000  1
  O  O19  1  0.76131900  0.50000000  0.00000000  1
  O  O20  1  0.25255100  0.00000000  0.50000000  1
  O  O21  1  0.74744900  0.00000000  0.50000000  1
  O  O22  1  0.24874100  0.50000000  0.50000000  1
  O  O23  1  0.75125900  0.50000000  0.50000000  1
  O  O24  1  0.00000000  0.26841900  0.00000000  1
  O  O25  1  0.50000000  0.23868100  0.00000000  1
  O  O26  1  0.00000000  0.73158100  0.00000000  1
  O  O27  1  0.50000000  0.76131900  0.00000000  1
  O  O28  1  0.00000000  0.25255100  0.50000000  1
  O  O29  1  0.50000000  0.24874100  0.50000000  1
  O  O30  1  0.00000000  0.74744900  0.50000000  1
  O  O31  1  0.50000000  0.75125900  0.50000000  1
loop_
_geom_bond_atom_site_label_1
_geom_bond_atom_site_label_2
_geom_bond_distance
_geom_bond_site_symmetry_2
Mg0 O16 2.000820 1_555
Mg0 O17 2.000820 1_555
Mg0 O25 2.062163 1_555
Mg0 O27 2.062163 1_545
Mg0 O5 2.197948 1_554
Mg0 O1 2.197948 1_555
Mg1 O24 2.000820 1_555
Mg1 O26 2.000820 1_555
Mg1 O18 2.062163 1_555
Mg1 O19 2.062163 1_455
Mg1 O6 2.197948 1_554
Mg1 O2 2.197948 1_555
Mg2 O4 1.988389 1_555
Mg2 O0 1.988389 1_555
Mg2 O21 2.181998 1_455
Mg2 O30 2.181998 1_545
Mg2 O20 2.181998 1_555
Mg2 O28 2.181998 1_555
Mg3 O1 2.121783 1_555
Mg3 O5 2.121783 1_555
Mg3 O20 2.137917 1_555
Mg3 O21 2.137917 1_555
Mg3 O29 2.149080 1_555
Mg3 O31 2.149080 1_545
Mg4 O2 2.121783 1_555
Mg4 O6 2.121783 1_555
Mg4 O28 2.137917 1_555
Mg4 O30 2.137917 1_555
Mg4 O22 2.149080 1_555
Mg4 O23 2.149080 1_455
Mg5 O3 2.036407 1_555
Mg5 O7 2.036407 1_555
Mg5 O31 2.170835 1_555
Mg5 O22 2.170835 1_555
Mg5 O23 2.170835 1_555
Mg5 O29 2.170835 1_555
Mg6 O18 2.146582 1_555
Mg6 O25 2.146582 1_555
Mg6 O8 2.152263 1_555
Mg6 O12 2.152263 1_554
Mg6 O24 2.181048 1_555
Mg6 O16 2.181048 1_555
Mg7 O19 2.146582 1_555
Mg7 O25 2.146582 1_555
Mg7 O9 2.152263 1_555
Mg7 O13 2.152263 1_554
Mg7 O24 2.181048 1_655
Mg7 O17 2.181048 1_555
Mg8 O18 2.146582 1_555
Mg8 O27 2.146582 1_555
Mg8 O10 2.152263 1_555
Mg8 O14 2.152263 1_554
Mg8 O16 2.181048 1_565
Mg8 O26 2.181048 1_555
Mg9 O19 2.146582 1_555
Mg9 O27 2.146582 1_555
Mg9 O15 2.152263 1_554
Mg9 O11 2.152263 1_555
Mg9 O17 2.181048 1_565
Mg9 O26 2.181048 1_655
Mg10 O22 2.158404 1_555
Mg10 O29 2.158404 1_555
Mg10 O28 2.161644 1_555
Mg10 O20 2.161644 1_555
Mg10 O8 2.167599 1_555
Mg10 O12 2.167599 1_555
Mg11 O23 2.158404 1_555
Mg11 O29 2.158404 1_555
Mg11 O28 2.161644 1_655
Mg11 O21 2.161644 1_555
Mg11 O9 2.167599 1_555
Mg11 O13 2.167599 1_555
Mg12 O31 2.158404 1_555
Mg12 O22 2.158404 1_555
Mg12 O20 2.161644 1_565
Mg12 O30 2.161644 1_555
Mg12 O10 2.167599 1_555
Mg12 O14 2.167599 1_555
Mg13 O31 2.158404 1_555
Mg13 O23 2.158404 1_555
Mg13 O21 2.161644 1_565
Mg13 O30 2.161644 1_655
Mg13 O15 2.167599 1_555
Mg13 O11 2.167599 1_555
Mg14 O1 2.124372 1_555
Mg14 O20 2.124858 1_555
Mg14 O8 2.160385 1_555
Mg14 O10 2.160385 1_545
Mg14 O16 2.198390 1_555
Mg14 O0 2.199779 1_555
Mg15 O1 2.124372 1_555
Mg15 O21 2.124858 1_555
Mg15 O9 2.160385 1_555
Mg15 O11 2.160385 1_545
Mg15 O17 2.198390 1_555
Mg15 O0 2.199779 1_655
Mg16 O22 2.139821 1_555
Mg16 O2 2.143186 1_555
Mg16 O10 2.160493 1_555
Mg16 O8 2.160493 1_555
Mg16 O3 2.179260 1_555
Mg16 O18 2.181420 1_555
Mg17 O23 2.139821 1_555
Mg17 O2 2.143186 1_655
Mg17 O9 2.160493 1_555
Mg17 O11 2.160493 1_555
Mg17 O3 2.179260 1_555
Mg17 O19 2.181420 1_555
Mg18 O5 2.124372 1_555
Mg18 O20 2.124858 1_555
Mg18 O14 2.160385 1_545
Mg18 O12 2.160385 1_555
Mg18 O16 2.198390 1_556
Mg18 O4 2.199779 1_555
Mg19 O5 2.124372 1_555
Mg19 O21 2.124858 1_555
Mg19 O13 2.160385 1_555
Mg19 O15 2.160385 1_545
Mg19 O17 2.198390 1_556
Mg19 O4 2.199779 1_655
Mg20 O22 2.139821 1_555
Mg20 O6 2.143186 1_555
Mg20 O12 2.160493 1_555
Mg20 O14 2.160493 1_555
Mg20 O7 2.179260 1_555
Mg20 O18 2.181420 1_556
Mg21 O23 2.139821 1_555
Mg21 O6 2.143186 1_655
Mg21 O15 2.160493 1_555
Mg21 O13 2.160493 1_555
Mg21 O7 2.179260 1_555
Mg21 O19 2.181420 1_556
Mg22 O2 2.124372 1_555
Mg22 O28 2.124858 1_555
Mg22 O8 2.160385 1_555
Mg22 O9 2.160385 1_455
Mg22 O24 2.198390 1_555
Mg22 O0 2.199779 1_555
Mg23 O29 2.139821 1_555
Mg23 O1 2.143186 1_555
Mg23 O9 2.160493 1_555
Mg23 O8 2.160493 1_555
Mg23 O3 2.179260 1_555
Mg23 O25 2.181420 1_555
Mg24 O2 2.124372 1_555
Mg24 O30 2.124858 1_555
Mg24 O10 2.160385 1_555
Mg24 O11 2.160385 1_455
Mg24 O26 2.198390 1_555
Mg24 O0 2.199779 1_565
Mg25 O31 2.139821 1_555
Mg25 O1 2.143186 1_565
Mg25 O10 2.160493 1_555
Mg25 O11 2.160493 1_555
Mg25 O3 2.179260 1_555
Mg25 O27 2.181420 1_555
Mg26 O6 2.124372 1_555
Mg26 O28 2.124858 1_555
Mg26 O13 2.160385 1_455
Mg26 O12 2.160385 1_555
Mg26 O24 2.198390 1_556
Mg26 O4 2.199779 1_555
Mg27 O29 2.139821 1_555
Mg27 O5 2.143186 1_555
Mg27 O13 2.160493 1_555
Mg27 O12 2.160493 1_555
Mg27 O7 2.179260 1_555
Mg27 O25 2.181420 1_556
Mg28 O6 2.124372 1_555
Mg28 O30 2.124858 1_555
Mg28 O14 2.160385 1_555
Mg28 O15 2.160385 1_455
Mg28 O26 2.198390 1_556
Mg28 O4 2.199779 1_565
Mg29 O31 2.139821 1_555
Mg29 O5 2.143186 1_565
Mg29 O15 2.160493 1_555
Mg29 O14 2.160493 1_555
Mg29 O7 2.179260 1_555
Mg29 O27 2.181420 1_556
Cd0 O25 2.257752 1_555
Cd0 O18 2.257752 1_555
Cd0 O19 2.257752 1_555
Cd0 O27 2.257752 1_555
Cd0 O3 2.283323 1_555
Cd0 O7 2.283323 1_554
O0 Sn0 2.331341 1_555
O4 Sn0 2.331341 1_556
O16 Sn0 2.319095 1_555
O17 Sn0 2.319095 1_655
O24 Sn0 2.319095 1_555
O26 Sn0 2.319095 1_565
