# generated using pymatgen
data_Ba12FeSi3S20
_symmetry_space_group_name_H-M   'P 1'
_cell_length_a   9.56932900
_cell_length_b   8.63891500
_cell_length_c   12.12487320
_cell_angle_alpha   89.40435266
_cell_angle_beta   90.00000000
_cell_angle_gamma   90.00000000
_symmetry_Int_Tables_number   1
_chemical_formula_structural   Ba12FeSi3S20
_chemical_formula_sum   'Ba12 Fe1 Si3 S20'
_cell_volume   1002.29236868
_cell_formula_units_Z   1
loop_
 _symmetry_equiv_pos_site_id
 _symmetry_equiv_pos_as_xyz
  1  'x, y, z'
loop_
 _atom_site_type_symbol
 _atom_site_label
 _atom_site_symmetry_multiplicity
 _atom_site_fract_x
 _atom_site_fract_y
 _atom_site_fract_z
 _atom_site_occupancy
  Ba  Ba0  1  0.27025900  0.42237200  0.31934600  1
  Ba  Ba1  1  0.72692900  0.07980300  0.81959700  1
  Ba  Ba2  1  0.76862000  0.58591900  0.67757200  1
  Ba  Ba3  1  0.22924600  0.91602100  0.18359400  1
  Ba  Ba4  1  0.23138000  0.58591900  0.67757200  1
  Ba  Ba5  1  0.77075400  0.91602100  0.18359400  1
  Ba  Ba6  1  0.72974100  0.42237200  0.31934600  1
  Ba  Ba7  1  0.27307100  0.07980300  0.81959700  1
  Ba  Ba8  1  0.00000000  0.39332100  0.01837700  1
  Ba  Ba9  1  0.00000000  0.09962400  0.51508400  1
  Ba  Ba10  1  0.50000000  0.61031600  0.98133500  1
  Ba  Ba11  1  0.50000000  0.89592000  0.48377400  1
  Fe  Fe0  1  0.00000000  0.68744200  0.40128000  1
  Si  Si0  1  0.00000000  0.81158000  0.89974700  1
  Si  Si1  1  0.50000000  0.31056000  0.60029600  1
  Si  Si2  1  0.50000000  0.19048800  0.10008400  1
  S  S0  1  0.00000000  0.17681300  0.26619700  1
  S  S1  1  0.00000000  0.32793400  0.76062300  1
  S  S2  1  0.50000000  0.82444900  0.73616800  1
  S  S3  1  0.50000000  0.67552900  0.23251600  1
  S  S4  1  0.00000000  0.47552200  0.49919600  1
  S  S5  1  0.00000000  0.01816500  0.99269900  1
  S  S6  1  0.50000000  0.51790700  0.50607700  1
  S  S7  1  0.50000000  0.98357900  0.00792000  1
  S  S8  1  0.00000000  0.63227400  0.22306300  1
  S  S9  1  0.00000000  0.85895100  0.72625800  1
  S  S10  1  0.50000000  0.35680200  0.77354200  1
  S  S11  1  0.50000000  0.14422100  0.27348900  1
  S  S12  1  0.68523100  0.31219800  0.05879300  1
  S  S13  1  0.31409200  0.18989900  0.56113200  1
  S  S14  1  0.18532100  0.68959500  0.93901300  1
  S  S15  1  0.80589200  0.80849400  0.44208800  1
  S  S16  1  0.81467900  0.68959500  0.93901300  1
  S  S17  1  0.19410800  0.80849400  0.44208800  1
  S  S18  1  0.31476900  0.31219800  0.05879300  1
  S  S19  1  0.68590800  0.18989900  0.56113200  1
loop_
_geom_bond_atom_site_label_1
_geom_bond_atom_site_label_2
_geom_bond_distance
_geom_bond_site_symmetry_2
Ba0 S3 3.267531 1_555
Ba0 S6 3.267929 1_555
Ba0 S11 3.308205 1_555
Ba0 S18 3.336195 1_555
Ba0 S8 3.360866 1_555
Ba0 S0 3.410617 1_555
Ba0 S4 3.416918 1_555
Ba0 S13 3.561078 1_555
Ba0 S17 3.738422 1_555
Ba1 S7 3.252859 1_546
Ba1 S2 3.263691 1_545
Ba1 S10 3.275059 1_555
Ba1 S19 3.289039 1_555
Ba1 S5 3.390244 1_655
Ba1 S9 3.434266 1_645
Ba1 S1 3.450029 1_655
Ba1 S12 3.566817 1_556
Ba2 S4 3.245391 1_655
Ba2 S1 3.291955 1_655
Ba2 S9 3.292924 1_655
Ba2 S16 3.332265 1_555
Ba2 S6 3.361826 1_555
Ba2 S2 3.374757 1_555
Ba2 S10 3.439679 1_555
Ba2 S15 3.444197 1_555
Ba3 S17 3.276991 1_555
Ba3 S5 3.302410 1_564
Ba3 S0 3.307310 1_565
Ba3 S8 3.320510 1_555
Ba3 S3 3.369800 1_555
Ba3 S7 3.400694 1_555
Ba3 S11 3.439776 1_565
Ba3 S14 3.594132 1_554
Ba4 S4 3.245391 1_555
Ba4 S1 3.291955 1_555
Ba4 S9 3.292924 1_555
Ba4 S14 3.332265 1_555
Ba4 S6 3.361826 1_555
Ba4 S2 3.374757 1_555
Ba4 S10 3.439679 1_555
Ba4 S17 3.444197 1_555
Ba5 S15 3.276991 1_555
Ba5 S5 3.302410 1_664
Ba5 S0 3.307310 1_665
Ba5 S8 3.320510 1_655
Ba5 S3 3.369800 1_555
Ba5 S7 3.400694 1_555
Ba5 S11 3.439776 1_565
Ba5 S16 3.594132 1_554
Ba6 S3 3.267531 1_555
Ba6 S6 3.267929 1_555
Ba6 S11 3.308205 1_555
Ba6 S12 3.336195 1_555
Ba6 S8 3.360866 1_655
Ba6 S0 3.410617 1_655
Ba6 S4 3.416918 1_655
Ba6 S19 3.561078 1_555
Ba6 S15 3.738422 1_555
Ba7 S7 3.252859 1_546
Ba7 S2 3.263691 1_545
Ba7 S10 3.275059 1_555
Ba7 S13 3.289039 1_555
Ba7 S5 3.390244 1_555
Ba7 S9 3.434266 1_545
Ba7 S1 3.450029 1_555
Ba7 S18 3.566817 1_556
Ba8 S18 3.130025 1_555
Ba8 S12 3.130025 1_455
Ba8 S1 3.181647 1_554
Ba8 S8 3.244553 1_555
Ba8 S14 3.251258 1_554
Ba8 S16 3.251258 1_454
Ba8 S5 3.259081 1_554
Ba8 S0 3.522820 1_555
Ba9 S0 3.083744 1_555
Ba9 S13 3.156410 1_555
Ba9 S19 3.156410 1_455
Ba9 S4 3.251060 1_555
Ba9 S17 3.256583 1_545
Ba9 S15 3.256583 1_445
Ba9 S9 3.281484 1_545
Ba9 S1 3.588252 1_555
Ba10 S3 3.102960 1_556
Ba10 S16 3.129347 1_555
Ba10 S14 3.129347 1_555
Ba10 S7 3.243991 1_556
Ba10 S12 3.256747 1_556
Ba10 S18 3.256747 1_556
Ba10 S10 3.355428 1_555
Ba10 S2 3.484849 1_555
Ba11 S15 3.066304 1_555
Ba11 S17 3.066304 1_555
Ba11 S2 3.115612 1_555
Ba11 S19 3.247161 1_565
Ba11 S13 3.247161 1_565
Ba11 S6 3.273997 1_555
Ba11 S11 3.314875 1_565
Ba11 S3 3.609234 1_555
Fe0 S4 2.171630 1_555
Fe0 S17 2.190760 1_555
Fe0 S15 2.190760 1_455
Fe0 S8 2.217625 1_555
S5 Si0 2.120629 1_545
S6 Si1 2.114499 1_555
S7 Si2 2.117860 1_565
S9 Si0 2.138790 1_555
S10 Si1 2.142310 1_555
S11 Si2 2.136082 1_555
S12 Si2 2.118282 1_555
S13 Si1 2.118309 1_555
S14 Si0 2.114641 1_555
S16 Si0 2.114641 1_655
S18 Si2 2.118282 1_555
S19 Si1 2.118309 1_555
