# generated using pymatgen
data_Ni2P2O9
_symmetry_space_group_name_H-M   'P 1'
_cell_length_a   6.32153300
_cell_length_b   7.76084600
_cell_length_c   14.05074600
_cell_angle_alpha   90.00000000
_cell_angle_beta   90.00000000
_cell_angle_gamma   90.00000000
_symmetry_Int_Tables_number   1
_chemical_formula_structural   Ni2P2O9
_chemical_formula_sum   'Ni8 P8 O36'
_cell_volume   689.33583865
_cell_formula_units_Z   4
loop_
 _symmetry_equiv_pos_site_id
 _symmetry_equiv_pos_as_xyz
  1  'x, y, z'
loop_
 _atom_site_type_symbol
 _atom_site_label
 _atom_site_symmetry_multiplicity
 _atom_site_fract_x
 _atom_site_fract_y
 _atom_site_fract_z
 _atom_site_occupancy
  Ni  Ni0  1  0.25000000  0.85308000  0.62178200  1
  Ni  Ni1  1  0.75000000  0.14692000  0.37821800  1
  Ni  Ni2  1  0.75000000  0.35308000  0.87821800  1
  Ni  Ni3  1  0.25000000  0.64692000  0.12178200  1
  Ni  Ni4  1  0.50000000  0.50000000  0.50000000  1
  Ni  Ni5  1  0.50000000  0.00000000  0.00000000  1
  Ni  Ni6  1  0.00000000  0.00000000  0.00000000  1
  Ni  Ni7  1  0.00000000  0.50000000  0.50000000  1
  P  P0  1  0.75000000  0.85152100  0.56143200  1
  P  P1  1  0.25000000  0.14847900  0.43856800  1
  P  P2  1  0.25000000  0.35152100  0.93856800  1
  P  P3  1  0.75000000  0.64847900  0.06143200  1
  P  P4  1  0.25000000  0.89428400  0.81171400  1
  P  P5  1  0.75000000  0.10571600  0.18828600  1
  P  P6  1  0.75000000  0.39428400  0.68828600  1
  P  P7  1  0.25000000  0.60571600  0.31171400  1
  O  O0  1  0.95237700  0.09671800  0.12925600  1
  O  O1  1  0.45237700  0.90328200  0.87074400  1
  O  O2  1  0.04762300  0.59671800  0.37074400  1
  O  O3  1  0.54762300  0.40328200  0.62925600  1
  O  O4  1  0.04762300  0.90328200  0.87074400  1
  O  O5  1  0.54762300  0.09671800  0.12925600  1
  O  O6  1  0.95237700  0.40328200  0.62925600  1
  O  O7  1  0.45237700  0.59671800  0.37074400  1
  O  O8  1  0.75000000  0.83490100  0.01784700  1
  O  O9  1  0.25000000  0.16509900  0.98215300  1
  O  O10  1  0.25000000  0.33490100  0.48215300  1
  O  O11  1  0.75000000  0.66509900  0.51784700  1
  O  O12  1  0.25000000  0.64480600  0.54620800  1
  O  O13  1  0.75000000  0.35519400  0.45379200  1
  O  O14  1  0.75000000  0.14480600  0.95379200  1
  O  O15  1  0.25000000  0.85519400  0.04620800  1
  O  O16  1  0.25000000  0.72912200  0.74689900  1
  O  O17  1  0.75000000  0.27087800  0.25310100  1
  O  O18  1  0.75000000  0.22912200  0.75310100  1
  O  O19  1  0.25000000  0.77087800  0.24689900  1
  O  O20  1  0.56027000  0.63642000  0.13071100  1
  O  O21  1  0.06027000  0.36358000  0.86928900  1
  O  O22  1  0.43973000  0.13642000  0.36928900  1
  O  O23  1  0.93973000  0.86358000  0.63071100  1
  O  O24  1  0.43973000  0.36358000  0.86928900  1
  O  O25  1  0.93973000  0.63642000  0.13071100  1
  O  O26  1  0.56027000  0.86358000  0.63071100  1
  O  O27  1  0.06027000  0.13642000  0.36928900  1
  O  O28  1  0.25000000  0.47227700  0.22796700  1
  O  O29  1  0.75000000  0.52772300  0.77203300  1
  O  O30  1  0.75000000  0.97227700  0.27203300  1
  O  O31  1  0.25000000  0.02772300  0.72796700  1
  O  O32  1  0.25000000  0.49191800  0.01345500  1
  O  O33  1  0.75000000  0.50808200  0.98654500  1
  O  O34  1  0.75000000  0.99191800  0.48654500  1
  O  O35  1  0.25000000  0.00808200  0.51345500  1
loop_
_geom_bond_atom_site_label_1
_geom_bond_atom_site_label_2
_geom_bond_distance
_geom_bond_site_symmetry_2
Ni0 O12 1.933976 1_555
Ni0 O35 1.940050 1_565
Ni0 O26 1.967079 1_555
Ni0 O23 1.967079 1_455
Ni0 O16 2.003996 1_555
Ni0 O31 2.015700 1_565
Ni1 O13 1.933976 1_555
Ni1 O34 1.940050 1_545
Ni1 O22 1.967079 1_555
Ni1 O27 1.967079 1_655
Ni1 O17 2.003996 1_555
Ni1 O30 2.015700 1_545
Ni2 O14 1.933976 1_555
Ni2 O33 1.940050 1_555
Ni2 O24 1.967079 1_555
Ni2 O21 1.967079 1_655
Ni2 O18 2.003996 1_555
Ni2 O29 2.015700 1_555
Ni3 O15 1.933976 1_555
Ni3 O32 1.940050 1_555
Ni3 O20 1.967079 1_555
Ni3 O25 1.967079 1_455
Ni3 O19 2.003996 1_555
Ni3 O28 2.015700 1_555
Ni4 O7 1.988071 1_555
Ni4 O3 1.988071 1_555
Ni4 O12 2.045021 1_555
Ni4 O13 2.045021 1_555
Ni4 O11 2.049937 1_555
Ni4 O10 2.049937 1_555
Ni5 O5 1.988071 1_555
Ni5 O1 1.988071 1_544
Ni5 O15 2.045021 1_545
Ni5 O14 2.045021 1_554
Ni5 O8 2.049937 1_545
Ni5 O9 2.049937 1_554
Ni6 O0 1.988071 1_455
Ni6 O4 1.988071 1_544
Ni6 O15 2.045021 1_545
Ni6 O14 2.045021 1_454
Ni6 O9 2.049937 1_554
Ni6 O8 2.049937 1_445
Ni7 O2 1.988071 1_555
Ni7 O6 1.988071 1_455
Ni7 O12 2.045021 1_555
Ni7 O13 2.045021 1_455
Ni7 O11 2.049937 1_455
Ni7 O10 2.049937 1_555
O0 P5 1.526270 1_555
O1 P4 1.526270 1_555
O2 P7 1.526270 1_555
O3 P6 1.526270 1_555
O4 P4 1.526270 1_555
O5 P5 1.526270 1_555
O6 P6 1.526270 1_555
O7 P7 1.526270 1_555
O8 P3 1.571065 1_555
O9 P2 1.571065 1_555
O10 P1 1.571065 1_555
O11 P0 1.571065 1_555
O16 P4 1.572379 1_555
O17 P5 1.572379 1_555
O18 P6 1.572379 1_555
O19 P7 1.572379 1_555
O20 P3 1.547524 1_555
O21 P2 1.547524 1_555
O22 P1 1.547524 1_555
O23 P0 1.547524 1_555
O24 P2 1.547524 1_555
O25 P3 1.547524 1_555
O26 P0 1.547524 1_555
O27 P1 1.547524 1_555
O28 P7 1.567516 1_555
O29 P6 1.567516 1_555
O30 P5 1.567516 1_565
O31 P4 1.567516 1_545
O32 P2 1.514724 1_554
O33 P3 1.514724 1_556
O34 P0 1.514724 1_555
O35 P1 1.514724 1_555
