# generated using pymatgen
data_PrMgS3
_symmetry_space_group_name_H-M   'P 1'
_cell_length_a   8.15770461
_cell_length_b   11.44898500
_cell_length_c   7.78389793
_cell_angle_alpha   90.00000000
_cell_angle_beta   128.62925230
_cell_angle_gamma   90.00000000
_symmetry_Int_Tables_number   1
_chemical_formula_structural   PrMgS3
_chemical_formula_sum   'Pr4 Mg4 S12'
_cell_volume   567.93071509
_cell_formula_units_Z   4
loop_
 _symmetry_equiv_pos_site_id
 _symmetry_equiv_pos_as_xyz
  1  'x, y, z'
loop_
 _atom_site_type_symbol
 _atom_site_label
 _atom_site_symmetry_multiplicity
 _atom_site_fract_x
 _atom_site_fract_y
 _atom_site_fract_z
 _atom_site_occupancy
  Pr  Pr0  1  0.03737000  0.00000000  0.25534800  1
  Pr  Pr1  1  0.96263000  0.00000000  0.74465200  1
  Pr  Pr2  1  0.53737000  0.50000000  0.25534800  1
  Pr  Pr3  1  0.46263000  0.50000000  0.74465200  1
  Mg  Mg0  1  0.00000000  0.34076200  0.00000000  1
  Mg  Mg1  1  0.00000000  0.65923800  0.00000000  1
  Mg  Mg2  1  0.50000000  0.84076200  0.00000000  1
  Mg  Mg3  1  0.50000000  0.15923800  0.00000000  1
  S  S0  1  0.21953000  0.15504400  0.13936200  1
  S  S1  1  0.78047000  0.84495600  0.86063800  1
  S  S2  1  0.78047000  0.15504400  0.86063800  1
  S  S3  1  0.21953000  0.84495600  0.13936200  1
  S  S4  1  0.71953000  0.65504400  0.13936200  1
  S  S5  1  0.28047000  0.34495600  0.86063800  1
  S  S6  1  0.28047000  0.65504400  0.86063800  1
  S  S7  1  0.71953000  0.34495600  0.13936200  1
  S  S8  1  0.29436700  0.00000000  0.71859500  1
  S  S9  1  0.70563300  0.00000000  0.28140500  1
  S  S10  1  0.79436700  0.50000000  0.71859500  1
  S  S11  1  0.20563300  0.50000000  0.28140500  1
loop_
_geom_bond_atom_site_label_1
_geom_bond_atom_site_label_2
_geom_bond_distance
_geom_bond_site_symmetry_2
Pr0 S3 2.801668 1_545
Pr0 S0 2.801668 1_555
Pr0 S8 2.821147 1_555
Pr0 S9 2.837259 1_455
Pr0 S2 2.990529 1_454
Pr0 S1 2.990529 1_444
Pr1 S2 2.801668 1_555
Pr1 S1 2.801668 1_545
Pr1 S9 2.821147 1_555
Pr1 S8 2.837259 1_655
Pr1 S3 2.990529 1_646
Pr1 S0 2.990529 1_656
Pr2 S4 2.801668 1_555
Pr2 S7 2.801668 1_555
Pr2 S10 2.821147 1_555
Pr2 S11 2.837259 1_555
Pr2 S6 2.990529 1_554
Pr2 S5 2.990529 1_554
Pr3 S6 2.801668 1_555
Pr3 S5 2.801668 1_555
Pr3 S11 2.821147 1_555
Pr3 S10 2.837259 1_555
Pr3 S4 2.990529 1_556
Pr3 S7 2.990529 1_556
Mg0 S10 2.519517 1_454
Mg0 S11 2.519517 1_555
Mg0 S2 2.545476 1_454
Mg0 S0 2.545476 1_555
Mg0 S5 3.084288 1_554
Mg0 S7 3.084288 1_455
Mg1 S10 2.519517 1_454
Mg1 S11 2.519517 1_555
Mg1 S3 2.545476 1_555
Mg1 S1 2.545476 1_454
Mg1 S6 3.084288 1_554
Mg1 S4 3.084288 1_455
Mg2 S9 2.519517 1_565
Mg2 S8 2.519517 1_564
Mg2 S6 2.545476 1_554
Mg2 S4 2.545476 1_555
Mg2 S1 3.084288 1_554
Mg2 S3 3.084288 1_555
Mg3 S8 2.519517 1_554
Mg3 S9 2.519517 1_555
Mg3 S5 2.545476 1_554
Mg3 S7 2.545476 1_555
Mg3 S2 3.084288 1_554
Mg3 S0 3.084288 1_555
