# generated using pymatgen
data_NaCrP2O7
_symmetry_space_group_name_H-M   'P 1'
_cell_length_a   7.98225800
_cell_length_b   7.36707900
_cell_length_c   9.62136673
_cell_angle_alpha   68.45810779
_cell_angle_beta   90.00000000
_cell_angle_gamma   90.00000000
_symmetry_Int_Tables_number   1
_chemical_formula_structural   NaCrP2O7
_chemical_formula_sum   'Na4 Cr4 P8 O28'
_cell_volume   526.27233759
_cell_formula_units_Z   4
loop_
 _symmetry_equiv_pos_site_id
 _symmetry_equiv_pos_as_xyz
  1  'x, y, z'
loop_
 _atom_site_type_symbol
 _atom_site_label
 _atom_site_symmetry_multiplicity
 _atom_site_fract_x
 _atom_site_fract_y
 _atom_site_fract_z
 _atom_site_occupancy
  Na  Na0  1  0.47836100  0.70859300  0.29586300  1
  Na  Na1  1  0.97836100  0.29140700  0.20413700  1
  Na  Na2  1  0.52163900  0.29140700  0.70413700  1
  Na  Na3  1  0.02163900  0.70859300  0.79586300  1
  Cr  Cr0  1  0.99345500  0.26011700  0.75295400  1
  Cr  Cr1  1  0.49345500  0.73988300  0.74704600  1
  Cr  Cr2  1  0.00654500  0.73988300  0.24704600  1
  Cr  Cr3  1  0.50654500  0.26011700  0.25295400  1
  P  P0  1  0.71062000  0.67286800  0.04424600  1
  P  P1  1  0.21062000  0.32713200  0.45575400  1
  P  P2  1  0.28938000  0.32713200  0.95575400  1
  P  P3  1  0.78938000  0.67286800  0.54424600  1
  P  P4  1  0.75521000  0.07568300  0.04573900  1
  P  P5  1  0.25521000  0.92431700  0.45426100  1
  P  P6  1  0.24479000  0.92431700  0.95426100  1
  P  P7  1  0.74479000  0.07568300  0.54573900  1
  O  O0  1  0.65394800  0.87969900  0.05617200  1
  O  O1  1  0.15394800  0.12030100  0.44382800  1
  O  O2  1  0.34605200  0.12030100  0.94382800  1
  O  O3  1  0.84605200  0.87969900  0.55617200  1
  O  O4  1  0.58619100  0.53511400  0.15129600  1
  O  O5  1  0.08619100  0.46488600  0.34870400  1
  O  O6  1  0.41380900  0.46488600  0.84870400  1
  O  O7  1  0.91380900  0.53511400  0.65129600  1
  O  O8  1  0.63708100  0.18726100  0.10766100  1
  O  O9  1  0.13708100  0.81273900  0.39233900  1
  O  O10  1  0.36291900  0.81273900  0.89233900  1
  O  O11  1  0.86291900  0.18726100  0.60766100  1
  O  O12  1  0.91523800  0.01156000  0.14097700  1
  O  O13  1  0.41523800  0.98844000  0.35902300  1
  O  O14  1  0.08476200  0.98844000  0.85902300  1
  O  O15  1  0.58476200  0.01156000  0.64097700  1
  O  O16  1  0.89468800  0.63798800  0.09773000  1
  O  O17  1  0.39468800  0.36201200  0.40227000  1
  O  O18  1  0.10531200  0.36201200  0.90227000  1
  O  O19  1  0.60531200  0.63798800  0.59773000  1
  O  O20  1  0.78691400  0.19347200  0.88014400  1
  O  O21  1  0.28691400  0.80652800  0.61985600  1
  O  O22  1  0.21308600  0.80652800  0.11985600  1
  O  O23  1  0.71308600  0.19347200  0.38014400  1
  O  O24  1  0.70148100  0.68647300  0.88184900  1
  O  O25  1  0.20148100  0.31352700  0.61815100  1
  O  O26  1  0.29851900  0.31352700  0.11815100  1
  O  O27  1  0.79851900  0.68647300  0.38184900  1
loop_
_geom_bond_atom_site_label_1
_geom_bond_atom_site_label_2
_geom_bond_distance
_geom_bond_site_symmetry_2
Na0 O4 2.369464 1_555
Na0 O13 2.406994 1_555
Na0 O17 2.468577 1_555
Na0 O0 2.595565 1_555
Na0 O22 2.640982 1_555
Na0 O27 2.672637 1_555
Na1 O5 2.369464 1_655
Na1 O12 2.406994 1_555
Na1 O16 2.468577 1_555
Na1 O1 2.595565 1_655
Na1 O23 2.640982 1_555
Na1 O26 2.672637 1_655
Na2 O6 2.369464 1_555
Na2 O15 2.406994 1_555
Na2 O19 2.468577 1_555
Na2 O2 2.595565 1_555
Na2 O20 2.640982 1_555
Na2 O25 2.672637 1_555
Na3 O7 2.369464 1_455
Na3 O14 2.406994 1_555
Na3 O18 2.468577 1_555
Na3 O3 2.595565 1_455
Na3 O21 2.640982 1_555
Na3 O24 2.672637 1_455
Cr0 O11 1.969509 1_555
Cr0 O7 2.002510 1_555
Cr0 O20 2.003863 1_555
Cr0 O14 2.019547 1_645
Cr0 O18 2.053429 1_655
Cr0 O25 2.054155 1_655
Cr1 O10 1.969509 1_555
Cr1 O6 2.002510 1_555
Cr1 O21 2.003863 1_555
Cr1 O15 2.019547 1_565
Cr1 O19 2.053429 1_555
Cr1 O24 2.054155 1_555
Cr2 O9 1.969509 1_555
Cr2 O5 2.002510 1_555
Cr2 O22 2.003863 1_555
Cr2 O12 2.019547 1_465
Cr2 O16 2.053429 1_455
Cr2 O27 2.054155 1_455
Cr3 O8 1.969509 1_555
Cr3 O4 2.002510 1_555
Cr3 O23 2.003863 1_555
Cr3 O13 2.019547 1_545
Cr3 O17 2.053429 1_555
Cr3 O26 2.054155 1_555
O0 P4 1.625311 1_565
O0 P0 1.633397 1_555
O1 P5 1.625311 1_545
O1 P1 1.633397 1_555
O2 P6 1.625311 1_545
O2 P2 1.633397 1_555
O3 P7 1.625311 1_565
O3 P3 1.633397 1_555
O4 P0 1.519750 1_555
O5 P1 1.519750 1_555
O6 P2 1.519750 1_555
O7 P3 1.519750 1_555
O8 P4 1.509770 1_555
O9 P5 1.509770 1_555
O10 P6 1.509770 1_555
O11 P7 1.509770 1_555
O12 P4 1.541633 1_555
O13 P5 1.541633 1_555
O14 P6 1.541633 1_555
O15 P7 1.541633 1_555
O16 P0 1.546773 1_555
O17 P1 1.546773 1_555
O18 P2 1.546773 1_555
O19 P3 1.546773 1_555
O20 P4 1.529771 1_556
O21 P5 1.529771 1_555
O22 P6 1.529771 1_554
O23 P7 1.529771 1_555
O24 P0 1.530264 1_556
O25 P1 1.530264 1_555
O26 P2 1.530264 1_554
O27 P3 1.530264 1_555
