# generated using pymatgen
data_TaCoB2
_symmetry_space_group_name_H-M   'P 1'
_cell_length_a   5.94625900
_cell_length_b   3.16061300
_cell_length_c   8.17940100
_cell_angle_alpha   90.00000000
_cell_angle_beta   90.00000000
_cell_angle_gamma   90.00000000
_symmetry_Int_Tables_number   1
_chemical_formula_structural   TaCoB2
_chemical_formula_sum   'Ta4 Co4 B8'
_cell_volume   153.72221870
_cell_formula_units_Z   4
loop_
 _symmetry_equiv_pos_site_id
 _symmetry_equiv_pos_as_xyz
  1  'x, y, z'
loop_
 _atom_site_type_symbol
 _atom_site_label
 _atom_site_symmetry_multiplicity
 _atom_site_fract_x
 _atom_site_fract_y
 _atom_site_fract_z
 _atom_site_occupancy
  Ta  Ta0  1  0.13862100  0.25000000  0.86883000  1
  Ta  Ta1  1  0.63862100  0.25000000  0.63117000  1
  Ta  Ta2  1  0.86137900  0.75000000  0.13117000  1
  Ta  Ta3  1  0.36137900  0.75000000  0.36883000  1
  Co  Co0  1  0.99134300  0.25000000  0.38614500  1
  Co  Co1  1  0.49134300  0.25000000  0.11385500  1
  Co  Co2  1  0.00865700  0.75000000  0.61385500  1
  Co  Co3  1  0.50865700  0.75000000  0.88614500  1
  B  B0  1  0.23299200  0.25000000  0.57717700  1
  B  B1  1  0.73299200  0.25000000  0.92282300  1
  B  B2  1  0.76700800  0.75000000  0.42282300  1
  B  B3  1  0.26700800  0.75000000  0.07717700  1
  B  B4  1  0.16364500  0.25000000  0.17134900  1
  B  B5  1  0.66364500  0.25000000  0.32865100  1
  B  B6  1  0.83635500  0.75000000  0.82865100  1
  B  B7  1  0.33635500  0.75000000  0.67134900  1
loop_
_geom_bond_atom_site_label_1
_geom_bond_atom_site_label_2
_geom_bond_distance
_geom_bond_site_symmetry_2
B0 B7 1.862377 1_545
B0 B7 1.862377 1_555
B0 Co2 2.089690 1_545
B0 Co2 2.089690 1_555
B0 Co0 2.122780 1_455
B0 Ta3 2.446287 1_545
B0 Ta3 2.446287 1_555
B0 Ta0 2.450659 1_555
B0 Ta1 2.452073 1_555
B1 B6 1.862377 1_545
B1 B6 1.862377 1_555
B1 Co3 2.089690 1_545
B1 Co3 2.089690 1_555
B1 Co1 2.122780 1_556
B1 Ta2 2.446287 1_556
B1 Ta2 2.446287 1_546
B1 Ta1 2.450659 1_555
B1 Ta0 2.452073 1_655
B2 B5 1.862377 1_555
B2 B5 1.862377 1_565
B2 Co0 2.089690 1_555
B2 Co0 2.089690 1_565
B2 Co2 2.122780 1_655
B2 Ta1 2.446287 1_555
B2 Ta1 2.446287 1_565
B2 Ta2 2.450659 1_555
B2 Ta3 2.452073 1_555
B3 B4 1.862377 1_555
B3 B4 1.862377 1_565
B3 Co1 2.089690 1_565
B3 Co1 2.089690 1_555
B3 Co3 2.122780 1_554
B3 Ta0 2.446287 1_554
B3 Ta0 2.446287 1_564
B3 Ta3 2.450659 1_555
B3 Ta2 2.452073 1_455
B4 Co1 2.004521 1_555
B4 Co0 2.033818 1_455
B4 Ta2 2.415750 1_455
B4 Ta2 2.415750 1_445
B4 Ta0 2.478894 1_554
B4 Ta3 2.547340 1_545
B4 Ta3 2.547340 1_555
B5 Co0 2.004521 1_555
B5 Co1 2.033818 1_555
B5 Ta3 2.415750 1_545
B5 Ta3 2.415750 1_555
B5 Ta1 2.478894 1_555
B5 Ta2 2.547340 1_555
B5 Ta2 2.547340 1_545
B6 Co3 2.004521 1_555
B6 Co2 2.033818 1_655
B6 Ta0 2.415750 1_665
B6 Ta0 2.415750 1_655
B6 Ta2 2.478894 1_556
B6 Ta1 2.547340 1_555
B6 Ta1 2.547340 1_565
B7 Co2 2.004521 1_555
B7 Co3 2.033818 1_555
B7 Ta1 2.415750 1_555
B7 Ta1 2.415750 1_565
B7 Ta3 2.478894 1_555
B7 Ta0 2.547340 1_565
B7 Ta0 2.547340 1_555
