# generated using pymatgen
data_ErAlAu
_symmetry_space_group_name_H-M   'P 1'
_cell_length_a   4.41840495
_cell_length_b   7.08106377
_cell_length_c   7.72818288
_cell_angle_alpha   89.98969563
_cell_angle_beta   90.00000000
_cell_angle_gamma   90.00000000
_symmetry_Int_Tables_number   1
_chemical_formula_structural   ErAlAu
_chemical_formula_sum   'Er4 Al4 Au4'
_cell_volume   241.79170959
_cell_formula_units_Z   4
loop_
 _symmetry_equiv_pos_site_id
 _symmetry_equiv_pos_as_xyz
  1  'x, y, z'
loop_
 _atom_site_type_symbol
 _atom_site_label
 _atom_site_symmetry_multiplicity
 _atom_site_fract_x
 _atom_site_fract_y
 _atom_site_fract_z
 _atom_site_occupancy
  Er  Er0  1  0.25000000  0.00819541  0.30087545  1
  Er  Er1  1  0.25000000  0.50814381  0.19907669  1
  Er  Er2  1  0.75000000  0.99179034  0.69910650  1
  Er  Er3  1  0.75000000  0.49181694  0.80097358  1
  Al  Al0  1  0.25000000  0.17521058  0.92245885  1
  Al  Al1  1  0.25000000  0.67526011  0.57756383  1
  Al  Al2  1  0.75000000  0.82482399  0.07750113  1
  Al  Al3  1  0.75000000  0.32483010  0.42248395  1
  Au  Au0  1  0.25000000  0.28465440  0.59465108  1
  Au  Au1  1  0.25000000  0.78456859  0.90533352  1
  Au  Au2  1  0.75000000  0.71538419  0.40527231  1
  Au  Au3  1  0.75000000  0.21532154  0.09470311  1
loop_
_geom_bond_atom_site_label_1
_geom_bond_atom_site_label_2
_geom_bond_distance
_geom_bond_site_symmetry_2
Al0 Au3 2.594861 1_456
Al0 Au3 2.594861 1_556
Al0 Au0 2.649111 1_555
Al0 Au1 2.769349 1_545
Al0 Er2 3.089942 1_545
Al0 Er2 3.089942 1_445
Al0 Er0 3.154353 1_556
Al0 Er1 3.182720 1_556
Al0 Er3 3.284423 1_555
Al0 Er3 3.284423 1_455
Al1 Au2 2.595006 1_455
Al1 Au2 2.595006 1_555
Al1 Au1 2.648816 1_555
Al1 Au0 2.769031 1_555
Al1 Er3 3.089997 1_555
Al1 Er3 3.089997 1_455
Al1 Er1 3.155522 1_555
Al1 Er0 3.182528 1_565
Al1 Er2 3.284413 1_555
Al1 Er2 3.284413 1_455
Al2 Au1 2.594670 1_554
Al2 Au1 2.594670 1_654
Al2 Au2 2.648833 1_555
Al2 Au3 2.768356 1_565
Al2 Er0 3.089891 1_665
Al2 Er0 3.089891 1_565
Al2 Er2 3.154067 1_554
Al2 Er3 3.182639 1_554
Al2 Er1 3.284980 1_655
Al2 Er1 3.284980 1_555
Al3 Au0 2.594553 1_655
Al3 Au0 2.594553 1_555
Al3 Au3 2.649313 1_555
Al3 Au2 2.768711 1_555
Al3 Er1 3.089601 1_555
Al3 Er1 3.089601 1_655
Al3 Er3 3.155196 1_555
Al3 Er2 3.182734 1_545
Al3 Er0 3.285063 1_655
Al3 Er0 3.285063 1_555
Au0 Er0 2.998064 1_555
Au0 Er3 3.094467 1_455
Au0 Er3 3.094467 1_555
Au0 Er2 3.135638 1_545
Au0 Er2 3.135638 1_445
Au1 Er1 2.997182 1_556
Au1 Er2 3.094014 1_555
Au1 Er2 3.094014 1_455
Au1 Er3 3.135114 1_555
Au1 Er3 3.135114 1_455
Au2 Er2 2.998162 1_555
Au2 Er1 3.094223 1_655
Au2 Er1 3.094223 1_555
Au2 Er0 3.135275 1_665
Au2 Er0 3.135275 1_565
Au3 Er3 2.997429 1_554
Au3 Er0 3.093475 1_655
Au3 Er0 3.093475 1_555
Au3 Er1 3.135472 1_655
Au3 Er1 3.135472 1_555
