# generated using pymatgen
data_Ba2Co2F11
_symmetry_space_group_name_H-M   'P 1'
_cell_length_a   7.63776430
_cell_length_b   7.63776430
_cell_length_c   14.13993200
_cell_angle_alpha   90.00000000
_cell_angle_beta   90.00000000
_cell_angle_gamma   120.00000261
_symmetry_Int_Tables_number   1
_chemical_formula_structural   Ba2Co2F11
_chemical_formula_sum   'Ba6 Co6 F33'
_cell_volume   714.34900693
_cell_formula_units_Z   3
loop_
 _symmetry_equiv_pos_site_id
 _symmetry_equiv_pos_as_xyz
  1  'x, y, z'
loop_
 _atom_site_type_symbol
 _atom_site_label
 _atom_site_symmetry_multiplicity
 _atom_site_fract_x
 _atom_site_fract_y
 _atom_site_fract_z
 _atom_site_occupancy
  Ba  Ba0  1  0.53655300  0.17964000  0.67041200  1
  Ba  Ba1  1  0.14515100  0.47267300  0.82654900  1
  Ba  Ba2  1  0.64308700  0.46344700  0.00374600  1
  Ba  Ba3  1  0.52732700  0.67247800  0.49321600  1
  Ba  Ba4  1  0.32752200  0.85484900  0.15988300  1
  Ba  Ba5  1  0.82036000  0.35691300  0.33707900  1
  Co  Co0  1  0.64255000  0.97472400  0.88306500  1
  Co  Co1  1  0.85325300  0.77455500  0.72705100  1
  Co  Co2  1  0.22544500  0.07869800  0.39371700  1
  Co  Co3  1  0.33217400  0.35745000  0.21639800  1
  Co  Co4  1  0.92130200  0.14674700  0.06038400  1
  Co  Co5  1  0.02527600  0.66782600  0.54973200  1
  F  F0  1  0.63484100  0.05818300  0.01701400  1
  F  F1  1  0.51628700  0.71541500  0.93386500  1
  F  F2  1  0.42334300  0.36515900  0.35034700  1
  F  F3  1  0.11292400  0.49948500  0.48967000  1
  F  F4  1  0.52421000  0.27906100  0.18167600  1
  F  F5  1  0.94785400  0.60141800  0.17859100  1
  F  F6  1  0.50051500  0.61343900  0.15633700  1
  F  F7  1  0.39858200  0.34643500  0.84525700  1
  F  F8  1  0.75485100  0.47579000  0.51500900  1
  F  F9  1  0.21262900  0.28406400  0.08800500  1
  F  F10  1  0.38656100  0.88707600  0.82300300  1
  F  F11  1  0.94181700  0.57665700  0.68368000  1
  F  F12  1  0.32580300  0.05952900  0.00733300  1
  F  F13  1  0.98665600  0.41013000  0.01337900  1
  F  F14  1  0.73372600  0.67419700  0.34066600  1
  F  F15  1  0.28458500  0.80087200  0.60053200  1
  F  F16  1  0.92945000  0.09249600  0.91609200  1
  F  F17  1  0.07143500  0.78737100  0.42133800  1
  F  F18  1  0.01261700  0.11568000  0.40427000  1
  F  F19  1  0.94047100  0.26627400  0.67400000  1
  F  F20  1  0.10306300  0.98738300  0.73760300  1
  F  F21  1  0.58987000  0.57652600  0.68004600  1
  F  F22  1  0.42347400  0.01334400  0.34671300  1
  F  F23  1  0.16304600  0.07055000  0.24942500  1
  F  F24  1  0.71593600  0.92856500  0.75467100  1
  F  F25  1  0.72093900  0.24514900  0.84834200  1
  F  F26  1  0.19912800  0.48371300  0.26719900  1
  F  F27  1  0.84298000  0.66891900  0.84909400  1
  F  F28  1  0.82593900  0.15702000  0.18242700  1
  F  F29  1  0.88432000  0.89693700  0.07093600  1
  F  F30  1  0.65356500  0.05214600  0.51192400  1
  F  F31  1  0.90750400  0.83695400  0.58275900  1
  F  F32  1  0.33108100  0.17406100  0.51576000  1
loop_
_geom_bond_atom_site_label_1
_geom_bond_atom_site_label_2
_geom_bond_distance
_geom_bond_site_symmetry_2
Ba0 F32 2.679506 1_555
Ba0 F15 2.735261 1_545
Ba0 F30 2.763935 1_555
Ba0 F25 2.803365 1_555
Ba0 F19 2.813625 1_555
Ba0 F21 2.852871 1_555
Ba0 F10 2.898450 1_545
Ba0 F8 2.992224 1_555
Ba0 F20 3.026408 1_545
Ba0 F11 3.070040 1_555
Ba0 F24 3.098603 1_545
Ba0 F7 3.191883 1_555
Ba1 F7 2.571506 1_555
Ba1 F19 2.667843 1_455
Ba1 F10 2.753948 1_555
Ba1 F16 2.822228 1_455
Ba1 F25 2.825275 1_455
Ba1 F13 2.845041 1_456
Ba1 F11 2.890861 1_455
Ba1 F1 2.918860 1_555
Ba2 F27 2.679506 1_554
Ba2 F1 2.735266 1_554
Ba2 F7 2.763942 1_554
Ba2 F4 2.803365 1_555
Ba2 F12 2.813625 1_555
Ba2 F13 2.852871 1_555
Ba2 F6 2.898450 1_555
Ba2 F25 2.992235 1_554
Ba2 F29 3.026403 1_555
Ba2 F0 3.070044 1_555
Ba2 F9 3.098603 1_555
Ba2 F5 3.191887 1_555
Ba3 F30 2.571499 1_565
Ba3 F14 2.667854 1_555
Ba3 F3 2.753948 1_555
Ba3 F31 2.822228 1_555
Ba3 F8 2.825275 1_555
Ba3 F21 2.845042 1_555
Ba3 F2 2.890866 1_555
Ba3 F15 2.918860 1_555
Ba4 F5 2.571500 1_455
Ba4 F12 2.667854 1_565
Ba4 F6 2.753948 1_555
Ba4 F23 2.822222 1_565
Ba4 F4 2.825275 1_565
Ba4 F22 2.845041 1_565
Ba4 F0 2.890865 1_565
Ba4 F26 2.918860 1_555
Ba5 F28 2.679506 1_555
Ba5 F26 2.735261 1_655
Ba5 F5 2.763931 1_555
Ba5 F8 2.803365 1_555
Ba5 F14 2.813625 1_555
Ba5 F22 2.852871 1_555
Ba5 F3 2.898450 1_655
Ba5 F4 2.992224 1_555
Ba5 F18 3.026408 1_655
Ba5 F2 3.070036 1_555
Ba5 F17 3.098603 1_655
Ba5 F30 3.191887 1_555
Co0 F1 1.859716 1_555
Co0 F25 1.904983 1_565
Co0 F10 1.919188 1_555
Co0 F16 1.964132 1_565
Co0 F24 1.982938 1_555
Co0 F0 2.008651 1_566
Co1 F20 1.789844 1_655
Co1 F27 1.889917 1_555
Co1 F21 1.932238 1_555
Co1 F24 1.967193 1_555
Co1 F11 2.034871 1_555
Co1 F31 2.089040 1_555
Co2 F18 1.789845 1_555
Co2 F32 1.889917 1_555
Co2 F22 1.932233 1_555
Co2 F17 1.967196 1_545
Co2 F2 2.034862 1_555
Co2 F23 2.089040 1_555
Co3 F26 1.859722 1_555
Co3 F4 1.904980 1_555
Co3 F6 1.919182 1_555
Co3 F23 1.964132 1_555
Co3 F9 1.982925 1_555
Co3 F2 2.008653 1_555
Co4 F29 1.789844 1_545
Co4 F28 1.889917 1_555
Co4 F13 1.932238 1_555
Co4 F9 1.967196 1_655
Co4 F0 2.034860 1_555
Co4 F16 2.089040 1_554
Co5 F15 1.859716 1_555
Co5 F8 1.904983 1_455
Co5 F3 1.919188 1_555
Co5 F31 1.964132 1_455
Co5 F17 1.982938 1_555
Co5 F11 2.008639 1_455
