# generated using pymatgen
data_SmEu2SbO6
_symmetry_space_group_name_H-M   'P 1'
_cell_length_a   8.44388049
_cell_length_b   8.44388049
_cell_length_c   8.44388049
_cell_angle_alpha   90.00000000
_cell_angle_beta   90.00000000
_cell_angle_gamma   90.00000000
_symmetry_Int_Tables_number   1
_chemical_formula_structural   SmEu2SbO6
_chemical_formula_sum   'Sm4 Eu8 Sb4 O24'
_cell_volume   602.04122915
_cell_formula_units_Z   4
loop_
 _symmetry_equiv_pos_site_id
 _symmetry_equiv_pos_as_xyz
  1  'x, y, z'
loop_
 _atom_site_type_symbol
 _atom_site_label
 _atom_site_symmetry_multiplicity
 _atom_site_fract_x
 _atom_site_fract_y
 _atom_site_fract_z
 _atom_site_occupancy
  Sm  Sm0  1  0.25000000  0.25000000  0.25000000  1
  Sm  Sm1  1  0.25000000  0.75000000  0.75000000  1
  Sm  Sm2  1  0.75000000  0.25000000  0.75000000  1
  Sm  Sm3  1  0.75000000  0.75000000  0.25000000  1
  Eu  Eu0  1  0.50000000  0.50000000  0.50000000  1
  Eu  Eu1  1  -0.00000000  -0.00000000  -0.00000000  1
  Eu  Eu2  1  -0.00000000  -0.00000000  0.50000000  1
  Eu  Eu3  1  -0.00000000  0.50000000  -0.00000000  1
  Eu  Eu4  1  0.50000000  -0.00000000  -0.00000000  1
  Eu  Eu5  1  0.50000000  0.50000000  -0.00000000  1
  Eu  Eu6  1  0.50000000  -0.00000000  0.50000000  1
  Eu  Eu7  1  -0.00000000  0.50000000  0.50000000  1
  Sb  Sb0  1  0.75000000  0.75000000  0.75000000  1
  Sb  Sb1  1  0.75000000  0.25000000  0.25000000  1
  Sb  Sb2  1  0.25000000  0.75000000  0.25000000  1
  Sb  Sb3  1  0.25000000  0.25000000  0.75000000  1
  O  O0  1  0.21492796  0.29291898  0.51757458  1
  O  O1  1  0.21492796  0.70708102  0.48242542  1
  O  O2  1  0.78507204  0.29291898  0.48242542  1
  O  O3  1  0.78507204  0.70708102  0.51757458  1
  O  O4  1  0.29291898  0.51757458  0.21492796  1
  O  O5  1  0.70708102  0.48242542  0.21492796  1
  O  O6  1  0.29291898  0.48242542  0.78507204  1
  O  O7  1  0.70708102  0.51757458  0.78507204  1
  O  O8  1  0.51757458  0.21492796  0.29291898  1
  O  O9  1  0.48242542  0.21492796  0.70708102  1
  O  O10  1  0.48242542  0.78507204  0.29291898  1
  O  O11  1  0.51757458  0.78507204  0.70708102  1
  O  O12  1  0.28507204  0.20708102  0.98242542  1
  O  O13  1  0.28507204  0.79291898  0.01757458  1
  O  O14  1  0.71492796  0.20708102  0.01757458  1
  O  O15  1  0.71492796  0.79291898  0.98242542  1
  O  O16  1  0.20708102  0.98242542  0.28507204  1
  O  O17  1  0.79291898  0.01757458  0.28507204  1
  O  O18  1  0.20708102  0.01757458  0.71492796  1
  O  O19  1  0.79291898  0.98242542  0.71492796  1
  O  O20  1  0.98242542  0.28507204  0.20708102  1
  O  O21  1  0.01757458  0.28507204  0.79291898  1
  O  O22  1  0.01757458  0.71492796  0.20708102  1
  O  O23  1  0.98242542  0.71492796  0.79291898  1
loop_
_geom_bond_atom_site_label_1
_geom_bond_atom_site_label_2
_geom_bond_distance
_geom_bond_site_symmetry_2
Eu0 O10 2.978877 1_555
Eu0 O4 2.978877 1_555
Eu0 O8 2.978877 1_555
Eu0 O6 2.978877 1_555
Eu0 O11 2.978877 1_555
Eu0 O5 2.978877 1_555
Eu0 O9 2.978877 1_555
Eu0 O7 2.978877 1_555
Eu0 O0 2.978877 1_555
Eu0 O3 2.978877 1_555
Eu0 O2 2.978877 1_555
Eu0 O1 2.978877 1_555
Eu1 O15 2.978877 1_444
Eu1 O19 2.978877 1_444
Eu1 O17 2.978877 1_455
Eu1 O22 2.978877 1_545
Eu1 O21 2.978877 1_554
Eu1 O23 2.978877 1_444
Eu1 O18 2.978877 1_554
Eu1 O16 2.978877 1_545
Eu1 O20 2.978877 1_455
Eu1 O13 2.978877 1_545
Eu1 O14 2.978877 1_455
Eu1 O12 2.978877 1_554
Eu2 O17 2.524501 1_455
Eu2 O19 2.524501 1_445
Eu2 O16 2.524501 1_545
Eu2 O18 2.524501 1_555
Eu2 O1 3.071350 1_545
Eu2 O3 3.071350 1_445
Eu2 O0 3.071350 1_555
Eu2 O2 3.071350 1_455
Eu3 O21 2.524501 1_554
Eu3 O20 2.524501 1_455
Eu3 O23 2.524501 1_454
Eu3 O22 2.524501 1_555
Eu3 O5 3.071350 1_455
Eu3 O7 3.071350 1_454
Eu3 O4 3.071350 1_555
Eu3 O6 3.071350 1_554
Eu4 O13 2.524501 1_545
Eu4 O15 2.524501 1_544
Eu4 O12 2.524501 1_554
Eu4 O14 2.524501 1_555
Eu4 O9 3.071350 1_554
Eu4 O11 3.071350 1_544
Eu4 O8 3.071350 1_555
Eu4 O10 3.071350 1_545
Eu5 O4 2.524501 1_555
Eu5 O5 2.524501 1_555
Eu5 O7 2.524501 1_554
Eu5 O6 2.524501 1_554
Eu5 O12 3.071350 1_554
Eu5 O15 3.071350 1_554
Eu5 O13 3.071350 1_555
Eu5 O14 3.071350 1_555
Eu6 O8 2.524501 1_555
Eu6 O10 2.524501 1_545
Eu6 O9 2.524501 1_555
Eu6 O11 2.524501 1_545
Eu6 O16 3.071350 1_545
Eu6 O17 3.071350 1_555
Eu6 O19 3.071350 1_545
Eu6 O18 3.071350 1_555
Eu7 O0 2.524501 1_555
Eu7 O3 2.524501 1_455
Eu7 O2 2.524501 1_455
Eu7 O1 2.524501 1_555
Eu7 O20 3.071350 1_455
Eu7 O21 3.071350 1_555
Eu7 O22 3.071350 1_555
Eu7 O23 3.071350 1_455
O0 Sb3 2.017604 1_555
O0 Sm0 2.307332 1_555
O1 Sb2 2.017604 1_555
O1 Sm1 2.307332 1_555
O2 Sb1 2.017604 1_555
O2 Sm2 2.307332 1_555
O3 Sb0 2.017604 1_555
O3 Sm3 2.307332 1_555
O4 Sb2 2.017604 1_555
O4 Sm0 2.307332 1_555
O5 Sb1 2.017604 1_555
O5 Sm3 2.307332 1_555
O6 Sb3 2.017604 1_555
O6 Sm1 2.307332 1_555
O7 Sb0 2.017604 1_555
O7 Sm2 2.307332 1_555
O8 Sb1 2.017604 1_555
O8 Sm0 2.307332 1_555
O9 Sb3 2.017604 1_555
O9 Sm2 2.307332 1_555
O10 Sb2 2.017604 1_555
O10 Sm3 2.307332 1_555
O11 Sb0 2.017604 1_555
O11 Sm1 2.307332 1_555
O12 Sb3 2.017604 1_555
O12 Sm0 2.307332 1_556
O13 Sb2 2.017604 1_555
O13 Sm1 2.307332 1_554
O14 Sb1 2.017604 1_555
O14 Sm2 2.307332 1_554
O15 Sb0 2.017604 1_555
O15 Sm3 2.307332 1_556
O16 Sb2 2.017604 1_555
O16 Sm0 2.307332 1_565
O17 Sb1 2.017604 1_555
O17 Sm3 2.307332 1_545
O18 Sb3 2.017604 1_555
O18 Sm1 2.307332 1_545
O19 Sb0 2.017604 1_555
O19 Sm2 2.307332 1_565
O20 Sb1 2.017604 1_555
O20 Sm0 2.307332 1_655
O21 Sb3 2.017604 1_555
O21 Sm2 2.307332 1_455
O22 Sb2 2.017604 1_555
O22 Sm3 2.307332 1_455
O23 Sb0 2.017604 1_555
O23 Sm1 2.307332 1_655
