# generated using pymatgen
data_NaTiVS4
_symmetry_space_group_name_H-M   'P 1'
_cell_length_a   7.16821631
_cell_length_b   7.16821631
_cell_length_c   5.95312190
_cell_angle_alpha   82.40662394
_cell_angle_beta   82.40662394
_cell_angle_gamma   27.83993026
_symmetry_Int_Tables_number   1
_chemical_formula_structural   NaTiVS4
_chemical_formula_sum   'Na1 Ti1 V1 S4'
_cell_volume   141.52210227
_cell_formula_units_Z   1
loop_
 _symmetry_equiv_pos_site_id
 _symmetry_equiv_pos_as_xyz
  1  'x, y, z'
loop_
 _atom_site_type_symbol
 _atom_site_label
 _atom_site_symmetry_multiplicity
 _atom_site_fract_x
 _atom_site_fract_y
 _atom_site_fract_z
 _atom_site_occupancy
  Na  Na0  1  0.24388232  0.24388232  0.90371947  1
  Ti  Ti0  1  0.49336453  0.49336453  0.48971886  1
  V  V0  1  0.99245601  0.99245601  0.01384522  1
  S  S0  1  0.89392176  0.89392176  0.70189899  1
  S  S1  1  0.38872650  0.38872650  0.20485622  1
  S  S2  1  0.59162969  0.59162969  0.80951920  1
  S  S3  1  0.09701918  0.09701918  0.30944204  1
loop_
_geom_bond_atom_site_label_1
_geom_bond_atom_site_label_2
_geom_bond_distance
_geom_bond_site_symmetry_2
Na0 S0 2.844877 1_545
Na0 S0 2.844877 1_455
Na0 S2 2.846112 1_455
Na0 S2 2.846112 1_545
Na0 S1 2.874043 1_556
Na0 S3 2.943859 1_556
S0 Ti0 2.451146 1_565
S0 Ti0 2.451146 1_655
S0 V0 2.453974 1_556
S1 Ti0 2.380822 1_555
S1 V0 2.429670 1_545
S1 V0 2.429670 1_455
S2 V0 2.429134 1_456
S2 V0 2.429134 1_546
S2 Ti0 2.490601 1_555
S3 Ti0 2.405091 1_455
S3 Ti0 2.405091 1_545
S3 V0 2.431241 1_445
