# generated using pymatgen
data_PrI3O10
_symmetry_space_group_name_H-M   'P 1'
_cell_length_a   6.73855100
_cell_length_b   7.55221400
_cell_length_c   10.29693106
_cell_angle_alpha   69.80930089
_cell_angle_beta   90.00000000
_cell_angle_gamma   90.00000000
_symmetry_Int_Tables_number   1
_chemical_formula_structural   PrI3O10
_chemical_formula_sum   'Pr2 I6 O20'
_cell_volume   491.81932893
_cell_formula_units_Z   2
loop_
 _symmetry_equiv_pos_site_id
 _symmetry_equiv_pos_as_xyz
  1  'x, y, z'
loop_
 _atom_site_type_symbol
 _atom_site_label
 _atom_site_symmetry_multiplicity
 _atom_site_fract_x
 _atom_site_fract_y
 _atom_site_fract_z
 _atom_site_occupancy
  Pr  Pr0  1  0.36543400  0.23916800  0.18762500  1
  Pr  Pr1  1  0.86543400  0.76083200  0.81237500  1
  I  I0  1  0.99920800  0.88697700  0.41931800  1
  I  I1  1  0.49920800  0.11302300  0.58068200  1
  I  I2  1  0.39174100  0.83351000  0.03799800  1
  I  I3  1  0.89174100  0.16649000  0.96200200  1
  I  I4  1  0.83991100  0.47077600  0.22428500  1
  I  I5  1  0.33991100  0.52922400  0.77571500  1
  O  O0  1  0.01207000  0.69763300  0.34297800  1
  O  O1  1  0.51207000  0.30236700  0.65702200  1
  O  O2  1  0.07429700  0.34501100  0.28060700  1
  O  O3  1  0.57429700  0.65498900  0.71939300  1
  O  O4  1  0.22844700  0.69847300  0.84979200  1
  O  O5  1  0.72844700  0.30152700  0.15020800  1
  O  O6  1  0.08169600  0.09748100  0.09856900  1
  O  O7  1  0.58169600  0.90251900  0.90143100  1
  O  O8  1  0.92139300  0.65184400  0.06453900  1
  O  O9  1  0.42139300  0.34815600  0.93546100  1
  O  O10  1  0.50447100  0.95485200  0.14678800  1
  O  O11  1  0.00447100  0.04514800  0.85321200  1
  O  O12  1  0.26095300  0.96355100  0.39105500  1
  O  O13  1  0.76095300  0.03644900  0.60894500  1
  O  O14  1  0.02747900  0.74301700  0.60198600  1
  O  O15  1  0.52747900  0.25698300  0.39801400  1
  O  O16  1  0.46273200  0.59073600  0.13795100  1
  O  O17  1  0.96273200  0.40926400  0.86204900  1
  O  O18  1  0.20333700  0.28317800  0.58863300  1
  O  O19  1  0.70333700  0.71682200  0.41136700  1
loop_
_geom_bond_atom_site_label_1
_geom_bond_atom_site_label_2
_geom_bond_distance
_geom_bond_site_symmetry_2
I0 O14 1.828816 1_655
I0 O12 1.847669 1_655
I0 O0 1.856378 1_655
I0 O19 2.388656 1_555
I1 O15 1.828816 1_555
I1 O13 1.847669 1_555
I1 O1 1.856378 1_555
I1 O18 2.388656 1_555
I2 O16 1.829526 1_555
I2 O10 1.838564 1_555
I2 O7 1.838921 1_554
I3 O17 1.829526 1_555
I3 O11 1.838564 1_655
I3 O6 1.838921 1_656
I4 O8 1.823298 1_555
I4 O2 1.831066 1_655
I4 O5 1.858169 1_555
I5 O9 1.823298 1_555
I5 O3 1.831066 1_555
I5 O4 1.858169 1_555
O2 Pr0 2.435723 1_555
O3 Pr1 2.435723 1_555
O4 Pr1 2.495754 1_455
O5 Pr0 2.495754 1_555
O6 Pr0 2.513747 1_555
O7 Pr1 2.513747 1_555
O8 Pr1 2.467041 1_554
O9 Pr0 2.467041 1_556
O10 Pr0 2.507670 1_565
O11 Pr1 2.507670 1_445
O12 Pr0 2.491266 1_565
O13 Pr1 2.491266 1_545
O14 Pr1 2.470784 1_455
O15 Pr0 2.470784 1_555
O16 Pr0 2.608386 1_555
O17 Pr1 2.608386 1_555
