# generated using pymatgen
data_Ce3Sn
_symmetry_space_group_name_H-M   'P 1'
_cell_length_a   22.17861366
_cell_length_b   22.17861366
_cell_length_c   22.17861389
_cell_angle_alpha   17.90104386
_cell_angle_beta   17.90104386
_cell_angle_gamma   17.90104588
_symmetry_Int_Tables_number   1
_chemical_formula_structural   Ce3Sn
_chemical_formula_sum   'Ce24 Sn8'
_cell_volume   899.88256656
_cell_formula_units_Z   8
loop_
 _symmetry_equiv_pos_site_id
 _symmetry_equiv_pos_as_xyz
  1  'x, y, z'
loop_
 _atom_site_type_symbol
 _atom_site_label
 _atom_site_symmetry_multiplicity
 _atom_site_fract_x
 _atom_site_fract_y
 _atom_site_fract_z
 _atom_site_occupancy
  Ce  Ce0_0  1  0.12504850  0.12504850  0.12504850  1
  Ce  Ce0_1  1  0.12504850  0.12504850  0.62504850  1
  Ce  Ce0_2  1  0.12504850  0.62504850  0.12504850  1
  Ce  Ce0_3  1  0.12504850  0.62504850  0.62504850  1
  Ce  Ce0_4  1  0.62504850  0.12504850  0.12504850  1
  Ce  Ce0_5  1  0.62504850  0.12504850  0.62504850  1
  Ce  Ce0_6  1  0.62504850  0.62504850  0.12504850  1
  Ce  Ce0_7  1  0.62504850  0.62504850  0.62504850  1
  Ce  Ce1_0  1  0.25000000  0.25000000  0.25000000  1
  Ce  Ce1_1  1  0.25000000  0.25000000  0.75000000  1
  Ce  Ce1_2  1  0.25000000  0.75000000  0.25000000  1
  Ce  Ce1_3  1  0.25000000  0.75000000  0.75000000  1
  Ce  Ce1_4  1  0.75000000  0.25000000  0.25000000  1
  Ce  Ce1_5  1  0.75000000  0.25000000  0.75000000  1
  Ce  Ce1_6  1  0.75000000  0.75000000  0.25000000  1
  Ce  Ce1_7  1  0.75000000  0.75000000  0.75000000  1
  Ce  Ce2_0  1  0.37495150  0.37495150  0.37495150  1
  Ce  Ce2_1  1  0.37495150  0.37495150  0.87495150  1
  Ce  Ce2_2  1  0.37495150  0.87495150  0.37495150  1
  Ce  Ce2_3  1  0.37495150  0.87495150  0.87495150  1
  Ce  Ce2_4  1  0.87495150  0.37495150  0.37495150  1
  Ce  Ce2_5  1  0.87495150  0.37495150  0.87495150  1
  Ce  Ce2_6  1  0.87495150  0.87495150  0.37495150  1
  Ce  Ce2_7  1  0.87495150  0.87495150  0.87495150  1
  Sn  Sn0_0  1  0.00000000  0.00000000  0.00000000  1
  Sn  Sn0_1  1  0.00000000  0.00000000  0.50000000  1
  Sn  Sn0_2  1  0.00000000  0.50000000  0.00000000  1
  Sn  Sn0_3  1  0.00000000  0.50000000  0.50000000  1
  Sn  Sn0_4  1  0.50000000  0.00000000  0.00000000  1
  Sn  Sn0_5  1  0.50000000  0.00000000  0.50000000  1
  Sn  Sn0_6  1  0.50000000  0.50000000  0.00000000  1
  Sn  Sn0_7  1  0.50000000  0.50000000  0.50000000  1
loop_
_geom_bond_atom_site_label_1
_geom_bond_atom_site_label_2
_geom_bond_distance
_geom_bond_site_symmetry_2
Ce0_0 Sn0_1 3.374800 1_555
Ce0_0 Sn0_2 3.374800 1_555
Ce0_0 Sn0_4 3.374800 1_555
Ce0_0 Ce1_1 3.379927 1_554
Ce0_0 Ce1_2 3.379927 1_545
Ce0_0 Ce1_4 3.379927 1_455
Ce0_1 Sn0_0 3.374800 1_556
Ce0_1 Sn0_5 3.374800 1_555
Ce0_1 Sn0_3 3.374800 1_555
Ce0_1 Ce1_0 3.379927 1_555
Ce0_1 Ce1_3 3.379927 1_545
Ce0_1 Ce1_5 3.379927 1_455
Ce0_2 Sn0_3 3.374800 1_555
Ce0_2 Sn0_0 3.374800 1_565
Ce0_2 Sn0_6 3.374800 1_555
Ce0_2 Ce1_3 3.379927 1_554
Ce0_2 Ce1_6 3.379927 1_455
Ce0_2 Ce1_0 3.379927 1_555
Ce0_3 Sn0_2 3.374800 1_556
Ce0_3 Sn0_7 3.374800 1_555
Ce0_3 Sn0_1 3.374800 1_565
Ce0_3 Ce1_2 3.379927 1_555
Ce0_3 Ce1_7 3.379927 1_455
Ce0_3 Ce1_1 3.379927 1_555
Ce0_4 Sn0_5 3.374800 1_555
Ce0_4 Sn0_0 3.374800 1_655
Ce0_4 Sn0_6 3.374800 1_555
Ce0_4 Ce1_5 3.379927 1_554
Ce0_4 Ce1_6 3.379927 1_545
Ce0_4 Ce1_0 3.379927 1_555
Ce0_5 Sn0_4 3.374800 1_556
Ce0_5 Sn0_7 3.374800 1_555
Ce0_5 Sn0_1 3.374800 1_655
Ce0_5 Ce1_4 3.379927 1_555
Ce0_5 Ce1_7 3.379927 1_545
Ce0_5 Ce1_1 3.379927 1_555
Ce0_6 Sn0_7 3.374800 1_555
Ce0_6 Sn0_4 3.374800 1_565
Ce0_6 Sn0_2 3.374800 1_655
Ce0_6 Ce1_7 3.379927 1_554
Ce0_6 Ce1_2 3.379927 1_555
Ce0_6 Ce1_4 3.379927 1_555
Ce0_7 Sn0_6 3.374800 1_556
Ce0_7 Sn0_3 3.374800 1_655
Ce0_7 Sn0_5 3.374800 1_565
Ce0_7 Ce1_6 3.379927 1_555
Ce0_7 Ce1_5 3.379927 1_555
Ce0_7 Ce1_3 3.379927 1_555
Ce1_0 Ce2_1 3.379927 1_554
Ce1_0 Ce2_2 3.379927 1_545
Ce1_0 Ce2_4 3.379927 1_455
Ce1_0 Ce1_5 3.450582 1_455
Ce1_0 Ce1_3 3.450582 1_554
Ce1_0 Ce1_3 3.450582 1_545
Ce1_0 Ce1_5 3.450582 1_554
Ce1_0 Ce1_6 3.450582 1_455
Ce1_0 Ce1_6 3.450582 1_545
Ce1_1 Ce2_0 3.379927 1_555
Ce1_1 Ce2_5 3.379927 1_455
Ce1_1 Ce2_3 3.379927 1_545
Ce1_1 Ce1_4 3.450582 1_555
Ce1_1 Ce1_2 3.450582 1_555
Ce1_1 Ce1_4 3.450582 1_456
Ce1_1 Ce1_2 3.450582 1_546
Ce1_1 Ce1_7 3.450582 1_545
Ce1_1 Ce1_7 3.450582 1_455
Ce1_2 Ce2_3 3.379927 1_554
Ce1_2 Ce2_6 3.379927 1_455
Ce1_2 Ce2_0 3.379927 1_555
Ce1_2 Ce1_7 3.450582 1_554
Ce1_2 Ce1_7 3.450582 1_455
Ce1_2 Ce1_4 3.450582 1_555
Ce1_2 Ce1_4 3.450582 1_465
Ce1_3 Ce2_2 3.379927 1_555
Ce1_3 Ce2_7 3.379927 1_455
Ce1_3 Ce2_1 3.379927 1_555
Ce1_3 Ce1_6 3.450582 1_456
Ce1_3 Ce1_6 3.450582 1_555
Ce1_3 Ce1_5 3.450582 1_555
Ce1_3 Ce1_5 3.450582 1_465
Ce1_4 Ce2_5 3.379927 1_554
Ce1_4 Ce2_0 3.379927 1_555
Ce1_4 Ce2_6 3.379927 1_545
Ce1_4 Ce1_7 3.450582 1_545
Ce1_4 Ce1_7 3.450582 1_554
Ce1_5 Ce2_4 3.379927 1_555
Ce1_5 Ce2_7 3.379927 1_545
Ce1_5 Ce2_1 3.379927 1_555
Ce1_5 Ce1_6 3.450582 1_546
Ce1_5 Ce1_6 3.450582 1_555
Ce1_6 Ce2_7 3.379927 1_554
Ce1_6 Ce2_2 3.379927 1_555
Ce1_6 Ce2_4 3.379927 1_555
Ce1_7 Ce2_6 3.379927 1_555
Ce1_7 Ce2_5 3.379927 1_555
Ce1_7 Ce2_3 3.379927 1_555
Ce2_0 Sn0_6 3.374800 1_555
Ce2_0 Sn0_5 3.374800 1_555
Ce2_0 Sn0_3 3.374800 1_555
Ce2_1 Sn0_7 3.374800 1_555
Ce2_1 Sn0_2 3.374800 1_556
Ce2_1 Sn0_4 3.374800 1_556
Ce2_2 Sn0_4 3.374800 1_565
Ce2_2 Sn0_1 3.374800 1_565
Ce2_2 Sn0_7 3.374800 1_555
Ce2_3 Sn0_5 3.374800 1_565
Ce2_3 Sn0_0 3.374800 1_566
Ce2_3 Sn0_6 3.374800 1_556
Ce2_4 Sn0_2 3.374800 1_655
Ce2_4 Sn0_1 3.374800 1_655
Ce2_4 Sn0_7 3.374800 1_555
Ce2_5 Sn0_3 3.374800 1_655
Ce2_5 Sn0_6 3.374800 1_556
Ce2_5 Sn0_0 3.374800 1_656
Ce2_6 Sn0_0 3.374800 1_665
Ce2_6 Sn0_3 3.374800 1_655
Ce2_6 Sn0_5 3.374800 1_565
Ce2_7 Sn0_1 3.374800 1_665
Ce2_7 Sn0_2 3.374800 1_656
Ce2_7 Sn0_4 3.374800 1_566
