# generated using pymatgen
data_CaYb2(GeO3)4
_symmetry_space_group_name_H-M   'P 1'
_cell_length_a   10.17348320
_cell_length_b   10.17348320
_cell_length_c   5.12572500
_cell_angle_alpha   90.00000000
_cell_angle_beta   90.00000000
_cell_angle_gamma   90.04108975
_symmetry_Int_Tables_number   1
_chemical_formula_structural   CaYb2(GeO3)4
_chemical_formula_sum   'Ca2 Yb4 Ge8 O24'
_cell_volume   530.51117357
_cell_formula_units_Z   2
loop_
 _symmetry_equiv_pos_site_id
 _symmetry_equiv_pos_as_xyz
  1  'x, y, z'
loop_
 _atom_site_type_symbol
 _atom_site_label
 _atom_site_symmetry_multiplicity
 _atom_site_fract_x
 _atom_site_fract_y
 _atom_site_fract_z
 _atom_site_occupancy
  Ca  Ca0  1  0.50000000  0.00000000  0.50000000  1
  Ca  Ca1  1  0.00000000  0.50000000  0.50000000  1
  Yb  Yb0  1  0.50000000  0.50000000  0.50000000  1
  Yb  Yb1  1  0.00000000  0.00000000  0.50000000  1
  Yb  Yb2  1  0.25000000  0.25000000  0.50000000  1
  Yb  Yb3  1  0.75000000  0.75000000  0.50000000  1
  Ge  Ge0  1  0.97618000  0.24939100  0.99997200  1
  Ge  Ge1  1  0.02382000  0.75060900  0.00002800  1
  Ge  Ge2  1  0.47618000  0.74939100  0.00002800  1
  Ge  Ge3  1  0.52382000  0.25060900  0.99997200  1
  Ge  Ge4  1  0.25060900  0.52382000  0.00002800  1
  Ge  Ge5  1  0.74939100  0.47618000  0.99997200  1
  Ge  Ge6  1  0.75060900  0.02382000  0.99997200  1
  Ge  Ge7  1  0.24939100  0.97618000  0.00002800  1
  O  O0  1  0.32322100  0.06353800  0.25360700  1
  O  O1  1  0.67546400  0.56227400  0.25559800  1
  O  O2  1  0.82453600  0.93772600  0.25559800  1
  O  O3  1  0.17677900  0.43646200  0.25360700  1
  O  O4  1  0.67677900  0.93646200  0.74639300  1
  O  O5  1  0.32453600  0.43772600  0.74440200  1
  O  O6  1  0.17546400  0.06227400  0.74440200  1
  O  O7  1  0.82322100  0.56353800  0.74639300  1
  O  O8  1  0.43646200  0.17677900  0.74639300  1
  O  O9  1  0.93772600  0.82453600  0.74440200  1
  O  O10  1  0.56227400  0.67546400  0.74440200  1
  O  O11  1  0.06353800  0.32322100  0.74639300  1
  O  O12  1  0.56353800  0.82322100  0.25360700  1
  O  O13  1  0.06227400  0.17546400  0.25559800  1
  O  O14  1  0.43772600  0.32453600  0.25559800  1
  O  O15  1  0.93646200  0.67677900  0.25360700  1
  O  O16  1  0.87265300  0.37265300  0.15642800  1
  O  O17  1  0.12588400  0.87411600  0.15976900  1
  O  O18  1  0.37411600  0.62588400  0.15976900  1
  O  O19  1  0.62734700  0.12734700  0.15642800  1
  O  O20  1  0.12734700  0.62734700  0.84357200  1
  O  O21  1  0.87411600  0.12588400  0.84023100  1
  O  O22  1  0.62588400  0.37411600  0.84023100  1
  O  O23  1  0.37265300  0.87265300  0.84357200  1
loop_
_geom_bond_atom_site_label_1
_geom_bond_atom_site_label_2
_geom_bond_distance
_geom_bond_site_symmetry_2
Ca0 O8 2.291065 1_555
Ca0 O4 2.291065 1_545
Ca0 O0 2.291065 1_555
Ca0 O12 2.291065 1_545
Ca0 O23 2.540841 1_545
Ca0 O19 2.540841 1_555
Ca1 O3 2.291065 1_555
Ca1 O7 2.291065 1_455
Ca1 O11 2.291065 1_555
Ca1 O15 2.291065 1_455
Ca1 O20 2.540841 1_555
Ca1 O16 2.540841 1_455
Ge0 O11 1.744269 1_655
Ge0 O13 1.746584 1_656
Ge0 O21 1.823592 1_555
Ge0 O16 1.823962 1_556
Ge1 O15 1.744269 1_455
Ge1 O9 1.746584 1_454
Ge1 O17 1.823592 1_555
Ge1 O20 1.823962 1_554
Ge2 O12 1.744269 1_555
Ge2 O10 1.746584 1_554
Ge2 O18 1.823592 1_555
Ge2 O23 1.823962 1_554
Ge3 O8 1.744269 1_555
Ge3 O14 1.746584 1_556
Ge3 O22 1.823592 1_555
Ge3 O19 1.823962 1_556
Ge4 O3 1.744269 1_555
Ge4 O5 1.746584 1_554
Ge4 O18 1.823592 1_555
Ge4 O20 1.823962 1_554
Ge5 O7 1.744269 1_555
Ge5 O1 1.746584 1_556
Ge5 O22 1.823592 1_555
Ge5 O16 1.823962 1_556
Ge6 O4 1.744269 1_545
Ge6 O2 1.746584 1_546
Ge6 O21 1.823592 1_555
Ge6 O19 1.823962 1_556
Ge7 O0 1.744269 1_565
Ge7 O6 1.746584 1_564
Ge7 O17 1.823592 1_555
Ge7 O23 1.823962 1_554
O0 Yb2 2.398006 1_555
O1 Yb0 2.270598 1_555
O1 Yb3 2.406184 1_555
O2 Yb1 2.270598 1_665
O2 Yb3 2.406184 1_555
O3 Yb2 2.398006 1_555
O4 Yb3 2.398006 1_555
O5 Yb0 2.270598 1_555
O5 Yb2 2.406184 1_555
O6 Yb1 2.270598 1_555
O6 Yb2 2.406184 1_555
O7 Yb3 2.398006 1_555
O8 Yb2 2.398006 1_555
O9 Yb1 2.270598 1_665
O9 Yb3 2.406184 1_555
O10 Yb0 2.270598 1_555
O10 Yb3 2.406184 1_555
O11 Yb2 2.398006 1_555
O12 Yb3 2.398006 1_555
O13 Yb1 2.270598 1_555
O13 Yb2 2.406184 1_555
O14 Yb0 2.270598 1_555
O14 Yb2 2.406184 1_555
O15 Yb3 2.398006 1_555
O17 Yb1 2.514741 1_565
O18 Yb0 2.514741 1_555
O21 Yb1 2.514741 1_655
O22 Yb0 2.514741 1_555
