# generated using pymatgen
data_CoH7C3NO7
_symmetry_space_group_name_H-M   'P 1'
_cell_length_a   7.74537500
_cell_length_b   7.73605900
_cell_length_c   13.38435800
_cell_angle_alpha   90.00000000
_cell_angle_beta   90.00000000
_cell_angle_gamma   90.00000000
_symmetry_Int_Tables_number   1
_chemical_formula_structural   CoH7C3NO7
_chemical_formula_sum   'Co4 H28 C12 N4 O28'
_cell_volume   801.97303693
_cell_formula_units_Z   4
loop_
 _symmetry_equiv_pos_site_id
 _symmetry_equiv_pos_as_xyz
  1  'x, y, z'
loop_
 _atom_site_type_symbol
 _atom_site_label
 _atom_site_symmetry_multiplicity
 _atom_site_fract_x
 _atom_site_fract_y
 _atom_site_fract_z
 _atom_site_occupancy
  Co  Co0  1  0.45079700  0.99541400  0.41631400  1
  Co  Co1  1  0.04920300  0.00458600  0.91631400  1
  Co  Co2  1  0.95079700  0.50458600  0.58368600  1
  Co  Co3  1  0.54920300  0.49541400  0.08368600  1
  H  H0  1  0.44800700  0.67164300  0.27550900  1
  H  H1  1  0.05199300  0.32835800  0.77550900  1
  H  H2  1  0.94800700  0.82835700  0.72449100  1
  H  H3  1  0.55199300  0.17164300  0.22449100  1
  H  H4  1  0.63564900  0.27673200  0.54473400  1
  H  H5  1  0.86435100  0.72326800  0.04473400  1
  H  H6  1  0.13564900  0.22326800  0.45526600  1
  H  H7  1  0.36435100  0.77673200  0.95526600  1
  H  H8  1  0.76817400  0.77466900  0.46738200  1
  H  H9  1  0.73182600  0.22533100  0.96738200  1
  H  H10  1  0.26817400  0.72533100  0.53261800  1
  H  H11  1  0.23182600  0.27466900  0.03261800  1
  H  H12  1  0.80022800  0.97370700  0.29176100  1
  H  H13  1  0.69977200  0.02629300  0.79176100  1
  H  H14  1  0.30022800  0.52629300  0.70823900  1
  H  H15  1  0.19977200  0.47370700  0.20823900  1
  H  H16  1  0.90848600  0.76707300  0.22452900  1
  H  H17  1  0.59151400  0.23292700  0.72452900  1
  H  H18  1  0.40848600  0.73292700  0.77547100  1
  H  H19  1  0.09151400  0.26707400  0.27547100  1
  H  H20  1  0.09259700  0.82562100  0.28947100  1
  H  H21  1  0.40740300  0.17437900  0.78947100  1
  H  H22  1  0.59259700  0.67437900  0.71052900  1
  H  H23  1  0.90740300  0.32562100  0.21052900  1
  H  H24  1  0.06114500  0.88545900  0.16561700  1
  H  H25  1  0.43885500  0.11454100  0.66561700  1
  H  H26  1  0.56114500  0.61454100  0.83438300  1
  H  H27  1  0.93885500  0.38545900  0.33438300  1
  C  C0  1  0.57543100  0.73002300  0.26055300  1
  C  C1  1  0.92456900  0.26997700  0.76055300  1
  C  C2  1  0.07543100  0.76997700  0.73944700  1
  C  C3  1  0.42456900  0.23002300  0.23944700  1
  C  C4  1  0.70905800  0.26867700  0.47413300  1
  C  C5  1  0.79094200  0.73132300  0.97413300  1
  C  C6  1  0.20905800  0.23132300  0.52586700  1
  C  C7  1  0.29094200  0.76867700  0.02586700  1
  C  C8  1  0.68581500  0.76596100  0.53453400  1
  C  C9  1  0.81418500  0.23403900  0.03453400  1
  C  C10  1  0.18581500  0.73403900  0.46546600  1
  C  C11  1  0.31418500  0.26596100  0.96546600  1
  N  N0  1  0.00129000  0.86301100  0.23495100  1
  N  N1  1  0.49871000  0.13698900  0.73495100  1
  N  N2  1  0.50129000  0.63698900  0.76504900  1
  N  N3  1  0.99871000  0.36301100  0.26504900  1
  O  O0  1  0.61450300  0.86541300  0.31017500  1
  O  O1  1  0.88549700  0.13458700  0.81017500  1
  O  O2  1  0.11450300  0.63458700  0.68982500  1
  O  O3  1  0.38549700  0.36541300  0.18982500  1
  O  O4  1  0.67351000  0.65951100  0.19664300  1
  O  O5  1  0.82649000  0.34048900  0.69664300  1
  O  O6  1  0.17351000  0.84048900  0.80335700  1
  O  O7  1  0.32649000  0.15951100  0.30335700  1
  O  O8  1  0.65868200  0.16369400  0.40792100  1
  O  O9  1  0.84131800  0.83630600  0.90792100  1
  O  O10  1  0.15868200  0.33630600  0.59207900  1
  O  O11  1  0.34131800  0.66369400  0.09207900  1
  O  O12  1  0.83943900  0.36748200  0.46373200  1
  O  O13  1  0.66056100  0.63251800  0.96373200  1
  O  O14  1  0.33943900  0.13251800  0.53626800  1
  O  O15  1  0.16056100  0.86748200  0.03626800  1
  O  O16  1  0.54627300  0.85048200  0.53749700  1
  O  O17  1  0.95372700  0.14951800  0.03749700  1
  O  O18  1  0.04627300  0.64951800  0.46250300  1
  O  O19  1  0.45372700  0.35048200  0.96250300  1
  O  O20  1  0.73908600  0.66935400  0.60574900  1
  O  O21  1  0.76091400  0.33064600  0.10574900  1
  O  O22  1  0.23908600  0.83064600  0.39425100  1
  O  O23  1  0.26091400  0.16935400  0.89425100  1
  O  O24  1  0.91807600  0.01536300  0.26931800  1
  O  O25  1  0.58192400  0.98463700  0.76931800  1
  O  O26  1  0.41807600  0.48463700  0.73068200  1
  O  O27  1  0.08192400  0.51536300  0.23068200  1
loop_
_geom_bond_atom_site_label_1
_geom_bond_atom_site_label_2
_geom_bond_distance
_geom_bond_site_symmetry_2
Co0 O8 2.073629 1_565
Co0 O22 2.097815 1_555
Co0 O16 2.105872 1_555
Co0 O14 2.108683 1_565
Co0 O0 2.153432 1_555
Co0 O7 2.196416 1_565
Co1 O9 2.073629 1_445
Co1 O23 2.097815 1_555
Co1 O17 2.105872 1_456
Co1 O15 2.108683 1_546
Co1 O1 2.153432 1_455
Co1 O6 2.196416 1_545
Co2 O10 2.073629 1_655
Co2 O20 2.097815 1_555
Co2 O18 2.105872 1_655
Co2 O12 2.108683 1_555
Co2 O2 2.153432 1_655
Co2 O5 2.196416 1_555
Co3 O11 2.073629 1_555
Co3 O21 2.097815 1_555
Co3 O19 2.105872 1_554
Co3 O13 2.108683 1_554
Co3 O3 2.153432 1_555
Co3 O4 2.196416 1_555
H12 O24 1.013529 1_565
H12 O0 1.682828 1_555
H13 O25 1.013529 1_545
H13 O1 1.682828 1_555
H14 O26 1.013529 1_555
H14 O2 1.682828 1_555
H15 O27 1.013529 1_555
H15 O3 1.682828 1_555
H16 N0 1.042578 1_655
H17 N1 1.042578 1_555
H18 N2 1.042578 1_555
H19 N3 1.042572 1_455
H20 N0 1.056547 1_555
H21 N1 1.056547 1_555
H22 N2 1.056547 1_555
H23 N3 1.056547 1_555
H24 N0 1.051784 1_555
H25 N1 1.051784 1_555
H26 N2 1.051784 1_555
H27 N3 1.051784 1_555
C0 H0 1.103678 1_555
C0 O4 1.267413 1_555
C0 O0 1.276599 1_555
C1 H1 1.103681 1_655
C1 O5 1.267413 1_555
C1 O1 1.276599 1_555
C2 H2 1.103678 1_455
C2 O6 1.267413 1_555
C2 O2 1.276599 1_555
C3 H3 1.103678 1_555
C3 O7 1.267413 1_555
C3 O3 1.276599 1_555
C4 H4 1.104579 1_555
C4 O8 1.263802 1_555
C4 O12 1.274137 1_555
C5 H5 1.104579 1_556
C5 O9 1.263802 1_555
C5 O13 1.274137 1_555
C6 H6 1.104579 1_555
C6 O10 1.263802 1_555
C6 O14 1.274137 1_555
C7 H7 1.104579 1_554
C7 O11 1.263802 1_555
C7 O15 1.274137 1_555
C8 H8 1.104207 1_555
C8 O16 1.263821 1_555
C8 O20 1.279575 1_555
C9 H9 1.104207 1_554
C9 O17 1.263821 1_555
C9 O21 1.279575 1_555
C10 H10 1.104207 1_555
C10 O18 1.263821 1_555
C10 O22 1.279575 1_555
C11 H11 1.104207 1_556
C11 O19 1.263821 1_555
C11 O23 1.279575 1_555
N0 O24 1.419894 1_465
N1 O25 1.419894 1_545
N2 O26 1.419894 1_555
N3 O27 1.419894 1_655
