# generated using pymatgen
data_K2Pd(S2O7)3
_symmetry_space_group_name_H-M   'P 1'
_cell_length_a   11.68086025
_cell_length_b   11.66740486
_cell_length_c   16.85242405
_cell_angle_alpha   78.97795321
_cell_angle_beta   70.03555744
_cell_angle_gamma   61.09957991
_symmetry_Int_Tables_number   1
_chemical_formula_structural   K2Pd(S2O7)3
_chemical_formula_sum   'K8 Pd4 S24 O84'
_cell_volume   1888.91434869
_cell_formula_units_Z   4
loop_
 _symmetry_equiv_pos_site_id
 _symmetry_equiv_pos_as_xyz
  1  'x, y, z'
loop_
 _atom_site_type_symbol
 _atom_site_label
 _atom_site_symmetry_multiplicity
 _atom_site_fract_x
 _atom_site_fract_y
 _atom_site_fract_z
 _atom_site_occupancy
  K  K0  1  0.90496403  0.28640594  0.57802767  1
  K  K1  1  0.09503597  0.71359406  0.42197233  1
  K  K2  1  0.89445615  0.75396894  0.08028103  1
  K  K3  1  0.10554385  0.24603106  0.91971897  1
  K  K4  1  0.41954193  0.72678708  0.13489323  1
  K  K5  1  0.58045807  0.27321292  0.86510677  1
  K  K6  1  0.59175171  0.80562889  0.38912637  1
  K  K7  1  0.40824829  0.19437111  0.61087363  1
  Pd  Pd0  1  0.76525839  0.74992400  0.73629324  1
  Pd  Pd1  1  0.23474161  0.25007600  0.26370676  1
  Pd  Pd2  1  0.75299194  0.24742043  0.23516347  1
  Pd  Pd3  1  0.24700806  0.75257957  0.76483653  1
  S  S0  1  0.04293124  0.03585302  0.13025500  1
  S  S1  1  0.95706876  0.96414698  0.86974500  1
  S  S2  1  0.05333729  0.51535751  0.64961997  1
  S  S3  1  0.94666271  0.48464249  0.35038003  1
  S  S4  1  0.47974523  0.98774349  0.82024277  1
  S  S5  1  0.52025477  0.01225651  0.17975723  1
  S  S6  1  0.46492369  0.46362172  0.33950702  1
  S  S7  1  0.53507631  0.53637828  0.66049298  1
  S  S8  1  0.84548715  0.45129377  0.77495753  1
  S  S9  1  0.15451285  0.54870623  0.22504247  1
  S  S10  1  0.69544151  0.85348611  0.56034922  1
  S  S11  1  0.30455849  0.14651389  0.43965078  1
  S  S12  1  0.86798455  0.94368011  0.26270404  1
  S  S13  1  0.13201545  0.05631989  0.73729596  1
  S  S14  1  0.67127399  0.30705561  0.42661890  1
  S  S15  1  0.32872601  0.69294439  0.57338110  1
  S  S16  1  0.81866554  0.46729629  0.11087200  1
  S  S17  1  0.18133446  0.53270371  0.88912800  1
  S  S18  1  0.68208768  0.34730337  0.06359202  1
  S  S19  1  0.31791232  0.65269663  0.93640798  1
  S  S20  1  0.83089713  0.96516001  0.61695512  1
  S  S21  1  0.16910287  0.03483999  0.38304488  1
  S  S22  1  0.65309434  0.82219659  0.92654390  1
  S  S23  1  0.34690566  0.17780341  0.07345610  1
  O  O0  1  0.55756428  0.85735738  0.77554800  1
  O  O1  1  0.44243572  0.14264262  0.22445200  1
  O  O2  1  0.79294488  0.91428022  0.70770950  1
  O  O3  1  0.20705512  0.08571978  0.29229050  1
  O  O4  1  0.54639500  0.33710371  0.29065508  1
  O  O5  1  0.45360500  0.66289629  0.70934492  1
  O  O6  1  0.74038348  0.07569178  0.27321868  1
  O  O7  1  0.25961652  0.92430822  0.72678132  1
  O  O8  1  0.72640131  0.23085151  0.12484038  1
  O  O9  1  0.27359869  0.76914849  0.87515962  1
  O  O10  1  0.34751996  0.99957727  0.86980222  1
  O  O11  1  0.65248004  0.00042273  0.13019778  1
  O  O12  1  0.76915032  0.74125282  0.61553380  1
  O  O13  1  0.23084968  0.25874718  0.38446620  1
  O  O14  1  0.95460837  0.94875079  0.16194273  1
  O  O15  1  0.04539163  0.05124921  0.83805727  1
  O  O16  1  0.97249206  0.63246189  0.70688015  1
  O  O17  1  0.02750794  0.36753811  0.29311985  1
  O  O18  1  0.96145881  0.14747613  0.19227621  1
  O  O19  1  0.03854119  0.85252387  0.80772379  1
  O  O20  1  0.74993050  0.42504816  0.19752893  1
  O  O21  1  0.25006950  0.57495184  0.80247107  1
  O  O22  1  0.56302725  0.45116803  0.39586226  1
  O  O23  1  0.43697275  0.54883197  0.60413774  1
  O  O24  1  0.95649466  0.43688095  0.67954624  1
  O  O25  1  0.04350534  0.56311905  0.32045376  1
  O  O26  1  0.59957516  0.22927913  0.46151955  1
  O  O27  1  0.40042484  0.77072087  0.53848045  1
  O  O28  1  0.77856129  0.75481070  0.85262026  1
  O  O29  1  0.22143871  0.24518930  0.14737974  1
  O  O30  1  0.72999239  0.58851775  0.76985802  1
  O  O31  1  0.27000761  0.41148225  0.23014198  1
  O  O32  1  0.56923639  0.96896504  0.88381971  1
  O  O33  1  0.43076361  0.03103496  0.11618029  1
  O  O34  1  0.17325573  0.95653277  0.14585528  1
  O  O35  1  0.82674427  0.04346723  0.85414472  1
  O  O36  1  0.48663579  0.09837213  0.76734409  1
  O  O37  1  0.51336421  0.90162787  0.23265591  1
  O  O38  1  0.45178118  0.58205001  0.29055013  1
  O  O39  1  0.54821882  0.41794999  0.70944987  1
  O  O40  1  0.79833844  0.35883596  0.77278701  1
  O  O41  1  0.20166156  0.64116404  0.22721299  1
  O  O42  1  0.82570148  0.84563534  0.26382207  1
  O  O43  1  0.17429852  0.15436466  0.73617793  1
  O  O44  1  0.55527596  0.45738895  0.09938949  1
  O  O45  1  0.44472404  0.54261105  0.90061051  1
  O  O46  1  0.56333425  0.76215380  0.95714659  1
  O  O47  1  0.43666575  0.23784620  0.04285341  1
  O  O48  1  0.70663025  0.29735864  0.98493367  1
  O  O49  1  0.29336975  0.70264136  0.01506633  1
  O  O50  1  0.34265908  0.45936280  0.39620552  1
  O  O51  1  0.65734092  0.54063720  0.60379448  1
  O  O52  1  0.70576099  0.98071780  0.58225882  1
  O  O53  1  0.29423901  0.01928220  0.41774118  1
  O  O54  1  0.17752848  0.43237088  0.67261511  1
  O  O55  1  0.82247152  0.56762912  0.32738489  1
  O  O56  1  0.55034184  0.90176770  0.58163040  1
  O  O57  1  0.44965816  0.09823230  0.41836960  1
  O  O58  1  0.78673135  0.25668728  0.34488999  1
  O  O59  1  0.21326865  0.74331272  0.65511001  1
  O  O60  1  0.69916443  0.85291021  0.98467846  1
  O  O61  1  0.30083557  0.14708979  0.01532154  1
  O  O62  1  0.95260507  0.92333551  0.31388984  1
  O  O63  1  0.04739493  0.07666449  0.68611016  1
  O  O64  1  0.80230428  0.09820343  0.62107554  1
  O  O65  1  0.19769572  0.90179657  0.37892446  1
  O  O66  1  0.03764016  0.07454199  0.04522555  1
  O  O67  1  0.96235984  0.92545801  0.95477445  1
  O  O68  1  0.72198094  0.34229420  0.47966631  1
  O  O69  1  0.27801906  0.65770580  0.52033369  1
  O  O70  1  0.95759532  0.87566754  0.56315657  1
  O  O71  1  0.04240468  0.12433246  0.43684343  1
  O  O72  1  0.06117922  0.54338376  0.56206112  1
  O  O73  1  0.93882078  0.45661624  0.43793888  1
  O  O74  1  0.80638966  0.39224751  0.04217287  1
  O  O75  1  0.19361034  0.60775249  0.95782713  1
  O  O76  1  0.77474148  0.81877603  0.47382936  1
  O  O77  1  0.22525852  0.18122397  0.52617064  1
  O  O78  1  0.73469797  0.60674794  0.10262895  1
  O  O79  1  0.26530203  0.39325206  0.89737105  1
  O  O80  1  0.96338029  0.42007532  0.08986031  1
  O  O81  1  0.03661971  0.57992468  0.91013969  1
  O  O82  1  0.91270810  0.43399274  0.83651094  1
  O  O83  1  0.08729190  0.56600726  0.16348906  1
loop_
_geom_bond_atom_site_label_1
_geom_bond_atom_site_label_2
_geom_bond_distance
_geom_bond_site_symmetry_2
K0 O71 2.826981 1_655
K0 O73 2.828893 1_555
K0 O64 2.850950 1_555
K0 O68 2.898340 1_555
K0 O63 2.916136 1_655
K0 O51 2.948765 1_555
K0 O24 3.040518 1_555
K0 O77 3.163331 1_655
K0 O40 3.207759 1_555
K1 O70 2.826981 1_455
K1 O72 2.828893 1_555
K1 O65 2.850950 1_555
K1 O69 2.898340 1_555
K1 O62 2.916136 1_455
K1 O50 2.948765 1_555
K1 O25 3.040518 1_555
K1 O76 3.163331 1_455
K1 O41 3.207759 1_555
K2 O67 2.806463 1_554
K2 O83 2.838266 1_655
K2 O60 2.895750 1_554
K2 O11 2.900078 1_565
K2 O78 2.990927 1_555
K2 O75 3.168504 1_654
K2 O42 3.177191 1_555
K2 O81 3.289073 1_654
K2 O14 3.309371 1_555
K3 O66 2.806463 1_556
K3 O82 2.838266 1_455
K3 O61 2.895750 1_556
K3 O10 2.900078 1_545
K3 O79 2.990927 1_555
K3 O74 3.168504 1_456
K3 O43 3.177191 1_555
K3 O80 3.289073 1_456
K3 O15 3.309371 1_555
K4 O34 2.805046 1_555
K4 O44 2.829439 1_555
K4 O38 2.870671 1_555
K4 O46 2.953940 1_554
K4 O49 2.996749 1_555
K4 O41 3.009157 1_555
K4 O78 3.122486 1_555
K5 O35 2.805046 1_555
K5 O45 2.829439 1_555
K5 O39 2.870671 1_555
K5 O47 2.953940 1_556
K5 O48 2.996749 1_555
K5 O40 3.009157 1_555
K5 O79 3.122486 1_555
K6 O55 2.830717 1_555
K6 O27 2.853465 1_555
K6 O37 2.928195 1_555
K6 O42 3.010035 1_555
K6 O76 3.018964 1_555
K6 O57 3.043088 1_565
K6 O53 3.076591 1_565
K7 O54 2.830717 1_555
K7 O26 2.853465 1_555
K7 O36 2.928195 1_555
K7 O43 3.010035 1_555
K7 O77 3.018964 1_555
K7 O56 3.043088 1_545
K7 O52 3.076591 1_545
O0 S4 1.530310 1_555
O0 Pd0 2.043597 1_555
O1 S5 1.530310 1_555
O1 Pd1 2.043597 1_555
O2 S20 1.527185 1_555
O2 Pd0 2.038063 1_555
O3 S21 1.527185 1_555
O3 Pd1 2.038063 1_555
O4 S6 1.527827 1_555
O4 Pd2 2.045836 1_555
O5 S7 1.527827 1_555
O5 Pd3 2.045836 1_555
O6 S12 1.526535 1_545
O6 Pd2 2.043746 1_555
O7 S13 1.526535 1_565
O7 Pd3 2.043746 1_555
O8 S18 1.525841 1_555
O8 Pd2 2.044584 1_555
O9 S19 1.525841 1_555
O9 Pd3 2.044584 1_555
O10 S4 1.434991 1_555
O11 S5 1.434991 1_555
O12 S10 1.520616 1_555
O12 Pd0 2.040832 1_555
O13 S11 1.520616 1_555
O13 Pd1 2.040832 1_555
O14 S12 1.660398 1_555
O14 S0 1.676906 1_665
O15 S13 1.660398 1_555
O15 S1 1.676906 1_445
O16 S2 1.524620 1_655
O16 Pd0 2.053615 1_555
O17 S3 1.524620 1_455
O17 Pd1 2.053615 1_555
O18 S0 1.528895 1_655
O18 Pd2 2.046348 1_555
O19 S1 1.528895 1_455
O19 Pd3 2.046348 1_555
O20 S16 1.525420 1_555
O20 Pd2 2.034663 1_555
O21 S17 1.525420 1_555
O21 Pd3 2.034663 1_555
O22 S14 1.659491 1_555
O22 S6 1.663047 1_555
O23 S15 1.659491 1_555
O23 S7 1.663047 1_555
O24 S8 1.662494 1_555
O24 S2 1.675504 1_655
O25 S9 1.662494 1_555
O25 S3 1.675504 1_455
O26 S14 1.436992 1_555
O27 S15 1.436992 1_555
O28 S22 1.527092 1_555
O28 Pd0 2.032205 1_555
O29 S23 1.527092 1_555
O29 Pd1 2.032205 1_555
O30 S8 1.526291 1_555
O30 Pd0 2.054133 1_555
O31 S9 1.526291 1_555
O31 Pd1 2.054133 1_555
O32 S4 1.656008 1_555
O32 S22 1.673051 1_555
O33 S5 1.656008 1_555
O33 S23 1.673051 1_555
O34 S0 1.435799 1_565
O35 S1 1.435799 1_545
O36 S4 1.441758 1_545
O37 S5 1.441758 1_565
O38 S6 1.434939 1_555
O39 S7 1.434939 1_555
O40 S8 1.439246 1_555
O41 S9 1.439246 1_555
O42 S12 1.443737 1_555
O43 S13 1.443737 1_555
O44 S18 1.433493 1_555
O45 S19 1.433493 1_555
O46 S22 1.434780 1_555
O47 S23 1.434780 1_555
O48 S18 1.432940 1_556
O49 S19 1.432940 1_554
O50 S6 1.440025 1_555
O51 S7 1.440025 1_555
O52 S10 1.663558 1_555
O52 S20 1.672722 1_555
O53 S11 1.663558 1_555
O53 S21 1.672722 1_555
O54 S2 1.440434 1_555
O55 S3 1.440434 1_555
O56 S10 1.434541 1_555
O57 S11 1.434541 1_555
O58 S14 1.528465 1_555
O58 Pd2 2.049800 1_555
O59 S15 1.528465 1_555
O59 Pd3 2.049800 1_555
O60 S22 1.434746 1_555
O61 S23 1.434746 1_555
O62 S12 1.433391 1_555
O63 S13 1.433391 1_555
O64 S20 1.431845 1_545
O65 S21 1.431845 1_565
O66 S0 1.430774 1_555
O67 S1 1.430774 1_555
O68 S14 1.434072 1_555
O69 S15 1.434072 1_555
O70 S20 1.433370 1_555
O71 S21 1.433370 1_555
O72 S2 1.429966 1_555
O73 S3 1.429966 1_555
O74 S16 1.658317 1_555
O74 S18 1.679017 1_555
O75 S17 1.658317 1_555
O75 S19 1.679017 1_555
O76 S10 1.445302 1_555
O77 S11 1.445302 1_555
O78 S16 1.446610 1_555
O79 S17 1.446610 1_555
O80 S16 1.432487 1_555
O81 S17 1.432487 1_555
O82 S8 1.433967 1_555
O83 S9 1.433967 1_555
