# generated using pymatgen
data_La3(ZnPt)4
_symmetry_space_group_name_H-M   'P 1'
_cell_length_a   8.43334768
_cell_length_b   8.43334768
_cell_length_c   8.43334768
_cell_angle_alpha   151.32702934
_cell_angle_beta   126.64737840
_cell_angle_gamma   61.68874617
_symmetry_Int_Tables_number   1
_chemical_formula_structural   La3(ZnPt)4
_chemical_formula_sum   'La3 Zn4 Pt4'
_cell_volume   228.98579454
_cell_formula_units_Z   1
loop_
 _symmetry_equiv_pos_site_id
 _symmetry_equiv_pos_as_xyz
  1  'x, y, z'
loop_
 _atom_site_type_symbol
 _atom_site_label
 _atom_site_symmetry_multiplicity
 _atom_site_fract_x
 _atom_site_fract_y
 _atom_site_fract_z
 _atom_site_occupancy
  La  La0  1  0.50000000  0.00000000  0.50000000  1
  La  La1  1  0.87181400  0.87181400  0.00000000  1
  La  La2  1  0.12818600  0.12818600  0.00000000  1
  Zn  Zn0  1  0.48081000  0.67382900  0.80698100  1
  Zn  Zn1  1  0.86684800  0.67382900  0.19301900  1
  Zn  Zn2  1  0.13315200  0.32617100  0.80698100  1
  Zn  Zn3  1  0.51919000  0.32617100  0.19301900  1
  Pt  Pt0  1  0.28248100  0.78248100  0.50000000  1
  Pt  Pt1  1  0.71751900  0.21751900  0.50000000  1
  Pt  Pt2  1  0.80154100  0.50000000  0.30154100  1
  Pt  Pt3  1  0.19845900  0.50000000  0.69845900  1
loop_
_geom_bond_atom_site_label_1
_geom_bond_atom_site_label_2
_geom_bond_distance
_geom_bond_site_symmetry_2
La0 Pt2 3.094258 1_545
La0 Pt3 3.094258 1_555
La0 Pt3 3.094258 1_544
La0 Pt2 3.094258 1_556
La0 Pt1 3.149919 1_555
La0 Pt0 3.149919 1_545
La1 Pt1 3.058284 1_554
La1 Pt1 3.058284 1_565
La1 Pt3 3.172516 1_654
La1 Pt3 3.172516 1_665
La1 Pt2 3.172516 1_554
La1 Pt2 3.172516 1_565
La1 Zn2 3.193919 1_654
La1 Zn2 3.193919 1_665
La1 Zn3 3.193919 1_554
La1 Zn3 3.193919 1_565
La1 Zn0 3.218107 1_554
La1 Zn1 3.218107 1_555
La2 Pt0 3.058284 1_555
La2 Pt0 3.058284 1_544
La2 Pt3 3.172516 1_555
La2 Pt2 3.172516 1_455
La2 Pt3 3.172516 1_544
La2 Pt2 3.172516 1_444
La2 Zn1 3.193919 1_455
La2 Zn1 3.193919 1_444
La2 Zn0 3.193919 1_544
La2 Zn0 3.193919 1_555
La2 Zn3 3.218107 1_555
La2 Zn2 3.218107 1_554
Pt0 Zn3 2.626264 1_555
Pt0 Zn2 2.626264 1_554
Pt0 Zn3 2.626264 1_566
Pt0 Zn2 2.626264 1_565
Pt0 Zn0 2.806980 1_555
Pt0 Zn1 2.806980 1_455
Pt1 Zn0 2.626264 1_544
Pt1 Zn0 2.626264 1_555
Pt1 Zn1 2.626264 1_556
Pt1 Zn1 2.626264 1_545
Pt1 Zn2 2.806980 1_655
Pt1 Zn3 2.806980 1_555
Pt2 Zn3 2.647977 1_555
Pt2 Zn1 2.647977 1_555
Pt3 Zn2 2.647977 1_555
Pt3 Zn0 2.647977 1_555
