# generated using pymatgen
data_Ba3CaIr2O9
_symmetry_space_group_name_H-M   'P 1'
_cell_length_a   5.83705262
_cell_length_b   5.83704763
_cell_length_c   7.18081447
_cell_angle_alpha   90.00002221
_cell_angle_beta   89.99992304
_cell_angle_gamma   119.99996660
_symmetry_Int_Tables_number   1
_chemical_formula_structural   Ba3CaIr2O9
_chemical_formula_sum   'Ba3 Ca1 Ir2 O9'
_cell_volume   211.88066617
_cell_formula_units_Z   1
loop_
 _symmetry_equiv_pos_site_id
 _symmetry_equiv_pos_as_xyz
  1  'x, y, z'
loop_
 _atom_site_type_symbol
 _atom_site_label
 _atom_site_symmetry_multiplicity
 _atom_site_fract_x
 _atom_site_fract_y
 _atom_site_fract_z
 _atom_site_occupancy
  Ba  Ba0  1  0.33333400  0.66666700  0.66538088  1
  Ba  Ba1  1  -0.00000000  -0.00000000  -0.00000000  1
  Ba  Ba2  1  0.66666600  0.33333300  0.33461912  1
  Ca  Ca0  1  -0.00000000  -0.00000000  0.50000000  1
  Ir  Ir0  1  0.33333400  0.66666700  0.15904426  1
  Ir  Ir1  1  0.66666600  0.33333300  0.84095574  1
  O  O0  1  0.82141423  0.17858477  0.68572847  1
  O  O1  1  0.82141423  0.64282945  0.68572847  1
  O  O2  1  0.35716955  0.17858477  0.68572847  1
  O  O3  1  0.64283045  0.82141523  0.31427153  1
  O  O4  1  0.17858577  0.35717055  0.31427153  1
  O  O5  1  0.17858577  0.82141523  0.31427153  1
  O  O6  1  0.50000000  -0.00000000  -0.00000000  1
  O  O7  1  -0.00000000  0.50000000  -0.00000000  1
  O  O8  1  0.50000000  0.50000000  -0.00000000  1
loop_
_geom_bond_atom_site_label_1
_geom_bond_atom_site_label_2
_geom_bond_distance
_geom_bond_site_symmetry_2
Ba0 O1 2.924659 1_555
Ba0 O0 2.924659 1_565
Ba0 O2 2.924662 1_565
Ba0 O2 2.924662 1_555
Ba0 O1 2.924671 1_455
Ba0 O0 2.924671 1_455
Ba0 O6 2.934772 1_566
Ba0 O8 2.934773 1_556
Ba0 O7 2.934774 1_556
Ba0 O3 2.967222 1_555
Ba0 O4 2.967224 1_555
Ba0 O5 2.967225 1_555
Ba1 O3 2.890095 1_445
Ba1 O2 2.890095 1_554
Ba1 O4 2.890100 1_555
Ba1 O1 2.890100 1_444
Ba1 O0 2.890100 1_454
Ba1 O5 2.890100 1_545
Ba1 O7 2.918524 1_555
Ba1 O7 2.918524 1_545
Ba1 O6 2.918526 1_455
Ba1 O6 2.918526 1_555
Ba1 O8 2.918527 1_445
Ba1 O8 2.918527 1_555
Ba2 O4 2.924659 1_555
Ba2 O5 2.924659 1_545
Ba2 O3 2.924662 1_545
Ba2 O3 2.924662 1_555
Ba2 O4 2.924671 1_655
Ba2 O5 2.924671 1_655
Ba2 O6 2.934772 1_555
Ba2 O8 2.934773 1_555
Ba2 O7 2.934774 1_655
Ba2 O2 2.967222 1_555
Ba2 O1 2.967224 1_555
Ba2 O0 2.967225 1_555
Ca0 O3 2.244674 1_445
Ca0 O2 2.244674 1_555
Ca0 O5 2.244675 1_545
Ca0 O0 2.244675 1_455
Ca0 O4 2.244675 1_555
Ca0 O1 2.244675 1_445
Ir0 O5 1.920980 1_555
Ir0 O4 1.920981 1_555
Ir0 O3 1.920984 1_555
Ir0 O8 2.035576 1_555
Ir0 O6 2.035577 1_565
Ir0 O7 2.035584 1_555
Ir1 O0 1.920980 1_555
Ir1 O1 1.920981 1_555
Ir1 O2 1.920984 1_555
Ir1 O8 2.035576 1_556
Ir1 O6 2.035577 1_556
Ir1 O7 2.035584 1_656
