# generated using pymatgen
data_CeMg14Zn
_symmetry_space_group_name_H-M   'P 1'
_cell_length_a   6.53210139
_cell_length_b   6.37434119
_cell_length_c   10.28620480
_cell_angle_alpha   90.00000000
_cell_angle_beta   90.00000000
_cell_angle_gamma   119.20424433
_symmetry_Int_Tables_number   1
_chemical_formula_structural   CeMg14Zn
_chemical_formula_sum   'Ce1 Mg14 Zn1'
_cell_volume   373.85301316
_cell_formula_units_Z   1
loop_
 _symmetry_equiv_pos_site_id
 _symmetry_equiv_pos_as_xyz
  1  'x, y, z'
loop_
 _atom_site_type_symbol
 _atom_site_label
 _atom_site_symmetry_multiplicity
 _atom_site_fract_x
 _atom_site_fract_y
 _atom_site_fract_z
 _atom_site_occupancy
  Ce  Ce0  1  0.14822929  0.82411415  0.12500000  1
  Mg  Mg0  1  0.16221643  0.33110772  0.62500000  1
  Mg  Mg1  1  0.16685418  0.83342659  0.62500000  1
  Mg  Mg2  1  0.64271001  0.33196353  0.12500000  1
  Mg  Mg3  1  0.66571434  0.32887066  0.62500000  1
  Mg  Mg4  1  0.64271001  0.81074547  0.12500000  1
  Mg  Mg5  1  0.66571434  0.83684267  0.62500000  1
  Mg  Mg6  1  0.33771797  0.17182990  0.37914232  1
  Mg  Mg7  1  0.33771797  0.17182990  0.87085768  1
  Mg  Mg8  1  0.33771797  0.66588907  0.37914232  1
  Mg  Mg9  1  0.33771797  0.66588907  0.87085768  1
  Mg  Mg10  1  0.84699905  0.17350002  0.35697348  1
  Mg  Mg11  1  0.84699905  0.17350002  0.89302652  1
  Mg  Mg12  1  0.83041895  0.66520997  0.38464122  1
  Mg  Mg13  1  0.83041895  0.66520997  0.86535878  1
  Zn  Zn0  1  0.20014353  0.35007127  0.12500000  1
loop_
_geom_bond_atom_site_label_1
_geom_bond_atom_site_label_2
_geom_bond_distance
_geom_bond_site_symmetry_2
Ce0 Zn0 3.200886 1_565
Ce0 Zn0 3.200887 1_555
Ce0 Mg12 3.227446 1_455
Ce0 Mg13 3.227446 1_454
Ce0 Mg8 3.255971 1_555
Ce0 Mg9 3.255971 1_554
Ce0 Mg6 3.255977 1_565
Ce0 Mg7 3.255977 1_564
Ce0 Mg2 3.261372 1_455
Ce0 Mg4 3.261372 1_455
Ce0 Mg2 3.272423 1_565
Ce0 Mg4 3.272423 1_555
Mg0 Mg7 3.142674 1_555
Mg0 Mg6 3.142674 1_555
Mg0 Mg9 3.142680 1_555
Mg0 Mg8 3.142680 1_555
Mg0 Mg1 3.187280 1_555
Mg0 Mg1 3.187280 1_545
Mg0 Mg5 3.236268 1_445
Mg0 Mg3 3.236268 1_455
Mg0 Mg11 3.291079 1_455
Mg0 Mg10 3.291079 1_455
Mg0 Mg5 3.295880 1_555
Mg0 Mg3 3.295881 1_555
Mg1 Mg12 3.129290 1_455
Mg1 Mg13 3.129290 1_455
Mg1 Mg9 3.153549 1_555
Mg1 Mg8 3.153549 1_555
Mg1 Mg7 3.153555 1_565
Mg1 Mg6 3.153555 1_565
Mg1 Mg3 3.248036 1_565
Mg1 Mg5 3.248036 1_555
Mg1 Mg3 3.284176 1_455
Mg1 Mg5 3.284176 1_455
Mg2 Zn0 2.948929 1_555
Mg2 Mg4 3.051919 1_555
Mg2 Mg6 3.140114 1_555
Mg2 Mg7 3.140114 1_554
Mg2 Mg4 3.322422 1_545
Mg3 Mg5 3.136354 1_545
Mg3 Mg7 3.145636 1_555
Mg3 Mg6 3.145636 1_555
Mg3 Mg5 3.237987 1_555
Mg4 Zn0 2.948929 1_555
Mg4 Mg8 3.140114 1_555
Mg4 Mg9 3.140114 1_554
Mg5 Mg9 3.145636 1_555
Mg5 Mg8 3.145636 1_555
Mg6 Mg8 3.149302 1_555
Mg6 Zn0 3.150976 1_555
Mg6 Mg8 3.225039 1_545
Mg7 Mg9 3.149302 1_555
Mg7 Zn0 3.150976 1_556
Mg7 Mg9 3.225039 1_545
Mg8 Zn0 3.150982 1_555
Mg9 Zn0 3.150982 1_556
Mg10 Zn0 3.122177 1_655
Mg10 Mg2 3.132090 1_555
Mg10 Mg4 3.132096 1_545
Mg10 Mg12 3.201248 1_545
Mg10 Mg12 3.201248 1_555
Mg10 Mg8 3.218721 1_655
Mg10 Mg6 3.218721 1_655
Mg10 Mg8 3.329312 1_545
Mg10 Mg6 3.329313 1_555
Mg10 Mg3 3.335940 1_555
Mg10 Mg5 3.335946 1_545
Mg11 Zn0 3.122177 1_656
Mg11 Mg2 3.132090 1_556
Mg11 Mg4 3.132096 1_546
Mg11 Mg13 3.201248 1_545
Mg11 Mg13 3.201248 1_555
Mg11 Mg9 3.218721 1_655
Mg11 Mg7 3.218721 1_655
Mg11 Mg9 3.329312 1_545
Mg11 Mg7 3.329313 1_555
Mg11 Mg3 3.335940 1_555
Mg11 Mg5 3.335946 1_545
Mg12 Mg5 3.100920 1_555
Mg12 Mg3 3.100927 1_555
Mg12 Mg6 3.220983 1_555
Mg12 Mg8 3.220984 1_555
Mg12 Mg4 3.256806 1_555
Mg12 Mg2 3.256811 1_555
Mg12 Mg6 3.312101 1_665
Mg12 Mg8 3.312102 1_655
Mg13 Mg5 3.100920 1_555
Mg13 Mg3 3.100927 1_555
Mg13 Mg7 3.220983 1_555
Mg13 Mg9 3.220984 1_555
Mg13 Mg4 3.256806 1_556
Mg13 Mg2 3.256811 1_556
Mg13 Mg7 3.312101 1_665
Mg13 Mg9 3.312102 1_655
