# generated using pymatgen
data_K3Sm4(CuTe2)5
_symmetry_space_group_name_H-M   'P 1'
_cell_length_a   4.36580289
_cell_length_b   16.71023155
_cell_length_c   18.06920409
_cell_angle_alpha   90.00000000
_cell_angle_beta   90.00000000
_cell_angle_gamma   90.00000000
_symmetry_Int_Tables_number   1
_chemical_formula_structural   K3Sm4(CuTe2)5
_chemical_formula_sum   'K6 Sm8 Cu10 Te20'
_cell_volume   1318.21307541
_cell_formula_units_Z   2
loop_
 _symmetry_equiv_pos_site_id
 _symmetry_equiv_pos_as_xyz
  1  'x, y, z'
loop_
 _atom_site_type_symbol
 _atom_site_label
 _atom_site_symmetry_multiplicity
 _atom_site_fract_x
 _atom_site_fract_y
 _atom_site_fract_z
 _atom_site_occupancy
  K  K0  1  0.50000000  0.08006793  0.33470566  1
  K  K1  1  0.50000000  0.42415424  0.65665424  1
  K  K2  1  0.00000000  0.57584576  0.15665424  1
  K  K3  1  0.00000000  0.91993207  0.83470566  1
  K  K4  1  0.50000000  0.24883663  0.49471353  1
  K  K5  1  -0.00000000  0.75116337  0.99471353  1
  Sm  Sm0  1  0.50000000  0.31667497  0.21434809  1
  Sm  Sm1  1  0.50000000  0.18479864  0.78737770  1
  Sm  Sm2  1  -0.00000000  0.81520136  0.28737770  1
  Sm  Sm3  1  -0.00000000  0.68332503  0.71434809  1
  Sm  Sm4  1  0.50000000  0.53544600  0.44815511  1
  Sm  Sm5  1  0.50000000  0.96083468  0.55582599  1
  Sm  Sm6  1  0.00000000  0.03916532  0.05582599  1
  Sm  Sm7  1  0.00000000  0.46455400  0.94815511  1
  Cu  Cu0  1  0.50000000  0.31019929  0.04051271  1
  Cu  Cu1  1  0.50000000  0.18419834  0.96094462  1
  Cu  Cu2  1  0.00000000  0.81580166  0.46094462  1
  Cu  Cu3  1  0.00000000  0.68980071  0.54051271  1
  Cu  Cu4  1  0.50000000  0.58641199  0.84392790  1
  Cu  Cu5  1  0.50000000  0.90656035  0.15647603  1
  Cu  Cu6  1  0.00000000  0.09343965  0.65647603  1
  Cu  Cu7  1  0.00000000  0.41358801  0.34392790  1
  Cu  Cu8  1  0.50000000  0.65394196  0.30963206  1
  Cu  Cu9  1  -0.00000000  0.34605804  0.80963206  1
  Te  Te0  1  0.50000000  0.87948284  0.40048056  1
  Te  Te1  1  0.50000000  0.62249438  0.59830930  1
  Te  Te2  1  0.00000000  0.37750562  0.09830930  1
  Te  Te3  1  0.00000000  0.12051716  0.90048056  1
  Te  Te4  1  0.50000000  0.33314435  0.89600126  1
  Te  Te5  1  0.50000000  0.16576142  0.10402012  1
  Te  Te6  1  -0.00000000  0.83423858  0.60402012  1
  Te  Te7  1  -0.00000000  0.66685565  0.39600126  1
  Te  Te8  1  0.50000000  0.74060514  0.18729195  1
  Te  Te9  1  0.50000000  0.74336281  0.81885926  1
  Te  Te10  1  -0.00000000  0.25663719  0.31885926  1
  Te  Te11  1  0.00000000  0.25939486  0.68729195  1
  Te  Te12  1  0.50000000  0.58276220  0.99139960  1
  Te  Te13  1  0.50000000  0.91616286  0.01099272  1
  Te  Te14  1  0.00000000  0.08383714  0.51099272  1
  Te  Te15  1  -0.00000000  0.41723780  0.49139960  1
  Te  Te16  1  0.50000000  0.48685687  0.28522095  1
  Te  Te17  1  0.50000000  0.02440933  0.71435163  1
  Te  Te18  1  0.00000000  0.97559067  0.21435163  1
  Te  Te19  1  0.00000000  0.51314313  0.78521995  1
loop_
_geom_bond_atom_site_label_1
_geom_bond_atom_site_label_2
_geom_bond_distance
_geom_bond_site_symmetry_2
K0 Te18 3.541517 1_645
K0 Te18 3.541517 1_545
K0 Te0 3.556297 1_545
K0 Te10 3.681382 1_555
K0 Te10 3.681382 1_655
K0 Te14 3.862070 1_655
K0 Te14 3.862070 1_555
K1 Te1 3.477943 1_555
K1 Te19 3.517528 1_555
K1 Te19 3.517528 1_655
K1 Te11 3.556889 1_555
K1 Te11 3.556889 1_655
K1 Te15 3.700639 1_555
K1 Te15 3.700639 1_655
K2 Te2 3.477943 1_555
K2 Te16 3.517540 1_455
K2 Te16 3.517540 1_555
K2 Te8 3.556889 1_455
K2 Te8 3.556889 1_555
K2 Te12 3.700639 1_454
K2 Te12 3.700639 1_554
K3 Te17 3.541517 1_565
K3 Te17 3.541517 1_465
K3 Te3 3.556297 1_565
K3 Te9 3.681382 1_555
K3 Te9 3.681382 1_455
K3 Te13 3.862070 1_556
K3 Te13 3.862070 1_456
K4 Te14 3.528969 1_655
K4 Te14 3.528969 1_555
K4 Te15 3.561933 1_555
K4 Te15 3.561933 1_655
K4 Te10 3.857312 1_555
K4 Te10 3.857312 1_655
K5 Te13 3.528969 1_456
K5 Te13 3.528969 1_556
K5 Te12 3.561933 1_555
K5 Te12 3.561933 1_455
K5 Te9 3.857312 1_455
K5 Te9 3.857312 1_555
Sm0 Te10 3.055772 1_655
Sm0 Te10 3.055772 1_555
Sm0 Te16 3.118823 1_555
Sm0 Te2 3.192897 1_655
Sm0 Te2 3.192897 1_555
Sm0 Te5 3.214603 1_555
Sm1 Te17 2.987357 1_555
Sm1 Te11 3.096681 1_655
Sm1 Te11 3.096681 1_555
Sm1 Te4 3.161844 1_555
Sm1 Te3 3.177341 1_555
Sm1 Te3 3.177341 1_655
Sm2 Te18 2.987357 1_555
Sm2 Te8 3.096681 1_455
Sm2 Te8 3.096681 1_555
Sm2 Te7 3.161844 1_555
Sm2 Te0 3.177341 1_455
Sm2 Te0 3.177341 1_555
Sm3 Te9 3.055772 1_555
Sm3 Te9 3.055772 1_455
Sm3 Te19 3.118816 1_555
Sm3 Te1 3.192897 1_555
Sm3 Te1 3.192897 1_455
Sm3 Te6 3.214603 1_555
Sm4 Te15 3.045881 1_555
Sm4 Te15 3.045881 1_655
Sm4 Te16 3.053999 1_555
Sm4 Te1 3.078495 1_555
Sm4 Te7 3.236518 1_655
Sm4 Te7 3.236518 1_555
Sm5 Te17 3.055086 1_565
Sm5 Te14 3.105800 1_565
Sm5 Te14 3.105800 1_665
Sm5 Te0 3.118824 1_555
Sm5 Te6 3.162046 1_555
Sm5 Te6 3.162046 1_655
Sm6 Te18 3.055086 1_545
Sm6 Te13 3.105800 1_445
Sm6 Te13 3.105800 1_545
Sm6 Te3 3.118824 1_554
Sm6 Te5 3.162046 1_555
Sm6 Te5 3.162046 1_455
Sm7 Te12 3.045881 1_455
Sm7 Te12 3.045881 1_555
Sm7 Te19 3.054016 1_555
Sm7 Te2 3.078495 1_556
Sm7 Te4 3.236518 1_555
Sm7 Te4 3.236518 1_455
Cu0 Cu1 2.549554 1_554
Cu0 Te4 2.639206 1_554
Cu0 Te2 2.668457 1_655
Cu0 Te2 2.668457 1_555
Cu0 Te5 2.672497 1_555
Cu0 Sm0 3.142930 1_555
Cu1 Te5 2.603553 1_556
Cu1 Te3 2.662905 1_555
Cu1 Te3 2.662905 1_655
Cu1 Te4 2.751686 1_555
Cu1 Sm1 3.136232 1_555
Cu1 Sm6 3.684814 1_556
Cu1 Sm6 3.684814 1_656
Cu2 Cu3 2.549554 1_555
Cu2 Te6 2.603553 1_555
Cu2 Te0 2.662905 1_455
Cu2 Te0 2.662905 1_555
Cu2 Te7 2.751686 1_555
Cu2 Sm2 3.136232 1_555
Cu2 Sm5 3.684814 1_455
Cu2 Sm5 3.684814 1_555
Cu3 Te7 2.639206 1_555
Cu3 Te1 2.668457 1_555
Cu3 Te1 2.668457 1_455
Cu3 Te6 2.672497 1_555
Cu3 Sm3 3.142930 1_555
Cu4 Te9 2.661514 1_555
Cu4 Te12 2.665394 1_555
Cu4 Te19 2.718341 1_555
Cu4 Te19 2.718341 1_655
Cu5 Te13 2.633660 1_555
Cu5 Te18 2.681283 1_555
Cu5 Te18 2.681283 1_655
Cu5 Te8 2.828499 1_555
Cu5 Sm2 3.562338 1_655
Cu5 Sm2 3.562338 1_555
Cu6 Te14 2.633660 1_555
Cu6 Te17 2.681283 1_555
Cu6 Te17 2.681283 1_455
Cu6 Te11 2.828499 1_555
Cu6 Sm1 3.562338 1_555
Cu6 Sm1 3.562338 1_455
Cu7 Te10 2.661514 1_555
Cu7 Te15 2.665394 1_555
Cu7 Te16 2.718334 1_555
Cu7 Te16 2.718334 1_455
Cu8 Te8 2.642702 1_555
Cu8 Te7 2.692056 1_555
Cu8 Te7 2.692056 1_655
Cu8 Te16 2.826658 1_555
Cu8 Sm4 3.191519 1_555
Cu8 Sm2 3.491141 1_655
Cu8 Sm2 3.491141 1_555
Cu8 K2 3.756172 1_555
Cu8 K2 3.756172 1_655
Cu9 Te11 2.642702 1_555
Cu9 Te4 2.692056 1_455
Cu9 Te4 2.692056 1_555
Cu9 Te19 2.826661 1_555
Cu9 Sm7 3.191519 1_555
Cu9 Sm1 3.491141 1_555
Cu9 Sm1 3.491141 1_455
Cu9 K1 3.756172 1_455
Cu9 K1 3.756172 1_555
