# generated using pymatgen
data_SrNdZnRuO6
_symmetry_space_group_name_H-M   'P 1'
_cell_length_a   5.73412800
_cell_length_b   5.60131600
_cell_length_c   9.69541782
_cell_angle_alpha   54.74130685
_cell_angle_beta   90.00000000
_cell_angle_gamma   90.00000000
_symmetry_Int_Tables_number   1
_chemical_formula_structural   SrNdZnRuO6
_chemical_formula_sum   'Sr2 Nd2 Zn2 Ru2 O12'
_cell_volume   254.27805834
_cell_formula_units_Z   2
loop_
 _symmetry_equiv_pos_site_id
 _symmetry_equiv_pos_as_xyz
  1  'x, y, z'
loop_
 _atom_site_type_symbol
 _atom_site_label
 _atom_site_symmetry_multiplicity
 _atom_site_fract_x
 _atom_site_fract_y
 _atom_site_fract_z
 _atom_site_occupancy
  Sr  Sr0  1  0.21023700  0.24248600  0.25071000  1
  Sr  Sr1  1  0.78976300  0.24248600  0.75071000  1
  Nd  Nd0  1  0.30855400  0.76380600  0.75168800  1
  Nd  Nd1  1  0.69144600  0.76380600  0.25168800  1
  Zn  Zn0  1  0.76045100  0.49947200  0.00187200  1
  Zn  Zn1  1  0.23954900  0.49947200  0.50187200  1
  Ru  Ru0  1  0.75247400  0.00144800  0.49930400  1
  Ru  Ru1  1  0.24752600  0.00144800  0.99930400  1
  O  O0  1  0.04111500  0.13905200  0.54813000  1
  O  O1  1  0.95888500  0.13905200  0.04813000  1
  O  O2  1  0.47716000  0.83505800  0.45603400  1
  O  O3  1  0.52284000  0.83505800  0.95603400  1
  O  O4  1  0.94292400  0.75717800  0.45209600  1
  O  O5  1  0.05707600  0.75717800  0.95209600  1
  O  O6  1  0.53982000  0.23491800  0.53981800  1
  O  O7  1  0.46018000  0.23491800  0.03981800  1
  O  O8  1  0.76714200  0.33959900  0.25787700  1
  O  O9  1  0.23285800  0.33959900  0.75787700  1
  O  O10  1  0.72197400  0.68698300  0.74247100  1
  O  O11  1  0.27802600  0.68698300  0.24247100  1
loop_
_geom_bond_atom_site_label_1
_geom_bond_atom_site_label_2
_geom_bond_distance
_geom_bond_site_symmetry_2
Nd0 O9 2.381874 1_555
Nd0 O5 2.402682 1_555
Nd0 O10 2.420188 1_555
Nd0 O0 2.423907 1_565
Nd0 O3 2.550929 1_555
Nd0 O6 2.585219 1_565
Nd0 O7 2.789502 1_556
Nd0 O2 2.826648 1_555
Nd1 O8 2.381874 1_555
Nd1 O4 2.402682 1_555
Nd1 O11 2.420188 1_555
Nd1 O1 2.423907 1_565
Nd1 O2 2.550929 1_555
Nd1 O7 2.585219 1_565
Nd1 O6 2.789502 1_555
Nd1 O3 2.826648 1_554
O0 Ru0 1.994693 1_455
O0 Zn1 2.127475 1_555
O0 Sr1 2.753985 1_455
O0 Sr0 2.768118 1_555
O1 Ru1 1.994693 1_654
O1 Zn0 2.127475 1_555
O1 Sr0 2.753985 1_655
O1 Sr1 2.768118 1_554
O2 Ru0 1.997071 1_565
O2 Zn1 2.150063 1_555
O2 Sr0 2.503707 1_565
O3 Ru1 1.997071 1_565
O3 Zn0 2.150063 1_556
O3 Sr1 2.503707 1_565
O4 Ru0 1.999295 1_565
O4 Zn1 2.098881 1_655
O4 Sr0 2.724599 1_665
O4 Sr1 2.797905 1_555
O5 Ru1 1.999295 1_565
O5 Zn0 2.098881 1_456
O5 Sr1 2.724599 1_465
O5 Sr0 2.797905 1_556
O6 Ru0 1.986061 1_555
O6 Zn1 2.160179 1_555
O6 Sr1 2.517277 1_555
O7 Ru1 1.986061 1_554
O7 Zn0 2.160179 1_555
O7 Sr0 2.517277 1_555
O8 Ru0 1.988712 1_555
O8 Zn0 2.097117 1_555
O8 Sr0 2.607650 1_655
O9 Ru1 1.988712 1_555
O9 Zn1 2.097117 1_555
O9 Sr1 2.607650 1_455
O10 Ru0 1.974082 1_565
O10 Zn0 2.104118 1_556
O10 Sr1 2.475238 1_555
O11 Ru1 1.974082 1_564
O11 Zn1 2.104118 1_555
O11 Sr0 2.475238 1_555
