# generated using pymatgen
data_MgCr2Fe3Ni(PO4)6
_symmetry_space_group_name_H-M   'P 1'
_cell_length_a   8.55120871
_cell_length_b   8.55374711
_cell_length_c   8.55350916
_cell_angle_alpha   60.88727895
_cell_angle_beta   60.89736990
_cell_angle_gamma   60.88949334
_symmetry_Int_Tables_number   1
_chemical_formula_structural   MgCr2Fe3Ni(PO4)6
_chemical_formula_sum   'Mg1 Cr2 Fe3 Ni1 P6 O24'
_cell_volume   451.28716113
_cell_formula_units_Z   1
loop_
 _symmetry_equiv_pos_site_id
 _symmetry_equiv_pos_as_xyz
  1  'x, y, z'
loop_
 _atom_site_type_symbol
 _atom_site_label
 _atom_site_symmetry_multiplicity
 _atom_site_fract_x
 _atom_site_fract_y
 _atom_site_fract_z
 _atom_site_occupancy
  Mg  Mg0  1  0.12424400  0.12480600  0.12408600  1
  Cr  Cr0  1  0.99050100  0.99048200  0.99032400  1
  Cr  Cr1  1  0.49881700  0.49901900  0.49892900  1
  Fe  Fe0  1  0.24605500  0.24617000  0.24637100  1
  Fe  Fe1  1  0.36252800  0.36258100  0.36234000  1
  Fe  Fe2  1  0.64559000  0.64588100  0.64549000  1
  Ni  Ni0  1  0.84801800  0.84808100  0.84786700  1
  P  P0  1  0.04013400  0.74803600  0.44792400  1
  P  P1  1  0.44810000  0.04036100  0.74778100  1
  P  P2  1  0.74783900  0.44846500  0.04007100  1
  P  P3  1  0.24491400  0.55020900  0.93980800  1
  P  P4  1  0.55015300  0.93985000  0.24492300  1
  P  P5  1  0.93968600  0.24504700  0.55026200  1
  O  O0  1  0.10630200  0.31188700  0.49450600  1
  O  O1  1  0.31195200  0.49425800  0.10638300  1
  O  O2  1  0.04944200  0.88919800  0.24050200  1
  O  O3  1  0.49438200  0.10635400  0.31184200  1
  O  O4  1  0.99666900  0.83421700  0.58676200  1
  O  O5  1  0.25004700  0.59667500  0.43205100  1
  O  O6  1  0.24054900  0.04986300  0.88854400  1
  O  O7  1  0.43226800  0.25027000  0.59637500  1
  O  O8  1  0.18388900  0.38248600  0.99516600  1
  O  O9  1  0.59640900  0.43249700  0.25005000  1
  O  O10  1  0.09332500  0.74850600  0.92704900  1
  O  O11  1  0.38237200  0.99519000  0.18391200  1
  O  O12  1  0.58675000  0.99702700  0.83415200  1
  O  O13  1  0.88864600  0.24116400  0.04933500  1
  O  O14  1  0.40350200  0.56251500  0.74194500  1
  O  O15  1  0.83409300  0.58709500  0.99695600  1
  O  O16  1  0.56238200  0.74203700  0.40360600  1
  O  O17  1  0.74853100  0.92702300  0.09343000  1
  O  O18  1  0.74178200  0.40358000  0.56274600  1
  O  O19  1  0.99485400  0.18413300  0.38253900  1
  O  O20  1  0.50744000  0.89909900  0.65220500  1
  O  O21  1  0.92721200  0.09320300  0.74844000  1
  O  O22  1  0.65209100  0.50820400  0.89872900  1
  O  O23  1  0.89884200  0.65265600  0.50691300  1
loop_
_geom_bond_atom_site_label_1
_geom_bond_atom_site_label_2
_geom_bond_distance
_geom_bond_site_symmetry_2
Mg0 O13 2.034949 1_455
Mg0 O2 2.035738 1_545
Mg0 O6 2.036268 1_554
Mg0 O8 2.125084 1_554
Mg0 O11 2.128102 1_545
Mg0 O19 2.129510 1_455
Cr0 O21 2.050150 1_565
Cr0 O17 2.050771 1_556
Cr0 O10 2.050972 1_655
Cr0 O6 2.098463 1_665
Cr0 O2 2.098595 1_656
Cr0 O13 2.102288 1_566
Cr1 O14 2.073604 1_555
Cr1 O18 2.073717 1_555
Cr1 O16 2.073731 1_555
Cr1 O7 2.129994 1_555
Cr1 O5 2.130757 1_555
Cr1 O9 2.130838 1_555
Fe0 O3 2.070557 1_555
Fe0 O0 2.070949 1_555
Fe0 O1 2.071028 1_555
Fe0 O19 2.079983 1_455
Fe0 O11 2.080477 1_545
Fe0 O8 2.080655 1_554
Fe1 O9 2.004068 1_555
Fe1 O7 2.004590 1_555
Fe1 O5 2.005033 1_555
Fe1 O1 2.072787 1_555
Fe1 O3 2.074706 1_555
Fe1 O0 2.074771 1_555
Fe2 O22 1.911318 1_555
Fe2 O20 1.911983 1_555
Fe2 O23 1.912194 1_555
Fe2 O16 2.161037 1_555
Fe2 O18 2.162264 1_555
Fe2 O14 2.162671 1_555
Ni0 O15 1.991190 1_555
Ni0 O4 1.991798 1_555
Ni0 O12 1.992082 1_555
Ni0 O21 2.159694 1_565
Ni0 O10 2.160246 1_655
Ni0 O17 2.162046 1_556
O0 P5 1.565433 1_455
O1 P3 1.565815 1_554
O2 P0 1.575955 1_555
O3 P4 1.565358 1_545
O4 P0 1.499246 1_655
O5 P0 1.609190 1_555
O6 P1 1.575567 1_555
O7 P1 1.609579 1_555
O8 P3 1.543319 1_555
O9 P2 1.610060 1_555
O10 P3 1.545129 1_555
O11 P4 1.543374 1_555
O12 P1 1.498955 1_565
O13 P2 1.574484 1_555
O14 P3 1.564414 1_555
O15 P2 1.499012 1_556
O16 P4 1.564408 1_555
O17 P4 1.545249 1_555
O18 P5 1.564112 1_555
O19 P5 1.543380 1_555
O20 P1 1.531973 1_565
O21 P5 1.545421 1_555
O22 P2 1.532242 1_556
O23 P0 1.531513 1_655
