# generated using pymatgen
data_CaMn3V4O12
_symmetry_space_group_name_H-M   'P 1'
_cell_length_a   7.51546071
_cell_length_b   7.55078475
_cell_length_c   7.55473240
_cell_angle_alpha   89.84007394
_cell_angle_beta   90.07987907
_cell_angle_gamma   89.92241920
_symmetry_Int_Tables_number   1
_chemical_formula_structural   CaMn3V4O12
_chemical_formula_sum   'Ca2 Mn6 V8 O24'
_cell_volume   428.71064727
_cell_formula_units_Z   2
loop_
 _symmetry_equiv_pos_site_id
 _symmetry_equiv_pos_as_xyz
  1  'x, y, z'
loop_
 _atom_site_type_symbol
 _atom_site_label
 _atom_site_symmetry_multiplicity
 _atom_site_fract_x
 _atom_site_fract_y
 _atom_site_fract_z
 _atom_site_occupancy
  Ca  Ca0  1  0.00175900  0.00101100  0.99916800  1
  Ca  Ca1  1  0.49809000  0.49911000  0.50062000  1
  Mn  Mn0  1  0.49268200  0.99957400  0.49973500  1
  Mn  Mn1  1  0.99959700  0.99859700  0.50030300  1
  Mn  Mn2  1  0.50078200  0.49922000  0.99944000  1
  Mn  Mn3  1  0.50021200  0.00010300  0.99894300  1
  Mn  Mn4  1  0.99961100  0.49985300  0.50215400  1
  Mn  Mn5  1  0.00101100  0.50057800  0.00036800  1
  V  V0  1  0.24920100  0.25056400  0.24969700  1
  V  V1  1  0.75019100  0.75023900  0.75026700  1
  V  V2  1  0.25062900  0.74995000  0.75030000  1
  V  V3  1  0.74900100  0.24937000  0.25020800  1
  V  V4  1  0.74977900  0.24986400  0.74978200  1
  V  V5  1  0.25014000  0.74951000  0.24979000  1
  V  V6  1  0.25002900  0.25013300  0.75009400  1
  V  V7  1  0.74989500  0.74994600  0.25006500  1
  O  O0  1  0.20395100  0.30636200  0.50846700  1
  O  O1  1  0.70377000  0.80530800  0.00883200  1
  O  O2  1  0.70295600  0.19000100  0.99864400  1
  O  O3  1  0.20203200  0.68883700  0.50036700  1
  O  O4  1  0.79688300  0.31030100  0.50132000  1
  O  O5  1  0.29765100  0.81144800  0.99956800  1
  O  O6  1  0.29585200  0.19395300  0.99152900  1
  O  O7  1  0.79726500  0.69538400  0.49105500  1
  O  O8  1  0.50262200  0.20574400  0.68806200  1
  O  O9  1  0.00507100  0.70655500  0.18798900  1
  O  O10  1  0.99197900  0.70619200  0.80680600  1
  O  O11  1  0.49293100  0.20696300  0.30545300  1
  O  O12  1  0.50763600  0.79262100  0.69379200  1
  O  O13  1  0.00843500  0.29424900  0.19340500  1
  O  O14  1  0.99716100  0.29596000  0.81298600  1
  O  O15  1  0.49590100  0.79189800  0.31059700  1
  O  O16  1  0.30172100  0.50776400  0.79486400  1
  O  O17  1  0.80336900  0.00838300  0.29274100  1
  O  O18  1  0.19116300  0.00028700  0.29911300  1
  O  O19  1  0.69008200  0.50049600  0.79665300  1
  O  O20  1  0.31073800  0.49949500  0.20156800  1
  O  O21  1  0.81080400  0.99994600  0.70413300  1
  O  O22  1  0.19773300  0.99228300  0.70591300  1
  O  O23  1  0.69968700  0.49194800  0.20521200  1
loop_
_geom_bond_atom_site_label_1
_geom_bond_atom_site_label_2
_geom_bond_distance
_geom_bond_site_symmetry_2
Ca0 O14 2.630916 1_455
Ca0 O9 2.638359 1_546
Ca0 O5 2.642960 1_545
Ca0 O21 2.649316 1_445
Ca0 O6 2.649447 1_555
Ca0 O2 2.659057 1_455
Ca0 O13 2.660191 1_556
Ca0 O10 2.662914 1_445
Ca0 O22 2.662989 1_545
Ca0 O18 2.674314 1_556
Ca0 O17 2.674840 1_456
Ca0 O1 2.685749 1_446
Ca1 O8 2.625916 1_555
Ca1 O15 2.632642 1_555
Ca1 O3 2.644680 1_555
Ca1 O0 2.648963 1_555
Ca1 O11 2.657039 1_555
Ca1 O12 2.657968 1_555
Ca1 O4 2.658261 1_555
Ca1 O19 2.659883 1_555
Ca1 O20 2.660433 1_555
Ca1 O16 2.670843 1_555
Ca1 O7 2.695545 1_555
Ca1 O23 2.699801 1_555
Mn0 O8 2.113212 1_565
Mn0 O15 2.124569 1_555
Mn0 O12 2.142453 1_555
Mn0 O11 2.143285 1_565
Mn0 O22 2.711521 1_555
Mn1 O18 2.095034 1_665
Mn1 O21 2.095390 1_555
Mn1 O22 2.150678 1_655
Mn1 O17 2.152162 1_565
Mn2 O19 2.092167 1_555
Mn2 O20 2.092330 1_556
Mn2 O16 2.150265 1_555
Mn2 O23 2.155710 1_556
Mn3 O5 2.086283 1_545
Mn3 O2 2.093712 1_555
Mn3 O6 2.120776 1_555
Mn3 O1 2.121876 1_546
Mn4 O3 2.087245 1_655
Mn4 O4 2.091849 1_555
Mn4 O0 2.118621 1_655
Mn4 O7 2.119504 1_555
Mn5 O14 2.098605 1_454
Mn5 O9 2.107431 1_555
Mn5 O10 2.130756 1_454
Mn5 O13 2.131649 1_555
O0 V6 1.904175 1_555
O0 V0 2.030026 1_555
O1 V7 1.899956 1_555
O1 V1 2.028888 1_554
O2 V4 1.964790 1_555
O2 V3 1.983922 1_556
O3 V2 1.978620 1_555
O3 V5 1.980335 1_555
O4 V4 1.963276 1_555
O4 V3 1.985828 1_555
O5 V2 1.972372 1_555
O5 V5 1.979162 1_556
O6 V6 1.902359 1_555
O6 V0 2.028748 1_556
O7 V7 1.898610 1_555
O7 V1 2.034118 1_555
O8 V4 1.943921 1_555
O8 V6 1.984272 1_555
O9 V5 1.927564 1_555
O9 V7 2.001690 1_455
O10 V1 1.894860 1_555
O10 V2 2.018245 1_655
O11 V0 1.906971 1_555
O11 V3 1.995877 1_555
O12 V1 1.898142 1_555
O12 V2 2.005011 1_555
O13 V0 1.886607 1_555
O13 V3 2.025805 1_455
O14 V4 1.950880 1_555
O14 V6 1.989657 1_655
O15 V5 1.930016 1_555
O15 V7 1.988694 1_555
O16 V2 1.897159 1_555
O16 V6 2.013685 1_555
O17 V3 1.890940 1_555
O17 V7 2.019579 1_545
O18 V0 1.974759 1_555
O18 V5 1.980661 1_545
O19 V1 1.970282 1_555
O19 V4 1.977370 1_555
O20 V0 1.969286 1_555
O20 V5 1.976341 1_555
O21 V1 1.970567 1_555
O21 V4 1.972832 1_565
O22 V2 1.900763 1_555
O22 V6 2.015416 1_565
O23 V3 1.897947 1_555
O23 V7 2.014340 1_555
