# generated using pymatgen
data_Mg6ZnSnO8
_symmetry_space_group_name_H-M   'P 1'
_cell_length_a   8.86948999
_cell_length_b   4.43915327
_cell_length_c   4.43915327
_cell_angle_alpha   90.00000000
_cell_angle_beta   90.00000000
_cell_angle_gamma   90.00000000
_symmetry_Int_Tables_number   1
_chemical_formula_structural   Mg6ZnSnO8
_chemical_formula_sum   'Mg6 Zn1 Sn1 O8'
_cell_volume   174.78289486
_cell_formula_units_Z   1
loop_
 _symmetry_equiv_pos_site_id
 _symmetry_equiv_pos_as_xyz
  1  'x, y, z'
loop_
 _atom_site_type_symbol
 _atom_site_label
 _atom_site_symmetry_multiplicity
 _atom_site_fract_x
 _atom_site_fract_y
 _atom_site_fract_z
 _atom_site_occupancy
  Mg  Mg0  1  0.50000000  0.00000000  -0.00000000  1
  Mg  Mg1  1  0.50000000  0.50000000  0.50000000  1
  Mg  Mg2  1  0.26299620  0.00000000  0.50000000  1
  Mg  Mg3  1  0.73700380  -0.00000000  0.50000000  1
  Mg  Mg4  1  0.26299620  0.50000000  0.00000000  1
  Mg  Mg5  1  0.73700380  0.50000000  -0.00000000  1
  Zn  Zn0  1  0.00000000  0.00000000  -0.00000000  1
  Sn  Sn0  1  0.00000000  0.50000000  0.50000000  1
  O  O0  1  0.26013306  0.00000000  -0.00000000  1
  O  O1  1  0.73986694  -0.00000000  0.00000000  1
  O  O2  1  0.27178706  0.50000000  0.50000000  1
  O  O3  1  0.72821294  0.50000000  0.50000000  1
  O  O4  1  0.00000000  0.00000000  0.50000000  1
  O  O5  1  0.50000000  0.00000000  0.50000000  1
  O  O6  1  0.00000000  0.50000000  -0.00000000  1
  O  O7  1  0.50000000  0.50000000  -0.00000000  1
loop_
_geom_bond_atom_site_label_1
_geom_bond_atom_site_label_2
_geom_bond_distance
_geom_bond_site_symmetry_2
Mg0 O0 2.127497 1_555
Mg0 O1 2.127497 1_555
Mg0 O7 2.219577 1_555
Mg0 O5 2.219577 1_554
Mg0 O5 2.219577 1_555
Mg0 O7 2.219577 1_545
Mg1 O2 2.024132 1_555
Mg1 O3 2.024132 1_555
Mg1 O7 2.219577 1_555
Mg1 O7 2.219577 1_556
Mg1 O5 2.219577 1_555
Mg1 O5 2.219577 1_565
Mg2 O5 2.102103 1_555
Mg2 O0 2.219722 1_556
Mg2 O0 2.219722 1_555
Mg2 O2 2.220946 1_545
Mg2 O2 2.220946 1_555
Mg2 O4 2.332642 1_555
Mg3 O5 2.102103 1_555
Mg3 O1 2.219722 1_555
Mg3 O1 2.219722 1_556
Mg3 O3 2.220946 1_545
Mg3 O3 2.220946 1_555
Mg3 O4 2.332642 1_655
Mg4 O7 2.102103 1_555
Mg4 O0 2.219722 1_565
Mg4 O0 2.219722 1_555
Mg4 O2 2.220946 1_554
Mg4 O2 2.220946 1_555
Mg4 O6 2.332642 1_555
Mg5 O7 2.102103 1_555
Mg5 O1 2.219722 1_555
Mg5 O1 2.219722 1_565
Mg5 O3 2.220946 1_555
Mg5 O3 2.220946 1_554
Mg5 O6 2.332642 1_655
O0 Zn0 2.307248 1_555
O1 Zn0 2.307248 1_655
O2 Sn0 2.410613 1_555
O3 Sn0 2.410613 1_655
O4 Zn0 2.219577 1_555
O4 Sn0 2.219577 1_545
O4 Zn0 2.219577 1_556
O4 Sn0 2.219577 1_555
O6 Zn0 2.219577 1_565
O6 Zn0 2.219577 1_555
O6 Sn0 2.219577 1_555
O6 Sn0 2.219577 1_554
