# generated using pymatgen
data_BaP3HNO9
_symmetry_space_group_name_H-M   'P 1'
_cell_length_a   12.98832500
_cell_length_b   7.16401100
_cell_length_c   12.49424886
_cell_angle_alpha   68.22327629
_cell_angle_beta   90.00000000
_cell_angle_gamma   90.00000000
_symmetry_Int_Tables_number   1
_chemical_formula_structural   BaP3HNO9
_chemical_formula_sum   'Ba4 P12 H4 N4 O36'
_cell_volume   1079.60614472
_cell_formula_units_Z   4
loop_
 _symmetry_equiv_pos_site_id
 _symmetry_equiv_pos_as_xyz
  1  'x, y, z'
loop_
 _atom_site_type_symbol
 _atom_site_label
 _atom_site_symmetry_multiplicity
 _atom_site_fract_x
 _atom_site_fract_y
 _atom_site_fract_z
 _atom_site_occupancy
  Ba  Ba0  1  0.56068000  0.59473800  0.65049200  1
  Ba  Ba1  1  0.43932000  0.40526200  0.34950800  1
  Ba  Ba2  1  0.06068000  0.40526200  0.84950800  1
  Ba  Ba3  1  0.93932000  0.59473800  0.15049200  1
  P  P0  1  0.15050900  0.67325600  0.59237600  1
  P  P1  1  0.84949100  0.32674400  0.40762400  1
  P  P2  1  0.65050900  0.32674400  0.90762400  1
  P  P3  1  0.34949100  0.67325600  0.09237600  1
  P  P4  1  0.34189500  0.64978800  0.86593100  1
  P  P5  1  0.65810500  0.35021200  0.13406900  1
  P  P6  1  0.84189500  0.35021200  0.63406900  1
  P  P7  1  0.15810500  0.64978800  0.36593100  1
  P  P8  1  0.16896700  0.82873900  0.94110400  1
  P  P9  1  0.83103300  0.17126100  0.05889600  1
  P  P10  1  0.66896700  0.17126100  0.55889600  1
  P  P11  1  0.33103300  0.82873900  0.44110400  1
  H  H0  1  0.36625000  0.28144200  0.72069400  1
  H  H1  1  0.63375000  0.71855800  0.27930600  1
  H  H2  1  0.86625000  0.71855800  0.77930600  1
  H  H3  1  0.13375000  0.28144200  0.22069500  1
  N  N0  1  0.65609500  0.73538400  0.01624800  1
  N  N1  1  0.34390500  0.26461600  0.98375200  1
  N  N2  1  0.15609500  0.26461600  0.48375200  1
  N  N3  1  0.84390500  0.73538400  0.51624800  1
  O  O0  1  0.28623400  0.42433900  0.91947400  1
  O  O1  1  0.71376600  0.57566100  0.08052600  1
  O  O2  1  0.78623400  0.57566100  0.58052600  1
  O  O3  1  0.21376600  0.42433900  0.41947400  1
  O  O4  1  0.40203600  0.67044300  0.96928900  1
  O  O5  1  0.59796400  0.32955700  0.03071100  1
  O  O6  1  0.90203600  0.32955700  0.53071100  1
  O  O7  1  0.09796400  0.67044300  0.46928900  1
  O  O8  1  0.09756200  0.65011600  0.98454100  1
  O  O9  1  0.90243800  0.34988400  0.01545900  1
  O  O10  1  0.59756200  0.34988400  0.51545900  1
  O  O11  1  0.40243800  0.65011600  0.48454100  1
  O  O12  1  0.24516100  0.82783300  0.53452400  1
  O  O13  1  0.75483900  0.17216700  0.46547600  1
  O  O14  1  0.74516100  0.17216700  0.96547600  1
  O  O15  1  0.25483900  0.82783300  0.03452400  1
  O  O16  1  0.24339200  0.78825900  0.84145300  1
  O  O17  1  0.75660800  0.21174100  0.15854700  1
  O  O18  1  0.74339200  0.21174100  0.65854700  1
  O  O19  1  0.25660800  0.78825900  0.34145300  1
  O  O20  1  0.12513600  0.03423900  0.89075300  1
  O  O21  1  0.87486400  0.96576100  0.10924700  1
  O  O22  1  0.62513600  0.96576100  0.60924700  1
  O  O23  1  0.37486400  0.03423900  0.39075300  1
  O  O24  1  0.40469200  0.67726800  0.76328900  1
  O  O25  1  0.59530800  0.32273200  0.23671100  1
  O  O26  1  0.90469200  0.32273200  0.73671100  1
  O  O27  1  0.09530800  0.67726800  0.26328900  1
  O  O28  1  0.07313700  0.76416700  0.64601700  1
  O  O29  1  0.92686300  0.23583300  0.35398300  1
  O  O30  1  0.57313700  0.23583300  0.85398300  1
  O  O31  1  0.42686300  0.76416700  0.14601700  1
  O  O32  1  0.19004800  0.46756900  0.66199700  1
  O  O33  1  0.80995200  0.53243100  0.33800300  1
  O  O34  1  0.69004800  0.53243100  0.83800300  1
  O  O35  1  0.30995200  0.46756900  0.16199700  1
loop_
_geom_bond_atom_site_label_1
_geom_bond_atom_site_label_2
_geom_bond_distance
_geom_bond_site_symmetry_2
Ba0 O22 2.648610 1_555
Ba0 O24 2.656833 1_555
Ba0 O34 2.781257 1_555
Ba0 O11 2.840849 1_555
Ba0 O30 2.872440 1_555
Ba0 O10 2.889423 1_555
Ba0 O2 3.074715 1_555
Ba1 O23 2.648610 1_555
Ba1 O25 2.656833 1_555
Ba1 O35 2.781257 1_555
Ba1 O10 2.840849 1_555
Ba1 O31 2.872440 1_555
Ba1 O11 2.889423 1_555
Ba1 O3 3.074715 1_555
Ba2 O20 2.648610 1_555
Ba2 O26 2.656833 1_455
Ba2 O32 2.781257 1_555
Ba2 O9 2.840849 1_456
Ba2 O28 2.872440 1_555
Ba2 O8 2.889423 1_555
Ba2 O0 3.074715 1_555
Ba3 O21 2.648610 1_555
Ba3 O27 2.656833 1_655
Ba3 O33 2.781257 1_555
Ba3 O8 2.840849 1_654
Ba3 O29 2.872440 1_555
Ba3 O9 2.889423 1_555
Ba3 O1 3.074715 1_555
N0 O1 1.354078 1_555
N1 O0 1.354078 1_555
N2 O3 1.354078 1_555
N3 O2 1.354078 1_555
O0 P4 1.666461 1_555
O1 P5 1.666461 1_555
O2 P6 1.666461 1_555
O3 P7 1.666461 1_555
O4 P4 1.562533 1_555
O4 P3 1.689450 1_556
O5 P5 1.562533 1_555
O5 P2 1.689450 1_554
O6 P6 1.562533 1_555
O6 P1 1.689450 1_555
O7 P7 1.562533 1_555
O7 P0 1.689450 1_555
O8 P8 1.508938 1_555
O9 P9 1.508938 1_555
O10 P10 1.508938 1_555
O11 P11 1.508938 1_555
O12 P11 1.612692 1_555
O12 P0 1.632857 1_555
O13 P10 1.612692 1_555
O13 P1 1.632857 1_555
O14 P9 1.612692 1_556
O14 P2 1.632857 1_555
O15 P8 1.612692 1_554
O15 P3 1.632857 1_555
O16 P4 1.577764 1_555
O16 P8 1.684225 1_555
O17 P5 1.577764 1_555
O17 P9 1.684225 1_555
O18 P6 1.577764 1_555
O18 P10 1.684225 1_555
O19 P7 1.577764 1_555
O19 P11 1.684225 1_555
O20 P8 1.483256 1_545
O21 P9 1.483256 1_565
O22 P10 1.483256 1_565
O23 P11 1.483256 1_545
O24 P4 1.470142 1_555
O25 P5 1.470142 1_555
O26 P6 1.470142 1_555
O27 P7 1.470142 1_555
O28 P0 1.485634 1_555
O29 P1 1.485634 1_555
O30 P2 1.485634 1_555
O31 P3 1.485634 1_555
O32 P0 1.496885 1_555
O33 P1 1.496885 1_555
O34 P2 1.496885 1_555
O35 P3 1.496885 1_555
