# generated using pymatgen
data_K2H14Rh2N12O17
_symmetry_space_group_name_H-M   'P 1'
_cell_length_a   7.65209262
_cell_length_b   9.29038010
_cell_length_c   16.97967065
_cell_angle_alpha   90.54856493
_cell_angle_beta   94.35977630
_cell_angle_gamma   107.43106568
_symmetry_Int_Tables_number   1
_chemical_formula_structural   K2H14Rh2N12O17
_chemical_formula_sum   'K4 H28 Rh4 N24 O34'
_cell_volume   1147.67035911
_cell_formula_units_Z   2
loop_
 _symmetry_equiv_pos_site_id
 _symmetry_equiv_pos_as_xyz
  1  'x, y, z'
loop_
 _atom_site_type_symbol
 _atom_site_label
 _atom_site_symmetry_multiplicity
 _atom_site_fract_x
 _atom_site_fract_y
 _atom_site_fract_z
 _atom_site_occupancy
  K  K0  1  0.10001200  0.38734600  0.82679400  1
  K  K1  1  0.89998800  0.61265400  0.17320600  1
  K  K2  1  0.58125200  0.27094900  0.94664800  1
  K  K3  1  0.41874800  0.72905100  0.05335200  1
  H  H0  1  0.13911400  0.84655800  0.86447100  1
  H  H1  1  0.86088600  0.15344200  0.13552900  1
  H  H2  1  0.67441100  0.35966700  0.60364300  1
  H  H3  1  0.32558900  0.64033300  0.39635700  1
  H  H4  1  0.68206700  0.76191800  0.69558500  1
  H  H5  1  0.31793300  0.23808200  0.30441500  1
  H  H6  1  0.98947700  0.59900800  0.61736500  1
  H  H7  1  0.01052300  0.40099200  0.38263500  1
  H  H8  1  0.07602400  0.86499600  0.77024100  1
  H  H9  1  0.92397600  0.13500400  0.22975900  1
  H  H10  1  0.76571300  0.94419200  0.72443400  1
  H  H11  1  0.23428700  0.05580800  0.27556600  1
  H  H12  1  0.68869100  0.22619900  0.66721600  1
  H  H13  1  0.31130900  0.77380100  0.33278400  1
  H  H14  1  0.07925500  0.99957900  0.83644300  1
  H  H15  1  0.92074500  0.00042100  0.16355700  1
  H  H16  1  0.63970100  0.18104800  0.57226800  1
  H  H17  1  0.36029900  0.81895200  0.42773200  1
  H  H18  1  0.06362800  0.59508800  0.53568900  1
  H  H19  1  0.93637200  0.40491200  0.46431100  1
  H  H20  1  0.55313600  0.84442300  0.74301100  1
  H  H21  1  0.44686400  0.15557700  0.25698900  1
  H  H22  1  0.36332200  0.32432500  0.48954000  1
  H  H23  1  0.63667800  0.67567500  0.51045900  1
  H  H24  1  0.15705400  0.19793600  0.49272300  1
  H  H25  1  0.84294600  0.80206400  0.50727700  1
  H  H26  1  0.33984800  0.14079900  0.47887200  1
  H  H27  1  0.66015200  0.85920100  0.52112800  1
  Rh  Rh0  1  0.77730000  0.77381000  0.85046700  1
  Rh  Rh1  1  0.22270000  0.22619000  0.14953300  1
  Rh  Rh2  1  0.33598500  0.20004400  0.63151800  1
  Rh  Rh3  1  0.66401500  0.79995600  0.36848200  1
  N  N0  1  0.37927500  0.43079000  0.64569300  1
  N  N1  1  0.62072500  0.56921000  0.35430700  1
  N  N2  1  0.29513000  0.21888600  0.50767400  1
  N  N3  1  0.70487000  0.78111400  0.49232600  1
  N  N4  1  0.50883000  0.66955700  0.86850200  1
  N  N5  1  0.49117000  0.33044300  0.13149800  1
  N  N6  1  0.05610000  0.15076000  0.63759100  1
  N  N7  1  0.94390000  0.84924000  0.36240900  1
  N  N8  1  0.05225600  0.88542400  0.82742500  1
  N  N9  1  0.94774400  0.11457600  0.17257500  1
  N  N10  1  0.80529800  0.58280700  0.79593300  1
  N  N11  1  0.19470200  0.41719300  0.20406700  1
  N  N12  1  0.30067900  0.97097000  0.61521600  1
  N  N13  1  0.69932100  0.02903000  0.38478400  1
  N  N14  1  0.39800800  0.17640800  0.74959900  1
  N  N15  1  0.60199200  0.82359200  0.25040100  1
  N  N16  1  0.68449200  0.83981200  0.73915100  1
  N  N17  1  0.31550800  0.16018800  0.26084900  1
  N  N18  1  0.87672200  0.71194600  0.95628000  1
  N  N19  1  0.12327800  0.28805400  0.04372000  1
  N  N20  1  0.76056700  0.97302800  0.90139400  1
  N  N21  1  0.23943300  0.02697200  0.09860600  1
  N  N22  1  0.61971700  0.24828000  0.61682100  1
  N  N23  1  0.38028300  0.75172000  0.38317900  1
  O  O0  1  0.33098300  0.22875400  0.80409600  1
  O  O1  1  0.66901700  0.77124600  0.19590400  1
  O  O2  1  0.87989100  0.59883000  0.73222900  1
  O  O3  1  0.12010900  0.40117000  0.26777100  1
  O  O4  1  0.51333200  0.10820500  0.76654200  1
  O  O5  1  0.48666800  0.89179500  0.23345800  1
  O  O6  1  0.49351000  0.51624900  0.60435000  1
  O  O7  1  0.50649000  0.48375100  0.39565000  1
  O  O8  1  0.65754000  0.97190200  0.95518900  1
  O  O9  1  0.34246000  0.02809800  0.04481100  1
  O  O10  1  0.95457500  0.10704300  0.57541700  1
  O  O11  1  0.04542500  0.89295700  0.42458300  1
  O  O12  1  0.76004900  0.45650900  0.82669100  1
  O  O13  1  0.23995100  0.54349100  0.17330900  1
  O  O14  1  0.46404400  0.55325500  0.90838100  1
  O  O15  1  0.53595600  0.44674500  0.09161900  1
  O  O16  1  0.38837100  0.72357200  0.83895700  1
  O  O17  1  0.61162900  0.27642800  0.16104300  1
  O  O18  1  0.18202400  0.87685400  0.65000600  1
  O  O19  1  0.81797600  0.12314600  0.34999400  1
  O  O20  1  0.29824700  0.48350800  0.69384900  1
  O  O21  1  0.70175300  0.51649200  0.30615100  1
  O  O22  1  0.85300300  0.09522600  0.87515600  1
  O  O23  1  0.14699700  0.90477400  0.12484400  1
  O  O24  1  0.02234900  0.67603900  0.95758000  1
  O  O25  1  0.97765100  0.32396100  0.04241900  1
  O  O26  1  0.40160900  0.93050800  0.57077500  1
  O  O27  1  0.59839100  0.06949200  0.42922500  1
  O  O28  1  0.94978300  0.57311400  0.56173600  1
  O  O29  1  0.05021700  0.42688600  0.43826400  1
  O  O30  1  0.79643600  0.71161600  0.01743400  1
  O  O31  1  0.20356400  0.28838400  0.98256600  1
  O  O32  1  0.98642300  0.15868200  0.70138500  1
  O  O33  1  0.01357700  0.84131800  0.29861500  1
loop_
_geom_bond_atom_site_label_1
_geom_bond_atom_site_label_2
_geom_bond_distance
_geom_bond_site_symmetry_2
K0 O0 2.663824 1_555
K0 O20 2.818183 1_555
K0 O12 2.860260 1_455
K0 O32 2.885921 1_455
K0 O31 2.938256 1_555
K0 O22 2.969447 1_455
K0 O14 2.975656 1_555
K0 O16 3.233844 1_555
K0 O2 3.302669 1_455
K1 O1 2.663824 1_555
K1 O21 2.818183 1_555
K1 O13 2.860260 1_655
K1 O33 2.885921 1_655
K1 O30 2.938256 1_555
K1 O23 2.969447 1_655
K1 O15 2.975656 1_555
K1 O17 3.233844 1_555
K1 O3 3.302669 1_655
K2 O12 2.840830 1_555
K2 O0 2.916720 1_555
K2 O8 3.007833 1_545
K2 O15 3.039520 1_556
K2 O9 3.045075 1_556
K2 O31 3.049171 1_555
K2 O14 3.075489 1_555
K2 O25 3.229157 1_556
K3 O13 2.840830 1_555
K3 O1 2.916720 1_555
K3 O9 3.007833 1_565
K3 O14 3.039520 1_554
K3 O8 3.045075 1_554
K3 O30 3.049171 1_555
K3 O15 3.075489 1_555
K3 O24 3.229165 1_554
H0 N8 1.025854 1_555
H1 N9 1.025854 1_555
H2 N22 1.027274 1_555
H3 N23 1.027274 1_555
H4 N16 1.025116 1_555
H5 N17 1.025116 1_555
H6 O28 0.974977 1_555
H7 O29 0.974977 1_555
H8 N8 1.027556 1_555
H9 N9 1.027556 1_555
H10 N16 1.027747 1_555
H11 N17 1.027747 1_555
H12 N22 1.025876 1_555
H13 N23 1.025876 1_555
H14 N8 1.025520 1_555
H15 N9 1.025520 1_555
H16 N22 1.025462 1_555
H17 N23 1.025462 1_555
H18 O28 0.974650 1_455
H19 O29 0.974650 1_655
H20 N16 1.025774 1_555
H21 N17 1.025774 1_555
H22 N2 1.024995 1_555
H23 N3 1.024989 1_555
H24 N2 1.026518 1_555
H25 N3 1.026518 1_555
H26 N2 1.024658 1_555
H27 N3 1.024658 1_555
N0 O20 1.242680 1_555
N0 O6 1.255160 1_555
N0 Rh2 2.077436 1_555
N1 O21 1.242680 1_555
N1 O7 1.255160 1_555
N1 Rh3 2.077436 1_555
N2 Rh2 2.118999 1_555
N3 Rh3 2.118999 1_555
N4 O16 1.250912 1_555
N4 O14 1.253339 1_555
N4 Rh0 2.039972 1_555
N5 O17 1.250912 1_555
N5 O15 1.253339 1_555
N5 Rh1 2.039972 1_555
N6 O10 1.249418 1_455
N6 O32 1.254116 1_455
N6 Rh2 2.062561 1_555
N7 O11 1.249418 1_655
N7 O33 1.254116 1_655
N7 Rh3 2.062561 1_555
N8 Rh0 2.116816 1_455
N9 Rh1 2.116816 1_655
N10 O2 1.250611 1_555
N10 O12 1.251092 1_555
N10 Rh0 2.068478 1_555
N11 O3 1.250611 1_555
N11 O13 1.251092 1_555
N11 Rh1 2.068478 1_555
N12 O18 1.246464 1_555
N12 O26 1.250727 1_555
N12 Rh2 2.076454 1_565
N13 O19 1.246464 1_555
N13 O27 1.250727 1_555
N13 Rh3 2.076454 1_545
N14 O4 1.250160 1_555
N14 O0 1.252508 1_555
N14 Rh2 2.054165 1_555
N15 O5 1.250160 1_555
N15 O1 1.252508 1_555
N15 Rh3 2.054165 1_555
N16 Rh0 2.128817 1_555
N17 Rh1 2.128817 1_555
N18 O30 1.245627 1_556
N18 O24 1.254058 1_655
N18 Rh0 2.052088 1_555
N19 O31 1.245627 1_554
N19 O25 1.254058 1_455
N19 Rh1 2.052088 1_555
N20 O8 1.249282 1_555
N20 O22 1.250650 1_565
N20 Rh0 2.077934 1_555
N21 O9 1.249282 1_555
N21 O23 1.250650 1_545
N21 Rh1 2.077934 1_555
N22 Rh2 2.116262 1_555
N23 Rh3 2.116262 1_555
