# generated using pymatgen
data_MgTiH4
_symmetry_space_group_name_H-M   'P 1'
_cell_length_a   3.14897800
_cell_length_b   3.14897800
_cell_length_c   4.69771900
_cell_angle_alpha   90.00000000
_cell_angle_beta   90.00000000
_cell_angle_gamma   90.00000000
_symmetry_Int_Tables_number   1
_chemical_formula_structural   MgTiH4
_chemical_formula_sum   'Mg1 Ti1 H4'
_cell_volume   46.58287495
_cell_formula_units_Z   1
loop_
 _symmetry_equiv_pos_site_id
 _symmetry_equiv_pos_as_xyz
  1  'x, y, z'
loop_
 _atom_site_type_symbol
 _atom_site_label
 _atom_site_symmetry_multiplicity
 _atom_site_fract_x
 _atom_site_fract_y
 _atom_site_fract_z
 _atom_site_occupancy
  Mg  Mg0  1  0.50000000  0.50000000  0.50000000  1
  Ti  Ti0  1  0.00000000  0.00000000  0.00000000  1
  H  H0  1  0.00000000  0.50000000  0.76448000  1
  H  H1  1  0.50000000  0.00000000  0.76448000  1
  H  H2  1  0.00000000  0.50000000  0.23552000  1
  H  H3  1  0.50000000  0.00000000  0.23552000  1
loop_
_geom_bond_atom_site_label_1
_geom_bond_atom_site_label_2
_geom_bond_distance
_geom_bond_site_symmetry_2
H0 Ti0 1.924357 1_556
H0 Ti0 1.924357 1_566
H0 Mg0 2.005668 1_455
H0 Mg0 2.005668 1_555
H1 Ti0 1.924357 1_656
H1 Ti0 1.924357 1_556
H1 Mg0 2.005668 1_545
H1 Mg0 2.005668 1_555
H2 Ti0 1.924357 1_555
H2 Ti0 1.924357 1_565
H2 Mg0 2.005668 1_455
H2 Mg0 2.005668 1_555
H3 Ti0 1.924357 1_655
H3 Ti0 1.924357 1_555
H3 Mg0 2.005668 1_545
H3 Mg0 2.005668 1_555
