# generated using pymatgen
data_Ce(SbPd)2
_symmetry_space_group_name_H-M   'P 1'
_cell_length_a   4.67372100
_cell_length_b   4.67372100
_cell_length_c   10.47085100
_cell_angle_alpha   90.00000000
_cell_angle_beta   90.00000000
_cell_angle_gamma   90.00000000
_symmetry_Int_Tables_number   1
_chemical_formula_structural   Ce(SbPd)2
_chemical_formula_sum   'Ce2 Sb4 Pd4'
_cell_volume   228.72179277
_cell_formula_units_Z   2
loop_
 _symmetry_equiv_pos_site_id
 _symmetry_equiv_pos_as_xyz
  1  'x, y, z'
loop_
 _atom_site_type_symbol
 _atom_site_label
 _atom_site_symmetry_multiplicity
 _atom_site_fract_x
 _atom_site_fract_y
 _atom_site_fract_z
 _atom_site_occupancy
  Ce  Ce0  1  0.00000000  0.50000000  0.24103000  1
  Ce  Ce1  1  0.50000000  0.00000000  0.75897000  1
  Sb  Sb0  1  0.00000000  0.00000000  0.50000000  1
  Sb  Sb1  1  0.50000000  0.50000000  0.50000000  1
  Sb  Sb2  1  0.00000000  0.50000000  0.87138600  1
  Sb  Sb3  1  0.50000000  0.00000000  0.12861400  1
  Pd  Pd0  1  0.00000000  0.00000000  0.00000000  1
  Pd  Pd1  1  0.50000000  0.50000000  0.00000000  1
  Pd  Pd2  1  0.00000000  0.50000000  0.62507700  1
  Pd  Pd3  1  0.50000000  0.00000000  0.37492300  1
loop_
_geom_bond_atom_site_label_1
_geom_bond_atom_site_label_2
_geom_bond_distance
_geom_bond_site_symmetry_2
Ce0 Pd0 3.439539 1_555
Ce0 Pd1 3.439539 1_455
Ce0 Pd0 3.439539 1_565
Ce0 Pd1 3.439539 1_555
Ce0 Sb3 3.508187 1_465
Ce0 Sb3 3.508187 1_555
Ce0 Sb3 3.508187 1_455
Ce0 Sb3 3.508187 1_565
Ce0 Sb0 3.579649 1_555
Ce0 Sb1 3.579649 1_555
Ce0 Sb0 3.579649 1_565
Ce0 Sb1 3.579649 1_455
Ce0 Pd3 3.589898 1_565
Ce0 Pd3 3.589898 1_465
Ce0 Pd3 3.589898 1_455
Ce0 Pd3 3.589898 1_555
Ce1 Pd1 3.439539 1_546
Ce1 Pd0 3.439539 1_656
Ce1 Pd1 3.439539 1_556
Ce1 Pd0 3.439539 1_556
Ce1 Sb2 3.508187 1_655
Ce1 Sb2 3.508187 1_545
Ce1 Sb2 3.508187 1_645
Ce1 Sb2 3.508187 1_555
Ce1 Sb0 3.579649 1_655
Ce1 Sb1 3.579649 1_555
Ce1 Sb1 3.579649 1_545
Ce1 Sb0 3.579649 1_555
Ce1 Pd2 3.589898 1_655
Ce1 Pd2 3.589898 1_545
Ce1 Pd2 3.589898 1_645
Ce1 Pd2 3.589898 1_555
Pd0 Sb3 2.697130 1_455
Pd0 Sb2 2.697130 1_544
Pd0 Sb3 2.697130 1_555
Pd0 Sb2 2.697130 1_554
Pd1 Sb3 2.697130 1_565
Pd1 Sb2 2.697130 1_654
Pd1 Sb3 2.697130 1_555
Pd1 Sb2 2.697130 1_554
Pd2 Sb2 2.579065 1_555
Pd2 Sb0 2.678831 1_565
Pd2 Sb1 2.678831 1_455
Pd2 Sb1 2.678831 1_555
Pd2 Sb0 2.678831 1_555
Pd3 Sb3 2.579065 1_555
Pd3 Sb1 2.678831 1_545
Pd3 Sb0 2.678831 1_655
Pd3 Sb1 2.678831 1_555
Pd3 Sb0 2.678831 1_555
