# generated using pymatgen
data_NaRh(N2O3)4
_symmetry_space_group_name_H-M   'P 1'
_cell_length_a   7.61335366
_cell_length_b   7.61335366
_cell_length_c   7.61335366
_cell_angle_alpha   60.00000000
_cell_angle_beta   60.00000000
_cell_angle_gamma   60.00000000
_symmetry_Int_Tables_number   1
_chemical_formula_structural   NaRh(N2O3)4
_chemical_formula_sum   'Na1 Rh1 N8 O12'
_cell_volume   312.04197293
_cell_formula_units_Z   1
loop_
 _symmetry_equiv_pos_site_id
 _symmetry_equiv_pos_as_xyz
  1  'x, y, z'
loop_
 _atom_site_type_symbol
 _atom_site_label
 _atom_site_symmetry_multiplicity
 _atom_site_fract_x
 _atom_site_fract_y
 _atom_site_fract_z
 _atom_site_occupancy
  Na  Na0  1  0.50000000  0.50000000  0.50000000  1
  Rh  Rh0  1  0.00000000  0.00000000  0.00000000  1
  N  N0  1  0.80162800  0.80162800  0.19837200  1
  N  N1  1  0.80162800  0.19837200  0.19837200  1
  N  N2  1  0.19837200  0.80162800  0.19837200  1
  N  N3  1  0.19837200  0.19837200  0.80162800  1
  N  N4  1  0.19837200  0.80162800  0.80162800  1
  N  N5  1  0.80162800  0.19837200  0.80162800  1
  N  N6  1  0.75000000  0.75000000  0.75000000  1
  N  N7  1  0.25000000  0.25000000  0.25000000  1
  O  O0  1  0.64735400  0.85024600  0.35264600  1
  O  O1  1  0.85024600  0.14975400  0.35264600  1
  O  O2  1  0.14975400  0.64735400  0.35264600  1
  O  O3  1  0.35264600  0.14975400  0.64735400  1
  O  O4  1  0.14975400  0.85024600  0.64735400  1
  O  O5  1  0.85024600  0.35264600  0.64735400  1
  O  O6  1  0.14975400  0.35264600  0.85024600  1
  O  O7  1  0.64735400  0.35264600  0.14975400  1
  O  O8  1  0.85024600  0.64735400  0.14975400  1
  O  O9  1  0.35264600  0.64735400  0.85024600  1
  O  O10  1  0.35264600  0.85024600  0.14975400  1
  O  O11  1  0.64735400  0.14975400  0.85024600  1
loop_
_geom_bond_atom_site_label_1
_geom_bond_atom_site_label_2
_geom_bond_distance
_geom_bond_site_symmetry_2
Na0 O2 2.892929 1_555
Na0 O6 2.892929 1_555
Na0 O3 2.892929 1_555
Na0 O0 2.892929 1_555
Na0 O8 2.892929 1_555
Na0 O9 2.892929 1_555
Na0 O1 2.892929 1_555
Na0 O10 2.892929 1_555
Na0 O7 2.892929 1_555
Na0 O4 2.892929 1_555
Na0 O11 2.892929 1_555
Na0 O5 2.892929 1_555
N0 O0 1.231486 1_555
N0 O8 1.231486 1_555
N0 Rh0 2.135853 1_665
N1 O1 1.231486 1_555
N1 O7 1.231486 1_555
N1 Rh0 2.135853 1_655
N2 O10 1.231486 1_555
N2 O2 1.231486 1_555
N2 Rh0 2.135853 1_565
N3 O6 1.231486 1_555
N3 O3 1.231486 1_555
N3 Rh0 2.135853 1_556
N4 O9 1.231486 1_555
N4 O4 1.231486 1_555
N4 Rh0 2.135853 1_566
N5 O5 1.231486 1_555
N5 O11 1.231486 1_555
N5 Rh0 2.135853 1_656
