# generated using pymatgen
data_Li9Mn2Co5O16
_symmetry_space_group_name_H-M   'P 1'
_cell_length_a   9.85920249
_cell_length_b   9.85920249
_cell_length_c   10.22806234
_cell_angle_alpha   84.58399094
_cell_angle_beta   84.58399094
_cell_angle_gamma   17.05132321
_symmetry_Int_Tables_number   1
_chemical_formula_structural   Li9Mn2Co5O16
_chemical_formula_sum   'Li9 Mn2 Co5 O16'
_cell_volume   290.19880634
_cell_formula_units_Z   1
loop_
 _symmetry_equiv_pos_site_id
 _symmetry_equiv_pos_as_xyz
  1  'x, y, z'
loop_
 _atom_site_type_symbol
 _atom_site_label
 _atom_site_symmetry_multiplicity
 _atom_site_fract_x
 _atom_site_fract_y
 _atom_site_fract_z
 _atom_site_occupancy
  Li  Li0  1  0.37073200  0.37073200  0.93829100  1
  Li  Li1  1  0.12777600  0.12777600  0.80757000  1
  Li  Li2  1  0.87646500  0.87646500  0.68092300  1
  Li  Li3  1  0.62236400  0.62236400  0.55108600  1
  Li  Li4  1  0.38006000  0.38006000  0.43511000  1
  Li  Li5  1  0.12538600  0.12538600  0.31795500  1
  Li  Li6  1  0.87602500  0.87602500  0.19668700  1
  Li  Li7  1  0.62525600  0.62525600  0.06767100  1
  Li  Li8  1  0.99797800  0.99797800  0.50078400  1
  Mn  Mn0  1  0.99948600  0.99948600  0.00110500  1
  Mn  Mn1  1  0.49866700  0.49866700  0.74202000  1
  Co  Co0  1  0.74912100  0.74912100  0.87494800  1
  Co  Co1  1  0.25023800  0.25023800  0.62489600  1
  Co  Co2  1  0.75056600  0.75056600  0.37536500  1
  Co  Co3  1  0.50400600  0.50400600  0.27348800  1
  Co  Co4  1  0.25002000  0.25002000  0.12489100  1
  O  O0  1  0.44346800  0.44346800  0.07545100  1
  O  O1  1  0.19153700  0.19153700  0.96466100  1
  O  O2  1  0.94666900  0.94666900  0.84141900  1
  O  O3  1  0.69168400  0.69168400  0.71483500  1
  O  O4  1  0.44209800  0.44209800  0.61249100  1
  O  O5  1  0.19333500  0.19333500  0.46565200  1
  O  O6  1  0.94045700  0.94045700  0.33671900  1
  O  O7  1  0.69335900  0.69335900  0.21350900  1
  O  O8  1  0.30636300  0.30636300  0.78692300  1
  O  O9  1  0.05559600  0.05559600  0.67100000  1
  O  O10  1  0.80712000  0.80712000  0.53613000  1
  O  O11  1  0.56326100  0.56326100  0.39649500  1
  O  O12  1  0.30690100  0.30690100  0.28449200  1
  O  O13  1  0.05334700  0.05334700  0.14368200  1
  O  O14  1  0.80771100  0.80771100  0.03431700  1
  O  O15  1  0.55294900  0.55294900  0.90943800  1
loop_
_geom_bond_atom_site_label_1
_geom_bond_atom_site_label_2
_geom_bond_distance
_geom_bond_site_symmetry_2
Li0 O8 2.084101 1_555
Li0 O0 2.087996 1_556
Li0 O14 2.093074 1_456
Li0 O14 2.093074 1_546
Li0 O2 2.242959 1_455
Li0 O2 2.242959 1_545
Li1 O9 2.075492 1_555
Li1 O3 2.088911 1_545
Li1 O3 2.088911 1_455
Li1 O1 2.123421 1_555
Li1 O15 2.249658 1_455
Li1 O15 2.249658 1_545
Li2 O4 2.023217 1_655
Li2 O4 2.023217 1_565
Li2 O10 2.098595 1_555
Li2 O8 2.213076 1_655
Li2 O8 2.213076 1_565
Li2 O2 2.235599 1_555
Li3 O11 2.043597 1_555
Li3 O5 2.141149 1_565
Li3 O5 2.141149 1_655
Li3 O9 2.243012 1_655
Li3 O9 2.243012 1_565
Li3 O3 2.250450 1_555
Li4 O6 2.076069 1_455
Li4 O6 2.076069 1_545
Li4 O12 2.197281 1_555
Li4 O10 2.224096 1_545
Li4 O10 2.224096 1_455
Li4 O4 2.274656 1_555
Li5 O11 2.015843 1_455
Li5 O11 2.015843 1_545
Li5 O5 2.102354 1_555
Li5 O7 2.182733 1_455
Li5 O7 2.182733 1_545
Li5 O13 2.372476 1_555
Li6 O6 1.993376 1_555
Li6 O12 2.128112 1_565
Li6 O12 2.128112 1_655
Li6 O14 2.225976 1_555
Li6 O0 2.256641 1_565
Li6 O0 2.256641 1_655
Li7 O7 2.089694 1_555
Li7 O13 2.121104 1_655
Li7 O13 2.121104 1_565
Li7 O1 2.158038 1_654
Li7 O1 2.158038 1_564
Li7 O15 2.245670 1_554
Li8 O4 2.095615 1_655
Li8 O4 2.095615 1_565
Li8 O6 2.105561 1_555
Li8 O11 2.153061 1_655
Li8 O11 2.153061 1_565
Li8 O9 2.160286 1_665
Mn0 O13 1.876734 1_665
Mn0 O0 1.936333 1_655
Mn0 O0 1.936333 1_565
Mn0 O15 1.978840 1_564
Mn0 O15 1.978840 1_654
Mn0 O2 2.012341 1_554
Mn1 O4 1.803060 1_555
Mn1 O9 1.934571 1_565
Mn1 O9 1.934571 1_655
Mn1 O2 2.000353 1_455
Mn1 O2 2.000353 1_545
Mn1 O15 2.097296 1_555
Co0 O8 2.000295 1_655
Co0 O8 2.000295 1_565
Co0 O1 2.010635 1_655
Co0 O1 2.010635 1_565
Co0 O3 2.070392 1_555
Co0 O14 2.077955 1_556
Co1 O10 1.999716 1_545
Co1 O10 1.999716 1_455
Co1 O3 2.021367 1_545
Co1 O3 2.021367 1_455
Co1 O5 2.056486 1_555
Co1 O8 2.071342 1_555
Co2 O12 2.003058 1_655
Co2 O12 2.003058 1_565
Co2 O5 2.009479 1_655
Co2 O5 2.009479 1_565
Co2 O10 2.065467 1_555
Co2 O7 2.082690 1_555
Co3 O11 1.787612 1_555
Co3 O6 1.984290 1_545
Co3 O6 1.984290 1_455
Co3 O13 2.140339 1_565
Co3 O13 2.140339 1_655
Co3 O0 2.439848 1_555
Co4 O7 1.996908 1_545
Co4 O7 1.996908 1_455
Co4 O14 2.015274 1_455
Co4 O14 2.015274 1_545
Co4 O12 2.059303 1_555
Co4 O1 2.084032 1_554
