# generated using pymatgen
data_Th5C
_symmetry_space_group_name_H-M   'P 1'
_cell_length_a   30.27638584
_cell_length_b   30.27638584
_cell_length_c   30.27638423
_cell_angle_alpha   13.69411776
_cell_angle_beta   13.69411776
_cell_angle_gamma   13.69411727
_symmetry_Int_Tables_number   1
_chemical_formula_structural   Th5C
_chemical_formula_sum   'Th40 C8'
_cell_volume   1353.45085687
_cell_formula_units_Z   8
loop_
 _symmetry_equiv_pos_site_id
 _symmetry_equiv_pos_as_xyz
  1  'x, y, z'
loop_
 _atom_site_type_symbol
 _atom_site_label
 _atom_site_symmetry_multiplicity
 _atom_site_fract_x
 _atom_site_fract_y
 _atom_site_fract_z
 _atom_site_occupancy
  Th  Th0_0  1  0.30106583  0.30106583  0.30106583  1
  Th  Th0_1  1  0.30106583  0.30106583  0.80106583  1
  Th  Th0_2  1  0.30106583  0.80106583  0.30106583  1
  Th  Th0_3  1  0.30106583  0.80106583  0.80106583  1
  Th  Th0_4  1  0.80106583  0.30106583  0.30106583  1
  Th  Th0_5  1  0.80106583  0.30106583  0.80106583  1
  Th  Th0_6  1  0.80106583  0.80106583  0.30106583  1
  Th  Th0_7  1  0.80106583  0.80106583  0.80106583  1
  Th  Th1_0  1  0.00000000  0.00000000  0.00000000  1
  Th  Th1_1  1  0.00000000  0.00000000  0.50000000  1
  Th  Th1_2  1  0.00000000  0.50000000  0.00000000  1
  Th  Th1_3  1  0.00000000  0.50000000  0.50000000  1
  Th  Th1_4  1  0.50000000  0.00000000  0.00000000  1
  Th  Th1_5  1  0.50000000  0.00000000  0.50000000  1
  Th  Th1_6  1  0.50000000  0.50000000  0.00000000  1
  Th  Th1_7  1  0.50000000  0.50000000  0.50000000  1
  Th  Th2_0  1  0.19893418  0.19893418  0.19893417  1
  Th  Th2_1  1  0.19893418  0.19893418  0.69893417  1
  Th  Th2_2  1  0.19893417  0.69893417  0.19893418  1
  Th  Th2_3  1  0.19893417  0.69893417  0.69893418  1
  Th  Th2_4  1  0.69893417  0.19893418  0.19893418  1
  Th  Th2_5  1  0.69893417  0.19893418  0.69893418  1
  Th  Th2_6  1  0.69893417  0.69893418  0.19893417  1
  Th  Th2_7  1  0.69893417  0.69893417  0.69893417  1
  Th  Th3_0  1  0.10007858  0.10007858  0.10007858  1
  Th  Th3_1  1  0.10007858  0.10007858  0.60007858  1
  Th  Th3_2  1  0.10007858  0.60007858  0.10007858  1
  Th  Th3_3  1  0.10007858  0.60007858  0.60007858  1
  Th  Th3_4  1  0.60007858  0.10007858  0.10007858  1
  Th  Th3_5  1  0.60007858  0.10007858  0.60007858  1
  Th  Th3_6  1  0.60007858  0.60007858  0.10007858  1
  Th  Th3_7  1  0.60007858  0.60007858  0.60007858  1
  Th  Th4_0  1  0.39992142  0.39992142  0.39992142  1
  Th  Th4_1  1  0.39992142  0.39992142  0.89992142  1
  Th  Th4_2  1  0.39992142  0.89992142  0.39992142  1
  Th  Th4_3  1  0.39992142  0.89992142  0.89992142  1
  Th  Th4_4  1  0.89992142  0.39992142  0.39992142  1
  Th  Th4_5  1  0.89992142  0.39992142  0.89992142  1
  Th  Th4_6  1  0.89992142  0.89992142  0.39992142  1
  Th  Th4_7  1  0.89992142  0.89992142  0.89992142  1
  C  C0_0  1  0.25000000  0.25000000  0.25000000  1
  C  C0_1  1  0.25000000  0.25000000  0.75000000  1
  C  C0_2  1  0.25000000  0.75000000  0.25000000  1
  C  C0_3  1  0.25000000  0.75000000  0.75000000  1
  C  C0_4  1  0.75000000  0.25000000  0.25000000  1
  C  C0_5  1  0.75000000  0.25000000  0.75000000  1
  C  C0_6  1  0.75000000  0.75000000  0.25000000  1
  C  C0_7  1  0.75000000  0.75000000  0.75000000  1
loop_
_geom_bond_atom_site_label_1
_geom_bond_atom_site_label_2
_geom_bond_distance
_geom_bond_site_symmetry_2
Th0_0 Th1_5 3.573499 1_555
Th0_0 Th1_3 3.573499 1_555
Th0_0 Th1_6 3.573500 1_555
Th0_0 Th0_6 3.609535 1_545
Th0_0 Th0_6 3.609535 1_455
Th0_0 Th0_3 3.609535 1_545
Th0_0 Th0_5 3.609535 1_455
Th0_0 Th0_5 3.609535 1_554
Th0_0 Th0_3 3.609535 1_554
Th0_0 Th3_4 3.725100 1_555
Th0_0 Th3_2 3.725100 1_555
Th0_0 Th3_1 3.725101 1_555
Th0_1 Th1_2 3.573499 1_556
Th0_1 Th1_4 3.573499 1_556
Th0_1 Th1_7 3.573500 1_555
Th0_1 Th0_7 3.609535 1_545
Th0_1 Th0_7 3.609535 1_455
Th0_1 Th0_4 3.609535 1_456
Th0_1 Th0_2 3.609535 1_546
Th0_1 Th0_2 3.609535 1_555
Th0_1 Th0_4 3.609535 1_555
Th0_1 Th3_5 3.725100 1_555
Th0_1 Th3_3 3.725100 1_555
Th0_1 Th3_0 3.725101 1_556
Th0_2 Th1_7 3.573499 1_555
Th0_2 Th1_1 3.573499 1_565
Th0_2 Th1_4 3.573500 1_565
Th0_2 Th0_4 3.609535 1_555
Th0_2 Th0_4 3.609535 1_465
Th0_2 Th0_7 3.609535 1_554
Th0_2 Th0_7 3.609535 1_455
Th0_2 Th3_6 3.725100 1_555
Th0_2 Th3_0 3.725100 1_565
Th0_2 Th3_3 3.725101 1_555
Th0_3 Th1_0 3.573499 1_566
Th0_3 Th1_6 3.573499 1_556
Th0_3 Th1_5 3.573500 1_565
Th0_3 Th0_5 3.609535 1_465
Th0_3 Th0_5 3.609535 1_555
Th0_3 Th0_6 3.609535 1_555
Th0_3 Th0_6 3.609535 1_456
Th0_3 Th3_7 3.725100 1_555
Th0_3 Th3_1 3.725100 1_565
Th0_3 Th3_2 3.725101 1_556
Th0_4 Th1_7 3.573499 1_555
Th0_4 Th1_1 3.573499 1_655
Th0_4 Th1_2 3.573500 1_655
Th0_4 Th0_7 3.609535 1_554
Th0_4 Th0_7 3.609535 1_545
Th0_4 Th3_6 3.725100 1_555
Th0_4 Th3_0 3.725100 1_655
Th0_4 Th3_5 3.725101 1_555
Th0_5 Th1_0 3.573499 1_656
Th0_5 Th1_6 3.573499 1_556
Th0_5 Th1_3 3.573500 1_655
Th0_5 Th0_6 3.609535 1_546
Th0_5 Th0_6 3.609535 1_555
Th0_5 Th3_7 3.725100 1_555
Th0_5 Th3_1 3.725100 1_655
Th0_5 Th3_4 3.725101 1_556
Th0_6 Th1_5 3.573499 1_565
Th0_6 Th1_3 3.573499 1_655
Th0_6 Th1_0 3.573500 1_665
Th0_6 Th3_4 3.725100 1_565
Th0_6 Th3_2 3.725100 1_655
Th0_6 Th3_7 3.725101 1_555
Th0_7 Th1_4 3.573499 1_566
Th0_7 Th1_2 3.573499 1_656
Th0_7 Th1_1 3.573500 1_665
Th0_7 Th3_5 3.725100 1_565
Th0_7 Th3_3 3.725100 1_655
Th0_7 Th3_6 3.725101 1_556
Th1_0 Th2_2 3.573499 1_545
Th1_0 Th2_4 3.573499 1_455
Th1_0 Th2_1 3.573500 1_554
Th1_0 Th1_6 3.609535 1_545
Th1_0 Th1_6 3.609535 1_455
Th1_0 Th1_3 3.609535 1_545
Th1_0 Th1_5 3.609535 1_554
Th1_0 Th1_5 3.609535 1_455
Th1_0 Th1_3 3.609535 1_554
Th1_1 Th2_3 3.573499 1_545
Th1_1 Th2_5 3.573499 1_455
Th1_1 Th2_0 3.573500 1_555
Th1_1 Th1_7 3.609535 1_545
Th1_1 Th1_7 3.609535 1_455
Th1_1 Th1_2 3.609535 1_546
Th1_1 Th1_2 3.609535 1_555
Th1_1 Th1_4 3.609535 1_456
Th1_1 Th1_4 3.609535 1_555
Th1_2 Th2_0 3.573499 1_555
Th1_2 Th2_6 3.573499 1_455
Th1_2 Th2_3 3.573500 1_554
Th1_2 Th1_4 3.609535 1_465
Th1_2 Th1_4 3.609535 1_555
Th1_2 Th1_7 3.609535 1_554
Th1_2 Th1_7 3.609535 1_455
Th1_3 Th2_7 3.573499 1_455
Th1_3 Th2_1 3.573499 1_555
Th1_3 Th2_2 3.573500 1_555
Th1_3 Th1_5 3.609535 1_465
Th1_3 Th1_5 3.609535 1_555
Th1_3 Th1_6 3.609535 1_555
Th1_3 Th1_6 3.609535 1_456
Th1_4 Th2_0 3.573499 1_555
Th1_4 Th2_6 3.573499 1_545
Th1_4 Th2_5 3.573500 1_554
Th1_4 Th1_7 3.609535 1_554
Th1_4 Th1_7 3.609535 1_545
Th1_5 Th2_7 3.573499 1_545
Th1_5 Th2_1 3.573499 1_555
Th1_5 Th2_4 3.573500 1_555
Th1_5 Th1_6 3.609535 1_546
Th1_5 Th1_6 3.609535 1_555
Th1_6 Th2_2 3.573499 1_555
Th1_6 Th2_4 3.573499 1_555
Th1_6 Th2_7 3.573500 1_554
Th1_7 Th2_5 3.573499 1_555
Th1_7 Th2_3 3.573499 1_555
Th1_7 Th2_6 3.573500 1_555
Th2_0 Th2_6 3.609535 1_545
Th2_0 Th2_6 3.609535 1_455
Th2_0 Th2_5 3.609535 1_554
Th2_0 Th2_3 3.609535 1_554
Th2_0 Th2_3 3.609535 1_545
Th2_0 Th2_5 3.609535 1_455
Th2_0 Th4_2 3.725100 1_545
Th2_0 Th4_4 3.725100 1_455
Th2_0 Th4_1 3.725101 1_554
Th2_1 Th2_7 3.609535 1_545
Th2_1 Th2_7 3.609535 1_455
Th2_1 Th2_4 3.609535 1_555
Th2_1 Th2_2 3.609535 1_555
Th2_1 Th2_2 3.609535 1_546
Th2_1 Th2_4 3.609535 1_456
Th2_1 Th4_5 3.725100 1_455
Th2_1 Th4_3 3.725100 1_545
Th2_1 Th4_0 3.725101 1_555
Th2_2 Th2_4 3.609535 1_555
Th2_2 Th2_4 3.609535 1_465
Th2_2 Th2_7 3.609535 1_554
Th2_2 Th2_7 3.609535 1_455
Th2_2 Th4_0 3.725100 1_555
Th2_2 Th4_6 3.725100 1_455
Th2_2 Th4_3 3.725101 1_554
Th2_3 Th2_5 3.609535 1_555
Th2_3 Th2_5 3.609535 1_465
Th2_3 Th2_6 3.609535 1_456
Th2_3 Th2_6 3.609535 1_555
Th2_3 Th4_1 3.725100 1_555
Th2_3 Th4_7 3.725100 1_455
Th2_3 Th4_2 3.725101 1_555
Th2_4 Th2_7 3.609535 1_554
Th2_4 Th2_7 3.609535 1_545
Th2_4 Th4_0 3.725100 1_555
Th2_4 Th4_6 3.725100 1_545
Th2_4 Th4_5 3.725101 1_554
Th2_5 Th2_6 3.609535 1_546
Th2_5 Th2_6 3.609535 1_555
Th2_5 Th4_1 3.725100 1_555
Th2_5 Th4_7 3.725100 1_545
Th2_5 Th4_4 3.725101 1_555
Th2_6 Th4_4 3.725100 1_555
Th2_6 Th4_2 3.725100 1_555
Th2_6 Th4_7 3.725101 1_554
Th2_7 Th4_5 3.725100 1_555
Th2_7 Th4_3 3.725100 1_555
Th2_7 Th4_6 3.725101 1_555
C0_0 Th4_1 2.571455 1_554
C0_0 Th3_1 2.571455 1_555
C0_0 Th4_2 2.571456 1_545
C0_0 Th4_4 2.571456 1_455
C0_0 Th3_4 2.571456 1_555
C0_0 Th3_2 2.571456 1_555
C0_1 Th3_0 2.571455 1_556
C0_1 Th4_0 2.571455 1_555
C0_1 Th4_3 2.571456 1_545
C0_1 Th4_5 2.571456 1_455
C0_1 Th3_3 2.571456 1_555
C0_1 Th3_5 2.571456 1_555
C0_2 Th4_3 2.571455 1_554
C0_2 Th3_3 2.571455 1_555
C0_2 Th3_0 2.571456 1_565
C0_2 Th3_6 2.571456 1_555
C0_2 Th4_6 2.571456 1_455
C0_2 Th4_0 2.571456 1_555
C0_3 Th4_2 2.571455 1_555
C0_3 Th3_2 2.571455 1_556
C0_3 Th4_7 2.571456 1_455
C0_3 Th3_1 2.571456 1_565
C0_3 Th4_1 2.571456 1_555
C0_3 Th3_7 2.571456 1_555
C0_4 Th4_5 2.571455 1_554
C0_4 Th3_5 2.571455 1_555
C0_4 Th3_0 2.571456 1_655
C0_4 Th4_6 2.571456 1_545
C0_4 Th3_6 2.571456 1_555
C0_4 Th4_0 2.571456 1_555
C0_5 Th4_4 2.571455 1_555
C0_5 Th3_4 2.571455 1_556
C0_5 Th4_7 2.571456 1_545
C0_5 Th4_1 2.571456 1_555
C0_5 Th3_1 2.571456 1_655
C0_5 Th3_7 2.571456 1_555
C0_6 Th4_7 2.571455 1_554
C0_6 Th3_7 2.571455 1_555
C0_6 Th3_2 2.571456 1_655
C0_6 Th4_4 2.571456 1_555
C0_6 Th4_2 2.571456 1_555
C0_6 Th3_4 2.571456 1_565
C0_7 Th3_6 2.571455 1_556
C0_7 Th4_6 2.571455 1_555
C0_7 Th4_3 2.571456 1_555
C0_7 Th4_5 2.571456 1_555
C0_7 Th3_5 2.571456 1_565
C0_7 Th3_3 2.571456 1_655
