# generated using pymatgen
data_Y2Co14B
_symmetry_space_group_name_H-M   'P 1'
_cell_length_a   8.58090500
_cell_length_b   8.58090500
_cell_length_c   11.66419000
_cell_angle_alpha   90.00000000
_cell_angle_beta   90.00000000
_cell_angle_gamma   90.00000000
_symmetry_Int_Tables_number   1
_chemical_formula_structural   Y2Co14B
_chemical_formula_sum   'Y8 Co56 B4'
_cell_volume   858.85682881
_cell_formula_units_Z   4
loop_
 _symmetry_equiv_pos_site_id
 _symmetry_equiv_pos_as_xyz
  1  'x, y, z'
loop_
 _atom_site_type_symbol
 _atom_site_label
 _atom_site_symmetry_multiplicity
 _atom_site_fract_x
 _atom_site_fract_y
 _atom_site_fract_z
 _atom_site_occupancy
  Y  Y0  1  0.22490800  0.77509200  0.50000000  1
  Y  Y1  1  0.77509200  0.22490800  0.50000000  1
  Y  Y2  1  0.27509200  0.27509200  0.00000000  1
  Y  Y3  1  0.72490800  0.72490800  0.00000000  1
  Y  Y4  1  0.64478300  0.64478300  0.50000000  1
  Y  Y5  1  0.35521700  0.35521700  0.50000000  1
  Y  Y6  1  0.85521700  0.14478300  0.00000000  1
  Y  Y7  1  0.14478300  0.85521700  0.00000000  1
  Co  Co0  1  0.00000000  0.50000000  0.50000000  1
  Co  Co1  1  0.50000000  0.00000000  0.00000000  1
  Co  Co2  1  0.50000000  0.00000000  0.50000000  1
  Co  Co3  1  0.00000000  0.50000000  0.00000000  1
  Co  Co4  1  0.50000000  0.50000000  0.11633000  1
  Co  Co5  1  0.00000000  0.00000000  0.61633000  1
  Co  Co6  1  0.50000000  0.50000000  0.88367000  1
  Co  Co7  1  0.00000000  0.00000000  0.38367000  1
  Co  Co8  1  0.18196500  0.81803500  0.25387200  1
  Co  Co9  1  0.81803500  0.18196500  0.25387200  1
  Co  Co10  1  0.31803500  0.31803500  0.75387200  1
  Co  Co11  1  0.68196500  0.68196500  0.75387200  1
  Co  Co12  1  0.81803500  0.18196500  0.74612800  1
  Co  Co13  1  0.18196500  0.81803500  0.74612800  1
  Co  Co14  1  0.68196500  0.68196500  0.24612800  1
  Co  Co15  1  0.31803500  0.31803500  0.24612800  1
  Co  Co16  1  0.40167500  0.59832500  0.29761700  1
  Co  Co17  1  0.59832500  0.40167500  0.29761700  1
  Co  Co18  1  0.09832500  0.09832500  0.79761700  1
  Co  Co19  1  0.90167500  0.90167500  0.79761700  1
  Co  Co20  1  0.59832500  0.40167500  0.70238300  1
  Co  Co21  1  0.40167500  0.59832500  0.70238300  1
  Co  Co22  1  0.90167500  0.90167500  0.20238300  1
  Co  Co23  1  0.09832500  0.09832500  0.20238300  1
  Co  Co24  1  0.14077000  0.53701100  0.32252900  1
  Co  Co25  1  0.85923000  0.46298900  0.32252900  1
  Co  Co26  1  0.35923000  0.03701100  0.82252900  1
  Co  Co27  1  0.64077000  0.96298900  0.82252900  1
  Co  Co28  1  0.85923000  0.46298900  0.67747100  1
  Co  Co29  1  0.14077000  0.53701100  0.67747100  1
  Co  Co30  1  0.64077000  0.96298900  0.17747100  1
  Co  Co31  1  0.35923000  0.03701100  0.17747100  1
  Co  Co32  1  0.53701100  0.14077000  0.32252900  1
  Co  Co33  1  0.46298900  0.85923000  0.32252900  1
  Co  Co34  1  0.03701100  0.35923000  0.82252900  1
  Co  Co35  1  0.96298900  0.64077000  0.82252900  1
  Co  Co36  1  0.46298900  0.85923000  0.67747100  1
  Co  Co37  1  0.53701100  0.14077000  0.67747100  1
  Co  Co38  1  0.96298900  0.64077000  0.17747100  1
  Co  Co39  1  0.03701100  0.35923000  0.17747100  1
  Co  Co40  1  0.93114100  0.72390900  0.37403800  1
  Co  Co41  1  0.06885900  0.27609100  0.37403800  1
  Co  Co42  1  0.56885900  0.22390900  0.87403800  1
  Co  Co43  1  0.43114100  0.77609100  0.87403800  1
  Co  Co44  1  0.06885900  0.27609100  0.62596200  1
  Co  Co45  1  0.93114100  0.72390900  0.62596200  1
  Co  Co46  1  0.43114100  0.77609100  0.12596200  1
  Co  Co47  1  0.56885900  0.22390900  0.12596200  1
  Co  Co48  1  0.72390900  0.93114100  0.37403800  1
  Co  Co49  1  0.27609100  0.06885900  0.37403800  1
  Co  Co50  1  0.22390900  0.56885900  0.87403800  1
  Co  Co51  1  0.77609100  0.43114100  0.87403800  1
  Co  Co52  1  0.27609100  0.06885900  0.62596200  1
  Co  Co53  1  0.72390900  0.93114100  0.62596200  1
  Co  Co54  1  0.77609100  0.43114100  0.12596200  1
  Co  Co55  1  0.22390900  0.56885900  0.12596200  1
  B  B0  1  0.87680500  0.87680500  0.50000000  1
  B  B1  1  0.12319500  0.12319500  0.50000000  1
  B  B2  1  0.62319500  0.37680500  0.00000000  1
  B  B3  1  0.37680500  0.62319500  0.00000000  1
loop_
_geom_bond_atom_site_label_1
_geom_bond_atom_site_label_2
_geom_bond_distance
_geom_bond_site_symmetry_2
Co0 Co28 2.417663 1_455
Co0 Co29 2.417663 1_555
Co0 Co25 2.417663 1_455
Co0 Co24 2.417663 1_555
Co0 Co45 2.489852 1_455
Co0 Co40 2.489852 1_455
Co0 Co44 2.489852 1_555
Co0 Co41 2.489852 1_555
Co0 Y1 3.049051 1_455
Co0 Y0 3.049051 1_555
Co0 Y5 3.291549 1_555
Co0 Y4 3.291549 1_455
Co1 Co31 2.417663 1_555
Co1 Co26 2.417663 1_554
Co1 Co30 2.417663 1_545
Co1 Co27 2.417663 1_544
Co1 Co42 2.489852 1_554
Co1 Co46 2.489852 1_545
Co1 Co47 2.489852 1_555
Co1 Co43 2.489852 1_544
Co1 Y3 3.049051 1_545
Co1 Y2 3.049051 1_555
Co1 Y7 3.291549 1_545
Co1 Y6 3.291549 1_555
Co2 Co37 2.417663 1_555
Co2 Co36 2.417663 1_545
Co2 Co33 2.417663 1_545
Co2 Co32 2.417663 1_555
Co2 Co48 2.489852 1_545
Co2 Co53 2.489852 1_545
Co2 Co52 2.489852 1_555
Co2 Co49 2.489852 1_555
Co2 Y0 3.049051 1_545
Co2 Y1 3.049051 1_555
Co2 Y4 3.291549 1_545
Co2 Y5 3.291549 1_555
Co3 Co39 2.417663 1_555
Co3 Co34 2.417663 1_554
Co3 Co38 2.417663 1_455
Co3 Co35 2.417663 1_454
Co3 Co50 2.489852 1_554
Co3 Co55 2.489852 1_555
Co3 Co54 2.489852 1_455
Co3 Co51 2.489852 1_454
Co3 Y2 3.049051 1_555
Co3 Y3 3.049051 1_455
Co3 Y6 3.291549 1_455
Co3 Y7 3.291549 1_555
Co4 Y2 3.048000 1_555
Co4 Y3 3.048000 1_555
Co5 Y1 3.048000 1_455
Co5 Y0 3.048000 1_545
Co6 Y2 3.048000 1_556
Co6 Y3 3.048000 1_556
Co7 Co9 2.677359 1_455
Co7 Co8 2.677359 1_545
Co7 Y0 3.048000 1_545
Co7 Y1 3.048000 1_455
Co8 Y0 2.917798 1_555
Co8 Y7 2.995391 1_555
Co9 Y1 2.917798 1_555
Co9 Y6 2.995391 1_555
Co10 Co26 2.565409 1_555
Co10 Co34 2.565409 1_555
Co10 Co37 2.576543 1_555
Co10 Co29 2.576543 1_555
Co10 Co21 2.580795 1_555
Co10 Co20 2.580795 1_555
Co10 Co52 2.631960 1_555
Co10 Co44 2.631960 1_555
Co10 Co6 2.677359 1_555
Co10 Co50 2.692458 1_555
Co10 Co42 2.692458 1_555
Co10 Co18 2.714617 1_555
Co10 Y2 2.917798 1_556
Co10 Y5 2.995391 1_555
Co11 Co35 2.565409 1_555
Co11 Co27 2.565409 1_555
Co11 Co36 2.576543 1_555
Co11 Co28 2.576543 1_555
Co11 Co20 2.580795 1_555
Co11 Co21 2.580795 1_555
Co11 Co53 2.631960 1_555
Co11 Co45 2.631960 1_555
Co11 Co6 2.677359 1_555
Co11 Co43 2.692458 1_555
Co11 Co51 2.692458 1_555
Co11 Co19 2.714617 1_555
Co11 Y3 2.917798 1_556
Co11 Y4 2.995391 1_555
Co12 Co37 2.565409 1_555
Co12 Co28 2.565409 1_555
Co12 Co34 2.576543 1_655
Co12 Co27 2.576543 1_545
Co12 Co19 2.580795 1_545
Co12 Co18 2.580795 1_655
Co12 Co42 2.631960 1_555
Co12 Co51 2.631960 1_555
Co12 Co5 2.677359 1_655
Co12 Co44 2.692458 1_655
Co12 Co53 2.692458 1_545
Co12 Co20 2.714617 1_555
Co12 Y1 2.917798 1_555
Co12 Y6 2.995391 1_556
Co13 Co29 2.565409 1_555
Co13 Co36 2.565409 1_555
Co13 Co26 2.576543 1_565
Co13 Co35 2.576543 1_455
Co13 Co19 2.580795 1_455
Co13 Co18 2.580795 1_565
Co13 Co43 2.631960 1_555
Co13 Co50 2.631960 1_555
Co13 Co5 2.677359 1_565
Co13 Co52 2.692458 1_565
Co13 Co45 2.692458 1_455
Co13 Co21 2.714617 1_555
Co13 Y0 2.917798 1_555
Co13 Y7 2.995391 1_556
Co14 Co38 2.565409 1_555
Co14 Co30 2.565409 1_555
Co14 Co25 2.576543 1_555
Co14 Co33 2.576543 1_555
Co14 Co16 2.580795 1_555
Co14 Co17 2.580795 1_555
Co14 Co48 2.631960 1_555
Co14 Co40 2.631960 1_555
Co14 Co4 2.677359 1_555
Co14 Co54 2.692458 1_555
Co14 Co46 2.692458 1_555
Co14 Co22 2.714617 1_555
Co14 Y3 2.917798 1_555
Co14 Y4 2.995391 1_555
Co15 Co31 2.565409 1_555
Co15 Co39 2.565409 1_555
Co15 Co32 2.576543 1_555
Co15 Co24 2.576543 1_555
Co15 Co17 2.580795 1_555
Co15 Co16 2.580795 1_555
Co15 Co41 2.631960 1_555
Co15 Co49 2.631960 1_555
Co15 Co4 2.677359 1_555
Co15 Co47 2.692458 1_555
Co15 Co55 2.692458 1_555
Co15 Co23 2.714617 1_555
Co15 Y2 2.917798 1_555
Co15 Y5 2.995391 1_555
Co16 Co24 2.318076 1_555
Co16 Co33 2.318076 1_555
Co16 Co17 2.386393 1_555
Co16 Co4 2.427984 1_555
Co16 Co46 2.529748 1_555
Co16 Co55 2.529748 1_555
Co16 Co8 2.714617 1_555
Co16 Y5 3.175417 1_555
Co16 Y4 3.175417 1_555
Co16 Y0 3.189684 1_555
Co17 Co32 2.318076 1_555
Co17 Co25 2.318076 1_555
Co17 Co4 2.427984 1_555
Co17 Co47 2.529748 1_555
Co17 Co54 2.529748 1_555
Co17 Co9 2.714617 1_555
Co17 Y5 3.175417 1_555
Co17 Y4 3.175417 1_555
Co17 Y1 3.189684 1_555
Co18 Co26 2.318076 1_555
Co18 Co34 2.318076 1_555
Co18 Co19 2.386393 1_445
Co18 Co5 2.427984 1_555
Co18 Co52 2.529748 1_555
Co18 Co44 2.529748 1_555
Co18 Y6 3.175417 1_456
Co18 Y7 3.175417 1_546
Co18 Y2 3.189684 1_556
Co19 Co35 2.318076 1_555
Co19 Co27 2.318076 1_555
Co19 Co5 2.427984 1_665
Co19 Co53 2.529748 1_555
Co19 Co45 2.529748 1_555
Co19 Y6 3.175417 1_566
Co19 Y7 3.175417 1_656
Co19 Y3 3.189684 1_556
Co20 Co37 2.318076 1_555
Co20 Co28 2.318076 1_555
Co20 Co21 2.386393 1_555
Co20 Co6 2.427984 1_555
Co20 Co51 2.529748 1_555
Co20 Co42 2.529748 1_555
Co20 Y5 3.175417 1_555
Co20 Y4 3.175417 1_555
Co20 Y1 3.189684 1_555
Co21 Co29 2.318076 1_555
Co21 Co36 2.318076 1_555
Co21 Co6 2.427984 1_555
Co21 Co50 2.529748 1_555
Co21 Co43 2.529748 1_555
Co21 Y5 3.175417 1_555
Co21 Y4 3.175417 1_555
Co21 Y0 3.189684 1_555
Co22 Co30 2.318076 1_555
Co22 Co38 2.318076 1_555
Co22 Co23 2.386393 1_665
Co22 Co7 2.427984 1_665
Co22 Co40 2.529748 1_555
Co22 Co48 2.529748 1_555
Co22 Co9 2.580795 1_565
Co22 Co8 2.580795 1_655
Co22 Y6 3.175417 1_565
Co22 Y7 3.175417 1_655
Co22 Y3 3.189684 1_555
Co23 Co31 2.318076 1_555
Co23 Co39 2.318076 1_555
Co23 Co7 2.427984 1_555
Co23 Co41 2.529748 1_555
Co23 Co49 2.529748 1_555
Co23 Co8 2.580795 1_545
Co23 Co9 2.580795 1_455
Co23 Y7 3.175417 1_545
Co23 Y6 3.175417 1_455
Co23 Y2 3.189684 1_555
Co24 Co41 2.398863 1_555
Co24 Co55 2.416722 1_555
Co24 Co38 2.445965 1_455
Co24 Co39 2.445965 1_555
Co24 Co40 2.483688 1_455
Co24 Co25 2.497972 1_455
Co24 Co8 2.565409 1_555
Co24 Y0 2.996670 1_555
Co24 Y5 3.178796 1_555
Co25 Co40 2.398863 1_555
Co25 Co54 2.416722 1_555
Co25 Co39 2.445965 1_655
Co25 Co38 2.445965 1_555
Co25 Co41 2.483688 1_655
Co25 Co9 2.565409 1_555
Co25 Y1 2.996670 1_555
Co25 Y4 3.178796 1_555
Co26 Co43 2.398863 1_545
Co26 Co52 2.416722 1_555
Co26 Co36 2.445965 1_545
Co26 Co37 2.445965 1_555
Co26 Co42 2.483688 1_555
Co26 Co27 2.497972 1_545
Co26 Y2 2.996670 1_556
Co26 Y7 3.178796 1_546
Co27 Co42 2.398863 1_565
Co27 Co53 2.416722 1_555
Co27 Co36 2.445965 1_555
Co27 Co37 2.445965 1_565
Co27 Co43 2.483688 1_555
Co27 Y3 2.996670 1_556
Co27 Y6 3.178796 1_566
Co28 Co45 2.398863 1_555
Co28 Co51 2.416722 1_555
Co28 Co34 2.445965 1_655
Co28 Co35 2.445965 1_555
Co28 Co44 2.483688 1_655
Co28 Co29 2.497972 1_655
Co28 Y1 2.996670 1_555
Co28 Y4 3.178796 1_555
Co29 Co44 2.398863 1_555
Co29 Co50 2.416722 1_555
Co29 Co35 2.445965 1_455
Co29 Co34 2.445965 1_555
Co29 Co45 2.483688 1_455
Co29 Y0 2.996670 1_555
Co29 Y5 3.178796 1_555
Co30 Co47 2.398863 1_565
Co30 Co48 2.416722 1_555
Co30 Co33 2.445965 1_555
Co30 Co32 2.445965 1_565
Co30 Co46 2.483688 1_555
Co30 Co31 2.497972 1_565
Co30 Co9 2.576543 1_565
Co30 Y3 2.996670 1_555
Co30 Y6 3.178796 1_565
Co31 Co46 2.398863 1_545
Co31 Co49 2.416722 1_555
Co31 Co33 2.445965 1_545
Co31 Co32 2.445965 1_555
Co31 Co47 2.483688 1_555
Co31 Co8 2.576543 1_545
Co31 Y2 2.996670 1_555
Co31 Y7 3.178796 1_545
Co32 Co49 2.398863 1_555
Co32 Co47 2.416722 1_555
Co32 Co48 2.483688 1_545
Co32 Co33 2.497972 1_545
Co32 Co9 2.565409 1_555
Co32 Y1 2.996670 1_555
Co32 Y5 3.178796 1_555
Co33 Co48 2.398863 1_555
Co33 Co46 2.416722 1_555
Co33 Co49 2.483688 1_565
Co33 Co8 2.565409 1_555
Co33 Y0 2.996670 1_555
Co33 Y4 3.178796 1_555
Co34 Co51 2.398863 1_455
Co34 Co44 2.416722 1_555
Co34 Co50 2.483688 1_555
Co34 Co35 2.497972 1_455
Co34 Y2 2.996670 1_556
Co34 Y6 3.178796 1_456
Co35 Co50 2.398863 1_655
Co35 Co45 2.416722 1_555
Co35 Co51 2.483688 1_555
Co35 Y3 2.996670 1_556
Co35 Y7 3.178796 1_656
Co36 Co53 2.398863 1_555
Co36 Co43 2.416722 1_555
Co36 Co52 2.483688 1_565
Co36 Co37 2.497972 1_565
Co36 Y0 2.996670 1_555
Co36 Y4 3.178796 1_555
Co37 Co52 2.398863 1_555
Co37 Co42 2.416722 1_555
Co37 Co53 2.483688 1_545
Co37 Y1 2.996670 1_555
Co37 Y5 3.178796 1_555
Co38 Co55 2.398863 1_655
Co38 Co40 2.416722 1_555
Co38 Co54 2.483688 1_555
Co38 Co39 2.497972 1_655
Co38 Co8 2.576543 1_655
Co38 Y3 2.996670 1_555
Co38 Y7 3.178796 1_655
Co39 Co54 2.398863 1_455
Co39 Co41 2.416722 1_555
Co39 Co55 2.483688 1_555
Co39 Co9 2.576543 1_455
Co39 Y2 2.996670 1_555
Co39 Y6 3.178796 1_455
Co40 Co8 2.692458 1_655
Co40 Y4 2.942375 1_555
Co40 Y0 2.950583 1_655
Co41 Co9 2.692458 1_455
Co41 Y5 2.942375 1_555
Co41 Y1 2.950583 1_455
Co42 Y6 2.942375 1_556
Co42 Y2 2.950583 1_556
Co43 Y7 2.942375 1_556
Co43 Y3 2.950583 1_556
Co44 Y5 2.942375 1_555
Co44 Y1 2.950583 1_455
Co45 Y4 2.942375 1_555
Co45 Y0 2.950583 1_655
Co46 Co8 2.631960 1_555
Co46 Y7 2.942375 1_555
Co46 Y3 2.950583 1_555
Co47 Co9 2.631960 1_555
Co47 Y6 2.942375 1_555
Co47 Y2 2.950583 1_555
Co48 Co9 2.692458 1_565
Co48 Y4 2.942375 1_555
Co48 Y1 2.950583 1_565
Co49 Co8 2.692458 1_545
Co49 Y5 2.942375 1_555
Co49 Y0 2.950583 1_545
Co50 Y7 2.942375 1_556
Co50 Y2 2.950583 1_556
Co51 Y6 2.942375 1_556
Co51 Y3 2.950583 1_556
Co52 Y5 2.942375 1_555
Co52 Y0 2.950583 1_545
Co53 Y4 2.942375 1_555
Co53 Y1 2.950583 1_565
Co54 Co9 2.631960 1_555
Co54 Y6 2.942375 1_555
Co54 Y3 2.950583 1_555
Co55 Co8 2.631960 1_555
Co55 Y7 2.942375 1_555
Co55 Y2 2.950583 1_555
B0 Co5 2.018958 1_665
B0 Co7 2.018958 1_665
B0 Co40 2.024198 1_555
B0 Co53 2.024198 1_555
B0 Co48 2.024198 1_555
B0 Co45 2.024198 1_555
B0 Y4 2.815641 1_555
B0 Y1 3.111939 1_565
B0 Y0 3.111939 1_655
B1 Co7 2.018958 1_555
B1 Co5 2.018958 1_555
B1 Co44 2.024198 1_555
B1 Co41 2.024198 1_555
B1 Co49 2.024198 1_555
B1 Co52 2.024198 1_555
B1 Y5 2.815641 1_555
B1 Y1 3.111939 1_455
B1 Y0 3.111939 1_545
B2 Co6 2.018958 1_554
B2 Co4 2.018958 1_555
B2 Co47 2.024198 1_555
B2 Co42 2.024198 1_554
B2 Co54 2.024198 1_555
B2 Co51 2.024198 1_554
B2 Y6 2.815641 1_555
B2 Y2 3.111939 1_555
B2 Y3 3.111939 1_555
B3 Co6 2.018958 1_554
B3 Co4 2.018958 1_555
B3 Co50 2.024198 1_554
B3 Co55 2.024198 1_555
B3 Co43 2.024198 1_554
B3 Co46 2.024198 1_555
B3 Y7 2.815641 1_555
B3 Y2 3.111939 1_555
B3 Y3 3.111939 1_555
