# generated using pymatgen
data_BaYSnSbO6
_symmetry_space_group_name_H-M   'P 1'
_cell_length_a   5.92163206
_cell_length_b   5.92163206
_cell_length_c   8.51960703
_cell_angle_alpha   90.00000000
_cell_angle_beta   90.00000000
_cell_angle_gamma   90.00000000
_symmetry_Int_Tables_number   1
_chemical_formula_structural   BaYSnSbO6
_chemical_formula_sum   'Ba2 Y2 Sn2 Sb2 O12'
_cell_volume   298.74620791
_cell_formula_units_Z   2
loop_
 _symmetry_equiv_pos_site_id
 _symmetry_equiv_pos_as_xyz
  1  'x, y, z'
loop_
 _atom_site_type_symbol
 _atom_site_label
 _atom_site_symmetry_multiplicity
 _atom_site_fract_x
 _atom_site_fract_y
 _atom_site_fract_z
 _atom_site_occupancy
  Ba  Ba0  1  0.00000000  0.50000000  0.25000000  1
  Ba  Ba1  1  0.50000000  -0.00000000  0.75000000  1
  Y  Y0  1  -0.00000000  -0.00000000  0.50000000  1
  Y  Y1  1  0.50000000  0.50000000  -0.00000000  1
  Sn  Sn0  1  0.50000000  -0.00000000  0.25000000  1
  Sn  Sn1  1  -0.00000000  0.50000000  0.75000000  1
  Sb  Sb0  1  0.00000000  0.00000000  -0.00000000  1
  Sb  Sb1  1  0.50000000  0.50000000  0.50000000  1
  O  O0  1  0.00000000  0.00000000  0.23705108  1
  O  O1  1  0.50000000  0.50000000  0.26294892  1
  O  O2  1  -0.00000000  -0.00000000  0.76294892  1
  O  O3  1  0.50000000  0.50000000  0.73705108  1
  O  O4  1  0.28284883  0.18811011  0.01193515  1
  O  O5  1  0.71715117  0.81188989  0.01193515  1
  O  O6  1  0.81188989  0.28284883  0.98806485  1
  O  O7  1  0.18811011  0.71715117  0.98806485  1
  O  O8  1  0.78284883  0.31188989  0.51193515  1
  O  O9  1  0.21715117  0.68811011  0.51193515  1
  O  O10  1  0.31188989  0.21715117  0.48806485  1
  O  O11  1  0.68811011  0.78284883  0.48806485  1
loop_
_geom_bond_atom_site_label_1
_geom_bond_atom_site_label_2
_geom_bond_distance
_geom_bond_site_symmetry_2
Ba0 O9 2.806118 1_555
Ba0 O7 2.806118 1_554
Ba0 O6 2.806118 1_454
Ba0 O8 2.806118 1_455
Ba0 O0 2.962871 1_555
Ba0 O1 2.962871 1_455
Ba0 O1 2.962871 1_555
Ba0 O0 2.962871 1_565
Ba0 O5 3.214044 1_455
Ba0 O4 3.214044 1_555
Ba0 O11 3.214044 1_455
Ba0 O10 3.214044 1_555
Ba1 O10 2.806118 1_555
Ba1 O5 2.806118 1_546
Ba1 O11 2.806118 1_545
Ba1 O4 2.806118 1_556
Ba1 O3 2.962871 1_555
Ba1 O2 2.962871 1_655
Ba1 O3 2.962871 1_545
Ba1 O2 2.962871 1_555
Ba1 O9 3.214044 1_545
Ba1 O8 3.214044 1_555
Ba1 O7 3.214044 1_545
Ba1 O6 3.214044 1_555
O0 Sb0 2.019582 1_555
O0 Y0 2.240221 1_555
O1 Sb1 2.019582 1_555
O1 Y1 2.240221 1_555
O2 Sb0 2.019582 1_556
O2 Y0 2.240221 1_555
O3 Sb1 2.019582 1_555
O3 Y1 2.240221 1_556
O4 Sb0 2.014084 1_555
O4 Y1 2.252749 1_555
O4 Sn0 2.647263 1_555
O5 Sb0 2.014084 1_665
O5 Y1 2.252749 1_555
O5 Sn0 2.647263 1_565
O6 Sb0 2.014084 1_656
O6 Y1 2.252749 1_556
O6 Sn1 2.647263 1_655
O7 Sb0 2.014084 1_566
O7 Y1 2.252749 1_556
O7 Sn1 2.647263 1_555
O8 Sb1 2.014084 1_555
O8 Y0 2.252749 1_655
O8 Sn1 2.647263 1_655
O9 Sb1 2.014084 1_555
O9 Y0 2.252749 1_565
O9 Sn1 2.647263 1_555
O10 Sb1 2.014084 1_555
O10 Y0 2.252749 1_555
O10 Sn0 2.647263 1_555
O11 Sb1 2.014084 1_555
O11 Y0 2.252749 1_665
O11 Sn0 2.647263 1_565
