# generated using pymatgen
data_Ti4Mn2O
_symmetry_space_group_name_H-M   'P 1'
_cell_length_a   8.40704284
_cell_length_b   8.40704284
_cell_length_c   8.40704284
_cell_angle_alpha   60.00000000
_cell_angle_beta   60.00000000
_cell_angle_gamma   60.00000000
_symmetry_Int_Tables_number   1
_chemical_formula_structural   Ti4Mn2O
_chemical_formula_sum   'Ti16 Mn8 O4'
_cell_volume   420.16007619
_cell_formula_units_Z   4
loop_
 _symmetry_equiv_pos_site_id
 _symmetry_equiv_pos_as_xyz
  1  'x, y, z'
loop_
 _atom_site_type_symbol
 _atom_site_label
 _atom_site_symmetry_multiplicity
 _atom_site_fract_x
 _atom_site_fract_y
 _atom_site_fract_z
 _atom_site_occupancy
  Ti  Ti0  1  0.32022500  0.32022500  0.67977500  1
  Ti  Ti1  1  0.67977500  0.32022500  0.67977500  1
  Ti  Ti2  1  0.32022500  0.67977500  0.67977500  1
  Ti  Ti3  1  0.67977500  0.67977500  0.32022500  1
  Ti  Ti4  1  0.32022500  0.67977500  0.32022500  1
  Ti  Ti5  1  0.67977500  0.32022500  0.32022500  1
  Ti  Ti6  1  0.42984700  0.42984700  0.07015300  1
  Ti  Ti7  1  0.07015300  0.42984700  0.07015300  1
  Ti  Ti8  1  0.42984700  0.07015300  0.07015300  1
  Ti  Ti9  1  0.07015300  0.07015300  0.42984700  1
  Ti  Ti10  1  0.42984700  0.07015300  0.42984700  1
  Ti  Ti11  1  0.07015300  0.42984700  0.42984700  1
  Ti  Ti12  1  0.08608900  0.08608900  0.74173300  1
  Ti  Ti13  1  0.08608900  0.74173300  0.08608900  1
  Ti  Ti14  1  0.74173300  0.08608900  0.08608900  1
  Ti  Ti15  1  0.08608900  0.08608900  0.08608900  1
  Mn  Mn0  1  0.87505300  0.87505300  0.37484000  1
  Mn  Mn1  1  0.87505300  0.37484000  0.87505300  1
  Mn  Mn2  1  0.37484000  0.87505300  0.87505300  1
  Mn  Mn3  1  0.87505300  0.87505300  0.87505300  1
  Mn  Mn4  1  0.66113400  0.66113400  0.01659800  1
  Mn  Mn5  1  0.66113400  0.01659800  0.66113400  1
  Mn  Mn6  1  0.01659800  0.66113400  0.66113400  1
  Mn  Mn7  1  0.66113400  0.66113400  0.66113400  1
  O  O0  1  0.37511300  0.37511300  0.87466200  1
  O  O1  1  0.37511300  0.87466200  0.37511300  1
  O  O2  1  0.87466200  0.37511300  0.37511300  1
  O  O3  1  0.37511300  0.37511300  0.37511300  1
loop_
_geom_bond_atom_site_label_1
_geom_bond_atom_site_label_2
_geom_bond_distance
_geom_bond_site_symmetry_2
Ti0 Ti12 3.137580 1_555
Ti0 Ti15 3.137580 1_556
Ti1 Ti14 3.137580 1_556
Ti1 Ti12 3.137580 1_655
Ti10 Ti14 2.762519 1_555
Ti10 Ti12 2.762519 1_555
Ti11 Ti13 2.762519 1_555
Ti11 Ti12 2.762519 1_555
Ti12 Ti9 2.762519 1_555
Ti12 Ti13 2.895016 1_546
Ti12 Ti15 2.895016 1_556
Ti12 Ti14 2.895016 1_456
Ti12 Ti2 3.137580 1_545
Ti13 Ti7 2.762519 1_555
Ti13 Ti6 2.762519 1_555
Ti13 Ti14 2.895016 1_465
Ti13 Ti15 2.895016 1_565
Ti13 Ti2 3.137580 1_554
Ti13 Ti3 3.137580 1_455
Ti13 Ti4 3.137580 1_555
Ti14 Ti6 2.762519 1_555
Ti14 Ti8 2.762519 1_555
Ti14 Ti15 2.895016 1_655
Ti14 Ti3 3.137580 1_545
Ti14 Ti5 3.137580 1_555
Ti15 Ti9 2.762519 1_555
Ti15 Ti7 2.762519 1_555
Ti15 Ti8 2.762519 1_555
Ti15 Ti5 3.137580 1_455
Ti15 Ti4 3.137580 1_545
Mn0 Ti13 2.592747 1_655
Mn0 Ti14 2.592747 1_565
Mn0 Ti15 2.592752 1_665
Mn0 Mn7 2.615128 1_555
Mn0 Mn5 2.615133 1_565
Mn0 Mn6 2.615133 1_655
Mn0 Ti11 3.130773 1_655
Mn0 Ti10 3.130773 1_565
Mn0 Ti9 3.130780 1_665
Mn0 Ti3 3.131141 1_555
Mn0 Ti5 3.131148 1_565
Mn0 Ti4 3.131148 1_655
Mn1 Ti12 2.592747 1_655
Mn1 Ti14 2.592747 1_556
Mn1 Ti15 2.592752 1_656
Mn1 Mn7 2.615128 1_555
Mn1 Mn6 2.615133 1_655
Mn1 Mn4 2.615133 1_556
Mn1 Ti6 3.130773 1_556
Mn1 Ti11 3.130773 1_655
Mn1 Ti7 3.130780 1_656
Mn1 Ti1 3.131141 1_555
Mn1 Ti5 3.131148 1_556
Mn1 Ti0 3.131148 1_655
Mn2 Ti13 2.592747 1_556
Mn2 Ti12 2.592747 1_565
Mn2 Ti15 2.592752 1_566
Mn2 Mn7 2.615128 1_555
Mn2 Mn4 2.615133 1_556
Mn2 Mn5 2.615133 1_565
Mn2 Ti10 3.130773 1_565
Mn2 Ti6 3.130773 1_556
Mn2 Ti8 3.130780 1_566
Mn2 Ti2 3.131141 1_555
Mn2 Ti4 3.131148 1_556
Mn2 Ti0 3.131148 1_565
Mn3 Ti14 2.592754 1_566
Mn3 Ti13 2.592754 1_656
Mn3 Ti12 2.592754 1_665
Mn3 Mn4 2.615126 1_556
Mn3 Mn6 2.615126 1_655
Mn3 Mn5 2.615126 1_565
Mn3 Ti8 3.130775 1_566
Mn3 Ti7 3.130775 1_656
Mn3 Ti9 3.130775 1_665
Mn3 Ti3 3.131147 1_556
Mn3 Ti1 3.131147 1_565
Mn3 Ti2 3.131147 1_655
Mn4 Ti5 2.718371 1_555
Mn4 Ti4 2.718371 1_555
Mn4 Ti3 2.718371 1_555
Mn4 Mn7 2.988401 1_554
Mn4 Mn5 2.988401 1_564
Mn4 Mn6 2.988401 1_654
Mn4 Ti6 3.129589 1_555
Mn4 Ti7 3.129589 1_655
Mn4 Ti8 3.129589 1_565
Mn5 Ti5 2.718371 1_555
Mn5 Ti0 2.718371 1_555
Mn5 Ti1 2.718371 1_555
Mn5 Mn7 2.988401 1_545
Mn5 Mn6 2.988401 1_645
Mn5 Ti10 3.129589 1_555
Mn5 Ti9 3.129589 1_655
Mn5 Ti8 3.129589 1_556
Mn6 Ti4 2.718371 1_555
Mn6 Ti0 2.718371 1_555
Mn6 Ti2 2.718371 1_555
Mn6 Mn7 2.988401 1_455
Mn6 Ti11 3.129589 1_555
Mn6 Ti9 3.129589 1_565
Mn6 Ti7 3.129589 1_556
Mn7 Ti3 2.718371 1_555
Mn7 Ti1 2.718371 1_555
Mn7 Ti2 2.718371 1_555
Mn7 Ti6 3.129589 1_556
Mn7 Ti11 3.129589 1_655
Mn7 Ti10 3.129589 1_565
O0 Ti1 2.198929 1_555
O0 Ti2 2.198929 1_555
O0 Ti0 2.198935 1_555
O0 Ti6 2.202006 1_556
O0 Ti7 2.202012 1_556
O0 Ti8 2.202012 1_556
O1 Ti3 2.198929 1_555
O1 Ti2 2.198929 1_555
O1 Ti4 2.198935 1_555
O1 Ti10 2.202006 1_565
O1 Ti8 2.202012 1_565
O1 Ti9 2.202012 1_565
O2 Ti3 2.198929 1_555
O2 Ti1 2.198929 1_555
O2 Ti5 2.198935 1_555
O2 Ti11 2.202006 1_655
O2 Ti7 2.202012 1_655
O2 Ti9 2.202012 1_655
O3 Ti0 2.198927 1_555
O3 Ti4 2.198927 1_555
O3 Ti5 2.198927 1_555
O3 Ti10 2.202014 1_555
O3 Ti11 2.202014 1_555
O3 Ti6 2.202014 1_555
