# generated using pymatgen
data_Cd4SnN4
_symmetry_space_group_name_H-M   'P 1'
_cell_length_a   6.07803506
_cell_length_b   6.10833674
_cell_length_c   9.17157156
_cell_angle_alpha   68.23301853
_cell_angle_beta   86.50721923
_cell_angle_gamma   68.60342536
_symmetry_Int_Tables_number   1
_chemical_formula_structural   Cd4SnN4
_chemical_formula_sum   'Cd8 Sn2 N8'
_cell_volume   293.34525778
_cell_formula_units_Z   2
loop_
 _symmetry_equiv_pos_site_id
 _symmetry_equiv_pos_as_xyz
  1  'x, y, z'
loop_
 _atom_site_type_symbol
 _atom_site_label
 _atom_site_symmetry_multiplicity
 _atom_site_fract_x
 _atom_site_fract_y
 _atom_site_fract_z
 _atom_site_occupancy
  Cd  Cd0  1  0.71828000  0.63026900  0.20712200  1
  Cd  Cd1  1  0.28172000  0.36973100  0.79287800  1
  Cd  Cd2  1  0.75343900  0.23806900  0.99701800  1
  Cd  Cd3  1  0.24656100  0.76193100  0.00298200  1
  Cd  Cd4  1  0.74353400  0.48955600  0.58832100  1
  Cd  Cd5  1  0.25646600  0.51044400  0.41167900  1
  Cd  Cd6  1  0.24765100  0.91761500  0.58340700  1
  Cd  Cd7  1  0.75234900  0.08238500  0.41659300  1
  Sn  Sn0  1  0.72279400  0.84522600  0.78732500  1
  Sn  Sn1  1  0.27720600  0.15477400  0.21267500  1
  N  N0  1  0.95125800  0.70918700  0.62501400  1
  N  N1  1  0.04874200  0.29081300  0.37498600  1
  N  N2  1  0.85219100  0.83631300  0.99269100  1
  N  N3  1  0.14780900  0.16368700  0.00730900  1
  N  N4  1  0.47568600  0.66593300  0.81151300  1
  N  N5  1  0.52431400  0.33406700  0.18848700  1
  N  N6  1  0.44495700  0.77654800  0.36821400  1
  N  N7  1  0.55504300  0.22345200  0.63178600  1
loop_
_geom_bond_atom_site_label_1
_geom_bond_atom_site_label_2
_geom_bond_distance
_geom_bond_site_symmetry_2
Cd0 N2 2.197929 1_554
Cd0 N6 2.310427 1_555
Cd0 N1 2.382102 1_655
Cd0 N5 2.550082 1_555
Cd1 N3 2.197929 1_556
Cd1 N7 2.310427 1_555
Cd1 N0 2.382102 1_455
Cd1 N4 2.550082 1_555
Cd2 N3 2.272015 1_656
Cd2 N5 2.288440 1_556
Cd2 N2 2.319232 1_545
Cd2 N4 2.531408 1_555
Cd3 N2 2.272015 1_454
Cd3 N4 2.288440 1_554
Cd3 N3 2.319232 1_565
Cd3 N5 2.531408 1_555
Cd4 N7 2.221724 1_555
Cd4 N0 2.264870 1_555
Cd4 N6 2.437667 1_555
Cd4 N4 2.819793 1_555
Cd5 N6 2.221724 1_555
Cd5 N1 2.264870 1_555
Cd5 N7 2.437667 1_555
Cd5 N5 2.819793 1_555
Cd6 N4 2.252667 1_555
Cd6 N1 2.313246 1_565
Cd6 N0 2.498254 1_455
Cd6 N6 2.508971 1_555
Cd7 N5 2.252667 1_555
Cd7 N0 2.313246 1_545
Cd7 N1 2.498254 1_655
Cd7 N7 2.508971 1_555
N0 Sn0 2.158351 1_555
N1 Sn1 2.158351 1_555
N2 Sn0 2.059707 1_555
N3 Sn1 2.059707 1_555
N4 Sn0 2.117504 1_555
N5 Sn1 2.117504 1_555
N6 Sn1 2.103885 1_565
N7 Sn0 2.103885 1_545
