# generated using pymatgen
data_Cs2Zn5P6(HO2)14
_symmetry_space_group_name_H-M   'P 1'
_cell_length_a   8.84692325
_cell_length_b   10.09675857
_cell_length_c   10.05087918
_cell_angle_alpha   114.05135917
_cell_angle_beta   112.79884518
_cell_angle_gamma   95.04983720
_symmetry_Int_Tables_number   1
_chemical_formula_structural   Cs2Zn5P6(HO2)14
_chemical_formula_sum   'Cs2 Zn5 P6 H14 O28'
_cell_volume   722.82143236
_cell_formula_units_Z   1
loop_
 _symmetry_equiv_pos_site_id
 _symmetry_equiv_pos_as_xyz
  1  'x, y, z'
loop_
 _atom_site_type_symbol
 _atom_site_label
 _atom_site_symmetry_multiplicity
 _atom_site_fract_x
 _atom_site_fract_y
 _atom_site_fract_z
 _atom_site_occupancy
  Cs  Cs0  1  0.00320700  0.46188500  0.72757500  1
  Cs  Cs1  1  0.99679300  0.53811500  0.27242500  1
  Zn  Zn0  1  0.55988500  0.17207100  0.71168800  1
  Zn  Zn1  1  0.44011500  0.82792900  0.28831200  1
  Zn  Zn2  1  0.09706800  0.15925000  0.93833800  1
  Zn  Zn3  1  0.90293200  0.84075000  0.06166200  1
  Zn  Zn4  1  0.50000000  0.50000000  0.50000000  1
  P  P0  1  0.66797500  0.07117000  0.99105200  1
  P  P1  1  0.33202500  0.92883000  0.00894800  1
  P  P2  1  0.62186500  0.52013400  0.86729300  1
  P  P3  1  0.37813500  0.47986600  0.13270700  1
  P  P4  1  0.80614400  0.05328400  0.56212600  1
  P  P5  1  0.19385600  0.94671600  0.43787400  1
  H  H0  1  0.70916100  0.76797400  0.54879200  1
  H  H1  1  0.29083900  0.23202600  0.45120800  1
  H  H2  1  0.81762100  0.74331400  0.70522000  1
  H  H3  1  0.18237900  0.25668600  0.29478000  1
  H  H4  1  0.38490800  0.64450500  0.71417500  1
  H  H5  1  0.61509200  0.35549500  0.28582500  1
  H  H6  1  0.36772700  0.74302400  0.62458300  1
  H  H7  1  0.63227300  0.25697600  0.37541700  1
  H  H8  1  0.37653700  0.08003500  0.27970800  1
  H  H9  1  0.62346300  0.91996500  0.72029200  1
  H  H10  1  0.44511700  0.61071800  0.96621700  1
  H  H11  1  0.55488300  0.38928200  0.03378300  1
  H  H12  1  0.91334800  0.03274600  0.38639000  1
  H  H13  1  0.08665200  0.96725400  0.61361000  1
  O  O0  1  0.72421600  0.93757700  0.00796500  1
  O  O1  1  0.27578400  0.06242300  0.99203500  1
  O  O2  1  0.83838800  0.21084900  0.06048800  1
  O  O3  1  0.16161200  0.78915100  0.93951200  1
  O  O4  1  0.57999100  0.00150900  0.77472100  1
  O  O5  1  0.42000900  0.99849100  0.22527900  1
  O  O6  1  0.01564200  0.18890600  0.09873000  1
  O  O7  1  0.98435800  0.81109400  0.90127000  1
  O  O8  1  0.59135200  0.37298800  0.88305700  1
  O  O9  1  0.40864800  0.62701200  0.11694300  1
  O  O10  1  0.62102400  0.48423500  0.70468200  1
  O  O11  1  0.37897600  0.51576500  0.29531800  1
  O  O12  1  0.78608600  0.63656200  0.02014400  1
  O  O13  1  0.21391400  0.36343800  0.97985600  1
  O  O14  1  0.45947200  0.58287900  0.86334800  1
  O  O15  1  0.54052800  0.41712100  0.13665200  1
  O  O16  1  0.67658900  0.89338400  0.46513900  1
  O  O17  1  0.32341100  0.10661600  0.53486100  1
  O  O18  1  0.97265700  0.05337600  0.69277100  1
  O  O19  1  0.02734300  0.94662400  0.30722900  1
  O  O20  1  0.73243800  0.17971100  0.63665900  1
  O  O21  1  0.26756200  0.82028900  0.36334100  1
  O  O22  1  0.85198700  0.09591300  0.44372800  1
  O  O23  1  0.14801300  0.90408700  0.55627200  1
  O  O24  1  0.70265300  0.71124400  0.60800700  1
  O  O25  1  0.29734700  0.28875600  0.39199300  1
  O  O26  1  0.34557000  0.63856500  0.60426900  1
  O  O27  1  0.65443000  0.36143500  0.39573100  1
loop_
_geom_bond_atom_site_label_1
_geom_bond_atom_site_label_2
_geom_bond_distance
_geom_bond_site_symmetry_2
Cs0 O3 2.924720 1_555
Cs0 O13 3.099978 1_555
Cs0 O20 3.109723 1_455
Cs0 O27 3.223335 1_455
Cs0 O10 3.333123 1_455
Cs0 O22 3.340941 1_455
Cs1 O2 2.924720 1_555
Cs1 O12 3.099978 1_555
Cs1 O21 3.109723 1_655
Cs1 O26 3.223335 1_655
Cs1 O11 3.333123 1_655
Cs1 O23 3.340941 1_655
H0 O24 0.992092 1_555
H1 O25 0.992092 1_555
H2 O24 1.003989 1_555
H3 O25 1.003989 1_555
H4 O26 0.994663 1_555
H5 O27 0.994663 1_555
H6 O26 0.974452 1_555
H7 O27 0.974452 1_555
H8 O5 0.988293 1_545
H9 O4 0.988293 1_565
H10 O14 1.017494 1_555
H10 O9 1.615909 1_556
H11 O15 1.017494 1_555
H11 O8 1.615909 1_554
H12 O22 1.018522 1_555
H12 O19 1.618194 1_645
H13 O23 1.018522 1_555
H13 O18 1.618194 1_465
O0 P0 1.528193 1_564
O0 Zn3 1.946220 1_555
O1 P1 1.528193 1_546
O1 Zn2 1.946220 1_555
O2 P0 1.660412 1_554
O3 P1 1.660412 1_556
O4 P0 1.781477 1_555
O4 Zn0 2.062673 1_555
O5 P1 1.781477 1_555
O5 Zn1 2.062673 1_555
O6 Zn2 1.936984 1_554
O7 Zn3 1.936984 1_556
O8 P2 1.568340 1_555
O8 Zn0 1.959682 1_555
O9 P3 1.568340 1_555
O9 Zn1 1.959682 1_555
O10 P2 1.519826 1_555
O10 Zn4 1.998449 1_555
O11 P3 1.519826 1_555
O11 Zn4 1.998449 1_555
O12 P2 1.533082 1_554
O12 Zn3 2.020480 1_555
O13 P3 1.533082 1_556
O13 Zn2 2.020480 1_555
O14 P2 1.613544 1_555
O15 P3 1.613544 1_555
O16 P4 1.547897 1_565
O16 Zn1 1.972266 1_555
O17 P5 1.547897 1_545
O17 Zn0 1.972266 1_555
O18 P4 1.547248 1_555
O18 Zn2 1.995724 1_655
O19 P5 1.547248 1_555
O19 Zn3 1.995724 1_455
O20 P4 1.536714 1_555
O20 Zn0 1.955473 1_555
O21 P5 1.536714 1_555
O21 Zn1 1.955473 1_555
O22 P4 1.589545 1_555
O23 P5 1.589545 1_555
O24 Zn4 2.207519 1_555
O25 Zn4 2.207519 1_555
O26 Zn4 2.274479 1_555
O27 Zn4 2.274479 1_555
