# generated using pymatgen
data_Ca10Si3Pt7
_symmetry_space_group_name_H-M   'P 1'
_cell_length_a   8.77557928
_cell_length_b   8.77557309
_cell_length_c   13.84222100
_cell_angle_alpha   89.99993236
_cell_angle_beta   90.00002984
_cell_angle_gamma   120.00005260
_symmetry_Int_Tables_number   1
_chemical_formula_structural   Ca10Si3Pt7
_chemical_formula_sum   'Ca20 Si6 Pt14'
_cell_volume   923.18228513
_cell_formula_units_Z   2
loop_
 _symmetry_equiv_pos_site_id
 _symmetry_equiv_pos_as_xyz
  1  'x, y, z'
loop_
 _atom_site_type_symbol
 _atom_site_label
 _atom_site_symmetry_multiplicity
 _atom_site_fract_x
 _atom_site_fract_y
 _atom_site_fract_z
 _atom_site_occupancy
  Ca  Ca0  1  -0.00000011  0.74079438  0.89308724  1
  Ca  Ca1  1  0.25920571  0.25920548  0.89308706  1
  Ca  Ca2  1  0.74079402  0.00000022  0.89308685  1
  Ca  Ca3  1  0.99999987  0.25919685  0.10687456  1
  Ca  Ca4  1  0.74080236  0.74080309  0.10687481  1
  Ca  Ca5  1  0.25919780  0.00000054  0.10687503  1
  Ca  Ca6  1  0.00000000  0.25919722  0.39312622  1
  Ca  Ca7  1  0.74080258  0.74080237  0.39312599  1
  Ca  Ca8  1  0.25919733  0.00000030  0.39312625  1
  Ca  Ca9  1  0.00000003  0.74079464  0.60691312  1
  Ca  Ca10  1  0.25920559  0.25920560  0.60691295  1
  Ca  Ca11  1  0.74079443  -0.00000013  0.60691302  1
  Ca  Ca12  1  0.66666673  0.33333348  0.99998262  1
  Ca  Ca13  1  0.33333273  0.66666649  0.99998274  1
  Ca  Ca14  1  0.33333326  0.66666646  0.50001796  1
  Ca  Ca15  1  0.66666651  0.33333343  0.50001781  1
  Ca  Ca16  1  0.33333312  0.66666710  0.74999875  1
  Ca  Ca17  1  0.66666637  0.33333221  0.74999866  1
  Ca  Ca18  1  0.66666640  0.33333246  0.25000207  1
  Ca  Ca19  1  0.33333340  0.66666732  0.25000256  1
  Si  Si0  1  0.00000010  0.28517772  0.74999699  1
  Si  Si1  1  0.71482194  0.71482192  0.74999741  1
  Si  Si2  1  0.28517805  -0.00000001  0.74999734  1
  Si  Si3  1  -0.00000007  0.71481461  0.25000271  1
  Si  Si4  1  0.28518559  0.28518576  0.25000227  1
  Si  Si5  1  0.71481434  0.00000002  0.25000216  1
  Pt  Pt0  1  0.00000047  0.00000031  0.74999912  1
  Pt  Pt1  1  0.00000011  0.00000071  0.25000149  1
  Pt  Pt2  1  0.00000070  0.40765863  0.90239354  1
  Pt  Pt3  1  0.59234121  0.59234100  0.90239449  1
  Pt  Pt4  1  0.40765866  -0.00000027  0.90239459  1
  Pt  Pt5  1  -0.00000047  0.59238521  0.09758854  1
  Pt  Pt6  1  0.40761473  0.40761420  0.09758767  1
  Pt  Pt7  1  0.59238465  -0.00000039  0.09758757  1
  Pt  Pt8  1  -0.00000019  0.59238718  0.40241682  1
  Pt  Pt9  1  0.40761247  0.40761254  0.40241608  1
  Pt  Pt10  1  0.59238720  0.00000021  0.40241606  1
  Pt  Pt11  1  0.99999978  0.40765553  0.59759934  1
  Pt  Pt12  1  0.59234445  0.59234438  0.59759975  1
  Pt  Pt13  1  0.40765616  0.00000024  0.59759978  1
loop_
_geom_bond_atom_site_label_1
_geom_bond_atom_site_label_2
_geom_bond_distance
_geom_bond_site_symmetry_2
Ca0 Pt2 2.926297 1_555
Ca0 Pt0 3.016149 1_565
Ca0 Si2 3.109285 1_565
Ca0 Si1 3.109285 1_455
Ca0 Pt5 3.115979 1_556
Ca0 Pt4 3.138679 1_565
Ca0 Pt3 3.138679 1_455
Ca1 Pt3 2.926291 1_555
Ca1 Pt0 3.016146 1_555
Ca1 Si2 3.109285 1_555
Ca1 Si0 3.109287 1_555
Ca1 Pt6 3.115972 1_556
Ca1 Pt2 3.138676 1_555
Ca1 Pt4 3.138680 1_555
Ca2 Pt4 2.926291 1_555
Ca2 Pt0 3.016154 1_655
Ca2 Si0 3.109283 1_655
Ca2 Si1 3.109286 1_545
Ca2 Pt7 3.115975 1_556
Ca2 Pt2 3.138676 1_655
Ca2 Pt3 3.138682 1_545
Ca3 Pt5 2.926744 1_655
Ca3 Pt1 3.016439 1_655
Ca3 Si5 3.109621 1_555
Ca3 Si4 3.109624 1_655
Ca3 Pt2 3.115916 1_654
Ca3 Pt6 3.138358 1_655
Ca3 Pt7 3.138359 1_555
Ca4 Pt6 2.926741 1_555
Ca4 Pt1 3.016449 1_665
Ca4 Si5 3.109620 1_565
Ca4 Si3 3.109629 1_655
Ca4 Pt3 3.115911 1_554
Ca4 Pt7 3.138353 1_565
Ca4 Pt5 3.138360 1_655
Ca5 Pt7 2.926737 1_555
Ca5 Pt1 3.016449 1_555
Ca5 Si4 3.109621 1_555
Ca5 Si3 3.109625 1_545
Ca5 Pt4 3.115911 1_554
Ca5 Pt6 3.138347 1_555
Ca5 Pt5 3.138359 1_545
Ca6 Pt8 2.926761 1_555
Ca6 Pt1 3.016425 1_555
Ca6 Si4 3.109593 1_555
Ca6 Si5 3.109593 1_455
Ca6 Pt11 3.115809 1_455
Ca6 Pt9 3.138343 1_555
Ca6 Pt10 3.138344 1_455
Ca7 Pt9 2.926758 1_555
Ca7 Pt1 3.016428 1_665
Ca7 Si3 3.109586 1_655
Ca7 Si5 3.109591 1_565
Ca7 Pt12 3.115813 1_555
Ca7 Pt8 3.138344 1_655
Ca7 Pt10 3.138350 1_565
Ca8 Pt10 2.926761 1_555
Ca8 Pt1 3.016430 1_555
Ca8 Si3 3.109589 1_545
Ca8 Si4 3.109589 1_555
Ca8 Pt13 3.115814 1_555
Ca8 Pt9 3.138339 1_555
Ca8 Pt8 3.138345 1_545
Ca9 Pt11 2.926327 1_455
Ca9 Pt0 3.016132 1_565
Ca9 Si2 3.109235 1_565
Ca9 Si1 3.109238 1_455
Ca9 Pt8 3.115913 1_555
Ca9 Pt12 3.138662 1_455
Ca9 Pt13 3.138665 1_565
Ca10 Pt12 2.926324 1_555
Ca10 Pt0 3.016128 1_555
Ca10 Si0 3.109235 1_555
Ca10 Si2 3.109236 1_555
Ca10 Pt9 3.115916 1_555
Ca10 Pt13 3.138664 1_555
Ca10 Pt11 3.138665 1_455
Ca11 Pt13 2.926324 1_555
Ca11 Pt0 3.016134 1_655
Ca11 Si0 3.109234 1_655
Ca11 Si1 3.109235 1_545
Ca11 Pt10 3.115920 1_555
Ca11 Pt12 3.138659 1_545
Ca11 Pt11 3.138659 1_555
Ca12 Pt3 2.983112 1_555
Ca12 Pt4 2.983117 1_555
Ca12 Pt2 2.983129 1_655
Ca12 Pt6 2.983326 1_556
Ca12 Pt7 2.983326 1_556
Ca12 Pt5 2.983329 1_656
Ca13 Pt4 2.983112 1_565
Ca13 Pt2 2.983115 1_555
Ca13 Pt3 2.983124 1_555
Ca13 Pt7 2.983324 1_566
Ca13 Pt6 2.983331 1_556
Ca13 Pt5 2.983332 1_556
Ca14 Pt11 2.983080 1_455
Ca14 Pt12 2.983084 1_555
Ca14 Pt13 2.983086 1_565
Ca14 Pt8 2.983309 1_555
Ca14 Pt10 2.983312 1_565
Ca14 Pt9 2.983312 1_555
Ca15 Pt13 2.983080 1_555
Ca15 Pt11 2.983083 1_555
Ca15 Pt12 2.983084 1_555
Ca15 Pt8 2.983304 1_655
Ca15 Pt9 2.983311 1_555
Ca15 Pt10 2.983311 1_555
Ca16 Si2 3.157761 1_565
Ca16 Si0 3.157767 1_555
Ca16 Si1 3.157771 1_555
Ca16 Pt2 3.394717 1_555
Ca16 Pt4 3.394727 1_565
Ca16 Pt3 3.394735 1_555
Ca16 Pt13 3.394759 1_565
Ca16 Pt11 3.394769 1_455
Ca16 Pt12 3.394771 1_555
Ca17 Si2 3.157759 1_555
Ca17 Si0 3.157767 1_655
Ca17 Si1 3.157773 1_555
Ca17 Pt4 3.394725 1_555
Ca17 Pt2 3.394728 1_655
Ca17 Pt3 3.394738 1_555
Ca17 Pt13 3.394756 1_555
Ca17 Pt11 3.394767 1_555
Ca17 Pt12 3.394768 1_555
Ca18 Si5 3.157720 1_555
Ca18 Si4 3.157729 1_555
Ca18 Si3 3.157731 1_655
Ca18 Pt10 3.394974 1_555
Ca18 Pt5 3.394975 1_655
Ca18 Pt7 3.394981 1_555
Ca18 Pt6 3.394983 1_555
Ca18 Pt9 3.394989 1_555
Ca18 Pt8 3.394992 1_655
Ca19 Si5 3.157722 1_565
Ca19 Si3 3.157727 1_555
Ca19 Si4 3.157729 1_555
Ca19 Pt10 3.394977 1_565
Ca19 Pt7 3.394979 1_565
Ca19 Pt9 3.394982 1_555
Ca19 Pt5 3.394982 1_555
Ca19 Pt8 3.394987 1_555
Ca19 Pt6 3.394997 1_555
Pt0 Si0 2.502597 1_555
Pt0 Si2 2.502600 1_555
Pt0 Si1 2.502603 1_445
Pt1 Si4 2.502663 1_555
Pt1 Si5 2.502667 1_455
Pt1 Si3 2.502671 1_545
Pt2 Si0 2.367551 1_555
Pt3 Si1 2.367557 1_555
Pt4 Si2 2.367559 1_555
Pt5 Si3 2.367564 1_555
Pt6 Si4 2.367566 1_555
Pt7 Si5 2.367569 1_555
Pt8 Si3 2.367554 1_555
Pt9 Si4 2.367549 1_555
Pt10 Si5 2.367553 1_555
Pt11 Si0 2.367552 1_655
Pt12 Si1 2.367552 1_555
Pt13 Si2 2.367553 1_555
