# generated using pymatgen
data_Ce3Ge13Ir4
_symmetry_space_group_name_H-M   'P 1'
_cell_length_a   9.08807700
_cell_length_b   9.08807700
_cell_length_c   9.08807700
_cell_angle_alpha   90.00000000
_cell_angle_beta   90.00000000
_cell_angle_gamma   90.00000000
_symmetry_Int_Tables_number   1
_chemical_formula_structural   Ce3Ge13Ir4
_chemical_formula_sum   'Ce6 Ge26 Ir8'
_cell_volume   750.61284833
_cell_formula_units_Z   2
loop_
 _symmetry_equiv_pos_site_id
 _symmetry_equiv_pos_as_xyz
  1  'x, y, z'
loop_
 _atom_site_type_symbol
 _atom_site_label
 _atom_site_symmetry_multiplicity
 _atom_site_fract_x
 _atom_site_fract_y
 _atom_site_fract_z
 _atom_site_occupancy
  Ce  Ce0  1  0.00000000  0.50000000  0.75000000  1
  Ce  Ce1  1  0.50000000  0.25000000  0.00000000  1
  Ce  Ce2  1  0.75000000  0.00000000  0.50000000  1
  Ce  Ce3  1  0.00000000  0.50000000  0.25000000  1
  Ce  Ce4  1  0.50000000  0.75000000  0.00000000  1
  Ce  Ce5  1  0.25000000  0.00000000  0.50000000  1
  Ge  Ge0  1  0.50000000  0.50000000  0.50000000  1
  Ge  Ge1  1  0.00000000  0.00000000  0.00000000  1
  Ge  Ge2  1  0.80937200  0.35524000  0.50000000  1
  Ge  Ge3  1  0.64476000  0.50000000  0.80937200  1
  Ge  Ge4  1  0.50000000  0.19062800  0.64476000  1
  Ge  Ge5  1  0.19062800  0.64476000  0.50000000  1
  Ge  Ge6  1  0.35524000  0.50000000  0.19062800  1
  Ge  Ge7  1  0.50000000  0.80937200  0.35524000  1
  Ge  Ge8  1  0.80937200  0.64476000  0.50000000  1
  Ge  Ge9  1  0.64476000  0.50000000  0.19062800  1
  Ge  Ge10  1  0.19062800  0.35524000  0.50000000  1
  Ge  Ge11  1  0.35524000  0.50000000  0.80937200  1
  Ge  Ge12  1  0.50000000  0.80937200  0.64476000  1
  Ge  Ge13  1  0.50000000  0.19062800  0.35524000  1
  Ge  Ge14  1  0.30937200  0.00000000  0.85524000  1
  Ge  Ge15  1  0.14476000  0.30937200  0.00000000  1
  Ge  Ge16  1  0.00000000  0.14476000  0.69062800  1
  Ge  Ge17  1  0.69062800  0.00000000  0.14476000  1
  Ge  Ge18  1  0.85524000  0.69062800  0.00000000  1
  Ge  Ge19  1  0.00000000  0.85524000  0.30937200  1
  Ge  Ge20  1  0.30937200  0.00000000  0.14476000  1
  Ge  Ge21  1  0.14476000  0.69062800  0.00000000  1
  Ge  Ge22  1  0.69062800  0.00000000  0.85524000  1
  Ge  Ge23  1  0.85524000  0.30937200  0.00000000  1
  Ge  Ge24  1  0.00000000  0.14476000  0.30937200  1
  Ge  Ge25  1  0.00000000  0.85524000  0.69062800  1
  Ir  Ir0  1  0.75000000  0.25000000  0.75000000  1
  Ir  Ir1  1  0.25000000  0.75000000  0.25000000  1
  Ir  Ir2  1  0.75000000  0.75000000  0.25000000  1
  Ir  Ir3  1  0.25000000  0.25000000  0.75000000  1
  Ir  Ir4  1  0.25000000  0.75000000  0.75000000  1
  Ir  Ir5  1  0.75000000  0.25000000  0.25000000  1
  Ir  Ir6  1  0.25000000  0.25000000  0.25000000  1
  Ir  Ir7  1  0.75000000  0.75000000  0.75000000  1
loop_
_geom_bond_atom_site_label_1
_geom_bond_atom_site_label_2
_geom_bond_distance
_geom_bond_site_symmetry_2
Ce0 Ge23 3.145505 1_456
Ce0 Ge10 3.145505 1_555
Ce0 Ge8 3.145505 1_455
Ce0 Ge21 3.145505 1_556
Ce0 Ge18 3.145505 1_456
Ce0 Ge2 3.145505 1_455
Ce0 Ge15 3.145505 1_556
Ce0 Ge5 3.145505 1_555
Ce0 Ir3 3.213120 1_555
Ce0 Ir4 3.213120 1_555
Ce0 Ir0 3.213120 1_455
Ce0 Ir7 3.213120 1_455
Ce0 Ge3 3.273228 1_455
Ce0 Ge25 3.273228 1_555
Ce0 Ge16 3.273228 1_555
Ce0 Ge11 3.273228 1_555
Ce1 Ge3 3.145505 1_554
Ce1 Ge20 3.145505 1_555
Ce1 Ge9 3.145505 1_555
Ce1 Ge14 3.145505 1_554
Ce1 Ge11 3.145505 1_554
Ce1 Ge17 3.145505 1_555
Ce1 Ge22 3.145505 1_554
Ce1 Ge6 3.145505 1_555
Ce1 Ir3 3.213120 1_554
Ce1 Ir0 3.213120 1_554
Ce1 Ir5 3.213120 1_555
Ce1 Ir6 3.213120 1_555
Ce1 Ge15 3.273228 1_555
Ce1 Ge4 3.273228 1_554
Ce1 Ge23 3.273228 1_555
Ce1 Ge13 3.273228 1_555
Ce2 Ge13 3.145505 1_555
Ce2 Ge4 3.145505 1_555
Ce2 Ge24 3.145505 1_655
Ce2 Ge25 3.145505 1_645
Ce2 Ge12 3.145505 1_545
Ce2 Ge16 3.145505 1_655
Ce2 Ge19 3.145505 1_645
Ce2 Ge7 3.145505 1_545
Ce2 Ir0 3.213120 1_555
Ce2 Ir7 3.213120 1_545
Ce2 Ir5 3.213120 1_555
Ce2 Ir2 3.213120 1_545
Ce2 Ge22 3.273228 1_555
Ce2 Ge2 3.273228 1_555
Ce2 Ge17 3.273228 1_555
Ce2 Ge8 3.273228 1_545
Ce3 Ge23 3.145505 1_455
Ce3 Ge10 3.145505 1_555
Ce3 Ge8 3.145505 1_455
Ce3 Ge2 3.145505 1_455
Ce3 Ge18 3.145505 1_455
Ce3 Ge15 3.145505 1_555
Ce3 Ge5 3.145505 1_555
Ce3 Ge21 3.145505 1_555
Ce3 Ir5 3.213120 1_455
Ce3 Ir2 3.213120 1_455
Ce3 Ir1 3.213120 1_555
Ce3 Ir6 3.213120 1_555
Ce3 Ge19 3.273228 1_555
Ce3 Ge6 3.273228 1_555
Ce3 Ge24 3.273228 1_555
Ce3 Ge9 3.273228 1_455
Ce4 Ge3 3.145505 1_554
Ce4 Ge9 3.145505 1_555
Ce4 Ge22 3.145505 1_564
Ce4 Ge20 3.145505 1_565
Ce4 Ge14 3.145505 1_564
Ce4 Ge11 3.145505 1_554
Ce4 Ge17 3.145505 1_565
Ce4 Ge6 3.145505 1_555
Ce4 Ir1 3.213120 1_555
Ce4 Ir7 3.213120 1_554
Ce4 Ir2 3.213120 1_555
Ce4 Ir4 3.213120 1_554
Ce4 Ge18 3.273228 1_555
Ce4 Ge7 3.273228 1_555
Ce4 Ge21 3.273228 1_555
Ce4 Ge12 3.273228 1_554
Ce5 Ge13 3.145505 1_555
Ce5 Ge4 3.145505 1_555
Ce5 Ge16 3.145505 1_555
Ce5 Ge25 3.145505 1_545
Ce5 Ge19 3.145505 1_545
Ce5 Ge12 3.145505 1_545
Ce5 Ge24 3.145505 1_555
Ce5 Ge7 3.145505 1_545
Ce5 Ir3 3.213120 1_555
Ce5 Ir4 3.213120 1_545
Ce5 Ir1 3.213120 1_545
Ce5 Ir6 3.213120 1_555
Ce5 Ge14 3.273228 1_555
Ce5 Ge10 3.273228 1_555
Ce5 Ge20 3.273228 1_555
Ce5 Ge5 3.273228 1_545
Ge0 Ge2 3.104167 1_555
Ge0 Ge6 3.104167 1_555
Ge0 Ge10 3.104167 1_555
Ge0 Ge4 3.104167 1_555
Ge0 Ge11 3.104167 1_555
Ge0 Ge3 3.104167 1_555
Ge0 Ge9 3.104167 1_555
Ge0 Ge13 3.104167 1_555
Ge0 Ge8 3.104167 1_555
Ge0 Ge5 3.104167 1_555
Ge0 Ge7 3.104167 1_555
Ge0 Ge12 3.104167 1_555
Ge1 Ge16 3.104167 1_554
Ge1 Ge23 3.104167 1_455
Ge1 Ge21 3.104167 1_545
Ge1 Ge20 3.104167 1_555
Ge1 Ge17 3.104167 1_455
Ge1 Ge25 3.104167 1_544
Ge1 Ge14 3.104167 1_554
Ge1 Ge18 3.104167 1_445
Ge1 Ge19 3.104167 1_545
Ge1 Ge22 3.104167 1_454
Ge1 Ge24 3.104167 1_555
Ge1 Ge15 3.104167 1_555
Ge2 Ir5 2.523484 1_555
Ge2 Ir0 2.523484 1_555
Ge2 Ge8 2.631180 1_555
Ge3 Ir7 2.523484 1_555
Ge3 Ir0 2.523484 1_555
Ge4 Ir3 2.523484 1_555
Ge4 Ir0 2.523484 1_555
Ge5 Ir1 2.523484 1_555
Ge5 Ir4 2.523484 1_555
Ge6 Ir6 2.523484 1_555
Ge6 Ir1 2.523484 1_555
Ge6 Ge9 2.631180 1_555
Ge7 Ir2 2.523484 1_555
Ge7 Ir1 2.523484 1_555
Ge8 Ir2 2.523484 1_555
Ge8 Ir7 2.523484 1_555
Ge9 Ir2 2.523484 1_555
Ge9 Ir5 2.523484 1_555
Ge10 Ir3 2.523484 1_555
Ge10 Ir6 2.523484 1_555
Ge10 Ge5 2.631180 1_555
Ge11 Ir3 2.523484 1_555
Ge11 Ir4 2.523484 1_555
Ge11 Ge3 2.631180 1_555
Ge12 Ir7 2.523484 1_555
Ge12 Ir4 2.523484 1_555
Ge12 Ge7 2.631180 1_555
Ge13 Ir6 2.523484 1_555
Ge13 Ir5 2.523484 1_555
Ge13 Ge4 2.631180 1_555
Ge14 Ir3 2.523484 1_555
Ge14 Ir4 2.523484 1_545
Ge14 Ge20 2.631180 1_556
Ge15 Ir6 2.523484 1_555
Ge15 Ir3 2.523484 1_554
Ge15 Ge23 2.631180 1_455
Ge16 Ir3 2.523484 1_555
Ge16 Ir0 2.523484 1_455
Ge16 Ge25 2.631180 1_545
Ge17 Ir2 2.523484 1_545
Ge17 Ir5 2.523484 1_555
Ge17 Ge22 2.631180 1_554
Ge18 Ir2 2.523484 1_555
Ge18 Ir7 2.523484 1_554
Ge18 Ge21 2.631180 1_655
Ge19 Ir2 2.523484 1_455
Ge19 Ir1 2.523484 1_555
Ge19 Ge24 2.631180 1_565
Ge20 Ir6 2.523484 1_555
Ge20 Ir1 2.523484 1_545
Ge21 Ir4 2.523484 1_554
Ge21 Ir1 2.523484 1_555
Ge22 Ir0 2.523484 1_555
Ge22 Ir7 2.523484 1_545
Ge23 Ir0 2.523484 1_554
Ge23 Ir5 2.523484 1_555
Ge24 Ir5 2.523484 1_455
Ge24 Ir6 2.523484 1_555
Ge25 Ir7 2.523484 1_455
Ge25 Ir4 2.523484 1_555
