# generated using pymatgen
data_Pr2In
_symmetry_space_group_name_H-M   'P 1'
_cell_length_a   5.61339016
_cell_length_b   5.61339016
_cell_length_c   7.00204808
_cell_angle_alpha   90.00000000
_cell_angle_beta   90.00000000
_cell_angle_gamma   119.99999552
_symmetry_Int_Tables_number   1
_chemical_formula_structural   Pr2In
_chemical_formula_sum   'Pr4 In2'
_cell_volume   191.07602494
_cell_formula_units_Z   2
loop_
 _symmetry_equiv_pos_site_id
 _symmetry_equiv_pos_as_xyz
  1  'x, y, z'
loop_
 _atom_site_type_symbol
 _atom_site_label
 _atom_site_symmetry_multiplicity
 _atom_site_fract_x
 _atom_site_fract_y
 _atom_site_fract_z
 _atom_site_occupancy
  Pr  Pr0  1  -0.00000000  0.00000000  0.50000000  1
  Pr  Pr1  1  -0.00000000  0.00000000  0.00000000  1
  Pr  Pr2  1  0.33333300  0.66666700  0.75003954  1
  Pr  Pr3  1  0.66666700  0.33333300  0.24996046  1
  In  In0  1  0.66666700  0.33333300  0.75002736  1
  In  In1  1  0.33333300  0.66666700  0.24997264  1
loop_
_geom_bond_atom_site_label_1
_geom_bond_atom_site_label_2
_geom_bond_distance
_geom_bond_site_symmetry_2
Pr0 Pr1 3.501024 1_556
Pr0 Pr1 3.501024 1_555
Pr0 Pr3 3.683561 1_455
Pr0 Pr2 3.683561 1_545
Pr0 Pr2 3.683566 1_445
Pr0 Pr3 3.683566 1_445
Pr0 Pr2 3.683566 1_555
Pr0 Pr3 3.683566 1_555
Pr1 Pr2 3.683298 1_544
Pr1 Pr3 3.683298 1_455
Pr1 Pr2 3.683303 1_554
Pr1 Pr2 3.683303 1_444
Pr1 Pr3 3.683303 1_555
Pr1 Pr3 3.683303 1_445
In0 Pr2 3.240889 1_545
In0 Pr2 3.240889 1_655
In0 Pr2 3.240899 1_555
In0 Pr3 3.500556 1_556
In0 Pr3 3.501492 1_555
In0 Pr1 3.683339 1_656
In0 Pr1 3.683343 1_556
In0 Pr1 3.683343 1_666
In0 Pr0 3.683521 1_655
In0 Pr0 3.683525 1_555
In0 Pr0 3.683525 1_665
In1 Pr3 3.240889 1_455
In1 Pr3 3.240889 1_565
In1 Pr3 3.240899 1_555
In1 Pr2 3.500556 1_554
In1 Pr2 3.501492 1_555
In1 Pr1 3.683339 1_565
In1 Pr1 3.683343 1_555
In1 Pr1 3.683343 1_665
In1 Pr0 3.683521 1_565
In1 Pr0 3.683525 1_555
In1 Pr0 3.683525 1_665
