# generated using pymatgen
data_K2Zn3GeAs4
_symmetry_space_group_name_H-M   'P 1'
_cell_length_a   7.85671131
_cell_length_b   7.85671131
_cell_length_c   5.83328300
_cell_angle_alpha   90.00000000
_cell_angle_beta   90.00000000
_cell_angle_gamma   136.32574968
_symmetry_Int_Tables_number   1
_chemical_formula_structural   K2Zn3GeAs4
_chemical_formula_sum   'K2 Zn3 Ge1 As4'
_cell_volume   248.65342074
_cell_formula_units_Z   1
loop_
 _symmetry_equiv_pos_site_id
 _symmetry_equiv_pos_as_xyz
  1  'x, y, z'
loop_
 _atom_site_type_symbol
 _atom_site_label
 _atom_site_symmetry_multiplicity
 _atom_site_fract_x
 _atom_site_fract_y
 _atom_site_fract_z
 _atom_site_occupancy
  K  K0  1  0.50000000  0.00000000  0.24742800  1
  K  K1  1  0.00000000  0.50000000  0.75257200  1
  Zn  Zn0  1  0.50000000  0.50000000  0.50000000  1
  Zn  Zn1  1  0.50000000  0.50000000  0.00000000  1
  Zn  Zn2  1  0.00000000  0.00000000  0.50000000  1
  Ge  Ge0  1  0.00000000  0.00000000  0.00000000  1
  As  As0  1  0.65021300  0.86431300  0.75698300  1
  As  As1  1  0.13568700  0.34978700  0.24301700  1
  As  As2  1  0.86431300  0.65021300  0.24301700  1
  As  As3  1  0.34978700  0.13568700  0.75698300  1
loop_
_geom_bond_atom_site_label_1
_geom_bond_atom_site_label_2
_geom_bond_distance
_geom_bond_site_symmetry_2
Ge0 Zn2 2.916641 1_555
Ge0 Zn2 2.916641 1_554
Ge0 Zn1 2.922456 1_555
Ge0 Zn1 2.922456 1_445
As0 Ge0 2.541754 1_666
As0 Zn2 2.588074 1_665
As0 Zn1 2.590105 1_556
As0 Zn0 2.635575 1_555
As0 K0 3.540343 1_566
As0 K1 3.555635 1_665
As0 K1 3.624748 1_555
As0 K0 3.631018 1_565
As1 Ge0 2.541754 1_555
As1 Zn2 2.588074 1_555
As1 Zn1 2.590105 1_555
As1 Zn0 2.635575 1_555
As1 K1 3.540343 1_554
As1 K0 3.555635 1_455
As1 K0 3.624748 1_565
As1 K1 3.631018 1_555
As2 Ge0 2.541754 1_665
As2 Zn2 2.588074 1_665
As2 Zn1 2.590105 1_555
As2 Zn0 2.635575 1_555
As2 K1 3.540343 1_654
As2 K0 3.555635 1_665
As2 K0 3.624748 1_555
As2 K1 3.631018 1_655
As3 Ge0 2.541754 1_556
As3 Zn2 2.588074 1_555
As3 Zn1 2.590105 1_556
As3 Zn0 2.635575 1_555
As3 K0 3.540343 1_556
As3 K1 3.555635 1_545
As3 K1 3.624748 1_655
As3 K0 3.631018 1_555
