# generated using pymatgen
data_CrB6H32(C4O)2
_symmetry_space_group_name_H-M   'P 1'
_cell_length_a   9.53204400
_cell_length_b   9.08366600
_cell_length_c   13.63131804
_cell_angle_alpha   90.00000000
_cell_angle_beta   120.64040570
_cell_angle_gamma   90.00000000
_symmetry_Int_Tables_number   1
_chemical_formula_structural   CrB6H32(C4O)2
_chemical_formula_sum   'Cr2 B12 H64 C16 O4'
_cell_volume   1015.49264309
_cell_formula_units_Z   2
loop_
 _symmetry_equiv_pos_site_id
 _symmetry_equiv_pos_as_xyz
  1  'x, y, z'
loop_
 _atom_site_type_symbol
 _atom_site_label
 _atom_site_symmetry_multiplicity
 _atom_site_fract_x
 _atom_site_fract_y
 _atom_site_fract_z
 _atom_site_occupancy
  Cr  Cr0  1  0.00000000  0.50000000  0.50000000  1
  Cr  Cr1  1  0.00000000  0.00000000  0.00000000  1
  B  B0  1  0.74210600  0.34856300  0.35411700  1
  B  B1  1  0.74210600  0.15143700  0.85411700  1
  B  B2  1  0.25789400  0.65143700  0.64588300  1
  B  B3  1  0.25789400  0.84856300  0.14588300  1
  B  B4  1  0.83296800  0.27067100  0.49343400  1
  B  B5  1  0.83296800  0.22932900  0.99343400  1
  B  B6  1  0.16703200  0.72932900  0.50656600  1
  B  B7  1  0.16703200  0.77067100  0.00656600  1
  B  B8  1  0.80317000  0.15870900  0.37580000  1
  B  B9  1  0.80317000  0.34129100  0.87580000  1
  B  B10  1  0.19683000  0.84129100  0.62420000  1
  B  B11  1  0.19683000  0.65870900  0.12420000  1
  H  H0  1  0.97139600  0.31397100  0.56447000  1
  H  H1  1  0.97139600  0.18602900  0.06447000  1
  H  H2  1  0.02860400  0.68602900  0.43553000  1
  H  H3  1  0.02860400  0.81397100  0.93553000  1
  H  H4  1  0.74214000  0.27302700  0.53044100  1
  H  H5  1  0.74214000  0.22697300  0.03044100  1
  H  H6  1  0.25786000  0.72697300  0.46955900  1
  H  H7  1  0.25786000  0.77302700  0.96955900  1
  H  H8  1  0.86945400  0.13588300  0.49668800  1
  H  H9  1  0.86945400  0.36411700  0.99668800  1
  H  H10  1  0.13054600  0.86411700  0.50331200  1
  H  H11  1  0.13054600  0.63588300  0.00331200  1
  H  H12  1  0.92242400  0.12329600  0.37195500  1
  H  H13  1  0.92242400  0.37670400  0.87195500  1
  H  H14  1  0.07757600  0.87670400  0.62804500  1
  H  H15  1  0.07757600  0.62329600  0.12804500  1
  H  H16  1  0.60319200  0.38534000  0.31895900  1
  H  H17  1  0.60319200  0.11466000  0.81895900  1
  H  H18  1  0.39680800  0.61466000  0.68104100  1
  H  H19  1  0.39680800  0.88534000  0.18104100  1
  H  H20  1  0.73251100  0.25783500  0.28025300  1
  H  H21  1  0.73251100  0.24216500  0.78025300  1
  H  H22  1  0.26748900  0.74216500  0.71974700  1
  H  H23  1  0.26748900  0.75783500  0.21974700  1
  H  H24  1  0.82250900  0.44254500  0.33841800  1
  H  H25  1  0.82250900  0.05745500  0.83841800  1
  H  H26  1  0.17749100  0.55745500  0.66158200  1
  H  H27  1  0.17749100  0.94254500  0.16158200  1
  H  H28  1  0.69319700  0.07073500  0.34046100  1
  H  H29  1  0.69319700  0.42926500  0.84046100  1
  H  H30  1  0.30680300  0.92926500  0.65953900  1
  H  H31  1  0.30680300  0.57073500  0.15953900  1
  H  H32  1  0.48676300  0.20601100  0.53976700  1
  H  H33  1  0.48676300  0.29398900  0.03976700  1
  H  H34  1  0.51323700  0.79398900  0.46023300  1
  H  H35  1  0.51323700  0.70601100  0.96023300  1
  H  H36  1  0.31784300  0.08547000  0.47309400  1
  H  H37  1  0.31784300  0.41453000  0.97309400  1
  H  H38  1  0.68215700  0.91453000  0.52690600  1
  H  H39  1  0.68215700  0.58547000  0.02690600  1
  H  H40  1  0.25108000  0.20877600  0.30249300  1
  H  H41  1  0.25108000  0.29122400  0.80249300  1
  H  H42  1  0.74892000  0.79122400  0.69750700  1
  H  H43  1  0.74892000  0.70877600  0.19750700  1
  H  H44  1  0.38579700  0.35581400  0.37575800  1
  H  H45  1  0.38579700  0.14418600  0.87575800  1
  H  H46  1  0.61420300  0.64418600  0.62424200  1
  H  H47  1  0.61420300  0.85581400  0.12424200  1
  H  H48  1  0.21865700  0.20050200  0.57888600  1
  H  H49  1  0.21865700  0.29949800  0.07888600  1
  H  H50  1  0.78134300  0.79949800  0.42111400  1
  H  H51  1  0.78134300  0.70050200  0.92111400  1
  H  H52  1  0.36402400  0.34718500  0.62111500  1
  H  H53  1  0.36402400  0.15281500  0.12111500  1
  H  H54  1  0.63597600  0.65281500  0.37888500  1
  H  H55  1  0.63597600  0.84718500  0.87888500  1
  H  H56  1  0.15672100  0.49447200  0.33755500  1
  H  H57  1  0.15672100  0.00552800  0.83755500  1
  H  H58  1  0.84327900  0.50552800  0.66244500  1
  H  H59  1  0.84327900  0.99447200  0.16244500  1
  H  H60  1  0.02755700  0.33533200  0.29204000  1
  H  H61  1  0.02755700  0.16466800  0.79204000  1
  H  H62  1  0.97244300  0.66466800  0.70796000  1
  H  H63  1  0.97244300  0.83533200  0.20796000  1
  C  C0  1  0.27746800  0.27833600  0.54932600  1
  C  C1  1  0.27746800  0.22166400  0.04932600  1
  C  C2  1  0.72253200  0.72166400  0.45067400  1
  C  C3  1  0.72253200  0.77833600  0.95067400  1
  C  C4  1  0.14647300  0.37894000  0.35709300  1
  C  C5  1  0.14647300  0.12106000  0.85709300  1
  C  C6  1  0.85352700  0.62106000  0.64290700  1
  C  C7  1  0.85352700  0.87894000  0.14290700  1
  C  C8  1  0.35350400  0.20187400  0.48758500  1
  C  C9  1  0.35350400  0.29812600  0.98758500  1
  C  C10  1  0.64649600  0.79812600  0.51241500  1
  C  C11  1  0.64649600  0.70187400  0.01241500  1
  C  C12  1  0.29033400  0.28535400  0.37371400  1
  C  C13  1  0.29033400  0.21464600  0.87371400  1
  C  C14  1  0.70966600  0.71464600  0.62628600  1
  C  C15  1  0.70966600  0.78535400  0.12628600  1
  O  O0  1  0.15095200  0.37643700  0.46594300  1
  O  O1  1  0.15095200  0.12356300  0.96594300  1
  O  O2  1  0.84904800  0.62356300  0.53405700  1
  O  O3  1  0.84904800  0.87643700  0.03405700  1
loop_
_geom_bond_atom_site_label_1
_geom_bond_atom_site_label_2
_geom_bond_distance
_geom_bond_site_symmetry_2
Cr0 H2 1.986553 1_555
Cr0 H0 1.986553 1_455
Cr0 H24 2.046398 1_455
Cr0 H26 2.046398 1_555
Cr0 O2 2.055863 1_455
Cr0 O0 2.055863 1_555
Cr1 H1 1.986553 1_455
Cr1 H3 1.986553 1_544
Cr1 H25 2.046398 1_454
Cr1 H27 2.046398 1_545
Cr1 O3 2.055863 1_445
Cr1 O1 2.055863 1_554
B0 H16 1.203237 1_555
B0 H24 1.236589 1_555
B0 H20 1.267867 1_555
B1 H17 1.203237 1_555
B1 H25 1.236589 1_555
B1 H21 1.267867 1_555
B2 H18 1.203237 1_555
B2 H26 1.236589 1_555
B2 H22 1.267867 1_555
B3 H19 1.203237 1_555
B3 H27 1.236589 1_555
B3 H23 1.267867 1_555
B4 H4 1.204024 1_555
B4 H0 1.237365 1_555
B4 H8 1.267390 1_555
B5 H5 1.204024 1_556
B5 H1 1.237365 1_556
B5 H9 1.267390 1_555
B6 H6 1.204024 1_555
B6 H2 1.237365 1_555
B6 H10 1.267390 1_555
B7 H7 1.204024 1_554
B7 H3 1.237365 1_554
B7 H11 1.267390 1_555
B8 H28 1.206154 1_555
B8 H12 1.207940 1_555
B8 H20 1.437562 1_555
B8 H8 1.447893 1_555
B9 H29 1.206154 1_555
B9 H13 1.207940 1_555
B9 H21 1.437562 1_555
B9 H9 1.447893 1_555
B10 H30 1.206154 1_555
B10 H14 1.207940 1_555
B10 H22 1.437562 1_555
B10 H10 1.447893 1_555
B11 H31 1.206154 1_555
B11 H15 1.207940 1_555
B11 H23 1.437562 1_555
B11 H11 1.447893 1_555
C0 H52 1.098407 1_555
C0 H48 1.098517 1_555
C0 O0 1.463954 1_555
C1 H53 1.098407 1_555
C1 H49 1.098517 1_555
C1 O1 1.463954 1_554
C2 H54 1.098407 1_555
C2 H50 1.098517 1_555
C2 O2 1.463954 1_555
C3 H55 1.098407 1_555
C3 H51 1.098517 1_555
C3 O3 1.463954 1_556
C4 H60 1.097066 1_555
C4 H56 1.099248 1_555
C4 O0 1.462648 1_555
C5 H61 1.097066 1_555
C5 H57 1.099248 1_555
C5 O1 1.462648 1_555
C6 H62 1.097066 1_555
C6 H58 1.099248 1_555
C6 O2 1.462648 1_555
C7 H63 1.097066 1_555
C7 H59 1.099248 1_555
C7 O3 1.462648 1_555
C8 H32 1.095398 1_555
C8 H36 1.097345 1_555
C9 H33 1.095398 1_556
C9 H37 1.097345 1_555
C10 H34 1.095398 1_555
C10 H38 1.097345 1_555
C11 H35 1.095398 1_554
C11 H39 1.097345 1_555
C12 H40 1.093677 1_555
C12 H44 1.101182 1_555
C13 H41 1.093677 1_555
C13 H45 1.101182 1_555
C14 H42 1.093677 1_555
C14 H46 1.101182 1_555
C15 H43 1.093677 1_555
C15 H47 1.101182 1_555
