# generated using pymatgen
data_KHo2F7
_symmetry_space_group_name_H-M   'P 1'
_cell_length_a   8.26169302
_cell_length_b   8.26169302
_cell_length_c   12.01155085
_cell_angle_alpha   59.74744745
_cell_angle_beta   59.74744745
_cell_angle_gamma   58.29068225
_symmetry_Int_Tables_number   1
_chemical_formula_structural   KHo2F7
_chemical_formula_sum   'K4 Ho8 F28'
_cell_volume   569.73048446
_cell_formula_units_Z   4
loop_
 _symmetry_equiv_pos_site_id
 _symmetry_equiv_pos_as_xyz
  1  'x, y, z'
loop_
 _atom_site_type_symbol
 _atom_site_label
 _atom_site_symmetry_multiplicity
 _atom_site_fract_x
 _atom_site_fract_y
 _atom_site_fract_z
 _atom_site_occupancy
  K  K0  1  0.22248100  0.22248100  0.34516100  1
  K  K1  1  0.25369800  0.25369800  0.98135300  1
  K  K2  1  0.75514500  0.75514500  0.65168100  1
  K  K3  1  0.73005700  0.73005700  0.02091500  1
  Ho  Ho0  1  0.73371200  0.25230900  0.99812900  1
  Ho  Ho1  1  0.25230900  0.73371200  0.99812900  1
  Ho  Ho2  1  0.75049500  0.75049500  0.32016800  1
  Ho  Ho3  1  0.75500400  0.22995700  0.31878900  1
  Ho  Ho4  1  0.22995700  0.75500400  0.31878900  1
  Ho  Ho5  1  0.75201800  0.22710700  0.68067400  1
  Ho  Ho6  1  0.22710700  0.75201800  0.68067400  1
  Ho  Ho7  1  0.23291500  0.23291500  0.67720300  1
  F  F0  1  0.33135600  0.85414400  0.08430300  1
  F  F1  1  0.85414400  0.33135600  0.08430300  1
  F  F2  1  0.66028500  0.12335200  0.91440400  1
  F  F3  1  0.12335200  0.66028500  0.91440400  1
  F  F4  1  0.34390800  0.87673400  0.76170800  1
  F  F5  1  0.87673400  0.34390800  0.76170800  1
  F  F6  1  0.88784800  0.88784800  0.74785400  1
  F  F7  1  0.38869600  0.38869600  0.06918800  1
  F  F8  1  0.87762800  0.87762800  0.37954100  1
  F  F9  1  0.48677400  0.81901300  0.49847600  1
  F  F10  1  0.81901300  0.48677400  0.49847600  1
  F  F11  1  0.63543800  0.11360200  0.23490100  1
  F  F12  1  0.11360200  0.63543800  0.23490100  1
  F  F13  1  0.10405900  0.10405900  0.61754200  1
  F  F14  1  0.59737000  0.59737000  0.92278600  1
  F  F15  1  0.49486100  0.16078800  0.49940900  1
  F  F16  1  0.16078800  0.49486100  0.49940900  1
  F  F17  1  0.49274300  0.83717100  0.26065200  1
  F  F18  1  0.83717100  0.49274300  0.26065200  1
  F  F19  1  0.48836100  0.15256700  0.73741500  1
  F  F20  1  0.15256700  0.48836100  0.73741500  1
  F  F21  1  0.48908800  0.48908800  0.73641900  1
  F  F22  1  0.49801700  0.49801700  0.26953200  1
  F  F23  1  0.81032800  0.16968100  0.49998400  1
  F  F24  1  0.16968100  0.81032800  0.49998400  1
  F  F25  1  0.88816100  0.88816100  0.08734100  1
  F  F26  1  0.09348500  0.09348500  0.25023100  1
  F  F27  1  0.09894500  0.09894500  0.91259400  1
loop_
_geom_bond_atom_site_label_1
_geom_bond_atom_site_label_2
_geom_bond_distance
_geom_bond_site_symmetry_2
F0 Ho1 2.211284 1_554
F0 Ho4 2.307564 1_555
F0 K3 2.681484 1_555
F0 K1 2.701355 1_564
F1 Ho0 2.211284 1_554
F1 Ho3 2.307564 1_555
F1 K3 2.681484 1_555
F1 K1 2.701355 1_654
F2 Ho0 2.210926 1_555
F2 Ho5 2.303279 1_555
F2 K3 2.666896 1_546
F2 K1 2.727268 1_555
F3 Ho1 2.210926 1_555
F3 Ho6 2.303279 1_555
F3 K3 2.666896 1_456
F3 K1 2.727268 1_555
F4 Ho1 2.329534 1_555
F4 Ho7 2.371076 1_565
F4 Ho6 2.437702 1_555
F4 K2 2.743066 1_555
F5 Ho0 2.329534 1_555
F5 Ho7 2.371076 1_655
F5 Ho5 2.437702 1_555
F5 K2 2.743066 1_555
F6 Ho5 2.256873 1_565
F6 Ho6 2.256873 1_655
F6 K3 2.706717 1_556
F6 K2 2.748505 1_555
F7 Ho0 2.294412 1_554
F7 Ho1 2.294412 1_554
F7 K1 2.698130 1_554
F7 K0 2.751111 1_555
F8 Ho2 2.320398 1_555
F8 Ho3 2.352963 1_565
F8 Ho4 2.352963 1_655
F8 K2 2.672748 1_555
F9 Ho2 2.208565 1_555
F9 Ho6 2.234954 1_555
F10 Ho2 2.208565 1_555
F10 Ho5 2.234954 1_555
F11 Ho0 2.329847 1_554
F11 Ho2 2.416461 1_545
F11 Ho3 2.427412 1_555
F11 K0 2.761230 1_555
F12 Ho1 2.329847 1_554
F12 Ho2 2.416461 1_455
F12 Ho4 2.427412 1_555
F12 K0 2.761230 1_555
F13 Ho7 2.347111 1_555
F13 Ho5 2.348168 1_455
F13 Ho6 2.348168 1_545
F13 K0 2.678447 1_555
F14 Ho1 2.294934 1_555
F14 Ho0 2.294934 1_555
F14 K2 2.689664 1_555
F14 K3 2.767638 1_556
F15 Ho7 2.206571 1_555
F15 Ho3 2.235187 1_555
F16 Ho7 2.206571 1_555
F16 Ho4 2.235187 1_555
F17 Ho2 2.230151 1_555
F17 Ho4 2.281653 1_555
F17 K3 2.823875 1_555
F17 K0 3.106401 1_565
F18 Ho2 2.230151 1_555
F18 Ho3 2.281653 1_555
F18 K3 2.823875 1_555
F18 K0 3.106401 1_655
F19 Ho7 2.235872 1_555
F19 Ho5 2.253853 1_555
F19 K1 2.842909 1_555
F20 Ho7 2.235872 1_555
F20 Ho6 2.253853 1_555
F20 K1 2.842909 1_555
F21 Ho6 2.214480 1_555
F21 Ho5 2.214480 1_555
F21 K1 2.943633 1_555
F22 Ho3 2.182896 1_555
F22 Ho4 2.182896 1_555
F22 K3 2.931604 1_555
F23 Ho3 2.205622 1_555
F23 Ho5 2.216173 1_555
F24 Ho4 2.205622 1_555
F24 Ho6 2.216173 1_555
F25 Ho2 2.314744 1_555
F25 Ho0 2.433376 1_564
F25 Ho1 2.433376 1_654
F25 K3 2.818300 1_555
F26 Ho3 2.251688 1_455
F26 Ho4 2.251688 1_545
F26 K1 2.676083 1_554
F26 K0 2.686001 1_555
F27 Ho7 2.329283 1_555
F27 Ho0 2.436141 1_455
F27 Ho1 2.436141 1_545
F27 K1 2.792430 1_555
