# generated using pymatgen
data_Cs2B12HF12
_symmetry_space_group_name_H-M   'P 1'
_cell_length_a   9.99268100
_cell_length_b   10.53789900
_cell_length_c   15.39426500
_cell_angle_alpha   90.00000000
_cell_angle_beta   90.00000000
_cell_angle_gamma   90.00000000
_symmetry_Int_Tables_number   1
_chemical_formula_structural   Cs2B12HF12
_chemical_formula_sum   'Cs8 B48 H4 F48'
_cell_volume   1621.04478582
_cell_formula_units_Z   4
loop_
 _symmetry_equiv_pos_site_id
 _symmetry_equiv_pos_as_xyz
  1  'x, y, z'
loop_
 _atom_site_type_symbol
 _atom_site_label
 _atom_site_symmetry_multiplicity
 _atom_site_fract_x
 _atom_site_fract_y
 _atom_site_fract_z
 _atom_site_occupancy
  Cs  Cs0  1  0.04253600  0.50469400  0.11493600  1
  Cs  Cs1  1  0.45746400  0.49530600  0.61493600  1
  Cs  Cs2  1  0.95746400  0.00469400  0.38506400  1
  Cs  Cs3  1  0.54253600  0.99530600  0.88506400  1
  Cs  Cs4  1  0.41776700  0.31283600  0.28931600  1
  Cs  Cs5  1  0.08223300  0.68716400  0.78931600  1
  Cs  Cs6  1  0.58223300  0.81283600  0.21068400  1
  Cs  Cs7  1  0.91776700  0.18716400  0.71068400  1
  B  B0  1  0.47317100  0.13017400  0.51964900  1
  B  B1  1  0.02682900  0.86982600  0.01964900  1
  B  B2  1  0.52682900  0.63017400  0.98035100  1
  B  B3  1  0.97317100  0.36982600  0.48035100  1
  B  B4  1  0.07239700  0.51069600  0.46090100  1
  B  B5  1  0.42760300  0.48930400  0.96090100  1
  B  B6  1  0.92760300  0.01069600  0.03909900  1
  B  B7  1  0.57239700  0.98930400  0.53909900  1
  B  B8  1  0.15241800  0.00818900  0.15984900  1
  B  B9  1  0.34758200  0.99181100  0.65984900  1
  B  B10  1  0.84758200  0.50818900  0.34015100  1
  B  B11  1  0.65241800  0.49181100  0.84015100  1
  B  B12  1  0.03402400  0.14623900  0.01615200  1
  B  B13  1  0.46597600  0.85376100  0.51615200  1
  B  B14  1  0.96597600  0.64623900  0.48384800  1
  B  B15  1  0.53402400  0.35376100  0.98384800  1
  B  B16  1  0.17173700  0.14361500  0.09093700  1
  B  B17  1  0.32826300  0.85638500  0.59093700  1
  B  B18  1  0.82826300  0.64361500  0.40906300  1
  B  B19  1  0.67173700  0.35638500  0.90906300  1
  B  B20  1  0.49766400  0.07418000  0.62817200  1
  B  B21  1  0.00233600  0.92582000  0.12817200  1
  B  B22  1  0.50233600  0.57418000  0.87182800  1
  B  B23  1  0.99766400  0.42582000  0.37182800  1
  B  B24  1  0.69454900  0.41180800  0.01817800  1
  B  B25  1  0.80545100  0.58819200  0.51817800  1
  B  B26  1  0.30545100  0.91180800  0.48182200  1
  B  B27  1  0.19454900  0.08819200  0.98182200  1
  B  B28  1  0.26870200  0.00300100  0.07116300  1
  B  B29  1  0.23129800  0.99699900  0.57116300  1
  B  B30  1  0.73129800  0.50300100  0.42883700  1
  B  B31  1  0.76870200  0.49699900  0.92883700  1
  B  B32  1  0.00719300  0.09623700  0.12617400  1
  B  B33  1  0.49280700  0.90376300  0.62617400  1
  B  B34  1  0.99280700  0.59623700  0.37382600  1
  B  B35  1  0.50719300  0.40376300  0.87382600  1
  B  B36  1  0.31064400  0.08132200  0.48447700  1
  B  B37  1  0.18935600  0.91867800  0.98447700  1
  B  B38  1  0.68935600  0.58132200  0.01552300  1
  B  B39  1  0.81064400  0.41867800  0.51552300  1
  B  B40  1  0.54416700  0.49411600  0.04889400  1
  B  B41  1  0.95583300  0.50588400  0.54889400  1
  B  B42  1  0.45583300  0.99411600  0.45110600  1
  B  B43  1  0.04416700  0.00588400  0.95110600  1
  B  B44  1  0.33600400  0.13170300  0.59472800  1
  B  B45  1  0.16399600  0.86829700  0.09472800  1
  B  B46  1  0.66399600  0.63170300  0.90527200  1
  B  B47  1  0.83600400  0.36829700  0.40527200  1
  H  H0  1  0.63110200  0.13173700  0.19189300  1
  H  H1  1  0.86889800  0.86826300  0.69189300  1
  H  H2  1  0.36889800  0.63173700  0.30810700  1
  H  H3  1  0.13110200  0.36826300  0.80810700  1
  F  F0  1  0.24211300  0.15447600  0.42291900  1
  F  F1  1  0.25788700  0.84552400  0.92291900  1
  F  F2  1  0.75788700  0.65447600  0.07708100  1
  F  F3  1  0.74211300  0.34552400  0.57708100  1
  F  F4  1  0.21095600  0.51147000  0.47338100  1
  F  F5  1  0.28904400  0.48853000  0.97338100  1
  F  F6  1  0.78904400  0.01147000  0.02661900  1
  F  F7  1  0.71095600  0.98853000  0.52661900  1
  F  F8  1  0.07688500  0.36273000  0.31007600  1
  F  F9  1  0.42311500  0.63727000  0.81007600  1
  F  F10  1  0.92311500  0.86273000  0.18992400  1
  F  F11  1  0.57688500  0.13727000  0.68992400  1
  F  F12  1  0.09290200  0.00294700  0.58562300  1
  F  F13  1  0.40709800  0.99705300  0.08562300  1
  F  F14  1  0.90709800  0.50294700  0.91437700  1
  F  F15  1  0.59290200  0.49705300  0.41437700  1
  F  F16  1  0.02261900  0.25534900  0.51312000  1
  F  F17  1  0.47738100  0.74465100  0.01312000  1
  F  F18  1  0.97738100  0.75534900  0.98688000  1
  F  F19  1  0.52261900  0.24465100  0.48688000  1
  F  F20  1  0.22850900  0.25669500  0.12280000  1
  F  F21  1  0.27149100  0.74330500  0.62280000  1
  F  F22  1  0.77149100  0.75669500  0.37720000  1
  F  F23  1  0.72850900  0.24330500  0.87720000  1
  F  F24  1  0.76843700  0.34776100  0.08075500  1
  F  F25  1  0.73156300  0.65223900  0.58075500  1
  F  F26  1  0.23156300  0.84776100  0.41924500  1
  F  F27  1  0.26843700  0.15223900  0.91924500  1
  F  F28  1  0.50215100  0.49783300  0.13622700  1
  F  F29  1  0.99784900  0.50216700  0.63622700  1
  F  F30  1  0.49784900  0.99783300  0.36377300  1
  F  F31  1  0.00215100  0.00216700  0.86377300  1
  F  F32  1  0.28379900  0.24581600  0.62653600  1
  F  F33  1  0.21620100  0.75418400  0.12653600  1
  F  F34  1  0.71620100  0.74581600  0.87346400  1
  F  F35  1  0.78379900  0.25418400  0.37346400  1
  F  F36  1  0.49018100  0.23854900  0.01745800  1
  F  F37  1  0.00981900  0.76145100  0.51745800  1
  F  F38  1  0.50981900  0.73854900  0.48254200  1
  F  F39  1  0.99018100  0.26145100  0.98254200  1
  F  F40  1  0.06451000  0.66602100  0.31247400  1
  F  F41  1  0.43549000  0.33397900  0.81247400  1
  F  F42  1  0.93549000  0.16602100  0.18752600  1
  F  F43  1  0.56451000  0.83397900  0.68752600  1
  F  F44  1  0.19621900  0.01172200  0.24604700  1
  F  F45  1  0.30378100  0.98827800  0.74604700  1
  F  F46  1  0.80378100  0.51172200  0.25395300  1
  F  F47  1  0.69621900  0.48827800  0.75395300  1
loop_
_geom_bond_atom_site_label_1
_geom_bond_atom_site_label_2
_geom_bond_distance
_geom_bond_site_symmetry_2
Cs0 F33 3.155249 1_555
Cs0 F46 3.205841 1_455
Cs0 F20 3.209048 1_555
Cs0 F24 3.242496 1_455
Cs0 F5 3.293231 1_554
Cs0 F2 3.304777 1_455
Cs0 F39 3.316315 1_454
Cs0 F18 3.359599 1_454
Cs0 F14 3.371112 1_454
Cs0 F8 3.373436 1_555
Cs0 F40 3.490812 1_555
Cs1 F32 3.155249 1_555
Cs1 F47 3.205841 1_555
Cs1 F21 3.209048 1_555
Cs1 F25 3.242496 1_555
Cs1 F4 3.293231 1_555
Cs1 F3 3.304777 1_555
Cs1 F38 3.316315 1_555
Cs1 F19 3.359599 1_555
Cs1 F15 3.371112 1_555
Cs1 F9 3.373436 1_555
Cs1 F41 3.490812 1_555
Cs2 F35 3.155249 1_555
Cs2 F44 3.205841 1_655
Cs2 F22 3.209048 1_545
Cs2 F26 3.242496 1_645
Cs2 F7 3.293231 1_545
Cs2 F0 3.304777 1_655
Cs2 F37 3.316315 1_645
Cs2 F16 3.359599 1_655
Cs2 F12 3.371112 1_655
Cs2 F10 3.373436 1_545
Cs2 F42 3.490812 1_555
Cs3 F34 3.155249 1_555
Cs3 F45 3.205841 1_555
Cs3 F23 3.209048 1_565
Cs3 F27 3.242496 1_565
Cs3 F6 3.293231 1_566
Cs3 F1 3.304777 1_555
Cs3 F36 3.316315 1_566
Cs3 F17 3.359599 1_556
Cs3 F13 3.371112 1_556
Cs3 F11 3.373436 1_565
Cs3 F43 3.490812 1_555
Cs4 F28 3.172616 1_555
Cs4 F0 3.177396 1_555
Cs4 H0 3.230447 1_555
Cs4 F20 3.239999 1_555
Cs4 F15 3.246184 1_555
Cs4 F19 3.296042 1_555
Cs4 H2 3.408140 1_555
Cs4 F8 3.461449 1_555
Cs4 F30 3.601812 1_545
Cs5 F29 3.172616 1_455
Cs5 F1 3.177396 1_555
Cs5 H1 3.230447 1_455
Cs5 F21 3.239999 1_555
Cs5 F14 3.246184 1_455
Cs5 F18 3.296042 1_455
Cs5 H3 3.408140 1_555
Cs5 F9 3.461449 1_555
Cs5 F31 3.601812 1_565
Cs6 F30 3.172616 1_555
Cs6 F2 3.177396 1_555
Cs6 H2 3.230447 1_555
Cs6 F22 3.239999 1_555
Cs6 F13 3.246184 1_555
Cs6 F17 3.296042 1_555
Cs6 H0 3.408140 1_565
Cs6 F10 3.461449 1_555
Cs6 F28 3.601812 1_555
Cs7 F31 3.172616 1_655
Cs7 F3 3.177396 1_555
Cs7 H3 3.230447 1_655
Cs7 F23 3.239999 1_555
Cs7 F12 3.246184 1_655
Cs7 F16 3.296042 1_655
Cs7 H1 3.408140 1_545
Cs7 F11 3.461449 1_555
Cs7 F29 3.601812 1_555
B0 F19 1.397820 1_555
B1 F18 1.397820 1_454
B2 F17 1.397820 1_556
B3 F16 1.397820 1_655
B4 F4 1.397865 1_555
B5 F5 1.397865 1_555
B6 F6 1.397865 1_555
B7 F7 1.397865 1_555
B8 F44 1.397772 1_555
B9 F45 1.397772 1_555
B10 F46 1.397772 1_555
B11 F47 1.397772 1_555
B12 F39 1.390562 1_454
B13 F38 1.390562 1_555
B14 F37 1.390562 1_655
B15 F36 1.390562 1_556
B16 F20 1.407979 1_555
B17 F21 1.407979 1_555
B18 F22 1.407979 1_555
B19 F23 1.407979 1_555
B20 F11 1.404413 1_555
B21 F10 1.404413 1_455
B22 F9 1.404413 1_555
B23 F8 1.404413 1_655
B24 F24 1.388763 1_555
B25 F25 1.388763 1_555
B26 F26 1.388763 1_555
B27 F27 1.388763 1_555
B28 F13 1.402149 1_545
B29 F12 1.402149 1_565
B30 F15 1.402149 1_555
B31 F14 1.402149 1_555
B32 F42 1.395056 1_455
B33 F43 1.395056 1_555
B34 F40 1.395056 1_655
B35 F41 1.395056 1_555
B36 F0 1.400448 1_555
B37 F1 1.400448 1_555
B38 F2 1.400448 1_555
B39 F3 1.400448 1_555
B40 F28 1.409005 1_555
B41 F29 1.409005 1_555
B42 F30 1.409005 1_555
B43 F31 1.409005 1_555
B44 F32 1.399264 1_555
B45 F33 1.399264 1_555
B46 F34 1.399264 1_555
B47 F35 1.399264 1_555
