# generated using pymatgen
data_Ca3BI3N2
_symmetry_space_group_name_H-M   'P 1'
_cell_length_a   10.61113383
_cell_length_b   10.61113383
_cell_length_c   10.61113404
_cell_angle_alpha   105.66232076
_cell_angle_beta   105.66232076
_cell_angle_gamma   105.66231396
_symmetry_Int_Tables_number   1
_chemical_formula_structural   Ca3BI3N2
_chemical_formula_sum   'Ca12 B4 I12 N8'
_cell_volume   1029.17146276
_cell_formula_units_Z   4
loop_
 _symmetry_equiv_pos_site_id
 _symmetry_equiv_pos_as_xyz
  1  'x, y, z'
loop_
 _atom_site_type_symbol
 _atom_site_label
 _atom_site_symmetry_multiplicity
 _atom_site_fract_x
 _atom_site_fract_y
 _atom_site_fract_z
 _atom_site_occupancy
  Ca  Ca0  1  0.97610900  0.76113100  0.73506000  1
  Ca  Ca1  1  0.76113100  0.73506000  0.97610900  1
  Ca  Ca2  1  0.73506000  0.97610900  0.76113100  1
  Ca  Ca3  1  0.02389100  0.26494000  0.23886900  1
  Ca  Ca4  1  0.23886900  0.02389100  0.26493900  1
  Ca  Ca5  1  0.26494000  0.23886900  0.02389100  1
  Ca  Ca6  1  0.50000000  0.22024300  0.77975700  1
  Ca  Ca7  1  0.22024300  0.77975700  0.50000000  1
  Ca  Ca8  1  0.77975700  0.50000000  0.22024300  1
  Ca  Ca9  1  0.50000000  0.01572200  0.98427800  1
  Ca  Ca10  1  0.01572200  0.98427800  0.50000000  1
  Ca  Ca11  1  0.98427800  0.50000000  0.01572200  1
  B  B0  1  0.00000000  0.76481800  0.23518200  1
  B  B1  1  0.76481800  0.23518200  0.00000000  1
  B  B2  1  0.23518200  0.00000000  0.76481800  1
  B  B3  1  0.00000000  0.00000000  0.00000000  1
  I  I0  1  0.74527700  0.47037700  0.73471500  1
  I  I1  1  0.47037700  0.73471500  0.74527700  1
  I  I2  1  0.73471500  0.74527700  0.47037700  1
  I  I3  1  0.25472300  0.26528500  0.52962300  1
  I  I4  1  0.52962300  0.25472300  0.26528500  1
  I  I5  1  0.26528500  0.52962300  0.25472300  1
  I  I6  1  0.00000000  0.50168900  0.49831100  1
  I  I7  1  0.50168900  0.49831100  0.00000000  1
  I  I8  1  0.49831100  0.00000000  0.50168900  1
  I  I9  1  0.00000000  0.22810900  0.77189100  1
  I  I10  1  0.22810900  0.77189100  0.00000000  1
  I  I11  1  0.77189100  0.00000000  0.22810900  1
  N  N0  1  0.89410200  0.65475600  0.12769800  1
  N  N1  1  0.65475600  0.12769800  0.89410200  1
  N  N2  1  0.12769800  0.89410200  0.65475600  1
  N  N3  1  0.10589800  0.87230200  0.34524400  1
  N  N4  1  0.34524400  0.10589800  0.87230200  1
  N  N5  1  0.87230200  0.34524400  0.10589800  1
  N  N6  1  0.89146000  0.89146000  0.89146000  1
  N  N7  1  0.10854000  0.10854000  0.10854000  1
loop_
_geom_bond_atom_site_label_1
_geom_bond_atom_site_label_2
_geom_bond_distance
_geom_bond_site_symmetry_2
Ca0 N2 2.338402 1_655
Ca0 N6 2.389538 1_555
Ca0 I2 3.178906 1_555
Ca0 I10 3.266455 1_656
Ca0 I6 3.307670 1_655
Ca0 I0 3.380381 1_555
Ca1 N0 2.338402 1_556
Ca1 N6 2.389538 1_555
Ca1 I0 3.178906 1_555
Ca1 I11 3.266455 1_566
Ca1 I7 3.307671 1_556
Ca1 I1 3.380381 1_555
Ca2 N1 2.338402 1_565
Ca2 N6 2.389538 1_555
Ca2 I1 3.178906 1_555
Ca2 I9 3.266456 1_665
Ca2 I8 3.307671 1_565
Ca2 I2 3.380381 1_555
Ca3 N5 2.338402 1_455
Ca3 N7 2.389538 1_555
Ca3 I5 3.178906 1_555
Ca3 I11 3.266456 1_455
Ca3 I6 3.307671 1_555
Ca3 I3 3.380381 1_555
Ca4 N3 2.338409 1_545
Ca4 N7 2.389531 1_555
Ca4 I3 3.178913 1_555
Ca4 I10 3.266449 1_545
Ca4 I8 3.307676 1_555
Ca4 I4 3.380377 1_555
Ca5 N4 2.338402 1_554
Ca5 N7 2.389538 1_555
Ca5 I4 3.178906 1_555
Ca5 I9 3.266455 1_554
Ca5 I7 3.307671 1_555
Ca5 I5 3.380381 1_555
Ca6 N1 2.360371 1_555
Ca6 N4 2.360371 1_555
Ca6 I7 3.223939 1_556
Ca6 I8 3.223939 1_555
Ca6 I3 3.416698 1_555
Ca6 I0 3.416699 1_555
Ca7 N2 2.360371 1_555
Ca7 N3 2.360371 1_555
Ca7 I6 3.223939 1_555
Ca7 I8 3.223939 1_565
Ca7 I1 3.416698 1_555
Ca7 I5 3.416698 1_555
Ca8 N5 2.360371 1_555
Ca8 N0 2.360371 1_555
Ca8 I7 3.223939 1_555
Ca8 I6 3.223939 1_655
Ca8 I2 3.416698 1_555
Ca8 I4 3.416699 1_555
Ca9 N4 2.330834 1_555
Ca9 N1 2.330834 1_555
Ca9 I1 3.225229 1_545
Ca9 I4 3.225229 1_556
Ca9 I11 3.392380 1_556
Ca9 I10 3.392380 1_546
Ca10 N3 2.330834 1_555
Ca10 N2 2.330834 1_555
Ca10 I3 3.225229 1_565
Ca10 I2 3.225229 1_455
Ca10 I9 3.392380 1_565
Ca10 I11 3.392380 1_465
Ca11 N0 2.330834 1_555
Ca11 N5 2.330834 1_555
Ca11 I5 3.225229 1_655
Ca11 I0 3.225229 1_554
Ca11 I9 3.392380 1_654
Ca11 I10 3.392380 1_655
B0 N3 1.344503 1_555
B0 N0 1.344503 1_455
B1 N5 1.344503 1_555
B1 N1 1.344503 1_554
B2 N2 1.344503 1_545
B2 N4 1.344503 1_555
B3 N6 1.353076 1_444
B3 N7 1.353076 1_555
