# generated using pymatgen
data_Ba3B3Pb2ClO9
_symmetry_space_group_name_H-M   'P 1'
_cell_length_a   8.99898234
_cell_length_b   8.99898234
_cell_length_c   8.02874200
_cell_angle_alpha   90.00000000
_cell_angle_beta   90.00000000
_cell_angle_gamma   108.03173004
_symmetry_Int_Tables_number   1
_chemical_formula_structural   Ba3B3Pb2ClO9
_chemical_formula_sum   'Ba6 B6 Pb4 Cl2 O18'
_cell_volume   618.24755371
_cell_formula_units_Z   2
loop_
 _symmetry_equiv_pos_site_id
 _symmetry_equiv_pos_as_xyz
  1  'x, y, z'
loop_
 _atom_site_type_symbol
 _atom_site_label
 _atom_site_symmetry_multiplicity
 _atom_site_fract_x
 _atom_site_fract_y
 _atom_site_fract_z
 _atom_site_occupancy
  Ba  Ba0  1  0.23403300  0.23403300  0.00000000  1
  Ba  Ba1  1  0.76596700  0.76596700  0.50000000  1
  Ba  Ba2  1  0.35644600  0.64355400  0.25000000  1
  Ba  Ba3  1  0.64355400  0.35644600  0.75000000  1
  Ba  Ba4  1  0.64946100  0.35053900  0.25000000  1
  Ba  Ba5  1  0.35053900  0.64946100  0.75000000  1
  B  B0  1  0.62473300  0.62473300  0.00000000  1
  B  B1  1  0.37526700  0.37526700  0.50000000  1
  B  B2  1  0.57597800  0.00839100  0.45787400  1
  B  B3  1  0.00839100  0.57597800  0.54212600  1
  B  B4  1  0.42402200  0.99160900  0.95787400  1
  B  B5  1  0.99160900  0.42402200  0.04212600  1
  Pb  Pb0  1  0.73346600  0.97648200  0.07509400  1
  Pb  Pb1  1  0.97648200  0.73346600  0.92490600  1
  Pb  Pb2  1  0.26653400  0.02351800  0.57509400  1
  Pb  Pb3  1  0.02351800  0.26653400  0.42490600  1
  Cl  Cl0  1  0.94093500  0.05906500  0.75000000  1
  Cl  Cl1  1  0.05906500  0.94093500  0.25000000  1
  O  O0  1  0.51615400  0.14061100  0.00403400  1
  O  O1  1  0.14061100  0.51615400  0.99596600  1
  O  O2  1  0.48384600  0.85938900  0.50403400  1
  O  O3  1  0.85938900  0.48384600  0.49596600  1
  O  O4  1  0.46234100  0.86110700  0.01150300  1
  O  O5  1  0.86110700  0.46234100  0.98849700  1
  O  O6  1  0.53765900  0.13889300  0.51150300  1
  O  O7  1  0.13889300  0.53765900  0.48849700  1
  O  O8  1  0.49285100  0.49285100  0.00000000  1
  O  O9  1  0.50714900  0.50714900  0.50000000  1
  O  O10  1  0.68236200  0.69518800  0.15206900  1
  O  O11  1  0.69518800  0.68236200  0.84793100  1
  O  O12  1  0.31763800  0.30481200  0.65206900  1
  O  O13  1  0.30481200  0.31763800  0.34793100  1
  O  O14  1  0.70775800  0.03013400  0.35787100  1
  O  O15  1  0.03013400  0.70775800  0.64212900  1
  O  O16  1  0.29224200  0.96986600  0.85787100  1
  O  O17  1  0.96986600  0.29224200  0.14212900  1
loop_
_geom_bond_atom_site_label_1
_geom_bond_atom_site_label_2
_geom_bond_distance
_geom_bond_site_symmetry_2
Ba0 O8 2.736976 1_555
Ba0 O16 2.828197 1_544
Ba0 O17 2.828197 1_455
Ba0 O0 2.911136 1_555
Ba0 O1 2.911136 1_554
Ba0 O12 2.911772 1_554
Ba0 O13 2.911772 1_555
Ba0 Cl1 3.300568 1_545
Ba0 Cl0 3.300568 1_454
Ba1 O9 2.736976 1_555
Ba1 O15 2.828197 1_655
Ba1 O14 2.828197 1_565
Ba1 O2 2.911136 1_555
Ba1 O3 2.911136 1_555
Ba1 O10 2.911772 1_555
Ba1 O11 2.911772 1_555
Ba1 Cl0 3.300568 1_565
Ba1 Cl1 3.300568 1_655
Ba2 O7 2.693047 1_555
Ba2 O4 2.693047 1_555
Ba2 O1 2.805030 1_554
Ba2 O2 2.805030 1_555
Ba2 O8 2.899202 1_555
Ba2 O9 2.899202 1_555
Ba2 O13 2.931280 1_555
Ba2 O10 2.931280 1_555
Ba3 O6 2.693047 1_555
Ba3 O5 2.693047 1_555
Ba3 O3 2.805030 1_555
Ba3 O0 2.805030 1_556
Ba3 O8 2.899202 1_556
Ba3 O9 2.899202 1_555
Ba3 O12 2.931280 1_555
Ba3 O11 2.931280 1_555
Ba4 O0 2.739482 1_555
Ba4 O3 2.739482 1_555
Ba4 O6 2.803837 1_555
Ba4 O5 2.803837 1_554
Ba4 O8 2.961838 1_555
Ba4 O9 2.961838 1_555
Ba4 O13 3.123559 1_555
Ba4 O10 3.123559 1_555
Ba4 O14 3.205506 1_555
Ba4 O17 3.205506 1_555
Ba5 O1 2.739482 1_555
Ba5 O2 2.739482 1_555
Ba5 O7 2.803837 1_555
Ba5 O4 2.803837 1_556
Ba5 O8 2.961838 1_556
Ba5 O9 2.961838 1_555
Ba5 O12 3.123559 1_555
Ba5 O11 3.123559 1_555
Ba5 O15 3.205506 1_555
Ba5 O16 3.205506 1_555
B0 O8 1.394640 1_555
B0 O11 1.399295 1_554
B0 O10 1.399295 1_555
B1 O9 1.394640 1_555
B1 O12 1.399295 1_555
B1 O13 1.399295 1_555
B2 O6 1.390752 1_555
B2 O2 1.390837 1_545
B2 O14 1.394849 1_555
B3 O7 1.390752 1_555
B3 O3 1.390837 1_455
B3 O15 1.394849 1_555
B4 O4 1.390752 1_556
B4 O0 1.390837 1_566
B4 O16 1.394849 1_555
B5 O5 1.390752 1_554
B5 O1 1.390837 1_654
B5 O17 1.394849 1_555
Cl0 Pb3 3.160955 1_655
Cl0 Pb0 3.160955 1_546
Cl1 Pb1 3.160955 1_454
Cl1 Pb2 3.160955 1_565
O4 Pb0 2.392330 1_555
O5 Pb1 2.392330 1_555
O6 Pb2 2.392330 1_555
O7 Pb3 2.392330 1_555
O10 Pb0 2.506096 1_555
O11 Pb1 2.506096 1_555
O12 Pb2 2.506096 1_555
O13 Pb3 2.506096 1_555
O14 Pb0 2.347390 1_545
O15 Pb1 2.347390 1_455
O16 Pb2 2.347390 1_565
O17 Pb3 2.347390 1_655
