# generated using pymatgen
data_Mg2Ti
_symmetry_space_group_name_H-M   'P 1'
_cell_length_a   5.97840187
_cell_length_b   5.97840187
_cell_length_c   5.97840174
_cell_angle_alpha   52.56080629
_cell_angle_beta   52.56080629
_cell_angle_gamma   52.56079873
_symmetry_Int_Tables_number   1
_chemical_formula_structural   Mg2Ti
_chemical_formula_sum   'Mg4 Ti2'
_cell_volume   124.70962130
_cell_formula_units_Z   2
loop_
 _symmetry_equiv_pos_site_id
 _symmetry_equiv_pos_as_xyz
  1  'x, y, z'
loop_
 _atom_site_type_symbol
 _atom_site_label
 _atom_site_symmetry_multiplicity
 _atom_site_fract_x
 _atom_site_fract_y
 _atom_site_fract_z
 _atom_site_occupancy
  Mg  Mg0  1  0.00000000  0.66851600  0.33148400  1
  Mg  Mg1  1  0.33148400  0.00000000  0.66851600  1
  Mg  Mg2  1  0.50000000  0.50000000  0.50000000  1
  Mg  Mg3  1  0.66851600  0.33148400  0.00000000  1
  Ti  Ti0  1  0.16757700  0.16757700  0.16757700  1
  Ti  Ti1  1  0.83242300  0.83242300  0.83242300  1
loop_
_geom_bond_atom_site_label_1
_geom_bond_atom_site_label_2
_geom_bond_distance
_geom_bond_site_symmetry_2
Mg0 Mg3 3.039563 1_465
Mg0 Mg1 3.039563 1_564
Mg0 Mg3 3.065034 1_555
Mg0 Mg1 3.065034 1_555
Mg0 Mg1 3.065034 1_465
Mg0 Mg3 3.065035 1_456
Mg0 Ti0 3.107945 1_555
Mg0 Ti1 3.107945 1_455
Mg0 Mg2 3.119490 1_555
Mg0 Mg2 3.119491 1_455
Mg0 Ti1 3.122768 1_454
Mg0 Ti0 3.122769 1_565
Mg1 Mg3 3.039563 1_456
Mg1 Mg3 3.065034 1_546
Mg1 Mg3 3.065035 1_555
Mg1 Ti1 3.107945 1_545
Mg1 Ti0 3.107945 1_555
Mg1 Mg2 3.119490 1_545
Mg1 Mg2 3.119491 1_555
Mg1 Ti0 3.122768 1_556
Mg1 Ti1 3.122769 1_445
Mg2 Ti1 3.056552 1_545
Mg2 Ti1 3.056552 1_455
Mg2 Ti0 3.056552 1_565
Mg2 Ti0 3.056552 1_655
Mg2 Ti1 3.056553 1_554
Mg2 Ti0 3.056553 1_556
Mg2 Mg3 3.119490 1_555
Mg2 Mg3 3.119490 1_556
Mg3 Ti1 3.107945 1_554
Mg3 Ti0 3.107945 1_555
Mg3 Ti0 3.122768 1_655
Mg3 Ti1 3.122768 1_544
Ti0 Ti1 3.056649 1_454
Ti0 Ti1 3.056649 1_544
Ti0 Ti1 3.056649 1_445
