# generated using pymatgen
data_Ta3TiB4
_symmetry_space_group_name_H-M   'P 1'
_cell_length_a   3.12404450
_cell_length_b   3.27038450
_cell_length_c   8.66886690
_cell_angle_alpha   90.00000000
_cell_angle_beta   90.00000000
_cell_angle_gamma   90.00000000
_symmetry_Int_Tables_number   1
_chemical_formula_structural   Ta3TiB4
_chemical_formula_sum   'Ta3 Ti1 B4'
_cell_volume   88.56831089
_cell_formula_units_Z   1
loop_
 _symmetry_equiv_pos_site_id
 _symmetry_equiv_pos_as_xyz
  1  'x, y, z'
loop_
 _atom_site_type_symbol
 _atom_site_label
 _atom_site_symmetry_multiplicity
 _atom_site_fract_x
 _atom_site_fract_y
 _atom_site_fract_z
 _atom_site_occupancy
  Ta  Ta0  1  0.00000000  0.50000000  0.64529078  1
  Ta  Ta1  1  0.50000000  0.50000000  0.35089751  1
  Ta  Ta2  1  0.50000000  -0.00000000  0.85713762  1
  Ti  Ti0  1  -0.00000000  0.00000000  0.14494755  1
  B  B0  1  0.00000000  -0.00000000  0.43833328  1
  B  B1  1  0.00000000  0.50000000  0.94489572  1
  B  B2  1  0.50000000  0.50000000  0.06093162  1
  B  B3  1  0.50000000  0.00000000  0.55756591  1
loop_
_geom_bond_atom_site_label_1
_geom_bond_atom_site_label_2
_geom_bond_distance
_geom_bond_site_symmetry_2
B0 B3 1.873037 1_455
B0 B3 1.873037 1_555
B0 Ta1 2.385012 1_555
B0 Ta1 2.385012 1_455
B0 Ta1 2.385012 1_545
B0 Ta1 2.385012 1_445
B0 Ta0 2.427468 1_545
B0 Ta0 2.427468 1_555
B0 Ti0 2.543322 1_555
B1 B2 1.857888 1_556
B1 B2 1.857888 1_456
B1 Ti0 2.383565 1_556
B1 Ti0 2.383565 1_566
B1 Ta2 2.385902 1_565
B1 Ta2 2.385902 1_455
B1 Ta2 2.385902 1_555
B1 Ta2 2.385902 1_465
B1 Ta0 2.597235 1_555
B2 Ti0 2.375757 1_565
B2 Ti0 2.375757 1_665
B2 Ti0 2.375757 1_555
B2 Ti0 2.375757 1_655
B2 Ta2 2.407271 1_564
B2 Ta2 2.407271 1_554
B2 Ta1 2.513676 1_555
B3 Ta0 2.385810 1_655
B3 Ta0 2.385810 1_645
B3 Ta0 2.385810 1_545
B3 Ta0 2.385810 1_555
B3 Ta1 2.425617 1_555
B3 Ta1 2.425617 1_545
B3 Ta2 2.596947 1_555
