# generated using pymatgen
data_Li3Mn2O5
_symmetry_space_group_name_H-M   'P 1'
_cell_length_a   2.96652773
_cell_length_b   9.92462807
_cell_length_c   6.46913387
_cell_angle_alpha   99.43877510
_cell_angle_beta   103.33231923
_cell_angle_gamma   93.12398702
_symmetry_Int_Tables_number   1
_chemical_formula_structural   Li3Mn2O5
_chemical_formula_sum   'Li6 Mn4 O10'
_cell_volume   181.97251893
_cell_formula_units_Z   2
loop_
 _symmetry_equiv_pos_site_id
 _symmetry_equiv_pos_as_xyz
  1  'x, y, z'
loop_
 _atom_site_type_symbol
 _atom_site_label
 _atom_site_symmetry_multiplicity
 _atom_site_fract_x
 _atom_site_fract_y
 _atom_site_fract_z
 _atom_site_occupancy
  Li  Li0  1  0.89984700  0.69996900  0.80000100  1
  Li  Li1  1  0.39989000  0.20002600  0.80002900  1
  Li  Li2  1  0.08427000  0.30277100  0.18180300  1
  Li  Li3  1  0.71556600  0.09720800  0.41828600  1
  Li  Li4  1  0.51903300  0.48596500  0.98954800  1
  Li  Li5  1  0.28092800  0.91399800  0.61050300  1
  Mn  Mn0  1  0.81993600  0.39144500  0.60328300  1
  Mn  Mn1  1  0.20903400  0.59632900  0.39169100  1
  Mn  Mn2  1  0.98019700  0.00861500  0.99654200  1
  Mn  Mn3  1  0.59110900  0.80365400  0.20833100  1
  O  O0  1  0.54846400  0.13120900  0.09200800  1
  O  O1  1  0.25168100  0.26881900  0.50803500  1
  O  O2  1  0.37233700  0.53161600  0.67471500  1
  O  O3  1  0.42775100  0.86841600  0.92531800  1
  O  O4  1  0.94643400  0.35524800  0.87689400  1
  O  O5  1  0.85359900  0.04474800  0.72301600  1
  O  O6  1  0.71240200  0.74234800  0.49090700  1
  O  O7  1  0.08752000  0.65762800  0.10913800  1
  O  O8  1  0.09602800  0.94906800  0.28893800  1
  O  O9  1  0.70397300  0.45092000  0.31101500  1
loop_
_geom_bond_atom_site_label_1
_geom_bond_atom_site_label_2
_geom_bond_distance
_geom_bond_site_symmetry_2
Li0 O6 2.067105 1_555
Li0 O7 2.067262 1_656
Li0 O2 2.140875 1_555
Li0 O3 2.142228 1_655
Li0 O3 2.397437 1_555
Li0 O2 2.397555 1_655
Li1 O1 2.073706 1_555
Li1 O0 2.073756 1_556
Li1 O5 2.086394 1_455
Li1 O4 2.086599 1_555
Li1 O4 2.170970 1_455
Li1 O5 2.172141 1_555
Li2 O4 2.077827 1_454
Li2 O9 2.084687 1_455
Li2 O1 2.140615 1_555
Li2 O0 2.172056 1_455
Li2 O9 2.198575 1_555
Li2 O0 2.330860 1_555
Li3 O5 2.076658 1_555
Li3 O8 2.085317 1_645
Li3 O0 2.141050 1_555
Li3 O1 2.172980 1_655
Li3 O8 2.198245 1_545
Li3 O1 2.330502 1_555
Li4 O4 1.994564 1_455
Li4 O4 2.029049 1_555
Li4 O2 2.111435 1_555
Li4 O9 2.116268 1_556
Li4 O7 2.235612 1_656
Li4 O7 2.324193 1_556
Li5 O5 1.994842 1_565
Li5 O5 2.028729 1_465
Li5 O3 2.111060 1_555
Li5 O8 2.116950 1_555
Li5 O6 2.235601 1_455
Li5 O6 2.324038 1_555
Mn0 O4 1.822027 1_555
Mn0 O1 1.937503 1_555
Mn0 O1 1.946564 1_655
Mn0 O2 2.006400 1_655
Mn0 O9 2.032187 1_555
Mn0 O2 2.045821 1_555
Mn1 O9 1.938171 1_455
Mn1 O6 1.938799 1_555
Mn1 O7 1.981394 1_555
Mn1 O2 2.002490 1_555
Mn1 O9 2.201838 1_555
Mn1 O6 2.246413 1_455
Mn2 O5 1.821265 1_555
Mn2 O0 1.937383 1_656
Mn2 O0 1.946860 1_556
Mn2 O3 2.006764 1_545
Mn2 O8 2.033299 1_646
Mn2 O3 2.045557 1_645
Mn3 O8 1.937936 1_655
Mn3 O7 1.939268 1_555
Mn3 O6 1.981575 1_555
Mn3 O3 2.002669 1_554
Mn3 O8 2.202062 1_555
Mn3 O7 2.245911 1_655
