# generated using pymatgen
data_BaYCuSnO5
_symmetry_space_group_name_H-M   'P 1'
_cell_length_a   3.98744600
_cell_length_b   3.98744600
_cell_length_c   8.49154700
_cell_angle_alpha   90.00000000
_cell_angle_beta   90.00000000
_cell_angle_gamma   90.00000000
_symmetry_Int_Tables_number   1
_chemical_formula_structural   BaYCuSnO5
_chemical_formula_sum   'Ba1 Y1 Cu1 Sn1 O5'
_cell_volume   135.01326724
_cell_formula_units_Z   1
loop_
 _symmetry_equiv_pos_site_id
 _symmetry_equiv_pos_as_xyz
  1  'x, y, z'
loop_
 _atom_site_type_symbol
 _atom_site_label
 _atom_site_symmetry_multiplicity
 _atom_site_fract_x
 _atom_site_fract_y
 _atom_site_fract_z
 _atom_site_occupancy
  Ba  Ba0  1  0.00000000  0.00000000  0.03372600  1
  Y  Y0  1  0.00000000  0.00000000  0.44262000  1
  Cu  Cu0  1  0.50000000  0.50000000  0.27719600  1
  Sn  Sn0  1  0.50000000  0.50000000  0.69946700  1
  O  O0  1  0.00000000  0.50000000  0.61964400  1
  O  O1  1  0.50000000  0.00000000  0.61964400  1
  O  O2  1  0.00000000  0.50000000  0.28012400  1
  O  O3  1  0.50000000  0.00000000  0.28012400  1
  O  O4  1  0.50000000  0.50000000  0.93537200  1
loop_
_geom_bond_atom_site_label_1
_geom_bond_atom_site_label_2
_geom_bond_distance
_geom_bond_site_symmetry_2
Ba0 O3 2.890095 1_455
Ba0 O3 2.890095 1_555
Ba0 O2 2.890095 1_555
Ba0 O2 2.890095 1_545
Ba0 O4 2.940644 1_544
Ba0 O4 2.940644 1_554
Ba0 O4 2.940644 1_454
Ba0 O4 2.940644 1_444
Cu0 O3 1.993878 1_565
Cu0 O3 1.993878 1_555
Cu0 O2 1.993878 1_555
Cu0 O2 1.993878 1_655
O0 Sn0 2.105795 1_455
O0 Sn0 2.105795 1_555
O0 Y0 2.496911 1_565
O0 Y0 2.496911 1_555
O1 Sn0 2.105795 1_545
O1 Sn0 2.105795 1_555
O1 Y0 2.496911 1_555
O1 Y0 2.496911 1_655
O2 Y0 2.424644 1_555
O2 Y0 2.424644 1_565
O3 Y0 2.424644 1_555
O3 Y0 2.424644 1_655
O4 Sn0 2.003198 1_555
