# generated using pymatgen
data_NaTh2(PO4)3
_symmetry_space_group_name_H-M   'P 1'
_cell_length_a   9.45044192
_cell_length_b   9.45044192
_cell_length_c   8.23516905
_cell_angle_alpha   79.67647472
_cell_angle_beta   79.67647472
_cell_angle_gamma   42.56847198
_symmetry_Int_Tables_number   1
_chemical_formula_structural   NaTh2(PO4)3
_chemical_formula_sum   'Na2 Th4 P6 O24'
_cell_volume   488.24917216
_cell_formula_units_Z   2
loop_
 _symmetry_equiv_pos_site_id
 _symmetry_equiv_pos_as_xyz
  1  'x, y, z'
loop_
 _atom_site_type_symbol
 _atom_site_label
 _atom_site_symmetry_multiplicity
 _atom_site_fract_x
 _atom_site_fract_y
 _atom_site_fract_z
 _atom_site_occupancy
  Na  Na0  1  0.60311000  0.39689000  0.25000000  1
  Na  Na1  1  0.39689000  0.60311000  0.75000000  1
  Th  Th0  1  0.75162900  0.94201700  0.03581200  1
  Th  Th1  1  0.24837100  0.05798300  0.96418800  1
  Th  Th2  1  0.05798300  0.24837100  0.46418800  1
  Th  Th3  1  0.94201700  0.75162900  0.53581200  1
  P  P0  1  0.59969200  0.77949800  0.31285100  1
  P  P1  1  0.40030800  0.22050200  0.68714900  1
  P  P2  1  0.22050200  0.40030800  0.18714900  1
  P  P3  1  0.77949800  0.59969200  0.81285100  1
  P  P4  1  0.09863200  0.90136800  0.25000000  1
  P  P5  1  0.90136800  0.09863200  0.75000000  1
  O  O0  1  0.45424300  0.26933600  0.15898500  1
  O  O1  1  0.54575700  0.73066400  0.84101500  1
  O  O2  1  0.73066400  0.54575700  0.34101500  1
  O  O3  1  0.26933600  0.45424300  0.65898500  1
  O  O4  1  0.89259900  0.96426400  0.24829900  1
  O  O5  1  0.10740100  0.03573600  0.75170100  1
  O  O6  1  0.03573600  0.10740100  0.25170100  1
  O  O7  1  0.96426400  0.89259900  0.74829900  1
  O  O8  1  0.55400900  0.85203800  0.12433200  1
  O  O9  1  0.44599100  0.14796200  0.87566800  1
  O  O10  1  0.14796200  0.44599100  0.37566800  1
  O  O11  1  0.85203800  0.55400900  0.62433200  1
  O  O12  1  0.39448100  0.91306400  0.42254700  1
  O  O13  1  0.60551900  0.08693600  0.57745300  1
  O  O14  1  0.08693600  0.60551900  0.07745300  1
  O  O15  1  0.91306400  0.39448100  0.92254700  1
  O  O16  1  0.72539400  0.82445800  0.33074800  1
  O  O17  1  0.27460600  0.17554200  0.66925200  1
  O  O18  1  0.17554200  0.27460600  0.16925200  1
  O  O19  1  0.82445800  0.72539400  0.83074800  1
  O  O20  1  0.24808800  0.80146200  0.09208400  1
  O  O21  1  0.75191200  0.19853800  0.90791600  1
  O  O22  1  0.19853800  0.75191200  0.40791600  1
  O  O23  1  0.80146200  0.24808800  0.59208400  1
loop_
_geom_bond_atom_site_label_1
_geom_bond_atom_site_label_2
_geom_bond_distance
_geom_bond_site_symmetry_2
Na0 O2 2.682132 1_555
Na0 O0 2.682132 1_555
Na0 O6 2.780676 1_655
Na0 O4 2.780676 1_545
Na0 O22 2.907457 1_555
Na0 O20 2.907457 1_555
Na1 O1 2.682132 1_555
Na1 O3 2.682132 1_555
Na1 O5 2.780676 1_565
Na1 O7 2.780676 1_455
Na1 O21 2.907457 1_555
Na1 O23 2.907457 1_555
O0 P2 1.535370 1_555
O0 Th0 2.407029 1_545
O1 P3 1.535370 1_555
O1 Th1 2.407029 1_565
O2 P0 1.535370 1_555
O2 Th2 2.407029 1_655
O3 P1 1.535370 1_555
O3 Th3 2.407029 1_455
O4 P4 1.564225 1_655
O4 Th0 2.502204 1_555
O4 Th3 2.677868 1_555
O5 P5 1.564225 1_455
O5 Th1 2.502204 1_555
O5 Th2 2.677868 1_555
O6 P4 1.564225 1_545
O6 Th2 2.502204 1_555
O6 Th1 2.677868 1_554
O7 P5 1.564225 1_565
O7 Th3 2.502204 1_555
O7 Th0 2.677868 1_556
O8 P0 1.577781 1_555
O8 Th1 2.456660 1_564
O8 Th0 2.524172 1_555
O9 P1 1.577781 1_555
O9 Th0 2.456660 1_546
O9 Th1 2.524172 1_555
O10 P2 1.577781 1_555
O10 Th3 2.456660 1_455
O10 Th2 2.524172 1_555
O11 P3 1.577781 1_555
O11 Th2 2.456660 1_655
O11 Th3 2.524172 1_555
O12 P0 1.531500 1_555
O12 Th2 2.329702 1_565
O13 P1 1.531500 1_555
O13 Th3 2.329702 1_545
O14 P2 1.531500 1_555
O14 Th0 2.329702 1_455
O15 P3 1.531500 1_555
O15 Th1 2.329702 1_655
O16 P0 1.562726 1_555
O16 Th3 2.502723 1_555
O16 Th0 2.533338 1_555
O17 P1 1.562726 1_555
O17 Th2 2.502723 1_555
O17 Th1 2.533338 1_555
O18 P2 1.562726 1_555
O18 Th1 2.502723 1_554
O18 Th2 2.533338 1_555
O19 P3 1.562726 1_555
O19 Th0 2.502723 1_556
O19 Th3 2.533338 1_555
O20 P4 1.547606 1_555
O20 Th1 2.465696 1_564
O21 P5 1.547606 1_555
O21 Th0 2.465696 1_546
O22 P4 1.547606 1_555
O22 Th3 2.465696 1_455
O23 P5 1.547606 1_555
O23 Th2 2.465696 1_655
