# generated using pymatgen
data_Bi3Au
_symmetry_space_group_name_H-M   'P 1'
_cell_length_a   4.82641200
_cell_length_b   4.82641200
_cell_length_c   4.82641200
_cell_angle_alpha   90.00000000
_cell_angle_beta   90.00000000
_cell_angle_gamma   90.00000000
_symmetry_Int_Tables_number   1
_chemical_formula_structural   Bi3Au
_chemical_formula_sum   'Bi3 Au1'
_cell_volume   112.42766121
_cell_formula_units_Z   1
loop_
 _symmetry_equiv_pos_site_id
 _symmetry_equiv_pos_as_xyz
  1  'x, y, z'
loop_
 _atom_site_type_symbol
 _atom_site_label
 _atom_site_symmetry_multiplicity
 _atom_site_fract_x
 _atom_site_fract_y
 _atom_site_fract_z
 _atom_site_occupancy
  Bi  Bi0  1  0.00000000  0.50000000  0.50000000  1
  Bi  Bi1  1  0.50000000  0.00000000  0.50000000  1
  Bi  Bi2  1  0.50000000  0.50000000  0.00000000  1
  Au  Au0  1  0.00000000  0.00000000  0.00000000  1
loop_
_geom_bond_atom_site_label_1
_geom_bond_atom_site_label_2
_geom_bond_distance
_geom_bond_site_symmetry_2
Bi0 Bi2 3.412789 1_456
Bi0 Bi2 3.412789 1_455
Bi0 Bi1 3.412789 1_565
Bi0 Bi2 3.412789 1_555
Bi0 Bi2 3.412789 1_556
Bi0 Bi1 3.412789 1_455
Bi0 Bi1 3.412789 1_465
Bi0 Bi1 3.412789 1_555
Bi1 Bi2 3.412789 1_546
Bi1 Bi2 3.412789 1_555
Bi1 Bi2 3.412789 1_545
Bi1 Bi2 3.412789 1_556
Au0 Bi1 3.412789 1_454
Au0 Bi0 3.412789 1_555
Au0 Bi0 3.412789 1_545
Au0 Bi2 3.412789 1_455
Au0 Bi0 3.412789 1_544
Au0 Bi0 3.412789 1_554
Au0 Bi2 3.412789 1_445
Au0 Bi2 3.412789 1_555
Au0 Bi2 3.412789 1_545
Au0 Bi1 3.412789 1_455
Au0 Bi1 3.412789 1_555
Au0 Bi1 3.412789 1_554
