# generated using pymatgen
data_Li32Mn13Cr3O48
_symmetry_space_group_name_H-M   'P 1'
_cell_length_a   5.01095100
_cell_length_b   8.70281619
_cell_length_c   19.46258574
_cell_angle_alpha   98.36818229
_cell_angle_beta   94.72403792
_cell_angle_gamma   89.89653223
_symmetry_Int_Tables_number   1
_chemical_formula_structural   Li32Mn13Cr3O48
_chemical_formula_sum   'Li32 Mn13 Cr3 O48'
_cell_volume   836.81782545
_cell_formula_units_Z   1
loop_
 _symmetry_equiv_pos_site_id
 _symmetry_equiv_pos_as_xyz
  1  'x, y, z'
loop_
 _atom_site_type_symbol
 _atom_site_label
 _atom_site_symmetry_multiplicity
 _atom_site_fract_x
 _atom_site_fract_y
 _atom_site_fract_z
 _atom_site_occupancy
  Li  Li0  1  0.99220200  0.16794400  0.24968900  1
  Li  Li1  1  0.87230800  0.37446900  0.37524300  1
  Li  Li2  1  0.74935200  0.24981400  0.00010500  1
  Li  Li3  1  0.74232400  0.91878800  0.99997600  1
  Li  Li4  1  0.99247500  0.16915600  0.75046200  1
  Li  Li5  1  0.75651500  0.57944600  0.49993200  1
  Li  Li6  1  0.87667900  0.37435100  0.87487400  1
  Li  Li7  1  0.74890000  0.25133800  0.49970600  1
  Li  Li8  1  0.74431100  0.91965400  0.50018800  1
  Li  Li9  1  0.62486900  0.12498800  0.12497700  1
  Li  Li10  1  0.75762400  0.58159000  0.99988100  1
  Li  Li11  1  0.50992300  0.33142200  0.24971700  1
  Li  Li12  1  0.62631600  0.12436200  0.62486100  1
  Li  Li13  1  0.49989300  0.00001900  0.24996200  1
  Li  Li14  1  0.49091600  0.66843600  0.24984400  1
  Li  Li15  1  0.50767900  0.33205600  0.74983500  1
  Li  Li16  1  0.37459600  0.87451600  0.37474600  1
  Li  Li17  1  0.49949200  0.99983200  0.74993900  1
  Li  Li18  1  0.25095000  0.75024200  0.00011100  1
  Li  Li19  1  0.48936500  0.66792000  0.74911300  1
  Li  Li20  1  0.24238200  0.42012800  0.00077900  1
  Li  Li21  1  0.37550300  0.87449900  0.87512900  1
  Li  Li22  1  0.25591600  0.07926600  0.49944300  1
  Li  Li23  1  0.25095400  0.75078800  0.50021100  1
  Li  Li24  1  0.12485100  0.62520500  0.12506600  1
  Li  Li25  1  0.24315500  0.41977100  0.50026900  1
  Li  Li26  1  0.00891300  0.83096100  0.25042500  1
  Li  Li27  1  0.25702900  0.08011500  0.99987000  1
  Li  Li28  1  0.12503200  0.62440000  0.62512600  1
  Li  Li29  1  0.99836900  0.50160100  0.24990100  1
  Li  Li30  1  0.00861000  0.83093800  0.75045400  1
  Li  Li31  1  0.00136500  0.50063900  0.74996500  1
  Mn  Mn0  1  0.87260100  0.70990800  0.37429700  1
  Mn  Mn1  1  0.87606400  0.04133700  0.37496200  1
  Mn  Mn2  1  0.87522300  0.71045000  0.87555000  1
  Mn  Mn3  1  0.87499900  0.04128500  0.87502100  1
  Mn  Mn4  1  0.62586200  0.79156600  0.12508500  1
  Mn  Mn5  1  0.62444600  0.45873700  0.12509100  1
  Mn  Mn6  1  0.62550800  0.79131900  0.62488800  1
  Mn  Mn7  1  0.62534700  0.46026500  0.62540800  1
  Mn  Mn8  1  0.37639200  0.20753300  0.37563100  1
  Mn  Mn9  1  0.37255900  0.20672800  0.87442300  1
  Mn  Mn10  1  0.12457000  0.95857600  0.12514800  1
  Mn  Mn11  1  0.12580300  0.29133800  0.12514400  1
  Mn  Mn12  1  0.12305600  0.95655600  0.62435600  1
  Cr  Cr0  1  0.37017300  0.53961200  0.37508800  1
  Cr  Cr1  1  0.38026000  0.53953800  0.87493600  1
  Cr  Cr2  1  0.13091600  0.28925400  0.62502700  1
  O  O0  1  0.96417200  0.10663300  0.06915800  1
  O  O1  1  0.92884000  0.78540100  0.06918500  1
  O  O2  1  0.92798900  0.42742100  0.06806400  1
  O  O3  1  0.96232900  0.10263200  0.56858400  1
  O  O4  1  0.82182000  0.96468300  0.18088800  1
  O  O5  1  0.82228300  0.32266800  0.18188000  1
  O  O6  1  0.92855000  0.78452400  0.56913300  1
  O  O7  1  0.92688700  0.42710200  0.56805300  1
  O  O8  1  0.78551000  0.64339700  0.18060700  1
  O  O9  1  0.71229500  0.85753000  0.31903800  1
  O  O10  1  0.82151100  0.96494000  0.68097900  1
  O  O11  1  0.82341900  0.32377100  0.68184900  1
  O  O12  1  0.67810700  0.53596500  0.31893100  1
  O  O13  1  0.67861000  0.17780100  0.31808500  1
  O  O14  1  0.78669500  0.64411900  0.68080700  1
  O  O15  1  0.71388500  0.85706600  0.81934200  1
  O  O16  1  0.46399900  0.60632400  0.06901600  1
  O  O17  1  0.57266500  0.71369200  0.43095300  1
  O  O18  1  0.57194300  0.07158900  0.43180900  1
  O  O19  1  0.67431600  0.53762500  0.81942000  1
  O  O20  1  0.67770600  0.17776800  0.81823800  1
  O  O21  1  0.42783300  0.92762800  0.06820600  1
  O  O22  1  0.42824100  0.28524100  0.06905900  1
  O  O23  1  0.53807100  0.38968800  0.43173900  1
  O  O24  1  0.46359900  0.60691100  0.56916900  1
  O  O25  1  0.57586100  0.71757600  0.93164900  1
  O  O26  1  0.57213600  0.07234500  0.93185700  1
  O  O27  1  0.32241500  0.82264500  0.18171400  1
  O  O28  1  0.32195900  0.46467700  0.18093400  1
  O  O29  1  0.42802200  0.92780900  0.56821100  1
  O  O30  1  0.42401300  0.28700800  0.56930600  1
  O  O31  1  0.53224200  0.39345200  0.93083200  1
  O  O32  1  0.28603200  0.14359800  0.18088000  1
  O  O33  1  0.21869900  0.35720100  0.31920300  1
  O  O34  1  0.32267900  0.82229500  0.68186700  1
  O  O35  1  0.32651600  0.46731400  0.68172200  1
  O  O36  1  0.17297600  0.67991800  0.31722400  1
  O  O37  1  0.17794400  0.03530600  0.31897500  1
  O  O38  1  0.28323100  0.14296600  0.68085600  1
  O  O39  1  0.21213300  0.35293200  0.81855600  1
  O  O40  1  0.07533800  0.57448100  0.43168400  1
  O  O41  1  0.07204400  0.21509400  0.43090100  1
  O  O42  1  0.17622600  0.67739700  0.81814300  1
  O  O43  1  0.17792100  0.03439900  0.81910800  1
  O  O44  1  0.03598500  0.89370400  0.43062600  1
  O  O45  1  0.07351900  0.57381600  0.93187500  1
  O  O46  1  0.07112500  0.21497100  0.93091000  1
  O  O47  1  0.03715500  0.89431900  0.93092700  1
loop_
_geom_bond_atom_site_label_1
_geom_bond_atom_site_label_2
_geom_bond_distance
_geom_bond_site_symmetry_2
Li0 O32 2.060894 1_655
Li0 O37 2.063885 1_655
Li0 O13 2.135288 1_555
Li0 O5 2.146593 1_555
Li0 O4 2.186054 1_545
Li0 O33 2.221848 1_655
Li1 O23 2.071671 1_555
Li1 O41 2.086311 1_655
Li1 O13 2.093567 1_555
Li1 O12 2.095527 1_555
Li1 O33 2.118531 1_655
Li1 O40 2.130121 1_655
Li2 O26 2.037615 1_554
Li2 O2 2.038321 1_555
Li2 O22 2.172246 1_555
Li2 O46 2.177710 1_654
Li2 O0 2.182193 1_555
Li2 O31 2.192715 1_554
Li3 O47 2.067993 1_655
Li3 O1 2.068645 1_556
Li3 O21 2.137124 1_556
Li3 O26 2.143875 1_565
Li3 O25 2.162260 1_555
Li3 O0 2.200137 1_566
Li4 O38 2.060091 1_655
Li4 O43 2.066762 1_655
Li4 O20 2.132365 1_555
Li4 O11 2.155007 1_555
Li4 O39 2.162181 1_655
Li4 O10 2.199191 1_545
Li5 O24 2.063526 1_555
Li5 O17 2.065176 1_555
Li5 O7 2.136712 1_555
Li5 O40 2.156647 1_655
Li5 O23 2.194575 1_555
Li5 O6 2.203886 1_555
Li6 O39 2.074757 1_655
Li6 O46 2.079209 1_655
Li6 O20 2.100544 1_555
Li6 O31 2.109160 1_555
Li6 O19 2.114968 1_555
Li6 O45 2.117173 1_655
Li7 O7 2.030267 1_555
Li7 O18 2.046933 1_555
Li7 O23 2.131769 1_555
Li7 O41 2.178788 1_655
Li7 O30 2.195603 1_555
Li7 O3 2.208964 1_555
Li8 O44 2.062969 1_655
Li8 O6 2.070561 1_555
Li8 O18 2.141087 1_565
Li8 O29 2.141857 1_555
Li8 O3 2.156633 1_565
Li8 O17 2.209083 1_555
Li9 O32 2.084433 1_555
Li9 O0 2.085492 1_555
Li9 O22 2.088175 1_555
Li9 O4 2.089125 1_545
Li9 O21 2.102338 1_545
Li9 O5 2.106158 1_555
Li10 O25 2.061063 1_555
Li10 O16 2.064538 1_556
Li10 O45 2.140268 1_655
Li10 O2 2.148822 1_556
Li10 O1 2.195467 1_556
Li10 O31 2.208749 1_555
Li11 O33 2.060198 1_555
Li11 O28 2.065036 1_555
Li11 O5 2.123569 1_555
Li11 O13 2.144970 1_555
Li11 O12 2.194106 1_555
Li11 O32 2.201620 1_555
Li12 O3 2.076718 1_555
Li12 O10 2.082005 1_545
Li12 O29 2.098981 1_545
Li12 O38 2.103740 1_555
Li12 O30 2.111887 1_555
Li12 O11 2.117277 1_555
Li13 O27 2.037570 1_545
Li13 O13 2.041093 1_555
Li13 O9 2.173188 1_545
Li13 O37 2.176265 1_555
Li13 O4 2.176980 1_545
Li13 O32 2.182737 1_555
Li14 O12 2.063128 1_555
Li14 O8 2.069662 1_555
Li14 O36 2.138544 1_555
Li14 O27 2.145165 1_555
Li14 O28 2.187737 1_555
Li14 O9 2.206310 1_555
Li15 O35 2.054070 1_555
Li15 O39 2.066326 1_555
Li15 O11 2.139130 1_555
Li15 O20 2.151873 1_555
Li15 O19 2.201343 1_555
Li15 O38 2.211395 1_555
Li16 O9 2.077391 1_555
Li16 O44 2.083210 1_555
Li16 O37 2.090046 1_565
Li16 O17 2.098217 1_555
Li16 O36 2.100047 1_555
Li16 O18 2.103254 1_565
Li17 O34 2.035504 1_555
Li17 O20 2.042737 1_565
Li17 O10 2.175695 1_555
Li17 O43 2.176461 1_565
Li17 O15 2.183364 1_555
Li17 O38 2.185505 1_565
Li18 O45 2.031896 1_554
Li18 O21 2.034991 1_555
Li18 O1 2.177629 1_455
Li18 O25 2.179997 1_554
Li18 O16 2.180637 1_555
Li18 O47 2.186767 1_554
Li19 O19 2.063025 1_555
Li19 O14 2.067617 1_555
Li19 O34 2.131485 1_555
Li19 O42 2.142071 1_555
Li19 O35 2.143946 1_555
Li19 O15 2.223098 1_555
Li20 O31 2.061391 1_554
Li20 O22 2.063409 1_555
Li20 O2 2.125110 1_455
Li20 O45 2.152777 1_554
Li20 O16 2.181738 1_555
Li20 O46 2.209079 1_554
Li21 O47 2.081182 1_555
Li21 O15 2.081194 1_555
Li21 O25 2.081706 1_555
Li21 O43 2.089107 1_565
Li21 O26 2.104306 1_565
Li21 O42 2.107046 1_555
Li22 O3 2.064411 1_455
Li22 O41 2.068436 1_555
Li22 O18 2.135964 1_555
Li22 O29 2.142834 1_545
Li22 O44 2.179473 1_545
Li22 O30 2.219980 1_555
Li23 O40 2.030614 1_555
Li23 O29 2.032303 1_555
Li23 O6 2.176273 1_455
Li23 O17 2.179298 1_555
Li23 O24 2.180194 1_555
Li23 O44 2.187835 1_555
Li24 O8 2.082540 1_455
Li24 O1 2.086068 1_455
Li24 O16 2.087424 1_555
Li24 O28 2.090419 1_555
Li24 O27 2.103108 1_555
Li24 O2 2.106358 1_455
Li25 O30 2.051630 1_555
Li25 O23 2.062288 1_555
Li25 O7 2.139067 1_455
Li25 O40 2.153119 1_555
Li25 O24 2.190374 1_555
Li25 O41 2.201291 1_555
Li26 O9 2.069236 1_455
Li26 O4 2.076144 1_455
Li26 O36 2.100347 1_555
Li26 O27 2.139838 1_555
Li26 O37 2.188318 1_565
Li26 O8 2.207847 1_455
Li27 O0 2.063846 1_456
Li27 O46 2.072470 1_555
Li27 O26 2.137242 1_555
Li27 O21 2.141185 1_546
Li27 O47 2.181812 1_545
Li27 O22 2.202671 1_556
Li28 O14 2.079817 1_455
Li28 O24 2.083901 1_555
Li28 O35 2.086081 1_555
Li28 O6 2.087875 1_455
Li28 O7 2.106489 1_455
Li28 O34 2.106888 1_555
Li29 O36 2.028512 1_655
Li29 O5 2.041719 1_555
Li29 O12 2.169407 1_555
Li29 O8 2.173029 1_555
Li29 O28 2.182951 1_655
Li29 O33 2.204662 1_655
Li30 O15 2.065568 1_455
Li30 O10 2.076913 1_455
Li30 O42 2.133687 1_555
Li30 O34 2.140266 1_555
Li30 O43 2.184160 1_565
Li30 O14 2.198667 1_455
Li31 O42 2.028314 1_555
Li31 O11 2.034255 1_455
Li31 O35 2.178412 1_555
Li31 O14 2.184925 1_455
Li31 O39 2.193704 1_555
Li31 O19 2.202951 1_455
Mn0 O9 1.925772 1_555
Mn0 O17 1.933417 1_555
Mn0 O36 1.938317 1_655
Mn0 O12 1.939103 1_555
Mn0 O44 1.943499 1_655
Mn0 O40 1.964829 1_655
Mn1 O44 1.930039 1_645
Mn1 O37 1.932082 1_655
Mn1 O9 1.941084 1_545
Mn1 O41 1.945882 1_655
Mn1 O18 1.951224 1_555
Mn1 O13 1.952643 1_555
Mn2 O25 1.922482 1_555
Mn2 O15 1.932699 1_555
Mn2 O47 1.933716 1_655
Mn2 O42 1.946419 1_655
Mn2 O45 1.949039 1_655
Mn2 O19 1.953255 1_555
Mn3 O47 1.932804 1_645
Mn3 O43 1.935114 1_655
Mn3 O15 1.936832 1_545
Mn3 O46 1.945395 1_655
Mn3 O26 1.946253 1_555
Mn3 O20 1.951265 1_555
Mn4 O8 1.931301 1_555
Mn4 O1 1.935528 1_555
Mn4 O4 1.940882 1_555
Mn4 O27 1.946219 1_555
Mn4 O16 1.947953 1_555
Mn4 O21 1.951581 1_555
Mn5 O28 1.932903 1_555
Mn5 O16 1.935710 1_555
Mn5 O8 1.938328 1_555
Mn5 O22 1.945554 1_555
Mn5 O5 1.950105 1_555
Mn5 O2 1.951467 1_555
Mn6 O14 1.932672 1_555
Mn6 O6 1.933743 1_555
Mn6 O24 1.939861 1_555
Mn6 O10 1.946311 1_555
Mn6 O34 1.947778 1_555
Mn6 O29 1.950487 1_555
Mn7 O35 1.922948 1_555
Mn7 O14 1.932695 1_555
Mn7 O24 1.934034 1_555
Mn7 O7 1.948068 1_555
Mn7 O11 1.949056 1_555
Mn7 O30 1.956637 1_555
Mn8 O23 1.927938 1_555
Mn8 O41 1.933016 1_555
Mn8 O18 1.936807 1_555
Mn8 O37 1.948085 1_555
Mn8 O33 1.948544 1_555
Mn8 O13 1.951500 1_555
Mn9 O39 1.924183 1_555
Mn9 O43 1.929218 1_555
Mn9 O46 1.935326 1_555
Mn9 O20 1.947088 1_555
Mn9 O26 1.951809 1_555
Mn9 O31 1.956270 1_555
Mn10 O4 1.932669 1_455
Mn10 O0 1.937634 1_465
Mn10 O1 1.941970 1_455
Mn10 O32 1.943122 1_565
Mn10 O27 1.946637 1_555
Mn10 O21 1.949119 1_555
Mn11 O32 1.932177 1_555
Mn11 O22 1.935560 1_555
Mn11 O28 1.942582 1_555
Mn11 O0 1.943376 1_455
Mn11 O5 1.947914 1_455
Mn11 O2 1.953615 1_455
Mn12 O3 1.922756 1_465
Mn12 O6 1.926390 1_455
Mn12 O10 1.937389 1_455
Mn12 O29 1.945776 1_555
Mn12 O34 1.952119 1_555
Mn12 O38 1.955844 1_565
Cr0 O33 1.909204 1_555
Cr0 O40 1.912396 1_555
Cr0 O12 1.960628 1_555
Cr0 O17 1.962476 1_555
Cr0 O23 1.971770 1_555
Cr0 O36 1.987033 1_555
Cr1 O19 1.896271 1_555
Cr1 O31 1.908519 1_555
Cr1 O45 1.965275 1_555
Cr1 O39 1.971088 1_555
Cr1 O42 1.975332 1_555
Cr1 O25 1.977184 1_555
Cr2 O30 1.894626 1_555
Cr2 O38 1.909595 1_555
Cr2 O11 1.967180 1_455
Cr2 O3 1.972568 1_455
Cr2 O35 1.977175 1_555
Cr2 O7 1.977389 1_455
