# generated using pymatgen
data_Mg2B4H15
_symmetry_space_group_name_H-M   'P 1'
_cell_length_a   8.03198392
_cell_length_b   7.95632151
_cell_length_c   10.15940295
_cell_angle_alpha   88.38922650
_cell_angle_beta   92.45418514
_cell_angle_gamma   90.32305344
_symmetry_Int_Tables_number   1
_chemical_formula_structural   Mg2B4H15
_chemical_formula_sum   'Mg4 B8 H30'
_cell_volume   648.37891964
_cell_formula_units_Z   2
loop_
 _symmetry_equiv_pos_site_id
 _symmetry_equiv_pos_as_xyz
  1  'x, y, z'
loop_
 _atom_site_type_symbol
 _atom_site_label
 _atom_site_symmetry_multiplicity
 _atom_site_fract_x
 _atom_site_fract_y
 _atom_site_fract_z
 _atom_site_occupancy
  Mg  Mg0  1  0.10897500  0.53639400  0.20618200  1
  Mg  Mg1  1  0.37874300  0.96741700  0.79658600  1
  Mg  Mg2  1  0.93057400  0.02811400  0.00278800  1
  Mg  Mg3  1  0.28268500  0.47872700  0.52760800  1
  B  B0  1  0.35022000  0.72949400  0.64768800  1
  B  B1  1  0.17574100  0.89895000  0.94891900  1
  B  B2  1  0.65491600  0.00618400  0.91022000  1
  B  B3  1  0.08080300  0.79094500  0.08113900  1
  B  B4  1  0.99773500  0.29393800  0.08875900  1
  B  B5  1  0.01431000  0.58718100  0.43209600  1
  B  B6  1  0.37190700  0.41127900  0.30333400  1
  B  B7  1  0.34126600  0.22442000  0.65970500  1
  H  H0  1  0.77854500  0.01308900  0.84222500  1
  H  H1  1  0.18686600  0.77633900  0.17160800  1
  H  H2  1  0.90218100  0.39525600  0.13210300  1
  H  H3  1  0.14619900  0.65415000  0.39863800  1
  H  H4  1  0.45032400  0.29990000  0.25846200  1
  H  H5  1  0.27958900  0.20550500  0.76780800  1
  H  H6  1  0.47102400  0.74437400  0.72432300  1
  H  H7  1  0.56854900  0.12607100  0.87454000  1
  H  H8  1  0.14487400  0.33485600  0.08814000  1
  H  H9  1  0.02910300  0.65519000  0.03909700  1
  H  H10  1  0.45253200  0.47554100  0.39564300  1
  H  H11  1  0.94136200  0.51615000  0.33942100  1
  H  H12  1  0.25982500  0.85228900  0.63359700  1
  H  H13  1  0.22391600  0.23407200  0.57818300  1
  H  H14  1  0.26728800  0.01641400  0.98341500  1
  H  H15  1  0.59412300  0.86657200  0.89456600  1
  H  H16  1  0.08195700  0.95648800  0.85686600  1
  H  H17  1  0.95368000  0.27833200  0.97200400  1
  H  H18  1  0.25390200  0.78848000  0.89799100  1
  H  H19  1  0.68188900  0.01935600  0.02983600  1
  H  H20  1  0.99018200  0.16639800  0.15967000  1
  H  H21  1  0.95883600  0.84766700  0.13753000  1
  H  H22  1  0.03840900  0.47128900  0.51443000  1
  H  H23  1  0.35310700  0.52918700  0.22230000  1
  H  H24  1  0.42964400  0.10960700  0.62645200  1
  H  H25  1  0.26430400  0.61472800  0.69280200  1
  H  H26  1  0.92767500  0.69368800  0.47458900  1
  H  H27  1  0.23705400  0.35220600  0.33831700  1
  H  H28  1  0.40793300  0.70421500  0.53997300  1
  H  H29  1  0.43122100  0.34955100  0.66742200  1
loop_
_geom_bond_atom_site_label_1
_geom_bond_atom_site_label_2
_geom_bond_distance
_geom_bond_site_symmetry_2
B0 H12 1.222048 1_555
B0 H6 1.225090 1_555
B0 H28 1.228713 1_555
B0 H25 1.231464 1_555
B1 H18 1.222273 1_555
B1 H14 1.235124 1_565
B1 H16 1.253429 1_555
B2 H7 1.220226 1_555
B2 H15 1.222602 1_545
B2 H19 1.232499 1_556
B2 H0 1.233785 1_555
B3 H1 1.229656 1_555
B3 H9 1.235798 1_555
B3 H21 1.248662 1_455
B4 H2 1.220102 1_555
B4 H8 1.224297 1_655
B4 H20 1.230586 1_555
B4 H17 1.232657 1_554
B5 H26 1.200672 1_455
B5 H11 1.236159 1_455
B5 H22 1.237799 1_555
B5 H3 1.239321 1_555
B6 H4 1.201420 1_555
B6 H23 1.236181 1_555
B6 H10 1.237524 1_555
B6 H27 1.240258 1_555
B7 H24 1.223797 1_555
B7 H13 1.229077 1_555
B7 H5 1.229105 1_555
B7 H29 1.229141 1_555
H0 Mg2 2.001246 1_556
H1 Mg0 2.031505 1_555
H2 Mg0 2.122647 1_655
H3 Mg3 2.158244 1_555
H3 Mg0 2.199977 1_555
H5 Mg1 2.067381 1_545
H6 Mg1 2.090990 1_555
H7 Mg1 2.115627 1_545
H8 Mg0 2.058023 1_555
H9 Mg0 2.002437 1_555
H10 Mg3 1.953991 1_555
H11 Mg0 1.952447 1_655
H12 Mg1 2.105521 1_555
H13 Mg3 2.056713 1_555
H14 Mg1 2.178782 1_545
H15 Mg1 2.109635 1_555
H16 Mg2 2.051980 1_466
H17 Mg2 2.015291 1_556
H18 Mg1 2.020785 1_555
H19 Mg2 2.028415 1_555
H20 Mg2 2.001827 1_555
H21 Mg2 1.962958 1_565
H22 Mg3 1.961528 1_555
H23 Mg0 1.961717 1_555
H24 Mg1 2.092834 1_545
H25 Mg3 2.033318 1_555
H27 Mg0 2.189991 1_555
H27 Mg3 2.211383 1_555
H28 Mg3 2.056192 1_555
H29 Mg3 2.069754 1_555
