# generated using pymatgen
data_K2PbCl6
_symmetry_space_group_name_H-M   'P 1'
_cell_length_a   7.44590604
_cell_length_b   7.16400573
_cell_length_c   12.26387551
_cell_angle_alpha   54.92349649
_cell_angle_beta   90.00000000
_cell_angle_gamma   90.00000000
_symmetry_Int_Tables_number   1
_chemical_formula_structural   K2PbCl6
_chemical_formula_sum   'K4 Pb2 Cl12'
_cell_volume   535.37626106
_cell_formula_units_Z   2
loop_
 _symmetry_equiv_pos_site_id
 _symmetry_equiv_pos_as_xyz
  1  'x, y, z'
loop_
 _atom_site_type_symbol
 _atom_site_label
 _atom_site_symmetry_multiplicity
 _atom_site_fract_x
 _atom_site_fract_y
 _atom_site_fract_z
 _atom_site_occupancy
  K  K0  1  0.06947098  0.72893101  0.75146023  1
  K  K1  1  0.93052902  0.27106899  0.24853977  1
  K  K2  1  0.56947098  0.27106899  0.74853977  1
  K  K3  1  0.43052902  0.72893101  0.25146023  1
  Pb  Pb0  1  0.50000000  0.00000000  0.50000000  1
  Pb  Pb1  1  -0.00000000  0.00000000  -0.00000000  1
  Cl  Cl0  1  0.30681894  0.67014065  0.54146024  1
  Cl  Cl1  1  0.69318106  0.32985935  0.45853976  1
  Cl  Cl2  1  0.80681894  0.32985935  0.95853976  1
  Cl  Cl3  1  0.19318106  0.67014065  0.04146024  1
  Cl  Cl4  1  0.78513506  0.77294571  0.53485530  1
  Cl  Cl5  1  0.21486494  0.22705429  0.46514470  1
  Cl  Cl6  1  0.28513506  0.22705429  0.96514470  1
  Cl  Cl7  1  0.71486494  0.77294571  0.03485530  1
  Cl  Cl8  1  0.49154819  0.83020501  0.74697931  1
  Cl  Cl9  1  0.50845181  0.16979499  0.25302069  1
  Cl  Cl10  1  0.99154819  0.16979499  0.75302069  1
  Cl  Cl11  1  0.00845181  0.83020501  0.24697931  1
loop_
_geom_bond_atom_site_label_1
_geom_bond_atom_site_label_2
_geom_bond_distance
_geom_bond_site_symmetry_2
Cl0 Pb0 2.555556 1_565
Cl0 K2 3.178518 1_555
Cl0 K0 3.343662 1_555
Cl0 K3 3.457329 1_555
Cl1 Pb0 2.555556 1_555
Cl1 K3 3.178518 1_555
Cl1 K1 3.343662 1_555
Cl1 K2 3.457329 1_555
Cl2 Pb1 2.555556 1_656
Cl2 K0 3.178518 1_655
Cl2 K2 3.343662 1_555
Cl2 K1 3.457329 1_556
Cl3 Pb1 2.555556 1_565
Cl3 K1 3.178518 1_455
Cl3 K3 3.343662 1_555
Cl3 K0 3.457329 1_554
Cl4 Pb0 2.556748 1_565
Cl4 K0 3.267343 1_655
Cl4 K2 3.397659 1_555
Cl4 K1 3.440117 1_565
Cl5 Pb0 2.556748 1_555
Cl5 K1 3.267343 1_455
Cl5 K3 3.397659 1_555
Cl5 K0 3.440117 1_545
Cl6 Pb1 2.556748 1_556
Cl6 K2 3.267343 1_555
Cl6 K0 3.397659 1_555
Cl6 K3 3.440117 1_546
Cl7 Pb1 2.556748 1_665
Cl7 K3 3.267343 1_555
Cl7 K1 3.397659 1_555
Cl7 K2 3.440117 1_564
Cl8 Pb0 2.534433 1_565
Cl8 K0 3.218765 1_555
Cl8 K2 3.222059 1_565
Cl9 Pb0 2.534433 1_555
Cl9 K1 3.218765 1_555
Cl9 K3 3.222059 1_545
Cl10 Pb1 2.534433 1_656
Cl10 K2 3.218765 1_555
Cl10 K0 3.222059 1_645
Cl11 Pb1 2.534433 1_565
Cl11 K3 3.218765 1_555
Cl11 K1 3.222059 1_465
