# generated using pymatgen
data_Nd2MgSe4
_symmetry_space_group_name_H-M   'P 1'
_cell_length_a   8.41206500
_cell_length_b   7.75066000
_cell_length_c   12.39358900
_cell_angle_alpha   90.00000000
_cell_angle_beta   90.00000000
_cell_angle_gamma   90.00000000
_symmetry_Int_Tables_number   1
_chemical_formula_structural   Nd2MgSe4
_chemical_formula_sum   'Nd8 Mg4 Se16'
_cell_volume   808.05029969
_cell_formula_units_Z   4
loop_
 _symmetry_equiv_pos_site_id
 _symmetry_equiv_pos_as_xyz
  1  'x, y, z'
loop_
 _atom_site_type_symbol
 _atom_site_label
 _atom_site_symmetry_multiplicity
 _atom_site_fract_x
 _atom_site_fract_y
 _atom_site_fract_z
 _atom_site_occupancy
  Nd  Nd0  1  0.04928300  0.75000000  0.31489200  1
  Nd  Nd1  1  0.95071700  0.25000000  0.68510800  1
  Nd  Nd2  1  0.45071700  0.25000000  0.81489200  1
  Nd  Nd3  1  0.54928300  0.75000000  0.18510800  1
  Nd  Nd4  1  0.06660700  0.25000000  0.03155200  1
  Nd  Nd5  1  0.93339300  0.75000000  0.96844800  1
  Nd  Nd6  1  0.43339300  0.75000000  0.53155200  1
  Nd  Nd7  1  0.56660700  0.25000000  0.46844800  1
  Mg  Mg0  1  0.18375500  0.25000000  0.41214800  1
  Mg  Mg1  1  0.81624500  0.75000000  0.58785200  1
  Mg  Mg2  1  0.31624500  0.75000000  0.91214800  1
  Mg  Mg3  1  0.68375500  0.25000000  0.08785200  1
  Se  Se0  1  0.14086000  0.49795400  0.84435200  1
  Se  Se1  1  0.85914000  0.50204600  0.15564800  1
  Se  Se2  1  0.35914000  0.50204600  0.34435200  1
  Se  Se3  1  0.64086000  0.49795400  0.65564800  1
  Se  Se4  1  0.64086000  0.00204600  0.65564800  1
  Se  Se5  1  0.35914000  0.99795400  0.34435200  1
  Se  Se6  1  0.85914000  0.99795400  0.15564800  1
  Se  Se7  1  0.14086000  0.00204600  0.84435200  1
  Se  Se8  1  0.89718100  0.25000000  0.45058800  1
  Se  Se9  1  0.10281900  0.75000000  0.54941200  1
  Se  Se10  1  0.60281900  0.75000000  0.95058800  1
  Se  Se11  1  0.39718100  0.25000000  0.04941200  1
  Se  Se12  1  0.21826600  0.75000000  0.11127400  1
  Se  Se13  1  0.78173400  0.25000000  0.88872600  1
  Se  Se14  1  0.28173400  0.25000000  0.61127400  1
  Se  Se15  1  0.71826600  0.75000000  0.38872600  1
loop_
_geom_bond_atom_site_label_1
_geom_bond_atom_site_label_2
_geom_bond_distance
_geom_bond_site_symmetry_2
Nd0 Se12 2.896376 1_555
Nd0 Se15 2.931040 1_455
Nd0 Se9 2.941227 1_555
Nd0 Se1 3.185411 1_455
Nd0 Se6 3.185411 1_455
Nd0 Se2 3.258940 1_555
Nd0 Se5 3.258940 1_555
Nd1 Se13 2.896376 1_555
Nd1 Se14 2.931040 1_655
Nd1 Se8 2.941227 1_555
Nd1 Se0 3.185411 1_655
Nd1 Se7 3.185411 1_655
Nd1 Se4 3.258940 1_555
Nd1 Se3 3.258940 1_555
Nd2 Se14 2.896376 1_555
Nd2 Se13 2.931040 1_555
Nd2 Se11 2.941227 1_556
Nd2 Se3 3.185411 1_555
Nd2 Se4 3.185411 1_555
Nd2 Se7 3.258940 1_555
Nd2 Se0 3.258940 1_555
Nd3 Se15 2.896376 1_555
Nd3 Se12 2.931040 1_555
Nd3 Se10 2.941227 1_554
Nd3 Se2 3.185411 1_555
Nd3 Se5 3.185411 1_555
Nd3 Se1 3.258940 1_555
Nd3 Se6 3.258940 1_555
Nd4 Se11 2.789606 1_555
Nd4 Se13 2.979251 1_454
Nd4 Se6 3.037679 1_445
Nd4 Se1 3.037679 1_455
Nd4 Se7 3.076730 1_554
Nd4 Se0 3.076730 1_554
Nd5 Se10 2.789606 1_555
Nd5 Se12 2.979251 1_656
Nd5 Se7 3.037679 1_665
Nd5 Se0 3.037679 1_655
Nd5 Se1 3.076730 1_556
Nd5 Se6 3.076730 1_556
Nd6 Se9 2.789606 1_555
Nd6 Se15 2.979251 1_555
Nd6 Se3 3.037679 1_555
Nd6 Se4 3.037679 1_565
Nd6 Se2 3.076730 1_555
Nd6 Se5 3.076730 1_555
Nd7 Se8 2.789606 1_555
Nd7 Se14 2.979251 1_555
Nd7 Se2 3.037679 1_555
Nd7 Se5 3.037679 1_545
Nd7 Se3 3.076730 1_555
Nd7 Se4 3.076730 1_555
Mg0 Se8 2.457303 1_455
Mg0 Se2 2.588224 1_555
Mg0 Se5 2.588224 1_545
Mg0 Se14 2.601879 1_555
Mg1 Se9 2.457303 1_655
Mg1 Se3 2.588224 1_555
Mg1 Se4 2.588224 1_565
Mg1 Se15 2.601879 1_555
Mg2 Se10 2.457303 1_555
Mg2 Se0 2.588224 1_555
Mg2 Se7 2.588224 1_565
Mg2 Se12 2.601879 1_556
Mg3 Se11 2.457303 1_555
Mg3 Se1 2.588224 1_555
Mg3 Se6 2.588224 1_545
Mg3 Se13 2.601879 1_554
