# generated using pymatgen
data_BaSrTbSbO6
_symmetry_space_group_name_H-M   'P 1'
_cell_length_a   5.97640740
_cell_length_b   5.97650075
_cell_length_c   8.44359797
_cell_angle_alpha   90.22490450
_cell_angle_beta   89.80109724
_cell_angle_gamma   89.79608776
_symmetry_Int_Tables_number   1
_chemical_formula_structural   BaSrTbSbO6
_chemical_formula_sum   'Ba2 Sr2 Tb2 Sb2 O12'
_cell_volume   301.58239501
_cell_formula_units_Z   2
loop_
 _symmetry_equiv_pos_site_id
 _symmetry_equiv_pos_as_xyz
  1  'x, y, z'
loop_
 _atom_site_type_symbol
 _atom_site_label
 _atom_site_symmetry_multiplicity
 _atom_site_fract_x
 _atom_site_fract_y
 _atom_site_fract_z
 _atom_site_occupancy
  Ba  Ba0  1  0.99638308  0.01523152  0.24983743  1
  Ba  Ba1  1  0.00361692  0.98476848  0.75016257  1
  Sr  Sr0  1  0.50288786  0.52531184  0.25140313  1
  Sr  Sr1  1  0.49711214  0.47468816  0.74859687  1
  Tb  Tb0  1  0.50000000  0.00000000  -0.00000000  1
  Tb  Tb1  1  -0.00000000  0.50000000  0.50000000  1
  Sb  Sb0  1  -0.00000000  0.50000000  -0.00000000  1
  Sb  Sb1  1  0.50000000  0.00000000  0.50000000  1
  O  O0  1  0.21297973  0.24154961  0.97161485  1
  O  O1  1  0.29518174  0.73416704  0.53184162  1
  O  O2  1  0.78702027  0.75845039  0.02838515  1
  O  O3  1  0.70481826  0.26583296  0.46815838  1
  O  O4  1  0.26252096  0.70770716  0.96561899  1
  O  O5  1  0.24183847  0.21396486  0.52400596  1
  O  O6  1  0.73747904  0.29229284  0.03438101  1
  O  O7  1  0.75816153  0.78603514  0.47599404  1
  O  O8  1  0.45275339  0.97715988  0.26442026  1
  O  O9  1  0.06581906  0.49975993  0.23500917  1
  O  O10  1  0.54724661  0.02284012  0.73557974  1
  O  O11  1  0.93418094  0.50024007  0.76499083  1
loop_
_geom_bond_atom_site_label_1
_geom_bond_atom_site_label_2
_geom_bond_distance
_geom_bond_site_symmetry_2
Ba0 O2 2.724792 1_545
Ba0 O8 2.739357 1_645
Ba0 O7 2.750509 1_545
Ba0 O6 2.910429 1_555
Ba0 O9 2.929930 1_655
Ba0 O3 2.935154 1_555
Ba0 O5 2.989330 1_655
Ba0 O0 3.006690 1_654
Ba0 O9 3.109052 1_645
Ba0 O8 3.259652 1_545
Ba0 O4 3.403678 1_644
Ba0 O1 3.423433 1_645
Ba1 O0 2.724792 1_565
Ba1 O10 2.739357 1_465
Ba1 O5 2.750509 1_565
Ba1 O4 2.910429 1_555
Ba1 O11 2.929930 1_455
Ba1 O1 2.935154 1_555
Ba1 O7 2.989330 1_455
Ba1 O2 3.006690 1_456
Ba1 O11 3.109052 1_465
Ba1 O10 3.259652 1_565
Ba1 O6 3.403678 1_466
Ba1 O3 3.423433 1_465
O0 Sb0 2.011084 1_556
O0 Tb0 2.252078 1_556
O0 Sr1 2.895885 1_555
O1 Sb1 2.027237 1_565
O1 Tb1 2.271770 1_555
O1 Sr1 2.689837 1_555
O1 Sr0 2.941315 1_555
O2 Sb0 2.011084 1_655
O2 Tb0 2.252078 1_565
O2 Sr0 2.895885 1_555
O3 Sb1 2.027237 1_555
O3 Tb1 2.271770 1_655
O3 Sr0 2.689837 1_555
O3 Sr1 2.941315 1_555
O4 Sb0 2.024927 1_556
O4 Tb0 2.273049 1_566
O4 Sr1 2.685363 1_555
O4 Sr0 3.017991 1_556
O5 Sb1 2.009612 1_555
O5 Tb1 2.244899 1_555
O5 Sr1 2.892320 1_555
O6 Sb0 2.024927 1_655
O6 Tb0 2.273049 1_555
O6 Sr0 2.685363 1_555
O6 Sr1 3.017991 1_554
O7 Sb1 2.009612 1_565
O7 Tb1 2.244899 1_655
O7 Sr0 2.892320 1_555
O8 Sb1 2.014221 1_565
O8 Tb0 2.254200 1_565
O8 Sr0 2.717734 1_555
O9 Sb0 2.024280 1_555
O9 Tb1 2.270439 1_555
O9 Sr0 2.621209 1_555
O10 Sb1 2.014221 1_555
O10 Tb0 2.254200 1_556
O10 Sr1 2.717734 1_555
O11 Sb0 2.024280 1_656
O11 Tb1 2.270439 1_655
O11 Sr1 2.621209 1_555
