# generated using pymatgen
data_Nd2P3H5WO9
_symmetry_space_group_name_H-M   'P 1'
_cell_length_a   8.81237000
_cell_length_b   9.85912400
_cell_length_c   13.54711657
_cell_angle_alpha   64.29207759
_cell_angle_beta   90.00000000
_cell_angle_gamma   90.00000000
_symmetry_Int_Tables_number   1
_chemical_formula_structural   Nd2P3H5WO9
_chemical_formula_sum   'Nd8 P12 H20 W4 O36'
_cell_volume   1060.50062542
_cell_formula_units_Z   4
loop_
 _symmetry_equiv_pos_site_id
 _symmetry_equiv_pos_as_xyz
  1  'x, y, z'
loop_
 _atom_site_type_symbol
 _atom_site_label
 _atom_site_symmetry_multiplicity
 _atom_site_fract_x
 _atom_site_fract_y
 _atom_site_fract_z
 _atom_site_occupancy
  Nd  Nd0  1  0.96037000  0.68801700  0.25139700  1
  Nd  Nd1  1  0.03963000  0.31198300  0.74860300  1
  Nd  Nd2  1  0.46037000  0.31198300  0.24860300  1
  Nd  Nd3  1  0.53963000  0.68801700  0.75139700  1
  Nd  Nd4  1  0.79993600  0.92167000  0.45857900  1
  Nd  Nd5  1  0.20006400  0.07833000  0.54142100  1
  Nd  Nd6  1  0.29993600  0.07833000  0.04142100  1
  Nd  Nd7  1  0.70006400  0.92167000  0.95857900  1
  P  P0  1  0.41344900  0.96708400  0.33282000  1
  P  P1  1  0.58655100  0.03291600  0.66718000  1
  P  P2  1  0.91344900  0.03291600  0.16718000  1
  P  P3  1  0.08655100  0.96708400  0.83282000  1
  P  P4  1  0.30182000  0.73112400  0.07899200  1
  P  P5  1  0.69818000  0.26887600  0.92100800  1
  P  P6  1  0.80182000  0.26887600  0.42100800  1
  P  P7  1  0.19818000  0.73112400  0.57899200  1
  P  P8  1  0.75077600  0.56146100  0.06097600  1
  P  P9  1  0.24922400  0.43853900  0.93902400  1
  P  P10  1  0.25077600  0.43853900  0.43902400  1
  P  P11  1  0.74922400  0.56146100  0.56097600  1
  H  H0  1  0.48230300  0.73856300  0.28254000  1
  H  H1  1  0.51769700  0.26143700  0.71746000  1
  H  H2  1  0.98230300  0.26143700  0.21746000  1
  H  H3  1  0.01769700  0.73856300  0.78254000  1
  H  H4  1  0.52227600  0.48990000  0.28640200  1
  H  H5  1  0.47772400  0.51010000  0.71359800  1
  H  H6  1  0.02227600  0.51010000  0.21359800  1
  H  H7  1  0.97772400  0.48990000  0.78640200  1
  H  H8  1  0.31690800  0.84935000  0.34270600  1
  H  H9  1  0.68309200  0.15065000  0.65729400  1
  H  H10  1  0.81690800  0.15065000  0.15729400  1
  H  H11  1  0.18309200  0.84935000  0.84270600  1
  H  H12  1  0.22875400  0.74064400  0.98403900  1
  H  H13  1  0.77124600  0.25935600  0.01596100  1
  H  H14  1  0.72875400  0.25935600  0.51596100  1
  H  H15  1  0.27124600  0.74064400  0.48403900  1
  H  H16  1  0.89433200  0.49702500  0.05737600  1
  H  H17  1  0.10566800  0.50297500  0.94262400  1
  H  H18  1  0.39433200  0.50297500  0.44262400  1
  H  H19  1  0.60566800  0.49702500  0.55737600  1
  W  W0  1  0.62522200  0.59749200  0.33918600  1
  W  W1  1  0.37477800  0.40250800  0.66081400  1
  W  W2  1  0.12522200  0.40250800  0.16081400  1
  W  W3  1  0.87477800  0.59749200  0.83918600  1
  O  O0  1  0.83264000  0.43942300  0.35828700  1
  O  O1  1  0.16736000  0.56057700  0.64171300  1
  O  O2  1  0.33264000  0.56057700  0.14171300  1
  O  O3  1  0.66736000  0.43942300  0.85828700  1
  O  O4  1  0.56440400  0.90498900  0.39072600  1
  O  O5  1  0.43559600  0.09501100  0.60927400  1
  O  O6  1  0.06440400  0.09501100  0.10927400  1
  O  O7  1  0.93559600  0.90498900  0.89072600  1
  O  O8  1  0.19006100  0.79711900  0.13608300  1
  O  O9  1  0.80993900  0.20288100  0.86391700  1
  O  O10  1  0.69006100  0.20288100  0.36391700  1
  O  O11  1  0.30993900  0.79711900  0.63608300  1
  O  O12  1  0.43944700  0.84038800  0.04050200  1
  O  O13  1  0.56055300  0.15961200  0.95949800  1
  O  O14  1  0.93944700  0.15961200  0.45949800  1
  O  O15  1  0.06055300  0.84038800  0.54050200  1
  O  O16  1  0.77363900  0.67115600  0.11409900  1
  O  O17  1  0.22636100  0.32884400  0.88590100  1
  O  O18  1  0.27363900  0.32884400  0.38590100  1
  O  O19  1  0.72636100  0.67115600  0.61409900  1
  O  O20  1  0.79347500  0.66586300  0.43850300  1
  O  O21  1  0.20652500  0.33413700  0.56149700  1
  O  O22  1  0.29347500  0.33413700  0.06149700  1
  O  O23  1  0.70652500  0.66586300  0.93850300  1
  O  O24  1  0.83452400  0.93702500  0.11550200  1
  O  O25  1  0.16547600  0.06297500  0.88449800  1
  O  O26  1  0.33452400  0.06297500  0.38449800  1
  O  O27  1  0.66547600  0.93702500  0.61550200  1
  O  O28  1  0.93119200  0.92879200  0.29152800  1
  O  O29  1  0.06880800  0.07120800  0.70847200  1
  O  O30  1  0.43119200  0.07120800  0.20847200  1
  O  O31  1  0.56880800  0.92879200  0.79152800  1
  O  O32  1  0.64353400  0.43066700  0.11786200  1
  O  O33  1  0.35646600  0.56933300  0.88213800  1
  O  O34  1  0.14353400  0.56933300  0.38213800  1
  O  O35  1  0.85646600  0.43066700  0.61786200  1
loop_
_geom_bond_atom_site_label_1
_geom_bond_atom_site_label_2
_geom_bond_distance
_geom_bond_site_symmetry_2
Nd0 O34 2.305111 1_655
Nd0 O8 2.497330 1_655
Nd0 O0 2.508345 1_555
Nd0 O16 2.542295 1_555
Nd0 O24 2.593273 1_555
Nd0 O28 2.667657 1_555
Nd0 O20 2.855768 1_555
Nd1 O35 2.305111 1_455
Nd1 O9 2.497330 1_455
Nd1 O1 2.508345 1_555
Nd1 O17 2.542295 1_555
Nd1 O25 2.593273 1_555
Nd1 O29 2.667657 1_555
Nd1 O21 2.855768 1_555
Nd2 O32 2.305111 1_555
Nd2 O10 2.497330 1_555
Nd2 O2 2.508345 1_555
Nd2 O18 2.542295 1_555
Nd2 O26 2.593273 1_555
Nd2 O30 2.667657 1_555
Nd2 O22 2.855768 1_555
Nd3 O33 2.305111 1_555
Nd3 O11 2.497330 1_555
Nd3 O3 2.508345 1_555
Nd3 O19 2.542295 1_555
Nd3 O27 2.593273 1_555
Nd3 O31 2.667657 1_555
Nd3 O23 2.855768 1_555
Nd4 O4 2.304614 1_555
Nd4 O27 2.495074 1_555
Nd4 O28 2.515235 1_555
Nd4 O15 2.525256 1_655
Nd4 O19 2.538676 1_555
Nd4 O20 2.651970 1_555
Nd4 O14 2.653341 1_565
Nd4 O10 2.680338 1_565
Nd5 O5 2.304614 1_555
Nd5 O26 2.495074 1_555
Nd5 O29 2.515235 1_555
Nd5 O14 2.525256 1_455
Nd5 O18 2.538676 1_555
Nd5 O21 2.651970 1_555
Nd5 O15 2.653341 1_545
Nd5 O11 2.680338 1_545
Nd6 O6 2.304614 1_555
Nd6 O25 2.495074 1_554
Nd6 O30 2.515235 1_555
Nd6 O13 2.525256 1_554
Nd6 O17 2.538676 1_554
Nd6 O22 2.651970 1_555
Nd6 O12 2.653341 1_545
Nd6 O8 2.680338 1_545
Nd7 O7 2.304614 1_555
Nd7 O24 2.495074 1_556
Nd7 O31 2.515235 1_555
Nd7 O12 2.525256 1_556
Nd7 O16 2.538676 1_556
Nd7 O23 2.651970 1_555
Nd7 O13 2.653341 1_565
Nd7 O9 2.680338 1_565
H0 W0 1.784257 1_555
H1 W1 1.784257 1_555
H2 W2 1.784257 1_655
H3 W3 1.784257 1_455
H4 W0 1.765679 1_555
H4 Nd2 2.101423 1_555
H5 W1 1.765679 1_555
H5 Nd3 2.101423 1_555
H6 W2 1.765679 1_555
H6 Nd0 2.101423 1_455
H7 W3 1.765679 1_555
H7 Nd1 2.101423 1_655
H8 P0 1.397928 1_555
H9 P1 1.397928 1_555
H10 P2 1.397928 1_555
H11 P3 1.397928 1_555
H12 P4 1.404749 1_556
H13 P5 1.404749 1_554
H14 P6 1.404749 1_555
H15 P7 1.404749 1_555
H16 P8 1.425917 1_555
H17 P9 1.425917 1_555
H18 P10 1.425917 1_555
H19 P11 1.425917 1_555
O0 P6 1.543857 1_555
O0 W0 2.342391 1_555
O1 P7 1.543857 1_555
O1 W1 2.342391 1_555
O2 P4 1.543857 1_555
O2 W2 2.342391 1_555
O3 P5 1.543857 1_555
O3 W3 2.342391 1_555
O4 P0 1.530733 1_555
O5 P1 1.530733 1_555
O6 P2 1.530733 1_455
O7 P3 1.530733 1_655
O8 P4 1.558224 1_555
O9 P5 1.558224 1_555
O10 P6 1.558224 1_555
O11 P7 1.558224 1_555
O12 P4 1.554337 1_555
O13 P5 1.554337 1_555
O14 P6 1.554337 1_555
O15 P7 1.554337 1_555
O16 P8 1.550285 1_555
O17 P9 1.550285 1_555
O18 P10 1.550285 1_555
O19 P11 1.550285 1_555
O20 P11 1.575667 1_555
O20 W0 2.291266 1_555
O21 P10 1.575667 1_555
O21 W1 2.291266 1_555
O22 P9 1.575667 1_554
O22 W2 2.291266 1_555
O23 P8 1.575667 1_556
O23 W3 2.291266 1_555
O24 P2 1.562646 1_565
O25 P3 1.562646 1_545
O26 P0 1.562646 1_545
O27 P1 1.562646 1_565
O28 P2 1.554261 1_565
O29 P3 1.554261 1_545
O30 P0 1.554261 1_545
O31 P1 1.554261 1_565
O32 P8 1.512521 1_555
O33 P9 1.512521 1_555
O34 P10 1.512521 1_555
O35 P11 1.512521 1_555
