# generated using pymatgen
data_NiH6(CO3)2
_symmetry_space_group_name_H-M   'P 1'
_cell_length_a   5.45166900
_cell_length_b   9.88218580
_cell_length_c   15.14417160
_cell_angle_alpha   106.26109737
_cell_angle_beta   90.00000000
_cell_angle_gamma   90.00000000
_symmetry_Int_Tables_number   1
_chemical_formula_structural   NiH6(CO3)2
_chemical_formula_sum   'Ni6 H36 C12 O36'
_cell_volume   783.24436026
_cell_formula_units_Z   6
loop_
 _symmetry_equiv_pos_site_id
 _symmetry_equiv_pos_as_xyz
  1  'x, y, z'
loop_
 _atom_site_type_symbol
 _atom_site_label
 _atom_site_symmetry_multiplicity
 _atom_site_fract_x
 _atom_site_fract_y
 _atom_site_fract_z
 _atom_site_occupancy
  Ni  Ni0  1  0.62620600  0.95592800  0.82216000  1
  Ni  Ni1  1  0.12620600  0.04407200  0.67784000  1
  Ni  Ni2  1  0.37379400  0.04407200  0.17784000  1
  Ni  Ni3  1  0.87379400  0.95592800  0.32216000  1
  Ni  Ni4  1  0.50000000  0.50000000  0.50000000  1
  Ni  Ni5  1  0.00000000  0.50000000  0.00000000  1
  H  H0  1  0.74778800  0.82306100  0.94399500  1
  H  H1  1  0.24778800  0.17693900  0.55600500  1
  H  H2  1  0.25221200  0.17693900  0.05600500  1
  H  H3  1  0.75221200  0.82306100  0.44399500  1
  H  H4  1  0.73562900  0.98449800  0.00395100  1
  H  H5  1  0.23562900  0.01550200  0.49604900  1
  H  H6  1  0.26437100  0.01550200  0.99604900  1
  H  H7  1  0.76437100  0.98449800  0.50395100  1
  H  H8  1  0.15307200  0.95013100  0.83956500  1
  H  H9  1  0.65307200  0.04986900  0.66043500  1
  H  H10  1  0.84692800  0.04986900  0.16043500  1
  H  H11  1  0.34692800  0.95013100  0.33956500  1
  H  H12  1  0.25419000  0.79554000  0.83639900  1
  H  H13  1  0.75419000  0.20446000  0.66360100  1
  H  H14  1  0.74581000  0.20446000  0.16360100  1
  H  H15  1  0.24581000  0.79554000  0.33639900  1
  H  H16  1  0.60741300  0.81662000  0.57482300  1
  H  H17  1  0.10741300  0.18338000  0.92517700  1
  H  H18  1  0.39258700  0.18338000  0.42517700  1
  H  H19  1  0.89258700  0.81662000  0.07482300  1
  H  H20  1  0.92938400  0.62120500  0.46998200  1
  H  H21  1  0.42938400  0.37879500  0.03001800  1
  H  H22  1  0.07061600  0.37879500  0.53001800  1
  H  H23  1  0.57061600  0.62120500  0.96998200  1
  H  H24  1  0.79141900  0.55338400  0.37648400  1
  H  H25  1  0.29141900  0.44661600  0.12351600  1
  H  H26  1  0.20858200  0.44661600  0.62351600  1
  H  H27  1  0.70858100  0.55338400  0.87648400  1
  H  H28  1  0.65273400  0.45595700  0.70231600  1
  H  H29  1  0.15273400  0.54404300  0.79768400  1
  H  H30  1  0.34726600  0.54404300  0.29768400  1
  H  H31  1  0.84726600  0.45595700  0.20231600  1
  H  H32  1  0.49179700  0.35746400  0.74482100  1
  H  H33  1  0.99179700  0.64253600  0.75517900  1
  H  H34  1  0.50820300  0.64253600  0.25517900  1
  H  H35  1  0.00820300  0.35746400  0.24482100  1
  C  C0  1  0.48544800  0.81584900  0.63318400  1
  C  C1  1  0.98544800  0.18415100  0.86681600  1
  C  C2  1  0.51455200  0.18415100  0.36681600  1
  C  C3  1  0.01455200  0.81584900  0.13318400  1
  C  C4  1  0.61432900  0.70840600  0.67446000  1
  C  C5  1  0.11432900  0.29159400  0.82554000  1
  C  C6  1  0.38567100  0.29159400  0.32554000  1
  C  C7  1  0.88567100  0.70840600  0.17446000  1
  C  C8  1  0.23830900  0.76360000  0.58642300  1
  C  C9  1  0.73830900  0.23640000  0.91357700  1
  C  C10  1  0.76169100  0.23640000  0.41357700  1
  C  C11  1  0.26169100  0.76360000  0.08642300  1
  O  O0  1  0.77456900  0.92080600  0.94285400  1
  O  O1  1  0.27456900  0.07919400  0.55714600  1
  O  O2  1  0.22543100  0.07919400  0.05714600  1
  O  O3  1  0.72543100  0.92080600  0.44285400  1
  O  O4  1  0.28595600  0.89694100  0.86427700  1
  O  O5  1  0.78595600  0.10305900  0.63572300  1
  O  O6  1  0.71404400  0.10305900  0.13572300  1
  O  O7  1  0.21404400  0.89694100  0.36427700  1
  O  O8  1  0.46818200  0.95080200  0.69559300  1
  O  O9  1  0.96818200  0.04919800  0.80440700  1
  O  O10  1  0.53181800  0.04919800  0.30440700  1
  O  O11  1  0.03181800  0.95080200  0.19559300  1
  O  O12  1  0.71074700  0.75384400  0.75345200  1
  O  O13  1  0.21074700  0.24615600  0.74654800  1
  O  O14  1  0.28925300  0.24615600  0.24654800  1
  O  O15  1  0.78925300  0.75384400  0.25345200  1
  O  O16  1  0.63552400  0.58007700  0.62780500  1
  O  O17  1  0.13552400  0.41992300  0.87219500  1
  O  O18  1  0.36447600  0.41992300  0.37219500  1
  O  O19  1  0.86447600  0.58007700  0.12780500  1
  O  O20  1  0.05267500  0.84236700  0.60905600  1
  O  O21  1  0.55267500  0.15763300  0.89094400  1
  O  O22  1  0.94732500  0.15763300  0.39094400  1
  O  O23  1  0.44732500  0.84236700  0.10905600  1
  O  O24  1  0.22842500  0.64761000  0.52262800  1
  O  O25  1  0.72842500  0.35239000  0.97737200  1
  O  O26  1  0.77157500  0.35239000  0.47737200  1
  O  O27  1  0.27157500  0.64761000  0.02262800  1
  O  O28  1  0.76749500  0.61792400  0.43854900  1
  O  O29  1  0.26749500  0.38207600  0.06145100  1
  O  O30  1  0.23250500  0.38207600  0.56145100  1
  O  O31  1  0.73250500  0.61792400  0.93854900  1
  O  O32  1  0.66024700  0.39260400  0.74230900  1
  O  O33  1  0.16024700  0.60739600  0.75769100  1
  O  O34  1  0.33975300  0.60739600  0.25769100  1
  O  O35  1  0.83975300  0.39260400  0.24230900  1
loop_
_geom_bond_atom_site_label_1
_geom_bond_atom_site_label_2
_geom_bond_distance
_geom_bond_site_symmetry_2
Ni0 O21 2.013989 1_565
Ni0 O12 2.029662 1_555
Ni0 O8 2.089091 1_555
Ni0 O4 2.096570 1_555
Ni0 O0 2.114436 1_555
Ni0 O9 2.129877 1_565
Ni1 O20 2.013989 1_545
Ni1 O13 2.029662 1_555
Ni1 O9 2.089091 1_455
Ni1 O5 2.096570 1_455
Ni1 O1 2.114436 1_555
Ni1 O8 2.129877 1_545
Ni2 O23 2.013989 1_545
Ni2 O14 2.029662 1_555
Ni2 O10 2.089091 1_555
Ni2 O6 2.096570 1_555
Ni2 O2 2.114436 1_555
Ni2 O11 2.129877 1_545
Ni3 O22 2.013989 1_565
Ni3 O15 2.029662 1_555
Ni3 O11 2.089091 1_655
Ni3 O7 2.096570 1_655
Ni3 O3 2.114436 1_555
Ni3 O10 2.129877 1_565
Ni4 O16 2.015066 1_555
Ni4 O18 2.015066 1_555
Ni4 O26 2.038948 1_555
Ni4 O24 2.038948 1_555
Ni4 O30 2.226672 1_555
Ni4 O28 2.226672 1_555
Ni5 O19 2.015066 1_455
Ni5 O17 2.015066 1_554
Ni5 O25 2.038948 1_454
Ni5 O27 2.038948 1_555
Ni5 O31 2.226672 1_454
Ni5 O29 2.226672 1_555
H0 O0 0.981831 1_555
H1 O1 0.981831 1_555
H2 O2 0.981831 1_555
H3 O3 0.981831 1_555
H4 O0 0.985493 1_554
H5 O1 0.985493 1_555
H6 O2 0.985493 1_556
H7 O3 0.985493 1_555
H8 O4 1.025342 1_555
H8 O9 1.596819 1_465
H9 O5 1.025342 1_555
H9 O8 1.596819 1_545
H10 O6 1.025342 1_555
H10 O11 1.596819 1_645
H11 O7 1.025342 1_555
H11 O10 1.596819 1_565
H12 O4 0.987643 1_555
H13 O5 0.987643 1_555
H14 O6 0.987643 1_555
H15 O7 0.987643 1_555
H20 O28 0.998965 1_555
H21 O29 0.998965 1_555
H22 O30 0.998965 1_555
H23 O31 0.998965 1_555
H24 O28 0.985659 1_555
H25 O29 0.985659 1_555
H26 O30 0.985658 1_555
H27 O31 0.985659 1_555
H28 O32 0.986314 1_555
H29 O33 0.986314 1_555
H30 O34 0.986314 1_555
H31 O35 0.986314 1_555
H32 O32 0.986292 1_555
H33 O33 0.986292 1_655
H34 O34 0.986292 1_555
H35 O35 0.986292 1_455
C0 H16 1.107742 1_555
C0 O8 1.405280 1_555
C1 H17 1.107742 1_655
C1 O9 1.405280 1_555
C2 H18 1.107742 1_555
C2 O10 1.405280 1_555
C3 H19 1.107742 1_455
C3 O11 1.405280 1_555
C4 O12 1.268131 1_555
C4 O16 1.272408 1_555
C5 O13 1.268131 1_555
C5 O17 1.272408 1_555
C6 O14 1.268131 1_555
C6 O18 1.272408 1_555
C7 O15 1.268131 1_555
C7 O19 1.272408 1_555
C8 O20 1.264173 1_555
C8 O24 1.276703 1_555
C9 O21 1.264173 1_555
C9 O25 1.276703 1_555
C10 O22 1.264173 1_555
C10 O26 1.276703 1_555
C11 O23 1.264173 1_555
C11 O27 1.276703 1_555
