# generated using pymatgen
data_Mg6SiBi
_symmetry_space_group_name_H-M   'P 1'
_cell_length_a   5.19887900
_cell_length_b   6.41199100
_cell_length_c   10.94015800
_cell_angle_alpha   90.00000000
_cell_angle_beta   90.00000000
_cell_angle_gamma   90.00000000
_symmetry_Int_Tables_number   1
_chemical_formula_structural   Mg6SiBi
_chemical_formula_sum   'Mg12 Si2 Bi2'
_cell_volume   364.69197597
_cell_formula_units_Z   2
loop_
 _symmetry_equiv_pos_site_id
 _symmetry_equiv_pos_as_xyz
  1  'x, y, z'
loop_
 _atom_site_type_symbol
 _atom_site_label
 _atom_site_symmetry_multiplicity
 _atom_site_fract_x
 _atom_site_fract_y
 _atom_site_fract_z
 _atom_site_occupancy
  Mg  Mg0  1  0.50000000  0.24989200  0.58380500  1
  Mg  Mg1  1  0.50000000  0.75010800  0.58380500  1
  Mg  Mg2  1  0.00000000  0.26024600  0.41662900  1
  Mg  Mg3  1  0.00000000  0.73975400  0.41662900  1
  Mg  Mg4  1  0.00000000  0.00000000  0.66996100  1
  Mg  Mg5  1  0.00000000  0.00000000  0.16397400  1
  Mg  Mg6  1  0.50000000  0.74989200  0.08380500  1
  Mg  Mg7  1  0.50000000  0.25010800  0.08380500  1
  Mg  Mg8  1  0.00000000  0.76024600  0.91662900  1
  Mg  Mg9  1  0.00000000  0.23975400  0.91662900  1
  Mg  Mg10  1  0.00000000  0.50000000  0.16996100  1
  Mg  Mg11  1  0.00000000  0.50000000  0.66397400  1
  Si  Si0  1  0.50000000  0.00000000  0.83215600  1
  Si  Si1  1  0.50000000  0.50000000  0.33215600  1
  Bi  Bi0  1  0.50000000  0.00000000  0.33304200  1
  Bi  Bi1  1  0.50000000  0.50000000  0.83304200  1
loop_
_geom_bond_atom_site_label_1
_geom_bond_atom_site_label_2
_geom_bond_distance
_geom_bond_site_symmetry_2
Mg0 Si0 3.154278 1_555
Mg0 Mg11 3.177758 1_555
Mg0 Mg11 3.177758 1_655
Mg0 Mg2 3.179070 1_555
Mg0 Mg2 3.179070 1_655
Mg0 Si1 3.186106 1_555
Mg0 Mg4 3.195761 1_655
Mg0 Mg4 3.195761 1_555
Mg0 Mg1 3.204611 1_545
Mg0 Mg1 3.207380 1_555
Mg1 Si0 3.154278 1_565
Mg1 Mg11 3.177758 1_555
Mg1 Mg11 3.177758 1_655
Mg1 Mg3 3.179070 1_655
Mg1 Mg3 3.179070 1_555
Mg1 Si1 3.186106 1_555
Mg1 Mg4 3.195761 1_665
Mg1 Mg4 3.195761 1_565
Mg2 Mg3 3.074601 1_555
Mg2 Si1 3.158232 1_455
Mg2 Si1 3.158232 1_555
Mg2 Mg5 3.228732 1_555
Mg2 Mg4 3.235075 1_555
Mg2 Mg3 3.337390 1_545
Mg3 Si1 3.158232 1_455
Mg3 Si1 3.158232 1_555
Mg3 Mg5 3.228732 1_565
Mg3 Mg4 3.235075 1_565
Mg4 Mg8 3.105747 1_545
Mg4 Mg9 3.105747 1_555
Mg4 Si0 3.147335 1_555
Mg4 Si0 3.147335 1_455
Mg5 Mg9 3.112185 1_554
Mg5 Mg8 3.112185 1_544
Mg5 Mg6 3.177758 1_445
Mg5 Mg7 3.177758 1_455
Mg5 Mg6 3.177758 1_545
Mg5 Mg7 3.177758 1_555
Mg6 Si1 3.154278 1_555
Mg6 Mg8 3.179070 1_654
Mg6 Mg8 3.179070 1_554
Mg6 Si0 3.186106 1_564
Mg6 Mg7 3.204611 1_555
Mg6 Mg7 3.207380 1_565
Mg7 Si1 3.154278 1_555
Mg7 Mg9 3.179070 1_554
Mg7 Mg9 3.179070 1_654
Mg7 Si0 3.186106 1_554
Mg8 Mg9 3.074601 1_565
Mg8 Si0 3.158232 1_565
Mg8 Si0 3.158232 1_465
Mg8 Mg9 3.337390 1_555
Mg9 Si0 3.158232 1_455
Mg9 Si0 3.158232 1_555
Mg10 Mg2 3.105747 1_555
Mg10 Mg3 3.105747 1_555
Mg10 Si1 3.147335 1_455
Mg10 Si1 3.147335 1_555
Mg10 Mg6 3.195761 1_555
Mg10 Mg7 3.195761 1_455
Mg10 Mg7 3.195761 1_555
Mg10 Mg6 3.195761 1_455
Mg10 Mg5 3.206665 1_555
Mg10 Mg5 3.206665 1_565
Mg10 Mg8 3.235075 1_554
Mg10 Mg9 3.235075 1_554
Mg11 Mg2 3.112185 1_555
Mg11 Mg3 3.112185 1_555
Mg11 Mg4 3.206665 1_555
Mg11 Mg4 3.206665 1_565
Mg11 Mg9 3.228732 1_555
Mg11 Mg8 3.228732 1_555
Bi0 Mg6 3.163333 1_545
Bi0 Mg7 3.163333 1_555
Bi0 Mg0 3.177035 1_555
Bi0 Mg1 3.177035 1_545
Bi0 Mg5 3.190332 1_655
Bi0 Mg5 3.190332 1_555
Bi0 Si1 3.206010 1_545
Bi0 Si1 3.206010 1_555
Bi0 Mg2 3.221468 1_555
Bi0 Mg3 3.221468 1_645
Bi0 Mg2 3.221468 1_655
Bi0 Mg3 3.221468 1_545
Bi1 Mg1 3.163333 1_555
Bi1 Mg0 3.163333 1_555
Bi1 Mg7 3.177035 1_556
Bi1 Mg6 3.177035 1_556
Bi1 Mg11 3.190332 1_555
Bi1 Mg11 3.190332 1_655
Bi1 Si0 3.206010 1_555
Bi1 Si0 3.206010 1_565
Bi1 Mg9 3.221468 1_655
Bi1 Mg8 3.221468 1_555
Bi1 Mg8 3.221468 1_655
Bi1 Mg9 3.221468 1_555
