# generated using pymatgen
data_Ba3TiF12
_symmetry_space_group_name_H-M   'P 1'
_cell_length_a   6.84235042
_cell_length_b   9.40179163
_cell_length_c   8.05930781
_cell_angle_alpha   125.68212362
_cell_angle_beta   93.98519292
_cell_angle_gamma   83.15695141
_symmetry_Int_Tables_number   1
_chemical_formula_structural   Ba3TiF12
_chemical_formula_sum   'Ba3 Ti1 F12'
_cell_volume   418.12568083
_cell_formula_units_Z   1
loop_
 _symmetry_equiv_pos_site_id
 _symmetry_equiv_pos_as_xyz
  1  'x, y, z'
loop_
 _atom_site_type_symbol
 _atom_site_label
 _atom_site_symmetry_multiplicity
 _atom_site_fract_x
 _atom_site_fract_y
 _atom_site_fract_z
 _atom_site_occupancy
  Ba  Ba0  1  0.50000000  0.00000000  0.00000000  1
  Ba  Ba1  1  0.00000000  0.50000000  0.50000000  1
  Ba  Ba2  1  0.00000000  0.00000000  0.50000000  1
  Ti  Ti0  1  0.00000000  0.00000000  0.00000000  1
  F  F0  1  0.85227600  0.33121500  0.63250200  1
  F  F1  1  0.14772400  0.66878500  0.36749800  1
  F  F2  1  0.81762300  0.97269900  0.18247900  1
  F  F3  1  0.14772400  0.30128700  0.63250200  1
  F  F4  1  0.18237700  0.02730100  0.81752100  1
  F  F5  1  0.85227600  0.69871300  0.36749800  1
  F  F6  1  0.17555500  0.77734200  0.81975700  1
  F  F7  1  0.18237700  0.20977900  0.18247900  1
  F  F8  1  0.82444500  0.22265800  0.18024300  1
  F  F9  1  0.81762300  0.79022100  0.81752100  1
  F  F10  1  0.82444500  0.04241500  0.81975700  1
  F  F11  1  0.17555500  0.95758500  0.18024300  1
loop_
_geom_bond_atom_site_label_1
_geom_bond_atom_site_label_2
_geom_bond_distance
_geom_bond_site_symmetry_2
Ba0 F9 2.610564 1_544
Ba0 F7 2.610564 1_555
Ba0 F2 2.610568 1_545
Ba0 F4 2.610568 1_554
Ba0 F10 2.921025 1_554
Ba0 F11 2.921025 1_545
Ba0 F8 2.921025 1_555
Ba0 F6 2.921025 1_544
Ba1 F9 2.652888 1_455
Ba1 F7 2.652888 1_555
Ba1 F1 2.681297 1_555
Ba1 F0 2.681297 1_455
Ba1 F6 2.712977 1_555
Ba1 F8 2.712977 1_455
Ba1 F5 2.716575 1_455
Ba1 F3 2.716575 1_555
Ba2 F4 2.652884 1_555
Ba2 F2 2.652884 1_445
Ba2 F3 2.681297 1_555
Ba2 F5 2.681297 1_445
Ba2 F11 2.712977 1_545
Ba2 F10 2.712977 1_455
Ba2 F1 2.716574 1_545
Ba2 F0 2.716574 1_455
F2 Ti0 2.134880 1_665
F4 Ti0 2.134880 1_556
F6 Ti0 2.007773 1_566
F7 Ti0 2.134875 1_555
F8 Ti0 2.007773 1_655
F9 Ti0 2.134875 1_666
F10 Ti0 2.007773 1_656
F11 Ti0 2.007773 1_565
