# generated using pymatgen
data_Sc(TiFe3)2
_symmetry_space_group_name_H-M   'P 1'
_cell_length_a   4.83563993
_cell_length_b   4.83563993
_cell_length_c   23.75831300
_cell_angle_alpha   90.00000000
_cell_angle_beta   90.00000000
_cell_angle_gamma   119.99999901
_symmetry_Int_Tables_number   1
_chemical_formula_structural   Sc(TiFe3)2
_chemical_formula_sum   'Sc4 Ti8 Fe24'
_cell_volume   481.12081380
_cell_formula_units_Z   4
loop_
 _symmetry_equiv_pos_site_id
 _symmetry_equiv_pos_as_xyz
  1  'x, y, z'
loop_
 _atom_site_type_symbol
 _atom_site_label
 _atom_site_symmetry_multiplicity
 _atom_site_fract_x
 _atom_site_fract_y
 _atom_site_fract_z
 _atom_site_occupancy
  Sc  Sc0  1  0.00000000  0.00000000  0.81064700  1
  Sc  Sc1  1  0.00000000  0.00000000  0.47854500  1
  Sc  Sc2  1  0.00000000  0.00000000  0.14610700  1
  Sc  Sc3  1  0.66666700  0.33333300  0.85494300  1
  Ti  Ti0  1  0.66666700  0.33333300  0.52296100  1
  Ti  Ti1  1  0.66666700  0.33333300  0.18991700  1
  Ti  Ti2  1  0.66666700  0.33333300  0.98068000  1
  Ti  Ti3  1  0.66666700  0.33333300  0.64609200  1
  Ti  Ti4  1  0.66666700  0.33333300  0.31311500  1
  Ti  Ti5  1  0.00000000  0.00000000  0.68543700  1
  Ti  Ti6  1  0.00000000  0.00000000  0.35240200  1
  Ti  Ti7  1  0.00000000  0.00000000  0.02046400  1
  Fe  Fe0  1  0.33333300  0.66666700  0.83344500  1
  Fe  Fe1  1  0.33333300  0.66666700  0.50002800  1
  Fe  Fe2  1  0.33333300  0.66666700  0.16692400  1
  Fe  Fe3  1  0.33333300  0.66666700  0.00064700  1
  Fe  Fe4  1  0.33333300  0.66666700  0.66587600  1
  Fe  Fe5  1  0.33333300  0.66666700  0.33333000  1
  Fe  Fe6  1  0.99432600  0.49716300  0.74684900  1
  Fe  Fe7  1  0.99229400  0.49614700  0.41489800  1
  Fe  Fe8  1  0.99386300  0.49693200  0.08229400  1
  Fe  Fe9  1  0.50283700  0.49716300  0.74684900  1
  Fe  Fe10  1  0.50385300  0.49614700  0.41489800  1
  Fe  Fe11  1  0.50306800  0.49693200  0.08229400  1
  Fe  Fe12  1  0.50283700  0.00567400  0.74684900  1
  Fe  Fe13  1  0.50385300  0.00770600  0.41489800  1
  Fe  Fe14  1  0.50306800  0.00613700  0.08229400  1
  Fe  Fe15  1  0.67166200  0.83583100  0.91937800  1
  Fe  Fe16  1  0.67244700  0.83622400  0.58455400  1
  Fe  Fe17  1  0.67207800  0.83603900  0.25150900  1
  Fe  Fe18  1  0.16416900  0.83583100  0.91937800  1
  Fe  Fe19  1  0.16377600  0.83622400  0.58455400  1
  Fe  Fe20  1  0.16396100  0.83603900  0.25150900  1
  Fe  Fe21  1  0.16416900  0.32833800  0.91937800  1
  Fe  Fe22  1  0.16377600  0.32755300  0.58455400  1
  Fe  Fe23  1  0.16396100  0.32792200  0.25150900  1
loop_
_geom_bond_atom_site_label_1
_geom_bond_atom_site_label_2
_geom_bond_distance
_geom_bond_site_symmetry_2
Sc0 Ti5 2.974778 1_555
Sc0 Sc3 2.983622 1_455
Sc0 Sc3 2.983626 1_555
Sc0 Sc3 2.983626 1_445
Sc1 Ti0 2.984628 1_455
Sc1 Ti0 2.984632 1_555
Sc1 Ti0 2.984632 1_445
Sc1 Ti6 2.996945 1_555
Sc2 Ti1 2.979568 1_455
Sc2 Ti1 2.979572 1_445
Sc2 Ti1 2.979572 1_555
Sc2 Ti7 2.985066 1_555
Sc3 Ti2 2.987299 1_555
Ti0 Ti3 2.925385 1_555
Ti1 Ti4 2.926977 1_555
Ti2 Ti7 2.947518 1_656
Ti2 Ti7 2.947522 1_666
Ti2 Ti7 2.947522 1_556
Ti3 Ti5 2.944190 1_655
Ti3 Ti5 2.944194 1_665
Ti3 Ti5 2.944194 1_555
Ti4 Ti6 2.943752 1_655
Ti4 Ti6 2.943756 1_665
Ti4 Ti6 2.943756 1_555
Fe0 Fe18 2.485091 1_555
Fe0 Fe15 2.485093 1_555
Fe0 Fe21 2.485093 1_555
Fe0 Fe12 2.499662 1_565
Fe0 Fe6 2.499662 1_455
Fe0 Fe9 2.499664 1_555
Fe0 Sc3 2.838191 1_455
Fe0 Sc3 2.838191 1_565
Fe0 Sc3 2.838199 1_555
Fe0 Sc0 2.843911 1_565
Fe0 Sc0 2.843915 1_665
Fe0 Sc0 2.843915 1_555
Fe1 Fe19 2.459601 1_555
Fe1 Fe22 2.459601 1_555
Fe1 Fe16 2.459601 1_555
Fe1 Fe13 2.475973 1_565
Fe1 Fe7 2.475973 1_455
Fe1 Fe10 2.475975 1_555
Fe1 Sc1 2.838127 1_565
Fe1 Sc1 2.838131 1_555
Fe1 Sc1 2.838131 1_665
Fe1 Ti0 2.844524 1_455
Fe1 Ti0 2.844524 1_565
Fe1 Ti0 2.844532 1_555
Fe2 Fe20 2.459852 1_555
Fe2 Fe23 2.459854 1_555
Fe2 Fe8 2.462479 1_455
Fe2 Sc2 2.835324 1_565
Fe2 Sc2 2.835328 1_555
Fe2 Sc2 2.835328 1_665
Fe2 Ti1 2.844797 1_455
Fe2 Ti1 2.844797 1_565
Fe2 Ti1 2.844806 1_555
Fe3 Fe8 2.404960 1_455
Fe3 Ti7 2.831276 1_565
Fe3 Ti7 2.831280 1_665
Fe3 Ti7 2.831280 1_555
Fe3 Ti2 2.831871 1_454
Fe3 Ti2 2.831871 1_564
Fe3 Ti2 2.831879 1_554
Fe4 Fe6 2.390911 1_455
Fe4 Fe9 2.390913 1_555
Fe4 Ti5 2.830271 1_565
Fe4 Ti5 2.830275 1_665
Fe4 Ti5 2.830275 1_555
Fe4 Ti3 2.831146 1_455
Fe4 Ti3 2.831146 1_565
Fe4 Ti3 2.831154 1_555
Fe5 Fe7 2.407338 1_455
Fe5 Ti6 2.828387 1_565
Fe5 Ti6 2.828391 1_665
Fe5 Ti6 2.828391 1_555
Fe5 Ti4 2.832864 1_455
Fe5 Ti4 2.832864 1_565
Fe5 Ti4 2.832872 1_555
Fe6 Fe9 2.376664 1_555
Fe6 Fe9 2.458976 1_655
Fe6 Ti3 2.759202 1_555
Fe6 Ti5 2.824045 1_655
Fe6 Ti5 2.824045 1_665
Fe6 Sc0 2.853746 1_655
Fe6 Sc0 2.853746 1_665
Fe6 Sc3 2.911724 1_555
Fe7 Ti4 2.776187 1_555
Fe7 Ti6 2.837521 1_655
Fe7 Ti6 2.837521 1_665
Fe7 Sc1 2.851925 1_655
Fe7 Sc1 2.851925 1_665
Fe7 Ti0 2.907073 1_555
Fe8 Ti2 2.775928 1_554
Fe8 Ti7 2.829204 1_665
Fe8 Ti7 2.829208 1_655
Fe8 Sc2 2.853950 1_665
Fe8 Sc2 2.853954 1_655
Fe8 Ti1 2.900943 1_555
Fe9 Ti3 2.759204 1_555
Fe9 Ti5 2.824045 1_555
Fe9 Ti5 2.824045 1_665
Fe9 Sc0 2.853746 1_555
Fe9 Sc0 2.853746 1_665
Fe9 Sc3 2.911726 1_555
Fe10 Fe7 2.361925 1_555
Fe10 Fe13 2.361925 1_555
Fe10 Fe5 2.407341 1_555
Fe10 Fe13 2.473715 1_565
Fe10 Fe7 2.473715 1_455
Fe10 Ti4 2.776189 1_555
Fe10 Ti6 2.837521 1_665
Fe10 Ti6 2.837521 1_555
Fe10 Sc1 2.851925 1_555
Fe10 Sc1 2.851925 1_665
Fe10 Ti0 2.907075 1_555
Fe11 Fe8 2.373308 1_555
Fe11 Fe14 2.373308 1_555
Fe11 Fe3 2.404960 1_555
Fe11 Fe14 2.462332 1_565
Fe11 Fe8 2.462332 1_455
Fe11 Fe2 2.462479 1_555
Fe11 Ti2 2.775932 1_554
Fe11 Ti7 2.829206 1_555
Fe11 Ti7 2.829206 1_665
Fe11 Sc2 2.853952 1_555
Fe11 Sc2 2.853952 1_665
Fe11 Ti1 2.900947 1_555
Fe12 Fe9 2.376664 1_555
Fe12 Fe6 2.376664 1_555
Fe12 Fe4 2.390911 1_545
Fe12 Fe9 2.458976 1_545
Fe12 Fe6 2.458976 1_445
Fe12 Ti3 2.759202 1_555
Fe12 Ti5 2.824045 1_655
Fe12 Ti5 2.824045 1_555
Fe12 Sc0 2.853746 1_655
Fe12 Sc0 2.853746 1_555
Fe12 Sc3 2.911724 1_555
Fe13 Fe7 2.361925 1_555
Fe13 Fe5 2.407338 1_545
Fe13 Fe7 2.473715 1_445
Fe13 Ti4 2.776187 1_555
Fe13 Ti6 2.837521 1_655
Fe13 Ti6 2.837521 1_555
Fe13 Sc1 2.851925 1_655
Fe13 Sc1 2.851925 1_555
Fe13 Ti0 2.907073 1_555
Fe14 Fe8 2.373308 1_555
Fe14 Fe3 2.404960 1_545
Fe14 Fe8 2.462332 1_445
Fe14 Fe2 2.462479 1_545
Fe14 Ti2 2.775928 1_554
Fe14 Ti7 2.829204 1_555
Fe14 Ti7 2.829208 1_655
Fe14 Sc2 2.853950 1_555
Fe14 Sc2 2.853954 1_655
Fe14 Ti1 2.900943 1_555
Fe15 Fe18 2.381587 1_655
Fe15 Fe21 2.381587 1_665
Fe15 Fe3 2.394892 1_556
Fe15 Fe18 2.454053 1_555
Fe15 Fe21 2.454053 1_555
Fe15 Ti7 2.767398 1_666
Fe15 Ti2 2.822671 1_565
Fe15 Ti2 2.822676 1_555
Fe15 Sc3 2.861788 1_565
Fe15 Sc3 2.861792 1_555
Fe15 Sc0 2.926416 1_665
Fe16 Fe19 2.375890 1_655
Fe16 Fe22 2.375890 1_665
Fe16 Fe4 2.397853 1_555
Fe16 Fe19 2.459750 1_555
Fe16 Fe22 2.459750 1_555
Fe16 Ti5 2.761579 1_665
Fe16 Ti3 2.825593 1_565
Fe16 Ti3 2.825601 1_555
Fe16 Ti0 2.826269 1_565
Fe16 Ti0 2.826277 1_555
Fe16 Sc1 2.867916 1_665
Fe17 Fe20 2.378569 1_655
Fe17 Fe23 2.378569 1_665
Fe17 Fe5 2.406504 1_555
Fe17 Fe20 2.457071 1_555
Fe17 Fe23 2.457071 1_555
Fe17 Fe2 2.459854 1_555
Fe17 Ti6 2.762553 1_665
Fe17 Ti1 2.826246 1_565
Fe17 Ti1 2.826250 1_555
Fe17 Ti4 2.826418 1_565
Fe17 Ti4 2.826422 1_555
Fe17 Sc2 2.856002 1_665
Fe18 Fe21 2.381587 1_565
Fe18 Fe3 2.394889 1_556
Fe18 Fe21 2.454053 1_555
Fe18 Ti7 2.767398 1_566
Fe18 Ti2 2.822674 1_455
Fe18 Ti2 2.822674 1_565
Fe18 Sc3 2.861790 1_455
Fe18 Sc3 2.861790 1_565
Fe18 Sc0 2.926416 1_565
Fe19 Fe22 2.375890 1_565
Fe19 Fe4 2.397853 1_555
Fe19 Fe22 2.459750 1_555
Fe19 Ti5 2.761577 1_565
Fe19 Ti3 2.825597 1_565
Fe19 Ti3 2.825597 1_455
Fe19 Ti0 2.826273 1_565
Fe19 Ti0 2.826273 1_455
Fe19 Sc1 2.867914 1_565
Fe20 Fe23 2.378569 1_565
Fe20 Fe5 2.406502 1_555
Fe20 Fe23 2.457071 1_555
Fe20 Ti6 2.762553 1_565
Fe20 Ti1 2.826248 1_565
Fe20 Ti1 2.826248 1_455
Fe20 Ti4 2.826420 1_455
Fe20 Ti4 2.826420 1_565
Fe20 Sc2 2.856002 1_565
Fe21 Fe3 2.394892 1_556
Fe21 Ti7 2.767398 1_556
Fe21 Ti2 2.822671 1_455
Fe21 Ti2 2.822676 1_555
Fe21 Sc3 2.861788 1_455
Fe21 Sc3 2.861792 1_555
Fe21 Sc0 2.926416 1_555
Fe22 Fe4 2.397853 1_555
Fe22 Ti5 2.761579 1_555
Fe22 Ti3 2.825593 1_455
Fe22 Ti3 2.825601 1_555
Fe22 Ti0 2.826269 1_455
Fe22 Ti0 2.826277 1_555
Fe22 Sc1 2.867916 1_555
Fe23 Fe5 2.406504 1_555
Fe23 Ti6 2.762553 1_555
Fe23 Ti1 2.826246 1_455
Fe23 Ti1 2.826250 1_555
Fe23 Ti4 2.826418 1_455
Fe23 Ti4 2.826422 1_555
Fe23 Sc2 2.856002 1_555
