# generated using pymatgen
data_Sr2CaV2(Si2O7)2
_symmetry_space_group_name_H-M   'P 1'
_cell_length_a   5.52554580
_cell_length_b   7.37180093
_cell_length_c   7.93623201
_cell_angle_alpha   93.93160214
_cell_angle_beta   110.37246501
_cell_angle_gamma   90.00000409
_symmetry_Int_Tables_number   1
_chemical_formula_structural   Sr2CaV2(Si2O7)2
_chemical_formula_sum   'Sr2 Ca1 V2 Si4 O14'
_cell_volume   302.23601527
_cell_formula_units_Z   1
loop_
 _symmetry_equiv_pos_site_id
 _symmetry_equiv_pos_as_xyz
  1  'x, y, z'
loop_
 _atom_site_type_symbol
 _atom_site_label
 _atom_site_symmetry_multiplicity
 _atom_site_fract_x
 _atom_site_fract_y
 _atom_site_fract_z
 _atom_site_occupancy
  Sr  Sr0  1  0.19363000  0.77587900  0.40140800  1
  Sr  Sr1  1  0.79222200  0.22412100  0.59859200  1
  Ca  Ca0  1  0.06612300  0.50000000  0.00000000  1
  V  V0  1  0.88125400  0.78418000  0.77631100  1
  V  V1  1  0.10494200  0.21582000  0.22368900  1
  Si  Si0  1  0.41365600  0.47521100  0.78000100  1
  Si  Si1  1  0.63365400  0.52478900  0.21999900  1
  Si  Si2  1  0.60065800  0.96726900  0.21347000  1
  Si  Si3  1  0.38718900  0.03273100  0.78653000  1
  O  O0  1  0.64168600  0.75012300  0.27061400  1
  O  O1  1  0.37107200  0.24987700  0.72938600  1
  O  O2  1  0.53181800  0.50000000  0.00000000  1
  O  O3  1  0.49076800  0.00000000  0.00000000  1
  O  O4  1  0.63005400  0.54935200  0.70436900  1
  O  O5  1  0.92568500  0.45064800  0.29563100  1
  O  O6  1  0.40623600  0.04919400  0.31371700  1
  O  O7  1  0.09251900  0.95080600  0.68628300  1
  O  O8  1  0.97666000  0.21293500  0.97710600  1
  O  O9  1  0.99955600  0.78706500  0.02289400  1
  O  O10  1  0.88646700  0.05965900  0.31669100  1
  O  O11  1  0.56977700  0.94034100  0.68330900  1
  O  O12  1  0.12871100  0.56089500  0.72179700  1
  O  O13  1  0.40691400  0.43910500  0.27820300  1
loop_
_geom_bond_atom_site_label_1
_geom_bond_atom_site_label_2
_geom_bond_distance
_geom_bond_site_symmetry_2
Ca0 O9 2.154147 1_455
Ca0 O8 2.154149 1_454
Ca0 O13 2.421447 1_555
Ca0 O12 2.421447 1_554
Ca0 O2 2.573219 1_555
Ca0 O4 2.761128 1_454
Ca0 O5 2.761128 1_455
Ca0 O2 2.952327 1_455
O0 Si1 1.678905 1_555
O0 Si2 1.687441 1_555
O0 Sr0 2.860701 1_655
O0 Sr0 3.000849 1_555
O1 Si0 1.678906 1_555
O1 Si3 1.687441 1_555
O1 Sr1 2.860701 1_555
O1 Sr1 3.000849 1_455
O2 Si0 1.634207 1_554
O2 Si1 1.634207 1_555
O3 Si2 1.623849 1_545
O3 Si3 1.623849 1_554
O4 Si0 1.622783 1_555
O4 V0 2.135884 1_555
O4 Sr1 2.739264 1_555
O4 Sr0 3.301295 1_555
O5 Si1 1.622788 1_555
O5 V1 2.135881 1_655
O5 Sr0 2.739264 1_655
O5 Sr1 3.301295 1_555
O6 Si2 1.637365 1_545
O6 V1 2.020662 1_555
O6 Sr0 2.585617 1_545
O6 Sr1 2.750641 1_555
O7 Si3 1.637369 1_565
O7 V0 2.020658 1_455
O7 Sr1 2.585617 1_465
O7 Sr0 2.750642 1_555
O8 V1 1.833307 1_656
O8 Sr1 2.823429 1_555
O9 V0 1.833307 1_554
O9 Sr0 2.823429 1_655
O10 Si2 1.628413 1_545
O10 V1 2.015986 1_655
O10 Sr0 2.665968 1_645
O10 Sr1 2.680572 1_555
O11 Si3 1.628413 1_565
O11 V0 2.015986 1_555
O11 Sr1 2.665965 1_565
O11 Sr0 2.680574 1_555
O12 Si0 1.620175 1_555
O12 V0 2.253963 1_455
O12 Sr1 2.996301 1_455
O12 Sr0 3.208300 1_555
O13 Si1 1.620171 1_555
O13 V1 2.253967 1_555
O13 Sr0 2.996301 1_555
O13 Sr1 3.208300 1_555
