# generated using pymatgen
data_Cs8Ga11Cl
_symmetry_space_group_name_H-M   'P 1'
_cell_length_a   18.07532647
_cell_length_b   18.07532647
_cell_length_c   18.07532675
_cell_angle_alpha   32.66778631
_cell_angle_beta   32.66778631
_cell_angle_gamma   32.66778542
_symmetry_Int_Tables_number   1
_chemical_formula_structural   Cs8Ga11Cl
_chemical_formula_sum   'Cs16 Ga22 Cl2'
_cell_volume   1530.33545871
_cell_formula_units_Z   2
loop_
 _symmetry_equiv_pos_site_id
 _symmetry_equiv_pos_as_xyz
  1  'x, y, z'
loop_
 _atom_site_type_symbol
 _atom_site_label
 _atom_site_symmetry_multiplicity
 _atom_site_fract_x
 _atom_site_fract_y
 _atom_site_fract_z
 _atom_site_occupancy
  Cs  Cs0  1  0.90172600  0.69097000  0.33945700  1
  Cs  Cs1  1  0.33945700  0.90172600  0.69097000  1
  Cs  Cs2  1  0.69097000  0.33945700  0.90172600  1
  Cs  Cs3  1  0.83945700  0.19097000  0.40172600  1
  Cs  Cs4  1  0.40172600  0.83945700  0.19097000  1
  Cs  Cs5  1  0.19097000  0.40172600  0.83945700  1
  Cs  Cs6  1  0.09827400  0.30903000  0.66054300  1
  Cs  Cs7  1  0.66054300  0.09827400  0.30903000  1
  Cs  Cs8  1  0.30903000  0.66054300  0.09827400  1
  Cs  Cs9  1  0.16054300  0.80903000  0.59827400  1
  Cs  Cs10  1  0.59827400  0.16054300  0.80903000  1
  Cs  Cs11  1  0.80903000  0.59827400  0.16054300  1
  Cs  Cs12  1  0.92546200  0.92546200  0.92546200  1
  Cs  Cs13  1  0.42546200  0.42546200  0.42546200  1
  Cs  Cs14  1  0.07453800  0.07453800  0.07453800  1
  Cs  Cs15  1  0.57453800  0.57453800  0.57453800  1
  Ga  Ga0  1  0.93777100  0.56222900  0.75000000  1
  Ga  Ga1  1  0.75000000  0.93777100  0.56222900  1
  Ga  Ga2  1  0.56222900  0.75000000  0.93777100  1
  Ga  Ga3  1  0.25000000  0.06222900  0.43777100  1
  Ga  Ga4  1  0.43777100  0.25000000  0.06222900  1
  Ga  Ga5  1  0.06222900  0.43777100  0.25000000  1
  Ga  Ga6  1  0.29435300  0.29435300  0.29435300  1
  Ga  Ga7  1  0.79435300  0.79435300  0.79435300  1
  Ga  Ga8  1  0.70564700  0.70564700  0.70564700  1
  Ga  Ga9  1  0.20564700  0.20564700  0.20564700  1
  Ga  Ga10  1  0.52919500  0.02593100  0.27616600  1
  Ga  Ga11  1  0.27616600  0.52919500  0.02593100  1
  Ga  Ga12  1  0.02593100  0.27616600  0.52919500  1
  Ga  Ga13  1  0.77616600  0.52593100  0.02919500  1
  Ga  Ga14  1  0.02919500  0.77616600  0.52593100  1
  Ga  Ga15  1  0.52593100  0.02919500  0.77616600  1
  Ga  Ga16  1  0.47080500  0.97406900  0.72383400  1
  Ga  Ga17  1  0.72383400  0.47080500  0.97406900  1
  Ga  Ga18  1  0.97406900  0.72383400  0.47080500  1
  Ga  Ga19  1  0.22383400  0.47406900  0.97080500  1
  Ga  Ga20  1  0.97080500  0.22383400  0.47406900  1
  Ga  Ga21  1  0.47406900  0.97080500  0.22383400  1
  Cl  Cl0  1  0.00000000  0.00000000  0.00000000  1
  Cl  Cl1  1  0.50000000  0.50000000  0.50000000  1
loop_
_geom_bond_atom_site_label_1
_geom_bond_atom_site_label_2
_geom_bond_distance
_geom_bond_site_symmetry_2
Cs0 Ga5 3.766151 1_655
Cs0 Ga12 3.787917 1_655
Cs0 Ga10 3.996999 1_565
Cs0 Ga11 4.059169 1_655
Cs0 Ga18 4.075345 1_555
Cs0 Ga6 4.106697 1_655
Cs0 Ga8 4.280185 1_555
Cs1 Ga3 3.766151 1_565
Cs1 Ga10 3.787917 1_565
Cs1 Ga11 3.996999 1_556
Cs1 Ga12 4.059169 1_565
Cs1 Ga16 4.075345 1_555
Cs1 Ga6 4.106697 1_565
Cs1 Ga8 4.280184 1_555
Cs2 Ga4 3.766151 1_556
Cs2 Ga11 3.787917 1_556
Cs2 Ga12 3.996999 1_655
Cs2 Ga10 4.059169 1_556
Cs2 Ga17 4.075345 1_555
Cs2 Ga6 4.106697 1_556
Cs2 Ga8 4.280184 1_555
Cs3 Ga1 3.766151 1_545
Cs3 Ga14 3.787917 1_645
Cs3 Ga13 3.996999 1_555
Cs3 Ga15 4.059169 1_555
Cs3 Ga20 4.075345 1_555
Cs3 Ga7 4.106697 1_545
Cs3 Ga9 4.280184 1_655
Cs4 Ga2 3.766151 1_554
Cs4 Ga15 3.787917 1_564
Cs4 Ga14 3.996999 1_555
Cs4 Ga13 4.059169 1_555
Cs4 Ga21 4.075345 1_555
Cs4 Ga7 4.106697 1_554
Cs4 Ga9 4.280184 1_565
Cs5 Ga0 3.766151 1_455
Cs5 Ga13 3.787917 1_456
Cs5 Ga15 3.996999 1_555
Cs5 Ga14 4.059169 1_555
Cs5 Ga19 4.075345 1_555
Cs5 Ga7 4.106697 1_455
Cs5 Ga9 4.280185 1_556
Cs6 Ga0 3.766151 1_455
Cs6 Ga18 3.787917 1_455
Cs6 Ga16 3.996999 1_545
Cs6 Ga17 4.059169 1_455
Cs6 Ga12 4.075345 1_555
Cs6 Ga8 4.106697 1_455
Cs6 Ga6 4.280185 1_555
Cs7 Ga1 3.766151 1_545
Cs7 Ga16 3.787917 1_545
Cs7 Ga17 3.996999 1_554
Cs7 Ga18 4.059169 1_545
Cs7 Ga10 4.075345 1_555
Cs7 Ga8 4.106697 1_545
Cs7 Ga6 4.280184 1_555
Cs8 Ga2 3.766151 1_554
Cs8 Ga17 3.787917 1_554
Cs8 Ga18 3.996999 1_455
Cs8 Ga16 4.059169 1_554
Cs8 Ga11 4.075345 1_555
Cs8 Ga8 4.106697 1_554
Cs8 Ga6 4.280184 1_555
Cs9 Ga3 3.766151 1_565
Cs9 Ga20 3.787917 1_465
Cs9 Ga19 3.996999 1_555
Cs9 Ga21 4.059169 1_555
Cs9 Ga14 4.075345 1_555
Cs9 Ga9 4.106697 1_565
Cs9 Ga7 4.280184 1_455
Cs10 Ga4 3.766151 1_556
Cs10 Ga21 3.787917 1_546
Cs10 Ga20 3.996999 1_555
Cs10 Ga19 4.059169 1_555
Cs10 Ga15 4.075345 1_555
Cs10 Ga9 4.106697 1_556
Cs10 Ga7 4.280184 1_545
Cs11 Ga5 3.766151 1_655
Cs11 Ga19 3.787917 1_654
Cs11 Ga21 3.996999 1_555
Cs11 Ga20 4.059169 1_555
Cs11 Ga13 4.075345 1_555
Cs11 Ga9 4.106697 1_655
Cs11 Ga7 4.280185 1_554
Cs12 Ga11 3.977795 1_656
Cs12 Ga10 3.977795 1_566
Cs12 Ga12 3.977795 1_665
Cs12 Ga19 4.292633 1_655
Cs12 Ga21 4.292633 1_556
Cs12 Ga20 4.292634 1_565
Cs12 Ga4 4.346698 1_566
Cs12 Ga5 4.346698 1_656
Cs12 Ga3 4.346698 1_665
Cs13 Ga14 3.977795 1_555
Cs13 Ga15 3.977795 1_555
Cs13 Ga13 3.977795 1_555
Cs13 Ga18 4.292633 1_455
Cs13 Ga16 4.292633 1_545
Cs13 Ga17 4.292634 1_554
Cs13 Ga1 4.346698 1_545
Cs13 Ga0 4.346698 1_455
Cs13 Ga2 4.346698 1_554
Cs14 Ga17 3.977795 1_454
Cs14 Ga16 3.977795 1_544
Cs14 Ga18 3.977795 1_445
Cs14 Ga13 4.292633 1_455
Cs14 Ga15 4.292633 1_554
Cs14 Ga14 4.292634 1_545
Cs14 Ga2 4.346698 1_544
Cs14 Ga0 4.346698 1_454
Cs14 Ga1 4.346698 1_445
Cs15 Ga20 3.977795 1_555
Cs15 Ga21 3.977795 1_555
Cs15 Ga19 3.977795 1_555
Cs15 Ga12 4.292633 1_655
Cs15 Ga10 4.292633 1_565
Cs15 Ga11 4.292634 1_556
Cs15 Ga3 4.346698 1_565
Cs15 Ga5 4.346698 1_655
Cs15 Ga4 4.346698 1_556
Ga0 Ga17 2.685097 1_555
Ga0 Ga14 2.685097 1_655
Ga0 Ga18 2.695176 1_555
Ga0 Ga13 2.695176 1_556
Ga0 Ga7 2.969651 1_555
Ga0 Ga8 2.969651 1_555
Ga1 Ga18 2.685097 1_555
Ga1 Ga15 2.685097 1_565
Ga1 Ga14 2.695176 1_655
Ga1 Ga16 2.695176 1_555
Ga1 Ga8 2.969651 1_555
Ga1 Ga7 2.969651 1_555
Ga2 Ga7 2.969651 1_555
Ga2 Ga8 2.969651 1_555
Ga3 Ga6 2.969651 1_555
Ga3 Ga9 2.969651 1_555
Ga4 Ga9 2.969651 1_555
Ga4 Ga6 2.969651 1_555
Ga5 Ga9 2.969651 1_555
Ga5 Ga6 2.969651 1_555
Ga10 Ga4 2.685097 1_555
Ga10 Ga3 2.695176 1_555
Ga10 Ga6 2.707055 1_555
Ga10 Ga21 2.779535 1_545
Ga11 Ga5 2.685097 1_555
Ga11 Ga4 2.695176 1_555
Ga11 Ga6 2.707055 1_555
Ga11 Ga19 2.779535 1_554
Ga12 Ga3 2.685097 1_555
Ga12 Ga5 2.695176 1_555
Ga12 Ga6 2.707055 1_555
Ga12 Ga20 2.779535 1_455
Ga13 Ga2 2.685097 1_554
Ga13 Ga7 2.707055 1_554
Ga13 Ga17 2.779535 1_554
Ga14 Ga7 2.707055 1_455
Ga14 Ga18 2.779535 1_455
Ga15 Ga2 2.695176 1_545
Ga15 Ga7 2.707055 1_545
Ga15 Ga16 2.779535 1_545
Ga16 Ga2 2.685097 1_555
Ga16 Ga8 2.707055 1_555
Ga17 Ga2 2.695176 1_555
Ga17 Ga8 2.707055 1_555
Ga18 Ga8 2.707055 1_555
Ga19 Ga4 2.685097 1_556
Ga19 Ga5 2.695176 1_556
Ga19 Ga9 2.707055 1_556
Ga20 Ga5 2.685097 1_655
Ga20 Ga3 2.695176 1_655
Ga20 Ga9 2.707055 1_655
Ga21 Ga3 2.685097 1_565
Ga21 Ga4 2.695176 1_565
Ga21 Ga9 2.707055 1_565
Cl0 Cs8 3.557549 1_545
Cl0 Cs2 3.557549 1_454
Cl0 Cs7 3.557549 1_455
Cl0 Cs1 3.557549 1_544
Cl0 Cs6 3.557549 1_554
Cl0 Cs0 3.557549 1_445
Cl0 Cs14 3.822837 1_555
Cl0 Cs12 3.822837 1_444
Cl1 Cs9 3.557549 1_555
Cl1 Cs3 3.557549 1_555
Cl1 Cs10 3.557549 1_555
Cl1 Cs4 3.557549 1_555
Cl1 Cs11 3.557549 1_555
Cl1 Cs5 3.557549 1_555
Cl1 Cs15 3.822837 1_555
Cl1 Cs13 3.822837 1_555
