# generated using pymatgen
data_Ca3YTi4O12
_symmetry_space_group_name_H-M   'P 1'
_cell_length_a   7.72402000
_cell_length_b   5.40202100
_cell_length_c   5.53335039
_cell_angle_alpha   89.80096296
_cell_angle_beta   90.00000000
_cell_angle_gamma   90.00000000
_symmetry_Int_Tables_number   1
_chemical_formula_structural   Ca3YTi4O12
_chemical_formula_sum   'Ca3 Y1 Ti4 O12'
_cell_volume   230.87941277
_cell_formula_units_Z   1
loop_
 _symmetry_equiv_pos_site_id
 _symmetry_equiv_pos_as_xyz
  1  'x, y, z'
loop_
 _atom_site_type_symbol
 _atom_site_label
 _atom_site_symmetry_multiplicity
 _atom_site_fract_x
 _atom_site_fract_y
 _atom_site_fract_z
 _atom_site_occupancy
  Ca  Ca0  1  0.50000000  0.49090600  0.54723300  1
  Ca  Ca1  1  0.00000000  0.99183200  0.95321800  1
  Ca  Ca2  1  0.00000000  0.50925200  0.45395400  1
  Y  Y0  1  0.50000000  0.00790100  0.05519600  1
  Ti  Ti0  1  0.24800500  0.99869700  0.50111100  1
  Ti  Ti1  1  0.75226100  0.50171400  0.99924500  1
  Ti  Ti2  1  0.75199500  0.99869700  0.50111100  1
  Ti  Ti3  1  0.24773900  0.50171400  0.99924500  1
  O  O0  1  0.50000000  0.59122600  0.97888700  1
  O  O1  1  0.50000000  0.92140000  0.47180500  1
  O  O2  1  0.00000000  0.42268300  0.02160700  1
  O  O3  1  0.00000000  0.07999700  0.52183600  1
  O  O4  1  0.78716500  0.79979400  0.20199000  1
  O  O5  1  0.20892800  0.70228600  0.70413600  1
  O  O6  1  0.29729900  0.19753900  0.80118500  1
  O  O7  1  0.70425500  0.29237200  0.29046500  1
  O  O8  1  0.70270100  0.19753900  0.80118500  1
  O  O9  1  0.29574500  0.29237200  0.29046500  1
  O  O10  1  0.21283500  0.79979400  0.20199000  1
  O  O11  1  0.79107200  0.70228600  0.70413600  1
loop_
_geom_bond_atom_site_label_1
_geom_bond_atom_site_label_2
_geom_bond_distance
_geom_bond_site_symmetry_2
Ca0 O1 2.361266 1_555
Ca0 O7 2.380859 1_555
Ca0 O9 2.380859 1_555
Ca0 O0 2.451037 1_555
Ca0 O6 2.630960 1_555
Ca0 O8 2.630960 1_555
Ca0 O11 2.668175 1_555
Ca0 O5 2.668175 1_555
Ca1 O2 2.359326 1_566
Ca1 O10 2.379848 1_556
Ca1 O4 2.379848 1_456
Ca1 O3 2.432415 1_565
Ca1 O5 2.639189 1_555
Ca1 O11 2.639189 1_455
Ca1 O8 2.685003 1_465
Ca1 O6 2.685003 1_565
Ca2 O3 2.347781 1_555
Ca2 O5 2.370243 1_555
Ca2 O11 2.370243 1_455
Ca2 O2 2.439200 1_555
Ca2 O4 2.663555 1_455
Ca2 O10 2.663555 1_555
Ca2 O9 2.723339 1_555
Ca2 O7 2.723339 1_455
O0 Ti1 2.010636 1_555
O0 Ti3 2.010636 1_555
O0 Y0 2.291590 1_566
O1 Ti2 1.997411 1_555
O1 Ti0 1.997411 1_555
O1 Y0 2.350535 1_565
O2 Ti3 1.964395 1_554
O2 Ti1 1.964395 1_454
O3 Ti0 1.968728 1_545
O3 Ti2 1.968728 1_445
O4 Ti1 1.984101 1_554
O4 Ti2 1.995031 1_555
O4 Y0 2.614780 1_565
O5 Ti0 1.975994 1_555
O5 Ti3 1.979402 1_555
O6 Ti3 2.014968 1_555
O6 Ti0 2.016961 1_545
O6 Y0 2.338008 1_556
O7 Ti2 1.999621 1_545
O7 Ti1 2.000095 1_554
O7 Y0 2.561092 1_555
O8 Ti1 2.014968 1_555
O8 Ti2 2.016961 1_545
O8 Y0 2.338008 1_556
O9 Ti0 1.999621 1_545
O9 Ti3 2.000095 1_554
O9 Y0 2.561092 1_555
O10 Ti3 1.984101 1_554
O10 Ti0 1.995031 1_555
O10 Y0 2.614780 1_565
O11 Ti2 1.975994 1_555
O11 Ti1 1.979402 1_555
