# generated using pymatgen
data_PrH3CSO7
_symmetry_space_group_name_H-M   'P 1'
_cell_length_a   7.05953000
_cell_length_b   7.05953000
_cell_length_c   11.98053800
_cell_angle_alpha   90.00000000
_cell_angle_beta   90.00000000
_cell_angle_gamma   90.00000000
_symmetry_Int_Tables_number   1
_chemical_formula_structural   PrH3CSO7
_chemical_formula_sum   'Pr4 H12 C4 S4 O28'
_cell_volume   597.07363886
_cell_formula_units_Z   4
loop_
 _symmetry_equiv_pos_site_id
 _symmetry_equiv_pos_as_xyz
  1  'x, y, z'
loop_
 _atom_site_type_symbol
 _atom_site_label
 _atom_site_symmetry_multiplicity
 _atom_site_fract_x
 _atom_site_fract_y
 _atom_site_fract_z
 _atom_site_occupancy
  Pr  Pr0  1  0.11446400  0.63118500  0.90721200  1
  Pr  Pr1  1  0.88553600  0.36881500  0.40721200  1
  Pr  Pr2  1  0.63118500  0.88553600  0.65721200  1
  Pr  Pr3  1  0.36881500  0.11446400  0.15721200  1
  H  H0  1  0.03158900  0.14033800  0.86638600  1
  H  H1  1  0.96841100  0.85966200  0.36638600  1
  H  H2  1  0.14033800  0.96841100  0.61638600  1
  H  H3  1  0.85966200  0.03158900  0.11638600  1
  H  H4  1  0.17536100  0.39965800  0.68838200  1
  H  H5  1  0.82463900  0.60034200  0.18838200  1
  H  H6  1  0.39965800  0.82463900  0.43838200  1
  H  H7  1  0.60034200  0.17536100  0.93838200  1
  H  H8  1  0.38288600  0.45875000  0.72542800  1
  H  H9  1  0.61711400  0.54125000  0.22542800  1
  H  H10  1  0.45875000  0.61711400  0.47542800  1
  H  H11  1  0.54125000  0.38288600  0.97542800  1
  C  C0  1  0.11352500  0.13594200  0.94456000  1
  C  C1  1  0.88647500  0.86405800  0.44456000  1
  C  C2  1  0.13594200  0.88647500  0.69456000  1
  C  C3  1  0.86405800  0.11352500  0.19456000  1
  S  S0  1  0.76501900  0.38734600  0.71313300  1
  S  S1  1  0.23498100  0.61265400  0.21313300  1
  S  S2  1  0.38734600  0.23498100  0.46313300  1
  S  S3  1  0.61265400  0.76501900  0.96313300  1
  O  O0  1  0.88824400  0.36667600  0.61344500  1
  O  O1  1  0.11175600  0.63332400  0.11344500  1
  O  O2  1  0.36667600  0.11175600  0.36344500  1
  O  O3  1  0.63332400  0.88824400  0.86344500  1
  O  O4  1  0.61827700  0.53788700  0.69265400  1
  O  O5  1  0.38172300  0.46211300  0.19265400  1
  O  O6  1  0.53788700  0.38172300  0.44265400  1
  O  O7  1  0.46211300  0.61827700  0.94265400  1
  O  O8  1  0.88252300  0.44102100  0.80999400  1
  O  O9  1  0.11747700  0.55897900  0.30999400  1
  O  O10  1  0.44102100  0.11747700  0.55999400  1
  O  O11  1  0.55897900  0.88252300  0.05999400  1
  O  O12  1  0.66962200  0.20628500  0.73930300  1
  O  O13  1  0.33037800  0.79371500  0.23930300  1
  O  O14  1  0.20628500  0.33037800  0.48930300  1
  O  O15  1  0.79371500  0.66962200  0.98930300  1
  O  O16  1  0.15579700  0.29068400  0.99245500  1
  O  O17  1  0.84420300  0.70931600  0.49245500  1
  O  O18  1  0.29068400  0.84420300  0.74245500  1
  O  O19  1  0.70931600  0.15579700  0.24245500  1
  O  O20  1  0.16099300  0.97543200  0.98537300  1
  O  O21  1  0.83900700  0.02456800  0.48537300  1
  O  O22  1  0.97543200  0.83900700  0.73537300  1
  O  O23  1  0.02456800  0.16099300  0.23537300  1
  O  O24  1  0.25371800  0.43173500  0.75315700  1
  O  O25  1  0.74628200  0.56826500  0.25315700  1
  O  O26  1  0.43173500  0.74628200  0.50315700  1
  O  O27  1  0.56826500  0.25371800  0.00315700  1
loop_
_geom_bond_atom_site_label_1
_geom_bond_atom_site_label_2
_geom_bond_distance
_geom_bond_site_symmetry_2
H4 O24 0.979544 1_555
H5 O25 0.979544 1_555
H6 O26 0.979544 1_555
H7 O27 0.979544 1_556
H8 O24 0.989056 1_555
H9 O25 0.989056 1_555
H10 O26 0.989056 1_555
H11 O27 0.989056 1_556
C0 H0 1.101227 1_555
C0 O16 1.269512 1_555
C0 O20 1.278808 1_545
C1 H1 1.101227 1_555
C1 O17 1.269512 1_555
C1 O21 1.278808 1_565
C2 H2 1.101227 1_555
C2 O18 1.269512 1_555
C2 O22 1.278808 1_455
C3 H3 1.101227 1_555
C3 O19 1.269512 1_555
C3 O23 1.278808 1_655
O0 S0 1.484731 1_555
O0 Pr1 2.470902 1_555
O1 S1 1.484731 1_555
O1 Pr0 2.470902 1_554
O2 S2 1.484731 1_555
O2 Pr3 2.470902 1_555
O3 S3 1.484731 1_555
O3 Pr2 2.470902 1_555
O4 S0 1.504254 1_555
O4 Pr2 2.492366 1_555
O5 S1 1.504254 1_555
O5 Pr3 2.492366 1_555
O6 S2 1.504254 1_555
O6 Pr1 2.492366 1_555
O7 S3 1.504254 1_555
O7 Pr0 2.492366 1_555
O8 S0 1.475915 1_555
O8 Pr0 2.416581 1_655
O9 S1 1.475915 1_555
O9 Pr1 2.416581 1_455
O10 S2 1.475915 1_555
O10 Pr2 2.416581 1_545
O11 S3 1.475915 1_554
O11 Pr3 2.416581 1_565
O12 S0 1.478397 1_555
O12 Pr2 2.483569 1_545
O13 S1 1.478397 1_555
O13 Pr3 2.483569 1_565
O14 S2 1.478397 1_555
O14 Pr1 2.483569 1_455
O15 S3 1.478397 1_555
O15 Pr0 2.483569 1_655
O16 Pr0 2.627975 1_555
O16 Pr3 2.775831 1_556
O17 Pr1 2.627975 1_555
O17 Pr2 2.775831 1_555
O18 Pr2 2.627975 1_555
O18 Pr0 2.775831 1_555
O19 Pr3 2.627975 1_555
O19 Pr1 2.775831 1_555
O20 Pr0 2.625022 1_555
O20 Pr3 2.711853 1_566
O21 Pr1 2.625022 1_555
O21 Pr2 2.711853 1_545
O22 Pr2 2.625022 1_555
O22 Pr0 2.711853 1_655
O23 Pr3 2.625022 1_555
O23 Pr1 2.711853 1_455
O24 Pr0 2.520996 1_555
O25 Pr1 2.520996 1_555
O26 Pr2 2.520996 1_555
O27 Pr3 2.520996 1_555
