# generated using pymatgen
data_TbB7Mo3
_symmetry_space_group_name_H-M   'P 1'
_cell_length_a   3.09952876
_cell_length_b   11.01135404
_cell_length_c   12.88409040
_cell_angle_alpha   89.99976946
_cell_angle_beta   90.00000512
_cell_angle_gamma   90.00000107
_symmetry_Int_Tables_number   1
_chemical_formula_structural   TbB7Mo3
_chemical_formula_sum   'Tb4 B28 Mo12'
_cell_volume   439.73411530
_cell_formula_units_Z   4
loop_
 _symmetry_equiv_pos_site_id
 _symmetry_equiv_pos_as_xyz
  1  'x, y, z'
loop_
 _atom_site_type_symbol
 _atom_site_label
 _atom_site_symmetry_multiplicity
 _atom_site_fract_x
 _atom_site_fract_y
 _atom_site_fract_z
 _atom_site_occupancy
  Tb  Tb0  1  0.75000005  0.55077722  0.30809917  1
  Tb  Tb1  1  0.25000000  0.44920691  0.69190575  1
  Tb  Tb2  1  0.25000000  0.94921761  0.80807441  1
  Tb  Tb3  1  0.75000002  0.05079778  0.19192032  1
  B  B0  1  0.75000001  0.75172146  0.17324334  1
  B  B1  1  0.25000000  0.24827845  0.82675361  1
  B  B2  1  0.25000001  0.74827222  0.67323973  1
  B  B3  1  0.74999996  0.25173046  0.32676352  1
  B  B4  1  0.74999996  0.93198565  0.38455929  1
  B  B5  1  0.24999998  0.06802076  0.61544907  1
  B  B6  1  0.24999995  0.56801157  0.88454278  1
  B  B7  1  0.74999998  0.43198164  0.11544928  1
  B  B8  1  0.74999997  0.98939096  0.63632511  1
  B  B9  1  0.25000002  0.01061612  0.36368123  1
  B  B10  1  0.25000005  0.51060796  0.13633016  1
  B  B11  1  0.74999996  0.48938552  0.86366359  1
  B  B12  1  0.75000000  0.76967264  0.41841977  1
  B  B13  1  0.24999995  0.23032774  0.58159000  1
  B  B14  1  0.24999992  0.73032537  0.91840373  1
  B  B15  1  0.75000005  0.26967621  0.08158794  1
  B  B16  1  0.75000002  0.96239533  0.98224891  1
  B  B17  1  0.25000001  0.03761151  0.01774112  1
  B  B18  1  0.25000008  0.53760258  0.48226056  1
  B  B19  1  0.74999994  0.46238874  0.51774737  1
  B  B20  1  0.75000002  0.81346110  0.93370678  1
  B  B21  1  0.25000003  0.18654003  0.06628415  1
  B  B22  1  0.25000004  0.68653770  0.43372254  1
  B  B23  1  0.74999997  0.31345938  0.56628555  1
  B  B24  1  0.74999996  0.83340884  0.66637927  1
  B  B25  1  0.25000003  0.16659538  0.33362531  1
  B  B26  1  0.25000002  0.66658860  0.16638379  1
  B  B27  1  0.75000003  0.33340909  0.83361237  1
  Mo  Mo0  1  0.74999990  0.11795807  0.47324067  1
  Mo  Mo1  1  0.25000001  0.88205417  0.52677122  1
  Mo  Mo2  1  0.25000005  0.38203756  0.97322827  1
  Mo  Mo3  1  0.75000008  0.61794962  0.02676116  1
  Mo  Mo4  1  0.74999984  0.66010013  0.56376677  1
  Mo  Mo5  1  0.25000009  0.33989288  0.43624114  1
  Mo  Mo6  1  0.25000013  0.83990568  0.06376157  1
  Mo  Mo7  1  0.74999997  0.16009848  0.93623014  1
  Mo  Mo8  1  0.75000002  0.68438799  0.79843869  1
  Mo  Mo9  1  0.24999990  0.31560614  0.20155629  1
  Mo  Mo10  1  0.25000005  0.81561231  0.29846227  1
  Mo  Mo11  1  0.74999998  0.18439145  0.70154228  1
loop_
_geom_bond_atom_site_label_1
_geom_bond_atom_site_label_2
_geom_bond_distance
_geom_bond_site_symmetry_2
B0 B26 1.813381 1_555
B0 B26 1.813382 1_655
B0 Mo6 2.309625 1_555
B0 Mo6 2.309626 1_655
B0 Mo10 2.345115 1_655
B0 Mo10 2.345115 1_555
B0 Mo3 2.394084 1_555
B0 Tb0 2.813318 1_555
B0 Tb3 3.302016 1_565
B1 B27 1.813368 1_455
B1 B27 1.813368 1_555
B1 Mo7 2.309564 1_555
B1 Mo7 2.309565 1_455
B1 Mo11 2.345035 1_455
B1 Mo11 2.345035 1_555
B1 Mo2 2.393922 1_555
B1 Tb1 2.813118 1_555
B1 Tb2 3.301848 1_545
B2 B24 1.813403 1_555
B2 B24 1.813403 1_455
B2 Mo4 2.309504 1_555
B2 Mo4 2.309505 1_455
B2 Mo8 2.344913 1_555
B2 Mo8 2.344913 1_455
B2 Mo1 2.394005 1_555
B2 Tb2 2.813171 1_555
B2 Tb1 3.301883 1_555
B3 Mo5 2.309496 1_555
B3 Mo5 2.309497 1_655
B3 Mo9 2.344958 1_655
B3 Mo9 2.344958 1_555
B3 Mo0 2.394028 1_555
B3 Tb3 2.813128 1_555
B3 Tb0 3.301678 1_555
B4 B9 1.795490 1_565
B4 B9 1.795490 1_665
B4 Mo10 2.296594 1_555
B4 Mo10 2.296594 1_655
B4 Mo0 2.345000 1_565
B4 Mo1 2.461966 1_555
B4 Mo1 2.461966 1_655
B4 Tb3 2.805671 1_565
B5 B8 1.795482 1_545
B5 B8 1.795482 1_445
B5 Mo11 2.296554 1_555
B5 Mo11 2.296554 1_455
B5 Mo1 2.344921 1_545
B5 Mo0 2.461946 1_555
B5 Mo0 2.461946 1_455
B5 Tb2 2.805470 1_545
B6 Mo8 2.296652 1_455
B6 Mo8 2.296652 1_555
B6 Mo2 2.345033 1_555
B6 Mo3 2.462047 1_456
B6 Mo3 2.462047 1_556
B6 Tb1 2.805620 1_555
B7 Mo9 2.296664 1_655
B7 Mo9 2.296665 1_555
B7 Mo3 2.344991 1_555
B7 Mo2 2.462087 1_554
B7 Mo2 2.462087 1_654
B7 Tb0 2.805720 1_555
B8 Mo11 2.305777 1_565
B8 Mo1 2.406463 1_555
B8 Mo1 2.406463 1_655
B8 Mo0 2.533613 1_565
B8 Tb2 2.737531 1_655
B8 Tb2 2.737532 1_555
B9 Mo10 2.305820 1_545
B9 Mo0 2.406533 1_555
B9 Mo0 2.406533 1_455
B9 Mo1 2.533641 1_545
B9 Tb3 2.737667 1_455
B9 Tb3 2.737667 1_555
B10 B26 1.760666 1_555
B10 B7 1.795474 1_555
B10 B7 1.795475 1_455
B10 Mo9 2.305827 1_555
B10 Mo3 2.406598 1_455
B10 Mo3 2.406598 1_555
B10 Mo2 2.533829 1_554
B10 Tb0 2.737732 1_555
B10 Tb0 2.737733 1_455
B11 B27 1.760614 1_555
B11 B6 1.795470 1_655
B11 B6 1.795470 1_555
B11 Mo8 2.305828 1_555
B11 Mo2 2.406599 1_555
B11 Mo2 2.406600 1_655
B11 Mo3 2.533744 1_556
B11 Tb1 2.737633 1_555
B11 Tb1 2.737633 1_655
B12 B22 1.810704 1_555
B12 B22 1.810704 1_655
B12 B4 1.839758 1_555
B12 Mo4 2.227688 1_555
B12 Mo10 2.246410 1_555
B12 Mo10 2.246411 1_655
B12 Mo1 2.425276 1_655
B12 Mo1 2.425277 1_555
B12 Tb0 2.798225 1_555
B13 B23 1.810688 1_455
B13 B23 1.810688 1_555
B13 B5 1.839689 1_555
B13 Mo5 2.227664 1_555
B13 Mo11 2.246356 1_555
B13 Mo11 2.246356 1_455
B13 Mo0 2.425194 1_555
B13 Mo0 2.425194 1_455
B13 Tb1 2.798039 1_555
B14 B20 1.810710 1_455
B14 B20 1.810710 1_555
B14 B6 1.839771 1_555
B14 Mo6 2.227860 1_556
B14 Mo8 2.246474 1_455
B14 Mo8 2.246475 1_555
B14 Mo3 2.425282 1_456
B14 Mo3 2.425283 1_556
B14 Tb2 2.798242 1_555
B15 B21 1.810713 1_655
B15 B21 1.810713 1_555
B15 B7 1.839683 1_555
B15 Mo7 2.227844 1_554
B15 Mo9 2.246485 1_655
B15 Mo9 2.246486 1_555
B15 Mo2 2.425218 1_554
B15 Mo2 2.425218 1_654
B15 Tb3 2.798131 1_555
B16 B20 1.755179 1_555
B16 B17 1.815723 1_666
B16 B17 1.815723 1_566
B16 Mo7 2.256274 1_565
B16 Mo6 2.307360 1_556
B16 Mo6 2.307361 1_656
B16 Tb2 2.731066 1_555
B16 Tb2 2.731066 1_655
B16 Tb3 2.871461 1_566
B17 B21 1.755124 1_555
B17 Mo6 2.256308 1_545
B17 Mo7 2.307333 1_554
B17 Mo7 2.307333 1_454
B17 Tb3 2.731121 1_555
B17 Tb3 2.731121 1_455
B17 Tb2 2.871372 1_544
B18 B22 1.755165 1_555
B18 B19 1.815692 1_555
B18 B19 1.815693 1_455
B18 Mo5 2.256350 1_555
B18 Mo4 2.307378 1_555
B18 Mo4 2.307379 1_455
B18 Tb0 2.730925 1_455
B18 Tb0 2.730925 1_555
B18 Tb1 2.871110 1_555
B19 B23 1.755106 1_555
B19 Mo4 2.256368 1_555
B19 Mo5 2.307367 1_555
B19 Mo5 2.307368 1_655
B19 Tb1 2.730897 1_655
B19 Tb1 2.730897 1_555
B19 Tb0 2.871120 1_555
B20 Mo8 2.248867 1_555
B20 Mo6 2.300940 1_556
B20 Mo6 2.300941 1_656
B20 Mo3 2.464171 1_556
B20 Tb2 2.693775 1_555
B20 Tb2 2.693775 1_655
B21 Mo9 2.248858 1_555
B21 Mo7 2.300929 1_554
B21 Mo7 2.300929 1_454
B21 Mo2 2.464046 1_554
B21 Tb3 2.693717 1_555
B21 Tb3 2.693717 1_455
B22 Mo10 2.248790 1_555
B22 Mo4 2.300829 1_555
B22 Mo4 2.300830 1_455
B22 Mo1 2.464191 1_555
B22 Tb0 2.693736 1_455
B22 Tb0 2.693737 1_555
B23 Mo11 2.248708 1_555
B23 Mo5 2.300826 1_555
B23 Mo5 2.300826 1_655
B23 Mo0 2.464022 1_555
B23 Tb1 2.693633 1_655
B23 Tb1 2.693633 1_555
B24 B8 1.760681 1_555
B24 Mo4 2.321581 1_555
B24 Mo8 2.363807 1_555
B24 Mo1 2.433945 1_555
B24 Mo1 2.433945 1_655
B24 Tb2 2.713082 1_655
B24 Tb2 2.713082 1_555
B25 B9 1.760655 1_555
B25 B3 1.813395 1_555
B25 B3 1.813395 1_455
B25 Mo5 2.321504 1_555
B25 Mo9 2.363819 1_555
B25 Mo0 2.433995 1_555
B25 Mo0 2.433995 1_455
B25 Tb3 2.713110 1_455
B25 Tb3 2.713110 1_555
B26 Mo6 2.321719 1_555
B26 Mo10 2.364015 1_555
B26 Mo3 2.434071 1_455
B26 Mo3 2.434072 1_555
B26 Tb0 2.713264 1_555
B26 Tb0 2.713264 1_455
B27 Mo7 2.321628 1_555
B27 Mo11 2.363891 1_555
B27 Mo2 2.433982 1_655
B27 Mo2 2.433982 1_555
B27 Tb1 2.713118 1_555
B27 Tb1 2.713118 1_655
