# generated using pymatgen
data_Sn2Pb2O7
_symmetry_space_group_name_H-M   'P 1'
_cell_length_a   7.60360973
_cell_length_b   7.60360973
_cell_length_c   7.60360973
_cell_angle_alpha   60.00000000
_cell_angle_beta   60.00000000
_cell_angle_gamma   60.00000000
_symmetry_Int_Tables_number   1
_chemical_formula_structural   Sn2Pb2O7
_chemical_formula_sum   'Sn4 Pb4 O14'
_cell_volume   310.84540727
_cell_formula_units_Z   2
loop_
 _symmetry_equiv_pos_site_id
 _symmetry_equiv_pos_as_xyz
  1  'x, y, z'
loop_
 _atom_site_type_symbol
 _atom_site_label
 _atom_site_symmetry_multiplicity
 _atom_site_fract_x
 _atom_site_fract_y
 _atom_site_fract_z
 _atom_site_occupancy
  Sn  Sn0  1  0.62500000  0.12500000  0.12500000  1
  Sn  Sn1  1  0.12500000  0.62500000  0.12500000  1
  Sn  Sn2  1  0.12500000  0.12500000  0.62500000  1
  Sn  Sn3  1  0.12500000  0.12500000  0.12500000  1
  Pb  Pb0  1  0.12500000  0.62500000  0.62500000  1
  Pb  Pb1  1  0.62500000  0.12500000  0.62500000  1
  Pb  Pb2  1  0.62500000  0.62500000  0.12500000  1
  Pb  Pb3  1  0.62500000  0.62500000  0.62500000  1
  O  O0  1  0.79293800  0.79293800  0.20706200  1
  O  O1  1  0.20706200  0.20706200  0.79293800  1
  O  O2  1  0.79293800  0.20706200  0.79293800  1
  O  O3  1  0.20706200  0.79293800  0.20706200  1
  O  O4  1  0.20706200  0.79293800  0.79293800  1
  O  O5  1  0.79293800  0.20706200  0.20706200  1
  O  O6  1  0.45706200  0.45706200  0.04293800  1
  O  O7  1  0.04293800  0.04293800  0.45706200  1
  O  O8  1  0.45706200  0.04293800  0.45706200  1
  O  O9  1  0.04293800  0.45706200  0.04293800  1
  O  O10  1  0.04293800  0.45706200  0.45706200  1
  O  O11  1  0.45706200  0.04293800  0.04293800  1
  O  O12  1  0.50000000  0.50000000  0.50000000  1
  O  O13  1  0.75000000  0.75000000  0.75000000  1
loop_
_geom_bond_atom_site_label_1
_geom_bond_atom_site_label_2
_geom_bond_distance
_geom_bond_site_symmetry_2
O0 Sn0 2.095734 1_565
O0 Sn1 2.095734 1_655
O0 Pb2 2.621937 1_555
O0 Pb3 2.621937 1_555
O1 Sn2 2.095734 1_555
O1 Sn3 2.095734 1_556
O1 Pb0 2.621937 1_555
O1 Pb1 2.621937 1_555
O2 Sn0 2.095734 1_556
O2 Sn2 2.095734 1_655
O2 Pb1 2.621937 1_555
O2 Pb3 2.621937 1_555
O3 Sn1 2.095734 1_555
O3 Sn3 2.095734 1_565
O3 Pb2 2.621937 1_555
O3 Pb0 2.621937 1_555
O4 Sn1 2.095734 1_556
O4 Sn2 2.095734 1_565
O4 Pb0 2.621937 1_555
O4 Pb3 2.621937 1_555
O5 Sn0 2.095734 1_555
O5 Sn3 2.095734 1_655
O5 Pb2 2.621937 1_555
O5 Pb1 2.621937 1_555
O6 Sn1 2.095734 1_555
O6 Sn0 2.095734 1_555
O6 Pb3 2.621937 1_554
O6 Pb2 2.621937 1_555
O7 Sn3 2.095734 1_555
O7 Sn2 2.095734 1_555
O7 Pb0 2.621937 1_545
O7 Pb1 2.621937 1_455
O8 Sn0 2.095734 1_555
O8 Sn2 2.095734 1_555
O8 Pb3 2.621937 1_545
O8 Pb1 2.621937 1_555
O9 Sn3 2.095734 1_555
O9 Sn1 2.095734 1_555
O9 Pb2 2.621937 1_455
O9 Pb0 2.621937 1_554
O10 Sn1 2.095734 1_555
O10 Sn2 2.095734 1_555
O10 Pb3 2.621937 1_455
O10 Pb0 2.621937 1_555
O11 Sn3 2.095734 1_555
O11 Sn0 2.095734 1_555
O11 Pb1 2.621937 1_554
O11 Pb2 2.621937 1_545
O12 Pb3 2.328121 1_555
O12 Pb1 2.328121 1_555
O12 Pb0 2.328121 1_555
O12 Pb2 2.328121 1_555
O13 Pb3 2.328121 1_555
O13 Pb2 2.328121 1_556
O13 Pb1 2.328121 1_565
O13 Pb0 2.328121 1_655
