# generated using pymatgen
data_MoN2
_symmetry_space_group_name_H-M   'P 1'
_cell_length_a   4.34805300
_cell_length_b   4.34805300
_cell_length_c   2.76746000
_cell_angle_alpha   90.00000000
_cell_angle_beta   90.00000000
_cell_angle_gamma   90.00000000
_symmetry_Int_Tables_number   1
_chemical_formula_structural   MoN2
_chemical_formula_sum   'Mo2 N4'
_cell_volume   52.32039461
_cell_formula_units_Z   2
loop_
 _symmetry_equiv_pos_site_id
 _symmetry_equiv_pos_as_xyz
  1  'x, y, z'
loop_
 _atom_site_type_symbol
 _atom_site_label
 _atom_site_symmetry_multiplicity
 _atom_site_fract_x
 _atom_site_fract_y
 _atom_site_fract_z
 _atom_site_occupancy
  Mo  Mo0  1  0.50000000  0.50000000  0.00000000  1
  Mo  Mo1  1  0.00000000  0.00000000  0.00000000  1
  N  N0  1  0.88835300  0.38835300  0.50000000  1
  N  N1  1  0.11164700  0.61164700  0.50000000  1
  N  N2  1  0.38835300  0.11164700  0.50000000  1
  N  N3  1  0.61164700  0.88835300  0.50000000  1
loop_
_geom_bond_atom_site_label_1
_geom_bond_atom_site_label_2
_geom_bond_distance
_geom_bond_site_symmetry_2
Mo0 N3 2.236441 1_554
Mo0 N3 2.236441 1_555
Mo0 N1 2.236441 1_555
Mo0 N1 2.236441 1_554
Mo0 N0 2.236441 1_554
Mo0 N0 2.236441 1_555
Mo0 N2 2.236441 1_555
Mo0 N2 2.236441 1_554
Mo1 N2 2.236441 1_554
Mo1 N2 2.236441 1_555
Mo1 N0 2.236441 1_454
Mo1 N0 2.236441 1_455
Mo1 N1 2.236441 1_544
Mo1 N1 2.236441 1_545
Mo1 N3 2.236441 1_444
Mo1 N3 2.236441 1_445
N0 N1 1.373052 1_655
N2 N3 1.373052 1_545
