# generated using pymatgen
data_NbGa(PbO3)2
_symmetry_space_group_name_H-M   'P 1'
_cell_length_a   5.68976583
_cell_length_b   5.68976583
_cell_length_c   5.68976583
_cell_angle_alpha   60.00000000
_cell_angle_beta   60.00000000
_cell_angle_gamma   60.00000000
_symmetry_Int_Tables_number   1
_chemical_formula_structural   NbGa(PbO3)2
_chemical_formula_sum   'Nb1 Ga1 Pb2 O6'
_cell_volume   130.24713527
_cell_formula_units_Z   1
loop_
 _symmetry_equiv_pos_site_id
 _symmetry_equiv_pos_as_xyz
  1  'x, y, z'
loop_
 _atom_site_type_symbol
 _atom_site_label
 _atom_site_symmetry_multiplicity
 _atom_site_fract_x
 _atom_site_fract_y
 _atom_site_fract_z
 _atom_site_occupancy
  Nb  Nb0  1  0.00000000  0.00000000  0.00000000  1
  Ga  Ga0  1  0.50000000  0.50000000  0.50000000  1
  Pb  Pb0  1  0.25000000  0.25000000  0.25000000  1
  Pb  Pb1  1  0.75000000  0.75000000  0.75000000  1
  O  O0  1  0.74930200  0.25069800  0.25069800  1
  O  O1  1  0.25069800  0.74930200  0.74930200  1
  O  O2  1  0.25069800  0.74930200  0.25069800  1
  O  O3  1  0.74930200  0.25069800  0.74930200  1
  O  O4  1  0.25069800  0.25069800  0.74930200  1
  O  O5  1  0.74930200  0.74930200  0.25069800  1
loop_
_geom_bond_atom_site_label_1
_geom_bond_atom_site_label_2
_geom_bond_distance
_geom_bond_site_symmetry_2
Nb0 O2 2.017252 1_545
Nb0 O4 2.017252 1_554
Nb0 O0 2.017252 1_455
Nb0 O3 2.017252 1_454
Nb0 O1 2.017252 1_544
Nb0 O5 2.017252 1_445
Ga0 O5 2.006020 1_555
Ga0 O3 2.006020 1_555
Ga0 O1 2.006020 1_555
Ga0 O2 2.006020 1_555
Ga0 O4 2.006020 1_555
Ga0 O0 2.006020 1_555
O0 Pb0 2.844888 1_555
O0 Pb1 2.844888 1_545
O0 Pb1 2.844888 1_554
O0 Pb0 2.844888 1_655
O1 Pb1 2.844888 1_455
O1 Pb0 2.844888 1_556
O1 Pb0 2.844888 1_565
O1 Pb1 2.844888 1_555
O2 Pb0 2.844888 1_555
O2 Pb1 2.844888 1_455
O2 Pb1 2.844888 1_554
O2 Pb0 2.844888 1_565
O3 Pb1 2.844888 1_545
O3 Pb0 2.844888 1_556
O3 Pb0 2.844888 1_655
O3 Pb1 2.844888 1_555
O4 Pb0 2.844888 1_555
O4 Pb1 2.844888 1_545
O4 Pb1 2.844888 1_455
O4 Pb0 2.844888 1_556
O5 Pb1 2.844888 1_554
O5 Pb0 2.844888 1_655
O5 Pb0 2.844888 1_565
O5 Pb1 2.844888 1_555
