# generated using pymatgen
data_TbCrTeO6
_symmetry_space_group_name_H-M   'P 1'
_cell_length_a   5.43760966
_cell_length_b   5.43760966
_cell_length_c   8.57601900
_cell_angle_alpha   90.00000000
_cell_angle_beta   90.00000000
_cell_angle_gamma   119.99999583
_symmetry_Int_Tables_number   1
_chemical_formula_structural   TbCrTeO6
_chemical_formula_sum   'Tb2 Cr2 Te2 O12'
_cell_volume   219.60005316
_cell_formula_units_Z   2
loop_
 _symmetry_equiv_pos_site_id
 _symmetry_equiv_pos_as_xyz
  1  'x, y, z'
loop_
 _atom_site_type_symbol
 _atom_site_label
 _atom_site_symmetry_multiplicity
 _atom_site_fract_x
 _atom_site_fract_y
 _atom_site_fract_z
 _atom_site_occupancy
  Tb  Tb0  1  0.33333300  0.66666700  0.75000000  1
  Tb  Tb1  1  0.66666700  0.33333300  0.25000000  1
  Cr  Cr0  1  0.00000000  0.00000000  0.00000000  1
  Cr  Cr1  1  0.00000000  0.00000000  0.50000000  1
  Te  Te0  1  0.66666700  0.33333300  0.75000000  1
  Te  Te1  1  0.33333300  0.66666700  0.25000000  1
  O  O0  1  0.95501300  0.30908300  0.87729000  1
  O  O1  1  0.04498700  0.69091700  0.12271000  1
  O  O2  1  0.35407000  0.04498700  0.87729000  1
  O  O3  1  0.35407000  0.30908300  0.62271000  1
  O  O4  1  0.64593000  0.95501300  0.12271000  1
  O  O5  1  0.64593000  0.69091700  0.37729000  1
  O  O6  1  0.69091700  0.64593000  0.87729000  1
  O  O7  1  0.69091700  0.04498700  0.62271000  1
  O  O8  1  0.30908300  0.35407000  0.12271000  1
  O  O9  1  0.30908300  0.95501300  0.37729000  1
  O  O10  1  0.95501300  0.64593000  0.62271000  1
  O  O11  1  0.04498700  0.35407000  0.37729000  1
loop_
_geom_bond_atom_site_label_1
_geom_bond_atom_site_label_2
_geom_bond_distance
_geom_bond_site_symmetry_2
Cr0 O1 2.098356 1_545
Cr0 O0 2.098356 1_454
Cr0 O2 2.098356 1_554
Cr0 O4 2.098356 1_445
Cr0 O6 2.098356 1_444
Cr0 O8 2.098356 1_555
Cr1 O7 2.098356 1_455
Cr1 O9 2.098356 1_545
Cr1 O10 2.098356 1_445
Cr1 O11 2.098356 1_555
Cr1 O5 2.098356 1_445
Cr1 O3 2.098356 1_555
O0 Te0 1.968291 1_555
O0 Tb0 2.281301 1_655
O1 Te1 1.968291 1_555
O1 Tb1 2.281301 1_455
O2 Te0 1.968293 1_555
O2 Tb0 2.281299 1_545
O3 Te0 1.968295 1_555
O3 Tb0 2.281304 1_555
O4 Te1 1.968293 1_555
O4 Tb1 2.281299 1_565
O5 Te1 1.968295 1_555
O5 Tb1 2.281304 1_555
O6 Te0 1.968295 1_555
O6 Tb0 2.281304 1_555
O7 Te0 1.968291 1_555
O7 Tb0 2.281301 1_545
O8 Te1 1.968295 1_555
O8 Tb1 2.281304 1_555
O9 Te1 1.968291 1_555
O9 Tb1 2.281301 1_565
O10 Te0 1.968293 1_555
O10 Tb0 2.281299 1_655
O11 Te1 1.968293 1_555
O11 Tb1 2.281299 1_455
