# generated using pymatgen
data_Ag3Pb
_symmetry_space_group_name_H-M   'P 1'
_cell_length_a   6.49347031
_cell_length_b   6.49347031
_cell_length_c   18.97966200
_cell_angle_alpha   90.00000000
_cell_angle_beta   90.00000000
_cell_angle_gamma   119.98531058
_symmetry_Int_Tables_number   1
_chemical_formula_structural   Ag3Pb
_chemical_formula_sum   'Ag24 Pb8'
_cell_volume   693.16573898
_cell_formula_units_Z   8
loop_
 _symmetry_equiv_pos_site_id
 _symmetry_equiv_pos_as_xyz
  1  'x, y, z'
loop_
 _atom_site_type_symbol
 _atom_site_label
 _atom_site_symmetry_multiplicity
 _atom_site_fract_x
 _atom_site_fract_y
 _atom_site_fract_z
 _atom_site_occupancy
  Ag  Ag0_0  1  0.33340200  0.16659800  0.43750000  1
  Ag  Ag0_1  1  0.33340200  0.16659800  0.93750000  1
  Ag  Ag0_2  1  0.33340200  0.66659800  0.43750000  1
  Ag  Ag0_3  1  0.33340200  0.66659800  0.93750000  1
  Ag  Ag0_4  1  0.83340200  0.16659800  0.43750000  1
  Ag  Ag0_5  1  0.83340200  0.16659800  0.93750000  1
  Ag  Ag0_6  1  0.83340200  0.66659800  0.43750000  1
  Ag  Ag0_7  1  0.83340200  0.66659800  0.93750000  1
  Ag  Ag1_0  1  0.16663600  0.33336400  0.05357700  1
  Ag  Ag1_1  1  0.16663600  0.33336400  0.55357700  1
  Ag  Ag1_2  1  0.16663600  0.83336400  0.05357700  1
  Ag  Ag1_3  1  0.16663600  0.83336400  0.55357700  1
  Ag  Ag1_4  1  0.66663600  0.33336400  0.05357700  1
  Ag  Ag1_5  1  0.66663600  0.33336400  0.55357700  1
  Ag  Ag1_6  1  0.66663600  0.83336400  0.05357700  1
  Ag  Ag1_7  1  0.66663600  0.83336400  0.55357700  1
  Ag  Ag2_0  1  0.16663600  0.33336400  0.32142300  1
  Ag  Ag2_1  1  0.16663600  0.33336400  0.82142300  1
  Ag  Ag2_2  1  0.16663600  0.83336400  0.32142300  1
  Ag  Ag2_3  1  0.16663600  0.83336400  0.82142300  1
  Ag  Ag2_4  1  0.66663600  0.33336400  0.32142300  1
  Ag  Ag2_5  1  0.66663600  0.33336400  0.82142300  1
  Ag  Ag2_6  1  0.66663600  0.83336400  0.32142300  1
  Ag  Ag2_7  1  0.66663600  0.83336400  0.82142300  1
  Pb  Pb0_0  1  0.33332600  0.16667400  0.18750000  1
  Pb  Pb0_1  1  0.33332600  0.16667400  0.68750000  1
  Pb  Pb0_2  1  0.33332600  0.66667400  0.18750000  1
  Pb  Pb0_3  1  0.33332600  0.66667400  0.68750000  1
  Pb  Pb0_4  1  0.83332600  0.16667400  0.18750000  1
  Pb  Pb0_5  1  0.83332600  0.16667400  0.68750000  1
  Pb  Pb0_6  1  0.83332600  0.66667400  0.18750000  1
  Pb  Pb0_7  1  0.83332600  0.66667400  0.68750000  1
loop_
_geom_bond_atom_site_label_1
_geom_bond_atom_site_label_2
_geom_bond_distance
_geom_bond_site_symmetry_2
Ag0_0 Ag1_3 2.892468 1_545
Ag0_0 Ag2_4 2.892468 1_555
Ag0_0 Ag1_5 2.892468 1_555
Ag0_0 Ag2_2 2.892468 1_545
Ag0_0 Ag2_0 2.893284 1_555
Ag0_0 Ag1_1 2.893284 1_555
Ag0_0 Ag0_2 3.246735 1_545
Ag0_0 Ag0_2 3.246735 1_555
Ag0_0 Ag0_4 3.246735 1_555
Ag0_0 Ag0_4 3.246735 1_455
Ag0_0 Ag0_6 3.247456 1_445
Ag0_0 Ag0_6 3.247456 1_555
Ag0_1 Ag2_5 2.892468 1_555
Ag0_1 Ag2_3 2.892468 1_545
Ag0_1 Ag1_2 2.892468 1_546
Ag0_1 Ag1_4 2.892468 1_556
Ag0_1 Ag2_1 2.893284 1_555
Ag0_1 Ag1_0 2.893284 1_556
Ag0_1 Ag0_5 3.246735 1_455
Ag0_1 Ag0_3 3.246735 1_545
Ag0_1 Ag0_3 3.246735 1_555
Ag0_1 Ag0_5 3.246735 1_555
Ag0_1 Ag0_7 3.247456 1_555
Ag0_1 Ag0_7 3.247456 1_445
Ag0_2 Ag1_7 2.892468 1_555
Ag0_2 Ag2_0 2.892468 1_555
Ag0_2 Ag2_6 2.892468 1_555
Ag0_2 Ag1_1 2.892468 1_555
Ag0_2 Ag2_2 2.893284 1_555
Ag0_2 Ag1_3 2.893284 1_555
Ag0_2 Ag0_6 3.246735 1_455
Ag0_2 Ag0_6 3.246735 1_555
Ag0_2 Ag0_4 3.247456 1_565
Ag0_2 Ag0_4 3.247456 1_455
Ag0_3 Ag2_7 2.892468 1_555
Ag0_3 Ag2_1 2.892468 1_555
Ag0_3 Ag1_0 2.892468 1_556
Ag0_3 Ag1_6 2.892468 1_556
Ag0_3 Ag2_3 2.893284 1_555
Ag0_3 Ag1_2 2.893284 1_556
Ag0_3 Ag0_7 3.246735 1_555
Ag0_3 Ag0_7 3.246735 1_455
Ag0_3 Ag0_5 3.247456 1_455
Ag0_3 Ag0_5 3.247456 1_565
Ag0_4 Ag1_7 2.892468 1_545
Ag0_4 Ag1_1 2.892468 1_655
Ag0_4 Ag2_6 2.892468 1_545
Ag0_4 Ag2_0 2.892468 1_655
Ag0_4 Ag2_4 2.893284 1_555
Ag0_4 Ag1_5 2.893284 1_555
Ag0_4 Ag0_6 3.246735 1_545
Ag0_4 Ag0_6 3.246735 1_555
Ag0_5 Ag2_1 2.892468 1_655
Ag0_5 Ag2_7 2.892468 1_545
Ag0_5 Ag1_0 2.892468 1_656
Ag0_5 Ag1_6 2.892468 1_546
Ag0_5 Ag2_5 2.893284 1_555
Ag0_5 Ag1_4 2.893284 1_556
Ag0_5 Ag0_7 3.246735 1_555
Ag0_5 Ag0_7 3.246735 1_545
Ag0_6 Ag2_2 2.892468 1_655
Ag0_6 Ag2_4 2.892468 1_555
Ag0_6 Ag1_3 2.892468 1_655
Ag0_6 Ag1_5 2.892468 1_555
Ag0_6 Ag1_7 2.893284 1_555
Ag0_6 Ag2_6 2.893284 1_555
Ag0_7 Ag2_5 2.892468 1_555
Ag0_7 Ag2_3 2.892468 1_655
Ag0_7 Ag1_4 2.892468 1_556
Ag0_7 Ag1_2 2.892468 1_656
Ag0_7 Ag2_7 2.893284 1_555
Ag0_7 Ag1_6 2.893284 1_556
Ag1_0 Pb0_0 3.158329 1_555
Ag1_0 Pb0_2 3.158342 1_555
Ag1_0 Pb0_4 3.158342 1_455
Ag1_0 Ag1_4 3.246735 1_455
Ag1_0 Ag1_2 3.246735 1_545
Ag1_0 Ag1_2 3.246735 1_555
Ag1_0 Ag1_4 3.246735 1_555
Ag1_0 Ag1_6 3.247456 1_445
Ag1_0 Ag1_6 3.247456 1_555
Ag1_1 Pb0_1 3.158329 1_555
Ag1_1 Pb0_3 3.158342 1_555
Ag1_1 Pb0_5 3.158342 1_455
Ag1_1 Ag1_3 3.246735 1_545
Ag1_1 Ag1_5 3.246735 1_455
Ag1_1 Ag1_3 3.246735 1_555
Ag1_1 Ag1_5 3.246735 1_555
Ag1_1 Ag1_7 3.247456 1_445
Ag1_1 Ag1_7 3.247456 1_555
Ag1_2 Pb0_2 3.158329 1_555
Ag1_2 Pb0_6 3.158342 1_455
Ag1_2 Pb0_0 3.158342 1_565
Ag1_2 Ag1_6 3.246735 1_555
Ag1_2 Ag1_6 3.246735 1_455
Ag1_2 Ag1_4 3.247456 1_565
Ag1_2 Ag1_4 3.247456 1_455
Ag1_3 Pb0_3 3.158329 1_555
Ag1_3 Pb0_7 3.158342 1_455
Ag1_3 Pb0_1 3.158342 1_565
Ag1_3 Ag1_7 3.246735 1_455
Ag1_3 Ag1_7 3.246735 1_555
Ag1_3 Ag1_5 3.247456 1_455
Ag1_3 Ag1_5 3.247456 1_565
Ag1_4 Pb0_4 3.158329 1_555
Ag1_4 Pb0_6 3.158342 1_555
Ag1_4 Pb0_0 3.158342 1_555
Ag1_4 Ag1_6 3.246735 1_555
Ag1_4 Ag1_6 3.246735 1_545
Ag1_5 Pb0_5 3.158329 1_555
Ag1_5 Pb0_7 3.158342 1_555
Ag1_5 Pb0_1 3.158342 1_555
Ag1_5 Ag1_7 3.246735 1_545
Ag1_5 Ag1_7 3.246735 1_555
Ag1_6 Pb0_6 3.158329 1_555
Ag1_6 Pb0_2 3.158342 1_555
Ag1_6 Pb0_4 3.158342 1_565
Ag1_7 Pb0_7 3.158329 1_555
Ag1_7 Pb0_3 3.158342 1_555
Ag1_7 Pb0_5 3.158342 1_565
Ag2_0 Pb0_0 3.158329 1_555
Ag2_0 Pb0_4 3.158342 1_455
Ag2_0 Pb0_2 3.158342 1_555
Ag2_0 Ag2_4 3.246735 1_455
Ag2_0 Ag2_4 3.246735 1_555
Ag2_0 Ag2_2 3.246735 1_555
Ag2_0 Ag2_2 3.246735 1_545
Ag2_0 Ag2_6 3.247456 1_445
Ag2_0 Ag2_6 3.247456 1_555
Ag2_1 Pb0_1 3.158329 1_555
Ag2_1 Pb0_3 3.158342 1_555
Ag2_1 Pb0_5 3.158342 1_455
Ag2_1 Ag2_5 3.246735 1_555
Ag2_1 Ag2_5 3.246735 1_455
Ag2_1 Ag2_3 3.246735 1_545
Ag2_1 Ag2_3 3.246735 1_555
Ag2_1 Ag2_7 3.247456 1_555
Ag2_1 Ag2_7 3.247456 1_445
Ag2_2 Pb0_2 3.158329 1_555
Ag2_2 Pb0_0 3.158342 1_565
Ag2_2 Pb0_6 3.158342 1_455
Ag2_2 Ag2_6 3.246735 1_555
Ag2_2 Ag2_6 3.246735 1_455
Ag2_2 Ag2_4 3.247456 1_565
Ag2_2 Ag2_4 3.247456 1_455
Ag2_3 Pb0_3 3.158329 1_555
Ag2_3 Pb0_7 3.158342 1_455
Ag2_3 Pb0_1 3.158342 1_565
Ag2_3 Ag2_7 3.246735 1_555
Ag2_3 Ag2_7 3.246735 1_455
Ag2_3 Ag2_5 3.247456 1_455
Ag2_3 Ag2_5 3.247456 1_565
Ag2_4 Pb0_4 3.158329 1_555
Ag2_4 Pb0_6 3.158342 1_555
Ag2_4 Pb0_0 3.158342 1_555
Ag2_4 Ag2_6 3.246735 1_555
Ag2_4 Ag2_6 3.246735 1_545
Ag2_5 Pb0_5 3.158329 1_555
Ag2_5 Pb0_7 3.158342 1_555
Ag2_5 Pb0_1 3.158342 1_555
Ag2_5 Ag2_7 3.246735 1_555
Ag2_5 Ag2_7 3.246735 1_545
Ag2_6 Pb0_6 3.158329 1_555
Ag2_6 Pb0_4 3.158342 1_565
Ag2_6 Pb0_2 3.158342 1_555
Ag2_7 Pb0_7 3.158329 1_555
Ag2_7 Pb0_3 3.158342 1_555
Ag2_7 Pb0_5 3.158342 1_565
Pb0_0 Pb0_2 3.246735 1_555
Pb0_0 Pb0_4 3.246735 1_555
Pb0_0 Pb0_2 3.246735 1_545
Pb0_0 Pb0_4 3.246735 1_455
Pb0_0 Pb0_6 3.247456 1_445
Pb0_0 Pb0_6 3.247456 1_555
Pb0_1 Pb0_3 3.246735 1_545
Pb0_1 Pb0_5 3.246735 1_555
Pb0_1 Pb0_3 3.246735 1_555
Pb0_1 Pb0_5 3.246735 1_455
Pb0_1 Pb0_7 3.247456 1_555
Pb0_1 Pb0_7 3.247456 1_445
Pb0_2 Pb0_6 3.246735 1_555
Pb0_2 Pb0_6 3.246735 1_455
Pb0_2 Pb0_4 3.247456 1_565
Pb0_2 Pb0_4 3.247456 1_455
Pb0_3 Pb0_7 3.246735 1_555
Pb0_3 Pb0_7 3.246735 1_455
Pb0_3 Pb0_5 3.247456 1_455
Pb0_3 Pb0_5 3.247456 1_565
Pb0_4 Pb0_6 3.246735 1_555
Pb0_4 Pb0_6 3.246735 1_545
Pb0_5 Pb0_7 3.246735 1_545
Pb0_5 Pb0_7 3.246735 1_555
