# generated using pymatgen
data_K2TcF6
_symmetry_space_group_name_H-M   'P 1'
_cell_length_a   5.78217866
_cell_length_b   5.78217730
_cell_length_c   4.55012627
_cell_angle_alpha   89.99997970
_cell_angle_beta   90.00002030
_cell_angle_gamma   120.00006579
_symmetry_Int_Tables_number   1
_chemical_formula_structural   K2TcF6
_chemical_formula_sum   'K2 Tc1 F6'
_cell_volume   131.74577714
_cell_formula_units_Z   1
loop_
 _symmetry_equiv_pos_site_id
 _symmetry_equiv_pos_as_xyz
  1  'x, y, z'
loop_
 _atom_site_type_symbol
 _atom_site_label
 _atom_site_symmetry_multiplicity
 _atom_site_fract_x
 _atom_site_fract_y
 _atom_site_fract_z
 _atom_site_occupancy
  K  K0  1  0.33333300  0.66666700  0.70631826  1
  K  K1  1  0.66666700  0.33333300  0.29368174  1
  Tc  Tc0  1  0.00000000  0.00000000  0.00000000  1
  F  F0  1  0.32636089  0.16318045  0.76878444  1
  F  F1  1  0.83681955  0.67363911  0.76878444  1
  F  F2  1  0.83681955  0.16318045  0.76878444  1
  F  F3  1  0.67363911  0.83681955  0.23121556  1
  F  F4  1  0.16318045  0.32636089  0.23121556  1
  F  F5  1  0.16318045  0.83681955  0.23121556  1
loop_
_geom_bond_atom_site_label_1
_geom_bond_atom_site_label_2
_geom_bond_distance
_geom_bond_site_symmetry_2
F0 Tc0 1.943611 1_556
F0 K1 2.752670 1_555
F0 K0 2.905234 1_545
F0 K0 2.905239 1_555
F0 K1 2.933960 1_556
F1 Tc0 1.943610 1_666
F1 K1 2.752670 1_555
F1 K0 2.905234 1_655
F1 K0 2.905240 1_555
F1 K1 2.933959 1_556
F2 Tc0 1.943611 1_656
F2 K1 2.752667 1_555
F2 K0 2.905234 1_655
F2 K0 2.905234 1_545
F2 K1 2.933958 1_556
F3 Tc0 1.943611 1_665
F3 K0 2.752670 1_555
F3 K1 2.905234 1_565
F3 K1 2.905239 1_555
F3 K0 2.933960 1_554
F4 Tc0 1.943610 1_555
F4 K0 2.752670 1_555
F4 K1 2.905234 1_455
F4 K1 2.905240 1_555
F4 K0 2.933959 1_554
F5 Tc0 1.943611 1_565
F5 K0 2.752667 1_555
F5 K1 2.905234 1_455
F5 K1 2.905234 1_565
F5 K0 2.933958 1_554
