# generated using pymatgen
data_Sr6MgMo3O14
_symmetry_space_group_name_H-M   'P 1'
_cell_length_a   10.84216331
_cell_length_b   10.84216331
_cell_length_c   5.67492400
_cell_angle_alpha   90.00000000
_cell_angle_beta   90.00000000
_cell_angle_gamma   149.38009756
_symmetry_Int_Tables_number   1
_chemical_formula_structural   Sr6MgMo3O14
_chemical_formula_sum   'Sr6 Mg1 Mo3 O14'
_cell_volume   339.78174514
_cell_formula_units_Z   1
loop_
 _symmetry_equiv_pos_site_id
 _symmetry_equiv_pos_as_xyz
  1  'x, y, z'
loop_
 _atom_site_type_symbol
 _atom_site_label
 _atom_site_symmetry_multiplicity
 _atom_site_fract_x
 _atom_site_fract_y
 _atom_site_fract_z
 _atom_site_occupancy
  Sr  Sr0  1  0.49831400  0.50168600  0.00000000  1
  Sr  Sr1  1  0.99794900  0.00205100  0.50000000  1
  Sr  Sr2  1  0.68566100  0.31433900  0.00000000  1
  Sr  Sr3  1  0.18912500  0.81087500  0.50000000  1
  Sr  Sr4  1  0.81433600  0.18566400  0.50000000  1
  Sr  Sr5  1  0.31529100  0.68470900  0.00000000  1
  Mg  Mg0  1  0.40092500  0.59907500  0.50000000  1
  Mo  Mo0  1  0.90151200  0.09848800  0.00000000  1
  Mo  Mo1  1  0.09988400  0.90011600  0.00000000  1
  Mo  Mo2  1  0.59687600  0.40312400  0.50000000  1
  O  O0  1  0.66390400  0.85869600  0.76068100  1
  O  O1  1  0.14130400  0.33609600  0.23931900  1
  O  O2  1  0.14130400  0.33609600  0.76068100  1
  O  O3  1  0.66390400  0.85869600  0.23931900  1
  O  O4  1  0.84221100  0.64812200  0.75299600  1
  O  O5  1  0.35187800  0.15778900  0.24700400  1
  O  O6  1  0.35187800  0.15778900  0.75299600  1
  O  O7  1  0.84221100  0.64812200  0.24700400  1
  O  O8  1  0.80652800  0.19347200  0.00000000  1
  O  O9  1  0.30226800  0.69773200  0.50000000  1
  O  O10  1  0.69962100  0.30037900  0.50000000  1
  O  O11  1  0.19704200  0.80295800  0.00000000  1
  O  O12  1  0.49811400  0.50188600  0.50000000  1
  O  O13  1  0.99796200  0.00203800  0.00000000  1
loop_
_geom_bond_atom_site_label_1
_geom_bond_atom_site_label_2
_geom_bond_distance
_geom_bond_site_symmetry_2
Mg0 O12 2.032687 1_555
Mg0 O9 2.063390 1_555
Mg0 O0 2.104272 1_555
Mg0 O2 2.104272 1_555
Mg0 O3 2.104272 1_555
Mg0 O1 2.104272 1_555
Mo0 O3 1.926872 1_545
Mo0 O1 1.926872 1_655
Mo0 O0 1.926872 1_544
Mo0 O2 1.926872 1_654
Mo0 O8 1.986570 1_555
Mo0 O13 2.017231 1_555
Mo1 O5 2.024161 1_565
Mo1 O6 2.024161 1_564
Mo1 O7 2.024161 1_455
Mo1 O4 2.024161 1_454
Mo1 O11 2.032039 1_555
Mo1 O13 2.131677 1_465
Mo2 O7 2.007921 1_555
Mo2 O4 2.007921 1_555
Mo2 O5 2.007921 1_555
Mo2 O6 2.007921 1_555
Mo2 O12 2.065586 1_555
Mo2 O10 2.148889 1_555
O0 Sr5 2.723511 1_556
O0 Sr4 2.732106 1_565
O0 Sr1 2.834221 1_565
O0 Sr0 2.844252 1_556
O1 Sr5 2.723511 1_555
O1 Sr4 2.732106 1_455
O1 Sr1 2.834221 1_455
O1 Sr0 2.844252 1_555
O2 Sr5 2.723511 1_556
O2 Sr4 2.732106 1_455
O2 Sr1 2.834221 1_455
O2 Sr0 2.844252 1_556
O3 Sr5 2.723511 1_555
O3 Sr4 2.732106 1_565
O3 Sr1 2.834221 1_565
O3 Sr0 2.844252 1_555
O4 Sr2 2.714834 1_556
O4 Sr3 2.810527 1_655
O4 Sr0 2.863420 1_556
O4 Sr1 2.913022 1_565
O5 Sr2 2.714834 1_555
O5 Sr3 2.810527 1_545
O5 Sr0 2.863420 1_555
O5 Sr1 2.913022 1_455
O6 Sr2 2.714834 1_556
O6 Sr3 2.810527 1_545
O6 Sr0 2.863420 1_556
O6 Sr1 2.913022 1_455
O7 Sr2 2.714834 1_555
O7 Sr3 2.810527 1_655
O7 Sr0 2.863420 1_555
O7 Sr1 2.913022 1_565
O8 Sr2 2.527907 1_555
O8 Sr4 2.842157 1_555
O8 Sr4 2.842157 1_554
O8 Sr5 2.868632 1_545
O8 Sr5 2.868632 1_655
O9 Sr3 2.366361 1_555
O9 Sr5 2.850505 1_555
O9 Sr5 2.850505 1_556
O9 Sr4 2.873876 1_565
O9 Sr4 2.873876 1_455
O10 Sr4 2.399239 1_555
O10 Sr2 2.852444 1_556
O10 Sr2 2.852444 1_555
O10 Sr3 2.871175 1_545
O10 Sr3 2.871175 1_655
O11 Sr5 2.473152 1_555
O11 Sr3 2.842289 1_555
O11 Sr3 2.842289 1_554
O11 Sr2 2.872650 1_565
O11 Sr2 2.872650 1_455
O12 Sr0 2.837465 1_555
O12 Sr0 2.837465 1_556
O12 Sr1 2.862773 1_455
O12 Sr1 2.862773 1_565
O13 Sr1 2.837462 1_554
O13 Sr1 2.837462 1_555
O13 Sr0 2.862780 1_545
O13 Sr0 2.862780 1_655
