# generated using pymatgen
data_Ca11(CrN5)2
_symmetry_space_group_name_H-M   'P 1'
_cell_length_a   15.18251600
_cell_length_b   15.18251600
_cell_length_c   3.57299700
_cell_angle_alpha   90.00000000
_cell_angle_beta   90.00000000
_cell_angle_gamma   90.00000000
_symmetry_Int_Tables_number   1
_chemical_formula_structural   Ca11(CrN5)2
_chemical_formula_sum   'Ca22 Cr4 N20'
_cell_volume   823.60722261
_cell_formula_units_Z   2
loop_
 _symmetry_equiv_pos_site_id
 _symmetry_equiv_pos_as_xyz
  1  'x, y, z'
loop_
 _atom_site_type_symbol
 _atom_site_label
 _atom_site_symmetry_multiplicity
 _atom_site_fract_x
 _atom_site_fract_y
 _atom_site_fract_z
 _atom_site_occupancy
  Ca  Ca0  1  0.50000000  0.50000000  0.50000000  1
  Ca  Ca1  1  0.00000000  0.00000000  0.00000000  1
  Ca  Ca2  1  0.97295000  0.80006500  0.50000000  1
  Ca  Ca3  1  0.02705000  0.19993500  0.50000000  1
  Ca  Ca4  1  0.52705000  0.30006500  0.00000000  1
  Ca  Ca5  1  0.47295000  0.69993500  0.00000000  1
  Ca  Ca6  1  0.80006500  0.97295000  0.50000000  1
  Ca  Ca7  1  0.19993500  0.02705000  0.50000000  1
  Ca  Ca8  1  0.30006500  0.52705000  0.00000000  1
  Ca  Ca9  1  0.69993500  0.47295000  0.00000000  1
  Ca  Ca10  1  0.65705300  0.65705300  0.50000000  1
  Ca  Ca11  1  0.34294700  0.34294700  0.50000000  1
  Ca  Ca12  1  0.84294700  0.15705300  0.00000000  1
  Ca  Ca13  1  0.15705300  0.84294700  0.00000000  1
  Ca  Ca14  1  0.37288000  0.90353200  0.50000000  1
  Ca  Ca15  1  0.62712000  0.09646800  0.50000000  1
  Ca  Ca16  1  0.12712000  0.40353200  0.00000000  1
  Ca  Ca17  1  0.87288000  0.59646800  0.00000000  1
  Ca  Ca18  1  0.90353200  0.37288000  0.50000000  1
  Ca  Ca19  1  0.09646800  0.62712000  0.50000000  1
  Ca  Ca20  1  0.40353200  0.12712000  0.00000000  1
  Ca  Ca21  1  0.59646800  0.87288000  0.00000000  1
  Cr  Cr0  1  0.30308700  0.69691300  0.50000000  1
  Cr  Cr1  1  0.69691300  0.30308700  0.50000000  1
  Cr  Cr2  1  0.19691300  0.19691300  0.00000000  1
  Cr  Cr3  1  0.80308700  0.80308700  0.00000000  1
  N  N0  1  0.08124400  0.91875600  0.50000000  1
  N  N1  1  0.91875600  0.08124400  0.50000000  1
  N  N2  1  0.41875600  0.41875600  0.00000000  1
  N  N3  1  0.58124400  0.58124400  0.00000000  1
  N  N4  1  0.49131300  0.18732200  0.50000000  1
  N  N5  1  0.50868700  0.81267800  0.50000000  1
  N  N6  1  0.00868700  0.68732200  0.00000000  1
  N  N7  1  0.99131300  0.31267800  0.00000000  1
  N  N8  1  0.18732200  0.49131300  0.50000000  1
  N  N9  1  0.81267800  0.50868700  0.50000000  1
  N  N10  1  0.68732200  0.00868700  0.00000000  1
  N  N11  1  0.31267800  0.99131300  0.00000000  1
  N  N12  1  0.22312100  0.77687900  0.50000000  1
  N  N13  1  0.77687900  0.22312100  0.50000000  1
  N  N14  1  0.27687900  0.27687900  0.00000000  1
  N  N15  1  0.72312100  0.72312100  0.00000000  1
  N  N16  1  0.38461500  0.61538500  0.50000000  1
  N  N17  1  0.61538500  0.38461500  0.50000000  1
  N  N18  1  0.11538500  0.11538500  0.00000000  1
  N  N19  1  0.88461500  0.88461500  0.00000000  1
loop_
_geom_bond_atom_site_label_1
_geom_bond_atom_site_label_2
_geom_bond_distance
_geom_bond_site_symmetry_2
Ca0 N16 2.477468 1_555
Ca0 N17 2.477468 1_555
Ca0 N2 2.496911 1_555
Ca0 N3 2.496911 1_555
Ca0 N2 2.496911 1_556
Ca0 N3 2.496911 1_556
Ca1 N19 2.477468 1_445
Ca1 N18 2.477468 1_555
Ca1 N1 2.496911 1_454
Ca1 N0 2.496911 1_545
Ca1 N0 2.496911 1_544
Ca1 N1 2.496911 1_455
Ca2 N0 2.439389 1_655
Ca2 N6 2.532975 1_655
Ca2 N6 2.532975 1_656
Ca2 N19 2.576450 1_555
Ca2 N19 2.576450 1_556
Ca3 N1 2.439389 1_455
Ca3 N7 2.532975 1_455
Ca3 N7 2.532975 1_456
Ca3 N18 2.576450 1_556
Ca3 N18 2.576450 1_555
Ca4 N2 2.439389 1_555
Ca4 N4 2.532975 1_554
Ca4 N4 2.532975 1_555
Ca4 N17 2.576450 1_555
Ca4 N17 2.576450 1_554
Ca5 N3 2.439389 1_555
Ca5 N5 2.532975 1_554
Ca5 N5 2.532975 1_555
Ca5 N16 2.576450 1_554
Ca5 N16 2.576450 1_555
Ca6 N1 2.439389 1_565
Ca6 N10 2.532975 1_566
Ca6 N10 2.532975 1_565
Ca6 N19 2.576450 1_555
Ca6 N19 2.576450 1_556
Ca7 N0 2.439389 1_545
Ca7 N11 2.532975 1_545
Ca7 N11 2.532975 1_546
Ca7 N18 2.576450 1_556
Ca7 N18 2.576450 1_555
Ca8 N2 2.439389 1_555
Ca8 N8 2.532975 1_555
Ca8 N8 2.532975 1_554
Ca8 N16 2.576450 1_555
Ca8 N16 2.576450 1_554
Ca9 N3 2.439389 1_555
Ca9 N9 2.532975 1_554
Ca9 N9 2.532975 1_555
Ca9 N17 2.576450 1_555
Ca9 N17 2.576450 1_554
Ca10 N15 2.281208 1_556
Ca10 N15 2.281208 1_555
Ca10 N3 2.416826 1_555
Ca10 N3 2.416826 1_556
Ca11 N14 2.281208 1_555
Ca11 N14 2.281208 1_556
Ca11 N2 2.416826 1_555
Ca11 N2 2.416826 1_556
Ca12 N13 2.281208 1_555
Ca12 N13 2.281208 1_554
Ca12 N1 2.416826 1_554
Ca12 N1 2.416826 1_555
Ca13 N12 2.281208 1_555
Ca13 N12 2.281208 1_554
Ca13 N0 2.416826 1_554
Ca13 N0 2.416826 1_555
Ca14 N11 2.408982 1_556
Ca14 N11 2.408982 1_555
Ca14 N5 2.480750 1_555
Ca14 N12 2.977815 1_555
Ca15 N10 2.408982 1_556
Ca15 N10 2.408982 1_555
Ca15 N4 2.480750 1_555
Ca15 N13 2.977815 1_555
Ca16 N8 2.408982 1_554
Ca16 N8 2.408982 1_555
Ca16 N7 2.480750 1_455
Ca16 N14 2.977815 1_555
Ca17 N9 2.408982 1_555
Ca17 N9 2.408982 1_554
Ca17 N6 2.480750 1_655
Ca17 N15 2.977815 1_555
Ca18 N7 2.408982 1_555
Ca18 N7 2.408982 1_556
Ca18 N9 2.480750 1_555
Ca18 N13 2.977815 1_555
Ca19 N6 2.408982 1_556
Ca19 N6 2.408982 1_555
Ca19 N8 2.480750 1_555
Ca19 N12 2.977815 1_555
Ca20 N4 2.408982 1_555
Ca20 N4 2.408982 1_554
Ca20 N11 2.480750 1_545
Ca20 N14 2.977815 1_555
Ca21 N5 2.408982 1_554
Ca21 N5 2.408982 1_555
Ca21 N10 2.480750 1_565
Ca21 N15 2.977815 1_555
Cr0 N12 1.716976 1_555
Cr0 N16 1.750514 1_555
Cr1 N13 1.716976 1_555
Cr1 N17 1.750514 1_555
Cr2 N14 1.716976 1_555
Cr2 N18 1.750514 1_555
Cr3 N15 1.716976 1_555
Cr3 N19 1.750514 1_555
