# generated using pymatgen
data_BaCrO4
_symmetry_space_group_name_H-M   'P 1'
_cell_length_a   5.53654833
_cell_length_b   7.36427117
_cell_length_c   9.15309800
_cell_angle_alpha   90.00000000
_cell_angle_beta   90.00000000
_cell_angle_gamma   90.00000000
_symmetry_Int_Tables_number   1
_chemical_formula_structural   BaCrO4
_chemical_formula_sum   'Ba4 Cr4 O16'
_cell_volume   373.19599937
_cell_formula_units_Z   4
loop_
 _symmetry_equiv_pos_site_id
 _symmetry_equiv_pos_as_xyz
  1  'x, y, z'
loop_
 _atom_site_type_symbol
 _atom_site_label
 _atom_site_symmetry_multiplicity
 _atom_site_fract_x
 _atom_site_fract_y
 _atom_site_fract_z
 _atom_site_occupancy
  Ba  Ba0  1  0.25000000  0.34507912  0.68385092  1
  Ba  Ba1  1  0.75000000  0.65492088  0.31614908  1
  Ba  Ba2  1  0.75000000  0.84507912  0.81614908  1
  Ba  Ba3  1  0.25000000  0.15492088  0.18385092  1
  Cr  Cr0  1  0.25000000  0.69431292  0.05729543  1
  Cr  Cr1  1  0.75000000  0.30568708  0.94270457  1
  Cr  Cr2  1  0.75000000  0.19431292  0.44270457  1
  Cr  Cr3  1  0.25000000  0.80568708  0.55729543  1
  O  O0  1  0.50831377  0.17742122  0.91827594  1
  O  O1  1  0.00831377  0.82257878  0.08172406  1
  O  O2  1  0.49168623  0.67742122  0.58172406  1
  O  O3  1  0.99168623  0.32257878  0.41827594  1
  O  O4  1  0.49168623  0.82257878  0.08172406  1
  O  O5  1  0.99168623  0.17742122  0.91827594  1
  O  O6  1  0.50831377  0.32257878  0.41827594  1
  O  O7  1  0.00831377  0.67742122  0.58172406  1
  O  O8  1  0.25000000  0.88318849  0.38952141  1
  O  O9  1  0.75000000  0.11681151  0.61047859  1
  O  O10  1  0.75000000  0.38318849  0.11047859  1
  O  O11  1  0.25000000  0.61681151  0.88952141  1
  O  O12  1  0.25000000  0.96756917  0.68044774  1
  O  O13  1  0.75000000  0.03243083  0.31955226  1
  O  O14  1  0.75000000  0.46756917  0.81955226  1
  O  O15  1  0.25000000  0.53243083  0.18044774  1
loop_
_geom_bond_atom_site_label_1
_geom_bond_atom_site_label_2
_geom_bond_distance
_geom_bond_site_symmetry_2
Ba0 O11 2.747423 1_555
Ba0 O12 2.780260 1_545
Ba0 O6 2.825205 1_555
Ba0 O3 2.825205 1_455
Ba0 O0 2.859003 1_555
Ba0 O5 2.859003 1_455
Ba0 O2 2.941834 1_555
Ba0 O7 2.941834 1_555
Ba0 O14 3.165410 1_555
Ba0 O14 3.165410 1_455
Ba0 O9 3.307599 1_555
Ba0 O9 3.307599 1_455
Ba1 O10 2.747423 1_555
Ba1 O13 2.780260 1_565
Ba1 O7 2.825205 1_655
Ba1 O2 2.825205 1_555
Ba1 O4 2.859003 1_555
Ba1 O1 2.859003 1_655
Ba1 O3 2.941834 1_555
Ba1 O6 2.941834 1_555
Ba1 O15 3.165410 1_555
Ba1 O15 3.165410 1_655
Ba1 O8 3.307599 1_555
Ba1 O8 3.307599 1_655
Ba2 O9 2.747423 1_565
Ba2 O14 2.780260 1_555
Ba2 O4 2.825205 1_556
Ba2 O1 2.825205 1_656
Ba2 O2 2.859003 1_555
Ba2 O7 2.859003 1_655
Ba2 O0 2.941834 1_565
Ba2 O5 2.941834 1_565
Ba2 O12 3.165410 1_555
Ba2 O12 3.165410 1_655
Ba2 O11 3.307599 1_555
Ba2 O11 3.307599 1_655
Ba3 O8 2.747423 1_545
Ba3 O15 2.780260 1_555
Ba3 O5 2.825205 1_454
Ba3 O0 2.825205 1_554
Ba3 O6 2.859003 1_555
Ba3 O3 2.859003 1_455
Ba3 O1 2.941834 1_545
Ba3 O4 2.941834 1_545
Ba3 O13 3.165410 1_455
Ba3 O13 3.165410 1_555
Ba3 O10 3.307599 1_555
Ba3 O10 3.307599 1_455
Cr0 O11 1.638284 1_554
Cr0 O15 1.640684 1_555
Cr0 O4 1.653108 1_555
Cr0 O1 1.653108 1_555
Cr1 O10 1.638284 1_556
Cr1 O14 1.640684 1_555
Cr1 O0 1.653108 1_555
Cr1 O5 1.653108 1_555
Cr2 O9 1.638284 1_555
Cr2 O13 1.640684 1_555
Cr2 O6 1.653108 1_555
Cr2 O3 1.653108 1_555
Cr3 O8 1.638284 1_555
Cr3 O12 1.640684 1_555
Cr3 O2 1.653108 1_555
Cr3 O7 1.653108 1_555
