# generated using pymatgen
data_Sc4S3N2
_symmetry_space_group_name_H-M   'P 1'
_cell_length_a   6.40041400
_cell_length_b   13.63159600
_cell_length_c   3.55926100
_cell_angle_alpha   90.00000000
_cell_angle_beta   90.00000000
_cell_angle_gamma   90.00000000
_symmetry_Int_Tables_number   1
_chemical_formula_structural   Sc4S3N2
_chemical_formula_sum   'Sc8 S6 N4'
_cell_volume   310.53789789
_cell_formula_units_Z   2
loop_
 _symmetry_equiv_pos_site_id
 _symmetry_equiv_pos_as_xyz
  1  'x, y, z'
loop_
 _atom_site_type_symbol
 _atom_site_label
 _atom_site_symmetry_multiplicity
 _atom_site_fract_x
 _atom_site_fract_y
 _atom_site_fract_z
 _atom_site_occupancy
  Sc  Sc0  1  0.70452600  0.93632200  0.50000000  1
  Sc  Sc1  1  0.29547400  0.06367800  0.50000000  1
  Sc  Sc2  1  0.20452600  0.56367800  0.00000000  1
  Sc  Sc3  1  0.79547400  0.43632200  0.00000000  1
  Sc  Sc4  1  0.79321900  0.65339000  0.50000000  1
  Sc  Sc5  1  0.20678100  0.34661000  0.50000000  1
  Sc  Sc6  1  0.29321900  0.84661000  0.00000000  1
  Sc  Sc7  1  0.70678100  0.15339000  0.00000000  1
  S  S0  1  0.50000000  0.50000000  0.50000000  1
  S  S1  1  0.00000000  0.00000000  0.00000000  1
  S  S2  1  0.81344600  0.29356500  0.50000000  1
  S  S3  1  0.18655400  0.70643500  0.50000000  1
  S  S4  1  0.31344600  0.20643500  0.00000000  1
  S  S5  1  0.68655400  0.79356500  0.00000000  1
  N  N0  1  0.62023800  0.08266300  0.50000000  1
  N  N1  1  0.37976200  0.91733700  0.50000000  1
  N  N2  1  0.12023800  0.41733700  0.00000000  1
  N  N3  1  0.87976200  0.58266300  0.00000000  1
loop_
_geom_bond_atom_site_label_1
_geom_bond_atom_site_label_2
_geom_bond_distance
_geom_bond_site_symmetry_2
S0 Sc3 2.738072 1_555
S0 Sc3 2.738072 1_556
S0 Sc2 2.738072 1_555
S0 Sc2 2.738072 1_556
S0 Sc5 2.809655 1_555
S0 Sc4 2.809655 1_555
S1 Sc1 2.738072 1_554
S1 Sc1 2.738072 1_555
S1 Sc0 2.738072 1_445
S1 Sc0 2.738072 1_444
S1 Sc6 2.809655 1_545
S1 Sc7 2.809655 1_455
S2 Sc5 2.619293 1_655
S2 Sc3 2.639556 1_556
S2 Sc3 2.639556 1_555
S2 Sc7 2.698954 1_556
S2 Sc7 2.698954 1_555
S3 Sc4 2.619293 1_455
S3 Sc2 2.639556 1_555
S3 Sc2 2.639556 1_556
S3 Sc6 2.698954 1_556
S3 Sc6 2.698954 1_555
S4 Sc7 2.619293 1_555
S4 Sc1 2.639556 1_554
S4 Sc1 2.639556 1_555
S4 Sc5 2.698954 1_555
S4 Sc5 2.698954 1_554
S5 Sc6 2.619293 1_555
S5 Sc0 2.639556 1_555
S5 Sc0 2.639556 1_554
S5 Sc4 2.698954 1_555
S5 Sc4 2.698954 1_554
N0 Sc0 2.066521 1_545
N0 Sc1 2.094673 1_555
N0 Sc7 2.098436 1_556
N0 Sc7 2.098436 1_555
N1 Sc1 2.066521 1_565
N1 Sc0 2.094673 1_555
N1 Sc6 2.098436 1_555
N1 Sc6 2.098436 1_556
N2 Sc2 2.066521 1_555
N2 Sc3 2.094673 1_455
N2 Sc5 2.098436 1_555
N2 Sc5 2.098436 1_554
N3 Sc3 2.066521 1_555
N3 Sc2 2.094673 1_655
N3 Sc4 2.098436 1_555
N3 Sc4 2.098436 1_554
