# generated using pymatgen
data_ErAl2
_symmetry_space_group_name_H-M   'P 1'
_cell_length_a   5.49744475
_cell_length_b   5.49744477
_cell_length_c   5.49744410
_cell_angle_alpha   60.00001007
_cell_angle_beta   60.00000990
_cell_angle_gamma   60.00000677
_symmetry_Int_Tables_number   1
_chemical_formula_structural   ErAl2
_chemical_formula_sum   'Er2 Al4'
_cell_volume   117.48100687
_cell_formula_units_Z   2
loop_
 _symmetry_equiv_pos_site_id
 _symmetry_equiv_pos_as_xyz
  1  'x, y, z'
loop_
 _atom_site_type_symbol
 _atom_site_label
 _atom_site_symmetry_multiplicity
 _atom_site_fract_x
 _atom_site_fract_y
 _atom_site_fract_z
 _atom_site_occupancy
  Er  Er0  1  0.12500000  0.12500000  0.12500000  1
  Er  Er1  1  0.87500000  0.87500000  0.87500000  1
  Al  Al0  1  0.50000000  -0.00000000  0.50000000  1
  Al  Al1  1  -0.00000000  0.50000000  0.50000000  1
  Al  Al2  1  0.50000000  0.50000000  0.50000000  1
  Al  Al3  1  0.50000000  0.50000000  0.00000000  1
loop_
_geom_bond_atom_site_label_1
_geom_bond_atom_site_label_2
_geom_bond_distance
_geom_bond_site_symmetry_2
Er0 Er1 3.366483 1_444
Er0 Er1 3.366484 1_445
Er0 Er1 3.366484 1_544
Er0 Er1 3.366484 1_454
Al0 Al2 2.748722 1_555
Al0 Al2 2.748722 1_545
Al0 Al3 2.748723 1_555
Al0 Al3 2.748723 1_546
Al0 Al1 2.748723 1_645
Al0 Al1 2.748723 1_555
Al0 Er0 3.223162 1_555
Al0 Er1 3.223162 1_545
Al0 Er1 3.223163 1_544
Al0 Er0 3.223163 1_556
Al0 Er1 3.223163 1_445
Al0 Er0 3.223163 1_655
Al1 Al2 2.748722 1_455
Al1 Al2 2.748722 1_555
Al1 Al3 2.748723 1_555
Al1 Al3 2.748723 1_456
Al1 Er0 3.223162 1_555
Al1 Er1 3.223162 1_455
Al1 Er1 3.223163 1_454
Al1 Er0 3.223163 1_556
Al1 Er0 3.223163 1_565
Al1 Er1 3.223163 1_445
Al2 Al3 2.748722 1_556
Al2 Al3 2.748722 1_555
Al2 Er0 3.223163 1_655
Al2 Er1 3.223163 1_455
Al2 Er1 3.223163 1_545
Al2 Er0 3.223163 1_565
Al2 Er0 3.223163 1_556
Al2 Er1 3.223163 1_554
Al3 Er0 3.223163 1_555
Al3 Er1 3.223163 1_554
Al3 Er1 3.223163 1_454
Al3 Er0 3.223163 1_655
Al3 Er1 3.223163 1_544
Al3 Er0 3.223163 1_565
