# generated using pymatgen
data_NaMg14FeO16
_symmetry_space_group_name_H-M   'P 1'
_cell_length_a   8.55951755
_cell_length_b   8.55407082
_cell_length_c   4.29057060
_cell_angle_alpha   90.00000000
_cell_angle_beta   90.00000000
_cell_angle_gamma   90.00000000
_symmetry_Int_Tables_number   1
_chemical_formula_structural   NaMg14FeO16
_chemical_formula_sum   'Na1 Mg14 Fe1 O16'
_cell_volume   314.15008443
_cell_formula_units_Z   1
loop_
 _symmetry_equiv_pos_site_id
 _symmetry_equiv_pos_as_xyz
  1  'x, y, z'
loop_
 _atom_site_type_symbol
 _atom_site_label
 _atom_site_symmetry_multiplicity
 _atom_site_fract_x
 _atom_site_fract_y
 _atom_site_fract_z
 _atom_site_occupancy
  Na  Na0  1  0.00000000  0.50000000  0.00000000  1
  Mg  Mg0  1  0.50000000  0.00000000  0.00000000  1
  Mg  Mg1  1  0.50000000  0.50000000  0.00000000  1
  Mg  Mg2  1  0.00000000  0.25810037  0.50000000  1
  Mg  Mg3  1  0.00000000  0.74189963  0.50000000  1
  Mg  Mg4  1  0.50000000  0.25228684  0.50000000  1
  Mg  Mg5  1  0.50000000  0.74771316  0.50000000  1
  Mg  Mg6  1  0.25243328  0.00000000  0.50000000  1
  Mg  Mg7  1  0.24742214  0.50000000  0.50000000  1
  Mg  Mg8  1  0.74756672  0.00000000  0.50000000  1
  Mg  Mg9  1  0.75257786  0.50000000  0.50000000  1
  Mg  Mg10  1  0.25176217  0.25520254  -0.00000000  1
  Mg  Mg11  1  0.25176217  0.74479746  0.00000000  1
  Mg  Mg12  1  0.74823783  0.25520254  -0.00000000  1
  Mg  Mg13  1  0.74823783  0.74479746  -0.00000000  1
  Fe  Fe0  1  0.00000000  0.00000000  0.00000000  1
  O  O0  1  0.24583859  0.00000000  -0.00000000  1
  O  O1  1  0.26382242  0.50000000  0.00000000  1
  O  O2  1  0.75416141  0.00000000  0.00000000  1
  O  O3  1  0.73617758  0.50000000  0.00000000  1
  O  O4  1  0.24920748  0.24791255  0.50000000  1
  O  O5  1  0.24920748  0.75208745  0.50000000  1
  O  O6  1  0.75079252  0.24791255  0.50000000  1
  O  O7  1  0.75079252  0.75208745  0.50000000  1
  O  O8  1  0.00000000  0.00000000  0.50000000  1
  O  O9  1  0.00000000  0.50000000  0.50000000  1
  O  O10  1  0.50000000  0.00000000  0.50000000  1
  O  O11  1  0.50000000  0.50000000  0.50000000  1
  O  O12  1  0.00000000  0.23013697  0.00000000  1
  O  O13  1  0.00000000  0.76986303  0.00000000  1
  O  O14  1  0.50000000  0.24441433  0.00000000  1
  O  O15  1  0.50000000  0.75558567  0.00000000  1
loop_
_geom_bond_atom_site_label_1
_geom_bond_atom_site_label_2
_geom_bond_distance
_geom_bond_site_symmetry_2
Na0 O9 2.145285 1_555
Na0 O9 2.145285 1_554
Na0 O3 2.258193 1_455
Na0 O1 2.258193 1_555
Na0 O12 2.308427 1_555
Na0 O13 2.308427 1_555
Mg0 O15 2.090737 1_545
Mg0 O14 2.090737 1_555
Mg0 O10 2.145285 1_555
Mg0 O10 2.145285 1_554
Mg0 O0 2.175499 1_555
Mg0 O2 2.175499 1_555
Mg1 O3 2.021566 1_555
Mg1 O1 2.021566 1_555
Mg1 O11 2.145285 1_554
Mg1 O11 2.145285 1_555
Mg1 O14 2.186298 1_555
Mg1 O15 2.186298 1_555
Mg2 O9 2.069227 1_555
Mg2 O4 2.134875 1_555
Mg2 O6 2.134875 1_455
Mg2 O12 2.158580 1_555
Mg2 O12 2.158580 1_556
Mg2 O8 2.207809 1_555
Mg3 O9 2.069227 1_555
Mg3 O7 2.134875 1_455
Mg3 O5 2.134875 1_555
Mg3 O13 2.158580 1_555
Mg3 O13 2.158580 1_556
Mg3 O8 2.207809 1_565
Mg4 O11 2.118956 1_555
Mg4 O14 2.146342 1_556
Mg4 O14 2.146342 1_555
Mg4 O4 2.146989 1_555
Mg4 O6 2.146989 1_555
Mg4 O10 2.158079 1_555
Mg5 O11 2.118956 1_555
Mg5 O15 2.146342 1_556
Mg5 O15 2.146342 1_555
Mg5 O5 2.146989 1_555
Mg5 O7 2.146989 1_555
Mg5 O10 2.158079 1_565
Mg6 O10 2.119052 1_555
Mg6 O4 2.120841 1_555
Mg6 O5 2.120841 1_545
Mg6 O0 2.146028 1_555
Mg6 O0 2.146028 1_556
Mg6 O8 2.160707 1_555
Mg7 O9 2.117814 1_555
Mg7 O1 2.149873 1_556
Mg7 O1 2.149873 1_555
Mg7 O4 2.156428 1_555
Mg7 O5 2.156428 1_555
Mg7 O11 2.161945 1_555
Mg8 O10 2.119052 1_555
Mg8 O6 2.120841 1_555
Mg8 O7 2.120841 1_545
Mg8 O2 2.146028 1_556
Mg8 O2 2.146028 1_555
Mg8 O8 2.160707 1_655
Mg9 O9 2.117814 1_655
Mg9 O3 2.149873 1_556
Mg9 O3 2.149873 1_555
Mg9 O6 2.156428 1_555
Mg9 O7 2.156428 1_555
Mg9 O11 2.161945 1_555
Mg10 O1 2.096558 1_555
Mg10 O14 2.126799 1_555
Mg10 O4 2.146303 1_554
Mg10 O4 2.146303 1_555
Mg10 O12 2.165603 1_555
Mg10 O0 2.183609 1_555
Mg11 O1 2.096558 1_555
Mg11 O15 2.126799 1_555
Mg11 O5 2.146303 1_555
Mg11 O5 2.146303 1_554
Mg11 O13 2.165603 1_555
Mg11 O0 2.183609 1_565
Mg12 O3 2.096558 1_555
Mg12 O14 2.126799 1_555
Mg12 O6 2.146303 1_555
Mg12 O6 2.146303 1_554
Mg12 O12 2.165603 1_655
Mg12 O2 2.183609 1_555
Mg13 O3 2.096558 1_555
Mg13 O15 2.126799 1_555
Mg13 O7 2.146303 1_555
Mg13 O7 2.146303 1_554
Mg13 O13 2.165603 1_655
Mg13 O2 2.183609 1_565
Fe0 O13 1.968608 1_545
Fe0 O12 1.968608 1_555
Fe0 O0 2.104260 1_555
Fe0 O2 2.104260 1_455
Fe0 O8 2.145285 1_554
Fe0 O8 2.145285 1_555
