# generated using pymatgen
data_Ca8ZnCo3(Si2O7)4
_symmetry_space_group_name_H-M   'P 1'
_cell_length_a   11.19217200
_cell_length_b   11.19217200
_cell_length_c   5.06234100
_cell_angle_alpha   90.00000000
_cell_angle_beta   90.00000000
_cell_angle_gamma   90.00000000
_symmetry_Int_Tables_number   1
_chemical_formula_structural   Ca8ZnCo3(Si2O7)4
_chemical_formula_sum   'Ca8 Zn1 Co3 Si8 O28'
_cell_volume   634.13269793
_cell_formula_units_Z   1
loop_
 _symmetry_equiv_pos_site_id
 _symmetry_equiv_pos_as_xyz
  1  'x, y, z'
loop_
 _atom_site_type_symbol
 _atom_site_label
 _atom_site_symmetry_multiplicity
 _atom_site_fract_x
 _atom_site_fract_y
 _atom_site_fract_z
 _atom_site_occupancy
  Ca  Ca0  1  0.24995900  0.58095600  0.50377900  1
  Ca  Ca1  1  0.74995500  0.08100100  0.50386500  1
  Ca  Ca2  1  0.41904400  0.24995900  0.49622100  1
  Ca  Ca3  1  0.91899900  0.74995500  0.49613500  1
  Ca  Ca4  1  0.75004100  0.41904400  0.50377900  1
  Ca  Ca5  1  0.25004500  0.91899900  0.50386500  1
  Ca  Ca6  1  0.58095600  0.75004100  0.49622100  1
  Ca  Ca7  1  0.08100100  0.25004500  0.49613500  1
  Zn  Zn0  1  0.50000000  0.50000000  0.00000000  1
  Co  Co0  1  0.00000000  0.00000000  0.00000000  1
  Co  Co1  1  0.00000000  0.50000000  0.99986800  1
  Co  Co2  1  0.50000000  0.00000000  0.00013200  1
  Si  Si0  1  0.25010100  0.39092400  0.93750600  1
  Si  Si1  1  0.74998700  0.89084600  0.93705700  1
  Si  Si2  1  0.60907600  0.25010100  0.06249400  1
  Si  Si3  1  0.10915400  0.74998700  0.06294300  1
  Si  Si4  1  0.74989900  0.60907600  0.93750600  1
  Si  Si5  1  0.25001300  0.10915400  0.93705700  1
  Si  Si6  1  0.39092400  0.74989900  0.06249400  1
  Si  Si7  1  0.89084600  0.25001300  0.06294300  1
  O  O0  1  0.25007100  0.74991100  0.17798100  1
  O  O1  1  0.74992900  0.25008900  0.17798100  1
  O  O2  1  0.74991100  0.74992900  0.82201900  1
  O  O3  1  0.25008900  0.25007100  0.82201900  1
  O  O4  1  0.36558300  0.44858000  0.78185800  1
  O  O5  1  0.86540700  0.94847100  0.78131200  1
  O  O6  1  0.55143100  0.13476900  0.21855500  1
  O  O7  1  0.05153100  0.63456800  0.21868900  1
  O  O8  1  0.63441700  0.55142000  0.78185800  1
  O  O9  1  0.13459300  0.05152900  0.78131200  1
  O  O10  1  0.44856900  0.86523100  0.21855500  1
  O  O11  1  0.94846900  0.36543200  0.21868900  1
  O  O12  1  0.44858000  0.63441700  0.21814200  1
  O  O13  1  0.94847100  0.13459300  0.21868800  1
  O  O14  1  0.86523100  0.55143100  0.78144500  1
  O  O15  1  0.36543200  0.05153100  0.78131100  1
  O  O16  1  0.55142000  0.36558300  0.21814200  1
  O  O17  1  0.05152900  0.86540700  0.21868800  1
  O  O18  1  0.13476900  0.44856900  0.78144500  1
  O  O19  1  0.63456800  0.94846900  0.78131100  1
  O  O20  1  0.24976900  0.39288200  0.25617600  1
  O  O21  1  0.74998100  0.89299500  0.25575500  1
  O  O22  1  0.60711800  0.24976900  0.74382400  1
  O  O23  1  0.10700500  0.74998100  0.74424500  1
  O  O24  1  0.75023100  0.60711800  0.25617600  1
  O  O25  1  0.25001900  0.10700500  0.25575500  1
  O  O26  1  0.39288200  0.75023100  0.74382400  1
  O  O27  1  0.89299500  0.25001900  0.74424500  1
loop_
_geom_bond_atom_site_label_1
_geom_bond_atom_site_label_2
_geom_bond_distance
_geom_bond_site_symmetry_2
Ca0 O18 2.415234 1_555
Ca0 O4 2.418971 1_555
Ca0 O20 2.449895 1_555
Ca0 O0 2.509178 1_555
Ca0 O7 2.715707 1_555
Ca0 O12 2.718573 1_555
Ca0 O23 2.760526 1_555
Ca0 O26 2.761305 1_555
Ca1 O19 2.416760 1_545
Ca1 O5 2.417138 1_545
Ca1 O21 2.450555 1_545
Ca1 O1 2.510586 1_555
Ca1 O13 2.716697 1_555
Ca1 O6 2.717564 1_555
Ca1 O22 2.756665 1_555
Ca1 O27 2.760839 1_555
Ca2 O6 2.415234 1_555
Ca2 O16 2.418971 1_555
Ca2 O22 2.449895 1_555
Ca2 O3 2.509178 1_555
Ca2 O15 2.715707 1_555
Ca2 O4 2.718573 1_555
Ca2 O25 2.760526 1_555
Ca2 O20 2.761305 1_555
Ca3 O7 2.416760 1_655
Ca3 O17 2.417138 1_655
Ca3 O23 2.450555 1_655
Ca3 O2 2.510586 1_555
Ca3 O5 2.716697 1_555
Ca3 O14 2.717564 1_555
Ca3 O24 2.756665 1_555
Ca3 O21 2.760839 1_555
Ca4 O14 2.415234 1_555
Ca4 O8 2.418971 1_555
Ca4 O24 2.449895 1_555
Ca4 O1 2.509178 1_555
Ca4 O11 2.715707 1_555
Ca4 O16 2.718573 1_555
Ca4 O27 2.760526 1_555
Ca4 O22 2.761305 1_555
Ca5 O15 2.416760 1_565
Ca5 O9 2.417138 1_565
Ca5 O25 2.450555 1_565
Ca5 O0 2.510586 1_555
Ca5 O17 2.716697 1_555
Ca5 O10 2.717564 1_555
Ca5 O26 2.756665 1_555
Ca5 O23 2.760839 1_555
Ca6 O10 2.415234 1_555
Ca6 O12 2.418971 1_555
Ca6 O26 2.449895 1_555
Ca6 O2 2.509178 1_555
Ca6 O19 2.715707 1_555
Ca6 O8 2.718573 1_555
Ca6 O21 2.760526 1_555
Ca6 O24 2.761305 1_555
Ca7 O11 2.416760 1_455
Ca7 O13 2.417138 1_455
Ca7 O27 2.450555 1_455
Ca7 O3 2.510586 1_555
Ca7 O9 2.716697 1_555
Ca7 O18 2.717564 1_555
Ca7 O20 2.756665 1_555
Ca7 O25 2.760839 1_555
Co0 O13 1.956380 1_455
Co0 O9 1.956380 1_554
Co0 O17 1.956380 1_545
Co0 O5 1.956380 1_444
Co1 O7 1.956553 1_556
Co1 O11 1.956553 1_456
Co1 O18 1.956816 1_555
Co1 O14 1.956816 1_455
Co2 O15 1.956553 1_554
Co2 O19 1.956553 1_544
Co2 O6 1.956816 1_555
Co2 O10 1.956816 1_545
O0 Si3 1.681250 1_555
O0 Si6 1.681367 1_555
O1 Si7 1.681250 1_555
O1 Si2 1.681367 1_555
O2 Si1 1.681250 1_555
O2 Si4 1.681367 1_555
O3 Si5 1.681250 1_555
O3 Si0 1.681367 1_555
O4 Si0 1.645540 1_555
O4 Zn0 1.952940 1_556
O5 Si1 1.645095 1_555
O6 Si2 1.645177 1_555
O7 Si3 1.645079 1_555
O8 Si4 1.645540 1_555
O8 Zn0 1.952940 1_556
O9 Si5 1.645095 1_555
O10 Si6 1.645177 1_555
O11 Si7 1.645079 1_555
O12 Si6 1.645540 1_555
O12 Zn0 1.952940 1_555
O13 Si7 1.645095 1_555
O14 Si4 1.645177 1_555
O15 Si5 1.645079 1_555
O16 Si2 1.645540 1_555
O16 Zn0 1.952940 1_555
O17 Si3 1.645095 1_555
O18 Si0 1.645177 1_555
O19 Si1 1.645079 1_555
O20 Si0 1.613369 1_554
O21 Si1 1.613537 1_554
O22 Si2 1.613369 1_556
O23 Si3 1.613537 1_556
O24 Si4 1.613369 1_554
O25 Si5 1.613537 1_554
O26 Si6 1.613369 1_556
O27 Si7 1.613537 1_556
