# generated using pymatgen
data_RbYMnWO6
_symmetry_space_group_name_H-M   'P 1'
_cell_length_a   5.42952397
_cell_length_b   5.62181900
_cell_length_c   9.80023432
_cell_angle_alpha   90.00000000
_cell_angle_beta   93.03108023
_cell_angle_gamma   90.00000000
_symmetry_Int_Tables_number   1
_chemical_formula_structural   RbYMnWO6
_chemical_formula_sum   'Rb2 Y2 Mn2 W2 O12'
_cell_volume   298.72190433
_cell_formula_units_Z   2
loop_
 _symmetry_equiv_pos_site_id
 _symmetry_equiv_pos_as_xyz
  1  'x, y, z'
loop_
 _atom_site_type_symbol
 _atom_site_label
 _atom_site_symmetry_multiplicity
 _atom_site_fract_x
 _atom_site_fract_y
 _atom_site_fract_z
 _atom_site_occupancy
  Rb  Rb0  1  0.23250200  0.77869000  0.01221100  1
  Rb  Rb1  1  0.76749800  0.27869000  0.98778900  1
  Y  Y0  1  0.26986100  0.82727100  0.50109000  1
  Y  Y1  1  0.73013900  0.32727100  0.49891000  1
  Mn  Mn0  1  0.74471500  0.77784400  0.30600100  1
  Mn  Mn1  1  0.25528500  0.27784400  0.69399900  1
  W  W0  1  0.78075900  0.76768900  0.72017700  1
  W  W1  1  0.21924100  0.26768900  0.27982300  1
  O  O0  1  0.57180700  0.03912500  0.64604800  1
  O  O1  1  0.42819300  0.53912500  0.35395200  1
  O  O2  1  0.51425800  0.06633900  0.35215200  1
  O  O3  1  0.48574200  0.56633900  0.64784800  1
  O  O4  1  0.92629100  0.44883200  0.26626600  1
  O  O5  1  0.07370900  0.94883200  0.73373400  1
  O  O6  1  0.94494900  0.46728300  0.74116100  1
  O  O7  1  0.05505100  0.96728300  0.25883900  1
  O  O8  1  0.87105800  0.71986000  0.51057800  1
  O  O9  1  0.12894200  0.21986000  0.48942200  1
  O  O10  1  0.69760000  0.79047800  0.89833000  1
  O  O11  1  0.30240000  0.29047800  0.10167000  1
loop_
_geom_bond_atom_site_label_1
_geom_bond_atom_site_label_2
_geom_bond_distance
_geom_bond_site_symmetry_2
Mn0 O7 2.066239 1_655
Mn0 O8 2.109744 1_555
Mn0 O2 2.112002 1_565
Mn0 O4 2.141349 1_555
Mn0 O1 2.249614 1_555
Mn1 O6 2.066239 1_455
Mn1 O9 2.109744 1_555
Mn1 O3 2.112002 1_555
Mn1 O5 2.141349 1_545
Mn1 O0 2.249614 1_555
O0 W0 2.014024 1_545
O0 Y1 2.360835 1_555
O0 Y0 2.424472 1_545
O1 W1 2.014024 1_555
O1 Y0 2.360835 1_555
O1 Y1 2.424472 1_555
O2 W1 2.056567 1_555
O2 Y1 2.327238 1_555
O2 Y0 2.429505 1_545
O3 W0 2.056567 1_555
O3 Y0 2.327238 1_555
O3 Y1 2.429505 1_555
O4 W1 1.887402 1_655
O4 Y1 2.656373 1_555
O4 Rb1 2.976173 1_554
O5 W0 1.887402 1_455
O5 Y0 2.656373 1_555
O5 Rb0 2.976173 1_556
O6 W0 1.915664 1_555
O6 Y1 2.706187 1_555
O6 Rb1 2.853175 1_555
O7 W1 1.915664 1_565
O7 Y0 2.706187 1_555
O7 Rb0 2.853175 1_555
O8 W0 2.153738 1_555
O8 Y0 2.254581 1_655
O8 Y1 2.336743 1_555
O9 W1 2.153738 1_555
O9 Y1 2.254581 1_455
O9 Y0 2.336743 1_545
O10 W0 1.830835 1_555
O10 Rb0 2.815134 1_556
O10 Rb1 2.900091 1_565
O10 Rb1 3.025829 1_555
O10 Rb0 3.056459 1_656
O11 W1 1.830835 1_555
O11 Rb1 2.815134 1_554
O11 Rb0 2.900091 1_555
O11 Rb0 3.025829 1_545
O11 Rb1 3.056459 1_454
