# generated using pymatgen
data_ZrGa3
_symmetry_space_group_name_H-M   'P 1'
_cell_length_a   3.95025783
_cell_length_b   3.95025532
_cell_length_c   9.17668955
_cell_angle_alpha   102.38882579
_cell_angle_beta   102.38900972
_cell_angle_gamma   90.02143476
_symmetry_Int_Tables_number   1
_chemical_formula_structural   ZrGa3
_chemical_formula_sum   'Zr2 Ga6'
_cell_volume   136.44476417
_cell_formula_units_Z   2
loop_
 _symmetry_equiv_pos_site_id
 _symmetry_equiv_pos_as_xyz
  1  'x, y, z'
loop_
 _atom_site_type_symbol
 _atom_site_label
 _atom_site_symmetry_multiplicity
 _atom_site_fract_x
 _atom_site_fract_y
 _atom_site_fract_z
 _atom_site_occupancy
  Zr  Zr0  1  0.88154207  0.88154990  0.76289896  1
  Zr  Zr1  1  0.11846082  0.11845214  0.23710969  1
  Ga  Ga0  1  0.50000045  0.99999990  1.00000170  1
  Ga  Ga1  1  1.00000038  0.49999970  1.00000170  1
  Ga  Ga2  1  0.25017456  0.74983589  0.50000288  1
  Ga  Ga3  1  0.74983484  0.25017297  0.50000272  1
  Ga  Ga4  1  0.62351536  0.62350326  0.24758649  1
  Ga  Ga5  1  0.37647252  0.37648524  0.75239586  1
loop_
_geom_bond_atom_site_label_1
_geom_bond_atom_site_label_2
_geom_bond_distance
_geom_bond_site_symmetry_2
Ga0 Ga1 2.792730 1_565
Ga0 Ga1 2.792731 1_455
Ga0 Ga1 2.793775 1_465
Ga0 Ga1 2.793776 1_555
Ga0 Zr0 2.862792 1_555
Ga0 Zr1 2.862827 1_566
Ga0 Zr0 2.864101 1_455
Ga0 Zr1 2.864133 1_666
Ga0 Ga4 2.930326 1_556
Ga0 Ga5 2.930460 1_565
Ga0 Ga4 2.930649 1_566
Ga0 Ga5 2.930787 1_555
Ga1 Zr0 2.862810 1_555
Ga1 Zr1 2.862843 1_656
Ga1 Zr0 2.864081 1_545
Ga1 Zr1 2.864115 1_666
Ga1 Ga4 2.930301 1_556
Ga1 Ga5 2.930430 1_655
Ga1 Ga4 2.930676 1_656
Ga1 Ga5 2.930819 1_555
Ga2 Ga3 2.791885 1_555
Ga2 Ga3 2.792724 1_565
Ga2 Ga3 2.792738 1_455
Ga2 Ga3 2.795666 1_465
Ga2 Ga5 2.959551 1_555
Ga2 Ga4 2.959714 1_555
Ga2 Ga5 2.963815 1_565
Ga2 Ga4 2.963959 1_455
Ga2 Zr1 3.029922 1_565
Ga2 Zr0 3.029993 1_455
Ga2 Zr0 3.031479 1_555
Ga2 Zr1 3.031509 1_555
Ga3 Ga5 2.959589 1_555
Ga3 Ga4 2.959680 1_555
Ga3 Ga5 2.963781 1_655
Ga3 Ga4 2.963989 1_545
Ga3 Zr1 3.029952 1_655
Ga3 Zr0 3.029964 1_545
Ga3 Zr1 3.031480 1_555
Ga3 Zr0 3.031508 1_555
Ga4 Zr1 2.793279 1_555
Ga4 Zr1 2.795186 1_665
Ga4 Zr1 2.795268 1_655
Ga4 Zr1 2.795287 1_565
Ga5 Zr0 2.793293 1_555
Ga5 Zr0 2.795187 1_445
Ga5 Zr0 2.795271 1_455
Ga5 Zr0 2.795298 1_545
