# generated using pymatgen
data_Al2ZnS4
_symmetry_space_group_name_H-M   'P 1'
_cell_length_a   3.68487357
_cell_length_b   3.68487357
_cell_length_c   11.95318000
_cell_angle_alpha   90.00000000
_cell_angle_beta   90.00000000
_cell_angle_gamma   119.99999232
_symmetry_Int_Tables_number   1
_chemical_formula_structural   Al2ZnS4
_chemical_formula_sum   'Al2 Zn1 S4'
_cell_volume   140.55921029
_cell_formula_units_Z   1
loop_
 _symmetry_equiv_pos_site_id
 _symmetry_equiv_pos_as_xyz
  1  'x, y, z'
loop_
 _atom_site_type_symbol
 _atom_site_label
 _atom_site_symmetry_multiplicity
 _atom_site_fract_x
 _atom_site_fract_y
 _atom_site_fract_z
 _atom_site_occupancy
  Al  Al0  1  0.33333300  0.66666700  0.92116500  1
  Al  Al1  1  0.00000000  0.00000000  0.61562200  1
  Zn  Zn0  1  0.66666700  0.33333300  0.30347200  1
  S  S0  1  0.66666700  0.33333300  0.99556400  1
  S  S1  1  0.66666700  0.33333300  0.52036000  1
  S  S2  1  0.33333300  0.66666700  0.73295200  1
  S  S3  1  0.33333300  0.66666700  0.24286500  1
loop_
_geom_bond_atom_site_label_1
_geom_bond_atom_site_label_2
_geom_bond_distance
_geom_bond_site_symmetry_2
Al0 S2 2.249744 1_555
Al0 S0 2.305852 1_455
Al0 S0 2.305852 1_565
Al0 S0 2.305857 1_555
Al1 S1 2.413025 1_455
Al1 S1 2.413028 1_445
Al1 S1 2.413028 1_555
Al1 S2 2.548137 1_545
Al1 S2 2.548140 1_555
Al1 S2 2.548140 1_445
S1 Zn0 2.592501 1_555
S3 Zn0 2.247423 1_455
S3 Zn0 2.247423 1_565
S3 Zn0 2.247429 1_555
