# generated using pymatgen
data_KEr(SO5)2
_symmetry_space_group_name_H-M   'P 1'
_cell_length_a   8.15698300
_cell_length_b   10.10184100
_cell_length_c   10.98243522
_cell_angle_alpha   81.05189989
_cell_angle_beta   90.00000000
_cell_angle_gamma   90.00000000
_symmetry_Int_Tables_number   1
_chemical_formula_structural   KEr(SO5)2
_chemical_formula_sum   'K4 Er4 S8 O40'
_cell_volume   893.94497590
_cell_formula_units_Z   4
loop_
 _symmetry_equiv_pos_site_id
 _symmetry_equiv_pos_as_xyz
  1  'x, y, z'
loop_
 _atom_site_type_symbol
 _atom_site_label
 _atom_site_symmetry_multiplicity
 _atom_site_fract_x
 _atom_site_fract_y
 _atom_site_fract_z
 _atom_site_occupancy
  K  K0  1  0.26794600  0.90942300  0.13290300  1
  K  K1  1  0.73205400  0.09057700  0.86709700  1
  K  K2  1  0.76794600  0.59057700  0.86709700  1
  K  K3  1  0.23205400  0.40942300  0.13290300  1
  Er  Er0  1  0.76378100  0.96735900  0.31751300  1
  Er  Er1  1  0.23621900  0.03264100  0.68248700  1
  Er  Er2  1  0.26378100  0.53264100  0.68248700  1
  Er  Er3  1  0.73621900  0.46735900  0.31751300  1
  S  S0  1  0.64950300  0.68944300  0.53136900  1
  S  S1  1  0.35049700  0.31055700  0.46863100  1
  S  S2  1  0.14950300  0.81055700  0.46863100  1
  S  S3  1  0.85049700  0.18944300  0.53136900  1
  S  S4  1  0.77343600  0.79359000  0.11674800  1
  S  S5  1  0.22656400  0.20641000  0.88325200  1
  S  S6  1  0.27343600  0.70641000  0.88325200  1
  S  S7  1  0.72656400  0.29359000  0.11674800  1
  O  O0  1  0.62147600  0.85100100  0.16527400  1
  O  O1  1  0.37852400  0.14899900  0.83472600  1
  O  O2  1  0.12147600  0.64899900  0.83472600  1
  O  O3  1  0.87852400  0.35100100  0.16527400  1
  O  O4  1  0.91279500  0.85447700  0.17893000  1
  O  O5  1  0.08720500  0.14552300  0.82107000  1
  O  O6  1  0.41279500  0.64552300  0.82107000  1
  O  O7  1  0.58720500  0.35447700  0.17893000  1
  O  O8  1  0.98210700  0.87208000  0.43650300  1
  O  O9  1  0.01789300  0.12792000  0.56349700  1
  O  O10  1  0.48210700  0.62792000  0.56349700  1
  O  O11  1  0.51789300  0.37208000  0.43650300  1
  O  O12  1  0.61776400  0.81173700  0.44032500  1
  O  O13  1  0.38223600  0.18826300  0.55967500  1
  O  O14  1  0.11776400  0.68826300  0.55967500  1
  O  O15  1  0.88223600  0.31173700  0.44032500  1
  O  O16  1  0.28451700  0.67902700  0.01752900  1
  O  O17  1  0.71548300  0.32097300  0.98247100  1
  O  O18  1  0.78451700  0.82097300  0.98247100  1
  O  O19  1  0.21548300  0.17902700  0.01752900  1
  O  O20  1  0.47088700  0.55024800  0.29043200  1
  O  O21  1  0.52911300  0.44975200  0.70956800  1
  O  O22  1  0.97088700  0.94975200  0.70956800  1
  O  O23  1  0.02911300  0.05024800  0.29043200  1
  O  O24  1  0.73224600  0.71955600  0.64090000  1
  O  O25  1  0.26775400  0.28044400  0.35910000  1
  O  O26  1  0.23224600  0.78044400  0.35910000  1
  O  O27  1  0.76775400  0.21955600  0.64090000  1
  O  O28  1  0.74512300  0.59338100  0.46875900  1
  O  O29  1  0.25487700  0.40661900  0.53124100  1
  O  O30  1  0.24512300  0.90661900  0.53124100  1
  O  O31  1  0.75487700  0.09338100  0.46875900  1
  O  O32  1  0.77674300  0.64344300  0.15822600  1
  O  O33  1  0.22325700  0.35655700  0.84177400  1
  O  O34  1  0.27674300  0.85655700  0.84177400  1
  O  O35  1  0.72325700  0.14344300  0.15822600  1
  O  O36  1  0.51200900  0.96481500  0.70774400  1
  O  O37  1  0.48799100  0.03518500  0.29225600  1
  O  O38  1  0.01200900  0.53518500  0.29225600  1
  O  O39  1  0.98799100  0.46481500  0.70774400  1
loop_
_geom_bond_atom_site_label_1
_geom_bond_atom_site_label_2
_geom_bond_distance
_geom_bond_site_symmetry_2
K0 O26 2.635670 1_555
K0 O16 2.821005 1_555
K0 O19 2.851766 1_565
K0 O37 2.930887 1_565
K0 O0 2.953873 1_555
K0 O4 2.978037 1_455
K0 O23 3.094798 1_565
K0 O34 3.323294 1_554
K1 O27 2.635670 1_555
K1 O17 2.821005 1_555
K1 O18 2.851766 1_545
K1 O36 2.930887 1_545
K1 O1 2.953873 1_555
K1 O5 2.978037 1_655
K1 O22 3.094798 1_545
K1 O35 3.323294 1_556
K2 O24 2.635670 1_555
K2 O18 2.821005 1_555
K2 O17 2.851766 1_555
K2 O39 2.930887 1_555
K2 O2 2.953873 1_655
K2 O6 2.978037 1_555
K2 O21 3.094798 1_555
K2 O32 3.323294 1_556
K3 O25 2.635670 1_555
K3 O19 2.821005 1_555
K3 O16 2.851766 1_555
K3 O38 2.930887 1_555
K3 O3 2.953873 1_455
K3 O7 2.978037 1_555
K3 O20 3.094798 1_555
K3 O33 3.323294 1_554
Er0 O31 2.245626 1_565
Er0 O12 2.247134 1_555
Er0 O35 2.316369 1_565
Er0 O23 2.323003 1_665
Er0 O8 2.326884 1_555
Er0 O37 2.355428 1_565
Er0 O4 2.373622 1_555
Er0 O0 2.477061 1_555
Er1 O30 2.245626 1_545
Er1 O13 2.247134 1_555
Er1 O34 2.316369 1_545
Er1 O22 2.323003 1_445
Er1 O9 2.326884 1_555
Er1 O36 2.355428 1_545
Er1 O5 2.373622 1_555
Er1 O1 2.477061 1_555
Er2 O29 2.245626 1_555
Er2 O14 2.247134 1_555
Er2 O33 2.316369 1_555
Er2 O21 2.323003 1_555
Er2 O10 2.326884 1_555
Er2 O39 2.355428 1_455
Er2 O6 2.373622 1_555
Er2 O2 2.477061 1_555
Er3 O28 2.245626 1_555
Er3 O15 2.247134 1_555
Er3 O32 2.316369 1_555
Er3 O20 2.323003 1_555
Er3 O11 2.326884 1_555
Er3 O38 2.355428 1_655
Er3 O7 2.373622 1_555
Er3 O3 2.477061 1_555
O0 S4 1.500988 1_555
O1 S5 1.500988 1_555
O2 S6 1.500988 1_555
O3 S7 1.500988 1_555
O4 S4 1.505836 1_555
O5 S5 1.505836 1_555
O6 S6 1.505836 1_555
O7 S7 1.505836 1_555
O8 S2 1.518875 1_655
O9 S3 1.518875 1_455
O10 S0 1.518875 1_555
O11 S1 1.518875 1_555
O12 S0 1.486181 1_555
O13 S1 1.486181 1_555
O14 S2 1.486181 1_555
O15 S3 1.486181 1_555
O16 S6 1.460307 1_554
O17 S7 1.460307 1_556
O18 S4 1.460307 1_556
O19 S5 1.460307 1_554
O24 S0 1.452209 1_555
O25 S1 1.452209 1_555
O26 S2 1.452209 1_555
O27 S3 1.452209 1_555
O28 S0 1.493457 1_555
O29 S1 1.493457 1_555
O30 S2 1.493457 1_555
O31 S3 1.493457 1_555
O32 S4 1.514551 1_555
O33 S5 1.514551 1_555
O34 S6 1.514551 1_555
O35 S7 1.514551 1_555
