# generated using pymatgen
data_CeAl4Co
_symmetry_space_group_name_H-M   'P 1'
_cell_length_a   4.03344900
_cell_length_b   6.86051565
_cell_length_c   7.58377672
_cell_angle_alpha   89.99991975
_cell_angle_beta   90.00000000
_cell_angle_gamma   90.00000000
_symmetry_Int_Tables_number   1
_chemical_formula_structural   CeAl4Co
_chemical_formula_sum   'Ce2 Al8 Co2'
_cell_volume   209.85478077
_cell_formula_units_Z   2
loop_
 _symmetry_equiv_pos_site_id
 _symmetry_equiv_pos_as_xyz
  1  'x, y, z'
loop_
 _atom_site_type_symbol
 _atom_site_label
 _atom_site_symmetry_multiplicity
 _atom_site_fract_x
 _atom_site_fract_y
 _atom_site_fract_z
 _atom_site_occupancy
  Ce  Ce0  1  0.00000000  0.61715700  0.74999942  1
  Ce  Ce1  1  -0.00000000  0.38284300  0.25000058  1
  Al  Al0  1  0.50000000  0.29714152  0.56972358  1
  Al  Al1  1  0.50000000  0.70285848  0.43027642  1
  Al  Al2  1  0.50000000  0.29714120  0.93027649  1
  Al  Al3  1  0.50000000  0.70285880  0.06972351  1
  Al  Al4  1  0.00000000  -0.00000000  0.00000000  1
  Al  Al5  1  0.00000000  -0.00000000  0.50000000  1
  Al  Al6  1  0.50000000  0.04110848  0.25000022  1
  Al  Al7  1  0.50000000  0.95889252  0.74999978  1
  Co  Co0  1  0.00000000  0.18966524  0.74999980  1
  Co  Co1  1  -0.00000000  0.81033476  0.25000020  1
loop_
_geom_bond_atom_site_label_1
_geom_bond_atom_site_label_2
_geom_bond_distance
_geom_bond_site_symmetry_2
Ce0 Co0 2.932814 1_555
Ce1 Co1 2.932814 1_555
Al0 Co0 2.545587 1_655
Al0 Co0 2.545587 1_555
Al0 Al7 2.693356 1_545
Al0 Al2 2.734353 1_555
Al0 Al5 2.915894 1_555
Al0 Al5 2.915894 1_655
Al0 Al1 2.977557 1_555
Al0 Al6 2.994093 1_555
Al0 Ce1 3.208126 1_555
Al0 Ce1 3.208126 1_655
Al0 Ce0 3.279701 1_555
Al0 Ce0 3.279701 1_655
Al1 Co1 2.545587 1_555
Al1 Co1 2.545587 1_655
Al1 Al6 2.693362 1_565
Al1 Al3 2.734353 1_555
Al1 Al5 2.915894 1_565
Al1 Al5 2.915894 1_665
Al1 Al7 2.994097 1_555
Al1 Ce0 3.208126 1_555
Al1 Ce0 3.208126 1_655
Al1 Ce1 3.279701 1_555
Al1 Ce1 3.279701 1_655
Al2 Co0 2.545590 1_555
Al2 Co0 2.545590 1_655
Al2 Al7 2.693360 1_545
Al2 Al4 2.915891 1_656
Al2 Al4 2.915891 1_556
Al2 Al3 2.977563 1_556
Al2 Al6 2.994090 1_556
Al2 Ce1 3.208134 1_556
Al2 Ce1 3.208134 1_656
Al2 Ce0 3.279704 1_555
Al2 Ce0 3.279704 1_655
Al3 Co1 2.545590 1_655
Al3 Co1 2.545590 1_555
Al3 Al6 2.693365 1_565
Al3 Al4 2.915891 1_565
Al3 Al4 2.915891 1_665
Al3 Al7 2.994094 1_554
Al3 Ce0 3.208134 1_554
Al3 Ce0 3.208134 1_654
Al3 Ce1 3.279704 1_555
Al3 Ce1 3.279704 1_655
Al4 Co1 2.299506 1_545
Al4 Co0 2.299506 1_554
Al4 Al7 2.782324 1_444
Al4 Al7 2.782324 1_544
Al4 Al6 2.782324 1_555
Al4 Al6 2.782324 1_455
Al4 Ce1 3.239312 1_555
Al4 Ce0 3.239312 1_544
Al5 Co1 2.299507 1_545
Al5 Co0 2.299507 1_555
Al5 Al7 2.782321 1_445
Al5 Al7 2.782321 1_545
Al5 Al6 2.782321 1_555
Al5 Al6 2.782321 1_455
Al5 Ce1 3.239302 1_555
Al5 Ce0 3.239302 1_545
Al6 Co1 2.563939 1_645
Al6 Co1 2.563939 1_545
Al6 Ce1 3.092530 1_555
Al6 Ce1 3.092530 1_655
Al7 Co0 2.563935 1_665
Al7 Co0 2.563935 1_565
Al7 Ce0 3.092535 1_555
Al7 Ce0 3.092535 1_655
