# generated using pymatgen
data_Te2MoWSeS
_symmetry_space_group_name_H-M   'P 1'
_cell_length_a   3.40124289
_cell_length_b   3.40124289
_cell_length_c   38.69715700
_cell_angle_alpha   90.00000000
_cell_angle_beta   90.00000000
_cell_angle_gamma   120.00001724
_symmetry_Int_Tables_number   1
_chemical_formula_structural   Te2MoWSeS
_chemical_formula_sum   'Te4 Mo2 W2 Se2 S2'
_cell_volume   387.69027640
_cell_formula_units_Z   2
loop_
 _symmetry_equiv_pos_site_id
 _symmetry_equiv_pos_as_xyz
  1  'x, y, z'
loop_
 _atom_site_type_symbol
 _atom_site_label
 _atom_site_symmetry_multiplicity
 _atom_site_fract_x
 _atom_site_fract_y
 _atom_site_fract_z
 _atom_site_occupancy
  Te  Te0  1  0.00000000  0.00000000  0.70615200  1
  Te  Te1  1  0.33333300  0.66666700  0.04532800  1
  Te  Te2  1  0.33333300  0.66666700  0.14255000  1
  Te  Te3  1  0.00000000  0.00000000  0.60891300  1
  Mo  Mo0  1  0.00000000  0.00000000  0.46964500  1
  Mo  Mo1  1  0.33333300  0.66666700  0.28178600  1
  W  W0  1  0.00000000  0.00000000  0.09390900  1
  W  W1  1  0.33333300  0.66666700  0.65756000  1
  Se  Se0  1  0.33333300  0.66666700  0.42715000  1
  Se  Se1  1  0.33333300  0.66666700  0.51216100  1
  S  S0  1  0.00000000  0.00000000  0.32062200  1
  S  S1  1  0.00000000  0.00000000  0.24297200  1
loop_
_geom_bond_atom_site_label_1
_geom_bond_atom_site_label_2
_geom_bond_distance
_geom_bond_site_symmetry_2
Te0 W1 2.718813 1_545
Te0 W1 2.718815 1_445
Te0 W1 2.718815 1_555
Te1 W0 2.718519 1_565
Te1 W0 2.718520 1_555
Te1 W0 2.718520 1_665
Te2 W0 2.720125 1_565
Te2 W0 2.720126 1_665
Te2 W0 2.720126 1_555
Te3 W1 2.720285 1_545
Te3 W1 2.720287 1_555
Te3 W1 2.720287 1_445
Mo0 Se0 2.561311 1_545
Mo0 Se0 2.561313 1_555
Mo0 Se0 2.561313 1_445
Mo0 Se1 2.561833 1_545
Mo0 Se1 2.561834 1_445
Mo0 Se1 2.561834 1_555
Mo1 S1 2.472271 1_565
Mo1 S1 2.472273 1_665
Mo1 S1 2.472273 1_555
Mo1 S0 2.472788 1_565
Mo1 S0 2.472790 1_665
Mo1 S0 2.472790 1_555
