# generated using pymatgen
data_GaFe2BO5
_symmetry_space_group_name_H-M   'P 1'
_cell_length_a   3.05901200
_cell_length_b   9.67284900
_cell_length_c   12.41177800
_cell_angle_alpha   90.00000000
_cell_angle_beta   90.00000000
_cell_angle_gamma   90.00000000
_symmetry_Int_Tables_number   1
_chemical_formula_structural   GaFe2BO5
_chemical_formula_sum   'Ga4 Fe8 B4 O20'
_cell_volume   367.25658194
_cell_formula_units_Z   4
loop_
 _symmetry_equiv_pos_site_id
 _symmetry_equiv_pos_as_xyz
  1  'x, y, z'
loop_
 _atom_site_type_symbol
 _atom_site_label
 _atom_site_symmetry_multiplicity
 _atom_site_fract_x
 _atom_site_fract_y
 _atom_site_fract_z
 _atom_site_occupancy
  Ga  Ga0  1  0.00000000  0.74229300  0.38267500  1
  Ga  Ga1  1  0.00000000  0.25770700  0.61732500  1
  Ga  Ga2  1  0.00000000  0.24229300  0.11732500  1
  Ga  Ga3  1  0.00000000  0.75770700  0.88267500  1
  Fe  Fe0  1  0.50000000  0.50086600  0.22201700  1
  Fe  Fe1  1  0.50000000  0.49913400  0.77798300  1
  Fe  Fe2  1  0.50000000  0.00086600  0.27798300  1
  Fe  Fe3  1  0.50000000  0.99913400  0.72201700  1
  Fe  Fe4  1  0.50000000  0.50000000  0.50000000  1
  Fe  Fe5  1  0.50000000  0.00000000  0.00000000  1
  Fe  Fe6  1  0.00000000  0.00000000  0.50000000  1
  Fe  Fe7  1  0.00000000  0.50000000  0.00000000  1
  B  B0  1  0.00000000  0.76943500  0.13704200  1
  B  B1  1  0.00000000  0.23056500  0.86295800  1
  B  B2  1  0.00000000  0.26943500  0.36295800  1
  B  B3  1  0.00000000  0.73056500  0.63704200  1
  O  O0  1  0.00000000  0.84387100  0.04065100  1
  O  O1  1  0.00000000  0.15612900  0.95934900  1
  O  O2  1  0.00000000  0.34387100  0.45934900  1
  O  O3  1  0.00000000  0.65612900  0.54065100  1
  O  O4  1  0.50000000  0.61569500  0.35766900  1
  O  O5  1  0.50000000  0.38430500  0.64233100  1
  O  O6  1  0.50000000  0.11569500  0.14233100  1
  O  O7  1  0.50000000  0.88430500  0.85766900  1
  O  O8  1  0.00000000  0.62614900  0.13745600  1
  O  O9  1  0.00000000  0.37385100  0.86254400  1
  O  O10  1  0.00000000  0.12614900  0.36254400  1
  O  O11  1  0.00000000  0.87385100  0.63745600  1
  O  O12  1  0.50000000  0.87735200  0.41738000  1
  O  O13  1  0.50000000  0.12264800  0.58262000  1
  O  O14  1  0.50000000  0.37735200  0.08262000  1
  O  O15  1  0.50000000  0.62264800  0.91738000  1
  O  O16  1  0.00000000  0.84102700  0.23457400  1
  O  O17  1  0.00000000  0.15897300  0.76542600  1
  O  O18  1  0.00000000  0.34102700  0.26542600  1
  O  O19  1  0.00000000  0.65897300  0.73457400  1
loop_
_geom_bond_atom_site_label_1
_geom_bond_atom_site_label_2
_geom_bond_distance
_geom_bond_site_symmetry_2
Ga0 O4 1.983752 1_455
Ga0 O4 1.983752 1_555
Ga0 O12 2.057093 1_555
Ga0 O12 2.057093 1_455
Ga0 O16 2.071489 1_555
Ga0 O3 2.130548 1_555
Ga1 O5 1.983752 1_555
Ga1 O5 1.983752 1_455
Ga1 O13 2.057093 1_455
Ga1 O13 2.057093 1_555
Ga1 O17 2.071489 1_555
Ga1 O2 2.130548 1_555
Ga2 O6 1.983752 1_455
Ga2 O6 1.983752 1_555
Ga2 O14 2.057093 1_555
Ga2 O14 2.057093 1_455
Ga2 O18 2.071489 1_555
Ga2 O1 2.130548 1_554
Ga3 O7 1.983752 1_555
Ga3 O7 1.983752 1_455
Ga3 O15 2.057093 1_555
Ga3 O15 2.057093 1_455
Ga3 O19 2.071489 1_555
Ga3 O0 2.130548 1_556
Fe0 O4 2.017051 1_555
Fe0 O14 2.102583 1_555
Fe0 O8 2.215742 1_555
Fe0 O8 2.215742 1_655
Fe0 O18 2.240557 1_555
Fe0 O18 2.240557 1_655
Fe1 O5 2.017051 1_555
Fe1 O15 2.102583 1_555
Fe1 O9 2.215742 1_555
Fe1 O9 2.215742 1_655
Fe1 O19 2.240557 1_555
Fe1 O19 2.240557 1_655
Fe2 O6 2.017051 1_555
Fe2 O12 2.102583 1_545
Fe2 O10 2.215742 1_655
Fe2 O10 2.215742 1_555
Fe2 O16 2.240557 1_645
Fe2 O16 2.240557 1_545
Fe3 O7 2.017051 1_555
Fe3 O13 2.102583 1_565
Fe3 O11 2.215742 1_655
Fe3 O11 2.215742 1_555
Fe3 O17 2.240557 1_565
Fe3 O17 2.240557 1_665
Fe4 O4 2.091218 1_555
Fe4 O5 2.091218 1_555
Fe4 O3 2.207873 1_655
Fe4 O3 2.207873 1_555
Fe4 O2 2.207873 1_655
Fe4 O2 2.207873 1_555
Fe5 O7 2.091218 1_544
Fe5 O6 2.091218 1_555
Fe5 O1 2.207873 1_554
Fe5 O0 2.207873 1_545
Fe5 O0 2.207873 1_645
Fe5 O1 2.207873 1_654
Fe6 O11 2.097528 1_545
Fe6 O10 2.097528 1_555
Fe6 O12 2.190525 1_545
Fe6 O12 2.190525 1_445
Fe6 O13 2.190525 1_455
Fe6 O13 2.190525 1_555
Fe7 O8 2.097528 1_555
Fe7 O9 2.097528 1_554
Fe7 O14 2.190525 1_455
Fe7 O15 2.190525 1_454
Fe7 O14 2.190525 1_555
Fe7 O15 2.190525 1_554
B0 O8 1.385993 1_555
B0 O16 1.394624 1_555
B0 O0 1.396333 1_555
B1 O9 1.385993 1_555
B1 O17 1.394624 1_555
B1 O1 1.396333 1_555
B2 O10 1.385993 1_555
B2 O18 1.394624 1_555
B2 O2 1.396333 1_555
B3 O11 1.385993 1_555
B3 O19 1.394624 1_555
B3 O3 1.396333 1_555
