# generated using pymatgen
data_Ce5Ge2Pd
_symmetry_space_group_name_H-M   'P 1'
_cell_length_a   8.77726289
_cell_length_b   8.77726289
_cell_length_c   6.23000600
_cell_angle_alpha   90.00000000
_cell_angle_beta   90.00000000
_cell_angle_gamma   119.66748550
_symmetry_Int_Tables_number   1
_chemical_formula_structural   Ce5Ge2Pd
_chemical_formula_sum   'Ce10 Ge4 Pd2'
_cell_volume   417.04483022
_cell_formula_units_Z   2
loop_
 _symmetry_equiv_pos_site_id
 _symmetry_equiv_pos_as_xyz
  1  'x, y, z'
loop_
 _atom_site_type_symbol
 _atom_site_label
 _atom_site_symmetry_multiplicity
 _atom_site_fract_x
 _atom_site_fract_y
 _atom_site_fract_z
 _atom_site_occupancy
  Ce  Ce0  1  0.66540400  0.33695900  0.21853200  1
  Ce  Ce1  1  0.33695900  0.66540400  0.21853200  1
  Ce  Ce2  1  0.33695900  0.66540400  0.78146800  1
  Ce  Ce3  1  0.66540400  0.33695900  0.78146800  1
  Ce  Ce4  1  0.25946900  0.99282700  0.50000000  1
  Ce  Ce5  1  0.99282700  0.25946900  0.50000000  1
  Ce  Ce6  1  0.73759600  0.73759600  0.50000000  1
  Ce  Ce7  1  0.74665600  0.00415200  0.00000000  1
  Ce  Ce8  1  0.00415200  0.74665600  0.00000000  1
  Ce  Ce9  1  0.25444600  0.25444600  0.00000000  1
  Ge  Ge0  1  0.38184000  0.38184000  0.50000000  1
  Ge  Ge1  1  0.38797600  0.00064700  0.00000000  1
  Ge  Ge2  1  0.00064700  0.38797600  0.00000000  1
  Ge  Ge3  1  0.62173400  0.62173400  0.00000000  1
  Pd  Pd0  1  0.61145800  0.99773200  0.50000000  1
  Pd  Pd1  1  0.99773200  0.61145800  0.50000000  1
loop_
_geom_bond_atom_site_label_1
_geom_bond_atom_site_label_2
_geom_bond_distance
_geom_bond_site_symmetry_2
Ce0 Ce3 2.722911 1_554
Ce0 Ge3 3.032597 1_555
Ce0 Ge1 3.062859 1_555
Ce0 Ge2 3.067265 1_655
Ce0 Ge0 3.224191 1_555
Ce0 Pd1 3.229742 1_555
Ce0 Pd0 3.281601 1_545
Ce1 Ce2 2.722911 1_554
Ce1 Ge3 3.032597 1_555
Ce1 Ge2 3.062859 1_555
Ce1 Ge1 3.067265 1_565
Ce1 Ge0 3.224191 1_555
Ce1 Pd0 3.229742 1_555
Ce1 Pd1 3.281601 1_455
Ce2 Ge3 3.032597 1_556
Ce2 Ge2 3.062859 1_556
Ce2 Ge1 3.067265 1_566
Ce2 Ge0 3.224191 1_555
Ce2 Pd0 3.229742 1_555
Ce2 Pd1 3.281601 1_455
Ce3 Ge3 3.032597 1_556
Ce3 Ge1 3.062859 1_556
Ce3 Ge2 3.067265 1_656
Ce3 Ge0 3.224191 1_555
Ce3 Pd1 3.229742 1_555
Ce3 Pd0 3.281601 1_545
Ce4 Pd1 2.978264 1_455
Ce4 Ge0 3.030142 1_565
Ce4 Pd0 3.068419 1_555
Ce4 Ge1 3.302054 1_565
Ce4 Ge1 3.302054 1_566
Ce5 Pd0 2.978264 1_545
Ce5 Ge0 3.030142 1_655
Ce5 Pd1 3.068419 1_555
Ce5 Ge2 3.302054 1_655
Ce5 Ge2 3.302054 1_656
Ce6 Pd0 2.990255 1_555
Ce6 Pd1 2.990255 1_555
Ce6 Ge0 3.138245 1_555
Ce6 Ge3 3.278391 1_555
Ce6 Ge3 3.278391 1_556
Ce7 Ge3 2.970784 1_545
Ce7 Ge2 2.980731 1_655
Ce7 Ge1 3.133115 1_555
Ce7 Pd0 3.323914 1_544
Ce7 Pd0 3.323914 1_545
Ce8 Ge3 2.970784 1_455
Ce8 Ge1 2.980731 1_565
Ce8 Ge2 3.133115 1_555
Ce8 Pd1 3.323914 1_455
Ce8 Pd1 3.323914 1_454
Ce9 Ge2 2.986756 1_555
Ce9 Ge1 2.986756 1_555
Ce9 Ge3 3.239972 1_555
Ce9 Ge0 3.311516 1_554
Ce9 Ge0 3.311516 1_555
