# generated using pymatgen
data_Cr8Fe3CuS16
_symmetry_space_group_name_H-M   'P 1'
_cell_length_a   11.94749512
_cell_length_b   11.94749512
_cell_length_c   11.94749536
_cell_angle_alpha   33.48322678
_cell_angle_beta   33.48322678
_cell_angle_gamma   33.48322810
_symmetry_Int_Tables_number   1
_chemical_formula_structural   Cr8Fe3CuS16
_chemical_formula_sum   'Cr8 Fe3 Cu1 S16'
_cell_volume   462.29093821
_cell_formula_units_Z   1
loop_
 _symmetry_equiv_pos_site_id
 _symmetry_equiv_pos_as_xyz
  1  'x, y, z'
loop_
 _atom_site_type_symbol
 _atom_site_label
 _atom_site_symmetry_multiplicity
 _atom_site_fract_x
 _atom_site_fract_y
 _atom_site_fract_z
 _atom_site_occupancy
  Cr  Cr0  1  0.56202100  0.06310400  0.56202100  1
  Cr  Cr1  1  0.06152400  0.56490300  0.06152400  1
  Cr  Cr2  1  0.06310400  0.56202100  0.56202100  1
  Cr  Cr3  1  0.56490300  0.06152400  0.06152400  1
  Cr  Cr4  1  0.81257800  0.81257800  0.81257800  1
  Cr  Cr5  1  0.31239900  0.31239900  0.31239900  1
  Cr  Cr6  1  0.56202100  0.56202100  0.06310400  1
  Cr  Cr7  1  0.06152400  0.06152400  0.56490300  1
  Fe  Fe0  1  0.62450500  0.62450500  0.62450500  1
  Fe  Fe1  1  0.00019300  0.00019300  0.00019300  1
  Fe  Fe2  1  0.49972600  0.49972600  0.49972600  1
  Cu  Cu0  1  0.12518000  0.12518000  0.12518000  1
  S  S0  1  0.19201100  0.68007800  0.19201100  1
  S  S1  1  0.69189900  0.18038500  0.69189900  1
  S  S2  1  0.68007800  0.19201100  0.19201100  1
  S  S3  1  0.18038500  0.69189900  0.69189900  1
  S  S4  1  0.43591600  0.43591600  0.43591600  1
  S  S5  1  0.93616600  0.93616600  0.93616600  1
  S  S6  1  0.19201100  0.19201100  0.68007800  1
  S  S7  1  0.69189900  0.69189900  0.18038500  1
  S  S8  1  0.92553400  0.45674400  0.92553400  1
  S  S9  1  0.43313500  0.94586100  0.43313500  1
  S  S10  1  0.45674400  0.92553400  0.92553400  1
  S  S11  1  0.94586100  0.43313500  0.43313500  1
  S  S12  1  0.68818900  0.68818900  0.68818900  1
  S  S13  1  0.19182400  0.19182400  0.19182400  1
  S  S14  1  0.92553400  0.92553400  0.45674400  1
  S  S15  1  0.43313500  0.43313500  0.94586100  1
loop_
_geom_bond_atom_site_label_1
_geom_bond_atom_site_label_2
_geom_bond_distance
_geom_bond_site_symmetry_2
Cr0 S14 2.361052 1_545
Cr0 S10 2.361052 1_545
Cr0 S6 2.401966 1_555
Cr0 S2 2.401966 1_555
Cr0 S4 2.403638 1_555
Cr0 S12 2.423368 1_545
Cr1 S13 2.368068 1_555
Cr1 S5 2.395766 1_454
Cr1 S7 2.403505 1_455
Cr1 S3 2.403505 1_554
Cr1 S15 2.415648 1_554
Cr1 S11 2.415648 1_455
Cr2 S14 2.361052 1_455
Cr2 S8 2.361052 1_455
Cr2 S6 2.401966 1_555
Cr2 S0 2.401966 1_555
Cr2 S4 2.403638 1_555
Cr2 S12 2.423368 1_455
Cr3 S13 2.368068 1_555
Cr3 S5 2.395766 1_544
Cr3 S7 2.403505 1_545
Cr3 S1 2.403505 1_554
Cr3 S15 2.415648 1_554
Cr3 S9 2.415648 1_545
Cr4 S8 2.369278 1_555
Cr4 S10 2.369278 1_555
Cr4 S14 2.369278 1_555
Cr4 S1 2.407945 1_565
Cr4 S3 2.407945 1_655
Cr4 S7 2.407945 1_556
Cr5 S11 2.394862 1_455
Cr5 S9 2.394862 1_545
Cr5 S15 2.394862 1_554
Cr5 S2 2.409635 1_555
Cr5 S0 2.409635 1_555
Cr5 S6 2.409635 1_555
Cr6 S8 2.361052 1_554
Cr6 S10 2.361052 1_554
Cr6 S2 2.401966 1_555
Cr6 S0 2.401966 1_555
Cr6 S4 2.403638 1_555
Cr6 S12 2.423368 1_554
Cr7 S13 2.368068 1_555
Cr7 S5 2.395766 1_445
Cr7 S1 2.403505 1_455
Cr7 S3 2.403505 1_545
Cr7 S9 2.415648 1_545
Cr7 S11 2.415648 1_455
Fe0 S15 2.151735 1_555
Fe0 S11 2.151735 1_555
Fe0 S9 2.151735 1_555
Fe0 S12 2.152625 1_555
Fe1 S6 2.156622 1_554
Fe1 S2 2.156622 1_455
Fe1 S0 2.156622 1_545
Fe1 S5 2.164219 1_444
Fe2 S4 2.156884 1_555
Fe2 S7 2.160662 1_555
Fe2 S1 2.160662 1_555
Fe2 S3 2.160662 1_555
Cu0 S14 2.244700 1_445
Cu0 S10 2.244700 1_544
Cu0 S8 2.244700 1_454
Cu0 S13 2.252678 1_555
