# generated using pymatgen
data_K4BaTi6S20O
_symmetry_space_group_name_H-M   'P 1'
_cell_length_a   9.55241160
_cell_length_b   9.55241160
_cell_length_c   18.69211200
_cell_angle_alpha   90.00000000
_cell_angle_beta   90.00000000
_cell_angle_gamma   119.99999724
_symmetry_Int_Tables_number   1
_chemical_formula_structural   K4BaTi6S20O
_chemical_formula_sum   'K8 Ba2 Ti12 S40 O2'
_cell_volume   1477.11760120
_cell_formula_units_Z   2
loop_
 _symmetry_equiv_pos_site_id
 _symmetry_equiv_pos_as_xyz
  1  'x, y, z'
loop_
 _atom_site_type_symbol
 _atom_site_label
 _atom_site_symmetry_multiplicity
 _atom_site_fract_x
 _atom_site_fract_y
 _atom_site_fract_z
 _atom_site_occupancy
  K  K0  1  0.33333300  0.66666700  0.25000000  1
  K  K1  1  0.66666700  0.33333300  0.75000000  1
  K  K2  1  0.65777200  0.65777200  0.00000000  1
  K  K3  1  0.34222800  0.00000000  0.00000000  1
  K  K4  1  0.00000000  0.34222800  0.00000000  1
  K  K5  1  0.34222800  0.34222800  0.50000000  1
  K  K6  1  0.65777200  0.00000000  0.50000000  1
  K  K7  1  0.00000000  0.65777200  0.50000000  1
  Ba  Ba0  1  0.00000000  0.00000000  0.25000000  1
  Ba  Ba1  1  0.00000000  0.00000000  0.75000000  1
  Ti  Ti0  1  0.66719500  0.13654400  0.17941800  1
  Ti  Ti1  1  0.86345600  0.53065200  0.17941800  1
  Ti  Ti2  1  0.46934800  0.33280500  0.17941800  1
  Ti  Ti3  1  0.13654400  0.66719500  0.82058200  1
  Ti  Ti4  1  0.53065200  0.86345600  0.82058200  1
  Ti  Ti5  1  0.33280500  0.46934800  0.82058200  1
  Ti  Ti6  1  0.33280500  0.86345600  0.67941800  1
  Ti  Ti7  1  0.13654400  0.46934800  0.67941800  1
  Ti  Ti8  1  0.53065200  0.66719500  0.67941800  1
  Ti  Ti9  1  0.86345600  0.33280500  0.32058200  1
  Ti  Ti10  1  0.46934800  0.13654400  0.32058200  1
  Ti  Ti11  1  0.66719500  0.53065200  0.32058200  1
  S  S0  1  0.54380400  0.89769800  0.10942100  1
  S  S1  1  0.10230200  0.64610600  0.10942100  1
  S  S2  1  0.35389400  0.45619600  0.10942100  1
  S  S3  1  0.89769800  0.54380400  0.89057900  1
  S  S4  1  0.64610600  0.10230200  0.89057900  1
  S  S5  1  0.45619600  0.35389400  0.89057900  1
  S  S6  1  0.45619600  0.10230200  0.60942100  1
  S  S7  1  0.89769800  0.35389400  0.60942100  1
  S  S8  1  0.64610600  0.54380400  0.60942100  1
  S  S9  1  0.10230200  0.45619600  0.39057900  1
  S  S10  1  0.35389400  0.89769800  0.39057900  1
  S  S11  1  0.54380400  0.64610600  0.39057900  1
  S  S12  1  0.66666700  0.33333300  0.09224200  1
  S  S13  1  0.33333300  0.66666700  0.90775800  1
  S  S14  1  0.33333300  0.66666700  0.59224200  1
  S  S15  1  0.66666700  0.33333300  0.40775800  1
  S  S16  1  0.79389500  0.02454800  0.10751900  1
  S  S17  1  0.97545200  0.76934700  0.10751900  1
  S  S18  1  0.23065300  0.20610500  0.10751900  1
  S  S19  1  0.02454800  0.79389500  0.89248100  1
  S  S20  1  0.76934700  0.97545200  0.89248100  1
  S  S21  1  0.20610500  0.23065300  0.89248100  1
  S  S22  1  0.20610500  0.97545200  0.60751900  1
  S  S23  1  0.02454800  0.23065300  0.60751900  1
  S  S24  1  0.76934700  0.79389500  0.60751900  1
  S  S25  1  0.97545200  0.20610500  0.39248100  1
  S  S26  1  0.23065300  0.02454800  0.39248100  1
  S  S27  1  0.79389500  0.76934700  0.39248100  1
  S  S28  1  0.96322900  0.33222000  0.20353300  1
  S  S29  1  0.66778000  0.63101000  0.20353300  1
  S  S30  1  0.36899000  0.03677100  0.20353300  1
  S  S31  1  0.33222000  0.96322900  0.79646700  1
  S  S32  1  0.63101000  0.66778000  0.79646700  1
  S  S33  1  0.03677100  0.36899000  0.79646700  1
  S  S34  1  0.03677100  0.66778000  0.70353300  1
  S  S35  1  0.33222000  0.36899000  0.70353300  1
  S  S36  1  0.63101000  0.96322900  0.70353300  1
  S  S37  1  0.66778000  0.03677100  0.29646700  1
  S  S38  1  0.36899000  0.33222000  0.29646700  1
  S  S39  1  0.96322900  0.63101000  0.29646700  1
  O  O0  1  0.66666700  0.33333300  0.25000000  1
  O  O1  1  0.33333300  0.66666700  0.75000000  1
loop_
_geom_bond_atom_site_label_1
_geom_bond_atom_site_label_2
_geom_bond_distance
_geom_bond_site_symmetry_2
K0 S10 3.373492 1_555
K0 S1 3.373492 1_555
K0 S9 3.373495 1_555
K0 S0 3.373495 1_555
K0 S11 3.373498 1_555
K0 S2 3.373498 1_555
K0 S38 3.487863 1_555
K0 S29 3.487863 1_555
K0 S30 3.487863 1_565
K0 S39 3.487863 1_455
K0 S37 3.487863 1_565
K0 S28 3.487863 1_455
K1 S7 3.373492 1_555
K1 S4 3.373492 1_555
K1 S3 3.373495 1_555
K1 S6 3.373495 1_555
K1 S5 3.373498 1_555
K1 S8 3.373498 1_555
K1 S32 3.487863 1_555
K1 S35 3.487863 1_555
K1 S33 3.487863 1_655
K1 S36 3.487863 1_545
K1 S31 3.487863 1_545
K1 S34 3.487863 1_655
K2 S2 3.275310 1_555
K2 S5 3.275310 1_554
K2 S17 3.339104 1_555
K2 S20 3.339104 1_554
K2 S12 3.584452 1_555
K2 S13 3.584452 1_554
K2 S0 3.621638 1_555
K2 S3 3.621638 1_554
K2 S16 3.667336 1_565
K2 S19 3.667336 1_654
K3 S0 3.275310 1_545
K3 S4 3.275310 1_554
K3 S18 3.339104 1_555
K3 S19 3.339104 1_544
K3 S13 3.584444 1_544
K3 S12 3.584448 1_555
K3 S5 3.621638 1_554
K3 S1 3.621638 1_545
K3 S21 3.667336 1_554
K3 S17 3.667337 1_445
K4 S3 3.275310 1_454
K4 S1 3.275310 1_555
K4 S21 3.339104 1_554
K4 S16 3.339104 1_455
K4 S12 3.584444 1_455
K4 S13 3.584448 1_554
K4 S2 3.621638 1_555
K4 S4 3.621638 1_454
K4 S18 3.667336 1_555
K4 S20 3.667337 1_444
K5 S11 3.275310 1_555
K5 S8 3.275310 1_555
K5 S23 3.339104 1_555
K5 S26 3.339104 1_555
K5 S14 3.584452 1_555
K5 S15 3.584452 1_555
K5 S9 3.621638 1_555
K5 S6 3.621638 1_555
K5 S22 3.667336 1_545
K5 S25 3.667336 1_455
K6 S6 3.275310 1_555
K6 S10 3.275310 1_545
K6 S24 3.339104 1_545
K6 S25 3.339104 1_555
K6 S15 3.584444 1_555
K6 S14 3.584448 1_545
K6 S11 3.621638 1_545
K6 S7 3.621638 1_555
K6 S27 3.667336 1_545
K6 S23 3.667337 1_655
K7 S9 3.275310 1_555
K7 S7 3.275310 1_455
K7 S27 3.339104 1_455
K7 S22 3.339104 1_555
K7 S14 3.584444 1_555
K7 S15 3.584448 1_455
K7 S8 3.621638 1_455
K7 S10 3.621638 1_555
K7 S24 3.667336 1_455
K7 S26 3.667337 1_565
Ba0 S25 3.389077 1_455
Ba0 S16 3.389077 1_455
Ba0 S26 3.389077 1_555
Ba0 S17 3.389077 1_445
Ba0 S27 3.389077 1_445
Ba0 S18 3.389077 1_555
Ba0 S39 3.473260 1_445
Ba0 S30 3.473260 1_555
Ba0 S29 3.473264 1_445
Ba0 S38 3.473264 1_555
Ba0 S37 3.473269 1_455
Ba0 S28 3.473269 1_455
Ba1 S19 3.389077 1_545
Ba1 S22 3.389077 1_545
Ba1 S20 3.389077 1_445
Ba1 S23 3.389077 1_555
Ba1 S21 3.389077 1_555
Ba1 S24 3.389077 1_445
Ba1 S33 3.473260 1_555
Ba1 S36 3.473260 1_445
Ba1 S32 3.473264 1_445
Ba1 S35 3.473264 1_555
Ba1 S31 3.473269 1_545
Ba1 S34 3.473269 1_545
S0 S16 2.069288 1_565
S0 Ti0 2.370115 1_565
S1 S17 2.069288 1_455
S1 Ti1 2.370116 1_455
S2 Ti2 2.370108 1_555
S3 Ti3 2.370115 1_655
S4 Ti4 2.370116 1_545
S5 Ti5 2.370108 1_555
S6 Ti6 2.370115 1_545
S7 Ti7 2.370116 1_655
S8 Ti8 2.370108 1_555
S9 Ti9 2.370115 1_455
S10 S26 2.069288 1_565
S10 Ti10 2.370116 1_565
S11 S27 2.069288 1_555
S11 Ti11 2.370108 1_555
S12 Ti0 2.489673 1_555
S12 Ti1 2.489680 1_555
S12 Ti2 2.489688 1_555
S13 Ti3 2.489673 1_555
S13 Ti4 2.489680 1_555
S13 Ti5 2.489688 1_555
S14 Ti6 2.489673 1_555
S14 Ti7 2.489680 1_555
S14 Ti8 2.489688 1_555
S15 Ti9 2.489673 1_555
S15 Ti10 2.489680 1_555
S15 Ti11 2.489688 1_555
S16 Ti0 2.389631 1_555
S17 Ti1 2.389624 1_555
S18 S2 2.069288 1_555
S18 Ti2 2.389624 1_555
S19 S3 2.069288 1_455
S19 Ti3 2.389631 1_555
S20 S4 2.069288 1_565
S20 Ti4 2.389624 1_555
S21 S5 2.069288 1_555
S21 Ti5 2.389624 1_555
S22 S6 2.069288 1_565
S22 Ti6 2.389631 1_555
S23 S7 2.069288 1_455
S23 Ti7 2.389624 1_555
S24 S8 2.069288 1_555
S24 Ti8 2.389624 1_555
S25 S9 2.069288 1_655
S25 Ti9 2.389631 1_555
S26 Ti10 2.389624 1_555
S27 Ti11 2.389624 1_555
S28 Ti9 2.387589 1_555
S28 Ti0 2.531393 1_555
S28 Ti1 2.551670 1_555
S29 Ti11 2.387589 1_555
S29 Ti1 2.531393 1_555
S29 Ti2 2.551670 1_555
S30 Ti10 2.387589 1_555
S30 Ti2 2.531393 1_555
S30 Ti0 2.551670 1_555
S31 Ti6 2.387589 1_555
S31 Ti3 2.531393 1_555
S31 Ti4 2.551670 1_555
S32 Ti8 2.387589 1_555
S32 Ti4 2.531393 1_555
S32 Ti5 2.551670 1_555
S33 Ti7 2.387589 1_555
S33 Ti5 2.531393 1_555
S33 Ti3 2.551670 1_555
S34 Ti3 2.387589 1_555
S34 Ti6 2.531393 1_555
S34 Ti7 2.551670 1_555
S35 Ti5 2.387589 1_555
S35 Ti7 2.531393 1_555
S35 Ti8 2.551670 1_555
S36 Ti4 2.387589 1_555
S36 Ti8 2.531393 1_555
S36 Ti6 2.551670 1_555
S37 Ti0 2.387589 1_555
S37 Ti9 2.531393 1_555
S37 Ti10 2.551670 1_555
S38 Ti2 2.387589 1_555
S38 Ti10 2.531393 1_555
S38 Ti11 2.551670 1_555
S39 Ti1 2.387589 1_555
S39 Ti11 2.531393 1_555
S39 Ti9 2.551670 1_555
O0 Ti0 2.298655 1_555
O0 Ti9 2.298655 1_555
O0 Ti10 2.298663 1_555
O0 Ti1 2.298663 1_555
O0 Ti2 2.298670 1_555
O0 Ti11 2.298670 1_555
O1 Ti3 2.298655 1_555
O1 Ti6 2.298655 1_555
O1 Ti4 2.298663 1_555
O1 Ti7 2.298663 1_555
O1 Ti5 2.298670 1_555
O1 Ti8 2.298670 1_555
