# generated using pymatgen
data_Sr2CoSO3
_symmetry_space_group_name_H-M   'P 1'
_cell_length_a   4.03002300
_cell_length_b   4.03002300
_cell_length_c   14.35390600
_cell_angle_alpha   90.00000000
_cell_angle_beta   90.00000000
_cell_angle_gamma   90.00000000
_symmetry_Int_Tables_number   1
_chemical_formula_structural   Sr2CoSO3
_chemical_formula_sum   'Sr4 Co2 S2 O6'
_cell_volume   233.12301289
_cell_formula_units_Z   2
loop_
 _symmetry_equiv_pos_site_id
 _symmetry_equiv_pos_as_xyz
  1  'x, y, z'
loop_
 _atom_site_type_symbol
 _atom_site_label
 _atom_site_symmetry_multiplicity
 _atom_site_fract_x
 _atom_site_fract_y
 _atom_site_fract_z
 _atom_site_occupancy
  Sr  Sr0  1  0.50000000  0.00000000  0.16601700  1
  Sr  Sr1  1  0.00000000  0.50000000  0.83398300  1
  Sr  Sr2  1  0.50000000  0.00000000  0.40358500  1
  Sr  Sr3  1  0.00000000  0.50000000  0.59641500  1
  Co  Co0  1  0.00000000  0.50000000  0.29297100  1
  Co  Co1  1  0.50000000  0.00000000  0.70702900  1
  S  S0  1  0.00000000  0.50000000  0.11948900  1
  S  S1  1  0.50000000  0.00000000  0.88051100  1
  O  O0  1  0.50000000  0.50000000  0.28699500  1
  O  O1  1  0.00000000  0.00000000  0.28699500  1
  O  O2  1  0.00000000  0.00000000  0.71300500  1
  O  O3  1  0.50000000  0.50000000  0.71300500  1
  O  O4  1  0.00000000  0.50000000  0.42320100  1
  O  O5  1  0.50000000  0.00000000  0.57679900  1
loop_
_geom_bond_atom_site_label_1
_geom_bond_atom_site_label_2
_geom_bond_distance
_geom_bond_site_symmetry_2
Co0 O4 1.869309 1_555
Co0 O0 2.016836 1_555
Co0 O1 2.016836 1_555
Co0 O1 2.016836 1_565
Co0 O0 2.016836 1_455
Co0 S0 2.490144 1_555
Co1 O5 1.869309 1_555
Co1 O2 2.016836 1_655
Co1 O3 2.016836 1_545
Co1 O2 2.016836 1_555
Co1 O3 2.016836 1_555
Co1 S1 2.490144 1_555
S0 Sr0 2.926872 1_565
S0 Sr0 2.926872 1_455
S0 Sr0 2.926872 1_555
S0 Sr0 2.926872 1_465
S1 Sr1 2.926872 1_645
S1 Sr1 2.926872 1_545
S1 Sr1 2.926872 1_555
S1 Sr1 2.926872 1_655
O0 Sr2 2.619341 1_555
O0 Sr2 2.619341 1_565
O0 Sr0 2.660024 1_555
O0 Sr0 2.660024 1_565
O1 Sr2 2.619341 1_455
O1 Sr2 2.619341 1_555
O1 Sr0 2.660024 1_555
O1 Sr0 2.660024 1_455
O2 Sr3 2.619341 1_555
O2 Sr3 2.619341 1_545
O2 Sr1 2.660024 1_545
O2 Sr1 2.660024 1_555
O3 Sr3 2.619341 1_555
O3 Sr3 2.619341 1_655
O3 Sr1 2.660024 1_655
O3 Sr1 2.660024 1_555
O4 Sr3 2.486297 1_555
O4 Sr2 2.863533 1_455
O4 Sr2 2.863533 1_555
O4 Sr2 2.863533 1_565
O4 Sr2 2.863533 1_465
O5 Sr2 2.486297 1_555
O5 Sr3 2.863533 1_545
O5 Sr3 2.863533 1_645
O5 Sr3 2.863533 1_555
O5 Sr3 2.863533 1_655
