# generated using pymatgen
data_NaEuCl4
_symmetry_space_group_name_H-M   'P 1'
_cell_length_a   6.95107200
_cell_length_b   7.01894027
_cell_length_c   7.11149111
_cell_angle_alpha   89.41377067
_cell_angle_beta   88.02396291
_cell_angle_gamma   77.54649860
_symmetry_Int_Tables_number   1
_chemical_formula_structural   NaEuCl4
_chemical_formula_sum   'Na2 Eu2 Cl8'
_cell_volume   338.59721944
_cell_formula_units_Z   2
loop_
 _symmetry_equiv_pos_site_id
 _symmetry_equiv_pos_as_xyz
  1  'x, y, z'
loop_
 _atom_site_type_symbol
 _atom_site_label
 _atom_site_symmetry_multiplicity
 _atom_site_fract_x
 _atom_site_fract_y
 _atom_site_fract_z
 _atom_site_occupancy
  Na  Na0  1  0.23159800  0.19535200  0.53479300  1
  Na  Na1  1  0.76840200  0.80464800  0.46520700  1
  Eu  Eu0  1  0.78841100  0.30463300  0.05094100  1
  Eu  Eu1  1  0.21158900  0.69536700  0.94905900  1
  Cl  Cl0  1  0.60775000  0.20219200  0.36962400  1
  Cl  Cl1  1  0.39225000  0.79780800  0.63037600  1
  Cl  Cl2  1  0.09134600  0.00274900  0.21251000  1
  Cl  Cl3  1  0.90865400  0.99725100  0.78749000  1
  Cl  Cl4  1  0.04694700  0.50340000  0.24608700  1
  Cl  Cl5  1  0.95305300  0.49660000  0.75391300  1
  Cl  Cl6  1  0.56708900  0.68988300  0.12271000  1
  Cl  Cl7  1  0.43291100  0.31011700  0.87729000  1
loop_
_geom_bond_atom_site_label_1
_geom_bond_atom_site_label_2
_geom_bond_distance
_geom_bond_site_symmetry_2
Cl0 Eu0 2.718454 1_555
Cl0 Na0 2.838947 1_555
Cl0 Na1 2.857391 1_545
Cl1 Eu1 2.718454 1_555
Cl1 Na1 2.838947 1_555
Cl1 Na0 2.857391 1_565
Cl2 Eu1 2.839097 1_544
Cl2 Eu0 2.904599 1_455
Cl2 Na0 2.969303 1_555
Cl2 Na1 3.349449 1_445
Cl3 Eu0 2.839097 1_566
Cl3 Eu1 2.904599 1_655
Cl3 Na1 2.969303 1_555
Cl3 Na0 3.349449 1_665
Cl4 Eu1 2.833234 1_554
Cl4 Eu0 2.897388 1_455
Cl4 Na1 2.956610 1_455
Cl4 Na0 3.071111 1_555
Cl5 Eu0 2.833234 1_556
Cl5 Eu1 2.897388 1_655
Cl5 Na0 2.956610 1_655
Cl5 Na1 3.071111 1_555
Cl6 Eu1 2.793084 1_554
Cl6 Eu0 2.849391 1_555
Cl6 Na1 3.049729 1_555
Cl7 Eu0 2.793084 1_556
Cl7 Eu1 2.849391 1_555
Cl7 Na0 3.049729 1_555
