# generated using pymatgen
data_Mg14AlCrO16
_symmetry_space_group_name_H-M   'P 1'
_cell_length_a   4.27034100
_cell_length_b   8.54636800
_cell_length_c   8.60390100
_cell_angle_alpha   90.00000000
_cell_angle_beta   90.00000000
_cell_angle_gamma   90.00000000
_symmetry_Int_Tables_number   1
_chemical_formula_structural   Mg14AlCrO16
_chemical_formula_sum   'Mg14 Al1 Cr1 O16'
_cell_volume   314.00715930
_cell_formula_units_Z   1
loop_
 _symmetry_equiv_pos_site_id
 _symmetry_equiv_pos_as_xyz
  1  'x, y, z'
loop_
 _atom_site_type_symbol
 _atom_site_label
 _atom_site_symmetry_multiplicity
 _atom_site_fract_x
 _atom_site_fract_y
 _atom_site_fract_z
 _atom_site_occupancy
  Mg  Mg0  1  0.00000000  0.50000000  0.00000000  1
  Mg  Mg1  1  0.00000000  0.50000000  0.50000000  1
  Mg  Mg2  1  0.50000000  0.00000000  0.25093500  1
  Mg  Mg3  1  0.50000000  0.00000000  0.74906500  1
  Mg  Mg4  1  0.50000000  0.50000000  0.25137400  1
  Mg  Mg5  1  0.50000000  0.50000000  0.74862600  1
  Mg  Mg6  1  0.50000000  0.25026000  0.00000000  1
  Mg  Mg7  1  0.50000000  0.25037000  0.50000000  1
  Mg  Mg8  1  0.50000000  0.74974000  0.00000000  1
  Mg  Mg9  1  0.50000000  0.74963000  0.50000000  1
  Mg  Mg10  1  0.00000000  0.25029500  0.25180000  1
  Mg  Mg11  1  0.00000000  0.25029500  0.74820000  1
  Mg  Mg12  1  0.00000000  0.74970500  0.25180000  1
  Mg  Mg13  1  0.00000000  0.74970500  0.74820000  1
  Al  Al0  1  0.00000000  0.00000000  0.00000000  1
  Cr  Cr0  1  0.00000000  0.00000000  0.50000000  1
  O  O0  1  0.00000000  0.23716500  0.00000000  1
  O  O1  1  0.00000000  0.26267100  0.50000000  1
  O  O2  1  0.00000000  0.76283500  0.00000000  1
  O  O3  1  0.00000000  0.73732900  0.50000000  1
  O  O4  1  0.50000000  0.24875800  0.24891400  1
  O  O5  1  0.50000000  0.24875800  0.75108600  1
  O  O6  1  0.50000000  0.75124200  0.24891400  1
  O  O7  1  0.50000000  0.75124200  0.75108600  1
  O  O8  1  0.50000000  0.00000000  0.00000000  1
  O  O9  1  0.50000000  0.00000000  0.50000000  1
  O  O10  1  0.50000000  0.50000000  0.00000000  1
  O  O11  1  0.50000000  0.50000000  0.50000000  1
  O  O12  1  0.00000000  0.00000000  0.21468700  1
  O  O13  1  0.00000000  0.00000000  0.78531300  1
  O  O14  1  0.00000000  0.50000000  0.24372500  1
  O  O15  1  0.00000000  0.50000000  0.75627500  1
loop_
_geom_bond_atom_site_label_1
_geom_bond_atom_site_label_2
_geom_bond_distance
_geom_bond_site_symmetry_2
Mg0 O15 2.096986 1_554
Mg0 O14 2.096986 1_555
Mg0 O10 2.135171 1_555
Mg0 O10 2.135171 1_455
Mg0 O0 2.246285 1_555
Mg0 O2 2.246285 1_555
Mg1 O3 2.028301 1_555
Mg1 O1 2.028301 1_555
Mg1 O11 2.135171 1_455
Mg1 O11 2.135171 1_555
Mg1 O14 2.204965 1_555
Mg1 O15 2.204965 1_555
Mg2 O4 2.126049 1_555
Mg2 O6 2.126049 1_545
Mg2 O9 2.142931 1_555
Mg2 O12 2.157827 1_655
Mg2 O12 2.157827 1_555
Mg2 O8 2.159020 1_555
Mg3 O5 2.126049 1_555
Mg3 O7 2.126049 1_545
Mg3 O9 2.142931 1_555
Mg3 O13 2.157827 1_555
Mg3 O13 2.157827 1_655
Mg3 O8 2.159020 1_556
Mg4 O14 2.136184 1_655
Mg4 O14 2.136184 1_555
Mg4 O11 2.139153 1_555
Mg4 O6 2.147311 1_555
Mg4 O4 2.147311 1_555
Mg4 O10 2.162797 1_555
Mg5 O15 2.136184 1_655
Mg5 O15 2.136184 1_555
Mg5 O11 2.139153 1_555
Mg5 O7 2.147311 1_555
Mg5 O5 2.147311 1_555
Mg5 O10 2.162797 1_556
Mg6 O10 2.134370 1_555
Mg6 O0 2.138101 1_555
Mg6 O0 2.138101 1_655
Mg6 O8 2.138814 1_555
Mg6 O5 2.141670 1_554
Mg6 O4 2.141670 1_555
Mg7 O11 2.133430 1_555
Mg7 O1 2.137757 1_555
Mg7 O1 2.137757 1_655
Mg7 O9 2.139754 1_555
Mg7 O5 2.160363 1_555
Mg7 O4 2.160363 1_555
Mg8 O10 2.134370 1_555
Mg8 O2 2.138101 1_655
Mg8 O2 2.138101 1_555
Mg8 O8 2.138814 1_565
Mg8 O7 2.141670 1_554
Mg8 O6 2.141670 1_555
Mg9 O11 2.133430 1_555
Mg9 O3 2.137757 1_555
Mg9 O3 2.137757 1_655
Mg9 O9 2.139754 1_565
Mg9 O7 2.160363 1_555
Mg9 O6 2.160363 1_555
Mg10 O14 2.135201 1_555
Mg10 O4 2.135355 1_555
Mg10 O4 2.135355 1_455
Mg10 O1 2.138106 1_555
Mg10 O12 2.162815 1_555
Mg10 O0 2.169366 1_555
Mg11 O15 2.135201 1_555
Mg11 O5 2.135355 1_455
Mg11 O5 2.135355 1_555
Mg11 O1 2.138106 1_555
Mg11 O13 2.162815 1_555
Mg11 O0 2.169366 1_556
Mg12 O14 2.135201 1_555
Mg12 O6 2.135355 1_455
Mg12 O6 2.135355 1_555
Mg12 O3 2.138106 1_555
Mg12 O12 2.162815 1_565
Mg12 O2 2.169366 1_555
Mg13 O15 2.135201 1_555
Mg13 O7 2.135355 1_555
Mg13 O7 2.135355 1_455
Mg13 O3 2.138106 1_555
Mg13 O13 2.162815 1_565
Mg13 O2 2.169366 1_556
Al0 O13 1.847146 1_554
Al0 O12 1.847146 1_555
Al0 O2 2.026899 1_545
Al0 O0 2.026899 1_555
Al0 O8 2.135171 1_455
Al0 O8 2.135171 1_555
Cr0 O9 2.135171 1_455
Cr0 O9 2.135171 1_555
Cr0 O1 2.244883 1_555
Cr0 O3 2.244883 1_545
Cr0 O12 2.454805 1_555
Cr0 O13 2.454805 1_555
