# generated using pymatgen
data_LiLa(WO4)2
_symmetry_space_group_name_H-M   'P 1'
_cell_length_a   7.27450700
_cell_length_b   7.49758364
_cell_length_c   7.62643985
_cell_angle_alpha   113.72668600
_cell_angle_beta   115.65510302
_cell_angle_gamma   91.32199012
_symmetry_Int_Tables_number   1
_chemical_formula_structural   LiLa(WO4)2
_chemical_formula_sum   'Li2 La2 W4 O16'
_cell_volume   333.30360479
_cell_formula_units_Z   2
loop_
 _symmetry_equiv_pos_site_id
 _symmetry_equiv_pos_as_xyz
  1  'x, y, z'
loop_
 _atom_site_type_symbol
 _atom_site_label
 _atom_site_symmetry_multiplicity
 _atom_site_fract_x
 _atom_site_fract_y
 _atom_site_fract_z
 _atom_site_occupancy
  Li  Li0  1  0.25030500  0.67685800  0.00996600  1
  Li  Li1  1  0.74969500  0.32314200  0.99003400  1
  La  La0  1  0.18510500  0.28722800  0.46151300  1
  La  La1  1  0.81489500  0.71277200  0.53848700  1
  W  W0  1  0.26192200  0.29245400  0.02876300  1
  W  W1  1  0.73807800  0.70754600  0.97123700  1
  W  W2  1  0.64566300  0.10276400  0.28253500  1
  W  W3  1  0.35433700  0.89723600  0.71746500  1
  O  O0  1  0.18465600  0.36544900  0.80941700  1
  O  O1  1  0.81534400  0.63455100  0.19058300  1
  O  O2  1  0.44516600  0.53478500  0.24866800  1
  O  O3  1  0.55483400  0.46521500  0.75133200  1
  O  O4  1  0.86083300  0.00943800  0.19817100  1
  O  O5  1  0.13916700  0.99056200  0.80182900  1
  O  O6  1  0.70518400  0.01111200  0.48080300  1
  O  O7  1  0.29481600  0.98888800  0.51919700  1
  O  O8  1  0.17999600  0.64264300  0.56357600  1
  O  O9  1  0.82000400  0.35735700  0.43642400  1
  O  O10  1  0.48124300  0.82764100  0.00941900  1
  O  O11  1  0.51875700  0.17235900  0.99058100  1
  O  O12  1  0.04258600  0.30268500  0.08854400  1
  O  O13  1  0.95741400  0.69731500  0.91145600  1
  O  O14  1  0.38480700  0.17058500  0.25590900  1
  O  O15  1  0.61519300  0.82941500  0.74409100  1
loop_
_geom_bond_atom_site_label_1
_geom_bond_atom_site_label_2
_geom_bond_distance
_geom_bond_site_symmetry_2
Li0 O13 1.961967 1_454
Li0 O10 2.005633 1_555
Li0 O0 2.112109 1_554
Li0 O2 2.419454 1_555
Li1 O12 1.961967 1_656
Li1 O11 2.005633 1_555
Li1 O1 2.112109 1_556
Li1 O3 2.419454 1_555
La0 O8 2.463450 1_555
La0 O0 2.477731 1_555
La0 O3 2.492634 1_555
La0 O4 2.498139 1_455
La0 O14 2.502299 1_555
La0 O7 2.530641 1_545
La0 O12 2.626088 1_555
La0 O9 2.659398 1_455
La1 O9 2.463450 1_555
La1 O1 2.477731 1_555
La1 O2 2.492634 1_555
La1 O5 2.498139 1_655
La1 O15 2.502299 1_555
La1 O6 2.530641 1_565
La1 O13 2.626088 1_555
La1 O8 2.659398 1_655
O0 W0 1.830462 1_556
O1 W1 1.830462 1_554
O2 W0 1.841456 1_555
O3 W1 1.841456 1_555
O4 W2 1.978350 1_555
O4 W1 2.081342 1_544
O5 W3 1.978350 1_555
O5 W0 2.081342 1_566
O6 W2 1.796956 1_555
O7 W3 1.796956 1_555
O8 W3 1.850969 1_555
O9 W2 1.850969 1_555
O10 W2 2.072522 1_565
O10 W1 2.173476 1_554
O10 W3 2.293348 1_554
O11 W3 2.072522 1_545
O11 W0 2.173476 1_556
O11 W2 2.293348 1_556
O12 W0 1.834928 1_555
O13 W1 1.834928 1_555
O14 W2 1.922145 1_555
O14 W0 2.146041 1_555
O15 W3 1.922145 1_555
O15 W1 2.146041 1_555
