# generated using pymatgen
data_Tb9Al5Se21
_symmetry_space_group_name_H-M   'P 1'
_cell_length_a   12.03001090
_cell_length_b   12.03001090
_cell_length_c   12.03001095
_cell_angle_alpha   94.50825395
_cell_angle_beta   94.50825395
_cell_angle_gamma   94.50825454
_symmetry_Int_Tables_number   1
_chemical_formula_structural   Tb9Al5Se21
_chemical_formula_sum   'Tb18 Al10 Se42'
_cell_volume   1723.93321816
_cell_formula_units_Z   2
loop_
 _symmetry_equiv_pos_site_id
 _symmetry_equiv_pos_as_xyz
  1  'x, y, z'
loop_
 _atom_site_type_symbol
 _atom_site_label
 _atom_site_symmetry_multiplicity
 _atom_site_fract_x
 _atom_site_fract_y
 _atom_site_fract_z
 _atom_site_occupancy
  Tb  Tb0  1  0.88602700  0.25952700  0.12123100  1
  Tb  Tb1  1  0.54415300  0.92402300  0.77550300  1
  Tb  Tb2  1  0.22961500  0.60125500  0.44939300  1
  Tb  Tb3  1  0.60125500  0.44939300  0.22961500  1
  Tb  Tb4  1  0.25952700  0.12123100  0.88602700  1
  Tb  Tb5  1  0.92402300  0.77550300  0.54415300  1
  Tb  Tb6  1  0.77550300  0.54415300  0.92402300  1
  Tb  Tb7  1  0.44939300  0.22961500  0.60125500  1
  Tb  Tb8  1  0.12123100  0.88602700  0.25952700  1
  Tb  Tb9  1  0.79074600  0.41756100  0.56293000  1
  Tb  Tb10  1  0.45094400  0.07056400  0.22010400  1
  Tb  Tb11  1  0.12584000  0.75419100  0.89760800  1
  Tb  Tb12  1  0.07056400  0.22010400  0.45094400  1
  Tb  Tb13  1  0.75419100  0.89760800  0.12584000  1
  Tb  Tb14  1  0.41756100  0.56293000  0.79074600  1
  Tb  Tb15  1  0.89760800  0.12584000  0.75419100  1
  Tb  Tb16  1  0.56293000  0.79074600  0.41756100  1
  Tb  Tb17  1  0.22010400  0.45094400  0.07056400  1
  Al  Al0  1  0.27980500  0.95088200  0.61247800  1
  Al  Al1  1  0.95088200  0.61247800  0.27980500  1
  Al  Al2  1  0.61247800  0.27980500  0.95088200  1
  Al  Al3  1  0.11650900  0.45049600  0.77628700  1
  Al  Al4  1  0.77628700  0.11650900  0.45049600  1
  Al  Al5  1  0.45049600  0.77628700  0.11650900  1
  Al  Al6  1  0.14434800  0.14434800  0.14434800  1
  Al  Al7  1  0.83023400  0.83023400  0.83023400  1
  Al  Al8  1  0.33066400  0.33066400  0.33066400  1
  Al  Al9  1  0.64400600  0.64400600  0.64400600  1
  Se  Se0  1  0.15630200  0.82488600  0.48900900  1
  Se  Se1  1  0.82488600  0.48900900  0.15630200  1
  Se  Se2  1  0.48900900  0.15630200  0.82488600  1
  Se  Se3  1  0.32417400  0.65651900  0.98967200  1
  Se  Se4  1  0.98967200  0.32417400  0.65651900  1
  Se  Se5  1  0.65651900  0.98967200  0.32417400  1
  Se  Se6  1  0.46303100  0.98950400  0.55215100  1
  Se  Se7  1  0.13329400  0.64514900  0.21775400  1
  Se  Se8  1  0.79938300  0.30727900  0.89499900  1
  Se  Se9  1  0.30727900  0.89499900  0.79938300  1
  Se  Se10  1  0.98950400  0.55215100  0.46303100  1
  Se  Se11  1  0.64514900  0.21775400  0.13329400  1
  Se  Se12  1  0.21775400  0.13329400  0.64514900  1
  Se  Se13  1  0.89499900  0.79938300  0.30727900  1
  Se  Se14  1  0.55215100  0.46303100  0.98950400  1
  Se  Se15  1  0.03429400  0.52574000  0.93760100  1
  Se  Se16  1  0.70151200  0.19037600  0.61634500  1
  Se  Se17  1  0.36946700  0.84423300  0.28273900  1
  Se  Se18  1  0.19037600  0.61634500  0.70151200  1
  Se  Se19  1  0.84423300  0.28273900  0.36946700  1
  Se  Se20  1  0.52574000  0.93760100  0.03429400  1
  Se  Se21  1  0.28273900  0.36946700  0.84423300  1
  Se  Se22  1  0.93760100  0.03429400  0.52574000  1
  Se  Se23  1  0.61634500  0.70151200  0.19037600  1
  Se  Se24  1  0.44248900  0.69172200  0.59258900  1
  Se  Se25  1  0.10601200  0.33815600  0.24279800  1
  Se  Se26  1  0.76096400  0.00560700  0.90308500  1
  Se  Se27  1  0.00560700  0.90308500  0.76096400  1
  Se  Se28  1  0.69172200  0.59258900  0.44248900  1
  Se  Se29  1  0.33815600  0.24279800  0.10601200  1
  Se  Se30  1  0.24279800  0.10601200  0.33815600  1
  Se  Se31  1  0.90308500  0.76096400  0.00560700  1
  Se  Se32  1  0.59258900  0.44248900  0.69172200  1
  Se  Se33  1  0.85204200  0.62089400  0.71496900  1
  Se  Se34  1  0.51794200  0.27248900  0.37915400  1
  Se  Se35  1  0.20950000  0.96042400  0.05687600  1
  Se  Se36  1  0.27248900  0.37915400  0.51794200  1
  Se  Se37  1  0.96042400  0.05687600  0.20950000  1
  Se  Se38  1  0.62089400  0.71496900  0.85204200  1
  Se  Se39  1  0.05687600  0.20950000  0.96042400  1
  Se  Se40  1  0.71496900  0.85204200  0.62089400  1
  Se  Se41  1  0.37915400  0.51794200  0.27248900  1
loop_
_geom_bond_atom_site_label_1
_geom_bond_atom_site_label_2
_geom_bond_distance
_geom_bond_site_symmetry_2
Al0 Se0 2.378280 1_555
Al0 Se12 2.386466 1_565
Al0 Se6 2.396789 1_555
Al0 Se9 2.402610 1_555
Al1 Se1 2.378280 1_555
Al1 Se7 2.386466 1_655
Al1 Se10 2.396789 1_555
Al1 Se13 2.402610 1_555
Al2 Se2 2.378280 1_555
Al2 Se11 2.386466 1_556
Al2 Se14 2.396789 1_555
Al2 Se8 2.402610 1_555
Al3 Se4 2.378900 1_455
Al3 Se18 2.389268 1_555
Al3 Se15 2.393714 1_555
Al3 Se21 2.406669 1_555
Al4 Se5 2.378900 1_545
Al4 Se16 2.389268 1_555
Al4 Se22 2.393714 1_555
Al4 Se19 2.406669 1_555
Al5 Se3 2.378900 1_554
Al5 Se23 2.389268 1_555
Al5 Se20 2.393714 1_555
Al5 Se17 2.406669 1_555
Al6 Se37 2.579441 1_455
Al6 Se35 2.579441 1_545
Al6 Se39 2.579441 1_554
Al6 Se29 2.621477 1_555
Al6 Se25 2.621477 1_555
Al6 Se30 2.621477 1_555
Al7 Se27 2.452349 1_655
Al7 Se26 2.452349 1_565
Al7 Se31 2.452349 1_556
Al7 Se38 2.818835 1_555
Al7 Se33 2.818835 1_555
Al7 Se40 2.818835 1_555
Al8 Se41 2.451799 1_555
Al8 Se34 2.451799 1_555
Al8 Se36 2.451799 1_555
Al8 Se30 2.834339 1_555
Al8 Se25 2.834339 1_555
Al8 Se29 2.834339 1_555
Al9 Se32 2.574480 1_555
Al9 Se24 2.574481 1_555
Al9 Se28 2.574481 1_555
Al9 Se40 2.623033 1_555
Al9 Se33 2.623033 1_555
Al9 Se38 2.623033 1_555
Se0 Tb2 2.912065 1_555
Se0 Tb8 2.919795 1_555
Se0 Tb5 2.948495 1_455
Se1 Tb3 2.912065 1_555
Se1 Tb0 2.919795 1_555
Se1 Tb6 2.948495 1_554
Se2 Tb7 2.912065 1_555
Se2 Tb4 2.919795 1_555
Se2 Tb1 2.948495 1_545
Se3 Tb14 2.907662 1_555
Se3 Tb11 2.920604 1_555
Se3 Tb17 2.951880 1_556
Se4 Tb9 2.907662 1_555
Se4 Tb15 2.920604 1_555
Se4 Tb12 2.951880 1_655
Se5 Tb16 2.907662 1_555
Se5 Tb13 2.920604 1_555
Se5 Tb10 2.951880 1_565
Se6 Tb7 2.922501 1_565
Se6 Tb1 2.972181 1_555
Se6 Tb16 3.151513 1_555
Se7 Tb8 2.918781 1_555
Se7 Tb2 3.034249 1_555
Se7 Tb17 3.115790 1_555
Se8 Tb6 2.883173 1_555
Se8 Tb0 2.952518 1_556
Se8 Tb15 3.028000 1_555
Se9 Tb1 2.883173 1_555
Se9 Tb4 2.952518 1_565
Se9 Tb11 3.028000 1_555
Se10 Tb2 2.922501 1_655
Se10 Tb5 2.972181 1_555
Se10 Tb9 3.151513 1_555
Se11 Tb0 2.918781 1_555
Se11 Tb3 3.034249 1_555
Se11 Tb10 3.115790 1_555
Se12 Tb4 2.918781 1_555
Se12 Tb7 3.034249 1_555
Se12 Tb12 3.115790 1_555
Se13 Tb5 2.883173 1_555
Se13 Tb8 2.952518 1_655
Se13 Tb13 3.028000 1_555
Se14 Tb3 2.922501 1_556
Se14 Tb6 2.972181 1_555
Se14 Tb14 3.151513 1_555
Se15 Tb17 2.888789 1_556
Se15 Tb11 2.968613 1_555
Se15 Tb6 3.130859 1_455
Se16 Tb15 2.965309 1_555
Se16 Tb9 2.993006 1_555
Se16 Tb7 3.099488 1_555
Se17 Tb16 2.875292 1_555
Se17 Tb10 2.993497 1_565
Se17 Tb8 3.061970 1_555
Se18 Tb11 2.965309 1_555
Se18 Tb14 2.993006 1_555
Se18 Tb2 3.099488 1_555
Se19 Tb9 2.875292 1_555
Se19 Tb12 2.993497 1_655
Se19 Tb0 3.061970 1_555
Se20 Tb10 2.888789 1_565
Se20 Tb13 2.968613 1_555
Se20 Tb1 3.130860 1_554
Se21 Tb14 2.875292 1_555
Se21 Tb17 2.993497 1_556
Se21 Tb4 3.061970 1_555
Se22 Tb12 2.888789 1_655
Se22 Tb15 2.968613 1_555
Se22 Tb5 3.130859 1_545
Se23 Tb13 2.965309 1_555
Se23 Tb16 2.993006 1_555
Se23 Tb3 3.099488 1_555
Se24 Tb16 2.924810 1_555
Se24 Tb14 2.965315 1_555
Se24 Tb2 3.046912 1_555
Se24 Tb1 3.495769 1_555
Se25 Tb17 2.934996 1_555
Se25 Tb0 2.969450 1_455
Se25 Tb12 3.016692 1_555
Se26 Tb15 2.915310 1_555
Se26 Tb1 2.975444 1_545
Se26 Tb13 3.072569 1_546
Se27 Tb11 2.915310 1_555
Se27 Tb5 2.975444 1_455
Se27 Tb15 3.072569 1_465
Se28 Tb9 2.924810 1_555
Se28 Tb16 2.965315 1_555
Se28 Tb3 3.046912 1_555
Se28 Tb5 3.495769 1_555
Se29 Tb10 2.934996 1_555
Se29 Tb4 2.969450 1_554
Se29 Tb17 3.016692 1_555
Se30 Tb12 2.934996 1_555
Se30 Tb8 2.969450 1_545
Se30 Tb10 3.016692 1_555
Se31 Tb13 2.915310 1_555
Se31 Tb6 2.975444 1_554
Se31 Tb11 3.072569 1_654
Se32 Tb14 2.924810 1_555
Se32 Tb9 2.965315 1_555
Se32 Tb7 3.046912 1_555
Se32 Tb6 3.495769 1_555
Se33 Tb6 2.936039 1_555
Se33 Tb9 2.945094 1_555
Se33 Tb5 3.009871 1_555
Se34 Tb7 2.929360 1_555
Se34 Tb10 2.988400 1_555
Se34 Tb3 3.052834 1_555
Se35 Tb8 2.910755 1_555
Se35 Tb4 2.994215 1_564
Se35 Tb11 3.065334 1_554
Se35 Tb10 3.483870 1_565
Se36 Tb2 2.929360 1_555
Se36 Tb12 2.988400 1_555
Se36 Tb7 3.052834 1_555
Se37 Tb0 2.910755 1_555
Se37 Tb8 2.994215 1_645
Se37 Tb13 3.065334 1_545
Se37 Tb12 3.483870 1_655
Se38 Tb1 2.936039 1_555
Se38 Tb14 2.945094 1_555
Se38 Tb6 3.009871 1_555
Se39 Tb4 2.910755 1_555
Se39 Tb0 2.994215 1_456
Se39 Tb15 3.065334 1_455
Se39 Tb17 3.483870 1_556
Se40 Tb5 2.936039 1_555
Se40 Tb16 2.945094 1_555
Se40 Tb1 3.009871 1_555
Se41 Tb3 2.929360 1_555
Se41 Tb17 2.988400 1_555
Se41 Tb2 3.052834 1_555
