# generated using pymatgen
data_LaYbSe3
_symmetry_space_group_name_H-M   'P 1'
_cell_length_a   7.57814835
_cell_length_b   7.57814835
_cell_length_c   9.30071000
_cell_angle_alpha   90.00000000
_cell_angle_beta   90.00000000
_cell_angle_gamma   147.78947991
_symmetry_Int_Tables_number   1
_chemical_formula_structural   LaYbSe3
_chemical_formula_sum   'La2 Yb2 Se6'
_cell_volume   284.70513157
_cell_formula_units_Z   2
loop_
 _symmetry_equiv_pos_site_id
 _symmetry_equiv_pos_as_xyz
  1  'x, y, z'
loop_
 _atom_site_type_symbol
 _atom_site_label
 _atom_site_symmetry_multiplicity
 _atom_site_fract_x
 _atom_site_fract_y
 _atom_site_fract_z
 _atom_site_occupancy
  La  La0  1  0.25022200  0.74977800  0.75000000  1
  La  La1  1  0.74977800  0.25022200  0.25000000  1
  Yb  Yb0  1  0.00000000  0.00000000  0.00000000  1
  Yb  Yb1  1  0.00000000  0.00000000  0.50000000  1
  Se  Se0  1  0.10828000  0.89172000  0.25000000  1
  Se  Se1  1  0.89172000  0.10828000  0.75000000  1
  Se  Se2  1  0.63891400  0.36108600  0.57779100  1
  Se  Se3  1  0.36108600  0.63891400  0.42220900  1
  Se  Se4  1  0.63891400  0.36108600  0.92220900  1
  Se  Se5  1  0.36108600  0.63891400  0.07779100  1
loop_
_geom_bond_atom_site_label_1
_geom_bond_atom_site_label_2
_geom_bond_distance
_geom_bond_site_symmetry_2
La0 Se1 2.943564 1_565
La0 Se1 2.943564 1_455
La0 Se4 3.100258 1_455
La0 Se2 3.100258 1_455
La0 Se4 3.100258 1_565
La0 Se2 3.100258 1_565
La0 Se5 3.449726 1_556
La0 Se3 3.449726 1_555
La1 Se0 2.943564 1_545
La1 Se0 2.943564 1_655
La1 Se5 3.100258 1_655
La1 Se5 3.100258 1_545
La1 Se3 3.100258 1_545
La1 Se3 3.100258 1_655
La1 Se4 3.449726 1_554
La1 Se2 3.449726 1_555
Se0 Yb1 2.809356 1_565
Se0 Yb0 2.809356 1_565
Se1 Yb1 2.809356 1_655
Se1 Yb0 2.809356 1_656
Se2 Yb1 3.005728 1_665
Se2 Yb1 3.005728 1_555
Se3 Yb1 3.005728 1_665
Se3 Yb1 3.005728 1_555
Se4 Yb0 3.005728 1_666
Se4 Yb0 3.005728 1_556
Se5 Yb0 3.005728 1_665
Se5 Yb0 3.005728 1_555
