# generated using pymatgen
data_CaCr2O4
_symmetry_space_group_name_H-M   'P 1'
_cell_length_a   6.33124423
_cell_length_b   6.33124423
_cell_length_c   20.73699547
_cell_angle_alpha   79.26120404
_cell_angle_beta   79.26120404
_cell_angle_gamma   58.31969845
_symmetry_Int_Tables_number   1
_chemical_formula_structural   CaCr2O4
_chemical_formula_sum   'Ca8 Cr16 O32'
_cell_volume   691.08390061
_cell_formula_units_Z   8
loop_
 _symmetry_equiv_pos_site_id
 _symmetry_equiv_pos_as_xyz
  1  'x, y, z'
loop_
 _atom_site_type_symbol
 _atom_site_label
 _atom_site_symmetry_multiplicity
 _atom_site_fract_x
 _atom_site_fract_y
 _atom_site_fract_z
 _atom_site_occupancy
  Ca  Ca0  1  0.65398400  0.65398400  0.02788700  1
  Ca  Ca1  1  0.12447900  0.12447900  0.12505300  1
  Ca  Ca2  1  0.90299100  0.90299100  0.28394400  1
  Ca  Ca3  1  0.37269500  0.37269500  0.37507600  1
  Ca  Ca4  1  0.62496300  0.62496300  0.62510500  1
  Ca  Ca5  1  0.50194200  0.50194200  0.49785900  1
  Ca  Ca6  1  0.87798400  0.87798400  0.87452200  1
  Ca  Ca7  1  0.74861500  0.74861500  0.75158800  1
  Cr  Cr0  1  0.63113400  0.12154000  0.12502600  1
  Cr  Cr1  1  0.24983700  0.24983700  0.25142700  1
  Cr  Cr2  1  0.12154000  0.63113400  0.12502600  1
  Cr  Cr3  1  0.14963400  0.14963400  0.53392500  1
  Cr  Cr4  1  0.88424000  0.37019300  0.37441200  1
  Cr  Cr5  1  0.60998000  0.60998000  0.22235400  1
  Cr  Cr6  1  0.40030200  0.40030200  0.78164100  1
  Cr  Cr7  1  0.37019300  0.88424000  0.37441200  1
  Cr  Cr8  1  0.12525800  0.62505000  0.62485900  1
  Cr  Cr9  1  0.84933700  0.84933700  0.46792800  1
  Cr  Cr10  1  0.62505000  0.12525800  0.62485900  1
  Cr  Cr11  1  0.87861100  0.37017000  0.87481900  1
  Cr  Cr12  1  0.37017000  0.87861100  0.87481900  1
  Cr  Cr13  1  0.10034600  0.10034600  0.71646100  1
  Cr  Cr14  1  0.99871300  0.99871300  0.00308500  1
  Cr  Cr15  1  0.36284200  0.36284200  0.97072500  1
  O  O0  1  0.26280600  0.81190800  0.06296400  1
  O  O1  1  0.92339600  0.92339600  0.17611300  1
  O  O2  1  0.81190800  0.26280600  0.06296400  1
  O  O3  1  0.83134800  0.83134800  0.06765100  1
  O  O4  1  0.42243400  0.42243400  0.18408200  1
  O  O5  1  0.50764000  0.06691700  0.31214100  1
  O  O6  1  0.44672900  0.95539900  0.19018800  1
  O  O7  1  0.17093000  0.17093000  0.43639600  1
  O  O8  1  0.06691700  0.50764000  0.31214100  1
  O  O9  1  0.32586200  0.32586200  0.06539700  1
  O  O10  1  0.08586700  0.08586700  0.31766500  1
  O  O11  1  0.95539900  0.44672900  0.19018800  1
  O  O12  1  0.80710100  0.29140400  0.56649800  1
  O  O13  1  0.69458500  0.69458500  0.42525800  1
  O  O14  1  0.71228500  0.18658000  0.43077400  1
  O  O15  1  0.42134000  0.42134000  0.68318000  1
  O  O16  1  0.29140400  0.80710100  0.56649800  1
  O  O17  1  0.57759500  0.57759500  0.31730600  1
  O  O18  1  0.31329800  0.31329800  0.57129400  1
  O  O19  1  0.18658000  0.71228500  0.43077400  1
  O  O20  1  0.93761400  0.93761400  0.67862300  1
  O  O21  1  0.06342000  0.53591300  0.81836600  1
  O  O22  1  0.95921100  0.44268500  0.68336100  1
  O  O23  1  0.67599700  0.67599700  0.92034500  1
  O  O24  1  0.53591300  0.06342000  0.81836600  1
  O  O25  1  0.82854100  0.82854100  0.56645100  1
  O  O26  1  0.55431500  0.55431500  0.82206300  1
  O  O27  1  0.44268500  0.95921100  0.68336100  1
  O  O28  1  0.16801500  0.16801500  0.93555400  1
  O  O29  1  0.19493600  0.71144300  0.94122700  1
  O  O30  1  0.07759700  0.07759700  0.81476800  1
  O  O31  1  0.71144300  0.19493600  0.94122700  1
loop_
_geom_bond_atom_site_label_1
_geom_bond_atom_site_label_2
_geom_bond_distance
_geom_bond_site_symmetry_2
Ca0 O0 2.158997 1_555
Ca0 O2 2.158997 1_555
Ca0 O23 2.191103 1_554
Ca0 O3 2.283973 1_555
Ca1 O2 2.247211 1_455
Ca1 O0 2.247211 1_545
Ca1 O1 2.249541 1_445
Ca1 O9 2.305116 1_555
Ca1 O11 2.308037 1_455
Ca1 O6 2.308037 1_545
Ca2 O8 2.153243 1_655
Ca2 O5 2.153243 1_565
Ca2 O1 2.199023 1_555
Ca2 O10 2.276328 1_665
Ca3 O8 2.229312 1_555
Ca3 O5 2.229312 1_555
Ca3 O19 2.258838 1_555
Ca3 O14 2.258838 1_555
Ca3 O7 2.320317 1_555
Ca3 O17 2.326010 1_555
Ca4 O27 2.266610 1_555
Ca4 O22 2.266610 1_555
Ca4 O12 2.267810 1_555
Ca4 O16 2.267810 1_555
Ca4 O15 2.315788 1_555
Ca4 O25 2.319141 1_555
Ca5 O12 2.268981 1_555
Ca5 O16 2.268981 1_555
Ca5 O19 2.290666 1_555
Ca5 O14 2.290666 1_555
Ca5 O18 2.305353 1_555
Ca5 O13 2.331459 1_555
Ca6 O23 2.232890 1_555
Ca6 O24 2.276953 1_565
Ca6 O21 2.276953 1_655
Ca6 O30 2.289154 1_665
Ca6 O31 2.306621 1_565
Ca6 O29 2.306621 1_655
Ca7 O27 2.266447 1_555
Ca7 O22 2.266447 1_555
Ca7 O24 2.284289 1_565
Ca7 O21 2.284289 1_655
Ca7 O20 2.303823 1_555
Ca7 O26 2.326359 1_555
Cr0 O2 1.965579 1_555
Cr0 O1 1.979152 1_545
Cr0 O3 2.050454 1_545
Cr0 O6 2.113709 1_545
Cr0 O4 2.120677 1_555
Cr0 O9 2.146239 1_555
Cr1 O8 1.956389 1_555
Cr1 O5 1.956389 1_555
Cr1 O10 2.027646 1_555
Cr1 O4 2.110770 1_555
Cr1 O6 2.119705 1_545
Cr1 O11 2.119705 1_455
Cr2 O0 1.965579 1_555
Cr2 O1 1.979152 1_455
Cr2 O3 2.050454 1_455
Cr2 O11 2.113709 1_455
Cr2 O4 2.120677 1_555
Cr2 O9 2.146239 1_555
Cr3 O16 1.897488 1_545
Cr3 O12 1.897488 1_455
Cr3 O7 1.985585 1_555
Cr3 O18 2.115221 1_555
Cr4 O8 1.960669 1_655
Cr4 O10 2.017615 1_655
Cr4 O14 2.061915 1_555
Cr4 O7 2.097206 1_655
Cr4 O17 2.120234 1_555
Cr4 O13 2.125220 1_555
Cr5 O6 1.906565 1_555
Cr5 O11 1.906565 1_555
Cr5 O17 1.924674 1_555
Cr5 O4 2.373396 1_555
Cr6 O21 1.892406 1_555
Cr6 O24 1.892406 1_555
Cr6 O15 2.005070 1_555
Cr6 O26 2.052348 1_555
Cr7 O5 1.960669 1_565
Cr7 O10 2.017615 1_565
Cr7 O19 2.061915 1_555
Cr7 O7 2.097206 1_565
Cr7 O17 2.120234 1_555
Cr7 O13 2.125220 1_555
Cr8 O16 2.044242 1_555
Cr8 O22 2.046387 1_455
Cr8 O15 2.089070 1_555
Cr8 O25 2.092897 1_455
Cr8 O18 2.098341 1_555
Cr8 O20 2.104695 1_455
Cr9 O19 1.896194 1_655
Cr9 O14 1.896194 1_565
Cr9 O25 2.006620 1_555
Cr9 O13 2.087420 1_555
Cr10 O12 2.044242 1_555
Cr10 O27 2.046387 1_545
Cr10 O15 2.089070 1_555
Cr10 O25 2.092897 1_545
Cr10 O18 2.098341 1_555
Cr10 O20 2.104695 1_545
Cr11 O23 1.976601 1_555
Cr11 O21 2.040117 1_655
Cr11 O31 2.090045 1_555
Cr11 O28 2.092292 1_655
Cr11 O30 2.095924 1_655
Cr11 O26 2.149224 1_555
Cr12 O23 1.976601 1_555
Cr12 O24 2.040117 1_565
Cr12 O29 2.090045 1_555
Cr12 O28 2.092292 1_565
Cr12 O30 2.095924 1_565
Cr12 O26 2.149224 1_555
Cr13 O22 1.899273 1_455
Cr13 O27 1.899273 1_545
Cr13 O30 2.000073 1_555
Cr13 O20 2.110969 1_445
Cr14 O2 1.971210 1_565
Cr14 O0 1.971210 1_655
Cr14 O3 2.039662 1_555
Cr14 O28 2.084952 1_664
Cr14 O31 2.097387 1_564
Cr14 O29 2.097387 1_654
Cr15 O31 1.910568 1_555
Cr15 O29 1.910568 1_555
Cr15 O9 1.918027 1_556
Cr15 O28 2.417361 1_555
