# generated using pymatgen
data_Tm6Ga17Pd5
_symmetry_space_group_name_H-M   'P 1'
_cell_length_a   8.15761755
_cell_length_b   8.15761755
_cell_length_c   15.66989102
_cell_angle_alpha   76.05012166
_cell_angle_beta   76.05012166
_cell_angle_gamma   30.27768493
_symmetry_Int_Tables_number   1
_chemical_formula_structural   Tm6Ga17Pd5
_chemical_formula_sum   'Tm6 Ga17 Pd5'
_cell_volume   509.10076324
_cell_formula_units_Z   1
loop_
 _symmetry_equiv_pos_site_id
 _symmetry_equiv_pos_as_xyz
  1  'x, y, z'
loop_
 _atom_site_type_symbol
 _atom_site_label
 _atom_site_symmetry_multiplicity
 _atom_site_fract_x
 _atom_site_fract_y
 _atom_site_fract_z
 _atom_site_occupancy
  Tm  Tm0  1  0.74928700  0.74928700  0.75180000  1
  Tm  Tm1  1  0.25071300  0.25071300  0.24820000  1
  Tm  Tm2  1  0.60045400  0.60045400  0.59997500  1
  Tm  Tm3  1  0.09560600  0.09560600  0.09567100  1
  Tm  Tm4  1  0.90439400  0.90439400  0.90432900  1
  Tm  Tm5  1  0.39954600  0.39954600  0.40002500  1
  Ga  Ga0  1  0.82125300  0.82125300  0.54009900  1
  Ga  Ga1  1  0.32643600  0.32643600  0.04177400  1
  Ga  Ga2  1  0.67356400  0.67356400  0.95822600  1
  Ga  Ga3  1  0.17874700  0.17874700  0.45990100  1
  Ga  Ga4  1  0.54233100  0.54233100  0.82627100  1
  Ga  Ga5  1  0.04035500  0.04035500  0.32140400  1
  Ga  Ga6  1  0.95964500  0.95964500  0.67859600  1
  Ga  Ga7  1  0.45766900  0.45766900  0.17372900  1
  Ga  Ga8  1  0.26541900  0.26541900  0.89559400  1
  Ga  Ga9  1  0.76036500  0.76036500  0.39393000  1
  Ga  Ga10  1  0.23963500  0.23963500  0.60607000  1
  Ga  Ga11  1  0.73458100  0.73458100  0.10440600  1
  Ga  Ga12  1  0.39537400  0.39537400  0.76191800  1
  Ga  Ga13  1  0.89360200  0.89360200  0.26440300  1
  Ga  Ga14  1  0.10639800  0.10639800  0.73559700  1
  Ga  Ga15  1  0.60462600  0.60462600  0.23808200  1
  Ga  Ga16  1  0.00000000  0.00000000  0.50000000  1
  Pd  Pd0  1  0.10057900  0.10057900  0.89934500  1
  Pd  Pd1  1  0.58983600  0.58983600  0.40976000  1
  Pd  Pd2  1  0.41016400  0.41016400  0.59024000  1
  Pd  Pd3  1  0.89942100  0.89942100  0.10065500  1
  Pd  Pd4  1  0.50000000  0.50000000  0.00000000  1
loop_
_geom_bond_atom_site_label_1
_geom_bond_atom_site_label_2
_geom_bond_distance
_geom_bond_site_symmetry_2
Tm0 Tm4 3.820480 1_555
Tm1 Tm3 3.820480 1_555
Ga0 Ga10 2.568261 1_565
Ga0 Ga10 2.568261 1_655
Ga0 Ga9 2.694951 1_555
Ga0 Ga16 2.726913 1_665
Ga0 Pd2 2.768816 1_565
Ga0 Pd2 2.768816 1_655
Ga0 Tm5 3.086276 1_655
Ga0 Tm5 3.086276 1_565
Ga0 Tm0 3.226655 1_555
Ga0 Tm2 3.367906 1_555
Ga1 Ga11 2.624034 1_545
Ga1 Ga11 2.624034 1_455
Ga1 Pd4 2.646998 1_555
Ga1 Pd3 2.690909 1_545
Ga1 Pd3 2.690909 1_455
Ga1 Ga8 2.696267 1_554
Ga1 Tm4 3.060068 1_544
Ga1 Tm4 3.060068 1_454
Ga1 Tm1 3.155716 1_555
Ga1 Tm3 3.520724 1_555
Ga2 Ga8 2.624034 1_565
Ga2 Ga8 2.624034 1_655
Ga2 Pd4 2.646998 1_556
Ga2 Pd0 2.690909 1_565
Ga2 Pd0 2.690909 1_655
Ga2 Tm3 3.060068 1_566
Ga2 Tm3 3.060068 1_656
Ga2 Tm0 3.155716 1_555
Ga2 Tm4 3.520724 1_555
Ga3 Ga9 2.568261 1_545
Ga3 Ga9 2.568261 1_455
Ga3 Pd1 2.768816 1_455
Ga3 Pd1 2.768816 1_545
Ga3 Tm2 3.086276 1_455
Ga3 Tm2 3.086276 1_545
Ga3 Tm1 3.226655 1_555
Ga3 Tm5 3.367906 1_555
Ga4 Pd4 2.636085 1_556
Ga4 Pd0 2.686283 1_565
Ga4 Pd0 2.686283 1_655
Ga4 Tm4 3.070323 1_455
Ga4 Tm4 3.070323 1_545
Ga4 Tm0 3.175752 1_555
Ga5 Pd1 2.757146 1_545
Ga5 Pd1 2.757146 1_455
Ga5 Tm5 3.099952 1_545
Ga5 Tm5 3.099952 1_455
Ga5 Tm1 3.223851 1_555
Ga5 Tm3 3.425153 1_555
Ga6 Pd2 2.757146 1_655
Ga6 Pd2 2.757146 1_565
Ga6 Tm2 3.099952 1_655
Ga6 Tm2 3.099952 1_565
Ga6 Tm0 3.223851 1_555
Ga6 Tm4 3.425153 1_555
Ga7 Pd4 2.636085 1_555
Ga7 Pd3 2.686283 1_455
Ga7 Pd3 2.686283 1_545
Ga7 Tm3 3.070323 1_655
Ga7 Tm3 3.070323 1_565
Ga7 Tm1 3.175752 1_555
Ga8 Pd0 2.582018 1_555
Ga8 Tm4 3.081822 1_545
Ga8 Tm4 3.081822 1_455
Ga8 Tm0 3.156946 1_545
Ga8 Tm0 3.156946 1_455
Ga8 Tm3 3.576835 1_556
Ga9 Pd1 2.634689 1_555
Ga9 Tm5 3.075249 1_655
Ga9 Tm5 3.075249 1_565
Ga9 Tm1 3.154354 1_655
Ga9 Tm1 3.154354 1_565
Ga10 Ga14 2.528911 1_555
Ga10 Pd2 2.634689 1_555
Ga10 Ga3 2.694951 1_555
Ga10 Tm2 3.075249 1_545
Ga10 Tm2 3.075249 1_455
Ga10 Tm0 3.154354 1_545
Ga10 Tm0 3.154354 1_455
Ga11 Ga15 2.536774 1_555
Ga11 Pd3 2.582018 1_555
Ga11 Ga2 2.696267 1_554
Ga11 Tm3 3.081822 1_565
Ga11 Tm3 3.081822 1_655
Ga11 Tm1 3.156946 1_565
Ga11 Tm1 3.156946 1_655
Ga11 Tm4 3.576835 1_554
Ga12 Ga8 2.536774 1_555
Ga12 Ga6 2.570588 1_455
Ga12 Ga6 2.570588 1_545
Ga12 Pd2 2.641650 1_555
Ga12 Ga4 2.745759 1_555
Ga12 Tm4 3.114025 1_455
Ga12 Tm4 3.114025 1_545
Ga12 Tm0 3.168507 1_545
Ga12 Tm0 3.168507 1_455
Ga13 Ga9 2.528911 1_555
Ga13 Pd3 2.544574 1_555
Ga13 Ga7 2.619078 1_655
Ga13 Ga7 2.619078 1_565
Ga13 Ga5 2.677806 1_665
Ga13 Tm5 3.027092 1_655
Ga13 Tm5 3.027092 1_565
Ga13 Tm1 3.154796 1_565
Ga13 Tm1 3.154796 1_655
Ga13 Tm3 3.593116 1_665
Ga14 Pd0 2.544574 1_555
Ga14 Ga4 2.619078 1_455
Ga14 Ga4 2.619078 1_545
Ga14 Ga6 2.677806 1_445
Ga14 Tm2 3.027092 1_545
Ga14 Tm2 3.027092 1_455
Ga14 Tm0 3.154796 1_545
Ga14 Tm0 3.154796 1_455
Ga14 Tm4 3.593116 1_445
Ga15 Ga5 2.570588 1_565
Ga15 Ga5 2.570588 1_655
Ga15 Pd1 2.641650 1_555
Ga15 Ga7 2.745759 1_555
Ga15 Tm3 3.114025 1_565
Ga15 Tm3 3.114025 1_655
Ga15 Tm1 3.168507 1_655
Ga15 Tm1 3.168507 1_565
Ga16 Ga6 2.710642 1_445
Ga16 Ga5 2.710642 1_555
Ga16 Ga3 2.726913 1_555
Ga16 Pd1 2.746044 1_455
Ga16 Pd1 2.746044 1_545
Ga16 Pd2 2.746044 1_545
Ga16 Pd2 2.746044 1_455
Pd0 Pd4 2.878837 1_456
Pd0 Pd4 2.878837 1_546
Pd0 Tm3 3.057788 1_556
Pd0 Tm4 3.071150 1_445
Pd1 Tm2 3.026745 1_555
Pd1 Tm5 3.038572 1_555
Pd2 Tm5 3.026745 1_555
Pd2 Tm2 3.038572 1_555
Pd3 Pd4 2.878837 1_655
Pd3 Pd4 2.878837 1_565
Pd3 Tm4 3.057788 1_554
Pd3 Tm3 3.071150 1_665
Pd4 Tm3 3.190740 1_565
Pd4 Tm3 3.190740 1_655
Pd4 Tm4 3.190740 1_544
Pd4 Tm4 3.190740 1_454
