# generated using pymatgen
data_K2Na2NdF7
_symmetry_space_group_name_H-M   'P 1'
_cell_length_a   11.17436297
_cell_length_b   11.17436297
_cell_length_c   11.17436297
_cell_angle_alpha   109.47122063
_cell_angle_beta   109.47122063
_cell_angle_gamma   109.47122063
_symmetry_Int_Tables_number   1
_chemical_formula_structural   K2Na2NdF7
_chemical_formula_sum   'K12 Na12 Nd6 F42'
_cell_volume   1074.10424265
_cell_formula_units_Z   6
loop_
 _symmetry_equiv_pos_site_id
 _symmetry_equiv_pos_as_xyz
  1  'x, y, z'
loop_
 _atom_site_type_symbol
 _atom_site_label
 _atom_site_symmetry_multiplicity
 _atom_site_fract_x
 _atom_site_fract_y
 _atom_site_fract_z
 _atom_site_occupancy
  K  K0  1  0.69308402  0.69308402  0.38616803  1
  K  K1  1  0.30691598  0.30691598  0.61383197  1
  K  K2  1  0.30691598  0.69308402  -0.00000000  1
  K  K3  1  0.69308402  0.30691598  0.00000000  1
  K  K4  1  0.69308402  0.38616803  0.69308402  1
  K  K5  1  0.69308402  -0.00000000  0.30691598  1
  K  K6  1  0.30691598  0.61383197  0.30691598  1
  K  K7  1  0.30691598  -0.00000000  0.69308402  1
  K  K8  1  0.38616803  0.69308402  0.69308402  1
  K  K9  1  0.61383197  0.30691598  0.30691598  1
  K  K10  1  -0.00000000  0.69308402  0.30691598  1
  K  K11  1  0.00000000  0.30691598  0.69308402  1
  Na  Na0  1  0.76071798  0.76071798  0.76071798  1
  Na  Na1  1  0.23928202  0.23928202  0.23928202  1
  Na  Na2  1  0.23928202  -0.00000000  -0.00000000  1
  Na  Na3  1  0.00000000  0.23928202  0.00000000  1
  Na  Na4  1  0.76071798  0.00000000  -0.00000000  1
  Na  Na5  1  -0.00000000  0.76071798  -0.00000000  1
  Na  Na6  1  -0.00000000  -0.00000000  0.23928202  1
  Na  Na7  1  0.00000000  0.00000000  0.76071798  1
  Na  Na8  1  0.50000000  0.50000000  0.50000000  1
  Na  Na9  1  0.50000000  0.00000000  -0.00000000  1
  Na  Na10  1  0.00000000  0.50000000  -0.00000000  1
  Na  Na11  1  0.00000000  0.00000000  0.50000000  1
  Nd  Nd0  1  0.63472438  0.63472438  0.00000000  1
  Nd  Nd1  1  0.36527562  0.36527562  -0.00000000  1
  Nd  Nd2  1  0.63472438  0.00000000  0.63472438  1
  Nd  Nd3  1  0.36527562  -0.00000000  0.36527562  1
  Nd  Nd4  1  0.00000000  0.63472438  0.63472438  1
  Nd  Nd5  1  -0.00000000  0.36527562  0.36527562  1
  F  F0  1  0.74747545  0.57150235  0.57150235  1
  F  F1  1  0.25252455  0.42849765  0.42849765  1
  F  F2  1  0.25252455  0.82402690  0.82402690  1
  F  F3  1  -0.00000000  0.42849765  0.17597310  1
  F  F4  1  0.57150235  0.57150235  0.74747545  1
  F  F5  1  0.74747545  0.17597310  0.17597310  1
  F  F6  1  0.00000000  0.57150235  0.82402690  1
  F  F7  1  0.42849765  0.42849765  0.25252455  1
  F  F8  1  0.00000000  0.17597310  0.42849765  1
  F  F9  1  0.82402690  0.82402690  0.25252455  1
  F  F10  1  0.00000000  0.82402690  0.57150235  1
  F  F11  1  0.17597310  0.17597310  0.74747545  1
  F  F12  1  0.42849765  0.17597310  -0.00000000  1
  F  F13  1  0.57150235  0.82402690  0.00000000  1
  F  F14  1  0.17597310  0.42849765  -0.00000000  1
  F  F15  1  0.82402690  0.57150235  -0.00000000  1
  F  F16  1  0.57150235  0.74747545  0.57150235  1
  F  F17  1  0.57150235  0.00000000  0.82402690  1
  F  F18  1  0.42849765  0.25252455  0.42849765  1
  F  F19  1  0.42849765  0.00000000  0.17597310  1
  F  F20  1  0.17597310  0.00000000  0.42849765  1
  F  F21  1  0.82402690  0.00000000  0.57150235  1
  F  F22  1  0.17597310  0.74747545  0.17597310  1
  F  F23  1  0.82402690  0.25252455  0.82402690  1
  F  F24  1  0.86267577  0.36267577  0.50000000  1
  F  F25  1  0.13732423  0.63732423  0.50000000  1
  F  F26  1  0.36267577  0.50000000  0.86267577  1
  F  F27  1  0.86267577  0.50000000  0.36267577  1
  F  F28  1  0.63732423  0.50000000  0.13732423  1
  F  F29  1  0.13732423  0.50000000  0.63732423  1
  F  F30  1  0.50000000  0.86267577  0.36267577  1
  F  F31  1  0.36267577  0.86267577  0.50000000  1
  F  F32  1  0.50000000  0.13732423  0.63732423  1
  F  F33  1  0.63732423  0.13732423  0.50000000  1
  F  F34  1  0.50000000  0.36267577  0.86267577  1
  F  F35  1  0.50000000  0.63732423  0.13732423  1
  F  F36  1  0.82377888  0.82377888  0.00000000  1
  F  F37  1  0.17622112  0.17622112  -0.00000000  1
  F  F38  1  0.82377888  0.00000000  0.82377888  1
  F  F39  1  0.17622112  -0.00000000  0.17622112  1
  F  F40  1  0.00000000  0.82377888  0.82377888  1
  F  F41  1  -0.00000000  0.17622112  0.17622112  1
loop_
_geom_bond_atom_site_label_1
_geom_bond_atom_site_label_2
_geom_bond_distance
_geom_bond_site_symmetry_2
F0 Na8 2.356372 1_555
F0 Na0 2.359119 1_555
F0 Nd4 2.443361 1_655
F0 K9 2.828126 1_555
F0 K0 2.844524 1_555
F0 K4 2.844524 1_555
F1 Na8 2.356372 1_555
F1 Na1 2.359119 1_555
F1 Nd5 2.443361 1_555
F1 K8 2.828126 1_555
F1 K6 2.844524 1_555
F1 K1 2.844524 1_555
F2 Na9 2.356372 1_566
F2 Na2 2.359119 1_566
F2 Nd4 2.443361 1_555
F2 K8 2.828126 1_555
F2 K7 2.844523 1_565
F2 K2 2.844523 1_556
F3 Na10 2.356372 1_555
F3 Na3 2.359119 1_555
F3 Nd5 2.443361 1_555
F3 K10 2.828126 1_555
F3 K3 2.844523 1_455
F3 K6 2.844523 1_555
F4 Na8 2.356372 1_555
F4 Na0 2.359119 1_555
F4 Nd0 2.443361 1_556
F4 K1 2.828126 1_555
F4 K8 2.844524 1_555
F4 K4 2.844524 1_555
F5 Na9 2.356372 1_555
F5 Na4 2.359119 1_555
F5 Nd5 2.443361 1_655
F5 K9 2.828126 1_555
F5 K5 2.844523 1_555
F5 K3 2.844523 1_555
F6 Na10 2.356372 1_556
F6 Na5 2.359119 1_556
F6 Nd4 2.443361 1_555
F6 K11 2.828126 1_555
F6 K2 2.844523 1_556
F6 K4 2.844523 1_455
F7 Na8 2.356372 1_555
F7 Na1 2.359119 1_555
F7 Nd1 2.443361 1_555
F7 K0 2.828126 1_555
F7 K6 2.844524 1_555
F7 K9 2.844524 1_555
F8 Na11 2.356372 1_555
F8 Na6 2.359119 1_555
F8 Nd5 2.443361 1_555
F8 K11 2.828126 1_555
F8 K5 2.844523 1_455
F8 K1 2.844523 1_555
F9 Na11 2.356372 1_665
F9 Na6 2.359119 1_665
F9 Nd0 2.443361 1_555
F9 K0 2.828126 1_555
F9 K10 2.844523 1_655
F9 K5 2.844523 1_565
F10 Na11 2.356372 1_565
F10 Na7 2.359119 1_565
F10 Nd4 2.443361 1_555
F10 K10 2.828126 1_555
F10 K7 2.844523 1_565
F10 K0 2.844523 1_455
F11 Na11 2.356372 1_555
F11 Na7 2.359119 1_555
F11 Nd1 2.443361 1_556
F11 K1 2.828126 1_555
F11 K7 2.844523 1_555
F11 K11 2.844523 1_555
F12 Na9 2.356372 1_555
F12 Na2 2.359119 1_555
F12 Nd1 2.443361 1_555
F12 K3 2.828126 1_555
F12 K7 2.844523 1_554
F12 K9 2.844523 1_555
F13 Na9 2.356372 1_565
F13 Na4 2.359119 1_565
F13 Nd0 2.443361 1_555
F13 K2 2.828126 1_555
F13 K5 2.844523 1_565
F13 K8 2.844523 1_554
F14 Na10 2.356372 1_555
F14 Na3 2.359119 1_555
F14 Nd1 2.443361 1_555
F14 K2 2.828126 1_555
F14 K11 2.844523 1_554
F14 K6 2.844523 1_555
F15 Na10 2.356372 1_655
F15 Na5 2.359119 1_655
F15 Nd0 2.443361 1_555
F15 K3 2.828126 1_555
F15 K10 2.844523 1_655
F15 K4 2.844523 1_554
F16 Na8 2.356372 1_555
F16 Na0 2.359119 1_555
F16 Nd2 2.443361 1_565
F16 K6 2.828126 1_555
F16 K8 2.844524 1_555
F16 K0 2.844524 1_555
F17 Na9 2.356372 1_556
F17 Na4 2.359119 1_556
F17 Nd2 2.443361 1_555
F17 K7 2.828126 1_555
F17 K3 2.844523 1_556
F17 K8 2.844523 1_545
F18 Na8 2.356372 1_555
F18 Na1 2.359119 1_555
F18 Nd3 2.443361 1_555
F18 K4 2.828126 1_555
F18 K9 2.844524 1_555
F18 K1 2.844524 1_555
F19 Na9 2.356372 1_555
F19 Na2 2.359119 1_555
F19 Nd3 2.443361 1_555
F19 K5 2.828126 1_555
F19 K2 2.844523 1_545
F19 K9 2.844523 1_555
F20 Na11 2.356372 1_555
F20 Na6 2.359119 1_555
F20 Nd3 2.443361 1_555
F20 K7 2.828126 1_555
F20 K10 2.844523 1_545
F20 K1 2.844523 1_555
F21 Na11 2.356372 1_655
F21 Na7 2.359119 1_655
F21 Nd2 2.443361 1_555
F21 K5 2.828126 1_555
F21 K11 2.844523 1_655
F21 K0 2.844523 1_545
F22 Na10 2.356372 1_555
F22 Na5 2.359119 1_555
F22 Nd3 2.443361 1_565
F22 K6 2.828126 1_555
F22 K10 2.844523 1_555
F22 K2 2.844523 1_555
F23 Na10 2.356372 1_656
F23 Na3 2.359119 1_656
F23 Nd2 2.443361 1_555
F23 K4 2.828126 1_555
F23 K3 2.844523 1_556
F23 K11 2.844523 1_655
F24 Nd4 2.482238 1_655
F24 Nd5 2.482238 1_655
F24 K9 2.593177 1_555
F24 K11 2.593178 1_655
F25 Nd4 2.482238 1_555
F25 Nd5 2.482238 1_555
F25 K8 2.593177 1_555
F25 K10 2.593178 1_555
F26 Nd0 2.482238 1_556
F26 Nd1 2.482238 1_556
F26 K1 2.593177 1_555
F26 K2 2.593178 1_556
F27 Nd4 2.482238 1_655
F27 Nd5 2.482238 1_655
F27 K9 2.593177 1_555
F27 K10 2.593178 1_655
F28 Nd0 2.482238 1_555
F28 Nd1 2.482238 1_555
F28 K0 2.593177 1_555
F28 K3 2.593178 1_555
F29 Nd4 2.482238 1_555
F29 Nd5 2.482238 1_555
F29 K8 2.593177 1_555
F29 K11 2.593178 1_555
F30 Nd2 2.482238 1_565
F30 Nd3 2.482238 1_565
F30 K6 2.593177 1_555
F30 K5 2.593178 1_565
F31 Nd2 2.482238 1_565
F31 Nd3 2.482238 1_565
F31 K6 2.593177 1_555
F31 K7 2.593178 1_565
F32 Nd2 2.482238 1_555
F32 Nd3 2.482238 1_555
F32 K4 2.593177 1_555
F32 K7 2.593178 1_555
F33 Nd2 2.482238 1_555
F33 Nd3 2.482238 1_555
F33 K4 2.593177 1_555
F33 K5 2.593178 1_555
F34 Nd1 2.482238 1_556
F34 Nd0 2.482238 1_556
F34 K1 2.593177 1_555
F34 K3 2.593178 1_556
F35 Nd0 2.482238 1_555
F35 Nd1 2.482238 1_555
F35 K0 2.593177 1_555
F35 K2 2.593178 1_555
F36 Na5 2.302000 1_655
F36 Na6 2.302000 1_665
F36 Na0 2.302000 1_554
F36 Na4 2.302000 1_565
F36 Nd0 2.439378 1_555
F37 Na7 2.302000 1_554
F37 Na3 2.302000 1_555
F37 Na1 2.302000 1_555
F37 Na2 2.302000 1_555
F37 Nd1 2.439378 1_555
F38 Na0 2.302000 1_545
F38 Na7 2.302000 1_655
F38 Na4 2.302000 1_556
F38 Na3 2.302000 1_656
F38 Nd2 2.439378 1_555
F39 Na5 2.302000 1_545
F39 Na6 2.302000 1_555
F39 Na1 2.302000 1_555
F39 Na2 2.302000 1_555
F39 Nd3 2.439378 1_555
F40 Na7 2.302000 1_565
F40 Na0 2.302000 1_455
F40 Na2 2.302000 1_566
F40 Na5 2.302000 1_556
F40 Nd4 2.439378 1_555
F41 Na6 2.302000 1_555
F41 Na4 2.302000 1_455
F41 Na3 2.302000 1_555
F41 Na1 2.302000 1_555
F41 Nd5 2.439378 1_555
