# generated using pymatgen
data_ZrCrAgS4
_symmetry_space_group_name_H-M   'P 1'
_cell_length_a   14.07546521
_cell_length_b   3.60434200
_cell_length_c   6.19287331
_cell_angle_alpha   90.00000000
_cell_angle_beta   115.10753396
_cell_angle_gamma   90.00000000
_symmetry_Int_Tables_number   1
_chemical_formula_structural   ZrCrAgS4
_chemical_formula_sum   'Zr2 Cr2 Ag2 S8'
_cell_volume   284.49565692
_cell_formula_units_Z   2
loop_
 _symmetry_equiv_pos_site_id
 _symmetry_equiv_pos_as_xyz
  1  'x, y, z'
loop_
 _atom_site_type_symbol
 _atom_site_label
 _atom_site_symmetry_multiplicity
 _atom_site_fract_x
 _atom_site_fract_y
 _atom_site_fract_z
 _atom_site_occupancy
  Zr  Zr0  1  0.75458800  0.00000000  0.75746200  1
  Zr  Zr1  1  0.74541200  0.50000000  0.24253800  1
  Cr  Cr0  1  0.24153400  0.00000000  0.22663900  1
  Cr  Cr1  1  0.25846600  0.50000000  0.77336100  1
  Ag  Ag0  1  0.01664000  0.50000000  0.51256500  1
  Ag  Ag1  1  0.48336000  0.00000000  0.48743500  1
  S  S0  1  0.14465500  0.50000000  0.97930400  1
  S  S1  1  0.87272100  0.50000000  0.03607700  1
  S  S2  1  0.62727900  0.00000000  0.96392300  1
  S  S3  1  0.35534500  0.00000000  0.02069600  1
  S  S4  1  0.15593700  0.00000000  0.49690400  1
  S  S5  1  0.86891500  0.00000000  0.52800900  1
  S  S6  1  0.63108500  0.50000000  0.47199100  1
  S  S7  1  0.34406300  0.50000000  0.50309600  1
loop_
_geom_bond_atom_site_label_1
_geom_bond_atom_site_label_2
_geom_bond_distance
_geom_bond_site_symmetry_2
Cr0 S0 2.383463 1_554
Cr0 S0 2.383463 1_544
Cr0 S3 2.434471 1_555
Cr0 S4 2.442173 1_555
Cr0 S7 2.482916 1_555
Cr0 S7 2.482916 1_545
Cr1 S3 2.383463 1_556
Cr1 S3 2.383463 1_566
Cr1 S0 2.434471 1_555
Cr1 S7 2.442173 1_555
Cr1 S4 2.482916 1_555
Cr1 S4 2.482916 1_565
Ag0 S0 2.679846 1_555
Ag0 S4 2.694964 1_565
Ag0 S4 2.694964 1_555
Ag0 S1 2.781757 1_455
Ag0 S5 2.783741 1_465
Ag0 S5 2.783741 1_455
Ag1 S3 2.679846 1_555
Ag1 S7 2.694964 1_545
Ag1 S7 2.694964 1_555
Ag1 S2 2.781757 1_555
Ag1 S6 2.783741 1_555
Ag1 S6 2.783741 1_545
S1 Zr0 2.560275 1_554
S1 Zr0 2.560275 1_564
S1 Zr1 2.605793 1_555
S2 Zr1 2.560275 1_556
S2 Zr1 2.560275 1_546
S2 Zr0 2.605793 1_555
S5 Zr0 2.559147 1_555
S5 Zr1 2.605204 1_545
S5 Zr1 2.605204 1_555
S6 Zr1 2.559147 1_555
S6 Zr0 2.605204 1_565
S6 Zr0 2.605204 1_555
