# generated using pymatgen
data_KNb13O33
_symmetry_space_group_name_H-M   'P 1'
_cell_length_a   3.85999417
_cell_length_b   11.60291590
_cell_length_c   15.55216360
_cell_angle_alpha   90.95610279
_cell_angle_beta   89.98959450
_cell_angle_gamma   99.58533551
_symmetry_Int_Tables_number   1
_chemical_formula_structural   KNb13O33
_chemical_formula_sum   'K1 Nb13 O33'
_cell_volume   686.71508571
_cell_formula_units_Z   1
loop_
 _symmetry_equiv_pos_site_id
 _symmetry_equiv_pos_as_xyz
  1  'x, y, z'
loop_
 _atom_site_type_symbol
 _atom_site_label
 _atom_site_symmetry_multiplicity
 _atom_site_fract_x
 _atom_site_fract_y
 _atom_site_fract_z
 _atom_site_occupancy
  K  K0  1  0.49998163  -0.00000553  0.49999856  1
  Nb  Nb0  1  0.70742713  0.41491967  0.62762980  1
  Nb  Nb1  1  0.29257884  0.58507977  0.37237038  1
  Nb  Nb2  1  0.91256997  0.82317906  0.32158299  1
  Nb  Nb3  1  0.08743166  0.17681653  0.67840944  1
  Nb  Nb4  1  0.15582059  0.31238227  0.90669844  1
  Nb  Nb5  1  0.84415619  0.68763931  0.09329332  1
  Nb  Nb6  1  0.93153750  0.86097755  0.77059675  1
  Nb  Nb7  1  0.06851188  0.13904703  0.22942076  1
  Nb  Nb8  1  0.77578129  0.55148894  0.86203684  1
  Nb  Nb9  1  0.22418320  0.44850547  0.13795623  1
  Nb  Nb10  1  0.86119849  0.72237226  0.53144106  1
  Nb  Nb11  1  0.13880987  0.27763194  0.46855732  1
  Nb  Nb12  1  0.00056524  0.00002843  0.00000789  1
  O  O0  1  0.08216622  0.16465807  0.95273214  1
  O  O1  1  0.91767774  0.83534966  0.04726803  1
  O  O2  1  0.42949744  0.85988857  0.75223371  1
  O  O3  1  0.57047357  0.14010753  0.24776785  1
  O  O4  1  0.73387356  0.46740295  0.73714456  1
  O  O5  1  0.26611708  0.53259169  0.26285559  1
  O  O6  1  0.68027824  0.36094379  0.90118051  1
  O  O7  1  0.31971224  0.63906078  0.09881531  1
  O  O8  1  0.65395881  0.30796613  0.49778540  1
  O  O9  1  0.34603682  0.69202991  0.50221468  1
  O  O10  1  0.25124231  0.50261746  0.86288893  1
  O  O11  1  0.74874342  0.49738008  0.13711207  1
  O  O12  1  0.80487628  0.60943876  0.97331867  1
  O  O13  1  0.19511192  0.39055051  0.02667592  1
  O  O14  1  0.90101029  0.80234449  0.63160406  1
  O  O15  1  0.09899123  0.19765177  0.36839498  1
  O  O16  1  0.61110149  0.22328782  0.66599397  1
  O  O17  1  0.38889807  0.77670973  0.33400590  1
  O  O18  1  0.96544037  0.93104098  0.87951390  1
  O  O19  1  0.03439690  0.06896694  0.12049880  1
  O  O20  1  0.87010161  0.73970253  0.21133825  1
  O  O21  1  0.12989116  0.26029321  0.78866213  1
  O  O22  1  0.92663213  0.85303515  0.45058510  1
  O  O23  1  0.07335374  0.14696121  0.54941008  1
  O  O24  1  0.84689274  0.69492587  0.80490031  1
  O  O25  1  0.15311074  0.30506192  0.19510273  1
  O  O26  1  0.77663182  0.55330261  0.56865497  1
  O  O27  1  0.22335898  0.44668769  0.43134691  1
  O  O28  1  0.81728045  0.63425567  0.38676321  1
  O  O29  1  0.18271632  0.36574167  0.61323387  1
  O  O30  1  0.49986605  -0.00001170  -0.00000088  1
  O  O31  1  0.98851255  0.97513032  0.29081951  1
  O  O32  1  0.01149323  0.02486455  0.70918104  1
loop_
_geom_bond_atom_site_label_1
_geom_bond_atom_site_label_2
_geom_bond_distance
_geom_bond_site_symmetry_2
K0 O22 2.663863 1_445
K0 O23 2.663961 1_655
K0 O23 2.664823 1_555
K0 O22 2.664832 1_545
Nb0 O4 1.796346 1_555
Nb0 O26 1.843069 1_555
Nb0 O29 2.021323 1_655
Nb0 O29 2.022103 1_555
Nb0 O16 2.281885 1_555
Nb0 O8 2.343428 1_555
Nb1 O5 1.796364 1_555
Nb1 O27 1.843173 1_555
Nb1 O28 2.021341 1_455
Nb1 O28 2.022062 1_555
Nb1 O17 2.281865 1_555
Nb1 O9 2.343407 1_555
Nb2 O31 1.810872 1_555
Nb2 O20 1.948453 1_555
Nb2 O17 2.010556 1_655
Nb2 O17 2.013541 1_555
Nb2 O22 2.029439 1_555
Nb2 O28 2.402812 1_555
Nb3 O32 1.810915 1_555
Nb3 O21 1.948561 1_555
Nb3 O16 2.010562 1_455
Nb3 O16 2.013524 1_555
Nb3 O23 2.029395 1_555
Nb3 O29 2.402798 1_555
Nb4 O0 1.846583 1_555
Nb4 O21 1.920433 1_555
Nb4 O6 2.010064 1_455
Nb4 O6 2.011151 1_555
Nb4 O13 2.055492 1_556
Nb4 O10 2.291576 1_555
Nb5 O1 1.846385 1_555
Nb5 O20 1.920473 1_555
Nb5 O7 2.010203 1_655
Nb5 O7 2.011126 1_555
Nb5 O12 2.055607 1_554
Nb5 O11 2.291883 1_555
Nb6 O18 1.861714 1_555
Nb6 O2 1.945261 1_655
Nb6 O2 1.956781 1_555
Nb6 O24 1.981937 1_555
Nb6 O32 2.118625 1_665
Nb6 O14 2.252489 1_555
Nb7 O19 1.861859 1_555
Nb7 O3 1.945469 1_455
Nb7 O3 1.956499 1_555
Nb7 O25 1.981595 1_555
Nb7 O31 2.118805 1_445
Nb7 O15 2.252123 1_555
Nb8 O12 1.842833 1_555
Nb8 O24 1.879342 1_555
Nb8 O10 2.009181 1_655
Nb8 O10 2.009747 1_555
Nb8 O4 2.152919 1_555
Nb8 O6 2.273299 1_555
Nb9 O13 1.842831 1_555
Nb9 O25 1.879484 1_555
Nb9 O11 2.009117 1_455
Nb9 O11 2.009829 1_555
Nb9 O5 2.153019 1_555
Nb9 O7 2.273399 1_555
Nb10 O14 1.793205 1_555
Nb10 O22 1.969648 1_555
Nb10 O9 2.011617 1_555
Nb10 O9 2.011650 1_655
Nb10 O26 2.028385 1_555
Nb10 O28 2.449989 1_555
Nb11 O15 1.793241 1_555
Nb11 O23 1.969685 1_555
Nb11 O8 2.011575 1_555
Nb11 O8 2.011672 1_455
Nb11 O27 2.028217 1_555
Nb11 O29 2.449939 1_555
Nb12 O30 1.927376 1_555
Nb12 O30 1.932619 1_455
Nb12 O19 2.020800 1_555
Nb12 O18 2.021054 1_444
Nb12 O0 2.033471 1_554
Nb12 O1 2.033901 1_445
