# generated using pymatgen
data_Na3Li3Mn2P2(CO7)2
_symmetry_space_group_name_H-M   'P 1'
_cell_length_a   6.73975600
_cell_length_b   8.80845894
_cell_length_c   10.20378893
_cell_angle_alpha   91.17529440
_cell_angle_beta   90.21546495
_cell_angle_gamma   90.71033697
_symmetry_Int_Tables_number   1
_chemical_formula_structural   Na3Li3Mn2P2(CO7)2
_chemical_formula_sum   'Na6 Li6 Mn4 P4 C4 O28'
_cell_volume   605.58808132
_cell_formula_units_Z   2
loop_
 _symmetry_equiv_pos_site_id
 _symmetry_equiv_pos_as_xyz
  1  'x, y, z'
loop_
 _atom_site_type_symbol
 _atom_site_label
 _atom_site_symmetry_multiplicity
 _atom_site_fract_x
 _atom_site_fract_y
 _atom_site_fract_z
 _atom_site_occupancy
  Na  Na0  1  0.24523500  0.91700200  0.87839100  1
  Na  Na1  1  0.24511700  0.91524400  0.37870000  1
  Na  Na2  1  0.99780900  0.74581500  0.12319800  1
  Na  Na3  1  0.50167900  0.74527300  0.12188900  1
  Na  Na4  1  0.50179900  0.25125200  0.87549200  1
  Na  Na5  1  0.50197700  0.25334100  0.37539100  1
  Li  Li0  1  0.03119000  0.72565600  0.61354700  1
  Li  Li1  1  0.46690900  0.72683700  0.61340500  1
  Li  Li2  1  0.97254600  0.27183700  0.88917600  1
  Li  Li3  1  0.97686100  0.27274500  0.38656100  1
  Li  Li4  1  0.77066400  0.08536900  0.62896800  1
  Li  Li5  1  0.76790100  0.09604300  0.12598500  1
  Mn  Mn0  1  0.74891100  0.63979600  0.88047400  1
  Mn  Mn1  1  0.74950600  0.64026000  0.39495900  1
  Mn  Mn2  1  0.24266600  0.35077200  0.61516600  1
  Mn  Mn3  1  0.24346900  0.35920700  0.10984100  1
  P  P0  1  0.24324000  0.58745000  0.84821800  1
  P  P1  1  0.24399300  0.58333300  0.36092500  1
  P  P2  1  0.75265400  0.40803700  0.64800200  1
  P  P3  1  0.75191900  0.40643100  0.14515700  1
  C  C0  1  0.76046000  0.95645600  0.86451100  1
  C  C1  1  0.76086900  0.95552000  0.36599700  1
  C  C2  1  0.24970800  0.04656100  0.63132600  1
  C  C3  1  0.24752600  0.06085100  0.13409500  1
  O  O0  1  0.25103400  0.89843000  0.63810200  1
  O  O1  1  0.25343000  0.91462200  0.14537000  1
  O  O2  1  0.75491800  0.92101200  0.98809900  1
  O  O3  1  0.75464600  0.92057100  0.48846100  1
  O  O4  1  0.74701300  0.85154400  0.77311400  1
  O  O5  1  0.74961500  0.84702700  0.27575000  1
  O  O6  1  0.06453700  0.68331700  0.89462800  1
  O  O7  1  0.43317400  0.67299100  0.89597600  1
  O  O8  1  0.06594700  0.68076500  0.40932300  1
  O  O9  1  0.43307300  0.67015500  0.41221900  1
  O  O10  1  0.24410900  0.57988500  0.69379900  1
  O  O11  1  0.75340800  0.57549500  0.59892700  1
  O  O12  1  0.24639800  0.57576200  0.20791900  1
  O  O13  1  0.74820300  0.56674400  0.08529300  1
  O  O14  1  0.23216000  0.42214900  0.89944900  1
  O  O15  1  0.77480000  0.41720300  0.80048000  1
  O  O16  1  0.23174600  0.41879400  0.41134200  1
  O  O17  1  0.77491100  0.42464400  0.29765100  1
  O  O18  1  0.55993100  0.31923300  0.61096000  1
  O  O19  1  0.92410800  0.31165000  0.58929300  1
  O  O20  1  0.56151700  0.31183800  0.11288200  1
  O  O21  1  0.92489000  0.30860400  0.08995600  1
  O  O22  1  0.24517500  0.13098000  0.73736200  1
  O  O23  1  0.23893200  0.14876200  0.23788600  1
  O  O24  1  0.25160000  0.11262700  0.51896700  1
  O  O25  1  0.24947900  0.12123400  0.01894800  1
  O  O26  1  0.77894100  0.09755300  0.82988800  1
  O  O27  1  0.77769700  0.09532300  0.32858600  1
loop_
_geom_bond_atom_site_label_1
_geom_bond_atom_site_label_2
_geom_bond_distance
_geom_bond_site_symmetry_2
Na0 O25 2.277422 1_566
Na0 O6 2.387680 1_555
Na0 O22 2.394707 1_565
Na0 O0 2.454450 1_555
Na0 O7 2.517538 1_555
Na0 O1 2.725065 1_556
Na1 O24 2.229088 1_565
Na1 O1 2.381615 1_555
Na1 O8 2.406073 1_555
Na1 O23 2.533797 1_565
Na1 O9 2.545035 1_555
Na1 O0 2.654233 1_555
Na2 O1 2.269364 1_655
Na2 O13 2.317749 1_555
Na2 O12 2.429517 1_655
Na2 O6 2.430269 1_654
Na2 O5 2.452676 1_555
Na2 O2 2.663574 1_554
Na3 O1 2.265439 1_555
Na3 O13 2.327743 1_555
Na3 O7 2.420093 1_554
Na3 O5 2.438417 1_555
Na3 O12 2.441657 1_555
Na3 O2 2.685464 1_554
Na4 O26 2.362579 1_555
Na4 O14 2.384211 1_555
Na4 O22 2.444450 1_555
Na4 O15 2.469389 1_555
Na4 O20 2.499707 1_556
Na4 O25 2.526949 1_556
Na4 O18 2.804702 1_555
Na5 O16 2.371613 1_555
Na5 O27 2.379543 1_555
Na5 O23 2.418262 1_555
Na5 O18 2.489434 1_555
Na5 O17 2.506213 1_555
Na5 O24 2.563472 1_555
Na5 O20 2.767839 1_555
Li0 O10 2.111523 1_555
Li0 O0 2.121308 1_555
Li0 O8 2.127408 1_555
Li0 O11 2.281497 1_455
Li1 O9 2.113558 1_555
Li1 O0 2.122868 1_555
Li1 O10 2.146611 1_555
Li1 O11 2.363334 1_555
Li2 O15 2.077419 1_555
Li2 O26 2.081266 1_555
Li2 O21 2.094182 1_556
Li2 O14 2.181987 1_655
Li3 O27 2.120905 1_555
Li3 O19 2.121926 1_555
Li3 O17 2.133429 1_555
Li3 O16 2.144430 1_655
Li3 O23 2.571756 1_655
Li4 O3 2.020873 1_545
Li4 O26 2.051266 1_555
Li4 O19 2.278452 1_555
Li4 O18 2.525988 1_555
Li4 O4 2.559057 1_545
Li5 O2 2.066625 1_544
Li5 O27 2.068246 1_555
Li5 O21 2.177692 1_555
Li5 O20 2.374953 1_555
Mn0 O15 2.117769 1_555
Mn0 O7 2.157527 1_555
Mn0 O6 2.160596 1_655
Mn0 O4 2.182525 1_555
Mn0 O13 2.199331 1_556
Mn1 O17 2.134081 1_555
Mn1 O9 2.159522 1_555
Mn1 O8 2.161938 1_655
Mn1 O11 2.169422 1_555
Mn1 O5 2.210786 1_555
Mn1 O3 2.628487 1_555
Mn2 O10 2.156329 1_555
Mn2 O18 2.160146 1_555
Mn2 O16 2.177373 1_555
Mn2 O19 2.184430 1_455
Mn2 O24 2.299253 1_555
Mn2 O22 2.324401 1_555
Mn3 O12 2.135684 1_555
Mn3 O20 2.189096 1_555
Mn3 O21 2.195305 1_455
Mn3 O14 2.229477 1_554
Mn3 O25 2.275609 1_555
Mn3 O23 2.289636 1_555
C0 O4 1.301486 1_555
C0 O26 1.303648 1_565
C0 O2 1.305899 1_555
C1 O3 1.293784 1_555
C1 O27 1.300461 1_565
C1 O5 1.314760 1_555
C2 O24 1.296359 1_555
C2 O22 1.300900 1_555
C2 O0 1.308191 1_545
C3 O1 1.296616 1_545
C3 O25 1.299663 1_555
C3 O23 1.300973 1_555
O6 P0 1.549534 1_555
O7 P0 1.549265 1_555
O8 P1 1.559810 1_555
O9 P1 1.561149 1_555
O10 P0 1.575737 1_555
O11 P2 1.567378 1_555
O12 P1 1.561451 1_555
O13 P3 1.550469 1_555
O14 P0 1.558120 1_555
O15 P2 1.562779 1_555
O16 P1 1.549186 1_555
O17 P3 1.567886 1_555
O18 P2 1.549478 1_555
O19 P2 1.556819 1_555
O20 P3 1.551943 1_555
O21 P3 1.558455 1_555
