# generated using pymatgen
data_CaNiGe
_symmetry_space_group_name_H-M   'P 1'
_cell_length_a   4.15426199
_cell_length_b   4.15426199
_cell_length_c   6.63787675
_cell_angle_alpha   90.00000000
_cell_angle_beta   90.00000000
_cell_angle_gamma   90.00000000
_symmetry_Int_Tables_number   1
_chemical_formula_structural   CaNiGe
_chemical_formula_sum   'Ca2 Ni2 Ge2'
_cell_volume   114.55576458
_cell_formula_units_Z   2
loop_
 _symmetry_equiv_pos_site_id
 _symmetry_equiv_pos_as_xyz
  1  'x, y, z'
loop_
 _atom_site_type_symbol
 _atom_site_label
 _atom_site_symmetry_multiplicity
 _atom_site_fract_x
 _atom_site_fract_y
 _atom_site_fract_z
 _atom_site_occupancy
  Ca  Ca0  1  0.00000000  0.50000000  0.32051597  1
  Ca  Ca1  1  0.50000000  -0.00000000  0.67948403  1
  Ni  Ni0  1  0.00000000  -0.00000000  -0.00000000  1
  Ni  Ni1  1  0.50000000  0.50000000  -0.00000000  1
  Ge  Ge0  1  -0.00000000  0.50000000  0.81514419  1
  Ge  Ge1  1  0.50000000  0.00000000  0.18485581  1
loop_
_geom_bond_atom_site_label_1
_geom_bond_atom_site_label_2
_geom_bond_distance
_geom_bond_site_symmetry_2
Ca0 Ni0 2.973369 1_555
Ca0 Ni0 2.973369 1_565
Ca0 Ni1 2.973369 1_555
Ca0 Ni1 2.973369 1_455
Ca0 Ge1 3.072432 1_465
Ca0 Ge1 3.072432 1_455
Ca0 Ge1 3.072432 1_565
Ca0 Ge1 3.072432 1_555
Ca0 Ge0 3.283281 1_555
Ca1 Ni0 2.973369 1_656
Ca1 Ni1 2.973369 1_556
Ca1 Ni1 2.973369 1_546
Ca1 Ni0 2.973369 1_556
Ca1 Ge0 3.072432 1_645
Ca1 Ge0 3.072432 1_655
Ca1 Ge0 3.072432 1_555
Ca1 Ge0 3.072432 1_545
Ca1 Ge1 3.283281 1_555
Ge0 Ni0 2.412494 1_566
Ge0 Ni0 2.412494 1_556
Ge0 Ni1 2.412494 1_456
Ge0 Ni1 2.412494 1_556
Ge1 Ni0 2.412494 1_555
Ge1 Ni1 2.412494 1_545
Ge1 Ni1 2.412494 1_555
Ge1 Ni0 2.412494 1_655
