# generated using pymatgen
data_VAg2(PO4)2
_symmetry_space_group_name_H-M   'P 1'
_cell_length_a   14.09545600
_cell_length_b   6.36037500
_cell_length_c   7.79557738
_cell_angle_alpha   80.34649474
_cell_angle_beta   90.00000000
_cell_angle_gamma   90.00000000
_symmetry_Int_Tables_number   1
_chemical_formula_structural   VAg2(PO4)2
_chemical_formula_sum   'V4 Ag8 P8 O32'
_cell_volume   688.99570968
_cell_formula_units_Z   4
loop_
 _symmetry_equiv_pos_site_id
 _symmetry_equiv_pos_as_xyz
  1  'x, y, z'
loop_
 _atom_site_type_symbol
 _atom_site_label
 _atom_site_symmetry_multiplicity
 _atom_site_fract_x
 _atom_site_fract_y
 _atom_site_fract_z
 _atom_site_occupancy
  V  V0  1  0.92494100  0.23444200  0.22442600  1
  V  V1  1  0.42494100  0.26555800  0.77557400  1
  V  V2  1  0.57505900  0.73444200  0.22442600  1
  V  V3  1  0.07505900  0.76555800  0.77557400  1
  Ag  Ag0  1  0.28644900  0.84886500  0.04522800  1
  Ag  Ag1  1  0.78644900  0.65113500  0.95477200  1
  Ag  Ag2  1  0.71355100  0.15113500  0.95477200  1
  Ag  Ag3  1  0.21355100  0.34886500  0.04522800  1
  Ag  Ag4  1  0.64698900  0.07547400  0.53081800  1
  Ag  Ag5  1  0.14698900  0.42452600  0.46918200  1
  Ag  Ag6  1  0.35301100  0.92452600  0.46918200  1
  Ag  Ag7  1  0.85301100  0.57547400  0.53081800  1
  P  P0  1  0.02060300  0.24888900  0.82683400  1
  P  P1  1  0.52060300  0.25111100  0.17316600  1
  P  P2  1  0.47939700  0.74888900  0.82683400  1
  P  P3  1  0.97939700  0.75111100  0.17316600  1
  P  P4  1  0.37483300  0.46377200  0.36115000  1
  P  P5  1  0.87483300  0.03622800  0.63885000  1
  P  P6  1  0.62516700  0.53622800  0.63885000  1
  P  P7  1  0.12516700  0.96377200  0.36115000  1
  O  O0  1  0.22154800  0.04213900  0.28462700  1
  O  O1  1  0.72154800  0.45786100  0.71537300  1
  O  O2  1  0.77845200  0.95786100  0.71537300  1
  O  O3  1  0.27845200  0.54213900  0.28462700  1
  O  O4  1  0.08533800  0.81377800  0.22609300  1
  O  O5  1  0.58533800  0.68622200  0.77390700  1
  O  O6  1  0.91466200  0.18622200  0.77390700  1
  O  O7  1  0.41466200  0.31377800  0.22609300  1
  O  O8  1  0.95749100  0.53157000  0.28358100  1
  O  O9  1  0.45749100  0.96843000  0.71641900  1
  O  O10  1  0.04250900  0.46843000  0.71641900  1
  O  O11  1  0.54250900  0.03157000  0.28358100  1
  O  O12  1  0.01840000  0.25936400  0.02084200  1
  O  O13  1  0.51840000  0.24063600  0.97915800  1
  O  O14  1  0.98160000  0.74063600  0.97915800  1
  O  O15  1  0.48160000  0.75936400  0.02084200  1
  O  O16  1  0.91083500  0.91850900  0.22172300  1
  O  O17  1  0.41083500  0.58149100  0.77827700  1
  O  O18  1  0.08916500  0.08149100  0.77827700  1
  O  O19  1  0.58916500  0.41850900  0.22172300  1
  O  O20  1  0.44588400  0.64559100  0.36456800  1
  O  O21  1  0.94588400  0.85440900  0.63543200  1
  O  O22  1  0.55411600  0.35440900  0.63543200  1
  O  O23  1  0.05411600  0.14559100  0.36456800  1
  O  O24  1  0.63731500  0.68553100  0.46330700  1
  O  O25  1  0.13731500  0.81446900  0.53669300  1
  O  O26  1  0.36268500  0.31446900  0.53669300  1
  O  O27  1  0.86268500  0.18553100  0.46330700  1
  O  O28  1  0.67149000  0.81976500  0.10444400  1
  O  O29  1  0.17149000  0.68023500  0.89555600  1
  O  O30  1  0.32851000  0.18023500  0.89555600  1
  O  O31  1  0.82851000  0.31976500  0.10444400  1
loop_
_geom_bond_atom_site_label_1
_geom_bond_atom_site_label_2
_geom_bond_distance
_geom_bond_site_symmetry_2
Ag0 O30 2.308735 1_564
Ag0 O29 2.357358 1_554
Ag0 O3 2.465871 1_555
Ag0 O0 2.569117 1_565
Ag1 O31 2.308735 1_556
Ag1 O28 2.357358 1_556
Ag1 O2 2.465871 1_555
Ag1 O1 2.569117 1_555
Ag2 O28 2.308735 1_546
Ag2 O31 2.357358 1_556
Ag2 O1 2.465871 1_555
Ag2 O2 2.569117 1_545
Ag3 O29 2.308735 1_554
Ag3 O30 2.357358 1_554
Ag3 O0 2.465871 1_555
Ag3 O3 2.569117 1_555
Ag4 O2 2.387942 1_545
Ag4 O22 2.451852 1_555
Ag4 O11 2.478307 1_555
Ag4 O24 2.623862 1_545
Ag5 O3 2.387942 1_555
Ag5 O23 2.451852 1_555
Ag5 O10 2.478307 1_555
Ag5 O25 2.623862 1_555
Ag6 O0 2.387942 1_565
Ag6 O20 2.451852 1_555
Ag6 O9 2.478307 1_555
Ag6 O26 2.623862 1_565
Ag7 O1 2.387942 1_555
Ag7 O21 2.451852 1_555
Ag7 O8 2.478307 1_555
Ag7 O27 2.623862 1_555
O0 P7 1.533036 1_545
O1 P6 1.533036 1_555
O2 P5 1.533036 1_565
O3 P4 1.533036 1_555
O4 P3 1.616838 1_455
O4 P7 1.634223 1_555
O5 P2 1.616838 1_555
O5 P6 1.634223 1_555
O6 P0 1.616838 1_655
O6 P5 1.634223 1_555
O7 P1 1.616838 1_555
O7 P4 1.634223 1_555
O8 P3 1.543685 1_555
O8 V0 2.070497 1_555
O9 P2 1.543685 1_555
O9 V1 2.070497 1_565
O10 P0 1.543685 1_555
O10 V3 2.070497 1_555
O11 P1 1.543685 1_555
O11 V2 2.070497 1_545
O12 P0 1.525308 1_554
O12 V0 2.048146 1_455
O13 P1 1.525308 1_556
O13 V1 2.048146 1_555
O14 P3 1.525308 1_556
O14 V3 2.048146 1_655
O15 P2 1.525308 1_554
O15 V2 2.048146 1_555
O16 P3 1.531673 1_555
O16 V0 2.022888 1_565
O17 P2 1.531673 1_555
O17 V1 2.022888 1_555
O18 P0 1.531673 1_555
O18 V3 2.022888 1_545
O19 P1 1.531673 1_555
O19 V2 2.022888 1_555
O20 P4 1.533423 1_555
O20 V2 2.149669 1_555
O21 P5 1.533423 1_565
O21 V3 2.149669 1_655
O22 P6 1.533423 1_555
O22 V1 2.149669 1_555
O23 P7 1.533423 1_545
O23 V0 2.149669 1_455
O24 P6 1.538815 1_555
O24 V2 2.034794 1_555
O25 P7 1.538815 1_555
O25 V3 2.034794 1_555
O26 P4 1.538815 1_555
O26 V1 2.034794 1_555
O27 P5 1.538815 1_555
O27 V0 2.034794 1_555
O28 V2 1.687200 1_555
O29 V3 1.687200 1_555
O30 V1 1.687200 1_555
O31 V0 1.687200 1_555
