# generated using pymatgen
data_Rb2Mo3P3O17
_symmetry_space_group_name_H-M   'P 1'
_cell_length_a   9.67745300
_cell_length_b   11.02645700
_cell_length_c   15.94654906
_cell_angle_alpha   68.49443825
_cell_angle_beta   90.00000000
_cell_angle_gamma   90.00000000
_symmetry_Int_Tables_number   1
_chemical_formula_structural   Rb2Mo3P3O17
_chemical_formula_sum   'Rb8 Mo12 P12 O68'
_cell_volume   1583.16093790
_cell_formula_units_Z   4
loop_
 _symmetry_equiv_pos_site_id
 _symmetry_equiv_pos_as_xyz
  1  'x, y, z'
loop_
 _atom_site_type_symbol
 _atom_site_label
 _atom_site_symmetry_multiplicity
 _atom_site_fract_x
 _atom_site_fract_y
 _atom_site_fract_z
 _atom_site_occupancy
  Rb  Rb0  1  0.37826700  0.81893400  0.50876700  1
  Rb  Rb1  1  0.62173300  0.18106600  0.49123300  1
  Rb  Rb2  1  0.87826700  0.18106600  0.99123300  1
  Rb  Rb3  1  0.12173300  0.81893400  0.00876700  1
  Rb  Rb4  1  0.87277200  0.40329300  0.20799700  1
  Rb  Rb5  1  0.12722800  0.59670700  0.79200300  1
  Rb  Rb6  1  0.37277200  0.59670700  0.29200300  1
  Rb  Rb7  1  0.62722800  0.40329300  0.70799700  1
  Mo  Mo0  1  0.11699900  0.95352600  0.24394900  1
  Mo  Mo1  1  0.88300100  0.04647400  0.75605100  1
  Mo  Mo2  1  0.61699900  0.04647400  0.25605100  1
  Mo  Mo3  1  0.38300100  0.95352600  0.74394900  1
  Mo  Mo4  1  0.61859200  0.75285300  0.06327600  1
  Mo  Mo5  1  0.38140800  0.24714700  0.93672400  1
  Mo  Mo6  1  0.11859200  0.24714700  0.43672400  1
  Mo  Mo7  1  0.88140800  0.75285300  0.56327600  1
  Mo  Mo8  1  0.75415500  0.57862700  0.40446900  1
  Mo  Mo9  1  0.24584500  0.42137300  0.59553100  1
  Mo  Mo10  1  0.25415500  0.42137300  0.09553100  1
  Mo  Mo11  1  0.74584500  0.57862700  0.90446900  1
  P  P0  1  0.82269700  0.83773500  0.20258900  1
  P  P1  1  0.17730300  0.16226500  0.79741100  1
  P  P2  1  0.32269700  0.16226500  0.29741100  1
  P  P3  1  0.67730300  0.83773500  0.70258900  1
  P  P4  1  0.59570600  0.33122900  0.06919700  1
  P  P5  1  0.40429400  0.66877100  0.93080300  1
  P  P6  1  0.09570600  0.66877100  0.43080300  1
  P  P7  1  0.90429400  0.33122900  0.56919700  1
  P  P8  1  0.39919500  0.95711900  0.12126700  1
  P  P9  1  0.60080500  0.04288100  0.87873300  1
  P  P10  1  0.89919500  0.04288100  0.37873300  1
  P  P11  1  0.10080500  0.95711900  0.62126700  1
  O  O0  1  0.97171100  0.95636100  0.33496300  1
  O  O1  1  0.02828900  0.04363900  0.66503700  1
  O  O2  1  0.47171100  0.04363900  0.16503700  1
  O  O3  1  0.52828900  0.95636100  0.83496300  1
  O  O4  1  0.43974800  0.73169600  0.00179800  1
  O  O5  1  0.56025200  0.26830400  0.99820200  1
  O  O6  1  0.93974800  0.26830400  0.49820200  1
  O  O7  1  0.06025200  0.73169600  0.50179800  1
  O  O8  1  0.76145600  0.73195800  0.28742400  1
  O  O9  1  0.23854400  0.26804200  0.71257600  1
  O  O10  1  0.26145600  0.26804200  0.21257600  1
  O  O11  1  0.73854400  0.73195800  0.78742400  1
  O  O12  1  0.58240100  0.60116200  0.42702500  1
  O  O13  1  0.41759900  0.39883800  0.57297500  1
  O  O14  1  0.08240100  0.39883800  0.07297500  1
  O  O15  1  0.91759900  0.60116200  0.92702500  1
  O  O16  1  0.74455900  0.46261800  0.35404700  1
  O  O17  1  0.25544100  0.53738200  0.64595300  1
  O  O18  1  0.24455900  0.53738200  0.14595300  1
  O  O19  1  0.75544100  0.46261800  0.85404700  1
  O  O20  1  0.78700900  0.80702300  0.11732100  1
  O  O21  1  0.21299100  0.19297700  0.88267900  1
  O  O22  1  0.28700900  0.19297700  0.38267900  1
  O  O23  1  0.71299100  0.80702300  0.61732100  1
  O  O24  1  0.67058300  0.23115300  0.14962000  1
  O  O25  1  0.32941700  0.76884700  0.85038000  1
  O  O26  1  0.17058300  0.76884700  0.35038000  1
  O  O27  1  0.82941700  0.23115300  0.64962000  1
  O  O28  1  0.98238000  0.83948900  0.20259800  1
  O  O29  1  0.01762000  0.16051100  0.79740200  1
  O  O30  1  0.48238000  0.16051100  0.29740200  1
  O  O31  1  0.51762000  0.83948900  0.70259800  1
  O  O32  1  0.60994500  0.60409300  0.15245600  1
  O  O33  1  0.39005500  0.39590700  0.84754400  1
  O  O34  1  0.10994500  0.39590700  0.34754400  1
  O  O35  1  0.89005500  0.60409300  0.65245600  1
  O  O36  1  0.70753700  0.44000000  0.02695600  1
  O  O37  1  0.29246300  0.56000000  0.97304400  1
  O  O38  1  0.20753700  0.56000000  0.47304400  1
  O  O39  1  0.79246300  0.44000000  0.52695600  1
  O  O40  1  0.86054100  0.96137600  0.47591900  1
  O  O41  1  0.13945900  0.03862400  0.52408100  1
  O  O42  1  0.36054100  0.03862400  0.02408100  1
  O  O43  1  0.63945900  0.96137600  0.97591900  1
  O  O44  1  0.49016000  0.83669200  0.13002200  1
  O  O45  1  0.50984000  0.16330800  0.86997800  1
  O  O46  1  0.99016000  0.16330800  0.36997800  1
  O  O47  1  0.00984000  0.83669200  0.63002200  1
  O  O48  1  0.78722700  0.71328000  0.48150400  1
  O  O49  1  0.21277300  0.28672000  0.51849600  1
  O  O50  1  0.28722700  0.28672000  0.01849600  1
  O  O51  1  0.71277300  0.71328000  0.98150400  1
  O  O52  1  0.76236100  0.97168300  0.19263900  1
  O  O53  1  0.23763900  0.02831700  0.80736100  1
  O  O54  1  0.26236100  0.02831700  0.30736100  1
  O  O55  1  0.73763900  0.97168300  0.69263900  1
  O  O56  1  0.26616400  0.89422700  0.17574200  1
  O  O57  1  0.73383600  0.10577300  0.82425800  1
  O  O58  1  0.76616400  0.10577300  0.32425800  1
  O  O59  1  0.23383600  0.89422700  0.67574200  1
  O  O60  1  0.56899400  0.90495700  0.34180300  1
  O  O61  1  0.43100600  0.09504300  0.65819700  1
  O  O62  1  0.06899400  0.09504300  0.15819700  1
  O  O63  1  0.93100600  0.90495700  0.84180300  1
  O  O64  1  0.96913600  0.60864400  0.40322300  1
  O  O65  1  0.03086400  0.39135600  0.59677700  1
  O  O66  1  0.46913600  0.39135600  0.09677700  1
  O  O67  1  0.53086400  0.60864400  0.90322300  1
loop_
_geom_bond_atom_site_label_1
_geom_bond_atom_site_label_2
_geom_bond_distance
_geom_bond_site_symmetry_2
Mo0 O62 1.719363 1_565
Mo0 O0 2.029180 1_455
Mo0 O56 2.053235 1_555
Mo0 O54 2.071942 1_565
Mo0 O28 2.078716 1_455
Mo0 O26 2.182244 1_555
Mo1 O63 1.719363 1_545
Mo1 O1 2.029180 1_655
Mo1 O57 2.053235 1_555
Mo1 O55 2.071942 1_545
Mo1 O29 2.078716 1_655
Mo1 O27 2.182244 1_555
Mo2 O60 1.719363 1_545
Mo2 O2 2.029180 1_555
Mo2 O58 2.053235 1_555
Mo2 O52 2.071942 1_545
Mo2 O30 2.078716 1_555
Mo2 O24 2.182244 1_555
Mo3 O61 1.719363 1_565
Mo3 O3 2.029180 1_555
Mo3 O59 2.053235 1_555
Mo3 O53 2.071942 1_565
Mo3 O31 2.078716 1_555
Mo3 O25 2.182244 1_555
Mo4 O32 1.734847 1_555
Mo4 O51 1.771624 1_554
Mo4 O20 2.033065 1_555
Mo4 O4 2.044193 1_555
Mo4 O44 2.062447 1_555
Mo4 O43 2.218021 1_554
Mo5 O33 1.734847 1_555
Mo5 O50 1.771624 1_556
Mo5 O21 2.033065 1_555
Mo5 O5 2.044193 1_555
Mo5 O45 2.062447 1_555
Mo5 O42 2.218021 1_556
Mo6 O34 1.734847 1_555
Mo6 O49 1.771624 1_555
Mo6 O22 2.033065 1_555
Mo6 O6 2.044193 1_455
Mo6 O46 2.062447 1_455
Mo6 O41 2.218021 1_555
Mo7 O35 1.734847 1_555
Mo7 O48 1.771624 1_555
Mo7 O23 2.033065 1_555
Mo7 O7 2.044193 1_655
Mo7 O47 2.062447 1_655
Mo7 O40 2.218021 1_555
Mo8 O12 1.737631 1_555
Mo8 O16 1.745136 1_555
Mo8 O8 2.008354 1_555
Mo8 O39 2.024864 1_555
Mo8 O64 2.105581 1_555
Mo8 O48 2.270076 1_555
Mo9 O13 1.737631 1_555
Mo9 O17 1.745136 1_555
Mo9 O9 2.008354 1_555
Mo9 O38 2.024864 1_555
Mo9 O65 2.105581 1_555
Mo9 O49 2.270076 1_555
Mo10 O14 1.737631 1_555
Mo10 O18 1.745136 1_555
Mo10 O10 2.008354 1_555
Mo10 O37 2.024864 1_554
Mo10 O66 2.105581 1_555
Mo10 O50 2.270076 1_555
Mo11 O15 1.737631 1_555
Mo11 O19 1.745136 1_555
Mo11 O11 2.008354 1_555
Mo11 O36 2.024864 1_556
Mo11 O67 2.105581 1_555
Mo11 O51 2.270076 1_555
O0 P10 1.542078 1_565
O1 P11 1.542078 1_545
O2 P8 1.542078 1_545
O3 P9 1.542078 1_565
O4 P5 1.567408 1_554
O4 Rb3 3.238441 1_555
O5 P4 1.567408 1_556
O5 Rb2 3.238441 1_555
O6 P7 1.567408 1_555
O6 Rb1 3.238441 1_555
O7 P6 1.567408 1_555
O7 Rb0 3.238441 1_555
O8 P0 1.544305 1_555
O9 P1 1.544305 1_555
O10 P2 1.544305 1_555
O11 P3 1.544305 1_555
O12 Rb6 2.971779 1_555
O13 Rb7 2.971779 1_555
O14 Rb4 2.971779 1_455
O15 Rb5 2.971779 1_655
O16 Rb4 2.916958 1_555
O16 Rb1 3.295031 1_555
O17 Rb5 2.916958 1_555
O17 Rb0 3.295031 1_555
O18 Rb6 2.916958 1_555
O18 Rb3 3.295031 1_555
O19 Rb7 2.916958 1_555
O19 Rb2 3.295031 1_555
O20 P0 1.555774 1_555
O21 P1 1.555774 1_555
O22 P2 1.555774 1_555
O23 P3 1.555774 1_555
O24 P4 1.532934 1_555
O24 Rb4 3.097328 1_555
O24 Rb2 3.427323 1_554
O25 P5 1.532934 1_555
O25 Rb5 3.097328 1_555
O25 Rb3 3.427323 1_556
O26 P6 1.532934 1_555
O26 Rb6 3.097328 1_555
O26 Rb0 3.427323 1_555
O27 P7 1.532934 1_555
O27 Rb7 3.097328 1_555
O27 Rb1 3.427323 1_555
O28 P0 1.545446 1_555
O28 Rb3 3.455078 1_655
O29 P1 1.545446 1_555
O29 Rb2 3.455078 1_455
O30 P2 1.545446 1_555
O30 Rb1 3.455078 1_555
O31 P3 1.545446 1_555
O31 Rb0 3.455078 1_555
O32 Rb6 3.177069 1_555
O32 Rb4 3.273886 1_555
O33 Rb7 3.177069 1_555
O33 Rb5 3.273886 1_555
O34 Rb4 3.177069 1_455
O34 Rb6 3.273886 1_555
O35 Rb5 3.177069 1_655
O35 Rb7 3.273886 1_555
O36 P4 1.571976 1_555
O36 Rb4 3.193543 1_555
O37 P5 1.571976 1_555
O37 Rb5 3.193543 1_555
O38 P6 1.571976 1_555
O38 Rb6 3.193543 1_555
O39 P7 1.571976 1_555
O39 Rb7 3.193543 1_555
O40 P10 1.525861 1_565
O40 Rb1 3.420871 1_565
O41 P11 1.525861 1_545
O41 Rb0 3.420871 1_545
O42 P8 1.525861 1_545
O42 Rb3 3.420871 1_545
O43 P9 1.525861 1_565
O43 Rb2 3.420871 1_565
O44 P8 1.556209 1_555
O44 Rb6 3.154911 1_555
O45 P9 1.556209 1_555
O45 Rb7 3.154911 1_555
O46 P10 1.556209 1_555
O46 Rb4 3.154911 1_555
O47 P11 1.556209 1_555
O47 Rb5 3.154911 1_555
O52 P0 1.541343 1_555
O52 Rb2 3.386309 1_564
O53 P1 1.541343 1_555
O53 Rb3 3.386309 1_546
O54 P2 1.541343 1_555
O54 Rb0 3.386309 1_545
O55 P3 1.541343 1_555
O55 Rb1 3.386309 1_565
O56 P8 1.565647 1_555
O56 Rb6 3.287029 1_555
O56 Rb3 3.369495 1_555
O57 P9 1.565647 1_555
O57 Rb7 3.287029 1_555
O57 Rb2 3.369495 1_555
O58 P10 1.565647 1_555
O58 Rb4 3.287029 1_555
O58 Rb1 3.369495 1_555
O59 P11 1.565647 1_555
O59 Rb5 3.287029 1_555
O59 Rb0 3.369495 1_555
O60 Rb0 3.089302 1_555
O61 Rb1 3.089302 1_555
O62 Rb2 3.089302 1_454
O63 Rb3 3.089302 1_656
O64 P6 1.532021 1_655
O65 P7 1.532021 1_455
O66 P4 1.532021 1_555
O67 P5 1.532021 1_555
